drugbank_target|P13861 cAMP-dependent protein kinase type II-alpha regulatory subunit (DB05798)
 OpenBabel12092120323D

  0  0  0     0  0            999 V3000
M  V30 BEGIN CTAB
M  V30 COUNTS 6355 6409 0 0 0
M  V30 BEGIN ATOM
M  V30 1 H -0.908 1.98254 -0.117106 0
M  V30 2 N 0 1.576 0 0
M  V30 3 C 0.933 2.03868 1.02534 0
M  V30 4 C 1.911 0.928543 1.3348 0
M  V30 5 O 3.095 1.19667 1.45644 0
M  V30 6 C 0.222 2.43627 2.35294 0
M  V30 7 C -0.732 3.65373 2.2001 0
M  V30 8 S 0.101 5.13292 1.52614 0
M  V30 9 C 1.257 5.56322 2.86805 0
M  V30 10 H 1.49 2.90518 0.631377 0
M  V30 11 H -0.977 1.52953 0.210867 0
M  V30 12 H 0.981 2.67203 3.11629 0
M  V30 13 H -0.358 1.57376 2.7183 0
M  V30 14 H -1.165 3.90944 3.18086 0
M  V30 15 H -1.563 3.418 1.51819 0
M  V30 16 H 0.729 5.58782 3.83104 0
M  V30 17 H 1.672 6.56266 2.65933 0
M  V30 18 H 2.08 4.83886 2.90714 0
M  V30 19 N 1.4781 -0.272755 1.55222 0
M  V30 20 C 2.7031 -1.02683 1.80197 0
M  V30 21 C 3.1281 -1.79142 0.573551 0
M  V30 22 O 2.4861 -1.74917 -0.476849 0
M  V30 23 C 2.5341 -1.9609 3.02624 0
M  V30 24 O 1.6381 -3.04863 2.77727 0
M  V30 25 H 0.9791 -0.293557 0.595584 0
M  V30 26 H 3.5091 -0.30159 2.02365 0
M  V30 27 H 3.5191 -2.38039 3.31363 0
M  V30 28 H 2.1941 -1.39851 3.91682 0
M  V30 29 H 0.7711 -2.67228 2.60084 0
M  V30 30 N 2.9562 -1.48159 -0.537278 0
M  V30 31 C 3.9062 -1.5854 -1.63857 0
M  V30 32 C 4.8902 -0.442969 -1.54682 0
M  V30 33 O 6.0822 -0.69401 -1.62827 0
M  V30 34 C 3.2112 -1.62144 -3.02596 0
M  V30 35 C 2.2972 -2.81841 -3.16901 0
M  V30 36 N 2.6882 -4.06337 -3.01204 0
M  V30 37 C 0.9862 -2.79021 -3.47942 0
M  V30 38 C 1.6872 -4.86606 -3.18731 0
M  V30 39 N 0.6632 -4.19288 -3.45974 0
M  V30 40 H 4.4652 -2.5255 -1.50319 0
M  V30 41 H 1.9792 -1.4443 -0.742555 0
M  V30 42 H 3.9762 -1.67674 -3.81695 0
M  V30 43 H 2.6362 -0.69245 -3.17231 0
M  V30 44 H 3.6472 -4.36888 -2.78117 0
M  V30 45 H 0.3242 -1.95347 -3.6898 0
M  V30 46 H 1.7142 -5.95385 -3.11394 0
M  V30 47 N 4.4343 0.785586 -1.36625 0
M  V30 48 C 5.6833 1.53883 -1.30396 0
M  V30 49 C 5.9963 1.95271 0.113452 0
M  V30 50 O 7.2023 2.69858 0.298142 0
M  V30 51 C 5.6583 2.77808 -2.28802 0
M  V30 52 C 5.2663 2.43574 -3.75999 0
M  V30 53 C 7.0103 3.55783 -2.31558 0
M  V30 54 C 4.9173 3.63919 -4.66173 0
M  V30 55 H 3.8473 0.577678 -0.484566 0
M  V30 56 H 6.4983 0.861705 -1.62009 0
M  V30 57 H 4.8803 3.47339 -1.90188 0
M  V30 58 H 6.0543 1.81916 -4.23371 0
M  V30 59 H 4.3693 1.78803 -3.76056 0
M  V30 60 H 6.9663 4.45205 -2.96137 0
M  V30 61 H 7.3093 3.94644 -1.3252 0
M  V30 62 H 7.8423 2.93235 -2.68809 0
M  V30 63 H 4.5813 3.3015 -5.66287 0
M  V30 64 H 4.1013 4.2473 -4.23515 0
M  V30 65 H 5.7803 4.30901 -4.82632 0
M  V30 66 N 5.9124 1.20967 1.01018 0
M  V30 67 C 6.8444 0.922059 2.09835 0
M  V30 68 C 7.8574 -0.0927106 1.62536 0
M  V30 69 O 9.0464 0.139127 1.77957 0
M  V30 70 C 6.1464 0.362004 3.36961 0
M  V30 71 C 5.3194 1.42986 4.13369 0
M  V30 72 C 4.3784 0.879976 5.1879 0
M  V30 73 O 3.4044 1.56219 5.47343 0
M  V30 74 N 4.6064 -0.307396 5.79686 0
M  V30 75 H 7.3714 1.8588 2.35093 0
M  V30 76 H 4.9324 1.11422 1.1746 0
M  V30 77 H 6.9244 -0.0201474 4.04695 0
M  V30 78 H 5.4944 -0.479437 3.08902 0
M  V30 79 H 4.7144 1.98608 3.40512 0
M  V30 80 H 6.0024 2.14885 4.61196 0
M  V30 81 H 5.4004 -0.878796 5.58832 0
M  V30 82 H 3.9574 -0.631115 6.48737 0
M  V30 83 N 7.3905 -1.2043 1.01659 0
M  V30 84 C 8.6395 -1.89118 0.701237 0
M  V30 85 C 8.9525 -1.79705 -0.772358 0
M  V30 86 O 10.1585 -2.43528 -1.20026 0
M  V30 87 C 8.6145 -3.39168 1.20388 0
M  V30 88 C 8.2225 -3.57166 2.70438 0
M  V30 89 C 9.9665 -4.1341 0.963953 0
M  V30 90 C 7.8735 -5.01042 3.14183 0
M  V30 91 H 6.8035 -0.708267 0.2586 0
M  V30 92 H 9.4545 -1.36239 1.22927 0
M  V30 93 H 7.8365 -3.91369 0.603824 0
M  V30 94 H 9.0105 -3.15351 3.35992 0
M  V30 95 H 7.3255 -2.96294 2.92572 0
M  V30 96 H 9.9225 -5.19491 1.26621 0
M  V30 97 H 10.2655 -4.16181 -0.099578 0
M  V30 98 H 10.7985 -3.67309 1.52738 0
M  V30 99 H 7.5375 -5.03426 4.19812 0
M  V30 100 H 7.0575 -5.43668 2.53348 0
M  V30 101 H 8.7365 -5.69623 3.0682 0
M  V30 102 N 8.8686 -0.792821 -1.36206 0
M  V30 103 C 10.2796 -0.429513 -1.81692 0
M  V30 104 C 10.6306 1.04695 -1.65932 0
M  V30 105 O 9.7556 1.81256 -1.18218 0
M  V30 106 C 10.3506 -0.772831 -3.29868 0
M  V30 107 C 8.9096 -0.462307 -3.7355 0
M  V30 108 C 8.0566 -1.00569 -2.5842 0
M  V30 109 H 11.0076 -0.985672 -1.24379 0
M  V30 110 H 11.0286 -0.0651928 -3.80444 0
M  V30 111 H 10.5406 -1.84747 -3.41307 0
M  V30 112 H 8.6416 0.604158 -3.67669 0
M  V30 113 H 8.7546 -0.985299 -4.68859 0
M  V30 114 H 7.1186 -0.428734 -2.51066 0
M  V30 115 H 7.9016 -2.08616 -2.72643 0
M  V30 116 N 10.3467 1.47872 -0.545128 0
M  V30 117 C 11.7577 1.86384 -0.108581 0
M  V30 118 C 12.1087 1.45309 1.31832 0
M  V30 119 O 11.2337 0.850641 1.9898 0
M  V30 120 C 11.8287 3.38265 -0.190274 0
M  V30 121 C 10.3877 3.75914 0.191164 0
M  V30 122 C 9.5347 2.71926 -0.543273 0
M  V30 123 H 12.4857 1.39561 -0.755537 0
M  V30 124 H 12.5067 3.75831 0.594217 0
M  V30 125 H 12.0187 3.6813 -1.2289 0
M  V30 126 H 10.1197 3.51665 1.23136 0
M  V30 127 H 10.2327 4.78836 -0.158987 0
M  V30 128 H 8.5967 2.54697 0.0122495 0
M  V30 129 H 9.3797 3.04634 -1.58282 0
M  V30 130 N 11.8248 0.280983 1.55075 0
M  V30 131 C 13.0728 -0.333455 1.9933 0
M  V30 132 C 13.3938 -1.55937 1.17085 0
M  V30 133 O 12.6638 -1.94143 0.261805 0
M  V30 134 H 11.2438 -0.126197 0.736263 0
M  V30 135 H 13.9058 0.387678 1.91005 0
M  V30 136 H 13.0018 -0.619292 3.05894 0
M  V30 137 N 13.3029 -1.57598 0.00835791 0
M  V30 138 C 14.2329 -2.1198 -0.979113 0
M  V30 139 C 15.2139 -1.03091 -1.35301 0
M  V30 140 O 16.3989 -1.30818 -1.43528 0
M  V30 141 C 13.5289 -2.62995 -2.26828 0
M  V30 142 C 12.4829 -3.76485 -2.03576 0
M  V30 143 C 11.8089 -4.13846 -3.38579 0
M  V30 144 C 13.1089 -5.0342 -1.39161 0
M  V30 145 H 14.8029 -2.94738 -0.526281 0
M  V30 146 H 12.3489 -1.41783 -0.251704 0
M  V30 147 H 14.3019 -2.99669 -2.96271 0
M  V30 148 H 13.0259 -1.7737 -2.7424 0
M  V30 149 H 11.6849 -3.40217 -1.36557 0
M  V30 150 H 11.3329 -3.25232 -3.83709 0
M  V30 151 H 11.0329 -4.90312 -3.23834 0
M  V30 152 H 12.5569 -4.53086 -4.09323 0
M  V30 153 H 13.9709 -5.37812 -1.98573 0
M  V30 154 H 12.3679 -5.84746 -1.34878 0
M  V30 155 H 13.4379 -4.83548 -0.361868 0
M  V30 156 N 14.781 0.264519 -1.55364 0
M  V30 157 C 16.009 1.013 -1.80405 0
M  V30 158 C 16.424 1.79618 -0.581622 0
M  V30 159 O 15.781 1.76879 0.449468 0
M  V30 160 C 15.832 1.96487 -3.03439 0
M  V30 161 O 15.553 1.21341 -4.20961 0
M  V30 162 C 17.054 2.83079 -3.41147 0
M  V30 163 H 14.274 0.298875 -0.600762 0
M  V30 164 H 16.818 0.292736 -2.02394 0
M  V30 165 H 14.973 2.63965 -2.83551 0
M  V30 166 H 15.387 1.85573 -4.90574 0
M  V30 167 H 16.861 3.4565 -4.30384 0
M  V30 168 H 17.338 3.53286 -2.60932 0
M  V30 169 H 17.944 2.2108 -3.63323 0
M  V30 170 N 16.2591 1.48442 0.529413 0
M  V30 171 C 17.1691 1.6569 1.66084 0
M  V30 172 C 18.1851 0.539432 1.65427 0
M  V30 173 O 19.3611 0.810572 1.84368 0
M  V30 174 C 16.4261 1.69315 3.02545 0
M  V30 175 C 15.4871 2.92694 3.14052 0
M  V30 176 C 14.7201 2.96137 4.44003 0
M  V30 177 O 14.9431 2.07973 5.31134 0
M  V30 178 O 13.8771 3.88312 4.59888 0
M  V30 179 H 17.7031 2.61483 1.54469 0
M  V30 180 H 15.2881 1.3185 0.702567 0
M  V30 181 H 17.1701 1.74217 3.83701 0
M  V30 182 H 15.8451 0.766966 3.14483 0
M  V30 183 H 14.7521 2.93324 2.32189 0
M  V30 184 H 16.0851 3.84699 3.0703 0
M  V30 185 N 17.7372 -0.778329 1.37039 0
M  V30 186 C 18.6672 -1.90546 1.34962 0
M  V30 187 C 19.6482 -1.68681 0.219274 0
M  V30 188 O 20.8332 -1.89634 0.418624 0
M  V30 189 C 17.9632 -3.27734 1.14925 0
M  V30 190 C 16.9172 -3.64147 2.24902 0
M  V30 191 C 16.2432 -4.99806 1.89996 0
M  V30 192 C 17.5432 -3.71579 3.67051 0
M  V30 193 H 19.2372 -1.92541 2.29277 0
M  V30 194 H 16.7832 -0.924948 1.10366 0
M  V30 195 H 18.7362 -4.06215 1.12104 0
M  V30 196 H 17.4602 -3.26154 0.170631 0
M  V30 197 H 16.1192 -2.8797 2.26868 0
M  V30 198 H 15.7672 -4.94759 0.906796 0
M  V30 199 H 15.4672 -5.25139 2.63634 0
M  V30 200 H 16.9912 -5.80694 1.88749 0
M  V30 201 H 18.4052 -4.40227 3.67251 0
M  V30 202 H 16.8022 -4.08405 4.39688 0
M  V30 203 H 17.8722 -2.72404 4.01154 0
M  V30 204 N 19.2153 -1.21501 -1.00376 0
M  V30 205 C 20.1453 -0.999478 -2.11028 0
M  V30 206 C 21.1263 0.0759671 -1.6993 0
M  V30 207 O 22.3113 -0.0841106 -1.94018 0
M  V30 208 C 19.4413 -0.564709 -3.42678 0
M  V30 209 C 18.3953 -1.58486 -3.97576 0
M  V30 210 C 17.7213 -1.00628 -5.25146 0
M  V30 211 C 19.0213 -2.97204 -4.29496 0
M  V30 212 H 20.7153 -1.92495 -2.29317 0
M  V30 213 H 18.2613 -0.92693 -1.102 0
M  V30 214 H 20.2143 -0.401091 -4.19487 0
M  V30 215 H 18.9383 0.396411 -3.24185 0
M  V30 216 H 17.5973 -1.73606 -3.22888 0
M  V30 217 H 17.2453 -0.0368439 -5.02987 0
M  V30 218 H 16.9453 -1.68771 -5.62841 0
M  V30 219 H 18.4693 -0.854015 -6.04598 0
M  V30 220 H 19.8833 -2.8552 -4.97143 0
M  V30 221 H 18.2803 -3.62372 -4.78338 0
M  V30 222 H 19.3503 -3.47956 -3.3772 0
M  V30 223 N 20.6934 1.19889 -1.02296 0
M  V30 224 C 21.6254 2.22334 -0.556787 0
M  V30 225 C 22.6384 1.58674 0.364199 0
M  V30 226 O 23.8274 1.77768 0.161533 0
M  V30 227 C 20.9274 3.38257 0.208694 0
M  V30 228 C 20.1004 4.31504 -0.71577 0
M  V30 229 C 19.1594 5.262 0.00325597 0
M  V30 230 O 18.1854 5.65798 -0.621357 0
M  V30 231 N 19.3874 5.66303 1.27599 0
M  V30 232 H 22.1524 2.62957 -1.43784 0
M  V30 233 H 19.7134 1.34495 -0.901261 0
M  V30 234 H 21.7054 3.98616 0.699111 0
M  V30 235 H 20.2754 2.96472 0.991102 0
M  V30 236 H 19.4954 3.69016 -1.38638 0
M  V30 237 H 20.7834 4.9072 -1.34428 0
M  V30 238 H 20.1814 5.36155 1.80429 0
M  V30 239 H 18.7384 6.28942 1.71102 0
M  V30 240 N 22.1715 0.800033 1.35784 0
M  V30 241 C 23.4195 0.376597 1.9856 0
M  V30 242 C 23.7405 -1.05812 1.63795 0
M  V30 243 O 23.0105 -1.73103 0.917171 0
M  V30 244 H 21.5905 0.136261 0.734467 0
M  V30 245 H 24.2525 1.02442 1.65806 0
M  V30 246 H 23.3485 0.477002 3.08433 0
M  V30 247 N 23.6496 -1.47581 0.552962 0
M  V30 248 C 24.8796 -2.06575 0.0320091 0
M  V30 249 C 25.2876 -1.4067 -1.26525 0
M  V30 250 O 24.6306 -0.495808 -1.76883 0
M  V30 251 C 24.6926 -3.58705 -0.238913 0
M  V30 252 C 24.3566 -4.46625 0.968272 0
M  V30 253 C 25.3536 -4.85 1.87274 0
M  V30 254 C 23.0386 -4.88201 1.18175 0
M  V30 255 C 25.0326 -5.63745 2.9744 0
M  V30 256 C 22.7196 -5.66712 2.28651 0
M  V30 257 C 23.7176 -6.04394 3.18114 0
M  V30 258 O 23.4056 -6.81324 4.26676 0
M  V30 259 H 23.1376 -0.674763 0.0408689 0
M  V30 260 H 25.6916 -1.90634 0.764719 0
M  V30 261 H 23.9216 -3.72844 -1.02588 0
M  V30 262 H 25.6106 -3.99735 -0.704731 0
M  V30 263 H 26.3766 -4.53482 1.71984 0
M  V30 264 H 22.2556 -4.58339 0.494593 0
M  V30 265 H 25.7996 -5.93077 3.67296 0
M  V30 266 H 21.6966 -5.97642 2.43915 0
M  V30 267 H 22.4646 -6.99712 4.24671 0
M  V30 268 N 25.1277 -0.289203 -1.54924 0
M  V30 269 C 26.3557 0.326463 -2.04308 0
M  V30 270 C 26.7707 1.48413 -1.16701 0
M  V30 271 O 26.1277 1.81507 -0.190087 0
M  V30 272 C 26.1787 0.794014 -3.52672 0
M  V30 273 O 25.8997 -0.317564 -4.36948 0
M  V30 274 C 27.4007 1.47605 -4.18004 0
M  V30 275 H 24.6207 0.0726272 -0.667058 0
M  V30 276 H 27.1647 -0.425401 -2.00026 0
M  V30 277 H 25.3197 1.49593 -3.57352 0
M  V30 278 H 25.7337 0.0443186 -5.24481 0
M  V30 279 H 27.2077 1.75447 -5.23376 0
M  V30 280 H 27.6847 2.41224 -3.67025 0
M  V30 281 H 28.2907 0.81762 -4.17367 0
M  V30 282 N 26.6058 1.57591 -0.0167156 0
M  V30 283 C 27.8518 1.91567 0.665582 0
M  V30 284 C 28.1848 0.892298 1.72487 0
M  V30 285 O 27.4598 -0.0867127 1.94307 0
M  V30 286 C 27.7428 3.36069 1.29342 0
M  V30 287 C 27.5958 4.49135 0.244541 0
M  V30 288 C 28.9148 3.803 2.21495 0
M  V30 289 H 26.0338 0.69666 0.240488 0
M  V30 290 H 28.6758 1.89866 -0.0714356 0
M  V30 291 H 26.8258 3.3765 1.92158 0
M  V30 292 H 28.4978 4.59689 -0.385228 0
M  V30 293 H 26.7408 4.3165 -0.431379 0
M  V30 294 H 27.4118 5.47242 0.723207 0
M  V30 295 H 29.8878 3.80377 1.68678 0
M  V30 296 H 28.7638 4.82127 2.62382 0
M  V30 297 H 29.0248 3.15104 3.101 0
M  V30 298 N 28.0839 -0.256276 1.55502 0
M  V30 299 C 28.9939 -1.33882 1.92647 0
M  V30 300 C 30.0099 -1.53159 0.825727 0
M  V30 301 O 31.1859 -1.66963 1.12629 0
M  V30 302 C 28.2509 -2.6751 2.20543 0
M  V30 303 C 27.3119 -2.56836 3.43997 0
M  V30 304 C 26.5449 -3.84092 3.70553 0
M  V30 305 O 26.7679 -4.85545 2.99336 0
M  V30 306 O 25.7019 -3.83288 4.64084 0
M  V30 307 H 29.5279 -1.05374 2.84833 0
M  V30 308 H 27.1129 -0.456237 1.42263 0
M  V30 309 H 28.9949 -3.46492 2.39835 0
M  V30 310 H 27.6699 -2.9577 1.31536 0
M  V30 311 H 26.5769 -1.76172 3.30021 0
M  V30 312 H 27.9099 -2.33523 4.33275 0
M  V30 313 N 29.562 -1.4872 -0.521534 0
M  V30 314 C 30.808 -1.574 -1.27879 0
M  V30 315 C 31.141 -0.250817 -1.92573 0
M  V30 316 O 30.416 0.743934 -1.79711 0
M  V30 317 C 30.699 -2.71843 -2.36164 0
M  V30 318 C 30.552 -4.13893 -1.76105 0
M  V30 319 C 31.871 -2.82008 -3.37875 0
M  V30 320 H 28.99 -0.572941 -0.463581 0
M  V30 321 H 31.632 -1.80927 -0.580119 0
M  V30 322 H 29.782 -2.51914 -2.95756 0
M  V30 323 H 31.454 -4.45284 -1.20499 0
M  V30 324 H 29.697 -4.20498 -1.06601 0
M  V30 325 H 30.368 -4.89804 -2.5455 0
M  V30 326 H 32.844 -3.00086 -2.88249 0
M  V30 327 H 31.72 -3.63796 -4.11028 0
M  V30 328 H 31.981 -1.90511 -3.98946 0
M  V30 329 N 31.0401 0.771051 -1.3745 0
M  V30 330 C 31.9701 1.89827 -1.3597 0
M  V30 331 C 32.9511 1.68562 -0.228216 0
M  V30 332 O 34.1361 1.8941 -0.428675 0
M  V30 333 C 31.2661 3.2712 -1.16662 0
M  V30 334 C 30.2201 3.6295 -2.2683 0
M  V30 335 C 29.5461 4.98791 -1.92644 0
M  V30 336 C 30.8461 3.69627 -3.69017 0
M  V30 337 H 32.5401 1.91323 -2.30295 0
M  V30 338 H 30.0861 0.919082 -1.10855 0
M  V30 339 H 32.0391 4.05615 -1.14256 0
M  V30 340 H 30.7631 3.26059 -0.187926 0
M  V30 341 H 29.4221 2.86763 -2.28392 0
M  V30 342 H 29.0701 4.94271 -0.933021 0
M  V30 343 H 28.7701 5.23733 -2.66416 0
M  V30 344 H 30.2941 5.79685 -1.91826 0
M  V30 345 H 31.7081 4.38273 -3.69581 0
M  V30 346 H 30.1051 4.06067 -4.41848 0
M  V30 347 H 31.1751 2.70273 -4.02592 0
M  V30 348 N 32.5182 1.22032 0.997298 0
M  V30 349 C 33.9342 0.979326 1.26021 0
M  V30 350 C 34.1342 -0.32972 1.98784 0
M  V30 351 O 33.1902 -1.05345 2.29475 0
M  V30 352 C 34.5032 2.17509 2.07631 0
M  V30 353 C 36.0512 2.21817 2.2083 0
M  V30 354 C 36.5262 3.40933 3.05825 0
M  V30 355 N 38.0172 3.41067 3.13412 0
M  V30 356 C 38.7522 4.29885 3.79455 0
M  V30 357 N 38.2482 5.28914 4.47462 0
M  V30 358 N 40.0412 4.17673 3.76173 0
M  V30 359 H 32.1922 2.06202 0.509352 0
M  V30 360 H 34.4552 0.90334 0.287541 0
M  V30 361 H 34.1612 3.12415 1.61524 0
M  V30 362 H 34.0352 2.17206 3.08385 0
M  V30 363 H 36.4222 1.27462 2.66153 0
M  V30 364 H 36.5032 2.2616 1.1952 0
M  V30 365 H 36.1472 4.35586 2.61203 0
M  V30 366 H 36.0772 3.33829 4.07266 0
M  V30 367 H 38.5682 2.69406 2.65007 0
M  V30 368 H 38.8812 5.92973 4.95583 0
M  V30 369 H 37.2262 5.32831 4.46224 0
M  V30 370 H 40.4172 3.39564 3.22202 0
M  V30 371 H 40.5902 4.87098 4.27363 0
M  V30 372 N 33.9963 -1.19345 1.0293 0
M  V30 373 C 34.9283 -2.22036 0.56857 0
M  V30 374 C 35.9413 -1.58865 -0.355779 0
M  V30 375 O 37.1303 -1.77851 -0.152103 0
M  V30 376 C 34.2303 -3.38363 -0.190752 0
M  V30 377 C 33.4033 -4.31118 0.738643 0
M  V30 378 C 32.4623 -5.26194 0.0246497 0
M  V30 379 O 31.4883 -5.65461 0.651354 0
M  V30 380 N 32.6903 -5.66971 -1.24594 0
M  V30 381 H 35.4553 -2.6219 1.45177 0
M  V30 382 H 33.0163 -1.34015 0.908381 0
M  V30 383 H 35.0083 -3.98981 -0.677961 0
M  V30 384 H 33.5783 -2.96994 -0.975366 0
M  V30 385 H 32.7983 -3.68276 1.40593 0
M  V30 386 H 34.0863 -4.90001 1.37029 0
M  V30 387 H 33.4843 -5.37104 -1.77583 0
M  V30 388 H 32.0413 -6.2984 -1.67764 0
M  V30 389 N 35.4744 -0.807222 -1.35358 0
M  V30 390 C 36.4064 -0.175717 -2.28525 0
M  V30 391 C 37.4194 0.625354 -1.5031 0
M  V30 392 O 38.6084 0.457611 -1.72535 0
M  V30 393 C 35.7084 0.773471 -3.29956 0
M  V30 394 C 34.8814 0.0186296 -4.37396 0
M  V30 395 C 33.9404 0.886395 -5.18681 0
M  V30 396 O 32.9664 0.337106 -5.68201 0
M  V30 397 N 34.1684 2.20839 -5.36852 0
M  V30 398 H 36.9334 -0.976091 -2.83359 0
M  V30 399 H 34.4944 -0.662737 -1.47714 0
M  V30 400 H 36.4864 1.35824 -3.81227 0
M  V30 401 H 35.0564 1.47465 -2.75632 0
M  V30 402 H 34.2764 -0.747349 -3.87051 0
M  V30 403 H 35.5644 -0.501577 -5.06322 0
M  V30 404 H 34.9624 2.67858 -4.98265 0
M  V30 405 H 33.5194 2.74237 -5.91301 0
M  V30 406 N 36.9525 1.47285 -0.560781 0
M  V30 407 C 38.3635 1.86258 -0.128343 0
M  V30 408 C 38.7145 1.46699 1.30284 0
M  V30 409 O 37.8395 0.871698 1.98067 0
M  V30 410 C 38.4345 3.38044 -0.22614 0
M  V30 411 C 36.9935 3.76096 0.151283 0
M  V30 412 C 36.1405 2.71335 -0.572084 0
M  V30 413 H 39.0915 1.38752 -0.770297 0
M  V30 414 H 39.1125 3.76441 0.554322 0
M  V30 415 H 38.6245 3.66806 -1.26788 0
M  V30 416 H 36.7255 3.52951 1.19399 0
M  V30 417 H 36.8385 4.78641 -0.209765 0
M  V30 418 H 35.2025 2.54696 -0.0147653 0
M  V30 419 H 35.9855 3.02938 -1.61504 0
M  V30 420 N 38.4306 0.297415 1.54768 0
M  V30 421 C 39.8416 -0.195947 1.85669 0
M  V30 422 C 40.1926 -1.53707 1.21937 0
M  V30 423 O 39.3176 -2.10164 0.515754 0
M  V30 424 C 39.9126 -0.362318 3.36857 0
M  V30 425 C 38.4716 -0.799901 3.67802 0
M  V30 426 C 37.6186 0.0938578 2.77141 0
M  V30 427 H 40.5696 0.518538 1.4999 0
M  V30 428 H 40.5906 -1.19745 3.61167 0
M  V30 429 H 40.1026 0.613921 3.83214 0
M  V30 430 H 38.2036 -1.78682 3.26961 0
M  V30 431 H 38.3166 -0.621773 4.75048 0
M  V30 432 H 36.6806 -0.426254 2.51108 0
M  V30 433 H 37.4636 1.06639 3.26318 0
M  V30 434 N 39.9087 -1.5758 0.0250728 0
M  V30 435 C 41.1857 -1.82917 -0.692873 0
M  V30 436 C 41.5657 -0.908137 -1.90568 0
M  V30 437 O 40.9137 0.0372298 -2.2847 0
M  V30 438 C 41.1237 -3.32034 -1.07492 0
M  V30 439 C 42.4717 -3.98406 -1.46826 0
M  V30 440 O 43.4957 -3.36505 -1.16801 0
M  V30 441 O 42.3547 -5.07497 -2.02754 0
M  V30 442 H 39.4487 -0.754079 -0.33955 0
M  V30 443 H 41.9947 -1.69619 0.0524456 0
M  V30 444 H 40.7667 -3.90728 -0.211552 0
M  V30 445 H 40.3897 -3.50424 -1.87854 0
M  V30 446 N 41.3868 0.248026 -1.55636 0
M  V30 447 C 42.3168 1.31079 -1.93237 0
M  V30 448 C 43.2978 1.50264 -0.797174 0
M  V30 449 O 44.4828 1.62891 -1.05737 0
M  V30 450 C 41.6128 2.66575 -2.22609 0
M  V30 451 C 40.5668 2.62087 -3.3837 0
M  V30 452 C 39.8928 4.01369 -3.53281 0
M  V30 453 C 41.1928 2.19171 -4.7409 0
M  V30 454 H 42.8868 0.998556 -2.82257 0
M  V30 455 H 40.4328 0.47891 -1.35803 0
M  V30 456 H 42.3858 3.41057 -2.47503 0
M  V30 457 H 41.1098 2.99432 -1.30414 0
M  V30 458 H 39.7688 1.90063 -3.13483 0
M  V30 459 H 39.4168 4.31489 -2.58508 0
M  V30 460 H 39.1168 3.99254 -4.31127 0
M  V30 461 H 40.6408 4.77552 -3.80495 0
M  V30 462 H 42.0548 2.83384 -4.98363 0
M  V30 463 H 40.4518 2.2817 -5.5503 0
M  V30 464 H 41.5218 1.14336 -4.71227 0
M  V30 465 N 42.8649 1.48995 0.513639 0
M  V30 466 C 44.1109 1.58076 1.27042 0
M  V30 467 C 44.4439 0.261026 1.92438 0
M  V30 468 O 43.7189 -0.734393 1.80103 0
M  V30 469 C 44.0019 2.73091 2.34719 0
M  V30 470 C 43.8549 4.14821 1.73907 0
M  V30 471 C 45.1739 2.83796 3.36375 0
M  V30 472 H 42.2929 0.575391 0.460536 0
M  V30 473 H 44.9349 1.81232 0.570516 0
M  V30 474 H 43.0849 2.53479 2.94416 0
M  V30 475 H 44.7569 4.45917 1.18135 0
M  V30 476 H 42.9999 4.21058 1.0437 0
M  V30 477 H 43.6709 4.91147 2.51949 0
M  V30 478 H 46.1469 3.01611 2.86653 0
M  V30 479 H 45.0229 3.65971 4.09093 0
M  V30 480 H 45.2839 1.92624 3.9793 0
M  V30 481 N 44.343 -0.763751 1.37857 0
M  V30 482 C 45.253 -1.90817 1.36478 0
M  V30 483 C 46.269 -1.71997 0.263248 0
M  V30 484 O 47.445 -1.95095 0.499979 0
M  V30 485 C 44.51 -3.2605 1.17864 0
M  V30 486 C 43.571 -3.57467 2.3773 0
M  V30 487 C 42.804 -4.86249 2.19995 0
M  V30 488 O 43.027 -5.57884 1.18836 0
M  V30 489 O 41.961 -5.16911 3.08361 0
M  V30 490 H 45.787 -1.94933 2.32884 0
M  V30 491 H 43.372 -0.907619 1.1867 0
M  V30 492 H 45.254 -4.06924 1.09504 0
M  V30 493 H 43.929 -3.22769 0.245372 0
M  V30 494 H 42.836 -2.76796 2.51664 0
M  V30 495 H 44.169 -3.655 3.29652 0
M  V30 496 N 45.8211 -1.22559 -0.990812 0
M  V30 497 C 47.0681 -1.05141 -1.73065 0
M  V30 498 C 47.3961 0.413191 -1.9006 0
M  V30 499 O 46.6511 1.32257 -1.44245 0
M  V30 500 C 46.9501 -1.71011 -3.13831 0
M  V30 501 C 46.6161 -3.20911 -3.16745 0
M  V30 502 C 45.2781 -3.61812 -3.17247 0
M  V30 503 C 47.6301 -4.16846 -3.12872 0
M  V30 504 C 44.9581 -4.97127 -3.1158 0
M  V30 505 C 47.3101 -5.5214 -3.08746 0
M  V30 506 C 45.9741 -5.92419 -3.07565 0
M  V30 507 H 45.2441 -0.384738 -0.633291 0
M  V30 508 H 47.8911 -1.5235 -1.16025 0
M  V30 509 H 46.1961 -1.16133 -3.74193 0
M  V30 510 H 47.8931 -1.55023 -3.69823 0
M  V30 511 H 44.4831 -2.88344 -3.17105 0
M  V30 512 H 48.6671 -3.86263 -3.11632 0
M  V30 513 H 43.9231 -5.27562 -3.09012 0
M  V30 514 H 48.0971 -6.26201 -3.04705 0
M  V30 515 H 45.7241 -6.97236 -3.02929 0
M  V30 516 N 47.2992 1.18797 -1.03562 0
M  V30 517 C 48.2622 2.20464 -0.626769 0
M  V30 518 C 49.2622 1.57721 0.313173 0
M  V30 519 O 50.4522 1.73917 0.0992615 0
M  V30 520 C 47.5842 3.40802 0.0818498 0
M  V30 521 H 48.7772 2.58149 -1.5264 0
M  V30 522 H 46.3302 1.32593 -0.827578 0
M  V30 523 H 47.0652 3.08642 0.995518 0
M  V30 524 H 46.8502 3.8758 -0.593652 0
M  V30 525 H 48.3402 4.16092 0.354584 0
M  V30 526 N 48.7773 0.814389 1.34928 0
M  V30 527 C 50.0233 0.399013 1.98836 0
M  V30 528 C 50.3563 -1.03314 1.64438 0
M  V30 529 O 49.6313 -1.71811 0.911659 0
M  V30 530 C 49.9143 0.591629 3.55207 0
M  V30 531 C 49.7673 2.06928 3.99376 0
M  V30 532 C 51.0863 0.022199 4.40094 0
M  V30 533 H 48.2053 0.146451 0.722303 0
M  V30 534 H 50.8473 1.02537 1.59957 0
M  V30 535 H 48.9973 0.0584441 3.88456 0
M  V30 536 H 50.6693 2.66544 3.76499 0
M  V30 537 H 48.9123 2.56287 3.49999 0
M  V30 538 H 49.5833 2.1549 5.08201 0
M  V30 539 H 52.0593 0.477643 4.13349 0
M  V30 540 H 50.9353 0.186832 5.48582 0
M  V30 541 H 51.1963 -1.07215 4.28902 0
M  V30 542 N 50.2554 -1.46986 0.568584 0
M  V30 543 C 51.1654 -2.33942 -0.17555 0
M  V30 544 C 52.1814 -1.48891 -0.90041 0
M  V30 545 O 53.3574 -1.81794 -0.86676 0
M  V30 546 C 50.4224 -3.25811 -1.18524 0
M  V30 547 C 49.4834 -4.26757 -0.466582 0
M  V30 548 C 48.7164 -5.14236 -1.42817 0
M  V30 549 O 48.9394 -5.04379 -2.66379 0
M  V30 550 O 47.8734 -5.94412 -0.946453 0
M  V30 551 H 51.6994 -2.98896 0.538036 0
M  V30 552 H 49.2844 -1.4573 0.329097 0
M  V30 553 H 51.1664 -3.82527 -1.76779 0
M  V30 554 H 49.8414 -2.63471 -1.88055 0
M  V30 555 H 48.7484 -3.73769 0.157451 0
M  V30 556 H 50.0814 -4.91843 0.187485 0
M  V30 557 N 51.7335 -0.305618 -1.54608 0
M  V30 558 C 52.9635 0.304333 -2.04346 0
M  V30 559 C 53.3715 1.47715 -1.18224 0
M  V30 560 O 52.7145 1.82591 -0.201577 0
M  V30 561 C 52.7765 0.819031 -3.50046 0
M  V30 562 C 52.4405 -0.22912 -4.56425 0
M  V30 563 C 53.4375 -1.05914 -5.08997 0
M  V30 564 C 51.1225 -0.372148 -5.0092 0
M  V30 565 C 53.1165 -2.01809 -6.04609 0
M  V30 566 C 50.8035 -1.33454 -5.9635 0
M  V30 567 C 51.8015 -2.15599 -6.48079 0
M  V30 568 O 51.4895 -3.10205 -7.41639 0
M  V30 569 H 51.2215 0.0693996 -0.672428 0
M  V30 570 H 53.7755 -0.444548 -2.00532 0
M  V30 571 H 52.0055 1.61852 -3.51199 0
M  V30 572 H 53.6945 1.34537 -3.82955 0
M  V30 573 H 54.4605 -0.959538 -4.75413 0
M  V30 574 H 50.3395 0.257304 -4.60281 0
M  V30 575 H 53.8835 -2.65966 -6.44909 0
M  V30 576 H 49.7805 -1.43485 -6.29351 0
M  V30 577 H 50.5485 -3.05237 -7.59455 0
M  V30 578 N 53.2116 1.57565 -0.0334293 0
M  V30 579 C 54.4586 1.91978 0.644272 0
M  V30 580 C 54.7866 0.910231 1.71887 0
M  V30 581 O 54.0416 -0.0801961 1.95536 0
M  V30 582 C 54.3406 3.33112 1.29504 0
M  V30 583 C 54.0066 4.49537 0.350388 0
M  V30 584 C 52.6686 4.81115 0.0903974 0
M  V30 585 C 55.0206 5.20347 -0.298032 0
M  V30 586 C 52.3486 5.8086 -0.825746 0
M  V30 587 C 54.7006 6.2107 -1.20226 0
M  V30 588 C 53.3646 6.51088 -1.4711 0
M  V30 589 H 52.6346 0.702496 0.235756 0
M  V30 590 H 55.2816 1.91259 -0.0961176 0
M  V30 591 H 53.5866 3.30113 2.11028 0
M  V30 592 H 55.2836 3.57011 1.82603 0
M  V30 593 H 51.8736 4.24883 0.563205 0
M  V30 594 H 56.0576 4.96178 -0.110234 0
M  V30 595 H 51.3136 6.02461 -1.04169 0
M  V30 596 H 55.4876 6.75057 -1.71086 0
M  V30 597 H 53.1146 7.28193 -2.18264 0
M  V30 598 N 54.6897 -0.239769 1.55765 0
M  V30 599 C 55.9177 -0.98417 1.81994 0
M  V30 600 C 56.3327 -1.7867 0.610124 0
M  V30 601 O 55.6897 -1.77571 -0.421271 0
M  V30 602 C 55.7407 -1.91635 3.06526 0
M  V30 603 O 55.4617 -1.14629 4.22838 0
M  V30 604 C 56.9627 -2.77616 3.45607 0
M  V30 605 H 54.1827 -0.28928 0.605441 0
M  V30 606 H 56.7267 -0.260499 2.02834 0
M  V30 607 H 54.8817 -2.5942 2.87715 0
M  V30 608 H 55.2957 -1.77745 4.93464 0
M  V30 609 H 56.7697 -3.38759 4.35828 0
M  V30 610 H 57.2467 -3.4909 2.6652 0
M  V30 611 H 57.8527 -2.15271 3.66795 0
M  V30 612 N 56.1678 -1.49265 -0.50573 0
M  V30 613 C 57.5838 -1.35923 -0.836486 0
M  V30 614 C 57.7838 -0.388704 -1.97715 0
M  V30 615 O 56.8398 0.181336 -2.51848 0
M  V30 616 C 58.1528 -2.76531 -1.18115 0
M  V30 617 C 59.7008 -2.85197 -1.28964 0
M  V30 618 C 60.1758 -4.26561 -1.66761 0
M  V30 619 N 61.6668 -4.2935 -1.73819 0
M  V30 620 C 62.4018 -5.35693 -2.045 0
M  V30 621 N 61.8978 -6.52287 -2.33438 0
M  V30 622 N 63.6908 -5.23105 -2.05711 0
M  V30 623 H 55.8418 -2.10965 0.246519 0
M  V30 624 H 58.1048 -0.9468 0.0476887 0
M  V30 625 H 57.8108 -3.49226 -0.416398 0
M  V30 626 H 57.6848 -3.11599 -2.1257 0
M  V30 627 H 60.0718 -2.12742 -2.04511 0
M  V30 628 H 60.1528 -2.53718 -0.325704 0
M  V30 629 H 59.7968 -4.99541 -0.917656 0
M  V30 630 H 59.7268 -4.55502 -2.64246 0
M  V30 631 H 62.2178 -3.4526 -1.53635 0
M  V30 632 H 62.5308 -7.29158 -2.56024 0
M  V30 633 H 60.8758 -6.55521 -2.30905 0
M  V30 634 H 64.0668 -4.31026 -1.82577 0
M  V30 635 H 64.2398 -6.06078 -2.29289 0
M  V30 636 N 57.6459 0.756429 -1.3826 0
M  V30 637 C 58.5759 1.88374 -1.37976 0
M  V30 638 C 59.5569 1.68311 -0.246082 0
M  V30 639 O 60.7419 1.88944 -0.44874 0
M  V30 640 C 57.8719 3.25864 -1.20125 0
M  V30 641 C 56.8259 3.60523 -2.30666 0
M  V30 642 C 56.1519 4.9672 -1.97923 0
M  V30 643 C 57.4519 3.65692 -3.72916 0
M  V30 644 H 59.1459 1.88869 -2.32312 0
M  V30 645 H 56.6919 0.907272 -1.11824 0
M  V30 646 H 58.6449 4.0438 -1.18552 0
M  V30 647 H 57.3689 3.25841 -0.222498 0
M  V30 648 H 56.0279 2.84324 -2.3142 0
M  V30 649 H 55.6759 4.93253 -0.985393 0
M  V30 650 H 55.3759 5.20878 -2.71955 0
M  V30 651 H 56.8999 5.77618 -1.97964 0
M  V30 652 H 58.3139 4.34328 -3.74208 0
M  V30 653 H 56.7109 4.01358 -4.4613 0
M  V30 654 H 57.7809 2.65987 -4.05436 0
M  V30 655 N 59.124 1.23083 0.984299 0
M  V30 656 C 60.54 0.992637 1.24975 0
M  V30 657 C 60.74 -0.308618 1.99123 0
M  V30 658 O 59.796 -1.02905 2.30579 0
M  V30 659 C 61.109 2.19698 2.05312 0
M  V30 660 C 62.657 2.24147 2.18465 0
M  V30 661 C 63.132 3.44157 3.02192 0
M  V30 662 N 64.623 3.44372 3.09777 0
M  V30 663 C 65.358 4.33886 3.74874 0
M  V30 664 N 64.854 5.3363 4.41827 0
M  V30 665 N 66.647 4.21639 3.71721 0
M  V30 666 H 58.798 2.06731 0.487453 0
M  V30 667 H 61.061 0.906339 0.277944 0
M  V30 668 H 60.767 3.1411 1.58201 0
M  V30 669 H 60.641 2.20465 3.06064 0
M  V30 670 H 63.028 1.30277 2.64786 0
M  V30 671 H 63.109 2.27415 1.17115 0
M  V30 672 H 62.753 4.38332 2.56568 0
M  V30 673 H 62.683 3.3813 4.03702 0
M  V30 674 H 65.174 2.72201 2.62135 0
M  V30 675 H 65.487 5.98196 4.89266 0
M  V30 676 H 63.832 5.37534 4.40548 0
M  V30 677 H 67.023 3.42962 3.18582 0
M  V30 678 H 67.196 4.91604 4.22173 0
M  V30 679 N 60.6021 -1.18246 1.0419 0
M  V30 680 C 61.5121 -2.25574 0.644476 0
M  V30 681 C 62.5281 -1.70845 -0.329826 0
M  V30 682 O 63.7041 -2.00554 -0.184443 0
M  V30 683 C 60.7691 -3.46697 0.014877 0
M  V30 684 C 59.8301 -4.16554 1.03834 0
M  V30 685 C 59.0631 -5.31894 0.438692 0
M  V30 686 O 59.2861 -5.65385 -0.754752 0
M  V30 687 O 58.2201 -5.90459 1.168 0
M  V30 688 H 62.0461 -2.61836 1.53869 0
M  V30 689 H 59.6311 -1.25352 0.812854 0
M  V30 690 H 61.5131 -4.20062 -0.335538 0
M  V30 691 H 60.1881 -3.12255 -0.853138 0
M  V30 692 H 59.0951 -3.45251 1.44057 0
M  V30 693 H 60.4281 -4.54998 1.87716 0
M  V30 694 N 62.0802 -0.821533 -1.34494 0
M  V30 695 C 63.0432 -0.247847 -2.27856 0
M  V30 696 C 64.0432 0.573453 -1.50227 0
M  V30 697 O 65.2332 0.389759 -1.69784 0
M  V30 698 C 62.3652 0.652698 -3.34593 0
M  V30 699 H 63.5582 -1.07146 -2.80107 0
M  V30 700 H 61.1112 -0.593291 -1.44602 0
M  V30 701 H 61.8462 1.49943 -2.87555 0
M  V30 702 H 61.6312 0.065292 -3.92046 0
M  V30 703 H 63.1212 1.04793 -4.04238 0
M  V30 704 N 63.5583 1.46682 -0.576371 0
M  V30 705 C 64.9743 1.57822 -0.237562 0
M  V30 706 C 65.1743 1.57237 1.26011 0
M  V30 707 O 64.2303 1.48596 2.04146 0
M  V30 708 C 65.5433 2.87499 -0.881168 0
M  V30 709 C 67.0913 3.01119 -0.85417 0
M  V30 710 C 67.5663 4.33524 -1.4772 0
M  V30 711 N 69.0573 4.40207 -1.44125 0
M  V30 712 C 69.7923 5.4126 -1.89276 0
M  V30 713 N 69.2883 6.49021 -2.42371 0
M  V30 714 N 71.0813 5.32422 -1.80231 0
M  V30 715 H 63.2323 1.45306 -1.54919 0
M  V30 716 H 65.4953 0.692733 -0.647167 0
M  V30 717 H 65.2013 2.9372 -1.93447 0
M  V30 718 H 65.0753 3.75224 -0.385592 0
M  V30 719 H 67.4623 2.94485 0.190491 0
M  V30 720 H 67.5433 2.14887 -1.3877 0
M  V30 721 H 67.1873 4.40916 -2.52103 0
M  V30 722 H 67.1173 5.1852 -0.918947 0
M  V30 723 H 69.6083 3.62931 -1.05307 0
M  V30 724 H 69.9213 7.2233 -2.74698 0
M  V30 725 H 68.2663 6.49858 -2.46393 0
M  V30 726 H 71.4573 4.47137 -1.38514 0
M  V30 727 H 71.6303 6.11034 -2.15735 0
M  V30 728 N 65.0364 0.313813 1.54444 0
M  V30 729 C 65.9994 -0.54379 2.22656 0
M  V30 730 C 66.9994 -1.05124 1.21678 0
M  V30 731 O 68.1894 -0.945225 1.46325 0
M  V30 732 C 65.3214 -1.75427 2.92298 0
M  V30 733 H 66.5144 0.0523599 2.99854 0
M  V30 734 H 64.0674 0.0647834 1.56166 0
M  V30 735 H 64.8024 -2.38991 2.19211 0
M  V30 736 H 64.5874 -1.39791 3.66334 0
M  V30 737 H 66.0774 -2.36325 3.44297 0
M  V30 738 N 66.5145 -1.57545 0.0417849 0
M  V30 739 C 67.9255 -1.80011 -0.495259 0
M  V30 740 C 68.2765 -0.953199 -1.71489 0
M  V30 741 O 67.4015 -0.167138 -2.15754 0
M  V30 742 C 67.9965 -3.26482 -0.905265 0
M  V30 743 C 66.5555 -3.499 -1.38734 0
M  V30 744 C 65.7025 -2.74979 -0.358056 0
M  V30 745 H 68.6535 -1.56425 0.267736 0
M  V30 746 H 68.6745 -3.36887 -1.76882 0
M  V30 747 H 68.1865 -3.88096 -0.017401 0
M  V30 748 H 66.2875 -2.93553 -2.29471 0
M  V30 749 H 66.4005 -4.58615 -1.38598 0
M  V30 750 H 64.7645 -2.40834 -0.828912 0
M  V30 751 H 65.5475 -3.39315 0.521561 0
M  V30 752 N 67.9926 0.231505 -1.5589 0
M  V30 753 C 68.9556 1.27028 -1.90779 0
M  V30 754 C 69.9556 1.40308 -0.785507 0
M  V30 755 O 71.1456 1.38744 -1.05336 0
M  V30 756 C 68.2776 2.64566 -2.14983 0
M  V30 757 H 69.4706 0.973017 -2.83677 0
M  V30 758 H 67.0236 0.471486 -1.49019 0
M  V30 759 H 67.7586 2.99406 -1.24604 0
M  V30 760 H 67.5436 2.56305 -2.96732 0
M  V30 761 H 69.0336 3.39543 -2.43105 0
M  V30 762 N 69.4707 1.49531 0.497807 0
M  V30 763 C 70.6957 1.63159 1.28039 0
M  V30 764 C 71.1207 0.30418 1.85624 0
M  V30 765 O 70.4787 -0.728618 1.66015 0
M  V30 766 C 70.5267 2.70537 2.38416 0
M  V30 767 O 69.6307 2.29931 3.42353 0
M  V30 768 H 68.9717 0.546001 0.377861 0
M  V30 769 H 71.5017 1.9574 0.59558 0
M  V30 770 H 71.5117 2.92802 2.84132 0
M  V30 771 H 70.1867 3.6689 1.95869 0
M  V30 772 H 68.7637 2.18009 3.02533 0
M  V30 773 N 70.9488 -0.749086 1.3866 0
M  V30 774 C 72.1948 -1.51056 1.35314 0
M  V30 775 C 72.5278 -1.94121 -0.0553751 0
M  V30 776 O 71.8028 -1.65763 -1.01749 0
M  V30 777 C 72.0858 -2.76003 2.31288 0
M  V30 778 C 71.9388 -2.39047 3.8102 0
M  V30 779 C 73.2578 -3.78046 2.2532 0
M  V30 780 H 70.3768 -0.547972 0.492844 0
M  V30 781 H 73.0188 -0.857628 1.69543 0
M  V30 782 H 71.1688 -3.31716 2.02229 0
M  V30 783 H 72.8408 -1.89074 4.20771 0
M  V30 784 H 71.0838 -1.71449 3.98482 0
M  V30 785 H 71.7548 -3.28462 4.4364 0
M  V30 786 H 74.2308 -3.31884 2.50983 0
M  V30 787 H 73.1068 -4.63159 2.94576 0
M  V30 788 H 73.3678 -4.23957 1.25352 0
M  V30 789 N 72.4269 -1.23603 -0.977757 0
M  V30 790 C 73.3569 -1.04401 -2.0886 0
M  V30 791 C 74.3379 0.0399052 -1.70053 0
M  V30 792 O 75.5229 -0.125246 -1.93796 0
M  V30 793 C 72.6529 -0.637269 -3.41403 0
M  V30 794 C 71.6069 -1.66883 -3.94124 0
M  V30 795 C 70.9329 -1.11745 -5.22893 0
M  V30 796 C 72.2329 -3.06247 -4.23096 0
M  V30 797 H 73.9269 -1.97316 -2.25182 0
M  V30 798 H 71.4729 -0.950096 -1.08209 0
M  V30 799 H 73.4259 -0.48998 -4.18542 0
M  V30 800 H 72.1499 0.327557 -3.24953 0
M  V30 801 H 70.8089 -1.80416 -3.19133 0
M  V30 802 H 70.4569 -0.143527 -5.02795 0
M  V30 803 H 70.1569 -1.80672 -5.59134 0
M  V30 804 H 71.6809 -0.982067 -6.02651 0
M  V30 805 H 73.0949 -2.96001 -4.90975 0
M  V30 806 H 71.4919 -3.72436 -4.70544 0
M  V30 807 H 72.5619 -3.55041 -3.30263 0
M  V30 808 N 73.905 1.17692 -1.04816 0
M  V30 809 C 75.316 1.69501 -0.782698 0
M  V30 810 C 75.667 1.83456 0.695577 0
M  V30 811 O 74.792 1.51942 1.54086 0
M  V30 812 C 75.387 3.07874 -1.41419 0
M  V30 813 C 73.946 3.56864 -1.19686 0
M  V30 814 C 73.093 2.3322 -1.50012 0
M  V30 815 H 76.044 1.02262 -1.2136 0
M  V30 816 H 76.065 3.71528 -0.821428 0
M  V30 817 H 75.577 2.97685 -2.49009 0
M  V30 818 H 73.678 3.72337 -0.140043 0
M  V30 819 H 73.791 4.39851 -1.89916 0
M  V30 820 H 72.155 2.37501 -0.920071 0
M  V30 821 H 72.938 2.25644 -2.58727 0
M  V30 822 N 75.3831 0.828654 1.34056 0
M  V30 823 C 76.3461 0.259927 2.27721 0
M  V30 824 C 77.3461 -0.565478 1.50529 0
M  V30 825 O 78.5361 -0.38075 1.69988 0
M  V30 826 C 75.6681 -0.634944 3.34935 0
M  V30 827 H 76.8611 1.0863 2.79534 0
M  V30 828 H 74.4141 0.600951 1.44285 0
M  V30 829 H 75.1491 -1.48416 2.88346 0
M  V30 830 H 74.9341 -0.0444999 3.92075 0
M  V30 831 H 76.4241 -1.02648 4.04788 0
M  V30 832 N 76.8612 -1.46375 0.584142 0
M  V30 833 C 77.8242 -2.28784 -0.138108 0
M  V30 834 C 78.8242 -1.38471 -0.817462 0
M  V30 835 O 80.0142 -1.60833 -0.669199 0
M  V30 836 C 77.1462 -3.18892 -1.20503 0
M  V30 837 H 78.3392 -2.94117 0.586127 0
M  V30 838 H 75.8922 -1.52509 0.342171 0
M  V30 839 H 76.6272 -2.58309 -1.96079 0
M  V30 840 H 76.4122 -3.85388 -0.722384 0
M  V30 841 H 77.9022 -3.80914 -1.71155 0
M  V30 842 N 78.3393 -0.321999 -1.54275 0
M  V30 843 C 79.5673 0.283052 -2.04955 0
M  V30 844 C 79.9823 1.45904 -1.19823 0
M  V30 845 O 79.3393 1.81063 -0.228545 0
M  V30 846 C 79.3903 0.719028 -3.54277 0
M  V30 847 O 79.1113 -0.410175 -4.36176 0
M  V30 848 C 80.6123 1.38705 -4.21041 0
M  V30 849 H 77.8323 0.0584616 -0.668448 0
M  V30 850 H 80.3763 -0.467734 -1.99079 0
M  V30 851 H 78.5313 1.41979 -3.60445 0
M  V30 852 H 78.9453 -0.0669416 -5.24457 0
M  V30 853 H 80.4193 1.64306 -5.2698 0
M  V30 854 H 80.8963 2.33385 -3.72059 0
M  V30 855 H 81.5023 0.728906 -4.19007 0
M  V30 856 N 79.8174 1.5752 -0.0501392 0
M  V30 857 C 81.2284 1.80271 0.485705 0
M  V30 858 C 81.5794 0.96228 1.70981 0
M  V30 859 O 80.7044 0.178578 2.15662 0
M  V30 860 C 81.2994 3.26957 0.887938 0
M  V30 861 C 79.8584 3.5063 1.36877 0
M  V30 862 C 79.0054 2.75165 0.343468 0
M  V30 863 H 81.9564 1.56281 -0.276028 0
M  V30 864 H 81.9774 3.37821 1.75093 0
M  V30 865 H 81.4894 3.881 -0.0031809 0
M  V30 866 H 79.5904 2.94766 2.27911 0
M  V30 867 H 79.7034 4.59343 1.36164 0
M  V30 868 H 78.0674 2.4127 0.816128 0
M  V30 869 H 78.8504 3.39034 -0.539548 0
M  V30 870 N 81.2955 -0.223234 1.56011 0
M  V30 871 C 82.7115 -0.572856 1.48965 0
M  V30 872 C 82.9115 -1.87225 0.74492 0
M  V30 873 O 81.9675 -2.50899 0.283896 0
M  V30 874 C 83.2805 -0.653646 2.9351 0
M  V30 875 C 84.8285 -0.744386 3.0402 0
M  V30 876 C 85.3035 -0.856535 4.49919 0
M  V30 877 N 86.7945 -0.9208 4.53955 0
M  V30 878 C 87.5295 -1.02726 5.64123 0
M  V30 879 N 87.0255 -1.09777 6.84047 0
M  V30 880 N 88.8185 -1.06226 5.51971 0
M  V30 881 H 80.9695 0.629462 2.02858 0
M  V30 882 H 83.2325 0.220621 0.921971 0
M  V30 883 H 82.9385 0.231518 3.50937 0
M  V30 884 H 82.8125 -1.51781 3.45315 0
M  V30 885 H 85.1995 -1.61999 2.46658 0
M  V30 886 H 85.2805 0.14541 2.55386 0
M  V30 887 H 84.9245 0.0146069 5.07898 0
M  V30 888 H 84.8545 -1.76172 4.96257 0
M  V30 889 H 87.3455 -0.876694 3.6759 0
M  V30 890 H 87.6585 -1.17872 7.63758 0
M  V30 891 H 86.0035 -1.06693 6.86762 0
M  V30 892 H 89.1945 -1.00382 4.5721 0
M  V30 893 H 89.3675 -1.14177 6.37862 0
M  V30 894 N 82.7736 -1.49793 -0.48987 0
M  V30 895 C 83.7056 -1.63413 -1.60713 0
M  V30 896 C 84.7186 -0.516329 -1.54395 0
M  V30 897 O 85.9076 -0.788812 -1.60125 0
M  V30 898 C 83.0076 -1.58516 -2.99543 0
M  V30 899 C 82.1806 -2.86016 -3.30928 0
M  V30 900 C 81.2396 -2.74018 -4.49222 0
M  V30 901 O 80.2656 -3.47964 -4.50455 0
M  V30 902 N 81.4676 -1.86309 -5.4979 0
M  V30 903 H 84.2326 -2.59777 -1.49452 0
M  V30 904 H 81.7936 -1.47022 -0.677955 0
M  V30 905 H 83.7856 -1.48128 -3.76617 0
M  V30 906 H 82.3556 -0.69965 -3.0467 0
M  V30 907 H 81.5756 -3.10672 -2.42645 0
M  V30 908 H 82.8636 -3.70521 -3.487 0
M  V30 909 H 82.2616 -1.2551 -5.51601 0
M  V30 910 H 80.8186 -1.81837 -6.25922 0
M  V30 911 N 84.2517 0.741722 -1.39055 0
M  V30 912 C 85.4767 1.53607 -1.39354 0
M  V30 913 C 85.9017 1.88096 0.0116905 0
M  V30 914 O 85.2597 1.5143 0.996924 0
M  V30 915 C 85.3077 2.80441 -2.26682 0
M  V30 916 O 84.4117 3.76088 -1.69208 0
M  V30 917 H 83.7527 0.464142 -0.474835 0
M  V30 918 H 86.2827 0.915665 -1.82967 0
M  V30 919 H 86.2927 3.29246 -2.40959 0
M  V30 920 H 84.9677 2.5467 -3.2881 0
M  V30 921 H 83.5447 3.34833 -1.64138 0
M  V30 922 N 85.7298 1.2412 0.971189 0
M  V30 923 C 86.6598 1.05508 2.08304 0
M  V30 924 C 87.6408 -0.0308864 1.70072 0
M  V30 925 O 88.8258 0.135521 1.93727 0
M  V30 926 C 85.9558 0.655365 3.4106 0
M  V30 927 C 84.9098 1.68971 3.93234 0
M  V30 928 C 84.2358 1.14516 5.22293 0
M  V30 929 C 85.5358 3.08487 4.21465 0
M  V30 930 H 87.2298 1.98507 2.24132 0
M  V30 931 H 84.7758 0.955821 1.07704 0
M  V30 932 H 86.7288 0.51217 4.18276 0
M  V30 933 H 85.4528 -0.31032 3.25122 0
M  V30 934 H 84.1118 1.82106 3.18171 0
M  V30 935 H 83.7598 0.170189 5.02712 0
M  V30 936 H 83.4598 1.83635 5.58168 0
M  V30 937 H 84.9838 1.01401 6.02121 0
M  V30 938 H 86.3978 2.98601 4.89398 0
M  V30 939 H 84.7948 3.74926 4.68562 0
M  V30 940 H 85.8648 3.56787 3.28376 0
M  V30 941 N 87.2079 -1.17134 1.05439 0
M  V30 942 C 88.4559 -1.87085 0.764429 0
M  V30 943 C 88.7769 -1.81584 -0.710787 0
M  V30 944 O 88.0469 -1.24349 -1.51374 0
M  V30 945 H 86.6269 -0.692627 0.279779 0
M  V30 946 H 89.2889 -1.42087 1.33406 0
M  V30 947 H 88.3849 -2.92759 1.0816 0
M  V30 948 N 88.686 -0.835752 -1.33615 0
M  V30 949 C 89.636 -0.238856 -2.26745 0
M  V30 950 C 90.62 0.604343 -1.49119 0
M  V30 951 O 91.812 0.456822 -1.71003 0
M  V30 952 C 88.941 0.587725 -3.38232 0
M  V30 953 C 88.027 -0.266811 -4.2326 0
M  V30 954 N 88.418 -1.34403 -4.87616 0
M  V30 955 C 86.716 -0.0533131 -4.45968 0
M  V30 956 C 87.417 -1.86819 -5.50884 0
M  V30 957 N 86.393 -1.17013 -5.30857 0
M  V30 958 H 90.195 -1.06266 -2.74016 0
M  V30 959 H 87.709 -0.679881 -1.47483 0
M  V30 960 H 89.706 1.03161 -4.03935 0
M  V30 961 H 88.366 1.40954 -2.9251 0
M  V30 962 H 89.377 -1.7269 -4.88261 0
M  V30 963 H 86.054 0.735312 -4.10974 0
M  V30 964 H 87.444 -2.7701 -6.1214 0
M  V30 965 N 90.1641 1.46063 -0.591896 0
M  V30 966 C 91.5751 1.85944 -0.167822 0
M  V30 967 C 91.9261 1.49429 1.27143 0
M  V30 968 O 91.0511 0.913515 1.96173 0
M  V30 969 C 91.6461 3.37489 -0.297794 0
M  V30 970 C 90.2051 3.76332 0.0714732 0
M  V30 971 C 89.3521 2.7006 -0.629509 0
M  V30 972 H 92.3031 1.37087 -0.799555 0
M  V30 973 H 92.3241 3.77532 0.474349 0
M  V30 974 H 91.8361 3.64034 -1.3454 0
M  V30 975 H 89.9371 3.55405 1.11886 0
M  V30 976 H 90.0501 4.78088 -0.311245 0
M  V30 977 H 88.4141 2.54607 -0.0687867 0
M  V30 978 H 89.1971 2.99444 -1.67894 0
M  V30 979 N 91.6422 0.330177 1.54103 0
M  V30 980 C 93.0532 -0.15652 1.86043 0
M  V30 981 C 93.4042 -1.51086 1.2517 0
M  V30 982 O 92.5292 -2.09023 0.560217 0
M  V30 983 C 93.1242 -0.290784 3.3755 0
M  V30 984 C 91.6832 -0.721705 3.69416 0
M  V30 985 C 90.8302 0.152622 2.7688 0
M  V30 986 H 93.7812 0.550237 1.48856 0
M  V30 987 H 93.8022 -1.12058 3.63625 0
M  V30 988 H 93.3142 0.695068 3.81825 0
M  V30 989 H 91.4152 -1.71706 3.30678 0
M  V30 990 H 91.5282 -0.520869 4.7626 0
M  V30 991 H 89.8922 -0.372894 2.51956 0
M  V30 992 H 90.6752 1.13536 3.23982 0
M  V30 993 N 93.1203 -1.57491 0.0584922 0
M  V30 994 C 94.5313 -1.80526 -0.476138 0
M  V30 995 C 94.8823 -0.971334 -1.70469 0
M  V30 996 O 94.0073 -0.190012 -2.15564 0
M  V30 997 C 94.6023 -3.27424 -0.870587 0
M  V30 998 C 93.1613 -3.51351 -1.35015 0
M  V30 999 C 92.3083 -2.75343 -0.32887 0
M  V30 1000 H 95.2593 -1.56133 0.284312 0
M  V30 1001 H 95.2803 -3.38745 -1.73299 0
M  V30 1002 H 94.7923 -3.88093 0.0237627 0
M  V30 1003 H 92.8933 -2.95971 -2.26345 0
M  V30 1004 H 93.0063 -4.60059 -1.33726 0
M  V30 1005 H 91.3703 -2.417 -0.803321 0
M  V30 1006 H 92.1533 -3.38743 0.557521 0
M  V30 1007 N 94.5984 0.214957 -1.56127 0
M  V30 1008 C 95.5084 1.28727 -1.96129 0
M  V30 1009 C 96.5244 1.50916 -0.866044 0
M  V30 1010 O 97.7004 1.63918 -1.17016 0
M  V30 1011 C 94.7654 2.61569 -2.27558 0
M  V30 1012 C 93.8264 2.47625 -3.50685 0
M  V30 1013 C 93.0594 3.74132 -3.80606 0
M  V30 1014 O 93.2824 4.77438 -3.12104 0
M  V30 1015 O 92.2164 3.70849 -4.74083 0
M  V30 1016 H 96.0424 0.977855 -2.87527 0
M  V30 1017 H 93.6274 0.418358 -1.43423 0
M  V30 1018 H 95.5094 3.40012 -2.48938 0
M  V30 1019 H 94.1844 2.92178 -1.39332 0
M  V30 1020 H 93.0914 1.67361 -3.34576 0
M  V30 1021 H 94.4244 2.21954 -4.39315 0
M  V30 1022 N 96.0765 1.50051 0.48192 0
M  V30 1023 C 97.4875 1.5348 1.06305 0
M  V30 1024 C 97.8385 0.331997 1.93371 0
M  V30 1025 O 96.9635 -0.556256 2.09129 0
M  V30 1026 C 97.5585 2.7813 1.93466 0
M  V30 1027 C 96.1175 2.84275 2.46707 0
M  V30 1028 C 95.2645 2.47637 1.24785 0
M  V30 1029 H 98.2155 1.56472 0.264995 0
M  V30 1030 H 98.2365 2.59372 2.78399 0
M  V30 1031 H 97.7485 3.65654 1.30072 0
M  V30 1032 H 95.8495 2.01077 3.13686 0
M  V30 1033 H 95.9625 3.8691 2.82555 0
M  V30 1034 H 94.3265 1.99835 1.57918 0
M  V30 1035 H 95.1095 3.37457 0.630694 0
M  V30 1036 N 97.5546 -0.734337 1.39446 0
M  V30 1037 C 98.8026 -1.49096 1.36436 0
M  V30 1038 C 99.1236 -1.94961 -0.0388255 0
M  V30 1039 O 98.3936 -1.69033 -0.990191 0
M  V30 1040 H 96.9736 -0.5531 0.502085 0
M  V30 1041 H 99.6356 -0.871725 1.74319 0
M  V30 1042 H 98.7316 -2.37276 2.02747 0
M  V30 1043 N 99.0327 -1.24633 -0.964593 0
M  V30 1044 C 100.444 -1.08045 -1.5226 0
M  V30 1045 C 100.795 0.347116 -1.93105 0
M  V30 1046 O 99.9197 1.23588 -1.77637 0
M  V30 1047 C 100.515 -1.95514 -2.76695 0
M  V30 1048 C 99.0737 -1.8314 -3.28841 0
M  V30 1049 C 98.2207 -1.90262 -2.01732 0
M  V30 1050 H 101.172 -1.38064 -0.782553 0
M  V30 1051 H 101.193 -1.48925 -3.50145 0
M  V30 1052 H 100.705 -2.99407 -2.46936 0
M  V30 1053 H 98.8057 -0.82092 -3.63444 0
M  V30 1054 H 98.9187 -2.67406 -3.97531 0
M  V30 1055 H 97.2827 -1.34027 -2.16584 0
M  V30 1056 H 98.0657 -2.9574 -1.74334 0
M  V30 1057 N 100.511 1.16574 -1.06058 0
M  V30 1058 C 101.788 1.83048 -0.689416 0
M  V30 1059 C 102.168 1.94122 0.829443 0
M  V30 1060 O 101.516 1.48249 1.7388 0
M  V30 1061 C 101.726 3.20186 -1.38859 0
M  V30 1062 C 103.074 3.95989 -1.53226 0
M  V30 1063 O 104.098 3.29696 -1.3483 0
M  V30 1064 O 102.957 5.14813 -1.83384 0
M  V30 1065 H 100.051 0.790258 -0.243764 0
M  V30 1066 H 102.597 1.23797 -1.16071 0
M  V30 1067 H 101.369 3.07146 -2.4244 0
M  V30 1068 H 100.992 3.87112 -0.907216 0
M  V30 1069 N 101.989 0.842826 1.3317 0
M  V30 1070 C 103.405 0.531128 1.50503 0
M  V30 1071 C 103.605 -0.940734 1.78192 0
M  V30 1072 O 102.661 -1.72436 1.84451 0
M  V30 1073 C 103.974 1.40789 2.65705 0
M  V30 1074 C 105.522 1.40708 2.79589 0
M  V30 1075 C 105.997 2.26878 3.97857 0
M  V30 1076 N 107.488 2.24609 4.05099 0
M  V30 1077 C 108.223 2.88019 4.95815 0
M  V30 1078 N 107.719 3.60496 5.9162 0
M  V30 1079 N 109.512 2.77469 4.88843 0
M  V30 1080 H 101.663 1.79557 1.1346 0
M  V30 1081 H 103.926 0.766267 0.558156 0
M  V30 1082 H 103.632 2.454 2.51936 0
M  V30 1083 H 103.506 1.08677 3.61205 0
M  V30 1084 H 105.893 0.368668 2.92788 0
M  V30 1085 H 105.974 1.76829 1.84838 0
M  V30 1086 H 105.618 3.3078 3.85418 0
M  V30 1087 H 105.548 1.88096 4.91861 0
M  V30 1088 H 108.039 1.71906 3.36536 0
M  V30 1089 H 108.352 4.06076 6.57512 0
M  V30 1090 H 106.697 3.64604 5.91683 0
M  V30 1091 H 109.888 2.20406 4.12963 0
M  V30 1092 H 110.061 3.2717 5.59342 0
M  V30 1093 N 103.467 -1.45747 0.599634 0
M  V30 1094 C 104.713 -2.02592 0.0918643 0
M  V30 1095 C 105.046 -1.46806 -1.27128 0
M  V30 1096 O 104.321 -0.639658 -1.83681 0
M  V30 1097 C 104.604 -3.60073 0.0443398 0
M  V30 1098 C 104.457 -4.26208 1.43759 0
M  V30 1099 C 105.776 -4.35309 -0.647608 0
M  V30 1100 H 102.895 -0.736175 0.034857 0
M  V30 1101 H 105.537 -1.73694 0.770081 0
M  V30 1102 H 103.687 -3.84823 -0.533224 0
M  V30 1103 H 105.359 -4.12668 2.06162 0
M  V30 1104 H 103.602 -3.84916 2.00056 0
M  V30 1105 H 104.273 -5.35069 1.35665 0
M  V30 1106 H 106.749 -4.15805 -0.156776 0
M  V30 1107 H 105.625 -5.45038 -0.649942 0
M  V30 1108 H 105.886 -4.07598 -1.71219 0
M  V30 1109 N 104.945 -0.338344 -1.53925 0
M  V30 1110 C 105.908 0.508299 -2.23493 0
M  V30 1111 C 106.908 1.03175 -1.23335 0
M  V30 1112 O 108.098 0.921826 -1.47811 0
M  V30 1113 C 105.23 1.70754 -2.95052 0
M  V30 1114 H 106.423 -0.100058 -2.99733 0
M  V30 1115 H 103.976 -0.0896198 -1.56043 0
M  V30 1116 H 104.711 2.35474 -2.22986 0
M  V30 1117 H 104.496 1.33946 -3.68512 0
M  V30 1118 H 105.986 2.30818 -3.48013 0
M  V30 1119 N 106.423 1.57458 -0.0668435 0
M  V30 1120 C 107.7 1.8469 0.644132 0
M  V30 1121 C 108.08 0.958343 1.88093 0
M  V30 1122 O 107.428 0.0233579 2.28488 0
M  V30 1123 C 107.638 3.34767 0.986509 0
M  V30 1124 C 108.986 4.02159 1.36212 0
M  V30 1125 O 110.01 3.39484 1.07839 0
M  V30 1126 O 108.869 5.12694 1.89227 0
M  V30 1127 H 105.963 0.762816 0.319437 0
M  V30 1128 H 108.509 1.6942 -0.0973986 0
M  V30 1129 H 107.281 3.91151 0.107883 0
M  V30 1130 H 106.904 3.55281 1.78497 0
M  V30 1131 N 107.901 -0.206675 1.56239 0
M  V30 1132 C 108.864 -1.23976 1.92776 0
M  V30 1133 C 109.864 -1.39041 0.807729 0
M  V30 1134 O 111.054 -1.37051 1.0753 0
M  V30 1135 C 108.186 -2.61112 2.19165 0
M  V30 1136 H 109.379 -0.927764 2.85189 0
M  V30 1137 H 106.932 -0.447718 1.4975 0
M  V30 1138 H 107.667 -2.97386 1.29352 0
M  V30 1139 H 107.452 -2.51552 3.00772 0
M  V30 1140 H 108.942 -3.35633 2.48476 0
M  V30 1141 N 109.379 -1.50304 -0.473955 0
M  V30 1142 C 110.326 -1.68959 -1.57231 0
M  V30 1143 C 111.296 -0.530899 -1.57387 0
M  V30 1144 O 112.481 -0.761133 -1.74961 0
M  V30 1145 C 109.621 -1.7871 -2.95223 0
M  V30 1146 C 108.734 -3.06061 -3.04878 0
M  V30 1147 C 107.869 -3.06626 -4.33767 0
M  V30 1148 C 106.908 -4.28443 -4.37154 0
M  V30 1149 N 106.045 -4.26763 -5.5751 0
M  V30 1150 H 110.885 -2.6273 -1.40631 0
M  V30 1151 H 108.422 -1.30241 -0.683789 0
M  V30 1152 H 110.38 -1.82344 -3.75242 0
M  V30 1153 H 109.01 -0.883806 -3.10465 0
M  V30 1154 H 108.062 -3.11911 -2.17751 0
M  V30 1155 H 109.374 -3.96039 -3.0324 0
M  V30 1156 H 108.528 -3.08973 -5.22131 0
M  V30 1157 H 107.267 -2.14473 -4.3801 0
M  V30 1158 H 106.272 -4.2631 -3.47188 0
M  V30 1159 H 107.497 -5.2182 -4.34605 0
M  V30 1160 H 105.443 -3.37462 -5.62544 0
M  V30 1161 H 105.36 -5.10507 -5.57601 0
M  V30 1162 H 106.628 -4.33253 -6.48006 0
M  V30 1163 N 110.857 0.726932 -1.39834 0
M  V30 1164 C 112.105 1.4837 -1.37225 0
M  V30 1165 C 112.426 1.94979 0.0284857 0
M  V30 1166 O 111.696 1.69555 0.981213 0
M  V30 1167 H 110.276 0.55043 -0.505011 0
M  V30 1168 H 112.938 0.862468 -1.74778 0
M  V30 1169 H 112.034 2.36198 -2.04003 0
M  V30 1170 N 112.336 1.25143 0.95797 0
M  V30 1171 C 113.613 1.00472 1.67823 0
M  V30 1172 C 113.993 -0.470056 2.058 0
M  V30 1173 O 113.341 -1.44663 1.76875 0
M  V30 1174 C 113.551 1.9372 2.90299 0
M  V30 1175 C 114.899 2.21371 3.62326 0
M  V30 1176 O 115.923 1.91451 3.00375 0
M  V30 1177 O 114.782 2.72231 4.7387 0
M  V30 1178 H 111.876 0.380752 0.734137 0
M  V30 1179 H 114.422 1.36283 1.01119 0
M  V30 1180 H 113.194 2.93316 2.59001 0
M  V30 1181 H 112.817 1.58286 3.64735 0
M  V30 1182 N 113.814 -1.1601 1.06675 0
M  V30 1183 C 115.039 -1.91068 0.806706 0
M  V30 1184 C 115.464 -1.77112 -0.633485 0
M  V30 1185 O 114.822 -1.09908 -1.44187 0
M  V30 1186 C 114.87 -3.39655 1.21106 0
M  V30 1187 O 113.974 -4.10893 0.352189 0
M  V30 1188 H 113.315 -0.595125 0.294486 0
M  V30 1189 H 115.845 -1.46955 1.42356 0
M  V30 1190 H 115.855 -3.90434 1.18428 0
M  V30 1191 H 114.53 -3.49132 2.26008 0
M  V30 1192 H 113.107 -3.70285 0.440868 0
M  V30 1193 N 115.292 -0.849877 -1.32721 0
M  V30 1194 C 116.202 -0.293791 -2.32753 0
M  V30 1195 C 117.218 0.585906 -1.63839 0
M  V30 1196 O 118.394 0.487413 -1.95413 0
M  V30 1197 C 115.459 0.512752 -3.42887 0
M  V30 1198 C 114.52 -0.39252 -4.27502 0
M  V30 1199 C 113.753 0.375625 -5.32377 0
M  V30 1200 O 113.976 1.60613 -5.4732 0
M  V30 1201 O 112.91 -0.256094 -6.01355 0
M  V30 1202 H 116.736 -1.12242 -2.82197 0
M  V30 1203 H 114.321 -0.612685 -1.36259 0
M  V30 1204 H 116.203 0.970704 -4.10067 0
M  V30 1205 H 114.878 1.31826 -2.95641 0
M  V30 1206 H 113.785 -0.898547 -3.63149 0
M  V30 1207 H 115.118 -1.16309 -4.7826 0
M  V30 1208 N 116.77 1.45427 -0.607355 0
M  V30 1209 C 117.995 2.07124 -0.107006 0
M  V30 1210 C 118.42 1.44906 1.19933 0
M  V30 1211 O 117.778 0.541687 1.73019 0
M  V30 1212 C 117.826 3.60595 0.0194119 0
M  V30 1213 O 116.93 3.98285 1.0697 0
M  V30 1214 H 116.271 0.659868 -0.0739597 0
M  V30 1215 H 118.801 1.86683 -0.837297 0
M  V30 1216 H 118.811 4.07419 0.2177 0
M  V30 1217 H 117.486 4.05266 -0.934453 0
M  V30 1218 H 116.063 3.63133 0.847889 0
M  V30 1219 N 118.248 0.346503 1.53744 0
M  V30 1220 C 119.158 -0.517293 2.28826 0
M  V30 1221 C 120.174 -1.10935 1.3405 0
M  V30 1222 O 121.35 -1.1244 1.6709 0
M  V30 1223 C 118.415 -1.65098 3.04866 0
M  V30 1224 C 117.476 -1.0884 4.15274 0
M  V30 1225 C 116.709 -2.16806 4.87679 0
M  V30 1226 O 116.932 -3.3758 4.59778 0
M  V30 1227 O 115.866 -1.80934 5.74061 0
M  V30 1228 H 119.692 0.0931396 3.03557 0
M  V30 1229 H 117.277 0.111458 1.48984 0
M  V30 1230 H 119.159 -2.31053 3.5241 0
M  V30 1231 H 117.834 -2.24717 2.32989 0
M  V30 1232 H 116.741 -0.3933 3.72027 0
M  V30 1233 H 118.074 -0.537036 4.89261 0
M  V30 1234 N 119.726 -1.57421 0.075193 0
M  V30 1235 C 120.636 -2.1642 -0.905511 0
M  V30 1236 C 121.652 -1.12828 -1.32461 0
M  V30 1237 O 122.828 -1.45109 -1.39661 0
M  V30 1238 C 119.893 -2.71693 -2.15369 0
M  V30 1239 C 118.954 -3.90171 -1.79068 0
M  V30 1240 C 118.187 -4.42798 -2.97936 0
M  V30 1241 O 118.41 -3.94416 -4.12058 0
M  V30 1242 O 117.344 -5.34085 -2.77555 0
M  V30 1243 H 121.17 -3.00588 -0.433626 0
M  V30 1244 H 118.755 -1.48664 -0.148067 0
M  V30 1245 H 120.637 -3.07104 -2.88557 0
M  V30 1246 H 119.312 -1.90582 -2.61649 0
M  V30 1247 H 118.219 -3.59606 -1.03122 0
M  V30 1248 H 119.552 -4.72584 -1.37569 0
M  V30 1249 N 121.204 0.198386 -1.56346 0
M  V30 1250 C 122.481 0.944982 -1.71258 0
M  V30 1251 C 122.861 2.0151 -0.629048 0
M  V30 1252 O 122.209 2.25639 0.360473 0
M  V30 1253 C 122.419 1.5344 -3.1346 0
M  V30 1254 C 123.767 2.01778 -3.73591 0
M  V30 1255 O 124.791 1.63288 -3.16568 0
M  V30 1256 O 123.65 2.72594 -4.73661 0
M  V30 1257 H 120.744 0.442939 -0.69838 0
M  V30 1258 H 123.29 0.188342 -1.68652 0
M  V30 1259 H 122.062 0.762869 -3.83792 0
M  V30 1260 H 121.685 2.35596 -3.20282 0
M  V30 1261 N 122.682 1.50554 0.465978 0
M  V30 1262 C 123.592 1.72585 1.58907 0
M  V30 1263 C 124.608 0.60911 1.6299 0
M  V30 1264 O 125.784 0.88804 1.80765 0
M  V30 1265 C 122.849 1.81995 2.95091 0
M  V30 1266 C 121.91 3.05751 3.01355 0
M  V30 1267 C 121.143 3.14702 4.31043 0
M  V30 1268 O 121.366 2.30313 5.21835 0
M  V30 1269 O 120.3 4.07468 4.43005 0
M  V30 1270 H 124.126 2.67799 1.43239 0
M  V30 1271 H 121.711 1.34711 0.646013 0
M  V30 1272 H 123.593 1.90335 3.75966 0
M  V30 1273 H 122.268 0.899659 3.10947 0
M  V30 1274 H 121.175 3.02908 2.19539 0
M  V30 1275 H 122.508 3.97375 2.90437 0
M  V30 1276 N 124.16 -0.719506 1.40217 0
M  V30 1277 C 125.437 -1.47221 1.28784 0
M  V30 1278 C 125.817 -2.10883 -0.0956067 0
M  V30 1279 O 125.165 -1.99833 -1.10811 0
M  V30 1280 C 125.375 -2.5111 2.42373 0
M  V30 1281 C 126.723 -3.17053 2.82423 0
M  V30 1282 O 127.747 -2.61429 2.41937 0
M  V30 1283 O 126.606 -4.17742 3.52355 0
M  V30 1284 H 123.7 -0.654491 0.50554 0
M  V30 1285 H 126.246 -0.752014 1.52128 0
M  V30 1286 H 125.018 -2.02556 3.34793 0
M  V30 1287 H 124.641 -3.3067 2.20778 0
M  V30 1288 N 125.638 -1.25649 -0.95132 0
M  V30 1289 C 126.568 -1.08808 -2.06599 0
M  V30 1290 C 127.549 0.00382547 -1.701 0
M  V30 1291 O 128.734 -0.166325 -1.93486 0
M  V30 1292 C 125.864 -0.709542 -3.39975 0
M  V30 1293 C 124.818 -1.75206 -3.90496 0
M  V30 1294 C 124.144 -1.22811 -5.20405 0
M  V30 1295 C 125.444 -3.15153 -4.16504 0
M  V30 1296 H 127.138 -2.02048 -2.20946 0
M  V30 1297 H 124.684 -0.972835 -1.06169 0
M  V30 1298 H 126.637 -0.578649 -4.17408 0
M  V30 1299 H 125.361 0.258556 -3.25575 0
M  V30 1300 H 124.02 -1.87145 -3.15234 0
M  V30 1301 H 123.668 -0.250145 -5.02378 0
M  V30 1302 H 123.368 -1.92492 -5.55176 0
M  V30 1303 H 124.892 -1.10968 -6.00432 0
M  V30 1304 H 126.306 -3.06349 -4.84586 0
M  V30 1305 H 124.703 -3.82333 -4.62538 0
M  V30 1306 H 125.773 -3.61966 -3.22658 0
M  V30 1307 N 127.117 1.15442 -1.07289 0
M  V30 1308 C 128.027 2.23786 -0.704057 0
M  V30 1309 C 129.043 1.7166 0.284413 0
M  V30 1310 O 130.219 2.00972 0.131205 0
M  V30 1311 C 127.284 3.46535 -0.106792 0
M  V30 1312 C 126.345 4.13654 -1.14842 0
M  V30 1313 C 125.578 5.30544 -0.57956 0
M  V30 1314 O 125.801 5.67187 0.604585 0
M  V30 1315 O 124.735 5.87154 -1.32414 0
M  V30 1316 H 128.561 2.57664 -1.60757 0
M  V30 1317 H 126.146 1.23152 -0.845803 0
M  V30 1318 H 128.028 4.20804 0.224048 0
M  V30 1319 H 126.703 3.14407 0.770049 0
M  V30 1320 H 125.61 3.4131 -1.5316 0
M  V30 1321 H 126.943 4.49861 -1.99714 0
M  V30 1322 N 128.595 0.856903 1.32268 0
M  V30 1323 C 129.841 0.462069 1.97466 0
M  V30 1324 C 130.174 -0.980298 1.67642 0
M  V30 1325 O 129.449 -1.68824 0.965858 0
M  V30 1326 C 129.732 0.704336 3.53145 0
M  V30 1327 C 129.585 2.19529 3.9259 0
M  V30 1328 C 130.904 0.1622 4.39801 0
M  V30 1329 H 128.023 0.169357 0.717278 0
M  V30 1330 H 130.665 1.07574 1.56614 0
M  V30 1331 H 128.815 0.181999 3.88073 0
M  V30 1332 H 130.487 2.78387 3.67829 0
M  V30 1333 H 128.73 2.67292 3.41668 0
M  V30 1334 H 129.401 2.31549 5.01088 0
M  V30 1335 H 131.877 0.608905 4.11621 0
M  V30 1336 H 130.753 0.361265 5.4771 0
M  V30 1337 H 131.014 -0.935158 4.32096 0
M  V30 1338 N 130.073 -1.45103 0.615059 0
M  V30 1339 C 131.484 -1.85654 0.197383 0
M  V30 1340 C 131.835 -1.51433 -1.24749 0
M  V30 1341 O 130.96 -0.944608 -1.94695 0
M  V30 1342 C 131.555 -3.36972 0.351448 0
M  V30 1343 C 130.114 -3.76398 -0.011593 0
M  V30 1344 C 129.261 -2.69024 0.672394 0
M  V30 1345 H 132.212 -1.35797 0.821263 0
M  V30 1346 H 132.233 -3.78239 -0.414227 0
M  V30 1347 H 131.745 -3.61847 1.40314 0
M  V30 1348 H 129.846 -3.5714 -1.06217 0
M  V30 1349 H 129.959 -4.77532 0.387265 0
M  V30 1350 H 128.323 -2.54465 0.109284 0
M  V30 1351 H 129.106 -2.96735 1.72636 0
M  V30 1352 N 131.551 -0.354651 -1.53558 0
M  V30 1353 C 132.797 0.238797 -2.01389 0
M  V30 1354 C 133.13 1.49309 -1.2418 0
M  V30 1355 O 132.405 1.91638 -0.332457 0
M  V30 1356 C 132.688 0.541771 -3.56001 0
M  V30 1357 C 132.541 -0.725388 -4.43912 0
M  V30 1358 C 133.86 1.34685 -4.18984 0
M  V30 1359 H 130.979 0.0853177 -0.732045 0
M  V30 1360 H 133.621 -0.477384 -1.83905 0
M  V30 1361 H 131.771 1.15189 -3.71031 0
M  V30 1362 H 133.443 -1.36313 -4.407 0
M  V30 1363 H 131.686 -1.34801 -4.12324 0
M  V30 1364 H 132.357 -0.468505 -5.50008 0
M  V30 1365 H 134.833 0.830837 -4.07721 0
M  V30 1366 H 133.709 1.52759 -5.27215 0
M  V30 1367 H 133.97 2.35221 -3.74331 0
M  V30 1368 N 133.029 1.57378 -0.0835403 0
M  V30 1369 C 134.44 1.81261 0.447358 0
M  V30 1370 C 134.791 0.998331 1.68902 0
M  V30 1371 O 133.916 0.224282 2.15235 0
M  V30 1372 C 134.511 3.28767 0.818386 0
M  V30 1373 C 133.07 3.53455 1.29409 0
M  V30 1374 C 132.217 2.75831 0.285024 0
M  V30 1375 H 135.168 1.5566 -0.309115 0
M  V30 1376 H 135.189 3.41459 1.67887 0
M  V30 1377 H 134.701 3.88006 -0.0855019 0
M  V30 1378 H 132.802 2.99534 2.21608 0
M  V30 1379 H 132.915 4.62128 1.2639 0
M  V30 1380 H 131.279 2.42947 0.764767 0
M  V30 1381 H 132.062 3.37813 -0.611341 0
M  V30 1382 N 134.507 -0.190092 1.56449 0
M  V30 1383 C 135.732 -0.929864 1.85387 0
M  V30 1384 C 136.157 -1.7585 0.667704 0
M  V30 1385 O 135.515 -1.77198 -0.383459 0
M  V30 1386 C 135.563 -1.79773 3.12593 0
M  V30 1387 O 134.667 -2.89713 2.93496 0
M  V30 1388 H 134.008 -0.261574 0.610307 0
M  V30 1389 H 136.538 -0.193896 2.03679 0
M  V30 1390 H 136.548 -2.20139 3.43515 0
M  V30 1391 H 135.223 -1.18892 3.98544 0
M  V30 1392 H 133.8 -2.53065 2.73884 0
M  V30 1393 N 135.985 -1.50799 -0.457987 0
M  V30 1394 C 137.401 -1.38515 -0.792819 0
M  V30 1395 C 137.601 -0.451409 -1.96379 0
M  V30 1396 O 136.657 0.10112 -2.52297 0
M  V30 1397 C 137.97 -2.80149 -1.09258 0
M  V30 1398 C 139.518 -2.89156 -1.19825 0
M  V30 1399 C 139.993 -4.31651 -1.53106 0
M  V30 1400 N 141.484 -4.34662 -1.60072 0
M  V30 1401 C 142.219 -5.41928 -1.87354 0
M  V30 1402 N 141.715 -6.59384 -2.12568 0
M  V30 1403 N 143.508 -5.29385 -1.88965 0
M  V30 1404 H 135.659 -2.10073 0.313511 0
M  V30 1405 H 137.922 -0.944803 0.0777862 0
M  V30 1406 H 137.628 -3.50374 -0.305084 0
M  V30 1407 H 137.502 -3.18204 -2.02549 0
M  V30 1408 H 139.889 -2.19141 -1.97639 0
M  V30 1409 H 139.97 -2.54626 -0.244821 0
M  V30 1410 H 139.614 -5.02208 -0.758266 0
M  V30 1411 H 139.544 -4.63678 -2.49621 0
M  V30 1412 H 142.035 -3.49973 -1.42573 0
M  V30 1413 H 142.348 -7.36934 -2.32696 0
M  V30 1414 H 140.693 -6.62535 -2.09933 0
M  V30 1415 H 143.884 -4.36616 -1.68772 0
M  V30 1416 H 144.057 -6.13066 -2.09891 0
M  V30 1417 N 137.463 0.71206 -1.40597 0
M  V30 1418 C 138.71 1.47197 -1.39065 0
M  V30 1419 C 139.038 1.94499 0.00583891 0
M  V30 1420 O 138.293 1.68752 0.99102 0
M  V30 1421 C 138.592 2.71039 -2.32965 0
M  V30 1422 C 138.258 2.42484 -3.80148 0
M  V30 1423 C 136.92 2.34406 -4.20247 0
M  V30 1424 C 139.272 2.18598 -4.73143 0
M  V30 1425 C 136.6 2.00516 -5.51371 0
M  V30 1426 C 138.952 1.8622 -6.0457 0
M  V30 1427 C 137.616 1.76626 -6.43708 0
M  V30 1428 H 136.886 0.538634 -0.508876 0
M  V30 1429 H 139.533 0.815325 -1.73276 0
M  V30 1430 H 137.838 3.41558 -1.91951 0
M  V30 1431 H 139.535 3.29138 -2.29061 0
M  V30 1432 H 136.125 2.49659 -3.4838 0
M  V30 1433 H 140.309 2.23793 -4.42979 0
M  V30 1434 H 135.565 1.91628 -5.80593 0
M  V30 1435 H 139.739 1.66752 -6.76141 0
M  V30 1436 H 137.366 1.50133 -7.45228 0
M  V30 1437 N 138.941 1.26152 0.944643 0
M  V30 1438 C 139.889 1.07215 2.06417 0
M  V30 1439 C 140.883 9.2007e-05 1.694 0
M  V30 1440 O 142.089 0.1565 1.79318 0
M  V30 1441 H 138.464 0.329837 0.675805 0
M  V30 1442 H 140.435 2.02099 2.19541 0
M  V30 1443 C 139.184 0.718197 3.40202 0
M  V30 1444 H 138.507 1.53497 3.69159 0
M  V30 1445 H 139.947 0.625459 4.19361 0
M  V30 1446 C 138.406 -0.576435 3.31932 0
M  V30 1447 O 138.936 -1.61574 3.67773 0
M  V30 1448 N 137.142 -0.565781 2.85039 0
M  V30 1449 H 136.689 0.280367 2.5607 0
M  V30 1450 H 136.647 -1.43213 2.79888 0
M  V30 1451 N 140.419 -1.14872 1.07899 0
M  V30 1452 C 141.835 -1.37776 0.805606 0
M  V30 1453 C 142.035 -1.92743 -0.587555 0
M  V30 1454 O 141.091 -2.13678 -1.34528 0
M  V30 1455 C 142.404 -2.34361 1.88402 0
M  V30 1456 C 143.952 -2.48012 1.90942 0
M  V30 1457 C 144.427 -3.47893 2.97883 0
M  V30 1458 N 145.918 -3.55433 2.97021 0
M  V30 1459 C 146.653 -4.32553 3.76412 0
M  V30 1460 N 146.149 -5.12959 4.65666 0
M  V30 1461 N 147.942 -4.27697 3.64735 0
M  V30 1462 H 140.093 -0.775365 1.97742 0
M  V30 1463 H 142.356 -0.403521 0.857831 0
M  V30 1464 H 142.062 -2.01098 2.88535 0
M  V30 1465 H 141.936 -3.34206 1.74889 0
M  V30 1466 H 144.323 -2.8057 0.914579 0
M  V30 1467 H 144.404 -1.48147 2.08534 0
M  V30 1468 H 144.048 -3.16069 3.97571 0
M  V30 1469 H 143.978 -4.47527 2.77538 0
M  V30 1470 H 146.469 -2.98048 2.32326 0
M  V30 1471 H 146.782 -5.69065 5.22862 0
M  V30 1472 H 145.127 -5.12245 4.69712 0
M  V30 1473 H 148.318 -3.63949 2.94378 0
M  V30 1474 H 148.491 -4.8755 4.26848 0
M  V30 1475 N 141.898 -0.863906 -1.31812 0
M  V30 1476 C 143.314 -0.555004 -1.49639 0
M  V30 1477 C 143.514 0.912266 -1.79666 0
M  V30 1478 O 142.57 1.69479 -1.87171 0
M  V30 1479 C 143.883 -1.44998 -2.63431 0
M  V30 1480 C 145.431 -1.45138 -2.77316 0
M  V30 1481 C 145.906 -2.33179 -3.94197 0
M  V30 1482 N 147.397 -2.31025 -4.01474 0
M  V30 1483 C 148.132 -2.95871 -4.9117 0
M  V30 1484 N 147.628 -3.69863 -5.8581 0
M  V30 1485 N 149.421 -2.85211 -4.84367 0
M  V30 1486 H 141.572 -1.81339 -1.10589 0
M  V30 1487 H 143.835 -0.77505 -0.545895 0
M  V30 1488 H 143.541 -2.49377 -2.48 0
M  V30 1489 H 143.415 -1.14409 -3.59431 0
M  V30 1490 H 145.802 -0.415201 -2.92164 0
M  V30 1491 H 145.883 -1.79747 -1.82001 0
M  V30 1492 H 145.527 -3.3687 -3.80107 0
M  V30 1493 H 145.457 -1.95897 -4.88807 0
M  V30 1494 H 147.948 -1.77238 -3.33759 0
M  V30 1495 H 148.261 -4.16486 -6.50968 0
M  V30 1496 H 146.606 -3.73971 -5.85808 0
M  V30 1497 H 149.797 -2.26948 -4.09405 0
M  V30 1498 H 149.97 -3.36027 -5.54066 0
M  V30 1499 N 143.376 1.44774 -0.622745 0
M  V30 1500 C 144.622 2.0242 -0.124083 0
M  V30 1501 C 144.955 1.4881 1.24777 0
M  V30 1502 O 144.23 0.668799 1.8264 0
M  V30 1503 C 144.513 3.59957 -0.101619 0
M  V30 1504 C 144.366 4.23867 -1.50521 0
M  V30 1505 C 145.685 4.36284 0.578272 0
M  V30 1506 H 142.804 0.735528 -0.0465645 0
M  V30 1507 H 145.446 1.72447 -0.797617 0
M  V30 1508 H 143.596 3.85623 0.471934 0
M  V30 1509 H 145.268 4.09336 -2.12701 0
M  V30 1510 H 143.511 3.81684 -2.06154 0
M  V30 1511 H 144.182 5.32843 -1.4416 0
M  V30 1512 H 146.658 4.16001 0.0906057 0
M  V30 1513 H 145.534 5.46004 0.563149 0
M  V30 1514 H 145.795 4.10271 1.64713 0
M  V30 1515 N 144.854 0.36279 1.53368 0
M  V30 1516 C 146.079 -0.231226 2.06107 0
M  V30 1517 C 146.504 -1.419 1.23474 0
M  V30 1518 O 145.862 -1.79524 0.253128 0
M  V30 1519 C 145.91 -0.605523 3.5548 0
M  V30 1520 O 145.014 -1.70312 3.7559 0
M  V30 1521 H 144.355 -0.034327 0.663112 0
M  V30 1522 H 146.885 0.522584 1.97814 0
M  V30 1523 H 146.895 -0.877314 3.98456 0
M  V30 1524 H 145.57 0.263004 4.15068 0
M  V30 1525 H 144.147 -1.4271 3.44512 0
M  V30 1526 N 146.332 -1.57332 0.0918853 0
M  V30 1527 C 147.578 -1.94524 -0.573425 0
M  V30 1528 C 147.911 -0.973578 -1.68033 0
M  V30 1529 O 147.186 -0.00609226 -1.94499 0
M  V30 1530 C 147.469 -3.41858 -1.13161 0
M  V30 1531 C 147.322 -4.4979 -0.0299747 0
M  V30 1532 C 148.641 -3.90435 -2.03098 0
M  V30 1533 H 145.76 -0.70734 -0.206975 0
M  V30 1534 H 148.402 -1.89309 0.161942 0
M  V30 1535 H 146.552 -3.46433 -1.7583 0
M  V30 1536 H 148.224 -4.57327 0.604112 0
M  V30 1537 H 146.467 -4.291 0.636833 0
M  V30 1538 H 147.138 -5.50069 -0.461287 0
M  V30 1539 H 149.614 -3.87992 -1.50338 0
M  V30 1540 H 148.49 -4.94097 -2.39081 0
M  V30 1541 H 148.751 -3.29541 -2.94712 0
M  V30 1542 N 147.81 0.181792 -1.56548 0
M  V30 1543 C 149.05 0.906711 -1.83189 0
M  V30 1544 C 149.414 1.79882 -0.671312 0
M  V30 1545 O 150.615 2.56054 -0.81792 0
M  V30 1546 C 148.886 1.69023 -3.14906 0
M  V30 1547 S 150.445 2.46535 -3.62996 0
M  V30 1548 H 147.263 0.303877 -0.642791 0
M  V30 1549 H 149.865 0.169107 -1.94767 0
M  V30 1550 H 148.569 1.02571 -3.97376 0
M  V30 1551 H 148.1 2.46941 -3.06241 0
M  V30 1552 H 150.115 3.71014 -3.29489 0
M  V30 1553 N 149.288 1.51039 0.449983 0
M  V30 1554 C 150.251 1.70863 1.5277 0
M  V30 1555 C 151.251 0.578846 1.5002 0
M  V30 1556 O 152.441 0.846213 1.52266 0
M  V30 1557 C 149.573 1.75341 2.9235 0
M  V30 1558 H 150.766 2.67034 1.36502 0
M  V30 1559 H 148.319 1.40838 0.677812 0
M  V30 1560 H 149.054 0.809383 3.14037 0
M  V30 1561 H 148.839 2.57436 2.95752 0
M  V30 1562 H 150.329 1.92559 3.70555 0
M  V30 1563 N 150.766 -0.704594 1.40972 0
M  V30 1564 C 151.676 -1.84856 1.44448 0
M  V30 1565 C 152.692 -1.70726 0.335961 0
M  V30 1566 O 153.868 -1.92799 0.582276 0
M  V30 1567 C 150.933 -3.20758 1.31587 0
M  V30 1568 C 149.994 -3.47063 2.52677 0
M  V30 1569 C 149.227 -4.76481 2.4042 0
M  V30 1570 O 149.45 -5.52341 1.42391 0
M  V30 1571 O 148.384 -5.03367 3.30007 0
M  V30 1572 H 152.21 -1.8488 2.40942 0
M  V30 1573 H 149.795 -0.85647 1.22413 0
M  V30 1574 H 151.677 -4.01913 1.26665 0
M  V30 1575 H 150.352 -3.21438 0.382049 0
M  V30 1576 H 149.259 -2.65873 2.63177 0
M  V30 1577 H 150.592 -3.5119 3.44858 0
M  V30 1578 N 152.244 -1.26651 -0.937939 0
M  V30 1579 C 153.472 -1.15173 -1.7188 0
M  V30 1580 C 153.887 0.292668 -1.86518 0
M  V30 1581 O 153.244 1.20014 -1.37488 0
M  V30 1582 C 153.295 -1.81925 -3.12387 0
M  V30 1583 O 153.016 -3.2072 -2.98446 0
M  V30 1584 C 154.517 -1.76442 -4.06673 0
M  V30 1585 H 151.737 -0.400911 -0.538063 0
M  V30 1586 H 154.281 -1.67332 -1.1756 0
M  V30 1587 H 152.436 -1.33696 -3.63599 0
M  V30 1588 H 152.85 -3.53802 -3.872 0
M  V30 1589 H 154.324 -2.27781 -5.02812 0
M  V30 1590 H 154.801 -0.731608 -4.33064 0
M  V30 1591 H 155.407 -2.24238 -3.61382 0
M  V30 1592 N 153.722 1.14298 -1.08507 0
M  V30 1593 C 154.952 1.88945 -0.835663 0
M  V30 1594 C 155.36 1.78894 0.615928 0
M  V30 1595 O 154.703 1.1468 1.43506 0
M  V30 1596 C 154.765 3.39585 -1.17994 0
M  V30 1597 C 154.429 3.7342 -2.63451 0
M  V30 1598 C 155.426 3.73454 -3.61702 0
M  V30 1599 C 153.111 4.03368 -2.99332 0
M  V30 1600 C 155.105 4.02961 -4.93864 0
M  V30 1601 C 152.792 4.32538 -4.31687 0
M  V30 1602 C 153.79 4.32318 -5.28763 0
M  V30 1603 O 153.478 4.6078 -6.58739 0
M  V30 1604 H 153.21 0.605307 -0.300965 0
M  V30 1605 H 155.764 1.45673 -1.44806 0
M  V30 1606 H 153.994 3.83315 -0.51055 0
M  V30 1607 H 155.683 3.9554 -0.911182 0
M  V30 1608 H 156.449 3.50403 -3.35325 0
M  V30 1609 H 152.328 4.02692 -2.24411 0
M  V30 1610 H 155.872 4.02704 -5.69627 0
M  V30 1611 H 151.769 4.55059 -4.57812 0
M  V30 1612 H 152.537 4.78492 -6.64069 0
M  V30 1613 N 155.201 0.870884 1.31352 0
M  V30 1614 C 156.149 0.316445 2.30437 0
M  V30 1615 C 157.143 -0.568965 1.59559 0
M  V30 1616 O 158.349 -0.454964 1.74155 0
M  V30 1617 H 154.724 0.0836521 0.747333 0
M  V30 1618 H 156.695 1.16606 2.74673 0
M  V30 1619 C 155.444 -0.46635 3.44558 0
M  V30 1620 H 154.767 0.205687 3.99271 0
M  V30 1621 H 156.207 -0.819614 4.16003 0
M  V30 1622 C 154.666 -1.65797 2.9328 0
M  V30 1623 O 155.196 -2.75728 2.92125 0
M  V30 1624 N 153.402 -1.49041 2.4947 0
M  V30 1625 H 152.949 -0.59612 2.50608 0
M  V30 1626 H 152.907 -2.28911 2.15516 0
M  V30 1627 N 156.679 -1.44442 0.630414 0
M  V30 1628 C 158.09 -1.85434 0.217063 0
M  V30 1629 C 158.441 -1.52748 -1.23136 0
M  V30 1630 O 157.566 -0.965205 -1.93682 0
M  V30 1631 C 158.161 -3.36581 0.387168 0
M  V30 1632 C 156.72 -3.76389 0.0283297 0
M  V30 1633 C 155.867 -2.68296 0.700889 0
M  V30 1634 H 158.818 -1.34919 0.83562 0
M  V30 1635 H 158.839 -3.78657 -0.374086 0
M  V30 1636 H 158.351 -3.60339 1.44144 0
M  V30 1637 H 156.452 -3.58246 -1.02423 0
M  V30 1638 H 156.565 -4.77095 0.437892 0
M  V30 1639 H 154.929 -2.54335 0.136267 0
M  V30 1640 H 155.712 -2.94887 1.75774 0
M  V30 1641 N 158.157 -0.370918 -1.53173 0
M  V30 1642 C 159.434 0.273754 -1.93675 0
M  V30 1643 C 159.814 1.65938 -1.3049 0
M  V30 1644 O 159.162 2.23698 -0.465999 0
M  V30 1645 C 159.372 0.318602 -3.47543 0
M  V30 1646 C 160.72 0.556392 -4.20939 0
M  V30 1647 O 161.744 0.399587 -3.53952 0
M  V30 1648 O 160.603 0.862133 -5.39657 0
M  V30 1649 H 157.697 0.165448 -0.810281 0
M  V30 1650 H 160.243 -0.42409 -1.64315 0
M  V30 1651 H 159.015 -0.652687 -3.85818 0
M  V30 1652 H 158.638 1.06212 -3.83151 0
M  V30 1653 N 159.635 1.57281 -0.100228 0
M  V30 1654 C 160.545 2.17833 0.870965 0
M  V30 1655 C 161.561 1.14921 1.30649 0
M  V30 1656 O 162.737 1.47313 1.37335 0
M  V30 1657 C 159.802 2.75085 2.1102 0
M  V30 1658 C 158.863 3.9297 1.72838 0
M  V30 1659 C 158.096 4.47482 2.90854 0
M  V30 1660 O 158.319 4.00922 4.05731 0
M  V30 1661 O 157.253 5.38433 2.69023 0
M  V30 1662 H 161.079 3.0124 0.38575 0
M  V30 1663 H 158.664 1.48881 0.124397 0
M  V30 1664 H 160.546 3.11656 2.83634 0
M  V30 1665 H 159.221 1.94721 2.58584 0
M  V30 1666 H 158.128 3.61201 0.973883 0
M  V30 1667 H 159.461 4.74713 1.30033 0
M  V30 1668 N 161.113 -0.173488 1.56642 0
M  V30 1669 C 162.023 -1.23482 1.99473 0
M  V30 1670 C 163.039 -1.48567 0.905752 0
M  V30 1671 O 164.215 -1.60758 1.21321 0
M  V30 1672 C 161.28 -2.55444 2.34413 0
M  V30 1673 C 160.341 -2.38241 3.57127 0
M  V30 1674 C 159.574 -3.63909 3.90392 0
M  V30 1675 O 159.797 -4.68996 3.24653 0
M  V30 1676 O 158.731 -3.58149 4.83749 0
M  V30 1677 H 162.557 -0.901279 2.90018 0
M  V30 1678 H 160.142 -0.380185 1.44482 0
M  V30 1679 H 162.024 -3.33292 2.57865 0
M  V30 1680 H 160.699 -2.88382 1.4703 0
M  V30 1681 H 159.606 -1.58431 3.38896 0
M  V30 1682 H 160.939 -2.10228 4.45045 0
M  V30 1683 N 162.591 -1.51276 -0.441967 0
M  V30 1684 C 163.501 -1.75092 -1.56141 0
M  V30 1685 C 164.517 -0.634963 -1.62001 0
M  V30 1686 O 165.693 -0.916686 -1.79329 0
M  V30 1687 C 162.758 -1.86666 -2.92158 0
M  V30 1688 C 161.819 -3.10506 -2.96453 0
M  V30 1689 C 161.052 -3.21519 -4.25982 0
M  V30 1690 O 161.275 -2.38586 -5.18105 0
M  V30 1691 O 160.209 -4.14465 -4.36466 0
M  V30 1692 H 164.035 -2.70044 -1.38961 0
M  V30 1693 H 161.62 -1.35722 -0.624499 0
M  V30 1694 H 163.502 -1.96292 -3.72891 0
M  V30 1695 H 162.177 -0.949014 -3.09476 0
M  V30 1696 H 161.084 -3.06363 -2.14692 0
M  V30 1697 H 162.417 -4.01945 -2.84079 0
M  V30 1698 N 164.069 0.697108 -1.41344 0
M  V30 1699 C 164.979 1.84088 -1.45427 0
M  V30 1700 C 165.995 1.70545 -0.34501 0
M  V30 1701 O 167.171 1.92488 -0.592492 0
M  V30 1702 C 164.236 3.20056 -1.33286 0
M  V30 1703 C 163.297 3.45718 -2.54514 0
M  V30 1704 C 162.53 4.75199 -2.42944 0
M  V30 1705 O 162.753 5.51579 -1.45318 0
M  V30 1706 O 161.687 5.0161 -3.32672 0
M  V30 1707 H 165.513 1.836 -2.41919 0
M  V30 1708 H 163.098 0.849966 -1.22866 0
M  V30 1709 H 164.98 4.01236 -1.28794 0
M  V30 1710 H 163.655 3.2123 -0.39909 0
M  V30 1711 H 162.562 2.64474 -2.64583 0
M  V30 1712 H 163.895 3.49356 -3.46715 0
M  V30 1713 N 165.547 1.27147 0.931209 0
M  V30 1714 C 166.824 1.0401 1.65654 0
M  V30 1715 C 167.204 -0.426297 2.06751 0
M  V30 1716 O 166.552 -1.40879 1.79904 0
M  V30 1717 C 166.762 1.99834 2.86125 0
M  V30 1718 C 168.11 2.29007 3.57549 0
M  V30 1719 O 169.134 1.97779 2.96246 0
M  V30 1720 O 167.993 2.82222 4.67989 0
M  V30 1721 H 165.087 0.396239 0.725895 0
M  V30 1722 H 167.633 1.38397 0.982056 0
M  V30 1723 H 166.405 2.98744 2.52721 0
M  V30 1724 H 166.028 1.65987 3.61295 0
M  V30 1725 N 167.025 -1.13721 1.09112 0
M  V30 1726 C 168.253 -1.88773 0.846899 0
M  V30 1727 C 168.668 -1.7896 -0.601572 0
M  V30 1728 O 168.025 -1.15394 -1.41388 0
M  V30 1729 C 168.076 -3.3849 1.26913 0
M  V30 1730 O 167.797 -3.48043 2.66079 0
M  V30 1731 C 169.298 -4.30518 1.05682 0
M  V30 1732 H 166.518 -0.59772 0.304914 0
M  V30 1733 H 169.062 -1.43977 1.45227 0
M  V30 1734 H 167.217 -3.80881 0.707723 0
M  V30 1735 H 167.631 -4.4109 2.83795 0
M  V30 1736 H 169.105 -5.3391 1.40156 0
M  V30 1737 H 169.582 -4.392 -0.00563416 0
M  V30 1738 H 170.188 -3.93893 1.60402 0
M  V30 1739 N 168.503 -0.877838 -1.30888 0
M  V30 1740 C 169.78 -0.413052 -1.91189 0
M  V30 1741 C 170.16 1.1056 -1.79832 0
M  V30 1742 O 169.508 1.93771 -1.21099 0
M  V30 1743 C 169.718 -0.903191 -3.3711 0
M  V30 1744 C 171.066 -0.93395 -4.14201 0
M  V30 1745 O 172.09 -0.849373 -3.45925 0
M  V30 1746 O 170.949 -1.05772 -5.36167 0
M  V30 1747 H 168.043 -0.125035 -0.817493 0
M  V30 1748 H 170.589 -0.966269 -1.39504 0
M  V30 1749 H 169.361 -1.94692 -3.39427 0
M  V30 1750 H 168.984 -0.328732 -3.96239 0
M  V30 1751 N 169.982 1.44106 -0.638065 0
M  V30 1752 C 171.393 1.85316 -0.226894 0
M  V30 1753 C 171.744 1.53399 1.22324 0
M  V30 1754 O 170.869 0.975463 1.93167 0
M  V30 1755 C 171.464 3.3637 -0.405013 0
M  V30 1756 C 170.023 3.76369 -0.0482902 0
M  V30 1757 C 169.17 2.67921 -0.715108 0
M  V30 1758 H 172.121 1.34474 -0.842764 0
M  V30 1759 H 172.142 3.7885 0.354 0
M  V30 1760 H 171.654 3.59569 -1.46053 0
M  V30 1761 H 169.755 3.58784 1.00522 0
M  V30 1762 H 169.868 4.76856 -0.463187 0
M  V30 1763 H 168.232 2.54259 -0.149753 0
M  V30 1764 H 169.015 2.93951 -1.77335 0
M  V30 1765 N 171.46 0.379036 1.52974 0
M  V30 1766 C 172.876 0.0285448 1.59574 0
M  V30 1767 C 173.076 -1.45542 1.39355 0
M  V30 1768 O 172.132 -2.2187 1.20541 0
M  V30 1769 C 173.445 0.496535 2.96572 0
M  V30 1770 C 174.993 0.451909 3.0972 0
M  V30 1771 C 175.468 0.895924 4.49152 0
M  V30 1772 N 176.959 0.851522 4.55306 0
M  V30 1773 C 177.694 1.16661 5.61407 0
M  V30 1774 N 177.19 1.55166 6.752 0
M  V30 1775 N 178.983 1.08853 5.51459 0
M  V30 1776 H 171.134 1.34525 1.64367 0
M  V30 1777 H 173.397 0.550733 0.771619 0
M  V30 1778 H 173.103 1.53258 3.16552 0
M  V30 1779 H 172.977 -0.109802 3.7704 0
M  V30 1780 H 175.364 -0.575029 2.89443 0
M  V30 1781 H 175.445 1.09392 2.3123 0
M  V30 1782 H 175.089 1.92104 4.70168 0
M  V30 1783 H 175.019 0.23103 5.26093 0
M  V30 1784 H 177.51 0.568038 3.73606 0
M  V30 1785 H 177.823 1.776 7.52116 0
M  V30 1786 H 176.168 1.59044 6.76557 0
M  V30 1787 H 179.359 0.786803 4.6144 0
M  V30 1788 H 179.532 1.33742 6.34048 0
M  V30 1789 N 172.938 -1.57226 0.108567 0
M  V30 1790 C 174.184 -1.95121 -0.552761 0
M  V30 1791 C 174.517 -0.991345 -1.66991 0
M  V30 1792 O 173.792 -0.0267211 -1.94482 0
M  V30 1793 C 174.075 -3.43039 -1.09528 0
M  V30 1794 C 173.928 -4.49797 0.0177332 0
M  V30 1795 C 175.247 -3.92567 -1.98945 0
M  V30 1796 H 172.366 -0.709496 -0.199461 0
M  V30 1797 H 175.008 -1.89126 0.182011 0
M  V30 1798 H 173.158 -3.48279 -1.72146 0
M  V30 1799 H 174.83 -4.56661 0.652584 0
M  V30 1800 H 173.073 -4.284 0.682309 0
M  V30 1801 H 173.744 -5.50528 -0.402919 0
M  V30 1802 H 176.22 -3.89565 -1.46214 0
M  V30 1803 H 175.096 -4.96605 -2.33827 0
M  V30 1804 H 175.357 -3.32648 -2.91201 0
M  V30 1805 N 174.416 0.165178 -1.56732 0
M  V30 1806 C 175.665 0.879143 -1.81532 0
M  V30 1807 C 175.978 1.83144 -0.686842 0
M  V30 1808 O 177.184 2.58823 -0.819944 0
M  V30 1809 C 175.64 1.61388 -3.21686 0
M  V30 1810 C 175.248 0.704904 -4.4242 0
M  V30 1811 C 176.992 2.3157 -3.55774 0
M  V30 1812 C 174.899 1.44022 -5.73595 0
M  V30 1813 H 173.829 0.332033 -0.676957 0
M  V30 1814 H 176.48 0.132008 -1.83025 0
M  V30 1815 H 174.862 2.40599 -3.14529 0
M  V30 1816 H 176.036 -0.0506815 -4.60772 0
M  V30 1817 H 174.351 0.112419 -4.16248 0
M  V30 1818 H 176.948 2.8719 -4.51028 0
M  V30 1819 H 177.291 3.07201 -2.8095 0
M  V30 1820 H 177.824 1.59297 -3.64513 0
M  V30 1821 H 174.563 0.72612 -6.51466 0
M  V30 1822 H 174.083 2.16898 -5.5921 0
M  V30 1823 H 175.762 1.98606 -6.15764 0
M  V30 1824 N 175.894 1.51508 0.433938 0
M  V30 1825 C 176.844 1.69451 1.52546 0
M  V30 1826 C 177.828 0.548474 1.51263 0
M  V30 1827 O 179.02 0.804529 1.57659 0
M  V30 1828 C 176.149 1.82604 2.90707 0
M  V30 1829 C 175.235 3.03002 2.96733 0
M  V30 1830 N 175.626 4.26121 2.72496 0
M  V30 1831 C 173.924 3.02327 3.27894 0
M  V30 1832 C 174.625 5.07407 2.84452 0
M  V30 1833 N 173.601 4.42126 3.16269 0
M  V30 1834 H 177.403 2.62305 1.32564 0
M  V30 1835 H 174.917 1.49202 0.641297 0
M  V30 1836 H 176.914 1.93569 3.69238 0
M  V30 1837 H 175.574 0.909339 3.11707 0
M  V30 1838 H 176.585 4.55009 2.4736 0
M  V30 1839 H 173.262 2.20301 3.54646 0
M  V30 1840 H 174.652 6.15422 2.69639 0
M  V30 1841 N 177.372 -0.689602 1.41712 0
M  V30 1842 C 178.783 -1.26973 1.36875 0
M  V30 1843 C 179.134 -1.96124 0.054748 0
M  V30 1844 O 178.259 -1.99141 -0.84687 0
M  V30 1845 C 178.854 -2.30912 2.47922 0
M  V30 1846 C 177.413 -2.84486 2.46464 0
M  V30 1847 C 176.56 -1.58603 2.27465 0
M  V30 1848 H 179.511 -0.48396 1.51141 0
M  V30 1849 H 179.532 -3.12331 2.17323 0
M  V30 1850 H 179.044 -1.80554 3.43543 0
M  V30 1851 H 177.145 -3.39005 1.54617 0
M  V30 1852 H 177.258 -3.34511 3.42986 0
M  V30 1853 H 175.622 -1.84632 1.75451 0
M  V30 1854 H 176.405 -1.10233 3.25121 0
M  V30 1855 N 178.85 -1.27639 -0.924453 0
M  V30 1856 C 179.797 -1.10644 -2.0255 0
M  V30 1857 C 180.767 -0.00658438 -1.66099 0
M  V30 1858 O 181.952 -0.16952 -1.90045 0
M  V30 1859 C 179.092 -0.76309 -3.36557 0
M  V30 1860 C 178.205 -1.94091 -3.85944 0
M  V30 1861 C 177.34 -1.53914 -5.08413 0
M  V30 1862 C 176.379 -2.68425 -5.50104 0
M  V30 1863 N 175.516 -2.28815 -6.63768 0
M  V30 1864 H 180.356 -2.04858 -2.16419 0
M  V30 1865 H 177.893 -1.01974 -1.06017 0
M  V30 1866 H 179.851 -0.544822 -4.13627 0
M  V30 1867 H 178.481 0.142102 -3.22487 0
M  V30 1868 H 177.533 -2.27162 -3.05125 0
M  V30 1869 H 178.845 -2.7998 -4.12811 0
M  V30 1870 H 177.999 -1.28231 -5.92994 0
M  V30 1871 H 176.738 -0.651391 -4.8333 0
M  V30 1872 H 175.743 -2.94819 -4.64071 0
M  V30 1873 H 176.968 -3.57826 -5.7718 0
M  V30 1874 H 174.914 -1.42495 -6.40337 0
M  V30 1875 H 174.831 -3.08242 -6.90306 0
M  V30 1876 H 176.099 -2.06387 -7.51681 0
M  V30 1877 N 180.328 1.1314 -1.09713 0
M  V30 1878 C 181.556 1.88321 -0.856898 0
M  V30 1879 C 181.971 1.79276 0.592073 0
M  V30 1880 O 181.328 1.16142 1.40774 0
M  V30 1881 C 181.379 3.37812 -1.28706 0
M  V30 1882 O 181.1 3.46627 -2.67921 0
M  V30 1883 C 182.601 4.29952 -1.07964 0
M  V30 1884 H 179.821 0.596094 -0.308079 0
M  V30 1885 H 182.365 1.43205 -1.45988 0
M  V30 1886 H 180.52 3.805 -0.727912 0
M  V30 1887 H 180.934 4.39579 -2.8613 0
M  V30 1888 H 182.408 5.33159 -1.42986 0
M  V30 1889 H 182.885 4.39196 -0.0176577 0
M  V30 1890 H 183.491 3.93036 -1.62489 0
M  V30 1891 N 181.806 0.884767 1.30421 0
M  V30 1892 C 183.083 0.423185 1.90967 0
M  V30 1893 C 183.463 -1.09605 1.80416 0
M  V30 1894 O 182.811 -1.93126 1.22125 0
M  V30 1895 C 183.021 0.921056 3.36627 0
M  V30 1896 C 184.369 0.955903 4.137 0
M  V30 1897 O 185.393 0.867706 3.4547 0
M  V30 1898 O 184.252 1.08614 5.35598 0
M  V30 1899 H 181.346 0.129369 0.816819 0
M  V30 1900 H 183.892 0.973653 1.3899 0
M  V30 1901 H 182.664 1.96489 3.3839 0
M  V30 1902 H 182.287 0.349741 3.96059 0
M  V30 1903 N 183.284 -1.43765 0.645699 0
M  V30 1904 C 184.194 -2.34544 -0.0512957 0
M  V30 1905 C 185.21 -1.53455 -0.82022 0
M  V30 1906 O 186.386 -1.86133 -0.769176 0
M  V30 1907 C 183.451 -3.31636 -1.01087 0
M  V30 1908 C 182.512 -4.2863 -0.239712 0
M  V30 1909 C 181.745 -5.21084 -1.15358 0
M  V30 1910 O 181.968 -5.1779 -2.39269 0
M  V30 1911 O 180.902 -5.98593 -0.630038 0
M  V30 1912 H 184.728 -2.95624 0.695718 0
M  V30 1913 H 182.313 -1.43781 0.405882 0
M  V30 1914 H 184.195 -3.9136 -1.56254 0
M  V30 1915 H 182.87 -2.73069 -1.73824 0
M  V30 1916 H 181.777 -3.72408 0.355356 0
M  V30 1917 H 183.11 -4.90157 0.447936 0
M  V30 1918 N 184.763 -0.387143 -1.52771 0
M  V30 1919 C 185.695 0.484089 -2.2403 0
M  V30 1920 C 186.708 1.02849 -1.26198 0
M  V30 1921 O 187.897 0.931186 -1.52286 0
M  V30 1922 C 184.997 1.68337 -2.94136 0
M  V30 1923 C 184.17 1.26672 -4.18656 0
M  V30 1924 C 183.229 2.33045 -4.7178 0
M  V30 1925 O 182.255 1.94541 -5.34923 0
M  V30 1926 N 183.457 3.64929 -4.5145 0
M  V30 1927 H 186.222 -0.126404 -2.99433 0
M  V30 1928 H 183.783 -0.213392 -1.60488 0
M  V30 1929 H 185.775 2.39019 -3.26577 0
M  V30 1930 H 184.345 2.20025 -2.22053 0
M  V30 1931 H 183.565 0.388878 -3.92277 0
M  V30 1932 H 184.853 0.964964 -4.99566 0
M  V30 1933 H 184.251 3.98974 -4.01044 0
M  V30 1934 H 182.808 4.31651 -4.88386 0
M  V30 1935 N 186.241 1.57166 -0.116904 0
M  V30 1936 C 187.657 1.5779 0.239693 0
M  V30 1937 C 187.857 1.1295 1.66867 0
M  V30 1938 O 186.913 0.81592 2.38954 0
M  V30 1939 C 188.226 3.00699 0.00828202 0
M  V30 1940 C 189.774 3.12912 0.0743438 0
M  V30 1941 C 190.249 4.57817 -0.129348 0
M  V30 1942 N 191.74 4.63139 -0.075247 0
M  V30 1943 C 192.475 5.73023 -0.207788 0
M  V30 1944 N 191.971 6.91665 -0.396382 0
M  V30 1945 N 193.764 5.61906 -0.14751 0
M  V30 1946 H 185.915 1.84615 -1.05029 0
M  V30 1947 H 188.178 0.85311 -0.41341 0
M  V30 1948 H 187.884 3.37784 -0.979531 0
M  V30 1949 H 187.758 3.69848 0.741077 0
M  V30 1950 H 190.145 2.75686 1.05268 0
M  V30 1951 H 190.226 2.4631 -0.690297 0
M  V30 1952 H 189.87 4.95742 -1.10465 0
M  V30 1953 H 189.8 5.22507 0.655253 0
M  V30 1954 H 192.291 3.7784 0.0670898 0
M  V30 1955 H 192.604 7.71255 -0.488437 0
M  V30 1956 H 190.949 6.93654 -0.432329 0
M  V30 1957 H 194.14 4.681 -0.00115036 0
M  V30 1958 H 194.313 6.47501 -0.254247 0
M  V30 1959 N 187.719 -0.156864 1.56817 0
M  V30 1960 C 188.959 -0.877453 1.84608 0
M  V30 1961 C 189.323 -1.78791 0.699845 0
M  V30 1962 O 190.524 -2.5472 0.858553 0
M  V30 1963 C 188.795 -1.63992 3.17555 0
M  V30 1964 S 190.354 -2.40729 3.66872 0
M  V30 1965 H 187.172 -0.293612 0.647544 0
M  V30 1966 H 189.774 -0.138099 1.95012 0
M  V30 1967 H 188.478 -0.962363 3.98957 0
M  V30 1968 H 188.009 -2.42038 3.10131 0
M  V30 1969 H 190.024 -3.65725 3.3535 0
M  V30 1970 N 189.197 -1.51736 -0.425897 0
M  V30 1971 C 190.613 -1.40166 -0.76326 0
M  V30 1972 C 190.813 -0.492962 -1.95377 0
M  V30 1973 O 189.869 0.0475815 -2.52455 0
M  V30 1974 C 191.182 -2.82403 -1.03291 0
M  V30 1975 C 192.73 -2.91632 -1.13665 0
M  V30 1976 C 193.205 -4.34801 -1.43916 0
M  V30 1977 N 194.696 -4.3796 -1.50816 0
M  V30 1978 C 195.431 -5.4578 -1.75817 0
M  V30 1979 N 194.927 -6.63744 -1.98534 0
M  V30 1980 N 196.72 -5.33274 -1.77694 0
M  V30 1981 H 188.871 -2.09361 0.358 0
M  V30 1982 H 191.134 -0.942941 0.0978094 0
M  V30 1983 H 190.84 -3.50943 -0.230696 0
M  V30 1984 H 190.714 -3.22428 -1.95754 0
M  V30 1985 H 193.101 -2.23284 -1.92947 0
M  V30 1986 H 193.182 -2.55088 -0.190756 0
M  V30 1987 H 192.826 -5.03703 -0.65157 0
M  V30 1988 H 192.756 -4.68868 -2.39729 0
M  V30 1989 H 195.247 -3.52919 -1.35118 0
M  V30 1990 H 195.56 -7.41704 -2.17013 0
M  V30 1991 H 193.905 -6.66839 -1.95832 0
M  V30 1992 H 197.096 -4.40098 -1.59473 0
M  V30 1993 H 197.269 -6.1738 -1.9684 0
M  V30 1994 N 190.675 0.682077 -1.42076 0
M  V30 1995 C 191.605 1.80796 -1.47767 0
M  V30 1996 C 192.586 1.6677 -0.334954 0
M  V30 1997 O 193.771 1.863 -0.548264 0
M  V30 1998 C 190.901 3.19038 -1.37229 0
M  V30 1999 C 189.855 3.47789 -2.49453 0
M  V30 2000 C 189.181 4.8553 -2.23975 0
M  V30 2001 C 190.481 3.45411 -3.91776 0
M  V30 2002 H 192.175 1.7629 -2.41997 0
M  V30 2003 H 189.721 0.846721 -1.16476 0
M  V30 2004 H 191.674 3.97528 -1.39821 0
M  V30 2005 H 190.398 3.24204 -0.394907 0
M  V30 2006 H 189.057 2.71657 -2.46166 0
M  V30 2007 H 188.705 4.87337 -1.24547 0
M  V30 2008 H 188.405 5.0573 -2.99184 0
M  V30 2009 H 189.929 5.66312 -2.28304 0
M  V30 2010 H 191.343 4.13882 -3.96705 0
M  V30 2011 H 189.74 3.77145 -4.66778 0
M  V30 2012 H 190.81 2.44122 -4.18966 0
M  V30 2013 N 192.153 1.28127 0.917671 0
M  V30 2014 C 193.085 1.07517 2.02417 0
M  V30 2015 C 194.098 0.0281099 1.62776 0
M  V30 2016 O 195.287 0.270748 1.76435 0
M  V30 2017 C 192.387 0.610957 3.33347 0
M  V30 2018 C 191.56 1.73255 4.01624 0
M  V30 2019 C 190.619 1.26238 5.10833 0
M  V30 2020 O 189.645 1.96389 5.34247 0
M  V30 2021 N 190.847 0.123448 5.80369 0
M  V30 2022 H 193.612 2.02806 2.20658 0
M  V30 2023 H 191.173 1.19827 1.08871 0
M  V30 2024 H 193.165 0.280101 4.0373 0
M  V30 2025 H 191.735 -0.24898 3.11607 0
M  V30 2026 H 190.955 2.23319 3.24842 0
M  V30 2027 H 192.243 2.48503 4.43986 0
M  V30 2028 H 191.641 -0.461847 5.63812 0
M  V30 2029 H 190.198 -0.148158 6.51632 0
M  V30 2030 N 193.631 -1.12557 1.10312 0
M  V30 2031 C 194.541 -2.21841 0.763142 0
M  V30 2032 C 195.557 -1.72354 -0.238801 0
M  V30 2033 O 196.733 -2.01249 -0.0778746 0
M  V30 2034 C 193.798 -3.46131 0.198632 0
M  V30 2035 C 192.859 -4.10464 1.25769 0
M  V30 2036 C 192.092 -5.28821 0.72002 0
M  V30 2037 O 192.315 -5.6859 -0.453993 0
M  V30 2038 O 191.249 -5.83437 1.47935 0
M  V30 2039 H 195.075 -2.53312 1.67532 0
M  V30 2040 H 192.66 -1.20867 0.878157 0
M  V30 2041 H 194.542 -4.2125 -0.112401 0
M  V30 2042 H 193.217 -3.16338 -0.686419 0
M  V30 2043 H 192.124 -3.3713 1.62156 0
M  V30 2044 H 193.457 -4.44408 2.11571 0
M  V30 2045 N 195.109 -0.891671 -1.2995 0
M  V30 2046 C 196.072 -0.36828 -2.26222 0
M  V30 2047 C 197.072 0.493014 -1.53056 0
M  V30 2048 O 198.262 0.299213 -1.71611 0
M  V30 2049 C 195.394 0.47442 -3.37583 0
M  V30 2050 H 196.587 -1.21844 -2.74033 0
M  V30 2051 H 194.14 -0.669107 -1.41254 0
M  V30 2052 H 194.875 1.34489 -2.95099 0
M  V30 2053 H 194.66 -0.142615 -3.91841 0
M  V30 2054 H 196.15 0.83218 -4.09224 0
M  V30 2055 N 196.587 1.43421 -0.653314 0
M  V30 2056 C 197.827 2.03689 -0.170346 0
M  V30 2057 C 198.191 1.50427 1.19314 0
M  V30 2058 O 199.392 2.0234 1.76952 0
M  V30 2059 C 197.663 3.56946 -0.180183 0
M  V30 2060 S 199.222 4.38171 0.234925 0
M  V30 2061 H 196.04 0.707345 -0.0719976 0
M  V30 2062 H 198.642 1.75486 -0.86167 0
M  V30 2063 H 197.346 3.93212 -1.17526 0
M  V30 2064 H 196.877 3.89791 0.531675 0
M  V30 2065 H 198.892 4.73808 1.47378 0
M  V30 2066 N 198.065 0.39524 1.52563 0
M  V30 2067 C 199.012 -0.437036 2.26624 0
M  V30 2068 C 199.982 -1.05281 1.28472 0
M  V30 2069 O 201.167 -1.07971 1.57311 0
M  V30 2070 C 198.307 -1.55524 3.08069 0
M  V30 2071 C 197.42 -0.961745 4.21158 0
M  V30 2072 C 196.555 -2.05149 4.89987 0
M  V30 2073 C 195.594 -1.4342 5.95061 0
M  V30 2074 N 194.731 -2.46351 6.57462 0
M  V30 2075 H 199.571 0.200976 2.97322 0
M  V30 2076 H 197.108 0.110944 1.46681 0
M  V30 2077 H 199.066 -2.21437 3.53584 0
M  V30 2078 H 197.696 -2.16348 2.3957 0
M  V30 2079 H 196.748 -0.192048 3.79915 0
M  V30 2080 H 198.06 -0.470701 4.96574 0
M  V30 2081 H 197.214 -2.78819 5.38837 0
M  V30 2082 H 195.953 -2.57615 4.14109 0
M  V30 2083 H 194.958 -0.682774 5.45544 0
M  V30 2084 H 196.183 -0.917416 6.72875 0
M  V30 2085 H 194.129 -2.97975 5.8442 0
M  V30 2086 H 194.046 -2.02019 7.28508 0
M  V30 2087 H 195.314 -3.19633 7.10954 0
M  V30 2088 N 199.544 -1.57102 0.125237 0
M  V30 2089 C 200.821 -1.86953 -0.575142 0
M  V30 2090 C 201.201 -1.02749 -1.84407 0
M  V30 2091 O 200.549 -0.108144 -2.28244 0
M  V30 2092 C 200.759 -3.38198 -0.861583 0
M  V30 2093 C 202.107 -4.06937 -1.21192 0
M  V30 2094 O 203.131 -3.43252 -0.951645 0
M  V30 2095 O 201.99 -5.19364 -1.70068 0
M  V30 2096 H 199.084 -0.774147 -0.290906 0
M  V30 2097 H 201.63 -1.68942 0.160211 0
M  V30 2098 H 200.402 -3.91282 0.0373647 0
M  V30 2099 H 200.025 -3.61661 -1.65188 0
M  V30 2100 N 201.022 0.148545 -1.56898 0
M  V30 2101 C 202.271 0.85984 -1.82454 0
M  V30 2102 C 202.584 1.82406 -0.706229 0
M  V30 2103 O 203.79 2.57938 -0.847349 0
M  V30 2104 C 202.246 1.57967 -3.2338 0
M  V30 2105 C 201.854 0.65794 -4.43142 0
M  V30 2106 C 203.598 2.27784 -3.58211 0
M  V30 2107 C 201.505 1.3793 -5.75091 0
M  V30 2108 H 200.435 0.324834 -0.68044 0
M  V30 2109 H 203.086 0.112588 -1.83154 0
M  V30 2110 H 201.468 2.37249 -3.17063 0
M  V30 2111 H 202.642 -0.0995497 -4.60692 0
M  V30 2112 H 200.957 0.0682643 -4.16344 0
M  V30 2113 H 203.554 2.8239 -4.54048 0
M  V30 2114 H 203.897 3.04204 -2.84193 0
M  V30 2115 H 204.43 1.55421 -3.66182 0
M  V30 2116 H 201.169 0.656982 -6.52199 0
M  V30 2117 H 200.689 2.10954 -5.61479 0
M  V30 2118 H 202.368 1.92063 -6.17835 0
M  V30 2119 N 202.5 1.5196 0.417844 0
M  V30 2120 C 203.43 1.77634 1.51554 0
M  V30 2121 C 204.411 0.626918 1.58126 0
M  V30 2122 O 205.596 0.871632 1.7354 0
M  V30 2123 C 202.726 1.91911 2.8946 0
M  V30 2124 C 201.68 3.07463 2.97743 0
M  V30 2125 C 201.006 3.06951 4.37819 0
M  V30 2126 C 202.306 4.47082 2.70027 0
M  V30 2127 H 204 2.6955 1.3032 0
M  V30 2128 H 201.546 1.29706 0.625492 0
M  V30 2129 H 203.499 2.08455 3.6623 0
M  V30 2130 H 202.223 0.966598 3.11969 0
M  V30 2131 H 200.882 2.90656 2.23416 0
M  V30 2132 H 200.53 2.09438 4.57323 0
M  V30 2133 H 200.23 3.84556 4.44286 0
M  V30 2134 H 201.754 3.25613 5.16535 0
M  V30 2135 H 203.168 4.6414 3.36522 0
M  V30 2136 H 201.565 5.2654 2.87881 0
M  V30 2137 H 202.635 4.55777 1.65514 0
M  V30 2138 N 203.978 -0.674533 1.42435 0
M  V30 2139 C 204.908 -1.80009 1.48724 0
M  V30 2140 C 205.889 -1.6659 0.343793 0
M  V30 2141 O 207.074 -1.86007 0.558137 0
M  V30 2142 C 204.204 -3.18306 1.38919 0
M  V30 2143 C 203.158 -3.46461 2.51294 0
M  V30 2144 C 202.484 -4.84335 2.26547 0
M  V30 2145 C 203.784 -3.43328 3.93603 0
M  V30 2146 H 205.478 -1.75004 2.42928 0
M  V30 2147 H 203.024 -0.840533 1.16923 0
M  V30 2148 H 204.977 -3.9678 1.41927 0
M  V30 2149 H 203.701 -3.2399 0.412094 0
M  V30 2150 H 202.36 -2.70348 2.47604 0
M  V30 2151 H 202.008 -4.86669 1.2713 0
M  V30 2152 H 201.708 -5.04136 3.01861 0
M  V30 2153 H 203.232 -5.65094 2.31304 0
M  V30 2154 H 204.646 -4.11772 3.98894 0
M  V30 2155 H 203.043 -3.74664 4.68771 0
M  V30 2156 H 204.113 -2.41897 4.20255 0
M  V30 2157 N 205.456 -1.28612 -0.910864 0
M  V30 2158 C 206.703 -1.15934 -1.66029 0
M  V30 2159 C 207.031 0.291483 -1.92303 0
M  V30 2160 O 206.286 1.22816 -1.52364 0
M  V30 2161 C 206.585 -1.90624 -3.0232 0
M  V30 2162 C 206.251 -3.40405 -2.95695 0
M  V30 2163 C 204.913 -3.81255 -2.93595 0
M  V30 2164 C 207.265 -4.359 -2.85728 0
M  V30 2165 C 204.593 -5.15936 -2.79334 0
M  V30 2166 C 206.945 -5.70657 -2.73007 0
M  V30 2167 C 205.609 -6.10779 -2.69267 0
M  V30 2168 H 204.879 -0.424234 -0.607541 0
M  V30 2169 H 207.526 -1.5942 -1.06101 0
M  V30 2170 H 205.831 -1.39696 -3.6605 0
M  V30 2171 H 207.528 -1.78228 -3.59215 0
M  V30 2172 H 204.118 -3.07927 -2.98125 0
M  V30 2173 H 208.302 -4.053 -2.86436 0
M  V30 2174 H 203.558 -5.46146 -2.74835 0
M  V30 2175 H 207.732 -6.44311 -2.64264 0
M  V30 2176 H 205.359 -7.1509 -2.57974 0
M  V30 2177 N 206.934 1.1197 -1.10907 0
M  V30 2178 C 207.881 2.17846 -0.762345 0
M  V30 2179 C 208.851 1.63995 0.263599 0
M  V30 2180 O 210.036 1.90273 0.141773 0
M  V30 2181 C 207.176 3.44487 -0.205651 0
M  V30 2182 C 206.289 4.12369 -1.28748 0
M  V30 2183 C 205.424 5.26674 -0.691919 0
M  V30 2184 C 204.463 5.86431 -1.75399 0
M  V30 2185 N 203.6 6.92142 -1.17833 0
M  V30 2186 H 208.44 2.46851 -1.6694 0
M  V30 2187 H 205.977 1.21188 -0.833776 0
M  V30 2188 H 207.935 4.16981 0.135037 0
M  V30 2189 H 206.565 3.15884 0.664613 0
M  V30 2190 H 205.617 3.38003 -1.74522 0
M  V30 2191 H 206.929 4.52844 -2.09125 0
M  V30 2192 H 206.083 6.05953 -0.300963 0
M  V30 2193 H 204.822 4.8749 0.143232 0
M  V30 2194 H 203.827 5.05835 -2.15432 0
M  V30 2195 H 205.052 6.27685 -2.59208 0
M  V30 2196 H 202.998 6.54985 -0.364725 0
M  V30 2197 H 202.915 7.31242 -1.91887 0
M  V30 2198 H 204.183 7.75237 -0.81408 0
M  V30 2199 N 208.412 0.89855 1.29475 0
M  V30 2200 C 209.36 0.365253 2.29714 0
M  V30 2201 C 210.354 -0.534993 1.6073 0
M  V30 2202 O 211.56 -0.417921 1.75081 0
M  V30 2203 H 207.935 0.0994853 0.74539 0
M  V30 2204 H 209.906 1.22406 2.72138 0
M  V30 2205 C 208.655 -0.393159 3.4547 0
M  V30 2206 H 207.978 0.290332 3.98744 0
M  V30 2207 H 209.418 -0.731189 4.17648 0
M  V30 2208 C 207.877 -1.59539 2.9673 0
M  V30 2209 O 208.407 -2.69469 2.97908 0
M  V30 2210 N 206.613 -1.43716 2.52575 0
M  V30 2211 H 206.16 -0.542828 2.51816 0
M  V30 2212 H 206.118 -2.24288 2.20323 0
M  V30 2213 N 209.89 -1.43072 0.660911 0
M  V30 2214 C 210.82 -2.33497 -0.0122829 0
M  V30 2215 C 211.801 -1.49903 -0.803925 0
M  V30 2216 O 212.986 -1.78546 -0.763864 0
M  V30 2217 C 210.116 -3.33363 -0.973994 0
M  V30 2218 C 209.07 -4.27003 -0.291928 0
M  V30 2219 C 208.396 -5.16967 -1.36562 0
M  V30 2220 C 209.696 -5.15816 0.820462 0
M  V30 2221 H 211.39 -2.90038 0.742873 0
M  V30 2222 H 208.936 -1.39461 0.358688 0
M  V30 2223 H 210.889 -3.95524 -1.45392 0
M  V30 2224 H 209.613 -2.75095 -1.7604 0
M  V30 2225 H 208.272 -3.66217 0.167623 0
M  V30 2226 H 207.92 -4.55034 -2.14366 0
M  V30 2227 H 207.62 -5.80441 -0.914454 0
M  V30 2228 H 209.144 -5.82003 -1.84675 0
M  V30 2229 H 210.558 -5.71742 0.422366 0
M  V30 2230 H 208.955 -5.8805 1.19656 0
M  V30 2231 H 210.025 -4.55045 1.67518 0
M  V30 2232 N 211.368 -0.403325 -1.52352 0
M  V30 2233 C 212.645 0.232611 -1.94212 0
M  V30 2234 C 213.025 1.63133 -1.33981 0
M  V30 2235 O 212.373 2.22659 -0.513344 0
M  V30 2236 C 212.583 0.244811 -3.4814 0
M  V30 2237 C 213.931 0.46698 -4.22024 0
M  V30 2238 O 214.955 0.324419 -3.5472 0
M  V30 2239 O 213.814 0.74747 -5.41364 0
M  V30 2240 H 210.908 0.148223 -0.813609 0
M  V30 2241 H 213.454 -0.458848 -1.63379 0
M  V30 2242 H 212.226 -0.734378 -3.84347 0
M  V30 2243 H 211.849 0.980611 -3.85318 0
M  V30 2244 N 212.846 1.57033 -0.133567 0
M  V30 2245 C 213.778 2.13176 0.841944 0
M  V30 2246 C 214.791 1.07794 1.22001 0
M  V30 2247 O 215.98 1.35117 1.16643 0
M  V30 2248 C 213.08 2.62847 2.13926 0
M  V30 2249 C 212.253 3.92486 1.93064 0
M  V30 2250 C 211.312 4.27605 3.0666 0
M  V30 2251 O 210.338 4.96168 2.78937 0
M  V30 2252 N 211.54 3.861 4.33483 0
M  V30 2253 H 214.305 2.97503 0.362192 0
M  V30 2254 H 211.866 1.61821 0.05042 0
M  V30 2255 H 213.858 2.83363 2.88942 0
M  V30 2256 H 212.428 1.83319 2.53205 0
M  V30 2257 H 211.648 3.80732 1.02159 0
M  V30 2258 H 212.936 4.77225 1.76447 0
M  V30 2259 H 212.334 3.30828 4.58878 0
M  V30 2260 H 210.891 4.11694 5.05323 0
M  V30 2261 N 214.325 -0.140222 1.56975 0
M  V30 2262 C 215.235 -1.19223 2.02047 0
M  V30 2263 C 216.251 -1.46612 0.937062 0
M  V30 2264 O 217.427 -1.58148 1.24704 0
M  V30 2265 C 214.492 -2.50414 2.39778 0
M  V30 2266 C 213.553 -2.30612 3.621 0
M  V30 2267 C 212.786 -3.55547 3.98023 0
M  V30 2268 O 213.009 -4.62004 3.34528 0
M  V30 2269 O 211.943 -3.47808 4.91237 0
M  V30 2270 H 215.769 -0.839559 2.91865 0
M  V30 2271 H 213.354 -0.349453 1.45256 0
M  V30 2272 H 215.236 -3.27747 2.64877 0
M  V30 2273 H 213.911 -2.85198 1.53114 0
M  V30 2274 H 212.818 -1.51207 3.4218 0
M  V30 2275 H 214.151 -2.00741 4.49404 0
M  V30 2276 N 215.803 -1.52179 -0.40978 0
M  V30 2277 C 216.735 -1.71703 -1.51825 0
M  V30 2278 C 217.748 -0.597445 -1.51441 0
M  V30 2279 O 218.937 -0.872582 -1.55719 0
M  V30 2280 C 216.037 -1.74171 -2.90719 0
M  V30 2281 C 215.21 -3.03156 -3.15302 0
M  V30 2282 C 214.269 -2.97445 -4.34065 0
M  V30 2283 O 213.295 -3.71352 -4.31377 0
M  V30 2284 N 214.497 -2.15191 -5.39141 0
M  V30 2285 H 217.262 -2.67334 -1.35472 0
M  V30 2286 H 214.823 -1.50409 -0.599069 0
M  V30 2287 H 216.815 -1.67884 -3.68235 0
M  V30 2288 H 215.385 -0.860166 -3.00533 0
M  V30 2289 H 214.605 -3.23097 -2.25836 0
M  V30 2290 H 215.893 -3.88484 -3.28569 0
M  V30 2291 H 215.291 -1.54573 -5.44173 0
M  V30 2292 H 213.848 -2.1476 -6.15403 0
M  V30 2293 N 217.281 0.66697 -1.42791 0
M  V30 2294 C 218.211 1.79218 -1.49677 0
M  V30 2295 C 219.192 1.66405 -0.352623 0
M  V30 2296 O 220.377 1.85708 -0.567993 0
M  V30 2297 C 217.507 3.17565 -1.40605 0
M  V30 2298 C 216.461 3.45124 -2.53127 0
M  V30 2299 C 215.787 4.83127 -2.29112 0
M  V30 2300 C 217.087 3.41236 -3.95418 0
M  V30 2301 H 218.781 1.73713 -2.43853 0
M  V30 2302 H 216.327 0.83432 -1.17367 0
M  V30 2303 H 218.28 3.96022 -1.44029 0
M  V30 2304 H 217.004 3.23767 -0.429271 0
M  V30 2305 H 215.663 2.69031 -2.49034 0
M  V30 2306 H 215.311 4.85988 -1.29709 0
M  V30 2307 H 215.011 5.02528 -3.04531 0
M  V30 2308 H 216.535 5.63859 -2.34297 0
M  V30 2309 H 217.949 4.09651 -4.01073 0
M  V30 2310 H 216.346 3.72173 -4.70752 0
M  V30 2311 H 217.416 2.39665 -4.21532 0
M  V30 2312 N 218.759 1.29093 0.90403 0
M  V30 2313 C 219.984 1.19809 1.69294 0
M  V30 2314 C 220.409 -0.238481 1.86582 0
M  V30 2315 O 219.767 -1.1723 1.383 0
M  V30 2316 C 219.815 1.91202 3.05736 0
M  V30 2317 O 218.919 1.22611 3.93752 0
M  V30 2318 H 218.26 0.415385 0.518027 0
M  V30 2319 H 220.79 1.70586 1.12967 0
M  V30 2320 H 220.8 1.99487 3.55906 0
M  V30 2321 H 219.475 2.95692 2.92471 0
M  V30 2322 H 218.052 1.22554 3.52186 0
M  V30 2323 N 220.237 -1.11381 1.11499 0
M  V30 2324 C 221.169 -2.17207 0.731704 0
M  V30 2325 C 222.182 -1.61066 -0.236957 0
M  V30 2326 O 223.371 -1.78489 -0.0197591 0
M  V30 2327 C 220.471 -3.38846 0.0607624 0
M  V30 2328 C 219.644 -4.24451 1.0564 0
M  V30 2329 C 218.703 -5.24562 0.4149 0
M  V30 2330 O 217.729 -5.59071 1.069 0
M  V30 2331 N 218.931 -5.74651 -0.821943 0
M  V30 2332 H 221.696 -2.50699 1.64225 0
M  V30 2333 H 219.257 -1.26908 1.00529 0
M  V30 2334 H 221.249 -4.02911 -0.380139 0
M  V30 2335 H 219.819 -3.03411 -0.752376 0
M  V30 2336 H 219.039 -3.56833 1.67524 0
M  V30 2337 H 220.327 -4.78486 1.72998 0
M  V30 2338 H 219.725 -5.48797 -1.37252 0
M  V30 2339 H 218.282 -6.40549 -1.20582 0
M  V30 2340 N 221.715 -0.905404 -1.28997 0
M  V30 2341 C 222.961 -0.535039 -1.95615 0
M  V30 2342 C 223.294 0.917404 -1.71165 0
M  V30 2343 O 222.569 1.65123 -1.02785 0
M  V30 2344 C 222.852 -0.834918 -3.50287 0
M  V30 2345 C 222.705 -2.33948 -3.84172 0
M  V30 2346 C 224.024 -0.325318 -4.38896 0
M  V30 2347 H 221.143 -0.195861 -0.710498 0
M  V30 2348 H 223.785 -1.13313 -1.52513 0
M  V30 2349 H 221.935 -0.325904 -3.87131 0
M  V30 2350 H 223.607 -2.91847 -3.57243 0
M  V30 2351 H 221.85 -2.79789 -3.31513 0
M  V30 2352 H 222.521 -2.49987 -4.92149 0
M  V30 2353 H 224.997 -0.761256 -4.09077 0
M  V30 2354 H 223.873 -0.564295 -5.45992 0
M  V30 2355 H 224.134 0.774144 -4.35269 0
M  V30 2356 N 223.193 1.4272 -0.668489 0
M  V30 2357 C 224.123 2.335 -0.000100175 0
M  V30 2358 C 225.104 1.50328 0.795964 0
M  V30 2359 O 226.289 1.78949 0.754385 0
M  V30 2360 C 223.419 3.33874 0.956302 0
M  V30 2361 C 222.373 4.27152 0.269278 0
M  V30 2362 C 221.699 5.17684 1.33818 0
M  V30 2363 C 222.999 5.15373 -0.847805 0
M  V30 2364 H 224.693 2.89639 -0.758244 0
M  V30 2365 H 222.239 1.39269 -0.366079 0
M  V30 2366 H 224.192 3.9629 1.43292 0
M  V30 2367 H 222.916 2.76025 1.74579 0
M  V30 2368 H 221.575 3.66123 -0.187042 0
M  V30 2369 H 221.223 4.56165 2.1195 0
M  V30 2370 H 220.923 5.80918 0.883659 0
M  V30 2371 H 222.447 5.82974 1.81586 0
M  V30 2372 H 223.861 5.7151 -0.452681 0
M  V30 2373 H 222.258 5.87407 -1.22773 0
M  V30 2374 H 223.328 4.5415 -1.69929 0
M  V30 2375 N 224.671 0.411399 1.52136 0
M  V30 2376 C 225.948 -0.222308 1.94333 0
M  V30 2377 C 226.328 -1.6242 1.34844 0
M  V30 2378 O 225.676 -2.22384 0.525145 0
M  V30 2379 C 225.886 -0.226345 3.48265 0
M  V30 2380 C 227.234 -0.444592 4.22266 0
M  V30 2381 O 228.258 -0.305602 3.54887 0
M  V30 2382 O 227.117 -0.718749 5.41753 0
M  V30 2383 H 224.211 -0.143907 0.814383 0
M  V30 2384 H 226.757 0.467506 1.63133 0
M  V30 2385 H 225.529 0.75475 3.83952 0
M  V30 2386 H 225.152 -0.960163 3.85832 0
M  V30 2387 N 226.149 -1.5696 0.141893 0
M  V30 2388 C 227.112 -2.15316 -0.785587 0
M  V30 2389 C 228.112 -1.09366 -1.1788 0
M  V30 2390 O 229.302 -1.35031 -1.10056 0
M  V30 2391 C 226.434 -2.71211 -2.06537 0
M  V30 2392 H 227.627 -2.98608 -0.278041 0
M  V30 2393 H 225.18 -1.5593 -0.107519 0
M  V30 2394 H 225.915 -1.91571 -2.6167 0
M  V30 2395 H 225.7 -3.4872 -1.79268 0
M  V30 2396 H 227.19 -3.16189 -2.72789 0
M  V30 2397 N 227.627 0.131896 -1.57047 0
M  V30 2398 C 228.56 1.19236 -1.94571 0
M  V30 2399 C 229.538 1.40782 -0.813576 0
M  V30 2400 O 230.722 1.55148 -1.07058 0
M  V30 2401 C 227.849 2.54858 -2.23081 0
M  V30 2402 C 226.895 2.49817 -3.45679 0
M  V30 2403 S 227.728 1.95036 -4.98719 0
M  V30 2404 C 228.884 3.32357 -5.30367 0
M  V30 2405 H 229.117 0.872297 -2.84215 0
M  V30 2406 H 226.65 0.338134 -1.50652 0
M  V30 2407 H 228.608 3.32898 -2.40185 0
M  V30 2408 H 227.269 2.84047 -1.34074 0
M  V30 2409 H 226.462 3.49688 -3.62952 0
M  V30 2410 H 226.064 1.79892 -3.27895 0
M  V30 2411 H 228.356 4.28525 -5.2476 0
M  V30 2412 H 229.299 3.19923 -6.31708 0
M  V30 2413 H 229.707 3.3019 -4.57859 0
M  V30 2414 N 229.106 1.52395 0.401703 0
M  V30 2415 C 230.353 1.66817 1.14796 0
M  V30 2416 C 230.681 0.401772 1.90305 0
M  V30 2417 O 229.936 -0.615487 1.85769 0
M  V30 2418 C 230.235 2.84578 2.16217 0
M  V30 2419 C 229.901 4.22513 1.5746 0
M  V30 2420 C 228.563 4.60029 1.41161 0
M  V30 2421 C 230.915 5.0844 1.14622 0
M  V30 2422 C 228.243 5.81144 0.80552 0
M  V30 2423 C 230.595 6.30167 0.55428 0
M  V30 2424 C 229.259 6.66426 0.378482 0
M  V30 2425 H 228.529 0.610428 0.420069 0
M  V30 2426 H 231.176 1.86512 0.434212 0
M  V30 2427 H 229.481 2.59248 2.93764 0
M  V30 2428 H 231.178 2.92933 2.73845 0
M  V30 2429 H 227.768 3.92953 1.71132 0
M  V30 2430 H 231.952 4.80034 1.26021 0
M  V30 2431 H 227.208 6.07855 0.657399 0
M  V30 2432 H 231.382 6.96071 0.213983 0
M  V30 2433 H 229.009 7.60143 -0.0932606 0
M  V30 2434 N 230.584 -0.659388 1.43143 0
M  V30 2435 C 231.494 -1.80167 1.50256 0
M  V30 2436 C 232.51 -1.69571 0.390106 0
M  V30 2437 O 233.686 -1.90849 0.643319 0
M  V30 2438 C 230.751 -3.16409 1.41725 0
M  V30 2439 C 229.812 -3.38848 2.63591 0
M  V30 2440 C 229.045 -4.68591 2.55458 0
M  V30 2441 O 229.268 -5.47532 1.59891 0
M  V30 2442 O 228.202 -4.92614 3.45854 0
M  V30 2443 H 232.028 -1.77121 2.46702 0
M  V30 2444 H 229.613 -0.817092 1.25076 0
M  V30 2445 H 231.495 -3.9768 1.39387 0
M  V30 2446 H 230.17 -3.20059 0.484118 0
M  V30 2447 H 229.077 -2.57366 2.71502 0
M  V30 2448 H 230.41 -3.4004 3.55856 0
M  V30 2449 N 232.062 -1.29571 -0.897171 0
M  V30 2450 C 233.478 -1.07637 -1.17841 0
M  V30 2451 C 233.678 0.170713 -2.00776 0
M  V30 2452 O 232.734 0.867768 -2.3712 0
M  V30 2453 C 234.047 -2.3332 -1.8969 0
M  V30 2454 C 235.595 -2.38664 -2.02505 0
M  V30 2455 C 236.07 -3.64157 -2.77765 0
M  V30 2456 N 237.561 -3.64894 -2.85318 0
M  V30 2457 C 238.296 -4.58679 -3.44094 0
M  V30 2458 N 237.792 -5.62799 -4.04017 0
M  V30 2459 N 239.585 -4.46245 -3.41793 0
M  V30 2460 H 231.736 -2.09598 -0.343883 0
M  V30 2461 H 233.999 -0.923333 -0.214848 0
M  V30 2462 H 233.705 -3.24262 -1.36187 0
M  V30 2463 H 233.579 -2.41025 -2.9015 0
M  V30 2464 H 235.966 -1.48208 -2.55183 0
M  V30 2465 H 236.047 -2.34943 -1.01171 0
M  V30 2466 H 235.691 -4.54965 -2.25763 0
M  V30 2467 H 235.621 -3.65137 -3.7945 0
M  V30 2468 H 238.112 -2.89613 -2.42761 0
M  V30 2469 H 238.425 -6.3048 -4.46895 0
M  V30 2470 H 236.77 -5.66605 -4.02472 0
M  V30 2471 H 239.961 -3.64094 -2.94199 0
M  V30 2472 H 240.134 -5.19518 -3.87304 0
M  V30 2473 N 233.54 1.10788 -1.12088 0
M  V30 2474 C 234.789 1.82036 -0.868659 0
M  V30 2475 C 235.102 1.85929 0.607426 0
M  V30 2476 O 236.308 2.53346 0.97613 0
M  V30 2477 C 234.764 3.26951 -1.50435 0
M  V30 2478 C 234.372 3.31367 -3.01496 0
M  V30 2479 C 236.116 4.03053 -1.33225 0
M  V30 2480 C 234.023 4.7072 -3.58017 0
M  V30 2481 H 232.953 0.682108 -0.321318 0
M  V30 2482 H 235.604 1.24618 -1.34694 0
M  V30 2483 H 233.986 3.84343 -0.953735 0
M  V30 2484 H 235.16 2.83819 -3.6302 0
M  V30 2485 H 233.475 2.6875 -3.18061 0
M  V30 2486 H 236.072 5.05981 -1.72878 0
M  V30 2487 H 236.415 4.15387 -0.275529 0
M  V30 2488 H 236.948 3.52066 -1.85188 0
M  V30 2489 H 233.687 4.63585 -4.63432 0
M  V30 2490 H 233.207 5.1865 -3.01268 0
M  V30 2491 H 234.886 5.39685 -3.56859 0
M  V30 2492 N 235.018 0.912232 1.28515 0
M  V30 2493 C 236.264 0.545405 1.95328 0
M  V30 2494 C 236.597 -0.908313 1.71649 0
M  V30 2495 O 235.872 -1.64575 1.03659 0
M  V30 2496 C 236.155 0.853483 3.4984 0
M  V30 2497 C 236.008 2.35982 3.82926 0
M  V30 2498 C 237.327 0.348589 4.38717 0
M  V30 2499 H 234.446 0.199626 0.709449 0
M  V30 2500 H 237.088 1.1412 1.5191 0
M  V30 2501 H 235.238 0.34643 3.86952 0
M  V30 2502 H 236.91 2.93738 3.55691 0
M  V30 2503 H 235.153 2.81543 3.30024 0
M  V30 2504 H 235.824 2.52593 4.90816 0
M  V30 2505 H 238.3 0.78294 4.08668 0
M  V30 2506 H 237.176 0.593242 5.45685 0
M  V30 2507 H 237.437 -0.751049 4.35674 0
M  V30 2508 N 236.496 -1.42363 0.676048 0
M  V30 2509 C 237.443 -2.308 -0.00150904 0
M  V30 2510 C 238.413 -1.46032 -0.791444 0
M  V30 2511 O 239.598 -1.74861 -0.76344 0
M  V30 2512 C 236.738 -3.31883 -0.945919 0
M  V30 2513 C 235.851 -4.31741 -0.149675 0
M  V30 2514 C 234.986 -5.19898 -1.08995 0
M  V30 2515 C 234.025 -6.11434 -0.285465 0
M  V30 2516 N 233.162 -6.92138 -1.17851 0
M  V30 2517 H 238.002 -2.88187 0.758455 0
M  V30 2518 H 235.539 -1.41952 0.38576 0
M  V30 2519 H 237.497 -3.89019 -1.50731 0
M  V30 2520 H 236.127 -2.76093 -1.6725 0
M  V30 2521 H 235.179 -3.76713 0.528359 0
M  V30 2522 H 236.491 -4.96534 0.474866 0
M  V30 2523 H 235.645 -5.81772 -1.72123 0
M  V30 2524 H 234.384 -4.55284 -1.74837 0
M  V30 2525 H 233.389 -5.48627 0.359018 0
M  V30 2526 H 234.614 -6.78097 0.368883 0
M  V30 2527 H 232.56 -6.30152 -1.82332 0
M  V30 2528 H 232.477 -7.53542 -0.609082 0
M  V30 2529 H 233.745 -7.58499 -1.79722 0
M  V30 2530 N 237.974 -0.419461 -1.51915 0
M  V30 2531 C 238.937 0.389116 -2.25873 0
M  V30 2532 C 239.937 0.964924 -1.28631 0
M  V30 2533 O 241.127 0.842179 -1.52489 0
M  V30 2534 C 238.259 1.54874 -3.03689 0
M  V30 2535 H 239.452 -0.258799 -2.98781 0
M  V30 2536 H 237.005 -0.172209 -1.55348 0
M  V30 2537 H 237.74 2.23323 -2.35154 0
M  V30 2538 H 237.525 1.14223 -3.75094 0
M  V30 2539 H 239.015 2.12046 -3.59759 0
M  V30 2540 N 239.452 1.56882 -0.150215 0
M  V30 2541 C 240.729 1.87844 0.545327 0
M  V30 2542 C 241.109 1.0567 1.82749 0
M  V30 2543 O 240.457 0.144442 2.28043 0
M  V30 2544 C 240.667 3.39526 0.80767 0
M  V30 2545 C 242.015 4.08814 1.14703 0
M  V30 2546 O 243.039 3.44723 0.896917 0
M  V30 2547 O 241.898 5.22004 1.61784 0
M  V30 2548 H 238.992 0.778677 0.278553 0
M  V30 2549 H 241.538 1.68666 -0.187068 0
M  V30 2550 H 240.31 3.91173 -0.0996096 0
M  V30 2551 H 239.933 3.64243 1.59413 0
M  V30 2552 N 240.93 -0.123565 1.57115 0
M  V30 2553 C 241.84 -1.17074 2.033 0
M  V30 2554 C 242.856 -1.4561 0.952559 0
M  V30 2555 O 244.032 -1.56817 1.26374 0
M  V30 2556 C 241.097 -2.47857 2.42421 0
M  V30 2557 C 240.158 -2.26758 3.64526 0
M  V30 2558 C 239.391 -3.51305 4.01771 0
M  V30 2559 O 239.614 -4.5843 3.39409 0
M  V30 2560 O 238.548 -3.42578 4.94898 0
M  V30 2561 H 242.374 -0.808555 2.92739 0
M  V30 2562 H 239.959 -0.334027 1.45618 0
M  V30 2563 H 241.841 -3.2492 2.68338 0
M  V30 2564 H 240.516 -2.83558 1.5613 0
M  V30 2565 H 239.423 -1.47569 3.43765 0
M  V30 2566 H 240.756 -1.95963 4.51508 0
M  V30 2567 N 242.408 -1.52605 -0.393616 0
M  V30 2568 C 243.358 -1.73436 -1.48 0
M  V30 2569 C 244.342 -0.588386 -1.49756 0
M  V30 2570 O 245.534 -0.846047 -1.5547 0
M  V30 2571 C 242.663 -1.90247 -2.85764 0
M  V30 2572 C 241.749 -3.10763 -2.88595 0
M  V30 2573 N 242.14 -4.33196 -2.61103 0
M  V30 2574 C 240.438 -3.10914 -3.19763 0
M  V30 2575 C 241.139 -5.1477 -2.70899 0
M  V30 2576 N 240.115 -4.50356 -3.04435 0
M  V30 2577 H 243.917 -2.65727 -1.25563 0
M  V30 2578 H 241.431 -1.5085 -0.601513 0
M  V30 2579 H 243.428 -2.03291 -3.63976 0
M  V30 2580 H 242.088 -0.991663 -3.09186 0
M  V30 2581 H 243.099 -4.61408 -2.35209 0
M  V30 2582 H 239.776 -2.29626 -3.4868 0
M  V30 2583 H 241.166 -6.22355 -2.53227 0
M  V30 2584 N 243.887 0.651787 -1.4349 0
M  V30 2585 C 245.133 1.41376 -1.45398 0
M  V30 2586 C 245.466 1.94041 -0.0784823 0
M  V30 2587 O 244.741 1.72379 0.900878 0
M  V30 2588 C 245.024 2.59414 -2.49752 0
M  V30 2589 C 244.877 2.12232 -3.96582 0
M  V30 2590 C 246.196 3.61626 -2.50827 0
M  V30 2591 H 243.315 0.512719 -0.529422 0
M  V30 2592 H 245.957 0.738796 -1.75048 0
M  V30 2593 H 244.107 3.16997 -2.246 0
M  V30 2594 H 245.779 1.59639 -4.32797 0
M  V30 2595 H 244.022 1.43592 -4.09346 0
M  V30 2596 H 244.693 2.9712 -4.65214 0
M  V30 2597 H 247.169 3.13805 -2.7325 0
M  V30 2598 H 246.045 4.41766 -3.25783 0
M  V30 2599 H 246.306 4.14314 -1.5426 0
M  V30 2600 N 245.365 1.30045 0.890287 0
M  V30 2601 C 246.614 1.17929 1.63633 0
M  V30 2602 C 246.927 -0.266204 1.9378 0
M  V30 2603 O 248.133 -0.508804 2.6669 0
M  V30 2604 C 246.589 2.06317 2.94892 0
M  V30 2605 C 246.197 3.55745 2.72305 0
M  V30 2606 C 247.941 2.0295 3.72843 0
M  V30 2607 C 245.848 4.36205 3.99348 0
M  V30 2608 H 244.778 0.437782 0.613892 0
M  V30 2609 H 247.429 1.54754 0.986075 0
M  V30 2610 H 245.811 1.6237 3.61182 0
M  V30 2611 H 246.985 4.07805 2.1455 0
M  V30 2612 H 245.3 3.6088 2.07737 0
M  V30 2613 H 247.897 2.60319 4.67053 0
M  V30 2614 H 248.24 1.0117 4.0382 0
M  V30 2615 H 248.773 2.4499 3.13408 0
M  V30 2616 H 245.512 5.38659 3.73533 0
M  V30 2617 H 245.032 3.8891 4.56628 0
M  V30 2618 H 246.711 4.47362 4.67415 0
M  V30 2619 N 246.843 -1.10192 1.12674 0
M  V30 2620 C 248.12 -1.78717 0.794965 0
M  V30 2621 C 248.5 -1.98628 -0.714853 0
M  V30 2622 O 247.848 -1.58135 -1.64941 0
M  V30 2623 C 248.058 -3.11546 1.5729 0
M  V30 2624 C 249.406 -3.86382 1.76052 0
M  V30 2625 O 250.43 -3.21274 1.53823 0
M  V30 2626 O 249.289 -5.03246 2.13087 0
M  V30 2627 H 246.383 -0.774702 0.289423 0
M  V30 2628 H 248.929 -1.16819 1.23091 0
M  V30 2629 H 247.701 -2.92489 2.59935 0
M  V30 2630 H 247.324 -3.81164 1.13137 0
M  V30 2631 N 248.321 -0.919034 -1.28029 0
M  V30 2632 C 249.253 -0.368762 -2.26214 0
M  V30 2633 C 250.266 0.495716 -1.55069 0
M  V30 2634 O 251.455 0.30974 -1.75792 0
M  V30 2635 C 248.555 0.491049 -3.35324 0
M  V30 2636 C 247.728 -0.352133 -4.3598 0
M  V30 2637 C 246.787 0.443622 -5.24327 0
M  V30 2638 O 245.813 -0.14566 -5.69014 0
M  V30 2639 N 247.015 1.74545 -5.53637 0
M  V30 2640 H 249.78 -1.21273 -2.74068 0
M  V30 2641 H 247.341 -0.785541 -1.41566 0
M  V30 2642 H 249.333 1.03026 -3.91366 0
M  V30 2643 H 247.903 1.23574 -2.87138 0
M  V30 2644 H 247.123 -1.07269 -3.79324 0
M  V30 2645 H 248.411 -0.928883 -5.00249 0
M  V30 2646 H 247.809 2.24666 -5.19174 0
M  V30 2647 H 246.366 2.23138 -6.12416 0
M  V30 2648 N 249.799 1.42003 -0.683588 0
M  V30 2649 C 251.047 2.01015 -0.209101 0
M  V30 2650 C 251.368 1.54365 1.19149 0
M  V30 2651 O 250.638 0.769083 1.80172 0
M  V30 2652 H 249.218 0.743294 -0.074315 0
M  V30 2653 H 251.88 1.73798 -0.882066 0
M  V30 2654 H 250.976 3.11343 -0.2172 0
M  V30 2655 N 251.277 0.427512 1.51691 0
M  V30 2656 C 252.554 -0.201684 1.94557 0
M  V30 2657 C 252.934 -1.60981 1.36559 0
M  V30 2658 O 252.282 -2.21814 0.548702 0
M  V30 2659 C 252.492 -0.189394 3.48486 0
M  V30 2660 C 253.84 -0.39978 4.22714 0
M  V30 2661 O 254.864 -0.267945 3.55191 0
M  V30 2662 O 253.723 -0.661249 5.42485 0
M  V30 2663 H 250.817 -0.135261 0.815864 0
M  V30 2664 H 253.363 0.484782 1.62628 0
M  V30 2665 H 252.135 0.795431 3.8313 0
M  V30 2666 H 251.758 -0.919187 3.86829 0
M  V30 2667 N 252.755 -1.56801 0.158532 0
M  V30 2668 C 254.032 -1.88131 -0.535357 0
M  V30 2669 C 254.412 -1.06638 -1.82186 0
M  V30 2670 O 253.76 -0.156533 -2.27963 0
M  V30 2671 C 253.97 -3.39949 -0.789653 0
M  V30 2672 C 255.318 -4.09416 -1.12533 0
M  V30 2673 O 256.342 -3.45194 -0.878622 0
M  V30 2674 O 255.201 -5.22855 -1.59014 0
M  V30 2675 H 252.295 -0.780143 -0.27442 0
M  V30 2676 H 254.841 -1.68564 0.19601 0
M  V30 2677 H 253.613 -3.91115 0.120353 0
M  V30 2678 H 253.236 -3.65084 -1.57479 0
M  V30 2679 N 254.233 0.115231 -1.57178 0
M  V30 2680 C 255.481 0.820727 -1.84685 0
M  V30 2681 C 255.802 1.80237 -0.744279 0
M  V30 2682 O 255.072 1.94529 0.231375 0
M  V30 2683 H 253.652 0.306084 -0.681411 0
M  V30 2684 H 256.314 0.101656 -1.94635 0
M  V30 2685 H 255.41 1.36366 -2.80733 0
M  V30 2686 N 255.711 1.52812 0.385517 0
M  V30 2687 C 256.988 1.5861 1.14465 0
M  V30 2688 C 257.368 0.381402 2.07626 0
M  V30 2689 O 256.716 -0.629999 2.19643 0
M  V30 2690 C 256.926 2.92664 1.90128 0
M  V30 2691 C 258.274 3.46526 2.45367 0
M  V30 2692 O 259.298 2.94562 2.0028 0
M  V30 2693 O 258.157 4.37323 3.27736 0
M  V30 2694 H 255.251 0.639855 0.523941 0
M  V30 2695 H 257.797 1.65149 0.390389 0
M  V30 2696 H 256.569 3.71788 1.22022 0
M  V30 2697 H 256.192 2.89527 2.72507 0
M  V30 2698 N 257.189 -0.644168 1.43834 0
M  V30 2699 C 258.137 -1.77793 1.49974 0
M  V30 2700 C 259.131 -1.65253 0.372536 0
M  V30 2701 O 260.337 -1.7149 0.546924 0
M  V30 2702 H 256.712 -0.58675 0.47035 0
M  V30 2703 H 258.683 -1.69736 2.45423 0
M  V30 2704 C 257.432 -3.16087 1.4486 0
M  V30 2705 H 256.755 -3.26378 2.30905 0
M  V30 2706 H 258.195 -3.95349 1.53217 0
M  V30 2707 C 256.654 -3.36484 0.167463 0
M  V30 2708 O 257.184 -3.94298 -0.767609 0
M  V30 2709 N 255.39 -2.90504 0.0747556 0
M  V30 2710 H 254.937 -2.4364 0.836507 0
M  V30 2711 H 254.895 -3.04527 -0.781714 0
M  V30 2712 N 258.668 -1.30515 -0.883378 0
M  V30 2713 C 259.915 -1.1943 -1.63532 0
M  V30 2714 C 260.243 0.250627 -1.92878 0
M  V30 2715 O 259.498 1.19556 -1.54935 0
M  V30 2716 C 259.797 -1.96994 -2.98209 0
M  V30 2717 C 259.463 -3.466 -2.88408 0
M  V30 2718 C 258.125 -3.87397 -2.85442 0
M  V30 2719 C 260.477 -4.41863 -2.76418 0
M  V30 2720 C 257.805 -5.21745 -2.68327 0
M  V30 2721 C 260.157 -5.7632 -2.60841 0
M  V30 2722 C 258.821 -6.16354 -2.56251 0
M  V30 2723 H 258.091 -0.437025 -0.598406 0
M  V30 2724 H 260.738 -1.61635 -1.02696 0
M  V30 2725 H 259.043 -1.47429 -3.63004 0
M  V30 2726 H 260.74 -1.85808 -3.55354 0
M  V30 2727 H 257.33 -3.14182 -2.91527 0
M  V30 2728 H 261.514 -4.11285 -2.77775 0
M  V30 2729 H 256.77 -5.51853 -2.63189 0
M  V30 2730 H 260.944 -6.49772 -2.50538 0
M  V30 2731 H 258.571 -7.20401 -2.42748 0
M  V30 2732 N 260.146 1.09593 -1.13257 0
M  V30 2733 C 261.376 1.85231 -0.915049 0
M  V30 2734 C 261.784 1.81345 0.539498 0
M  V30 2735 O 261.127 1.20664 1.38513 0
M  V30 2736 C 261.189 3.34275 -1.3229 0
M  V30 2737 C 260.853 3.6191 -2.79052 0
M  V30 2738 C 261.85 3.57777 -3.77216 0
M  V30 2739 C 259.535 3.90309 -3.16171 0
M  V30 2740 C 261.529 3.81652 -5.1051 0
M  V30 2741 C 259.216 4.13839 -4.49644 0
M  V30 2742 C 260.214 4.09502 -5.46623 0
M  V30 2743 O 259.902 4.32426 -6.77689 0
M  V30 2744 H 259.634 0.591997 -0.326367 0
M  V30 2745 H 262.188 1.394 -1.50854 0
M  V30 2746 H 260.418 3.80805 -0.672667 0
M  V30 2747 H 262.107 3.9132 -1.07812 0
M  V30 2748 H 262.873 3.35865 -3.49885 0
M  V30 2749 H 258.752 3.92811 -2.41289 0
M  V30 2750 H 262.296 3.78182 -5.86195 0
M  V30 2751 H 258.193 4.35232 -4.767 0
M  V30 2752 H 258.961 4.49896 -6.83766 0
M  V30 2753 N 261.624 0.925811 1.2754 0
M  V30 2754 C 262.87 0.566092 1.94739 0
M  V30 2755 C 263.203 -0.890057 1.72603 0
M  V30 2756 O 262.478 -1.63467 1.05399 0
M  V30 2757 C 262.761 0.89054 3.48915 0
M  V30 2758 C 262.614 2.4003 3.80402 0
M  V30 2759 C 263.933 0.395101 4.38323 0
M  V30 2760 H 261.052 0.20714 0.707292 0
M  V30 2761 H 263.694 1.15725 1.50691 0
M  V30 2762 H 261.844 0.387452 3.86563 0
M  V30 2763 H 263.516 2.97494 3.52555 0
M  V30 2764 H 261.759 2.85028 3.2702 0
M  V30 2765 H 262.43 2.57785 4.8811 0
M  V30 2766 H 264.906 0.826241 4.07814 0
M  V30 2767 H 263.782 0.651086 5.45025 0
M  V30 2768 H 264.043 -0.704798 4.36446 0
M  V30 2769 N 263.102 -1.41638 0.69111 0
M  V30 2770 C 264.351 -2.00526 0.217318 0
M  V30 2771 C 264.664 -1.55353 -1.18848 0
M  V30 2772 O 265.87 -2.06769 -1.75951 0
M  V30 2773 C 264.326 -3.58313 0.337639 0
M  V30 2774 C 263.934 -4.12469 1.74852 0
M  V30 2775 C 265.678 -4.24431 -0.0766066 0
M  V30 2776 C 263.585 -5.62675 1.82074 0
M  V30 2777 H 262.515 -0.750008 0.0774893 0
M  V30 2778 H 265.166 -1.6217 0.858661 0
M  V30 2779 H 263.548 -3.9425 -0.371879 0
M  V30 2780 H 264.722 -3.8796 2.48644 0
M  V30 2781 H 263.037 -3.58861 2.11205 0
M  V30 2782 H 265.634 -5.34683 -0.0430284 0
M  V30 2783 H 265.977 -4.01101 -1.1146 0
M  V30 2784 H 266.51 -3.93512 0.582476 0
M  V30 2785 H 263.249 -5.90826 2.83911 0
M  V30 2786 H 262.769 -5.89124 1.12661 0
M  V30 2787 H 264.448 -6.27371 1.58159 0
M  V30 2788 N 264.58 -0.43555 -1.51462 0
M  V30 2789 C 265.49 0.383001 -2.31453 0
M  V30 2790 C 266.506 1.02931 -1.4029 0
M  V30 2791 O 267.682 1.02507 -1.73362 0
M  V30 2792 C 264.747 1.47043 -3.13973 0
M  V30 2793 C 263.808 0.844433 -4.20913 0
M  V30 2794 C 263.041 1.88004 -4.9949 0
M  V30 2795 O 263.264 3.10199 -4.78678 0
M  V30 2796 O 262.198 1.47157 -5.83634 0
M  V30 2797 H 266.024 -0.269964 -3.02498 0
M  V30 2798 H 263.609 -0.19813 -1.4808 0
M  V30 2799 H 265.491 2.10113 -3.65281 0
M  V30 2800 H 264.166 2.10751 -2.45695 0
M  V30 2801 H 263.073 0.175729 -3.73687 0
M  V30 2802 H 264.406 0.250869 -4.9156 0
M  V30 2803 N 266.058 1.56714 -0.166846 0
M  V30 2804 C 267.474 1.58473 0.189372 0
M  V30 2805 C 267.674 1.18201 1.63189 0
M  V30 2806 O 266.73 0.891528 2.36237 0
M  V30 2807 C 268.043 3.00573 -0.0873872 0
M  V30 2808 C 269.591 3.1299 -0.0252443 0
M  V30 2809 C 270.066 4.57174 -0.274934 0
M  V30 2810 N 271.557 4.62665 -0.222553 0
M  V30 2811 C 272.292 5.72072 -0.389985 0
M  V30 2812 N 271.788 6.90054 -0.616229 0
M  V30 2813 N 273.581 5.61153 -0.326202 0
M  V30 2814 H 265.732 1.8118 -1.10849 0
M  V30 2815 H 267.995 0.839525 -0.440342 0
M  V30 2816 H 267.701 3.34497 -1.0865 0
M  V30 2817 H 267.575 3.72019 0.623037 0
M  V30 2818 H 269.962 2.78895 0.96444 0
M  V30 2819 H 270.043 2.43989 -0.768309 0
M  V30 2820 H 269.687 4.91976 -1.26181 0
M  V30 2821 H 269.617 5.24328 0.48869 0
M  V30 2822 H 272.108 3.77863 -0.0531512 0
M  V30 2823 H 272.421 7.69311 -0.733559 0
M  V30 2824 H 270.766 6.91927 -0.652791 0
M  V30 2825 H 273.957 4.67859 -0.150072 0
M  V30 2826 H 274.13 6.46364 -0.460116 0
M  V30 2827 N 267.536 -0.106894 1.57237 0
M  V30 2828 C 268.784 -0.810921 1.85117 0
M  V30 2829 C 269.105 -1.7984 0.753827 0
M  V30 2830 O 268.375 -1.94649 -0.221056 0
M  V30 2831 H 266.955 -0.302466 0.683025 0
M  V30 2832 H 269.617 -0.0913324 1.94686 0
M  V30 2833 H 268.713 -1.34875 2.81452 0
M  V30 2834 N 269.014 -1.53014 -0.377408 0
M  V30 2835 C 270.242 -1.72515 -1.14219 0
M  V30 2836 C 270.657 -0.448735 -1.8339 0
M  V30 2837 O 270.014 0.577592 -1.73119 0
M  V30 2838 C 270.065 -2.8826 -2.18148 0
M  V30 2839 O 269.786 -4.10962 -1.51795 0
M  V30 2840 C 271.287 -3.19536 -3.07264 0
M  V30 2841 H 268.507 -0.577301 -0.342001 0
M  V30 2842 H 271.051 -1.99712 -0.439935 0
M  V30 2843 H 269.206 -2.63492 -2.83991 0
M  V30 2844 H 269.62 -4.75693 -2.20945 0
M  V30 2845 H 271.094 -4.03959 -3.76193 0
M  V30 2846 H 271.571 -2.34403 -3.71419 0
M  V30 2847 H 272.177 -3.46186 -2.47053 0
M  V30 2848 N 270.492 0.636531 -1.44174 0
M  V30 2849 C 271.722 1.42146 -1.49927 0
M  V30 2850 C 272.13 1.88812 -0.121063 0
M  V30 2851 O 271.473 1.61126 0.882267 0
M  V30 2852 C 271.535 2.67883 -2.39748 0
M  V30 2853 C 271.199 2.43048 -3.8701 0
M  V30 2854 C 272.196 2.05216 -4.77684 0
M  V30 2855 C 269.881 2.56856 -4.3166 0
M  V30 2856 C 271.875 1.81512 -6.11009 0
M  V30 2857 C 269.562 2.32766 -5.65034 0
M  V30 2858 C 270.56 1.95152 -6.54526 0
M  V30 2859 O 270.248 1.71326 -7.85431 0
M  V30 2860 H 269.98 0.442567 -0.51099 0
M  V30 2861 H 272.534 0.786158 -1.8976 0
M  V30 2862 H 270.764 3.34032 -1.94832 0
M  V30 2863 H 272.453 3.29874 -2.36513 0
M  V30 2864 H 273.219 1.94111 -4.44462 0
M  V30 2865 H 269.098 2.85104 -3.62266 0
M  V30 2866 H 272.642 1.52077 -6.80822 0
M  V30 2867 H 268.539 2.43479 -5.97819 0
M  V30 2868 H 269.307 1.85616 -7.97176 0
M  V30 2869 N 271.97 1.30982 0.876444 0
M  V30 2870 C 273.247 1.10942 1.61094 0
M  V30 2871 C 273.627 -0.338223 2.08373 0
M  V30 2872 O 272.975 -1.33122 1.85717 0
M  V30 2873 C 273.185 2.11789 2.77392 0
M  V30 2874 C 274.533 2.43965 3.47514 0
M  V30 2875 O 275.557 2.10166 2.87591 0
M  V30 2876 O 274.416 3.01817 4.55597 0
M  V30 2877 H 271.51 0.42667 0.708436 0
M  V30 2878 H 274.056 1.42438 0.922474 0
M  V30 2879 H 272.828 3.09194 2.39823 0
M  V30 2880 H 272.451 1.81161 3.5393 0
M  V30 2881 N 273.449 -1.08991 1.13837 0
M  V30 2882 C 274.698 -1.80631 0.897509 0
M  V30 2883 C 275.011 -1.86872 -0.57777 0
M  V30 2884 O 276.217 -2.54866 -0.935701 0
M  V30 2885 C 274.673 -3.24517 1.55618 0
M  V30 2886 C 274.281 -3.26529 3.0673 0
M  V30 2887 C 276.025 -4.00882 1.3962 0
M  V30 2888 C 273.932 -4.64965 3.65461 0
M  V30 2889 H 272.862 -0.67691 0.332129 0
M  V30 2890 H 275.513 -1.2246 1.3666 0
M  V30 2891 H 273.895 -3.82778 1.01476 0
M  V30 2892 H 275.069 -2.78008 3.67489 0
M  V30 2893 H 273.384 -2.63656 3.22296 0
M  V30 2894 H 275.981 -5.03167 1.80906 0
M  V30 2895 H 276.324 -4.14896 0.341578 0
M  V30 2896 H 276.857 -3.49075 1.90766 0
M  V30 2897 H 273.596 -4.56153 4.70749 0
M  V30 2898 H 273.116 -5.13792 3.09481 0
M  V30 2899 H 274.795 -5.3394 3.654 0
M  V30 2900 N 274.927 -0.932562 -1.27047 0
M  V30 2901 C 275.857 -0.452902 -2.29066 0
M  V30 2902 C 276.838 0.489338 -1.62909 0
M  V30 2903 O 278.023 0.393046 -1.90181 0
M  V30 2904 C 275.153 0.290698 -3.46081 0
M  V30 2905 C 274.107 -0.564168 -4.24265 0
M  V30 2906 C 273.433 0.308886 -5.33807 0
M  V30 2907 C 274.733 -1.83112 -4.89149 0
M  V30 2908 H 276.427 -1.30552 -2.69437 0
M  V30 2909 H 273.973 -0.629201 -1.29526 0
M  V30 2910 H 275.926 0.637233 -4.16554 0
M  V30 2911 H 274.65 1.17738 -3.0464 0
M  V30 2912 H 273.309 -0.893477 -3.55545 0
M  V30 2913 H 272.957 1.19467 -4.88607 0
M  V30 2914 H 272.657 -0.259633 -5.87026 0
M  V30 2915 H 274.181 0.650884 -6.07121 0
M  V30 2916 H 275.595 -1.55236 -5.51883 0
M  V30 2917 H 273.992 -2.34353 -5.52448 0
M  V30 2918 H 275.062 -2.54772 -4.12576 0
M  V30 2919 N 276.405 1.4127 -0.698611 0
M  V30 2920 C 277.651 2.01478 -0.231207 0
M  V30 2921 C 277.984 1.55215 1.16713 0
M  V30 2922 O 277.259 0.764672 1.78838 0
M  V30 2923 C 277.542 3.58912 -0.292281 0
M  V30 2924 C 277.395 4.15293 -1.72778 0
M  V30 2925 C 278.714 4.38736 0.346194 0
M  V30 2926 H 275.833 0.732025 -0.0854878 0
M  V30 2927 H 278.475 1.67977 -0.887906 0
M  V30 2928 H 276.625 3.87582 0.26686 0
M  V30 2929 H 278.297 3.97486 -2.341 0
M  V30 2930 H 276.54 3.7022 -2.26096 0
M  V30 2931 H 277.211 5.24452 -1.72202 0
M  V30 2932 H 279.687 4.15897 -0.130035 0
M  V30 2933 H 278.563 5.48221 0.272932 0
M  V30 2934 H 278.824 4.18425 1.42734 0
M  V30 2935 N 277.883 0.443576 1.51229 0
M  V30 2936 C 279.111 -0.11929 2.06556 0
M  V30 2937 C 279.526 -1.35921 1.31038 0
M  V30 2938 O 278.883 -1.78675 0.371704 0
M  V30 2939 C 278.934 -0.435228 3.5887 0
M  V30 2940 O 278.655 0.755486 4.31537 0
M  V30 2941 C 280.156 -1.04808 4.30732 0
M  V30 2942 H 277.376 -0.0051584 0.67098 0
M  V30 2943 H 279.92 0.624453 1.94733 0
M  V30 2944 H 278.075 -1.12887 3.70588 0
M  V30 2945 H 278.489 0.483491 5.22267 0
M  V30 2946 H 279.963 -1.2191 5.3837 0
M  V30 2947 H 280.44 -2.03081 3.89429 0
M  V30 2948 H 281.046 -0.393637 4.23474 0
M  V30 2949 N 279.361 -1.56624 0.175154 0
M  V30 2950 C 280.308 -2.18149 -0.753634 0
M  V30 2951 C 281.278 -1.12265 -1.22417 0
M  V30 2952 O 282.463 -1.40432 -1.29165 0
M  V30 2953 C 279.603 -2.82933 -1.97592 0
M  V30 2954 C 278.716 -4.03289 -1.5486 0
M  V30 2955 C 277.851 -4.55988 -2.72485 0
M  V30 2956 C 276.89 -5.68746 -2.26262 0
M  V30 2957 N 276.027 -6.15938 -3.36994 0
M  V30 2958 H 280.867 -2.9717 -0.222195 0
M  V30 2959 H 278.404 -1.46774 -0.0979422 0
M  V30 2960 H 280.362 -3.18653 -2.69288 0
M  V30 2961 H 278.992 -2.06509 -2.481 0
M  V30 2962 H 278.044 -3.73364 -0.728246 0
M  V30 2963 H 279.356 -4.849 -1.16933 0
M  V30 2964 H 278.51 -4.9391 -3.52332 0
M  V30 2965 H 277.249 -3.73443 -3.13674 0
M  V30 2966 H 276.254 -5.30372 -1.44863 0
M  V30 2967 H 277.479 -6.53095 -1.86127 0
M  V30 2968 H 275.425 -5.36321 -3.77751 0
M  V30 2969 H 275.342 -6.92548 -3.03172 0
M  V30 2970 H 276.61 -6.58511 -4.17114 0
M  V30 2971 N 280.839 0.0985539 -1.57292 0
M  V30 2972 C 282.116 0.834155 -1.76921 0
M  V30 2973 C 282.496 1.97101 -0.755928 0
M  V30 2974 O 281.844 2.27474 0.216245 0
M  V30 2975 C 282.054 1.33194 -3.22584 0
M  V30 2976 C 283.402 1.77611 -3.85668 0
M  V30 2977 O 284.426 1.42825 -3.26312 0
M  V30 2978 O 283.285 2.4192 -4.90038 0
M  V30 2979 H 280.379 0.397628 -0.725135 0
M  V30 2980 H 282.925 0.0807044 -1.69508 0
M  V30 2981 H 281.697 0.517248 -3.87866 0
M  V30 2982 H 281.32 2.1475 -3.34616 0
M  V30 2983 N 282.317 1.53212 0.369288 0
M  V30 2984 C 283.265 1.80054 1.47253 0
M  V30 2985 C 284.259 0.669456 1.55611 0
M  V30 2986 O 285.465 0.852328 1.58541 0
M  V30 2987 H 281.84 0.570034 0.490475 0
M  V30 2988 H 283.811 2.72403 1.21817 0
M  V30 2989 C 282.56 2.00403 2.84137 0
M  V30 2990 H 281.883 2.86876 2.78464 0
M  V30 2991 H 283.323 2.23164 3.60519 0
M  V30 2992 C 281.782 0.782081 3.27697 0
M  V30 2993 O 282.312 -0.0310205 4.01688 0
M  V30 2994 N 280.518 0.606573 2.84199 0
M  V30 2995 H 280.065 1.26939 2.24152 0
M  V30 2996 H 280.023 -0.20962 3.137 0
M  V30 2997 N 283.795 -0.628877 1.44509 0
M  V30 2998 C 284.727 -1.754 1.47538 0
M  V30 2999 C 285.74 -1.58575 0.368506 0
M  V30 3000 O 286.929 -1.66847 0.634376 0
M  V30 3001 C 284.029 -3.1315 1.29577 0
M  V30 3002 C 283.202 -3.56413 2.53551 0
M  V30 3003 C 282.261 -4.7305 2.30457 0
M  V30 3004 O 281.287 -4.81247 3.03957 0
M  V30 3005 N 282.489 -5.64903 1.3366 0
M  V30 3006 H 285.254 -1.73272 2.44534 0
M  V30 3007 H 282.815 -0.813512 1.39977 0
M  V30 3008 H 284.807 -3.88902 1.11971 0
M  V30 3009 H 283.377 -3.09908 0.409371 0
M  V30 3010 H 282.597 -2.70847 2.86419 0
M  V30 3011 H 283.885 -3.82071 3.36005 0
M  V30 3012 H 283.283 -5.60975 0.729604 0
M  V30 3013 H 281.84 -6.40275 1.22032 0
M  V30 3014 N 285.273 -1.31445 -0.869486 0
M  V30 3015 C 286.501 -1.24122 -1.65534 0
M  V30 3016 C 286.916 0.193387 -1.87807 0
M  V30 3017 O 286.273 1.12557 -1.43656 0
M  V30 3018 C 286.324 -1.98229 -3.02304 0
M  V30 3019 O 286.045 -3.3609 -2.81026 0
M  V30 3020 C 287.546 -1.97751 -3.96749 0
M  V30 3021 H 284.766 -0.428868 -0.516055 0
M  V30 3022 H 287.31 -1.73328 -1.08525 0
M  V30 3023 H 285.465 -1.52782 -3.56001 0
M  V30 3024 H 285.879 -3.7383 -3.67902 0
M  V30 3025 H 287.353 -2.54114 -4.90031 0
M  V30 3026 H 287.83 -0.960137 -4.28577 0
M  V30 3027 H 288.436 -2.43079 -3.48988 0
M  V30 3028 N 286.751 1.08385 -1.14413 0
M  V30 3029 C 288.167 1.32844 -0.884563 0
M  V30 3030 C 288.367 1.95841 0.474181 0
M  V30 3031 O 287.423 2.21158 1.21842 0
M  V30 3032 C 288.736 2.22978 -2.01745 0
M  V30 3033 C 290.284 2.36458 -2.05077 0
M  V30 3034 C 290.759 3.29934 -3.1766 0
M  V30 3035 N 292.25 3.37511 -3.17239 0
M  V30 3036 C 292.985 4.09871 -4.0099 0
M  V30 3037 N 292.481 4.84936 -4.94781 0
M  V30 3038 N 294.274 4.05704 -3.89051 0
M  V30 3039 H 286.425 0.658756 -2.01926 0
M  V30 3040 H 288.688 0.352821 -0.879899 0
M  V30 3041 H 288.394 1.83934 -2.99769 0
M  V30 3042 H 288.268 3.23441 -1.94077 0
M  V30 3043 H 290.655 2.7476 -1.0766 0
M  V30 3044 H 290.736 1.35736 -2.16816 0
M  V30 3045 H 290.38 2.92352 -4.15322 0
M  V30 3046 H 290.31 4.30584 -3.03158 0
M  V30 3047 H 292.801 2.83996 -2.49308 0
M  V30 3048 H 293.114 5.37612 -5.55151 0
M  V30 3049 H 291.459 4.83988 -4.98779 0
M  V30 3050 H 294.65 3.46167 -3.15097 0
M  V30 3051 H 294.823 4.61834 -4.54547 0
M  V30 3052 N 288.23 0.939286 1.26551 0
M  V30 3053 C 289.455 0.602008 1.98471 0
M  V30 3054 C 289.88 -0.815624 1.69497 0
M  V30 3055 O 289.238 -1.54912 0.941905 0
M  V30 3056 C 289.286 0.848407 3.50477 0
M  V30 3057 O 288.39 -0.0804009 4.12322 0
M  V30 3058 H 287.731 0.23049 0.622712 0
M  V30 3059 H 290.261 1.2617 1.61066 0
M  V30 3060 H 290.271 0.768553 4.00696 0
M  V30 3061 H 288.946 1.88171 3.70897 0
M  V30 3062 H 287.523 0.0503508 3.72866 0
M  V30 3063 N 289.708 -1.40897 0.706093 0
M  V30 3064 C 290.954 -2.01352 0.241889 0
M  V30 3065 C 291.287 -1.55832 -1.15888 0
M  V30 3066 O 290.562 -0.774145 -1.7843 0
M  V30 3067 C 290.845 -3.58752 0.311311 0
M  V30 3068 C 290.698 -4.1437 1.74978 0
M  V30 3069 C 292.017 -4.38914 -0.322922 0
M  V30 3070 H 289.136 -0.731562 0.0893687 0
M  V30 3071 H 291.778 -1.67504 0.896802 0
M  V30 3072 H 289.928 -3.87718 -0.246302 0
M  V30 3073 H 291.6 -3.96239 2.36205 0
M  V30 3074 H 289.843 -3.69016 2.28057 0
M  V30 3075 H 290.514 -5.23532 1.74981 0
M  V30 3076 H 292.99 -4.15822 0.152089 0
M  V30 3077 H 291.866 -5.48358 -0.243855 0
M  V30 3078 H 292.127 -4.19176 -1.40513 0
M  V30 3079 N 291.186 -0.45159 -1.50991 0
M  V30 3080 C 292.434 0.109857 -2.01801 0
M  V30 3081 C 292.755 1.41958 -1.3369 0
M  V30 3082 O 292.025 1.9003 -0.475951 0
M  V30 3083 H 290.605 0.0435884 -0.745727 0
M  V30 3084 H 293.267 -0.597557 -1.85514 0
M  V30 3085 H 292.363 0.275489 -3.10882 0
M  V30 3086 N 292.664 1.56529 -0.183458 0
M  V30 3087 C 293.596 2.15747 0.773697 0
M  V30 3088 C 294.609 1.1162 1.1851 0
M  V30 3089 O 295.798 1.3876 1.12285 0
M  V30 3090 C 292.898 2.6952 2.05456 0
M  V30 3091 C 292.071 3.98429 1.8048 0
M  V30 3092 C 291.13 4.37145 2.92901 0
M  V30 3093 O 290.156 5.04791 2.6301 0
M  V30 3094 N 291.358 3.99695 4.2098 0
M  V30 3095 H 294.123 2.98505 0.26736 0
M  V30 3096 H 291.684 1.619 -0.0010878 0
M  V30 3097 H 293.676 2.92412 2.79781 0
M  V30 3098 H 292.246 1.91282 2.47245 0
M  V30 3099 H 291.466 3.8379 0.899947 0
M  V30 3100 H 292.754 4.82597 1.61175 0
M  V30 3101 H 292.152 3.4526 4.48121 0
M  V30 3102 H 290.709 4.27562 4.9197 0
M  V30 3103 N 294.142 -0.090211 1.57342 0
M  V30 3104 C 295.372 -0.805055 1.90269 0
M  V30 3105 C 295.78 -1.72561 0.775842 0
M  V30 3106 O 295.123 -1.81839 -0.260843 0
M  V30 3107 C 295.185 -1.66734 3.18497 0
M  V30 3108 C 294.849 -0.918092 4.47683 0
M  V30 3109 C 295.846 -0.245674 5.19319 0
M  V30 3110 C 293.531 -0.890724 4.94339 0
M  V30 3111 C 295.525 0.444088 6.35851 0
M  V30 3112 C 293.212 -0.197179 6.10782 0
M  V30 3113 C 294.21 0.469044 6.81388 0
M  V30 3114 O 293.898 1.15146 7.95611 0
M  V30 3115 H 293.63 -0.235143 0.633785 0
M  V30 3116 H 296.184 -0.0703805 2.05279 0
M  V30 3117 H 294.414 -2.44437 2.99646 0
M  V30 3118 H 296.103 -2.25919 3.37217 0
M  V30 3119 H 296.869 -0.258246 4.84312 0
M  V30 3120 H 292.748 -1.39873 4.39268 0
M  V30 3121 H 296.292 0.964667 6.90898 0
M  V30 3122 H 292.189 -0.18247 6.45242 0
M  V30 3123 H 292.957 1.05885 8.11622 0
M  V30 3124 N 295.62 -1.53406 -0.361157 0
M  V30 3125 C 296.897 -1.60411 -1.11927 0
M  V30 3126 C 297.277 -0.414385 -2.06993 0
M  V30 3127 O 296.625 0.594976 -2.20618 0
M  V30 3128 C 296.835 -2.95652 -1.85448 0
M  V30 3129 C 298.183 -3.50386 -2.39823 0
M  V30 3130 O 299.207 -2.97711 -1.95568 0
M  V30 3131 O 298.066 -4.42482 -3.20737 0
M  V30 3132 H 295.16 -0.64811 -0.513695 0
M  V30 3133 H 297.706 -1.65749 -0.364065 0
M  V30 3134 H 296.478 -3.73682 -1.16091 0
M  V30 3135 H 296.101 -2.93825 -2.67866 0
M  V30 3136 N 297.098 0.621204 -1.44841 0
M  V30 3137 C 298.046 1.75385 -1.52784 0
M  V30 3138 C 299.04 1.64639 -0.398779 0
M  V30 3139 O 300.246 1.70598 -0.574137 0
M  V30 3140 H 296.621 0.579193 -0.479625 0
M  V30 3141 H 298.592 1.6581 -2.48092 0
M  V30 3142 C 297.341 3.13742 -1.4987 0
M  V30 3143 H 296.664 3.22663 -2.36069 0
M  V30 3144 H 298.104 3.92861 -1.59487 0
M  V30 3145 C 296.563 3.36175 -0.220973 0
M  V30 3146 O 297.093 3.95469 0.704782 0
M  V30 3147 N 295.299 2.90348 -0.120963 0
M  V30 3148 H 294.846 2.42278 -0.875162 0
M  V30 3149 H 294.804 3.05732 0.733168 0
M  V30 3150 N 298.576 1.31904 0.862503 0
M  V30 3151 C 299.992 1.10724 1.14945 0
M  V30 3152 C 300.192 -0.117421 2.01158 0
M  V30 3153 O 299.248 -0.804595 2.39338 0
M  V30 3154 C 300.561 2.38267 1.83437 0
M  V30 3155 C 302.109 2.43949 1.96106 0
M  V30 3156 C 302.584 3.71394 2.68013 0
M  V30 3157 N 304.075 3.72331 2.75543 0
M  V30 3158 C 304.81 4.67641 3.31812 0
M  V30 3159 N 304.306 5.73313 3.88953 0
M  V30 3160 N 306.099 4.5515 3.29841 0
M  V30 3161 H 298.25 2.10436 0.288191 0
M  V30 3162 H 300.513 0.928705 0.190292 0
M  V30 3163 H 300.219 3.27759 1.27542 0
M  V30 3164 H 300.093 2.48633 2.83657 0
M  V30 3165 H 302.48 1.54922 2.51164 0
M  V30 3166 H 302.561 2.37543 0.949059 0
M  V30 3167 H 302.205 4.60791 2.13621 0
M  V30 3168 H 302.135 3.75069 3.69636 0
M  V30 3169 H 304.626 2.95947 2.34997 0
M  V30 3170 H 304.939 6.42107 4.30022 0
M  V30 3171 H 303.284 5.77077 3.87308 0
M  V30 3172 H 306.475 3.71766 2.84443 0
M  V30 3173 H 306.648 5.29604 3.73394 0
M  V30 3174 N 300.054 -1.07777 1.14986 0
M  V30 3175 C 301.302 -1.79934 0.920235 0
M  V30 3176 C 301.623 -1.86955 -0.554336 0
M  V30 3177 O 300.893 -1.36731 -1.40291 0
M  V30 3178 H 299.473 -0.666424 0.337473 0
M  V30 3179 H 302.135 -1.3027 1.44968 0
M  V30 3180 H 301.231 -2.82539 1.32583 0
M  V30 3181 N 301.532 -0.945985 -1.26051 0
M  V30 3182 C 302.757 -0.612525 -1.98149 0
M  V30 3183 C 303.182 0.806623 -1.69927 0
M  V30 3184 O 302.54 1.54411 -0.950108 0
M  V30 3185 C 302.588 -0.866981 -3.50023 0
M  V30 3186 O 301.692 0.0585333 -4.12358 0
M  V30 3187 H 301.033 -0.23379 -0.621481 0
M  V30 3188 H 303.563 -1.27023 -1.60395 0
M  V30 3189 H 303.573 -0.789792 -4.00283 0
M  V30 3190 H 302.248 -1.90135 -3.69894 0
M  V30 3191 H 300.825 -0.0701241 -3.72834 0
M  V30 3192 N 303.011 1.40521 -0.713556 0
M  V30 3193 C 304.258 2.00923 -0.25219 0
M  V30 3194 C 304.586 1.56571 1.15395 0
M  V30 3195 O 303.841 0.775874 1.79663 0
M  V30 3196 C 304.14 3.56317 -0.278 0
M  V30 3197 C 303.806 4.20246 -1.63415 0
M  V30 3198 C 302.468 4.37422 -2.00538 0
M  V30 3199 C 304.82 4.55923 -2.52554 0
M  V30 3200 C 302.148 4.87558 -3.2635 0
M  V30 3201 C 304.5 5.07458 -3.77716 0
M  V30 3202 C 303.164 5.22843 -4.14959 0
M  V30 3203 H 302.434 0.735231 -0.0922829 0
M  V30 3204 H 305.081 1.68161 -0.916188 0
M  V30 3205 H 303.386 3.88976 0.469567 0
M  V30 3206 H 305.083 4.00883 0.0967819 0
M  V30 3207 H 301.673 4.07263 -1.33546 0
M  V30 3208 H 305.857 4.42291 -2.25149 0
M  V30 3209 H 301.113 4.97654 -3.55176 0
M  V30 3210 H 305.287 5.34041 -4.4696 0
M  V30 3211 H 302.914 5.61454 -5.12516 0
M  V30 3212 N 304.489 0.459591 1.5075 0
M  V30 3213 C 305.737 -0.0991532 2.01857 0
M  V30 3214 C 306.058 -1.41247 1.34441 0
M  V30 3215 O 305.328 -1.89775 0.486022 0
M  V30 3216 H 303.908 -0.039633 0.745948 0
M  V30 3217 H 306.57 0.607387 1.85194 0
M  V30 3218 H 305.666 -0.258998 3.11023 0
M  V30 3219 N 305.967 -1.56429 0.191757 0
M  V30 3220 C 306.877 -2.22541 -0.742481 0
M  V30 3221 C 307.893 -1.22342 -1.23727 0
M  V30 3222 O 309.069 -1.55069 -1.28513 0
M  V30 3223 C 306.134 -2.8692 -1.94623 0
M  V30 3224 C 305.195 -4.02378 -1.49633 0
M  V30 3225 C 304.428 -4.63678 -2.6427 0
M  V30 3226 O 304.651 -4.23895 -3.81666 0
M  V30 3227 O 303.585 -5.53202 -2.37174 0
M  V30 3228 H 307.411 -3.02977 -0.209462 0
M  V30 3229 H 304.996 -1.49353 -0.0373832 0
M  V30 3230 H 306.878 -3.27663 -2.64982 0
M  V30 3231 H 305.553 -2.09466 -2.46791 0
M  V30 3232 H 304.46 -3.66265 -0.761636 0
M  V30 3233 H 305.793 -4.81487 -1.02134 0
M  V30 3234 N 307.445 0.0818655 -1.57387 0
M  V30 3235 C 308.375 1.09885 -2.06028 0
M  V30 3236 C 309.356 1.4098 -0.951774 0
M  V30 3237 O 310.541 1.50781 -1.22387 0
M  V30 3238 C 307.671 2.4151 -2.4958 0
M  V30 3239 C 306.625 2.24792 -3.64215 0
M  V30 3240 C 305.951 3.61712 -3.93787 0
M  V30 3241 C 307.251 1.67749 -4.94629 0
M  V30 3242 H 308.945 0.694128 -2.91243 0
M  V30 3243 H 306.491 0.332448 -1.4011 0
M  V30 3244 H 308.444 3.12939 -2.82219 0
M  V30 3245 H 307.168 2.83943 -1.61381 0
M  V30 3246 H 305.827 1.55807 -3.31843 0
M  V30 3247 H 305.475 4.01697 -3.02735 0
M  V30 3248 H 305.175 3.51368 -4.70971 0
M  V30 3249 H 306.699 4.34587 -4.28913 0
M  V30 3250 H 308.113 2.29032 -5.25564 0
M  V30 3251 H 306.51 1.68128 -5.76067 0
M  V30 3252 H 307.58 0.638059 -4.80684 0
M  V30 3253 N 308.923 1.53595 0.353017 0
M  V30 3254 C 309.886 1.80232 1.41594 0
M  V30 3255 C 310.886 0.673081 1.46035 0
M  V30 3256 O 312.076 0.941335 1.46576 0
M  V30 3257 C 309.208 1.93578 2.80607 0
M  V30 3258 H 310.401 2.75174 1.19244 0
M  V30 3259 H 307.954 1.44864 0.586872 0
M  V30 3260 H 308.689 1.00746 3.08254 0
M  V30 3261 H 308.474 2.75724 2.78781 0
M  V30 3262 H 309.964 2.15735 3.57558 0
M  V30 3263 N 310.401 -0.613514 1.45168 0
M  V30 3264 C 311.331 -1.7354 1.56225 0
M  V30 3265 C 312.312 -1.64981 0.41414 0
M  V30 3266 O 313.497 -1.83472 0.636526 0
M  V30 3267 C 310.627 -3.12128 1.52295 0
M  V30 3268 C 309.581 -3.35491 2.65762 0
M  V30 3269 C 308.907 -4.74291 2.46885 0
M  V30 3270 C 310.207 -3.26325 4.0781 0
M  V30 3271 H 311.901 -1.64543 2.50132 0
M  V30 3272 H 309.447 -0.790185 1.20383 0
M  V30 3273 H 311.4 -3.90404 1.58628 0
M  V30 3274 H 310.124 -3.2195 0.549139 0
M  V30 3275 H 308.783 -2.59603 2.58847 0
M  V30 3276 H 308.431 -4.80839 1.47657 0
M  V30 3277 H 308.131 -4.9088 3.22972 0
M  V30 3278 H 309.655 -5.54775 2.55063 0
M  V30 3279 H 311.069 -3.94483 4.16 0
M  V30 3280 H 309.466 -3.54445 4.8424 0
M  V30 3281 H 310.536 -2.23855 4.30136 0
M  V30 3282 N 311.879 -1.3236 -0.855495 0
M  V30 3283 C 312.812 -1.15559 -1.96777 0
M  V30 3284 C 313.79 -0.0552681 -1.62506 0
M  V30 3285 O 314.974 -0.214419 -1.87277 0
M  V30 3286 C 312.101 -0.768851 -3.29858 0
M  V30 3287 C 311.147 -1.87429 -3.83109 0
M  V30 3288 S 311.98 -3.48243 -4.06801 0
M  V30 3289 C 313.136 -3.11539 -5.42858 0
M  V30 3290 H 313.369 -2.09717 -2.10727 0
M  V30 3291 H 310.902 -1.17011 -1.00737 0
M  V30 3292 H 312.86 -0.55248 -4.06765 0
M  V30 3293 H 311.521 0.153857 -3.13723 0
M  V30 3294 H 310.714 -1.55667 -4.79358 0
M  V30 3295 H 310.316 -2.04647 -3.13042 0
M  V30 3296 H 312.608 -2.61331 -6.2507 0
M  V30 3297 H 313.551 -4.06806 -5.79582 0
M  V30 3298 H 313.959 -2.48582 -5.06821 0
M  V30 3299 N 313.357 1.07166 -1.15556 0
M  V30 3300 C 314.587 1.83248 -0.954133 0
M  V30 3301 C 314.995 1.82449 0.500911 0
M  V30 3302 O 314.338 1.23575 1.35923 0
M  V30 3303 C 314.4 3.31393 -1.39351 0
M  V30 3304 C 314.064 3.5591 -2.86666 0
M  V30 3305 C 315.061 3.49695 -3.8472 0
M  V30 3306 C 312.746 3.83515 -3.24379 0
M  V30 3307 C 314.74 3.70737 -5.18491 0
M  V30 3308 C 312.427 4.04209 -4.58321 0
M  V30 3309 C 313.425 3.97815 -5.55186 0
M  V30 3310 O 313.113 4.17954 -6.86709 0
M  V30 3311 H 312.845 0.584941 -0.338851 0
M  V30 3312 H 315.399 1.36169 -1.53777 0
M  V30 3313 H 313.629 3.79292 -0.75329 0
M  V30 3314 H 315.318 3.88945 -1.16089 0
M  V30 3315 H 316.084 3.28368 -3.56931 0
M  V30 3316 H 311.963 3.87605 -2.49567 0
M  V30 3317 H 315.507 3.65663 -5.94085 0
M  V30 3318 H 311.404 4.25023 -4.85825 0
M  V30 3319 H 312.172 4.35291 -6.93155 0
M  V30 3320 N 314.835 0.952656 1.25548 0
M  V30 3321 C 315.783 0.462354 2.27958 0
M  V30 3322 C 316.777 -0.46634 1.62855 0
M  V30 3323 O 317.983 -0.343287 1.76696 0
M  V30 3324 H 314.358 0.13101 0.7405 0
M  V30 3325 H 316.329 1.33839 2.66702 0
M  V30 3326 C 315.078 -0.24628 3.46827 0
M  V30 3327 H 314.401 0.459192 3.97154 0
M  V30 3328 H 315.841 -0.553393 4.20373 0
M  V30 3329 C 314.3 -1.4681 3.0323 0
M  V30 3330 O 314.83 -2.56591 3.09069 0
M  V30 3331 N 313.036 -1.32874 2.58443 0
M  V30 3332 H 312.583 -0.435536 2.53891 0
M  V30 3333 H 312.541 -2.14742 2.29637 0
M  V30 3334 N 316.313 -1.40141 0.720998 0
M  V30 3335 C 317.541 -2.05096 0.272656 0
M  V30 3336 C 317.956 -1.54334 -1.0875 0
M  V30 3337 O 317.313 -0.702211 -1.6845 0
M  V30 3338 C 317.364 -3.60636 0.249835 0
M  V30 3339 O 317.085 -4.09526 1.55629 0
M  V30 3340 C 318.586 -4.42772 -0.216396 0
M  V30 3341 H 315.806 -0.659897 0.121558 0
M  V30 3342 H 318.35 -1.79449 0.980723 0
M  V30 3343 H 316.505 -3.85232 -0.409237 0
M  V30 3344 H 316.919 -5.03758 1.4604 0
M  V30 3345 H 318.393 -5.51702 -0.181212 0
M  V30 3346 H 318.87 -4.20756 -1.25941 0
M  V30 3347 H 319.476 -4.23294 0.412596 0
M  V30 3348 N 317.792 -0.46758 -1.50504 0
M  V30 3349 C 319.203 -0.0116166 -1.86696 0
M  V30 3350 C 319.554 1.39202 -1.38265 0
M  V30 3351 O 318.679 2.0313 -0.746132 0
M  V30 3352 C 319.274 -0.0143044 -3.38797 0
M  V30 3353 C 317.833 0.386175 -3.74414 0
M  V30 3354 C 316.98 -0.401287 -2.74381 0
M  V30 3355 H 319.931 -0.682022 -1.43297 0
M  V30 3356 H 319.952 0.788641 -3.72237 0
M  V30 3357 H 319.464 -1.03602 -3.74016 0
M  V30 3358 H 317.565 1.41237 -3.44794 0
M  V30 3359 H 317.678 0.0899596 -4.79016 0
M  V30 3360 H 316.042 0.144536 -2.5429 0
M  V30 3361 H 316.825 -1.42244 -3.12444 0
M  V30 3362 N 319.27 1.56325 -0.20005 0
M  V30 3363 C 320.686 1.58839 0.155716 0
M  V30 3364 C 320.886 1.21636 1.60645 0
M  V30 3365 O 319.942 0.941437 2.34293 0
M  V30 3366 C 321.255 3.0032 -0.151124 0
M  V30 3367 C 322.803 3.12866 -0.0916284 0
M  V30 3368 C 323.278 4.56488 -0.371845 0
M  V30 3369 N 324.769 4.62089 -0.320641 0
M  V30 3370 C 325.504 5.71116 -0.511243 0
M  V30 3371 N 325 6.88592 -0.762461 0
M  V30 3372 N 326.793 5.60335 -0.445157 0
M  V30 3373 H 318.944 1.78788 -1.14668 0
M  V30 3374 H 321.207 0.829996 -0.458051 0
M  V30 3375 H 320.913 3.32117 -1.15721 0
M  V30 3376 H 320.787 3.73257 0.543986 0
M  V30 3377 H 323.174 2.80878 0.905065 0
M  V30 3378 H 323.255 2.42304 -0.81989 0
M  V30 3379 H 322.899 4.89189 -1.36588 0
M  V30 3380 H 322.829 5.25246 0.377362 0
M  V30 3381 H 325.32 3.77665 -0.13329 0
M  V30 3382 H 325.633 7.67581 -0.896576 0
M  V30 3383 H 323.978 6.90387 -0.799412 0
M  V30 3384 H 327.169 4.67436 -0.249278 0
M  V30 3385 H 327.342 6.45243 -0.597116 0
M  V30 3386 N 320.748 -0.0735177 1.57428 0
M  V30 3387 C 321.711 -1.07192 2.02589 0
M  V30 3388 C 322.711 -1.31695 0.922661 0
M  V30 3389 O 323.901 -1.27445 1.18758 0
M  V30 3390 C 321.033 -2.41599 2.40506 0
M  V30 3391 H 322.226 -0.682727 2.92025 0
M  V30 3392 H 319.779 -0.319193 1.53006 0
M  V30 3393 H 320.514 -2.85354 1.5409 0
M  V30 3394 H 320.299 -2.25156 3.21009 0
M  V30 3395 H 321.789 -3.13367 2.76027 0
M  V30 3396 N 322.226 -1.5378 -0.344866 0
M  V30 3397 C 323.189 -1.80981 -1.40637 0
M  V30 3398 C 324.189 -0.680816 -1.45676 0
M  V30 3399 O 325.379 -0.949095 -1.46075 0
M  V30 3400 C 322.511 -1.95063 -2.79577 0
M  V30 3401 H 323.704 -2.75803 -1.17783 0
M  V30 3402 H 321.257 -1.45173 -0.579181 0
M  V30 3403 H 321.992 -1.02379 -3.07716 0
M  V30 3404 H 321.777 -2.77198 -2.77315 0
M  V30 3405 H 323.267 -2.17629 -3.56409 0
M  V30 3406 N 323.704 0.605807 -1.45491 0
M  V30 3407 C 324.932 1.39136 -1.5313 0
M  V30 3408 C 325.347 1.88082 -0.164507 0
M  V30 3409 O 324.704 1.62316 0.834247 0
M  V30 3410 C 324.755 2.59463 -2.51716 0
M  V30 3411 O 324.476 2.12551 -3.83084 0
M  V30 3412 C 325.977 3.52301 -2.6907 0
M  V30 3413 H 323.197 0.425849 -0.51855 0
M  V30 3414 H 325.741 0.73865 -1.90694 0
M  V30 3415 H 323.896 3.20772 -2.17219 0
M  V30 3416 H 324.31 2.90744 -4.36541 0
M  V30 3417 H 325.784 4.33271 -3.42024 0
M  V30 3418 H 326.261 4.02757 -1.75167 0
M  V30 3419 H 326.867 2.96845 -3.04571 0
M  V30 3420 N 325.182 1.32811 0.848464 0
M  V30 3421 C 326.431 1.23075 1.59798 0
M  V30 3422 C 326.744 -0.204419 1.94529 0
M  V30 3423 O 327.95 -0.423701 2.68173 0
M  V30 3424 C 326.406 2.15594 2.88179 0
M  V30 3425 C 326.014 3.64228 2.60849 0
M  V30 3426 C 327.758 2.14709 3.66197 0
M  V30 3427 C 325.665 4.48689 3.85269 0
M  V30 3428 H 324.595 0.457091 0.599653 0
M  V30 3429 H 327.246 1.57813 0.936342 0
M  V30 3430 H 325.628 1.73778 3.55833 0
M  V30 3431 H 326.802 4.14424 2.01467 0
M  V30 3432 H 325.117 3.67306 1.96151 0
M  V30 3433 H 327.714 2.75046 4.58534 0
M  V30 3434 H 328.057 1.13966 4.00397 0
M  V30 3435 H 328.59 2.54837 3.05455 0
M  V30 3436 H 325.329 5.5027 3.56207 0
M  V30 3437 H 324.849 4.03241 4.44024 0
M  V30 3438 H 326.528 4.62006 4.52946 0
M  V30 3439 N 326.66 -1.06551 1.16123 0
M  V30 3440 C 327.906 -1.79567 0.94252 0
M  V30 3441 C 328.239 -1.86869 -0.528547 0
M  V30 3442 O 327.514 -1.35838 -1.39206 0
M  V30 3443 C 327.797 -3.24195 1.56747 0
M  V30 3444 C 327.65 -3.24989 3.10969 0
M  V30 3445 C 328.969 -4.21678 1.25998 0
M  V30 3446 H 326.088 -0.651883 0.343828 0
M  V30 3447 H 328.73 -1.2463 1.43413 0
M  V30 3448 H 326.88 -3.71107 1.14942 0
M  V30 3449 H 328.552 -2.86258 3.61737 0
M  V30 3450 H 326.795 -2.63716 3.44436 0
M  V30 3451 H 327.466 -4.27005 3.49815 0
M  V30 3452 H 329.942 -3.83196 1.62174 0
M  V30 3453 H 328.818 -5.21146 1.7233 0
M  V30 3454 H 329.079 -4.4174 0.178367 0
M  V30 3455 N 328.138 -0.959301 -1.25041 0
M  V30 3456 C 329.101 -0.487677 -2.23952 0
M  V30 3457 C 330.101 0.41119 -1.55454 0
M  V30 3458 O 331.291 0.207825 -1.72956 0
M  V30 3459 C 328.423 0.294807 -3.39623 0
M  V30 3460 H 329.616 -1.36198 -2.67189 0
M  V30 3461 H 327.169 -0.743042 -1.37508 0
M  V30 3462 H 327.904 1.18658 -3.01813 0
M  V30 3463 H 327.689 -0.35012 -3.90534 0
M  V30 3464 H 329.179 0.614089 -4.1306 0
M  V30 3465 N 329.616 1.39756 -0.72842 0
M  V30 3466 C 330.844 2.04948 -0.283528 0
M  V30 3467 C 331.259 1.54908 1.0793 0
M  V30 3468 O 330.616 0.711135 1.68075 0
M  V30 3469 C 330.667 3.60498 -0.268957 0
M  V30 3470 O 330.388 4.08695 -1.57798 0
M  V30 3471 C 331.889 4.4288 0.192912 0
M  V30 3472 H 329.109 0.659243 -0.125056 0
M  V30 3473 H 331.653 1.78927 -0.990226 0
M  V30 3474 H 329.808 3.85444 0.388801 0
M  V30 3475 H 330.222 5.02977 -1.48709 0
M  V30 3476 H 331.696 5.51791 0.151952 0
M  V30 3477 H 332.173 4.21418 1.23708 0
M  V30 3478 H 332.779 4.23069 -0.435039 0
M  V30 3479 N 331.094 0.475555 1.50254 0
M  V30 3480 C 332.319 -0.0777042 2.07254 0
M  V30 3481 C 332.744 -1.3235 1.3366 0
M  V30 3482 O 332.102 -1.77152 0.385597 0
M  V30 3483 C 332.15 -0.340169 3.58992 0
M  V30 3484 O 331.254 -1.41982 3.87188 0
M  V30 3485 H 330.595 0.0149556 0.663832 0
M  V30 3486 H 333.125 0.667878 1.93392 0
M  V30 3487 H 333.135 -0.579332 4.03866 0
M  V30 3488 H 331.81 0.570167 4.11973 0
M  V30 3489 H 330.387 -1.16762 3.54148 0
M  V30 3490 N 332.573 -1.56217 0.208337 0
M  V30 3491 C 333.483 -2.23316 -0.718836 0
M  V30 3492 C 334.499 -1.23648 -1.22422 0
M  V30 3493 O 335.675 -1.56423 -1.26861 0
M  V30 3494 C 332.74 -2.88968 -1.91568 0
M  V30 3495 C 331.801 -4.03943 -1.45357 0
M  V30 3496 C 331.034 -4.66455 -2.59337 0
M  V30 3497 O 331.257 -4.27919 -3.77149 0
M  V30 3498 O 330.191 -5.55686 -2.31293 0
M  V30 3499 H 334.017 -3.03182 -0.177315 0
M  V30 3500 H 331.602 -1.49384 -0.0215402 0
M  V30 3501 H 333.484 -3.30455 -2.61491 0
M  V30 3502 H 332.159 -2.12071 -2.44556 0
M  V30 3503 H 331.066 -3.67052 -0.722746 0
M  V30 3504 H 332.399 -4.82543 -0.970219 0
M  V30 3505 N 334.051 0.0651679 -1.57465 0
M  V30 3506 C 335.299 0.761555 -1.87202 0
M  V30 3507 C 335.62 1.77778 -0.801243 0
M  V30 3508 O 334.89 1.95166 0.16937 0
M  V30 3509 H 333.47 0.284251 -0.690804 0
M  V30 3510 H 336.132 0.0396827 -1.9486 0
M  V30 3511 H 335.228 1.27365 -2.84929 0
M  V30 3512 N 335.529 1.53961 0.336706 0
M  V30 3513 C 336.754 1.75797 1.10046 0
M  V30 3514 C 337.179 0.498985 1.81361 0
M  V30 3515 O 336.537 -0.548769 1.72795 0
M  V30 3516 C 336.585 2.94257 2.08436 0
M  V30 3517 O 335.689 2.64883 3.16087 0
M  V30 3518 H 335.03 0.582936 0.317934 0
M  V30 3519 H 337.56 2.00945 0.38501 0
M  V30 3520 H 337.57 3.21237 2.51537 0
M  V30 3521 H 336.245 3.85564 1.55927 0
M  V30 3522 H 334.822 2.48812 2.77753 0
M  V30 3523 N 337.007 -0.598083 1.45811 0
M  V30 3524 C 337.937 -1.71873 1.58057 0
M  V30 3525 C 338.918 -1.64533 0.431615 0
M  V30 3526 O 340.103 -1.82787 0.65595 0
M  V30 3527 C 337.233 -3.10495 1.55597 0
M  V30 3528 C 336.187 -3.32654 2.69305 0
M  V30 3529 C 335.513 -4.71646 2.51902 0
M  V30 3530 C 336.813 -3.21981 4.11248 0
M  V30 3531 H 338.507 -1.61881 2.51863 0
M  V30 3532 H 336.053 -0.777372 1.21214 0
M  V30 3533 H 338.006 -3.88699 1.6276 0
M  V30 3534 H 336.73 -3.2135 0.583255 0
M  V30 3535 H 335.389 -2.56843 2.61586 0
M  V30 3536 H 335.037 -4.79246 1.52748 0
M  V30 3537 H 334.737 -4.87426 3.2816 0
M  V30 3538 H 336.261 -5.52038 2.60933 0
M  V30 3539 H 337.675 -3.90049 4.20161 0
M  V30 3540 H 336.072 -3.49289 4.87972 0
M  V30 3541 H 337.142 -2.1928 4.32486 0
M  V30 3542 N 338.485 -1.33259 -0.841409 0
M  V30 3543 C 339.731 -1.25766 -1.59857 0
M  V30 3544 C 340.086 0.175602 -1.91597 0
M  V30 3545 O 339.379 1.117 -1.55672 0
M  V30 3546 C 339.573 -2.06381 -2.9179 0
M  V30 3547 C 339.402 -3.57401 -2.72937 0
M  V30 3548 C 338.172 -4.26718 -2.70628 0
M  V30 3549 C 340.37 -4.51786 -2.45753 0
M  V30 3550 N 338.352 -5.63705 -2.43125 0
M  V30 3551 C 339.723 -5.76643 -2.27777 0
M  V30 3552 C 341.778 -4.40898 -2.31329 0
M  V30 3553 C 340.481 -6.91842 -1.96841 0
M  V30 3554 C 342.507 -5.55911 -2.01786 0
M  V30 3555 C 341.869 -6.79776 -1.8462 0
M  V30 3556 H 337.968 -0.515406 -0.588117 0
M  V30 3557 H 340.552 -1.67772 -0.987955 0
M  V30 3558 H 338.723 -1.667 -3.50807 0
M  V30 3559 H 340.455 -1.90678 -3.56965 0
M  V30 3560 H 337.21 -3.78968 -2.84043 0
M  V30 3561 H 337.634 -6.35911 -2.32265 0
M  V30 3562 H 342.276 -3.45772 -2.43314 0
M  V30 3563 H 339.994 -7.86968 -1.83594 0
M  V30 3564 H 343.58 -5.49421 -1.91384 0
M  V30 3565 H 342.46 -7.67266 -1.62088 0
M  V30 3566 N 339.963 1.05934 -1.16686 0
M  V30 3567 C 341.211 1.78447 -0.948744 0
M  V30 3568 C 341.532 1.87813 0.524523 0
M  V30 3569 O 340.802 1.38945 1.38098 0
M  V30 3570 H 339.382 0.660971 -0.348033 0
M  V30 3571 H 342.044 1.27947 -1.47022 0
M  V30 3572 H 341.14 2.80394 -1.37061 0
M  V30 3573 N 341.441 0.965919 1.2453 0
M  V30 3574 C 342.371 0.513476 2.27784 0
M  V30 3575 C 343.352 -0.445974 1.6415 0
M  V30 3576 O 344.537 -0.342485 1.91156 0
M  V30 3577 C 341.667 -0.198839 3.4673 0
M  V30 3578 C 340.621 0.676456 4.2262 0
M  V30 3579 C 339.947 -0.167248 5.34438 0
M  V30 3580 C 341.247 1.96017 4.84123 0
M  V30 3581 H 342.941 1.3765 2.65881 0
M  V30 3582 H 340.487 0.663321 1.27813 0
M  V30 3583 H 342.44 -0.526567 4.18097 0
M  V30 3584 H 341.164 -1.0962 3.07654 0
M  V30 3585 H 339.823 0.98743 3.53052 0
M  V30 3586 H 339.471 -1.0647 4.91603 0
M  V30 3587 H 339.171 0.415181 5.86131 0
M  V30 3588 H 340.695 -0.489688 6.08633 0
M  V30 3589 H 342.109 1.69814 5.47573 0
M  V30 3590 H 340.506 2.48918 5.4604 0
M  V30 3591 H 341.576 2.65622 4.05676 0
M  V30 3592 N 342.919 -1.39368 0.735821 0
M  V30 3593 C 344.196 -1.94465 0.210395 0
M  V30 3594 C 344.576 -1.67254 -1.28799 0
M  V30 3595 O 343.924 -1.00123 -2.05396 0
M  V30 3596 C 344.134 -3.4472 0.544897 0
M  V30 3597 C 345.482 -4.21708 0.494689 0
M  V30 3598 O 346.506 -3.52922 0.482136 0
M  V30 3599 O 345.365 -5.44299 0.489947 0
M  V30 3600 H 342.459 -0.826096 0.0386666 0
M  V30 3601 H 345.005 -1.48863 0.814735 0
M  V30 3602 H 343.777 -3.57963 1.58045 0
M  V30 3603 H 343.4 -3.97502 -0.08837 0
M  V30 3604 N 344.397 -0.483516 -1.5 0
M  V30 3605 C 345.813 -0.138404 -1.58999 0
M  V30 3606 C 346.013 1.35597 -1.4905 0
M  V30 3607 O 345.069 2.13039 -1.35539 0
M  V30 3608 C 346.382 -0.699658 -2.92447 0
M  V30 3609 C 347.93 -0.664195 -3.05872 0
M  V30 3610 C 348.405 -1.20321 -4.41913 0
M  V30 3611 N 349.896 -1.16315 -4.48358 0
M  V30 3612 C 350.631 -1.55058 -5.52037 0
M  V30 3613 N 350.127 -2.01311 -6.62907 0
M  V30 3614 N 351.92 -1.46584 -5.42651 0
M  V30 3615 H 344.071 -1.45529 -1.5471 0
M  V30 3616 H 346.334 -0.60258 -0.731848 0
M  V30 3617 H 346.04 -1.747 -3.05242 0
M  V30 3618 H 345.914 -0.150194 -3.76901 0
M  V30 3619 H 348.301 0.374272 -2.92717 0
M  V30 3620 H 348.382 -1.25061 -2.23144 0
M  V30 3621 H 348.026 -2.24037 -4.55818 0
M  V30 3622 H 347.956 -0.592896 -5.23252 0
M  V30 3623 H 350.447 -0.824058 -3.68806 0
M  V30 3624 H 350.76 -2.2899 -7.38095 0
M  V30 3625 H 349.105 -2.05273 -6.63994 0
M  V30 3626 H 352.296 -1.10281 -4.54924 0
M  V30 3627 H 352.469 -1.77103 -6.23329 0
M  V30 3628 N 345.875 1.56104 -0.216619 0
M  V30 3629 C 347.121 1.98466 0.417033 0
M  V30 3630 C 347.454 1.10403 1.59765 0
M  V30 3631 O 346.729 0.160632 1.93836 0
M  V30 3632 C 347.012 3.49769 0.85637 0
M  V30 3633 C 346.865 4.48606 -0.327546 0
M  V30 3634 C 348.184 4.05339 1.7143 0
M  V30 3635 H 345.303 0.721551 0.150112 0
M  V30 3636 H 347.945 1.87423 -0.311864 0
M  V30 3637 H 346.095 3.5931 1.47745 0
M  V30 3638 H 347.767 4.5108 -0.965618 0
M  V30 3639 H 346.01 4.22682 -0.975805 0
M  V30 3640 H 346.681 5.51995 0.0227149 0
M  V30 3641 H 349.157 3.98712 1.19031 0
M  V30 3642 H 348.033 5.11533 1.99061 0
M  V30 3643 H 348.294 3.51918 2.67593 0
M  V30 3644 N 347.353 -0.0568162 1.57498 0
M  V30 3645 C 348.581 -0.765626 1.92213 0
M  V30 3646 C 348.996 -1.70353 0.813961 0
M  V30 3647 O 348.353 -1.81268 -0.211701 0
M  V30 3648 C 348.404 -1.5465 3.2675 0
M  V30 3649 O 348.125 -0.646278 4.33307 0
M  V30 3650 C 349.626 -2.35497 3.75574 0
M  V30 3651 H 346.846 -0.216835 0.634999 0
M  V30 3652 H 349.39 -0.0226146 2.04487 0
M  V30 3653 H 347.545 -2.24165 3.15957 0
M  V30 3654 H 347.959 -1.19093 5.108 0
M  V30 3655 H 349.433 -2.85722 4.72299 0
M  V30 3656 H 349.91 -3.15692 3.05344 0
M  V30 3657 H 350.516 -1.7111 3.8936 0
M  V30 3658 N 348.832 -1.54138 -0.328536 0
M  V30 3659 C 350.079 -1.72105 -1.06706 0
M  V30 3660 C 350.407 -0.492111 -1.88171 0
M  V30 3661 O 349.662 0.526153 -1.88494 0
M  V30 3662 C 349.961 -2.9457 -2.02393 0
M  V30 3663 C 349.627 -4.29544 -1.37122 0
M  V30 3664 C 348.289 -4.6624 -1.19052 0
M  V30 3665 C 350.641 -5.1333 -0.902331 0
M  V30 3666 C 347.969 -5.84325 -0.527331 0
M  V30 3667 C 350.321 -6.32094 -0.252988 0
M  V30 3668 C 348.985 -6.67473 -0.0600901 0
M  V30 3669 H 348.255 -0.629775 -0.390466 0
M  V30 3670 H 350.902 -1.88372 -0.34473 0
M  V30 3671 H 349.207 -2.72969 -2.81061 0
M  V30 3672 H 350.904 -3.05665 -2.59557 0
M  V30 3673 H 347.494 -4.0067 -1.52188 0
M  V30 3674 H 351.678 -4.855 -1.02974 0
M  V30 3675 H 346.934 -6.103 -0.366634 0
M  V30 3676 H 351.108 -6.96299 0.118366 0
M  V30 3677 H 348.735 -7.58832 0.455828 0
M  V30 3678 N 350.31 0.590341 -1.46126 0
M  V30 3679 C 351.726 0.912917 -1.30912 0
M  V30 3680 C 351.926 1.99616 -0.274893 0
M  V30 3681 O 350.982 2.50397 0.325197 0
M  V30 3682 C 352.295 1.3375 -2.69317 0
M  V30 3683 C 353.843 1.45077 -2.77348 0
M  V30 3684 C 354.318 1.90904 -4.16317 0
M  V30 3685 N 355.809 1.9811 -4.18696 0
M  V30 3686 C 356.544 2.34828 -5.23109 0
M  V30 3687 N 356.04 2.70393 -6.37856 0
M  V30 3688 N 357.833 2.35317 -5.10473 0
M  V30 3689 H 349.984 -0.125358 -2.1203 0
M  V30 3690 H 352.247 0.00658481 -0.947977 0
M  V30 3691 H 351.953 0.615614 -3.4627 0
M  V30 3692 H 351.827 2.30058 -2.9892 0
M  V30 3693 H 354.214 2.16353 -2.00687 0
M  V30 3694 H 354.295 0.4704 -2.51438 0
M  V30 3695 H 353.939 1.20209 -4.9347 0
M  V30 3696 H 353.869 2.89886 -4.39629 0
M  V30 3697 H 356.36 1.73146 -3.359 0
M  V30 3698 H 356.673 2.97341 -7.13308 0
M  V30 3699 H 355.018 2.68048 -6.41229 0
M  V30 3700 H 358.209 2.0695 -4.19868 0
M  V30 3701 H 358.382 2.63605 -5.9196 0
M  V30 3702 N 351.788 1.33704 0.83433 0
M  V30 3703 C 353.204 1.13137 1.12571 0
M  V30 3704 C 353.404 -0.0747261 2.01361 0
M  V30 3705 O 352.46 -0.753647 2.4099 0
M  V30 3706 C 353.773 2.42105 1.78342 0
M  V30 3707 C 355.321 2.48054 1.90888 0
M  V30 3708 C 355.796 3.76995 2.60075 0
M  V30 3709 N 357.287 3.78092 2.67584 0
M  V30 3710 C 358.022 4.74574 3.21818 0
M  V30 3711 N 357.518 5.81434 3.76705 0
M  V30 3712 N 359.311 4.62044 3.20112 0
M  V30 3713 H 351.462 2.11 0.243489 0
M  V30 3714 H 353.725 0.932532 0.17055 0
M  V30 3715 H 353.431 3.30391 1.20561 0
M  V30 3716 H 353.305 2.54594 2.7832 0
M  V30 3717 H 355.692 1.60215 2.47821 0
M  V30 3718 H 355.773 2.39502 0.898459 0
M  V30 3719 H 355.417 4.65219 2.03799 0
M  V30 3720 H 355.347 3.82825 3.61597 0
M  V30 3721 H 357.838 3.00865 2.28667 0
M  V30 3722 H 358.151 6.51084 4.16305 0
M  V30 3723 H 356.496 5.85163 3.7498 0
M  V30 3724 H 359.687 3.77716 2.76493 0
M  V30 3725 H 359.86 5.37406 3.62076 0
M  V30 3726 N 353.266 -1.05314 1.17247 0
M  V30 3727 C 354.515 -1.77685 0.954521 0
M  V30 3728 C 354.828 -1.88616 -0.518025 0
M  V30 3729 O 356.034 -2.57714 -0.854144 0
M  V30 3730 C 354.49 -3.19402 1.65863 0
M  V30 3731 C 354.098 -3.16605 3.16963 0
M  V30 3732 C 355.842 -3.96237 1.52303 0
M  V30 3733 C 353.749 -4.53103 3.80068 0
M  V30 3734 H 352.679 -0.666 0.353496 0
M  V30 3735 H 355.33 -1.1805 1.40486 0
M  V30 3736 H 353.712 -3.79355 1.13602 0
M  V30 3737 H 354.886 -2.66176 3.76148 0
M  V30 3738 H 353.201 -2.53268 3.30521 0
M  V30 3739 H 355.798 -4.97157 1.96822 0
M  V30 3740 H 356.141 -4.136 0.473401 0
M  V30 3741 H 356.674 -3.42829 2.01775 0
M  V30 3742 H 353.413 -4.40946 4.85023 0
M  V30 3743 H 352.933 -5.03686 3.2567 0
M  V30 3744 H 354.612 -5.22045 3.82202 0
M  V30 3745 N 354.744 -0.972509 -1.24016 0
M  V30 3746 C 355.993 -0.632603 -1.91523 0
M  V30 3747 C 356.306 0.836641 -1.76804 0
M  V30 3748 O 357.512 1.28728 -2.39043 0
M  V30 3749 C 355.968 -1.08082 -3.43287 0
M  V30 3750 C 355.576 -2.57386 -3.66683 0
M  V30 3751 C 357.32 -0.814288 -4.16617 0
M  V30 3752 C 355.227 -2.95915 -5.12043 0
M  V30 3753 H 354.157 -0.232898 -0.717129 0
M  V30 3754 H 356.808 -1.17936 -1.40582 0
M  V30 3755 H 355.19 -0.462339 -3.93292 0
M  V30 3756 H 356.364 -3.24405 -3.27258 0
M  V30 3757 H 354.679 -2.81701 -3.06649 0
M  V30 3758 H 357.276 -1.0781 -5.23718 0
M  V30 3759 H 357.619 0.24955 -4.15551 0
M  V30 3760 H 358.152 -1.39397 -3.72577 0
M  V30 3761 H 354.891 -4.0139 -5.18234 0
M  V30 3762 H 354.411 -2.33584 -5.52448 0
M  V30 3763 H 356.09 -2.86086 -5.80314 0
M  V30 3764 N 356.222 1.38976 -0.743202 0
M  V30 3765 C 357.468 2.0064 -0.295189 0
M  V30 3766 C 357.801 1.5885 1.11716 0
M  V30 3767 O 357.076 0.821181 1.76315 0
M  V30 3768 C 357.359 3.578 -0.406318 0
M  V30 3769 C 357.212 4.09586 -1.85903 0
M  V30 3770 C 358.531 4.39616 0.206439 0
M  V30 3771 H 355.65 0.728935 -0.108733 0
M  V30 3772 H 358.292 1.65067 -0.940897 0
M  V30 3773 H 356.442 3.88235 0.143419 0
M  V30 3774 H 358.114 3.89837 -2.46627 0
M  V30 3775 H 356.357 3.6284 -2.3776 0
M  V30 3776 H 357.028 5.18708 -1.888 0
M  V30 3777 H 359.504 4.15273 -0.262283 0
M  V30 3778 H 358.38 5.48812 0.0983819 0
M  V30 3779 H 358.641 4.22754 1.2935 0
M  V30 3780 N 357.7 0.491464 1.49741 0
M  V30 3781 C 358.647 -0.292027 2.28945 0
M  V30 3782 C 359.617 -0.968973 1.34908 0
M  V30 3783 O 360.802 -0.97748 1.6386 0
M  V30 3784 C 357.942 -1.35617 3.17336 0
M  V30 3785 C 357.055 -0.691957 4.26422 0
M  V30 3786 C 356.19 -1.73572 5.02042 0
M  V30 3787 C 355.229 -1.05286 6.02977 0
M  V30 3788 N 354.366 -2.0404 6.71798 0
M  V30 3789 H 359.206 0.389654 2.95442 0
M  V30 3790 H 356.743 0.204003 1.45679 0
M  V30 3791 H 358.701 -1.98502 3.66951 0
M  V30 3792 H 357.331 -2.00674 2.52844 0
M  V30 3793 H 356.383 0.0499523 3.80367 0
M  V30 3794 H 357.695 -0.153946 4.98562 0
M  V30 3795 H 356.849 -2.43987 5.55478 0
M  V30 3796 H 355.588 -2.30757 4.29654 0
M  V30 3797 H 354.593 -0.334446 5.48782 0
M  V30 3798 H 355.818 -0.487636 6.77347 0
M  V30 3799 H 353.764 -2.60205 6.02187 0
M  V30 3800 H 353.681 -1.55279 7.39881 0
M  V30 3801 H 354.949 -2.73772 7.29842 0
M  V30 3802 N 359.178 -1.55987 0.224894 0
M  V30 3803 C 360.126 -2.21808 -0.700283 0
M  V30 3804 C 361.12 -1.19854 -1.19714 0
M  V30 3805 O 362.326 -1.37925 -1.15658 0
M  V30 3806 H 358.701 -0.711226 -0.244258 0
M  V30 3807 H 360.672 -2.98152 -0.121749 0
M  V30 3808 C 359.421 -2.91444 -1.8962 0
M  V30 3809 H 358.744 -3.69655 -1.52299 0
M  V30 3810 H 360.184 -3.40894 -2.52125 0
M  V30 3811 C 358.643 -1.94098 -2.75368 0
M  V30 3812 O 359.173 -1.46004 -3.74227 0
M  V30 3813 N 357.379 -1.61675 -2.41474 0
M  V30 3814 H 356.926 -2.00979 -1.61137 0
M  V30 3815 H 356.884 -0.968036 -2.99126 0
M  V30 3816 N 360.656 0.0484629 -1.57525 0
M  V30 3817 C 361.604 1.07359 -2.06341 0
M  V30 3818 C 362.598 1.3865 -0.973269 0
M  V30 3819 O 363.804 1.37783 -1.15827 0
M  V30 3820 H 360.179 0.363662 -0.65822 0
M  V30 3821 H 362.15 0.635916 -2.91545 0
M  V30 3822 C 360.899 2.37198 -2.54229 0
M  V30 3823 H 360.222 2.13977 -3.37719 0
M  V30 3824 H 361.662 3.07319 -2.92115 0
M  V30 3825 C 360.121 3.04805 -1.43511 0
M  V30 3826 O 360.651 3.93848 -0.79034 0
M  V30 3827 N 358.857 2.65811 -1.17444 0
M  V30 3828 H 358.404 1.93488 -1.70059 0
M  V30 3829 H 358.362 3.11366 -0.435737 0
M  V30 3830 N 362.134 1.5431 0.320358 0
M  V30 3831 C 363.097 1.83195 1.3774 0
M  V30 3832 C 364.097 0.703906 1.44575 0
M  V30 3833 O 365.287 0.972214 1.44546 0
M  V30 3834 C 362.419 1.99487 2.76438 0
M  V30 3835 H 363.612 2.77642 1.1338 0
M  V30 3836 H 361.165 1.46076 0.556012 0
M  V30 3837 H 361.9 1.07262 3.06048 0
M  V30 3838 H 361.685 2.81575 2.7287 0
M  V30 3839 H 363.175 2.23271 3.52902 0
M  V30 3840 N 363.613 -0.582584 1.46437 0
M  V30 3841 C 364.56 -1.69164 1.5701 0
M  V30 3842 C 365.53 -1.60847 0.414403 0
M  V30 3843 O 366.715 -1.80058 0.631171 0
M  V30 3844 C 363.855 -3.075 1.56646 0
M  V30 3845 C 362.968 -3.2644 2.82951 0
M  V30 3846 C 362.103 -4.55026 2.7409 0
M  V30 3847 C 361.142 -4.6731 3.95333 0
M  V30 3848 N 360.279 -5.87221 3.84858 0
M  V30 3849 H 365.119 -1.59464 2.51744 0
M  V30 3850 H 362.656 -0.777186 1.24893 0
M  V30 3851 H 364.614 -3.8757 1.5442 0
M  V30 3852 H 363.244 -3.16096 0.654439 0
M  V30 3853 H 362.296 -2.39974 2.95155 0
M  V30 3854 H 363.608 -3.31385 3.72808 0
M  V30 3855 H 362.762 -5.43324 2.6997 0
M  V30 3856 H 361.501 -4.52519 1.81873 0
M  V30 3857 H 360.506 -3.77429 3.99784 0
M  V30 3858 H 361.731 -4.71595 4.88646 0
M  V30 3859 H 359.677 -5.85712 2.95427 0
M  V30 3860 H 359.594 -5.93435 4.6837 0
M  V30 3861 H 360.862 -6.7795 3.84713 0
M  V30 3862 N 365.091 -1.34144 -0.827227 0
M  V30 3863 C 366.038 -1.25364 -1.93785 0
M  V30 3864 C 367.008 -0.129774 -1.65592 0
M  V30 3865 O 368.193 -0.310024 -1.88264 0
M  V30 3866 C 365.333 -1.01064 -3.2997 0
M  V30 3867 C 364.446 -2.22185 -3.70484 0
M  V30 3868 C 363.581 -1.91203 -4.95595 0
M  V30 3869 C 362.62 -3.08491 -5.28677 0
M  V30 3870 N 361.757 -2.77421 -6.44967 0
M  V30 3871 H 366.597 -2.20347 -2.00627 0
M  V30 3872 H 364.134 -1.09558 -0.981608 0
M  V30 3873 H 366.092 -0.850139 -4.08446 0
M  V30 3874 H 364.722 -0.0975026 -3.22653 0
M  V30 3875 H 363.774 -2.4917 -2.87434 0
M  V30 3876 H 365.086 -3.0983 -3.90905 0
M  V30 3877 H 364.24 -1.71864 -5.81848 0
M  V30 3878 H 362.979 -1.00812 -4.77167 0
M  V30 3879 H 361.984 -3.28431 -4.40923 0
M  V30 3880 H 363.209 -3.99655 -5.49047 0
M  V30 3881 H 361.155 -1.89601 -6.28003 0
M  V30 3882 H 361.072 -3.58598 -6.6554 0
M  V30 3883 H 362.34 -2.61577 -7.34301 0
M  V30 3884 N 366.569 1.04691 -1.17803 0
M  V30 3885 C 367.985 1.29963 -0.926379 0
M  V30 3886 C 368.185 1.97251 0.411635 0
M  V30 3887 O 367.241 2.24922 1.14744 0
M  V30 3888 C 368.554 2.16447 -2.08737 0
M  V30 3889 C 370.102 2.29814 -2.12496 0
M  V30 3890 C 370.577 3.19661 -3.27995 0
M  V30 3891 N 372.068 3.27247 -3.27816 0
M  V30 3892 C 372.803 3.96906 -4.13827 0
M  V30 3893 N 372.299 4.6895 -5.09959 0
M  V30 3894 N 374.092 3.93122 -4.01761 0
M  V30 3895 H 366.243 0.594182 -2.0392 0
M  V30 3896 H 368.506 0.324649 -0.890678 0
M  V30 3897 H 368.212 1.74304 -3.05469 0
M  V30 3898 H 368.086 3.17103 -2.04268 0
M  V30 3899 H 370.473 2.71196 -1.16347 0
M  V30 3900 H 370.554 1.2877 -2.21025 0
M  V30 3901 H 370.198 2.78991 -4.24413 0
M  V30 3902 H 370.128 4.20722 -3.16703 0
M  V30 3903 H 372.619 2.75921 -2.58217 0
M  V30 3904 H 372.932 5.19679 -5.71974 0
M  V30 3905 H 371.277 4.67875 -5.13924 0
M  V30 3906 H 374.468 3.35967 -3.2595 0
M  V30 3907 H 374.641 4.47139 -4.6901 0
M  V30 3908 N 368.047 0.979072 1.23499 0
M  V30 3909 C 368.994 0.517904 2.24914 0
M  V30 3910 C 369.964 -0.442525 1.60097 0
M  V30 3911 O 371.149 -0.350365 1.87556 0
M  V30 3912 C 368.289 -0.174813 3.44657 0
M  V30 3913 C 367.402 0.825721 4.24035 0
M  V30 3914 C 366.537 0.107946 5.3109 0
M  V30 3915 C 365.576 1.09778 6.02175 0
M  V30 3916 N 364.713 0.40925 7.00906 0
M  V30 3917 H 369.553 1.38751 2.63727 0
M  V30 3918 H 367.09 0.695303 1.2963 0
M  V30 3919 H 369.048 -0.593233 4.12961 0
M  V30 3920 H 367.678 -1.0083 3.06648 0
M  V30 3921 H 366.73 1.36253 3.55161 0
M  V30 3922 H 368.042 1.58005 4.73113 0
M  V30 3923 H 367.196 -0.367904 6.05583 0
M  V30 3924 H 365.935 -0.678994 4.8295 0
M  V30 3925 H 364.94 1.5844 5.26476 0
M  V30 3926 H 366.165 1.88536 6.52404 0
M  V30 3927 H 364.111 -0.358506 6.5502 0
M  V30 3928 H 364.028 1.10226 7.47921 0
M  V30 3929 H 365.296 -0.0442557 7.79487 0
M  V30 3930 N 369.525 -1.3858 0.750561 0
M  V30 3931 C 370.458 -2.28095 0.0693139 0
M  V30 3932 C 371.436 -1.45217 -0.731491 0
M  V30 3933 O 372.62 -1.74587 -0.71076 0
M  V30 3934 C 369.747 -3.26282 -0.90871 0
M  V30 3935 C 368.793 -4.26056 -0.194507 0
M  V30 3936 S 369.626 -5.24026 1.10257 0
M  V30 3937 C 370.782 -6.2577 0.127542 0
M  V30 3938 H 371.015 -2.85526 0.8284 0
M  V30 3939 H 368.548 -1.44536 0.543014 0
M  V30 3940 H 370.506 -3.83367 -1.46766 0
M  V30 3941 H 369.167 -2.6784 -1.64075 0
M  V30 3942 H 368.36 -4.95249 -0.93512 0
M  V30 3943 H 367.962 -3.72852 0.292837 0
M  V30 3944 H 370.254 -6.73796 -0.707516 0
M  V30 3945 H 371.197 -7.03712 0.787044 0
M  V30 3946 H 371.605 -5.63938 -0.251803 0
M  V30 3947 N 371.003 -0.499398 -1.49478 0
M  V30 3948 C 372.25 0.0456899 -2.02448 0
M  V30 3949 C 372.578 1.37142 -1.37921 0
M  V30 3950 O 371.833 1.89111 -0.503544 0
M  V30 3951 C 372.132 0.248424 -3.56536 0
M  V30 3952 C 371.798 -0.999107 -4.39692 0
M  V30 3953 C 370.46 -1.34108 -4.62135 0
M  V30 3954 C 372.812 -1.82842 -4.88076 0
M  V30 3955 C 370.14 -2.51191 -5.30208 0
M  V30 3956 C 372.492 -2.99076 -5.57437 0
M  V30 3957 C 371.156 -3.33655 -5.78127 0
M  V30 3958 H 370.426 0.0167191 -0.740811 0
M  V30 3959 H 373.073 -0.65923 -1.79795 0
M  V30 3960 H 371.378 1.03586 -3.77859 0
M  V30 3961 H 373.075 0.684605 -3.95113 0
M  V30 3962 H 369.665 -0.722729 -4.22463 0
M  V30 3963 H 373.849 -1.57737 -4.70566 0
M  V30 3964 H 369.105 -2.78221 -5.44429 0
M  V30 3965 H 373.279 -3.63664 -5.93904 0
M  V30 3966 H 370.906 -4.24483 -6.30649 0
M  V30 3967 N 372.481 1.55866 -0.233164 0
M  V30 3968 C 373.391 2.24431 0.683217 0
M  V30 3969 C 374.407 1.2558 1.2044 0
M  V30 3970 O 375.583 1.58422 1.24356 0
M  V30 3971 C 372.648 2.91979 1.86947 0
M  V30 3972 C 371.709 4.06204 1.38912 0
M  V30 3973 C 370.942 4.70522 2.51883 0
M  V30 3974 O 371.165 4.33865 3.70293 0
M  V30 3975 O 370.099 5.59296 2.22423 0
M  V30 3976 H 373.925 3.03426 0.129059 0
M  V30 3977 H 371.51 1.494 -0.0022283 0
M  V30 3978 H 373.392 3.34573 2.56201 0
M  V30 3979 H 372.067 2.15935 2.41151 0
M  V30 3980 H 370.974 3.68155 0.664259 0
M  V30 3981 H 372.307 4.84025 0.893328 0
M  V30 3982 N 373.959 -0.0401083 1.57549 0
M  V30 3983 C 375.184 -0.748931 1.93406 0
M  V30 3984 C 375.609 -1.68686 0.832274 0
M  V30 3985 O 374.967 -1.80047 -0.212818 0
M  V30 3986 C 375.015 -1.4916 3.28304 0
M  V30 3987 O 374.119 -2.6042 3.19774 0
M  V30 3988 H 373.46 -0.202212 0.63246 0
M  V30 3989 H 375.99 0.00112086 2.046 0
M  V30 3990 H 376 -1.86395 3.62934 0
M  V30 3991 H 374.675 -0.80364 4.08062 0
M  V30 3992 H 373.252 -2.25808 2.96758 0
M  V30 3993 N 375.437 -1.54477 -0.31217 0
M  V30 3994 C 376.684 -1.73227 -1.04875 0
M  V30 3995 C 377.012 -0.512042 -1.87639 0
M  V30 3996 O 376.267 0.506131 -1.89042 0
M  V30 3997 C 376.566 -2.967 -1.99258 0
M  V30 3998 C 376.232 -4.30974 -1.32559 0
M  V30 3999 C 374.894 -4.67477 -1.141 0
M  V30 4000 C 377.246 -5.14258 -0.847835 0
M  V30 4001 C 374.574 -5.84852 -0.465326 0
M  V30 4002 C 376.926 -6.32327 -0.185931 0
M  V30 4003 C 375.59 -6.67499 0.0107077 0
M  V30 4004 H 374.86 -0.633881 -0.383765 0
M  V30 4005 H 377.507 -1.88727 -0.324731 0
M  V30 4006 H 375.812 -2.75935 -2.7815 0
M  V30 4007 H 377.509 -3.08401 -2.563 0
M  V30 4008 H 374.099 -4.02262 -1.4793 0
M  V30 4009 H 378.283 -4.86565 -0.978192 0
M  V30 4010 H 373.539 -6.10654 -0.301883 0
M  V30 4011 H 377.713 -6.96135 0.192211 0
M  V30 4012 H 375.34 -7.58306 0.536287 0
M  V30 4013 N 376.915 0.57481 -1.46744 0
M  V30 4014 C 378.164 1.32898 -1.51727 0
M  V30 4015 C 378.477 1.948 -0.176692 0
M  V30 4016 O 379.683 2.71299 -0.104385 0
M  V30 4017 C 378.139 2.40901 -2.67385 0
M  V30 4018 C 377.747 1.85266 -4.07898 0
M  V30 4019 C 379.491 3.17609 -2.81646 0
M  V30 4020 C 377.398 2.90945 -5.14883 0
M  V30 4021 H 376.328 0.499631 -0.564699 0
M  V30 4022 H 378.979 0.612536 -1.72975 0
M  V30 4023 H 377.361 3.15379 -2.39483 0
M  V30 4024 H 378.535 1.17278 -4.45626 0
M  V30 4025 H 376.85 1.21199 -3.98371 0
M  V30 4026 H 379.447 3.96493 -3.58744 0
M  V30 4027 H 379.79 3.70696 -1.89448 0
M  V30 4028 H 380.323 2.50239 -3.09233 0
M  V30 4029 H 377.062 2.42736 -6.089 0
M  V30 4030 H 376.582 3.57398 -4.81691 0
M  V30 4031 H 378.261 3.54755 -5.41071 0
M  V30 4032 N 378.394 1.34581 0.820102 0
M  V30 4033 C 379.304 1.28471 1.96297 0
M  V30 4034 C 380.32 0.191902 1.72939 0
M  V30 4035 O 381.496 0.418879 1.96996 0
M  V30 4036 C 378.561 1.04281 3.30645 0
M  V30 4037 C 377.622 2.22745 3.66992 0
M  V30 4038 C 376.855 1.997 4.9493 0
M  V30 4039 O 377.078 0.956656 5.6232 0
M  V30 4040 O 376.012 2.86723 5.2922 0
M  V30 4041 H 379.838 2.24624 2.04396 0
M  V30 4042 H 377.423 1.14816 0.955913 0
M  V30 4043 H 379.305 0.925841 4.11104 0
M  V30 4044 H 377.98 0.111697 3.23507 0
M  V30 4045 H 376.887 2.40003 2.86966 0
M  V30 4046 H 378.22 3.14257 3.78819 0
M  V30 4047 N 379.872 -1.04064 1.18357 0
M  V30 4048 C 381.097 -1.81454 1.00445 0
M  V30 4049 C 381.522 -1.82823 -0.442423 0
M  V30 4050 O 380.88 -1.24555 -1.31741 0
M  V30 4051 C 380.928 -3.24925 1.56384 0
M  V30 4052 O 380.032 -4.04856 0.785209 0
M  V30 4053 H 379.373 -0.560604 0.355835 0
M  V30 4054 H 381.903 -1.31059 1.57114 0
M  V30 4055 H 381.913 -3.75702 1.59097 0
M  V30 4056 H 380.588 -3.23244 2.61699 0
M  V30 4057 H 379.165 -3.63537 0.830399 0
M  V30 4058 N 381.35 -0.985608 -1.22978 0
M  V30 4059 C 382.596 -0.65836 -1.91816 0
M  V30 4060 C 382.929 0.806692 -1.76653 0
M  V30 4061 O 382.204 1.58252 -1.13078 0
M  V30 4062 C 382.487 -1.056 -3.44268 0
M  V30 4063 C 382.34 -2.57906 -3.68516 0
M  V30 4064 C 383.659 -0.603781 -4.35939 0
M  V30 4065 H 380.778 -0.24065 -0.696604 0
M  V30 4066 H 383.42 -1.22783 -1.44998 0
M  V30 4067 H 381.57 -0.571445 -3.84274 0
M  V30 4068 H 383.242 -3.13976 -3.3796 0
M  V30 4069 H 381.485 -3.00305 -3.13048 0
M  V30 4070 H 382.156 -2.80779 -4.75255 0
M  V30 4071 H 384.632 -1.01987 -4.03408 0
M  V30 4072 H 383.508 -0.910383 -5.41298 0
M  V30 4073 H 383.769 0.495761 -4.39312 0
M  V30 4074 N 382.828 1.3818 -0.7579 0
M  V30 4075 C 384.239 1.82726 -0.383134 0
M  V30 4076 C 384.59 1.63214 1.08884 0
M  V30 4077 O 383.715 1.13566 1.84205 0
M  V30 4078 C 384.31 3.31728 -0.688631 0
M  V30 4079 C 382.869 3.74606 -0.367091 0
M  V30 4080 C 382.016 2.60896 -0.939599 0
M  V30 4081 H 384.967 1.26847 -0.953699 0
M  V30 4082 H 384.988 3.80487 0.0316492 0
M  V30 4083 H 384.5 3.45898 -1.76001 0
M  V30 4084 H 382.601 3.66013 0.697532 0
M  V30 4085 H 382.714 4.71215 -0.865658 0
M  V30 4086 H 381.078 2.52075 -0.3647 0
M  V30 4087 H 381.861 2.77864 -2.0161 0
M  V30 4088 N 384.306 0.507319 1.49211 0
M  V30 4089 C 385.236 -0.256939 2.32082 0
M  V30 4090 C 386.217 -0.956609 1.40652 0
M  V30 4091 O 387.402 -0.946788 1.69557 0
M  V30 4092 C 384.532 -1.31802 3.21318 0
M  V30 4093 C 383.486 -0.737855 4.21592 0
M  V30 4094 C 382.812 -1.89992 4.99807 0
M  V30 4095 C 384.112 0.275325 5.21574 0
M  V30 4096 H 385.806 0.434798 2.96226 0
M  V30 4097 H 383.352 0.210546 1.42452 0
M  V30 4098 H 385.305 -1.86045 3.78107 0
M  V30 4099 H 384.029 -2.03903 2.5513 0
M  V30 4100 H 382.688 -0.217126 3.65956 0
M  V30 4101 H 382.336 -2.60877 4.30061 0
M  V30 4102 H 382.036 -1.51777 5.6766 0
M  V30 4103 H 383.56 -2.44657 5.59442 0
M  V30 4104 H 384.974 -0.179193 5.7302 0
M  V30 4105 H 383.371 0.573649 5.97352 0
M  V30 4106 H 384.441 1.18903 4.70096 0
M  V30 4107 N 385.784 -1.5574 0.241426 0
M  V30 4108 C 386.714 -2.24133 -0.654722 0
M  V30 4109 C 387.695 -1.21974 -1.1856 0
M  V30 4110 O 388.88 -1.50612 -1.22595 0
M  V30 4111 C 386.01 -2.93659 -1.85423 0
M  V30 4112 C 384.964 -4.0246 -1.45636 0
M  V30 4113 C 384.29 -4.59383 -2.73626 0
M  V30 4114 C 385.59 -5.18468 -0.631506 0
M  V30 4115 H 387.284 -2.99281 -0.0844353 0
M  V30 4116 H 384.83 -1.43947 -0.0391707 0
M  V30 4117 H 386.783 -3.40203 -2.48676 0
M  V30 4118 H 385.507 -2.15991 -2.44981 0
M  V30 4119 H 384.166 -3.56676 -0.847202 0
M  V30 4120 H 383.814 -3.78422 -3.3137 0
M  V30 4121 H 383.514 -5.32826 -2.4773 0
M  V30 4122 H 385.038 -5.08658 -3.37786 0
M  V30 4123 H 386.452 -5.61272 -1.1682 0
M  V30 4124 H 384.849 -5.98266 -0.468831 0
M  V30 4125 H 385.919 -4.8358 0.357506 0
M  V30 4126 N 387.262 0.0317525 -1.57568 0
M  V30 4127 C 388.209 1.0332 -2.06382 0
M  V30 4128 C 389.179 1.36082 -0.952414 0
M  V30 4129 O 390.364 1.46466 -1.2228 0
M  V30 4130 C 387.504 2.32989 -2.54578 0
M  V30 4131 C 386.617 2.0641 -3.79498 0
M  V30 4132 C 385.752 3.2993 -4.16317 0
M  V30 4133 C 384.791 2.98893 -5.34162 0
M  V30 4134 N 383.928 4.14857 -5.66426 0
M  V30 4135 H 388.768 0.609982 -2.9169 0
M  V30 4136 H 386.305 0.289573 -1.44222 0
M  V30 4137 H 388.263 3.0875 -2.80587 0
M  V30 4138 H 386.893 2.73039 -1.7219 0
M  V30 4139 H 385.945 1.21158 -3.6059 0
M  V30 4140 H 387.257 1.79513 -4.65378 0
M  V30 4141 H 386.411 4.1406 -4.4344 0
M  V30 4142 H 385.15 3.59938 -3.29083 0
M  V30 4143 H 384.155 2.13164 -5.06795 0
M  V30 4144 H 385.38 2.70165 -6.23047 0
M  V30 4145 H 383.326 4.44821 -4.82151 0
M  V30 4146 H 383.243 3.91374 -6.4681 0
M  V30 4147 H 384.511 4.99868 -5.98124 0
M  V30 4148 N 388.74 1.54641 0.303973 0
M  V30 4149 C 389.965 1.78092 1.06292 0
M  V30 4150 C 390.39 0.537342 1.80262 0
M  V30 4151 O 389.748 -0.511993 1.7392 0
M  V30 4152 C 389.796 2.98612 2.02147 0
M  V30 4153 O 388.9 2.71528 3.10397 0
M  V30 4154 H 388.241 0.589548 0.305497 0
M  V30 4155 H 390.771 2.01716 0.3423 0
M  V30 4156 H 390.781 3.265 2.44667 0
M  V30 4157 H 389.456 3.88785 1.47714 0
M  V30 4158 H 388.033 2.54648 2.72413 0
M  V30 4159 N 390.218 -0.567019 1.47046 0
M  V30 4160 C 391.148 -1.68482 1.61667 0
M  V30 4161 C 392.129 -1.6358 0.466418 0
M  V30 4162 O 393.314 -1.81354 0.694574 0
M  V30 4163 C 390.444 -3.07124 1.62148 0
M  V30 4164 C 389.398 -3.26867 2.76301 0
M  V30 4165 C 388.724 -4.66196 2.61849 0
M  V30 4166 C 390.024 -3.13186 4.17986 0
M  V30 4167 H 391.718 -1.56502 2.5524 0
M  V30 4168 H 389.264 -0.751486 1.22836 0
M  V30 4169 H 391.217 -3.8516 1.70968 0
M  V30 4170 H 389.941 -3.2004 0.651287 0
M  V30 4171 H 388.6 -2.51237 2.66975 0
M  V30 4172 H 388.248 -4.75898 1.62879 0
M  V30 4173 H 387.948 -4.80356 3.38425 0
M  V30 4174 H 389.472 -5.46379 2.72584 0
M  V30 4175 H 390.886 -3.81049 4.2834 0
M  V30 4176 H 389.283 -3.3886 4.95272 0
M  V30 4177 H 390.353 -2.10057 4.3704 0
M  V30 4178 N 391.696 -1.35014 -0.812953 0
M  V30 4179 C 392.606 -1.2951 -1.95613 0
M  V30 4180 C 393.622 -0.20107 -1.72834 0
M  V30 4181 O 394.798 -0.42932 -1.96771 0
M  V30 4182 C 391.863 -1.06033 -3.30088 0
M  V30 4183 C 390.924 -2.24688 -3.65805 0
M  V30 4184 C 390.157 -2.02322 -4.93864 0
M  V30 4185 O 390.38 -0.986464 -5.61805 0
M  V30 4186 O 389.314 -2.89525 -5.27692 0
M  V30 4187 H 393.14 -2.25705 -2.03202 0
M  V30 4188 H 390.725 -1.15321 -0.949811 0
M  V30 4189 H 392.607 -0.94763 -4.10607 0
M  V30 4190 H 391.282 -0.128852 -3.23443 0
M  V30 4191 H 390.189 -2.41521 -2.85689 0
M  V30 4192 H 391.522 -3.16261 -3.77147 0
M  V30 4193 N 393.175 1.03435 -1.18907 0
M  V30 4194 C 394.421 1.77005 -0.989798 0
M  V30 4195 C 394.754 1.88205 0.478816 0
M  V30 4196 O 394.029 1.39481 1.35556 0
M  V30 4197 C 394.312 3.19925 -1.65287 0
M  V30 4198 C 394.165 3.1663 -3.19477 0
M  V30 4199 C 395.484 4.18189 -1.37134 0
M  V30 4200 H 392.603 0.642538 -0.360991 0
M  V30 4201 H 395.245 1.20784 -1.46667 0
M  V30 4202 H 393.395 3.67929 -1.24741 0
M  V30 4203 H 395.067 2.76567 -3.692 0
M  V30 4204 H 393.31 2.54491 -3.51307 0
M  V30 4205 H 393.981 4.1758 -3.61013 0
M  V30 4206 H 396.457 3.78761 -1.72276 0
M  V30 4207 H 395.333 5.16394 -1.86087 0
M  V30 4208 H 395.594 4.41112 -0.295424 0
M  V30 4209 N 394.653 0.992116 1.22453 0
M  V30 4210 C 395.878 0.685644 1.95739 0
M  V30 4211 C 396.303 -0.743 1.72804 0
M  V30 4212 O 395.661 -1.50778 1.00676 0
M  V30 4213 C 395.709 0.996293 3.46564 0
M  V30 4214 O 394.813 0.0945512 4.12292 0
M  V30 4215 H 394.154 0.256694 0.612376 0
M  V30 4216 H 396.684 1.32888 1.5557 0
M  V30 4217 H 396.694 0.93781 3.97076 0
M  V30 4218 H 395.369 2.03733 3.62582 0
M  V30 4219 H 393.946 0.208451 3.72317 0
M  V30 4220 N 396.131 -1.37776 0.765217 0
M  V30 4221 C 397.041 -2.34135 0.147666 0
M  V30 4222 C 398.057 -1.59854 -0.687215 0
M  V30 4223 O 399.233 -1.91983 -0.608659 0
M  V30 4224 C 396.298 -3.3901 -0.72617 0
M  V30 4225 C 395.359 -4.2912 0.124417 0
M  V30 4226 C 394.592 -5.28986 -0.707807 0
M  V30 4227 O 394.815 -5.36205 -1.94525 0
M  V30 4228 O 393.749 -6.01779 -0.12046 0
M  V30 4229 H 397.575 -2.88664 0.943758 0
M  V30 4230 H 395.16 -1.39824 0.526277 0
M  V30 4231 H 397.042 -4.03195 -1.22524 0
M  V30 4232 H 395.717 -2.86819 -1.50056 0
M  V30 4233 H 394.624 -3.68057 0.669696 0
M  V30 4234 H 395.957 -4.84598 0.861736 0
M  V30 4235 N 397.609 -0.515225 -1.4894 0
M  V30 4236 C 399.025 -0.172099 -1.58669 0
M  V30 4237 C 399.225 1.32405 -1.51892 0
M  V30 4238 O 398.281 2.10116 -1.40027 0
M  V30 4239 C 399.594 -0.761533 -2.90897 0
M  V30 4240 C 401.142 -0.728926 -3.04394 0
M  V30 4241 C 401.617 -1.29667 -4.39261 0
M  V30 4242 N 403.108 -1.25799 -4.4579 0
M  V30 4243 C 403.843 -1.66733 -5.48623 0
M  V30 4244 N 403.339 -2.15327 -6.58488 0
M  V30 4245 N 405.132 -1.58061 -5.39419 0
M  V30 4246 H 397.283 -1.48778 -1.51588 0
M  V30 4247 H 399.546 -0.617968 -0.718901 0
M  V30 4248 H 399.252 -1.81136 -3.01468 0
M  V30 4249 H 399.126 -0.230106 -3.76497 0
M  V30 4250 H 401.513 0.312098 -2.93445 0
M  V30 4251 H 401.594 -1.29766 -2.20442 0
M  V30 4252 H 401.238 -2.33655 -4.50963 0
M  V30 4253 H 401.168 -0.703752 -5.21876 0
M  V30 4254 H 403.659 -0.902102 -3.66975 0
M  V30 4255 H 403.972 -2.44594 -7.33071 0
M  V30 4256 H 402.317 -2.19311 -6.59491 0
M  V30 4257 H 405.508 -1.19906 -4.52482 0
M  V30 4258 H 405.681 -1.90284 -6.19432 0
M  V30 4259 N 399.087 1.5561 -0.249682 0
M  V30 4260 C 400.02 2.17537 0.689408 0
M  V30 4261 C 400.998 1.12829 1.17083 0
M  V30 4262 O 402.182 1.41229 1.24846 0
M  V30 4263 C 399.309 2.77828 1.93725 0
M  V30 4264 C 398.355 3.95615 1.59346 0
M  V30 4265 S 399.188 5.30988 0.69367 0
M  V30 4266 C 400.344 5.94734 1.95046 0
M  V30 4267 H 400.577 2.96852 0.163142 0
M  V30 4268 H 398.11 1.54362 -0.0341166 0
M  V30 4269 H 400.068 3.13199 2.65361 0
M  V30 4270 H 398.729 1.98454 2.43465 0
M  V30 4271 H 397.922 4.364 2.52132 0
M  V30 4272 H 397.524 3.61535 0.957512 0
M  V30 4273 H 399.816 6.12419 2.89739 0
M  V30 4274 H 400.759 6.90109 1.58604 0
M  V30 4275 H 401.167 5.23832 2.10381 0
M  V30 4276 N 400.565 -0.0233959 1.57583 0
M  V30 4277 C 401.512 -1.02224 2.06927 0
M  V30 4278 C 402.482 -1.35575 0.959617 0
M  V30 4279 O 403.667 -1.45815 1.23055 0
M  V30 4280 C 400.807 -2.31636 2.5581 0
M  V30 4281 C 399.92 -2.04394 3.80588 0
M  V30 4282 C 399.055 -3.27717 4.18061 0
M  V30 4283 C 398.094 -2.96056 5.3574 0
M  V30 4284 N 397.231 -4.11847 5.68618 0
M  V30 4285 H 402.071 -0.594504 2.9201 0
M  V30 4286 H 399.608 -0.281921 1.44373 0
M  V30 4287 H 401.566 -3.07258 2.82221 0
M  V30 4288 H 400.196 -2.72122 1.73636 0
M  V30 4289 H 399.248 -1.19244 3.61227 0
M  V30 4290 H 400.56 -1.77042 4.66323 0
M  V30 4291 H 399.714 -4.11702 4.4563 0
M  V30 4292 H 398.453 -3.58188 3.30988 0
M  V30 4293 H 397.458 -2.10474 5.07918 0
M  V30 4294 H 398.683 -2.66857 6.24471 0
M  V30 4295 H 396.629 -4.42258 4.84504 0
M  V30 4296 H 396.546 -3.87938 6.48876 0
M  V30 4297 H 397.814 -4.96689 6.00766 0
M  V30 4298 N 402.043 -1.548 -0.295768 0
M  V30 4299 C 403.292 -1.73538 -1.02798 0
M  V30 4300 C 403.605 -0.531159 -1.8825 0
M  V30 4301 O 404.811 -0.600458 -2.64777 0
M  V30 4302 C 403.267 -3.07051 -1.87744 0
M  V30 4303 C 402.875 -4.34968 -1.07269 0
M  V30 4304 C 404.619 -3.35146 -2.60533 0
M  V30 4305 C 402.526 -5.5953 -1.91521 0
M  V30 4306 H 401.456 -0.646794 -0.387522 0
M  V30 4307 H 404.107 -1.81278 -0.284718 0
M  V30 4308 H 402.489 -2.93289 -2.66078 0
M  V30 4309 H 403.663 -4.5958 -0.335117 0
M  V30 4310 H 401.978 -4.13847 -0.460384 0
M  V30 4311 H 404.575 -4.2541 -3.23929 0
M  V30 4312 H 404.918 -2.54255 -3.29636 0
M  V30 4313 H 405.451 -3.49902 -1.89244 0
M  V30 4314 H 402.19 -6.43103 -1.26878 0
M  V30 4315 H 401.71 -5.39096 -2.62937 0
M  V30 4316 H 403.389 -5.96982 -2.49442 0
M  V30 4317 N 403.521 0.559213 -1.47345 0
M  V30 4318 C 404.767 1.31843 -1.54095 0
M  V30 4319 C 405.1 1.93149 -0.201726 0
M  V30 4320 O 404.375 1.77759 0.789428 0
M  V30 4321 C 404.658 2.43006 -2.65744 0
M  V30 4322 C 404.511 1.86581 -4.09277 0
M  V30 4323 C 405.83 3.44943 -2.73318 0
M  V30 4324 H 402.949 0.478012 -0.560957 0
M  V30 4325 H 405.591 0.625977 -1.79392 0
M  V30 4326 H 403.741 3.02072 -2.44305 0
M  V30 4327 H 405.413 1.31792 -4.42073 0
M  V30 4328 H 403.656 1.17268 -4.17649 0
M  V30 4329 H 404.327 2.66933 -4.83168 0
M  V30 4330 H 406.803 2.95793 -2.92653 0
M  V30 4331 H 405.679 4.20153 -3.53218 0
M  V30 4332 H 405.94 4.03665 -1.80296 0
M  V30 4333 N 404.999 1.35443 0.805782 0
M  V30 4334 C 406.276 1.19325 1.54987 0
M  V30 4335 C 406.656 -0.227294 2.09873 0
M  V30 4336 O 406.004 -1.2309 1.92512 0
M  V30 4337 C 406.214 2.26196 2.65775 0
M  V30 4338 C 407.562 2.62043 3.34094 0
M  V30 4339 O 408.586 2.25115 2.76046 0
M  V30 4340 O 407.445 3.25542 4.38958 0
M  V30 4341 H 404.539 0.463623 0.684823 0
M  V30 4342 H 407.085 1.47127 0.845674 0
M  V30 4343 H 405.857 3.21471 2.23096 0
M  V30 4344 H 405.48 1.99667 3.43829 0
M  V30 4345 N 406.477 -1.02803 1.19454 0
M  V30 4346 C 407.723 -1.76478 0.999171 0
M  V30 4347 C 408.056 -1.88456 -0.468828 0
M  V30 4348 O 407.331 -1.40198 -1.34814 0
M  V30 4349 C 407.614 -3.19044 1.66981 0
M  V30 4350 C 407.467 -3.14932 3.21151 0
M  V30 4351 C 408.786 -4.17456 1.39349 0
M  V30 4352 H 405.905 -0.640614 0.364393 0
M  V30 4353 H 408.547 -1.20005 1.47305 0
M  V30 4354 H 406.697 -3.67263 1.2669 0
M  V30 4355 H 408.369 -2.74605 3.70661 0
M  V30 4356 H 406.612 -2.52625 3.52652 0
M  V30 4357 H 407.283 -4.1566 3.63223 0
M  V30 4358 H 409.759 -3.77842 1.74283 0
M  V30 4359 H 408.635 -5.154 1.88823 0
M  V30 4360 H 408.896 -4.40949 0.318813 0
M  V30 4361 N 407.956 -0.998596 -1.21925 0
M  V30 4362 C 409.205 -0.673085 -1.90138 0
M  V30 4363 C 409.518 0.79895 -1.78539 0
M  V30 4364 O 410.724 1.23628 -2.4172 0
M  V30 4365 C 409.18 -1.15339 -3.40918 0
M  V30 4366 C 408.788 -2.65106 -3.61141 0
M  V30 4367 C 410.532 -0.902476 -4.14796 0
M  V30 4368 C 408.439 -3.0671 -5.05651 0
M  V30 4369 H 407.369 -0.248057 -0.712028 0
M  V30 4370 H 410.02 -1.20891 -1.38049 0
M  V30 4371 H 408.402 -0.545658 -3.92223 0
M  V30 4372 H 409.576 -3.31274 -3.20304 0
M  V30 4373 H 407.891 -2.88142 -3.00605 0
M  V30 4374 H 410.488 -1.18895 -5.21314 0
M  V30 4375 H 410.831 0.161349 -4.15987 0
M  V30 4376 H 411.364 -1.47269 -3.69536 0
M  V30 4377 H 408.103 -4.12292 -5.09603 0
M  V30 4378 H 407.623 -2.45249 -5.47369 0
M  V30 4379 H 409.302 -2.9833 -5.74115 0
M  V30 4380 N 409.434 1.37368 -0.772513 0
M  V30 4381 C 410.682 1.99279 -0.336516 0
M  V30 4382 C 411.003 1.6163 1.09091 0
M  V30 4383 O 410.273 0.882109 1.74916 0
M  V30 4384 H 408.853 0.737063 -0.121435 0
M  V30 4385 H 411.515 1.67836 -0.990809 0
M  V30 4386 H 410.611 3.09332 -0.414763 0
M  V30 4387 N 410.912 0.523116 1.48665 0
M  V30 4388 C 411.822 -0.247406 2.33292 0
M  V30 4389 C 412.838 -0.945769 1.46052 0
M  V30 4390 O 414.014 -0.922253 1.79043 0
M  V30 4391 C 411.079 -1.28487 3.22012 0
M  V30 4392 C 410.14 -0.597592 4.2512 0
M  V30 4393 C 409.373 -1.58563 5.09601 0
M  V30 4394 O 409.596 -2.81763 4.95949 0
M  V30 4395 O 408.53 -1.12879 5.91221 0
M  V30 4396 H 412.356 0.445869 3.00409 0
M  V30 4397 H 409.941 0.284128 1.46673 0
M  V30 4398 H 411.823 -1.88459 3.7691 0
M  V30 4399 H 410.498 -1.96068 2.57564 0
M  V30 4400 H 409.405 0.0424407 3.74076 0
M  V30 4401 H 410.738 0.0361517 4.92187 0
M  V30 4402 N 412.39 -1.55475 0.257931 0
M  V30 4403 C 413.337 -2.21837 -0.636939 0
M  V30 4404 C 414.307 -1.18596 -1.16294 0
M  V30 4405 O 415.492 -1.47081 -1.21539 0
M  V30 4406 C 412.632 -2.9301 -1.82317 0
M  V30 4407 C 411.745 -4.10931 -1.33265 0
M  V30 4408 C 410.88 -4.69791 -2.47931 0
M  V30 4409 C 409.919 -5.7994 -1.95796 0
M  V30 4410 N 409.056 -6.32935 -3.0387 0
M  V30 4411 H 413.896 -2.9793 -0.0643591 0
M  V30 4412 H 411.433 -1.47086 -0.0200031 0
M  V30 4413 H 413.391 -3.3248 -2.52018 0
M  V30 4414 H 412.021 -2.1937 -2.36805 0
M  V30 4415 H 411.073 -3.76699 -0.52931 0
M  V30 4416 H 412.385 -4.90417 -0.910654 0
M  V30 4417 H 411.539 -5.11892 -3.25656 0
M  V30 4418 H 410.278 -3.89545 -2.93438 0
M  V30 4419 H 409.283 -5.37305 -1.16546 0
M  V30 4420 H 410.508 -6.62043 -1.51246 0
M  V30 4421 H 408.454 -5.55591 -3.48791 0
M  V30 4422 H 408.371 -7.07645 -2.66035 0
M  V30 4423 H 409.639 -6.79695 -3.81621 0
M  V30 4424 N 413.868 0.0150385 -1.57593 0
M  V30 4425 C 415.117 0.702115 -1.89085 0
M  V30 4426 C 415.43 1.75764 -0.858277 0
M  V30 4427 O 416.636 2.49829 -1.0629 0
M  V30 4428 C 415.092 1.29992 -3.35604 0
M  V30 4429 C 414.7 0.280007 -4.47124 0
M  V30 4430 C 416.444 1.96606 -3.76227 0
M  V30 4431 C 414.351 0.886949 -5.84711 0
M  V30 4432 H 413.281 0.265997 -0.705522 0
M  V30 4433 H 415.932 -0.0430408 -1.8345 0
M  V30 4434 H 414.314 2.09525 -3.36029 0
M  V30 4435 H 415.488 -0.489631 -4.58191 0
M  V30 4436 H 413.803 -0.284835 -4.15425 0
M  V30 4437 H 416.4 2.42893 -4.76347 0
M  V30 4438 H 416.743 2.79024 -3.08952 0
M  V30 4439 H 417.276 1.23828 -3.78036 0
M  V30 4440 H 414.015 0.101876 -6.55421 0
M  V30 4441 H 413.535 1.6261 -5.77337 0
M  V30 4442 H 415.214 1.39011 -6.3189 0
M  V30 4443 N 415.346 1.54954 0.287554 0
M  V30 4444 C 416.576 1.78622 1.03816 0
M  V30 4445 C 416.984 0.552451 1.80955 0
M  V30 4446 O 416.327 -0.487665 1.77109 0
M  V30 4447 C 416.389 2.94975 2.055 0
M  V30 4448 C 416.053 4.32565 1.47433 0
M  V30 4449 C 417.05 5.12096 0.897436 0
M  V30 4450 C 414.735 4.79195 1.50591 0
M  V30 4451 C 416.729 6.36383 0.359851 0
M  V30 4452 C 414.416 6.03441 0.964459 0
M  V30 4453 C 415.414 6.81872 0.392413 0
M  V30 4454 O 415.102 8.03777 -0.140788 0
M  V30 4455 H 414.834 0.599144 0.313053 0
M  V30 4456 H 417.388 2.02761 0.328225 0
M  V30 4457 H 415.618 2.66493 2.80211 0
M  V30 4458 H 417.307 3.06097 2.6657 0
M  V30 4459 H 418.073 4.77209 0.865841 0
M  V30 4460 H 413.952 4.18167 1.94055 0
M  V30 4461 H 417.496 6.97545 -0.0872951 0
M  V30 4462 H 413.393 6.37813 0.993246 0
M  V30 4463 H 414.161 8.18495 -0.0287617 0
M  V30 4464 N 416.824 -0.551391 1.4764 0
M  V30 4465 C 417.771 -1.65796 1.60563 0
M  V30 4466 C 418.741 -1.59932 0.448428 0
M  V30 4467 O 419.926 -1.78679 0.669222 0
M  V30 4468 C 417.066 -3.04108 1.63133 0
M  V30 4469 C 416.179 -3.20365 2.89811 0
M  V30 4470 C 415.314 -4.49109 2.8368 0
M  V30 4471 C 414.353 -4.58819 4.05156 0
M  V30 4472 N 413.49 -5.78926 3.97227 0
M  V30 4473 H 418.33 -1.54088 2.5507 0
M  V30 4474 H 415.867 -0.75052 1.26513 0
M  V30 4475 H 417.825 -3.84207 1.62606 0
M  V30 4476 H 416.455 -3.14637 0.721341 0
M  V30 4477 H 415.507 -2.33659 3.00179 0
M  V30 4478 H 416.819 -3.23402 3.79753 0
M  V30 4479 H 415.973 -5.37475 2.81434 0
M  V30 4480 H 414.712 -4.4856 1.91431 0
M  V30 4481 H 413.717 -3.68864 4.077 0
M  V30 4482 H 414.942 -4.61124 4.98539 0
M  V30 4483 H 412.888 -5.79314 3.07785 0
M  V30 4484 H 412.805 -5.83367 4.80853 0
M  V30 4485 H 414.073 -6.69637 3.99007 0
M  V30 4486 N 418.302 -1.35869 -0.798587 0
M  V30 4487 C 419.579 -1.20145 -1.54352 0
M  V30 4488 C 419.959 0.216161 -2.0999 0
M  V30 4489 O 419.307 1.22068 -1.93162 0
M  V30 4490 C 419.517 -2.27602 -2.64572 0
M  V30 4491 C 420.865 -2.63811 -3.32699 0
M  V30 4492 O 421.889 -2.26576 -2.74849 0
M  V30 4493 O 420.748 -3.27866 -4.37226 0
M  V30 4494 H 417.842 -0.467248 -0.682355 0
M  V30 4495 H 420.388 -1.47574 -0.837859 0
M  V30 4496 H 419.16 -3.2265 -2.21388 0
M  V30 4497 H 418.783 -2.01488 -3.42766 0
M  V30 4498 N 419.78 1.02168 -1.19998 0
M  V30 4499 C 421.028 1.75338 -1.00504 0
M  V30 4500 C 421.349 1.89387 0.464506 0
M  V30 4501 O 420.619 1.43268 1.33608 0
M  V30 4502 H 419.199 0.649564 -0.368885 0
M  V30 4503 H 421.861 1.23205 -1.51018 0
M  V30 4504 H 420.957 2.75892 -1.45912 0
M  V30 4505 N 421.258 1.00505 1.21394 0
M  V30 4506 C 422.168 0.574806 2.27449 0
M  V30 4507 C 423.184 -0.382206 1.6975 0
M  V30 4508 O 424.36 -0.246027 1.99892 0
M  V30 4509 C 421.425 -0.0917414 3.46579 0
M  V30 4510 C 420.486 0.909758 4.1955 0
M  V30 4511 C 419.719 0.274924 5.32991 0
M  V30 4512 O 419.942 -0.928254 5.62796 0
M  V30 4513 O 418.876 0.985877 5.93771 0
M  V30 4514 H 422.702 1.45744 2.66444 0
M  V30 4515 H 420.287 0.773923 1.27792 0
M  V30 4516 H 422.169 -0.464551 4.18832 0
M  V30 4517 H 420.844 -0.948755 3.09484 0
M  V30 4518 H 419.751 1.33372 3.49518 0
M  V30 4519 H 421.084 1.73636 4.60555 0
M  V30 4520 N 422.737 -1.36956 0.779787 0
M  V30 4521 C 424.153 -1.52817 0.460342 0
M  V30 4522 C 424.353 -1.7361 -1.02283 0
M  V30 4523 O 423.409 -1.76207 -1.80852 0
M  V30 4524 C 424.722 -2.71983 1.28241 0
M  V30 4525 C 426.27 -2.85849 1.27512 0
M  V30 4526 C 426.745 -4.08008 2.08072 0
M  V30 4527 N 428.236 -4.15135 2.05467 0
M  V30 4528 C 428.971 -5.08711 2.64577 0
M  V30 4529 N 428.467 -6.07792 3.32506 0
M  V30 4530 N 430.26 -5.01254 2.54363 0
M  V30 4531 H 422.411 -1.21713 1.74068 0
M  V30 4532 H 424.674 -0.593294 0.739396 0
M  V30 4533 H 424.38 -2.63109 2.33381 0
M  V30 4534 H 424.254 -3.65882 0.917088 0
M  V30 4535 H 426.641 -2.94189 0.231686 0
M  V30 4536 H 426.722 -1.92886 1.68014 0
M  V30 4537 H 426.366 -4.00429 3.12441 0
M  V30 4538 H 426.296 -5.001 1.64947 0
M  V30 4539 H 428.787 -3.44189 1.5602 0
M  V30 4540 H 429.1 -6.75739 3.74963 0
M  V30 4541 H 427.445 -6.08047 3.36606 0
M  V30 4542 H 430.636 -4.22795 2.00902 0
M  V30 4543 H 430.809 -5.73995 3.00722 0
M  V30 4544 N 424.215 -0.530993 -1.48385 0
M  V30 4545 C 425.464 0.00474348 -2.01699 0
M  V30 4546 C 425.777 1.35227 -1.41325 0
M  V30 4547 O 426.983 1.97643 -1.86144 0
M  V30 4548 C 425.439 0.0588473 -3.59852 0
M  V30 4549 C 425.047 -1.28385 -4.2921 0
M  V30 4550 C 426.791 0.543358 -4.21008 0
M  V30 4551 C 424.698 -1.19028 -5.79298 0
M  V30 4552 H 423.628 0.00554317 -0.75398 0
M  V30 4553 H 426.279 -0.674924 -1.70637 0
M  V30 4554 H 424.661 0.803612 -3.8776 0
M  V30 4555 H 425.835 -2.04426 -4.12973 0
M  V30 4556 H 424.15 -1.70418 -3.7993 0
M  V30 4557 H 426.747 0.631351 -5.3096 0
M  V30 4558 H 427.09 1.54937 -3.86394 0
M  V30 4559 H 427.623 -0.145754 -3.97533 0
M  V30 4560 H 424.362 -2.17147 -6.18488 0
M  V30 4561 H 423.882 -0.471246 -5.97946 0
M  V30 4562 H 425.561 -0.881365 -6.40969 0
M  V30 4563 N 425.693 1.55336 -0.266172 0
M  V30 4564 C 426.942 1.98574 0.353749 0
M  V30 4565 C 427.255 1.15789 1.57646 0
M  V30 4566 O 428.461 1.49129 2.26876 0
M  V30 4567 C 426.917 3.53403 0.680747 0
M  V30 4568 C 426.525 4.44953 -0.52165 0
M  V30 4569 C 428.269 4.05251 1.26379 0
M  V30 4570 C 426.176 5.91156 -0.169736 0
M  V30 4571 H 425.106 0.741643 0.135949 0
M  V30 4572 H 427.757 1.79743 -0.369421 0
M  V30 4573 H 426.139 3.68001 1.46257 0
M  V30 4574 H 427.313 4.42121 -1.29869 0
M  V30 4575 H 425.628 4.03691 -1.02093 0
M  V30 4576 H 428.225 5.12021 1.54074 0
M  V30 4577 H 428.568 3.53749 2.19471 0
M  V30 4578 H 429.101 3.94057 0.544447 0
M  V30 4579 H 425.84 6.46736 -1.0683 0
M  V30 4580 H 425.36 5.97079 0.570717 0
M  V30 4581 H 427.039 6.4655 0.241245 0
M  V30 4582 N 427.171 -0.0066808 1.57599 0
M  V30 4583 C 428.399 -0.704087 1.94551 0
M  V30 4584 C 428.814 -1.67677 0.867746 0
M  V30 4585 O 428.171 -1.8185 -0.153925 0
M  V30 4586 C 428.222 -1.44177 3.31505 0
M  V30 4587 O 427.943 -0.508097 4.35144 0
M  V30 4588 C 429.444 -2.23429 3.82876 0
M  V30 4589 H 426.664 -0.196523 0.641576 0
M  V30 4590 H 429.208 0.042453 2.04456 0
M  V30 4591 H 427.363 -2.13999 3.22929 0
M  V30 4592 H 427.777 -1.02782 5.14331 0
M  V30 4593 H 429.251 -2.70552 4.8115 0
M  V30 4594 H 429.728 -3.05818 3.15233 0
M  V30 4595 H 430.334 -1.58636 3.94607 0
M  V30 4596 N 428.649 -1.55105 -0.279332 0
M  V30 4597 C 429.581 -1.83952 -1.36727 0
M  V30 4598 C 430.594 -0.723642 -1.45833 0
M  V30 4599 O 431.783 -1.00141 -1.47763 0
M  V30 4600 C 428.883 -1.98183 -2.74912 0
M  V30 4601 C 428.056 -3.28787 -2.88475 0
M  V30 4602 C 427.115 -3.33162 -4.07295 0
M  V30 4603 O 426.141 -4.06576 -3.98353 0
M  V30 4604 N 427.343 -2.60109 -5.18964 0
M  V30 4605 H 430.108 -2.77853 -1.12328 0
M  V30 4606 H 427.669 -1.54945 -0.469442 0
M  V30 4607 H 429.661 -1.98488 -3.52682 0
M  V30 4608 H 428.231 -1.11177 -2.92162 0
M  V30 4609 H 427.451 -3.41075 -1.97641 0
M  V30 4610 H 428.739 -4.14933 -2.94463 0
M  V30 4611 H 428.137 -2.00136 -5.29115 0
M  V30 4612 H 426.694 -2.66143 -5.94988 0
M  V30 4613 N 430.127 0.543554 -1.4793 0
M  V30 4614 C 431.375 1.29752 -1.54948 0
M  V30 4615 C 431.696 1.93764 -0.219242 0
M  V30 4616 O 430.966 1.80639 0.75805 0
M  V30 4617 H 429.546 0.481874 -0.570795 0
M  V30 4618 H 432.208 0.633636 -1.84312 0
M  V30 4619 H 431.304 2.08392 -2.32334 0
M  V30 4620 N 431.605 1.3629 0.791371 0
M  V30 4621 C 432.515 1.32606 1.93527 0
M  V30 4622 C 433.531 0.228541 1.72493 0
M  V30 4623 O 434.707 0.460571 1.96063 0
M  V30 4624 C 431.772 1.11271 3.28359 0
M  V30 4625 C 430.833 2.3048 3.62185 0
M  V30 4626 C 430.066 2.10154 4.90583 0
M  V30 4627 O 430.289 1.07572 5.60165 0
M  V30 4628 O 429.223 2.97884 5.23019 0
M  V30 4629 H 433.049 2.28909 1.99585 0
M  V30 4630 H 430.634 1.16818 0.931344 0
M  V30 4631 H 432.516 1.01283 4.09047 0
M  V30 4632 H 431.191 0.180292 3.23198 0
M  V30 4633 H 430.098 2.46036 2.81811 0
M  V30 4634 H 431.431 3.22221 3.72068 0
M  V30 4635 N 433.083 -1.0153 1.20538 0
M  V30 4636 C 434.03 -2.10098 0.955383 0
M  V30 4637 C 435 -1.65702 -0.114878 0
M  V30 4638 O 436.185 -1.90776 0.0301118 0
M  V30 4639 C 433.325 -3.41236 0.514969 0
M  V30 4640 C 432.438 -3.99102 1.65353 0
M  V30 4641 C 431.573 -5.18306 1.16329 0
M  V30 4642 C 430.612 -5.68258 2.27485 0
M  V30 4643 N 429.749 -6.78722 1.7967 0
M  V30 4644 H 434.589 -2.30818 1.88486 0
M  V30 4645 H 432.126 -1.13189 0.939499 0
M  V30 4646 H 434.084 -4.16504 0.240935 0
M  V30 4647 H 432.714 -3.20585 -0.377512 0
M  V30 4648 H 431.766 -3.20918 2.04245 0
M  V30 4649 H 433.078 -4.32177 2.49047 0
M  V30 4650 H 432.232 -6.00782 0.845302 0
M  V30 4651 H 430.971 -4.86799 0.296254 0
M  V30 4652 H 429.976 -4.84385 2.60099 0
M  V30 4653 H 431.201 -6.01798 3.14667 0
M  V30 4654 H 429.147 -6.49042 0.95295 0
M  V30 4655 H 429.064 -7.10996 2.56944 0
M  V30 4656 H 430.332 -7.64759 1.50875 0
M  V30 4657 N 434.561 -1.01147 -1.20859 0
M  V30 4658 C 435.524 -0.582224 -2.21682 0
M  V30 4659 C 436.524 0.344887 -1.57058 0
M  V30 4660 O 437.714 0.134281 -1.73682 0
M  V30 4661 C 434.846 0.150496 -3.40568 0
M  V30 4662 H 436.039 -1.47408 -2.61172 0
M  V30 4663 H 433.592 -0.800695 -1.34233 0
M  V30 4664 H 434.327 1.0575 -3.06574 0
M  V30 4665 H 434.112 -0.515444 -3.88697 0
M  V30 4666 H 435.602 0.438344 -4.15293 0
M  V30 4667 N 436.039 1.36541 -0.78704 0
M  V30 4668 C 437.316 1.9355 -0.282424 0
M  V30 4669 C 437.696 1.71919 1.22503 0
M  V30 4670 O 437.044 1.07677 2.01539 0
M  V30 4671 C 437.254 3.4246 -0.672462 0
M  V30 4672 C 438.602 4.19582 -0.650863 0
M  V30 4673 O 439.626 3.50889 -0.612789 0
M  V30 4674 O 438.485 5.42106 -0.691623 0
M  V30 4675 H 435.579 0.824091 -0.0693 0
M  V30 4676 H 438.125 1.45736 -0.869423 0
M  V30 4677 H 436.897 3.51851 -1.71221 0
M  V30 4678 H 436.52 3.97556 -0.0592211 0
M  V30 4679 N 437.518 0.538854 1.48102 0
M  V30 4680 C 438.743 0.0102694 2.07397 0
M  V30 4681 C 439.168 -1.26562 1.39153 0
M  V30 4682 O 438.526 -1.75357 0.460387 0
M  V30 4683 C 438.574 -0.187602 3.60112 0
M  V30 4684 O 437.678 -1.25432 3.92862 0
M  V30 4685 H 437.019 0.0430975 0.6626 0
M  V30 4686 H 439.549 0.749301 1.90385 0
M  V30 4687 H 439.559 -0.407517 4.0596 0
M  V30 4688 H 438.234 0.744386 4.09184 0
M  V30 4689 H 436.811 -1.01636 3.58782 0
M  V30 4690 N 438.996 -1.55193 0.274407 0
M  V30 4691 C 440.243 -1.99581 -0.342579 0
M  V30 4692 C 440.571 -1.1628 -1.55914 0
M  V30 4693 O 439.826 -0.22029 -1.94456 0
M  V30 4694 C 440.125 -3.49019 -0.769458 0
M  V30 4695 C 439.791 -4.49598 0.342389 0
M  V30 4696 C 438.453 -4.76821 0.647686 0
M  V30 4697 C 440.805 -5.0964 1.09163 0
M  V30 4698 C 438.133 -5.61354 1.70581 0
M  V30 4699 C 440.485 -5.95323 2.13948 0
M  V30 4700 C 439.149 -6.20867 2.45113 0
M  V30 4701 H 438.419 -0.730319 -0.125358 0
M  V30 4702 H 441.066 -1.87529 0.387971 0
M  V30 4703 H 439.371 -3.58544 -1.57967 0
M  V30 4704 H 441.068 -3.8077 -1.25757 0
M  V30 4705 H 437.658 -4.28496 0.094318 0
M  V30 4706 H 441.842 -4.88632 0.869024 0
M  V30 4707 H 437.098 -5.79392 1.9523 0
M  V30 4708 H 441.272 -6.40881 2.72478 0
M  V30 4709 H 438.899 -6.86162 3.27239 0
M  V30 4710 N 440.474 -0.00167713 -1.576 0
M  V30 4711 C 441.704 0.692754 -1.94639 0
M  V30 4712 C 442.112 1.67744 -0.87513 0
M  V30 4713 O 441.455 1.8305 0.154382 0
M  V30 4714 C 441.517 1.47881 -3.27676 0
M  V30 4715 C 441.181 0.655518 -4.52274 0
M  V30 4716 C 442.178 -0.0575214 -5.19868 0
M  V30 4717 C 439.863 0.600994 -4.98692 0
M  V30 4718 C 441.857 -0.814052 -6.3218 0
M  V30 4719 C 439.544 -0.15926 -6.10892 0
M  V30 4720 C 440.542 -0.865515 -6.77494 0
M  V30 4721 O 440.23 -1.61336 -7.87544 0
M  V30 4722 H 439.962 0.197792 -0.646417 0
M  V30 4723 H 442.516 -0.049423 -2.05341 0
M  V30 4724 H 440.746 2.2655 -3.13388 0
M  V30 4725 H 442.435 2.05874 -3.49816 0
M  V30 4726 H 443.201 -0.0245611 -4.84994 0
M  V30 4727 H 439.08 1.14025 -4.46676 0
M  V30 4728 H 442.624 -1.36584 -6.84098 0
M  V30 4729 H 438.521 -0.194035 -6.45208 0
M  V30 4730 H 439.289 -1.53025 -8.04068 0
M  V30 4731 N 441.952 1.55251 0.271103 0
M  V30 4732 C 443.201 1.75151 1.00025 0
M  V30 4733 C 443.514 0.561041 1.87381 0
M  V30 4734 O 444.72 0.642506 2.63788 0
M  V30 4735 C 443.176 3.09999 1.82835 0
M  V30 4736 C 442.784 4.3662 1.00336 0
M  V30 4737 C 444.528 3.39249 2.55168 0
M  V30 4738 C 442.435 5.62506 1.82595 0
M  V30 4739 H 441.365 0.652877 0.377183 0
M  V30 4740 H 444.016 1.81708 0.255843 0
M  V30 4741 H 442.398 2.97485 2.61378 0
M  V30 4742 H 443.572 4.60055 0.261959 0
M  V30 4743 H 441.887 4.14527 0.394486 0
M  V30 4744 H 444.484 4.3051 3.1712 0
M  V30 4745 H 444.827 2.59467 3.2555 0
M  V30 4746 H 445.36 3.52869 1.83653 0
M  V30 4747 H 442.099 6.45041 1.16631 0
M  V30 4748 H 441.619 5.43211 2.54327 0
M  V30 4749 H 443.298 6.00875 2.39913 0
M  V30 4750 N 443.43 -0.535701 1.48216 0
M  V30 4751 C 444.679 -1.28828 1.55197 0
M  V30 4752 C 444.992 -1.94263 0.228278 0
M  V30 4753 O 446.198 -2.70927 0.176278 0
M  V30 4754 C 444.654 -2.33727 2.73678 0
M  V30 4755 C 444.262 -1.74386 4.12666 0
M  V30 4756 C 446.006 -3.1003 2.89968 0
M  V30 4757 C 443.913 -2.77192 5.22416 0
M  V30 4758 H 442.843 -0.484484 0.577747 0
M  V30 4759 H 445.494 -0.56646 1.74538 0
M  V30 4760 H 443.876 -3.08919 2.4776 0
M  V30 4761 H 445.05 -1.05421 4.48579 0
M  V30 4762 H 443.365 -1.10595 4.01445 0
M  V30 4763 H 445.962 -3.86842 3.6913 0
M  V30 4764 H 446.305 -3.65542 1.9921 0
M  V30 4765 H 446.838 -2.41952 3.15759 0
M  V30 4766 H 443.577 -2.26507 6.15122 0
M  V30 4767 H 443.097 -3.44502 4.90998 0
M  V30 4768 H 444.776 -3.40285 5.50286 0
M  V30 4769 N 444.908 -1.36708 -0.784132 0
M  V30 4770 C 445.818 -1.3363 -1.92822 0
M  V30 4771 C 446.834 -0.237686 -1.72369 0
M  V30 4772 O 448.01 -0.470962 -1.95816 0
M  V30 4773 C 445.075 -1.13011 -3.27764 0
M  V30 4774 C 444.136 -2.32397 -3.60957 0
M  V30 4775 C 443.369 -2.12752 -4.89461 0
M  V30 4776 O 443.592 -1.10541 -5.59586 0
M  V30 4777 O 442.526 -3.00653 -5.21432 0
M  V30 4778 H 446.352 -2.29964 -1.98369 0
M  V30 4779 H 443.937 -1.1731 -0.925136 0
M  V30 4780 H 445.819 -1.03451 -4.08504 0
M  V30 4781 H 444.494 -0.19743 -3.23097 0
M  V30 4782 H 443.401 -2.47527 -2.80502 0
M  V30 4783 H 444.734 -3.2419 -3.70354 0
M  V30 4784 N 446.386 1.0089 -1.21074 0
M  V30 4785 C 447.611 1.78727 -1.05221 0
M  V30 4786 C 448.036 1.83932 0.393795 0
M  V30 4787 O 447.394 1.28004 1.28393 0
M  V30 4788 C 447.442 3.20665 -1.64944 0
M  V30 4789 O 446.546 4.02632 -0.892273 0
M  V30 4790 H 445.887 0.550973 -0.370574 0
M  V30 4791 H 448.417 1.26847 -1.60534 0
M  V30 4792 H 448.427 3.71352 -1.69002 0
M  V30 4793 H 447.102 3.16191 -2.70177 0
M  V30 4794 H 445.679 3.61207 -0.926492 0
M  V30 4795 N 447.864 1.01787 1.20321 0
M  V30 4796 C 449.112 0.706538 1.89347 0
M  V30 4797 C 449.433 -0.766289 1.79313 0
M  V30 4798 O 448.703 -1.55126 1.19635 0
M  V30 4799 H 447.283 0.258348 0.700903 0
M  V30 4800 H 449.945 1.28974 1.46122 0
M  V30 4801 H 449.041 0.991066 2.95946 0
M  V30 4802 N 449.342 -1.36122 0.79427 0
M  V30 4803 C 450.252 -2.33769 0.197296 0
M  V30 4804 C 451.268 -1.61276 -0.653153 0
M  V30 4805 O 452.444 -1.9323 -0.5678 0
M  V30 4806 C 449.509 -3.40474 -0.654098 0
M  V30 4807 C 448.57 -4.28759 0.215411 0
M  V30 4808 C 447.803 -5.30368 -0.595443 0
M  V30 4809 O 448.026 -5.40211 -1.83107 0
M  V30 4810 O 446.96 -6.019 0.00721351 0
M  V30 4811 H 450.786 -2.86597 1.00478 0
M  V30 4812 H 448.371 -1.38676 0.555818 0
M  V30 4813 H 450.253 -4.05703 -1.13944 0
M  V30 4814 H 448.928 -2.89937 -1.43938 0
M  V30 4815 H 447.835 -3.66554 0.747615 0
M  V30 4816 H 449.168 -4.82661 0.964332 0
M  V30 4817 N 450.82 -0.546701 -1.47814 0
M  V30 4818 C 452.066 -0.0187684 -2.02791 0
M  V30 4819 C 452.399 1.32338 -1.42128 0
M  V30 4820 O 451.674 1.85867 -0.573023 0
M  V30 4821 C 451.957 0.0854985 -3.59998 0
M  V30 4822 C 451.81 -1.283 -4.31114 0
M  V30 4823 C 453.129 0.80412 -4.32691 0
M  V30 4824 H 450.248 -0.0082946 -0.736953 0
M  V30 4825 H 452.89 -0.706962 -1.76358 0
M  V30 4826 H 451.04 0.671609 -3.82651 0
M  V30 4827 H 452.712 -1.91151 -4.19832 0
M  V30 4828 H 450.955 -1.86049 -3.91878 0
M  V30 4829 H 451.626 -1.16287 -5.39612 0
M  V30 4830 H 454.102 0.306576 -4.14969 0
M  V30 4831 H 452.978 0.846011 -5.42341 0
M  V30 4832 H 453.239 1.85802 -4.01161 0
M  V30 4833 N 452.299 1.55045 -0.282633 0
M  V30 4834 C 453.524 2.04628 0.337977 0
M  V30 4835 C 453.949 1.15937 1.48123 0
M  V30 4836 O 453.307 0.159532 1.80597 0
M  V30 4837 C 453.355 3.51854 0.78936 0
M  V30 4838 O 452.459 3.66236 1.89592 0
M  V30 4839 H 451.8 0.660434 0.0687261 0
M  V30 4840 H 454.33 2.00261 -0.419124 0
M  V30 4841 H 454.34 3.93361 1.08311 0
M  V30 4842 H 453.015 4.15873 -0.0470419 0
M  V30 4843 H 451.592 3.36633 1.60413 0
M  V30 4844 N 453.777 0.010035 1.57597 0
M  V30 4845 C 455.026 -0.671945 1.90178 0
M  V30 4846 C 455.339 -1.74376 0.886131 0
M  V30 4847 O 456.545 -2.48107 1.10252 0
M  V30 4848 C 455.001 -1.24636 3.3763 0
M  V30 4849 C 454.609 -0.208838 4.47513 0
M  V30 4850 C 456.353 -1.90595 3.79307 0
M  V30 4851 C 454.26 -0.793814 5.86048 0
M  V30 4852 H 453.19 -0.25474 0.709665 0
M  V30 4853 H 455.841 0.0722206 1.83358 0
M  V30 4854 H 454.223 -2.04152 3.3932 0
M  V30 4855 H 455.397 0.562463 4.57354 0
M  V30 4856 H 453.712 0.350889 4.14919 0
M  V30 4857 H 456.309 -2.35284 4.80151 0
M  V30 4858 H 456.652 -2.74074 3.13352 0
M  V30 4859 H 457.185 -1.17798 3.79958 0
M  V30 4860 H 453.924 0.00240855 6.555 0
M  V30 4861 H 453.444 -1.53404 5.79851 0
M  V30 4862 H 455.123 -1.2894 6.34022 0
M  V30 4863 N 455.255 -1.55392 -0.262866 0
M  V30 4864 C 456.185 -1.91978 -1.32917 0
M  V30 4865 C 457.166 -0.7828 -1.51017 0
M  V30 4866 O 458.351 -1.04178 -1.63892 0
M  V30 4867 C 455.481 -2.20055 -2.68687 0
M  V30 4868 C 454.435 -3.35854 -2.65304 0
M  V30 4869 C 453.761 -3.49435 -4.04721 0
M  V30 4870 C 455.061 -4.71977 -2.23685 0
M  V30 4871 H 456.755 -2.81292 -1.02544 0
M  V30 4872 H 454.301 -1.3534 -0.491846 0
M  V30 4873 H 456.254 -2.44237 -3.43404 0
M  V30 4874 H 454.978 -1.27551 -3.00663 0
M  V30 4875 H 453.637 -3.11655 -1.93045 0
M  V30 4876 H 453.285 -2.54379 -4.33936 0
M  V30 4877 H 452.985 -4.27297 -4.0335 0
M  V30 4878 H 454.509 -3.7592 -4.81161 0
M  V30 4879 H 455.923 -4.95637 -2.88127 0
M  V30 4880 H 454.32 -5.52828 -2.33456 0
M  V30 4881 H 455.39 -4.70115 -1.18827 0
M  V30 4882 N 456.733 0.527833 -1.48498 0
M  V30 4883 C 457.982 1.28003 -1.55878 0
M  V30 4884 C 458.295 1.9414 -0.238577 0
M  V30 4885 O 459.501 2.7083 -0.190643 0
M  V30 4886 C 457.957 2.32272 -2.74914 0
M  V30 4887 C 457.565 1.72196 -4.13585 0
M  V30 4888 C 459.309 3.08488 -2.91608 0
M  V30 4889 C 457.216 2.74417 -5.23879 0
M  V30 4890 H 456.146 0.481413 -0.580308 0
M  V30 4891 H 458.797 0.557195 -1.74836 0
M  V30 4892 H 457.179 3.07601 -2.49395 0
M  V30 4893 H 458.353 1.03041 -4.49132 0
M  V30 4894 H 456.668 1.08464 -4.02025 0
M  V30 4895 H 459.265 3.84879 -3.71177 0
M  V30 4896 H 459.608 3.64481 -2.01145 0
M  V30 4897 H 460.141 2.40274 -3.17038 0
M  V30 4898 H 456.88 2.23242 -6.16314 0
M  V30 4899 H 456.4 3.41893 -4.92818 0
M  V30 4900 H 458.079 3.37362 -5.52083 0
M  V30 4901 N 458.211 1.37122 0.776871 0
M  V30 4902 C 459.627 1.1781 1.07671 0
M  V30 4903 C 459.827 0.0107454 2.01497 0
M  V30 4904 O 458.883 -0.650756 2.4397 0
M  V30 4905 C 460.196 2.49451 1.67913 0
M  V30 4906 C 461.744 2.55927 1.80195 0
M  V30 4907 C 462.219 3.87686 2.43851 0
M  V30 4908 N 463.71 3.891 2.51307 0
M  V30 4909 C 464.445 4.87797 3.014 0
M  V30 4910 N 463.941 5.96888 3.51705 0
M  V30 4911 N 465.734 4.75205 3.00227 0
M  V30 4912 H 457.885 2.11843 0.153778 0
M  V30 4913 H 460.148 0.938927 0.130844 0
M  V30 4914 H 459.854 3.35207 1.06439 0
M  V30 4915 H 459.728 2.66169 2.67271 0
M  V30 4916 H 462.115 1.70582 2.40803 0
M  V30 4917 H 462.196 2.43097 0.796069 0
M  V30 4918 H 461.84 4.73444 1.83884 0
M  V30 4919 H 461.77 3.97817 3.45035 0
M  V30 4920 H 464.261 3.10293 2.157 0
M  V30 4921 H 464.574 6.68155 3.88316 0
M  V30 4922 H 462.919 6.0054 3.49824 0
M  V30 4923 H 466.11 3.89103 2.60224 0
M  V30 4924 H 466.283 5.52279 3.38957 0
M  V30 4925 N 459.689 -1.00246 1.21608 0
M  V30 4926 C 460.914 -1.78167 1.06167 0
M  V30 4927 C 461.339 -1.84138 -0.384035 0
M  V30 4928 O 460.697 -1.28683 -1.27712 0
M  V30 4929 C 460.745 -3.19786 1.66642 0
M  V30 4930 O 459.849 -4.02153 0.913613 0
M  V30 4931 H 459.19 -0.549 0.37349 0
M  V30 4932 H 461.72 -1.25994 1.61204 0
M  V30 4933 H 461.73 -3.70451 1.70969 0
M  V30 4934 H 460.405 -3.14754 2.7185 0
M  V30 4935 H 458.982 -3.60711 0.945635 0
M  V30 4936 N 461.167 -1.02423 -1.1978 0
M  V30 4937 C 462.583 -0.740459 -1.41384 0
M  V30 4938 C 462.783 0.676827 -1.89793 0
M  V30 4939 O 461.839 1.4435 -2.0717 0
M  V30 4940 C 463.152 -1.77264 -2.42895 0
M  V30 4941 C 464.7 -1.79165 -2.56649 0
M  V30 4942 C 465.175 -2.8133 -3.6141 0
M  V30 4943 N 466.666 -2.80118 -3.68901 0
M  V30 4944 C 467.401 -3.55824 -4.49641 0
M  V30 4945 N 466.897 -4.41231 -5.34123 0
M  V30 4946 N 468.69 -3.44387 -4.44246 0
M  V30 4947 H 460.841 -1.9391 -0.866764 0
M  V30 4948 H 463.104 -0.838074 -0.443098 0
M  V30 4949 H 462.81 -2.7884 -2.14339 0
M  V30 4950 H 462.684 -1.59108 -3.42001 0
M  V30 4951 H 465.071 -0.782702 -2.84531 0
M  V30 4952 H 465.152 -2.01396 -1.57713 0
M  V30 4953 H 464.796 -3.82394 -3.34271 0
M  V30 4954 H 464.726 -2.56359 -4.59986 0
M  V30 4955 H 467.217 -2.1817 -3.08562 0
M  V30 4956 H 467.53 -4.95747 -5.92836 0
M  V30 4957 H 465.875 -4.45306 -5.33599 0
M  V30 4958 H 469.066 -2.7708 -3.77285 0
M  V30 4959 H 469.239 -4.0364 -5.06931 0
M  V30 4960 N 462.645 1.35699 -0.801477 0
M  V30 4961 C 463.873 2.03157 -0.391768 0
M  V30 4962 C 464.288 1.60412 0.995668 0
M  V30 4963 O 463.645 0.799228 1.64069 0
M  V30 4964 C 463.696 3.58566 -0.459671 0
M  V30 4965 O 463.417 3.99756 -1.7924 0
M  V30 4966 C 464.918 4.4328 -0.0421205 0
M  V30 4967 H 462.138 0.651688 -0.159825 0
M  V30 4968 H 464.682 1.73426 -1.08368 0
M  V30 4969 H 462.837 3.86963 0.183939 0
M  V30 4970 H 463.251 4.94387 -1.75162 0
M  V30 4971 H 464.725 5.51821 -0.140754 0
M  V30 4972 H 465.202 4.27383 1.01196 0
M  V30 4973 H 465.808 4.20168 -0.658687 0
M  V30 4974 N 464.123 0.554532 1.47522 0
M  V30 4975 C 465.07 -0.19466 2.29978 0
M  V30 4976 C 466.04 -0.910882 1.38896 0
M  V30 4977 O 467.225 -0.907102 1.67858 0
M  V30 4978 C 464.365 -1.22035 3.22802 0
M  V30 4979 C 463.478 -0.510474 4.28973 0
M  V30 4980 C 462.613 -1.52123 5.08952 0
M  V30 4981 C 461.652 -0.796173 6.069 0
M  V30 4982 N 460.789 -1.75363 6.79847 0
M  V30 4983 H 465.629 0.51461 2.93523 0
M  V30 4984 H 463.166 0.265607 1.44682 0
M  V30 4985 H 465.124 -1.8276 3.7504 0
M  V30 4986 H 463.754 -1.89769 2.61127 0
M  V30 4987 H 462.806 0.211234 3.79813 0
M  V30 4988 H 464.118 0.0576503 4.98767 0
M  V30 4989 H 463.272 -2.20207 5.65326 0
M  V30 4990 H 462.011 -2.12327 4.39054 0
M  V30 4991 H 461.016 -0.101388 5.49707 0
M  V30 4992 H 462.241 -0.199911 6.78806 0
M  V30 4993 H 460.187 -2.3443 6.12682 0
M  V30 4994 H 460.104 -1.23759 7.45801 0
M  V30 4995 H 461.372 -2.4257 7.40797 0
M  V30 4996 N 465.601 -1.54893 0.290851 0
M  V30 4997 C 466.826 -2.04804 -0.32712 0
M  V30 4998 C 467.251 -1.16721 -1.47506 0
M  V30 4999 O 466.609 -0.169107 -1.8051 0
M  V30 5000 C 466.657 -3.52268 -0.770689 0
M  V30 5001 O 465.761 -3.67236 -1.87647 0
M  V30 5002 H 465.102 -0.660789 -0.0652227 0
M  V30 5003 H 467.632 -2.00036 0.429739 0
M  V30 5004 H 467.642 -3.9393 -1.06223 0
M  V30 5005 H 466.317 -4.15843 0.069096 0
M  V30 5006 H 464.894 -3.37479 -1.58626 0
M  V30 5007 N 467.08 -0.0183926 -1.57589 0
M  V30 5008 C 468.028 0.985111 -2.10709 0
M  V30 5009 C 469.022 1.34397 -1.0312 0
M  V30 5010 O 470.228 1.32746 -1.21567 0
M  V30 5011 H 466.603 0.335418 -0.673052 0
M  V30 5012 H 468.574 0.511689 -2.9398 0
M  V30 5013 C 467.323 2.26202 -2.64061 0
M  V30 5014 H 466.646 1.9946 -3.4649 0
M  V30 5015 H 468.086 2.94652 -3.04887 0
M  V30 5016 C 466.545 2.98444 -1.5631 0
M  V30 5017 O 467.075 3.90142 -0.956674 0
M  V30 5018 N 465.281 2.6059 -1.28612 0
M  V30 5019 H 464.828 1.86101 -1.78112 0
M  V30 5020 H 464.786 3.09238 -0.567406 0
M  V30 5021 N 468.558 1.5553 0.254621 0
M  V30 5022 C 469.505 1.89666 1.31512 0
M  V30 5023 C 470.475 0.750057 1.482 0
M  V30 5024 O 471.66 1.00301 1.62309 0
M  V30 5025 C 468.8 2.19009 2.667 0
M  V30 5026 C 467.913 3.46435 2.58083 0
M  V30 5027 C 467.048 3.65386 3.85573 0
M  V30 5028 C 466.087 4.8644 3.71541 0
M  V30 5029 N 465.224 5.01952 4.90906 0
M  V30 5030 H 470.064 2.80109 1.017 0
M  V30 5031 H 467.601 1.38666 0.490938 0
M  V30 5032 H 469.559 2.34025 3.45381 0
M  V30 5033 H 468.189 1.31779 2.94676 0
M  V30 5034 H 467.241 3.39792 1.71013 0
M  V30 5035 H 468.553 4.35258 2.43622 0
M  V30 5036 H 467.707 3.80319 4.72697 0
M  V30 5037 H 466.446 2.74781 4.02922 0
M  V30 5038 H 465.451 4.71491 2.82801 0
M  V30 5039 H 466.676 5.78497 3.55694 0
M  V30 5040 H 464.622 4.14283 5.08631 0
M  V30 5041 H 464.539 5.84851 4.79046 0
M  V30 5042 H 465.807 5.21289 5.7955 0
M  V30 5043 N 470.036 -0.519951 1.48776 0
M  V30 5044 C 471.313 -1.28123 1.47797 0
M  V30 5045 C 471.693 -2.10196 0.195157 0
M  V30 5046 O 471.041 -2.13167 -0.822925 0
M  V30 5047 C 471.251 -2.15413 2.74587 0
M  V30 5048 C 472.599 -2.75225 3.23321 0
M  V30 5049 O 473.623 -2.25694 2.75574 0
M  V30 5050 O 472.482 -3.65346 4.06429 0
M  V30 5051 H 469.576 -0.578793 0.590701 0
M  V30 5052 H 472.122 -0.535779 1.6102 0
M  V30 5053 H 470.894 -1.54617 3.59457 0
M  V30 5054 H 470.517 -2.97186 2.64132 0
M  V30 5055 N 471.514 -1.37532 -0.769588 0
M  V30 5056 C 472.762 -1.32597 -1.5252 0
M  V30 5057 C 473.083 0.0884294 -1.94799 0
M  V30 5058 O 472.353 1.03289 -1.66458 0
M  V30 5059 H 470.933 -0.487846 -0.565699 0
M  V30 5060 H 473.595 -1.72044 -0.915806 0
M  V30 5061 H 472.691 -1.96643 -2.42359 0
M  V30 5062 N 472.992 0.995999 -1.22138 0
M  V30 5063 C 474.24 1.73167 -1.042 0
M  V30 5064 C 474.561 1.90329 0.42423 0
M  V30 5065 O 473.831 1.4607 1.30539 0
M  V30 5066 H 472.411 0.641593 -0.38258 0
M  V30 5067 H 475.073 1.19974 -1.53598 0
M  V30 5068 H 474.169 2.72734 -1.51731 0
M  V30 5069 N 474.47 1.03057 1.19235 0
M  V30 5070 C 475.418 0.606391 2.24557 0
M  V30 5071 C 476.412 -0.361826 1.65491 0
M  V30 5072 O 477.618 -0.23022 1.78522 0
M  V30 5073 H 473.993 0.177838 0.730669 0
M  V30 5074 H 475.964 1.50529 2.5765 0
M  V30 5075 C 474.713 -0.0252127 3.47691 0
M  V30 5076 H 474.036 0.710838 3.9343 0
M  V30 5077 H 475.476 -0.284931 4.23042 0
M  V30 5078 C 473.935 -1.27229 3.11953 0
M  V30 5079 O 474.465 -2.36416 3.24762 0
M  V30 5080 N 472.671 -1.16169 2.6637 0
M  V30 5081 H 472.218 -0.273189 2.56147 0
M  V30 5082 H 472.176 -1.99703 2.42829 0
M  V30 5083 N 475.948 -1.35272 0.808662 0
M  V30 5084 C 476.88 -2.28507 0.178149 0
M  V30 5085 C 477.893 -1.50377 -0.623754 0
M  V30 5086 O 479.082 -1.72583 -0.455774 0
M  V30 5087 C 476.182 -3.30038 -0.769959 0
M  V30 5088 C 475.355 -4.37398 -0.0139749 0
M  V30 5089 C 474.414 -5.18775 -0.880875 0
M  V30 5090 O 473.44 -5.68236 -0.331059 0
M  V30 5091 N 474.642 -5.37087 -2.20267 0
M  V30 5092 H 477.407 -2.83255 0.979106 0
M  V30 5093 H 474.968 -1.47643 0.664308 0
M  V30 5094 H 476.96 -3.81371 -1.35418 0
M  V30 5095 H 475.53 -2.75789 -1.47171 0
M  V30 5096 H 474.75 -3.86971 0.751468 0
M  V30 5097 H 476.038 -5.06268 0.506965 0
M  V30 5098 H 475.436 -4.9855 -2.67328 0
M  V30 5099 H 473.993 -5.91593 -2.73608 0
M  V30 5100 N 477.426 -0.562348 -1.47226 0
M  V30 5101 C 478.336 0.185466 -2.33866 0
M  V30 5102 C 479.352 0.906713 -1.48508 0
M  V30 5103 O 480.528 0.874458 -1.81425 0
M  V30 5104 C 477.593 1.19904 -3.25306 0
M  V30 5105 C 476.654 0.484669 -4.26555 0
M  V30 5106 C 475.887 1.44996 -5.13626 0
M  V30 5107 O 476.11 2.68515 -5.03245 0
M  V30 5108 O 475.044 0.971642 -5.94006 0
M  V30 5109 H 478.87 -0.525361 -2.99121 0
M  V30 5110 H 476.455 -0.322916 -1.45868 0
M  V30 5111 H 478.337 1.78399 -3.81774 0
M  V30 5112 H 477.012 1.8917 -2.62672 0
M  V30 5113 H 475.919 -0.141605 -3.73832 0
M  V30 5114 H 477.252 -0.166634 -4.91918 0
M  V30 5115 N 478.904 1.54736 -0.299062 0
M  V30 5116 C 480.15 2.00397 0.311244 0
M  V30 5117 C 480.483 1.18716 1.53688 0
M  V30 5118 O 479.758 0.263154 1.92712 0
M  V30 5119 C 480.041 3.53817 0.669761 0
M  V30 5120 C 479.894 4.46239 -0.564882 0
M  V30 5121 C 481.213 4.13856 1.49702 0
M  V30 5122 H 478.332 0.728493 0.111653 0
M  V30 5123 H 480.974 1.85506 -0.410774 0
M  V30 5124 H 479.124 3.66637 1.28491 0
M  V30 5125 H 480.796 4.45328 -1.20337 0
M  V30 5126 H 479.039 4.16916 -1.19849 0
M  V30 5127 H 479.71 5.5134 -0.269918 0
M  V30 5128 H 482.186 4.04461 0.977284 0
M  V30 5129 H 481.062 5.21365 1.71666 0
M  V30 5130 H 481.323 3.65608 2.48563 0
M  V30 5131 N 480.382 0.0267497 1.57577 0
M  V30 5132 C 481.292 -0.971633 2.13533 0
M  V30 5133 C 482.308 -1.35868 1.08701 0
M  V30 5134 O 483.484 -1.44058 1.40746 0
M  V30 5135 C 480.549 -2.23622 2.64941 0
M  V30 5136 C 479.61 -1.90982 3.8448 0
M  V30 5137 C 478.843 -3.11411 4.33427 0
M  V30 5138 O 479.066 -4.23992 3.81558 0
M  V30 5139 O 478 -2.93848 5.25297 0
M  V30 5140 H 481.826 -0.525853 2.99113 0
M  V30 5141 H 479.411 -0.193712 1.48139 0
M  V30 5142 H 481.293 -2.97864 2.98086 0
M  V30 5143 H 479.968 -2.67386 1.82446 0
M  V30 5144 H 478.875 -1.14132 3.56265 0
M  V30 5145 H 480.208 -1.52036 4.6813 0
M  V30 5146 N 481.861 -1.55662 -0.24637 0
M  V30 5147 C 483.11 -1.7672 -0.972254 0
M  V30 5148 C 483.423 -0.59078 -1.86465 0
M  V30 5149 O 484.629 -0.684391 -2.62732 0
M  V30 5150 C 483.085 -3.12869 -1.7788 0
M  V30 5151 C 482.693 -4.38161 -0.933768 0
M  V30 5152 C 484.437 -3.43265 -2.49738 0
M  V30 5153 C 482.344 -5.6534 -1.73623 0
M  V30 5154 H 481.274 -0.658795 -0.366749 0
M  V30 5155 H 483.925 -1.82092 -0.226902 0
M  V30 5156 H 482.307 -3.01606 -2.56612 0
M  V30 5157 H 483.481 -4.60413 -0.188736 0
M  V30 5158 H 481.796 -4.15102 -0.328488 0
M  V30 5159 H 484.393 -4.35501 -3.10231 0
M  V30 5160 H 484.736 -2.64614 -3.2138 0
M  V30 5161 H 485.269 -3.55746 -1.78016 0
M  V30 5162 H 482.008 -6.46814 -1.06354 0
M  V30 5163 H 481.528 -5.47188 -2.45653 0
M  V30 5164 H 483.207 -6.04616 -2.30323 0
M  V30 5165 N 483.339 0.512053 -1.4905 0
M  V30 5166 C 484.302 1.59704 -1.64399 0
M  V30 5167 C 485.302 1.52285 -0.516317 0
M  V30 5168 O 486.492 1.55635 -0.782527 0
M  V30 5169 C 483.624 2.9935 -1.63102 0
M  V30 5170 H 484.817 1.47428 -2.61161 0
M  V30 5171 H 482.37 0.735469 -1.37915 0
M  V30 5172 H 483.105 3.17116 -0.678836 0
M  V30 5173 H 482.89 3.06144 -2.44986 0
M  V30 5174 H 484.38 3.782 -1.77072 0
M  V30 5175 N 484.817 1.37938 0.762283 0
M  V30 5176 C 486.233 1.18945 1.06415 0
M  V30 5177 C 486.433 0.0321163 2.01474 0
M  V30 5178 O 485.489 -0.624844 2.44647 0
M  V30 5179 C 486.802 2.51218 1.65258 0
M  V30 5180 C 488.35 2.57824 1.7747 0
M  V30 5181 C 488.825 3.90251 2.39725 0
M  V30 5182 N 490.316 3.91744 2.47166 0
M  V30 5183 C 491.051 4.90966 2.96209 0
M  V30 5184 N 490.547 6.00585 3.45354 0
M  V30 5185 N 492.34 4.78363 2.9517 0
M  V30 5186 H 484.491 2.11994 0.131301 0
M  V30 5187 H 486.754 0.940262 0.120879 0
M  V30 5188 H 486.46 3.36317 1.02878 0
M  V30 5189 H 486.334 2.68989 2.64433 0
M  V30 5190 H 488.721 1.73126 2.3898 0
M  V30 5191 H 488.802 2.43928 0.770241 0
M  V30 5192 H 488.446 4.75368 1.78852 0
M  V30 5193 H 488.376 4.01454 3.40796 0
M  V30 5194 H 490.867 3.12563 2.12397 0
M  V30 5195 H 491.18 6.72236 3.81207 0
M  V30 5196 H 489.525 6.04217 3.43434 0
M  V30 5197 H 492.716 3.91841 2.56082 0
M  V30 5198 H 492.889 5.55843 3.33081 0
M  V30 5199 N 486.295 -0.989507 1.22664 0
M  V30 5200 C 487.535 -1.7447 1.06488 0
M  V30 5201 C 487.899 -1.8794 -0.392737 0
M  V30 5202 O 489.1 -2.60175 -0.675446 0
M  V30 5203 C 487.371 -3.11043 1.76031 0
M  V30 5204 S 488.93 -4.02258 1.7531 0
M  V30 5205 H 485.748 -0.600123 0.381278 0
M  V30 5206 H 488.35 -1.18283 1.55658 0
M  V30 5207 H 487.054 -2.98884 2.81241 0
M  V30 5208 H 486.585 -3.72301 1.27105 0
M  V30 5209 H 488.6 -4.89623 0.805208 0
M  V30 5210 N 487.773 -1.03688 -1.18687 0
M  V30 5211 C 488.723 -0.595067 -2.20098 0
M  V30 5212 C 489.707 0.360465 -1.5681 0
M  V30 5213 O 490.899 0.180136 -1.76081 0
M  V30 5214 C 488.028 0.0444495 -3.43271 0
M  V30 5215 C 487.114 -0.934002 -4.13687 0
M  V30 5216 N 487.505 -2.09957 -4.60165 0
M  V30 5217 C 485.803 -0.759177 -4.39491 0
M  V30 5218 C 486.504 -2.71735 -5.1433 0
M  V30 5219 N 485.48 -1.99638 -5.05614 0
M  V30 5220 H 489.282 -1.48336 -2.5372 0
M  V30 5221 H 486.796 -0.904949 -1.3485 0
M  V30 5222 H 488.793 0.37864 -4.15177 0
M  V30 5223 H 487.453 0.928325 -3.11147 0
M  V30 5224 H 488.464 -2.47863 -4.54735 0
M  V30 5225 H 485.141 0.0749292 -4.17433 0
M  V30 5226 H 486.531 -3.70492 -5.60523 0
M  V30 5227 N 489.251 1.34841 -0.815825 0
M  V30 5228 C 490.198 2.29644 -0.230664 0
M  V30 5229 C 491.168 1.53253 0.640533 0
M  V30 5230 O 492.353 1.81653 0.583672 0
M  V30 5231 C 489.493 3.39715 0.607275 0
M  V30 5232 C 488.606 4.31056 -0.28538 0
M  V30 5233 C 487.741 5.28225 0.561446 0
M  V30 5234 C 486.78 6.11204 -0.331035 0
M  V30 5235 N 485.917 7.00483 0.476302 0
M  V30 5236 H 490.757 2.79095 -1.0445 0
M  V30 5237 H 488.294 1.37351 -0.526595 0
M  V30 5238 H 490.252 4.02208 1.10835 0
M  V30 5239 H 488.882 2.91517 1.38629 0
M  V30 5240 H 487.934 3.69487 -0.904621 0
M  V30 5241 H 489.246 4.89239 -0.97193 0
M  V30 5242 H 488.4 5.96135 1.12728 0
M  V30 5243 H 487.139 4.70562 1.28153 0
M  V30 5244 H 486.144 5.42232 -0.909069 0
M  V30 5245 H 487.369 6.70947 -1.04912 0
M  V30 5246 H 485.315 6.45296 1.18019 0
M  V30 5247 H 485.232 7.55847 -0.152008 0
M  V30 5248 H 486.5 7.7273 1.02512 0
M  V30 5249 N 490.729 0.570148 1.46925 0
M  V30 5250 C 491.977 0.0508523 2.02036 0
M  V30 5251 C 492.298 -1.30885 1.44548 0
M  V30 5252 O 491.568 -1.85647 0.625453 0
M  V30 5253 H 490.148 0.0158088 0.746833 0
M  V30 5254 H 492.81 0.743086 1.80178 0
M  V30 5255 H 491.906 -0.027575 3.12088 0
M  V30 5256 N 492.207 -1.54576 0.307264 0
M  V30 5257 C 493.139 -2.21212 -0.599807 0
M  V30 5258 C 494.152 -1.20685 -1.09266 0
M  V30 5259 O 495.341 -1.47244 -1.00903 0
M  V30 5260 C 492.441 -2.84994 -1.83389 0
M  V30 5261 C 491.614 -4.11511 -1.48248 0
M  V30 5262 C 490.673 -4.59038 -2.57237 0
M  V30 5263 O 489.699 -5.24095 -2.22065 0
M  V30 5264 N 490.901 -4.31884 -3.87887 0
M  V30 5265 H 493.666 -2.99686 -0.0293075 0
M  V30 5266 H 491.227 -1.61379 0.129738 0
M  V30 5267 H 493.219 -3.1372 -2.5566 0
M  V30 5268 H 491.789 -2.10324 -2.31263 0
M  V30 5269 H 491.009 -3.89728 -0.592122 0
M  V30 5270 H 492.297 -4.93879 -1.22316 0
M  V30 5271 H 491.695 -3.79778 -4.19268 0
M  V30 5272 H 490.252 -4.65304 -4.56438 0
M  V30 5273 N 493.685 -0.035106 -1.57561 0
M  V30 5274 C 494.915 0.651312 -1.96065 0
M  V30 5275 C 495.323 1.6585 -0.910514 0
M  V30 5276 O 494.666 1.83336 0.11552 0
M  V30 5277 C 494.728 1.40897 -3.30739 0
M  V30 5278 C 494.392 0.559436 -4.53563 0
M  V30 5279 C 495.389 -0.16778 -5.19629 0
M  V30 5280 C 493.074 0.495079 -4.99854 0
M  V30 5281 C 495.068 -0.947963 -6.30311 0
M  V30 5282 C 492.755 -0.288804 -6.10417 0
M  V30 5283 C 493.753 -1.00903 -6.75505 0
M  V30 5284 O 493.441 -1.78005 -7.83945 0
M  V30 5285 H 493.173 0.184036 -0.650467 0
M  V30 5286 H 495.727 -0.0929677 -2.05189 0
M  V30 5287 H 493.957 2.19852 -3.18123 0
M  V30 5288 H 495.646 1.98407 -3.54104 0
M  V30 5289 H 496.412 -0.12743 -4.84833 0
M  V30 5290 H 492.291 1.04524 -4.48994 0
M  V30 5291 H 495.835 -1.51064 -6.81047 0
M  V30 5292 H 491.732 -0.33085 -6.44652 0
M  V30 5293 H 492.5 -1.70046 -8.00641 0
M  V30 5294 N 495.163 1.55791 0.238111 0
M  V30 5295 C 496.41 1.78033 0.964907 0
M  V30 5296 C 496.738 0.600984 1.84982 0
M  V30 5297 O 495.993 -0.41536 1.91241 0
M  V30 5298 C 496.292 3.05869 1.84875 0
M  V30 5299 C 495.958 4.36808 1.11846 0
M  V30 5300 C 494.62 4.72388 0.916662 0
M  V30 5301 C 496.972 5.17717 0.60151 0
M  V30 5302 C 494.3 5.86406 0.185756 0
M  V30 5303 C 496.652 6.32494 -0.115972 0
M  V30 5304 C 495.316 6.66688 -0.329168 0
M  V30 5305 H 494.586 0.651469 0.353085 0
M  V30 5306 H 497.233 1.90061 0.234318 0
M  V30 5307 H 495.538 2.88891 2.64668 0
M  V30 5308 H 497.235 3.20278 2.41294 0
M  V30 5309 H 493.825 4.08862 1.28569 0
M  V30 5310 H 498.009 4.90678 0.744932 0
M  V30 5311 H 493.265 6.11399 0.0101886 0
M  V30 5312 H 497.439 6.94425 -0.524127 0
M  V30 5313 H 495.066 7.54884 -0.897474 0
M  V30 5314 N 496.642 -0.504142 1.49319 0
M  V30 5315 C 497.89 -1.25598 1.58334 0
M  V30 5316 C 498.211 -1.93114 0.270538 0
M  V30 5317 O 497.481 -1.82585 -0.709891 0
M  V30 5318 H 496.061 -0.466571 0.58337 0
M  V30 5319 H 498.723 -0.584547 1.85928 0
M  V30 5320 H 497.819 -2.02159 2.37778 0
M  V30 5321 N 498.12 -1.38341 -0.754957 0
M  V30 5322 C 499.03 -1.3769 -1.89944 0
M  V30 5323 C 500.046 -0.274194 -1.71826 0
M  V30 5324 O 501.222 -0.512391 -1.94773 0
M  V30 5325 C 498.287 -1.19938 -3.25293 0
M  V30 5326 C 497.348 -2.40001 -3.55946 0
M  V30 5327 C 496.581 -2.23087 -4.84838 0
M  V30 5328 O 496.804 -1.22386 -5.57116 0
M  V30 5329 O 495.738 -3.11646 -5.14937 0
M  V30 5330 H 499.564 -2.3412 -1.93446 0
M  V30 5331 H 497.149 -1.19246 -0.900044 0
M  V30 5332 H 499.031 -1.12093 -4.06218 0
M  V30 5333 H 497.706 -0.265919 -3.22606 0
M  V30 5334 H 496.613 -2.53421 -2.75188 0
M  V30 5335 H 497.946 -3.31973 -3.63394 0
M  V30 5336 N 499.598 0.982988 -1.23187 0
M  V30 5337 C 500.528 2.09301 -1.03515 0
M  V30 5338 C 501.509 1.70035 0.0471136 0
M  V30 5339 O 502.694 1.93847 -0.117029 0
M  V30 5340 C 499.824 3.4167 -0.622791 0
M  V30 5341 C 498.778 3.94828 -1.65211 0
M  V30 5342 C 498.104 5.23362 -1.09527 0
M  V30 5343 C 499.404 4.2439 -3.04451 0
M  V30 5344 H 501.098 2.26016 -1.96359 0
M  V30 5345 H 498.644 1.08611 -0.945501 0
M  V30 5346 H 500.597 4.18746 -0.472233 0
M  V30 5347 H 499.321 3.24811 0.341329 0
M  V30 5348 H 497.98 3.19895 -1.79061 0
M  V30 5349 H 497.628 5.02852 -0.122211 0
M  V30 5350 H 497.328 5.59895 -1.783 0
M  V30 5351 H 498.852 6.03062 -0.956511 0
M  V30 5352 H 500.266 4.92225 -2.93917 0
M  V30 5353 H 498.663 4.72118 -3.70438 0
M  V30 5354 H 499.733 3.31765 -3.53638 0
M  V30 5355 N 501.076 1.04316 1.18135 0
M  V30 5356 C 502.039 0.640794 2.2006 0
M  V30 5357 C 503.039 -0.303124 1.57917 0
M  V30 5358 O 504.229 -0.0881855 1.73977 0
M  V30 5359 C 501.361 -0.060148 3.40847 0
M  V30 5360 H 502.554 1.54281 2.57172 0
M  V30 5361 H 500.107 0.836004 1.32063 0
M  V30 5362 H 500.842 -0.975845 3.0927 0
M  V30 5363 H 500.627 0.618319 3.87194 0
M  V30 5364 H 502.117 -0.328082 4.16309 0
M  V30 5365 N 502.554 -1.34406 0.822964 0
M  V30 5366 C 503.484 -2.32052 0.259608 0
M  V30 5367 C 504.465 -1.58243 -0.623961 0
M  V30 5368 O 505.65 -1.86224 -0.55083 0
M  V30 5369 C 502.78 -3.42434 -0.579314 0
M  V30 5370 C 501.734 -4.27499 0.20712 0
M  V30 5371 C 501.06 -5.29349 -0.754547 0
M  V30 5372 C 502.36 -5.02758 1.41533 0
M  V30 5373 H 504.054 -2.79418 1.07545 0
M  V30 5374 H 501.6 -1.34338 0.518593 0
M  V30 5375 H 503.553 -4.0976 -0.983612 0
M  V30 5376 H 502.277 -2.93717 -1.4282 0
M  V30 5377 H 500.936 -3.61776 0.592787 0
M  V30 5378 H 500.584 -4.76895 -1.59939 0
M  V30 5379 H 500.284 -5.8714 -0.232561 0
M  V30 5380 H 501.808 -5.99544 -1.1567 0
M  V30 5381 H 503.222 -5.62938 1.08504 0
M  V30 5382 H 501.619 -5.70123 1.87296 0
M  V30 5383 H 502.689 -4.32451 2.1935 0
M  V30 5384 N 504.032 -0.577932 -1.46621 0
M  V30 5385 C 505.278 -0.0617793 -2.02706 0
M  V30 5386 C 505.611 1.29294 -1.44903 0
M  V30 5387 O 504.886 1.8461 -0.61232 0
M  V30 5388 C 505.169 0.00911824 -3.60099 0
M  V30 5389 C 505.022 -1.37416 -4.28295 0
M  V30 5390 C 506.341 0.712159 -4.343 0
M  V30 5391 H 503.46 -0.0239246 -0.736612 0
M  V30 5392 H 506.102 -0.744211 -1.74818 0
M  V30 5393 H 504.252 0.590292 -3.83989 0
M  V30 5394 H 505.924 -2.00013 -4.15683 0
M  V30 5395 H 504.167 -1.94319 -3.87843 0
M  V30 5396 H 504.838 -1.27707 -5.37024 0
M  V30 5397 H 507.314 0.218486 -4.15526 0
M  V30 5398 H 506.19 0.730782 -5.44014 0
M  V30 5399 H 506.451 1.77251 -4.05012 0
M  V30 5400 N 505.51 1.54411 -0.315457 0
M  V30 5401 C 506.738 2.04833 0.291738 0
M  V30 5402 C 507.153 1.19203 1.46411 0
M  V30 5403 O 506.51 0.220867 1.81159 0
M  V30 5404 C 506.561 3.53969 0.73404 0
M  V30 5405 O 506.282 4.36346 -0.391682 0
M  V30 5406 C 507.783 4.2045 1.40489 0
M  V30 5407 H 505.003 0.668195 0.0612947 0
M  V30 5408 H 507.547 1.99276 -0.45929 0
M  V30 5409 H 505.702 3.5984 1.43506 0
M  V30 5410 H 506.116 5.24481 -0.0447088 0
M  V30 5411 H 507.59 5.26278 1.66539 0
M  V30 5412 H 508.067 3.71067 2.3496 0
M  V30 5413 H 508.673 4.18694 0.746662 0
M  V30 5414 N 506.988 0.0434614 1.5754 0
M  V30 5415 C 507.936 -0.951465 2.1225 0
M  V30 5416 C 508.93 -1.3274 1.05245 0
M  V30 5417 O 510.136 -1.30795 1.23663 0
M  V30 5418 H 506.511 -0.324667 0.678303 0
M  V30 5419 H 508.482 -0.464855 2.94757 0
M  V30 5420 C 507.231 -2.21972 2.67626 0
M  V30 5421 H 506.554 -1.93923 3.4962 0
M  V30 5422 H 507.994 -2.89765 3.09536 0
M  V30 5423 C 506.453 -2.95919 1.61038 0
M  V30 5424 O 506.983 -3.8857 1.01862 0
M  V30 5425 N 505.189 -2.58511 1.32741 0
M  V30 5426 H 504.736 -1.83244 1.81051 0
M  V30 5427 H 504.694 -3.08296 0.616531 0
M  V30 5428 N 508.466 -1.55915 -0.229846 0
M  V30 5429 C 509.413 -1.91734 -1.28478 0
M  V30 5430 C 510.383 -0.773539 -1.46988 0
M  V30 5431 O 511.568 -1.02871 -1.60693 0
M  V30 5432 C 508.708 -2.23224 -2.63182 0
M  V30 5433 C 507.821 -3.50497 -2.52539 0
M  V30 5434 C 506.956 -3.71474 -3.79711 0
M  V30 5435 C 505.995 -4.92289 -3.63755 0
M  V30 5436 N 505.132 -5.09698 -4.82858 0
M  V30 5437 H 509.972 -2.81692 -0.972308 0
M  V30 5438 H 507.509 -1.39429 -0.468815 0
M  V30 5439 H 509.467 -2.3949 -3.41614 0
M  V30 5440 H 508.097 -1.36451 -2.92542 0
M  V30 5441 H 507.149 -3.4247 -1.65585 0
M  V30 5442 H 508.461 -4.39079 -2.36666 0
M  V30 5443 H 507.615 -3.87791 -4.66586 0
M  V30 5444 H 506.354 -2.81157 -3.985 0
M  V30 5445 H 505.359 -4.7593 -2.75264 0
M  V30 5446 H 506.584 -5.84083 -3.46445 0
M  V30 5447 H 504.53 -4.22322 -5.01976 0
M  V30 5448 H 504.447 -5.92399 -4.69681 0
M  V30 5449 H 505.715 -5.30443 -5.71183 0
M  V30 5450 N 509.944 0.496216 -1.49584 0
M  V30 5451 C 511.355 1.07765 -1.52459 0
M  V30 5452 C 511.706 1.93679 -0.31353 0
M  V30 5453 O 510.831 2.08588 0.576186 0
M  V30 5454 C 511.426 1.96111 -2.76271 0
M  V30 5455 C 509.985 2.49409 -2.81908 0
M  V30 5456 C 509.132 1.27142 -2.46435 0
M  V30 5457 H 512.083 0.279914 -1.56212 0
M  V30 5458 H 512.104 2.80862 -2.56704 0
M  V30 5459 H 511.616 1.33555 -3.64396 0
M  V30 5460 H 509.717 3.1559 -1.98074 0
M  V30 5461 H 509.83 2.86234 -3.84196 0
M  V30 5462 H 508.194 1.59818 -1.98319 0
M  V30 5463 H 508.977 0.662866 -3.3684 0
M  V30 5464 N 511.423 1.38739 0.74761 0
M  V30 5465 C 512.839 1.20067 1.05148 0
M  V30 5466 C 513.039 0.0534835 2.01429 0
M  V30 5467 O 512.095 -0.59886 2.45296 0
M  V30 5468 C 513.408 2.52957 1.62584 0
M  V30 5469 C 514.956 2.59692 1.74726 0
M  V30 5470 C 515.431 3.92772 2.35573 0
M  V30 5471 N 516.922 3.94343 2.42997 0
M  V30 5472 C 517.657 4.9408 2.90985 0
M  V30 5473 N 517.153 6.04214 3.38965 0
M  V30 5474 N 518.946 4.81466 2.9008 0
M  V30 5475 H 511.097 2.12121 0.108808 0
M  V30 5476 H 513.36 0.941491 0.110899 0
M  V30 5477 H 513.066 3.37389 0.993051 0
M  V30 5478 H 512.94 2.71779 2.61565 0
M  V30 5479 H 515.327 1.75651 2.3713 0
M  V30 5480 H 515.408 2.44731 0.744326 0
M  V30 5481 H 515.052 4.77238 1.738 0
M  V30 5482 H 514.982 4.05046 3.36519 0
M  V30 5483 H 517.473 3.14799 2.0907 0
M  V30 5484 H 517.786 6.76241 3.74056 0
M  V30 5485 H 516.131 6.07825 3.37007 0
M  V30 5486 H 519.322 3.94535 2.51912 0
M  V30 5487 H 519.495 5.59344 3.27166 0
M  V30 5488 N 512.901 -0.976442 1.23707 0
M  V30 5489 C 513.864 -2.0511 1.02287 0
M  V30 5490 C 514.864 -1.60791 -0.0167195 0
M  V30 5491 O 516.054 -1.72761 0.223408 0
M  V30 5492 C 513.186 -3.36458 0.548507 0
M  V30 5493 H 514.379 -2.25545 1.9766 0
M  V30 5494 H 511.932 -1.15042 1.05806 0
M  V30 5495 H 512.667 -3.21713 -0.408818 0
M  V30 5496 H 512.452 -3.69967 1.29874 0
M  V30 5497 H 513.942 -4.15489 0.419406 0
M  V30 5498 N 514.379 -1.04941 -1.1758 0
M  V30 5499 C 515.342 -0.652456 -2.19717 0
M  V30 5500 C 516.342 0.294745 -1.58076 0
M  V30 5501 O 517.532 0.0789579 -1.74021 0
M  V30 5502 C 514.664 0.0420712 -3.40874 0
M  V30 5503 H 515.857 -1.55642 -2.5635 0
M  V30 5504 H 513.41 -0.842995 -1.31618 0
M  V30 5505 H 514.145 0.95943 -3.09783 0
M  V30 5506 H 513.93 -0.638844 -3.86861 0
M  V30 5507 H 515.42 0.306 -4.16477 0
M  V30 5508 N 515.857 1.33968 -0.830081 0
M  V30 5509 C 517.082 2.02813 -0.433796 0
M  V30 5510 C 517.507 1.62076 0.954614 0
M  V30 5511 O 516.865 0.808955 1.62252 0
M  V30 5512 C 516.913 3.56348 -0.552115 0
M  V30 5513 O 516.017 4.10202 0.425191 0
M  V30 5514 H 515.358 0.639817 -0.177567 0
M  V30 5515 H 517.888 1.7106 -1.12248 0
M  V30 5516 H 517.898 4.05722 -0.430513 0
M  V30 5517 H 516.573 3.85344 -1.56471 0
M  V30 5518 H 515.15 3.71979 0.261878 0
M  V30 5519 N 517.335 0.585699 1.46312 0
M  V30 5520 C 518.298 -0.135673 2.28798 0
M  V30 5521 C 519.298 -0.815988 1.38558 0
M  V30 5522 O 520.488 -0.667487 1.60904 0
M  V30 5523 C 517.62 -1.20163 3.1902 0
M  V30 5524 H 518.813 0.589257 2.94054 0
M  V30 5525 H 516.366 0.343794 1.52472 0
M  V30 5526 H 517.101 -1.95804 2.58517 0
M  V30 5527 H 516.886 -0.718282 3.85465 0
M  V30 5528 H 518.376 -1.70749 3.81096 0
M  V30 5529 N 518.813 -1.54241 0.323641 0
M  V30 5530 C 520.043 -2.04687 -0.280464 0
M  V30 5531 C 520.451 -1.19939 -1.46326 0
M  V30 5532 O 519.794 -0.222872 -1.82343 0
M  V30 5533 C 519.856 -3.50978 -0.778123 0
M  V30 5534 C 519.52 -4.56127 0.282371 0
M  V30 5535 C 520.517 -5.07726 1.11847 0
M  V30 5536 C 518.202 -5.00451 0.430582 0
M  V30 5537 C 520.196 -6.02212 2.08851 0
M  V30 5538 C 517.883 -5.94752 1.40404 0
M  V30 5539 C 518.881 -6.45519 2.23147 0
M  V30 5540 O 518.569 -7.37968 3.1884 0
M  V30 5541 H 518.301 -0.673192 -0.0615473 0
M  V30 5542 H 520.855 -1.99999 0.467921 0
M  V30 5543 H 519.085 -3.53064 -1.57742 0
M  V30 5544 H 520.774 -3.84499 -1.30058 0
M  V30 5545 H 521.54 -4.74261 1.01496 0
M  V30 5546 H 517.419 -4.6055 -0.203569 0
M  V30 5547 H 520.963 -6.41761 2.73474 0
M  V30 5548 H 516.86 -6.27633 1.5082 0
M  V30 5549 H 517.628 -7.55841 3.14079 0
M  V30 5550 N 520.291 -0.0518155 -1.57515 0
M  V30 5551 C 521.254 0.907547 -2.10467 0
M  V30 5552 C 522.254 1.23947 -1.02439 0
M  V30 5553 O 523.444 1.17604 -1.2851 0
M  V30 5554 C 520.576 2.21723 -2.58944 0
M  V30 5555 H 521.769 0.44851 -2.96527 0
M  V30 5556 H 519.322 0.196598 -1.55059 0
M  V30 5557 H 520.057 2.72206 -1.76279 0
M  V30 5558 H 519.842 1.98935 -3.37886 0
M  V30 5559 H 521.332 2.90441 -3.00056 0
M  V30 5560 N 521.769 1.56035 0.221574 0
M  V30 5561 C 523.015 1.79312 0.947372 0
M  V30 5562 C 523.348 0.621453 1.83988 0
M  V30 5563 O 522.623 -0.379287 1.90766 0
M  V30 5564 C 522.906 3.1267 1.78633 0
M  V30 5565 C 522.759 4.40284 0.920312 0
M  V30 5566 C 524.078 3.4247 2.7641 0
M  V30 5567 H 521.197 0.652328 0.342982 0
M  V30 5568 H 523.839 1.88765 0.216244 0
M  V30 5569 H 521.989 3.04741 2.40967 0
M  V30 5570 H 523.661 4.60232 0.313718 0
M  V30 5571 H 521.904 4.33212 0.225734 0
M  V30 5572 H 522.575 5.30033 1.54171 0
M  V30 5573 H 525.051 3.50526 2.24211 0
M  V30 5574 H 523.927 4.3695 3.32213 0
M  V30 5575 H 524.188 2.64635 3.54148 0
M  V30 5576 N 523.247 -0.488276 1.49845 0
M  V30 5577 C 524.495 -1.23911 1.59657 0
M  V30 5578 C 524.816 -1.92816 0.291005 0
M  V30 5579 O 524.086 -1.83328 -0.690485 0
M  V30 5580 H 522.666 -0.460357 0.588286 0
M  V30 5581 H 525.328 -0.564794 1.86537 0
M  V30 5582 H 524.424 -1.99625 2.39909 0
M  V30 5583 N 524.725 -1.39134 -0.740242 0
M  V30 5584 C 526.002 -1.26584 -1.49117 0
M  V30 5585 C 526.382 0.126902 -2.10718 0
M  V30 5586 O 525.73 1.13765 -1.98166 0
M  V30 5587 C 525.94 -2.38619 -2.54681 0
M  V30 5588 C 527.288 -2.77685 -3.21211 0
M  V30 5589 O 528.312 -2.38029 -2.64991 0
M  V30 5590 O 527.171 -3.46115 -4.22926 0
M  V30 5591 H 524.265 -0.495769 -0.661923 0
M  V30 5592 H 526.811 -1.50995 -0.774514 0
M  V30 5593 H 525.583 -3.3175 -2.07504 0
M  V30 5594 H 525.206 -2.15845 -3.33911 0
M  V30 5595 N 526.204 0.969867 -1.24223 0
M  V30 5596 C 527.45 1.7151 -1.08223 0
M  V30 5597 C 527.783 1.90478 0.37838 0
M  V30 5598 O 527.058 1.4647 1.27971 0
M  V30 5599 C 527.341 3.10714 -1.82013 0
M  V30 5600 C 527.194 2.9925 -3.35811 0
M  V30 5601 C 528.513 4.10332 -1.59108 0
M  V30 5602 H 525.632 0.622499 -0.394543 0
M  V30 5603 H 528.274 1.1284 -1.52863 0
M  V30 5604 H 526.424 3.608 -1.44068 0
M  V30 5605 H 528.096 2.56608 -3.83341 0
M  V30 5606 H 526.339 2.35512 -3.64303 0
M  V30 5607 H 527.01 3.97857 -3.82641 0
M  V30 5608 H 529.486 3.69097 -1.92111 0
M  V30 5609 H 528.362 5.05804 -2.13198 0
M  V30 5610 H 528.623 4.38926 -0.528832 0
M  V30 5611 N 527.682 1.05563 1.17022 0
M  V30 5612 C 528.629 0.659893 2.21165 0
M  V30 5613 C 529.599 -0.339813 1.62587 0
M  V30 5614 O 530.784 -0.230378 1.89404 0
M  V30 5615 C 527.924 0.0447297 3.45071 0
M  V30 5616 C 527.037 1.09372 4.17926 0
M  V30 5617 C 526.172 0.445481 5.29329 0
M  V30 5618 C 525.211 1.47852 5.93975 0
M  V30 5619 N 524.348 0.854172 6.96885 0
M  V30 5620 H 529.188 1.55243 2.54369 0
M  V30 5621 H 526.725 0.776336 1.24946 0
M  V30 5622 H 528.683 -0.329404 4.15898 0
M  V30 5623 H 527.313 -0.811244 3.1244 0
M  V30 5624 H 526.365 1.58564 3.45777 0
M  V30 5625 H 527.677 1.87773 4.62107 0
M  V30 5626 H 526.831 0.0179688 6.06697 0
M  V30 5627 H 525.57 -0.370481 4.86291 0
M  V30 5628 H 524.575 1.91601 5.15334 0
M  V30 5629 H 525.8 2.29645 6.39093 0
M  V30 5630 H 523.746 0.0587882 6.55974 0
M  V30 5631 H 523.663 1.57567 7.39397 0
M  V30 5632 H 524.931 0.451559 7.78191 0
M  V30 5633 N 529.16 -1.33526 0.837174 0
M  V30 5634 C 530.4 -1.99649 0.438115 0
M  V30 5635 C 530.764 -1.64879 -0.983816 0
M  V30 5636 O 531.965 -2.23956 -1.48651 0
M  V30 5637 C 530.236 -3.51431 0.650461 0
M  V30 5638 S 531.795 -4.37431 0.346371 0
M  V30 5639 H 528.613 -0.69162 0.164872 0
M  V30 5640 H 531.215 -1.62556 1.08609 0
M  V30 5641 H 529.919 -3.74225 1.68475 0
M  V30 5642 H 529.45 -3.93398 -0.0117309 0
M  V30 5643 H 531.465 -4.89132 -0.834504 0
M  V30 5644 N 530.638 -0.59345 -1.46 0
M  V30 5645 C 531.568 0.121192 -2.33185 0
M  V30 5646 C 532.549 0.872977 -1.4599 0
M  V30 5647 O 533.734 0.846321 -1.74789 0
M  V30 5648 C 530.864 1.12844 -3.28456 0
M  V30 5649 C 529.818 0.4908 -4.25177 0
M  V30 5650 C 529.144 1.60529 -5.10034 0
M  V30 5651 C 530.444 -0.578949 -5.19081 0
M  V30 5652 H 532.138 -0.606767 -2.93187 0
M  V30 5653 H 529.684 -0.293242 -1.40983 0
M  V30 5654 H 531.637 1.63684 -3.88311 0
M  V30 5655 H 530.361 1.88681 -2.66584 0
M  V30 5656 H 529.02 0.00339328 -3.666 0
M  V30 5657 H 528.668 2.35359 -4.44539 0
M  V30 5658 H 528.368 1.18422 -5.75543 0
M  V30 5659 H 529.892 2.11623 -5.72755 0
M  V30 5660 H 531.306 -0.155199 -5.7309 0
M  V30 5661 H 529.703 -0.920947 -5.92991 0
M  V30 5662 H 530.773 -1.46109 -4.62364 0
M  V30 5663 N 532.116 1.54067 -0.331816 0
M  V30 5664 C 533.362 2.01012 0.268667 0
M  V30 5665 C 533.695 1.2195 1.51136 0
M  V30 5666 O 532.97 0.303972 1.9211 0
M  V30 5667 C 533.253 3.55158 0.59456 0
M  V30 5668 C 533.106 4.4494 -0.659409 0
M  V30 5669 C 534.425 4.16939 1.4089 0
M  V30 5670 H 531.544 0.730698 0.0961756 0
M  V30 5671 H 534.186 1.84593 -0.450031 0
M  V30 5672 H 532.336 3.6928 1.20685 0
M  V30 5673 H 534.008 4.42675 -1.29756 0
M  V30 5674 H 532.251 4.1428 -1.28665 0
M  V30 5675 H 532.922 5.50643 -0.386804 0
M  V30 5676 H 535.398 4.06443 0.891272 0
M  V30 5677 H 534.274 5.24889 1.60569 0
M  V30 5678 H 534.535 3.70798 2.40752 0
M  V30 5679 N 533.594 0.0601682 1.57485 0
M  V30 5680 C 534.527 -0.94676 2.07634 0
M  V30 5681 C 535.505 -1.29837 0.978826 0
M  V30 5682 O 536.689 -1.40969 1.2514 0
M  V30 5683 C 533.816 -2.25822 2.52433 0
M  V30 5684 C 532.862 -2.05901 3.73507 0
M  V30 5685 S 533.695 -1.32907 5.18745 0
M  V30 5686 C 534.851 -2.65356 5.66866 0
M  V30 5687 H 535.084 -0.520003 2.92717 0
M  V30 5688 H 532.617 -0.152319 1.53647 0
M  V30 5689 H 534.575 -3.01201 2.78905 0
M  V30 5690 H 533.236 -2.65624 1.67639 0
M  V30 5691 H 532.429 -3.02929 4.02803 0
M  V30 5692 H 532.031 -1.38659 3.47347 0
M  V30 5693 H 534.323 -3.61492 5.73001 0
M  V30 5694 H 535.266 -2.40685 6.6594 0
M  V30 5695 H 535.674 -2.72028 4.94632 0
M  V30 5696 N 535.072 -1.5615 -0.213296 0
M  V30 5697 C 536.349 -1.70349 -0.961281 0
M  V30 5698 C 536.729 -0.609791 -2.02101 0
M  V30 5699 O 536.077 0.381987 -2.25285 0
M  V30 5700 C 536.287 -3.11982 -1.56424 0
M  V30 5701 C 537.635 -3.71649 -2.05334 0
M  V30 5702 O 538.659 -3.14995 -1.66302 0
M  V30 5703 O 537.518 -4.71038 -2.77102 0
M  V30 5704 H 534.612 -0.694121 -0.449582 0
M  V30 5705 H 537.158 -1.68464 -0.204426 0
M  V30 5706 H 535.93 -3.83046 -0.799457 0
M  V30 5707 H 535.553 -3.18019 -2.38641 0
M  V30 5708 N 536.55 0.480323 -1.50102 0
M  V30 5709 C 537.796 1.23489 -1.60867 0
M  V30 5710 C 538.129 1.91809 -0.303827 0
M  V30 5711 O 537.404 1.81694 0.694092 0
M  V30 5712 C 537.687 2.28578 -2.78252 0
M  V30 5713 C 537.54 1.64624 -4.18592 0
M  V30 5714 C 538.859 3.2997 -2.91218 0
M  V30 5715 H 535.978 0.447605 -0.585507 0
M  V30 5716 H 538.62 0.530005 -1.82458 0
M  V30 5717 H 536.77 2.88697 -2.59974 0
M  V30 5718 H 538.442 1.08173 -4.48438 0
M  V30 5719 H 536.685 0.949645 -4.23278 0
M  V30 5720 H 537.356 2.40946 -4.96638 0
M  V30 5721 H 539.832 2.79864 -3.07921 0
M  V30 5722 H 538.708 4.00839 -3.74993 0
M  V30 5723 H 538.969 3.93541 -2.0144 0
M  V30 5724 N 538.028 1.39524 0.732853 0
M  V30 5725 C 538.96 1.34318 1.85718 0
M  V30 5726 C 539.973 0.251576 1.60844 0
M  V30 5727 O 541.162 0.510685 1.71039 0
M  V30 5728 C 538.262 1.06334 3.21786 0
M  V30 5729 C 537.435 2.26813 3.73998 0
M  V30 5730 C 536.494 1.95253 4.88634 0
M  V30 5731 O 535.52 2.67957 5.02183 0
M  V30 5732 N 536.722 0.919984 5.73164 0
M  V30 5733 H 539.487 2.3121 1.90688 0
M  V30 5734 H 537.048 1.33654 0.91368 0
M  V30 5735 H 539.04 0.832363 3.96048 0
M  V30 5736 H 537.61 0.181682 3.12072 0
M  V30 5737 H 536.83 2.65849 2.91064 0
M  V30 5738 H 538.118 3.0717 4.05616 0
M  V30 5739 H 537.516 0.317487 5.64808 0
M  V30 5740 H 536.073 0.748905 6.47483 0
M  V30 5741 N 539.506 -0.963266 1.24736 0
M  V30 5742 C 540.469 -2.04013 1.04457 0
M  V30 5743 C 541.469 -1.608 0.000335555 0
M  V30 5744 O 542.659 -1.72515 0.241719 0
M  V30 5745 C 539.791 -3.35858 0.584162 0
M  V30 5746 H 540.984 -2.23436 2.00041 0
M  V30 5747 H 538.537 -1.13914 1.07021 0
M  V30 5748 H 539.272 -3.22128 -0.374673 0
M  V30 5749 H 539.057 -3.68568 1.3379 0
M  V30 5750 H 540.547 -4.1502 0.463451 0
M  V30 5751 N 540.985 -1.06182 -1.16461 0
M  V30 5752 C 542.232 -0.777863 -1.86964 0
M  V30 5753 C 542.56 0.695602 -1.81636 0
M  V30 5754 O 541.815 1.52532 -1.22607 0
M  V30 5755 C 542.114 -1.21633 -3.36066 0
M  V30 5756 C 541.78 -2.69371 -3.61594 0
M  V30 5757 C 540.442 -3.09727 -3.6827 0
M  V30 5758 C 542.794 -3.64791 -3.7226 0
M  V30 5759 C 540.122 -4.44345 -3.83112 0
M  V30 5760 C 542.474 -4.99155 -3.88623 0
M  V30 5761 C 541.138 -5.39149 -3.93541 0
M  V30 5762 H 540.408 -0.28464 -0.68415 0
M  V30 5763 H 543.055 -1.33071 -1.37711 0
M  V30 5764 H 541.36 -0.582651 -3.87443 0
M  V30 5765 H 543.057 -0.973682 -3.88999 0
M  V30 5766 H 539.647 -2.37124 -3.57029 0
M  V30 5767 H 543.831 -3.34746 -3.66413 0
M  V30 5768 H 539.087 -4.74819 -3.85172 0
M  V30 5769 H 543.261 -5.72976 -3.95817 0
M  V30 5770 H 540.888 -6.43464 -4.04794 0
M  V30 5771 N 542.463 1.3308 -0.844243 0
M  V30 5772 C 543.373 2.32876 -0.283922 0
M  V30 5773 C 544.389 1.63589 0.592846 0
M  V30 5774 O 545.565 1.95205 0.495693 0
M  V30 5775 C 542.63 3.42667 0.527283 0
M  V30 5776 C 541.691 4.27664 -0.374394 0
M  V30 5777 C 540.924 5.32212 0.39819 0
M  V30 5778 O 541.147 5.46635 1.62932 0
M  V30 5779 O 540.081 6.01458 -0.2306 0
M  V30 5780 H 543.907 2.82671 -1.11045 0
M  V30 5781 H 541.492 1.36518 -0.606903 0
M  V30 5782 H 543.374 4.09652 0.988078 0
M  V30 5783 H 542.049 2.95079 1.33078 0
M  V30 5784 H 540.956 3.63526 -0.883144 0
M  V30 5785 H 542.289 4.78749 -1.1428 0
M  V30 5786 N 543.941 0.601185 1.45683 0
M  V30 5787 C 545.357 0.264315 1.57396 0
M  V30 5788 C 545.557 -1.23324 1.59353 0
M  V30 5789 O 544.613 -2.01594 1.52039 0
M  V30 5790 C 545.926 0.929839 2.85962 0
M  V30 5791 C 547.474 0.905156 2.99626 0
M  V30 5792 C 547.949 1.55057 4.30954 0
M  V30 5793 N 549.44 1.51576 4.37697 0
M  V30 5794 C 550.175 1.98436 5.37969 0
M  V30 5795 N 549.671 2.53352 6.44813 0
M  V30 5796 N 551.464 1.89242 5.29286 0
M  V30 5797 H 543.615 1.57363 1.42656 0
M  V30 5798 H 545.878 0.658831 0.681649 0
M  V30 5799 H 545.584 1.98404 2.90394 0
M  V30 5800 H 545.458 0.449224 3.74515 0
M  V30 5801 H 547.845 -0.14048 2.94765 0
M  V30 5802 H 547.926 1.42397 2.12501 0
M  V30 5803 H 547.57 2.5955 4.36573 0
M  V30 5804 H 547.5 1.00682 5.16886 0
M  V30 5805 H 549.991 1.11452 3.61091 0
M  V30 5806 H 550.304 2.86918 7.17564 0
M  V30 5807 H 548.649 2.57388 6.45582 0
M  V30 5808 H 551.84 1.46083 4.44722 0
M  V30 5809 H 552.013 2.26075 6.07284 0
M  V30 5810 N 545.419 -1.53889 0.339982 0
M  V30 5811 C 546.349 -2.27843 -0.510856 0
M  V30 5812 C 547.33 -1.29267 -1.10563 0
M  V30 5813 O 548.515 -1.58104 -1.12768 0
M  V30 5814 C 545.645 -3.04857 -1.66372 0
M  V30 5815 C 544.599 -4.10907 -1.19746 0
M  V30 5816 C 543.925 -4.75855 -2.43857 0
M  V30 5817 C 545.225 -5.21435 -0.300501 0
M  V30 5818 H 546.919 -2.99212 0.106067 0
M  V30 5819 H 544.465 -1.43904 0.0524533 0
M  V30 5820 H 546.418 -3.5533 -2.26537 0
M  V30 5821 H 545.142 -2.31133 -2.30749 0
M  V30 5822 H 543.801 -3.61342 -0.618654 0
M  V30 5823 H 543.449 -3.9873 -3.06633 0
M  V30 5824 H 543.149 -5.47502 -2.13343 0
M  V30 5825 H 544.673 -5.2911 -3.04754 0
M  V30 5826 H 546.087 -5.67565 -0.80889 0
M  V30 5827 H 544.484 -6.00036 -0.0874076 0
M  V30 5828 H 545.554 -4.80328 0.664321 0
M  V30 5829 N 546.897 -0.0685191 -1.57451 0
M  V30 5830 C 547.827 0.89747 -2.15564 0
M  V30 5831 C 548.808 1.31266 -1.08181 0
M  V30 5832 O 549.993 1.38429 -1.36202 0
M  V30 5833 C 547.123 2.16623 -2.71463 0
M  V30 5834 C 546.077 1.89054 -3.83982 0
M  V30 5835 C 545.403 3.22532 -4.26471 0
M  V30 5836 C 546.703 1.1984 -5.08366 0
M  V30 5837 H 548.397 0.413373 -2.96533 0
M  V30 5838 H 545.943 0.197391 -1.42641 0
M  V30 5839 H 547.896 2.84614 -3.10761 0
M  V30 5840 H 546.62 2.67269 -1.8771 0
M  V30 5841 H 545.279 1.23469 -3.45183 0
M  V30 5842 H 544.927 3.71013 -3.39644 0
M  V30 5843 H 544.627 3.04879 -5.02317 0
M  V30 5844 H 546.151 3.91727 -4.68383 0
M  V30 5845 H 547.565 1.77896 -5.45001 0
M  V30 5846 H 545.962 1.12456 -5.89469 0
M  V30 5847 H 547.032 0.176996 -4.84577 0
M  V30 5848 N 548.375 1.56261 0.205012 0
M  V30 5849 C 549.623 1.79684 0.925096 0
M  V30 5850 C 549.944 0.63989 1.84202 0
M  V30 5851 O 549.214 -0.342345 1.92885 0
M  V30 5852 H 547.794 0.662774 0.344587 0
M  V30 5853 H 550.456 1.93734 0.212899 0
M  V30 5854 H 549.552 2.72467 1.52211 0
M  V30 5855 N 549.853 -0.472356 1.50355 0
M  V30 5856 C 551.264 -1.05326 1.54154 0
M  V30 5857 C 551.615 -1.93155 0.344303 0
M  V30 5858 O 550.74 -2.09479 -0.542928 0
M  V30 5859 C 551.335 -1.91691 2.79356 0
M  V30 5860 C 549.894 -2.44892 2.8584 0
M  V30 5861 C 549.041 -1.23205 2.48426 0
M  V30 5862 H 551.992 -0.255027 1.56637 0
M  V30 5863 H 552.013 -2.76742 2.6114 0
M  V30 5864 H 551.525 -1.27741 3.66475 0
M  V30 5865 H 549.626 -3.12399 2.0307 0
M  V30 5866 H 549.739 -2.80086 3.88701 0
M  V30 5867 H 548.103 -1.56643 2.00836 0
M  V30 5868 H 548.886 -0.609194 3.37852 0
M  V30 5869 N 551.331 -1.39911 -0.725443 0
M  V30 5870 C 552.571 -1.39096 -1.49772 0
M  V30 5871 C 552.935 0.0106452 -1.91997 0
M  V30 5872 O 554.136 0.143859 -2.68415 0
M  V30 5873 C 552.407 -2.34441 -2.69764 0
M  V30 5874 S 553.966 -2.51898 -3.59295 0
M  V30 5875 H 550.784 -0.49314 -0.512186 0
M  V30 5876 H 553.386 -1.76093 -0.849197 0
M  V30 5877 H 552.09 -3.35123 -2.36898 0
M  V30 5878 H 551.621 -1.98692 -3.39537 0
M  V30 5879 H 553.636 -1.76402 -4.63785 0
M  V30 5880 N 552.809 0.956637 -1.25245 0
M  V30 5881 C 553.742 2.05232 -0.99775 0
M  V30 5882 C 554.72 1.62439 0.0723137 0
M  V30 5883 O 555.904 1.88381 -0.066926 0
M  V30 5884 C 553.031 3.34871 -0.507861 0
M  V30 5885 C 552.077 3.96625 -1.56815 0
M  V30 5886 S 552.91 4.32853 -3.15276 0
M  V30 5887 C 554.066 5.65613 -2.68017 0
M  V30 5888 H 554.299 2.26521 -1.9255 0
M  V30 5889 H 551.832 1.09601 -1.08752 0
M  V30 5890 H 553.79 4.09845 -0.231858 0
M  V30 5891 H 552.451 3.11551 0.399356 0
M  V30 5892 H 551.644 4.90087 -1.17604 0
M  V30 5893 H 551.246 3.28124 -1.79473 0
M  V30 5894 H 553.538 6.43635 -2.11518 0
M  V30 5895 H 554.481 6.09693 -3.60112 0
M  V30 5896 H 554.889 5.24751 -2.0808 0
M  V30 5897 N 554.287 1.06798 1.15896 0
M  V30 5898 C 555.564 0.701057 1.82605 0
M  V30 5899 C 555.944 -0.817066 1.94646 0
M  V30 5900 O 555.292 -1.72933 1.49353 0
M  V30 5901 C 555.502 1.40895 3.19296 0
M  V30 5902 C 556.85 1.55744 3.95005 0
M  V30 5903 O 557.874 1.36927 3.28831 0
M  V30 5904 O 556.733 1.86658 5.13635 0
M  V30 5905 H 553.827 0.248791 0.78869 0
M  V30 5906 H 556.373 1.16857 1.23055 0
M  V30 5907 H 555.145 2.4439 3.05596 0
M  V30 5908 H 554.768 0.931847 3.86526 0
M  V30 5909 N 555.766 -1.3263 0.851289 0
M  V30 5910 C 557.015 -1.96633 0.449267 0
M  V30 5911 C 557.328 -1.68131 -0.999562 0
M  V30 5912 O 558.534 -2.25845 -1.50685 0
M  V30 5913 C 556.99 -3.51946 0.752446 0
M  V30 5914 C 556.598 -3.89311 2.21678 0
M  V30 5915 C 558.342 -4.22437 0.417983 0
M  V30 5916 C 556.249 -5.37655 2.46336 0
M  V30 5917 H 555.179 -0.735888 0.164269 0
M  V30 5918 H 557.83 -1.51073 1.0416 0
M  V30 5919 H 556.212 -3.95899 0.0895858 0
M  V30 5920 H 557.386 -3.56378 2.92115 0
M  V30 5921 H 555.701 -3.31836 2.51543 0
M  V30 5922 H 558.298 -5.31549 0.579674 0
M  V30 5923 H 558.641 -4.11349 -0.640115 0
M  V30 5924 H 559.174 -3.84057 1.03659 0
M  V30 5925 H 555.913 -5.5376 3.50757 0
M  V30 5926 H 555.433 -5.72005 1.80473 0
M  V30 5927 H 557.112 -6.04695 2.30115 0
M  V30 5928 N 557.244 -0.608902 -1.45362 0
M  V30 5929 C 558.177 0.158059 -2.27652 0
M  V30 5930 C 559.155 0.872397 -1.37215 0
M  V30 5931 O 560.339 0.881002 -1.66645 0
M  V30 5932 C 557.466 1.22896 -3.15617 0
M  V30 5933 C 556.512 0.617607 -4.22005 0
M  V30 5934 S 557.345 -0.575518 -5.32398 0
M  V30 5935 C 558.501 0.495938 -6.23932 0
M  V30 5936 H 558.734 -0.540095 -2.92353 0
M  V30 5937 H 556.267 -0.396456 -1.49223 0
M  V30 5938 H 558.225 1.84195 -3.66855 0
M  V30 5939 H 556.886 1.89919 -2.50179 0
M  V30 5940 H 556.079 1.42341 -4.83482 0
M  V30 5941 H 555.681 0.0797273 -3.73915 0
M  V30 5942 H 557.973 1.37465 -6.63408 0
M  V30 5943 H 558.916 -0.0827108 -7.08052 0
M  V30 5944 H 559.324 0.811856 -5.58631 0
M  V30 5945 N 558.722 1.53707 -0.348139 0
M  V30 5946 C 559.669 2.25173 0.506518 0
M  V30 5947 C 560.639 1.25174 1.09182 0
M  V30 5948 O 561.824 1.53917 1.12757 0
M  V30 5949 C 558.964 3.03141 1.64923 0
M  V30 5950 C 558.077 4.18002 1.0908 0
M  V30 5951 C 557.212 4.83447 2.20119 0
M  V30 5952 C 556.251 5.90369 1.61651 0
M  V30 5953 N 555.388 6.49575 2.66451 0
M  V30 5954 H 560.228 2.97799 -0.109452 0
M  V30 5955 H 557.765 1.46953 -0.0657866 0
M  V30 5956 H 559.723 3.46607 2.32205 0
M  V30 5957 H 558.353 2.32803 2.23612 0
M  V30 5958 H 557.405 3.79145 0.308783 0
M  V30 5959 H 558.717 4.94892 0.623178 0
M  V30 5960 H 557.871 5.30008 2.95257 0
M  V30 5961 H 556.61 4.05991 2.70227 0
M  V30 5962 H 555.615 5.43186 0.850209 0
M  V30 5963 H 556.84 6.69735 1.1239 0
M  V30 5964 H 554.786 5.74981 3.15805 0
M  V30 5965 H 554.703 7.21952 2.24325 0
M  V30 5966 H 555.971 7.00789 3.41344 0
M  V30 5967 N 560.2 0.0768682 1.57412 0
M  V30 5968 C 561.616 -0.279772 1.57129 0
M  V30 5969 C 561.816 -1.69688 1.08666 0
M  V30 5970 O 560.872 -2.40953 0.754843 0
M  V30 5971 C 562.185 -0.0848055 3.0058 0
M  V30 5972 C 563.733 -0.153954 3.12621 0
M  V30 5973 C 564.208 0.0127946 4.57998 0
M  V30 5974 N 565.699 -0.0426435 4.6318 0
M  V30 5975 C 566.434 0.0618892 5.73367 0
M  V30 5976 N 565.93 0.220229 6.9245 0
M  V30 5977 N 567.723 0.00446072 5.621 0
M  V30 5978 H 559.874 1.00297 1.87228 0
M  V30 5979 H 562.137 0.391565 0.863354 0
M  V30 5980 H 561.843 0.89325 3.40168 0
M  V30 5981 H 561.717 -0.834961 3.67843 0
M  V30 5982 H 564.104 -1.1225 2.72917 0
M  V30 5983 H 564.185 0.627389 2.47987 0
M  V30 5984 H 563.829 0.978128 4.98392 0
M  V30 5985 H 563.759 -0.788016 5.20671 0
M  V30 5986 H 566.25 -0.163226 3.77547 0
M  V30 5987 H 566.563 0.291999 7.72248 0
M  V30 5988 H 564.908 0.255658 6.9453 0
M  V30 5989 H 568.099 -0.117979 4.67951 0
M  V30 5990 H 568.272 0.0893796 6.47938 0
M  V30 5991 N 561.678 -1.56367 -0.196722 0
M  V30 5992 C 562.626 -1.95304 -1.2633 0
M  V30 5993 C 563.62 -0.838252 -1.47206 0
M  V30 5994 O 564.826 -1.02325 -1.48087 0
M  V30 5995 H 561.201 -0.621013 -0.424083 0
M  V30 5996 H 563.172 -2.84254 -0.907879 0
M  V30 5997 C 561.921 -2.3074 -2.60104 0
M  V30 5998 H 561.244 -3.16047 -2.44856 0
M  V30 5999 H 562.684 -2.61849 -3.33484 0
M  V30 6000 C 561.143 -1.14143 -3.16975 0
M  V30 6001 O 561.673 -0.415602 -3.99544 0
M  V30 6002 N 559.879 -0.91867 -2.75697 0
M  V30 6003 H 559.426 -1.51065 -2.08656 0
M  V30 6004 H 559.384 -0.140321 -3.14087 0
M  V30 6005 N 563.156 0.464375 -1.50603 0
M  V30 6006 C 564.405 1.21277 -1.61167 0
M  V30 6007 C 564.718 1.92953 -0.320704 0
M  V30 6008 O 565.924 2.69778 -0.30534 0
M  V30 6009 C 564.38 2.20403 -2.84518 0
M  V30 6010 C 563.988 1.54499 -4.20516 0
M  V30 6011 C 565.732 2.95843 -3.0443 0
M  V30 6012 C 563.639 2.51951 -5.35047 0
M  V30 6013 H 562.569 0.456367 -0.600204 0
M  V30 6014 H 565.22 0.48254 -1.77042 0
M  V30 6015 H 563.602 2.96746 -2.62217 0
M  V30 6016 H 564.776 0.83899 -4.53098 0
M  V30 6017 H 563.091 0.913152 -4.06264 0
M  V30 6018 H 565.688 3.6879 -3.87167 0
M  V30 6019 H 566.031 3.55622 -2.16423 0
M  V30 6020 H 566.564 2.26611 -3.26944 0
M  V30 6021 H 563.303 1.96901 -6.25228 0
M  V30 6022 H 562.823 3.20683 -5.06875 0
M  V30 6023 H 564.502 3.13643 -5.65895 0
M  V30 6024 N 564.634 1.40294 0.718013 0
M  V30 6025 C 565.859 1.41941 1.5122 0
M  V30 6026 C 566.284 0.0202371 1.88089 0
M  V30 6027 O 565.642 -0.971078 1.53101 0
M  V30 6028 C 565.69 2.3141 2.76554 0
M  V30 6029 O 564.794 1.75567 3.73162 0
M  V30 6030 H 564.135 0.482644 0.456016 0
M  V30 6031 H 566.665 1.84494 0.884478 0
M  V30 6032 H 566.675 2.46513 3.25108 0
M  V30 6033 H 565.35 3.33085 2.49053 0
M  V30 6034 H 563.927 1.69798 3.31999 0
M  V30 6035 N 566.112 -0.949982 1.2575 0
M  V30 6036 C 567.062 -2.03297 1.03221 0
M  V30 6037 C 568.046 -1.60867 -0.0324751 0
M  V30 6038 O 569.238 -1.76047 0.183423 0
M  V30 6039 C 566.367 -3.36938 0.657841 0
M  V30 6040 C 565.453 -3.85878 1.75952 0
M  V30 6041 N 565.844 -4.0756 2.99547 0
M  V30 6042 C 564.142 -4.14709 1.64111 0
M  V30 6043 C 564.843 -4.47961 3.71087 0
M  V30 6044 N 563.819 -4.5416 2.98731 0
M  V30 6045 H 567.621 -2.1806 1.97045 0
M  V30 6046 H 565.135 -1.13516 1.16138 0
M  V30 6047 H 567.132 -4.14155 0.477614 0
M  V30 6048 H 565.792 -3.2355 -0.273025 0
M  V30 6049 H 566.803 -3.94501 3.35544 0
M  V30 6050 H 563.48 -4.10158 0.779527 0
M  V30 6051 H 564.87 -4.73002 4.77199 0
M  V30 6052 N 567.59 -1.07411 -1.15328 0
M  V30 6053 C 568.82 -0.817595 -1.89734 0
M  V30 6054 C 569.228 0.63297 -1.78298 0
M  V30 6055 O 568.571 1.44594 -1.13306 0
M  V30 6056 C 568.633 -1.14748 -3.40695 0
M  V30 6057 C 568.297 -2.59876 -3.75917 0
M  V30 6058 C 569.294 -3.58122 -3.76888 0
M  V30 6059 C 566.979 -2.95469 -4.06206 0
M  V30 6060 C 568.973 -4.89996 -4.07655 0
M  V30 6061 C 566.66 -4.2754 -4.36638 0
M  V30 6062 C 567.658 -5.24614 -4.37344 0
M  V30 6063 O 567.346 -6.54312 -4.67045 0
M  V30 6064 H 567.078 -0.295175 -0.608151 0
M  V30 6065 H 569.632 -1.43409 -1.47048 0
M  V30 6066 H 567.862 -0.47395 -3.83785 0
M  V30 6067 H 569.551 -0.873397 -3.96392 0
M  V30 6068 H 570.317 -3.31966 -3.53587 0
M  V30 6069 H 566.196 -2.20558 -4.04815 0
M  V30 6070 H 569.74 -5.65759 -4.08121 0
M  V30 6071 H 565.637 -4.53449 -4.59407 0
M  V30 6072 H 566.405 -6.59473 -4.84807 0
M  V30 6073 N 569.068 1.32177 -0.85831 0
M  V30 6074 C 569.978 2.32561 -0.308606 0
M  V30 6075 C 570.994 1.64209 0.575462 0
M  V30 6076 O 572.17 1.95719 0.474961 0
M  V30 6077 C 569.235 3.43207 0.490909 0
M  V30 6078 C 568.296 4.27243 -0.419733 0
M  V30 6079 C 567.529 5.32605 0.341719 0
M  V30 6080 O 567.752 5.48332 1.57125 0
M  V30 6081 O 566.686 6.0118 -0.294379 0
M  V30 6082 H 570.512 2.81477 -1.14037 0
M  V30 6083 H 568.097 1.35866 -0.621349 0
M  V30 6084 H 569.979 4.10677 0.944574 0
M  V30 6085 H 568.654 2.96474 1.29941 0
M  V30 6086 H 567.561 3.62569 -0.921652 0
M  V30 6087 H 568.894 4.7751 -1.19352 0
M  V30 6088 N 570.547 0.616602 1.45037 0
M  V30 6089 C 571.457 -0.0985401 2.34393 0
M  V30 6090 C 572.473 -0.850971 1.51771 0
M  V30 6091 O 573.649 -0.806521 1.84546 0
M  V30 6092 C 570.714 -1.07748 3.29532 0
M  V30 6093 C 569.775 -0.326022 4.2806 0
M  V30 6094 C 569.008 -1.25833 5.18654 0
M  V30 6095 O 569.231 -2.49652 5.12864 0
M  V30 6096 O 568.165 -0.750512 5.97203 0
M  V30 6097 H 571.991 0.636016 2.96966 0
M  V30 6098 H 569.576 0.376832 1.44569 0
M  V30 6099 H 571.458 -1.64107 3.88133 0
M  V30 6100 H 570.133 -1.79291 2.69512 0
M  V30 6101 H 569.04 0.280253 3.73049 0
M  V30 6102 H 570.373 0.349091 4.9096 0
M  V30 6103 N 572.025 -1.5352 0.356285 0
M  V30 6104 C 572.957 -2.23009 -0.529127 0
M  V30 6105 C 573.97 -1.241 -1.05371 0
M  V30 6106 O 575.159 -1.50379 -0.961679 0
M  V30 6107 C 572.259 -2.90685 -1.74229 0
M  V30 6108 C 571.432 -4.16019 -1.35081 0
M  V30 6109 C 570.491 -4.66989 -2.42502 0
M  V30 6110 O 569.517 -5.30895 -2.05279 0
M  V30 6111 N 570.719 -4.44006 -3.7395 0
M  V30 6112 H 573.484 -2.99627 0.0660501 0
M  V30 6113 H 571.045 -1.60885 0.181014 0
M  V30 6114 H 573.037 -3.21695 -2.4555 0
M  V30 6115 H 571.607 -2.17575 -2.24454 0
M  V30 6116 H 570.827 -3.91414 -0.467833 0
M  V30 6117 H 572.115 -4.9752 -1.06542 0
M  V30 6118 H 571.513 -3.92924 -4.06973 0
M  V30 6119 H 570.07 -4.7959 -4.41403 0
M  V30 6120 N 573.503 -0.0852151 -1.57369 0
M  V30 6121 C 574.433 0.874556 -2.16503 0
M  V30 6122 C 575.414 1.30111 -1.09568 0
M  V30 6123 O 576.599 1.36977 -1.37662 0
M  V30 6124 C 573.729 2.13731 -2.73745 0
M  V30 6125 C 572.683 1.84971 -3.85966 0
M  V30 6126 C 572.009 3.17991 -4.29867 0
M  V30 6127 C 573.309 1.14442 -5.09608 0
M  V30 6128 H 575.003 0.381899 -2.96954 0
M  V30 6129 H 572.549 0.18225 -1.42842 0
M  V30 6130 H 574.502 2.81302 -3.13763 0
M  V30 6131 H 573.226 2.65263 -1.90534 0
M  V30 6132 H 571.885 1.19801 -3.46473 0
M  V30 6133 H 571.533 3.6739 -3.4356 0
M  V30 6134 H 571.233 2.99534 -5.05523 0
M  V30 6135 H 572.757 3.86737 -4.72511 0
M  V30 6136 H 574.171 1.72105 -5.46857 0
M  V30 6137 H 572.568 1.06197 -5.90629 0
M  V30 6138 H 573.638 0.12559 -4.84737 0
M  V30 6139 N 574.981 1.5647 0.188427 0
M  V30 6140 C 576.227 1.81281 0.909124 0
M  V30 6141 C 576.56 0.66034 1.82628 0
M  V30 6142 O 575.835 -0.338737 1.91528 0
M  V30 6143 C 576.118 3.16388 1.7196 0
M  V30 6144 C 575.971 4.42137 0.826714 0
M  V30 6145 C 577.29 3.48256 2.69083 0
M  V30 6146 H 574.409 0.659457 0.329068 0
M  V30 6147 H 577.051 1.89182 0.176156 0
M  V30 6148 H 575.201 3.09784 2.34448 0
M  V30 6149 H 576.873 4.60794 0.216025 0
M  V30 6150 H 575.116 4.33594 0.133792 0
M  V30 6151 H 575.787 5.33184 1.42893 0
M  V30 6152 H 578.263 3.55203 2.16726 0
M  V30 6153 H 577.139 4.43899 3.2287 0
M  V30 6154 H 577.4 2.72088 3.48455 0
M  V30 6155 N 576.459 -0.456382 1.50847 0
M  V30 6156 C 577.406 -1.55249 1.70782 0
M  V30 6157 C 578.376 -1.56757 0.549231 0
M  V30 6158 O 579.561 -1.74061 0.7815 0
M  V30 6159 C 576.701 -2.93118 1.82143 0
M  V30 6160 C 575.814 -3.01285 3.09598 0
M  V30 6161 C 574.949 -4.30159 3.11667 0
M  V30 6162 C 573.988 -4.32124 4.33515 0
M  V30 6163 N 573.125 -5.52492 4.3324 0
M  V30 6164 H 577.965 -1.37555 2.64353 0
M  V30 6165 H 575.502 -0.668543 1.3103 0
M  V30 6166 H 577.46 -3.73088 1.86711 0
M  V30 6167 H 576.09 -3.09413 0.919978 0
M  V30 6168 H 575.142 -2.14096 3.14431 0
M  V30 6169 H 576.454 -2.98597 3.99551 0
M  V30 6170 H 575.608 -5.18489 3.15046 0
M  V30 6171 H 574.347 -4.35477 2.1957 0
M  V30 6172 H 573.352 -3.42189 4.30333 0
M  V30 6173 H 574.577 -4.28485 5.26856 0
M  V30 6174 H 572.523 -5.58567 3.44004 0
M  V30 6175 H 572.44 -5.51605 5.16979 0
M  V30 6176 H 573.708 -6.42906 4.40786 0
M  V30 6177 N 577.937 -1.40673 -0.710563 0
M  V30 6178 C 578.87 -1.35742 -1.83438 0
M  V30 6179 C 579.848 -0.226997 -1.61008 0
M  V30 6180 O 581.032 -0.411477 -1.83954 0
M  V30 6181 C 578.159 -1.11374 -3.19865 0
M  V30 6182 C 577.205 -2.26935 -3.61113 0
M  V30 6183 S 578.038 -3.89352 -3.67648 0
M  V30 6184 C 579.194 -3.67258 -5.06826 0
M  V30 6185 H 579.427 -2.30848 -1.87341 0
M  V30 6186 H 576.96 -1.27018 -0.877831 0
M  V30 6187 H 578.918 -0.980004 -3.9863 0
M  V30 6188 H 577.579 -0.179135 -3.13589 0
M  V30 6189 H 576.772 -2.0554 -4.60184 0
M  V30 6190 H 576.374 -2.36638 -2.89618 0
M  V30 6191 H 578.666 -3.26036 -5.93891 0
M  V30 6192 H 579.609 -4.65878 -5.33257 0
M  V30 6193 H 580.017 -3.0084 -4.77656 0
M  V30 6194 N 579.415 0.9433 -1.26252 0
M  V30 6195 C 580.662 1.68925 -1.11672 0
M  V30 6196 C 580.99 1.91499 0.340329 0
M  V30 6197 O 580.245 1.49189 1.26653 0
M  V30 6198 C 580.544 3.07073 -1.82868 0
M  V30 6199 C 580.21 3.04262 -3.32769 0
M  V30 6200 C 578.872 3.03203 -3.7366 0
M  V30 6201 C 581.224 2.96729 -4.28487 0
M  V30 6202 C 578.552 2.92373 -5.0866 0
M  V30 6203 C 580.904 2.87442 -5.63525 0
M  V30 6204 C 579.568 2.84724 -6.03729 0
M  V30 6205 H 578.838 0.618141 -0.408635 0
M  V30 6206 H 581.485 1.10124 -1.56668 0
M  V30 6207 H 579.79 3.69486 -1.30335 0
M  V30 6208 H 581.487 3.63635 -1.69029 0
M  V30 6209 H 578.077 3.05865 -3.00241 0
M  V30 6210 H 582.261 2.96658 -3.97879 0
M  V30 6211 H 577.517 2.88645 -5.38975 0
M  V30 6212 H 581.691 2.80576 -6.37377 0
M  V30 6213 H 579.318 2.76089 -7.08293 0
M  V30 6214 N 580.893 1.08022 1.14757 0
M  V30 6215 C 582.141 0.805913 1.85336 0
M  V30 6216 C 582.462 -0.670162 1.83122 0
M  V30 6217 O 581.732 -1.48567 1.2769 0
M  V30 6218 H 580.312 0.295138 0.686223 0
M  V30 6219 H 582.974 1.36538 1.3908 0
M  V30 6220 H 582.07 1.14655 2.90277 0
M  V30 6221 N 582.371 -1.3172 0.865308 0
M  V30 6222 C 583.596 -2.01591 0.487415 0
M  V30 6223 C 584.021 -1.6455 -0.911307 0
M  V30 6224 O 583.379 -0.851689 -1.6005 0
M  V30 6225 C 583.427 -3.54759 0.646401 0
M  V30 6226 O 582.531 -4.11185 -0.316284 0
M  V30 6227 H 581.872 -0.634884 0.194468 0
M  V30 6228 H 584.402 -1.68024 1.16744 0
M  V30 6229 H 584.412 -4.04438 0.537932 0
M  V30 6230 H 583.087 -3.8106 1.66632 0
M  V30 6231 H 581.664 -3.72543 -0.163162 0
M  V30 6232 N 583.85 -0.624285 -1.44708 0
M  V30 6233 C 585.075 -0.131171 -2.06985 0
M  V30 6234 C 585.5 1.18234 -1.46295 0
M  V30 6235 O 584.858 1.72375 -0.561842 0
M  V30 6236 C 584.906 -0.0226724 -3.60593 0
M  V30 6237 O 584.01 1.02314 -3.99507 0
M  V30 6238 H 583.351 -0.0816556 -0.65896 0
M  V30 6239 H 585.88 -0.859027 -1.85693 0
M  V30 6240 H 585.891 0.170138 -4.07645 0
M  V30 6241 H 584.566 -0.981685 -4.04148 0
M  V30 6242 H 583.143 0.805452 -3.64097 0
M  V30 6243 N 585.328 1.53329 -0.364422 0
M  V30 6244 C 586.574 2.01537 0.225969 0
M  V30 6245 C 586.907 1.25128 1.48515 0
M  V30 6246 O 586.182 0.344653 1.91422 0
M  V30 6247 C 586.465 3.56339 0.519092 0
M  V30 6248 C 586.318 4.43441 -0.753639 0
M  V30 6249 C 587.637 4.19833 1.32015 0
M  V30 6250 H 584.756 0.732573 0.0806548 0
M  V30 6251 H 587.398 1.83597 -0.489084 0
M  V30 6252 H 585.548 3.71756 1.12825 0
M  V30 6253 H 587.22 4.39823 -1.39116 0
M  V30 6254 H 585.463 4.11457 -1.37424 0
M  V30 6255 H 586.134 5.49699 -0.503517 0
M  V30 6256 H 588.61 4.08242 0.804859 0
M  V30 6257 H 587.486 5.28177 1.49399 0
M  V30 6258 H 587.747 3.75821 2.32832 0
M  V30 6259 N 586.806 0.0935595 1.57322 0
M  V30 6260 C 588.083 -0.612692 1.85756 0
M  V30 6261 C 588.463 -1.86439 0.99013 0
M  V30 6262 O 587.811 -2.28416 0.0621362 0
M  V30 6263 C 588.021 -0.929547 3.36393 0
M  V30 6264 C 589.369 -1.29366 4.04413 0
M  V30 6265 O 590.393 -1.02061 3.41265 0
M  V30 6266 O 589.252 -1.80498 5.15832 0
M  V30 6267 H 586.346 -0.306444 0.768128 0
M  V30 6268 H 588.892 0.126141 1.69231 0
M  V30 6269 H 587.664 -0.0414766 3.91278 0
M  V30 6270 H 587.287 -1.72441 3.5826 0
M  V30 6271 N 588.284 -1.56567 -0.180126 0
M  V30 6272 C 589.214 -1.98753 -1.22553 0
M  V30 6273 C 590.195 -0.86175 -1.46656 0
M  V30 6274 O 591.38 -1.12719 -1.58139 0
M  V30 6275 C 588.51 -2.33988 -2.56645 0
M  V30 6276 C 587.464 -3.49445 -2.47128 0
M  V30 6277 C 586.79 -3.70397 -3.8563 0
M  V30 6278 C 588.09 -4.83171 -1.98352 0
M  V30 6279 H 589.784 -2.86332 -0.874896 0
M  V30 6280 H 587.33 -1.37757 -0.419414 0
M  V30 6281 H 589.283 -2.62097 -3.29974 0
M  V30 6282 H 588.007 -1.43309 -2.93479 0
M  V30 6283 H 586.666 -3.2145 -1.76254 0
M  V30 6284 H 586.314 -2.77023 -4.19842 0
M  V30 6285 H 586.014 -4.48077 -3.80132 0
M  V30 6286 H 587.538 -4.00897 -4.60558 0
M  V30 6287 H 588.952 -5.10213 -2.61449 0
M  V30 6288 H 587.349 -5.64425 -2.03823 0
M  V30 6289 H 588.419 -4.75753 -0.937402 0
M  V30 6290 N 589.762 0.448376 -1.51087 0
M  V30 6291 C 591.01 1.19635 -1.62886 0
M  V30 6292 C 591.331 1.91977 -0.342024 0
M  V30 6293 O 590.601 1.85094 0.641636 0
M  V30 6294 H 589.181 0.444598 -0.600285 0
M  V30 6295 H 591.843 0.515138 -1.87969 0
M  V30 6296 H 590.939 1.93194 -2.45117 0
M  V30 6297 N 591.24 1.41047 0.703093 0
M  V30 6298 C 592.188 1.42494 1.83843 0
M  V30 6299 C 593.182 0.303885 1.66652 0
M  V30 6300 O 594.388 0.475544 1.73605 0
M  V30 6301 H 590.763 0.445685 0.605697 0
M  V30 6302 H 592.734 2.38194 1.79739 0
M  V30 6303 C 591.483 1.31666 3.21807 0
M  V30 6304 H 590.806 2.17212 3.35647 0
M  V30 6305 H 592.246 1.36738 4.01346 0
M  V30 6306 C 590.705 0.0281828 3.36888 0
M  V30 6307 O 591.235 -0.929995 3.90786 0
M  V30 6308 N 589.441 -0.0454322 2.90564 0
M  V30 6309 H 588.988 0.735046 2.4689 0
M  V30 6310 H 588.946 -0.906968 3.01034 0
M  V30 6311 N 592.718 -0.936591 1.26751 0
M  V30 6312 C 593.648 -2.05315 1.11212 0
M  V30 6313 C 594.629 -1.70092 0.0160262 0
M  V30 6314 O 595.814 -1.93279 0.188894 0
M  V30 6315 C 592.944 -3.39123 0.749171 0
M  V30 6316 C 591.898 -3.88425 1.79751 0
M  V30 6317 C 591.224 -5.18936 1.28876 0
M  V30 6318 C 592.524 -4.12798 3.19992 0
M  V30 6319 H 594.218 -2.18573 2.04613 0
M  V30 6320 H 591.764 -1.05027 0.985159 0
M  V30 6321 H 593.717 -4.16704 0.627323 0
M  V30 6322 H 592.441 -3.25855 -0.220543 0
M  V30 6323 H 591.1 -3.13028 1.90811 0
M  V30 6324 H 590.748 -5.02051 0.308757 0
M  V30 6325 H 590.448 -5.52892 1.98958 0
M  V30 6326 H 591.972 -5.99096 1.17967 0
M  V30 6327 H 593.386 -4.80977 3.11983 0
M  V30 6328 H 591.783 -4.58044 3.87705 0
M  V30 6329 H 592.853 -3.18412 3.65707 0
M  V30 6330 N 594.196 -1.08629 -1.14182 0
M  V30 6331 C 595.444 -0.815731 -1.84906 0
M  V30 6332 C 595.765 0.660441 -1.83475 0
M  V30 6333 O 595.035 1.47888 -1.28476 0
M  V30 6334 H 593.615 -0.298773 -0.684648 0
M  V30 6335 H 596.277 -1.37274 -1.38354 0
M  V30 6336 H 595.373 -1.16193 -2.89665 0
M  V30 6337 N 595.674 1.31259 -0.872281 0
M  V30 6338 C 596.606 2.27396 -0.28697 0
M  V30 6339 C 597.619 1.53181 0.551297 0
M  V30 6340 O 598.808 1.74561 0.372914 0
M  V30 6341 C 595.908 3.33335 0.611617 0
M  V30 6342 C 595.081 4.36966 -0.194729 0
M  V30 6343 C 594.14 5.22387 0.632358 0
M  V30 6344 O 593.166 5.69169 0.0595691 0
M  V30 6345 N 594.368 5.46985 1.94391 0
M  V30 6346 H 597.133 2.78261 -1.11314 0
M  V30 6347 H 594.694 1.44306 -0.733994 0
M  V30 6348 H 596.686 3.87398 1.17068 0
M  V30 6349 H 595.256 2.82496 1.33846 0
M  V30 6350 H 594.476 3.82945 -0.935241 0
M  V30 6351 H 595.764 5.03273 -0.747935 0
M  V30 6352 H 595.162 5.10737 2.43237 0
M  V30 6353 H 593.719 6.03973 2.45071 0
M  V30 6354 O 597.191 0.771905 1.41859 0
M  V30 6355 H 597.882 0.335971 1.90764 0
M  V30 END ATOM
M  V30 BEGIN BOND
M  V30 END BOND
M  V30 END CTAB
M  END
$$$$
