drugbank_target|P13830 Ring-infected erythrocyte surface antigen (DB11638)
 OpenBabel12092121123D

  0  0  0     0  0            999 V3000
M  V30 BEGIN CTAB
M  V30 COUNTS 17059 17214 0 0 0
M  V30 BEGIN ATOM
M  V30 1 H -0.908 1.98254 -0.117106 0
M  V30 2 N 0 1.576 0 0
M  V30 3 C 0.933 2.03868 1.02534 0
M  V30 4 C 1.911 0.928543 1.3348 0
M  V30 5 O 3.095 1.19667 1.45644 0
M  V30 6 C 0.222 2.43627 2.35294 0
M  V30 7 C -0.732 3.65373 2.2001 0
M  V30 8 S 0.101 5.13292 1.52614 0
M  V30 9 C 1.257 5.56322 2.86805 0
M  V30 10 H 1.49 2.90518 0.631377 0
M  V30 11 H -0.977 1.52953 0.210867 0
M  V30 12 H 0.981 2.67203 3.11629 0
M  V30 13 H -0.358 1.57376 2.7183 0
M  V30 14 H -1.165 3.90944 3.18086 0
M  V30 15 H -1.563 3.418 1.51819 0
M  V30 16 H 0.729 5.58782 3.83104 0
M  V30 17 H 1.672 6.56266 2.65933 0
M  V30 18 H 2.08 4.83886 2.90714 0
M  V30 19 N 1.4781 -0.272755 1.55222 0
M  V30 20 C 2.8941 -0.619959 1.47067 0
M  V30 21 C 3.0941 -1.895 0.684978 0
M  V30 22 O 2.1501 -2.51675 0.203931 0
M  V30 23 C 3.4631 -0.746693 2.91282 0
M  V30 24 C 5.0111 -0.840731 3.01497 0
M  V30 25 C 5.4861 -0.99924 4.46967 0
M  V30 26 N 6.9771 -1.06476 4.50796 0
M  V30 27 C 7.7121 -1.20621 5.6057 0
M  V30 28 N 7.2081 -1.31483 6.80209 0
M  V30 29 N 9.0011 -1.23733 5.48312 0
M  V30 30 H 1.1521 0.564606 2.04758 0
M  V30 31 H 3.4151 0.191177 0.928523 0
M  V30 32 H 3.1211 0.119753 3.51496 0
M  V30 33 H 2.9951 -1.6269 3.40311 0
M  V30 34 H 5.3821 -1.69764 2.41379 0
M  V30 35 H 5.4631 0.0640874 2.5572 0
M  V30 36 H 5.1071 -0.146984 5.07687 0
M  V30 37 H 5.0371 -1.91871 4.90401 0
M  V30 38 H 7.5281 -0.993196 3.64615 0
M  V30 39 H 7.8411 -1.42111 7.59621 0
M  V30 40 H 6.1861 -1.28487 6.8302 0
M  V30 41 H 9.3771 -1.14877 4.53785 0
M  V30 42 H 9.5501 -1.34412 6.33906 0
M  V30 43 N 2.9562 -1.48159 -0.537278 0
M  V30 44 C 4.3672 -1.49429 -1.11928 0
M  V30 45 C 4.7182 -0.26 -1.9447 0
M  V30 46 O 3.8432 0.633489 -2.0692 0
M  V30 47 C 4.4382 -2.70758 -2.03656 0
M  V30 48 C 2.9972 -2.74923 -2.57088 0
M  V30 49 C 2.1442 -2.42835 -1.3389 0
M  V30 50 H 5.0952 -1.55381 -0.322886 0
M  V30 51 H 5.1162 -2.48861 -2.87834 0
M  V30 52 H 4.6282 -3.60575 -1.43553 0
M  V30 53 H 2.7292 -1.89296 -3.20933 0
M  V30 54 H 2.8422 -3.76157 -2.9672 0
M  V30 55 H 1.2062 -1.93836 -1.65226 0
M  V30 56 H 1.9892 -3.34884 -0.755504 0
M  V30 57 N 4.4343 0.785586 -1.36625 0
M  V30 58 C 5.6813 1.54362 -1.31067 0
M  V30 59 C 6.0093 1.94195 0.10893 0
M  V30 60 O 5.2643 1.63262 1.07908 0
M  V30 61 C 5.5633 2.83007 -2.1827 0
M  V30 62 C 5.2293 2.62294 -3.6676 0
M  V30 63 C 3.8913 2.56353 -4.0723 0
M  V30 64 C 6.2433 2.43371 -4.6089 0
M  V30 65 C 3.5713 2.29461 -5.39967 0
M  V30 66 C 5.9233 2.18005 -5.93849 0
M  V30 67 C 4.5873 2.105 -6.3344 0
M  V30 68 H 3.8573 0.564851 -0.479609 0
M  V30 69 H 6.5043 0.906028 -1.68711 0
M  V30 70 H 4.8093 3.51253 -1.73576 0
M  V30 71 H 6.5063 3.40817 -2.11292 0
M  V30 72 H 3.0963 2.67774 -3.34656 0
M  V30 73 H 7.2803 2.46959 -4.30494 0
M  V30 74 H 2.5363 2.22135 -5.69619 0
M  V30 75 H 6.7103 2.02359 -6.66351 0
M  V30 76 H 4.3373 1.89425 -7.36222 0
M  V30 77 N 5.9124 1.20967 1.01018 0
M  V30 78 C 6.8624 0.93182 2.08089 0
M  V30 79 C 7.8464 -0.110898 1.60517 0
M  V30 80 O 9.0384 0.0973392 1.76732 0
M  V30 81 C 6.1674 0.492719 3.39746 0
M  V30 82 C 5.2534 1.56922 3.94 0
M  V30 83 N 5.6444 2.79312 4.21686 0
M  V30 84 C 3.9424 1.43688 4.2222 0
M  V30 85 C 4.6434 3.48797 4.65527 0
M  V30 86 N 3.6194 2.76224 4.68189 0
M  V30 87 H 7.4214 1.86175 2.27412 0
M  V30 88 H 4.9354 1.10463 1.19045 0
M  V30 89 H 6.9324 0.275044 4.15992 0
M  V30 90 H 5.5924 -0.430509 3.21833 0
M  V30 91 H 6.6034 3.15903 4.10397 0
M  V30 92 H 3.2804 0.578548 4.13472 0
M  V30 93 H 4.6704 4.53561 4.95714 0
M  V30 94 N 7.3905 -1.2043 1.01659 0
M  V30 95 C 8.3535 -2.21433 0.591616 0
M  V30 96 C 9.3535 -1.57203 -0.338226 0
M  V30 97 O 10.5435 -1.73737 -0.126918 0
M  V30 98 C 7.6755 -3.40628 -0.136058 0
M  V30 99 H 8.8685 -2.60545 1.48514 0
M  V30 100 H 6.4215 -1.33893 0.806379 0
M  V30 101 H 7.1565 -3.07019 -1.04449 0
M  V30 102 H 6.9415 -3.88475 0.531917 0
M  V30 103 H 8.4315 -4.15475 -0.420735 0
M  V30 104 N 8.8686 -0.792821 -1.36206 0
M  V30 105 C 10.0986 -0.378275 -2.03107 0
M  V30 106 C 10.5066 1.01119 -1.59911 0
M  V30 107 O 9.8496 1.66052 -0.785658 0
M  V30 108 C 9.9116 -0.366535 -3.57627 0
M  V30 109 C 9.5756 -1.70416 -4.24037 0
M  V30 110 C 10.5726 -2.6602 -4.46687 0
M  V30 111 C 8.2576 -1.98439 -4.6144 0
M  V30 112 C 10.2516 -3.8784 -5.05825 0
M  V30 113 C 7.9386 -3.20525 -5.20295 0
M  V30 114 C 8.9366 -4.15044 -5.42427 0
M  V30 115 O 8.6246 -5.34978 -6.00045 0
M  V30 116 H 8.3566 -0.153543 -0.658332 0
M  V30 117 H 10.9106 -1.07383 -1.75094 0
M  V30 118 H 9.1406 0.385539 -3.84773 0
M  V30 119 H 10.8296 0.0238088 -4.05893 0
M  V30 120 H 11.5956 -2.45658 -4.18183 0
M  V30 121 H 7.4746 -1.25686 -4.43536 0
M  V30 122 H 11.0186 -4.61628 -5.23015 0
M  V30 123 H 6.9156 -3.40764 -5.48225 0
M  V30 124 H 7.6836 -5.36088 -6.18508 0
M  V30 125 N 10.3467 1.47872 -0.545128 0
M  V30 126 C 11.5717 2.07391 -0.0190611 0
M  V30 127 C 11.9967 1.39688 1.25971 0
M  V30 128 O 11.3547 0.467816 1.7516 0
M  V30 129 C 11.4027 3.60188 0.172335 0
M  V30 130 O 10.5067 3.9339 1.23766 0
M  V30 131 H 9.8477 0.662411 -0.0459059 0
M  V30 132 H 12.3777 1.90066 -0.757365 0
M  V30 133 H 12.3877 4.06129 0.390305 0
M  V30 134 H 11.0627 4.08865 -0.761725 0
M  V30 135 H 9.6397 3.5921 1.00114 0
M  V30 136 N 11.8248 0.280983 1.55075 0
M  V30 137 C 13.0708 -0.327573 2.00745 0
M  V30 138 C 13.4258 -1.53045 1.16598 0
M  V30 139 O 12.7188 -1.90221 0.229451 0
M  V30 140 C 12.9128 -0.754656 3.49342 0
M  V30 141 C 12.7418 0.40529 4.4787 0
M  V30 142 C 11.5118 0.890947 4.97383 0
M  V30 143 C 13.7098 1.24371 4.99035 0
M  V30 144 N 11.6918 2.01975 5.79724 0
M  V30 145 C 13.0628 2.22031 5.7888 0
M  V30 146 C 15.1178 1.27638 4.81262 0
M  V30 147 C 13.8208 3.22709 6.42846 0
M  V30 148 C 15.8468 2.27164 5.46031 0
M  V30 149 C 15.2088 3.23556 6.25692 0
M  V30 150 H 11.3078 -0.0848774 0.77738 0
M  V30 151 H 13.8918 0.406342 1.90413 0
M  V30 152 H 12.0628 -1.45778 3.60005 0
M  V30 153 H 13.7948 -1.34105 3.81835 0
M  V30 154 H 10.5498 0.469262 4.71269 0
M  V30 155 H 10.9738 2.58794 6.25584 0
M  V30 156 H 15.6158 0.544936 4.19274 0
M  V30 157 H 13.3338 3.96784 7.0398 0
M  V30 158 H 16.9198 2.30441 5.34217 0
M  V30 159 H 15.7998 3.99309 6.74924 0
M  V30 160 N 13.3029 -1.57598 0.00835791 0
M  V30 161 C 14.5519 -1.90107 -0.673968 0
M  V30 162 C 14.8649 -0.884275 -1.7447 0
M  V30 163 O 16.0709 -1.09987 -2.48224 0
M  V30 164 C 14.5269 -3.37497 -1.24995 0
M  V30 165 C 14.1349 -4.47491 -0.2136 0
M  V30 166 C 15.8789 -3.79104 -1.90999 0
M  V30 167 C 13.7859 -5.85963 -0.80005 0
M  V30 168 H 12.7159 -0.709393 -0.255495 0
M  V30 169 H 15.3669 -1.83365 0.0702693 0
M  V30 170 H 13.7489 -3.39102 -2.04513 0
M  V30 171 H 14.9229 -4.57414 0.557596 0
M  V30 172 H 13.2379 -4.14956 0.346474 0
M  V30 173 H 15.8349 -4.79901 -2.35795 0
M  V30 174 H 16.1779 -3.1306 -2.74407 0
M  V30 175 H 16.7109 -3.79833 -1.18203 0
M  V30 176 H 13.4499 -6.555 -0.00456708 0
M  V30 177 H 12.9699 -5.79687 -1.54021 0
M  V30 178 H 14.6489 -6.33884 -1.29615 0
M  V30 179 N 14.781 0.264519 -1.55364 0
M  V30 180 C 16.028 0.994986 -1.7637 0
M  V30 181 C 16.356 1.85976 -0.5695 0
M  V30 182 O 15.611 1.90509 0.44776 0
M  V30 183 C 15.91 1.9004 -3.02687 0
M  V30 184 C 15.576 1.19243 -4.34847 0
M  V30 185 C 14.238 0.996709 -4.70764 0
M  V30 186 C 16.59 0.689296 -5.16622 0
M  V30 187 C 13.918 0.285261 -5.86006 0
M  V30 188 C 16.27 -0.00860079 -6.32599 0
M  V30 189 C 14.934 -0.215963 -6.67151 0
M  V30 190 H 14.204 0.364091 -0.645383 0
M  V30 191 H 16.851 0.266543 -1.89636 0
M  V30 192 H 15.156 2.69533 -2.84357 0
M  V30 193 H 16.853 2.46695 -3.16137 0
M  V30 194 H 13.443 1.3549 -4.06621 0
M  V30 195 H 17.627 0.828108 -4.89342 0
M  V30 196 H 12.883 0.113961 -6.11294 0
M  V30 197 H 17.057 -0.406186 -6.95214 0
M  V30 198 H 14.684 -0.769217 -7.56298 0
M  V30 199 N 16.2591 1.48442 0.529413 0
M  V30 200 C 17.4841 1.60406 1.31471 0
M  V30 201 C 17.9091 0.264738 1.86228 0
M  V30 202 O 17.2671 -0.763668 1.64432 0
M  V30 203 C 17.3151 2.65419 2.44101 0
M  V30 204 O 16.4191 2.22618 3.47153 0
M  V30 205 H 15.7601 0.537863 0.389357 0
M  V30 206 H 18.2901 1.94432 0.636965 0
M  V30 207 H 18.3001 2.86709 2.90279 0
M  V30 208 H 16.9751 3.62652 2.03608 0
M  V30 209 H 15.5521 2.11543 3.0709 0
M  V30 210 N 17.7372 -0.778329 1.37039 0
M  V30 211 C 18.6692 -1.90034 1.2814 0
M  V30 212 C 19.6822 -1.61585 0.198558 0
M  V30 213 O 20.8712 -1.72625 0.454175 0
M  V30 214 C 17.9712 -3.25108 0.956968 0
M  V30 215 C 17.1442 -3.81253 2.14394 0
M  V30 216 C 16.2032 -4.94789 1.79082 0
M  V30 217 O 15.2292 -5.10721 2.51301 0
M  V30 218 N 16.4312 -5.75878 0.731043 0
M  V30 219 H 19.1962 -1.98186 2.24816 0
M  V30 220 H 16.7572 -0.957129 1.30578 0
M  V30 221 H 18.7492 -3.9857 0.701701 0
M  V30 222 H 17.3192 -3.125 0.0789812 0
M  V30 223 H 16.5392 -2.99647 2.56135 0
M  V30 224 H 17.8272 -4.15495 2.93668 0
M  V30 225 H 17.2252 -5.65547 0.131618 0
M  V30 226 H 15.7822 -6.49596 0.535622 0
M  V30 227 N 19.2153 -1.21501 -1.00376 0
M  V30 228 C 20.1473 -0.933174 -2.09343 0
M  V30 229 C 21.1603 0.0840896 -1.62583 0
M  V30 230 O 22.3493 -0.148563 -1.77881 0
M  V30 231 C 19.4493 -0.379869 -3.36764 0
M  V30 232 C 18.6223 -1.45176 -4.12605 0
M  V30 233 C 17.6813 -0.907476 -5.18316 0
M  V30 234 O 16.7073 -1.5912 -5.46507 0
M  V30 235 N 17.9093 0.276649 -5.7984 0
M  V30 236 H 20.6743 -1.87124 -2.34104 0
M  V30 237 H 18.2353 -1.12043 -1.16867 0
M  V30 238 H 20.2273 -0.00131488 -4.047 0
M  V30 239 H 18.7973 0.463048 -3.09151 0
M  V30 240 H 18.0173 -2.00411 -3.39454 0
M  V30 241 H 19.3053 -2.17328 -4.6005 0
M  V30 242 H 18.7033 0.849147 -5.59291 0
M  V30 243 H 17.2603 0.596702 -6.49063 0
M  V30 244 N 20.6934 1.19889 -1.02296 0
M  V30 245 C 21.9234 1.93109 -0.734332 0
M  V30 246 C 22.3314 1.75377 0.709889 0
M  V30 247 O 21.6744 1.06912 1.49384 0
M  V30 248 C 21.7364 3.45362 -0.99827 0
M  V30 249 C 21.4004 3.8686 -2.43287 0
M  V30 250 C 22.3974 3.92102 -3.41397 0
M  V30 251 C 20.0824 4.18668 -2.77529 0
M  V30 252 C 22.0764 4.28573 -4.71809 0
M  V30 253 C 19.7634 4.54813 -4.08153 0
M  V30 254 C 20.7614 4.59739 -5.05103 0
M  V30 255 O 20.4494 4.95051 -6.33388 0
M  V30 256 H 20.1814 0.620409 -0.268456 0
M  V30 257 H 22.7354 1.53144 -1.3688 0
M  V30 258 H 20.9654 3.85482 -0.306645 0
M  V30 259 H 22.6544 3.99814 -0.700234 0
M  V30 260 H 23.4204 3.67685 -3.1628 0
M  V30 261 H 19.2994 4.14021 -2.0275 0
M  V30 262 H 22.8434 4.32333 -5.4748 0
M  V30 263 H 18.7404 4.78687 -4.33047 0
M  V30 264 H 19.5084 5.1302 -6.37772 0
M  V30 265 N 22.1715 0.800033 1.35784 0
M  V30 266 C 23.1045 0.151499 2.27697 0
M  V30 267 C 24.0825 -0.678663 1.4776 0
M  V30 268 O 25.2665 -0.647358 1.77035 0
M  V30 269 C 22.3935 -0.790492 3.29346 0
M  V30 270 C 21.4395 -0.0407832 4.26481 0
M  V30 271 S 22.2725 1.29077 5.19711 0
M  V30 272 C 23.4285 0.353055 6.24903 0
M  V30 273 H 23.6615 0.930796 2.82353 0
M  V30 274 H 21.1945 0.594767 1.42485 0
M  V30 275 H 23.1525 -1.3285 3.88409 0
M  V30 276 H 21.8135 -1.54312 2.73581 0
M  V30 277 H 21.0065 -0.755971 4.98298 0
M  V30 278 H 20.6085 0.427063 3.71554 0
M  V30 279 H 22.9005 -0.464147 6.75908 0
M  V30 280 H 23.8435 1.04023 7.00418 0
M  V30 281 H 24.2515 -0.0483344 5.64479 0
M  V30 282 N 23.6496 -1.47581 0.552962 0
M  V30 283 C 24.8976 -2.02082 0.0272703 0
M  V30 284 C 25.2186 -1.4301 -1.32563 0
M  V30 285 O 24.4886 -0.603745 -1.86365 0
M  V30 286 H 23.0686 -0.746966 0.00709182 0
M  V30 287 H 25.7306 -1.81033 0.722008 0
M  V30 288 H 24.8266 -3.12034 -0.0639951 0
M  V30 289 N 25.1277 -0.289203 -1.54924 0
M  V30 290 C 26.3557 0.326463 -2.04308 0
M  V30 291 C 26.7707 1.48413 -1.16701 0
M  V30 292 O 26.1277 1.81507 -0.190087 0
M  V30 293 C 26.1787 0.794014 -3.52672 0
M  V30 294 O 25.8997 -0.317564 -4.36948 0
M  V30 295 C 27.4007 1.47605 -4.18004 0
M  V30 296 H 24.6207 0.0726272 -0.667058 0
M  V30 297 H 27.1647 -0.425401 -2.00026 0
M  V30 298 H 25.3197 1.49593 -3.57352 0
M  V30 299 H 25.7337 0.0443186 -5.24481 0
M  V30 300 H 27.2077 1.75447 -5.23376 0
M  V30 301 H 27.6847 2.41224 -3.67025 0
M  V30 302 H 28.2907 0.81762 -4.17367 0
M  V30 303 N 26.6058 1.57591 -0.0167156 0
M  V30 304 C 27.5528 2.09462 0.969251 0
M  V30 305 C 28.5228 0.99381 1.33089 0
M  V30 306 O 29.7078 1.26726 1.42636 0
M  V30 307 C 26.8478 2.61622 2.25051 0
M  V30 308 C 25.9608 3.85666 1.94642 0
M  V30 309 C 25.0958 4.26266 3.16972 0
M  V30 310 C 24.1348 5.43101 2.82326 0
M  V30 311 N 23.2718 5.78915 3.97243 0
M  V30 312 H 28.1118 2.93428 0.519997 0
M  V30 313 H 25.6488 1.45044 0.245087 0
M  V30 314 H 27.6068 2.89949 2.99976 0
M  V30 315 H 26.2368 1.80505 2.67615 0
M  V30 316 H 25.2888 3.64145 1.10013 0
M  V30 317 H 26.6008 4.70678 1.65117 0
M  V30 318 H 25.7548 4.55963 4.00228 0
M  V30 319 H 24.4938 3.39996 3.49648 0
M  V30 320 H 23.4988 5.1311 1.97479 0
M  V30 321 H 24.7238 6.3106 2.50879 0
M  V30 322 H 22.6698 4.95602 4.29785 0
M  V30 323 H 22.5868 6.58539 3.71299 0
M  V30 324 H 23.8548 6.13212 4.81239 0
M  V30 325 N 28.0839 -0.256276 1.55502 0
M  V30 326 C 29.0319 -1.33694 1.90338 0
M  V30 327 C 30.0259 -1.50299 0.781441 0
M  V30 328 O 31.2319 -1.51885 0.965966 0
M  V30 329 H 27.6069 -0.447483 0.60437 0
M  V30 330 H 29.5779 -1.01574 2.8058 0
M  V30 331 C 28.3269 -2.68724 2.20642 0
M  V30 332 H 27.6499 -2.56743 3.06469 0
M  V30 333 H 29.0899 -3.43237 2.48926 0
M  V30 334 C 27.5489 -3.21101 1.01959 0
M  V30 335 O 28.0789 -4.0084 0.262762 0
M  V30 336 N 26.2849 -2.79003 0.812746 0
M  V30 337 H 25.8319 -2.14271 1.42989 0
M  V30 338 H 25.7899 -3.14393 0.0203076 0
M  V30 339 N 29.562 -1.4872 -0.521534 0
M  V30 340 C 30.808 -1.574 -1.27879 0
M  V30 341 C 31.141 -0.250817 -1.92573 0
M  V30 342 O 30.416 0.743934 -1.79711 0
M  V30 343 C 30.699 -2.71843 -2.36164 0
M  V30 344 C 30.552 -4.13893 -1.76105 0
M  V30 345 C 31.871 -2.82008 -3.37875 0
M  V30 346 H 28.99 -0.572941 -0.463581 0
M  V30 347 H 31.632 -1.80927 -0.580119 0
M  V30 348 H 29.782 -2.51914 -2.95756 0
M  V30 349 H 31.454 -4.45284 -1.20499 0
M  V30 350 H 29.697 -4.20498 -1.06601 0
M  V30 351 H 30.368 -4.89804 -2.5455 0
M  V30 352 H 32.844 -3.00086 -2.88249 0
M  V30 353 H 31.72 -3.63796 -4.11028 0
M  V30 354 H 31.981 -1.90511 -3.98946 0
M  V30 355 N 31.0401 0.771051 -1.3745 0
M  V30 356 C 31.9871 1.88435 -1.3327 0
M  V30 357 C 32.9571 1.64914 -0.198136 0
M  V30 358 O 34.1421 1.86821 -0.387606 0
M  V30 359 C 31.2821 3.25509 -1.14622 0
M  V30 360 C 30.3951 3.60979 -2.37314 0
M  V30 361 C 29.5301 4.87265 -2.11533 0
M  V30 362 C 28.5691 5.15469 -3.30088 0
M  V30 363 N 27.7061 6.32944 -3.03853 0
M  V30 364 H 32.5461 1.91344 -2.28455 0
M  V30 365 H 30.0831 0.935466 -1.13523 0
M  V30 366 H 32.0411 4.04582 -1.01831 0
M  V30 367 H 30.6711 3.21974 -0.230837 0
M  V30 368 H 29.7231 2.76885 -2.60842 0
M  V30 369 H 31.0351 3.77759 -3.25729 0
M  V30 370 H 30.1891 5.74244 -1.95777 0
M  V30 371 H 28.9281 4.7259 -1.20457 0
M  V30 372 H 27.9331 4.26966 -3.46382 0
M  V30 373 H 29.1581 5.32052 -4.22016 0
M  V30 374 H 27.1041 6.19625 -2.15407 0
M  V30 375 H 27.0211 6.50143 -3.85812 0
M  V30 376 H 28.2891 7.22857 -2.91716 0
M  V30 377 N 32.5182 1.22032 0.997298 0
M  V30 378 C 33.4282 1.00271 2.12092 0
M  V30 379 C 34.4442 -0.047621 1.73935 0
M  V30 380 O 35.6202 0.144136 2.00884 0
M  V30 381 C 32.6852 0.578449 3.4184 0
M  V30 382 C 31.7462 1.70189 3.94125 0
M  V30 383 C 30.9792 1.29778 5.17681 0
M  V30 384 O 31.2022 0.174676 5.70132 0
M  V30 385 O 30.1362 2.11261 5.63607 0
M  V30 386 H 33.9622 1.94398 2.3333 0
M  V30 387 H 31.5472 1.00587 1.10465 0
M  V30 388 H 33.4292 0.351998 4.19927 0
M  V30 389 H 32.1042 -0.334019 3.21972 0
M  V30 390 H 31.0112 1.98282 3.1723 0
M  V30 391 H 32.3442 2.59206 4.18417 0
M  V30 392 N 33.9963 -1.19345 1.0293 0
M  V30 393 C 34.9433 -2.2258 0.610464 0
M  V30 394 C 35.9133 -1.6179 -0.375946 0
M  V30 395 O 37.0983 -1.88844 -0.272511 0
M  V30 396 C 34.2383 -3.45085 -0.0321473 0
M  V30 397 C 33.3513 -4.20258 1.00035 0
M  V30 398 C 32.4863 -5.3019 0.32746 0
M  V30 399 C 31.5253 -5.97121 1.34584 0
M  V30 400 N 30.6623 -6.98615 0.698726 0
M  V30 401 H 35.5023 -2.57764 1.49538 0
M  V30 402 H 33.0393 -1.26644 0.748311 0
M  V30 403 H 34.9973 -4.15061 -0.421966 0
M  V30 404 H 33.6273 -3.10555 -0.88064 0
M  V30 405 H 32.6793 -3.49223 1.50823 0
M  V30 406 H 33.9913 -4.66175 1.77433 0
M  V30 407 H 33.1453 -6.06587 -0.11718 0
M  V30 408 H 31.8843 -4.85345 -0.478713 0
M  V30 409 H 30.8893 -5.19474 1.80074 0
M  V30 410 H 32.1143 -6.4405 2.15352 0
M  V30 411 H 30.0603 -6.55942 -0.0873471 0
M  V30 412 H 29.9773 -7.42724 1.41058 0
M  V30 413 H 31.2453 -7.79004 0.278102 0
M  V30 414 N 35.4744 -0.807222 -1.35358 0
M  V30 415 C 36.4224 -0.20614 -2.31685 0
M  V30 416 C 37.4164 0.644445 -1.56663 0
M  V30 417 O 38.6224 0.537538 -1.71786 0
M  V30 418 H 34.9974 -0.0479006 -0.750473 0
M  V30 419 H 36.9684 -1.03369 -2.79924 0
M  V30 420 C 35.7174 0.630212 -3.41941 0
M  V30 421 H 35.0404 -0.0149558 -3.99797 0
M  V30 422 H 36.4804 1.01716 -4.11619 0
M  V30 423 C 34.9394 1.79601 -2.85035 0
M  V30 424 O 35.4694 2.89351 -2.78637 0
M  V30 425 N 33.6754 1.60774 -2.42074 0
M  V30 426 H 33.2224 0.715009 -2.47478 0
M  V30 427 H 33.1804 2.38933 -2.04349 0
M  V30 428 N 36.9525 1.47285 -0.560781 0
M  V30 429 C 38.3635 1.86258 -0.128343 0
M  V30 430 C 38.7145 1.46699 1.30284 0
M  V30 431 O 37.8395 0.871698 1.98067 0
M  V30 432 C 38.4345 3.38044 -0.22614 0
M  V30 433 C 36.9935 3.76096 0.151283 0
M  V30 434 C 36.1405 2.71335 -0.572084 0
M  V30 435 H 39.0915 1.38752 -0.770297 0
M  V30 436 H 39.1125 3.76441 0.554322 0
M  V30 437 H 38.6245 3.66806 -1.26788 0
M  V30 438 H 36.7255 3.52951 1.19399 0
M  V30 439 H 36.8385 4.78641 -0.209765 0
M  V30 440 H 35.2025 2.54696 -0.0147653 0
M  V30 441 H 35.9855 3.02938 -1.61504 0
M  V30 442 N 38.4306 0.297415 1.54768 0
M  V30 443 C 39.6586 -0.315623 2.04478 0
M  V30 444 C 40.0736 -1.47792 1.17486 0
M  V30 445 O 39.4306 -1.81404 0.19971 0
M  V30 446 C 39.4816 -0.7753 3.53088 0
M  V30 447 O 39.2026 0.340732 4.36773 0
M  V30 448 C 40.7036 -1.45386 4.18781 0
M  V30 449 H 37.9236 -0.0690887 0.667434 0
M  V30 450 H 40.4676 0.436003 1.99798 0
M  V30 451 H 38.6226 -1.47696 3.58141 0
M  V30 452 H 39.0366 -0.0165035 5.24497 0
M  V30 453 H 40.5106 -1.72669 5.24299 0
M  V30 454 H 40.9876 -2.39275 3.68299 0
M  V30 455 H 41.5936 -0.795475 4.17795 0
M  V30 456 N 39.9087 -1.5758 0.0250728 0
M  V30 457 C 41.1577 -1.90811 -0.653767 0
M  V30 458 C 41.4707 -0.90273 -1.73523 0
M  V30 459 O 42.6767 -1.12614 -2.47043 0
M  V30 460 C 41.1327 -3.38804 -1.21409 0
M  V30 461 C 40.7407 -4.47692 -0.166126 0
M  V30 462 C 42.4847 -3.81108 -1.86967 0
M  V30 463 C 40.3917 -5.86779 -0.737856 0
M  V30 464 H 39.3217 -0.712063 -0.247956 0
M  V30 465 H 41.9727 -1.83281 0.0897137 0
M  V30 466 H 40.3547 -3.41252 -2.00905 0
M  V30 467 H 41.5287 -4.56797 0.606079 0
M  V30 468 H 39.8437 -4.14565 0.390466 0
M  V30 469 H 42.4407 -4.82375 -2.30692 0
M  V30 470 H 42.7837 -3.15953 -2.71071 0
M  V30 471 H 43.3167 -3.81065 -1.14167 0
M  V30 472 H 40.0557 -6.55468 0.0649577 0
M  V30 473 H 39.5757 -5.81288 -1.47864 0
M  V30 474 H 41.2547 -6.35223 -1.22884 0
M  V30 475 N 41.3868 0.248026 -1.55636 0
M  V30 476 C 42.6168 0.992367 -1.81206 0
M  V30 477 C 43.0248 1.7949 -0.598324 0
M  V30 478 O 42.3678 1.78292 0.442434 0
M  V30 479 C 42.4298 1.97926 -3.00109 0
M  V30 480 C 42.0938 1.36377 -4.36177 0
M  V30 481 C 43.0908 0.76682 -5.14214 0
M  V30 482 C 40.7758 1.38347 -4.82872 0
M  V30 483 C 42.7698 0.197778 -6.37093 0
M  V30 484 C 40.4568 0.810574 -6.057 0
M  V30 485 C 41.4548 0.218754 -6.8265 0
M  V30 486 O 41.1428 -0.345298 -8.03158 0
M  V30 487 H 40.8748 0.297704 -0.606917 0
M  V30 488 H 43.4288 0.276517 -2.0353 0
M  V30 489 H 41.6588 2.73339 -2.73538 0
M  V30 490 H 43.3478 2.58694 -3.12781 0
M  V30 491 H 44.1138 0.744114 -4.79258 0
M  V30 492 H 39.9928 1.8335 -4.2297 0
M  V30 493 H 43.5368 -0.264788 -6.97097 0
M  V30 494 H 39.4338 0.830604 -6.40134 0
M  V30 495 H 40.2018 -0.237055 -8.18157 0
M  V30 496 N 42.8649 1.48995 0.513639 0
M  V30 497 C 44.0899 1.61792 1.29762 0
M  V30 498 C 44.5149 0.284475 1.85936 0
M  V30 499 O 43.8729 -0.746185 1.65232 0
M  V30 500 C 43.9209 2.67993 2.41272 0
M  V30 501 O 43.0249 2.26287 3.44772 0
M  V30 502 H 42.3659 0.541963 0.38363 0
M  V30 503 H 44.8959 1.95097 0.616307 0
M  V30 504 H 44.9059 2.89772 2.87221 0
M  V30 505 H 43.5809 3.64791 1.9975 0
M  V30 506 H 42.1579 2.14788 3.04829 0
M  V30 507 N 44.343 -0.763751 1.37857 0
M  V30 508 C 45.59 -1.52257 1.33506 0
M  V30 509 C 45.918 -1.94343 -0.078022 0
M  V30 510 O 45.173 -1.64958 -1.05297 0
M  V30 511 C 45.472 -2.79499 2.22745 0
M  V30 512 C 45.138 -2.56426 3.70886 0
M  V30 513 C 43.8 -2.49842 4.11257 0
M  V30 514 C 46.152 -2.36008 4.64704 0
M  V30 515 C 43.48 -2.20841 5.43549 0
M  V30 516 C 45.832 -2.0853 5.97242 0
M  V30 517 C 44.496 -2.00396 6.36709 0
M  V30 518 H 43.766 -0.557149 0.488534 0
M  V30 519 H 46.413 -0.879073 1.70131 0
M  V30 520 H 44.718 -3.48447 1.79142 0
M  V30 521 H 46.415 -3.37413 2.16688 0
M  V30 522 H 43.005 -2.62416 3.38874 0
M  V30 523 H 47.189 -2.40079 4.34368 0
M  V30 524 H 42.445 -2.13045 5.73081 0
M  V30 525 H 46.619 -1.91732 6.69486 0
M  V30 526 H 44.246 -1.77688 7.39142 0
M  V30 527 N 45.8211 -1.22559 -0.990812 0
M  V30 528 C 47.0981 -0.959875 -1.70428 0
M  V30 529 C 47.4781 0.524455 -2.04481 0
M  V30 530 O 46.8261 1.49302 -1.72977 0
M  V30 531 C 47.0361 -1.85955 -2.95333 0
M  V30 532 C 48.3841 -2.11687 -3.68068 0
M  V30 533 O 49.4081 -1.8342 -3.05345 0
M  V30 534 O 48.2671 -2.59572 -4.80921 0
M  V30 535 H 45.3611 -0.361154 -0.743974 0
M  V30 536 H 47.9071 -1.33554 -1.04697 0
M  V30 537 H 46.6791 -2.86346 -2.66687 0
M  V30 538 H 46.3021 -1.4856 -3.68803 0
M  V30 539 N 47.2992 1.18797 -1.03562 0
M  V30 540 C 48.5762 1.84469 -0.650434 0
M  V30 541 C 48.9562 1.92319 0.870433 0
M  V30 542 O 48.3042 1.44528 1.76986 0
M  V30 543 C 48.5142 3.2306 -1.32036 0
M  V30 544 C 49.8622 3.9915 -1.44792 0
M  V30 545 O 50.8862 3.32481 -1.27806 0
M  V30 546 O 49.7452 5.18587 -1.72423 0
M  V30 547 H 46.8392 0.795251 -0.226946 0
M  V30 548 H 49.3852 1.26231 -1.13419 0
M  V30 549 H 48.1572 3.1222 -2.3587 0
M  V30 550 H 47.7802 3.88949 -0.8249 0
M  V30 551 N 48.7773 0.814389 1.34928 0
M  V30 552 C 49.6873 0.231978 2.3345 0
M  V30 553 C 50.7033 -0.629139 1.62228 0
M  V30 554 O 51.8793 -0.539052 1.94052 0
M  V30 555 C 48.9443 -0.603482 3.41407 0
M  V30 556 C 48.0053 0.279037 4.28392 0
M  V30 557 C 47.2383 -0.516643 5.31193 0
M  V30 558 O 47.4613 -1.75068 5.4287 0
M  V30 559 O 46.3953 0.0965652 6.01823 0
M  V30 560 H 50.2213 1.04721 2.85074 0
M  V30 561 H 47.8063 0.576343 1.37836 0
M  V30 562 H 49.6883 -1.07908 4.0735 0
M  V30 563 H 48.3633 -1.39618 2.92042 0
M  V30 564 H 47.2703 0.801948 3.65403 0
M  V30 565 H 48.6033 1.03588 4.81176 0
M  V30 566 N 50.2554 -1.46986 0.568584 0
M  V30 567 C 51.1654 -2.33942 -0.17555 0
M  V30 568 C 52.1814 -1.48891 -0.90041 0
M  V30 569 O 53.3574 -1.81794 -0.86676 0
M  V30 570 C 50.4224 -3.25811 -1.18524 0
M  V30 571 C 49.4834 -4.26757 -0.466582 0
M  V30 572 C 48.7164 -5.14236 -1.42817 0
M  V30 573 O 48.9394 -5.04379 -2.66379 0
M  V30 574 O 47.8734 -5.94412 -0.946453 0
M  V30 575 H 51.6994 -2.98896 0.538036 0
M  V30 576 H 49.2844 -1.4573 0.329097 0
M  V30 577 H 51.1664 -3.82527 -1.76779 0
M  V30 578 H 49.8414 -2.63471 -1.88055 0
M  V30 579 H 48.7484 -3.73769 0.157451 0
M  V30 580 H 50.0814 -4.91843 0.187485 0
M  V30 581 N 51.7335 -0.305618 -1.54608 0
M  V30 582 C 52.6805 0.568421 -2.23691 0
M  V30 583 C 53.6505 1.12592 -1.22116 0
M  V30 584 O 54.8355 1.16959 -1.50749 0
M  V30 585 C 51.9755 1.7322 -2.98477 0
M  V30 586 C 51.0885 1.20566 -4.14835 0
M  V30 587 C 50.2235 2.33368 -4.77193 0
M  V30 588 C 49.2625 1.7787 -5.85686 0
M  V30 589 N 48.3995 2.84263 -6.4198 0
M  V30 590 H 53.2395 -0.0272867 -2.97988 0
M  V30 591 H 50.7765 -0.0252363 -1.47078 0
M  V30 592 H 52.7345 2.41675 -3.40072 0
M  V30 593 H 51.3645 2.29947 -2.26548 0
M  V30 594 H 50.4165 0.413223 -3.78149 0
M  V30 595 H 51.7285 0.759417 -4.92985 0
M  V30 596 H 50.8825 3.09761 -5.21664 0
M  V30 597 H 49.6215 2.8132 -3.98385 0
M  V30 598 H 48.6265 0.99968 -5.40635 0
M  V30 599 H 49.8515 1.30816 -6.66381 0
M  V30 600 H 47.7975 3.31541 -5.66053 0
M  V30 601 H 47.7145 2.44149 -7.15491 0
M  V30 602 H 48.9825 3.6054 -6.91109 0
M  V30 603 N 53.2116 1.57565 -0.0334293 0
M  V30 604 C 54.6276 1.56297 0.322997 0
M  V30 605 C 54.8276 1.03945 1.7262 0
M  V30 606 O 53.8836 0.688109 2.42943 0
M  V30 607 C 55.1966 3.00232 0.167664 0
M  V30 608 C 56.7446 3.12078 0.240107 0
M  V30 609 C 57.2196 4.57859 0.113513 0
M  V30 610 N 58.7106 4.62887 0.170359 0
M  V30 611 C 59.4456 5.73319 0.0962517 0
M  V30 612 N 58.9416 6.92794 -0.0291881 0
M  V30 613 N 60.7346 5.61898 0.150551 0
M  V30 614 H 52.8856 1.89923 -0.950956 0
M  V30 615 H 55.1486 0.873824 -0.367608 0
M  V30 616 H 54.8546 3.42501 -0.799102 0
M  V30 617 H 54.7286 3.654 0.936083 0
M  V30 618 H 57.1156 2.69718 1.19733 0
M  V30 619 H 57.1966 2.49623 -0.558763 0
M  V30 620 H 56.8406 5.009 -0.840314 0
M  V30 621 H 56.7706 5.18299 0.931302 0
M  V30 622 H 59.2616 3.76954 0.26728 0
M  V30 623 H 59.5746 7.7276 -0.0789252 0
M  V30 624 H 57.9196 6.94971 -0.0640299 0
M  V30 625 H 61.1106 4.67448 0.246981 0
M  V30 626 H 61.2836 6.47938 0.0893365 0
M  V30 627 N 54.6897 -0.239769 1.55765 0
M  V30 628 C 55.6377 -1.31668 1.91745 0
M  V30 629 C 56.6317 -1.49462 0.797338 0
M  V30 630 O 57.8377 -1.50852 0.982021 0
M  V30 631 H 54.2127 -0.441048 0.609082 0
M  V30 632 H 56.1837 -0.985923 2.81642 0
M  V30 633 C 54.9327 -2.66368 2.2348 0
M  V30 634 H 54.2557 -2.53478 3.09175 0
M  V30 635 H 55.6957 -3.40578 2.52553 0
M  V30 636 C 54.1547 -3.20002 1.05359 0
M  V30 637 O 54.6847 -4.00538 0.305261 0
M  V30 638 N 52.8907 -2.78126 0.842292 0
M  V30 639 H 52.4377 -2.12742 1.45253 0
M  V30 640 H 52.3957 -3.14354 0.053652 0
M  V30 641 N 56.1678 -1.49265 -0.50573 0
M  V30 642 C 57.0778 -1.68312 -1.63427 0
M  V30 643 C 58.0938 -0.565682 -1.64548 0
M  V30 644 O 59.2698 -0.839801 -1.83055 0
M  V30 645 C 56.3348 -1.74107 -2.99813 0
M  V30 646 C 55.3958 -2.97653 -3.09356 0
M  V30 647 C 54.6288 -3.03163 -4.39236 0
M  V30 648 O 54.8518 -2.16396 -5.27758 0
M  V30 649 O 53.7858 -3.9558 -4.53652 0
M  V30 650 H 57.6118 -2.63907 -1.50289 0
M  V30 651 H 55.1968 -1.32951 -0.681502 0
M  V30 652 H 57.0788 -1.803 -3.80881 0
M  V30 653 H 55.7538 -0.816901 -3.13223 0
M  V30 654 H 54.6608 -2.96981 -2.27493 0
M  V30 655 H 55.9938 -3.89535 -3.00871 0
M  V30 656 N 57.6459 0.756429 -1.3826 0
M  V30 657 C 58.5939 1.89149 -1.35372 0
M  V30 658 C 59.5879 1.67691 -0.24004 0
M  V30 659 O 60.7939 1.75294 -0.408919 0
M  V30 660 H 57.1689 0.622271 -0.422236 0
M  V30 661 H 59.1399 1.88701 -2.31159 0
M  V30 662 C 57.8889 3.26599 -1.19284 0
M  V30 663 H 57.2119 3.43695 -2.0424 0
M  V30 664 H 58.6519 4.06274 -1.21316 0
M  V30 665 C 57.1109 3.3675 0.100454 0
M  V30 666 O 57.6409 3.86951 1.07851 0
M  V30 667 N 55.8469 2.90179 0.15633 0
M  V30 668 H 55.3939 2.49517 -0.640253 0
M  V30 669 H 55.3519 2.97352 1.02123 0
M  V30 670 N 59.124 1.23083 0.984299 0
M  V30 671 C 60.071 1.00854 2.07598 0
M  V30 672 C 61.041 -0.0726709 1.65941 0
M  V30 673 O 62.226 0.0786535 1.90638 0
M  V30 674 C 59.366 0.601645 3.39815 0
M  V30 675 C 58.479 1.75456 3.94765 0
M  V30 676 C 57.614 1.29482 5.15177 0
M  V30 677 C 56.653 2.41873 5.62284 0
M  V30 678 N 55.79 1.96885 6.73929 0
M  V30 679 H 60.63 1.943 2.25946 0
M  V30 680 H 58.167 0.968001 1.10762 0
M  V30 681 H 60.125 0.346854 4.15756 0
M  V30 682 H 58.755 -0.295803 3.21442 0
M  V30 683 H 57.807 2.12346 3.15616 0
M  V30 684 H 59.119 2.59965 4.25699 0
M  V30 685 H 58.273 0.997923 5.98437 0
M  V30 686 H 57.012 0.420046 4.85888 0
M  V30 687 H 56.017 2.72342 4.77608 0
M  V30 688 H 57.242 3.29881 5.93595 0
M  V30 689 H 55.188 1.11782 6.46406 0
M  V30 690 H 55.105 2.74956 7.04227 0
M  V30 691 H 56.373 1.70289 7.60672 0
M  V30 692 N 60.6021 -1.18246 1.0419 0
M  V30 693 C 61.8271 -1.92736 0.765996 0
M  V30 694 C 62.2521 -1.75728 -0.67091 0
M  V30 695 O 61.6101 -1.06825 -1.46486 0
M  V30 696 C 61.6581 -3.42148 1.13875 0
M  V30 697 O 60.7621 -4.11548 0.264954 0
M  V30 698 H 60.1031 -0.601238 0.281797 0
M  V30 699 H 62.6331 -1.49942 1.39207 0
M  V30 700 H 62.6431 -3.92858 1.1012 0
M  V30 701 H 61.3181 -3.53848 2.18551 0
M  V30 702 H 59.8951 -3.71137 0.362226 0
M  V30 703 N 62.0802 -0.821533 -1.34494 0
M  V30 704 C 63.3272 -0.408946 -1.98328 0
M  V30 705 C 63.6552 1.02764 -1.65136 0
M  V30 706 O 62.9102 1.73026 -0.914349 0
M  V30 707 C 63.2092 -0.556512 -3.53041 0
M  V30 708 C 62.8752 -1.95861 -4.0614 0
M  V30 709 C 61.5372 -2.34217 -4.20352 0
M  V30 710 C 63.8892 -2.87523 -4.34718 0
M  V30 711 C 61.2172 -3.63572 -4.6047 0
M  V30 712 C 63.5692 -4.1634 -4.76281 0
M  V30 713 C 62.2332 -4.54675 -4.88699 0
M  V30 714 H 61.5032 -0.149644 -0.725732 0
M  V30 715 H 64.1502 -1.04521 -1.6046 0
M  V30 716 H 62.4552 0.163148 -3.9146 0
M  V30 717 H 64.1522 -0.217826 -4.00408 0
M  V30 718 H 60.7422 -1.65066 -3.95539 0
M  V30 719 H 64.9262 -2.59133 -4.23277 0
M  V30 720 H 60.1822 -3.93101 -4.68275 0
M  V30 721 H 64.3562 -4.87455 -4.97354 0
M  V30 722 H 61.9832 -5.54959 -5.19542 0
M  V30 723 N 63.5583 1.46682 -0.576371 0
M  V30 724 C 64.4883 2.33028 0.148397 0
M  V30 725 C 65.4693 1.44961 0.889956 0
M  V30 726 O 66.6543 1.73789 0.866662 0
M  V30 727 C 63.7843 3.27117 1.1667 0
M  V30 728 C 62.7383 4.24575 0.540386 0
M  V30 729 C 62.0643 5.08126 1.6647 0
M  V30 730 C 63.3643 5.19722 -0.518331 0
M  V30 731 H 65.0583 2.93875 -0.572509 0
M  V30 732 H 62.6043 1.41315 -0.276768 0
M  V30 733 H 64.5573 3.86374 1.68204 0
M  V30 734 H 63.2813 2.64364 1.9178 0
M  V30 735 H 61.9403 3.66571 0.0461769 0
M  V30 736 H 61.5883 4.41762 2.40531 0
M  V30 737 H 61.2883 5.74122 1.25131 0
M  V30 738 H 62.8123 5.70246 2.18293 0
M  V30 739 H 64.2263 5.73232 -0.0883058 0
M  V30 740 H 62.6233 5.94026 -0.851679 0
M  V30 741 H 63.6933 4.64037 -1.40703 0
M  V30 742 N 65.0364 0.313813 1.54444 0
M  V30 743 C 65.9834 -0.55655 2.23989 0
M  V30 744 C 66.9534 -1.11943 1.22711 0
M  V30 745 O 68.1384 -1.16158 1.51367 0
M  V30 746 C 65.2784 -1.71635 2.99392 0
M  V30 747 C 64.3914 -1.18364 4.15468 0
M  V30 748 C 63.5264 -2.30834 4.78424 0
M  V30 749 C 62.5654 -1.74762 5.86622 0
M  V30 750 N 61.7024 -2.80855 6.43479 0
M  V30 751 H 66.5424 0.0430893 2.97969 0
M  V30 752 H 64.0794 0.0330359 1.47063 0
M  V30 753 H 66.0374 -2.39868 3.41349 0
M  V30 754 H 64.6674 -2.28742 2.27765 0
M  V30 755 H 63.7194 -0.393163 3.78363 0
M  V30 756 H 65.0314 -0.733262 4.93381 0
M  V30 757 H 64.1854 -3.0699 5.23299 0
M  V30 758 H 62.9244 -2.79204 3.99871 0
M  V30 759 H 61.9294 -0.970995 5.41158 0
M  V30 760 H 63.1544 -1.2728 6.67066 0
M  V30 761 H 61.1004 -3.28535 5.67804 0
M  V30 762 H 61.0174 -2.40351 7.16776 0
M  V30 763 H 62.2854 -3.5687 6.93011 0
M  V30 764 N 66.5145 -1.57545 0.0417849 0
M  V30 765 C 67.7605 -1.92601 -0.635021 0
M  V30 766 C 68.0935 -0.919627 -1.71045 0
M  V30 767 O 67.3685 0.0557892 -1.9442 0
M  V30 768 C 67.6515 -3.38085 -1.23979 0
M  V30 769 C 67.5045 -4.49467 -0.173057 0
M  V30 770 C 68.8235 -3.83776 -2.15416 0
M  V30 771 H 65.9425 -0.700397 -0.229374 0
M  V30 772 H 68.5845 -1.89728 0.101633 0
M  V30 773 H 66.7345 -3.40664 -1.86762 0
M  V30 774 H 68.4065 -4.59018 0.458312 0
M  V30 775 H 66.6495 -4.30909 0.499996 0
M  V30 776 H 67.3205 -5.48323 -0.636054 0
M  V30 777 H 69.7965 -3.83013 -1.62605 0
M  V30 778 H 68.6725 -4.8624 -2.54679 0
M  V30 779 H 68.9335 -3.19998 -3.05047 0
M  V30 780 N 67.9926 0.231505 -1.5589 0
M  V30 781 C 68.9226 1.29022 -1.94617 0
M  V30 782 C 69.9036 1.4941 -0.813067 0
M  V30 783 O 71.0886 1.6176 -1.07459 0
M  V30 784 C 68.2186 2.64199 -2.25424 0
M  V30 785 C 67.1726 2.58484 -3.41131 0
M  V30 786 C 66.4986 3.97599 -3.57518 0
M  V30 787 C 67.7986 2.1413 -4.76388 0
M  V30 788 H 69.4926 0.968563 -2.83301 0
M  V30 789 H 67.0386 0.464479 -1.36303 0
M  V30 790 H 68.9916 3.38413 -2.51107 0
M  V30 791 H 67.7156 2.98032 -1.33583 0
M  V30 792 H 66.3746 1.86727 -3.15481 0
M  V30 793 H 66.0226 4.28723 -2.6307 0
M  V30 794 H 65.7226 3.94659 -4.35337 0
M  V30 795 H 67.2466 4.7349 -3.85538 0
M  V30 796 H 68.6606 2.78083 -5.01341 0
M  V30 797 H 67.0576 2.2227 -5.57419 0
M  V30 798 H 68.1276 1.09331 -4.72414 0
M  V30 799 N 69.4707 1.49531 0.497807 0
M  V30 800 C 70.7107 1.60799 1.26187 0
M  V30 801 C 71.0747 0.289627 1.89803 0
M  V30 802 O 72.2757 0.277512 2.67364 0
M  V30 803 C 70.5467 2.73729 2.29798 0
M  V30 804 S 72.1057 3.04968 3.155 0
M  V30 805 H 68.9237 0.567145 0.428798 0
M  V30 806 H 71.5257 1.87204 0.563477 0
M  V30 807 H 70.2297 3.68036 1.81597 0
M  V30 808 H 69.7607 2.49328 3.04301 0
M  V30 809 H 71.7757 2.46735 4.30507 0
M  V30 810 N 70.9488 -0.749086 1.3866 0
M  V30 811 C 72.1738 -1.54344 1.38538 0
M  V30 812 C 72.5988 -1.88088 -0.0216655 0
M  V30 813 O 71.9568 -1.50899 -1.00494 0
M  V30 814 C 72.0048 -2.8164 2.25192 0
M  V30 815 O 71.1088 -3.7698 1.67212 0
M  V30 816 H 70.4498 -0.466654 0.472367 0
M  V30 817 H 72.9798 -0.925355 1.82478 0
M  V30 818 H 72.9898 -3.30519 2.3921 0
M  V30 819 H 71.6648 -2.56411 3.27454 0
M  V30 820 H 70.2418 -3.35699 1.6236 0
M  V30 821 N 72.4269 -1.23603 -0.977757 0
M  V30 822 C 73.3739 -1.01954 -2.07061 0
M  V30 823 C 74.3439 0.0638697 -1.65977 0
M  V30 824 O 75.5289 -0.0887624 -1.90593 0
M  V30 825 C 72.6689 -0.619658 -3.39491 0
M  V30 826 C 71.7819 -1.77547 -3.93829 0
M  V30 827 C 70.9169 -1.32212 -5.14484 0
M  V30 828 C 69.9559 -2.44852 -5.60994 0
M  V30 829 N 69.0929 -2.00456 -6.72876 0
M  V30 830 H 73.9329 -1.95495 -2.24913 0
M  V30 831 H 71.4699 -0.973861 -1.10247 0
M  V30 832 H 73.4279 -0.368898 -4.15566 0
M  V30 833 H 72.0579 0.278752 -3.21594 0
M  V30 834 H 71.1099 -2.14016 -3.14486 0
M  V30 835 H 72.4219 -2.62219 -4.24314 0
M  V30 836 H 71.5759 -1.02965 -5.97899 0
M  V30 837 H 70.3149 -0.445808 -4.85658 0
M  V30 838 H 69.3199 -2.74871 -4.76157 0
M  V30 839 H 70.5449 -3.33024 -5.91837 0
M  V30 840 H 68.4909 -1.15208 -6.45804 0
M  V30 841 H 68.4079 -2.78687 -7.02759 0
M  V30 842 H 69.6759 -1.7432 -7.59758 0
M  V30 843 N 73.905 1.17692 -1.04816 0
M  V30 844 C 75.321 1.39863 -0.768794 0
M  V30 845 C 75.521 1.91118 0.638451 0
M  V30 846 O 74.577 2.10036 1.40146 0
M  V30 847 C 75.89 2.39274 -1.82122 0
M  V30 848 C 77.438 2.52987 -1.843 0
M  V30 849 C 77.913 3.55669 -2.88555 0
M  V30 850 N 79.404 3.63183 -2.87493 0
M  V30 851 C 80.139 4.42381 -3.64811 0
M  V30 852 N 79.635 5.25125 -4.51903 0
M  V30 853 N 81.428 4.37217 -3.53267 0
M  V30 854 H 73.579 0.82752 -1.95617 0
M  V30 855 H 75.842 0.426123 -0.846831 0
M  V30 856 H 75.548 2.08678 -2.83102 0
M  V30 857 H 75.422 3.38725 -1.65967 0
M  V30 858 H 77.809 2.82896 -0.839869 0
M  V30 859 H 77.89 1.53623 -2.04532 0
M  V30 860 H 77.534 3.26499 -3.89051 0
M  V30 861 H 77.464 4.54728 -2.65575 0
M  V30 862 H 79.955 3.04103 -2.24343 0
M  V30 863 H 80.268 5.82728 -5.07591 0
M  V30 864 H 78.613 5.24519 -4.55966 0
M  V30 865 H 81.804 3.71626 -2.84625 0
M  V30 866 H 81.977 4.98696 -4.13771 0
M  V30 867 N 75.3831 0.828654 1.34056 0
M  V30 868 C 76.6311 0.41863 1.97717 0
M  V30 869 C 76.9521 -1.02314 1.66002 0
M  V30 870 O 76.2221 -1.71119 0.953683 0
M  V30 871 H 74.8021 0.151809 0.731412 0
M  V30 872 H 77.4641 1.05936 1.63596 0
M  V30 873 H 76.5601 0.542318 3.07352 0
M  V30 874 N 76.8612 -1.46375 0.584142 0
M  V30 875 C 78.1072 -2.02678 0.0703716 0
M  V30 876 C 78.4402 -1.4545 -1.28678 0
M  V30 877 O 77.7152 -0.62014 -1.84349 0
M  V30 878 C 77.9982 -3.60099 0.00614674 0
M  V30 879 C 77.8512 -4.27709 1.3923 0
M  V30 880 C 79.1702 -4.34598 -0.693742 0
M  V30 881 H 76.2892 -0.736504 0.027047 0
M  V30 882 H 78.9312 -1.74501 0.751615 0
M  V30 883 H 77.0812 -3.84236 -0.574009 0
M  V30 884 H 78.7532 -4.14832 2.01773 0
M  V30 885 H 76.9962 -3.87016 1.95962 0
M  V30 886 H 77.6672 -5.36478 1.29982 0
M  V30 887 H 80.1432 -4.15615 -0.200869 0
M  V30 888 H 79.0192 -5.44318 -0.707714 0
M  V30 889 H 79.2802 -4.05759 -1.75533 0
M  V30 890 N 78.3393 -0.321999 -1.54275 0
M  V30 891 C 79.2693 0.537411 -2.27231 0
M  V30 892 C 80.2503 1.12064 -1.27968 0
M  V30 893 O 81.4353 1.14606 -1.56777 0
M  V30 894 C 78.5653 1.69919 -3.02894 0
M  V30 895 C 77.5193 1.24534 -4.09482 0
M  V30 896 C 76.8453 2.49394 -4.72977 0
M  V30 897 C 78.1453 0.361335 -5.21049 0
M  V30 898 H 79.8393 -0.0711406 -2.99315 0
M  V30 899 H 77.3853 -0.0356555 -1.43956 0
M  V30 900 H 79.3383 2.30668 -3.52662 0
M  V30 901 H 78.0623 2.33431 -2.28424 0
M  V30 902 H 76.7213 0.660782 -3.60596 0
M  V30 903 H 76.3693 3.11265 -3.95124 0
M  V30 904 H 76.0693 2.19718 -5.44975 0
M  V30 905 H 77.5933 3.10908 -5.25517 0
M  V30 906 H 79.0073 0.875072 -5.66582 0
M  V30 907 H 77.4043 0.157428 -5.99893 0
M  V30 908 H 78.4743 -0.60822 -4.8107 0
M  V30 909 N 79.8174 1.5752 -0.0501392 0
M  V30 910 C 81.2284 1.80271 0.485705 0
M  V30 911 C 81.5794 0.96228 1.70981 0
M  V30 912 O 80.7044 0.178578 2.15662 0
M  V30 913 C 81.2994 3.26957 0.887938 0
M  V30 914 C 79.8584 3.5063 1.36877 0
M  V30 915 C 79.0054 2.75165 0.343468 0
M  V30 916 H 81.9564 1.56281 -0.276028 0
M  V30 917 H 81.9774 3.37821 1.75093 0
M  V30 918 H 81.4894 3.881 -0.0031809 0
M  V30 919 H 79.5904 2.94766 2.27911 0
M  V30 920 H 79.7034 4.59343 1.36164 0
M  V30 921 H 78.0674 2.4127 0.816128 0
M  V30 922 H 78.8504 3.39034 -0.539548 0
M  V30 923 N 81.2955 -0.223234 1.56011 0
M  V30 924 C 82.5445 -0.945912 1.78144 0
M  V30 925 C 82.8575 -1.85567 0.618396 0
M  V30 926 O 84.0635 -2.61688 0.723318 0
M  V30 927 C 82.5195 -1.73216 3.15475 0
M  V30 928 C 82.1275 -0.868619 4.39499 0
M  V30 929 C 83.8715 -2.44615 3.46935 0
M  V30 930 C 81.7785 -1.65212 5.67855 0
M  V30 931 H 80.7085 -0.356929 0.664167 0
M  V30 932 H 83.3595 -0.199845 1.82409 0
M  V30 933 H 81.7415 -2.52107 3.05382 0
M  V30 934 H 82.9155 -0.120366 4.60643 0
M  V30 935 H 81.2305 -0.26683 4.15544 0
M  V30 936 H 83.8275 -3.03732 4.40058 0
M  V30 937 H 84.1705 -3.17417 2.69355 0
M  V30 938 H 84.7035 -1.72715 3.58349 0
M  V30 939 H 81.4425 -0.967407 6.48322 0
M  V30 940 H 80.9625 -2.37503 5.50774 0
M  V30 941 H 82.6415 -2.21322 6.07968 0
M  V30 942 N 82.7736 -1.49793 -0.48987 0
M  V30 943 C 84.0226 -1.59085 -1.23995 0
M  V30 944 C 84.3356 -0.287907 -1.9347 0
M  V30 945 O 85.5416 -0.259506 -2.70257 0
M  V30 946 C 83.9976 -2.80736 -2.252 0
M  V30 947 C 83.6056 -4.17833 -1.61614 0
M  V30 948 C 85.3496 -2.99364 -3.00967 0
M  V30 949 C 83.2566 -5.30693 -2.60996 0
M  V30 950 H 82.1866 -0.592372 -0.466488 0
M  V30 951 H 84.8376 -1.76197 -0.51252 0
M  V30 952 H 83.2196 -2.57142 -3.01154 0
M  V30 953 H 84.3936 -4.51608 -0.915774 0
M  V30 954 H 82.7086 -4.04656 -0.981977 0
M  V30 955 H 85.3056 -3.80851 -3.75308 0
M  V30 956 H 85.6486 -2.10356 -3.59244 0
M  V30 957 H 86.1816 -3.2305 -2.32128 0
M  V30 958 H 82.9206 -6.21796 -2.07485 0
M  V30 959 H 82.4406 -5.01359 -3.2924 0
M  V30 960 H 84.1196 -5.6049 -3.23202 0
M  V30 961 N 84.2517 0.741722 -1.39055 0
M  V30 962 C 85.4997 1.49818 -1.35643 0
M  V30 963 C 85.8207 1.94938 0.0491642 0
M  V30 964 O 85.0907 1.68505 0.999141 0
M  V30 965 H 83.6707 0.555755 -0.499144 0
M  V30 966 H 86.3327 0.880957 -1.73854 0
M  V30 967 H 85.4287 2.38348 -2.01486 0
M  V30 968 N 85.7298 1.2412 0.971189 0
M  V30 969 C 86.9788 1.07284 1.70801 0
M  V30 970 C 87.2918 -0.388902 1.91695 0
M  V30 971 O 88.4978 -0.677379 2.62914 0
M  V30 972 C 86.9538 1.87145 3.07416 0
M  V30 973 C 86.5618 3.37707 2.94377 0
M  V30 974 C 88.3058 1.78828 3.84995 0
M  V30 975 C 86.2128 4.09925 4.26281 0
M  V30 976 H 85.1428 0.397854 0.64049 0
M  V30 977 H 87.7938 1.4817 1.0825 0
M  V30 978 H 86.1758 1.39071 3.70777 0
M  V30 979 H 87.3498 3.93335 2.4005 0
M  V30 980 H 85.6648 3.46938 2.30267 0
M  V30 981 H 88.2618 2.30089 4.82662 0
M  V30 982 H 88.6048 0.75284 4.09436 0
M  V30 983 H 89.1378 2.24563 3.28354 0
M  V30 984 H 85.8768 5.13813 4.07033 0
M  V30 985 H 85.3968 3.59083 4.80437 0
M  V30 986 H 87.0758 4.1673 4.94919 0
M  V30 987 N 87.2079 -1.17134 1.05439 0
M  V30 988 C 88.1379 -2.2342 0.678649 0
M  V30 989 C 89.1189 -1.66971 -0.32476 0
M  V30 990 O 90.3039 -1.93149 -0.201802 0
M  V30 991 C 87.4339 -3.47256 0.0552099 0
M  V30 992 C 86.3879 -4.16543 0.98365 0
M  V30 993 C 85.7139 -5.34231 0.223961 0
M  V30 994 C 87.0139 -4.68495 2.3089 0
M  V30 995 H 88.7079 -2.55105 1.56722 0
M  V30 996 H 86.2539 -1.2262 0.754998 0
M  V30 997 H 88.2069 -4.20828 -0.21946 0
M  V30 998 H 86.9309 -3.14846 -0.868319 0
M  V30 999 H 85.5899 -3.44887 1.24293 0
M  V30 1000 H 85.2379 -4.98071 -0.702412 0
M  V30 1001 H 84.9379 -5.81527 0.842627 0
M  V30 1002 H 86.4619 -6.10585 -0.0433671 0
M  V30 1003 H 87.8759 -5.33691 2.09396 0
M  V30 1004 H 86.2729 -5.26379 2.88176 0
M  V30 1005 H 87.3429 -3.85169 2.94572 0
M  V30 1006 N 88.686 -0.835752 -1.33615 0
M  V30 1007 C 89.916 -0.442701 -2.01801 0
M  V30 1008 C 90.324 0.959807 -1.63047 0
M  V30 1009 O 89.667 1.63468 -0.838088 0
M  V30 1010 C 89.729 -0.480125 -3.56279 0
M  V30 1011 C 89.393 -1.8382 -4.18401 0
M  V30 1012 C 90.39 -2.80097 -4.37998 0
M  V30 1013 C 88.075 -2.13019 -4.54894 0
M  V30 1014 C 90.069 -4.03736 -4.9323 0
M  V30 1015 C 87.756 -3.36916 -5.09834 0
M  V30 1016 C 88.754 -4.32091 -5.28948 0
M  V30 1017 O 88.442 -5.53797 -5.82721 0
M  V30 1018 H 88.174 -0.17441 -0.653114 0
M  V30 1019 H 90.728 -1.129 -1.71589 0
M  V30 1020 H 88.958 0.262931 -3.85805 0
M  V30 1021 H 90.647 -0.105335 -4.05763 0
M  V30 1022 H 91.413 -2.58838 -4.10156 0
M  V30 1023 H 87.292 -1.39733 -4.39313 0
M  V30 1024 H 90.836 -4.78034 -5.08064 0
M  V30 1025 H 86.733 -3.58033 -5.37106 0
M  V30 1026 H 87.501 -5.55494 -6.0114 0
M  V30 1027 N 90.1641 1.46063 -0.591896 0
M  V30 1028 C 91.4131 2.01547 -0.0786637 0
M  V30 1029 C 91.7261 1.46796 1.29268 0
M  V30 1030 O 92.9321 1.94157 1.89777 0
M  V30 1031 C 91.3881 3.59787 -0.0900024 0
M  V30 1032 C 90.9961 4.23534 -1.46023 0
M  V30 1033 C 92.7401 4.22895 0.368806 0
M  V30 1034 C 90.6471 5.73881 -1.4288 0
M  V30 1035 H 89.5771 0.753564 -0.0256388 0
M  V30 1036 H 92.2281 1.677 -0.744905 0
M  V30 1037 H 90.6101 3.90752 0.642586 0
M  V30 1038 H 91.7841 4.04167 -2.21328 0
M  V30 1039 H 90.0991 3.72558 -1.85982 0
M  V30 1040 H 92.6961 5.33116 0.411258 0
M  V30 1041 H 93.0391 3.9247 1.38827 0
M  V30 1042 H 93.5721 3.9659 -0.31001 0
M  V30 1043 H 90.3111 6.0898 -2.42536 0
M  V30 1044 H 89.8311 5.95486 -0.718095 0
M  V30 1045 H 91.5101 6.36776 -1.14565 0
M  V30 1046 N 91.6422 0.330177 1.54103 0
M  V30 1047 C 92.8912 -0.271336 1.99867 0
M  V30 1048 C 93.2042 -1.52723 1.22209 0
M  V30 1049 O 94.4102 -2.20515 1.58383 0
M  V30 1050 C 92.8662 -0.534032 3.55916 0
M  V30 1051 C 92.4742 0.705193 4.42415 0
M  V30 1052 C 94.2182 -1.09514 4.1013 0
M  V30 1053 C 92.1252 0.414035 5.89949 0
M  V30 1054 H 91.0552 -0.105166 0.74663 0
M  V30 1055 H 93.7062 0.443429 1.78062 0
M  V30 1056 H 92.0882 -1.30915 3.73734 0
M  V30 1057 H 93.2622 1.4804 4.36372 0
M  V30 1058 H 91.5772 1.18698 3.99124 0
M  V30 1059 H 94.1742 -1.3277 5.17954 0
M  V30 1060 H 94.5172 -2.04656 3.62521 0
M  V30 1061 H 95.0502 -0.381038 3.95971 0
M  V30 1062 H 91.7892 1.33481 6.41766 0
M  V30 1063 H 91.3092 -0.323336 5.98928 0
M  V30 1064 H 92.9882 0.0263105 6.46995 0
M  V30 1065 N 93.1203 -1.57491 0.0584922 0
M  V30 1066 C 94.0503 -2.14988 -0.911178 0
M  V30 1067 C 95.0313 -1.07343 -1.31952 0
M  V30 1068 O 96.2163 -1.35318 -1.39294 0
M  V30 1069 C 93.3463 -2.70078 -2.18347 0
M  V30 1070 C 92.3003 -3.82771 -1.91495 0
M  V30 1071 C 91.6263 -4.24408 -3.25241 0
M  V30 1072 C 92.9263 -5.07592 -1.23075 0
M  V30 1073 H 94.6203 -2.96263 -0.432246 0
M  V30 1074 H 92.1663 -1.42512 -0.206469 0
M  V30 1075 H 94.1193 -3.08943 -2.86587 0
M  V30 1076 H 92.8433 -1.86005 -2.68458 0
M  V30 1077 H 91.5023 -3.44389 -1.25664 0
M  V30 1078 H 91.1503 -3.37275 -3.73168 0
M  V30 1079 H 90.8503 -5.00366 -3.08071 0
M  V30 1080 H 92.3743 -4.65879 -3.94701 0
M  V30 1081 H 93.7883 -5.43857 -1.81362 0
M  V30 1082 H 92.1853 -5.88741 -1.16207 0
M  V30 1083 H 93.2553 -4.84454 -0.207847 0
M  V30 1084 N 94.5984 0.214957 -1.56127 0
M  V30 1085 C 95.5464 1.28601 -1.93816 0
M  V30 1086 C 96.5404 1.48175 -0.821016 0
M  V30 1087 O 97.7464 1.49271 -1.0059 0
M  V30 1088 H 94.1214 0.431302 -0.616022 0
M  V30 1089 H 96.0924 0.940991 -2.83175 0
M  V30 1090 C 94.8414 2.62779 -2.27689 0
M  V30 1091 H 94.1644 2.48527 -3.13168 0
M  V30 1092 H 95.6044 3.36517 -2.57939 0
M  V30 1093 C 94.0634 3.18285 -1.10436 0
M  V30 1094 O 94.5934 4.00002 -0.368945 0
M  V30 1095 N 92.7994 2.7675 -0.886433 0
M  V30 1096 H 92.3464 2.10404 -1.48619 0
M  V30 1097 H 92.3044 3.14229 -0.103656 0
M  V30 1098 N 96.0765 1.50051 0.48192 0
M  V30 1099 C 97.3245 1.60181 1.23234 0
M  V30 1100 C 97.6455 0.299176 1.92691 0
M  V30 1101 O 96.9155 -0.682708 1.83619 0
M  V30 1102 H 95.4955 0.590232 0.457859 0
M  V30 1103 H 98.1575 1.86775 0.556881 0
M  V30 1104 H 97.2535 2.40753 1.98607 0
M  V30 1105 N 97.5546 -0.734337 1.39446 0
M  V30 1106 C 98.5026 -1.86971 1.38364 0
M  V30 1107 C 99.4966 -1.67288 0.266687 0
M  V30 1108 O 100.703 -1.74621 0.436755 0
M  V30 1109 H 97.0776 -0.615474 0.432082 0
M  V30 1110 H 99.0486 -1.85 2.34132 0
M  V30 1111 C 97.7976 -3.2466 1.24465 0
M  V30 1112 H 97.1206 -3.40402 2.09682 0
M  V30 1113 H 98.5606 -4.04292 1.27764 0
M  V30 1114 C 97.0196 -3.36867 -0.0468674 0
M  V30 1115 O 97.5496 -3.88618 -1.01681 0
M  V30 1116 N 95.7556 -2.90391 -0.110145 0
M  V30 1117 H 95.3026 -2.48466 0.679868 0
M  V30 1118 H 95.2606 -2.98939 -0.973799 0
M  V30 1119 N 99.0327 -1.24633 -0.964593 0
M  V30 1120 C 99.9627 -1.06611 -2.07741 0
M  V30 1121 C 100.944 0.0218666 -1.70086 0
M  V30 1122 O 102.129 -0.145793 -1.93652 0
M  V30 1123 C 99.2587 -0.673444 -3.40708 0
M  V30 1124 C 98.2127 -1.71054 -3.92332 0
M  V30 1125 C 97.5387 -1.17285 -5.21678 0
M  V30 1126 C 98.8387 -3.10718 -4.19824 0
M  V30 1127 H 100.533 -1.99693 -2.23076 0
M  V30 1128 H 98.0787 -0.96152 -1.07195 0
M  V30 1129 H 100.032 -0.534345 -4.17998 0
M  V30 1130 H 98.7557 0.293073 -3.25282 0
M  V30 1131 H 97.4147 -1.83791 -3.17201 0
M  V30 1132 H 97.0627 -0.196847 -5.02615 0
M  V30 1133 H 96.7627 -1.86592 -5.57187 0
M  V30 1134 H 98.2867 -1.04593 -6.01575 0
M  V30 1135 H 99.7007 -3.01192 -4.87808 0
M  V30 1136 H 98.0977 -3.77406 -4.66567 0
M  V30 1137 H 99.1677 -3.58524 -3.26479 0
M  V30 1138 N 100.511 1.16574 -1.06058 0
M  V30 1139 C 101.759 1.86677 -0.77434 0
M  V30 1140 C 102.08 1.81959 0.701147 0
M  V30 1141 O 101.35 1.2515 1.50713 0
M  V30 1142 H 99.9298 0.691134 -0.283449 0
M  V30 1143 H 102.592 1.41378 -1.34158 0
M  V30 1144 H 101.688 2.92181 -1.09711 0
M  V30 1145 N 101.989 0.842826 1.3317 0
M  V30 1146 C 103.219 0.453397 2.01564 0
M  V30 1147 C 103.627 -0.951147 1.63554 0
M  V30 1148 O 102.97 -1.63021 0.846746 0
M  V30 1149 C 103.032 0.499013 3.5602 0
M  V30 1150 C 102.696 1.86037 4.1742 0
M  V30 1151 C 103.693 2.82416 4.36506 0
M  V30 1152 C 101.378 2.15428 4.53757 0
M  V30 1153 C 103.372 4.06346 4.91082 0
M  V30 1154 C 101.059 3.39615 5.0804 0
M  V30 1155 C 102.057 4.3489 5.26649 0
M  V30 1156 O 101.745 5.5688 5.79776 0
M  V30 1157 H 101.477 0.177871 0.652179 0
M  V30 1158 H 104.031 1.13808 1.70988 0
M  V30 1159 H 102.261 -0.242467 3.85939 0
M  V30 1160 H 103.95 0.126852 4.05702 0
M  V30 1161 H 104.716 2.6101 4.08777 0
M  V30 1162 H 100.595 1.42061 4.38565 0
M  V30 1163 H 104.139 4.80722 5.05522 0
M  V30 1164 H 100.036 3.60876 5.352 0
M  V30 1165 H 100.804 5.58674 5.98185 0
M  V30 1166 N 103.467 -1.45747 0.599634 0
M  V30 1167 C 104.415 -2.322 -0.136426 0
M  V30 1168 C 105.409 -1.45497 -0.867583 0
M  V30 1169 O 106.615 -1.62027 -0.78405 0
M  V30 1170 H 102.99 -0.749368 -0.0628588 0
M  V30 1171 H 104.961 -2.92072 0.611281 0
M  V30 1172 C 103.71 -3.28974 -1.12567 0
M  V30 1173 H 103.033 -3.9568 -0.572484 0
M  V30 1174 H 104.473 -3.92212 -1.61077 0
M  V30 1175 C 102.932 -2.55561 -2.19523 0
M  V30 1176 O 103.462 -2.33111 -3.27143 0
M  V30 1177 N 101.668 -2.15832 -1.94589 0
M  V30 1178 H 101.215 -2.3429 -1.07078 0
M  V30 1179 H 101.173 -1.67034 -2.66359 0
M  V30 1180 N 104.945 -0.338344 -1.53925 0
M  V30 1181 C 106.193 0.259245 -2.0043 0
M  V30 1182 C 106.514 1.51484 -1.22791 0
M  V30 1183 O 105.784 1.93037 -0.33368 0
M  V30 1184 H 104.364 0.0987845 -0.740439 0
M  V30 1185 H 107.026 -0.458302 -1.89435 0
M  V30 1186 H 106.122 0.505334 -3.07982 0
M  V30 1187 N 106.423 1.57458 -0.0668435 0
M  V30 1188 C 107.648 1.9804 0.616027 0
M  V30 1189 C 108.073 0.944771 1.62652 0
M  V30 1190 O 107.431 -0.0902094 1.81075 0
M  V30 1191 C 107.479 3.37665 1.26549 0
M  V30 1192 O 106.583 3.36701 2.38131 0
M  V30 1193 H 105.924 0.644719 0.158849 0
M  V30 1194 H 108.454 2.04121 -0.139891 0
M  V30 1195 H 108.464 3.7474 1.6135 0
M  V30 1196 H 107.139 4.12573 0.525016 0
M  V30 1197 H 105.716 3.1139 2.0516 0
M  V30 1198 N 107.901 -0.206675 1.56239 0
M  V30 1199 C 109.126 -0.949474 1.8439 0
M  V30 1200 C 109.551 -1.76549 0.649016 0
M  V30 1201 O 108.909 -1.76782 -0.402231 0
M  V30 1202 C 108.957 -1.83078 3.10668 0
M  V30 1203 O 108.061 -2.9281 2.90407 0
M  V30 1204 H 107.402 -0.268033 0.607499 0
M  V30 1205 H 109.932 -0.215488 2.03462 0
M  V30 1206 H 109.942 -2.2377 3.41161 0
M  V30 1207 H 108.617 -1.23112 3.97261 0
M  V30 1208 H 107.194 -2.55956 2.71184 0
M  V30 1209 N 109.379 -1.50304 -0.473955 0
M  V30 1210 C 110.604 -1.65175 -1.25427 0
M  V30 1211 C 111.029 -0.333673 -1.85117 0
M  V30 1212 O 110.387 0.702114 -1.67153 0
M  V30 1213 C 110.435 -2.74295 -2.34082 0
M  V30 1214 O 109.539 -2.35349 -3.38651 0
M  V30 1215 H 108.88 -0.551944 -0.369126 0
M  V30 1216 H 111.41 -1.96662 -0.564364 0
M  V30 1217 H 111.42 -2.97285 -2.79438 0
M  V30 1218 H 110.095 -3.69959 -1.90008 0
M  V30 1219 H 108.672 -2.22794 -2.99027 0
M  V30 1220 N 110.857 0.726932 -1.39834 0
M  V30 1221 C 112.082 1.52121 -1.40976 0
M  V30 1222 C 112.507 1.88098 -0.00826029 0
M  V30 1223 O 111.865 1.52479 0.980807 0
M  V30 1224 C 111.913 2.78021 -2.29644 0
M  V30 1225 O 111.017 3.74272 -1.73188 0
M  V30 1226 H 110.358 0.45908 -0.479731 0
M  V30 1227 H 112.888 0.896207 -1.83927 0
M  V30 1228 H 112.898 3.26671 -2.44438 0
M  V30 1229 H 111.573 2.51169 -3.31492 0
M  V30 1230 H 110.15 3.33073 -1.6768 0
M  V30 1231 N 112.336 1.25143 0.95797 0
M  V30 1232 C 113.584 1.09476 1.69881 0
M  V30 1233 C 113.905 -0.365502 1.91544 0
M  V30 1234 O 113.175 -1.25985 1.50015 0
M  V30 1235 H 111.755 0.402128 0.629525 0
M  V30 1236 H 114.417 1.57214 1.15194 0
M  V30 1237 H 113.513 1.60046 2.6794 0
M  V30 1238 N 113.814 -1.1601 1.06675 0
M  V30 1239 C 115.06 -1.86909 0.786945 0
M  V30 1240 C 115.393 -1.81717 -0.685018 0
M  V30 1241 O 114.668 -1.23551 -1.50218 0
M  V30 1242 C 114.951 -3.36313 1.28707 0
M  V30 1243 C 114.804 -3.50175 2.82308 0
M  V30 1244 C 116.123 -4.3084 0.898071 0
M  V30 1245 H 113.242 -0.678677 0.287343 0
M  V30 1246 H 115.884 -1.36336 1.32334 0
M  V30 1247 H 114.034 -3.79513 0.830768 0
M  V30 1248 H 115.706 -3.15886 3.36175 0
M  V30 1249 H 113.949 -2.91959 3.20847 0
M  V30 1250 H 114.62 -4.55116 3.12368 0
M  V30 1251 H 117.096 -3.95561 1.29114 0
M  V30 1252 H 115.972 -5.33876 1.27543 0
M  V30 1253 H 116.233 -4.41662 -0.196651 0
M  V30 1254 N 115.292 -0.849877 -1.32721 0
M  V30 1255 C 116.224 -0.248332 -2.27851 0
M  V30 1256 C 117.237 0.577218 -1.52224 0
M  V30 1257 O 118.426 0.402489 -1.73903 0
M  V30 1258 C 115.526 0.668107 -3.32249 0
M  V30 1259 C 114.699 -0.120534 -4.37234 0
M  V30 1260 C 113.758 0.720932 -5.21238 0
M  V30 1261 O 112.784 0.156166 -5.68986 0
M  V30 1262 N 113.986 2.03647 -5.43607 0
M  V30 1263 H 116.751 -1.06575 -2.80111 0
M  V30 1264 H 114.312 -0.709395 -1.45531 0
M  V30 1265 H 116.304 1.23627 -3.85355 0
M  V30 1266 H 114.874 1.38621 -2.80184 0
M  V30 1267 H 114.094 -0.870108 -3.84477 0
M  V30 1268 H 115.382 -0.662406 -5.0447 0
M  V30 1269 H 114.78 2.51871 -5.06535 0
M  V30 1270 H 113.337 2.55287 -5.99727 0
M  V30 1271 N 116.77 1.45427 -0.607355 0
M  V30 1272 C 118.017 2.02241 -0.102455 0
M  V30 1273 C 118.345 1.4758 1.26691 0
M  V30 1274 O 117.6 0.640468 1.84923 0
M  V30 1275 C 117.899 3.57398 -0.0129263 0
M  V30 1276 C 117.565 4.3121 -1.31792 0
M  V30 1277 C 116.227 4.51092 -1.67539 0
M  V30 1278 C 118.579 4.73401 -2.18039 0
M  V30 1279 C 115.907 5.10422 -2.89285 0
M  V30 1280 C 118.259 5.34078 -3.39034 0
M  V30 1281 C 116.923 5.52184 -3.75033 0
M  V30 1282 H 116.193 0.740051 -0.037491 0
M  V30 1283 H 118.84 1.74494 -0.788926 0
M  V30 1284 H 117.145 3.84421 0.756806 0
M  V30 1285 H 118.842 3.99061 0.393881 0
M  V30 1286 H 115.432 4.16047 -1.02968 0
M  V30 1287 H 119.616 4.57774 -1.91721 0
M  V30 1288 H 114.872 5.22629 -3.17283 0
M  V30 1289 H 119.046 5.65724 -4.06115 0
M  V30 1290 H 116.673 5.97925 -4.69457 0
M  V30 1291 N 118.248 0.346503 1.53744 0
M  V30 1292 C 119.476 -0.25041 2.05379 0
M  V30 1293 C 119.891 -1.43979 1.22129 0
M  V30 1294 O 119.248 -1.80677 0.257321 0
M  V30 1295 C 119.299 -0.662575 3.55376 0
M  V30 1296 O 119.02 0.479515 4.35468 0
M  V30 1297 C 120.521 -1.31989 4.23195 0
M  V30 1298 H 117.741 -0.0478198 0.669294 0
M  V30 1299 H 120.285 0.499346 1.9831 0
M  V30 1300 H 118.44 -1.36227 3.62658 0
M  V30 1301 H 118.854 0.15037 5.24284 0
M  V30 1302 H 120.328 -1.55902 5.29527 0
M  V30 1303 H 120.805 -2.27436 3.75725 0
M  V30 1304 H 121.411 -0.662154 4.20114 0
M  V30 1305 N 119.726 -1.57421 0.075193 0
M  V30 1306 C 121.003 -1.85029 -0.634329 0
M  V30 1307 C 121.383 -0.968305 -1.87582 0
M  V30 1308 O 120.731 -0.0354749 -2.28472 0
M  V30 1309 C 120.941 -3.35286 -0.968742 0
M  V30 1310 C 122.289 -4.02875 -1.34077 0
M  V30 1311 O 123.313 -3.40051 -1.06037 0
M  V30 1312 O 122.172 -5.13691 -1.86506 0
M  V30 1313 H 119.266 -0.7645 -0.315387 0
M  V30 1314 H 121.812 -1.69366 0.106382 0
M  V30 1315 H 120.584 -3.91203 -0.0871376 0
M  V30 1316 H 120.207 -3.56223 -1.7661 0
M  V30 1317 N 121.204 0.198386 -1.56346 0
M  V30 1318 C 122.62 0.549085 -1.49857 0
M  V30 1319 C 122.82 1.86016 -0.774611 0
M  V30 1320 O 121.876 2.50416 -0.323776 0
M  V30 1321 C 123.189 0.606868 -2.94512 0
M  V30 1322 C 124.737 0.695925 -3.05165 0
M  V30 1323 C 125.212 0.784848 -4.51225 0
M  V30 1324 N 126.703 0.848463 -4.55363 0
M  V30 1325 C 127.438 0.937378 -5.65686 0
M  V30 1326 N 126.934 0.9888 -6.85707 0
M  V30 1327 N 128.727 0.974312 -5.53592 0
M  V30 1328 H 120.878 -0.661655 -2.01831 0
M  V30 1329 H 123.141 -0.235261 -0.918344 0
M  V30 1330 H 122.847 -0.28732 -3.50524 0
M  V30 1331 H 122.721 1.46268 -3.47686 0
M  V30 1332 H 125.108 1.58055 -2.49204 0
M  V30 1333 H 125.189 -0.186022 -2.55123 0
M  V30 1334 H 124.833 -0.0954072 -5.0781 0
M  V30 1335 H 124.763 1.68255 -4.98997 0
M  V30 1336 H 127.254 0.818103 -3.68938 0
M  V30 1337 H 127.567 1.05707 -7.65536 0
M  V30 1338 H 125.912 0.957534 -6.88372 0
M  V30 1339 H 129.103 0.930954 -4.58749 0
M  V30 1340 H 129.276 1.04015 -6.39597 0
M  V30 1341 N 122.682 1.50554 0.465978 0
M  V30 1342 C 123.922 1.63439 1.22747 0
M  V30 1343 C 124.286 0.329822 1.89146 0
M  V30 1344 O 125.487 0.334161 2.66715 0
M  V30 1345 C 123.758 2.78542 2.2394 0
M  V30 1346 S 125.317 3.11591 3.0896 0
M  V30 1347 H 122.135 0.576113 0.416672 0
M  V30 1348 H 124.737 1.88357 0.523641 0
M  V30 1349 H 123.441 3.71805 1.7375 0
M  V30 1350 H 122.972 2.55726 2.98944 0
M  V30 1351 H 124.987 2.55811 4.25176 0
M  V30 1352 N 124.16 -0.719506 1.40217 0
M  V30 1353 C 125.385 -1.51371 1.4178 0
M  V30 1354 C 125.81 -1.88091 0.0182355 0
M  V30 1355 O 125.168 -1.52997 -0.972707 0
M  V30 1356 C 125.216 -2.768 2.31115 0
M  V30 1357 O 124.32 -3.73349 1.7517 0
M  V30 1358 H 123.661 -0.456529 0.482159 0
M  V30 1359 H 126.191 -0.88644 1.844 0
M  V30 1360 H 126.201 -3.25371 2.46167 0
M  V30 1361 H 124.876 -2.49407 3.3282 0
M  V30 1362 H 123.453 -3.32179 1.69444 0
M  V30 1363 N 125.638 -1.25649 -0.95132 0
M  V30 1364 C 127.054 -1.02542 -1.223 0
M  V30 1365 C 127.254 0.255715 -1.99871 0
M  V30 1366 O 126.31 0.967558 -2.33226 0
M  V30 1367 C 127.623 -2.25065 -1.99415 0
M  V30 1368 C 129.171 -2.29861 -2.12446 0
M  V30 1369 C 129.646 -3.52048 -2.92961 0
M  V30 1370 N 131.137 -3.52465 -3.00538 0
M  V30 1371 C 131.872 -4.43672 -3.63239 0
M  V30 1372 N 131.368 -5.45157 -4.27523 0
M  V30 1373 N 133.161 -4.31346 -3.60412 0
M  V30 1374 H 125.312 -2.07951 -0.432471 0
M  V30 1375 H 127.575 -0.91339 -0.253816 0
M  V30 1376 H 127.281 -3.18194 -1.49817 0
M  V30 1377 H 127.155 -2.28502 -3.00111 0
M  V30 1378 H 129.542 -1.37252 -2.61239 0
M  V30 1379 H 129.623 -2.3044 -1.11044 0
M  V30 1380 H 129.267 -4.44981 -2.44856 0
M  V30 1381 H 129.197 -3.48715 -3.94596 0
M  V30 1382 H 131.688 -2.79056 -2.54826 0
M  V30 1383 H 132.001 -6.10958 -4.73234 0
M  V30 1384 H 130.346 -5.49025 -4.26141 0
M  V30 1385 H 133.537 -3.51288 -3.09377 0
M  V30 1386 H 133.71 -5.02624 -4.0899 0
M  V30 1387 N 127.117 1.15442 -1.07289 0
M  V30 1388 C 128.065 2.22225 -0.686952 0
M  V30 1389 C 129.059 1.66688 0.30193 0
M  V30 1390 O 130.265 1.79236 0.165712 0
M  V30 1391 H 126.64 0.723783 -0.204064 0
M  V30 1392 H 128.611 2.52056 -1.5972 0
M  V30 1393 C 127.36 3.47556 -0.100149 0
M  V30 1394 H 126.683 3.90612 -0.852211 0
M  V30 1395 H 128.123 4.23794 0.132235 0
M  V30 1396 C 126.582 3.16337 1.159 0
M  V30 1397 O 127.112 3.33074 2.24555 0
M  V30 1398 N 125.318 2.70385 1.06491 0
M  V30 1399 H 124.865 2.56966 0.180668 0
M  V30 1400 H 124.823 2.49871 1.90819 0
M  V30 1401 N 128.595 0.856903 1.32268 0
M  V30 1402 C 129.525 0.31858 2.31316 0
M  V30 1403 C 130.506 -0.583487 1.59779 0
M  V30 1404 O 131.691 -0.503259 1.87566 0
M  V30 1405 C 128.821 -0.491979 3.43798 0
M  V30 1406 C 127.775 0.315849 4.26833 0
M  V30 1407 C 127.101 -0.619586 5.31098 0
M  V30 1408 C 128.401 1.54282 4.98993 0
M  V30 1409 H 130.095 1.14621 2.76591 0
M  V30 1410 H 127.641 0.552613 1.32974 0
M  V30 1411 H 129.594 -0.879012 4.1213 0
M  V30 1412 H 128.318 -1.35299 2.97257 0
M  V30 1413 H 126.977 0.684664 3.6015 0
M  V30 1414 H 126.625 -1.47751 4.8081 0
M  V30 1415 H 126.325 -0.0830621 5.87541 0
M  V30 1416 H 127.849 -1.00375 6.02293 0
M  V30 1417 H 129.263 1.22796 5.59995 0
M  V30 1418 H 127.66 2.01745 5.65172 0
M  V30 1419 H 128.73 2.30285 4.26728 0
M  V30 1420 N 130.073 -1.45103 0.615059 0
M  V30 1421 C 131.303 -2.06254 0.119596 0
M  V30 1422 C 131.711 -1.4591 -1.20445 0
M  V30 1423 O 131.054 -0.570384 -1.7462 0
M  V30 1424 C 131.116 -3.59396 -0.0865591 0
M  V30 1425 C 130.78 -4.42116 1.15683 0
M  V30 1426 C 131.777 -4.7662 2.07676 0
M  V30 1427 C 129.462 -4.82749 1.38775 0
M  V30 1428 C 131.456 -5.50622 3.21082 0
M  V30 1429 C 129.143 -5.56504 2.52481 0
M  V30 1430 C 130.141 -5.90358 3.43463 0
M  V30 1431 O 129.829 -6.62615 4.55189 0
M  V30 1432 H 129.561 -0.672423 0.0694512 0
M  V30 1433 H 132.115 -1.87219 0.844885 0
M  V30 1434 H 130.345 -3.76859 -0.866823 0
M  V30 1435 H 132.034 -4.02365 -0.534555 0
M  V30 1436 H 132.8 -4.4578 1.91063 0
M  V30 1437 H 128.679 -4.55829 0.688545 0
M  V30 1438 H 132.223 -5.76965 3.92119 0
M  V30 1439 H 128.12 -5.86759 2.69043 0
M  V30 1440 H 128.888 -6.81071 4.53966 0
M  V30 1441 N 131.551 -0.354651 -1.53558 0
M  V30 1442 C 132.799 0.237972 -2.00694 0
M  V30 1443 C 133.12 1.50173 -1.24391 0
M  V30 1444 O 132.39 1.92673 -0.354135 0
M  V30 1445 H 130.97 0.0909256 -0.741446 0
M  V30 1446 H 133.632 -0.478368 -1.88938 0
M  V30 1447 H 132.728 0.47264 -3.085 0
M  V30 1448 N 133.029 1.57378 -0.0835403 0
M  V30 1449 C 133.939 2.16897 0.894021 0
M  V30 1450 C 134.955 1.13528 1.31861 0
M  V30 1451 O 136.131 1.45848 1.3889 0
M  V30 1452 C 133.196 2.72831 2.13925 0
M  V30 1453 C 132.257 3.91115 1.76997 0
M  V30 1454 C 131.49 4.44371 2.95584 0
M  V30 1455 O 131.713 3.96596 4.09961 0
M  V30 1456 O 130.647 5.35549 2.74719 0
M  V30 1457 H 134.473 3.00814 0.417679 0
M  V30 1458 H 132.058 1.48741 0.140181 0
M  V30 1459 H 133.94 3.0863 2.86924 0
M  V30 1460 H 132.615 1.91967 2.60635 0
M  V30 1461 H 131.522 3.60148 1.01214 0
M  V30 1462 H 132.855 4.73307 1.3506 0
M  V30 1463 N 134.507 -0.190092 1.56449 0
M  V30 1464 C 135.735 -0.925772 1.85033 0
M  V30 1465 C 136.15 -1.76638 0.666658 0
M  V30 1466 O 135.507 -1.78822 -0.364565 0
M  V30 1467 C 135.558 -1.81786 3.12468 0
M  V30 1468 O 135.279 -1.01118 4.26271 0
M  V30 1469 C 136.78 -2.6648 3.54265 0
M  V30 1470 H 134 -0.269872 0.614337 0
M  V30 1471 H 136.544 -0.195837 2.0356 0
M  V30 1472 H 134.699 -2.50136 2.95822 0
M  V30 1473 H 135.113 -1.61956 4.98869 0
M  V30 1474 H 136.587 -3.24722 4.46385 0
M  V30 1475 H 137.064 -3.40434 2.77491 0
M  V30 1476 H 137.67 -2.03493 3.73458 0
M  V30 1477 N 135.985 -1.50799 -0.457987 0
M  V30 1478 C 136.915 -1.73553 -1.5621 0
M  V30 1479 C 137.896 -0.584774 -1.59732 0
M  V30 1480 O 139.081 -0.825314 -1.7579 0
M  V30 1481 C 136.211 -1.84169 -2.94447 0
M  V30 1482 C 135.165 -2.99461 -3.0579 0
M  V30 1483 C 134.491 -2.95235 -4.45803 0
M  V30 1484 C 135.791 -4.39766 -2.81786 0
M  V30 1485 H 137.485 -2.66 -1.37421 0
M  V30 1486 H 135.031 -1.28002 -0.659662 0
M  V30 1487 H 136.984 -1.98672 -3.71628 0
M  V30 1488 H 135.708 -0.883545 -3.14422 0
M  V30 1489 H 134.367 -2.8463 -2.31044 0
M  V30 1490 H 134.015 -1.97239 -4.62715 0
M  V30 1491 H 133.715 -3.72642 -4.54326 0
M  V30 1492 H 135.239 -3.11803 -5.24987 0
M  V30 1493 H 136.653 -4.55054 -3.4871 0
M  V30 1494 H 135.05 -5.18722 -3.0174 0
M  V30 1495 H 136.12 -4.51229 -1.7754 0
M  V30 1496 N 137.463 0.71206 -1.40597 0
M  V30 1497 C 138.874 1.29135 -1.34837 0
M  V30 1498 C 139.225 1.96186 -0.0235395 0
M  V30 1499 O 138.35 1.97768 0.878444 0
M  V30 1500 C 138.945 2.34827 -2.44217 0
M  V30 1501 C 137.504 2.88371 -2.41907 0
M  V30 1502 C 136.651 1.62202 -2.24913 0
M  V30 1503 H 139.602 0.507944 -1.50352 0
M  V30 1504 H 139.623 3.15749 -2.12327 0
M  V30 1505 H 139.135 1.85996 -3.40627 0
M  V30 1506 H 137.236 3.41422 -1.49204 0
M  V30 1507 H 137.349 3.39925 -3.37621 0
M  V30 1508 H 135.713 1.874 -1.72492 0
M  V30 1509 H 136.496 1.15391 -3.23326 0
M  V30 1510 N 138.941 1.26152 0.944643 0
M  V30 1511 C 140.187 1.11657 1.69294 0
M  V30 1512 C 140.52 -0.339926 1.91202 0
M  V30 1513 O 139.795 -1.24994 1.49019 0
M  V30 1514 C 140.078 1.88236 3.06984 0
M  V30 1515 C 139.931 3.41772 2.92424 0
M  V30 1516 C 141.25 1.67343 4.07043 0
M  V30 1517 H 138.369 0.407004 0.614424 0
M  V30 1518 H 141.011 1.55106 1.09737 0
M  V30 1519 H 139.161 1.51308 3.57824 0
M  V30 1520 H 140.833 3.88433 2.48832 0
M  V30 1521 H 139.076 3.68974 2.28124 0
M  V30 1522 H 139.747 3.90579 3.90067 0
M  V30 1523 H 142.223 1.99509 3.65151 0
M  V30 1524 H 141.099 2.23346 5.01406 0
M  V30 1525 H 141.36 0.617158 4.37771 0
M  V30 1526 N 140.419 -1.14872 1.07899 0
M  V30 1527 C 141.367 -2.21857 0.698727 0
M  V30 1528 C 142.361 -1.66845 -0.293086 0
M  V30 1529 O 143.567 -1.79321 -0.156204 0
M  V30 1530 H 139.942 -0.722691 0.207899 0
M  V30 1531 H 141.913 -2.51205 1.61054 0
M  V30 1532 C 140.662 -3.47498 0.11858 0
M  V30 1533 H 139.985 -3.90154 0.872914 0
M  V30 1534 H 141.425 -4.23858 -0.109759 0
M  V30 1535 C 139.884 -3.16947 -1.1422 0
M  V30 1536 O 140.414 -3.3426 -2.22785 0
M  V30 1537 N 138.62 -2.70946 -1.05055 0
M  V30 1538 H 138.167 -2.57058 -0.167038 0
M  V30 1539 H 138.125 -2.50879 -1.89491 0
M  V30 1540 N 141.898 -0.863906 -1.31812 0
M  V30 1541 C 143.309 -0.52522 -1.7916 0
M  V30 1542 C 143.66 0.957518 -1.71248 0
M  V30 1543 O 142.785 1.74734 -1.27659 0
M  V30 1544 C 143.38 -0.9466 -3.25307 0
M  V30 1545 C 141.939 -0.659668 -3.70574 0
M  V30 1546 C 141.086 -1.14126 -2.52726 0
M  V30 1547 H 144.037 -1.05022 -1.1898 0
M  V30 1548 H 144.058 -0.266766 -3.79564 0
M  V30 1549 H 143.57 -2.02579 -3.31034 0
M  V30 1550 H 141.671 0.408416 -3.70355 0
M  V30 1551 H 141.784 -1.23245 -4.62977 0
M  V30 1552 H 140.148 -0.561216 -2.4844 0
M  V30 1553 H 140.931 -2.22775 -2.61201 0
M  V30 1554 N 143.376 1.44774 -0.622745 0
M  V30 1555 C 144.606 2.06187 -0.130532 0
M  V30 1556 C 145.014 1.46547 1.19669 0
M  V30 1557 O 144.357 0.579636 1.74316 0
M  V30 1558 C 144.419 3.59437 0.0674983 0
M  V30 1559 C 144.083 4.41496 -1.18026 0
M  V30 1560 C 145.08 4.75512 -2.102 0
M  V30 1561 C 142.765 4.82007 -1.41333 0
M  V30 1562 C 144.759 5.48912 -3.23998 0
M  V30 1563 C 142.446 5.55157 -2.55429 0
M  V30 1564 C 143.444 5.88528 -3.46589 0
M  V30 1565 O 143.132 6.60191 -4.58697 0
M  V30 1566 H 142.864 0.672045 -0.0730162 0
M  V30 1567 H 145.418 1.86768 -0.854802 0
M  V30 1568 H 143.648 3.77314 0.846825 0
M  V30 1569 H 145.337 4.02642 0.513209 0
M  V30 1570 H 146.103 4.4476 -1.93425 0
M  V30 1571 H 141.982 4.55457 -0.712709 0
M  V30 1572 H 145.526 5.74877 -3.95174 0
M  V30 1573 H 141.423 5.85324 -2.72151 0
M  V30 1574 H 142.191 6.78654 -4.57571 0
M  V30 1575 N 144.854 0.36279 1.53368 0
M  V30 1576 C 145.817 -0.472679 2.24273 0
M  V30 1577 C 146.817 -1.012 1.24961 0
M  V30 1578 O 148.007 -0.898194 1.49259 0
M  V30 1579 C 145.139 -1.66039 2.97731 0
M  V30 1580 H 146.332 0.14773 2.99536 0
M  V30 1581 H 143.885 0.114434 1.55881 0
M  V30 1582 H 144.62 -2.31896 2.26704 0
M  V30 1583 H 144.405 -1.28066 3.70596 0
M  V30 1584 H 145.895 -2.25252 3.51641 0
M  V30 1585 N 146.332 -1.57332 0.0918853 0
M  V30 1586 C 147.609 -1.85691 -0.614668 0
M  V30 1587 C 147.989 -0.988146 -1.86545 0
M  V30 1588 O 147.337 -0.0597055 -2.28422 0
M  V30 1589 C 147.547 -3.36294 -0.933126 0
M  V30 1590 C 148.895 -4.04275 -1.29796 0
M  V30 1591 O 149.919 -3.41157 -1.02424 0
M  V30 1592 O 148.778 -5.1564 -1.81047 0
M  V30 1593 H 145.872 -0.767802 -0.307261 0
M  V30 1594 H 148.418 -1.69244 0.12434 0
M  V30 1595 H 147.19 -3.91273 -0.0456404 0
M  V30 1596 H 146.813 -3.58076 -1.72822 0
M  V30 1597 N 147.81 0.181792 -1.56548 0
M  V30 1598 C 149.035 0.920019 -1.85877 0
M  V30 1599 C 149.46 1.75494 -0.677021 0
M  V30 1600 O 148.818 1.77399 0.374056 0
M  V30 1601 C 148.866 1.78112 -3.13542 0
M  V30 1602 O 147.97 2.88152 -2.95029 0
M  V30 1603 H 147.311 0.258334 -0.611686 0
M  V30 1604 H 149.841 0.183092 -2.03779 0
M  V30 1605 H 149.851 2.18314 -3.44678 0
M  V30 1606 H 148.526 1.16777 -3.99169 0
M  V30 1607 H 147.103 2.51609 -2.75222 0
M  V30 1608 N 149.288 1.51039 0.449983 0
M  V30 1609 C 150.198 1.74261 1.57067 0
M  V30 1610 C 151.214 0.626363 1.62335 0
M  V30 1611 O 152.39 0.907162 1.79812 0
M  V30 1612 C 149.455 1.85114 2.93144 0
M  V30 1613 C 148.516 3.0893 2.98095 0
M  V30 1614 C 147.749 3.19256 4.27681 0
M  V30 1615 O 147.972 2.35835 5.19363 0
M  V30 1616 O 146.906 4.12144 4.38658 0
M  V30 1617 H 150.732 2.69303 1.40391 0
M  V30 1618 H 148.317 1.35389 0.631688 0
M  V30 1619 H 150.199 1.94311 3.73926 0
M  V30 1620 H 148.874 0.932588 3.09975 0
M  V30 1621 H 147.781 3.0522 2.16314 0
M  V30 1622 H 149.114 4.00433 2.86206 0
M  V30 1623 N 150.766 -0.704594 1.40972 0
M  V30 1624 C 151.714 -1.83994 1.42299 0
M  V30 1625 C 152.708 -1.66684 0.302111 0
M  V30 1626 O 153.914 -1.73655 0.473697 0
M  V30 1627 H 150.289 -0.606171 0.44504 0
M  V30 1628 H 152.26 -1.79992 2.38003 0
M  V30 1629 C 151.009 -3.21946 1.31323 0
M  V30 1630 H 150.332 -3.35878 2.16855 0
M  V30 1631 H 151.772 -4.01491 1.36311 0
M  V30 1632 C 150.231 -3.36891 0.0245977 0
M  V30 1633 O 150.761 -3.90687 -0.934153 0
M  V30 1634 N 148.967 -2.90559 -0.0485243 0
M  V30 1635 H 148.514 -2.46968 0.732419 0
M  V30 1636 H 148.472 -3.00937 -0.910171 0
M  V30 1637 N 152.244 -1.26651 -0.937939 0
M  V30 1638 C 153.655 -1.1125 -1.49934 0
M  V30 1639 C 154.006 0.306077 -1.93798 0
M  V30 1640 O 153.131 1.19792 -1.80219 0
M  V30 1641 C 153.726 -2.01339 -2.72485 0
M  V30 1642 C 152.285 -1.90074 -3.24883 0
M  V30 1643 C 151.432 -1.94498 -1.97651 0
M  V30 1644 H 154.383 -1.39693 -0.753091 0
M  V30 1645 H 154.404 -1.56319 -3.46907 0
M  V30 1646 H 153.916 -3.04577 -2.40529 0
M  V30 1647 H 152.017 -0.897827 -3.61621 0
M  V30 1648 H 152.13 -2.75778 -3.9177 0
M  V30 1649 H 150.494 -1.38591 -2.13693 0
M  V30 1650 H 151.277 -2.99372 -1.68022 0
M  V30 1651 N 153.722 1.14298 -1.08507 0
M  V30 1652 C 154.971 1.84708 -0.810305 0
M  V30 1653 C 155.284 1.83903 0.666271 0
M  V30 1654 O 156.49 2.50112 1.05624 0
M  V30 1655 C 154.946 3.31572 -1.39957 0
M  V30 1656 C 154.554 3.40791 -2.90801 0
M  V30 1657 C 156.298 4.07087 -1.20334 0
M  V30 1658 C 154.205 4.81872 -3.4286 0
M  V30 1659 H 153.135 0.691985 -0.299454 0
M  V30 1660 H 155.786 1.28841 -1.30661 0
M  V30 1661 H 154.168 3.87183 -0.830976 0
M  V30 1662 H 155.342 2.95225 -3.53806 0
M  V30 1663 H 153.657 2.78732 -3.0935 0
M  V30 1664 H 156.254 5.11225 -1.56693 0
M  V30 1665 H 156.597 4.16054 -0.143237 0
M  V30 1666 H 157.13 3.57779 -1.73893 0
M  V30 1667 H 153.869 4.78094 -4.48449 0
M  V30 1668 H 153.389 5.27972 -2.84615 0
M  V30 1669 H 155.068 5.50765 -3.39509 0
M  V30 1670 N 155.201 0.870884 1.31352 0
M  V30 1671 C 156.447 0.482987 1.96965 0
M  V30 1672 C 156.78 -0.962462 1.68672 0
M  V30 1673 O 156.055 -1.6779 0.98371 0
M  V30 1674 C 156.338 0.741752 3.52378 0
M  V30 1675 C 156.191 2.2368 3.9024 0
M  V30 1676 C 157.51 0.208838 4.39604 0
M  V30 1677 H 154.629 0.176955 0.715441 0
M  V30 1678 H 157.271 1.09229 1.55464 0
M  V30 1679 H 155.421 0.223149 3.87859 0
M  V30 1680 H 157.093 2.82273 3.64856 0
M  V30 1681 H 155.336 2.70901 3.38814 0
M  V30 1682 H 156.007 2.3685 4.98604 0
M  V30 1683 H 158.483 0.652529 4.10952 0
M  V30 1684 H 157.359 0.419336 5.47296 0
M  V30 1685 H 157.62 -0.889275 4.33064 0
M  V30 1686 N 156.679 -1.44442 0.630414 0
M  V30 1687 C 157.925 -2.02351 0.134816 0
M  V30 1688 C 158.258 -1.4947 -1.23986 0
M  V30 1689 O 157.533 -0.678475 -1.82283 0
M  V30 1690 C 157.816 -3.59898 0.120707 0
M  V30 1691 C 157.669 -4.23063 1.52767 0
M  V30 1692 C 158.988 -4.36585 -0.555127 0
M  V30 1693 H 156.107 -0.73527 0.0504646 0
M  V30 1694 H 158.749 -1.72022 0.806751 0
M  V30 1695 H 156.899 -3.85868 -0.451477 0
M  V30 1696 H 158.571 -4.08202 2.14869 0
M  V30 1697 H 156.814 -3.80586 2.08175 0
M  V30 1698 H 157.485 -5.32071 1.46984 0
M  V30 1699 H 159.961 -4.16044 -0.0685429 0
M  V30 1700 H 158.837 -5.46294 -0.534185 0
M  V30 1701 H 159.098 -4.11138 -1.62535 0
M  V30 1702 N 158.157 -0.370918 -1.53173 0
M  V30 1703 C 159.382 0.220293 -2.06227 0
M  V30 1704 C 159.807 1.41243 -1.24225 0
M  V30 1705 O 159.165 1.79387 -0.262645 0
M  V30 1706 C 159.213 0.586663 -3.55796 0
M  V30 1707 O 158.317 1.68317 -3.76488 0
M  V30 1708 H 157.658 0.0308099 -0.663285 0
M  V30 1709 H 160.188 -0.533068 -1.97534 0
M  V30 1710 H 160.198 0.85617 -3.98916 0
M  V30 1711 H 158.873 -0.285013 -4.14922 0
M  V30 1712 H 157.45 1.40881 -3.45264 0
M  V30 1713 N 159.635 1.57281 -0.100228 0
M  V30 1714 C 160.567 2.11342 0.886972 0
M  V30 1715 C 161.58 1.05182 1.24261 0
M  V30 1716 O 162.769 1.32613 1.19483 0
M  V30 1717 C 159.869 2.5825 2.19454 0
M  V30 1718 C 159.042 3.88302 2.01346 0
M  V30 1719 C 158.101 4.21004 3.15661 0
M  V30 1720 O 157.127 4.9014 2.89398 0
M  V30 1721 N 158.329 3.76818 4.41575 0
M  V30 1722 H 161.094 2.96668 0.425216 0
M  V30 1723 H 158.655 1.61678 0.0847334 0
M  V30 1724 H 160.647 2.7717 2.94888 0
M  V30 1725 H 159.217 1.77907 2.57037 0
M  V30 1726 H 158.437 3.7848 1.10212 0
M  V30 1727 H 159.725 4.73375 1.8653 0
M  V30 1728 H 159.123 3.2102 4.65792 0
M  V30 1729 H 157.68 4.00882 5.13942 0
M  V30 1730 N 161.113 -0.173488 1.56642 0
M  V30 1731 C 162.359 -0.891784 1.8214 0
M  V30 1732 C 162.692 -1.8199 0.677736 0
M  V30 1733 O 161.967 -1.91842 -0.320446 0
M  V30 1734 C 162.25 -1.68933 3.18015 0
M  V30 1735 C 162.103 -0.784487 4.42906 0
M  V30 1736 C 163.422 -2.65748 3.50808 0
M  V30 1737 H 160.541 -0.322761 0.662567 0
M  V30 1738 H 163.183 -0.158095 1.89341 0
M  V30 1739 H 161.333 -2.31482 3.12007 0
M  V30 1740 H 163.005 -0.172046 4.60979 0
M  V30 1741 H 161.248 -0.0924117 4.33702 0
M  V30 1742 H 161.919 -1.37799 5.34524 0
M  V30 1743 H 164.395 -2.13327 3.57255 0
M  V30 1744 H 163.271 -3.18619 4.4696 0
M  V30 1745 H 163.532 -3.45842 2.75401 0
M  V30 1746 N 162.591 -1.51276 -0.441967 0
M  V30 1747 C 163.838 -1.63715 -1.19179 0
M  V30 1748 C 164.166 -0.351175 -1.91303 0
M  V30 1749 O 163.421 0.664524 -1.84072 0
M  V30 1750 C 163.72 -2.78746 -2.23686 0
M  V30 1751 C 163.386 -4.18189 -1.68607 0
M  V30 1752 C 162.048 -4.56125 -1.53308 0
M  V30 1753 C 164.4 -5.05222 -1.28062 0
M  V30 1754 C 161.728 -5.78804 -0.959317 0
M  V30 1755 C 164.08 -6.28476 -0.721162 0
M  V30 1756 C 162.744 -6.65188 -0.55504 0
M  V30 1757 H 162.014 -0.599076 -0.436106 0
M  V30 1758 H 164.661 -1.85296 -0.48351 0
M  V30 1759 H 162.966 -2.51369 -3.00535 0
M  V30 1760 H 164.663 -2.8557 -2.81515 0
M  V30 1761 H 161.253 -3.88277 -1.8149 0
M  V30 1762 H 165.437 -4.76524 -1.38704 0
M  V30 1763 H 160.693 -6.05899 -0.81833 0
M  V30 1764 H 164.867 -6.95259 -0.398458 0
M  V30 1765 H 162.494 -7.60123 -0.108311 0
M  V30 1766 N 164.069 0.697108 -1.41344 0
M  V30 1767 C 165.317 1.45426 -1.40341 0
M  V30 1768 C 165.638 1.94996 -0.0128787 0
M  V30 1769 O 164.908 1.71599 0.945027 0
M  V30 1770 H 163.488 0.539594 -0.516573 0
M  V30 1771 H 166.15 0.825201 -1.76569 0
M  V30 1772 H 165.246 2.31817 -2.08967 0
M  V30 1773 N 165.547 1.27147 0.931209 0
M  V30 1774 C 166.477 1.12081 2.04842 0
M  V30 1775 C 167.458 0.0232364 1.70084 0
M  V30 1776 O 168.643 0.197085 1.93197 0
M  V30 1777 C 165.773 0.76354 3.38803 0
M  V30 1778 C 164.727 1.81396 3.87659 0
M  V30 1779 C 164.053 1.31075 5.18385 0
M  V30 1780 C 165.353 3.21739 4.11438 0
M  V30 1781 H 167.047 2.05537 2.17703 0
M  V30 1782 H 164.593 0.989603 1.04608 0
M  V30 1783 H 166.546 0.644982 4.16435 0
M  V30 1784 H 165.27 -0.206727 3.25945 0
M  V30 1785 H 163.929 1.92136 3.12217 0
M  V30 1786 H 163.577 0.330037 5.01916 0
M  V30 1787 H 163.277 2.013 5.52044 0
M  V30 1788 H 164.801 1.20506 5.98591 0
M  V30 1789 H 166.215 3.14019 4.79651 0
M  V30 1790 H 164.612 3.89644 4.56397 0
M  V30 1791 H 165.682 3.67054 3.16859 0
M  V30 1792 N 167.025 -1.13721 1.09112 0
M  V30 1793 C 168.436 -1.6648 0.845068 0
M  V30 1794 C 168.787 -1.85911 -0.62701 0
M  V30 1795 O 167.912 -1.57556 -1.48341 0
M  V30 1796 C 168.507 -3.02413 1.52748 0
M  V30 1797 C 167.066 -3.52176 1.32849 0
M  V30 1798 C 166.213 -2.27492 1.58564 0
M  V30 1799 H 169.164 -0.976872 1.25072 0
M  V30 1800 H 169.185 -3.68223 0.958752 0
M  V30 1801 H 168.697 -2.88238 2.59885 0
M  V30 1802 H 166.798 -3.7156 0.278137 0
M  V30 1803 H 166.911 -4.32499 2.0611 0
M  V30 1804 H 165.275 -2.33923 1.00758 0
M  V30 1805 H 166.058 -2.15886 2.66924 0
M  V30 1806 N 168.503 -0.877838 -1.30888 0
M  V30 1807 C 169.75 -0.492696 -1.96415 0
M  V30 1808 C 170.078 0.956671 -1.69346 0
M  V30 1809 O 169.333 1.68993 -0.986913 0
M  V30 1810 C 169.632 -0.705748 -3.50363 0
M  V30 1811 C 169.298 -2.1291 -3.97467 0
M  V30 1812 C 167.96 -2.51834 -4.1004 0
M  V30 1813 C 170.312 -3.05702 -4.22132 0
M  V30 1814 C 167.64 -3.82775 -4.44635 0
M  V30 1815 C 169.992 -4.36166 -4.58194 0
M  V30 1816 C 168.656 -4.74993 -4.68975 0
M  V30 1817 H 167.926 -0.18029 -0.718733 0
M  V30 1818 H 170.573 -1.11233 -1.55883 0
M  V30 1819 H 168.878 -0.00303058 -3.918 0
M  V30 1820 H 170.575 -0.387456 -3.99124 0
M  V30 1821 H 167.165 -1.81694 -3.88182 0
M  V30 1822 H 171.349 -2.76853 -4.11906 0
M  V30 1823 H 166.605 -4.12609 -4.51181 0
M  V30 1824 H 170.779 -5.08111 -4.76231 0
M  V30 1825 H 168.406 -5.76495 -4.95537 0
M  V30 1826 N 169.982 1.44106 -0.638065 0
M  V30 1827 C 170.892 2.34513 0.0637334 0
M  V30 1828 C 171.908 1.53018 0.828346 0
M  V30 1829 O 173.084 1.85723 0.779036 0
M  V30 1830 C 170.149 3.31095 1.02844 0
M  V30 1831 C 169.21 4.28497 0.26244 0
M  V30 1832 C 168.443 5.20465 1.1812 0
M  V30 1833 O 168.666 5.16514 2.42011 0
M  V30 1834 O 167.6 5.98251 0.661774 0
M  V30 1835 H 171.426 2.95989 -0.68003 0
M  V30 1836 H 169.011 1.43994 -0.398252 0
M  V30 1837 H 170.893 3.90526 1.58327 0
M  V30 1838 H 169.568 2.72144 1.7527 0
M  V30 1839 H 168.475 3.72592 -0.335602 0
M  V30 1840 H 169.808 4.90388 -0.421936 0
M  V30 1841 N 171.46 0.379036 1.52974 0
M  V30 1842 C 172.407 -0.461048 2.26148 0
M  V30 1843 C 173.377 -1.06637 1.27349 0
M  V30 1844 O 174.562 -1.09633 1.56157 0
M  V30 1845 C 171.702 -1.58782 3.06402 0
M  V30 1846 C 170.815 -1.00636 4.20115 0
M  V30 1847 C 169.95 -2.10334 4.87784 0
M  V30 1848 C 168.989 -1.49724 5.93506 0
M  V30 1849 N 168.126 -2.5331 6.54812 0
M  V30 1850 H 172.966 0.169429 2.97518 0
M  V30 1851 H 170.503 0.0953806 1.4679 0
M  V30 1852 H 172.461 -2.25174 3.51215 0
M  V30 1853 H 171.091 -2.18876 2.37261 0
M  V30 1854 H 170.143 -0.232332 3.7969 0
M  V30 1855 H 171.455 -0.523343 4.96047 0
M  V30 1856 H 170.609 -2.84519 5.35849 0
M  V30 1857 H 169.348 -2.61992 4.11353 0
M  V30 1858 H 168.353 -0.740598 5.44789 0
M  V30 1859 H 169.578 -0.988732 6.71864 0
M  V30 1860 H 167.524 -3.04156 5.81227 0
M  V30 1861 H 167.441 -2.09734 7.26325 0
M  V30 1862 H 168.709 -3.27155 7.07524 0
M  V30 1863 N 172.938 -1.57226 0.108567 0
M  V30 1864 C 174.349 -1.8195 -0.418464 0
M  V30 1865 C 174.7 -1.02508 -1.67292 0
M  V30 1866 O 173.825 -0.258496 -2.14851 0
M  V30 1867 C 174.42 -3.30028 -0.765979 0
M  V30 1868 C 172.979 -3.55469 -1.23769 0
M  V30 1869 C 172.126 -2.7625 -0.241106 0
M  V30 1870 H 175.077 -1.55149 0.33384 0
M  V30 1871 H 175.098 -3.44086 -1.62434 0
M  V30 1872 H 174.61 -3.87821 0.147219 0
M  V30 1873 H 172.711 -3.03022 -2.16814 0
M  V30 1874 H 172.824 -4.6408 -1.19022 0
M  V30 1875 H 171.188 -2.44133 -0.72602 0
M  V30 1876 H 171.971 -3.36797 0.665007 0
M  V30 1877 N 174.416 0.165178 -1.56732 0
M  V30 1878 C 175.644 0.896218 -1.86482 0
M  V30 1879 C 176.059 1.75555 -0.694675 0
M  V30 1880 O 175.416 1.79379 0.33607 0
M  V30 1881 C 175.467 1.76792 -3.1532 0
M  V30 1882 O 175.188 0.943239 -4.27825 0
M  V30 1883 C 176.689 2.6081 -3.58459 0
M  V30 1884 H 173.909 0.260064 -0.618553 0
M  V30 1885 H 176.453 0.163428 -2.03846 0
M  V30 1886 H 174.608 2.45398 -2.99764 0
M  V30 1887 H 175.022 1.53998 -5.01383 0
M  V30 1888 H 176.496 3.17579 -4.51495 0
M  V30 1889 H 176.973 3.35977 -2.82872 0
M  V30 1890 H 177.579 1.97526 -3.76648 0
M  V30 1891 N 175.894 1.51508 0.433938 0
M  V30 1892 C 177.141 1.64345 1.18309 0
M  V30 1893 C 177.469 0.361315 1.91115 0
M  V30 1894 O 176.724 -0.654753 1.84422 0
M  V30 1895 C 177.023 2.79928 2.22205 0
M  V30 1896 C 176.689 4.19078 1.66387 0
M  V30 1897 C 175.351 4.56932 1.50887 0
M  V30 1898 C 177.703 5.05894 1.25381 0
M  V30 1899 C 175.031 5.79305 0.928608 0
M  V30 1900 C 177.383 6.2885 0.687823 0
M  V30 1901 C 176.047 6.65473 0.519755 0
M  V30 1902 H 175.317 0.601381 0.432923 0
M  V30 1903 H 177.964 1.85549 0.473676 0
M  V30 1904 H 176.269 2.52959 2.99197 0
M  V30 1905 H 177.966 2.87059 2.79997 0
M  V30 1906 H 174.556 3.89234 1.79428 0
M  V30 1907 H 178.74 4.77253 1.36175 0
M  V30 1908 H 173.996 6.06324 0.786186 0
M  V30 1909 H 178.17 6.95461 0.361581 0
M  V30 1910 H 175.797 7.6017 0.0679979 0
M  V30 1911 N 177.372 -0.689602 1.41712 0
M  V30 1912 C 178.6 -1.47827 1.44758 0
M  V30 1913 C 179.015 -1.88721 0.0545703 0
M  V30 1914 O 178.372 -1.57176 -0.927463 0
M  V30 1915 C 178.423 -2.73698 2.3616 0
M  V30 1916 O 178.144 -2.34524 3.7004 0
M  V30 1917 C 179.645 -3.67389 2.48072 0
M  V30 1918 H 176.865 -0.455357 0.49284 0
M  V30 1919 H 179.409 -0.848574 1.86063 0
M  V30 1920 H 177.564 -3.32891 1.98148 0
M  V30 1921 H 177.978 -3.15701 4.18847 0
M  V30 1922 H 179.452 -4.52475 3.16181 0
M  V30 1923 H 179.929 -4.12284 1.51388 0
M  V30 1924 H 180.535 -3.14097 2.86746 0
M  V30 1925 N 178.85 -1.27639 -0.924453 0
M  V30 1926 C 179.78 -1.13166 -2.04244 0
M  V30 1927 C 180.761 -0.032256 -1.70069 0
M  V30 1928 O 181.946 -0.207328 -1.9309 0
M  V30 1929 C 179.076 -0.781496 -3.38393 0
M  V30 1930 C 178.03 -1.83449 -3.86692 0
M  V30 1931 C 177.356 -1.33822 -5.17683 0
M  V30 1932 C 178.656 -3.23917 -4.09726 0
M  V30 1933 H 180.35 -2.06689 -2.1661 0
M  V30 1934 H 177.896 -0.995136 -1.04082 0
M  V30 1935 H 179.849 -0.667057 -4.16087 0
M  V30 1936 H 178.573 0.189439 -3.2605 0
M  V30 1937 H 177.232 -1.93789 -3.11193 0
M  V30 1938 H 176.88 -0.35665 -5.01734 0
M  V30 1939 H 176.58 -2.04224 -5.50968 0
M  V30 1940 H 178.104 -1.23679 -5.97943 0
M  V30 1941 H 179.518 -3.16559 -4.77978 0
M  V30 1942 H 177.915 -3.92059 -4.54324 0
M  V30 1943 H 178.985 -3.68729 -3.14908 0
M  V30 1944 N 180.328 1.1314 -1.09713 0
M  V30 1945 C 181.238 2.22242 -0.751367 0
M  V30 1946 C 182.254 1.72224 0.247938 0
M  V30 1947 O 183.43 2.01205 0.0885463 0
M  V30 1948 C 180.495 3.46231 -0.180274 0
M  V30 1949 C 179.556 4.11125 -1.2359 0
M  V30 1950 C 178.789 5.29195 -0.691966 0
M  V30 1951 O 179.012 5.68342 0.48414 0
M  V30 1952 O 177.946 5.84214 -1.44838 0
M  V30 1953 H 181.772 2.54197 -1.66186 0
M  V30 1954 H 179.357 1.21331 -0.871735 0
M  V30 1955 H 181.239 4.21185 0.134739 0
M  V30 1956 H 179.914 3.1597 0.703185 0
M  V30 1957 H 178.821 3.37985 -1.60366 0
M  V30 1958 H 180.154 4.45524 -2.09211 0
M  V30 1959 N 181.806 0.884767 1.30421 0
M  V30 1960 C 183.031 0.517288 2.00845 0
M  V30 1961 C 183.456 -0.886779 1.65885 0
M  V30 1962 O 182.814 -1.58768 0.875354 0
M  V30 1963 C 182.862 0.698994 3.5376 0
M  V30 1964 O 181.966 -0.255208 4.1161 0
M  V30 1965 H 181.307 0.203872 0.631927 0
M  V30 1966 H 183.837 1.19225 1.66272 0
M  V30 1967 H 183.847 0.597912 4.03595 0
M  V30 1968 H 182.522 1.72271 3.78544 0
M  V30 1969 H 181.099 -0.10784 3.72744 0
M  V30 1970 N 183.284 -1.43765 0.645699 0
M  V30 1971 C 184.695 -1.85193 0.236719 0
M  V30 1972 C 185.046 -1.54045 -1.21509 0
M  V30 1973 O 184.171 -0.985694 -1.92647 0
M  V30 1974 C 184.766 -3.36151 0.422845 0
M  V30 1975 C 183.325 -3.76338 0.0682492 0
M  V30 1976 C 182.472 -2.67538 0.729306 0
M  V30 1977 H 185.423 -1.34025 0.849883 0
M  V30 1978 H 185.444 -3.79032 -0.333904 0
M  V30 1979 H 184.956 -3.5879 1.47958 0
M  V30 1980 H 183.057 -3.59312 -0.986179 0
M  V30 1981 H 183.17 -4.76603 0.488469 0
M  V30 1982 H 181.534 -2.54176 0.163235 0
M  V30 1983 H 182.317 -2.93006 1.78892 0
M  V30 1984 N 184.763 -0.387143 -1.52771 0
M  V30 1985 C 186.174 0.0873634 -1.86495 0
M  V30 1986 C 186.525 1.46336 -1.30691 0
M  V30 1987 O 185.65 2.068 -0.637409 0
M  V30 1988 C 186.245 0.165305 -3.38396 0
M  V30 1989 C 184.804 0.584101 -3.7184 0
M  V30 1990 C 183.951 -0.255279 -2.76122 0
M  V30 1991 H 186.902 -0.605104 -1.46711 0
M  V30 1992 H 186.923 0.984848 -3.67534 0
M  V30 1993 H 186.435 -0.836301 -3.78982 0
M  V30 1994 H 184.536 1.59315 -3.36823 0
M  V30 1995 H 184.649 0.343749 -4.77865 0
M  V30 1996 H 183.013 0.279126 -2.53166 0
M  V30 1997 H 183.796 -1.25482 -3.19545 0
M  V30 1998 N 186.241 1.57166 -0.116904 0
M  V30 1999 C 187.518 1.86645 0.585049 0
M  V30 2000 C 187.898 1.0177 1.84949 0
M  V30 2001 O 187.246 0.0960379 2.28298 0
M  V30 2002 C 187.456 3.37736 0.879507 0
M  V30 2003 C 188.804 4.06289 1.23348 0
M  V30 2004 O 189.828 3.42743 0.969836 0
M  V30 2005 O 188.687 5.18455 1.7282 0
M  V30 2006 H 185.781 0.772593 0.295007 0
M  V30 2007 H 188.327 1.69025 -0.151249 0
M  V30 2008 H 187.099 3.91296 -0.0166136 0
M  V30 2009 H 186.722 3.6078 1.67103 0
M  V30 2010 N 187.719 -0.156864 1.56817 0
M  V30 2011 C 188.968 -0.869504 1.81996 0
M  V30 2012 C 189.281 -1.82777 0.696545 0
M  V30 2013 O 190.487 -2.58384 0.833658 0
M  V30 2014 C 188.943 -1.59679 3.22538 0
M  V30 2015 C 188.551 -0.681431 4.42787 0
M  V30 2016 C 190.295 -2.2968 3.56997 0
M  V30 2017 C 188.202 -1.40978 5.74351 0
M  V30 2018 H 187.132 -0.328438 0.678708 0
M  V30 2019 H 189.783 -0.1223 1.83092 0
M  V30 2020 H 188.165 -2.38927 3.158 0
M  V30 2021 H 189.339 0.0751166 4.60739 0
M  V30 2022 H 187.654 -0.0903431 4.16302 0
M  V30 2023 H 190.251 -2.84794 4.52544 0
M  V30 2024 H 190.594 -3.05707 2.82576 0
M  V30 2025 H 191.127 -1.57361 3.65352 0
M  V30 2026 H 187.866 -0.691561 6.51842 0
M  V30 2027 H 187.386 -2.13929 5.60352 0
M  V30 2028 H 189.065 -1.95337 6.16808 0
M  V30 2029 N 189.197 -1.51736 -0.425897 0
M  V30 2030 C 190.474 -1.55519 -1.1863 0
M  V30 2031 C 190.854 -0.326219 -2.08564 0
M  V30 2032 O 190.202 0.688012 -2.17896 0
M  V30 2033 C 190.412 -2.87521 -1.9782 0
M  V30 2034 C 191.76 -3.39899 -2.54468 0
M  V30 2035 O 192.784 -2.89148 -2.08019 0
M  V30 2036 O 191.643 -4.2848 -3.39215 0
M  V30 2037 H 188.737 -0.625739 -0.540721 0
M  V30 2038 H 191.283 -1.64055 -0.434038 0
M  V30 2039 H 190.055 -3.68422 -1.31836 0
M  V30 2040 H 189.678 -2.822 -2.80088 0
M  V30 2041 N 190.675 0.682077 -1.42076 0
M  V30 2042 C 191.625 1.78823 -1.41444 0
M  V30 2043 C 192.609 1.58323 -0.28681 0
M  V30 2044 O 193.801 1.68926 -0.528498 0
M  V30 2045 C 190.93 3.17232 -1.3122 0
M  V30 2046 C 190.016 3.4338 -2.489 0
M  V30 2047 N 190.407 3.40152 -3.7434 0
M  V30 2048 C 188.705 3.73986 -2.43003 0
M  V30 2049 C 189.406 3.65581 -4.52466 0
M  V30 2050 N 188.382 3.85989 -3.8277 0
M  V30 2051 H 192.184 1.7471 -2.36334 0
M  V30 2052 H 189.698 0.882622 -1.36321 0
M  V30 2053 H 191.695 3.96489 -1.2885 0
M  V30 2054 H 190.355 3.22547 -0.373263 0
M  V30 2055 H 191.366 3.20221 -4.07037 0
M  V30 2056 H 188.043 3.86591 -1.57651 0
M  V30 2057 H 189.433 3.69108 -5.61435 0
M  V30 2058 N 192.153 1.28127 0.917671 0
M  V30 2059 C 193.381 1.17892 1.70026 0
M  V30 2060 C 193.796 -0.262958 1.8696 0
M  V30 2061 O 193.153 -1.17811 1.3938 0
M  V30 2062 C 193.204 1.86872 3.09453 0
M  V30 2063 O 192.925 3.25428 2.93306 0
M  V30 2064 C 194.426 1.8289 4.03815 0
M  V30 2065 H 191.646 0.40942 0.531617 0
M  V30 2066 H 194.19 1.69181 1.14883 0
M  V30 2067 H 192.345 1.39464 3.61426 0
M  V30 2068 H 192.759 3.59918 3.81523 0
M  V30 2069 H 194.233 2.35751 4.99125 0
M  V30 2070 H 194.71 0.800412 4.31845 0
M  V30 2071 H 195.316 2.29959 3.57769 0
M  V30 2072 N 193.631 -1.12557 1.10312 0
M  V30 2073 C 194.579 -2.20325 0.745629 0
M  V30 2074 C 195.573 -1.67429 -0.25763 0
M  V30 2075 O 196.779 -1.79612 -0.118132 0
M  V30 2076 H 193.154 -0.718118 0.223182 0
M  V30 2077 H 195.125 -2.47733 1.66346 0
M  V30 2078 C 193.874 -3.47168 0.192262 0
M  V30 2079 H 193.197 -3.88215 0.955475 0
M  V30 2080 H 194.637 -4.23995 -0.0198274 0
M  V30 2081 C 193.096 -3.19298 -1.07472 0
M  V30 2082 O 193.626 -3.3891 -2.15645 0
M  V30 2083 N 191.832 -2.73113 -0.992847 0
M  V30 2084 H 191.379 -2.57354 -0.112474 0
M  V30 2085 H 191.337 -2.54842 -1.84127 0
M  V30 2086 N 195.109 -0.891671 -1.2995 0
M  V30 2087 C 196.358 -0.509521 -1.95158 0
M  V30 2088 C 196.671 0.947388 -1.71125 0
M  V30 2089 O 197.877 1.43669 -2.30372 0
M  V30 2090 C 196.333 -0.860315 -3.49466 0
M  V30 2091 C 195.941 -2.33545 -3.8231 0
M  V30 2092 C 197.685 -0.547687 -4.20952 0
M  V30 2093 C 195.592 -2.62752 -5.29826 0
M  V30 2094 H 194.522 -0.18682 -0.730489 0
M  V30 2095 H 197.173 -1.08756 -1.47798 0
M  V30 2096 H 195.555 -0.211285 -3.95436 0
M  V30 2097 H 196.729 -3.02936 -3.47227 0
M  V30 2098 H 195.044 -2.61629 -3.23944 0
M  V30 2099 H 197.641 -0.742854 -5.29515 0
M  V30 2100 H 197.984 0.51332 -4.13123 0
M  V30 2101 H 198.517 -1.1542 -3.80688 0
M  V30 2102 H 195.256 -3.6762 -5.42712 0
M  V30 2103 H 194.776 -1.97977 -5.66185 0
M  V30 2104 H 196.455 -2.48601 -5.97333 0
M  V30 2105 N 196.587 1.43421 -0.653314 0
M  V30 2106 C 197.517 2.33487 0.0246656 0
M  V30 2107 C 198.498 1.49475 0.811863 0
M  V30 2108 O 199.683 1.78139 0.773322 0
M  V30 2109 C 196.813 3.32841 0.99166 0
M  V30 2110 C 195.767 4.26842 0.314568 0
M  V30 2111 C 195.093 5.16236 1.39302 0
M  V30 2112 C 196.393 5.16243 -0.793095 0
M  V30 2113 H 198.087 2.90427 -0.727481 0
M  V30 2114 H 195.633 1.39649 -0.351287 0
M  V30 2115 H 197.586 3.94747 1.47487 0
M  V30 2116 H 196.31 2.74158 1.77497 0
M  V30 2117 H 194.969 3.663 -0.148199 0
M  V30 2118 H 194.617 4.53891 2.16776 0
M  V30 2119 H 194.317 5.79948 0.945223 0
M  V30 2120 H 195.841 5.81015 1.87759 0
M  V30 2121 H 197.255 5.71958 -0.392039 0
M  V30 2122 H 195.652 5.88676 -1.16536 0
M  V30 2123 H 196.722 4.55927 -1.65103 0
M  V30 2124 N 198.065 0.39524 1.52563 0
M  V30 2125 C 199.313 -0.184678 2.01254 0
M  V30 2126 C 199.634 -1.46822 1.28329 0
M  V30 2127 O 198.904 -1.91666 0.405094 0
M  V30 2128 H 197.484 -0.0712355 0.743596 0
M  V30 2129 H 200.146 0.528293 1.87603 0
M  V30 2130 H 199.242 -0.390681 3.09645 0
M  V30 2131 N 199.544 -1.57102 0.125237 0
M  V30 2132 C 200.791 -1.95407 -0.531248 0
M  V30 2133 C 201.119 -1.0089 -1.66287 0
M  V30 2134 O 200.374 -0.0339431 -1.95671 0
M  V30 2135 C 200.673 -3.40096 -1.09862 0
M  V30 2136 C 200.339 -4.50815 -0.0876989 0
M  V30 2137 C 199.001 -4.80824 0.19026 0
M  V30 2138 C 201.353 -5.17724 0.600902 0
M  V30 2139 C 198.681 -5.75058 1.163 0
M  V30 2140 C 201.033 -6.13005 1.56231 0
M  V30 2141 C 199.697 -6.41403 1.8482 0
M  V30 2142 H 198.967 -0.715046 -0.194397 0
M  V30 2143 H 201.614 -1.90373 0.207463 0
M  V30 2144 H 199.919 -3.41855 -1.91422 0
M  V30 2145 H 201.616 -3.6705 -1.61478 0
M  V30 2146 H 198.206 -4.27444 -0.314528 0
M  V30 2147 H 202.39 -4.94691 0.399333 0
M  V30 2148 H 197.646 -5.95362 1.39117 0
M  V30 2149 H 201.82 -6.63934 2.10153 0
M  V30 2150 H 199.447 -7.14229 2.60349 0
M  V30 2151 N 201.022 0.148545 -1.56898 0
M  V30 2152 C 201.97 1.20265 -1.99096 0
M  V30 2153 C 202.964 1.44559 -0.883123 0
M  V30 2154 O 204.17 1.4487 -1.0683 0
M  V30 2155 H 200.545 0.404786 -0.63376 0
M  V30 2156 H 202.516 0.82004 -2.86911 0
M  V30 2157 C 201.265 2.52886 -2.3863 0
M  V30 2158 H 200.588 2.35021 -3.23427 0
M  V30 2159 H 202.028 3.25274 -2.7198 0
M  V30 2160 C 200.487 3.13315 -1.23837 0
M  V30 2161 O 201.017 3.98077 -0.538268 0
M  V30 2162 N 199.223 2.72742 -1.00301 0
M  V30 2163 H 198.77 2.03912 -1.5741 0
M  V30 2164 H 198.728 3.13507 -0.236838 0
M  V30 2165 N 202.5 1.5196 0.417844 0
M  V30 2166 C 203.41 1.77554 1.53336 0
M  V30 2167 C 204.426 0.660655 1.6097 0
M  V30 2168 O 205.602 0.945099 1.77848 0
M  V30 2169 C 202.667 1.91291 2.89152 0
M  V30 2170 C 201.728 3.15183 2.91475 0
M  V30 2171 C 200.961 3.28256 4.20813 0
M  V30 2172 O 201.184 2.46798 5.14244 0
M  V30 2173 O 200.118 4.21356 4.29817 0
M  V30 2174 H 203.944 2.7222 1.34647 0
M  V30 2175 H 201.529 1.36698 0.602828 0
M  V30 2176 H 203.411 2.02199 3.69721 0
M  V30 2177 H 202.086 0.998129 3.07927 0
M  V30 2178 H 200.993 3.09739 2.09791 0
M  V30 2179 H 202.326 4.06414 2.77648 0
M  V30 2180 N 203.978 -0.674533 1.42435 0
M  V30 2181 C 204.925 -1.78807 1.45934 0
M  V30 2182 C 205.895 -1.63157 0.311271 0
M  V30 2183 O 207.08 -1.83707 0.515383 0
M  V30 2184 C 204.22 -3.16839 1.36773 0
M  V30 2185 C 203.333 -3.43774 2.61617 0
M  V30 2186 C 202.468 -4.71536 2.44597 0
M  V30 2187 C 201.507 -4.91505 3.64814 0
M  V30 2188 N 200.644 -6.10508 3.46734 0
M  V30 2189 H 205.484 -1.75151 2.41093 0
M  V30 2190 H 203.021 -0.85504 1.19697 0
M  V30 2191 H 204.979 -3.96606 1.29459 0
M  V30 2192 H 203.609 -3.19619 0.452089 0
M  V30 2193 H 202.661 -2.58259 2.79297 0
M  V30 2194 H 203.973 -3.54423 3.50978 0
M  V30 2195 H 203.127 -5.59393 2.3487 0
M  V30 2196 H 201.866 -4.6317 1.52726 0
M  V30 2197 H 200.871 -4.0209 3.74972 0
M  V30 2198 H 202.096 -5.01716 4.57665 0
M  V30 2199 H 200.042 -6.03315 2.5758 0
M  V30 2200 H 199.959 -6.2202 4.29682 0
M  V30 2201 H 201.227 -7.01044 3.40819 0
M  V30 2202 N 205.456 -1.28612 -0.910864 0
M  V30 2203 C 206.703 -1.15934 -1.66029 0
M  V30 2204 C 207.031 0.291483 -1.92303 0
M  V30 2205 O 206.286 1.22816 -1.52364 0
M  V30 2206 C 206.585 -1.90624 -3.0232 0
M  V30 2207 C 206.251 -3.40405 -2.95695 0
M  V30 2208 C 204.913 -3.81255 -2.93595 0
M  V30 2209 C 207.265 -4.359 -2.85728 0
M  V30 2210 C 204.593 -5.15936 -2.79334 0
M  V30 2211 C 206.945 -5.70657 -2.73007 0
M  V30 2212 C 205.609 -6.10779 -2.69267 0
M  V30 2213 H 204.879 -0.424234 -0.607541 0
M  V30 2214 H 207.526 -1.5942 -1.06101 0
M  V30 2215 H 205.831 -1.39696 -3.6605 0
M  V30 2216 H 207.528 -1.78228 -3.59215 0
M  V30 2217 H 204.118 -3.07927 -2.98125 0
M  V30 2218 H 208.302 -4.053 -2.86436 0
M  V30 2219 H 203.558 -5.46146 -2.74835 0
M  V30 2220 H 207.732 -6.44311 -2.64264 0
M  V30 2221 H 205.359 -7.1509 -2.57974 0
M  V30 2222 N 206.934 1.1197 -1.10907 0
M  V30 2223 C 207.867 2.16998 -0.706192 0
M  V30 2224 C 208.845 1.59903 0.294897 0
M  V30 2225 O 210.029 1.87513 0.192636 0
M  V30 2226 C 207.156 3.38673 -0.0427664 0
M  V30 2227 C 206.202 4.14414 -1.00811 0
M  V30 2228 S 207.035 4.72079 -2.52789 0
M  V30 2229 C 208.191 5.97083 -1.87731 0
M  V30 2230 H 208.424 2.50837 -1.59587 0
M  V30 2231 H 205.957 1.23508 -0.926555 0
M  V30 2232 H 207.915 4.09142 0.333668 0
M  V30 2233 H 206.576 3.03105 0.823788 0
M  V30 2234 H 205.769 5.016 -0.491259 0
M  V30 2235 H 205.371 3.49678 -1.3267 0
M  V30 2236 H 207.663 6.66599 -1.21044 0
M  V30 2237 H 208.606 6.53403 -2.72892 0
M  V30 2238 H 209.014 5.4837 -1.33979 0
M  V30 2239 N 208.412 0.89855 1.29475 0
M  V30 2240 C 209.64 0.539261 1.99749 0
M  V30 2241 C 210.055 -0.875716 1.67262 0
M  V30 2242 O 209.412 -1.57786 0.917049 0
M  V30 2243 C 209.463 0.72061 3.54245 0
M  V30 2244 O 209.184 2.07989 3.8558 0
M  V30 2245 C 210.685 0.366118 4.41786 0
M  V30 2246 H 207.905 0.207047 0.638258 0
M  V30 2247 H 210.449 1.20758 1.65039 0
M  V30 2248 H 208.604 0.0994862 3.87272 0
M  V30 2249 H 209.018 2.10841 4.80257 0
M  V30 2250 H 210.492 0.543848 5.49314 0
M  V30 2251 H 210.969 -0.696763 4.33638 0
M  V30 2252 H 211.575 0.964135 4.14228 0
M  V30 2253 N 209.89 -1.43072 0.660911 0
M  V30 2254 C 211.167 -1.95307 0.107017 0
M  V30 2255 C 211.547 -1.60192 -1.37484 0
M  V30 2256 O 210.895 -0.890949 -2.10415 0
M  V30 2257 C 211.105 -3.47124 0.361402 0
M  V30 2258 C 212.453 -4.23738 0.270455 0
M  V30 2259 O 213.477 -3.54981 0.294382 0
M  V30 2260 O 212.336 -5.46131 0.200737 0
M  V30 2261 H 209.43 -0.826984 -0.00517729 0
M  V30 2262 H 211.976 -1.52972 0.734681 0
M  V30 2263 H 210.748 -3.65837 1.38848 0
M  V30 2264 H 210.371 -3.96475 -0.298953 0
M  V30 2265 N 211.368 -0.403325 -1.52352 0
M  V30 2266 C 212.614 0.174605 -2.02047 0
M  V30 2267 C 212.947 1.45282 -1.28867 0
M  V30 2268 O 212.222 1.90483 -0.393257 0
M  V30 2269 C 212.505 0.428238 -3.57545 0
M  V30 2270 C 212.358 -0.866248 -4.4138 0
M  V30 2271 C 213.677 1.21287 -4.23057 0
M  V30 2272 H 210.796 0.0619851 -0.734389 0
M  V30 2273 H 213.438 -0.53565 -1.82293 0
M  V30 2274 H 211.588 1.03327 -3.74507 0
M  V30 2275 H 213.26 -1.50265 -4.3614 0
M  V30 2276 H 211.503 -1.47851 -4.07827 0
M  V30 2277 H 212.174 -0.643249 -5.48239 0
M  V30 2278 H 214.65 0.700703 -4.10158 0
M  V30 2279 H 213.526 1.35909 -5.31808 0
M  V30 2280 H 213.787 2.23193 -3.81625 0
M  V30 2281 N 212.846 1.57033 -0.133567 0
M  V30 2282 C 213.794 2.17348 0.828412 0
M  V30 2283 C 214.788 1.12671 1.26498 0
M  V30 2284 O 215.994 1.30947 1.23502 0
M  V30 2285 H 212.369 0.695775 0.285309 0
M  V30 2286 H 214.34 2.96935 0.295372 0
M  V30 2287 C 213.089 2.79893 2.06289 0
M  V30 2288 H 212.412 3.60147 1.73592 0
M  V30 2289 H 213.852 3.25615 2.71572 0
M  V30 2290 C 212.311 1.77713 2.86216 0
M  V30 2291 O 212.841 1.23937 3.82103 0
M  V30 2292 N 211.047 1.47321 2.50489 0
M  V30 2293 H 210.594 1.91243 1.7258 0
M  V30 2294 H 210.552 0.79199 3.04261 0
M  V30 2295 N 214.325 -0.140222 1.56975 0
M  V30 2296 C 215.741 -0.493088 1.51792 0
M  V30 2297 C 215.941 -1.83013 0.843116 0
M  V30 2298 O 214.997 -2.49041 0.416493 0
M  V30 2299 C 216.31 -0.497144 2.96562 0
M  V30 2300 C 217.858 -0.582186 3.07538 0
M  V30 2301 C 218.333 -0.616838 4.53827 0
M  V30 2302 N 219.824 -0.678873 4.58198 0
M  V30 2303 C 220.559 -0.726782 5.68775 0
M  V30 2304 N 220.055 -0.733623 6.88905 0
M  V30 2305 N 221.848 -0.768179 5.56826 0
M  V30 2306 H 213.999 0.736108 1.99237 0
M  V30 2307 H 216.262 0.269182 0.90898 0
M  V30 2308 H 215.968 0.417217 3.49217 0
M  V30 2309 H 215.842 -1.33263 3.52875 0
M  V30 2310 H 218.229 -1.48697 2.54899 0
M  V30 2311 H 218.31 0.280581 2.54257 0
M  V30 2312 H 217.954 0.283812 5.07106 0
M  V30 2313 H 217.884 -1.49619 5.04898 0
M  V30 2314 H 220.375 -0.68061 3.7172 0
M  V30 2315 H 220.688 -0.772215 7.68932 0
M  V30 2316 H 219.033 -0.701389 6.91452 0
M  V30 2317 H 222.224 -0.760051 4.61888 0
M  V30 2318 H 222.397 -0.80205 6.43017 0
M  V30 2319 N 215.803 -1.52179 -0.40978 0
M  V30 2320 C 217.033 -1.69807 -1.17682 0
M  V30 2321 C 217.441 -0.406908 -1.84773 0
M  V30 2322 O 216.784 0.626863 -1.72673 0
M  V30 2323 C 216.846 -2.77712 -2.2829 0
M  V30 2324 C 216.51 -4.19481 -1.81341 0
M  V30 2325 C 217.507 -5.03345 -1.30154 0
M  V30 2326 C 215.192 -4.65713 -1.88194 0
M  V30 2327 C 217.186 -6.31511 -0.864416 0
M  V30 2328 C 214.873 -5.93869 -1.44093 0
M  V30 2329 C 215.871 -6.76597 -0.933023 0
M  V30 2330 O 215.559 -8.02354 -0.49838 0
M  V30 2331 H 215.291 -0.572372 -0.359675 0
M  V30 2332 H 217.845 -1.99511 -0.488311 0
M  V30 2333 H 216.075 -2.43383 -3.00502 0
M  V30 2334 H 217.764 -2.83946 -2.90051 0
M  V30 2335 H 218.53 -4.68819 -1.24232 0
M  V30 2336 H 214.409 -4.01424 -2.26671 0
M  V30 2337 H 217.953 -6.96033 -0.467286 0
M  V30 2338 H 213.85 -6.27903 -1.49694 0
M  V30 2339 H 214.618 -8.16135 -0.621747 0
M  V30 2340 N 217.281 0.66697 -1.42791 0
M  V30 2341 C 218.697 0.981027 -1.25889 0
M  V30 2342 C 218.897 2.00793 -0.168695 0
M  V30 2343 O 217.953 2.48321 0.45747 0
M  V30 2344 C 219.266 1.47838 -2.61848 0
M  V30 2345 C 220.814 1.59575 -2.69267 0
M  V30 2346 C 221.289 2.12704 -4.05612 0
M  V30 2347 N 222.78 2.20026 -4.07606 0
M  V30 2348 C 223.515 2.62227 -5.09926 0
M  V30 2349 N 223.011 3.03824 -6.22626 0
M  V30 2350 N 224.804 2.62045 -4.97281 0
M  V30 2351 H 216.955 -0.0127891 -2.12396 0
M  V30 2352 H 219.218 0.0568258 -0.946295 0
M  V30 2353 H 218.924 0.798299 -3.4252 0
M  V30 2354 H 218.798 2.45579 -2.86305 0
M  V30 2355 H 221.185 2.26687 -1.88936 0
M  V30 2356 H 221.266 0.60302 -2.48591 0
M  V30 2357 H 220.91 1.46198 -4.86404 0
M  V30 2358 H 220.84 3.12782 -4.23645 0
M  V30 2359 H 223.331 1.90708 -3.2625 0
M  V30 2360 H 223.644 3.34734 -6.96544 0
M  V30 2361 H 221.989 3.01662 -6.26119 0
M  V30 2362 H 225.18 2.28916 -4.08308 0
M  V30 2363 H 225.353 2.94613 -5.77154 0
M  V30 2364 N 218.759 1.29093 0.90403 0
M  V30 2365 C 219.989 1.19516 1.68522 0
M  V30 2366 C 220.397 -0.24738 1.87576 0
M  V30 2367 O 219.74 -1.17798 1.40959 0
M  V30 2368 C 219.802 1.83249 3.0929 0
M  V30 2369 C 219.466 3.32531 3.13484 0
M  V30 2370 C 220.463 4.28821 2.93953 0
M  V30 2371 C 218.148 3.73656 3.35688 0
M  V30 2372 C 220.142 5.64212 2.96553 0
M  V30 2373 C 217.829 5.0917 3.37919 0
M  V30 2374 C 218.827 6.04258 3.18373 0
M  V30 2375 O 218.515 7.37298 3.20385 0
M  V30 2376 H 218.247 0.415467 0.533257 0
M  V30 2377 H 220.801 1.70912 1.13922 0
M  V30 2378 H 219.031 1.26358 3.65473 0
M  V30 2379 H 220.72 1.68054 3.69476 0
M  V30 2380 H 221.486 3.98382 2.76616 0
M  V30 2381 H 217.365 3.00101 3.49943 0
M  V30 2382 H 220.909 6.38407 2.81216 0
M  V30 2383 H 216.806 5.39256 3.54787 0
M  V30 2384 H 217.574 7.46048 3.36681 0
M  V30 2385 N 220.237 -1.11381 1.11499 0
M  V30 2386 C 221.462 -1.87475 0.887019 0
M  V30 2387 C 221.887 -1.79639 -0.557796 0
M  V30 2388 O 221.245 -1.15924 -1.39396 0
M  V30 2389 C 221.293 -3.34213 1.35403 0
M  V30 2390 O 220.397 -4.0903 0.526146 0
M  V30 2391 H 219.738 -0.582099 0.319463 0
M  V30 2392 H 222.268 -1.40785 1.48461 0
M  V30 2393 H 222.278 -3.8506 1.34881 0
M  V30 2394 H 220.953 -3.39232 2.40612 0
M  V30 2395 H 219.53 -3.68082 0.597522 0
M  V30 2396 N 221.715 -0.905404 -1.28997 0
M  V30 2397 C 222.663 -0.377431 -2.29517 0
M  V30 2398 C 223.657 0.526461 -1.61012 0
M  V30 2399 O 224.863 0.40863 -1.753 0
M  V30 2400 H 221.238 -0.103437 -0.744852 0
M  V30 2401 H 223.209 -1.23848 -2.71485 0
M  V30 2402 C 221.958 0.374833 -3.45674 0
M  V30 2403 H 221.281 -0.311474 -3.98585 0
M  V30 2404 H 222.721 0.70903 -4.1803 0
M  V30 2405 C 221.18 1.57963 -2.97572 0
M  V30 2406 O 221.71 2.67886 -2.99333 0
M  V30 2407 N 219.916 1.42375 -2.53333 0
M  V30 2408 H 219.463 0.529466 -2.521 0
M  V30 2409 H 219.421 2.23117 -2.21509 0
M  V30 2410 N 223.193 1.4272 -0.668489 0
M  V30 2411 C 224.141 2.32586 0.0254857 0
M  V30 2412 C 225.135 1.49471 0.797176 0
M  V30 2413 O 226.341 1.65583 0.705853 0
M  V30 2414 H 222.716 0.751514 0.0270339 0
M  V30 2415 H 224.687 2.88823 -0.749936 0
M  V30 2416 C 223.436 3.3397 0.967427 0
M  V30 2417 H 222.759 3.97961 0.383048 0
M  V30 2418 H 224.199 3.9945 1.42181 0
M  V30 2419 C 222.658 2.65744 2.0708 0
M  V30 2420 O 223.188 2.48454 3.15648 0
M  V30 2421 N 221.394 2.2487 1.8407 0
M  V30 2422 H 220.941 2.39132 0.95778 0
M  V30 2423 H 220.899 1.79552 2.58086 0
M  V30 2424 N 224.671 0.411399 1.52136 0
M  V30 2425 C 225.901 -0.16284 2.05957 0
M  V30 2426 C 226.309 -1.3922 1.28119 0
M  V30 2427 O 225.652 -1.80768 0.326881 0
M  V30 2428 C 225.714 -0.575946 3.54856 0
M  V30 2429 C 225.378 0.542998 4.53763 0
M  V30 2430 C 226.375 1.40726 5.00492 0
M  V30 2431 C 224.06 0.716337 4.97166 0
M  V30 2432 C 226.054 2.4298 5.8927 0
M  V30 2433 C 223.741 1.74218 5.8574 0
M  V30 2434 C 224.739 2.59731 6.31687 0
M  V30 2435 O 224.427 3.60558 7.18507 0
M  V30 2436 H 224.159 -0.0229125 0.675612 0
M  V30 2437 H 226.713 0.581634 1.96993 0
M  V30 2438 H 224.943 -1.37274 3.61515 0
M  V30 2439 H 226.632 -1.07836 3.91313 0
M  V30 2440 H 227.398 1.28476 4.67674 0
M  V30 2441 H 223.277 0.0603857 4.6096 0
M  V30 2442 H 226.821 3.0976 6.25055 0
M  V30 2443 H 222.718 1.86498 6.17971 0
M  V30 2444 H 223.486 3.56829 7.36624 0
M  V30 2445 N 226.149 -1.5696 0.141893 0
M  V30 2446 C 227.059 -2.20066 -0.812905 0
M  V30 2447 C 228.075 -1.18344 -1.27557 0
M  V30 2448 O 229.251 -1.50902 -1.33381 0
M  V30 2449 C 226.316 -2.80583 -2.03652 0
M  V30 2450 C 225.377 -3.97414 -1.62359 0
M  V30 2451 C 224.61 -4.55036 -2.78887 0
M  V30 2452 O 224.833 -4.11538 -3.94959 0
M  V30 2453 O 223.767 -5.45376 -2.54653 0
M  V30 2454 H 227.593 -3.02157 -0.305746 0
M  V30 2455 H 225.178 -1.49159 -0.0848799 0
M  V30 2456 H 227.06 -3.19067 -2.75272 0
M  V30 2457 H 225.735 -2.01508 -2.5333 0
M  V30 2458 H 224.642 -3.63656 -0.877775 0
M  V30 2459 H 225.975 -4.77994 -1.17401 0
M  V30 2460 N 227.627 0.131896 -1.57047 0
M  V30 2461 C 228.59 1.14638 -1.98471 0
M  V30 2462 C 229.59 1.35029 -0.873148 0
M  V30 2463 O 230.78 1.31764 -1.13946 0
M  V30 2464 C 227.912 2.50358 -2.31373 0
M  V30 2465 H 229.105 0.79064 -2.8929 0
M  V30 2466 H 226.658 0.375761 -1.51716 0
M  V30 2467 H 227.393 2.90876 -1.43393 0
M  V30 2468 H 227.178 2.36915 -3.12432 0
M  V30 2469 H 228.668 3.23395 -2.64207 0
M  V30 2470 N 229.106 1.52395 0.401703 0
M  V30 2471 C 230.355 1.66044 1.14509 0
M  V30 2472 C 230.668 0.400216 1.91462 0
M  V30 2473 O 231.874 0.416632 2.68284 0
M  V30 2474 C 230.33 2.93388 2.0845 0
M  V30 2475 C 229.938 4.26545 1.36978 0
M  V30 2476 C 231.682 3.16402 2.83001 0
M  V30 2477 C 229.589 5.45007 2.29611 0
M  V30 2478 H 228.519 0.618562 0.431158 0
M  V30 2479 H 231.17 1.78886 0.40892 0
M  V30 2480 H 229.552 2.74263 2.8565 0
M  V30 2481 H 230.726 4.56179 0.650916 0
M  V30 2482 H 229.041 4.09692 0.74438 0
M  V30 2483 H 231.638 4.02085 3.52465 0
M  V30 2484 H 231.981 2.30943 3.46368 0
M  V30 2485 H 232.514 3.36034 2.12898 0
M  V30 2486 H 229.253 6.32835 1.70879 0
M  V30 2487 H 228.773 5.19702 2.9945 0
M  V30 2488 H 230.452 5.7838 2.89974 0
M  V30 2489 N 230.584 -0.659388 1.43143 0
M  V30 2490 C 231.995 -1.24041 1.39537 0
M  V30 2491 C 232.346 -1.95963 0.0963364 0
M  V30 2492 O 231.471 -2.00892 -0.804438 0
M  V30 2493 C 232.066 -2.25601 2.52764 0
M  V30 2494 C 230.625 -2.79195 2.52443 0
M  V30 2495 C 229.772 -1.53743 2.30778 0
M  V30 2496 H 232.723 -0.451792 1.52133 0
M  V30 2497 H 232.744 -3.07651 2.23899 0
M  V30 2498 H 232.256 -1.73226 3.47296 0
M  V30 2499 H 230.357 -3.35649 1.61773 0
M  V30 2500 H 230.47 -3.2716 3.50004 0
M  V30 2501 H 228.834 -1.80869 1.79328 0
M  V30 2502 H 229.617 -1.03312 3.27386 0
M  V30 2503 N 232.062 -1.29571 -0.897171 0
M  V30 2504 C 233.012 -1.11539 -1.98855 0
M  V30 2505 C 233.996 -0.0340716 -1.60864 0
M  V30 2506 O 235.188 -0.256062 -1.75138 0
M  V30 2507 C 232.317 -0.796603 -3.3393 0
M  V30 2508 C 231.403 -1.91758 -3.78272 0
M  V30 2509 N 231.794 -3.16143 -3.94826 0
M  V30 2510 C 230.092 -1.81119 -4.07568 0
M  V30 2511 C 230.793 -3.89293 -4.32233 0
M  V30 2512 N 229.769 -3.17255 -4.41419 0
M  V30 2513 H 233.571 -2.05894 -2.09726 0
M  V30 2514 H 231.085 -1.20732 -1.08616 0
M  V30 2515 H 233.082 -0.648459 -4.11826 0
M  V30 2516 H 231.742 0.139003 -3.24402 0
M  V30 2517 H 232.753 -3.5157 -3.80288 0
M  V30 2518 H 229.43 -0.948461 -4.06584 0
M  V30 2519 H 230.82 -4.9635 -4.52865 0
M  V30 2520 N 233.54 1.10788 -1.12088 0
M  V30 2521 C 234.789 1.82036 -0.868659 0
M  V30 2522 C 235.102 1.85929 0.607426 0
M  V30 2523 O 236.308 2.53346 0.97613 0
M  V30 2524 C 234.764 3.26951 -1.50435 0
M  V30 2525 C 234.372 3.31367 -3.01496 0
M  V30 2526 C 236.116 4.03053 -1.33225 0
M  V30 2527 C 234.023 4.7072 -3.58017 0
M  V30 2528 H 232.953 0.682108 -0.321318 0
M  V30 2529 H 235.604 1.24618 -1.34694 0
M  V30 2530 H 233.986 3.84343 -0.953735 0
M  V30 2531 H 235.16 2.83819 -3.6302 0
M  V30 2532 H 233.475 2.6875 -3.18061 0
M  V30 2533 H 236.072 5.05981 -1.72878 0
M  V30 2534 H 236.415 4.15387 -0.275529 0
M  V30 2535 H 236.948 3.52066 -1.85188 0
M  V30 2536 H 233.687 4.63585 -4.63432 0
M  V30 2537 H 233.207 5.1865 -3.01268 0
M  V30 2538 H 234.886 5.39685 -3.56859 0
M  V30 2539 N 235.018 0.912232 1.28515 0
M  V30 2540 C 236.243 0.559774 1.99703 0
M  V30 2541 C 236.668 -0.851393 1.67729 0
M  V30 2542 O 236.026 -1.56875 0.908834 0
M  V30 2543 C 236.074 0.773874 3.52198 0
M  V30 2544 O 235.178 -0.167842 4.12058 0
M  V30 2545 H 234.519 0.21723 0.627461 0
M  V30 2546 H 237.049 1.22725 1.63706 0
M  V30 2547 H 237.059 0.683386 4.02236 0
M  V30 2548 H 235.734 1.80261 3.74805 0
M  V30 2549 H 234.311 -0.0287509 3.72889 0
M  V30 2550 N 236.496 -1.42363 0.676048 0
M  V30 2551 C 237.406 -2.346 -0.00153389 0
M  V30 2552 C 238.422 -1.5516 -0.787485 0
M  V30 2553 O 239.598 -1.87723 -0.729521 0
M  V30 2554 C 236.663 -3.33705 -0.940298 0
M  V30 2555 C 235.724 -4.29042 -0.148739 0
M  V30 2556 C 234.957 -5.23413 -1.04279 0
M  V30 2557 O 235.18 -5.22749 -2.28232 0
M  V30 2558 O 234.114 -5.99795 -0.502925 0
M  V30 2559 H 237.94 -2.94082 0.758268 0
M  V30 2560 H 235.525 -1.42888 0.436289 0
M  V30 2561 H 237.407 -3.94586 -1.47917 0
M  V30 2562 H 236.082 -2.76695 -1.67993 0
M  V30 2563 H 234.989 -3.71571 0.43427 0
M  V30 2564 H 236.322 -4.89097 0.551805 0
M  V30 2565 N 237.974 -0.419461 -1.51915 0
M  V30 2566 C 239.221 0.152939 -2.01922 0
M  V30 2567 C 239.549 1.4426 -1.30458 0
M  V30 2568 O 238.804 1.91514 -0.402593 0
M  V30 2569 C 239.103 0.437067 -3.54717 0
M  V30 2570 C 238.769 -0.764632 -4.44369 0
M  V30 2571 C 237.431 -1.09423 -4.68594 0
M  V30 2572 C 239.783 -1.56713 -4.97082 0
M  V30 2573 C 237.111 -2.22732 -5.42777 0
M  V30 2574 C 239.463 -2.69107 -5.72507 0
M  V30 2575 C 238.127 -3.02541 -5.95 0
M  V30 2576 H 237.397 0.0559644 -0.738884 0
M  V30 2577 H 240.044 -0.562998 -1.83037 0
M  V30 2578 H 238.349 1.23469 -3.71837 0
M  V30 2579 H 240.046 0.893083 -3.90928 0
M  V30 2580 H 236.636 -0.497775 -4.257 0
M  V30 2581 H 240.82 -1.32571 -4.78266 0
M  V30 2582 H 236.076 -2.48971 -5.58411 0
M  V30 2583 H 240.25 -3.31671 -6.12346 0
M  V30 2584 H 237.877 -3.90457 -6.52264 0
M  V30 2585 N 239.452 1.56882 -0.150215 0
M  V30 2586 C 240.4 2.18214 0.805313 0
M  V30 2587 C 241.394 1.14006 1.25296 0
M  V30 2588 O 242.6 1.3225 1.22107 0
M  V30 2589 H 238.975 0.698762 0.277913 0
M  V30 2590 H 240.946 2.97231 0.263862 0
M  V30 2591 C 239.695 2.82065 2.03309 0
M  V30 2592 H 239.018 3.61968 1.69763 0
M  V30 2593 H 240.458 3.28477 2.68103 0
M  V30 2594 C 238.917 1.80739 2.84315 0
M  V30 2595 O 239.447 1.27983 3.80767 0
M  V30 2596 N 237.653 1.4997 2.48913 0
M  V30 2597 H 237.2 1.93062 1.70542 0
M  V30 2598 H 237.158 0.824217 3.03404 0
M  V30 2599 N 240.93 -0.123565 1.57115 0
M  V30 2600 C 242.341 -0.681198 1.73829 0
M  V30 2601 C 242.692 -1.80535 0.768214 0
M  V30 2602 O 241.817 -2.16317 -0.0599103 0
M  V30 2603 C 242.412 -1.24246 3.15196 0
M  V30 2604 C 240.971 -1.74643 3.33432 0
M  V30 2605 C 240.118 -0.644284 2.69711 0
M  V30 2606 H 243.069 0.102315 1.5837 0
M  V30 2607 H 243.09 -2.11216 3.16493 0
M  V30 2608 H 242.602 -0.424062 3.85776 0
M  V30 2609 H 240.703 -2.58974 2.67886 0
M  V30 2610 H 240.816 -1.85902 4.41562 0
M  V30 2611 H 239.18 -1.07676 2.3082 0
M  V30 2612 H 239.963 0.163058 3.42913 0
M  V30 2613 N 242.408 -1.52605 -0.393616 0
M  V30 2614 C 243.338 -1.80022 -1.48709 0
M  V30 2615 C 244.319 -0.651995 -1.57108 0
M  V30 2616 O 245.504 -0.89913 -1.72132 0
M  V30 2617 C 242.634 -1.96492 -2.86371 0
M  V30 2618 C 241.588 -3.12161 -2.92813 0
M  V30 2619 C 240.914 -3.13877 -4.3288 0
M  V30 2620 C 242.214 -4.51322 -2.6288 0
M  V30 2621 H 243.908 -2.71589 -1.26015 0
M  V30 2622 H 241.454 -1.30684 -0.604778 0
M  V30 2623 H 243.407 -2.14255 -3.62867 0
M  V30 2624 H 242.131 -1.01611 -3.10391 0
M  V30 2625 H 240.79 -2.94173 -2.18764 0
M  V30 2626 H 240.438 -2.16687 -4.53933 0
M  V30 2627 H 240.138 -3.91576 -4.38112 0
M  V30 2628 H 241.662 -3.33789 -5.1129 0
M  V30 2629 H 243.076 -4.69435 -3.29096 0
M  V30 2630 H 241.473 -5.31053 -2.79468 0
M  V30 2631 H 242.543 -4.58353 -1.58242 0
M  V30 2632 N 243.887 0.651787 -1.4349 0
M  V30 2633 C 245.136 1.40754 -1.44469 0
M  V30 2634 C 245.449 1.95463 -0.0731845 0
M  V30 2635 O 246.655 2.71471 0.0395721 0
M  V30 2636 C 245.111 2.54735 -2.5424 0
M  V30 2637 C 244.719 2.06628 -3.97504 0
M  V30 2638 C 246.463 3.32092 -2.64414 0
M  V30 2639 C 244.37 3.17829 -4.98737 0
M  V30 2640 H 243.3 0.528862 -0.53742 0
M  V30 2641 H 245.951 0.703365 -1.69485 0
M  V30 2642 H 244.333 3.2763 -2.22428 0
M  V30 2643 H 245.507 1.40734 -4.38783 0
M  V30 2644 H 243.822 1.42146 -3.91387 0
M  V30 2645 H 246.419 4.14952 -3.37223 0
M  V30 2646 H 246.762 3.80217 -1.69532 0
M  V30 2647 H 247.295 2.66279 -2.95534 0
M  V30 2648 H 244.034 2.74671 -5.95177 0
M  V30 2649 H 243.554 3.82429 -4.62069 0
M  V30 2650 H 245.233 3.82937 -5.21505 0
M  V30 2651 N 245.365 1.30045 0.890287 0
M  V30 2652 C 246.611 1.18737 1.64406 0
M  V30 2653 C 246.944 -0.258525 1.92472 0
M  V30 2654 O 246.219 -1.18562 1.54186 0
M  V30 2655 C 246.502 2.01087 2.98724 0
M  V30 2656 C 246.355 3.53867 2.77665 0
M  V30 2657 C 247.674 1.84457 3.9958 0
M  V30 2658 H 244.793 0.432698 0.596608 0
M  V30 2659 H 247.435 1.5962 1.0306 0
M  V30 2660 H 245.585 1.66349 3.51084 0
M  V30 2661 H 247.257 3.98637 2.32133 0
M  V30 2662 H 245.5 3.78318 2.12269 0
M  V30 2663 H 246.171 4.06772 3.7315 0
M  V30 2664 H 248.647 2.14817 3.56361 0
M  V30 2665 H 247.523 2.44411 4.91482 0
M  V30 2666 H 247.784 0.802276 4.3476 0
M  V30 2667 N 246.843 -1.10192 1.12674 0
M  V30 2668 C 248.12 -1.78717 0.794965 0
M  V30 2669 C 248.5 -1.98628 -0.714853 0
M  V30 2670 O 247.848 -1.58135 -1.64941 0
M  V30 2671 C 248.058 -3.11546 1.5729 0
M  V30 2672 C 249.406 -3.86382 1.76052 0
M  V30 2673 O 250.43 -3.21274 1.53823 0
M  V30 2674 O 249.289 -5.03246 2.13087 0
M  V30 2675 H 246.383 -0.774702 0.289423 0
M  V30 2676 H 248.929 -1.16819 1.23091 0
M  V30 2677 H 247.701 -2.92489 2.59935 0
M  V30 2678 H 247.324 -3.81164 1.13137 0
M  V30 2679 N 248.321 -0.919034 -1.28029 0
M  V30 2680 C 249.268 -0.410005 -2.27129 0
M  V30 2681 C 250.238 0.518405 -1.57803 0
M  V30 2682 O 251.423 0.439451 -1.8567 0
M  V30 2683 C 248.563 0.339054 -3.4343 0
M  V30 2684 C 247.676 -0.622468 -4.27492 0
M  V30 2685 C 246.811 0.145567 -5.31001 0
M  V30 2686 C 245.85 -0.809226 -6.06727 0
M  V30 2687 N 244.987 -0.0743728 -7.02061 0
M  V30 2688 H 249.827 -1.26011 -2.70047 0
M  V30 2689 H 247.364 -0.632663 -1.328 0
M  V30 2690 H 249.322 0.789586 -4.0966 0
M  V30 2691 H 247.952 1.15346 -3.01488 0
M  V30 2692 H 247.004 -1.19153 -3.61257 0
M  V30 2693 H 248.316 -1.35252 -4.80113 0
M  V30 2694 H 247.47 0.656417 -6.03139 0
M  V30 2695 H 246.209 0.908643 -4.79161 0
M  V30 2696 H 245.214 -1.3314 -5.33436 0
M  V30 2697 H 246.439 -1.57194 -6.60656 0
M  V30 2698 H 244.385 0.670616 -6.52563 0
M  V30 2699 H 244.302 -0.744157 -7.52329 0
M  V30 2700 H 245.57 0.416109 -7.78389 0
M  V30 2701 N 249.799 1.42003 -0.683588 0
M  V30 2702 C 251.045 2.01712 -0.209825 0
M  V30 2703 C 251.378 1.53968 1.18353 0
M  V30 2704 O 250.653 0.745661 1.79639 0
M  V30 2705 C 250.936 3.59202 -0.254197 0
M  V30 2706 C 250.789 4.17102 -1.68363 0
M  V30 2707 C 252.108 4.38344 0.392709 0
M  V30 2708 H 249.227 0.732891 -0.0777189 0
M  V30 2709 H 251.869 1.68909 -0.87004 0
M  V30 2710 H 250.019 3.87278 0.307954 0
M  V30 2711 H 251.691 3.99946 -2.29871 0
M  V30 2712 H 249.934 3.72597 -2.22157 0
M  V30 2713 H 250.605 5.26249 -1.6663 0
M  V30 2714 H 253.081 4.16011 -0.0859162 0
M  V30 2715 H 251.957 5.47901 0.331063 0
M  V30 2716 H 252.218 4.16887 1.47164 0
M  V30 2717 N 251.277 0.427512 1.51691 0
M  V30 2718 C 252.207 -0.3796 2.30394 0
M  V30 2719 C 253.188 -1.02982 1.35384 0
M  V30 2720 O 254.373 -1.03534 1.643 0
M  V30 2721 C 251.503 -1.48649 3.1388 0
M  V30 2722 C 250.457 -0.960294 4.17088 0
M  V30 2723 C 249.783 -2.16219 4.89033 0
M  V30 2724 C 251.083 -0.00153679 5.223 0
M  V30 2725 H 252.777 0.277164 2.98114 0
M  V30 2726 H 250.323 0.134739 1.43368 0
M  V30 2727 H 252.276 -2.05826 3.67714 0
M  V30 2728 H 251 -2.1714 2.43962 0
M  V30 2729 H 249.659 -0.410806 3.64291 0
M  V30 2730 H 249.307 -2.83307 4.15628 0
M  V30 2731 H 249.007 -1.81654 5.58816 0
M  V30 2732 H 250.531 -2.73968 5.45687 0
M  V30 2733 H 251.945 -0.482687 5.71264 0
M  V30 2734 H 250.342 0.256199 5.99553 0
M  V30 2735 H 251.412 0.938174 4.75738 0
M  V30 2736 N 252.755 -1.56801 0.158532 0
M  V30 2737 C 254.002 -1.9649 -0.489679 0
M  V30 2738 C 254.33 -1.04394 -1.6411 0
M  V30 2739 O 253.585 -0.0754401 -1.95555 0
M  V30 2740 C 253.884 -3.4235 -1.02623 0
M  V30 2741 C 253.55 -4.50899 0.00794526 0
M  V30 2742 C 252.212 -4.80312 0.292207 0
M  V30 2743 C 254.564 -5.16333 0.710584 0
M  V30 2744 C 251.892 -5.72461 1.28472 0
M  V30 2745 C 254.244 -6.09553 1.69199 0
M  V30 2746 C 252.908 -6.37339 1.98383 0
M  V30 2747 H 252.178 -0.719009 -0.179186 0
M  V30 2748 H 254.825 -1.8989 0.247798 0
M  V30 2749 H 253.13 -3.45838 -1.84128 0
M  V30 2750 H 254.827 -3.70393 -1.53656 0
M  V30 2751 H 251.417 -4.28015 -0.22379 0
M  V30 2752 H 255.601 -4.93732 0.504174 0
M  V30 2753 H 250.857 -5.92278 1.51714 0
M  V30 2754 H 255.031 -6.59327 2.24189 0
M  V30 2755 H 252.658 -7.08546 2.7544 0
M  V30 2756 N 254.233 0.115231 -1.57178 0
M  V30 2757 C 255.51 0.852873 -1.76027 0
M  V30 2758 C 255.89 1.97892 -0.73498 0
M  V30 2759 O 255.238 2.27232 0.24036 0
M  V30 2760 C 255.448 1.36608 -3.21153 0
M  V30 2761 C 256.796 1.81692 -3.83762 0
M  V30 2762 O 257.82 1.46278 -3.24779 0
M  V30 2763 O 256.679 2.47104 -4.87444 0
M  V30 2764 H 253.773 0.405296 -0.720877 0
M  V30 2765 H 256.319 0.0986785 -1.69413 0
M  V30 2766 H 255.091 0.558357 -3.87296 0
M  V30 2767 H 254.714 2.18287 -3.3232 0
M  V30 2768 N 255.711 1.52812 0.385517 0
M  V30 2769 C 256.941 1.71658 1.14966 0
M  V30 2770 C 257.349 0.436253 1.84102 0
M  V30 2771 O 256.692 -0.599313 1.73649 0
M  V30 2772 C 256.754 2.81309 2.23843 0
M  V30 2773 C 256.418 4.22313 1.74644 0
M  V30 2774 C 257.415 5.05352 1.22129 0
M  V30 2775 C 255.1 4.68648 1.80761 0
M  V30 2776 C 257.094 6.32807 0.763838 0
M  V30 2777 C 254.781 5.96086 1.34627 0
M  V30 2778 C 255.779 6.77996 0.825264 0
M  V30 2779 O 255.467 8.03045 0.370669 0
M  V30 2780 H 255.199 0.578022 0.350523 0
M  V30 2781 H 257.753 2.00263 0.456509 0
M  V30 2782 H 255.983 2.48133 2.96592 0
M  V30 2783 H 257.672 2.88524 2.85497 0
M  V30 2784 H 258.438 4.70736 1.16758 0
M  V30 2785 H 254.317 4.04979 2.20256 0
M  V30 2786 H 257.861 6.96689 0.356494 0
M  V30 2787 H 253.758 6.30205 1.39686 0
M  V30 2788 H 254.526 8.17021 0.491829 0
M  V30 2789 N 257.189 -0.644168 1.43834 0
M  V30 2790 C 258.137 -1.77793 1.49974 0
M  V30 2791 C 259.131 -1.65253 0.372536 0
M  V30 2792 O 260.337 -1.7149 0.546924 0
M  V30 2793 H 256.712 -0.58675 0.47035 0
M  V30 2794 H 258.683 -1.69736 2.45423 0
M  V30 2795 C 257.432 -3.16087 1.4486 0
M  V30 2796 H 256.755 -3.26378 2.30905 0
M  V30 2797 H 258.195 -3.95349 1.53217 0
M  V30 2798 C 256.654 -3.36484 0.167463 0
M  V30 2799 O 257.184 -3.94298 -0.767609 0
M  V30 2800 N 255.39 -2.90504 0.0747556 0
M  V30 2801 H 254.937 -2.4364 0.836507 0
M  V30 2802 H 254.895 -3.04527 -0.781714 0
M  V30 2803 N 258.668 -1.30515 -0.883378 0
M  V30 2804 C 259.578 -1.18959 -2.02203 0
M  V30 2805 C 260.594 -0.109172 -1.73657 0
M  V30 2806 O 261.77 -0.324413 -1.9877 0
M  V30 2807 C 258.835 -0.883871 -3.35244 0
M  V30 2808 C 257.896 -2.04982 -3.77201 0
M  V30 2809 C 257.129 -1.75859 -5.03894 0
M  V30 2810 O 257.352 -0.687276 -5.66244 0
M  V30 2811 O 256.286 -2.61146 -5.42297 0
M  V30 2812 H 260.112 -2.14616 -2.1488 0
M  V30 2813 H 257.697 -1.10124 -1.0096 0
M  V30 2814 H 259.579 -0.728644 -4.15053 0
M  V30 2815 H 258.254 0.0427798 -3.23672 0
M  V30 2816 H 257.161 -2.26038 -2.9809 0
M  V30 2817 H 258.494 -2.95825 -3.93381 0
M  V30 2818 N 260.146 1.09593 -1.13257 0
M  V30 2819 C 261.093 2.1618 -0.808381 0
M  V30 2820 C 262.063 1.64517 0.228754 0
M  V30 2821 O 263.248 1.9053 0.101381 0
M  V30 2822 C 260.388 3.43973 -0.278675 0
M  V30 2823 C 259.501 4.09545 -1.37466 0
M  V30 2824 C 258.636 5.25088 -0.803479 0
M  V30 2825 C 257.675 5.82579 -1.87799 0
M  V30 2826 N 256.812 6.89486 -1.32488 0
M  V30 2827 H 261.652 2.43254 -1.72138 0
M  V30 2828 H 259.189 1.19392 -0.859294 0
M  V30 2829 H 261.147 4.17174 0.0465583 0
M  V30 2830 H 259.777 3.17223 0.597459 0
M  V30 2831 H 258.829 3.34226 -1.81652 0
M  V30 2832 H 260.141 4.48307 -2.18684 0
M  V30 2833 H 259.295 6.05178 -0.429427 0
M  V30 2834 H 258.034 4.87684 0.0397956 0
M  V30 2835 H 257.039 5.01152 -2.26113 0
M  V30 2836 H 258.264 6.22045 -2.72463 0
M  V30 2837 H 256.21 6.54064 -0.503575 0
M  V30 2838 H 256.127 7.27007 -2.07355 0
M  V30 2839 H 257.395 7.73336 -0.978336 0
M  V30 2840 N 261.624 0.925811 1.2754 0
M  V30 2841 C 262.87 0.566092 1.94739 0
M  V30 2842 C 263.203 -0.890057 1.72603 0
M  V30 2843 O 262.478 -1.63467 1.05399 0
M  V30 2844 C 262.761 0.89054 3.48915 0
M  V30 2845 C 262.614 2.4003 3.80402 0
M  V30 2846 C 263.933 0.395101 4.38323 0
M  V30 2847 H 261.052 0.20714 0.707292 0
M  V30 2848 H 263.694 1.15725 1.50691 0
M  V30 2849 H 261.844 0.387452 3.86563 0
M  V30 2850 H 263.516 2.97494 3.52555 0
M  V30 2851 H 261.759 2.85028 3.2702 0
M  V30 2852 H 262.43 2.57785 4.8811 0
M  V30 2853 H 264.906 0.826241 4.07814 0
M  V30 2854 H 263.782 0.651086 5.45025 0
M  V30 2855 H 264.043 -0.704798 4.36446 0
M  V30 2856 N 263.102 -1.41638 0.69111 0
M  V30 2857 C 264.379 -1.95036 0.148421 0
M  V30 2858 C 264.759 -1.63072 -1.34055 0
M  V30 2859 O 264.107 -0.93538 -2.08478 0
M  V30 2860 C 264.317 -3.46279 0.434951 0
M  V30 2861 C 265.665 -4.23069 0.360275 0
M  V30 2862 O 266.689 -3.54277 0.369613 0
M  V30 2863 O 265.548 -5.45583 0.316534 0
M  V30 2864 H 262.642 -0.826908 0.0123654 0
M  V30 2865 H 265.188 -1.5138 0.766963 0
M  V30 2866 H 263.96 -3.6281 1.46576 0
M  V30 2867 H 263.583 -3.97019 -0.214787 0
M  V30 2868 N 264.58 -0.43555 -1.51462 0
M  V30 2869 C 265.528 0.391205 -2.29287 0
M  V30 2870 C 266.522 1.02247 -1.35062 0
M  V30 2871 O 267.728 0.957646 -1.52411 0
M  V30 2872 H 264.103 0.144968 -0.737895 0
M  V30 2873 H 266.074 -0.286051 -2.97026 0
M  V30 2874 C 264.823 1.48096 -3.14583 0
M  V30 2875 H 264.146 1.00457 -3.86973 0
M  V30 2876 H 265.586 2.03273 -3.72097 0
M  V30 2877 C 264.045 2.46321 -2.29843 0
M  V30 2878 O 264.575 3.50815 -1.95682 0
M  V30 2879 N 262.781 2.17166 -1.931 0
M  V30 2880 H 262.328 1.32218 -2.21079 0
M  V30 2881 H 262.286 2.83127 -1.36698 0
M  V30 2882 N 266.058 1.56714 -0.166846 0
M  V30 2883 C 266.988 2.20754 0.760913 0
M  V30 2884 C 267.969 1.16178 1.24244 0
M  V30 2885 O 269.154 1.44592 1.29641 0
M  V30 2886 C 266.284 2.84478 1.99223 0
M  V30 2887 C 265.238 3.95053 1.64672 0
M  V30 2888 C 264.564 4.45805 2.95232 0
M  V30 2889 C 265.864 5.14865 0.878155 0
M  V30 2890 H 267.558 2.98537 0.22713 0
M  V30 2891 H 265.104 1.43596 0.107805 0
M  V30 2892 H 267.057 3.27951 2.64624 0
M  V30 2893 H 265.781 2.04056 2.55007 0
M  V30 2894 H 264.44 3.52228 1.01641 0
M  V30 2895 H 264.088 3.62181 3.49047 0
M  V30 2896 H 263.788 5.204 2.7287 0
M  V30 2897 H 265.312 4.91962 3.6167 0
M  V30 2898 H 266.726 5.55059 1.43466 0
M  V30 2899 H 265.123 5.95348 0.753738 0
M  V30 2900 H 266.193 4.84735 -0.126377 0
M  V30 2901 N 267.536 -0.106894 1.57237 0
M  V30 2902 C 268.784 -0.810921 1.85117 0
M  V30 2903 C 269.105 -1.7984 0.753827 0
M  V30 2904 O 268.375 -1.94649 -0.221056 0
M  V30 2905 H 266.955 -0.302466 0.683025 0
M  V30 2906 H 269.617 -0.0913324 1.94686 0
M  V30 2907 H 268.713 -1.34875 2.81452 0
M  V30 2908 N 269.014 -1.53014 -0.377408 0
M  V30 2909 C 270.43 -1.42523 -0.718281 0
M  V30 2910 C 270.63 -0.55487 -1.9371 0
M  V30 2911 O 269.686 -0.0327593 -2.52479 0
M  V30 2912 C 270.999 -2.85546 -0.942539 0
M  V30 2913 C 272.547 -2.95101 -1.04329 0
M  V30 2914 C 273.022 -4.3916 -1.3001 0
M  V30 2915 N 274.513 -4.42536 -1.36806 0
M  V30 2916 C 275.248 -5.51097 -1.58364 0
M  V30 2917 N 274.744 -6.69724 -1.77317 0
M  V30 2918 N 276.537 -5.38657 -1.60638 0
M  V30 2919 H 268.688 -2.08116 0.424426 0
M  V30 2920 H 270.951 -0.939352 0.127759 0
M  V30 2921 H 270.657 -3.51499 -0.118929 0
M  V30 2922 H 270.531 -3.28493 -1.85397 0
M  V30 2923 H 272.918 -2.29309 -1.85745 0
M  V30 2924 H 272.999 -2.55566 -0.109505 0
M  V30 2925 H 272.643 -5.05521 -0.490991 0
M  V30 2926 H 272.573 -4.76258 -2.24691 0
M  V30 2927 H 275.064 -3.57039 -1.23821 0
M  V30 2928 H 275.377 -7.48233 -1.93306 0
M  V30 2929 H 273.722 -6.72732 -1.74518 0
M  V30 2930 H 276.913 -4.44948 -1.45391 0
M  V30 2931 H 277.086 -6.2333 -1.77098 0
M  V30 2932 N 270.492 0.636531 -1.44174 0
M  V30 2933 C 271.717 1.42847 -1.50364 0
M  V30 2934 C 272.142 1.87665 -0.127867 0
M  V30 2935 O 271.5 1.58408 0.88185 0
M  V30 2936 C 271.548 2.62854 -2.4686 0
M  V30 2937 O 270.652 3.62501 -1.9664 0
M  V30 2938 H 269.993 0.427642 -0.507955 0
M  V30 2939 H 272.523 0.777422 -1.89255 0
M  V30 2940 H 272.533 3.10465 -2.64718 0
M  V30 2941 H 271.208 2.29578 -3.46795 0
M  V30 2942 H 269.785 3.21735 -1.88523 0
M  V30 2943 N 271.97 1.30982 0.876444 0
M  V30 2944 C 273.218 1.20058 1.62575 0
M  V30 2945 C 273.539 -0.242947 1.93481 0
M  V30 2946 O 272.809 -1.1619 1.57724 0
M  V30 2947 H 271.389 0.44135 0.602677 0
M  V30 2948 H 274.051 1.64222 1.04962 0
M  V30 2949 H 273.147 1.76762 2.57219 0
M  V30 2950 N 273.449 -1.08991 1.13837 0
M  V30 2951 C 274.697 -1.80899 0.901098 0
M  V30 2952 C 275.018 -1.86356 -0.574134 0
M  V30 2953 O 274.288 -1.35235 -1.41733 0
M  V30 2954 H 272.868 -0.669966 0.330386 0
M  V30 2955 H 275.53 -1.318 1.43578 0
M  V30 2956 H 274.626 -2.83929 1.29578 0
M  V30 2957 N 274.927 -0.932562 -1.27047 0
M  V30 2958 C 276.204 -0.49377 -1.89265 0
M  V30 2959 C 276.584 1.02833 -1.8436 0
M  V30 2960 O 275.932 1.88461 -1.29209 0
M  V30 2961 C 276.142 -1.04536 -3.32976 0
M  V30 2962 C 277.49 -1.10879 -4.09867 0
M  V30 2963 O 278.514 -0.995327 -3.42011 0
M  V30 2964 O 277.373 -1.28417 -5.31198 0
M  V30 2965 H 274.467 -0.159596 -0.811454 0
M  V30 2966 H 277.013 -1.02457 -1.3528 0
M  V30 2967 H 275.785 -2.08913 -3.30864 0
M  V30 2968 H 275.408 -0.496494 -3.94488 0
M  V30 2969 N 276.405 1.4127 -0.698611 0
M  V30 2970 C 277.654 2.00408 -0.227949 0
M  V30 2971 C 277.967 1.55981 1.18023 0
M  V30 2972 O 279.173 2.07699 1.74852 0
M  V30 2973 C 277.629 3.58129 -0.356636 0
M  V30 2974 C 277.237 4.11536 -1.77037 0
M  V30 2975 C 278.981 4.24466 0.0540969 0
M  V30 2976 C 276.888 5.61701 -1.85055 0
M  V30 2977 H 275.818 0.749586 -0.0814657 0
M  V30 2978 H 278.469 1.61713 -0.867249 0
M  V30 2979 H 276.851 3.94442 0.350965 0
M  V30 2980 H 278.025 3.86636 -2.50698 0
M  V30 2981 H 276.34 3.57736 -2.13105 0
M  V30 2982 H 278.937 5.34698 0.0146723 0
M  V30 2983 H 279.28 4.01687 1.09332 0
M  V30 2984 H 279.813 3.93198 -0.603337 0
M  V30 2985 H 276.552 5.89312 -2.8704 0
M  V30 2986 H 276.072 5.88519 -1.15783 0
M  V30 2987 H 277.751 6.26524 -1.61484 0
M  V30 2988 N 277.883 0.443576 1.51229 0
M  V30 2989 C 279.132 -0.122332 2.01329 0
M  V30 2990 C 279.445 -1.43237 1.33201 0
M  V30 2991 O 280.651 -2.0816 1.74304 0
M  V30 2992 C 279.107 -0.268551 3.58897 0
M  V30 2993 C 278.715 1.03142 4.35965 0
M  V30 2994 C 280.459 -0.787894 4.17124 0
M  V30 2995 C 278.366 0.850504 5.85252 0
M  V30 2996 H 277.296 -0.0494929 0.752374 0
M  V30 2997 H 279.947 0.574289 1.74282 0
M  V30 2998 H 278.329 -1.02832 3.82415 0
M  V30 2999 H 279.503 1.80001 4.24189 0
M  V30 3000 H 277.818 1.47977 3.89219 0
M  V30 3001 H 280.415 -0.939841 5.26375 0
M  V30 3002 H 280.758 -1.77201 3.76703 0
M  V30 3003 H 281.291 -0.0862669 3.97706 0
M  V30 3004 H 278.03 1.80718 6.30096 0
M  V30 3005 H 277.55 0.121825 5.99676 0
M  V30 3006 H 279.229 0.506163 6.45017 0
M  V30 3007 N 279.361 -1.56624 0.175154 0
M  V30 3008 C 280.308 -2.18149 -0.753634 0
M  V30 3009 C 281.278 -1.12265 -1.22417 0
M  V30 3010 O 282.463 -1.40432 -1.29165 0
M  V30 3011 C 279.603 -2.82933 -1.97592 0
M  V30 3012 C 278.716 -4.03289 -1.5486 0
M  V30 3013 C 277.851 -4.55988 -2.72485 0
M  V30 3014 C 276.89 -5.68746 -2.26262 0
M  V30 3015 N 276.027 -6.15938 -3.36994 0
M  V30 3016 H 280.867 -2.9717 -0.222195 0
M  V30 3017 H 278.404 -1.46774 -0.0979422 0
M  V30 3018 H 280.362 -3.18653 -2.69288 0
M  V30 3019 H 278.992 -2.06509 -2.481 0
M  V30 3020 H 278.044 -3.73364 -0.728246 0
M  V30 3021 H 279.356 -4.849 -1.16933 0
M  V30 3022 H 278.51 -4.9391 -3.52332 0
M  V30 3023 H 277.249 -3.73443 -3.13674 0
M  V30 3024 H 276.254 -5.30372 -1.44863 0
M  V30 3025 H 277.479 -6.53095 -1.86127 0
M  V30 3026 H 275.425 -5.36321 -3.77751 0
M  V30 3027 H 275.342 -6.92548 -3.03172 0
M  V30 3028 H 276.61 -6.58511 -4.17114 0
M  V30 3029 N 280.839 0.0985539 -1.57292 0
M  V30 3030 C 281.786 1.11981 -2.01814 0
M  V30 3031 C 282.756 1.39999 -0.89384 0
M  V30 3032 O 283.941 1.5152 -1.15958 0
M  V30 3033 C 281.081 2.43577 -2.44467 0
M  V30 3034 C 280.194 2.2232 -3.70402 0
M  V30 3035 C 279.329 3.4729 -4.01949 0
M  V30 3036 C 278.368 3.2128 -5.21005 0
M  V30 3037 N 277.505 4.38507 -5.48321 0
M  V30 3038 H 282.345 0.733149 -2.88841 0
M  V30 3039 H 279.882 0.350482 -1.42864 0
M  V30 3040 H 281.84 3.20373 -2.6724 0
M  V30 3041 H 280.47 2.80097 -1.60455 0
M  V30 3042 H 279.522 1.36343 -3.55126 0
M  V30 3043 H 280.834 1.99089 -4.57345 0
M  V30 3044 H 279.988 4.32495 -4.25479 0
M  V30 3045 H 278.727 3.73572 -3.13521 0
M  V30 3046 H 277.732 2.34468 -4.97298 0
M  V30 3047 H 278.957 2.96348 -6.11028 0
M  V30 3048 H 276.903 4.64871 -4.62851 0
M  V30 3049 H 276.82 4.18455 -6.29628 0
M  V30 3050 H 278.088 5.24787 -5.76385 0
M  V30 3051 N 282.317 1.53212 0.369288 0
M  V30 3052 C 283.25 1.74166 1.4745 0
M  V30 3053 C 284.228 0.589923 1.51521 0
M  V30 3054 O 285.412 0.822078 1.69629 0
M  V30 3055 C 282.539 1.81711 2.8583 0
M  V30 3056 C 281.585 3.03649 2.99499 0
M  V30 3057 S 282.418 4.63242 2.6864 0
M  V30 3058 C 283.574 4.7363 4.09177 0
M  V30 3059 H 283.807 2.67636 1.29454 0
M  V30 3060 H 281.34 1.43754 0.563396 0
M  V30 3061 H 283.298 1.86743 3.65564 0
M  V30 3062 H 281.959 0.89299 3.01139 0
M  V30 3063 H 281.152 3.05526 4.00836 0
M  V30 3064 H 280.754 2.9671 2.27683 0
M  V30 3065 H 283.046 4.53456 5.03372 0
M  V30 3066 H 283.989 5.75682 4.12306 0
M  V30 3067 H 284.397 4.02295 3.96004 0
M  V30 3068 N 283.795 -0.628877 1.44509 0
M  V30 3069 C 284.727 -1.754 1.47538 0
M  V30 3070 C 285.74 -1.58575 0.368506 0
M  V30 3071 O 286.929 -1.66847 0.634376 0
M  V30 3072 C 284.029 -3.1315 1.29577 0
M  V30 3073 C 283.202 -3.56413 2.53551 0
M  V30 3074 C 282.261 -4.7305 2.30457 0
M  V30 3075 O 281.287 -4.81247 3.03957 0
M  V30 3076 N 282.489 -5.64903 1.3366 0
M  V30 3077 H 285.254 -1.73272 2.44534 0
M  V30 3078 H 282.815 -0.813512 1.39977 0
M  V30 3079 H 284.807 -3.88902 1.11971 0
M  V30 3080 H 283.377 -3.09908 0.409371 0
M  V30 3081 H 282.597 -2.70847 2.86419 0
M  V30 3082 H 283.885 -3.82071 3.36005 0
M  V30 3083 H 283.283 -5.60975 0.729604 0
M  V30 3084 H 281.84 -6.40275 1.22032 0
M  V30 3085 N 285.273 -1.31445 -0.869486 0
M  V30 3086 C 286.501 -1.24122 -1.65534 0
M  V30 3087 C 286.916 0.193387 -1.87807 0
M  V30 3088 O 286.273 1.12557 -1.43656 0
M  V30 3089 C 286.324 -1.98229 -3.02304 0
M  V30 3090 O 286.045 -3.3609 -2.81026 0
M  V30 3091 C 287.546 -1.97751 -3.96749 0
M  V30 3092 H 284.766 -0.428868 -0.516055 0
M  V30 3093 H 287.31 -1.73328 -1.08525 0
M  V30 3094 H 285.465 -1.52782 -3.56001 0
M  V30 3095 H 285.879 -3.7383 -3.67902 0
M  V30 3096 H 287.353 -2.54114 -4.90031 0
M  V30 3097 H 287.83 -0.960137 -4.28577 0
M  V30 3098 H 288.436 -2.43079 -3.48988 0
M  V30 3099 N 286.751 1.08385 -1.14413 0
M  V30 3100 C 287.681 2.17321 -0.854044 0
M  V30 3101 C 288.662 1.69024 0.191049 0
M  V30 3102 O 289.847 1.94141 0.0476779 0
M  V30 3103 C 286.977 3.45719 -0.330983 0
M  V30 3104 C 285.931 4.07409 -1.31155 0
M  V30 3105 C 285.257 5.30762 -0.64778 0
M  V30 3106 C 286.557 4.48665 -2.67388 0
M  V30 3107 H 288.251 2.41845 -1.76498 0
M  V30 3108 H 285.797 1.16233 -0.850051 0
M  V30 3109 H 287.75 4.21241 -0.115645 0
M  V30 3110 H 286.474 3.2075 0.615381 0
M  V30 3111 H 285.133 3.33919 -1.51306 0
M  V30 3112 H 284.781 5.02078 0.304398 0
M  V30 3113 H 284.481 5.72992 -1.30207 0
M  V30 3114 H 286.005 6.08998 -0.441972 0
M  V30 3115 H 287.419 5.15364 -2.51143 0
M  V30 3116 H 285.816 5.01814 -3.29093 0
M  V30 3117 H 286.886 3.60543 -3.24248 0
M  V30 3118 N 288.23 0.939286 1.26551 0
M  V30 3119 C 289.476 0.596234 1.94465 0
M  V30 3120 C 289.831 -0.855013 1.72358 0
M  V30 3121 O 289.124 -1.6034 1.04889 0
M  V30 3122 C 289.318 0.872106 3.46596 0
M  V30 3123 C 289.147 2.34862 3.83497 0
M  V30 3124 C 287.917 3.00344 4.06352 0
M  V30 3125 C 290.115 3.32697 3.92195 0
M  V30 3126 N 288.097 4.38027 4.30123 0
M  V30 3127 C 289.468 4.55631 4.20476 0
M  V30 3128 C 291.523 3.27747 3.74815 0
M  V30 3129 C 290.226 5.74233 4.33185 0
M  V30 3130 C 292.252 4.45672 3.88755 0
M  V30 3131 C 291.614 5.67388 4.17433 0
M  V30 3132 H 287.713 0.268515 0.734455 0
M  V30 3133 H 290.297 1.2083 1.5267 0
M  V30 3134 H 288.468 0.289102 3.87323 0
M  V30 3135 H 290.2 0.490513 4.01716 0
M  V30 3136 H 286.955 2.50969 4.01636 0
M  V30 3137 H 287.379 5.09288 4.46044 0
M  V30 3138 H 292.021 2.34703 3.51673 0
M  V30 3139 H 289.739 6.67731 4.55149 0
M  V30 3140 H 293.325 4.43372 3.76713 0
M  V30 3141 H 292.205 6.57115 4.27983 0
M  V30 3142 N 289.708 -1.40897 0.706093 0
M  V30 3143 C 290.985 -1.94868 0.169099 0
M  V30 3144 C 291.365 -1.64485 -1.32318 0
M  V30 3145 O 290.713 -0.95744 -2.07474 0
M  V30 3146 C 290.923 -3.45798 0.471654 0
M  V30 3147 C 292.271 -4.22663 0.405127 0
M  V30 3148 O 293.295 -3.53865 0.407168 0
M  V30 3149 O 292.154 -5.45216 0.374383 0
M  V30 3150 H 289.248 -0.82673 0.0211352 0
M  V30 3151 H 291.794 -1.50558 0.782976 0
M  V30 3152 H 290.566 -3.61235 1.50416 0
M  V30 3153 H 290.189 -3.97225 -0.172666 0
M  V30 3154 N 291.186 -0.45159 -1.50991 0
M  V30 3155 C 292.096 0.358431 -2.31846 0
M  V30 3156 C 293.112 1.01438 -1.41373 0
M  V30 3157 O 294.288 1.00663 -1.74439 0
M  V30 3158 C 291.353 1.43704 -3.15515 0
M  V30 3159 C 290.414 0.799742 -4.21785 0
M  V30 3160 C 289.647 1.82696 -5.01456 0
M  V30 3161 O 289.87 3.05105 -4.81941 0
M  V30 3162 O 288.804 1.40958 -5.85162 0
M  V30 3163 H 292.63 -0.302032 -3.02194 0
M  V30 3164 H 290.215 -0.213825 -1.47862 0
M  V30 3165 H 292.097 2.06227 -3.67489 0
M  V30 3166 H 290.772 2.08133 -2.47916 0
M  V30 3167 H 289.679 0.136084 -3.73852 0
M  V30 3168 H 291.012 0.198718 -4.91799 0
M  V30 3169 N 292.664 1.56529 -0.183458 0
M  V30 3170 C 293.913 1.96419 0.458511 0
M  V30 3171 C 294.226 1.0727 1.63562 0
M  V30 3172 O 295.432 1.36893 2.34462 0
M  V30 3173 C 293.888 3.49298 0.867122 0
M  V30 3174 C 293.496 4.47092 -0.285057 0
M  V30 3175 C 295.24 3.97983 1.47683 0
M  V30 3176 C 293.147 5.91225 0.143862 0
M  V30 3177 H 292.077 0.733394 0.175071 0
M  V30 3178 H 294.728 1.81448 -0.273624 0
M  V30 3179 H 293.11 3.59731 1.65559 0
M  V30 3180 H 294.284 4.48383 -1.0625 0
M  V30 3181 H 292.599 4.08535 -0.805503 0
M  V30 3182 H 295.196 5.03134 1.80999 0
M  V30 3183 H 295.539 3.41618 2.37914 0
M  V30 3184 H 296.072 3.90617 0.752562 0
M  V30 3185 H 292.811 6.5149 -0.723974 0
M  V30 3186 H 292.331 5.93214 0.886413 0
M  V30 3187 H 294.01 6.44362 0.583628 0
M  V30 3188 N 294.142 -0.090211 1.57342 0
M  V30 3189 C 295.075 -1.14035 1.97664 0
M  V30 3190 C 296.053 -1.38576 0.850616 0
M  V30 3191 O 297.237 -1.52255 1.11134 0
M  V30 3192 C 294.364 -2.48854 2.2976 0
M  V30 3193 C 293.41 -2.40564 3.52181 0
M  V30 3194 S 294.243 -1.81745 5.03715 0
M  V30 3195 C 295.399 -3.18178 5.38993 0
M  V30 3196 H 295.632 -0.796636 2.86428 0
M  V30 3197 H 293.165 -0.298072 1.51496 0
M  V30 3198 H 295.123 -3.26413 2.48927 0
M  V30 3199 H 293.784 -2.80393 1.41558 0
M  V30 3200 H 292.977 -3.39942 3.72096 0
M  V30 3201 H 292.579 -1.71135 3.32549 0
M  V30 3202 H 294.871 -4.14461 5.35937 0
M  V30 3203 H 295.814 -3.03062 6.39968 0
M  V30 3204 H 296.222 -3.17935 4.66452 0
M  V30 3205 N 295.62 -1.53406 -0.361157 0
M  V30 3206 C 296.897 -1.60411 -1.11927 0
M  V30 3207 C 297.277 -0.414385 -2.06993 0
M  V30 3208 O 296.625 0.594976 -2.20618 0
M  V30 3209 C 296.835 -2.95652 -1.85448 0
M  V30 3210 C 298.183 -3.50386 -2.39823 0
M  V30 3211 O 299.207 -2.97711 -1.95568 0
M  V30 3212 O 298.066 -4.42482 -3.20737 0
M  V30 3213 H 295.16 -0.64811 -0.513695 0
M  V30 3214 H 297.706 -1.65749 -0.364065 0
M  V30 3215 H 296.478 -3.73682 -1.16091 0
M  V30 3216 H 296.101 -2.93825 -2.67866 0
M  V30 3217 N 297.098 0.621204 -1.44841 0
M  V30 3218 C 298.347 1.37658 -1.47422 0
M  V30 3219 C 298.66 1.95264 -0.114629 0
M  V30 3220 O 299.866 2.71494 -0.0180199 0
M  V30 3221 C 298.322 2.49285 -2.59586 0
M  V30 3222 C 297.93 1.98149 -4.01797 0
M  V30 3223 C 299.674 3.26409 -2.71399 0
M  V30 3224 C 297.581 3.07178 -5.05367 0
M  V30 3225 H 296.511 0.517344 -0.548517 0
M  V30 3226 H 299.162 0.667257 -1.70938 0
M  V30 3227 H 297.544 3.22839 -2.29328 0
M  V30 3228 H 298.718 1.31395 -4.41669 0
M  V30 3229 H 297.033 1.33812 -3.94314 0
M  V30 3230 H 299.63 4.07706 -3.45948 0
M  V30 3231 H 299.973 3.76535 -1.77559 0
M  V30 3232 H 300.506 2.5995 -3.01116 0
M  V30 3233 H 297.245 2.61985 -6.00869 0
M  V30 3234 H 296.765 3.72542 -4.70077 0
M  V30 3235 H 298.444 3.71789 -5.29511 0
M  V30 3236 N 298.576 1.31904 0.862503 0
M  V30 3237 C 299.524 1.20125 1.9918 0
M  V30 3238 C 300.518 0.107824 1.69056 0
M  V30 3239 O 301.724 0.270223 1.7796 0
M  V30 3240 H 298.099 0.372148 0.65346 0
M  V30 3241 H 300.07 2.15652 2.06244 0
M  V30 3242 C 298.819 0.933099 3.34946 0
M  V30 3243 H 298.142 1.76664 3.5865 0
M  V30 3244 H 299.582 0.890892 4.14535 0
M  V30 3245 C 298.041 -0.364172 3.34926 0
M  V30 3246 O 298.571 -1.37858 3.77304 0
M  V30 3247 N 296.777 -0.383362 2.8806 0
M  V30 3248 H 296.324 0.442651 2.53768 0
M  V30 3249 H 296.282 -1.25123 2.8843 0
M  V30 3250 N 300.054 -1.07777 1.14986 0
M  V30 3251 C 301.001 -2.14867 0.842672 0
M  V30 3252 C 301.971 -1.6486 -0.202552 0
M  V30 3253 O 303.156 -1.90668 -0.0710568 0
M  V30 3254 C 300.296 -3.43486 0.333363 0
M  V30 3255 C 299.409 -4.07306 1.43965 0
M  V30 3256 C 298.544 -5.23744 0.886914 0
M  V30 3257 C 297.583 -5.79517 1.97043 0
M  V30 3258 N 296.72 -6.87291 1.4344 0
M  V30 3259 H 301.56 -2.40485 1.75986 0
M  V30 3260 H 299.097 -1.1801 0.878179 0
M  V30 3261 H 301.055 -4.17195 0.0198163 0
M  V30 3262 H 299.685 -3.18133 -0.546916 0
M  V30 3263 H 298.737 -3.31293 1.86946 0
M  V30 3264 H 300.049 -4.44771 2.25788 0
M  V30 3265 H 299.203 -6.04419 0.525651 0
M  V30 3266 H 297.942 -4.87685 0.0377957 0
M  V30 3267 H 296.947 -4.97491 2.34057 0
M  V30 3268 H 298.172 -6.17632 2.82325 0
M  V30 3269 H 296.118 -6.5318 0.607567 0
M  V30 3270 H 296.035 -7.23617 2.18895 0
M  V30 3271 H 297.303 -7.71682 1.10124 0
M  V30 3272 N 301.532 -0.945985 -1.26051 0
M  V30 3273 C 302.948 -0.649045 -1.45807 0
M  V30 3274 C 303.148 0.796158 -1.85104 0
M  V30 3275 O 302.204 1.57233 -1.97571 0
M  V30 3276 C 303.517 -1.61458 -2.53677 0
M  V30 3277 C 305.065 -1.62481 -2.67524 0
M  V30 3278 C 305.54 -2.57776 -3.7857 0
M  V30 3279 N 307.031 -2.5609 -3.85969 0
M  V30 3280 C 307.766 -3.26508 -4.7136 0
M  V30 3281 N 307.262 -4.0637 -5.61102 0
M  V30 3282 N 309.055 -3.15437 -4.65248 0
M  V30 3283 H 301.206 -1.88005 -0.988328 0
M  V30 3284 H 303.469 -0.808198 -0.4955 0
M  V30 3285 H 303.175 -2.64644 -2.31638 0
M  V30 3286 H 303.049 -1.37036 -3.51427 0
M  V30 3287 H 305.436 -0.600167 -2.88933 0
M  V30 3288 H 305.517 -1.90958 -1.70202 0
M  V30 3289 H 305.161 -3.60361 -3.57913 0
M  V30 3290 H 305.091 -2.26587 -4.75359 0
M  V30 3291 H 307.582 -1.98105 -3.21812 0
M  V30 3292 H 307.895 -4.57042 -6.23164 0
M  V30 3293 H 306.24 -4.10469 -5.60839 0
M  V30 3294 H 309.431 -2.52525 -3.94143 0
M  V30 3295 H 309.604 -3.70584 -5.31575 0
M  V30 3296 N 303.011 1.40521 -0.713556 0
M  V30 3297 C 303.958 2.30723 -0.059684 0
M  V30 3298 C 304.928 1.48079 0.752448 0
M  V30 3299 O 306.113 1.76823 0.71681 0
M  V30 3300 C 303.253 3.34274 0.857594 0
M  V30 3301 C 302.366 4.31986 0.0351536 0
M  V30 3302 C 301.501 5.22605 0.951724 0
M  V30 3303 C 300.54 6.11976 0.123253 0
M  V30 3304 N 299.677 6.9502 0.99459 0
M  V30 3305 H 304.517 2.86074 -0.834596 0
M  V30 3306 H 302.054 1.40879 -0.42326 0
M  V30 3307 H 304.012 3.92879 1.40364 0
M  V30 3308 H 302.642 2.8043 1.59871 0
M  V30 3309 H 301.694 3.7518 -0.628052 0
M  V30 3310 H 303.006 4.95101 -0.606347 0
M  V30 3311 H 302.16 5.86131 1.56638 0
M  V30 3312 H 300.899 4.59759 1.62705 0
M  V30 3313 H 299.904 5.47482 -0.50435 0
M  V30 3314 H 301.129 6.76881 -0.548539 0
M  V30 3315 H 299.075 6.34764 1.6556 0
M  V30 3316 H 298.992 7.54892 0.40908 0
M  V30 3317 H 300.26 7.62997 1.59549 0
M  V30 3318 N 304.489 0.459591 1.5075 0
M  V30 3319 C 305.719 -0.0972338 2.06371 0
M  V30 3320 C 306.127 -1.35074 1.32483 0
M  V30 3321 O 305.47 -1.79637 0.384226 0
M  V30 3322 C 305.532 -0.462759 3.56509 0
M  V30 3323 C 305.196 0.687084 4.51805 0
M  V30 3324 C 306.193 1.56578 4.95761 0
M  V30 3325 C 303.878 0.874144 4.94635 0
M  V30 3326 C 305.872 2.61604 5.81242 0
M  V30 3327 C 303.559 1.92765 5.79901 0
M  V30 3328 C 304.557 2.79697 6.23104 0
M  V30 3329 O 304.245 3.83235 7.06673 0
M  V30 3330 H 303.977 -0.00140687 0.675999 0
M  V30 3331 H 306.531 0.644011 1.95043 0
M  V30 3332 H 304.761 -1.25703 3.65699 0
M  V30 3333 H 306.45 -0.953323 3.94546 0
M  V30 3334 H 307.216 1.4329 4.6335 0
M  V30 3335 H 303.095 0.207006 4.60535 0
M  V30 3336 H 306.639 3.29489 6.14884 0
M  V30 3337 H 302.536 2.06064 6.11725 0
M  V30 3338 H 303.304 3.80084 7.24899 0
M  V30 3339 N 305.967 -1.56429 0.191757 0
M  V30 3340 C 307.244 -1.89224 -0.495332 0
M  V30 3341 C 307.624 -1.10478 -1.79883 0
M  V30 3342 O 306.972 -0.204852 -2.2758 0
M  V30 3343 C 307.182 -3.41548 -0.717367 0
M  V30 3344 C 308.53 -4.11711 -1.03823 0
M  V30 3345 O 309.554 -3.4698 -0.805204 0
M  V30 3346 O 308.413 -5.2611 -1.47887 0
M  V30 3347 H 305.507 -0.785788 -0.25781 0
M  V30 3348 H 308.053 -1.68111 0.231721 0
M  V30 3349 H 306.825 -3.90772 0.203287 0
M  V30 3350 H 306.448 -3.68342 -1.497 0
M  V30 3351 N 307.445 0.0818655 -1.57387 0
M  V30 3352 C 308.67 0.799946 -1.91352 0
M  V30 3353 C 309.095 1.70833 -0.787258 0
M  V30 3354 O 308.453 1.79419 0.26048 0
M  V30 3355 C 308.501 1.57812 -3.24234 0
M  V30 3356 O 307.605 2.68806 -3.12757 0
M  V30 3357 H 306.946 0.21891 -0.626877 0
M  V30 3358 H 309.476 0.0531256 -2.04531 0
M  V30 3359 H 309.486 1.95952 -3.57864 0
M  V30 3360 H 308.161 0.911548 -4.05788 0
M  V30 3361 H 306.738 2.33597 -2.90666 0
M  V30 3362 N 308.923 1.53595 0.353017 0
M  V30 3363 C 309.853 1.83902 1.43883 0
M  V30 3364 C 310.834 0.693421 1.55324 0
M  V30 3365 O 312.019 0.944452 1.69687 0
M  V30 3366 C 309.149 2.04016 2.8106 0
M  V30 3367 C 308.103 3.19814 2.84434 0
M  V30 3368 C 307.429 3.25244 4.24406 0
M  V30 3369 C 308.729 4.58133 2.50822 0
M  V30 3370 H 310.423 2.74835 1.1877 0
M  V30 3371 H 307.969 1.32242 0.569917 0
M  V30 3372 H 309.922 2.238 3.57059 0
M  V30 3373 H 308.646 1.09804 3.07588 0
M  V30 3374 H 307.305 2.9987 2.10887 0
M  V30 3375 H 306.953 2.28646 4.48029 0
M  V30 3376 H 306.653 4.03054 4.27576 0
M  V30 3377 H 308.177 3.47228 5.0226 0
M  V30 3378 H 309.591 4.77995 3.16534 0
M  V30 3379 H 307.988 5.38276 2.6529 0
M  V30 3380 H 309.058 4.62387 1.46034 0
M  V30 3381 N 310.401 -0.613514 1.45168 0
M  V30 3382 C 311.348 -1.72456 1.53387 0
M  V30 3383 C 312.318 -1.6169 0.380191 0
M  V30 3384 O 313.503 -1.81356 0.592836 0
M  V30 3385 C 310.643 -3.10753 1.50088 0
M  V30 3386 C 309.756 -3.32368 2.75963 0
M  V30 3387 C 308.891 -4.60737 2.64376 0
M  V30 3388 C 307.93 -4.7559 3.85332 0
M  V30 3389 N 307.067 -5.95253 3.72315 0
M  V30 3390 H 311.907 -1.64768 2.48305 0
M  V30 3391 H 309.444 -0.803503 1.23216 0
M  V30 3392 H 311.402 -3.90758 1.46164 0
M  V30 3393 H 310.032 -3.17413 0.587243 0
M  V30 3394 H 309.084 -2.4618 2.89999 0
M  V30 3395 H 310.396 -3.39218 3.65695 0
M  V30 3396 H 309.55 -5.48928 2.58385 0
M  V30 3397 H 308.289 -4.56275 1.72233 0
M  V30 3398 H 307.294 -3.85824 3.91688 0
M  V30 3399 H 308.519 -4.81854 4.78533 0
M  V30 3400 H 306.465 -5.91847 2.82937 0
M  V30 3401 H 306.382 -6.03236 4.55677 0
M  V30 3402 H 307.65 -6.85958 3.70246 0
M  V30 3403 N 311.879 -1.3236 -0.855495 0
M  V30 3404 C 312.789 -1.23221 -1.99634 0
M  V30 3405 C 313.805 -0.145983 -1.73387 0
M  V30 3406 O 314.981 -0.366502 -1.98037 0
M  V30 3407 C 312.046 -0.954782 -3.33294 0
M  V30 3408 C 311.107 -2.12937 -3.72769 0
M  V30 3409 C 310.34 -1.86508 -5.00051 0
M  V30 3410 O 310.563 -0.807231 -5.64659 0
M  V30 3411 O 309.497 -2.72591 -5.36636 0
M  V30 3412 H 313.323 -2.19126 -2.1028 0
M  V30 3413 H 310.908 -1.12241 -0.986018 0
M  V30 3414 H 312.79 -0.816519 -4.13414 0
M  V30 3415 H 311.465 -0.0258854 -3.2369 0
M  V30 3416 H 310.372 -2.3231 -2.93228 0
M  V30 3417 H 311.705 -3.04102 -3.87018 0
M  V30 3418 N 313.357 1.07166 -1.15556 0
M  V30 3419 C 314.304 2.14417 -0.854055 0
M  V30 3420 C 315.274 1.64965 0.193806 0
M  V30 3421 O 316.459 1.90703 0.0609443 0
M  V30 3422 C 313.599 3.43304 -0.351574 0
M  V30 3423 C 312.712 4.06537 -1.46123 0
M  V30 3424 C 311.847 5.23266 -0.914677 0
M  V30 3425 C 310.886 5.78464 -2.00114 0
M  V30 3426 N 310.023 6.86521 -1.47083 0
M  V30 3427 H 314.863 2.39548 -1.77259 0
M  V30 3428 H 312.4 1.17543 -0.884425 0
M  V30 3429 H 314.358 4.17179 -0.0419409 0
M  V30 3430 H 312.988 3.18419 0.530037 0
M  V30 3431 H 312.04 3.30297 -1.88701 0
M  V30 3432 H 313.352 4.43567 -2.28144 0
M  V30 3433 H 312.506 6.04131 -0.557698 0
M  V30 3434 H 311.245 4.87658 -0.0636583 0
M  V30 3435 H 310.25 4.96243 -2.36692 0
M  V30 3436 H 311.475 6.16126 -2.85597 0
M  V30 3437 H 309.421 6.52849 -0.642198 0
M  V30 3438 H 309.338 7.22446 -2.22729 0
M  V30 3439 H 310.606 7.71087 -1.14215 0
M  V30 3440 N 314.835 0.952656 1.25548 0
M  V30 3441 C 315.765 0.489287 2.28316 0
M  V30 3442 C 316.746 -0.463359 1.63667 0
M  V30 3443 O 317.931 -0.36274 1.90782 0
M  V30 3444 C 315.061 -0.235603 3.465 0
M  V30 3445 C 314.015 0.631593 4.23314 0
M  V30 3446 C 313.341 -0.223923 5.34231 0
M  V30 3447 C 314.641 1.90871 4.86174 0
M  V30 3448 H 316.335 1.34822 2.67326 0
M  V30 3449 H 313.881 0.649728 1.28509 0
M  V30 3450 H 315.834 -0.570882 4.17515 0
M  V30 3451 H 314.558 -1.12877 3.06474 0
M  V30 3452 H 313.217 0.949929 3.54079 0
M  V30 3453 H 312.865 -1.11678 4.90446 0
M  V30 3454 H 312.565 0.35299 5.86539 0
M  V30 3455 H 314.089 -0.554214 6.0808 0
M  V30 3456 H 315.503 1.63997 5.49343 0
M  V30 3457 H 313.9 2.43112 5.4865 0
M  V30 3458 H 314.97 2.61304 4.08471 0
M  V30 3459 N 316.313 -1.40141 0.720998 0
M  V30 3460 C 317.245 -2.29177 0.0324669 0
M  V30 3461 C 318.258 -1.46105 -0.718126 0
M  V30 3462 O 319.447 -1.69335 -0.564608 0
M  V30 3463 C 316.547 -3.24473 -0.978292 0
M  V30 3464 C 315.72 -4.36423 -0.292115 0
M  V30 3465 C 314.779 -5.12122 -1.20901 0
M  V30 3466 O 313.805 -5.64981 -0.691766 0
M  V30 3467 N 315.007 -5.21992 -2.53978 0
M  V30 3468 H 317.772 -2.88909 0.796984 0
M  V30 3469 H 315.333 -1.51569 0.569068 0
M  V30 3470 H 317.325 -3.71987 -1.59398 0
M  V30 3471 H 315.895 -2.65871 -1.64413 0
M  V30 3472 H 315.115 -3.90967 0.503847 0
M  V30 3473 H 316.403 -5.08467 0.183971 0
M  V30 3474 H 315.801 -4.8054 -2.98493 0
M  V30 3475 H 314.358 -5.72995 -3.10677 0
M  V30 3476 N 317.792 -0.46758 -1.50504 0
M  V30 3477 C 318.739 0.328413 -2.28452 0
M  V30 3478 C 319.709 0.990313 -1.33349 0
M  V30 3479 O 320.894 1.00343 -1.62284 0
M  V30 3480 C 318.034 1.40648 -3.15138 0
M  V30 3481 C 317.147 0.759709 -4.25267 0
M  V30 3482 C 316.282 1.81537 -4.99217 0
M  V30 3483 C 315.321 1.14866 -6.01226 0
M  V30 3484 N 314.458 2.14702 -6.68467 0
M  V30 3485 H 319.298 -0.342603 -2.96024 0
M  V30 3486 H 316.835 -0.180801 -1.45985 0
M  V30 3487 H 318.793 2.04315 -3.63746 0
M  V30 3488 H 317.423 2.04671 -2.49619 0
M  V30 3489 H 316.475 0.0105671 -3.80399 0
M  V30 3490 H 317.787 0.233243 -4.98254 0
M  V30 3491 H 316.941 2.52793 -5.51526 0
M  V30 3492 H 315.68 2.37564 -4.25928 0
M  V30 3493 H 314.685 0.42171 -5.4818 0
M  V30 3494 H 315.91 0.595334 -6.76485 0
M  V30 3495 H 313.856 2.69752 -5.97972 0
M  V30 3496 H 313.773 1.6703 -7.37317 0
M  V30 3497 H 315.041 2.85348 -7.25394 0
M  V30 3498 N 319.27 1.56325 -0.20005 0
M  V30 3499 C 320.498 2.02105 0.442874 0
M  V30 3500 C 320.913 1.08014 1.5485 0
M  V30 3501 O 320.27 0.0858797 1.82298 0
M  V30 3502 C 320.321 3.47549 0.994583 0
M  V30 3503 O 320.042 4.38049 -0.0669322 0
M  V30 3504 C 321.543 4.0887 1.7129 0
M  V30 3505 H 318.763 0.661807 0.110691 0
M  V30 3506 H 321.307 2.02134 -0.310207 0
M  V30 3507 H 319.462 3.48204 1.69803 0
M  V30 3508 H 319.876 5.23368 0.344462 0
M  V30 3509 H 321.35 5.12475 2.05118 0
M  V30 3510 H 321.827 3.52615 2.61838 0
M  V30 3511 H 322.433 4.12002 1.05518 0
M  V30 3512 N 320.748 -0.0735177 1.57428 0
M  V30 3513 C 321.978 -0.78483 1.91112 0
M  V30 3514 C 322.386 -1.71729 0.7941 0
M  V30 3515 O 321.729 -1.82105 -0.241542 0
M  V30 3516 C 321.791 -1.63346 3.20247 0
M  V30 3517 C 321.455 -0.870557 4.48632 0
M  V30 3518 C 322.452 -0.19058 5.19551 0
M  V30 3519 C 320.137 -0.838242 4.95256 0
M  V30 3520 C 322.131 0.511503 6.35344 0
M  V30 3521 C 319.818 -0.132386 6.10957 0
M  V30 3522 C 320.816 0.541288 6.80852 0
M  V30 3523 O 320.504 1.23578 7.94345 0
M  V30 3524 H 320.236 -0.228408 0.636244 0
M  V30 3525 H 322.79 -0.0486039 2.05342 0
M  V30 3526 H 321.02 -2.41245 3.02222 0
M  V30 3527 H 322.709 -2.22329 3.39595 0
M  V30 3528 H 323.475 -0.206864 4.84559 0
M  V30 3529 H 319.354 -1.35206 4.40727 0
M  V30 3530 H 322.898 1.03789 6.89836 0
M  V30 3531 H 318.795 -0.114023 6.45399 0
M  V30 3532 H 319.563 1.14487 8.10454 0
M  V30 3533 N 322.226 -1.5378 -0.344866 0
M  V30 3534 C 323.451 -1.75211 -1.10977 0
M  V30 3535 C 323.876 -0.48936 -1.81623 0
M  V30 3536 O 323.234 0.557925 -1.72502 0
M  V30 3537 C 323.282 -2.93147 -2.09993 0
M  V30 3538 O 322.386 -2.63203 -3.17487 0
M  V30 3539 H 321.727 -0.581241 -0.321021 0
M  V30 3540 H 324.257 -2.00738 -0.395661 0
M  V30 3541 H 324.267 -3.19898 -2.53237 0
M  V30 3542 H 322.942 -3.84731 -1.5797 0
M  V30 3543 H 321.519 -2.47336 -2.79069 0
M  V30 3544 N 323.704 0.605807 -1.45491 0
M  V30 3545 C 324.636 1.73031 -1.5031 0
M  V30 3546 C 325.649 1.57968 -0.393687 0
M  V30 3547 O 326.838 1.65817 -0.660839 0
M  V30 3548 C 323.938 3.11049 -1.34543 0
M  V30 3549 C 323.111 3.52334 -2.59189 0
M  V30 3550 C 322.17 4.69323 -2.37954 0
M  V30 3551 O 321.196 4.7635 -3.11575 0
M  V30 3552 N 322.398 5.62705 -1.4263 0
M  V30 3553 H 325.163 1.6936 -2.4726 0
M  V30 3554 H 322.724 0.79114 -1.41254 0
M  V30 3555 H 324.716 3.87071 -1.18144 0
M  V30 3556 H 323.286 3.09217 -0.458623 0
M  V30 3557 H 322.506 2.66256 -2.90691 0
M  V30 3558 H 323.794 3.76677 -3.42041 0
M  V30 3559 H 323.192 5.59744 -0.818758 0
M  V30 3560 H 321.749 6.38252 -1.32202 0
M  V30 3561 N 325.182 1.32811 0.848464 0
M  V30 3562 C 326.412 1.26556 1.63301 0
M  V30 3563 C 326.82 -0.1676 1.88456 0
M  V30 3564 O 326.163 -1.11713 1.45828 0
M  V30 3565 C 326.225 1.96202 3.01239 0
M  V30 3566 C 325.889 3.45528 2.99098 0
M  V30 3567 C 326.886 4.40903 2.75501 0
M  V30 3568 C 324.571 3.87558 3.19537 0
M  V30 3569 C 326.565 5.76282 2.72356 0
M  V30 3570 C 324.252 5.23044 3.16019 0
M  V30 3571 C 325.25 6.17217 2.92458 0
M  V30 3572 O 324.938 7.50223 2.88825 0
M  V30 3573 H 324.67 0.43771 0.515156 0
M  V30 3574 H 327.224 1.7559 1.0657 0
M  V30 3575 H 325.454 1.41746 3.59785 0
M  V30 3576 H 327.143 1.83573 3.62016 0
M  V30 3577 H 327.909 4.09756 2.5947 0
M  V30 3578 H 323.788 3.14674 3.369 0
M  V30 3579 H 327.332 6.4976 2.53886 0
M  V30 3580 H 323.229 5.53818 3.31596 0
M  V30 3581 H 323.997 7.59657 3.04735 0
M  V30 3582 N 326.66 -1.06551 1.16123 0
M  V30 3583 C 327.607 -2.13961 0.865414 0
M  V30 3584 C 328.577 -1.65066 -0.185055 0
M  V30 3585 O 329.762 -1.90732 -0.05083 0
M  V30 3586 C 326.902 -3.43113 0.369776 0
M  V30 3587 C 326.015 -4.05756 1.48276 0
M  V30 3588 C 325.15 -5.22773 0.942414 0
M  V30 3589 C 324.189 -5.77395 2.03179 0
M  V30 3590 N 323.326 -6.85731 1.50721 0
M  V30 3591 H 328.166 -2.38605 1.78527 0
M  V30 3592 H 325.703 -1.17072 0.890646 0
M  V30 3593 H 327.661 -4.17151 0.0640643 0
M  V30 3594 H 326.291 -3.18695 -0.513143 0
M  V30 3595 H 325.343 -3.29292 1.9045 0
M  V30 3596 H 326.655 -4.42351 2.30493 0
M  V30 3597 H 325.809 -6.03827 0.589729 0
M  V30 3598 H 324.548 -4.87618 0.0895191 0
M  V30 3599 H 323.553 -4.94981 2.3932 0
M  V30 3600 H 324.778 -6.14603 2.8886 0
M  V30 3601 H 322.724 -6.52499 0.676811 0
M  V30 3602 H 322.641 -7.21254 2.26557 0
M  V30 3603 H 323.909 -7.7047 1.18303 0
M  V30 3604 N 328.138 -0.959301 -1.25041 0
M  V30 3605 C 329.384 -0.617525 -1.9317 0
M  V30 3606 C 329.717 0.843981 -1.74902 0
M  V30 3607 O 328.992 1.60615 -1.09696 0
M  V30 3608 C 329.275 -0.982736 -3.46431 0
M  V30 3609 C 329.128 -2.50032 -3.73904 0
M  V30 3610 C 330.447 -0.511176 -4.37121 0
M  V30 3611 H 327.566 -0.22582 -0.701552 0
M  V30 3612 H 330.208 -1.19679 -1.4757 0
M  V30 3613 H 328.358 -0.489806 -3.854 0
M  V30 3614 H 330.03 -3.06737 -3.44544 0
M  V30 3615 H 328.273 -2.93598 -3.19348 0
M  V30 3616 H 328.944 -2.70635 -4.81103 0
M  V30 3617 H 331.42 -0.934075 -4.0548 0
M  V30 3618 H 330.296 -0.795361 -5.43107 0
M  V30 3619 H 330.557 0.588834 -4.38161 0
M  V30 3620 N 329.616 1.39756 -0.72842 0
M  V30 3621 C 330.548 2.29157 -0.0446202 0
M  V30 3622 C 331.561 1.46484 0.710367 0
M  V30 3623 O 332.75 1.69632 0.55562 0
M  V30 3624 C 329.85 3.24987 0.961071 0
M  V30 3625 C 329.023 4.36572 0.268967 0
M  V30 3626 C 328.082 5.12756 1.18184 0
M  V30 3627 O 327.108 5.6534 0.661794 0
M  V30 3628 N 328.31 5.23331 2.51206 0
M  V30 3629 H 331.075 2.88482 -0.812295 0
M  V30 3630 H 328.636 1.51265 -0.577098 0
M  V30 3631 H 330.628 3.72827 1.57423 0
M  V30 3632 H 329.198 2.66739 1.63 0
M  V30 3633 H 328.418 3.90694 -0.524574 0
M  V30 3634 H 329.706 5.08363 -0.210934 0
M  V30 3635 H 329.104 4.82116 2.9594 0
M  V30 3636 H 327.661 5.74634 3.07634 0
M  V30 3637 N 331.094 0.475555 1.50254 0
M  V30 3638 C 332.324 -0.0753399 2.06463 0
M  V30 3639 C 332.732 -1.33661 1.33908 0
M  V30 3640 O 332.075 -1.79219 0.403257 0
M  V30 3641 C 332.137 -0.424921 3.5698 0
M  V30 3642 C 331.801 0.734965 4.51051 0
M  V30 3643 C 332.798 1.61827 4.94073 0
M  V30 3644 C 330.483 0.926557 4.9368 0
M  V30 3645 C 332.477 2.67754 5.78434 0
M  V30 3646 C 330.164 1.98904 5.77824 0
M  V30 3647 C 331.162 2.8629 6.20103 0
M  V30 3648 O 330.85 3.90708 7.02568 0
M  V30 3649 H 330.582 0.00576308 0.675975 0
M  V30 3650 H 333.136 0.664662 1.94349 0
M  V30 3651 H 331.366 -1.21817 3.67012 0
M  V30 3652 H 333.055 -0.911422 3.95535 0
M  V30 3653 H 333.821 1.48196 4.61804 0
M  V30 3654 H 329.7 0.25584 4.6029 0
M  V30 3655 H 333.244 3.35992 6.11355 0
M  V30 3656 H 329.141 2.12541 6.09505 0
M  V30 3657 H 329.909 3.87751 7.20827 0
M  V30 3658 N 332.573 -1.56217 0.208337 0
M  V30 3659 C 333.85 -1.89739 -0.475234 0
M  V30 3660 C 334.23 -1.1238 -1.78701 0
M  V30 3661 O 333.578 -0.228979 -2.2735 0
M  V30 3662 C 333.788 -3.42289 -0.681101 0
M  V30 3663 C 335.136 -4.12789 -0.994507 0
M  V30 3664 O 336.16 -3.47814 -0.768357 0
M  V30 3665 O 335.019 -5.27649 -1.42299 0
M  V30 3666 H 332.113 -0.788478 -0.249461 0
M  V30 3667 H 334.659 -1.67855 0.249538 0
M  V30 3668 H 333.431 -3.90534 0.244722 0
M  V30 3669 H 333.054 -3.69909 -1.45785 0
M  V30 3670 N 334.051 0.0651679 -1.57465 0
M  V30 3671 C 334.984 1.10876 -1.99453 0
M  V30 3672 C 335.962 1.37205 -0.872555 0
M  V30 3673 O 337.146 1.50468 -1.13542 0
M  V30 3674 C 334.273 2.45167 -2.3369 0
M  V30 3675 C 333.319 2.3493 -3.55964 0
M  V30 3676 S 334.152 1.73708 -5.06543 0
M  V30 3677 C 335.308 3.09563 -5.43987 0
M  V30 3678 H 335.541 0.750967 -2.87659 0
M  V30 3679 H 333.074 0.273933 -1.51951 0
M  V30 3680 H 335.032 3.22412 -2.54088 0
M  V30 3681 H 333.693 2.78105 -1.46001 0
M  V30 3682 H 332.886 3.3398 -3.77457 0
M  V30 3683 H 332.488 1.65823 -3.3523 0
M  V30 3684 H 334.78 4.05882 -5.42463 0
M  V30 3685 H 335.723 2.92843 -6.44708 0
M  V30 3686 H 336.131 3.10474 -4.71451 0
M  V30 3687 N 335.529 1.53961 0.336706 0
M  V30 3688 C 336.94 1.62914 0.911925 0
M  V30 3689 C 337.291 0.514795 1.89326 0
M  V30 3690 O 336.416 -0.354395 2.13478 0
M  V30 3691 C 337.011 2.95304 1.66076 0
M  V30 3692 C 335.57 3.06496 2.18489 0
M  V30 3693 C 334.717 2.58403 1.00613 0
M  V30 3694 H 337.668 1.58285 0.114649 0
M  V30 3695 H 337.689 2.84727 2.5241 0
M  V30 3696 H 337.201 3.76387 0.946276 0
M  V30 3697 H 335.302 2.3006 2.93092 0
M  V30 3698 H 335.415 4.1208 2.44391 0
M  V30 3699 H 333.779 2.13977 1.38152 0
M  V30 3700 H 334.562 3.41932 0.306179 0
M  V30 3701 N 337.007 -0.598083 1.45811 0
M  V30 3702 C 337.954 -1.7082 1.55207 0
M  V30 3703 C 338.924 -1.61278 0.39732 0
M  V30 3704 O 340.109 -1.80717 0.612038 0
M  V30 3705 C 337.249 -3.09144 1.53376 0
M  V30 3706 C 336.362 -3.29423 2.79472 0
M  V30 3707 C 335.497 -4.57907 2.69248 0
M  V30 3708 C 334.536 -4.71476 3.90354 0
M  V30 3709 N 333.673 -5.9127 3.78608 0
M  V30 3710 H 338.513 -1.62125 2.50039 0
M  V30 3711 H 336.05 -0.790389 1.24062 0
M  V30 3712 H 338.008 -3.89186 1.50301 0
M  V30 3713 H 336.638 -3.16773 0.620876 0
M  V30 3714 H 335.69 -2.43091 2.92594 0
M  V30 3715 H 337.002 -3.3532 3.69272 0
M  V30 3716 H 336.156 -5.46157 2.64192 0
M  V30 3717 H 334.895 -4.54423 1.77063 0
M  V30 3718 H 333.9 -3.81648 3.95759 0
M  V30 3719 H 335.125 -4.76751 4.83617 0
M  V30 3720 H 333.071 -5.88813 2.89199 0
M  V30 3721 H 332.988 -5.98369 4.6205 0
M  V30 3722 H 334.256 -6.81992 3.77501 0
M  V30 3723 N 338.485 -1.33259 -0.841409 0
M  V30 3724 C 339.395 -1.25332 -1.98316 0
M  V30 3725 C 340.411 -0.164364 -1.73222 0
M  V30 3726 O 341.587 -0.387486 -1.97637 0
M  V30 3727 C 338.652 -0.990078 -3.32262 0
M  V30 3728 C 337.713 -2.16879 -3.70489 0
M  V30 3729 C 336.946 -1.91801 -4.98044 0
M  V30 3730 O 337.169 -0.867075 -5.63771 0
M  V30 3731 O 336.103 -2.78267 -5.33714 0
M  V30 3732 H 339.929 -2.21344 -2.07944 0
M  V30 3733 H 337.514 -1.1328 -0.974058 0
M  V30 3734 H 339.396 -0.860321 -4.12524 0
M  V30 3735 H 338.071 -0.0602155 -3.23644 0
M  V30 3736 H 336.978 -2.35407 -2.90748 0
M  V30 3737 H 338.311 -3.0819 -3.8377 0
M  V30 3738 N 339.963 1.05934 -1.16686 0
M  V30 3739 C 340.926 2.11669 -0.879144 0
M  V30 3740 C 341.926 1.60294 0.127445 0
M  V30 3741 O 343.116 1.7389 -0.103865 0
M  V30 3742 C 340.248 3.39438 -0.315425 0
M  V30 3743 H 341.441 2.38626 -1.81653 0
M  V30 3744 H 338.994 1.22058 -0.976299 0
M  V30 3745 H 339.729 3.18132 0.629468 0
M  V30 3746 H 339.514 3.78034 -1.04079 0
M  V30 3747 H 341.004 4.17391 -0.132189 0
M  V30 3748 N 341.441 0.965919 1.2453 0
M  V30 3749 C 342.671 0.643451 1.96324 0
M  V30 3750 C 343.079 -0.790927 1.71875 0
M  V30 3751 O 342.422 -1.54208 0.998273 0
M  V30 3752 C 342.484 0.836078 3.49643 0
M  V30 3753 C 342.148 2.24975 3.97788 0
M  V30 3754 C 343.145 3.22735 4.07601 0
M  V30 3755 C 340.83 2.57697 4.31158 0
M  V30 3756 C 342.824 4.51303 4.50116 0
M  V30 3757 C 340.511 3.86492 4.73357 0
M  V30 3758 C 341.509 4.83107 4.828 0
M  V30 3759 O 341.197 6.09605 5.24058 0
M  V30 3760 H 340.929 0.239223 0.632257 0
M  V30 3761 H 343.483 1.29587 1.59362 0
M  V30 3762 H 341.713 0.12649 3.86493 0
M  V30 3763 H 343.402 0.512965 4.02646 0
M  V30 3764 H 344.168 2.98783 3.82039 0
M  V30 3765 H 340.047 1.83216 4.23028 0
M  V30 3766 H 343.591 5.26716 4.57401 0
M  V30 3767 H 339.488 4.10245 4.98366 0
M  V30 3768 H 340.256 6.13146 5.42213 0
M  V30 3769 N 342.919 -1.39368 0.735821 0
M  V30 3770 C 343.829 -2.34395 0.0979693 0
M  V30 3771 C 344.845 -1.58361 -0.720968 0
M  V30 3772 O 346.021 -1.90648 -0.649245 0
M  V30 3773 C 343.086 -3.37393 -0.797916 0
M  V30 3774 C 342.147 -4.29287 0.0333662 0
M  V30 3775 C 341.38 -5.27365 -0.819854 0
M  V30 3776 O 341.603 -5.31959 -2.05855 0
M  V30 3777 O 340.537 -6.01389 -0.248079 0
M  V30 3778 H 344.363 -2.90601 0.882315 0
M  V30 3779 H 341.948 -1.40909 0.4965 0
M  V30 3780 H 343.83 -4.00505 -1.31048 0
M  V30 3781 H 342.505 -2.83571 -1.56106 0
M  V30 3782 H 341.412 -3.69395 0.591475 0
M  V30 3783 H 342.745 -4.86317 0.758752 0
M  V30 3784 N 344.397 -0.483516 -1.5 0
M  V30 3785 C 345.622 0.0667119 -2.07293 0
M  V30 3786 C 346.047 1.3164 -1.3436 0
M  V30 3787 O 345.405 1.76945 -0.394987 0
M  V30 3788 C 345.453 0.321126 -3.59167 0
M  V30 3789 O 344.557 1.39927 -3.87936 0
M  V30 3790 H 343.898 -0.0184758 -0.663743 0
M  V30 3791 H 346.428 -0.678125 -1.93035 0
M  V30 3792 H 346.438 0.557906 -4.04168 0
M  V30 3793 H 345.113 -0.592007 -4.11665 0
M  V30 3794 H 343.69 1.14882 -3.54763 0
M  V30 3795 N 345.875 1.56104 -0.216619 0
M  V30 3796 C 346.822 2.2007 0.695531 0
M  V30 3797 C 347.792 1.15471 1.19397 0
M  V30 3798 O 348.977 1.43807 1.25396 0
M  V30 3799 C 346.117 2.88073 1.90021 0
M  V30 3800 C 345.23 4.07253 1.44113 0
M  V30 3801 C 344.365 4.63052 2.603 0
M  V30 3802 C 343.404 5.74545 2.11103 0
M  V30 3803 N 342.541 6.24656 3.20545 0
M  V30 3804 H 347.381 2.97655 0.143327 0
M  V30 3805 H 344.918 1.46982 0.0589934 0
M  V30 3806 H 346.876 3.25681 2.60745 0
M  V30 3807 H 345.506 2.13015 2.42538 0
M  V30 3808 H 344.558 3.75164 0.628999 0
M  V30 3809 H 345.87 4.8783 1.04036 0
M  V30 3810 H 345.024 5.03078 3.39113 0
M  V30 3811 H 343.763 3.81628 3.03663 0
M  V30 3812 H 342.768 5.34027 1.3075 0
M  V30 3813 H 343.993 6.57801 1.68746 0
M  V30 3814 H 341.939 5.46148 3.63399 0
M  V30 3815 H 341.856 7.00343 2.84704 0
M  V30 3816 H 343.124 6.69338 3.99508 0
M  V30 3817 N 347.353 -0.0568162 1.57498 0
M  V30 3818 C 348.599 -0.748893 1.89111 0
M  V30 3819 C 348.954 -1.74422 0.81208 0
M  V30 3820 O 348.247 -1.90731 -0.182247 0
M  V30 3821 C 348.441 -1.48359 3.25153 0
M  V30 3822 C 348.27 -0.560924 4.46188 0
M  V30 3823 C 347.04 -0.192264 5.04934 0
M  V30 3824 C 349.238 0.148824 5.14085 0
M  V30 3825 N 347.22 0.734555 6.0949 0
M  V30 3826 C 348.591 0.932286 6.12951 0
M  V30 3827 C 350.646 0.218713 4.97419 0
M  V30 3828 C 349.349 1.77917 6.96949 0
M  V30 3829 C 351.375 1.05262 5.81957 0
M  V30 3830 C 350.737 1.82409 6.80372 0
M  V30 3831 H 346.836 -0.249002 0.741298 0
M  V30 3832 H 349.42 -0.00984926 1.94698 0
M  V30 3833 H 347.591 -2.19326 3.20547 0
M  V30 3834 H 349.323 -2.12586 3.44368 0
M  V30 3835 H 346.078 -0.548421 4.70414 0
M  V30 3836 H 346.502 1.19165 6.6643 0
M  V30 3837 H 351.144 -0.363407 4.21235 0
M  V30 3838 H 348.862 2.3722 7.72497 0
M  V30 3839 H 352.448 1.10987 5.71116 0
M  V30 3840 H 351.328 2.45895 7.44651 0
M  V30 3841 N 348.832 -1.54138 -0.328536 0
M  V30 3842 C 350.06 -1.76062 -1.08673 0
M  V30 3843 C 350.475 -0.506852 -1.81869 0
M  V30 3844 O 349.832 0.522223 -1.74869 0
M  V30 3845 C 349.883 -2.95054 -2.08866 0
M  V30 3846 O 349.604 -4.15583 -1.38644 0
M  V30 3847 C 351.105 -3.2915 -2.96943 0
M  V30 3848 H 348.325 -0.587889 -0.323461 0
M  V30 3849 H 350.869 -2.0101 -0.376175 0
M  V30 3850 H 349.024 -2.72394 -2.75464 0
M  V30 3851 H 349.438 -4.82481 -2.05699 0
M  V30 3852 H 350.912 -4.15723 -3.63151 0
M  V30 3853 H 351.389 -2.461 -3.63774 0
M  V30 3854 H 351.995 -3.53871 -2.35914 0
M  V30 3855 N 350.31 0.590341 -1.46126 0
M  V30 3856 C 351.242 1.71427 -1.52136 0
M  V30 3857 C 352.255 1.57542 -0.41042 0
M  V30 3858 O 353.444 1.65106 -0.678389 0
M  V30 3859 C 350.544 3.09605 -1.37834 0
M  V30 3860 C 349.717 3.49566 -2.62912 0
M  V30 3861 C 348.776 4.66773 -2.42918 0
M  V30 3862 O 347.802 4.73019 -3.1661 0
M  V30 3863 N 349.004 5.61161 -1.4859 0
M  V30 3864 H 351.769 1.66728 -2.49042 0
M  V30 3865 H 349.33 0.776113 -1.42085 0
M  V30 3866 H 351.322 3.85796 -1.22243 0
M  V30 3867 H 349.892 3.08714 -0.491393 0
M  V30 3868 H 349.112 2.63158 -2.93499 0
M  V30 3869 H 350.4 3.73028 -3.46017 0
M  V30 3870 H 349.798 5.58844 -0.87808 0
M  V30 3871 H 348.355 6.36814 -1.38965 0
M  V30 3872 N 351.788 1.33704 0.83433 0
M  V30 3873 C 353.028 1.26754 1.60352 0
M  V30 3874 C 353.392 -0.163182 1.91305 0
M  V30 3875 O 354.593 -0.3567 2.66423 0
M  V30 3876 C 352.864 2.12262 2.8754 0
M  V30 3877 S 354.423 2.22549 3.78176 0
M  V30 3878 H 351.241 0.450879 0.549753 0
M  V30 3879 H 353.843 1.68788 0.986444 0
M  V30 3880 H 352.547 3.15238 2.62779 0
M  V30 3881 H 352.078 1.71082 3.54252 0
M  V30 3882 H 354.093 1.3899 4.76336 0
M  V30 3883 N 353.266 -1.05314 1.17247 0
M  V30 3884 C 354.515 -1.77685 0.954521 0
M  V30 3885 C 354.828 -1.88616 -0.518025 0
M  V30 3886 O 356.034 -2.57714 -0.854144 0
M  V30 3887 C 354.49 -3.19402 1.65863 0
M  V30 3888 C 354.098 -3.16605 3.16963 0
M  V30 3889 C 355.842 -3.96237 1.52303 0
M  V30 3890 C 353.749 -4.53103 3.80068 0
M  V30 3891 H 352.679 -0.666 0.353496 0
M  V30 3892 H 355.33 -1.1805 1.40486 0
M  V30 3893 H 353.712 -3.79355 1.13602 0
M  V30 3894 H 354.886 -2.66176 3.76148 0
M  V30 3895 H 353.201 -2.53268 3.30521 0
M  V30 3896 H 355.798 -4.97157 1.96822 0
M  V30 3897 H 356.141 -4.136 0.473401 0
M  V30 3898 H 356.674 -3.42829 2.01775 0
M  V30 3899 H 353.413 -4.40946 4.85023 0
M  V30 3900 H 352.933 -5.03686 3.2567 0
M  V30 3901 H 354.612 -5.22045 3.82202 0
M  V30 3902 N 354.744 -0.972509 -1.24016 0
M  V30 3903 C 355.691 -0.505969 -2.25186 0
M  V30 3904 C 356.661 0.451009 -1.5986 0
M  V30 3905 O 357.846 0.360307 -1.87367 0
M  V30 3906 C 354.986 0.193089 -3.44559 0
M  V30 3907 C 354.099 -0.803222 -4.24467 0
M  V30 3908 C 353.234 -0.0797793 -5.3114 0
M  V30 3909 C 352.273 -1.06583 -6.02749 0
M  V30 3910 N 351.41 -0.372074 -7.01113 0
M  V30 3911 H 356.25 -1.37351 -2.64459 0
M  V30 3912 H 353.787 -0.688419 -1.29997 0
M  V30 3913 H 355.745 0.615125 -4.1264 0
M  V30 3914 H 354.375 1.02455 -3.06109 0
M  V30 3915 H 353.427 -1.34368 -3.55878 0
M  V30 3916 H 354.739 -1.55494 -4.73944 0
M  V30 3917 H 353.893 0.400015 -6.0538 0
M  V30 3918 H 352.632 0.704597 -4.82583 0
M  V30 3919 H 351.637 -1.55645 -5.27309 0
M  V30 3920 H 352.862 -1.85074 -6.53395 0
M  V30 3921 H 350.808 0.393238 -6.5482 0
M  V30 3922 H 350.725 -1.06258 -7.48495 0
M  V30 3923 H 351.993 0.0855932 -7.79453 0
M  V30 3924 N 356.222 1.38976 -0.743202 0
M  V30 3925 C 357.152 2.33171 -0.123873 0
M  V30 3926 C 358.133 1.54336 0.71516 0
M  V30 3927 O 359.318 1.82696 0.658467 0
M  V30 3928 C 356.448 3.38474 0.777978 0
M  V30 3929 C 355.402 4.27979 0.0424758 0
M  V30 3930 C 354.728 5.2405 1.06189 0
M  V30 3931 C 356.028 5.10155 -1.1198 0
M  V30 3932 H 357.722 2.85213 -0.910709 0
M  V30 3933 H 355.268 1.37133 -0.439388 0
M  V30 3934 H 357.221 4.03328 1.22084 0
M  V30 3935 H 355.945 2.84891 1.59702 0
M  V30 3936 H 354.604 3.64616 -0.380853 0
M  V30 3937 H 354.252 4.66758 1.87472 0
M  V30 3938 H 353.952 5.84785 0.574485 0
M  V30 3939 H 355.476 5.9178 1.50428 0
M  V30 3940 H 356.89 5.68307 -0.75499 0
M  V30 3941 H 355.287 5.80073 -1.53738 0
M  V30 3942 H 356.357 4.44504 -1.93764 0
M  V30 3943 N 357.7 0.491464 1.49741 0
M  V30 3944 C 358.949 -0.0582189 2.01616 0
M  V30 3945 C 359.262 -1.38927 1.3769 0
M  V30 3946 O 360.468 -2.02509 1.80838 0
M  V30 3947 C 358.924 -0.154235 3.59569 0
M  V30 3948 C 358.532 1.1696 4.32463 0
M  V30 3949 C 360.276 -0.65479 4.1942 0
M  V30 3950 C 358.183 1.03627 5.8225 0
M  V30 3951 H 357.113 -0.0255317 0.753568 0
M  V30 3952 H 359.764 0.629445 1.72367 0
M  V30 3953 H 358.146 -0.906138 3.85493 0
M  V30 3954 H 359.32 1.93405 4.18248 0
M  V30 3955 H 357.635 1.60285 3.84315 0
M  V30 3956 H 360.232 -0.771903 5.29099 0
M  V30 3957 H 360.575 -1.65127 3.8215 0
M  V30 3958 H 361.108 0.040304 3.9778 0
M  V30 3959 H 357.847 2.00672 6.24028 0
M  V30 3960 H 357.367 0.312546 5.98985 0
M  V30 3961 H 359.046 0.711114 6.4308 0
M  V30 3962 N 359.178 -1.55987 0.224894 0
M  V30 3963 C 360.455 -1.90232 -0.455083 0
M  V30 3964 C 360.835 -1.14269 -1.77499 0
M  V30 3965 O 360.183 -0.253079 -2.27094 0
M  V30 3966 C 360.393 -3.42993 -0.644758 0
M  V30 3967 C 361.741 -4.13821 -0.950669 0
M  V30 3968 O 362.765 -3.4861 -0.731423 0
M  V30 3969 O 361.624 -5.29128 -1.36695 0
M  V30 3970 H 358.718 -0.79108 -0.241084 0
M  V30 3971 H 361.264 -1.67581 0.267327 0
M  V30 3972 H 360.036 -3.90252 0.28613 0
M  V30 3973 H 359.659 -3.71434 -1.41853 0
M  V30 3974 N 360.656 0.0484629 -1.57525 0
M  V30 3975 C 361.588 1.08222 -2.02041 0
M  V30 3976 C 362.601 1.33621 -0.930012 0
M  V30 3977 O 363.79 1.3145 -1.20761 0
M  V30 3978 C 360.89 2.42818 -2.36416 0
M  V30 3979 C 360.063 2.37049 -3.67596 0
M  V30 3980 C 359.122 3.53937 -3.89378 0
M  V30 3981 O 358.148 3.34308 -4.60681 0
M  V30 3982 N 359.35 4.75126 -3.3352 0
M  V30 3983 H 362.115 0.702946 -2.9134 0
M  V30 3984 H 359.676 0.236745 -1.6016 0
M  V30 3985 H 361.668 3.197 -2.48141 0
M  V30 3986 H 360.238 2.72661 -1.52888 0
M  V30 3987 H 359.458 1.45395 -3.66407 0
M  V30 3988 H 360.746 2.30318 -4.53686 0
M  V30 3989 H 360.144 4.93976 -2.75688 0
M  V30 3990 H 358.701 5.49439 -3.50656 0
M  V30 3991 N 362.134 1.5431 0.320358 0
M  V30 3992 C 363.382 1.72327 1.05583 0
M  V30 3993 C 363.703 0.50149 1.88441 0
M  V30 3994 O 362.973 -0.48448 1.89815 0
M  V30 3995 H 361.553 0.635387 0.3928 0
M  V30 3996 H 364.215 1.91621 0.356019 0
M  V30 3997 H 363.311 2.60426 1.72003 0
M  V30 3998 N 363.613 -0.582584 1.46437 0
M  V30 3999 C 364.861 -1.33814 1.51453 0
M  V30 4000 C 365.182 -1.94277 0.167792 0
M  V30 4001 O 364.452 -1.78566 -0.805677 0
M  V30 4002 H 363.032 -0.496838 0.557818 0
M  V30 4003 H 365.694 -0.682281 1.82568 0
M  V30 4004 H 364.79 -2.14479 2.26728 0
M  V30 4005 N 365.091 -1.34144 -0.827227 0
M  V30 4006 C 366.001 -1.27428 -1.96975 0
M  V30 4007 C 367.017 -0.182728 -1.73038 0
M  V30 4008 O 368.193 -0.408426 -1.97215 0
M  V30 4009 C 365.258 -1.02526 -3.31194 0
M  V30 4010 C 364.319 -2.20796 -3.68168 0
M  V30 4011 C 363.552 -1.97073 -4.95982 0
M  V30 4012 O 363.775 -0.926822 -5.6282 0
M  V30 4013 O 362.709 -2.83912 -5.30733 0
M  V30 4014 H 366.535 -2.23537 -2.05584 0
M  V30 4015 H 364.12 -1.14307 -0.961989 0
M  V30 4016 H 366.002 -0.904026 -4.11589 0
M  V30 4017 H 364.677 -0.0945389 -3.23562 0
M  V30 4018 H 363.584 -2.38477 -2.88235 0
M  V30 4019 H 364.917 -3.12243 -3.8048 0
M  V30 4020 N 366.569 1.04691 -1.17803 0
M  V30 4021 C 367.517 2.14665 -0.895635 0
M  V30 4022 C 368.511 1.68806 0.141679 0
M  V30 4023 O 369.717 1.79999 -0.00587914 0
M  V30 4024 H 366.092 0.701038 -0.272121 0
M  V30 4025 H 368.063 2.35685 -1.83017 0
M  V30 4026 C 366.812 3.45019 -0.430962 0
M  V30 4027 H 366.135 3.8071 -1.22064 0
M  V30 4028 H 367.575 4.23125 -0.272301 0
M  V30 4029 C 366.034 3.25943 0.852207 0
M  V30 4030 O 366.564 3.5296 1.91786 0
M  V30 4031 N 364.77 2.79304 0.802346 0
M  V30 4032 H 364.317 2.57518 -0.0650788 0
M  V30 4033 H 364.275 2.66921 1.66134 0
M  V30 4034 N 368.047 0.979072 1.23499 0
M  V30 4035 C 368.977 0.537606 2.27227 0
M  V30 4036 C 369.958 -0.428539 1.64613 0
M  V30 4037 O 371.143 -0.322191 1.91509 0
M  V30 4038 C 368.273 -0.162052 3.46922 0
M  V30 4039 C 367.227 0.721242 4.21879 0
M  V30 4040 C 366.553 -0.110555 5.34586 0
M  V30 4041 C 367.853 2.01141 4.82016 0
M  V30 4042 H 369.547 1.40462 2.64406 0
M  V30 4043 H 367.093 0.67684 1.27102 0
M  V30 4044 H 369.046 -0.482192 4.18632 0
M  V30 4045 H 367.77 -1.06351 3.08799 0
M  V30 4046 H 366.429 1.02482 3.51984 0
M  V30 4047 H 366.077 -1.0125 4.92704 0
M  V30 4048 H 365.777 0.477325 5.85658 0
M  V30 4049 H 367.301 -0.425107 6.09118 0
M  V30 4050 H 368.715 1.75612 5.45741 0
M  V30 4051 H 367.112 2.54695 5.43369 0
M  V30 4052 H 368.182 2.69909 4.02836 0
M  V30 4053 N 369.525 -1.3858 0.750561 0
M  V30 4054 C 370.435 -2.34278 0.122825 0
M  V30 4055 C 371.451 -1.59116 -0.704131 0
M  V30 4056 O 372.627 -1.91326 -0.628987 0
M  V30 4057 C 369.692 -3.38221 -0.762086 0
M  V30 4058 C 368.753 -4.29227 0.078896 0
M  V30 4059 C 367.986 -5.28205 -0.763874 0
M  V30 4060 O 368.209 -5.34112 -2.00201 0
M  V30 4061 O 367.143 -6.01618 -0.18428 0
M  V30 4062 H 370.969 -2.89649 0.913088 0
M  V30 4063 H 368.554 -1.40374 0.511417 0
M  V30 4064 H 370.436 -4.01872 -1.26793 0
M  V30 4065 H 369.111 -2.85211 -1.5309 0
M  V30 4066 H 368.018 -3.68747 0.630621 0
M  V30 4067 H 369.351 -4.85484 0.810289 0
M  V30 4068 N 371.003 -0.499398 -1.49478 0
M  V30 4069 C 371.913 0.284489 -2.32869 0
M  V30 4070 C 372.929 0.968885 -1.44529 0
M  V30 4071 O 374.105 0.95062 -1.77553 0
M  V30 4072 C 371.17 1.33594 -3.19928 0
M  V30 4073 C 370.231 0.665149 -4.24116 0
M  V30 4074 C 369.464 1.6665 -5.07014 0
M  V30 4075 O 369.687 2.89618 -4.91404 0
M  V30 4076 O 368.621 1.22271 -5.8935 0
M  V30 4077 H 372.447 -0.39802 -3.01081 0
M  V30 4078 H 370.032 -0.260758 -1.47107 0
M  V30 4079 H 371.914 1.94431 -3.73864 0
M  V30 4080 H 370.589 2.0014 -2.54412 0
M  V30 4081 H 369.496 0.0170769 -3.74096 0
M  V30 4082 H 370.829 0.0421555 -4.92182 0
M  V30 4083 N 372.481 1.55866 -0.233164 0
M  V30 4084 C 373.897 1.59133 0.121988 0
M  V30 4085 C 374.097 1.25016 1.58029 0
M  V30 4086 O 373.153 0.990922 2.32243 0
M  V30 4087 C 374.466 2.99932 -0.214792 0
M  V30 4088 C 376.014 3.12601 -0.157971 0
M  V30 4089 C 376.489 4.55597 -0.46859 0
M  V30 4090 N 377.98 4.61305 -0.418585 0
M  V30 4091 C 378.715 5.69903 -0.63227 0
M  V30 4092 N 378.211 6.86819 -0.90835 0
M  V30 4093 N 380.004 5.59264 -0.563913 0
M  V30 4094 H 372.155 1.76315 -1.18434 0
M  V30 4095 H 374.418 0.820093 -0.475553 0
M  V30 4096 H 374.124 3.29588 -1.22739 0
M  V30 4097 H 373.998 3.74327 0.464691 0
M  V30 4098 H 376.385 2.82735 0.845283 0
M  V30 4099 H 376.466 2.40511 -0.871102 0
M  V30 4100 H 376.11 4.86182 -1.46934 0
M  V30 4101 H 376.04 5.25928 0.265865 0
M  V30 4102 H 378.531 3.77297 -0.213368 0
M  V30 4103 H 378.844 7.65507 -1.05919 0
M  V30 4104 H 377.189 6.88536 -0.945673 0
M  V30 4105 H 380.38 4.66802 -0.348372 0
M  V30 4106 H 380.553 6.43831 -0.733847 0
M  V30 4107 N 373.959 -0.0401083 1.57549 0
M  V30 4108 C 374.889 -1.04384 2.08869 0
M  V30 4109 C 375.87 -1.38407 0.988817 0
M  V30 4110 O 377.055 -1.47483 1.26342 0
M  V30 4111 C 374.185 -2.34808 2.55895 0
M  V30 4112 C 373.139 -2.15057 3.70047 0
M  V30 4113 C 372.465 -3.51145 4.03239 0
M  V30 4114 C 373.765 -1.54576 4.98902 0
M  V30 4115 H 375.459 -0.616666 2.92981 0
M  V30 4116 H 373.005 -0.295184 1.40942 0
M  V30 4117 H 374.958 -3.05346 2.90417 0
M  V30 4118 H 373.682 -2.79565 1.68853 0
M  V30 4119 H 372.341 -1.46954 3.35857 0
M  V30 4120 H 371.989 -3.93529 3.13279 0
M  V30 4121 H 371.689 -3.38758 4.80122 0
M  V30 4122 H 373.213 -4.23062 4.40285 0
M  V30 4123 H 374.627 -2.15017 5.31451 0
M  V30 4124 H 373.024 -1.52796 5.80322 0
M  V30 4125 H 374.094 -0.51039 4.82206 0
M  V30 4126 N 375.437 -1.54477 -0.31217 0
M  V30 4127 C 376.385 -1.85395 -1.40469 0
M  V30 4128 C 377.379 -0.726749 -1.53019 0
M  V30 4129 O 378.585 -0.910582 -1.55269 0
M  V30 4130 H 374.96 -0.587845 -0.46898 0
M  V30 4131 H 376.931 -2.76736 -1.11623 0
M  V30 4132 C 375.68 -2.10811 -2.76503 0
M  V30 4133 H 375.003 -2.97014 -2.67625 0
M  V30 4134 H 376.443 -2.3639 -3.51988 0
M  V30 4135 C 374.902 -0.903165 -3.24568 0
M  V30 4136 O 375.432 -0.118085 -4.01526 0
M  V30 4137 N 373.638 -0.711634 -2.81752 0
M  V30 4138 H 373.185 -1.35171 -2.19286 0
M  V30 4139 H 373.143 0.0930473 -3.14262 0
M  V30 4140 N 376.915 0.57481 -1.46744 0
M  V30 4141 C 378.14 1.36341 -1.56288 0
M  V30 4142 C 378.565 1.86954 -0.207347 0
M  V30 4143 O 377.923 1.62006 0.813871 0
M  V30 4144 C 377.971 2.52147 -2.57787 0
M  V30 4145 O 377.075 3.53834 -2.11838 0
M  V30 4146 H 376.416 0.405713 -0.525636 0
M  V30 4147 H 378.946 0.696453 -1.92382 0
M  V30 4148 H 378.956 2.98958 -2.77648 0
M  V30 4149 H 377.631 2.14663 -3.5622 0
M  V30 4150 H 376.208 3.1345 -2.01999 0
M  V30 4151 N 378.394 1.34581 0.820102 0
M  V30 4152 C 379.326 1.22236 1.93884 0
M  V30 4153 C 380.339 0.148776 1.62119 0
M  V30 4154 O 381.528 0.400877 1.7394 0
M  V30 4155 C 378.628 0.856542 3.27897 0
M  V30 4156 C 377.801 2.02569 3.87666 0
M  V30 4157 C 376.86 1.63782 5.00062 0
M  V30 4158 O 375.886 2.35477 5.18208 0
M  V30 4159 N 377.088 0.553611 5.77854 0
M  V30 4160 H 379.853 2.18615 2.05006 0
M  V30 4161 H 377.414 1.27573 0.99683 0
M  V30 4162 H 379.406 0.578806 4.0054 0
M  V30 4163 H 377.976 -0.0171518 3.12595 0
M  V30 4164 H 377.196 2.468 3.07382 0
M  V30 4165 H 378.484 2.80752 4.24329 0
M  V30 4166 H 377.882 -0.0423528 5.65684 0
M  V30 4167 H 376.439 0.335614 6.50935 0
M  V30 4168 N 379.872 -1.04064 1.18357 0
M  V30 4169 C 381.119 -1.77265 0.978947 0
M  V30 4170 C 381.447 -1.88189 -0.491428 0
M  V30 4171 O 380.702 -1.38653 -1.38108 0
M  V30 4172 C 381.001 -3.20634 1.57888 0
M  V30 4173 C 380.667 -3.29743 3.07539 0
M  V30 4174 C 379.329 -3.31937 3.48384 0
M  V30 4175 C 381.681 -3.29841 4.03552 0
M  V30 4176 C 379.009 -3.3187 4.83818 0
M  V30 4177 C 381.361 -3.31313 5.38901 0
M  V30 4178 C 380.025 -3.31799 5.79194 0
M  V30 4179 H 379.295 -0.648659 0.358222 0
M  V30 4180 H 381.942 -1.22225 1.47422 0
M  V30 4181 H 380.247 -3.78675 1.00561 0
M  V30 4182 H 381.944 -3.75917 1.39598 0
M  V30 4183 H 378.534 -3.28757 2.74986 0
M  V30 4184 H 382.718 -3.27337 3.73047 0
M  V30 4185 H 377.974 -3.30562 5.14333 0
M  V30 4186 H 382.148 -3.30338 6.13066 0
M  V30 4187 H 379.775 -3.315 6.84114 0
M  V30 4188 N 381.35 -0.985608 -1.22978 0
M  V30 4189 C 382.297 -0.529825 -2.24636 0
M  V30 4190 C 383.267 0.434028 -1.60329 0
M  V30 4191 O 384.452 0.340414 -1.87739 0
M  V30 4192 C 381.592 0.156533 -3.44745 0
M  V30 4193 C 380.705 -0.848197 -4.23591 0
M  V30 4194 C 379.84 -0.136109 -5.31026 0
M  V30 4195 C 378.879 -1.1297 -6.01585 0
M  V30 4196 N 378.016 -0.446415 -7.00679 0
M  V30 4197 H 382.856 -1.40148 -2.62988 0
M  V30 4198 H 380.393 -0.702168 -1.29259 0
M  V30 4199 H 382.351 0.571324 -4.1327 0
M  V30 4200 H 380.981 0.992025 -3.07179 0
M  V30 4201 H 380.033 -1.38135 -3.54433 0
M  V30 4202 H 381.345 -1.60512 -4.72268 0
M  V30 4203 H 380.499 0.335784 -6.0577 0
M  V30 4204 H 379.238 0.653373 -4.83304 0
M  V30 4205 H 378.243 -1.6123 -5.25628 0
M  V30 4206 H 379.468 -1.91993 -6.51395 0
M  V30 4207 H 377.414 0.323763 -6.55201 0
M  V30 4208 H 377.331 -1.1419 -7.47326 0
M  V30 4209 H 378.599 0.00291697 -7.795 0
M  V30 4210 N 382.828 1.3818 -0.7579 0
M  V30 4211 C 383.776 2.32277 -0.122482 0
M  V30 4212 C 384.77 1.54238 0.700505 0
M  V30 4213 O 385.976 1.69737 0.599119 0
M  V30 4214 H 382.351 0.751712 -0.0208143 0
M  V30 4215 H 384.322 2.83469 -0.932099 0
M  V30 4216 C 383.071 3.39447 0.753076 0
M  V30 4217 H 382.394 3.99591 0.129184 0
M  V30 4218 H 383.834 4.07684 1.16489 0
M  V30 4219 C 382.293 2.78375 1.8976 0
M  V30 4220 O 382.823 2.68025 2.99208 0
M  V30 4221 N 381.029 2.36121 1.69397 0
M  V30 4222 H 380.576 2.4474 0.803762 0
M  V30 4223 H 380.534 1.95602 2.46145 0
M  V30 4224 N 384.306 0.507319 1.49211 0
M  V30 4225 C 385.552 -0.0269732 2.03382 0
M  V30 4226 C 385.907 -1.34111 1.37957 0
M  V30 4227 O 385.2 -1.84733 0.508351 0
M  V30 4228 C 385.394 -0.229513 3.56662 0
M  V30 4229 C 385.223 1.06344 4.36945 0
M  V30 4230 C 383.993 1.617 4.78729 0
M  V30 4231 C 386.191 1.96833 4.75143 0
M  V30 4232 N 384.173 2.8552 5.43463 0
M  V30 4233 C 385.544 3.0523 5.39661 0
M  V30 4234 C 387.599 1.97434 4.57082 0
M  V30 4235 C 386.302 4.14265 5.88028 0
M  V30 4236 C 388.328 3.05448 5.06414 0
M  V30 4237 C 387.69 4.12564 5.70938 0
M  V30 4238 H 383.789 0.0310673 0.781383 0
M  V30 4239 H 386.373 0.683579 1.82305 0
M  V30 4240 H 384.544 -0.909127 3.7761 0
M  V30 4241 H 386.276 -0.761377 3.97473 0
M  V30 4242 H 383.031 1.16132 4.59141 0
M  V30 4243 H 383.455 3.48499 5.80412 0
M  V30 4244 H 388.097 1.15924 4.06597 0
M  V30 4245 H 385.815 4.96569 6.3753 0
M  V30 4246 H 389.401 3.06941 4.94246 0
M  V30 4247 H 388.281 4.94767 6.0842 0
M  V30 4248 N 385.784 -1.5574 0.241426 0
M  V30 4249 C 387.014 -2.02913 -0.38857 0
M  V30 4250 C 387.422 -1.12014 -1.52478 0
M  V30 4251 O 386.765 -0.125903 -1.83268 0
M  V30 4252 C 386.827 -3.4636 -0.963075 0
M  V30 4253 C 386.491 -4.56982 0.0401916 0
M  V30 4254 C 387.488 -5.12941 0.847766 0
M  V30 4255 C 385.173 -5.0203 0.164699 0
M  V30 4256 C 387.167 -6.12437 1.76636 0
M  V30 4257 C 384.854 -6.01358 1.0868 0
M  V30 4258 C 385.852 -6.5644 1.88616 0
M  V30 4259 O 385.54 -7.53831 2.79273 0
M  V30 4260 H 385.272 -0.668983 -0.0971452 0
M  V30 4261 H 387.826 -2.02198 0.361248 0
M  V30 4262 H 386.056 -3.44206 -1.76235 0
M  V30 4263 H 387.745 -3.77065 -1.50257 0
M  V30 4264 H 388.511 -4.78974 0.762133 0
M  V30 4265 H 384.39 -4.58824 -0.447411 0
M  V30 4266 H 387.934 -6.55355 2.39071 0
M  V30 4267 H 383.831 -6.34746 1.17338 0
M  V30 4268 H 384.599 -7.71428 2.73572 0
M  V30 4269 N 387.262 0.0317525 -1.57568 0
M  V30 4270 C 388.678 0.38735 -1.54828 0
M  V30 4271 C 388.878 1.7677 -0.967187 0
M  V30 4272 O 387.934 2.45581 -0.587063 0
M  V30 4273 C 389.247 0.291667 -2.99282 0
M  V30 4274 C 390.795 0.368946 -3.10818 0
M  V30 4275 C 391.27 0.302741 -4.56998 0
M  V30 4276 N 392.761 0.361617 -4.61786 0
M  V30 4277 C 393.496 0.333238 -5.72431 0
M  V30 4278 N 392.992 0.257308 -6.92322 0
M  V30 4279 N 394.785 0.382769 -5.60795 0
M  V30 4280 H 386.936 -0.871609 -1.93692 0
M  V30 4281 H 389.199 -0.331161 -0.888277 0
M  V30 4282 H 388.905 -0.656794 -3.45513 0
M  V30 4283 H 388.779 1.08638 -3.61217 0
M  V30 4284 H 391.166 1.30784 -2.64536 0
M  V30 4285 H 391.247 -0.455066 -2.5172 0
M  V30 4286 H 390.891 -0.632473 -5.03947 0
M  V30 4287 H 390.821 1.14482 -5.14005 0
M  V30 4288 H 393.312 0.422923 -3.75526 0
M  V30 4289 H 393.625 0.24068 -7.72425 0
M  V30 4290 H 391.97 0.223396 -6.94641 0
M  V30 4291 H 395.161 0.44006 -4.66027 0
M  V30 4292 H 395.334 0.357184 -6.47015 0
M  V30 4293 N 388.74 1.54641 0.303973 0
M  V30 4294 C 389.672 1.81754 1.39636 0
M  V30 4295 C 390.685 0.70035 1.46966 0
M  V30 4296 O 391.874 0.97778 1.49338 0
M  V30 4297 C 388.974 1.93785 2.7803 0
M  V30 4298 C 388.147 3.24156 2.93669 0
M  V30 4299 C 387.206 3.26641 4.12544 0
M  V30 4300 O 386.232 4.00187 4.04771 0
M  V30 4301 N 387.434 2.5182 5.23036 0
M  V30 4302 H 390.199 2.76031 1.16734 0
M  V30 4303 H 387.76 1.54178 0.494033 0
M  V30 4304 H 389.752 1.92852 3.55795 0
M  V30 4305 H 388.322 1.06515 2.93893 0
M  V30 4306 H 387.542 3.37887 2.03042 0
M  V30 4307 H 388.83 4.10195 3.01027 0
M  V30 4308 H 388.228 1.91692 5.32232 0
M  V30 4309 H 386.785 2.56644 5.99147 0
M  V30 4310 N 390.218 -0.567019 1.47046 0
M  V30 4311 C 391.165 -1.67489 1.58796 0
M  V30 4312 C 392.135 -1.60399 0.43144 0
M  V30 4313 O 393.32 -1.79378 0.650233 0
M  V30 4314 C 390.46 -3.05821 1.59899 0
M  V30 4315 C 389.573 -3.2342 2.86397 0
M  V30 4316 C 388.708 -4.52093 2.789 0
M  V30 4317 C 387.747 -4.6309 4.00267 0
M  V30 4318 N 386.884 -5.83106 3.91064 0
M  V30 4319 H 391.724 -1.56785 2.53422 0
M  V30 4320 H 389.261 -0.763896 1.2571 0
M  V30 4321 H 391.219 -3.8591 1.58522 0
M  V30 4322 H 389.849 -3.15384 0.687929 0
M  V30 4323 H 388.901 -2.3683 2.97684 0
M  V30 4324 H 390.213 -3.27412 3.76301 0
M  V30 4325 H 389.367 -5.4043 2.75718 0
M  V30 4326 H 388.106 -4.50565 1.86662 0
M  V30 4327 H 387.111 -3.73168 4.03765 0
M  V30 4328 H 388.336 -4.66386 4.93621 0
M  V30 4329 H 386.282 -5.82546 3.01623 0
M  V30 4330 H 386.199 -5.88434 4.74638 0
M  V30 4331 H 387.467 -6.73831 3.91882 0
M  V30 4332 N 391.696 -1.35014 -0.812953 0
M  V30 4333 C 392.926 -1.30841 -1.59888 0
M  V30 4334 C 393.334 0.117576 -1.88834 0
M  V30 4335 O 392.677 1.07807 -1.48739 0
M  V30 4336 C 392.739 -2.0412 -2.95931 0
M  V30 4337 C 392.403 -3.53336 -2.89832 0
M  V30 4338 C 393.4 -4.48052 -2.63714 0
M  V30 4339 C 391.085 -3.95894 -3.0915 0
M  V30 4340 C 393.079 -5.833 -2.56982 0
M  V30 4341 C 390.766 -5.31239 -3.0204 0
M  V30 4342 C 391.764 -6.24754 -2.75991 0
M  V30 4343 O 391.452 -7.57617 -2.68833 0
M  V30 4344 H 391.184 -0.451215 -0.50337 0
M  V30 4345 H 393.738 -1.78354 -1.01877 0
M  V30 4346 H 391.968 -1.51235 -3.559 0
M  V30 4347 H 393.657 -1.93107 -3.57022 0
M  V30 4348 H 394.423 -4.16492 -2.48515 0
M  V30 4349 H 390.302 -3.23495 -3.28438 0
M  V30 4350 H 393.846 -6.56263 -2.36569 0
M  V30 4351 H 389.743 -5.62415 -3.16796 0
M  V30 4352 H 390.511 -7.67469 -2.84487 0
M  V30 4353 N 393.175 1.03435 -1.18907 0
M  V30 4354 C 394.105 2.13503 -0.945448 0
M  V30 4355 C 395.086 1.69682 0.119189 0
M  V30 4356 O 396.271 1.94169 -0.034707 0
M  V30 4357 C 393.401 3.44004 -0.477316 0
M  V30 4358 C 392.355 4.0148 -1.48316 0
M  V30 4359 C 391.681 5.27537 -0.872311 0
M  V30 4360 C 392.981 4.36921 -2.86177 0
M  V30 4361 H 394.675 2.34141 -1.86597 0
M  V30 4362 H 392.221 1.12523 -0.898584 0
M  V30 4363 H 394.174 4.20372 -0.294204 0
M  V30 4364 H 392.898 3.23072 0.478786 0
M  V30 4365 H 391.557 3.27201 -1.65332 0
M  V30 4366 H 391.205 5.02917 0.0911752 0
M  V30 4367 H 390.905 5.66954 -1.54393 0
M  V30 4368 H 392.429 6.06576 -0.699871 0
M  V30 4369 H 393.843 5.04248 -2.72776 0
M  V30 4370 H 392.24 4.87405 -3.50081 0
M  V30 4371 H 393.31 3.46466 -3.39248 0
M  V30 4372 N 394.653 0.992116 1.22453 0
M  V30 4373 C 395.601 0.534644 2.26372 0
M  V30 4374 C 396.595 -0.414293 1.64256 0
M  V30 4375 O 397.801 -0.286899 1.77699 0
M  V30 4376 H 394.176 0.154502 0.735957 0
M  V30 4377 H 396.147 1.42256 2.62309 0
M  V30 4378 C 394.896 -0.135815 3.47435 0
M  V30 4379 H 394.219 0.585311 3.95492 0
M  V30 4380 H 395.659 -0.419374 4.21921 0
M  V30 4381 C 394.118 -1.37089 3.07747 0
M  V30 4382 O 394.648 -2.46629 3.17076 0
M  V30 4383 N 392.854 -1.24585 2.62539 0
M  V30 4384 H 392.401 -0.354542 2.55149 0
M  V30 4385 H 392.359 -2.07327 2.36353 0
M  V30 4386 N 396.131 -1.37776 0.765217 0
M  V30 4387 C 397.061 -2.32945 0.160953 0
M  V30 4388 C 398.042 -1.55454 -0.690516 0
M  V30 4389 O 399.227 -1.83721 -0.629318 0
M  V30 4390 C 396.357 -3.39669 -0.724031 0
M  V30 4391 C 395.311 -4.27992 0.0256173 0
M  V30 4392 C 394.637 -5.25673 -0.978383 0
M  V30 4393 C 395.937 -5.08309 1.20082 0
M  V30 4394 H 397.631 -2.83728 0.955969 0
M  V30 4395 H 395.177 -1.36416 0.461149 0
M  V30 4396 H 397.13 -4.05219 -1.15652 0
M  V30 4397 H 395.854 -2.87396 -1.5515 0
M  V30 4398 H 394.513 -3.63964 0.438812 0
M  V30 4399 H 394.161 -4.69682 -1.80022 0
M  V30 4400 H 393.861 -5.85625 -0.481378 0
M  V30 4401 H 395.385 -5.94098 -1.40995 0
M  V30 4402 H 396.799 -5.67034 0.845307 0
M  V30 4403 H 395.196 -5.77554 1.62947 0
M  V30 4404 H 396.266 -4.41365 2.00811 0
M  V30 4405 N 397.609 -0.515225 -1.4894 0
M  V30 4406 C 398.519 0.259774 -2.33157 0
M  V30 4407 C 399.535 0.953501 -1.45548 0
M  V30 4408 O 400.711 0.931735 -1.78552 0
M  V30 4409 C 397.776 1.30193 -3.21326 0
M  V30 4410 C 396.837 0.620129 -4.24797 0
M  V30 4411 C 396.07 1.61263 -5.08753 0
M  V30 4412 O 396.293 2.84389 -4.94448 0
M  V30 4413 O 395.227 1.16013 -5.90614 0
M  V30 4414 H 399.053 -0.429932 -3.00641 0
M  V30 4415 H 396.638 -0.276346 -1.46822 0
M  V30 4416 H 398.52 1.90455 -3.75905 0
M  V30 4417 H 397.195 1.97431 -2.56521 0
M  V30 4418 H 396.102 -0.0226019 -3.74093 0
M  V30 4419 H 397.435 -0.0100493 -4.92199 0
M  V30 4420 N 399.087 1.5561 -0.249682 0
M  V30 4421 C 399.997 2.25143 0.659375 0
M  V30 4422 C 401.013 1.2685 1.19101 0
M  V30 4423 O 402.189 1.59732 1.22669 0
M  V30 4424 C 399.254 2.93945 1.8384 0
M  V30 4425 C 398.315 4.07655 1.34596 0
M  V30 4426 C 397.548 4.73167 2.46878 0
M  V30 4427 O 397.771 4.37768 3.65671 0
M  V30 4428 O 396.705 5.61623 2.16478 0
M  V30 4429 H 400.531 3.03545 0.0968698 0
M  V30 4430 H 398.116 1.49389 -0.018074 0
M  V30 4431 H 399.998 3.37271 2.52638 0
M  V30 4432 H 398.673 2.18481 2.38847 0
M  V30 4433 H 397.58 3.68839 0.625174 0
M  V30 4434 H 398.913 4.84946 0.841941 0
M  V30 4435 N 400.565 -0.0233959 1.57583 0
M  V30 4436 C 401.795 -0.723631 1.93513 0
M  V30 4437 C 402.203 -1.69115 0.848333 0
M  V30 4438 O 401.546 -1.82781 -0.183484 0
M  V30 4439 C 401.608 -1.53075 3.25282 0
M  V30 4440 C 401.272 -0.727388 4.51174 0
M  V30 4441 C 402.269 -0.0251924 5.19894 0
M  V30 4442 C 399.954 -0.680256 4.97672 0
M  V30 4443 C 401.948 0.713374 6.33395 0
M  V30 4444 C 399.635 0.0620523 6.11068 0
M  V30 4445 C 400.633 0.757622 6.78785 0
M  V30 4446 O 400.321 1.48787 7.90011 0
M  V30 4447 H 400.053 -0.208051 0.643188 0
M  V30 4448 H 402.607 0.0167489 2.05393 0
M  V30 4449 H 400.837 -2.31508 3.09744 0
M  V30 4450 H 402.526 -2.11413 3.46496 0
M  V30 4451 H 403.292 -0.0526003 4.84971 0
M  V30 4452 H 399.171 -1.21116 4.44805 0
M  V30 4453 H 402.715 1.25683 6.86185 0
M  V30 4454 H 398.612 0.0913634 6.45435 0
M  V30 4455 H 399.38 1.40213 8.06401 0
M  V30 4456 N 402.043 -1.548 -0.295768 0
M  V30 4457 C 403.459 -1.4613 -0.641722 0
M  V30 4458 C 403.659 -0.656771 -1.90496 0
M  V30 4459 O 402.715 -0.166547 -2.5195 0
M  V30 4460 C 404.028 -2.90141 -0.789852 0
M  V30 4461 C 405.576 -3.00216 -0.885396 0
M  V30 4462 C 406.051 -4.45434 -1.06548 0
M  V30 4463 N 407.542 -4.49166 -1.13156 0
M  V30 4464 C 408.277 -5.58717 -1.28929 0
M  V30 4465 N 407.773 -6.78182 -1.41567 0
M  V30 4466 N 409.566 -5.46415 -1.31859 0
M  V30 4467 H 401.717 -2.05574 0.534147 0
M  V30 4468 H 403.98 -0.931259 0.177372 0
M  V30 4469 H 403.686 -3.51635 0.0675598 0
M  V30 4470 H 403.56 -3.37859 -1.67724 0
M  V30 4471 H 405.947 -2.38833 -1.73329 0
M  V30 4472 H 406.028 -2.55787 0.0261185 0
M  V30 4473 H 405.672 -5.07413 -0.222335 0
M  V30 4474 H 405.602 -4.87499 -1.9913 0
M  V30 4475 H 408.093 -3.631 -1.04721 0
M  V30 4476 H 408.406 -7.57428 -1.53372 0
M  V30 4477 H 406.751 -6.81037 -1.38613 0
M  V30 4478 H 409.942 -4.5203 -1.21601 0
M  V30 4479 H 410.115 -6.31841 -1.43808 0
M  V30 4480 N 403.521 0.559213 -1.47345 0
M  V30 4481 C 404.937 0.884943 -1.32819 0
M  V30 4482 C 405.137 1.98988 -0.317173 0
M  V30 4483 O 404.193 2.51031 0.272011 0
M  V30 4484 C 405.506 1.28007 -2.72093 0
M  V30 4485 C 407.054 1.39161 -2.80363 0
M  V30 4486 C 407.529 1.82031 -4.20272 0
M  V30 4487 N 409.02 1.89185 -4.22804 0
M  V30 4488 C 409.755 2.2368 -5.27973 0
M  V30 4489 N 409.251 2.56802 -6.43447 0
M  V30 4490 N 411.044 2.24436 -5.15349 0
M  V30 4491 H 403.195 -0.170304 -2.11716 0
M  V30 4492 H 405.458 -0.0135247 -0.947904 0
M  V30 4493 H 405.164 0.542027 -3.47498 0
M  V30 4494 H 405.038 2.23665 -3.03733 0
M  V30 4495 H 407.425 2.12048 -2.05231 0
M  V30 4496 H 407.506 0.41696 -2.52379 0
M  V30 4497 H 407.15 1.09715 -4.95908 0
M  V30 4498 H 407.08 2.80495 -4.45679 0
M  V30 4499 H 409.571 1.65982 -3.39497 0
M  V30 4500 H 409.884 2.82144 -7.19454 0
M  V30 4501 H 408.229 2.54387 -6.46771 0
M  V30 4502 H 411.42 1.97998 -4.24163 0
M  V30 4503 H 411.593 2.50989 -5.97418 0
M  V30 4504 N 404.999 1.35443 0.805782 0
M  V30 4505 C 405.929 1.31095 1.93226 0
M  V30 4506 C 406.91 0.185244 1.69088 0
M  V30 4507 O 408.095 0.380332 1.90439 0
M  V30 4508 C 405.225 1.08299 3.29983 0
M  V30 4509 C 404.179 2.17519 3.68605 0
M  V30 4510 C 403.505 1.79887 5.03532 0
M  V30 4511 C 404.805 3.5949 3.78898 0
M  V30 4512 H 406.499 2.25352 1.97122 0
M  V30 4513 H 404.045 1.0848 0.946996 0
M  V30 4514 H 405.998 1.03897 4.08391 0
M  V30 4515 H 404.722 0.104885 3.26432 0
M  V30 4516 H 403.381 2.2102 2.92482 0
M  V30 4517 H 403.029 0.80693 4.96485 0
M  V30 4518 H 402.729 2.53001 5.30344 0
M  V30 4519 H 404.253 1.77011 5.84379 0
M  V30 4520 H 405.667 3.58307 4.47536 0
M  V30 4521 H 404.064 4.31371 4.1718 0
M  V30 4522 H 405.134 3.95584 2.80431 0
M  V30 4523 N 406.477 -1.02803 1.19454 0
M  V30 4524 C 407.705 -1.79841 1.02297 0
M  V30 4525 C 408.12 -1.83879 -0.428259 0
M  V30 4526 O 407.477 -1.28345 -1.29745 0
M  V30 4527 C 407.528 -3.24852 1.58598 0
M  V30 4528 O 407.249 -3.21097 2.98041 0
M  V30 4529 C 408.75 -4.18485 1.46236 0
M  V30 4530 H 405.97 -0.565936 0.360496 0
M  V30 4531 H 408.514 -1.2948 1.58288 0
M  V30 4532 H 406.669 -3.72401 1.06753 0
M  V30 4533 H 407.083 -4.12033 3.24545 0
M  V30 4534 H 408.557 -5.18121 1.90407 0
M  V30 4535 H 409.034 -4.37254 0.41301 0
M  V30 4536 H 409.64 -3.76811 1.97215 0
M  V30 4537 N 407.956 -0.998596 -1.21925 0
M  V30 4538 C 409.202 -0.678667 -1.91107 0
M  V30 4539 C 409.535 0.78791 -1.77498 0
M  V30 4540 O 408.81 1.57043 -1.1475 0
M  V30 4541 C 409.093 -1.09245 -3.43129 0
M  V30 4542 C 408.946 -2.61801 -3.6576 0
M  V30 4543 C 410.265 -0.649984 -4.35274 0
M  V30 4544 H 407.384 -0.248025 -0.694012 0
M  V30 4545 H 410.026 -1.24314 -1.43688 0
M  V30 4546 H 408.176 -0.612171 -3.83647 0
M  V30 4547 H 409.848 -3.17543 -3.34611 0
M  V30 4548 H 408.091 -3.03609 -3.09845 0
M  V30 4549 H 408.762 -2.85804 -4.7225 0
M  V30 4550 H 411.238 -1.0626 -4.02303 0
M  V30 4551 H 410.114 -0.967743 -5.40302 0
M  V30 4552 H 410.375 0.449139 -4.39813 0
M  V30 4553 N 409.434 1.37368 -0.772513 0
M  V30 4554 C 410.364 2.32856 -0.173304 0
M  V30 4555 C 411.345 1.55818 0.682262 0
M  V30 4556 O 412.53 1.84052 0.619566 0
M  V30 4557 C 409.66 3.40048 0.706007 0
M  V30 4558 C 408.614 4.27973 -0.0483144 0
M  V30 4559 C 407.94 5.26184 0.950491 0
M  V30 4560 C 409.24 5.07665 -1.22776 0
M  V30 4561 H 410.934 2.83217 -0.971002 0
M  V30 4562 H 408.48 1.3617 -0.468377 0
M  V30 4563 H 410.433 4.05827 1.13501 0
M  V30 4564 H 409.157 2.88214 1.53623 0
M  V30 4565 H 407.816 3.63726 -0.458107 0
M  V30 4566 H 407.464 4.7063 1.77529 0
M  V30 4567 H 407.164 5.85872 0.450314 0
M  V30 4568 H 408.688 5.94838 1.37842 0
M  V30 4569 H 410.102 5.66578 -0.875366 0
M  V30 4570 H 408.499 5.76681 -1.66007 0
M  V30 4571 H 409.569 4.40294 -2.03149 0
M  V30 4572 N 410.912 0.523116 1.48665 0
M  V30 4573 C 411.86 -0.256859 2.31177 0
M  V30 4574 C 412.854 -0.94199 1.40794 0
M  V30 4575 O 414.06 -0.867157 1.57735 0
M  V30 4576 H 410.435 -0.1017 0.745091 0
M  V30 4577 H 412.406 0.458739 2.94853 0
M  V30 4578 C 411.155 -1.29503 3.22683 0
M  V30 4579 H 410.478 -0.777248 3.92172 0
M  V30 4580 H 411.918 -1.81233 3.83315 0
M  V30 4581 C 410.377 -2.32501 2.43813 0
M  V30 4582 O 410.907 -3.3881 2.15803 0
M  V30 4583 N 409.113 -2.05538 2.05432 0
M  V30 4584 H 408.66 -1.19104 2.28412 0
M  V30 4585 H 408.618 -2.74676 1.52973 0
M  V30 4586 N 412.39 -1.55475 0.257931 0
M  V30 4587 C 413.322 -2.19192 -0.669881 0
M  V30 4588 C 414.335 -1.17148 -1.1305 0
M  V30 4589 O 415.524 -1.43959 -1.05537 0
M  V30 4590 C 412.624 -2.79016 -1.92363 0
M  V30 4591 C 411.797 -4.06586 -1.61265 0
M  V30 4592 C 410.856 -4.50622 -2.7171 0
M  V30 4593 O 409.882 -5.16765 -2.38627 0
M  V30 4594 N 411.084 -4.19325 -4.01431 0
M  V30 4595 H 413.849 -2.99441 -0.124635 0
M  V30 4596 H 411.41 -1.6171 0.0783311 0
M  V30 4597 H 413.402 -3.05427 -2.65511 0
M  V30 4598 H 411.972 -2.0286 -2.37837 0
M  V30 4599 H 411.192 -3.87646 -0.715811 0
M  V30 4600 H 412.48 -4.89737 -1.37967 0
M  V30 4601 H 411.878 -3.66247 -4.31138 0
M  V30 4602 H 410.435 -4.50547 -4.7101 0
M  V30 4603 N 413.868 0.0150385 -1.57593 0
M  V30 4604 C 415.117 0.702115 -1.89085 0
M  V30 4605 C 415.43 1.75764 -0.858277 0
M  V30 4606 O 416.636 2.49829 -1.0629 0
M  V30 4607 C 415.092 1.29992 -3.35604 0
M  V30 4608 C 414.7 0.280007 -4.47124 0
M  V30 4609 C 416.444 1.96606 -3.76227 0
M  V30 4610 C 414.351 0.886949 -5.84711 0
M  V30 4611 H 413.281 0.265997 -0.705522 0
M  V30 4612 H 415.932 -0.0430408 -1.8345 0
M  V30 4613 H 414.314 2.09525 -3.36029 0
M  V30 4614 H 415.488 -0.489631 -4.58191 0
M  V30 4615 H 413.803 -0.284835 -4.15425 0
M  V30 4616 H 416.4 2.42893 -4.76347 0
M  V30 4617 H 416.743 2.79024 -3.08952 0
M  V30 4618 H 417.276 1.23828 -3.78036 0
M  V30 4619 H 414.015 0.101876 -6.55421 0
M  V30 4620 H 413.535 1.6261 -5.77337 0
M  V30 4621 H 415.214 1.39011 -6.3189 0
M  V30 4622 N 415.346 1.54954 0.287554 0
M  V30 4623 C 416.309 1.86076 1.33823 0
M  V30 4624 C 417.309 0.734414 1.43049 0
M  V30 4625 O 418.499 1.00266 1.42452 0
M  V30 4626 C 415.631 2.05305 2.72144 0
M  V30 4627 H 416.824 2.79984 1.07465 0
M  V30 4628 H 414.377 1.47223 0.524902 0
M  V30 4629 H 415.112 1.1373 3.03704 0
M  V30 4630 H 414.897 2.873 2.66836 0
M  V30 4631 H 416.387 2.30706 3.48087 0
M  V30 4632 N 416.824 -0.551391 1.4764 0
M  V30 4633 C 418.07 -1.30789 1.55774 0
M  V30 4634 C 418.425 -1.91143 0.219562 0
M  V30 4635 O 417.718 -1.7521 -0.775375 0
M  V30 4636 C 417.912 -2.43469 2.61644 0
M  V30 4637 C 417.741 -1.94157 4.05627 0
M  V30 4638 C 416.511 -1.77734 4.7301 0
M  V30 4639 C 418.709 -1.48262 4.92466 0
M  V30 4640 N 416.691 -1.22823 6.01488 0
M  V30 4641 C 418.062 -1.05156 6.11017 0
M  V30 4642 C 420.117 -1.36367 4.78862 0
M  V30 4643 C 418.82 -0.513357 7.17466 0
M  V30 4644 C 420.846 -0.839484 5.85411 0
M  V30 4645 C 420.208 -0.418377 7.03156 0
M  V30 4646 H 416.307 -0.470406 0.624694 0
M  V30 4647 H 418.891 -0.624331 1.84419 0
M  V30 4648 H 417.062 -3.09348 2.34859 0
M  V30 4649 H 418.794 -3.10477 2.59589 0
M  V30 4650 H 415.549 -2.00623 4.29007 0
M  V30 4651 H 415.973 -0.974393 6.69951 0
M  V30 4652 H 420.615 -1.67535 3.88191 0
M  V30 4653 H 418.333 -0.189318 8.07878 0
M  V30 4654 H 421.919 -0.750921 5.76934 0
M  V30 4655 H 420.799 -0.0190538 7.84198 0
M  V30 4656 N 418.302 -1.35869 -0.798587 0
M  V30 4657 C 419.249 -1.29446 -1.91082 0
M  V30 4658 C 420.219 -0.16487 -1.6528 0
M  V30 4659 O 421.404 -0.349888 -1.87564 0
M  V30 4660 C 418.544 -1.0804 -3.27752 0
M  V30 4661 C 417.657 -2.29993 -3.65687 0
M  V30 4662 C 416.792 -2.01673 -4.91428 0
M  V30 4663 C 415.831 -3.19636 -5.22015 0
M  V30 4664 N 414.968 -2.91039 -6.38937 0
M  V30 4665 H 419.808 -2.24553 -1.95907 0
M  V30 4666 H 417.345 -1.11615 -0.958148 0
M  V30 4667 H 419.303 -0.936586 -4.06551 0
M  V30 4668 H 417.933 -0.16592 -3.22373 0
M  V30 4669 H 416.985 -2.55211 -2.82085 0
M  V30 4670 H 418.297 -3.18052 -3.84245 0
M  V30 4671 H 417.451 -1.84168 -5.78072 0
M  V30 4672 H 416.19 -1.10911 -4.74921 0
M  V30 4673 H 415.195 -3.37709 -4.33858 0
M  V30 4674 H 416.42 -4.11211 -5.40447 0
M  V30 4675 H 414.366 -2.0288 -6.2384 0
M  V30 4676 H 414.283 -3.72635 -6.57784 0
M  V30 4677 H 415.551 -2.77093 -7.28587 0
M  V30 4678 N 419.78 1.02168 -1.19998 0
M  V30 4679 C 420.743 2.08765 -0.94604 0
M  V30 4680 C 421.743 1.60618 0.0763846 0
M  V30 4681 O 422.933 1.73472 -0.159135 0
M  V30 4682 C 420.065 3.38262 -0.423255 0
M  V30 4683 H 421.258 2.32726 -1.89153 0
M  V30 4684 H 418.811 1.1889 -1.01464 0
M  V30 4685 H 419.546 3.19974 0.527938 0
M  V30 4686 H 419.331 3.74532 -1.16053 0
M  V30 4687 H 420.821 4.16759 -0.264911 0
M  V30 4688 N 421.258 1.00505 1.21394 0
M  V30 4689 C 422.188 0.585684 2.26035 0
M  V30 4690 C 423.169 -0.393525 1.65485 0
M  V30 4691 O 424.354 -0.281497 1.92149 0
M  V30 4692 C 421.484 -0.0884283 3.47187 0
M  V30 4693 C 420.438 0.810567 4.20254 0
M  V30 4694 C 419.764 0.00286382 5.347 0
M  V30 4695 C 421.064 2.1132 4.77641 0
M  V30 4696 H 422.758 1.46039 2.61368 0
M  V30 4697 H 420.304 0.703648 1.25638 0
M  V30 4698 H 422.257 -0.393286 4.19561 0
M  V30 4699 H 420.981 -0.997766 3.10986 0
M  V30 4700 H 419.64 1.09925 3.49731 0
M  V30 4701 H 419.288 -0.907765 4.94741 0
M  V30 4702 H 418.988 0.601444 5.84514 0
M  V30 4703 H 420.512 -0.295808 6.09883 0
M  V30 4704 H 421.926 1.87148 5.41893 0
M  V30 4705 H 420.323 2.66164 5.37845 0
M  V30 4706 H 421.393 2.78393 3.9702 0
M  V30 4707 N 422.737 -1.36956 0.779787 0
M  V30 4708 C 423.962 -2.04283 0.358224 0
M  V30 4709 C 424.387 -1.58422 -1.01411 0
M  V30 4710 O 423.745 -0.748179 -1.65142 0
M  V30 4711 C 423.793 -3.58152 0.419479 0
M  V30 4712 O 422.897 -4.08342 -0.577142 0
M  V30 4713 H 422.238 -0.645967 0.153698 0
M  V30 4714 H 424.768 -1.75108 1.05822 0
M  V30 4715 H 424.778 -4.07041 0.279636 0
M  V30 4716 H 423.453 -3.90886 1.42061 0
M  V30 4717 H 422.03 -3.70751 -0.399755 0
M  V30 4718 N 424.215 -0.530993 -1.48385 0
M  V30 4719 C 425.163 0.244595 -2.3131 0
M  V30 4720 C 426.157 0.93451 -1.41291 0
M  V30 4721 O 427.363 0.85878 -1.58193 0
M  V30 4722 H 423.738 0.0977472 -0.74562 0
M  V30 4723 H 425.709 -0.474369 -2.94605 0
M  V30 4724 C 424.458 1.2779 -3.23365 0
M  V30 4725 H 423.781 0.756439 -3.92579 0
M  V30 4726 H 425.221 1.79198 -3.84271 0
M  V30 4727 C 423.68 2.31205 -2.45042 0
M  V30 4728 O 424.21 3.37661 -2.17596 0
M  V30 4729 N 422.416 2.04446 -2.0652 0
M  V30 4730 H 421.963 1.17891 -2.2904 0
M  V30 4731 H 421.921 2.73861 -1.54427 0
M  V30 4732 N 425.693 1.55336 -0.266172 0
M  V30 4733 C 426.625 2.19544 0.658247 0
M  V30 4734 C 427.638 1.17746 1.12427 0
M  V30 4735 O 428.827 1.44517 1.04772 0
M  V30 4736 C 425.927 2.80032 1.9088 0
M  V30 4737 C 425.1 4.07436 1.59106 0
M  V30 4738 C 424.159 4.52056 2.69317 0
M  V30 4739 O 423.185 5.18023 2.35883 0
M  V30 4740 N 424.387 4.21448 3.99201 0
M  V30 4741 H 427.152 2.99503 0.108754 0
M  V30 4742 H 424.713 1.61667 -0.0869059 0
M  V30 4743 H 426.705 3.06831 2.63888 0
M  V30 4744 H 425.275 2.04119 2.36758 0
M  V30 4745 H 424.495 3.88021 0.695243 0
M  V30 4746 H 425.783 4.90462 1.35367 0
M  V30 4747 H 425.181 3.68528 4.29189 0
M  V30 4748 H 423.738 4.53039 4.68614 0
M  V30 4749 N 427.171 -0.0066808 1.57599 0
M  V30 4750 C 428.42 -0.692078 1.89455 0
M  V30 4751 C 428.733 -1.75306 0.867586 0
M  V30 4752 O 429.939 -2.49262 1.07614 0
M  V30 4753 C 428.395 -1.2821 3.36289 0
M  V30 4754 C 428.003 -0.256291 4.47266 0
M  V30 4755 C 429.747 -1.94608 3.77264 0
M  V30 4756 C 427.654 -0.855927 5.85173 0
M  V30 4757 H 426.584 -0.262252 0.706923 0
M  V30 4758 H 429.235 0.052769 1.83424 0
M  V30 4759 H 427.617 -2.0774 3.37135 0
M  V30 4760 H 428.791 0.513923 4.57925 0
M  V30 4761 H 427.106 0.306862 4.15268 0
M  V30 4762 H 429.703 -2.40364 4.77629 0
M  V30 4763 H 430.046 -2.77382 3.10427 0
M  V30 4764 H 430.579 -1.21822 3.78688 0
M  V30 4765 H 427.318 -0.0671161 6.55466 0
M  V30 4766 H 426.838 -1.59546 5.78191 0
M  V30 4767 H 428.517 -1.35658 6.32618 0
M  V30 4768 N 428.649 -1.55105 -0.279332 0
M  V30 4769 C 429.581 -1.83952 -1.36727 0
M  V30 4770 C 430.594 -0.723642 -1.45833 0
M  V30 4771 O 431.783 -1.00141 -1.47763 0
M  V30 4772 C 428.883 -1.98183 -2.74912 0
M  V30 4773 C 428.056 -3.28787 -2.88475 0
M  V30 4774 C 427.115 -3.33162 -4.07295 0
M  V30 4775 O 426.141 -4.06576 -3.98353 0
M  V30 4776 N 427.343 -2.60109 -5.18964 0
M  V30 4777 H 430.108 -2.77853 -1.12328 0
M  V30 4778 H 427.669 -1.54945 -0.469442 0
M  V30 4779 H 429.661 -1.98488 -3.52682 0
M  V30 4780 H 428.231 -1.11177 -2.92162 0
M  V30 4781 H 427.451 -3.41075 -1.97641 0
M  V30 4782 H 428.739 -4.14933 -2.94463 0
M  V30 4783 H 428.137 -2.00136 -5.29115 0
M  V30 4784 H 426.694 -2.66143 -5.94988 0
M  V30 4785 N 430.127 0.543554 -1.4793 0
M  V30 4786 C 431.357 1.32324 -1.58663 0
M  V30 4787 C 431.765 1.8766 -0.240896 0
M  V30 4788 O 431.108 1.66411 0.778011 0
M  V30 4789 C 431.17 2.52094 -2.56299 0
M  V30 4790 C 430.834 2.17944 -4.01683 0
M  V30 4791 C 431.831 1.74422 -4.89768 0
M  V30 4792 C 429.516 2.28884 -4.47121 0
M  V30 4793 C 431.51 1.42287 -6.21316 0
M  V30 4794 C 429.197 1.96361 -5.78693 0
M  V30 4795 C 430.195 1.53132 -6.65612 0
M  V30 4796 O 429.883 1.21029 -7.94737 0
M  V30 4797 H 429.615 0.409174 -0.538101 0
M  V30 4798 H 432.169 0.663887 -1.94375 0
M  V30 4799 H 430.399 3.20965 -2.15681 0
M  V30 4800 H 432.088 3.14165 -2.57012 0
M  V30 4801 H 432.854 1.65452 -4.55907 0
M  V30 4802 H 428.733 2.61488 -3.79664 0
M  V30 4803 H 432.277 1.08472 -6.89115 0
M  V30 4804 H 428.174 2.04967 -6.12094 0
M  V30 4805 H 428.942 1.34543 -8.07366 0
M  V30 4806 N 431.605 1.3629 0.791371 0
M  V30 4807 C 432.83 1.33726 1.58531 0
M  V30 4808 C 433.255 -0.0794933 1.87932 0
M  V30 4809 O 432.613 -1.05087 1.47738 0
M  V30 4810 C 432.661 2.16425 2.88431 0
M  V30 4811 O 431.765 1.5554 3.81944 0
M  V30 4812 H 431.106 0.457793 0.480959 0
M  V30 4813 H 433.636 1.79547 0.981031 0
M  V30 4814 H 433.646 2.28933 3.37718 0
M  V30 4815 H 432.321 3.19415 2.66359 0
M  V30 4816 H 430.898 1.51961 3.40532 0
M  V30 4817 N 433.083 -1.0153 1.20538 0
M  V30 4818 C 434.323 -1.76689 1.02763 0
M  V30 4819 C 434.687 -1.87065 -0.432513 0
M  V30 4820 O 435.888 -2.58684 -0.730481 0
M  V30 4821 C 434.159 -3.14707 1.69393 0
M  V30 4822 S 435.718 -4.05886 1.66738 0
M  V30 4823 H 432.536 -0.608076 0.368463 0
M  V30 4824 H 435.138 -1.21558 1.53114 0
M  V30 4825 H 433.842 -3.04782 2.74838 0
M  V30 4826 H 433.373 -3.74913 1.19179 0
M  V30 4827 H 435.388 -4.91221 0.70117 0
M  V30 4828 N 434.561 -1.01147 -1.20859 0
M  V30 4829 C 435.977 -0.725422 -1.42161 0
M  V30 4830 C 436.177 0.696919 -1.89064 0
M  V30 4831 O 435.233 1.46539 -2.05627 0
M  V30 4832 C 436.546 -1.74678 -2.44761 0
M  V30 4833 C 438.094 -1.76433 -2.58535 0
M  V30 4834 C 438.569 -2.77481 -3.64374 0
M  V30 4835 N 440.06 -2.76189 -3.71852 0
M  V30 4836 C 440.795 -3.51035 -4.53389 0
M  V30 4837 N 440.291 -4.35541 -5.38773 0
M  V30 4838 N 442.084 -3.39655 -4.47873 0
M  V30 4839 H 434.235 -1.92979 -0.887282 0
M  V30 4840 H 436.498 -0.833327 -0.451962 0
M  V30 4841 H 436.204 -2.76551 -2.17285 0
M  V30 4842 H 436.078 -1.55472 -3.43669 0
M  V30 4843 H 438.465 -0.75248 -2.85345 0
M  V30 4844 H 438.546 -1.99712 -1.5984 0
M  V30 4845 H 438.19 -3.78827 -3.38308 0
M  V30 4846 H 438.12 -2.51466 -4.6268 0
M  V30 4847 H 440.611 -2.14885 -3.10858 0
M  V30 4848 H 440.924 -4.89432 -5.98061 0
M  V30 4849 H 439.269 -4.39621 -5.38292 0
M  V30 4850 H 442.46 -2.73063 -3.80203 0
M  V30 4851 H 442.633 -3.9824 -5.11184 0
M  V30 4852 N 436.039 1.36541 -0.78704 0
M  V30 4853 C 436.986 2.30082 -0.181901 0
M  V30 4854 C 437.956 1.5186 0.672896 0
M  V30 4855 O 439.141 1.80374 0.622072 0
M  V30 4856 C 436.281 3.3835 0.679197 0
M  V30 4857 C 435.394 4.31565 -0.193882 0
M  V30 4858 C 434.529 5.26915 0.673364 0
M  V30 4859 C 433.568 6.11769 -0.201315 0
M  V30 4860 N 432.705 6.99315 0.624777 0
M  V30 4861 H 437.545 2.81248 -0.985064 0
M  V30 4862 H 435.082 1.38437 -0.497342 0
M  V30 4863 H 437.04 3.99767 1.19341 0
M  V30 4864 H 435.67 2.8851 1.44781 0
M  V30 4865 H 434.722 3.71323 -0.826044 0
M  V30 4866 H 436.034 4.91191 -0.867937 0
M  V30 4867 H 435.188 5.9361 1.25348 0
M  V30 4868 H 433.927 4.67737 1.38105 0
M  V30 4869 H 432.932 5.44039 -0.793849 0
M  V30 4870 H 434.157 6.73022 -0.906568 0
M  V30 4871 H 432.103 6.42648 1.3168 0
M  V30 4872 H 432.02 7.56 0.00835237 0
M  V30 4873 H 433.288 7.70382 1.18879 0
M  V30 4874 N 437.518 0.538854 1.48102 0
M  V30 4875 C 438.767 0.0059532 2.01699 0
M  V30 4876 C 439.08 -1.34476 1.42041 0
M  V30 4877 O 440.286 -1.96653 1.87189 0
M  V30 4878 C 438.742 -0.0397627 3.59878 0
M  V30 4879 C 438.35 1.30659 4.28523 0
M  V30 4880 C 440.094 -0.521024 4.2129 0
M  V30 4881 C 438.001 1.22098 5.78659 0
M  V30 4882 H 436.931 -0.00154456 0.753998 0
M  V30 4883 H 439.582 0.683963 1.70277 0
M  V30 4884 H 437.964 -0.783037 3.88181 0
M  V30 4885 H 439.138 2.06613 4.11883 0
M  V30 4886 H 437.453 1.7243 3.79021 0
M  V30 4887 H 440.05 -0.603184 5.31287 0
M  V30 4888 H 440.393 -1.52885 3.8721 0
M  V30 4889 H 440.926 0.166834 3.9745 0
M  V30 4890 H 437.665 2.20424 6.17328 0
M  V30 4891 H 437.185 0.50295 5.97688 0
M  V30 4892 H 438.864 0.915345 6.40492 0
M  V30 4893 N 438.996 -1.55193 0.274407 0
M  V30 4894 C 439.929 -2.18606 -0.654712 0
M  V30 4895 C 440.907 -1.14677 -1.15273 0
M  V30 4896 O 442.091 -1.43198 -1.22583 0
M  V30 4897 C 439.218 -2.80875 -1.89281 0
M  V30 4898 C 438.264 -3.981 -1.53032 0
M  V30 4899 S 439.097 -5.32025 -0.609107 0
M  V30 4900 C 440.253 -5.97761 -1.85559 0
M  V30 4901 H 440.486 -2.97074 -0.115894 0
M  V30 4902 H 438.019 -1.54288 0.05867 0
M  V30 4903 H 439.977 -3.17381 -2.60345 0
M  V30 4904 H 438.638 -2.02302 -2.40277 0
M  V30 4905 H 437.831 -4.40356 -2.45158 0
M  V30 4906 H 437.433 -3.63013 -0.899874 0
M  V30 4907 H 439.725 -6.16951 -2.7996 0
M  V30 4908 H 440.668 -6.92545 -1.47605 0
M  V30 4909 H 441.076 -5.27113 -2.02021 0
M  V30 4910 N 440.474 -0.00167713 -1.576 0
M  V30 4911 C 441.422 1.0074 -2.09652 0
M  V30 4912 C 442.416 1.35483 -1.01689 0
M  V30 4913 O 443.622 1.34028 -1.20152 0
M  V30 4914 H 439.997 0.342537 -0.669457 0
M  V30 4915 H 441.968 0.542841 -2.93421 0
M  V30 4916 C 440.717 2.2899 -2.61647 0
M  V30 4917 H 440.04 2.03124 -3.44355 0
M  V30 4918 H 441.48 2.9787 -3.01744 0
M  V30 4919 C 439.939 3.00085 -1.53136 0
M  V30 4920 O 440.469 3.91135 -0.91524 0
M  V30 4921 N 438.675 2.6194 -1.25841 0
M  V30 4922 H 438.222 1.8798 -1.76129 0
M  V30 4923 H 438.18 3.09822 -0.534576 0
M  V30 4924 N 441.952 1.55251 0.271103 0
M  V30 4925 C 443.177 1.80306 1.02491 0
M  V30 4926 C 443.602 0.575457 1.79081 0
M  V30 4927 O 442.96 -0.474987 1.74967 0
M  V30 4928 C 443.008 3.02832 1.95768 0
M  V30 4929 O 442.112 2.78051 3.04568 0
M  V30 4930 H 441.453 0.595896 0.292923 0
M  V30 4931 H 443.983 2.02397 0.299436 0
M  V30 4932 H 443.993 3.31616 2.37686 0
M  V30 4933 H 442.668 3.9183 1.39434 0
M  V30 4934 H 441.245 2.60369 2.66951 0
M  V30 4935 N 443.43 -0.535701 1.48216 0
M  V30 4936 C 444.707 -1.29683 1.46429 0
M  V30 4937 C 445.087 -2.10391 0.172852 0
M  V30 4938 O 444.435 -2.12282 -0.845488 0
M  V30 4939 C 444.645 -2.18313 2.72287 0
M  V30 4940 C 445.993 -2.78639 3.20383 0
M  V30 4941 O 447.017 -2.28604 2.73164 0
M  V30 4942 O 445.876 -3.69636 4.02531 0
M  V30 4943 H 442.97 -0.585026 0.584529 0
M  V30 4944 H 445.516 -0.552827 1.60443 0
M  V30 4945 H 444.288 -1.58421 3.57797 0
M  V30 4946 H 443.911 -2.99971 2.60966 0
M  V30 4947 N 444.908 -1.36708 -0.784132 0
M  V30 4948 C 446.157 -1.30559 -1.53744 0
M  V30 4949 C 446.47 0.111374 -1.95283 0
M  V30 4950 O 447.676 0.29527 -2.6989 0
M  V30 4951 C 446.132 -2.29098 -2.77565 0
M  V30 4952 C 445.74 -3.76258 -2.43174 0
M  V30 4953 C 447.484 -2.31936 -3.55536 0
M  V30 4954 C 445.391 -4.6656 -3.63422 0
M  V30 4955 H 444.321 -0.48518 -0.577162 0
M  V30 4956 H 446.972 -1.62101 -0.859981 0
M  V30 4957 H 445.354 -1.90557 -3.47137 0
M  V30 4958 H 446.528 -4.23565 -1.81465 0
M  V30 4959 H 444.843 -3.76246 -1.78403 0
M  V30 4960 H 447.44 -2.9661 -4.44889 0
M  V30 4961 H 447.783 -1.3294 -3.94503 0
M  V30 4962 H 448.316 -2.6912 -2.92949 0
M  V30 4963 H 445.055 -5.66638 -3.29547 0
M  V30 4964 H 444.575 -4.23966 -4.24279 0
M  V30 4965 H 446.254 -4.8309 -4.30387 0
M  V30 4966 N 446.386 1.0089 -1.21074 0
M  V30 4967 C 447.611 1.78727 -1.05221 0
M  V30 4968 C 448.036 1.83932 0.393795 0
M  V30 4969 O 447.394 1.28004 1.28393 0
M  V30 4970 C 447.442 3.20665 -1.64944 0
M  V30 4971 O 446.546 4.02632 -0.892273 0
M  V30 4972 H 445.887 0.550973 -0.370574 0
M  V30 4973 H 448.417 1.26847 -1.60534 0
M  V30 4974 H 448.427 3.71352 -1.69002 0
M  V30 4975 H 447.102 3.16191 -2.70177 0
M  V30 4976 H 445.679 3.61207 -0.926492 0
M  V30 4977 N 447.864 1.01787 1.20321 0
M  V30 4978 C 449.089 0.727009 1.9424 0
M  V30 4979 C 449.514 -0.706179 1.74341 0
M  V30 4980 O 448.872 -1.48609 1.03852 0
M  V30 4981 C 448.92 1.06958 3.44372 0
M  V30 4982 O 448.024 0.181983 4.11998 0
M  V30 4983 H 447.365 0.269626 0.606793 0
M  V30 4984 H 449.895 1.36158 1.52716 0
M  V30 4985 H 449.905 1.02182 3.94997 0
M  V30 4986 H 448.58 2.11378 3.58179 0
M  V30 4987 H 447.157 0.287378 3.71791 0
M  V30 4988 N 449.342 -1.36122 0.79427 0
M  V30 4989 C 450.589 -1.99111 0.368905 0
M  V30 4990 C 450.917 -1.63032 -1.0607 0
M  V30 4991 O 450.172 -0.879303 -1.74833 0
M  V30 4992 C 450.471 -3.5409 0.48527 0
M  V30 4993 C 450.137 -4.10003 1.87638 0
M  V30 4994 C 448.799 -4.24986 2.257 0
M  V30 4995 C 451.151 -4.40423 2.78706 0
M  V30 4996 C 448.479 -4.67701 3.54221 0
M  V30 4997 C 450.831 -4.84573 4.0666 0
M  V30 4998 C 449.495 -4.97761 4.44737 0
M  V30 4999 H 448.765 -0.7286 0.134992 0
M  V30 5000 H 451.412 -1.62534 1.01267 0
M  V30 5001 H 449.717 -3.91052 -0.241984 0
M  V30 5002 H 451.414 -4.00766 0.137109 0
M  V30 5003 H 448.004 -3.98784 1.57064 0
M  V30 5004 H 452.188 -4.28412 2.50553 0
M  V30 5005 H 447.444 -4.761 3.83587 0
M  V30 5006 H 451.618 -5.07074 4.77336 0
M  V30 5007 H 449.245 -5.30618 5.44379 0
M  V30 5008 N 450.82 -0.546701 -1.47814 0
M  V30 5009 C 451.767 0.206854 -2.29871 0
M  V30 5010 C 452.737 0.918235 -1.38411 0
M  V30 5011 O 453.922 0.915991 -1.67375 0
M  V30 5012 C 451.062 1.23746 -3.22151 0
M  V30 5013 C 450.175 0.533216 -4.28697 0
M  V30 5014 C 449.31 1.5482 -5.08138 0
M  V30 5015 C 448.349 0.828347 -6.06469 0
M  V30 5016 N 447.486 1.78966 -6.78908 0
M  V30 5017 H 452.326 -0.499037 -2.93792 0
M  V30 5018 H 449.863 -0.25793 -1.44821 0
M  V30 5019 H 451.821 1.84746 -3.74065 0
M  V30 5020 H 450.451 1.91151 -2.60117 0
M  V30 5021 H 449.503 -0.191089 -3.7992 0
M  V30 5022 H 450.815 -0.0311987 -4.9879 0
M  V30 5023 H 449.969 2.23202 -5.6415 0
M  V30 5024 H 448.708 2.14652 -4.37922 0
M  V30 5025 H 447.713 0.130539 -5.49645 0
M  V30 5026 H 448.938 0.235907 -6.7869 0
M  V30 5027 H 446.884 2.37675 -6.1143 0
M  V30 5028 H 446.801 1.27712 -7.45135 0
M  V30 5029 H 448.069 2.46496 -7.395 0
M  V30 5030 N 452.299 1.55045 -0.282633 0
M  V30 5031 C 453.249 2.19514 0.616249 0
M  V30 5032 C 454.233 1.16216 1.11277 0
M  V30 5033 O 455.425 1.42004 1.05659 0
M  V30 5034 C 452.554 2.92548 1.7964 0
M  V30 5035 C 451.64 4.03142 1.31671 0
M  V30 5036 N 452.031 5.0276 0.553695 0
M  V30 5037 C 450.329 4.1635 1.59903 0
M  V30 5038 C 451.03 5.80923 0.30054 0
M  V30 5039 N 450.006 5.3651 0.875116 0
M  V30 5040 H 453.808 2.93889 0.0255363 0
M  V30 5041 H 451.322 1.62169 -0.0865362 0
M  V30 5042 H 453.319 3.37188 2.45173 0
M  V30 5043 H 451.979 2.19685 2.39099 0
M  V30 5044 H 452.99 5.17512 0.20032 0
M  V30 5045 H 449.667 3.54682 2.20243 0
M  V30 5046 H 451.057 6.7118 -0.311053 0
M  V30 5047 N 453.777 0.010035 1.57597 0
M  V30 5048 C 455.026 -0.671945 1.90178 0
M  V30 5049 C 455.339 -1.74376 0.886131 0
M  V30 5050 O 456.545 -2.48107 1.10252 0
M  V30 5051 C 455.001 -1.24636 3.3763 0
M  V30 5052 C 454.609 -0.208838 4.47513 0
M  V30 5053 C 456.353 -1.90595 3.79307 0
M  V30 5054 C 454.26 -0.793814 5.86048 0
M  V30 5055 H 453.19 -0.25474 0.709665 0
M  V30 5056 H 455.841 0.0722206 1.83358 0
M  V30 5057 H 454.223 -2.04152 3.3932 0
M  V30 5058 H 455.397 0.562463 4.57354 0
M  V30 5059 H 453.712 0.350889 4.14919 0
M  V30 5060 H 456.309 -2.35284 4.80151 0
M  V30 5061 H 456.652 -2.74074 3.13352 0
M  V30 5062 H 457.185 -1.17798 3.79958 0
M  V30 5063 H 453.924 0.00240855 6.555 0
M  V30 5064 H 453.444 -1.53404 5.79851 0
M  V30 5065 H 455.123 -1.2894 6.34022 0
M  V30 5066 N 455.255 -1.55392 -0.262866 0
M  V30 5067 C 456.203 -1.8977 -1.345 0
M  V30 5068 C 457.197 -0.775063 -1.50629 0
M  V30 5069 O 458.403 -0.959519 -1.52293 0
M  V30 5070 H 454.778 -0.602467 -0.450041 0
M  V30 5071 H 456.749 -2.80147 -1.02762 0
M  V30 5072 C 455.498 -2.19501 -2.69657 0
M  V30 5073 H 454.821 -3.05378 -2.5804 0
M  V30 5074 H 456.261 -2.47469 -3.44289 0
M  V30 5075 C 454.72 -1.00597 -3.21531 0
M  V30 5076 O 455.25 -0.245768 -4.00947 0
M  V30 5077 N 453.456 -0.800911 -2.79345 0
M  V30 5078 H 453.003 -1.42079 -2.14875 0
M  V30 5079 H 452.961 -0.00697996 -3.14399 0
M  V30 5080 N 456.733 0.527833 -1.48498 0
M  V30 5081 C 457.643 1.65907 -1.65867 0
M  V30 5082 C 458.659 1.6537 -0.541192 0
M  V30 5083 O 459.835 1.84282 -0.812534 0
M  V30 5084 C 456.9 3.02364 -1.69637 0
M  V30 5085 C 455.961 3.1374 -2.93028 0
M  V30 5086 C 455.194 4.43688 -2.96609 0
M  V30 5087 O 455.417 5.30913 -2.08538 0
M  V30 5088 O 454.351 4.59475 -3.88802 0
M  V30 5089 H 458.177 1.5419 -2.61647 0
M  V30 5090 H 455.762 0.701163 -1.31924 0
M  V30 5091 H 457.644 3.83515 -1.74625 0
M  V30 5092 H 456.319 3.14401 -0.770312 0
M  V30 5093 H 455.226 2.31877 -2.93571 0
M  V30 5094 H 456.559 3.06621 -3.85026 0
M  V30 5095 N 458.211 1.37122 0.776871 0
M  V30 5096 C 459.141 1.35164 1.90402 0
M  V30 5097 C 460.122 0.221069 1.68657 0
M  V30 5098 O 461.307 0.420642 1.8959 0
M  V30 5099 C 458.437 1.15274 3.27611 0
M  V30 5100 C 457.391 2.25289 3.63908 0
M  V30 5101 C 456.717 1.90527 4.99603 0
M  V30 5102 C 458.017 3.67446 3.71188 0
M  V30 5103 H 459.711 2.29482 1.92297 0
M  V30 5104 H 457.257 1.10465 0.923773 0
M  V30 5105 H 459.21 1.12536 4.06096 0
M  V30 5106 H 457.934 0.174102 3.26136 0
M  V30 5107 H 456.593 2.27174 2.87728 0
M  V30 5108 H 456.241 0.91206 4.94662 0
M  V30 5109 H 455.941 2.64193 5.24858 0
M  V30 5110 H 457.465 1.89367 5.80493 0
M  V30 5111 H 458.879 3.67719 4.39836 0
M  V30 5112 H 457.276 4.40123 4.07936 0
M  V30 5113 H 458.346 4.01443 2.71977 0
M  V30 5114 N 459.689 -1.00246 1.21608 0
M  V30 5115 C 460.636 -2.09073 0.977613 0
M  V30 5116 C 461.606 -1.65815 -0.097297 0
M  V30 5117 O 462.791 -1.90734 0.0503445 0
M  V30 5118 C 459.931 -3.40671 0.551133 0
M  V30 5119 C 459.044 -3.97326 1.69576 0
M  V30 5120 C 458.179 -5.17043 1.2182 0
M  V30 5121 C 457.218 -5.65813 2.335 0
M  V30 5122 N 456.355 -6.76778 1.86859 0
M  V30 5123 H 461.195 -2.28806 1.90924 0
M  V30 5124 H 458.732 -1.12186 0.951452 0
M  V30 5125 H 460.69 -4.16225 0.285097 0
M  V30 5126 H 459.32 -3.20967 -0.343489 0
M  V30 5127 H 458.372 -3.18734 2.07637 0
M  V30 5128 H 459.684 -4.29511 2.53617 0
M  V30 5129 H 458.838 -5.99852 0.908975 0
M  V30 5130 H 457.577 -4.86458 0.347869 0
M  V30 5131 H 456.582 -4.81599 2.65222 0
M  V30 5132 H 457.807 -5.98427 3.21033 0
M  V30 5133 H 455.753 -6.47994 1.02174 0
M  V30 5134 H 455.67 -7.08231 2.64471 0
M  V30 5135 H 456.938 -7.63116 1.58978 0
M  V30 5136 N 461.167 -1.02423 -1.1978 0
M  V30 5137 C 462.392 -0.7373 -1.93852 0
M  V30 5138 C 462.817 0.696923 -1.74713 0
M  V30 5139 O 462.175 1.48056 -1.04638 0
M  V30 5140 C 462.223 -1.08783 -3.438 0
M  V30 5141 O 461.327 -0.20383 -4.11896 0
M  V30 5142 H 460.668 -0.27284 -0.605355 0
M  V30 5143 H 463.198 -1.36966 -1.51992 0
M  V30 5144 H 463.208 -1.04276 -3.9445 0
M  V30 5145 H 461.883 -2.13274 -3.57053 0
M  V30 5146 H 460.46 -0.307091 -3.71633 0
M  V30 5147 N 462.645 1.35699 -0.801477 0
M  V30 5148 C 463.575 2.32436 -0.222658 0
M  V30 5149 C 464.556 1.5723 0.649057 0
M  V30 5150 O 465.741 1.85324 0.580387 0
M  V30 5151 C 462.871 3.41469 0.633719 0
M  V30 5152 C 461.825 4.27774 -0.139083 0
M  V30 5153 C 461.151 5.28082 0.838666 0
M  V30 5154 C 462.451 5.04946 -1.33517 0
M  V30 5155 H 464.145 2.81094 -1.03086 0
M  V30 5156 H 461.691 1.35146 -0.497155 0
M  V30 5157 H 463.644 4.08143 1.04868 0
M  V30 5158 H 462.368 2.91408 1.47475 0
M  V30 5159 H 461.027 3.62673 -0.535156 0
M  V30 5160 H 460.675 4.7429 1.67506 0
M  V30 5161 H 460.375 5.86695 0.32594 0
M  V30 5162 H 461.899 5.97628 1.25194 0
M  V30 5163 H 463.313 5.64593 -0.995349 0
M  V30 5164 H 461.71 5.7303 -1.78202 0
M  V30 5165 H 462.78 4.35886 -2.12442 0
M  V30 5166 N 464.123 0.554532 1.47522 0
M  V30 5167 C 465.033 -0.197865 2.33764 0
M  V30 5168 C 466.049 -0.914576 1.48025 0
M  V30 5169 O 467.225 -0.884067 1.80959 0
M  V30 5170 C 464.29 -1.21628 3.24665 0
M  V30 5171 C 463.351 -0.507283 4.26292 0
M  V30 5172 C 462.584 -1.47718 5.1285 0
M  V30 5173 O 462.807 -2.7118 5.01814 0
M  V30 5174 O 461.741 -1.00313 5.93482 0
M  V30 5175 H 465.567 0.50949 2.99396 0
M  V30 5176 H 463.152 0.315176 1.46038 0
M  V30 5177 H 465.034 -1.80421 3.80823 0
M  V30 5178 H 463.709 -1.9056 2.61665 0
M  V30 5179 H 462.616 0.121778 3.73902 0
M  V30 5180 H 463.949 0.140544 4.91999 0
M  V30 5181 N 465.601 -1.54893 0.290851 0
M  V30 5182 C 466.551 -2.19838 -0.604599 0
M  V30 5183 C 467.535 -1.16805 -1.10659 0
M  V30 5184 O 468.727 -1.42562 -1.04905 0
M  V30 5185 C 465.856 -2.93497 -1.78086 0
M  V30 5186 C 464.942 -4.03835 -1.29531 0
M  V30 5187 N 465.333 -5.03047 -0.527024 0
M  V30 5188 C 463.631 -4.17192 -1.57693 0
M  V30 5189 C 464.332 -5.81074 -0.269728 0
M  V30 5190 N 463.308 -5.36966 -0.846651 0
M  V30 5191 H 467.11 -2.93898 -0.00995032 0
M  V30 5192 H 464.624 -1.62121 0.0951353 0
M  V30 5193 H 466.621 -3.38484 -2.43381 0
M  V30 5194 H 465.281 -2.2095 -2.37931 0
M  V30 5195 H 466.292 -5.17611 -0.172872 0
M  V30 5196 H 462.969 -3.55845 -2.18359 0
M  V30 5197 H 464.359 -6.71005 0.346643 0
M  V30 5198 N 467.08 -0.0183926 -1.57589 0
M  V30 5199 C 468.496 0.337897 -1.55982 0
M  V30 5200 C 468.696 1.73604 -1.02294 0
M  V30 5201 O 467.752 2.43589 -0.664895 0
M  V30 5202 C 469.065 0.196305 -3.00059 0
M  V30 5203 C 470.613 0.269875 -3.11834 0
M  V30 5204 C 471.088 0.157197 -4.5773 0
M  V30 5205 N 472.579 0.214521 -4.62703 0
M  V30 5206 C 473.314 0.150955 -5.73201 0
M  V30 5207 N 472.81 0.0369212 -6.9279 0
M  V30 5208 N 474.603 0.204162 -5.61729 0
M  V30 5209 H 466.754 -0.93279 -1.90821 0
M  V30 5210 H 469.017 -0.359253 -0.877292 0
M  V30 5211 H 468.723 -0.766383 -3.43248 0
M  V30 5212 H 468.597 0.970908 -3.6449 0
M  V30 5213 H 470.984 1.22302 -2.68563 0
M  V30 5214 H 471.065 -0.534918 -2.50144 0
M  V30 5215 H 470.709 -0.792479 -5.01679 0
M  V30 5216 H 470.639 0.980717 -5.17387 0
M  V30 5217 H 473.13 0.303238 -3.76681 0
M  V30 5218 H 473.443 -0.00518321 -7.728 0
M  V30 5219 H 471.788 0.0022886 -6.95 0
M  V30 5220 H 474.979 0.291575 -4.67191 0
M  V30 5221 H 475.152 0.15116 -6.47824 0
M  V30 5222 N 468.558 1.5553 0.254621 0
M  V30 5223 C 469.521 1.88872 1.29846 0
M  V30 5224 C 470.521 0.764591 1.41459 0
M  V30 5225 O 471.711 1.03265 1.40293 0
M  V30 5226 C 468.843 2.11032 2.67728 0
M  V30 5227 H 470.036 2.82201 1.01502 0
M  V30 5228 H 467.589 1.48303 0.493556 0
M  V30 5229 H 468.324 1.20146 3.01223 0
M  V30 5230 H 468.109 2.92895 2.60682 0
M  V30 5231 H 469.599 2.38038 3.43115 0
M  V30 5232 N 470.036 -0.519951 1.48776 0
M  V30 5233 C 470.999 -1.60574 1.6355 0
M  V30 5234 C 471.999 -1.52557 0.508234 0
M  V30 5235 O 473.189 -1.56047 0.774262 0
M  V30 5236 C 470.321 -3.00211 1.61512 0
M  V30 5237 H 471.514 -1.4881 2.60376 0
M  V30 5238 H 469.067 -0.742772 1.37523 0
M  V30 5239 H 469.802 -3.17471 0.662009 0
M  V30 5240 H 469.587 -3.07439 2.43359 0
M  V30 5241 H 471.077 -3.79134 1.75064 0
M  V30 5242 N 471.514 -1.37532 -0.769588 0
M  V30 5243 C 472.461 -1.3347 -1.88293 0
M  V30 5244 C 473.431 -0.199891 -1.64893 0
M  V30 5245 O 474.616 -0.389594 -1.8678 0
M  V30 5246 C 471.756 -1.14968 -3.25387 0
M  V30 5247 C 470.869 -2.37698 -3.60727 0
M  V30 5248 C 470.004 -2.12051 -4.8704 0
M  V30 5249 C 469.043 -3.30636 -5.15117 0
M  V30 5250 N 468.18 -3.04527 -6.3262 0
M  V30 5251 H 473.02 -2.28658 -1.911 0
M  V30 5252 H 470.557 -1.13622 -0.934257 0
M  V30 5253 H 472.515 -1.02261 -4.04473 0
M  V30 5254 H 471.145 -0.234263 -3.21949 0
M  V30 5255 H 470.197 -2.61137 -2.76608 0
M  V30 5256 H 471.509 -3.26131 -3.77413 0
M  V30 5257 H 470.663 -1.96388 -5.74035 0
M  V30 5258 H 469.402 -1.20959 -4.72462 0
M  V30 5259 H 468.407 -3.46836 -4.26597 0
M  V30 5260 H 469.632 -4.22582 -5.31603 0
M  V30 5261 H 467.578 -2.16067 -6.19396 0
M  V30 5262 H 467.495 -3.86503 -6.49732 0
M  V30 5263 H 468.763 -2.92485 -7.22546 0
M  V30 5264 N 472.992 0.995999 -1.22138 0
M  V30 5265 C 473.955 2.06711 -0.990109 0
M  V30 5266 C 474.955 1.60744 0.0422978 0
M  V30 5267 O 476.145 1.73095 -0.195895 0
M  V30 5268 C 473.277 3.37288 -0.49491 0
M  V30 5269 H 474.47 2.28661 -1.94047 0
M  V30 5270 H 472.023 1.16711 -1.03963 0
M  V30 5271 H 472.758 3.21022 0.459948 0
M  V30 5272 H 472.543 3.71986 -1.23971 0
M  V30 5273 H 474.033 4.16103 -0.353253 0
M  V30 5274 N 474.47 1.03057 1.19235 0
M  V30 5275 C 475.433 0.617418 2.20727 0
M  V30 5276 C 476.433 -0.319856 1.57587 0
M  V30 5277 O 477.623 -0.106633 1.73873 0
M  V30 5278 C 474.755 -0.096296 3.40764 0
M  V30 5279 H 475.948 1.51544 2.58794 0
M  V30 5280 H 473.501 0.821949 1.32942 0
M  V30 5281 H 474.236 -1.00859 3.08217 0
M  V30 5282 H 474.021 0.577217 3.87828 0
M  V30 5283 H 475.511 -0.372219 4.15938 0
M  V30 5284 N 475.948 -1.35272 0.808662 0
M  V30 5285 C 476.858 -2.33546 0.222079 0
M  V30 5286 C 477.874 -1.6196 -0.636011 0
M  V30 5287 O 479.05 -1.93822 -0.547274 0
M  V30 5288 C 476.115 -3.41148 -0.61795 0
M  V30 5289 C 475.176 -4.28507 0.260875 0
M  V30 5290 C 474.409 -5.3097 -0.539156 0
M  V30 5291 O 474.632 -5.42123 -1.77367 0
M  V30 5292 O 473.566 -6.01858 0.0710526 0
M  V30 5293 H 477.392 -2.85515 1.03512 0
M  V30 5294 H 474.977 -1.38079 0.570495 0
M  V30 5295 H 476.859 -4.06889 -1.09634 0
M  V30 5296 H 475.534 -2.91447 -1.40855 0
M  V30 5297 H 474.441 -3.6574 0.786451 0
M  V30 5298 H 475.774 -4.81611 1.01547 0
M  V30 5299 N 477.426 -0.562348 -1.47226 0
M  V30 5300 C 478.389 0.172056 -2.28553 0
M  V30 5301 C 479.389 0.837928 -1.37242 0
M  V30 5302 O 480.579 0.693001 -1.59822 0
M  V30 5303 C 477.711 1.25223 -3.17068 0
M  V30 5304 H 478.904 -0.542401 -2.94954 0
M  V30 5305 H 476.457 -0.319493 -1.53 0
M  V30 5306 H 477.192 1.99892 -2.55369 0
M  V30 5307 H 476.977 0.779515 -3.84273 0
M  V30 5308 H 478.467 1.76791 -3.78332 0
M  V30 5309 N 478.904 1.54736 -0.299062 0
M  V30 5310 C 479.814 2.27127 0.587413 0
M  V30 5311 C 480.83 1.30575 1.15005 0
M  V30 5312 O 482.006 1.63554 1.17525 0
M  V30 5313 C 479.071 2.99645 1.74395 0
M  V30 5314 C 478.132 4.11731 1.21559 0
M  V30 5315 C 477.365 4.80781 2.317 0
M  V30 5316 O 477.588 4.4918 3.51558 0
M  V30 5317 O 476.522 5.68226 1.98501 0
M  V30 5318 H 480.348 3.037 0.000250109 0
M  V30 5319 H 477.933 1.49256 -0.0655919 0
M  V30 5320 H 479.815 3.45138 2.4178 0
M  V30 5321 H 478.49 2.25969 2.31775 0
M  V30 5322 H 477.397 3.70641 0.507514 0
M  V30 5323 H 478.73 4.87379 0.687233 0
M  V30 5324 N 480.382 0.0267497 1.57577 0
M  V30 5325 C 481.315 -0.99059 2.05579 0
M  V30 5326 C 482.293 -1.31884 0.951065 0
M  V30 5327 O 483.477 -1.43592 1.22121 0
M  V30 5328 C 480.604 -2.31125 2.47586 0
M  V30 5329 C 479.65 -2.13777 3.69055 0
M  V30 5330 S 480.483 -1.4388 5.15809 0
M  V30 5331 C 481.639 -2.77321 5.6111 0
M  V30 5332 H 481.872 -0.581976 2.91548 0
M  V30 5333 H 479.405 -0.184876 1.53289 0
M  V30 5334 H 481.363 -3.07049 2.72454 0
M  V30 5335 H 480.024 -2.6912 1.61967 0
M  V30 5336 H 479.217 -3.11405 3.96287 0
M  V30 5337 H 478.819 -1.45996 3.44327 0
M  V30 5338 H 481.111 -3.73565 5.65204 0
M  V30 5339 H 482.054 -2.54756 6.60685 0
M  V30 5340 H 482.462 -2.82459 4.88751 0
M  V30 5341 N 481.861 -1.55662 -0.24637 0
M  V30 5342 C 482.808 -1.90361 -1.30504 0
M  V30 5343 C 483.778 -0.757905 -1.47801 0
M  V30 5344 O 484.963 -1.01161 -1.61775 0
M  V30 5345 C 482.103 -2.2042 -2.65535 0
M  V30 5346 C 481.216 -3.47799 -2.56242 0
M  V30 5347 C 480.351 -3.67426 -3.8363 0
M  V30 5348 C 479.39 -4.88403 -3.68956 0
M  V30 5349 N 478.527 -5.04548 -4.88237 0
M  V30 5350 H 483.367 -2.80645 -1.00213 0
M  V30 5351 H 480.904 -1.38924 -0.483577 0
M  V30 5352 H 482.862 -2.35853 -3.44135 0
M  V30 5353 H 481.492 -1.3334 -2.93973 0
M  V30 5354 H 480.544 -3.40694 -1.69208 0
M  V30 5355 H 481.856 -4.36544 -2.4131 0
M  V30 5356 H 481.01 -3.82821 -4.70673 0
M  V30 5357 H 479.749 -2.76914 -4.01459 0
M  V30 5358 H 478.754 -4.72984 -2.80296 0
M  V30 5359 H 479.979 -5.80375 -3.52621 0
M  V30 5360 H 477.925 -4.16974 -5.06427 0
M  V30 5361 H 477.842 -5.87384 -4.75937 0
M  V30 5362 H 479.11 -5.24355 -5.76777 0
M  V30 5363 N 483.339 0.512053 -1.4905 0
M  V30 5364 C 484.286 1.6148 -1.64902 0
M  V30 5365 C 485.256 1.58687 -0.490673 0
M  V30 5366 O 486.441 1.76842 -0.71636 0
M  V30 5367 C 483.581 2.99676 -1.71139 0
M  V30 5368 C 482.694 3.12568 -2.98203 0
M  V30 5369 C 481.829 4.4143 -2.95487 0
M  V30 5370 C 480.868 4.47916 -4.17179 0
M  V30 5371 N 480.005 5.68191 -4.12437 0
M  V30 5372 H 484.845 1.47271 -2.59066 0
M  V30 5373 H 482.382 0.716713 -1.28459 0
M  V30 5374 H 484.34 3.79761 -1.72736 0
M  V30 5375 H 482.97 3.12614 -0.804508 0
M  V30 5376 H 482.022 2.25618 -3.06269 0
M  V30 5377 H 483.334 3.1322 -3.88194 0
M  V30 5378 H 482.488 5.29825 -2.95585 0
M  V30 5379 H 481.227 4.43326 -2.03256 0
M  V30 5380 H 480.232 3.57925 -4.17337 0
M  V30 5381 H 481.457 4.47744 -5.1059 0
M  V30 5382 H 479.403 5.7095 -3.23036 0
M  V30 5383 H 479.32 5.70413 -4.96151 0
M  V30 5384 H 480.588 6.58823 -4.16621 0
M  V30 5385 N 484.817 1.37938 0.762283 0
M  V30 5386 C 486.233 1.18945 1.06415 0
M  V30 5387 C 486.433 0.0321163 2.01474 0
M  V30 5388 O 485.489 -0.624844 2.44647 0
M  V30 5389 C 486.802 2.51218 1.65258 0
M  V30 5390 C 488.35 2.57824 1.7747 0
M  V30 5391 C 488.825 3.90251 2.39725 0
M  V30 5392 N 490.316 3.91744 2.47166 0
M  V30 5393 C 491.051 4.90966 2.96209 0
M  V30 5394 N 490.547 6.00585 3.45354 0
M  V30 5395 N 492.34 4.78363 2.9517 0
M  V30 5396 H 484.491 2.11994 0.131301 0
M  V30 5397 H 486.754 0.940262 0.120879 0
M  V30 5398 H 486.46 3.36317 1.02878 0
M  V30 5399 H 486.334 2.68989 2.64433 0
M  V30 5400 H 488.721 1.73126 2.3898 0
M  V30 5401 H 488.802 2.43928 0.770241 0
M  V30 5402 H 488.446 4.75368 1.78852 0
M  V30 5403 H 488.376 4.01454 3.40796 0
M  V30 5404 H 490.867 3.12563 2.12397 0
M  V30 5405 H 491.18 6.72236 3.81207 0
M  V30 5406 H 489.525 6.04217 3.43434 0
M  V30 5407 H 492.716 3.91841 2.56082 0
M  V30 5408 H 492.889 5.55843 3.33081 0
M  V30 5409 N 486.295 -0.989507 1.22664 0
M  V30 5410 C 487.258 -2.06183 1.00106 0
M  V30 5411 C 488.258 -1.60765 -0.0337726 0
M  V30 5412 O 489.448 -1.72989 0.205072 0
M  V30 5413 C 486.58 -3.37021 0.51279 0
M  V30 5414 H 487.773 -2.27629 1.95256 0
M  V30 5415 H 485.326 -1.16158 1.0458 0
M  V30 5416 H 486.061 -3.21261 -0.442917 0
M  V30 5417 H 485.846 -3.71323 1.25942 0
M  V30 5418 H 487.336 -4.1591 0.375315 0
M  V30 5419 N 487.773 -1.03688 -1.18687 0
M  V30 5420 C 488.705 -0.582696 -2.21669 0
M  V30 5421 C 489.718 0.345656 -1.59088 0
M  V30 5422 O 490.907 0.140776 -1.77944 0
M  V30 5423 C 488.007 0.169204 -3.38477 0
M  V30 5424 C 487.18 -0.766079 -4.30639 0
M  V30 5425 C 486.239 -0.0581541 -5.26168 0
M  V30 5426 O 485.265 -0.687346 -5.65035 0
M  V30 5427 N 486.467 1.20981 -5.67753 0
M  V30 5428 H 489.232 -1.46843 -2.61261 0
M  V30 5429 H 486.793 -0.916896 -1.33434 0
M  V30 5430 H 488.785 0.652543 -3.99405 0
M  V30 5431 H 487.355 0.956435 -2.97609 0
M  V30 5432 H 486.575 -1.42935 -3.67373 0
M  V30 5433 H 487.863 -1.40146 -4.89118 0
M  V30 5434 H 487.261 1.74159 -5.38224 0
M  V30 5435 H 485.818 1.6375 -6.30896 0
M  V30 5436 N 489.251 1.34841 -0.815825 0
M  V30 5437 C 490.198 2.29644 -0.230664 0
M  V30 5438 C 491.168 1.53253 0.640533 0
M  V30 5439 O 492.353 1.81653 0.583672 0
M  V30 5440 C 489.493 3.39715 0.607275 0
M  V30 5441 C 488.606 4.31056 -0.28538 0
M  V30 5442 C 487.741 5.28225 0.561446 0
M  V30 5443 C 486.78 6.11204 -0.331035 0
M  V30 5444 N 485.917 7.00483 0.476302 0
M  V30 5445 H 490.757 2.79095 -1.0445 0
M  V30 5446 H 488.294 1.37351 -0.526595 0
M  V30 5447 H 490.252 4.02208 1.10835 0
M  V30 5448 H 488.882 2.91517 1.38629 0
M  V30 5449 H 487.934 3.69487 -0.904621 0
M  V30 5450 H 489.246 4.89239 -0.97193 0
M  V30 5451 H 488.4 5.96135 1.12728 0
M  V30 5452 H 487.139 4.70562 1.28153 0
M  V30 5453 H 486.144 5.42232 -0.909069 0
M  V30 5454 H 487.369 6.70947 -1.04912 0
M  V30 5455 H 485.315 6.45296 1.18019 0
M  V30 5456 H 485.232 7.55847 -0.152008 0
M  V30 5457 H 486.5 7.7273 1.02512 0
M  V30 5458 N 490.729 0.570148 1.46925 0
M  V30 5459 C 492.14 0.1402 1.86173 0
M  V30 5460 C 492.491 -1.29347 1.47526 0
M  V30 5461 O 491.616 -1.97508 0.884292 0
M  V30 5462 C 492.211 0.247661 3.37894 0
M  V30 5463 C 490.77 -0.127332 3.76185 0
M  V30 5464 C 489.917 0.589349 2.70965 0
M  V30 5465 H 492.868 0.779117 1.38259 0
M  V30 5466 H 492.889 -0.530341 3.76786 0
M  V30 5467 H 492.401 1.29121 3.65991 0
M  V30 5468 H 490.502 -1.17149 3.53704 0
M  V30 5469 H 490.615 0.240238 4.78497 0
M  V30 5470 H 488.979 0.0309824 2.54681 0
M  V30 5471 H 489.762 1.6343 3.01903 0
M  V30 5472 N 492.207 -1.54576 0.307264 0
M  V30 5473 C 493.154 -2.23751 -0.56604 0
M  V30 5474 C 494.124 -1.22235 -1.12462 0
M  V30 5475 O 495.309 -1.50873 -1.16799 0
M  V30 5476 C 492.449 -2.98661 -1.72903 0
M  V30 5477 C 491.562 -4.14963 -1.20124 0
M  V30 5478 C 490.697 -4.77441 -2.3286 0
M  V30 5479 C 489.736 -5.85875 -1.77247 0
M  V30 5480 N 488.873 -6.42282 -2.8358 0
M  V30 5481 H 493.713 -2.97984 0.0304578 0
M  V30 5482 H 491.25 -1.47076 0.0268015 0
M  V30 5483 H 493.208 -3.40329 -2.41313 0
M  V30 5484 H 491.838 -2.26793 -2.29706 0
M  V30 5485 H 490.89 -3.78193 -0.409198 0
M  V30 5486 H 492.202 -4.93066 -0.754171 0
M  V30 5487 H 491.356 -5.21993 -3.09205 0
M  V30 5488 H 490.095 -3.98684 -2.80896 0
M  V30 5489 H 489.1 -5.40741 -0.993926 0
M  V30 5490 H 490.325 -6.6652 -1.30107 0
M  V30 5491 H 488.271 -5.66406 -3.30939 0
M  V30 5492 H 488.188 -7.1575 -2.43388 0
M  V30 5493 H 489.456 -6.91492 -3.59804 0
M  V30 5494 N 493.685 -0.035106 -1.57561 0
M  V30 5495 C 494.632 0.94474 -2.10578 0
M  V30 5496 C 495.602 1.3192 -1.00927 0
M  V30 5497 O 496.787 1.41147 -1.28382 0
M  V30 5498 C 493.927 2.21982 -2.64231 0
M  V30 5499 C 493.04 1.90128 -3.87911 0
M  V30 5500 C 492.175 3.11975 -4.29936 0
M  V30 5501 C 491.214 2.75968 -5.46359 0
M  V30 5502 N 490.351 3.90459 -5.83512 0
M  V30 5503 H 495.191 0.485717 -2.94015 0
M  V30 5504 H 492.728 0.228143 -1.4532 0
M  V30 5505 H 494.686 2.96572 -2.9343 0
M  V30 5506 H 493.316 2.6549 -1.83616 0
M  V30 5507 H 492.368 1.05755 -3.65404 0
M  V30 5508 H 493.68 1.59613 -4.72573 0
M  V30 5509 H 492.834 3.9488 -4.60603 0
M  V30 5510 H 491.573 3.45657 -3.44053 0
M  V30 5511 H 490.578 1.91478 -5.1538 0
M  V30 5512 H 491.803 2.43497 -6.33945 0
M  V30 5513 H 489.749 4.23971 -5.00584 0
M  V30 5514 H 489.666 3.63588 -6.62827 0
M  V30 5515 H 490.934 4.7405 -6.18787 0
M  V30 5516 N 495.163 1.55791 0.238111 0
M  V30 5517 C 496.11 1.9105 1.29493 0
M  V30 5518 C 497.08 0.765733 1.47397 0
M  V30 5519 O 498.265 1.02017 1.61236 0
M  V30 5520 C 495.405 2.21826 2.64362 0
M  V30 5521 C 494.518 3.49153 2.54394 0
M  V30 5522 C 493.653 3.69455 3.81676 0
M  V30 5523 C 492.692 4.90353 3.66361 0
M  V30 5524 N 491.829 5.07131 4.85554 0
M  V30 5525 H 496.669 2.81172 0.987233 0
M  V30 5526 H 494.206 1.39179 0.476203 0
M  V30 5527 H 496.164 2.37675 3.4288 0
M  V30 5528 H 494.794 1.34897 2.93262 0
M  V30 5529 H 493.846 3.41587 1.67399 0
M  V30 5530 H 495.158 4.37818 2.38991 0
M  V30 5531 H 494.312 3.85311 4.68636 0
M  V30 5532 H 493.051 2.7904 3.99985 0
M  V30 5533 H 492.056 4.74464 2.77784 0
M  V30 5534 H 493.281 5.82237 3.49538 0
M  V30 5535 H 491.227 4.19654 5.04209 0
M  V30 5536 H 491.144 5.89899 4.72816 0
M  V30 5537 H 492.412 5.27407 5.73988 0
M  V30 5538 N 496.642 -0.504142 1.49319 0
M  V30 5539 C 497.589 -1.60603 1.65756 0
M  V30 5540 C 498.559 -1.58425 0.499082 0
M  V30 5541 O 499.744 -1.76459 0.725728 0
M  V30 5542 C 496.884 -2.98764 1.72726 0
M  V30 5543 C 495.997 -3.10982 2.99857 0
M  V30 5544 C 495.132 -4.39857 2.97824 0
M  V30 5545 C 494.171 -4.45697 4.19548 0
M  V30 5546 N 493.308 -5.65995 4.15444 0
M  V30 5547 H 498.148 -1.45895 2.59843 0
M  V30 5548 H 495.685 -0.709891 1.28837 0
M  V30 5549 H 497.643 -3.78839 1.74747 0
M  V30 5550 H 496.273 -3.12183 0.821075 0
M  V30 5551 H 495.325 -2.23991 3.07461 0
M  V30 5552 H 496.637 -3.11157 3.89849 0
M  V30 5553 H 495.791 -5.2825 2.98391 0
M  V30 5554 H 494.53 -4.42242 2.05604 0
M  V30 5555 H 493.535 -3.55707 4.19229 0
M  V30 5556 H 494.76 -4.4503 5.12957 0
M  V30 5557 H 492.706 -5.69229 3.26059 0
M  V30 5558 H 492.623 -5.67773 4.99169 0
M  V30 5559 H 493.891 -6.56604 4.20109 0
M  V30 5560 N 498.12 -1.38341 -0.754957 0
M  V30 5561 C 499.345 -1.37882 -1.5493 0
M  V30 5562 C 499.77 0.0296385 -1.88077 0
M  V30 5563 O 499.128 1.01133 -1.50472 0
M  V30 5564 C 499.176 -2.23996 -2.82592 0
M  V30 5565 O 498.28 -1.65612 -3.77686 0
M  V30 5566 H 497.621 -0.470384 -0.468652 0
M  V30 5567 H 500.151 -1.82084 -0.933082 0
M  V30 5568 H 500.161 -2.37806 -3.3153 0
M  V30 5569 H 498.836 -3.26365 -2.57796 0
M  V30 5570 H 497.413 -1.60936 -3.36384 0
M  V30 5571 N 499.598 0.982988 -1.23187 0
M  V30 5572 C 501.014 1.2487 -0.993967 0
M  V30 5573 C 501.214 1.99155 0.306498 0
M  V30 5574 O 500.27 2.30688 1.0266 0
M  V30 5575 C 501.583 2.05078 -2.19917 0
M  V30 5576 C 503.131 2.18227 -2.2438 0
M  V30 5577 C 503.606 3.01825 -3.44479 0
M  V30 5578 N 505.097 3.09411 -3.44702 0
M  V30 5579 C 505.832 3.74412 -4.34285 0
M  V30 5580 N 505.328 4.41259 -5.341 0
M  V30 5581 N 507.121 3.71273 -4.22035 0
M  V30 5582 H 499.272 0.485253 -2.06783 0
M  V30 5583 H 501.535 0.276979 -0.906635 0
M  V30 5584 H 501.241 1.57867 -3.14279 0
M  V30 5585 H 501.115 3.05829 -2.2079 0
M  V30 5586 H 503.502 2.64648 -1.30559 0
M  V30 5587 H 503.583 1.16873 -2.2754 0
M  V30 5588 H 503.227 2.56102 -4.38605 0
M  V30 5589 H 503.157 4.03342 -3.38559 0
M  V30 5590 H 505.648 2.61845 -2.7248 0
M  V30 5591 H 505.961 4.88629 -5.98717 0
M  V30 5592 H 504.306 4.39975 -5.38002 0
M  V30 5593 H 507.497 3.18217 -3.43301 0
M  V30 5594 H 507.67 4.21649 -4.92053 0
M  V30 5595 N 501.076 1.04316 1.18135 0
M  V30 5596 C 502.492 0.762858 1.40188 0
M  V30 5597 C 502.692 -0.646547 1.90846 0
M  V30 5598 O 501.748 -1.41036 2.0944 0
M  V30 5599 C 503.061 1.81106 2.40044 0
M  V30 5600 C 504.609 1.83226 2.53766 0
M  V30 5601 C 505.084 2.87044 3.56889 0
M  V30 5602 N 506.575 2.85951 3.64398 0
M  V30 5603 C 507.31 3.62932 4.43923 0
M  V30 5604 N 506.806 4.49672 5.27036 0
M  V30 5605 N 508.599 3.51411 4.38711 0
M  V30 5606 H 500.75 1.95264 0.835805 0
M  V30 5607 H 503.013 0.845017 0.429709 0
M  V30 5608 H 502.719 2.82214 2.09876 0
M  V30 5609 H 502.593 1.64529 3.39426 0
M  V30 5610 H 504.98 0.827869 2.8325 0
M  V30 5611 H 505.061 2.03879 1.54489 0
M  V30 5612 H 504.705 3.87663 3.28145 0
M  V30 5613 H 504.635 2.63645 4.5585 0
M  V30 5614 H 507.126 2.23051 3.05052 0
M  V30 5615 H 507.439 5.05116 5.84874 0
M  V30 5616 H 505.784 4.53738 5.26447 0
M  V30 5617 H 508.975 2.83047 3.72829 0
M  V30 5618 H 509.148 4.11654 5.00445 0
M  V30 5619 N 502.554 -1.34406 0.822964 0
M  V30 5620 C 503.802 -1.97892 0.410245 0
M  V30 5621 C 504.123 -1.65567 -1.03017 0
M  V30 5622 O 503.393 -0.94642 -1.71522 0
M  V30 5623 H 501.973 -0.732049 0.148707 0
M  V30 5624 H 504.635 -1.64043 1.05242 0
M  V30 5625 H 503.731 -3.07579 0.529284 0
M  V30 5626 N 504.032 -0.577932 -1.46621 0
M  V30 5627 C 505.278 -0.0700937 -2.03279 0
M  V30 5628 C 505.633 1.27376 -1.44198 0
M  V30 5629 O 504.926 1.82097 -0.595911 0
M  V30 5630 C 505.12 0.0590832 -3.57351 0
M  V30 5631 C 504.949 -1.2707 -4.31374 0
M  V30 5632 C 503.719 -1.84357 -4.70469 0
M  V30 5633 C 505.917 -2.19278 -4.65211 0
M  V30 5634 N 503.899 -3.11124 -5.29221 0
M  V30 5635 C 505.27 -3.30631 -5.24484 0
M  V30 5636 C 507.325 -2.19018 -4.47142 0
M  V30 5637 C 506.028 -4.41849 -5.67593 0
M  V30 5638 C 508.054 -3.29262 -4.91264 0
M  V30 5639 C 507.416 -4.39335 -5.50604 0
M  V30 5640 H 503.515 -0.0683127 -0.779011 0
M  V30 5641 H 506.099 -0.76978 -1.78836 0
M  V30 5642 H 504.27 0.727929 -3.81518 0
M  V30 5643 H 506.002 0.57087 -4.00653 0
M  V30 5644 H 502.757 -1.37906 -4.53077 0
M  V30 5645 H 503.181 -3.75794 -5.63123 0
M  V30 5646 H 507.823 -1.35191 -4.00604 0
M  V30 5647 H 505.541 -5.26421 -6.13112 0
M  V30 5648 H 509.127 -3.30172 -4.79038 0
M  V30 5649 H 508.007 -5.23233 -5.84121 0
M  V30 5650 N 505.51 1.54411 -0.315457 0
M  V30 5651 C 506.44 2.27002 0.547039 0
M  V30 5652 C 507.421 1.27492 1.12605 0
M  V30 5653 O 508.606 1.5629 1.15269 0
M  V30 5654 C 505.736 3.02171 1.71201 0
M  V30 5655 C 504.69 4.0895 1.26268 0
M  V30 5656 C 504.016 4.71915 2.51396 0
M  V30 5657 C 505.316 5.20891 0.383419 0
M  V30 5658 H 507.01 2.99343 -0.0584517 0
M  V30 5659 H 504.556 1.4397 -0.0295527 0
M  V30 5660 H 506.509 3.51681 2.32161 0
M  V30 5661 H 505.233 2.27433 2.34397 0
M  V30 5662 H 503.892 3.60312 0.676062 0
M  V30 5663 H 503.54 3.93801 3.12937 0
M  V30 5664 H 503.24 5.44039 2.22026 0
M  V30 5665 H 504.764 5.24195 3.13133 0
M  V30 5666 H 506.178 5.66206 0.899082 0
M  V30 5667 H 504.575 5.99821 0.182857 0
M  V30 5668 H 505.645 4.81324 -0.587821 0
M  V30 5669 N 506.988 0.0434614 1.5754 0
M  V30 5670 C 508.228 -0.636023 1.94253 0
M  V30 5671 C 508.592 -1.68461 0.921132 0
M  V30 5672 O 509.793 -2.41762 1.17494 0
M  V30 5673 C 508.064 -1.22357 3.35803 0
M  V30 5674 S 509.623 -1.92213 3.94461 0
M  V30 5675 H 506.441 -0.209041 0.679575 0
M  V30 5676 H 509.043 0.110556 1.95187 0
M  V30 5677 H 507.747 -0.448162 4.07946 0
M  V30 5678 H 507.278 -2.00713 3.38346 0
M  V30 5679 H 509.293 -3.20199 3.79061 0
M  V30 5680 N 508.466 -1.55915 -0.229846 0
M  V30 5681 C 509.706 -1.80314 -0.962614 0
M  V30 5682 C 510.07 -0.61568 -1.81861 0
M  V30 5683 O 511.271 -0.738795 -2.58448 0
M  V30 5684 C 509.542 -3.0956 -1.78627 0
M  V30 5685 S 511.101 -3.55243 -2.57581 0
M  V30 5686 H 507.919 -0.633142 -0.323499 0
M  V30 5687 H 510.521 -1.94155 -0.228919 0
M  V30 5688 H 509.225 -3.94033 -1.14742 0
M  V30 5689 H 508.756 -2.98503 -2.56241 0
M  V30 5690 H 510.771 -3.17924 -3.80971 0
M  V30 5691 N 509.944 0.496216 -1.49584 0
M  V30 5692 C 511.192 1.24756 -1.58998 0
M  V30 5693 C 511.513 1.92968 -0.280775 0
M  V30 5694 O 510.783 1.82959 0.700198 0
M  V30 5695 H 509.363 0.463471 -0.585836 0
M  V30 5696 H 512.025 0.574678 -1.86235 0
M  V30 5697 H 511.121 2.00895 -2.38847 0
M  V30 5698 N 511.423 1.38739 0.74761 0
M  V30 5699 C 512.671 1.35007 1.50391 0
M  V30 5700 C 512.992 -0.0574274 1.94915 0
M  V30 5701 O 512.262 -1.00628 1.6808 0
M  V30 5702 H 510.842 0.496784 0.557866 0
M  V30 5703 H 513.504 1.73479 0.888319 0
M  V30 5704 H 512.6 2.00474 2.392 0
M  V30 5705 N 512.901 -0.976442 1.23707 0
M  V30 5706 C 514.149 -1.71487 1.06942 0
M  V30 5707 C 514.47 -1.9098 -0.393897 0
M  V30 5708 O 513.74 -1.48128 -1.28198 0
M  V30 5709 H 512.32 -0.635425 0.392739 0
M  V30 5710 H 514.982 -1.17515 1.55487 0
M  V30 5711 H 514.078 -2.70286 1.56051 0
M  V30 5712 N 514.379 -1.04941 -1.1758 0
M  V30 5713 C 515.656 -0.671918 -1.83697 0
M  V30 5714 C 516.036 0.847929 -1.93322 0
M  V30 5715 O 515.384 1.75287 -1.46583 0
M  V30 5716 C 515.594 -1.35797 -3.21497 0
M  V30 5717 C 516.942 -1.4944 -3.97433 0
M  V30 5718 O 517.966 -1.31678 -3.30967 0
M  V30 5719 O 516.825 -1.78463 -5.1654 0
M  V30 5720 H 513.919 -0.236212 -0.792548 0
M  V30 5721 H 516.465 -1.14884 -1.24899 0
M  V30 5722 H 515.237 -2.39498 -3.09446 0
M  V30 5723 H 514.86 -0.870236 -3.8796 0
M  V30 5724 N 515.857 1.33968 -0.830081 0
M  V30 5725 C 517.106 1.97323 -0.417928 0
M  V30 5726 C 517.419 1.6652 1.02618 0
M  V30 5727 O 518.625 2.2342 1.54259 0
M  V30 5728 C 517.081 3.53099 -0.696359 0
M  V30 5729 C 516.689 3.92788 -2.15457 0
M  V30 5730 C 518.433 4.23049 -0.350724 0
M  V30 5731 C 516.34 5.41506 -2.37751 0
M  V30 5732 H 515.27 0.738409 -0.152541 0
M  V30 5733 H 517.921 1.52711 -1.01744 0
M  V30 5734 H 516.303 3.95991 -0.0265904 0
M  V30 5735 H 517.477 3.6098 -2.86408 0
M  V30 5736 H 515.792 3.35795 -2.46232 0
M  V30 5737 H 518.389 5.32403 -0.495036 0
M  V30 5738 H 518.732 4.10279 0.705476 0
M  V30 5739 H 519.265 3.85657 -0.975362 0
M  V30 5740 H 516.004 5.5927 -3.41903 0
M  V30 5741 H 515.524 5.74804 -1.7135 0
M  V30 5742 H 517.203 6.0828 -2.20465 0
M  V30 5743 N 517.335 0.585699 1.46312 0
M  V30 5744 C 518.245 -0.148236 2.34131 0
M  V30 5745 C 519.261 -0.882972 1.49932 0
M  V30 5746 O 520.437 -0.845484 1.82794 0
M  V30 5747 C 517.502 -1.14714 3.27172 0
M  V30 5748 C 516.563 -0.416746 4.27272 0
M  V30 5749 C 515.796 -1.36806 5.15868 0
M  V30 5750 O 516.019 -2.60475 5.07454 0
M  V30 5751 O 514.953 -0.877018 5.95476 0
M  V30 5752 H 518.779 0.572882 2.98248 0
M  V30 5753 H 516.364 0.346082 1.45336 0
M  V30 5754 H 518.246 -1.72303 3.84564 0
M  V30 5755 H 516.921 -1.84967 2.65648 0
M  V30 5756 H 515.828 0.201061 3.73559 0
M  V30 5757 H 517.161 0.244872 4.9159 0
M  V30 5758 N 518.813 -1.54241 0.323641 0
M  V30 5759 C 520.041 -2.04985 -0.280871 0
M  V30 5760 C 520.456 -1.19978 -1.45777 0
M  V30 5761 O 519.813 -0.230471 -1.81039 0
M  V30 5762 C 519.864 -3.54353 -0.715258 0
M  V30 5763 O 519.585 -4.36132 0.414817 0
M  V30 5764 C 521.086 -4.21189 -1.38257 0
M  V30 5765 H 518.306 -0.66851 -0.0577502 0
M  V30 5766 H 520.85 -1.99029 0.469852 0
M  V30 5767 H 519.005 -3.60596 -1.41596 0
M  V30 5768 H 519.419 -5.2445 0.0725227 0
M  V30 5769 H 520.893 -5.27154 -1.63745 0
M  V30 5770 H 521.37 -3.72307 -2.32989 0
M  V30 5771 H 521.976 -4.19085 -0.724447 0
M  V30 5772 N 520.291 -0.0518155 -1.57515 0
M  V30 5773 C 521.537 0.622745 -1.93002 0
M  V30 5774 C 521.87 1.70456 -0.930499 0
M  V30 5775 O 521.145 1.94452 0.0434086 0
M  V30 5776 C 521.428 1.21824 -3.38867 0
M  V30 5777 C 521.281 0.144434 -4.49568 0
M  V30 5778 C 522.6 2.12968 -3.8514 0
M  V30 5779 H 519.719 0.22491 -0.701844 0
M  V30 5780 H 522.361 -0.113711 -1.89659 0
M  V30 5781 H 520.511 1.8459 -3.41846 0
M  V30 5782 H 522.183 -0.48753 -4.58717 0
M  V30 5783 H 520.426 -0.527424 -4.30582 0
M  V30 5784 H 521.097 0.601127 -5.48717 0
M  V30 5785 H 523.573 1.60163 -3.8404 0
M  V30 5786 H 522.449 2.51578 -4.87852 0
M  V30 5787 H 522.71 3.03004 -3.21934 0
M  V30 5788 N 521.769 1.56035 0.221574 0
M  V30 5789 C 522.679 1.95581 1.29558 0
M  V30 5790 C 523.695 0.859639 1.51282 0
M  V30 5791 O 524.871 1.16321 1.64413 0
M  V30 5792 C 521.936 2.26447 2.62531 0
M  V30 5793 C 520.997 3.49632 2.4911 0
M  V30 5794 C 520.23 3.79017 3.75742 0
M  V30 5795 O 520.453 3.10077 4.78757 0
M  V30 5796 O 519.387 4.72507 3.72855 0
M  V30 5797 H 523.213 2.8711 0.990035 0
M  V30 5798 H 520.798 1.43244 0.424434 0
M  V30 5799 H 522.68 2.47494 3.41064 0
M  V30 5800 H 521.355 1.38092 2.92766 0
M  V30 5801 H 520.262 3.33864 1.68777 0
M  V30 5802 H 521.595 4.3837 2.23814 0
M  V30 5803 N 523.247 -0.488276 1.49845 0
M  V30 5804 C 524.658 -1.06955 1.53028 0
M  V30 5805 C 525.009 -1.9351 0.323797 0
M  V30 5806 O 524.134 -2.08891 -0.565116 0
M  V30 5807 C 524.729 -1.94643 2.77307 0
M  V30 5808 C 523.288 -2.4791 2.83227 0
M  V30 5809 C 522.435 -1.25833 2.47106 0
M  V30 5810 H 525.386 -0.271626 1.56358 0
M  V30 5811 H 525.407 -2.79496 2.5819 0
M  V30 5812 H 524.919 -1.31621 3.65099 0
M  V30 5813 H 523.02 -3.14535 1.99745 0
M  V30 5814 H 523.133 -2.84193 3.85709 0
M  V30 5815 H 521.497 -1.58764 1.99163 0
M  V30 5816 H 522.28 -0.644993 3.37186 0
M  V30 5817 N 524.725 -1.39134 -0.740242 0
M  V30 5818 C 525.657 -1.33332 -1.86428 0
M  V30 5819 C 526.67 -0.243042 -1.60976 0
M  V30 5820 O 527.859 -0.501608 -1.71307 0
M  V30 5821 C 524.959 -1.04626 -3.22346 0
M  V30 5822 C 524.132 -2.24826 -3.75196 0
M  V30 5823 C 523.191 -1.92659 -4.89662 0
M  V30 5824 O 522.217 -2.6529 -5.03597 0
M  V30 5825 N 523.419 -0.889575 -5.73643 0
M  V30 5826 H 526.184 -2.30196 -1.91911 0
M  V30 5827 H 523.745 -1.33168 -0.920756 0
M  V30 5828 H 525.737 -0.811347 -3.96484 0
M  V30 5829 H 524.307 -0.165129 -3.12164 0
M  V30 5830 H 523.527 -2.64301 -2.9247 0
M  V30 5831 H 524.815 -3.05015 -4.07239 0
M  V30 5832 H 524.213 -0.287529 -5.64969 0
M  V30 5833 H 522.77 -0.714557 -6.47871 0
M  V30 5834 N 526.204 0.969867 -1.24223 0
M  V30 5835 C 527.136 2.0669 -0.99055 0
M  V30 5836 C 528.149 1.62753 0.0392222 0
M  V30 5837 O 529.338 1.77403 -0.197561 0
M  V30 5838 C 526.438 3.35589 -0.472594 0
M  V30 5839 C 525.611 4.08444 -1.56499 0
M  V30 5840 C 524.67 5.15616 -1.05007 0
M  V30 5841 O 523.696 5.41911 -1.7413 0
M  V30 5842 N 524.898 5.80383 0.116641 0
M  V30 5843 H 527.663 2.28855 -1.93508 0
M  V30 5844 H 525.224 1.13733 -1.15223 0
M  V30 5845 H 527.216 4.04542 -0.112919 0
M  V30 5846 H 525.786 3.10311 0.377617 0
M  V30 5847 H 525.006 3.33798 -2.09696 0
M  V30 5848 H 526.294 4.53882 -2.29932 0
M  V30 5849 H 525.692 5.6142 0.694589 0
M  V30 5850 H 524.249 6.50462 0.417483 0
M  V30 5851 N 527.682 1.05563 1.17022 0
M  V30 5852 C 528.592 0.670758 2.24807 0
M  V30 5853 C 529.608 -0.309865 1.71219 0
M  V30 5854 O 530.784 -0.161025 2.00755 0
M  V30 5855 C 527.849 0.055337 3.46656 0
M  V30 5856 C 526.91 1.08688 4.15314 0
M  V30 5857 C 526.143 0.500736 5.31346 0
M  V30 5858 O 526.366 -0.688718 5.66227 0
M  V30 5859 O 525.3 1.23683 5.89055 0
M  V30 5860 H 529.126 1.56914 2.60023 0
M  V30 5861 H 526.711 0.827428 1.24395 0
M  V30 5862 H 528.593 -0.286492 4.20425 0
M  V30 5863 H 527.268 -0.816638 3.13229 0
M  V30 5864 H 526.175 1.48077 3.43546 0
M  V30 5865 H 527.508 1.93014 4.52777 0
M  V30 5866 N 529.16 -1.33526 0.837174 0
M  V30 5867 C 530.07 -2.33023 0.271568 0
M  V30 5868 C 531.086 -1.63272 -0.601514 0
M  V30 5869 O 532.262 -1.94939 -0.506038 0
M  V30 5870 C 529.327 -3.42382 -0.545448 0
M  V30 5871 C 528.388 -4.27857 0.351709 0
M  V30 5872 C 527.621 -5.31994 -0.426409 0
M  V30 5873 O 527.844 -5.45763 -1.65828 0
M  V30 5874 O 526.778 -6.01572 0.1987 0
M  V30 5875 H 530.604 -2.83256 1.09545 0
M  V30 5876 H 528.189 -1.36837 0.599655 0
M  V30 5877 H 530.071 -4.09122 -1.00979 0
M  V30 5878 H 528.746 -2.94369 -1.34641 0
M  V30 5879 H 527.653 -3.6399 0.863853 0
M  V30 5880 H 528.986 -4.79349 1.1174 0
M  V30 5881 N 530.638 -0.59345 -1.46 0
M  V30 5882 C 532.049 -0.169801 -1.85926 0
M  V30 5883 C 532.4 1.26984 -1.49565 0
M  V30 5884 O 531.525 1.96076 -0.915602 0
M  V30 5885 C 532.12 -0.301385 -3.37457 0
M  V30 5886 C 530.679 0.0674684 -3.7634 0
M  V30 5887 C 529.826 -0.632383 -2.69993 0
M  V30 5888 H 532.777 -0.801014 -1.37002 0
M  V30 5889 H 532.798 0.470331 -3.77582 0
M  V30 5890 H 532.31 -1.34927 -3.63891 0
M  V30 5891 H 530.411 1.11507 -3.55523 0
M  V30 5892 H 530.524 -0.316332 -4.78055 0
M  V30 5893 H 528.888 -0.0714961 -2.546 0
M  V30 5894 H 529.671 -1.68212 -2.99265 0
M  V30 5895 N 532.116 1.54067 -0.331816 0
M  V30 5896 C 533.362 2.01012 0.268667 0
M  V30 5897 C 533.695 1.2195 1.51136 0
M  V30 5898 O 532.97 0.303972 1.9211 0
M  V30 5899 C 533.253 3.55158 0.59456 0
M  V30 5900 C 533.106 4.4494 -0.659409 0
M  V30 5901 C 534.425 4.16939 1.4089 0
M  V30 5902 H 531.544 0.730698 0.0961756 0
M  V30 5903 H 534.186 1.84593 -0.450031 0
M  V30 5904 H 532.336 3.6928 1.20685 0
M  V30 5905 H 534.008 4.42675 -1.29756 0
M  V30 5906 H 532.251 4.1428 -1.28665 0
M  V30 5907 H 532.922 5.50643 -0.386804 0
M  V30 5908 H 535.398 4.06443 0.891272 0
M  V30 5909 H 534.274 5.24889 1.60569 0
M  V30 5910 H 534.535 3.70798 2.40752 0
M  V30 5911 N 533.594 0.0601682 1.57485 0
M  V30 5912 C 534.526 -0.94047 2.09016 0
M  V30 5913 C 535.539 -1.26897 1.01985 0
M  V30 5914 O 536.728 -1.22819 1.29529 0
M  V30 5915 C 533.828 -2.25955 2.52582 0
M  V30 5916 C 533.001 -2.11163 3.83052 0
M  V30 5917 C 532.06 -3.26273 4.12835 0
M  V30 5918 O 531.086 -3.01779 4.82616 0
M  V30 5919 N 532.288 -4.51022 3.65458 0
M  V30 5920 H 535.053 -0.500578 2.9549 0
M  V30 5921 H 532.614 -0.125852 1.6141 0
M  V30 5922 H 534.606 -3.01846 2.69575 0
M  V30 5923 H 533.176 -2.61481 1.71308 0
M  V30 5924 H 532.396 -1.19808 3.75552 0
M  V30 5925 H 533.684 -1.98517 4.68475 0
M  V30 5926 H 533.082 -4.73811 3.09062 0
M  V30 5927 H 531.639 -5.23978 3.87673 0
M  V30 5928 N 535.072 -1.5615 -0.213296 0
M  V30 5929 C 536.3 -1.83638 -0.953139 0
M  V30 5930 C 536.715 -0.640362 -1.77609 0
M  V30 5931 O 536.072 0.391071 -1.78261 0
M  V30 5932 C 536.123 -3.09735 -1.86405 0
M  V30 5933 O 535.844 -4.24723 -1.07435 0
M  V30 5934 C 537.345 -3.5027 -2.71709 0
M  V30 5935 H 534.565 -0.610263 -0.278962 0
M  V30 5936 H 537.109 -2.03247 -0.226035 0
M  V30 5937 H 535.264 -2.92077 -2.545 0
M  V30 5938 H 535.678 -4.9641 -1.69343 0
M  V30 5939 H 537.152 -4.41515 -3.31313 0
M  V30 5940 H 537.629 -2.72406 -3.44516 0
M  V30 5941 H 538.235 -3.70396 -2.09015 0
M  V30 5942 N 536.55 0.480323 -1.50102 0
M  V30 5943 C 537.796 1.23489 -1.60867 0
M  V30 5944 C 538.129 1.91809 -0.303827 0
M  V30 5945 O 537.404 1.81694 0.694092 0
M  V30 5946 C 537.687 2.28578 -2.78252 0
M  V30 5947 C 537.54 1.64624 -4.18592 0
M  V30 5948 C 538.859 3.2997 -2.91218 0
M  V30 5949 H 535.978 0.447605 -0.585507 0
M  V30 5950 H 538.62 0.530005 -1.82458 0
M  V30 5951 H 536.77 2.88697 -2.59974 0
M  V30 5952 H 538.442 1.08173 -4.48438 0
M  V30 5953 H 536.685 0.949645 -4.23278 0
M  V30 5954 H 537.356 2.40946 -4.96638 0
M  V30 5955 H 539.832 2.79864 -3.07921 0
M  V30 5956 H 538.708 4.00839 -3.74993 0
M  V30 5957 H 538.969 3.93541 -2.0144 0
M  V30 5958 N 538.028 1.39524 0.732853 0
M  V30 5959 C 538.96 1.34318 1.85718 0
M  V30 5960 C 539.973 0.251576 1.60844 0
M  V30 5961 O 541.162 0.510685 1.71039 0
M  V30 5962 C 538.262 1.06334 3.21786 0
M  V30 5963 C 537.435 2.26813 3.73998 0
M  V30 5964 C 536.494 1.95253 4.88634 0
M  V30 5965 O 535.52 2.67957 5.02183 0
M  V30 5966 N 536.722 0.919984 5.73164 0
M  V30 5967 H 539.487 2.3121 1.90688 0
M  V30 5968 H 537.048 1.33654 0.91368 0
M  V30 5969 H 539.04 0.832363 3.96048 0
M  V30 5970 H 537.61 0.181682 3.12072 0
M  V30 5971 H 536.83 2.65849 2.91064 0
M  V30 5972 H 538.118 3.0717 4.05616 0
M  V30 5973 H 537.516 0.317487 5.64808 0
M  V30 5974 H 536.073 0.748905 6.47483 0
M  V30 5975 N 539.506 -0.963266 1.24736 0
M  V30 5976 C 540.416 -2.09246 1.06082 0
M  V30 5977 C 541.432 -1.74 0.000363101 0
M  V30 5978 O 542.608 -2.0041 0.199479 0
M  V30 5979 C 539.673 -3.40115 0.672498 0
M  V30 5980 C 538.734 -3.89282 1.80993 0
M  V30 5981 C 537.967 -5.13905 1.44004 0
M  V30 5982 O 538.19 -5.69434 0.331835 0
M  V30 5983 O 537.124 -5.57566 2.26723 0
M  V30 5984 H 540.95 -2.27881 2.00759 0
M  V30 5985 H 538.535 -1.07649 1.03595 0
M  V30 5986 H 540.417 -4.18797 0.467668 0
M  V30 5987 H 539.092 -3.22771 -0.245102 0
M  V30 5988 H 537.999 -3.11642 2.06955 0
M  V30 5989 H 539.332 -4.1111 2.70646 0
M  V30 5990 N 540.985 -1.06182 -1.16461 0
M  V30 5991 C 541.917 -0.629584 -2.20383 0
M  V30 5992 C 542.93 0.311834 -1.59786 0
M  V30 5993 O 544.119 0.103 -1.78203 0
M  V30 5994 C 541.219 0.0973695 -3.3876 0
M  V30 5995 C 540.392 -0.857252 -4.28917 0
M  V30 5996 C 539.451 -0.169749 -5.25926 0
M  V30 5997 O 538.477 -0.807044 -5.6345 0
M  V30 5998 N 539.679 1.08911 -5.70192 0
M  V30 5999 H 542.444 -1.52352 -2.58087 0
M  V30 6000 H 540.005 -0.944993 -1.31459 0
M  V30 6001 H 541.997 0.567676 -4.00699 0
M  V30 6002 H 540.567 0.893093 -2.99571 0
M  V30 6003 H 539.787 -1.50696 -3.64259 0
M  V30 6004 H 541.075 -1.50489 -4.86035 0
M  V30 6005 H 540.473 1.62703 -5.41797 0
M  V30 6006 H 539.03 1.50331 -6.34227 0
M  V30 6007 N 542.463 1.3308 -0.844243 0
M  V30 6008 C 543.395 2.27954 -0.238671 0
M  V30 6009 C 544.408 1.51978 0.583665 0
M  V30 6010 O 545.597 1.73731 0.409857 0
M  V30 6011 C 542.697 3.31963 0.682185 0
M  V30 6012 C 541.87 4.37281 -0.101998 0
M  V30 6013 C 540.929 5.20928 0.743022 0
M  V30 6014 O 539.955 5.68914 0.180285 0
M  V30 6015 N 541.157 5.42738 2.0595 0
M  V30 6016 H 543.922 2.8056 -1.05386 0
M  V30 6017 H 541.483 1.4583 -0.70322 0
M  V30 6018 H 543.475 3.84828 1.25259 0
M  V30 6019 H 542.045 2.79594 1.39808 0
M  V30 6020 H 541.265 3.84843 -0.853802 0
M  V30 6021 H 542.553 5.04746 -0.641015 0
M  V30 6022 H 541.951 5.05463 2.54016 0
M  V30 6023 H 540.508 5.98639 2.57827 0
M  V30 6024 N 543.941 0.601185 1.45683 0
M  V30 6025 C 545.187 0.0940202 2.02582 0
M  V30 6026 C 545.52 -1.26972 1.46941 0
M  V30 6027 O 544.795 -1.83613 0.641612 0
M  V30 6028 C 545.078 0.0481715 3.60068 0
M  V30 6029 C 544.931 1.44212 4.26055 0
M  V30 6030 C 546.25 -0.642975 4.35378 0
M  V30 6031 H 543.369 0.0356404 0.736138 0
M  V30 6032 H 546.011 0.771929 1.73612 0
M  V30 6033 H 544.161 -0.529128 3.8488 0
M  V30 6034 H 545.833 2.06601 4.12449 0
M  V30 6035 H 544.076 2.00465 3.84703 0
M  V30 6036 H 544.747 1.36234 5.34925 0
M  V30 6037 H 547.223 -0.152351 4.15821 0
M  V30 6038 H 546.099 -0.644141 5.45107 0
M  V30 6039 H 546.36 -1.70785 4.0778 0
M  V30 6040 N 545.419 -1.53889 0.339982 0
M  V30 6041 C 546.367 -2.26391 -0.533822 0
M  V30 6042 C 547.361 -1.28404 -1.10493 0
M  V30 6043 O 548.567 -1.46124 -1.05108 0
M  V30 6044 H 544.942 -0.727385 -0.190828 0
M  V30 6045 H 546.913 -2.98233 0.0997484 0
M  V30 6046 C 545.662 -3.04707 -1.67479 0
M  V30 6047 H 544.985 -3.79934 -1.2446 0
M  V30 6048 H 546.425 -3.58657 -2.26144 0
M  V30 6049 C 544.884 -2.13989 -2.60212 0
M  V30 6050 O 545.414 -1.73361 -3.62366 0
M  V30 6051 N 543.62 -1.79141 -2.28816 0
M  V30 6052 H 543.167 -2.12378 -1.45785 0
M  V30 6053 H 543.125 -1.18725 -2.91121 0
M  V30 6054 N 546.897 -0.0685191 -1.57451 0
M  V30 6055 C 547.807 0.914677 -2.16034 0
M  V30 6056 C 548.823 1.32938 -1.12265 0
M  V30 6057 O 549.999 1.40275 -1.44516 0
M  V30 6058 C 547.064 2.16519 -2.70777 0
M  V30 6059 C 546.125 1.80721 -3.89408 0
M  V30 6060 C 545.358 2.9981 -4.41531 0
M  V30 6061 O 545.581 4.13727 -3.92666 0
M  V30 6062 O 544.515 2.79817 -5.32903 0
M  V30 6063 H 548.341 0.446364 -3.00402 0
M  V30 6064 H 545.926 0.154367 -1.486 0
M  V30 6065 H 547.808 2.89856 -3.05878 0
M  V30 6066 H 546.483 2.62454 -1.89471 0
M  V30 6067 H 545.39 1.04646 -3.59166 0
M  V30 6068 H 546.723 1.39571 -4.71997 0
M  V30 6069 N 548.375 1.56261 0.205012 0
M  V30 6070 C 549.605 1.83874 0.942018 0
M  V30 6071 C 550.013 0.647595 1.77772 0
M  V30 6072 O 549.356 -0.393098 1.79445 0
M  V30 6073 C 549.418 3.05453 1.89575 0
M  V30 6074 C 549.082 4.39772 1.24296 0
M  V30 6075 C 550.079 5.16133 0.624724 0
M  V30 6076 C 547.764 4.86504 1.24978 0
M  V30 6077 C 549.758 6.37396 0.0220117 0
M  V30 6078 C 547.445 6.07705 0.643232 0
M  V30 6079 C 548.443 6.82993 0.0304164 0
M  V30 6080 O 548.131 8.019 -0.566654 0
M  V30 6081 H 547.863 0.614896 0.280854 0
M  V30 6082 H 550.417 2.04215 0.220285 0
M  V30 6083 H 548.647 2.80972 2.65691 0
M  V30 6084 H 550.336 3.19797 2.4997 0
M  V30 6085 H 551.102 4.81127 0.611666 0
M  V30 6086 H 546.981 4.27865 1.71616 0
M  V30 6087 H 550.525 6.96102 -0.456926 0
M  V30 6088 H 546.422 6.42181 0.653759 0
M  V30 6089 H 547.19 8.17192 -0.462588 0
M  V30 6090 N 549.853 -0.472356 1.50355 0
M  V30 6091 C 551.101 -1.22211 1.60962 0
M  V30 6092 C 551.422 -1.92497 0.311439 0
M  V30 6093 O 550.692 -1.8405 -0.671002 0
M  V30 6094 H 549.272 -0.454092 0.593135 0
M  V30 6095 H 551.934 -0.544977 1.87126 0
M  V30 6096 H 551.03 -1.9707 2.42012 0
M  V30 6097 N 551.331 -1.39911 -0.725443 0
M  V30 6098 C 552.608 -1.28158 -1.47766 0
M  V30 6099 C 552.988 0.104545 -2.10841 0
M  V30 6100 O 552.336 1.11657 -1.99361 0
M  V30 6101 C 552.546 -2.41306 -2.52135 0
M  V30 6102 C 553.894 -2.81076 -3.18247 0
M  V30 6103 O 554.918 -2.40827 -2.62452 0
M  V30 6104 O 553.777 -3.50581 -4.19231 0
M  V30 6105 H 550.871 -0.502761 -0.656628 0
M  V30 6106 H 553.417 -1.51808 -0.758456 0
M  V30 6107 H 552.189 -3.33932 -2.03974 0
M  V30 6108 H 551.812 -2.19374 -3.31603 0
M  V30 6109 N 552.809 0.956637 -1.25245 0
M  V30 6110 C 554.058 1.69537 -1.0927 0
M  V30 6111 C 554.371 1.92136 0.366503 0
M  V30 6112 O 555.577 2.63687 0.64665 0
M  V30 6113 C 554.033 3.05211 -1.9072 0
M  V30 6114 C 553.641 2.90416 -3.41119 0
M  V30 6115 C 555.385 3.82882 -1.83308 0
M  V30 6116 C 553.292 4.21468 -4.14872 0
M  V30 6117 H 552.222 0.635804 -0.405302 0
M  V30 6118 H 554.873 1.06513 -1.49423 0
M  V30 6119 H 553.255 3.69128 -1.43389 0
M  V30 6120 H 554.429 2.35444 -3.9611 0
M  V30 6121 H 552.744 2.26203 -3.49602 0
M  V30 6122 H 555.341 4.79944 -2.35706 0
M  V30 6123 H 555.684 4.0853 -0.800572 0
M  V30 6124 H 556.217 3.25711 -2.28379 0
M  V30 6125 H 552.956 4.01009 -5.18529 0
M  V30 6126 H 552.476 4.76213 -3.64665 0
M  V30 6127 H 554.155 4.90022 -4.22478 0
M  V30 6128 N 554.287 1.06798 1.15896 0
M  V30 6129 C 555.217 0.704677 2.22613 0
M  V30 6130 C 556.198 -0.305252 1.67339 0
M  V30 6131 O 557.383 -0.179247 1.93371 0
M  V30 6132 C 554.513 0.0957325 3.47168 0
M  V30 6133 C 553.467 1.0322 4.15367 0
M  V30 6134 C 552.793 0.286293 5.33933 0
M  V30 6135 C 554.093 2.36341 4.65768 0
M  V30 6136 H 555.787 1.59688 2.53259 0
M  V30 6137 H 553.333 0.769257 1.21731 0
M  V30 6138 H 555.286 -0.170333 4.21056 0
M  V30 6139 H 554.01 -0.831516 3.15838 0
M  V30 6140 H 552.669 1.28309 3.43413 0
M  V30 6141 H 552.317 -0.644237 4.98857 0
M  V30 6142 H 552.017 0.910436 5.80504 0
M  V30 6143 H 553.541 0.0278938 6.10594 0
M  V30 6144 H 554.955 2.1561 5.31211 0
M  V30 6145 H 553.352 2.94299 5.2298 0
M  V30 6146 H 554.422 2.99047 3.81705 0
M  V30 6147 N 555.766 -1.3263 0.851289 0
M  V30 6148 C 557.177 -1.79653 0.5081 0
M  V30 6149 C 557.528 -1.70327 -0.973815 0
M  V30 6150 O 556.653 -1.25986 -1.75944 0
M  V30 6151 C 557.248 -3.26196 0.915515 0
M  V30 6152 C 555.807 -3.71187 0.624277 0
M  V30 6153 C 554.954 -2.53804 1.11709 0
M  V30 6154 H 557.905 -1.19976 1.03882 0
M  V30 6155 H 557.926 -3.79801 0.230535 0
M  V30 6156 H 557.438 -3.32952 1.99411 0
M  V30 6157 H 555.539 -3.69948 -0.443737 0
M  V30 6158 H 555.652 -4.64132 1.18821 0
M  V30 6159 H 554.016 -2.48964 0.537484 0
M  V30 6160 H 554.799 -2.63315 2.20272 0
M  V30 6161 N 557.244 -0.608902 -1.45362 0
M  V30 6162 C 558.469 -0.10921 -2.07112 0
M  V30 6163 C 558.894 1.19779 -1.45033 0
M  V30 6164 O 558.252 1.72961 -0.543527 0
M  V30 6165 C 558.3 0.0155745 -3.60597 0
M  V30 6166 O 557.404 1.06546 -3.98399 0
M  V30 6167 H 556.745 -0.0746619 -0.659789 0
M  V30 6168 H 559.275 -0.839283 -1.86594 0
M  V30 6169 H 559.285 0.213364 -4.07442 0
M  V30 6170 H 557.96 -0.938765 -4.05167 0
M  V30 6171 H 556.537 0.844024 -3.63223 0
M  V30 6172 N 558.722 1.53707 -0.348139 0
M  V30 6173 C 559.652 2.28111 0.498766 0
M  V30 6174 C 560.633 1.29851 1.09876 0
M  V30 6175 O 561.818 1.587 1.11928 0
M  V30 6176 C 558.948 3.05735 1.64753 0
M  V30 6177 C 557.902 4.11537 1.17565 0
M  V30 6178 C 557.228 4.77142 2.4133 0
M  V30 6179 C 558.528 5.21587 0.272844 0
M  V30 6180 H 560.222 2.99152 -0.121934 0
M  V30 6181 H 557.768 1.43875 -0.0600842 0
M  V30 6182 H 559.721 3.56526 2.24649 0
M  V30 6183 H 558.445 2.32354 2.2952 0
M  V30 6184 H 557.104 3.61665 0.599483 0
M  V30 6185 H 556.752 4.0035 3.04514 0
M  V30 6186 H 556.452 5.48626 2.10436 0
M  V30 6187 H 557.976 5.30719 3.01943 0
M  V30 6188 H 559.39 5.67986 0.778779 0
M  V30 6189 H 557.787 6.00074 0.0555849 0
M  V30 6190 H 558.857 4.79969 -0.689785 0
M  V30 6191 N 560.2 0.0768682 1.57412 0
M  V30 6192 C 561.616 -0.279772 1.57129 0
M  V30 6193 C 561.816 -1.69688 1.08666 0
M  V30 6194 O 560.872 -2.40953 0.754843 0
M  V30 6195 C 562.185 -0.0848055 3.0058 0
M  V30 6196 C 563.733 -0.153954 3.12621 0
M  V30 6197 C 564.208 0.0127946 4.57998 0
M  V30 6198 N 565.699 -0.0426435 4.6318 0
M  V30 6199 C 566.434 0.0618892 5.73367 0
M  V30 6200 N 565.93 0.220229 6.9245 0
M  V30 6201 N 567.723 0.00446072 5.621 0
M  V30 6202 H 559.874 1.00297 1.87228 0
M  V30 6203 H 562.137 0.391565 0.863354 0
M  V30 6204 H 561.843 0.89325 3.40168 0
M  V30 6205 H 561.717 -0.834961 3.67843 0
M  V30 6206 H 564.104 -1.1225 2.72917 0
M  V30 6207 H 564.185 0.627389 2.47987 0
M  V30 6208 H 563.829 0.978128 4.98392 0
M  V30 6209 H 563.759 -0.788016 5.20671 0
M  V30 6210 H 566.25 -0.163226 3.77547 0
M  V30 6211 H 566.563 0.291999 7.72248 0
M  V30 6212 H 564.908 0.255658 6.9453 0
M  V30 6213 H 568.099 -0.117979 4.67951 0
M  V30 6214 H 568.272 0.0893796 6.47938 0
M  V30 6215 N 561.678 -1.56367 -0.196722 0
M  V30 6216 C 562.641 -1.93561 -1.22746 0
M  V30 6217 C 563.641 -0.816566 -1.38524 0
M  V30 6218 O 564.831 -1.084 -1.36363 0
M  V30 6219 C 561.963 -2.20823 -2.59712 0
M  V30 6220 H 563.156 -2.85774 -0.909586 0
M  V30 6221 H 560.709 -1.50032 -0.438174 0
M  V30 6222 H 561.444 -1.31243 -2.96557 0
M  V30 6223 H 561.229 -3.02368 -2.49632 0
M  V30 6224 H 562.719 -2.50608 -3.34044 0
M  V30 6225 N 563.156 0.464375 -1.50603 0
M  V30 6226 C 564.381 1.24372 -1.65971 0
M  V30 6227 C 564.806 1.84901 -0.345453 0
M  V30 6228 O 564.164 1.67596 0.691457 0
M  V30 6229 C 564.212 2.32331 -2.7578 0
M  V30 6230 O 563.316 3.37146 -2.375 0
M  V30 6231 H 562.657 0.365604 -0.554283 0
M  V30 6232 H 565.187 0.55183 -1.97018 0
M  V30 6233 H 565.197 2.77539 -2.99059 0
M  V30 6234 H 563.872 1.87648 -3.71162 0
M  V30 6235 H 562.449 2.97602 -2.24694 0
M  V30 6236 N 564.634 1.40294 0.718013 0
M  V30 6237 C 565.883 1.37746 1.4734 0
M  V30 6238 C 566.196 -0.0180754 1.95592 0
M  V30 6239 O 567.402 -0.166166 2.70991 0
M  V30 6240 C 565.858 2.4208 2.66318 0
M  V30 6241 C 565.466 3.87432 2.24945 0
M  V30 6242 C 567.21 2.48635 3.44065 0
M  V30 6243 C 565.117 4.83368 3.40748 0
M  V30 6244 H 564.047 0.512165 0.553356 0
M  V30 6245 H 566.698 1.66019 0.781661 0
M  V30 6246 H 565.08 2.06903 3.3765 0
M  V30 6247 H 566.254 4.3174 1.6105 0
M  V30 6248 H 564.569 3.8433 1.60249 0
M  V30 6249 H 567.166 3.17499 4.30231 0
M  V30 6250 H 567.509 1.51611 3.87711 0
M  V30 6251 H 568.042 2.82791 2.79775 0
M  V30 6252 H 564.781 5.81716 3.02136 0
M  V30 6253 H 564.301 4.43726 4.03568 0
M  V30 6254 H 565.98 5.03074 4.06848 0
M  V30 6255 N 566.112 -0.949982 1.2575 0
M  V30 6256 C 567.34 -1.72972 1.13527 0
M  V30 6257 C 567.755 -1.8623 -0.310453 0
M  V30 6258 O 567.112 -1.36336 -1.2132 0
M  V30 6259 C 567.163 -3.14108 1.78936 0
M  V30 6260 O 566.884 -3.01493 3.17858 0
M  V30 6261 C 568.385 -4.08338 1.72554 0
M  V30 6262 H 565.605 -0.541864 0.395758 0
M  V30 6263 H 568.149 -1.19151 1.66202 0
M  V30 6264 H 566.304 -3.64858 1.30221 0
M  V30 6265 H 566.718 -3.90559 3.50092 0
M  V30 6266 H 568.192 -5.04963 2.22973 0
M  V30 6267 H 568.669 -4.33742 0.690251 0
M  V30 6268 H 569.275 -3.63506 2.2078 0
M  V30 6269 N 567.59 -1.07411 -1.15328 0
M  V30 6270 C 568.538 -0.689316 -2.22151 0
M  V30 6271 C 569.532 0.300156 -1.6672 0
M  V30 6272 O 570.738 0.163804 -1.79253 0
M  V30 6273 H 567.113 -0.204834 -0.723566 0
M  V30 6274 H 569.084 -1.59988 -2.51886 0
M  V30 6275 C 567.833 -0.103848 -3.47545 0
M  V30 6276 H 567.156 -0.856367 -3.90521 0
M  V30 6277 H 568.596 0.127725 -4.23808 0
M  V30 6278 C 567.055 1.15563 -3.1646 0
M  V30 6279 O 567.585 2.242 -3.33312 0
M  V30 6280 N 565.791 1.06203 -2.70498 0
M  V30 6281 H 565.338 0.177933 -2.56985 0
M  V30 6282 H 565.296 1.90553 -2.50074 0
M  V30 6283 N 569.068 1.32177 -0.85831 0
M  V30 6284 C 570.293 2.01847 -0.476718 0
M  V30 6285 C 570.718 1.64065 0.920021 0
M  V30 6286 O 570.076 0.843189 1.60499 0
M  V30 6287 C 570.124 3.55097 -0.627578 0
M  V30 6288 O 569.228 4.11012 0.338086 0
M  V30 6289 H 568.569 0.635907 -0.191099 0
M  V30 6290 H 571.099 1.68641 -1.15851 0
M  V30 6291 H 571.109 4.04718 -0.516476 0
M  V30 6292 H 569.784 3.81938 -1.64609 0
M  V30 6293 H 568.361 3.72451 0.182917 0
M  V30 6294 N 570.547 0.616602 1.45037 0
M  V30 6295 C 571.51 -0.0871112 2.29034 0
M  V30 6296 C 572.51 -0.786414 1.40258 0
M  V30 6297 O 573.7 -0.633207 1.62284 0
M  V30 6298 C 570.832 -1.13369 3.21497 0
M  V30 6299 H 572.025 0.651497 2.92738 0
M  V30 6300 H 569.578 0.376058 1.51709 0
M  V30 6301 H 570.313 -1.90277 2.62612 0
M  V30 6302 H 570.098 -0.636358 3.86902 0
M  V30 6303 H 571.588 -1.62627 3.84633 0
M  V30 6304 N 572.025 -1.5352 0.356285 0
M  V30 6305 C 573.274 -2.00298 -0.237373 0
M  V30 6306 C 573.587 -1.24784 -1.50627 0
M  V30 6307 O 574.793 -1.62103 -2.17795 0
M  V30 6308 C 573.249 -3.56771 -0.473545 0
M  V30 6309 C 572.857 -4.41154 0.780183 0
M  V30 6310 C 574.601 -4.1193 -1.02537 0
M  V30 6311 C 572.508 -5.89161 0.514108 0
M  V30 6312 H 571.438 -0.748307 -0.092478 0
M  V30 6313 H 574.089 -1.77283 0.473588 0
M  V30 6314 H 572.471 -3.75902 -1.24553 0
M  V30 6315 H 573.645 -4.33797 1.55425 0
M  V30 6316 H 571.96 -3.97052 1.25455 0
M  V30 6317 H 574.557 -5.20133 -1.2396 0
M  V30 6318 H 574.9 -3.65943 -1.98473 0
M  V30 6319 H 575.433 -3.96561 -0.313775 0
M  V30 6320 H 572.172 -6.39408 1.44355 0
M  V30 6321 H 571.692 -5.9939 -0.221632 0
M  V30 6322 H 573.371 -6.46857 0.136122 0
M  V30 6323 N 573.503 -0.0852151 -1.57369 0
M  V30 6324 C 574.451 0.894856 -2.14698 0
M  V30 6325 C 575.445 1.29903 -1.08727 0
M  V30 6326 O 576.651 1.27471 -1.27088 0
M  V30 6327 H 573.026 0.306569 -0.686673 0
M  V30 6328 H 574.997 0.386542 -2.95886 0
M  V30 6329 C 573.746 2.14798 -2.73417 0
M  V30 6330 H 573.069 1.84585 -3.54638 0
M  V30 6331 H 574.509 2.81456 -3.1711 0
M  V30 6332 C 572.968 2.91546 -1.68828 0
M  V30 6333 O 573.498 3.85733 -1.12129 0
M  V30 6334 N 571.704 2.54901 -1.39549 0
M  V30 6335 H 571.251 1.7838 -1.85845 0
M  V30 6336 H 571.209 3.06553 -0.698054 0
M  V30 6337 N 574.981 1.5647 0.188427 0
M  V30 6338 C 576.211 1.84863 0.922463 0
M  V30 6339 C 576.619 0.666413 1.77075 0
M  V30 6340 O 575.962 -0.374044 1.79852 0
M  V30 6341 C 576.024 3.07447 1.86324 0
M  V30 6342 C 575.688 4.41066 1.19625 0
M  V30 6343 C 576.685 5.16767 0.569946 0
M  V30 6344 C 574.37 4.87802 1.19811 0
M  V30 6345 C 576.364 6.37384 -0.045594 0
M  V30 6346 C 574.051 6.08353 0.57874 0
M  V30 6347 C 575.049 6.82987 -0.0420259 0
M  V30 6348 O 574.737 8.01254 -0.651675 0
M  V30 6349 H 574.469 0.61784 0.274316 0
M  V30 6350 H 577.023 2.04437 0.198613 0
M  V30 6351 H 575.253 2.83774 2.62696 0
M  V30 6352 H 576.942 3.2243 2.46564 0
M  V30 6353 H 577.708 4.81749 0.560601 0
M  V30 6354 H 573.587 4.29662 1.67069 0
M  V30 6355 H 577.131 6.95578 -0.530731 0
M  V30 6356 H 573.028 6.42838 0.58561 0
M  V30 6357 H 573.796 8.16655 -0.549236 0
M  V30 6358 N 576.459 -0.456382 1.50847 0
M  V30 6359 C 577.689 -1.22848 1.66108 0
M  V30 6360 C 578.097 -1.85936 0.349897 0
M  V30 6361 O 577.44 -1.70664 -0.679665 0
M  V30 6362 C 577.502 -2.36722 2.70561 0
M  V30 6363 C 577.166 -1.94154 4.13707 0
M  V30 6364 C 578.163 -1.4557 4.99105 0
M  V30 6365 C 575.848 -2.02426 4.59705 0
M  V30 6366 C 577.842 -1.0582 6.28555 0
M  V30 6367 C 575.529 -1.62287 5.89157 0
M  V30 6368 C 576.527 -1.14064 6.73408 0
M  V30 6369 O 576.215 -0.744873 8.00442 0
M  V30 6370 H 575.947 -0.377105 0.561042 0
M  V30 6371 H 578.501 -0.549431 1.97915 0
M  V30 6372 H 576.731 -3.07844 2.34027 0
M  V30 6373 H 578.42 -2.98646 2.74892 0
M  V30 6374 H 579.186 -1.38589 4.64777 0
M  V30 6375 H 575.065 -2.38908 3.94264 0
M  V30 6376 H 578.609 -0.6811 6.94267 0
M  V30 6377 H 574.506 -1.68932 6.23003 0
M  V30 6378 H 575.274 -0.87242 8.13837 0
M  V30 6379 N 577.937 -1.40673 -0.710563 0
M  V30 6380 C 579.214 -1.29718 -1.46398 0
M  V30 6381 C 579.594 0.082177 -2.1094 0
M  V30 6382 O 578.942 1.09536 -2.00534 0
M  V30 6383 C 579.152 -2.43967 -2.49562 0
M  V30 6384 C 580.5 -2.84436 -3.15248 0
M  V30 6385 O 581.524 -2.43597 -2.59883 0
M  V30 6386 O 580.383 -3.55008 -4.1549 0
M  V30 6387 H 577.477 -0.509697 -0.651258 0
M  V30 6388 H 580.023 -1.52603 -0.742312 0
M  V30 6389 H 578.795 -3.36076 -2.0042 0
M  V30 6390 H 578.418 -2.22879 -3.29258 0
M  V30 6391 N 579.415 0.9433 -1.26252 0
M  V30 6392 C 580.643 1.72367 -1.14443 0
M  V30 6393 C 581.058 1.86392 0.300572 0
M  V30 6394 O 580.415 1.36978 1.20596 0
M  V30 6395 C 580.466 3.13155 -1.806 0
M  V30 6396 O 580.187 2.99803 -3.19452 0
M  V30 6397 C 581.688 4.07417 -1.74717 0
M  V30 6398 H 578.908 0.539758 -0.398626 0
M  V30 6399 H 581.452 1.18268 -1.66832 0
M  V30 6400 H 579.607 3.64162 -1.32154 0
M  V30 6401 H 580.021 3.88697 -3.52158 0
M  V30 6402 H 581.495 5.03773 -2.25647 0
M  V30 6403 H 581.972 4.3337 -0.713244 0
M  V30 6404 H 582.578 3.6233 -2.22704 0
M  V30 6405 N 580.893 1.08022 1.14757 0
M  V30 6406 C 582.139 0.808705 1.85978 0
M  V30 6407 C 582.472 -0.663764 1.82504 0
M  V30 6408 O 581.747 -1.48765 1.25296 0
M  V30 6409 C 582.03 1.32623 3.34788 0
M  V30 6410 C 581.883 2.86375 3.46856 0
M  V30 6411 C 583.202 0.948291 4.29762 0
M  V30 6412 H 580.321 0.295244 0.675278 0
M  V30 6413 H 582.963 1.33917 1.34783 0
M  V30 6414 H 581.113 0.875002 3.78518 0
M  V30 6415 H 582.785 3.39839 3.11941 0
M  V30 6416 H 581.028 3.24232 2.88194 0
M  V30 6417 H 581.699 3.17658 4.51439 0
M  V30 6418 H 584.175 1.33722 3.94028 0
M  V30 6419 H 583.051 1.33765 5.32352 0
M  V30 6420 H 583.312 -0.145094 4.41862 0
M  V30 6421 N 582.371 -1.3172 0.865308 0
M  V30 6422 C 583.318 -2.2863 0.315736 0
M  V30 6423 C 584.288 -1.55524 -0.583213 0
M  V30 6424 O 585.473 -1.83694 -0.51585 0
M  V30 6425 C 582.613 -3.41735 -0.480773 0
M  V30 6426 C 581.726 -4.297 0.445167 0
M  V30 6427 C 580.861 -5.29944 -0.365012 0
M  V30 6428 C 579.9 -6.09554 0.557651 0
M  V30 6429 N 579.037 -7.01768 -0.215994 0
M  V30 6430 H 583.877 -2.75026 1.14736 0
M  V30 6431 H 581.414 -1.35302 0.577209 0
M  V30 6432 H 583.372 -4.06045 -0.958306 0
M  V30 6433 H 582.002 -2.96461 -1.27714 0
M  V30 6434 H 581.054 -3.65875 1.04113 0
M  V30 6435 H 582.366 -4.85295 1.15284 0
M  V30 6436 H 581.52 -5.99908 -0.905255 0
M  V30 6437 H 580.259 -4.74994 -1.106 0
M  V30 6438 H 579.264 -5.38485 1.10969 0
M  V30 6439 H 580.489 -6.66591 1.29742 0
M  V30 6440 H 578.435 -6.49232 -0.939878 0
M  V30 6441 H 578.352 -7.54762 0.432431 0
M  V30 6442 H 579.62 -7.76002 -0.737618 0
M  V30 6443 N 583.85 -0.624285 -1.44708 0
M  V30 6444 C 585.127 -0.0572781 -1.95516 0
M  V30 6445 C 585.507 1.41516 -1.56641 0
M  V30 6446 O 584.855 2.12614 -0.837111 0
M  V30 6447 C 585.065 -0.272944 -3.47931 0
M  V30 6448 C 586.413 -0.162529 -4.24289 0
M  V30 6449 O 587.437 -0.203946 -3.55616 0
M  V30 6450 O 586.296 -0.0616847 -5.46465 0
M  V30 6451 H 583.389 0.0262219 -0.826584 0
M  V30 6452 H 585.936 -0.695512 -1.54793 0
M  V30 6453 H 584.707 -1.29492 -3.69253 0
M  V30 6454 H 584.331 0.399756 -3.95585 0
M  V30 6455 N 585.328 1.53329 -0.364422 0
M  V30 6456 C 586.576 2.00842 0.225189 0
M  V30 6457 C 586.897 1.25345 1.49378 0
M  V30 6458 O 586.167 0.366396 1.92443 0
M  V30 6459 H 584.747 0.742009 0.0862027 0
M  V30 6460 H 587.409 1.8863 -0.490389 0
M  V30 6461 H 586.505 3.08795 0.452987 0
M  V30 6462 N 586.806 0.0935595 1.57322 0
M  V30 6463 C 588.052 -0.571355 1.94585 0
M  V30 6464 C 588.385 -1.67929 0.975366 0
M  V30 6465 O 587.66 -1.94498 0.00816206 0
M  V30 6466 C 587.943 -1.12797 3.41978 0
M  V30 6467 C 587.796 -0.0251881 4.49793 0
M  V30 6468 C 589.115 -2.02682 3.90651 0
M  V30 6469 H 586.234 -0.206223 0.70756 0
M  V30 6470 H 588.876 0.163956 1.89291 0
M  V30 6471 H 587.026 -1.75461 3.4662 0
M  V30 6472 H 588.698 0.608979 4.57263 0
M  V30 6473 H 586.941 0.641399 4.29032 0
M  V30 6474 H 587.612 -0.455433 5.50118 0
M  V30 6475 H 590.088 -1.49925 3.88152 0
M  V30 6476 H 588.964 -2.38555 4.94351 0
M  V30 6477 H 589.225 -2.94362 3.29854 0
M  V30 6478 N 588.284 -1.56567 -0.180126 0
M  V30 6479 C 589.514 -1.85349 -0.912647 0
M  V30 6480 C 589.922 -0.675795 -1.76719 0
M  V30 6481 O 589.265 0.3645 -1.80047 0
M  V30 6482 C 589.327 -3.08431 -1.84691 0
M  V30 6483 C 588.991 -4.41694 -1.17284 0
M  V30 6484 C 589.988 -5.17062 -0.542532 0
M  V30 6485 C 587.673 -4.8843 -1.17223 0
M  V30 6486 C 589.667 -6.37351 0.0793953 0
M  V30 6487 C 587.354 -6.08652 -0.54647 0
M  V30 6488 C 588.352 -6.82955 0.0782458 0
M  V30 6489 O 588.04 -8.00897 0.694158 0
M  V30 6490 H 587.772 -0.619286 -0.271036 0
M  V30 6491 H 590.326 -2.0454 -0.187768 0
M  V30 6492 H 588.556 -2.85163 -2.61188 0
M  V30 6493 H 590.245 -3.23733 -2.44851 0
M  V30 6494 H 591.011 -4.8204 -0.535045 0
M  V30 6495 H 586.89 -4.30542 -1.64788 0
M  V30 6496 H 590.434 -6.95287 0.567612 0
M  V30 6497 H 586.331 -6.4314 -0.55151 0
M  V30 6498 H 587.099 -8.16352 0.592537 0
M  V30 6499 N 589.762 0.448376 -1.51087 0
M  V30 6500 C 590.692 1.55102 -1.74544 0
M  V30 6501 C 591.673 1.59357 -0.594932 0
M  V30 6502 O 592.858 1.75261 -0.836491 0
M  V30 6503 C 589.988 2.93268 -1.86041 0
M  V30 6504 C 588.942 3.03877 -3.01402 0
M  V30 6505 C 588.268 4.43914 -2.98068 0
M  V30 6506 C 589.568 2.7898 -4.41551 0
M  V30 6507 H 591.262 1.35724 -2.66869 0
M  V30 6508 H 588.808 0.651498 -1.28419 0
M  V30 6509 H 590.761 3.70356 -2.01034 0
M  V30 6510 H 589.485 3.13853 -0.903548 0
M  V30 6511 H 588.144 2.29227 -2.86096 0
M  V30 6512 H 587.792 4.6145 -2.00182 0
M  V30 6513 H 587.492 4.51944 -3.75527 0
M  V30 6514 H 589.016 5.22991 -3.1514 0
M  V30 6515 H 590.43 3.45805 -4.57265 0
M  V30 6516 H 588.827 2.98431 -5.20633 0
M  V30 6517 H 589.897 1.74663 -4.5235 0
M  V30 6518 N 591.24 1.41047 0.703093 0
M  V30 6519 C 592.517 1.30493 1.45708 0
M  V30 6520 C 592.897 -0.0709892 2.10981 0
M  V30 6521 O 592.245 -1.08471 2.01113 0
M  V30 6522 C 592.455 2.45287 2.48265 0
M  V30 6523 C 593.803 2.86104 3.13735 0
M  V30 6524 O 594.827 2.44971 2.58587 0
M  V30 6525 O 593.686 3.57206 4.13601 0
M  V30 6526 H 590.78 0.513144 0.648546 0
M  V30 6527 H 593.326 1.52995 0.734208 0
M  V30 6528 H 592.098 3.37135 1.98635 0
M  V30 6529 H 591.721 2.24622 3.28071 0
M  V30 6530 N 592.718 -0.936591 1.26751 0
M  V30 6531 C 593.668 -2.0219 1.05371 0
M  V30 6532 C 594.652 -1.60893 -0.0154112 0
M  V30 6533 O 595.844 -1.75843 0.202085 0
M  V30 6534 C 592.973 -3.36222 0.693541 0
M  V30 6535 C 592.059 -3.8399 1.80035 0
M  V30 6536 N 592.45 -4.0436 3.03852 0
M  V30 6537 C 590.748 -4.12945 1.685 0
M  V30 6538 C 591.449 -4.44 3.75818 0
M  V30 6539 N 590.425 -4.50966 3.03531 0
M  V30 6540 H 594.227 -2.15958 1.99347 0
M  V30 6541 H 591.741 -1.12277 1.17335 0
M  V30 6542 H 593.738 -4.13625 0.521513 0
M  V30 6543 H 592.398 -3.23821 -0.238693 0
M  V30 6544 H 593.409 -3.9092 3.39709 0
M  V30 6545 H 590.086 -4.09308 0.822986 0
M  V30 6546 H 591.476 -4.67914 4.82189 0
M  V30 6547 N 594.196 -1.08629 -1.14182 0
M  V30 6548 C 595.106 -0.730126 -2.22949 0
M  V30 6549 C 596.122 0.26436 -1.7198 0
M  V30 6550 O 597.298 0.107742 -2.01112 0
M  V30 6551 C 594.363 -0.147227 -3.46387 0
M  V30 6552 C 593.424 -1.19662 -4.12286 0
M  V30 6553 C 592.657 -0.641437 -5.29831 0
M  V30 6554 O 592.88 0.538351 -5.67854 0
M  V30 6555 O 591.814 -1.39257 -5.85569 0
M  V30 6556 H 595.64 -1.63753 -2.55771 0
M  V30 6557 H 593.225 -0.860118 -1.22157 0
M  V30 6558 H 595.107 0.174923 -4.21037 0
M  V30 6559 H 593.782 0.733304 -3.15285 0
M  V30 6560 H 592.689 -1.57133 -3.395 0
M  V30 6561 H 594.022 -2.0495 -4.475 0
M  V30 6562 N 595.674 1.31259 -0.872281 0
M  V30 6563 C 596.902 2.00795 -0.498907 0
M  V30 6564 C 597.317 1.65464 0.909238 0
M  V30 6565 O 596.674 0.885073 1.59602 0
M  V30 6566 C 596.725 3.55625 -0.649092 0
M  V30 6567 O 596.446 3.89692 -2.00179 0
M  V30 6568 C 597.947 4.42434 -0.277034 0
M  V30 6569 H 595.167 0.642299 -0.194145 0
M  V30 6570 H 597.711 1.67438 -1.17408 0
M  V30 6571 H 595.866 3.87394 -0.0214402 0
M  V30 6572 H 596.28 4.84407 -2.01122 0
M  V30 6573 H 597.754 5.50299 -0.433064 0
M  V30 6574 H 598.231 4.32146 0.783989 0
M  V30 6575 H 598.837 4.16086 -0.880483 0
M  V30 6576 N 597.152 0.631951 1.44375 0
M  V30 6577 C 598.377 0.142146 2.06912 0
M  V30 6578 C 598.802 -1.17456 1.4692 0
M  V30 6579 O 598.16 -1.72074 0.570975 0
M  V30 6580 C 598.208 0.0417952 3.60576 0
M  V30 6581 O 597.312 -1.00194 4.00044 0
M  V30 6582 H 596.653 0.0851491 0.658518 0
M  V30 6583 H 599.183 0.868863 1.85235 0
M  V30 6584 H 599.193 -0.148517 4.0773 0
M  V30 6585 H 597.868 1.0031 4.03622 0
M  V30 6586 H 596.445 -0.786131 3.64519 0
M  V30 6587 N 598.631 -1.53133 0.372548 0
M  V30 6588 C 599.908 -1.93704 -0.271693 0
M  V30 6589 C 600.288 -1.30667 -1.65799 0
M  V30 6590 O 599.636 -0.46838 -2.23648 0
M  V30 6591 C 599.846 -3.47576 -0.314903 0
M  V30 6592 C 601.194 -4.20998 -0.551912 0
M  V30 6593 O 602.218 -3.53994 -0.39582 0
M  V30 6594 O 601.077 -5.39748 -0.85639 0
M  V30 6595 H 598.171 -0.810457 -0.164586 0
M  V30 6596 H 600.717 -1.6427 0.425838 0
M  V30 6597 H 599.489 -3.85749 0.656792 0
M  V30 6598 H 599.112 -3.83264 -1.05804 0
M  V30 6599 N 600.109 -0.101901 -1.5727 0
M  V30 6600 C 601.072 0.840129 -2.13247 0
M  V30 6601 C 602.072 1.20625 -1.06331 0
M  V30 6602 O 603.262 1.13456 -1.32186 0
M  V30 6603 C 600.394 2.13372 -2.65867 0
M  V30 6604 H 601.587 0.353945 -2.97804 0
M  V30 6605 H 599.14 0.147167 -1.55606 0
M  V30 6606 H 599.875 2.66461 -1.84849 0
M  V30 6607 H 599.66 1.88085 -3.44044 0
M  V30 6608 H 601.15 2.80748 -3.09145 0
M  V30 6609 N 601.587 1.56661 0.17182 0
M  V30 6610 C 602.517 1.99401 1.21498 0
M  V30 6611 C 603.498 0.869516 1.46197 0
M  V30 6612 O 604.683 1.13556 1.57539 0
M  V30 6613 C 601.813 2.35346 2.55401 0
M  V30 6614 C 600.767 3.5075 2.45272 0
M  V30 6615 C 600.093 3.72437 3.8366 0
M  V30 6616 C 601.393 4.84216 1.95787 0
M  V30 6617 H 603.087 2.86792 0.859699 0
M  V30 6618 H 600.633 1.37977 0.412103 0
M  V30 6619 H 602.586 2.63843 3.2858 0
M  V30 6620 H 601.31 1.44864 2.92715 0
M  V30 6621 H 599.969 3.2238 1.74547 0
M  V30 6622 H 599.617 2.79246 4.18367 0
M  V30 6623 H 599.317 4.50087 3.77751 0
M  V30 6624 H 600.841 4.03334 4.58426 0
M  V30 6625 H 602.255 5.11592 2.5874 0
M  V30 6626 H 600.652 5.65498 2.00827 0
M  V30 6627 H 601.722 4.76243 0.912159 0
M  V30 6628 N 603.065 -0.440357 1.51323 0
M  V30 6629 C 604.295 -1.21079 1.67402 0
M  V30 6630 C 604.703 -1.85555 0.369599 0
M  V30 6631 O 604.046 -1.71375 -0.661525 0
M  V30 6632 C 604.108 -2.33839 2.73056 0
M  V30 6633 C 603.772 -1.89755 4.15743 0
M  V30 6634 C 604.769 -1.40268 5.0062 0
M  V30 6635 C 602.454 -1.97539 4.61826 0
M  V30 6636 C 604.448 -0.991474 6.29642 0
M  V30 6637 C 602.135 -1.56029 5.90845 0
M  V30 6638 C 603.133 -1.06915 6.7458 0
M  V30 6639 O 602.821 -0.659933 8.01187 0
M  V30 6640 H 602.553 -0.371133 0.56501 0
M  V30 6641 H 605.107 -0.528409 1.98487 0
M  V30 6642 H 603.337 -3.05345 2.37279 0
M  V30 6643 H 605.026 -2.95713 2.78044 0
M  V30 6644 H 605.792 -1.33652 4.66221 0
M  V30 6645 H 601.671 -2.34713 3.96776 0
M  V30 6646 H 605.215 -0.607425 6.9495 0
M  V30 6647 H 601.112 -1.62315 6.24759 0
M  V30 6648 H 601.88 -0.786052 8.14717 0
M  V30 6649 N 604.543 -1.41418 -0.695603 0
M  V30 6650 C 605.771 -1.4413 -1.48439 0
M  V30 6651 C 606.186 -0.0465698 -1.88743 0
M  V30 6652 O 605.543 0.934117 -1.56782 0
M  V30 6653 C 605.594 -2.34998 -2.74696 0
M  V30 6654 O 605.315 -3.69043 -2.36091 0
M  V30 6655 C 606.816 -2.46513 -3.68438 0
M  V30 6656 H 604.036 -0.490905 -0.457442 0
M  V30 6657 H 606.58 -1.85702 -0.856454 0
M  V30 6658 H 604.735 -1.96735 -3.33728 0
M  V30 6659 H 605.149 -4.17505 -3.17474 0
M  V30 6660 H 606.623 -3.1426 -4.53811 0
M  V30 6661 H 607.1 -1.49638 -4.12922 0
M  V30 6662 H 607.706 -2.85412 -3.1531 0
M  V30 6663 N 606.021 0.929856 -1.27246 0
M  V30 6664 C 607.298 1.65544 -1.04186 0
M  V30 6665 C 607.678 2.06796 0.424097 0
M  V30 6666 O 607.026 1.80053 1.40688 0
M  V30 6667 C 607.236 2.85912 -2.00138 0
M  V30 6668 C 608.584 3.57305 -2.29387 0
M  V30 6669 O 609.608 2.96036 -1.98094 0
M  V30 6670 O 608.467 4.67688 -2.82719 0
M  V30 6671 H 605.561 0.725473 -0.397011 0
M  V30 6672 H 608.107 0.980583 -1.38501 0
M  V30 6673 H 606.879 2.52403 -2.99013 0
M  V30 6674 H 606.502 3.61118 -1.66371 0
M  V30 6675 N 607.499 1.09233 1.13605 0
M  V30 6676 C 608.409 0.741939 2.22559 0
M  V30 6677 C 609.425 -0.255236 1.72118 0
M  V30 6678 O 610.601 -0.0970747 2.01166 0
M  V30 6679 C 607.666 0.165595 3.46304 0
M  V30 6680 C 606.727 1.21846 4.11645 0
M  V30 6681 C 605.96 0.669526 5.29484 0
M  V30 6682 O 606.183 -0.508228 5.68131 0
M  V30 6683 O 605.117 1.42361 5.84822 0
M  V30 6684 H 608.943 1.65107 2.54899 0
M  V30 6685 H 606.528 0.866584 1.21699 0
M  V30 6686 H 608.41 -0.152592 4.21124 0
M  V30 6687 H 607.085 -0.716573 3.15669 0
M  V30 6688 H 605.992 1.58931 3.38662 0
M  V30 6689 H 607.325 2.07321 4.46407 0
M  V30 6690 N 608.977 -1.30795 0.87923 0
M  V30 6691 C 610.254 -1.91145 0.415086 0
M  V30 6692 C 610.634 -1.7995 -1.10368 0
M  V30 6693 O 609.982 -1.21305 -1.93642 0
M  V30 6694 C 610.192 -3.37014 0.906778 0
M  V30 6695 C 611.54 -4.14101 0.938358 0
M  V30 6696 O 612.564 -3.45834 0.853053 0
M  V30 6697 O 611.423 -5.36054 1.06342 0
M  V30 6698 H 608.517 -0.81736 0.125905 0
M  V30 6699 H 611.063 -1.39401 0.967753 0
M  V30 6700 H 609.835 -3.3922 1.95053 0
M  V30 6701 H 609.458 -3.96204 0.332948 0
M  V30 6702 N 610.455 -0.639598 -1.44038 0
M  V30 6703 C 611.385 0.0469443 -2.33453 0
M  V30 6704 C 612.366 0.82609 -1.48694 0
M  V30 6705 O 613.551 0.790285 -1.77393 0
M  V30 6706 C 610.681 1.02338 -3.3188 0
M  V30 6707 C 609.635 0.355284 -4.26523 0
M  V30 6708 C 608.961 1.44221 -5.14883 0
M  V30 6709 C 610.261 -0.743798 -5.16977 0
M  V30 6710 H 611.955 -0.699735 -2.91108 0
M  V30 6711 H 609.501 -0.337946 -1.39978 0
M  V30 6712 H 611.454 1.51247 -3.93322 0
M  V30 6713 H 610.178 1.80105 -2.72451 0
M  V30 6714 H 608.837 -0.113239 -3.66425 0
M  V30 6715 H 608.485 2.21097 -4.51802 0
M  V30 6716 H 608.185 1.00052 -5.79019 0
M  V30 6717 H 609.709 1.93295 -5.79197 0
M  V30 6718 H 611.123 -0.337444 -5.72306 0
M  V30 6719 H 609.52 -1.10914 -5.89761 0
M  V30 6720 H 610.59 -1.60745 -4.57481 0
M  V30 6721 N 611.933 1.52934 -0.380664 0
M  V30 6722 C 612.863 2.29118 0.450268 0
M  V30 6723 C 613.844 1.32153 1.07096 0
M  V30 6724 O 615.029 1.61038 1.08537 0
M  V30 6725 C 612.159 3.09161 1.58231 0
M  V30 6726 C 611.113 4.13938 1.0881 0
M  V30 6727 C 610.439 4.82153 2.31155 0
M  V30 6728 C 611.739 5.22048 0.162146 0
M  V30 6729 H 613.433 2.98826 -0.185361 0
M  V30 6730 H 610.979 1.43715 -0.0905886 0
M  V30 6731 H 612.932 3.61211 2.17036 0
M  V30 6732 H 611.656 2.3717 2.2454 0
M  V30 6733 H 610.315 3.62855 0.522633 0
M  V30 6734 H 609.963 4.06719 2.95953 0
M  V30 6735 H 609.663 5.52966 1.98752 0
M  V30 6736 H 611.187 5.37004 2.90618 0
M  V30 6737 H 612.601 5.6951 0.658126 0
M  V30 6738 H 610.998 6.00057 -0.0717122 0
M  V30 6739 H 612.068 4.78398 -0.791438 0
M  V30 6740 N 613.412 0.11024 1.57214 0
M  V30 6741 C 614.659 -0.54987 1.94891 0
M  V30 6742 C 614.987 -1.67243 0.992984 0
M  V30 6743 O 614.242 -1.95694 0.0152703 0
M  V30 6744 C 614.541 -1.13102 3.39032 0
M  V30 6745 C 614.207 -0.130713 4.5071 0
M  V30 6746 C 612.869 0.14437 4.80983 0
M  V30 6747 C 615.221 0.551472 5.18274 0
M  V30 6748 C 612.549 1.10807 5.76141 0
M  V30 6749 C 614.901 1.50375 6.14467 0
M  V30 6750 C 613.565 1.78691 6.43138 0
M  V30 6751 H 612.835 -0.201212 0.713158 0
M  V30 6752 H 615.482 0.189288 1.90562 0
M  V30 6753 H 613.787 -1.94675 3.40013 0
M  V30 6754 H 615.484 -1.64973 3.65493 0
M  V30 6755 H 612.074 -0.355301 4.27125 0
M  V30 6756 H 616.258 0.35211 4.95049 0
M  V30 6757 H 611.514 1.3343 5.96663 0
M  V30 6758 H 615.688 2.03808 6.65909 0
M  V30 6759 H 613.315 2.53522 7.1668 0
M  V30 6760 N 614.89 -1.56749 -0.16351 0
M  V30 6761 C 616.167 -1.73321 -0.906599 0
M  V30 6762 C 616.547 -0.673779 -2.00059 0
M  V30 6763 O 615.895 0.310121 -2.26386 0
M  V30 6764 C 616.105 -3.168 -1.46419 0
M  V30 6765 C 617.453 -3.77993 -1.93407 0
M  V30 6766 O 618.477 -3.20127 -1.56196 0
M  V30 6767 O 617.336 -4.79615 -2.61976 0
M  V30 6768 H 614.43 -0.708073 -0.427272 0
M  V30 6769 H 616.976 -1.69029 -0.150727 0
M  V30 6770 H 615.748 -3.85396 -0.677189 0
M  V30 6771 H 615.371 -3.2545 -2.28403 0
M  V30 6772 N 616.368 0.432326 -1.51554 0
M  V30 6773 C 617.298 1.53242 -1.76179 0
M  V30 6774 C 618.279 1.58717 -0.611801 0
M  V30 6775 O 619.464 1.74364 -0.855033 0
M  V30 6776 C 616.594 2.91278 -1.89141 0
M  V30 6777 C 615.548 3.00663 -3.04608 0
M  V30 6778 C 614.874 4.40728 -3.02759 0
M  V30 6779 C 616.174 2.74281 -4.44485 0
M  V30 6780 H 617.868 1.32886 -2.68294 0
M  V30 6781 H 615.414 0.637841 -1.29103 0
M  V30 6782 H 617.367 3.68203 -2.04951 0
M  V30 6783 H 616.091 3.12877 -0.936785 0
M  V30 6784 H 614.75 2.26179 -2.88511 0
M  V30 6785 H 614.398 4.59301 -2.05065 0
M  V30 6786 H 614.098 4.47936 -3.80299 0
M  V30 6787 H 615.622 5.19619 -3.20669 0
M  V30 6788 H 617.036 3.40936 -4.60907 0
M  V30 6789 H 615.433 2.92893 -5.23769 0
M  V30 6790 H 616.503 1.69856 -4.54177 0
M  V30 6791 N 617.846 1.41785 0.688094 0
M  V30 6792 C 618.756 1.46596 1.83158 0
M  V30 6793 C 619.772 0.355862 1.70322 0
M  V30 6794 O 620.948 0.604737 1.92106 0
M  V30 6795 C 618.013 1.35322 3.192 0
M  V30 6796 C 617.074 2.56711 3.4409 0
M  V30 6797 C 616.307 2.45965 4.73642 0
M  V30 6798 O 616.53 1.48827 5.50642 0
M  V30 6799 O 615.464 3.35859 4.99482 0
M  V30 6800 H 619.29 2.43083 1.82056 0
M  V30 6801 H 616.875 1.23404 0.842126 0
M  V30 6802 H 618.757 1.31347 4.00407 0
M  V30 6803 H 617.432 0.419536 3.2097 0
M  V30 6804 H 616.339 2.66262 2.62784 0
M  V30 6805 H 617.672 3.48933 3.47141 0
M  V30 6806 N 619.324 -0.923095 1.27737 0
M  V30 6807 C 620.271 -2.02432 1.1086 0
M  V30 6808 C 621.241 -1.66098 0.00835195 0
M  V30 6809 O 622.426 -1.90027 0.171542 0
M  V30 6810 C 619.566 -3.36476 0.766671 0
M  V30 6811 C 618.679 -3.85737 1.94501 0
M  V30 6812 C 617.814 -5.08249 1.54455 0
M  V30 6813 C 616.853 -5.49818 2.6901 0
M  V30 6814 N 615.99 -6.63524 2.29521 0
M  V30 6815 H 620.83 -2.16201 2.05089 0
M  V30 6816 H 618.367 -1.05909 1.02087 0
M  V30 6817 H 620.325 -4.13569 0.549223 0
M  V30 6818 H 618.955 -3.22502 -0.13867 0
M  V30 6819 H 618.007 -3.04883 2.27487 0
M  V30 6820 H 619.319 -4.12513 2.80419 0
M  V30 6821 H 618.473 -5.92857 1.28862 0
M  V30 6822 H 617.212 -4.83261 0.656534 0
M  V30 6823 H 616.217 -4.63757 2.95313 0
M  V30 6824 H 617.442 -5.76799 3.5844 0
M  V30 6825 H 615.388 -6.40185 1.43177 0
M  V30 6826 H 615.305 -6.89978 3.08977 0
M  V30 6827 H 616.573 -7.51461 2.07187 0
M  V30 6828 N 620.802 -1.09834 -1.13024 0
M  V30 6829 C 621.734 -0.699379 -2.18269 0
M  V30 6830 C 622.747 0.260841 -1.60697 0
M  V30 6831 O 623.936 0.0462538 -1.7844 0
M  V30 6832 C 621.036 -0.0104537 -3.38898 0
M  V30 6833 C 620.209 -0.993275 -4.25973 0
M  V30 6834 C 619.268 -0.336982 -5.2512 0
M  V30 6835 O 618.294 -0.985892 -5.60597 0
M  V30 6836 N 619.496 0.90716 -5.73368 0
M  V30 6837 H 622.261 -1.60486 -2.5311 0
M  V30 6838 H 619.822 -0.986337 -1.28386 0
M  V30 6839 H 621.814 0.43991 -4.02302 0
M  V30 6840 H 620.384 0.797335 -3.0226 0
M  V30 6841 H 619.604 -1.62208 -3.5928 0
M  V30 6842 H 620.892 -1.65876 -4.81002 0
M  V30 6843 H 620.29 1.45384 -5.46699 0
M  V30 6844 H 618.847 1.30077 -6.38689 0
M  V30 6845 N 622.28 1.30327 -0.886154 0
M  V30 6846 C 623.227 2.28099 -0.352069 0
M  V30 6847 C 624.197 1.56433 0.558397 0
M  V30 6848 O 625.382 1.84492 0.486561 0
M  V30 6849 C 622.522 3.42456 0.426346 0
M  V30 6850 C 621.635 4.28938 -0.513472 0
M  V30 6851 C 620.77 5.30458 0.280657 0
M  V30 6852 C 619.809 6.0859 -0.654556 0
M  V30 6853 N 618.946 7.02022 0.104322 0
M  V30 6854 H 623.786 2.73166 -1.19097 0
M  V30 6855 H 621.323 1.34367 -0.598662 0
M  V30 6856 H 623.281 4.07518 0.893587 0
M  V30 6857 H 621.911 2.98455 1.22981 0
M  V30 6858 H 620.963 3.64173 -1.09921 0
M  V30 6859 H 622.275 4.83399 -1.2299 0
M  V30 6860 H 621.429 6.01273 0.8097 0
M  V30 6861 H 620.168 4.76693 1.03029 0
M  V30 6862 H 619.173 5.36651 -1.19522 0
M  V30 6863 H 620.398 6.64443 -1.4033 0
M  V30 6864 H 618.344 6.50645 0.836472 0
M  V30 6865 H 618.261 7.53979 -0.552453 0
M  V30 6866 H 619.529 7.77077 0.614069 0
M  V30 6867 N 623.758 0.647228 1.43697 0
M  V30 6868 C 624.988 0.16551 2.05936 0
M  V30 6869 C 625.396 -1.17164 1.48557 0
M  V30 6870 O 624.739 -1.73307 0.60914 0
M  V30 6871 C 624.801 -0.00648082 3.59499 0
M  V30 6872 C 624.465 1.25503 4.39429 0
M  V30 6873 C 625.462 2.18241 4.71876 0
M  V30 6874 C 623.147 1.49494 4.79538 0
M  V30 6875 C 625.141 3.33268 5.43333 0
M  V30 6876 C 622.828 2.64815 5.50742 0
M  V30 6877 C 623.826 3.56528 5.82561 0
M  V30 6878 O 623.514 4.69836 6.52311 0
M  V30 6879 H 623.246 0.0844124 0.670709 0
M  V30 6880 H 625.8 0.88638 1.8529 0
M  V30 6881 H 624.03 -0.782661 3.78697 0
M  V30 6882 H 625.719 -0.444794 4.03456 0
M  V30 6883 H 626.485 2.00946 4.41413 0
M  V30 6884 H 622.364 0.789912 4.54182 0
M  V30 6885 H 625.908 4.04874 5.68087 0
M  V30 6886 H 621.805 2.82047 5.8062 0
M  V30 6887 H 622.573 4.69024 6.70789 0
M  V30 6888 N 625.236 -1.5273 0.388769 0
M  V30 6889 C 626.169 -2.22861 -0.490752 0
M  V30 6890 C 627.147 -1.22912 -1.06449 0
M  V30 6891 O 628.331 -1.51896 -1.11624 0
M  V30 6892 C 625.458 -2.94141 -1.67925 0
M  V30 6893 C 624.504 -4.08355 -1.23081 0
M  V30 6894 S 625.337 -5.35077 -0.212786 0
M  V30 6895 C 626.493 -6.09879 -1.40708 0
M  V30 6896 H 626.726 -2.97115 0.104787 0
M  V30 6897 H 624.259 -1.53428 0.172956 0
M  V30 6898 H 626.217 -3.35818 -2.36085 0
M  V30 6899 H 624.878 -2.19568 -2.24608 0
M  V30 6900 H 624.071 -4.57328 -2.11818 0
M  V30 6901 H 623.673 -3.68688 -0.628121 0
M  V30 6902 H 625.965 -6.36018 -2.33424 0
M  V30 6903 H 626.908 -7.01586 -0.958271 0
M  V30 6904 H 627.316 -5.40646 -1.62364 0
M  V30 6905 N 626.714 -0.118576 -1.57153 0
M  V30 6906 C 627.991 0.583062 -1.86708 0
M  V30 6907 C 628.371 1.84841 -1.01967 0
M  V30 6908 O 627.719 2.28288 -0.0984673 0
M  V30 6909 C 627.929 0.875912 -3.3783 0
M  V30 6910 C 629.277 1.22916 -4.0642 0
M  V30 6911 O 630.301 0.966188 -3.42846 0
M  V30 6912 O 629.16 1.72269 -5.18638 0
M  V30 6913 H 626.254 0.294185 -0.772906 0
M  V30 6914 H 628.8 -0.153048 -1.69008 0
M  V30 6915 H 627.572 -0.0207776 -3.91294 0
M  V30 6916 H 627.195 1.66719 -3.60958 0
M  V30 6917 N 628.193 1.56834 0.155195 0
M  V30 6918 C 629.126 1.9278 1.22111 0
M  V30 6919 C 630.104 0.792588 1.41975 0
M  V30 6920 O 631.288 1.04743 1.5672 0
M  V30 6921 C 628.415 2.19273 2.58142 0
M  V30 6922 C 627.461 3.41932 2.54921 0
M  V30 6923 S 628.294 4.95769 2.02418 0
M  V30 6924 C 629.45 5.25375 3.40194 0
M  V30 6925 H 629.683 2.82889 0.914393 0
M  V30 6926 H 627.216 1.50133 0.360461 0
M  V30 6927 H 629.174 2.35217 3.36427 0
M  V30 6928 H 627.835 1.29843 2.86007 0
M  V30 6929 H 627.028 3.57721 3.55038 0
M  V30 6930 H 626.63 3.25188 1.8474 0
M  V30 6931 H 628.922 5.1834 4.36268 0
M  V30 6932 H 629.865 6.26889 3.29266 0
M  V30 6933 H 630.273 4.52906 3.36951 0
M  V30 6934 N 629.671 -0.424282 1.51781 0
M  V30 6935 C 630.601 -1.52305 1.7699 0
M  V30 6936 C 631.582 -1.5839 0.620209 0
M  V30 6937 O 632.767 -1.73908 0.864268 0
M  V30 6938 C 629.897 -2.90271 1.90683 0
M  V30 6939 C 628.851 -2.99043 3.06198 0
M  V30 6940 C 628.177 -4.39116 3.05092 0
M  V30 6941 C 629.477 -2.7192 4.45934 0
M  V30 6942 H 631.171 -1.31461 2.68995 0
M  V30 6943 H 628.717 -0.630985 1.29439 0
M  V30 6944 H 630.67 -3.6711 2.06901 0
M  V30 6945 H 629.394 -3.12376 0.953365 0
M  V30 6946 H 628.053 -2.24646 2.89706 0
M  V30 6947 H 627.701 -4.58207 2.07498 0
M  V30 6948 H 627.401 -4.45912 3.82669 0
M  V30 6949 H 628.925 -5.17911 3.2342 0
M  V30 6950 H 630.339 -3.38487 4.62709 0
M  V30 6951 H 628.736 -2.90111 5.25315 0
M  V30 6952 H 629.806 -1.67445 4.55072 0
M  V30 6953 N 631.149 -1.42148 -0.680565 0
M  V30 6954 C 632.426 -1.32795 -1.43614 0
M  V30 6955 C 632.806 0.037415 -2.11067 0
M  V30 6956 O 632.154 1.05258 -2.02813 0
M  V30 6957 C 632.364 -2.49206 -2.44331 0
M  V30 6958 C 633.712 -2.91059 -3.09144 0
M  V30 6959 O 634.736 -2.49054 -2.54657 0
M  V30 6960 O 633.595 -3.63741 -4.07866 0
M  V30 6961 H 630.689 -0.523397 -0.640301 0
M  V30 6962 H 633.235 -1.54144 -0.709775 0
M  V30 6963 H 632.007 -3.40252 -1.93247 0
M  V30 6964 H 631.63 -2.29813 -3.24456 0
M  V30 6965 N 632.627 0.916307 -1.28225 0
M  V30 6966 C 633.855 1.69901 -1.18073 0
M  V30 6967 C 634.27 1.86988 0.260968 0
M  V30 6968 O 633.627 1.39505 1.17663 0
M  V30 6969 C 633.678 3.09254 -1.87201 0
M  V30 6970 O 633.399 2.92959 -3.2574 0
M  V30 6971 C 634.9 4.0362 -1.83319 0
M  V30 6972 H 632.12 0.531181 -0.409985 0
M  V30 6973 H 634.664 1.14703 -1.69303 0
M  V30 6974 H 632.819 3.61277 -1.39848 0
M  V30 6975 H 633.233 3.81139 -3.60324 0
M  V30 6976 H 634.707 4.98873 -2.36282 0
M  V30 6977 H 635.184 4.3176 -0.805007 0
M  V30 6978 H 635.79 3.57524 -2.3034 0
M  V30 6979 N 634.105 1.10431 1.1244 0
M  V30 6980 C 635.33 0.869089 1.88313 0
M  V30 6981 C 635.755 -0.574912 1.79099 0
M  V30 6982 O 635.113 -1.40496 1.14589 0
M  V30 6983 C 635.161 1.32208 3.3549 0
M  V30 6984 O 634.265 0.487092 4.09513 0
M  V30 6985 H 633.606 0.313894 0.585121 0
M  V30 6986 H 636.136 1.47111 1.42195 0
M  V30 6987 H 636.146 1.31201 3.86329 0
M  V30 6988 H 634.821 2.37364 3.41513 0
M  V30 6989 H 633.398 0.562372 3.68635 0
M  V30 6990 N 635.583 -1.29855 0.893053 0
M  V30 6991 C 636.493 -2.31661 0.370157 0
M  V30 6992 C 637.509 -1.65677 -0.531723 0
M  V30 6993 O 638.685 -1.9691 -0.422902 0
M  V30 6994 C 635.75 -3.44388 -0.399741 0
M  V30 6995 C 634.811 -4.2598 0.532861 0
M  V30 6996 C 634.044 -5.33324 -0.200388 0
M  V30 6997 O 634.267 -5.52305 -1.42531 0
M  V30 6998 O 633.201 -6.00188 0.453668 0
M  V30 6999 H 637.027 -2.78354 1.2146 0
M  V30 7000 H 634.612 -1.34171 0.657153 0
M  V30 7001 H 636.494 -4.13037 -0.835358 0
M  V30 7002 H 635.169 -2.99815 -1.22035 0
M  V30 7003 H 634.076 -3.59998 1.01746 0
M  V30 7004 H 635.409 -4.74178 1.3197 0
M  V30 7005 N 637.061 -0.65484 -1.43351 0
M  V30 7006 C 637.971 0.0363603 -2.34572 0
M  V30 7007 C 638.987 0.810432 -1.53974 0
M  V30 7008 O 640.163 0.757308 -1.86619 0
M  V30 7009 C 637.228 0.989733 -3.32273 0
M  V30 7010 C 636.289 0.212414 -4.28774 0
M  V30 7011 C 635.522 1.12038 -5.21808 0
M  V30 7012 O 635.745 2.35967 -5.19303 0
M  V30 7013 O 634.679 0.59191 -5.98982 0
M  V30 7014 H 638.505 -0.714527 -2.95175 0
M  V30 7015 H 636.09 -0.415029 -1.4352 0
M  V30 7016 H 637.972 1.53759 -3.92347 0
M  V30 7017 H 636.647 1.72082 -2.74171 0
M  V30 7018 H 635.554 -0.379062 -3.72175 0
M  V30 7019 H 636.887 -0.479138 -4.89862 0
M  V30 7020 N 638.539 1.52521 -0.396863 0
M  V30 7021 C 639.449 2.30403 0.44178 0
M  V30 7022 C 640.465 1.37625 1.06468 0
M  V30 7023 O 641.641 1.70697 1.06886 0
M  V30 7024 C 638.706 3.1013 1.54986 0
M  V30 7025 C 637.767 4.18628 0.951279 0
M  V30 7026 C 637 4.94543 2.00655 0
M  V30 7027 O 637.223 4.70629 3.22281 0
M  V30 7028 O 636.157 5.797 1.61962 0
M  V30 7029 H 639.983 3.03087 -0.192892 0
M  V30 7030 H 637.568 1.48537 -0.16038 0
M  V30 7031 H 639.45 3.59816 2.19341 0
M  V30 7032 H 638.125 2.40251 2.16935 0
M  V30 7033 H 637.032 3.73119 0.270773 0
M  V30 7034 H 638.365 4.90763 0.375887 0
M  V30 7035 N 640.017 0.126909 1.57088 0
M  V30 7036 C 641.242 -0.53997 2.00248 0
M  V30 7037 C 641.667 -1.58927 1.00618 0
M  V30 7038 O 641.025 -1.81288 -0.0210131 0
M  V30 7039 C 641.073 -1.13565 3.4225 0
M  V30 7040 O 640.177 -2.25103 3.45547 0
M  V30 7041 H 639.518 -0.13412 0.650314 0
M  V30 7042 H 642.048 0.217718 2.03438 0
M  V30 7043 H 642.058 -1.46925 3.80627 0
M  V30 7044 H 640.733 -0.367122 4.14277 0
M  V30 7045 H 639.31 -1.93123 3.18995 0
M  V30 7046 N 641.495 -1.56914 -0.146875 0
M  V30 7047 C 642.741 -1.83628 -0.860741 0
M  V30 7048 C 643.074 -0.708528 -1.80813 0
M  V30 7049 O 642.349 0.287838 -1.92358 0
M  V30 7050 C 642.632 -3.20836 -1.63511 0
M  V30 7051 C 642.485 -4.44174 -0.709199 0
M  V30 7052 C 643.804 -3.55268 -2.59756 0
M  V30 7053 H 640.923 -0.667949 -0.311468 0
M  V30 7054 H 643.565 -1.89582 -0.125936 0
M  V30 7055 H 641.715 -3.15891 -2.26153 0
M  V30 7056 H 643.387 -4.61205 -0.0937781 0
M  V30 7057 H 641.63 -4.33796 -0.0187856 0
M  V30 7058 H 642.301 -5.36785 -1.28707 0
M  V30 7059 H 644.777 -3.60824 -2.07232 0
M  V30 7060 H 643.653 -4.52303 -3.10987 0
M  V30 7061 H 643.914 -2.81231 -3.41118 0
M  V30 7062 N 642.974 0.416227 -1.52004 0
M  V30 7063 C 643.884 1.53147 -1.77717 0
M  V30 7064 C 644.9 1.609 -0.662368 0
M  V30 7065 O 646.076 1.77747 -0.946991 0
M  V30 7066 C 643.141 2.88948 -1.91598 0
M  V30 7067 C 642.202 2.9114 -3.15493 0
M  V30 7068 C 641.435 4.20464 -3.28703 0
M  V30 7069 O 641.658 5.13981 -2.47345 0
M  V30 7070 O 640.592 4.29368 -4.21813 0
M  V30 7071 H 644.418 1.34357 -2.72363 0
M  V30 7072 H 642.003 0.601373 -1.36762 0
M  V30 7073 H 643.885 3.69505 -2.02593 0
M  V30 7074 H 642.56 3.07821 -1.00141 0
M  V30 7075 H 641.467 2.09461 -3.09962 0
M  V30 7076 H 642.8 2.77216 -4.06709 0
M  V30 7077 N 644.452 1.42507 0.673017 0
M  V30 7078 C 645.362 1.4853 1.81593 0
M  V30 7079 C 646.378 0.373907 1.69935 0
M  V30 7080 O 647.554 0.625078 1.91454 0
M  V30 7081 C 644.619 1.387 3.17747 0
M  V30 7082 C 643.68 2.60346 3.41348 0
M  V30 7083 C 642.913 2.50975 4.71007 0
M  V30 7084 O 643.136 1.54659 5.49033 0
M  V30 7085 O 642.07 3.41138 4.95892 0
M  V30 7086 H 645.896 2.45001 1.79467 0
M  V30 7087 H 643.481 1.2429 0.82899 0
M  V30 7088 H 645.363 1.35586 3.98992 0
M  V30 7089 H 644.038 0.453555 3.20507 0
M  V30 7090 H 642.945 2.69034 2.59945 0
M  V30 7091 H 644.278 3.52595 3.43421 0
M  V30 7092 N 645.93 -0.909495 1.28709 0
M  V30 7093 C 646.878 -2.03381 1.12866 0
M  V30 7094 C 647.872 -1.69335 0.0468074 0
M  V30 7095 O 649.078 -1.78819 0.205891 0
M  V30 7096 H 645.453 -0.666452 0.348348 0
M  V30 7097 H 647.424 -2.13885 2.08077 0
M  V30 7098 C 646.173 -3.38092 0.811742 0
M  V30 7099 H 645.496 -3.64786 1.63619 0
M  V30 7100 H 646.936 -4.17477 0.740869 0
M  V30 7101 C 645.395 -3.33395 -0.484679 0
M  V30 7102 O 645.925 -3.72089 -1.5137 0
M  V30 7103 N 644.131 -2.86491 -0.486961 0
M  V30 7104 H 643.678 -2.55199 0.350877 0
M  V30 7105 H 643.636 -2.83731 -1.3544 0
M  V30 7106 N 647.408 -1.11026 -1.11852 0
M  V30 7107 C 648.318 -0.777252 -2.2135 0
M  V30 7108 C 649.334 0.227821 -1.72502 0
M  V30 7109 O 650.51 0.0650587 -2.01295 0
M  V30 7110 C 647.575 -0.220668 -3.45997 0
M  V30 7111 C 646.636 -1.2838 -4.09655 0
M  V30 7112 C 645.869 -0.753678 -5.28352 0
M  V30 7113 O 646.092 0.417779 -5.68868 0
M  V30 7114 O 645.026 -1.51647 -5.82483 0
M  V30 7115 H 648.852 -1.69141 -2.5224 0
M  V30 7116 H 646.437 -0.885836 -1.20305 0
M  V30 7117 H 648.319 0.0855756 -4.21313 0
M  V30 7118 H 646.994 0.666262 -3.16769 0
M  V30 7119 H 645.901 -1.64299 -3.3609 0
M  V30 7120 H 647.234 -2.14396 -4.43052 0
M  V30 7121 N 648.886 1.2938 -0.899927 0
M  V30 7122 C 649.796 2.31462 -0.382437 0
M  V30 7123 C 650.812 1.65956 0.522929 0
M  V30 7124 O 651.988 1.97131 0.412454 0
M  V30 7125 C 649.053 3.44595 0.381472 0
M  V30 7126 C 648.114 4.25692 -0.555444 0
M  V30 7127 C 647.347 5.33422 0.172102 0
M  V30 7128 O 647.57 5.53053 1.396 0
M  V30 7129 O 646.504 5.99939 -0.485491 0
M  V30 7130 H 650.33 2.77706 -1.22934 0
M  V30 7131 H 647.915 1.33821 -0.664259 0
M  V30 7132 H 649.797 4.13474 0.813442 0
M  V30 7133 H 648.472 3.00458 1.20443 0
M  V30 7134 H 647.379 3.59453 -1.03653 0
M  V30 7135 H 648.712 4.73471 -1.34483 0
M  V30 7136 N 650.364 0.662433 1.43002 0
M  V30 7137 C 651.274 -0.0239199 2.34588 0
M  V30 7138 C 652.29 -0.802255 1.54402 0
M  V30 7139 O 653.466 -0.747401 1.87018 0
M  V30 7140 C 650.531 -0.972098 3.32793 0
M  V30 7141 C 649.592 -0.189673 4.28881 0
M  V30 7142 C 648.825 -1.09269 5.22395 0
M  V30 7143 O 649.048 -2.33209 5.20547 0
M  V30 7144 O 647.982 -0.560136 5.99288 0
M  V30 7145 H 651.808 0.730171 2.94792 0
M  V30 7146 H 649.393 0.422635 1.43297 0
M  V30 7147 H 651.275 -1.51676 3.93157 0
M  V30 7148 H 649.95 -1.70626 2.75079 0
M  V30 7149 H 648.857 0.398794 3.71968 0
M  V30 7150 H 650.19 0.50511 4.89601 0
M  V30 7151 N 651.842 -1.52309 0.404946 0
M  V30 7152 C 652.792 -2.23717 -0.439864 0
M  V30 7153 C 653.776 -1.24692 -1.0169 0
M  V30 7154 O 654.968 -1.49951 -0.940409 0
M  V30 7155 C 652.097 -3.05898 -1.55825 0
M  V30 7156 C 651.183 -4.12331 -0.992188 0
M  V30 7157 N 651.574 -5.0557 -0.152424 0
M  V30 7158 C 649.872 -4.2774 -1.26312 0
M  V30 7159 C 650.573 -5.81474 0.162041 0
M  V30 7160 N 649.549 -5.41767 -0.44601 0
M  V30 7161 H 653.351 -2.93162 0.208084 0
M  V30 7162 H 650.865 -1.60969 0.215131 0
M  V30 7163 H 652.862 -3.55605 -2.17603 0
M  V30 7164 H 651.522 -2.37991 -2.20886 0
M  V30 7165 H 652.533 -5.17468 0.211556 0
M  V30 7166 H 649.21 -3.71062 -1.91362 0
M  V30 7167 H 650.6 -6.66585 0.843423 0
M  V30 7168 N 653.32 -0.135238 -1.57019 0
M  V30 7169 C 654.548 0.526066 -2.001 0
M  V30 7170 C 654.963 1.59184 -1.01519 0
M  V30 7171 O 654.32 1.82497 -0.0104258 0
M  V30 7172 C 654.371 1.13744 -3.43139 0
M  V30 7173 O 654.092 0.114259 -4.37951 0
M  V30 7174 C 655.593 1.8805 -4.01438 0
M  V30 7175 H 652.813 0.137962 -0.656664 0
M  V30 7176 H 655.357 -0.226359 -2.03243 0
M  V30 7177 H 653.512 1.84056 -3.40885 0
M  V30 7178 H 653.926 0.56058 -5.21496 0
M  V30 7179 H 655.4 2.26133 -5.03555 0
M  V30 7180 H 655.877 2.76194 -3.41487 0
M  V30 7181 H 656.483 1.22464 -4.07287 0
M  V30 7182 N 654.798 1.5699 0.138552 0
M  V30 7183 C 656.044 1.84081 0.85099 0
M  V30 7184 C 656.377 0.718107 1.80435 0
M  V30 7185 O 655.652 -0.277633 1.92508 0
M  V30 7186 C 655.935 3.21699 1.61808 0
M  V30 7187 C 655.788 4.44544 0.685633 0
M  V30 7188 C 657.107 3.5664 2.57868 0
M  V30 7189 H 654.226 0.669592 0.307922 0
M  V30 7190 H 656.868 1.89646 0.11588 0
M  V30 7191 H 655.018 3.17086 2.24474 0
M  V30 7192 H 656.69 4.61248 0.0693179 0
M  V30 7193 H 654.933 4.338 -0.00421993 0
M  V30 7194 H 655.604 5.3746 1.25858 0
M  V30 7195 H 658.08 3.61918 2.05316 0
M  V30 7196 H 656.956 4.53946 3.08584 0
M  V30 7197 H 657.217 2.83036 3.39622 0
M  V30 7198 N 656.276 -0.40816 1.52223 0
M  V30 7199 C 657.553 -1.16807 1.56893 0
M  V30 7200 C 657.933 -2.08169 0.350537 0
M  V30 7201 O 657.281 -2.18684 -0.662536 0
M  V30 7202 C 657.491 -1.94451 2.8981 0
M  V30 7203 C 658.839 -2.50484 3.42845 0
M  V30 7204 O 659.863 -2.0463 2.91556 0
M  V30 7205 O 658.722 -3.34192 4.3241 0
M  V30 7206 H 655.816 -0.533382 0.632007 0
M  V30 7207 H 658.362 -0.414862 1.64551 0
M  V30 7208 H 657.134 -1.27527 3.69936 0
M  V30 7209 H 656.757 -2.76775 2.85449 0
M  V30 7210 N 657.755 -1.42862 -0.66545 0
M  V30 7211 C 659.032 -1.3431 -1.42197 0
M  V30 7212 C 659.412 0.0150265 -2.11095 0
M  V30 7213 O 658.76 1.03101 -2.03918 0
M  V30 7214 C 658.97 -2.51783 -2.41674 0
M  V30 7215 C 660.318 -2.94321 -3.0604 0
M  V30 7216 O 661.342 -2.51741 -2.52001 0
M  V30 7217 O 660.201 -3.68047 -4.03985 0
M  V30 7218 H 657.295 -0.530159 -0.634713 0
M  V30 7219 H 659.841 -1.54888 -0.693386 0
M  V30 7220 H 658.613 -3.42282 -1.89627 0
M  V30 7221 H 658.236 -2.33241 -3.22001 0
M  V30 7222 N 659.233 0.902656 -1.29189 0
M  V30 7223 C 660.143 2.03946 -1.15944 0
M  V30 7224 C 661.159 1.738 -0.0833803 0
M  V30 7225 O 662.335 1.9923 -0.29487 0
M  V30 7226 C 659.4 3.36519 -0.834006 0
M  V30 7227 C 658.461 3.80203 -1.9936 0
M  V30 7228 C 657.694 5.06449 -1.68359 0
M  V30 7229 O 657.917 5.67202 -0.603141 0
M  V30 7230 O 656.851 5.46114 -2.53067 0
M  V30 7231 H 660.677 2.18043 -2.11403 0
M  V30 7232 H 658.262 1.02584 -1.08613 0
M  V30 7233 H 660.144 4.16089 -0.666949 0
M  V30 7234 H 658.819 3.23573 0.0908245 0
M  V30 7235 H 657.726 3.01413 -2.21588 0
M  V30 7236 H 659.059 3.97729 -2.89952 0
M  V30 7237 N 660.711 1.11618 1.11262 0
M  V30 7238 C 661.661 0.745274 2.15475 0
M  V30 7239 C 662.645 -0.251585 1.58921 0
M  V30 7240 O 663.837 -0.0584093 1.76904 0
M  V30 7241 C 660.966 0.192128 3.42762 0
M  V30 7242 C 660.052 1.21676 4.0627 0
M  V30 7243 N 660.443 2.41158 4.44608 0
M  V30 7244 C 658.741 1.06013 4.33217 0
M  V30 7245 C 659.442 3.0652 4.94389 0
M  V30 7246 N 658.418 2.33994 4.9066 0
M  V30 7247 H 662.22 1.65462 2.42898 0
M  V30 7248 H 659.734 0.995695 1.28295 0
M  V30 7249 H 661.731 -0.0917339 4.16799 0
M  V30 7250 H 660.391 -0.711778 3.16802 0
M  V30 7251 H 661.402 2.786 4.3658 0
M  V30 7252 H 658.079 0.212809 4.16957 0
M  V30 7253 H 659.469 4.08225 5.33669 0
M  V30 7254 N 662.189 -1.289 0.906776 0
M  V30 7255 C 663.435 -1.95558 0.53712 0
M  V30 7256 C 663.768 -1.71262 -0.915582 0
M  V30 7257 O 663.043 -1.02961 -1.65013 0
M  V30 7258 C 663.326 -3.50198 0.838645 0
M  V30 7259 C 663.179 -3.83923 2.34357 0
M  V30 7260 C 664.498 -4.38861 0.329988 0
M  V30 7261 H 661.617 -0.710289 0.196617 0
M  V30 7262 H 664.259 -1.52392 1.13475 0
M  V30 7263 H 662.409 -3.87096 0.330024 0
M  V30 7264 H 664.081 -3.56933 2.92227 0
M  V30 7265 H 662.324 -3.31215 2.80141 0
M  V30 7266 H 662.995 -4.91883 2.5051 0
M  V30 7267 H 665.471 -4.08996 0.765609 0
M  V30 7268 H 664.347 -5.45931 0.570105 0
M  V30 7269 H 664.608 -4.35352 -0.769511 0
M  V30 7270 N 663.667 -0.670007 -1.42649 0
M  V30 7271 C 664.577 0.0114788 -2.34597 0
M  V30 7272 C 665.593 0.794055 -1.54825 0
M  V30 7273 O 666.769 0.737472 -1.87412 0
M  V30 7274 C 663.834 0.954436 -3.33304 0
M  V30 7275 C 662.895 0.166925 -4.28975 0
M  V30 7276 C 662.128 1.06497 -5.22967 0
M  V30 7277 O 662.351 2.30446 -5.21777 0
M  V30 7278 O 661.285 0.528347 -5.99577 0
M  V30 7279 H 665.111 -0.745794 -2.944 0
M  V30 7280 H 662.696 -0.430228 -1.43071 0
M  V30 7281 H 664.578 1.49589 -3.93956 0
M  V30 7282 H 663.253 1.69164 -2.7598 0
M  V30 7283 H 662.16 -0.418515 -3.71752 0
M  V30 7284 H 663.493 -0.531067 -4.89327 0
M  V30 7285 N 665.145 1.52092 -0.413018 0
M  V30 7286 C 666.055 2.30858 0.417318 0
M  V30 7287 C 667.071 1.38746 1.05003 0
M  V30 7288 O 668.247 1.71821 1.05069 0
M  V30 7289 C 665.312 3.11756 1.51687 0
M  V30 7290 C 664.373 4.19613 0.906825 0
M  V30 7291 C 663.606 4.96644 1.95399 0
M  V30 7292 O 663.829 4.7402 3.17271 0
M  V30 7293 O 662.763 5.81385 1.55805 0
M  V30 7294 H 666.589 3.02865 -0.225028 0
M  V30 7295 H 664.174 1.48358 -0.176126 0
M  V30 7296 H 666.056 3.62122 2.15512 0
M  V30 7297 H 664.731 2.42539 2.14375 0
M  V30 7298 H 663.638 3.73385 0.231183 0
M  V30 7299 H 664.971 4.91134 0.323814 0
M  V30 7300 N 666.623 0.143563 1.56945 0
M  V30 7301 C 667.573 -0.809115 2.1316 0
M  V30 7302 C 668.557 -1.21176 1.05855 0
M  V30 7303 O 669.749 -1.17875 1.3204 0
M  V30 7304 C 666.878 -2.04957 2.75405 0
M  V30 7305 C 665.964 -1.67018 3.89828 0
M  V30 7306 N 666.355 -0.998822 4.9584 0
M  V30 7307 C 664.653 -1.96313 4.00471 0
M  V30 7308 C 665.354 -0.816217 5.75945 0
M  V30 7309 N 664.33 -1.349 5.26596 0
M  V30 7310 H 668.132 -0.286919 2.92496 0
M  V30 7311 H 665.646 -0.0580948 1.62296 0
M  V30 7312 H 667.643 -2.74201 3.14037 0
M  V30 7313 H 666.303 -2.57697 1.97541 0
M  V30 7314 H 667.314 -0.659975 5.13678 0
M  V30 7315 H 663.991 -2.50927 3.33679 0
M  V30 7316 H 665.381 -0.287353 6.71285 0
M  V30 7317 N 668.101 -1.57061 -0.130224 0
M  V30 7318 C 669.329 -1.88432 -0.854456 0
M  V30 7319 C 669.744 -0.733608 -1.73964 0
M  V30 7320 O 669.101 0.296029 -1.80083 0
M  V30 7321 C 669.152 -3.1918 -1.69724 0
M  V30 7322 O 668.873 -4.2982 -0.847705 0
M  V30 7323 C 670.374 -3.6418 -2.5276 0
M  V30 7324 H 667.594 -0.624193 -0.246221 0
M  V30 7325 H 670.138 -2.04159 -0.11798 0
M  V30 7326 H 668.293 -3.05156 -2.3866 0
M  V30 7327 H 668.707 -5.04689 -1.42792 0
M  V30 7328 H 670.181 -4.58457 -3.07443 0
M  V30 7329 H 670.658 -2.90285 -3.29592 0
M  V30 7330 H 671.264 -3.80954 -1.89087 0
M  V30 7331 N 669.579 0.400081 -1.52437 0
M  V30 7332 C 670.542 1.4707 -1.75793 0
M  V30 7333 C 671.542 1.48036 -0.627856 0
M  V30 7334 O 672.732 1.49401 -0.895817 0
M  V30 7335 C 669.864 2.86427 -1.84858 0
M  V30 7336 H 671.057 1.27649 -2.71377 0
M  V30 7337 H 668.61 0.631141 -1.42991 0
M  V30 7338 H 669.345 3.11207 -0.912194 0
M  V30 7339 H 669.13 2.87128 -2.6702 0
M  V30 7340 H 670.62 3.64023 -2.04638 0
M  V30 7341 N 671.057 1.43213 0.657864 0
M  V30 7342 C 672.334 1.35063 1.41483 0
M  V30 7343 C 672.714 -0.0038314 2.111 0
M  V30 7344 O 672.062 -1.02018 2.04462 0
M  V30 7345 C 672.272 2.53061 2.40335 0
M  V30 7346 C 673.62 2.9594 3.04474 0
M  V30 7347 O 674.644 2.53074 2.50663 0
M  V30 7348 O 673.503 3.70184 4.02027 0
M  V30 7349 H 670.597 0.533517 0.631893 0
M  V30 7350 H 673.143 1.55253 0.685162 0
M  V30 7351 H 671.915 3.43283 1.87809 0
M  V30 7352 H 671.538 2.34945 3.20759 0
M  V30 7353 N 672.536 -0.895792 1.29666 0
M  V30 7354 C 673.813 -1.62723 1.08538 0
M  V30 7355 C 674.193 -2.07848 -0.369119 0
M  V30 7356 O 673.541 -1.8372 -1.35864 0
M  V30 7357 C 673.751 -2.80505 2.07648 0
M  V30 7358 C 675.099 -3.51098 2.3878 0
M  V30 7359 O 676.123 -2.90679 2.05874 0
M  V30 7360 O 674.982 -4.60028 2.9502 0
M  V30 7361 H 672.076 -0.714692 0.416106 0
M  V30 7362 H 674.622 -0.943517 1.41053 0
M  V30 7363 H 673.394 -2.44386 3.05599 0
M  V30 7364 H 673.017 -3.5658 1.75887 0
M  V30 7365 N 674.014 -1.12206 -1.10668 0
M  V30 7366 C 674.924 -0.800686 -2.20513 0
M  V30 7367 C 675.94 0.209512 -1.72734 0
M  V30 7368 O 677.116 0.043705 -2.01353 0
M  V30 7369 C 674.181 -0.257353 -3.45744 0
M  V30 7370 C 673.242 -1.32718 -4.0827 0
M  V30 7371 C 672.475 -0.809674 -5.27522 0
M  V30 7372 O 672.698 0.35742 -5.69279 0
M  V30 7373 O 671.632 -1.57816 -5.80842 0
M  V30 7374 H 675.458 -1.71807 -2.50432 0
M  V30 7375 H 673.043 -0.898546 -1.19359 0
M  V30 7376 H 674.925 0.0408849 -4.2138 0
M  V30 7377 H 673.6 0.632627 -3.17458 0
M  V30 7378 H 672.507 -1.67855 -3.34329 0
M  V30 7379 H 673.84 -2.19083 -4.40753 0
M  V30 7380 N 675.492 1.28418 -0.913599 0
M  V30 7381 C 676.442 2.24928 -0.373042 0
M  V30 7382 C 677.426 1.52444 0.514753 0
M  V30 7383 O 678.618 1.73414 0.3545 0
M  V30 7384 C 675.747 3.41124 0.385896 0
M  V30 7385 C 674.833 4.20929 -0.51761 0
M  V30 7386 N 675.224 4.78777 -1.63113 0
M  V30 7387 C 673.522 4.44865 -0.317969 0
M  V30 7388 C 674.223 5.38822 -2.19193 0
M  V30 7389 N 673.199 5.22974 -1.48321 0
M  V30 7390 H 677.001 2.67224 -1.22346 0
M  V30 7391 H 674.515 1.43187 -0.766236 0
M  V30 7392 H 676.512 4.09347 0.789997 0
M  V30 7393 H 675.172 3.00362 1.23341 0
M  V30 7394 H 676.183 4.77148 -2.01372 0
M  V30 7395 H 672.86 4.14614 0.49004 0
M  V30 7396 H 674.25 5.94615 -3.12861 0
M  V30 7397 N 676.97 0.677563 1.42291 0
M  V30 7398 C 678.216 0.201272 2.01799 0
M  V30 7399 C 678.549 -1.19004 1.53465 0
M  V30 7400 O 677.824 -1.79953 0.738039 0
M  V30 7401 C 678.107 0.238968 3.59306 0
M  V30 7402 C 677.96 1.66594 4.17812 0
M  V30 7403 C 679.279 -0.411287 4.38174 0
M  V30 7404 H 676.398 0.0746114 0.733214 0
M  V30 7405 H 679.04 0.862872 1.69276 0
M  V30 7406 H 677.19 -0.324368 3.87144 0
M  V30 7407 H 678.862 2.28173 4.00917 0
M  V30 7408 H 677.105 2.20576 3.73536 0
M  V30 7409 H 677.776 1.64398 5.26951 0
M  V30 7410 H 680.252 0.0682804 4.16044 0
M  V30 7411 H 679.128 -0.354286 5.47755 0
M  V30 7412 H 679.389 -1.4893 4.1626 0
M  V30 7413 N 678.448 -1.51871 0.421078 0
M  V30 7414 C 679.358 -2.31077 -0.405069 0
M  V30 7415 C 680.374 -1.39301 -1.04265 0
M  V30 7416 O 681.55 -1.72376 -1.04157 0
M  V30 7417 C 678.615 -3.12556 -1.50032 0
M  V30 7418 C 677.676 -4.20088 -0.884559 0
M  V30 7419 C 676.909 -4.97673 -1.92762 0
M  V30 7420 O 677.132 -4.75696 -3.14753 0
M  V30 7421 O 676.066 -5.82203 -1.52719 0
M  V30 7422 H 679.892 -3.02742 0.241086 0
M  V30 7423 H 677.477 -1.48263 0.183991 0
M  V30 7424 H 679.359 -3.6326 -2.13589 0
M  V30 7425 H 678.034 -2.43672 -2.13086 0
M  V30 7426 H 676.941 -3.73502 -0.211379 0
M  V30 7427 H 678.274 -4.91298 -0.297763 0
M  V30 7428 N 679.926 -0.151884 -1.56866 0
M  V30 7429 C 680.836 0.798876 -2.20579 0
M  V30 7430 C 681.852 1.268 -1.19154 0
M  V30 7431 O 683.028 1.32418 -1.51748 0
M  V30 7432 C 680.093 2.01861 -2.81874 0
M  V30 7433 C 679.154 1.59825 -3.9844 0
M  V30 7434 C 678.387 2.75984 -4.56802 0
M  V30 7435 O 678.61 3.92331 -4.14044 0
M  V30 7436 O 677.544 2.51175 -5.46987 0
M  V30 7437 H 681.37 0.2865 -3.02346 0
M  V30 7438 H 678.955 0.0753806 -1.4921 0
M  V30 7439 H 680.837 2.73235 -3.20813 0
M  V30 7440 H 679.512 2.52042 -2.03117 0
M  V30 7441 H 678.419 0.854601 -3.64208 0
M  V30 7442 H 679.752 1.14355 -4.78731 0
M  V30 7443 N 681.404 1.57128 0.121893 0
M  V30 7444 C 682.815 1.73902 0.679348 0
M  V30 7445 C 683.166 0.770135 1.80453 0
M  V30 7446 O 682.291 -0.0576083 2.16323 0
M  V30 7447 C 682.886 3.15328 1.2391 0
M  V30 7448 C 681.445 3.33618 1.74288 0
M  V30 7449 C 680.592 2.6978 0.641414 0
M  V30 7450 H 683.543 1.58359 -0.104 0
M  V30 7451 H 683.564 3.16718 2.10879 0
M  V30 7452 H 683.076 3.85821 0.419957 0
M  V30 7453 H 681.177 2.68162 2.58689 0
M  V30 7454 H 681.29 4.4176 1.85432 0
M  V30 7455 H 679.654 2.30935 1.0743 0
M  V30 7456 H 680.437 3.42895 -0.166707 0
M  V30 7457 N 682.882 -0.391992 1.52647 0
M  V30 7458 C 684.11 -1.1586 1.71418 0
M  V30 7459 C 684.525 -1.8381 0.431216 0
M  V30 7460 O 683.882 -1.7256 -0.594085 0
M  V30 7461 C 683.933 -2.20888 2.86165 0
M  V30 7462 O 683.654 -1.5571 4.09495 0
M  V30 7463 C 685.155 -3.103 3.1659 0
M  V30 7464 H 682.375 -0.347494 0.574011 0
M  V30 7465 H 684.919 -0.458972 1.99283 0
M  V30 7466 H 683.074 -2.86492 2.6077 0
M  V30 7467 H 683.488 -2.25474 4.73563 0
M  V30 7468 H 684.962 -3.8003 4.00351 0
M  V30 7469 H 685.439 -3.73639 2.30848 0
M  V30 7470 H 686.045 -2.50345 3.43813 0
M  V30 7471 N 684.36 -1.4356 -0.65026 0
M  V30 7472 C 685.606 -1.45549 -1.41221 0
M  V30 7473 C 685.939 -0.0805472 -1.94033 0
M  V30 7474 O 685.214 0.899043 -1.72475 0
M  V30 7475 C 685.497 -2.50028 -2.59148 0
M  V30 7476 C 685.35 -3.96808 -2.1181 0
M  V30 7477 C 686.669 -2.51212 -3.61359 0
M  V30 7478 H 683.788 -0.529967 -0.512156 0
M  V30 7479 H 686.43 -1.75127 -0.736933 0
M  V30 7480 H 684.58 -2.24937 -3.16758 0
M  V30 7481 H 686.252 -4.32966 -1.59178 0
M  V30 7482 H 684.495 -4.09498 -1.43156 0
M  V30 7483 H 685.166 -4.6553 -2.96625 0
M  V30 7484 H 687.642 -2.73583 -3.13515 0
M  V30 7485 H 686.518 -3.26252 -4.41419 0
M  V30 7486 H 686.779 -1.54701 -4.1415 0
M  V30 7487 N 685.838 0.888903 -1.30139 0
M  V30 7488 C 686.801 1.97576 -1.16174 0
M  V30 7489 C 687.801 1.60525 -0.094086 0
M  V30 7490 O 688.991 1.70812 -0.341889 0
M  V30 7491 C 686.123 3.3188 -0.778983 0
M  V30 7492 H 687.316 2.11393 -2.12728 0
M  V30 7493 H 684.869 1.0748 -1.1348 0
M  V30 7494 H 685.604 3.23765 0.186225 0
M  V30 7495 H 685.389 3.60141 -1.55051 0
M  V30 7496 H 686.879 4.11612 -0.704631 0
M  V30 7497 N 687.317 1.12792 1.10072 0
M  V30 7498 C 688.594 0.796867 1.78632 0
M  V30 7499 C 688.974 -0.712739 1.98704 0
M  V30 7500 O 688.322 -1.64773 1.5831 0
M  V30 7501 C 688.532 1.57622 3.11378 0
M  V30 7502 C 689.88 1.76463 3.86194 0
M  V30 7503 O 690.904 1.54165 3.2111 0
M  V30 7504 O 689.763 2.13623 5.03018 0
M  V30 7505 H 686.857 0.290248 0.774394 0
M  V30 7506 H 689.403 1.23215 1.16688 0
M  V30 7507 H 688.175 2.60246 2.92212 0
M  V30 7508 H 687.798 1.13543 3.81043 0
M  V30 7509 N 688.795 -1.27931 0.920396 0
M  V30 7510 C 690.072 -1.89728 0.475687 0
M  V30 7511 C 690.452 -1.8337 -1.04588 0
M  V30 7512 O 689.8 -1.27404 -1.89685 0
M  V30 7513 C 690.01 -3.33959 1.01354 0
M  V30 7514 C 691.358 -4.10907 1.06963 0
M  V30 7515 O 692.382 -3.42945 0.962646 0
M  V30 7516 O 691.241 -5.32399 1.23343 0
M  V30 7517 H 688.335 -0.81294 0.151845 0
M  V30 7518 H 690.881 -1.36252 1.01161 0
M  V30 7519 H 689.653 -3.32843 2.05746 0
M  V30 7520 H 689.276 -3.94944 0.458829 0
M  V30 7521 N 690.273 -0.685099 -1.4193 0
M  V30 7522 C 691.183 -0.013404 -2.34596 0
M  V30 7523 C 692.199 0.777589 -1.55658 0
M  V30 7524 O 693.375 0.717553 -1.88184 0
M  V30 7525 C 690.44 0.919031 -3.34297 0
M  V30 7526 C 689.501 0.121417 -4.29128 0
M  V30 7527 C 688.734 1.00944 -5.24067 0
M  V30 7528 O 688.957 2.24898 -5.24192 0
M  V30 7529 O 687.891 0.464724 -6.00103 0
M  V30 7530 H 691.717 -0.776978 -2.93593 0
M  V30 7531 H 689.302 -0.445379 -1.42607 0
M  V30 7532 H 691.184 1.45402 -3.9552 0
M  V30 7533 H 689.859 1.66228 -2.77759 0
M  V30 7534 H 688.766 -0.45792 -3.71287 0
M  V30 7535 H 690.099 -0.582937 -4.88736 0
M  V30 7536 N 691.751 1.51645 -0.429126 0
M  V30 7537 C 692.701 2.24388 0.404217 0
M  V30 7538 C 693.685 1.26294 0.996933 0
M  V30 7539 O 694.877 1.51428 0.916434 0
M  V30 7540 C 692.006 3.08338 1.50938 0
M  V30 7541 C 691.092 4.13857 0.926464 0
M  V30 7542 N 691.483 5.05749 0.0719732 0
M  V30 7543 C 689.781 4.29695 1.19491 0
M  V30 7544 C 690.482 5.81143 -0.254528 0
M  V30 7545 N 689.458 5.42408 0.359763 0
M  V30 7546 H 693.26 2.92794 -0.254697 0
M  V30 7547 H 690.774 1.60606 -0.240712 0
M  V30 7548 H 692.771 3.59022 2.11918 0
M  V30 7549 H 691.431 2.41475 2.17072 0
M  V30 7550 H 692.442 5.17066 -0.293854 0
M  V30 7551 H 689.119 3.74059 1.85434 0
M  V30 7552 H 690.509 6.65159 -0.949365 0
M  V30 7553 N 693.229 0.160201 1.56784 0
M  V30 7554 C 694.475 -0.48831 1.96833 0
M  V30 7555 C 694.808 -1.63641 1.04571 0
M  V30 7556 O 694.083 -1.94289 0.0906481 0
M  V30 7557 C 694.366 -0.981908 3.46454 0
M  V30 7558 C 694.219 0.165607 4.49495 0
M  V30 7559 C 695.538 -1.85931 3.98896 0
M  V30 7560 H 692.657 -0.176027 0.71567 0
M  V30 7561 H 695.299 0.244093 1.88426 0
M  V30 7562 H 693.449 -1.60602 3.5375 0
M  V30 7563 H 695.121 0.802372 4.54268 0
M  V30 7564 H 693.364 0.822789 4.25926 0
M  V30 7565 H 694.035 -0.221699 5.51555 0
M  V30 7566 H 696.511 -1.33327 3.94161 0
M  V30 7567 H 695.387 -2.17373 5.04024 0
M  V30 7568 H 695.648 -2.80106 3.42042 0
M  V30 7569 N 694.707 -1.5719 -0.113559 0
M  V30 7570 C 695.617 -2.04041 -1.15777 0
M  V30 7571 C 696.633 -0.961812 -1.45001 0
M  V30 7572 O 697.809 -1.2737 -1.56009 0
M  V30 7573 C 694.874 -2.43994 -2.46308 0
M  V30 7574 C 693.935 -3.65962 -2.24433 0
M  V30 7575 C 693.168 -4.04 -3.4874 0
M  V30 7576 O 693.391 -3.42321 -4.56259 0
M  V30 7577 O 692.325 -4.97069 -3.3942 0
M  V30 7578 H 696.151 -2.93248 -0.789899 0
M  V30 7579 H 693.736 -1.45828 -0.324748 0
M  V30 7580 H 695.618 -2.70401 -3.23204 0
M  V30 7581 H 694.293 -1.57932 -2.82558 0
M  V30 7582 H 693.2 -3.44697 -1.45377 0
M  V30 7583 H 694.533 -4.52746 -1.93084 0
M  V30 7584 N 696.185 0.383891 -1.52853 0
M  V30 7585 C 697.095 1.49343 -1.80925 0
M  V30 7586 C 698.111 1.59458 -0.696348 0
M  V30 7587 O 699.287 1.75698 -0.984481 0
M  V30 7588 C 696.352 2.84819 -1.97684 0
M  V30 7589 C 695.413 2.84382 -3.21598 0
M  V30 7590 C 694.646 4.13397 -3.37548 0
M  V30 7591 O 694.869 5.08619 -2.58192 0
M  V30 7592 O 693.803 4.20325 -4.30826 0
M  V30 7593 H 697.629 1.2855 -2.75152 0
M  V30 7594 H 695.214 0.572229 -1.38007 0
M  V30 7595 H 697.096 3.65125 -2.10385 0
M  V30 7596 H 695.771 3.05627 -1.06647 0
M  V30 7597 H 694.678 2.0284 -3.14336 0
M  V30 7598 H 696.011 2.68526 -4.12498 0
M  V30 7599 N 697.663 1.43903 0.642637 0
M  V30 7600 C 699.074 1.40975 1.22404 0
M  V30 7601 C 699.425 0.1192 1.95838 0
M  V30 7602 O 698.55 -0.780939 2.01818 0
M  V30 7603 C 699.145 2.5538 2.22636 0
M  V30 7604 C 697.704 2.55684 2.76229 0
M  V30 7605 C 696.851 2.32556 1.51039 0
M  V30 7606 H 699.802 1.5265 0.434006 0
M  V30 7607 H 699.823 2.27474 3.05017 0
M  V30 7608 H 699.335 3.49294 1.69161 0
M  V30 7609 H 697.436 1.65679 3.33738 0
M  V30 7610 H 697.549 3.53799 3.23053 0
M  V30 7611 H 695.913 1.81427 1.78764 0
M  V30 7612 H 696.696 3.28569 0.99484 0
M  V30 7613 N 699.141 -0.881989 1.30609 0
M  V30 7614 C 700.369 -1.66711 1.22536 0
M  V30 7615 C 700.784 -1.87614 -0.2113 0
M  V30 7616 O 700.141 -1.42576 -1.13923 0
M  V30 7617 C 700.192 -3.04182 1.95335 0
M  V30 7618 O 699.913 -2.8422 3.33393 0
M  V30 7619 C 701.414 -3.98617 1.93956 0
M  V30 7620 H 698.634 -0.520124 0.423925 0
M  V30 7621 H 701.178 -1.10174 1.72285 0
M  V30 7622 H 699.333 -3.57442 1.49378 0
M  V30 7623 H 699.747 -3.71452 3.70302 0
M  V30 7624 H 701.221 -4.92433 2.49426 0
M  V30 7625 H 701.698 -4.29473 0.919198 0
M  V30 7626 H 702.304 -3.51292 2.39738 0
M  V30 7627 N 700.619 -1.13374 -1.09472 0
M  V30 7628 C 701.865 -0.896516 -1.81908 0
M  V30 7629 C 702.198 0.575933 -1.85463 0
M  V30 7630 O 701.473 1.42618 -1.32251 0
M  V30 7631 C 701.756 -1.48445 -3.28079 0
M  V30 7632 C 701.609 -3.02598 -3.32798 0
M  V30 7633 C 702.928 -1.15226 -4.24748 0
M  V30 7634 H 700.047 -0.327127 -0.660422 0
M  V30 7635 H 702.689 -1.40195 -1.2824 0
M  V30 7636 H 700.839 -1.0546 -3.73912 0
M  V30 7637 H 702.511 -3.54335 -2.95372 0
M  V30 7638 H 700.754 -3.37613 -2.72397 0
M  V30 7639 H 701.425 -3.38835 -4.3577 0
M  V30 7640 H 703.901 -1.52369 -3.87199 0
M  V30 7641 H 702.777 -1.59012 -5.25363 0
M  V30 7642 H 703.038 -0.0658891 -4.42051 0
M  V30 7643 N 702.098 1.27442 -0.927168 0
M  V30 7644 C 703.061 2.2512 -0.430525 0
M  V30 7645 C 704.061 1.54357 0.450619 0
M  V30 7646 O 705.251 1.72371 0.251774 0
M  V30 7647 C 702.383 3.38763 0.381144 0
M  V30 7648 H 703.576 2.70569 -1.29354 0
M  V30 7649 H 701.129 1.39355 -0.707806 0
M  V30 7650 H 701.864 2.98695 1.263 0
M  V30 7651 H 701.649 3.91298 -0.250618 0
M  V30 7652 H 703.139 4.11364 0.719012 0
M  V30 7653 N 703.576 0.692616 1.41565 0
M  V30 7654 C 704.853 0.150496 1.9502 0
M  V30 7655 C 705.233 -1.33881 1.63215 0
M  V30 7656 O 704.581 -2.08378 0.937598 0
M  V30 7657 C 704.791 0.438636 3.46233 0
M  V30 7658 C 706.139 0.364777 4.2303 0
M  V30 7659 O 707.163 0.373383 3.54238 0
M  V30 7660 O 706.022 0.32234 5.45549 0
M  V30 7661 H 703.116 0.0132454 0.826894 0
M  V30 7662 H 705.662 0.768574 1.51298 0
M  V30 7663 H 704.434 1.46962 3.62654 0
M  V30 7664 H 704.057 -0.210562 3.97042 0
M  V30 7665 N 705.054 -1.51416 0.437162 0
M  V30 7666 C 705.964 -2.31493 -0.380537 0
M  V30 7667 C 706.98 -1.40399 -1.02782 0
M  V30 7668 O 708.156 -1.73471 -1.02323 0
M  V30 7669 C 705.221 -3.1413 -1.46709 0
M  V30 7670 C 704.282 -4.21003 -0.839953 0
M  V30 7671 C 703.515 -4.9969 -1.87473 0
M  V30 7672 O 703.738 -4.79008 -3.09689 0
M  V30 7673 O 702.672 -5.8379 -1.46536 0
M  V30 7674 H 706.498 -3.02469 0.273183 0
M  V30 7675 H 704.083 -1.48059 0.199706 0
M  V30 7676 H 705.965 -3.65505 -2.09724 0
M  V30 7677 H 704.64 -2.45919 -2.10489 0
M  V30 7678 H 703.547 -3.73706 -0.171752 0
M  V30 7679 H 704.88 -4.91587 -0.245638 0
M  V30 7680 N 706.532 -0.168513 -1.56696 0
M  V30 7681 C 707.482 0.7751 -2.14421 0
M  V30 7682 C 708.466 1.19476 -1.07769 0
M  V30 7683 O 709.658 1.15759 -1.33898 0
M  V30 7684 C 706.787 2.00549 -2.7863 0
M  V30 7685 C 705.873 1.60795 -3.92436 0
M  V30 7686 N 706.264 0.919812 -4.97366 0
M  V30 7687 C 704.562 1.89917 -4.03544 0
M  V30 7688 C 705.263 0.724485 -5.77171 0
M  V30 7689 N 704.239 1.26505 -5.28675 0
M  V30 7690 H 708.041 0.240349 -2.92916 0
M  V30 7691 H 705.555 0.0322675 -1.62368 0
M  V30 7692 H 707.552 2.6917 -3.1836 0
M  V30 7693 H 706.212 2.54522 -2.01615 0
M  V30 7694 H 707.223 0.578169 -5.14663 0
M  V30 7695 H 703.9 2.45587 -3.37629 0
M  V30 7696 H 705.29 0.180521 -6.71657 0
M  V30 7697 N 708.01 1.57248 0.105221 0
M  V30 7698 C 709.256 1.85845 0.811753 0
M  V30 7699 C 709.589 0.756219 1.78871 0
M  V30 7700 O 708.864 -0.236736 1.93054 0
M  V30 7701 C 709.147 3.25059 1.54947 0
M  V30 7702 C 709 4.45898 0.591185 0
M  V30 7703 C 710.319 3.6203 2.50245 0
M  V30 7704 H 707.438 0.675973 0.293649 0
M  V30 7705 H 710.08 1.89849 0.0756269 0
M  V30 7706 H 708.23 3.21776 2.17698 0
M  V30 7707 H 709.902 4.61291 -0.0285352 0
M  V30 7708 H 708.145 4.33693 -0.0962343 0
M  V30 7709 H 708.816 5.40009 1.1443 0
M  V30 7710 H 711.292 3.66192 1.97593 0
M  V30 7711 H 710.168 4.60389 2.98886 0
M  V30 7712 H 710.429 2.90176 3.33542 0
M  V30 7713 N 709.488 -0.375779 1.53054 0
M  V30 7714 C 710.398 -1.48381 1.81715 0
M  V30 7715 C 711.414 -1.59087 0.704795 0
M  V30 7716 O 712.59 -1.75174 0.993785 0
M  V30 7717 C 709.655 -2.83767 1.99192 0
M  V30 7718 C 708.716 -2.82673 3.23102 0
M  V30 7719 C 707.949 -4.11601 3.39736 0
M  V30 7720 O 708.172 -5.07243 2.60885 0
M  V30 7721 O 707.106 -4.18034 4.33049 0
M  V30 7722 H 710.932 -1.27089 2.7583 0
M  V30 7723 H 708.517 -0.564902 1.38308 0
M  V30 7724 H 710.399 -3.64004 2.12318 0
M  V30 7725 H 709.074 -3.05057 1.08267 0
M  V30 7726 H 707.981 -2.0117 3.15407 0
M  V30 7727 H 709.314 -2.66335 4.13916 0
M  V30 7728 N 710.966 -1.44241 -0.634997 0
M  V30 7729 C 711.876 -1.53293 -1.77591 0
M  V30 7730 C 712.892 -0.418831 -1.68884 0
M  V30 7731 O 714.068 -0.675619 -1.8973 0
M  V30 7732 C 711.133 -1.47075 -3.13958 0
M  V30 7733 C 710.194 -2.69304 -3.34326 0
M  V30 7734 C 709.427 -2.63374 -4.64187 0
M  V30 7735 O 709.65 -1.69161 -5.44739 0
M  V30 7736 O 708.584 -3.54166 -4.86673 0
M  V30 7737 H 712.41 -2.49673 -1.72908 0
M  V30 7738 H 709.995 -1.26445 -0.795745 0
M  V30 7739 H 711.877 -1.46117 -3.95257 0
M  V30 7740 H 710.552 -0.538373 -3.19192 0
M  V30 7741 H 709.459 -2.75831 -2.52721 0
M  V30 7742 H 710.792 -3.61576 -3.33951 0
M  V30 7743 N 712.444 0.87505 -1.31075 0
M  V30 7744 C 713.855 1.4433 -1.18431 0
M  V30 7745 C 714.206 1.9506 0.211189 0
M  V30 7746 O 713.331 1.85847 1.10859 0
M  V30 7747 C 713.926 2.62341 -2.14389 0
M  V30 7748 C 712.485 3.15225 -2.05694 0
M  V30 7749 C 711.632 1.87929 -2.03907 0
M  V30 7750 H 714.583 0.684061 -1.432 0
M  V30 7751 H 714.604 3.3887 -1.73053 0
M  V30 7752 H 714.116 2.25388 -3.15946 0
M  V30 7753 H 712.217 3.56812 -1.07314 0
M  V30 7754 H 712.33 3.77853 -2.94558 0
M  V30 7755 H 710.694 2.06679 -1.48849 0
M  V30 7756 H 711.477 1.53221 -3.07211 0
M  V30 7757 N 713.922 1.13953 1.08869 0
M  V30 7758 C 715.15 0.92817 1.84912 0
M  V30 7759 C 715.565 -0.523197 1.81406 0
M  V30 7760 O 714.922 -1.36237 1.21432 0
M  V30 7761 C 714.973 1.41509 3.32652 0
M  V30 7762 O 714.694 2.80959 3.36145 0
M  V30 7763 C 716.195 1.243 4.25517 0
M  V30 7764 H 713.415 0.330612 0.583898 0
M  V30 7765 H 715.959 1.51349 1.37527 0
M  V30 7766 H 714.114 0.872648 3.77444 0
M  V30 7767 H 714.528 3.02704 4.28335 0
M  V30 7768 H 716.002 1.63237 5.27312 0
M  V30 7769 H 716.479 0.18532 4.38809 0
M  V30 7770 H 717.085 1.77375 3.86546 0
M  V30 7771 N 715.4 -1.26948 0.933913 0
M  V30 7772 C 716.646 -1.94374 0.57848 0
M  V30 7773 C 716.979 -1.73166 -0.879048 0
M  V30 7774 O 716.254 -1.06438 -1.62792 0
M  V30 7775 C 716.537 -3.4834 0.912739 0
M  V30 7776 C 716.39 -3.78866 2.42448 0
M  V30 7777 C 717.709 -4.38062 0.423003 0
M  V30 7778 H 714.828 -0.705959 0.211639 0
M  V30 7779 H 717.47 -1.49951 1.16682 0
M  V30 7780 H 715.62 -3.86309 0.412058 0
M  V30 7781 H 717.292 -3.50654 2.99733 0
M  V30 7782 H 715.535 -3.25198 2.87104 0
M  V30 7783 H 716.206 -4.86458 2.60887 0
M  V30 7784 H 718.682 -4.0728 0.852191 0
M  V30 7785 H 717.558 -5.44599 0.685776 0
M  V30 7786 H 717.819 -4.36886 -0.676994 0
M  V30 7787 N 716.879 -0.700114 -1.41195 0
M  V30 7788 C 717.842 -0.0465706 -2.29153 0
M  V30 7789 C 718.842 0.703302 -1.44604 0
M  V30 7790 O 720.032 0.537513 -1.657 0
M  V30 7791 C 717.164 0.944324 -3.2756 0
M  V30 7792 H 718.357 -0.821064 -2.88442 0
M  V30 7793 H 715.91 -0.463869 -1.49258 0
M  V30 7794 H 716.645 1.74642 -2.73259 0
M  V30 7795 H 716.43 0.409701 -3.89954 0
M  V30 7796 H 717.92 1.39925 -3.9346 0
M  V30 7797 N 718.357 1.51182 -0.445186 0
M  V30 7798 C 719.267 2.31692 0.368255 0
M  V30 7799 C 720.283 1.40942 1.02036 0
M  V30 7800 O 721.459 1.74011 1.01401 0
M  V30 7801 C 718.524 3.14903 1.45041 0
M  V30 7802 C 717.585 4.21442 0.817615 0
M  V30 7803 C 716.818 5.00677 1.8482 0
M  V30 7804 O 717.041 4.80644 3.07145 0
M  V30 7805 O 715.975 5.84559 1.43438 0
M  V30 7806 H 719.801 3.0232 -0.289219 0
M  V30 7807 H 717.386 1.47951 -0.207555 0
M  V30 7808 H 719.268 3.66612 2.07783 0
M  V30 7809 H 717.943 2.47031 2.09182 0
M  V30 7810 H 716.85 3.73791 0.151931 0
M  V30 7811 H 718.183 4.9171 0.219564 0
M  V30 7812 N 719.835 0.176821 1.56605 0
M  V30 7813 C 720.745 -0.763682 2.21822 0
M  V30 7814 C 721.761 -1.24889 1.21156 0
M  V30 7815 O 722.937 -1.29987 1.53836 0
M  V30 7816 C 720.002 -1.97352 2.8505 0
M  V30 7817 C 719.063 -1.53466 4.00932 0
M  V30 7818 C 718.296 -2.68682 4.61135 0
M  V30 7819 O 718.519 -3.85694 4.20234 0
M  V30 7820 O 717.453 -2.42442 5.50913 0
M  V30 7821 H 721.279 -0.238363 3.02763 0
M  V30 7822 H 718.864 -0.0516331 1.49311 0
M  V30 7823 H 720.746 -2.68096 3.25119 0
M  V30 7824 H 719.421 -2.48779 2.07101 0
M  V30 7825 H 718.328 -0.796551 3.65521 0
M  V30 7826 H 719.661 -1.06724 4.8049 0
M  V30 7827 N 721.313 -1.57302 -0.09688 0
M  V30 7828 C 722.263 -1.98369 -1.12399 0
M  V30 7829 C 723.247 -0.861872 -1.3587 0
M  V30 7830 O 724.439 -1.1257 -1.36591 0
M  V30 7831 C 721.568 -2.41017 -2.4447 0
M  V30 7832 C 720.654 -3.59881 -2.24381 0
M  V30 7833 N 721.045 -4.74872 -1.74155 0
M  V30 7834 C 719.343 -3.65943 -2.54954 0
M  V30 7835 C 720.044 -5.56823 -1.68294 0
M  V30 7836 N 719.02 -4.99942 -2.13444 0
M  V30 7837 H 722.822 -2.84726 -0.728575 0
M  V30 7838 H 720.336 -1.59523 -0.304332 0
M  V30 7839 H 722.333 -2.68665 -3.18786 0
M  V30 7840 H 720.993 -1.56036 -2.84751 0
M  V30 7841 H 722.004 -4.97657 -1.43379 0
M  V30 7842 H 718.681 -2.9162 -2.98771 0
M  V30 7843 H 720.071 -6.59099 -1.30528 0
M  V30 7844 N 722.791 0.367657 -1.53252 0
M  V30 7845 C 724.037 1.11216 -1.69584 0
M  V30 7846 C 724.37 1.89026 -0.445269 0
M  V30 7847 O 723.645 1.86342 0.557404 0
M  V30 7848 C 723.928 2.07308 -2.94441 0
M  V30 7849 C 723.781 1.3312 -4.2965 0
M  V30 7850 C 725.1 3.07459 -3.14892 0
M  V30 7851 H 722.219 0.40294 -0.617096 0
M  V30 7852 H 724.861 0.393201 -1.85887 0
M  V30 7853 H 723.011 2.68617 -2.80673 0
M  V30 7854 H 724.683 0.746111 -4.55226 0
M  V30 7855 H 722.926 0.633051 -4.29156 0
M  V30 7856 H 723.597 2.03443 -5.13142 0
M  V30 7857 H 726.073 2.56252 -3.27832 0
M  V30 7858 H 724.949 3.71919 -4.03693 0
M  V30 7859 H 725.21 3.77514 -2.30077 0
M  V30 7860 N 724.269 1.44576 0.627338 0
M  V30 7861 C 725.179 1.54232 1.76776 0
M  V30 7862 C 726.195 0.427782 1.6866 0
M  V30 7863 O 727.371 0.685671 1.89369 0
M  V30 7864 C 724.436 1.48738 3.13174 0
M  V30 7865 C 723.497 2.71074 3.32893 0
M  V30 7866 C 722.73 2.65832 4.62784 0
M  V30 7867 O 722.953 1.72048 5.43834 0
M  V30 7868 O 721.887 3.56742 4.84787 0
M  V30 7869 H 725.713 2.50586 1.71582 0
M  V30 7870 H 723.298 1.26865 0.789028 0
M  V30 7871 H 725.18 1.48211 3.94476 0
M  V30 7872 H 723.855 0.555292 3.18902 0
M  V30 7873 H 722.762 2.77168 2.51254 0
M  V30 7874 H 724.095 3.63342 3.32029 0
M  V30 7875 N 725.747 -0.868086 1.31537 0
M  V30 7876 C 726.657 -2.00801 1.21311 0
M  V30 7877 C 727.673 -1.73518 0.129431 0
M  V30 7878 O 728.849 -1.98378 0.347588 0
M  V30 7879 C 725.914 -3.3419 0.922935 0
M  V30 7880 C 724.975 -3.74783 2.0937 0
M  V30 7881 C 724.208 -5.01807 1.81728 0
M  V30 7882 O 724.431 -5.65404 0.753313 0
M  V30 7883 O 723.365 -5.39213 2.67457 0
M  V30 7884 H 727.191 -2.12361 2.17109 0
M  V30 7885 H 724.776 -0.996684 1.11295 0
M  V30 7886 H 726.658 -4.14174 0.777033 0
M  V30 7887 H 725.333 -3.237 -0.00500301 0
M  V30 7888 H 724.24 -2.95432 2.29501 0
M  V30 7889 H 725.573 -3.89902 3.00396 0
M  V30 7890 N 727.225 -1.14528 -1.08264 0
M  V30 7891 C 728.636 -0.925261 -1.6216 0
M  V30 7892 C 728.987 0.535587 -1.88748 0
M  V30 7893 O 728.112 1.4048 -1.64604 0
M  V30 7894 C 728.707 -1.67316 -2.94603 0
M  V30 7895 C 727.266 -1.49868 -3.45278 0
M  V30 7896 C 726.413 -1.69471 -2.19487 0
M  V30 7897 H 729.364 -1.29687 -0.914707 0
M  V30 7898 H 729.385 -1.13721 -3.63109 0
M  V30 7899 H 728.897 -2.73635 -2.75219 0
M  V30 7900 H 726.998 -0.459032 -3.69762 0
M  V30 7901 H 727.111 -2.2696 -4.21931 0
M  V30 7902 H 725.475 -1.12048 -2.2873 0
M  V30 7903 H 726.258 -2.77136 -2.0261 0
M  V30 7904 N 728.703 1.26451 -0.940633 0
M  V30 7905 C 729.931 1.97868 -0.604642 0
M  V30 7906 C 730.346 1.70051 0.820251 0
M  V30 7907 O 729.703 0.96843 1.54686 0
M  V30 7908 C 729.754 3.51684 -0.836689 0
M  V30 7909 O 729.475 3.78533 -2.20554 0
M  V30 7910 C 730.976 4.40343 -0.511169 0
M  V30 7911 H 728.196 0.631105 -0.227919 0
M  V30 7912 H 730.74 1.60979 -1.26119 0
M  V30 7913 H 728.895 3.86736 -0.226759 0
M  V30 7914 H 729.309 4.73065 -2.26517 0
M  V30 7915 H 730.783 5.47229 -0.724157 0
M  V30 7916 H 731.26 4.35694 0.553815 0
M  V30 7917 H 731.866 4.10834 -1.0998 0
M  V30 7918 N 730.181 0.707592 1.40822 0
M  V30 7919 C 731.427 0.244031 2.01326 0
M  V30 7920 C 731.76 -1.15722 1.55955 0
M  V30 7921 O 731.035 -1.78347 0.776044 0
M  V30 7922 C 731.318 0.315128 3.58718 0
M  V30 7923 C 731.171 1.75419 4.14184 0
M  V30 7924 C 732.49 -0.318251 4.38948 0
M  V30 7925 H 729.609 0.0901471 0.731466 0
M  V30 7926 H 732.251 0.898584 1.67408 0
M  V30 7927 H 730.401 -0.242176 3.87744 0
M  V30 7928 H 732.073 2.36626 3.95987 0
M  V30 7929 H 730.316 2.28449 3.68773 0
M  V30 7930 H 730.987 1.75538 5.23345 0
M  V30 7931 H 733.463 0.156514 4.15806 0
M  V30 7932 H 732.339 -0.238019 5.48384 0
M  V30 7933 H 732.6 -1.40067 4.19325 0
M  V30 7934 N 731.66 -1.50943 0.453197 0
M  V30 7935 C 732.623 -2.26684 -0.338705 0
M  V30 7936 C 733.623 -1.30748 -0.936032 0
M  V30 7937 O 734.813 -1.54327 -0.808002 0
M  V30 7938 C 731.945 -3.07063 -1.48071 0
M  V30 7939 H 733.138 -2.98131 0.325289 0
M  V30 7940 H 730.691 -1.54926 0.206771 0
M  V30 7941 H 731.426 -2.4007 -2.18029 0
M  V30 7942 H 731.211 -3.77545 -1.0584 0
M  V30 7943 H 732.701 -3.64393 -2.0398 0
M  V30 7944 N 733.138 -0.185124 -1.56509 0
M  V30 7945 C 734.048 0.751908 -2.22224 0
M  V30 7946 C 735.064 1.24244 -1.21817 0
M  V30 7947 O 736.24 1.29169 -1.54523 0
M  V30 7948 C 733.305 1.95837 -2.86092 0
M  V30 7949 C 732.366 1.51337 -4.01741 0
M  V30 7950 C 731.599 2.66233 -4.62554 0
M  V30 7951 O 731.822 3.8346 -4.22273 0
M  V30 7952 O 730.756 2.39517 -5.52191 0
M  V30 7953 H 734.582 0.222304 -3.02885 0
M  V30 7954 H 732.167 0.0437141 -1.49336 0
M  V30 7955 H 734.049 2.66368 -3.26536 0
M  V30 7956 H 732.724 2.47677 -2.08417 0
M  V30 7957 H 731.631 0.777155 -3.65939 0
M  V30 7958 H 732.964 1.04175 -4.81049 0
M  V30 7959 N 734.616 1.57351 0.0885366 0
M  V30 7960 C 735.526 2.05858 1.12516 0
M  V30 7961 C 736.542 0.984758 1.43452 0
M  V30 7962 O 737.718 1.29836 1.53963 0
M  V30 7963 C 734.783 2.47882 2.42395 0
M  V30 7964 C 733.844 3.69487 2.18582 0
M  V30 7965 C 733.077 4.09497 3.42268 0
M  V30 7966 O 733.3 3.49536 4.50755 0
M  V30 7967 O 732.234 5.02406 3.31469 0
M  V30 7968 H 736.06 2.94467 0.743146 0
M  V30 7969 H 733.645 1.46326 0.301507 0
M  V30 7970 H 735.527 2.75509 3.18862 0
M  V30 7971 H 734.202 1.62408 2.8001 0
M  V30 7972 H 733.109 3.46967 1.39875 0
M  V30 7973 H 734.442 4.55761 1.85857 0
M  V30 7974 N 736.094 -0.359525 1.53444 0
M  V30 7975 C 737.044 -1.441 1.7669 0
M  V30 7976 C 738.028 -1.48408 0.621599 0
M  V30 7977 O 739.22 -1.53547 0.880468 0
M  V30 7978 C 736.349 -2.81455 1.96566 0
M  V30 7979 C 735.435 -2.81601 3.17115 0
M  V30 7980 N 735.826 -2.51388 4.38905 0
M  V30 7981 C 734.124 -3.12758 3.1796 0
M  V30 7982 C 734.825 -2.59365 5.20677 0
M  V30 7983 N 733.801 -2.94328 4.57025 0
M  V30 7984 H 737.603 -1.19613 2.68458 0
M  V30 7985 H 735.117 -0.567761 1.52152 0
M  V30 7986 H 737.114 -3.59357 2.11348 0
M  V30 7987 H 735.774 -3.06901 1.06029 0
M  V30 7988 H 736.785 -2.24873 4.66533 0
M  V30 7989 H 733.462 -3.43479 2.37336 0
M  V30 7990 H 734.852 -2.39301 6.27841 0
M  V30 7991 N 737.572 -1.44907 -0.619662 0
M  V30 7992 C 738.818 -1.48512 -1.38102 0
M  V30 7993 C 739.151 -0.121686 -1.93818 0
M  V30 7994 O 738.426 0.862256 -1.74343 0
M  V30 7995 C 738.709 -2.55469 -2.53787 0
M  V30 7996 C 738.562 -4.01212 -2.03345 0
M  V30 7997 C 739.881 -2.58821 -3.55949 0
M  V30 7998 H 737 -0.540712 -0.500799 0
M  V30 7999 H 739.642 -1.7665 -0.69962 0
M  V30 8000 H 737.792 -2.31606 -3.11915 0
M  V30 8001 H 739.464 -4.36245 -1.49959 0
M  V30 8002 H 737.707 -4.12443 -1.34438 0
M  V30 8003 H 738.378 -4.71717 -2.86683 0
M  V30 8004 H 740.854 -2.80172 -3.07641 0
M  V30 8005 H 739.73 -3.35542 -4.34399 0
M  V30 8006 H 739.991 -1.63451 -4.10775 0
M  V30 8007 N 739.05 0.861098 -1.31996 0
M  V30 8008 C 739.96 2.00154 -1.22374 0
M  V30 8009 C 740.976 1.73447 -0.138631 0
M  V30 8010 O 742.152 1.98191 -0.358104 0
M  V30 8011 C 739.217 3.33696 -0.940645 0
M  V30 8012 C 738.278 3.73668 -2.11355 0
M  V30 8013 C 737.511 5.00837 -1.84386 0
M  V30 8014 O 737.734 5.64996 -0.783287 0
M  V30 8015 O 736.668 5.37787 -2.70313 0
M  V30 8016 H 740.494 2.11207 -2.18233 0
M  V30 8017 H 738.079 0.990768 -1.11822 0
M  V30 8018 H 739.961 4.13756 -0.798987 0
M  V30 8019 H 738.636 3.23698 -0.0121636 0
M  V30 8020 H 737.543 2.94211 -2.31065 0
M  V30 8021 H 738.876 3.88303 -3.02459 0
M  V30 8022 N 740.528 1.15101 1.07655 0
M  V30 8023 C 741.438 0.858869 2.18313 0
M  V30 8024 C 742.454 -0.163641 1.73229 0
M  V30 8025 O 743.63 0.00969541 2.01398 0
M  V30 8026 C 740.695 0.34893 3.4494 0
M  V30 8027 C 739.756 1.43495 4.04608 0
M  V30 8028 C 738.989 0.949253 5.2519 0
M  V30 8029 O 739.212 -0.20636 5.70027 0
M  V30 8030 O 738.146 1.73161 5.76454 0
M  V30 8031 H 741.972 1.78386 2.45788 0
M  V30 8032 H 739.557 0.929876 1.16934 0
M  V30 8033 H 741.439 0.070851 4.2134 0
M  V30 8034 H 740.114 -0.548237 3.19024 0
M  V30 8035 H 739.021 1.7666 3.29761 0
M  V30 8036 H 740.354 2.30692 4.3479 0
M  V30 8037 N 742.006 -1.2595 0.947325 0
M  V30 8038 C 743.417 -1.75389 0.639963 0
M  V30 8039 C 743.768 -1.77081 -0.844788 0
M  V30 8040 O 742.893 -1.3869 -1.66114 0
M  V30 8041 C 743.488 -3.18506 1.15496 0
M  V30 8042 C 742.047 -3.65534 0.897894 0
M  V30 8043 C 741.194 -2.44818 1.30228 0
M  V30 8044 H 744.145 -1.1194 1.12495 0
M  V30 8045 H 744.166 -3.77045 0.511627 0
M  V30 8046 H 743.678 -3.17243 2.23559 0
M  V30 8047 H 741.779 -3.72221 -0.168096 0
M  V30 8048 H 741.892 -4.54039 1.52922 0
M  V30 8049 H 740.256 -2.44291 0.720678 0
M  V30 8050 H 741.039 -2.46251 2.39198 0
M  V30 8051 N 743.484 -0.715051 -1.40445 0
M  V30 8052 C 744.447 -0.0708726 -2.2909 0
M  V30 8053 C 745.447 0.687926 -1.45342 0
M  V30 8054 O 746.637 0.519908 -1.66261 0
M  V30 8055 C 743.769 0.909528 -3.28543 0
M  V30 8056 H 744.962 -0.851611 -2.87555 0
M  V30 8057 H 742.515 -0.479674 -1.48758 0
M  V30 8058 H 743.25 1.71734 -2.75096 0
M  V30 8059 H 743.035 0.368318 -3.90366 0
M  V30 8060 H 744.525 1.35744 -3.94922 0
M  V30 8061 N 744.962 1.50701 -0.461195 0
M  V30 8062 C 746.187 2.07171 0.0974773 0
M  V30 8063 C 746.612 1.32391 1.3362 0
M  V30 8064 O 745.97 0.368676 1.77512 0
M  V30 8065 C 746.018 3.58651 0.374409 0
M  V30 8066 O 745.122 3.85816 1.4567 0
M  V30 8067 H 744.463 0.663944 -0.00862047 0
M  V30 8068 H 746.993 1.94021 -0.649394 0
M  V30 8069 H 747.003 4.03295 0.617843 0
M  V30 8070 H 745.678 4.12498 -0.530829 0
M  V30 8071 H 744.255 3.53018 1.20136 0
M  V30 8072 N 746.441 0.193421 1.56409 0
M  V30 8073 C 747.718 -0.493318 1.89277 0
M  V30 8074 C 748.098 -1.79765 1.10669 0
M  V30 8075 O 747.446 -2.27558 0.207274 0
M  V30 8076 C 747.656 -0.713732 3.41624 0
M  V30 8077 C 749.004 -1.03385 4.11821 0
M  V30 8078 O 750.028 -0.801511 3.47065 0
M  V30 8079 O 748.887 -1.47327 5.26267 0
M  V30 8080 H 745.981 -0.256973 0.786062 0
M  V30 8081 H 748.527 0.23351 1.68086 0
M  V30 8082 H 747.299 0.207446 3.9075 0
M  V30 8083 H 746.922 -1.49308 3.68501 0
M  V30 8084 N 747.919 -1.57396 -0.0801906 0
M  V30 8085 C 749.165 -1.87113 -0.782083 0
M  V30 8086 C 749.498 -0.78458 -1.77646 0
M  V30 8087 O 748.773 0.205993 -1.93406 0
M  V30 8088 C 749.056 -3.27483 -1.49756 0
M  V30 8089 C 748.909 -4.46782 -0.520171 0
M  V30 8090 C 750.228 -3.65965 -2.44454 0
M  V30 8091 H 747.347 -0.680559 -0.282858 0
M  V30 8092 H 749.989 -1.89946 -0.0454139 0
M  V30 8093 H 748.139 -3.25199 -2.12551 0
M  V30 8094 H 749.811 -4.61187 0.101919 0
M  V30 8095 H 748.054 -4.33485 0.165219 0
M  V30 8096 H 748.725 -5.41761 -1.05824 0
M  V30 8097 H 751.201 -3.69289 -1.91742 0
M  V30 8098 H 750.077 -4.65086 -2.91524 0
M  V30 8099 H 750.338 -2.95446 -3.28883 0
M  V30 8100 N 749.397 0.351382 -1.53633 0
M  V30 8101 C 750.329 1.45159 -1.77374 0
M  V30 8102 C 751.342 1.4905 -0.654826 0
M  V30 8103 O 752.531 1.52274 -0.931396 0
M  V30 8104 C 749.631 2.83858 -1.85143 0
M  V30 8105 C 748.804 3.03498 -3.14972 0
M  V30 8106 C 747.863 4.22393 -3.138 0
M  V30 8107 O 746.889 4.16885 -3.87551 0
M  V30 8108 N 748.091 5.30533 -2.35617 0
M  V30 8109 H 750.856 1.25167 -2.72311 0
M  V30 8110 H 748.417 0.54121 -1.52586 0
M  V30 8111 H 750.409 3.61557 -1.8182 0
M  V30 8112 H 748.979 2.9703 -0.974275 0
M  V30 8113 H 748.199 2.13336 -3.31484 0
M  V30 8114 H 749.487 3.13498 -4.00745 0
M  V30 8115 H 748.885 5.37875 -1.75235 0
M  V30 8116 H 747.442 6.06756 -2.38098 0
M  V30 8117 N 750.875 1.45233 0.611969 0
M  V30 8118 C 751.807 1.49575 1.73666 0
M  V30 8119 C 752.82 0.386987 1.58134 0
M  V30 8120 O 754.009 0.653804 1.66095 0
M  V30 8121 C 751.109 1.33223 3.11617 0
M  V30 8122 C 750.282 2.57694 3.5343 0
M  V30 8123 C 749.341 2.35962 4.70328 0
M  V30 8124 O 748.367 3.09553 4.77667 0
M  V30 8125 N 749.569 1.40243 5.63305 0
M  V30 8126 H 752.334 2.46539 1.70407 0
M  V30 8127 H 749.895 1.40917 0.79712 0
M  V30 8128 H 751.887 1.16502 3.87569 0
M  V30 8129 H 750.457 0.44551 3.09409 0
M  V30 8130 H 749.677 2.8956 2.67486 0
M  V30 8131 H 750.965 3.40441 3.78124 0
M  V30 8132 H 750.363 0.795023 5.60086 0
M  V30 8133 H 748.92 1.29496 6.38807 0
M  V30 8134 N 752.353 -0.854086 1.3245 0
M  V30 8135 C 753.581 -1.64074 1.26045 0
M  V30 8136 C 753.996 -1.8802 -0.171456 0
M  V30 8137 O 753.353 -1.4496 -1.10873 0
M  V30 8138 C 753.404 -2.9997 2.01743 0
M  V30 8139 O 753.125 -2.77084 3.39346 0
M  V30 8140 C 754.626 -3.94414 2.02368 0
M  V30 8141 H 751.846 -0.511015 0.434862 0
M  V30 8142 H 754.39 -1.06494 1.74583 0
M  V30 8143 H 752.545 -3.54193 1.56926 0
M  V30 8144 H 752.959 -3.63514 3.78098 0
M  V30 8145 H 754.433 -4.87032 2.59815 0
M  V30 8146 H 754.91 -4.27427 1.01009 0
M  V30 8147 H 755.516 -3.46127 2.47135 0
M  V30 8148 N 753.831 -1.1567 -1.07043 0
M  V30 8149 C 755.056 -0.957946 -1.83952 0
M  V30 8150 C 755.481 0.488807 -1.81638 0
M  V30 8151 O 754.839 1.34869 -1.21162 0
M  V30 8152 C 754.887 -1.48064 -3.288 0
M  V30 8153 O 753.991 -0.681921 -4.06723 0
M  V30 8154 H 753.332 -0.341453 -0.569479 0
M  V30 8155 H 755.862 -1.53728 -1.35015 0
M  V30 8156 H 755.872 -1.49484 -3.7963 0
M  V30 8157 H 754.547 -2.53388 -3.29799 0
M  V30 8158 H 753.124 -0.737612 -3.65532 0
M  V30 8159 N 755.309 1.25446 -0.953992 0
M  V30 8160 C 756.219 2.29632 -0.480264 0
M  V30 8161 C 757.235 1.68025 0.452071 0
M  V30 8162 O 758.411 1.98703 0.328472 0
M  V30 8163 C 755.476 3.45903 0.234974 0
M  V30 8164 C 754.537 4.22953 -0.735495 0
M  V30 8165 C 753.77 5.33672 -0.0542957 0
M  V30 8166 O 753.993 5.58477 1.16018 0
M  V30 8167 O 752.927 5.9734 -0.739509 0
M  V30 8168 H 756.753 2.72242 -1.34602 0
M  V30 8169 H 754.338 1.30883 -0.720419 0
M  V30 8170 H 756.22 4.16552 0.637341 0
M  V30 8171 H 754.895 3.05296 1.07592 0
M  V30 8172 H 753.802 3.54734 -1.18806 0
M  V30 8173 H 755.135 4.67341 -1.54444 0
M  V30 8174 N 756.787 0.722489 1.40064 0
M  V30 8175 C 757.75 0.0830209 2.2905 0
M  V30 8176 C 758.75 -0.680208 1.45705 0
M  V30 8177 O 759.94 -0.511084 1.66534 0
M  V30 8178 C 757.072 -0.892092 3.29021 0
M  V30 8179 H 758.265 0.866848 2.87099 0
M  V30 8180 H 755.818 0.487556 1.48501 0
M  V30 8181 H 756.553 -1.70273 2.76003 0
M  V30 8182 H 756.338 -0.34761 3.90556 0
M  V30 8183 H 757.828 -1.33648 3.95636 0
M  V30 8184 N 758.265 -1.50454 0.469181 0
M  V30 8185 C 759.228 -2.2703 -0.314643 0
M  V30 8186 C 760.228 -1.31734 -0.922111 0
M  V30 8187 O 761.418 -1.55176 -0.791588 0
M  V30 8188 C 758.55 -3.08616 -1.44806 0
M  V30 8189 H 759.743 -2.97769 0.356892 0
M  V30 8190 H 757.296 -1.54698 0.223191 0
M  V30 8191 H 758.031 -2.42369 -2.1547 0
M  V30 8192 H 757.816 -3.78647 -1.01829 0
M  V30 8193 H 759.306 -3.66536 -2.00103 0
M  V30 8194 N 759.743 -0.201713 -1.56304 0
M  V30 8195 C 761.154 0.309711 -1.84113 0
M  V30 8196 C 761.505 1.60912 -1.12258 0
M  V30 8197 O 760.63 2.12937 -0.385587 0
M  V30 8198 C 761.225 0.568706 -3.33993 0
M  V30 8199 C 759.784 1.02448 -3.6219 0
M  V30 8200 C 758.931 0.0766842 -2.77194 0
M  V30 8201 H 761.882 -0.425356 -1.52893 0
M  V30 8202 H 761.903 1.41721 -3.53122 0
M  V30 8203 H 761.415 -0.37719 -3.86263 0
M  V30 8204 H 759.516 1.98443 -3.15359 0
M  V30 8205 H 759.629 0.912619 -4.70328 0
M  V30 8206 H 757.993 0.579809 -2.48013 0
M  V30 8207 H 758.776 -0.863774 -3.32256 0
M  V30 8208 N 761.222 1.57436 0.0718424 0
M  V30 8209 C 762.45 1.91474 0.783932 0
M  V30 8210 C 762.865 0.797669 1.71122 0
M  V30 8211 O 762.222 -0.228989 1.81058 0
M  V30 8212 C 762.273 3.25259 1.57761 0
M  V30 8213 O 761.994 4.3267 0.687596 0
M  V30 8214 C 763.495 3.7331 2.3907 0
M  V30 8215 H 760.715 0.632901 0.222885 0
M  V30 8216 H 763.259 2.04457 0.0421262 0
M  V30 8217 H 761.414 3.13804 2.27169 0
M  V30 8218 H 761.828 5.09641 1.23962 0
M  V30 8219 H 763.302 4.69551 2.90216 0
M  V30 8220 H 763.779 3.02318 3.18591 0
M  V30 8221 H 764.385 3.8771 1.74818 0
M  V30 8222 N 762.7 -0.34323 1.53817 0
M  V30 8223 C 763.949 -1.08086 1.70295 0
M  V30 8224 C 764.262 -1.89794 0.47302 0
M  V30 8225 O 765.468 -2.66498 0.518754 0
M  V30 8226 C 763.924 -1.97097 3.01133 0
M  V30 8227 C 763.532 -1.20594 4.31464 0
M  V30 8228 C 765.276 -2.70715 3.26976 0
M  V30 8229 C 763.183 -2.08636 5.53376 0
M  V30 8230 H 762.113 -0.407228 0.634572 0
M  V30 8231 H 764.764 -0.340328 1.80316 0
M  V30 8232 H 763.146 -2.74971 2.84969 0
M  V30 8233 H 764.32 -0.476282 4.58332 0
M  V30 8234 H 762.635 -0.587426 4.12236 0
M  V30 8235 H 765.232 -3.36857 4.15248 0
M  V30 8236 H 765.575 -3.37299 2.43998 0
M  V30 8237 H 766.108 -1.99914 3.43917 0
M  V30 8238 H 762.847 -1.46594 6.38898 0
M  V30 8239 H 762.367 -2.7939 5.30755 0
M  V30 8240 H 764.046 -2.67682 5.89029 0
M  V30 8241 N 764.178 -1.45556 -0.604258 0
M  V30 8242 C 765.088 -1.57025 -1.74299 0
M  V30 8243 C 766.104 -0.45456 -1.67958 0
M  V30 8244 O 767.28 -0.715711 -1.88254 0
M  V30 8245 C 764.345 -1.53702 -3.10768 0
M  V30 8246 C 763.406 -2.76335 -3.28538 0
M  V30 8247 C 762.639 -2.73161 -4.58496 0
M  V30 8248 O 762.862 -1.80678 -5.41028 0
M  V30 8249 O 761.796 -3.64409 -4.79051 0
M  V30 8250 H 765.622 -2.53284 -1.67573 0
M  V30 8251 H 763.207 -1.28104 -0.768745 0
M  V30 8252 H 765.089 -1.54468 -3.92068 0
M  V30 8253 H 763.764 -0.605957 -3.17978 0
M  V30 8254 H 762.671 -2.8113 -2.46813 0
M  V30 8255 H 764.004 -3.68578 -3.26207 0
M  V30 8256 N 765.656 0.84705 -1.32902 0
M  V30 8257 C 766.905 1.59667 -1.23245 0
M  V30 8258 C 767.218 1.94551 0.202349 0
M  V30 8259 O 768.424 2.68218 0.420847 0
M  V30 8260 C 766.88 2.8795 -2.15901 0
M  V30 8261 C 766.488 2.60461 -3.64505 0
M  V30 8262 C 768.232 3.65968 -2.15098 0
M  V30 8263 C 766.139 3.84791 -4.49099 0
M  V30 8264 H 765.069 0.599167 -0.457728 0
M  V30 8265 H 767.72 0.934662 -1.57912 0
M  V30 8266 H 766.102 3.55648 -1.74157 0
M  V30 8267 H 767.276 2.01026 -4.14639 0
M  V30 8268 H 765.591 1.9576 -3.67515 0
M  V30 8269 H 768.188 4.58241 -2.75534 0
M  V30 8270 H 768.531 4.00275 -1.14392 0
M  V30 8271 H 769.064 3.05184 -2.55162 0
M  V30 8272 H 765.803 3.55621 -5.50649 0
M  V30 8273 H 765.323 4.43594 -4.03713 0
M  V30 8274 H 767.002 4.52454 -4.62487 0
M  V30 8275 N 767.134 1.16236 1.06428 0
M  V30 8276 C 768.545 0.950942 1.60667 0
M  V30 8277 C 768.896 -0.505491 1.89576 0
M  V30 8278 O 768.021 -1.37843 1.66818 0
M  V30 8279 C 768.616 1.71982 2.91904 0
M  V30 8280 C 767.175 1.55342 3.4285 0
M  V30 8281 C 766.322 1.72942 2.16763 0
M  V30 8282 H 769.273 1.31126 0.893959 0
M  V30 8283 H 769.294 1.19483 3.61253 0
M  V30 8284 H 768.806 2.77978 2.70831 0
M  V30 8285 H 766.907 0.5178 3.68985 0
M  V30 8286 H 767.02 2.33643 4.18267 0
M  V30 8287 H 765.384 1.15673 2.26918 0
M  V30 8288 H 766.167 2.80324 1.98175 0
M  V30 8289 N 768.612 -1.24939 0.960631 0
M  V30 8290 C 769.889 -1.88118 0.535807 0
M  V30 8291 C 770.269 -1.86605 -0.987009 0
M  V30 8292 O 769.617 -1.33375 -1.85536 0
M  V30 8293 C 769.827 -3.30565 1.11927 0
M  V30 8294 C 771.175 -4.07296 1.19981 0
M  V30 8295 O 772.199 -3.39709 1.07126 0
M  V30 8296 O 771.058 -5.28206 1.40218 0
M  V30 8297 H 768.152 -0.807698 0.177631 0
M  V30 8298 H 770.698 -1.32964 1.05445 0
M  V30 8299 H 769.47 -3.26128 2.16231 0
M  V30 8300 H 769.093 -3.93284 0.584245 0
M  V30 8301 N 770.09 -0.729906 -1.39679 0
M  V30 8302 C 771.318 -0.285709 -2.04918 0
M  V30 8303 C 771.733 1.07765 -1.55023 0
M  V30 8304 O 771.09 1.67999 -0.712923 0
M  V30 8305 C 771.141 -0.272793 -3.60469 0
M  V30 8306 O 770.862 -1.58233 -4.08527 0
M  V30 8307 C 772.363 0.188199 -4.429 0
M  V30 8308 H 769.583 -0.125758 -0.65911 0
M  V30 8309 H 772.127 -0.992129 -1.78821 0
M  V30 8310 H 770.282 0.384699 -3.85485 0
M  V30 8311 H 770.696 -1.49245 -5.02818 0
M  V30 8312 H 772.17 0.14608 -5.51807 0
M  V30 8313 H 772.647 1.2326 -4.21549 0
M  V30 8314 H 773.253 -0.439541 -4.23023 0
M  V30 8315 N 771.568 1.50203 -0.477153 0
M  V30 8316 C 772.498 2.31517 0.303646 0
M  V30 8317 C 773.479 1.38696 0.984753 0
M  V30 8318 O 774.664 1.67615 0.980758 0
M  V30 8319 C 771.794 3.18598 1.38249 0
M  V30 8320 C 770.748 4.2002 0.822645 0
M  V30 8321 C 770.074 4.95878 2.00024 0
M  V30 8322 C 771.374 5.22023 -0.170185 0
M  V30 8323 H 773.068 2.97042 -0.375027 0
M  V30 8324 H 770.614 1.42848 -0.181802 0
M  V30 8325 H 772.567 3.74282 1.93625 0
M  V30 8326 H 771.291 2.5097 2.09002 0
M  V30 8327 H 769.95 3.65445 0.290813 0
M  V30 8328 H 769.598 4.24717 2.69489 0
M  V30 8329 H 769.298 5.64487 1.63183 0
M  V30 8330 H 770.822 5.54399 2.55878 0
M  V30 8331 H 772.236 5.72543 0.294606 0
M  V30 8332 H 770.633 5.98386 -0.453181 0
M  V30 8333 H 771.703 4.72396 -1.09408 0
M  V30 8334 N 773.046 0.209999 1.56195 0
M  V30 8335 C 774.276 -0.429373 2.02089 0
M  V30 8336 C 774.684 -1.54703 1.0892 0
M  V30 8337 O 774.027 -1.83485 0.0889535 0
M  V30 8338 C 774.089 -1.03266 3.44349 0
M  V30 8339 C 773.753 -0.0518873 4.56971 0
M  V30 8340 C 774.75 0.744249 5.14545 0
M  V30 8341 C 772.435 0.0635185 5.0226 0
M  V30 8342 C 774.429 1.64261 6.15871 0
M  V30 8343 C 772.116 0.965423 6.03426 0
M  V30 8344 C 773.114 1.75352 6.60106 0
M  V30 8345 O 772.802 2.64029 7.59305 0
M  V30 8346 H 772.534 -0.110604 0.66689 0
M  V30 8347 H 775.088 0.320436 2.02885 0
M  V30 8348 H 773.318 -1.83134 3.40586 0
M  V30 8349 H 775.007 -1.57823 3.73961 0
M  V30 8350 H 775.773 0.665476 4.80413 0
M  V30 8351 H 771.652 -0.539762 4.57829 0
M  V30 8352 H 775.196 2.25819 6.60039 0
M  V30 8353 H 771.093 1.04526 6.36981 0
M  V30 8354 H 771.861 2.57974 7.76783 0
M  V30 8355 N 774.524 -1.57472 -0.0634922 0
M  V30 8356 C 775.754 -1.91608 -0.772645 0
M  V30 8357 C 776.162 -0.805019 -1.71219 0
M  V30 8358 O 775.505 0.229941 -1.82255 0
M  V30 8359 C 775.567 -3.21281 -1.61304 0
M  V30 8360 C 775.231 -4.49177 -0.841973 0
M  V30 8361 C 776.228 -5.19661 -0.157494 0
M  V30 8362 C 773.913 -4.9578 -0.80669 0
M  V30 8363 C 775.907 -6.35006 0.551948 0
M  V30 8364 C 773.594 -6.11028 -0.0934812 0
M  V30 8365 C 774.592 -6.80493 0.58463 0
M  V30 8366 O 774.28 -7.93542 1.28633 0
M  V30 8367 H 774.012 -0.637685 -0.224352 0
M  V30 8368 H 776.566 -2.05369 -0.0355279 0
M  V30 8369 H 774.796 -3.03752 -2.39315 0
M  V30 8370 H 776.485 -3.41003 -2.20162 0
M  V30 8371 H 777.251 -4.84681 -0.176006 0
M  V30 8372 H 773.13 -4.41579 -1.32397 0
M  V30 8373 H 776.674 -6.89161 1.0818 0
M  V30 8374 H 772.571 -6.45459 -0.0729258 0
M  V30 8375 H 773.339 -8.09708 1.19646 0
M  V30 8376 N 776.003 0.335068 -1.53997 0
M  V30 8377 C 777.28 1.09188 -1.62288 0
M  V30 8378 C 777.66 2.0626 -0.449458 0
M  V30 8379 O 777.008 2.21596 0.557444 0
M  V30 8380 C 777.218 1.80403 -2.98757 0
M  V30 8381 C 778.566 2.33841 -3.54406 0
M  V30 8382 O 779.59 1.90487 -3.00987 0
M  V30 8383 O 778.449 3.1318 -4.47862 0
M  V30 8384 H 775.543 0.502621 -0.656736 0
M  V30 8385 H 778.089 0.33588 -1.66343 0
M  V30 8386 H 776.861 1.09732 -3.75599 0
M  V30 8387 H 776.484 2.62841 -2.9833 0
M  V30 8388 N 777.481 1.45874 0.596531 0
M  V30 8389 C 778.73 1.49737 1.35135 0
M  V30 8390 C 779.043 0.147755 1.95041 0
M  V30 8391 O 780.249 0.0640984 2.71424 0
M  V30 8392 C 778.705 2.6378 2.44843 0
M  V30 8393 C 778.313 4.05102 1.91301 0
M  V30 8394 C 780.057 2.769 3.21755 0
M  V30 8395 C 777.964 5.10508 2.98557 0
M  V30 8396 H 776.894 0.557219 0.507959 0
M  V30 8397 H 779.545 1.72046 0.638147 0
M  V30 8398 H 777.927 2.34774 3.189 0
M  V30 8399 H 779.101 4.43836 1.2388 0
M  V30 8400 H 777.416 3.96528 1.271 0
M  V30 8401 H 780.013 3.52819 4.01775 0
M  V30 8402 H 780.356 1.83924 3.73467 0
M  V30 8403 H 780.889 3.05485 2.54802 0
M  V30 8404 H 777.628 6.0523 2.51749 0
M  V30 8405 H 777.148 4.76332 3.6451 0
M  V30 8406 H 778.827 5.35745 3.62748 0
M  V30 8407 N 778.959 -0.83999 1.33349 0
M  V30 8408 C 779.889 -1.965 1.26135 0
M  V30 8409 C 780.87 -1.69505 0.142152 0
M  V30 8410 O 782.055 -1.91346 0.331743 0
M  V30 8411 C 779.185 -3.32632 0.99866 0
M  V30 8412 C 778.139 -3.74021 2.08068 0
M  V30 8413 C 777.465 -5.07947 1.67014 0
M  V30 8414 C 778.765 -3.87925 3.49731 0
M  V30 8415 H 780.459 -2.02793 2.20262 0
M  V30 8416 H 778.005 -0.974297 1.06035 0
M  V30 8417 H 779.958 -4.10903 0.934696 0
M  V30 8418 H 778.682 -3.26593 0.0217759 0
M  V30 8419 H 777.341 -2.98012 2.13505 0
M  V30 8420 H 776.989 -4.98378 0.680316 0
M  V30 8421 H 776.689 -5.36611 2.39422 0
M  V30 8422 H 778.213 -5.88695 1.62082 0
M  V30 8423 H 779.627 -4.5651 3.46802 0
M  V30 8424 H 778.024 -4.28023 4.20614 0
M  V30 8425 H 779.094 -2.90407 3.88319 0
M  V30 8426 N 780.437 -1.16799 -1.0581 0
M  V30 8427 C 781.685 -0.950642 -1.78346 0
M  V30 8428 C 782.006 0.522524 -1.87869 0
M  V30 8429 O 781.276 1.3795 -1.39092 0
M  V30 8430 H 779.856 -0.348736 -0.6606 0
M  V30 8431 H 782.518 -1.47158 -1.27791 0
M  V30 8432 H 781.614 -1.37359 -2.80248 0
M  V30 8433 N 781.915 1.24427 -0.967243 0
M  V30 8434 C 783.161 1.92772 -0.629812 0
M  V30 8435 C 783.494 1.75436 0.832827 0
M  V30 8436 O 782.769 1.10716 1.59913 0
M  V30 8437 C 783.052 3.45798 -1.00477 0
M  V30 8438 C 782.905 3.72304 -2.52407 0
M  V30 8439 C 784.224 4.36787 -0.538999 0
M  V30 8440 H 781.343 0.700099 -0.230282 0
M  V30 8441 H 783.985 1.46805 -1.20616 0
M  V30 8442 H 782.135 3.8508 -0.514336 0
M  V30 8443 H 783.807 3.42584 -3.08924 0
M  V30 8444 H 782.05 3.17472 -2.95625 0
M  V30 8445 H 782.721 4.7937 -2.73693 0
M  V30 8446 H 785.197 4.04877 -0.959874 0
M  V30 8447 H 784.073 5.4259 -0.829926 0
M  V30 8448 H 784.334 4.38527 0.560923 0
M  V30 8449 N 783.393 0.737304 1.3929 0
M  V30 8450 C 784.641 0.285691 2.00071 0
M  V30 8451 C 784.962 -1.13169 1.58801 0
M  V30 8452 O 784.232 -1.77104 0.837308 0
M  V30 8453 H 782.812 0.102638 0.739915 0
M  V30 8454 H 785.474 0.947775 1.70303 0
M  V30 8455 H 784.57 0.335906 3.10287 0
M  V30 8456 N 784.871 -1.49948 0.485112 0
M  V30 8457 C 786.117 -2.02695 -0.0651022 0
M  V30 8458 C 786.45 -1.36534 -1.38102 0
M  V30 8459 O 785.725 -0.495677 -1.88078 0
M  V30 8460 C 786.008 -3.59337 -0.234285 0
M  V30 8461 C 785.861 -4.3605 1.10364 0
M  V30 8462 C 787.18 -4.28996 -0.982351 0
M  V30 8463 H 784.299 -0.736666 -0.0221856 0
M  V30 8464 H 786.941 -1.7913 0.633433 0
M  V30 8465 H 785.091 -3.79546 -0.829262 0
M  V30 8466 H 786.763 -4.27377 1.73627 0
M  V30 8467 H 785.006 -3.99236 1.69686 0
M  V30 8468 H 785.677 -5.43959 0.938743 0
M  V30 8469 H 788.153 -4.13346 -0.477904 0
M  V30 8470 H 787.029 -5.38379 -1.06955 0
M  V30 8471 H 787.29 -3.93135 -2.02231 0
M  V30 8472 N 786.349 -0.21828 -1.56081 0
M  V30 8473 C 787.297 0.709679 -2.21509 0
M  V30 8474 C 788.291 1.20221 -1.19346 0
M  V30 8475 O 789.497 1.16241 -1.37433 0
M  V30 8476 H 785.872 0.247271 -0.710184 0
M  V30 8477 H 787.843 0.134386 -2.98097 0
M  V30 8478 C 786.592 1.90853 -2.90638 0
M  V30 8479 H 785.915 1.53865 -3.69006 0
M  V30 8480 H 787.355 2.53568 -3.39822 0
M  V30 8481 C 785.814 2.76189 -1.92929 0
M  V30 8482 O 786.344 3.74842 -1.44416 0
M  V30 8483 N 784.55 2.42157 -1.6065 0
M  V30 8484 H 784.097 1.61987 -2.00294 0
M  V30 8485 H 784.055 2.99534 -0.955347 0
M  V30 8486 N 787.827 1.57504 0.0551401 0
M  V30 8487 C 788.79 2.03826 1.04821 0
M  V30 8488 C 789.79 0.937968 1.30609 0
M  V30 8489 O 790.98 1.20237 1.2605 0
M  V30 8490 C 788.112 2.43309 2.38775 0
M  V30 8491 H 789.305 2.92802 0.6486 0
M  V30 8492 H 786.858 1.53368 0.301315 0
M  V30 8493 H 787.593 1.5741 2.83536 0
M  V30 8494 H 787.378 3.23615 2.21395 0
M  V30 8495 H 788.868 2.79666 3.10124 0
M  V30 8496 N 789.305 -0.326896 1.54172 0
M  V30 8497 C 790.582 -1.08326 1.62864 0
M  V30 8498 C 790.962 -2.06018 0.46039 0
M  V30 8499 O 790.31 -2.21889 -0.545685 0
M  V30 8500 C 790.52 -1.78816 2.9971 0
M  V30 8501 C 791.868 -2.31958 3.55641 0
M  V30 8502 O 792.892 -1.88888 3.01993 0
M  V30 8503 O 791.751 -3.10801 4.49517 0
M  V30 8504 H 788.845 -0.499131 0.659392 0
M  V30 8505 H 791.391 -0.327054 1.66519 0
M  V30 8506 H 790.163 -1.07739 3.76176 0
M  V30 8507 H 789.786 -2.61255 2.99719 0
M  V30 8508 N 790.784 -1.46188 -0.588786 0
M  V30 8509 C 791.717 -1.508 -1.71274 0
M  V30 8510 C 792.695 -0.362635 -1.58505 0
M  V30 8511 O 793.879 -0.565899 -1.79805 0
M  V30 8512 C 791.006 -1.38082 -3.09275 0
M  V30 8513 C 790.052 -2.56723 -3.40581 0
M  V30 8514 S 790.885 -4.1911 -3.33327 0
M  V30 8515 C 792.041 -4.08891 -4.73877 0
M  V30 8516 H 792.274 -2.45895 -1.67102 0
M  V30 8517 H 789.807 -1.34 -0.767025 0
M  V30 8518 H 791.765 -1.31432 -3.88891 0
M  V30 8519 H 790.426 -0.444259 -3.10942 0
M  V30 8520 H 789.619 -2.43801 -4.41109 0
M  V30 8521 H 789.221 -2.60332 -2.68521 0
M  V30 8522 H 791.513 -3.75196 -5.64123 0
M  V30 8523 H 792.456 -5.09395 -4.91856 0
M  V30 8524 H 792.864 -3.40239 -4.50441 0
M  V30 8525 N 792.262 0.832906 -1.33792 0
M  V30 8526 C 793.21 1.96455 -1.24532 0
M  V30 8527 C 794.204 1.68774 -0.145455 0
M  V30 8528 O 795.41 1.77314 -0.309797 0
M  V30 8529 H 791.785 0.645008 -0.386611 0
M  V30 8530 H 793.756 2.01389 -2.20193 0
M  V30 8531 C 792.505 3.32784 -1.00748 0
M  V30 8532 H 791.828 3.54626 -1.84609 0
M  V30 8533 H 793.268 4.12447 -0.98301 0
M  V30 8534 C 791.727 3.35654 0.289475 0
M  V30 8535 O 792.257 3.80281 1.29419 0
M  V30 8536 N 790.463 2.88843 0.3191 0
M  V30 8537 H 790.01 2.52719 -0.499069 0
M  V30 8538 H 789.968 2.91145 1.18667 0
M  V30 8539 N 793.74 1.17359 1.05189 0
M  V30 8540 C 794.65 0.904984 2.16442 0
M  V30 8541 C 795.666 -0.12686 1.73537 0
M  V30 8542 O 796.842 0.0524127 2.01332 0
M  V30 8543 C 793.907 0.422019 3.44122 0
M  V30 8544 C 792.968 1.52045 4.01473 0
M  V30 8545 C 792.201 1.06044 5.23059 0
M  V30 8546 O 792.424 -0.0854023 5.70336 0
M  V30 8547 O 791.358 1.85349 5.72651 0
M  V30 8548 H 795.184 1.8356 2.41949 0
M  V30 8549 H 792.769 0.95447 1.14936 0
M  V30 8550 H 794.651 0.160208 4.21095 0
M  V30 8551 H 793.326 -0.480444 3.20115 0
M  V30 8552 H 792.233 1.83615 3.25939 0
M  V30 8553 H 793.566 2.39863 4.29798 0
M  V30 8554 N 795.218 -1.23913 0.973828 0
M  V30 8555 C 796.467 -1.91455 0.63464 0
M  V30 8556 C 796.78 -1.76893 -0.834759 0
M  V30 8557 O 797.986 -2.3918 -1.28473 0
M  V30 8558 C 796.442 -3.43172 1.08447 0
M  V30 8559 C 796.05 -3.66409 2.57776 0
M  V30 8560 C 797.794 -4.1653 0.818721 0
M  V30 8561 C 795.701 -5.11728 2.9646 0
M  V30 8562 H 794.631 -0.716881 0.233661 0
M  V30 8563 H 797.282 -1.40457 1.18085 0
M  V30 8564 H 795.664 -3.93242 0.466524 0
M  V30 8565 H 796.838 -3.26913 3.24753 0
M  V30 8566 H 795.153 -3.06349 2.82027 0
M  V30 8567 H 797.75 -5.23603 1.08367 0
M  V30 8568 H 798.093 -4.15578 -0.245128 0
M  V30 8569 H 798.626 -3.72428 1.39793 0
M  V30 8570 H 795.365 -5.17806 4.01941 0
M  V30 8571 H 794.885 -5.52199 2.34172 0
M  V30 8572 H 796.564 -5.80009 2.86703 0
M  V30 8573 N 796.696 -0.74468 -1.38897 0
M  V30 8574 C 797.924 -0.307428 -2.04603 0
M  V30 8575 C 798.339 1.06115 -1.56157 0
M  V30 8576 O 797.696 1.67233 -0.730701 0
M  V30 8577 C 797.747 -0.31101 -3.6016 0
M  V30 8578 O 797.468 -1.62557 -4.06825 0
M  V30 8579 C 798.969 0.141213 -4.43075 0
M  V30 8580 H 796.189 -0.132741 -0.657739 0
M  V30 8581 H 798.733 -1.01104 -1.77759 0
M  V30 8582 H 796.888 0.343792 -3.85872 0
M  V30 8583 H 797.302 -1.54569 -5.01207 0
M  V30 8584 H 798.776 0.0875449 -5.51931 0
M  V30 8585 H 799.253 1.18782 -4.22833 0
M  V30 8586 H 799.859 -0.484383 -4.22533 0
M  V30 8587 N 798.174 1.49689 -0.493057 0
M  V30 8588 C 799.084 2.32746 0.294358 0
M  V30 8589 C 800.1 1.44117 0.975003 0
M  V30 8590 O 801.276 1.77149 0.958138 0
M  V30 8591 C 798.341 3.19358 1.34949 0
M  V30 8592 C 797.402 4.2383 0.683122 0
M  V30 8593 C 796.635 5.06303 1.68798 0
M  V30 8594 O 796.858 4.90172 2.91698 0
M  V30 8595 O 795.792 5.88826 1.24768 0
M  V30 8596 H 799.618 3.01247 -0.385254 0
M  V30 8597 H 797.203 1.47216 -0.254519 0
M  V30 8598 H 799.085 3.73037 1.96014 0
M  V30 8599 H 797.76 2.53561 2.01217 0
M  V30 8600 H 796.667 3.74086 0.0329351 0
M  V30 8601 H 798 4.9216 0.0630192 0
M  V30 8602 N 799.652 0.226554 1.55963 0
M  V30 8603 C 801.068 -0.128733 1.5908 0
M  V30 8604 C 801.268 -1.58558 1.24345 0
M  V30 8605 O 800.324 -2.32661 0.981069 0
M  V30 8606 C 801.637 0.202076 3.0002 0
M  V30 8607 C 803.185 0.144718 3.12665 0
M  V30 8608 C 803.66 0.449272 4.55791 0
M  V30 8609 N 805.151 0.399026 4.61478 0
M  V30 8610 C 805.886 0.608106 5.70166 0
M  V30 8611 N 805.382 0.879227 6.87198 0
M  V30 8612 N 807.175 0.5402 5.59498 0
M  V30 8613 H 799.326 1.17686 1.76816 0
M  V30 8614 H 801.589 0.472072 0.822102 0
M  V30 8615 H 801.295 1.21341 3.30105 0
M  V30 8616 H 801.169 -0.480554 3.74126 0
M  V30 8617 H 803.556 -0.857261 2.82374 0
M  V30 8618 H 803.637 0.860899 2.40878 0
M  V30 8619 H 803.281 1.44871 4.86801 0
M  V30 8620 H 803.211 -0.288157 5.25811 0
M  V30 8621 H 805.702 0.197372 3.77384 0
M  V30 8622 H 806.015 1.02673 7.65949 0
M  V30 8623 H 804.36 0.916477 6.88931 0
M  V30 8624 H 807.551 0.328581 4.66945 0
M  V30 8625 H 807.724 0.706548 6.44137 0
M  V30 8626 N 801.13 -1.57531 -0.0467866 0
M  V30 8627 C 802.36 -1.92417 -0.752279 0
M  V30 8628 C 802.768 -0.823134 -1.70356 0
M  V30 8629 O 802.111 0.210598 -1.82489 0
M  V30 8630 C 802.173 -3.22974 -1.57887 0
M  V30 8631 C 801.837 -4.50045 -0.794285 0
M  V30 8632 C 802.834 -5.19799 -0.102368 0
M  V30 8633 C 800.519 -4.96608 -0.754061 0
M  V30 8634 C 802.513 -6.34385 0.619267 0
M  V30 8635 C 800.2 -6.11093 -0.0286682 0
M  V30 8636 C 801.198 -6.79835 0.656772 0
M  V30 8637 O 800.886 -7.92133 1.37042 0
M  V30 8638 H 800.618 -0.640029 -0.217576 0
M  V30 8639 H 803.172 -2.05395 -0.0137438 0
M  V30 8640 H 801.402 -3.06273 -2.3608 0
M  V30 8641 H 803.091 -3.43319 -2.16533 0
M  V30 8642 H 803.857 -4.8484 -0.124589 0
M  V30 8643 H 799.736 -4.42958 -1.27706 0
M  V30 8644 H 803.28 -6.87975 1.15483 0
M  V30 8645 H 799.177 -6.455 -0.00446214 0
M  V30 8646 H 799.945 -8.08394 1.28227 0
M  V30 8647 N 802.608 0.318715 -1.54344 0
M  V30 8648 C 803.855 1.05608 -1.72781 0
M  V30 8649 C 804.183 1.87854 -0.504083 0
M  V30 8650 O 803.438 1.88826 0.51414 0
M  V30 8651 C 803.737 2.00514 -2.95853 0
M  V30 8652 C 803.403 1.34385 -4.30409 0
M  V30 8653 C 802.065 1.16081 -4.66989 0
M  V30 8654 C 804.417 0.869627 -5.13894 0
M  V30 8655 C 801.745 0.490114 -5.84649 0
M  V30 8656 C 804.097 0.212735 -6.32242 0
M  V30 8657 C 802.761 0.0175882 -6.67498 0
M  V30 8658 H 802.031 0.386449 -0.632249 0
M  V30 8659 H 804.678 0.332729 -1.88587 0
M  V30 8660 H 802.983 2.79317 -2.74753 0
M  V30 8661 H 804.68 2.57605 -3.07312 0
M  V30 8662 H 801.27 1.49634 -4.01631 0
M  V30 8663 H 805.454 0.998809 -4.86146 0
M  V30 8664 H 800.71 0.327767 -6.10521 0
M  V30 8665 H 804.884 -0.162699 -6.9621 0
M  V30 8666 H 802.511 -0.504137 -7.58527 0
M  V30 8667 N 804.086 1.46499 0.581025 0
M  V30 8668 C 805.033 1.5719 1.68997 0
M  V30 8669 C 806.003 0.416114 1.60803 0
M  V30 8670 O 807.188 0.633086 1.79991 0
M  V30 8671 C 804.328 1.56973 3.07333 0
M  V30 8672 C 803.441 2.83298 3.26139 0
M  V30 8673 C 802.576 2.74574 4.54734 0
M  V30 8674 C 801.615 3.9583 4.66889 0
M  V30 8675 N 800.752 3.85482 5.86811 0
M  V30 8676 H 805.592 2.51914 1.59196 0
M  V30 8677 H 803.129 1.24975 0.775857 0
M  V30 8678 H 805.087 1.54832 3.87405 0
M  V30 8679 H 803.717 0.657803 3.16027 0
M  V30 8680 H 802.769 2.95411 2.3966 0
M  V30 8681 H 804.081 3.7316 3.30988 0
M  V30 8682 H 803.235 2.70548 5.43036 0
M  V30 8683 H 801.974 1.82354 4.52325 0
M  V30 8684 H 800.979 4.00186 3.77003 0
M  V30 8685 H 802.204 4.89148 4.71075 0
M  V30 8686 H 800.15 2.96051 5.85397 0
M  V30 8687 H 800.067 4.69002 5.92936 0
M  V30 8688 H 801.335 3.85434 6.7754 0
M  V30 8689 N 805.565 -0.825799 1.34232 0
M  V30 8690 C 806.495 -1.95151 1.28212 0
M  V30 8691 C 807.476 -1.69345 0.160123 0
M  V30 8692 O 808.661 -1.90983 0.352019 0
M  V30 8693 C 805.791 -3.31554 1.03388 0
M  V30 8694 C 804.745 -3.71793 2.12023 0
M  V30 8695 C 804.071 -5.06147 1.72392 0
M  V30 8696 C 805.371 -3.84193 3.53826 0
M  V30 8697 H 807.065 -2.00445 2.22401 0
M  V30 8698 H 804.611 -0.962996 1.07063 0
M  V30 8699 H 806.564 -4.09889 0.978225 0
M  V30 8700 H 805.288 -3.26551 0.0564142 0
M  V30 8701 H 803.947 -2.95731 2.16654 0
M  V30 8702 H 803.595 -4.97628 0.733137 0
M  V30 8703 H 803.295 -5.34041 2.451 0
M  V30 8704 H 804.819 -5.86943 1.68317 0
M  V30 8705 H 806.233 -4.52806 3.51624 0
M  V30 8706 H 804.63 -4.23538 4.2513 0
M  V30 8707 H 805.7 -2.86272 3.91377 0
M  V30 8708 N 807.043 -1.17915 -1.04565 0
M  V30 8709 C 808.006 -0.903787 -2.10628 0
M  V30 8710 C 809.006 0.10873 -1.60432 0
M  V30 8711 O 810.196 -0.124152 -1.73757 0
M  V30 8712 C 807.328 -0.355017 -3.39046 0
M  V30 8713 H 808.521 -1.84425 -2.3649 0
M  V30 8714 H 806.074 -0.990477 -1.2091 0
M  V30 8715 H 806.809 0.592297 -3.18845 0
M  V30 8716 H 806.594 -1.08484 -3.76794 0
M  V30 8717 H 808.084 -0.180891 -4.17208 0
M  V30 8718 N 808.521 1.23394 -0.980386 0
M  V30 8719 C 809.431 2.28561 -0.528864 0
M  V30 8720 C 810.447 1.68946 0.416329 0
M  V30 8721 O 811.623 1.99355 0.286251 0
M  V30 8722 C 808.688 3.46323 0.16155 0
M  V30 8723 C 807.749 4.21297 -0.825044 0
M  V30 8724 C 806.982 5.33437 -0.167483 0
M  V30 8725 O 807.205 5.60812 1.04146 0
M  V30 8726 O 806.139 5.95637 -0.866047 0
M  V30 8727 H 809.965 2.69326 -1.40346 0
M  V30 8728 H 807.55 1.29325 -0.748019 0
M  V30 8729 H 809.432 4.17811 0.548841 0
M  V30 8730 H 808.107 3.0751 1.01092 0
M  V30 8731 H 807.014 3.52134 -1.26303 0
M  V30 8732 H 808.347 4.6396 -1.64322 0
M  V30 8733 N 809.999 0.752036 1.385 0
M  V30 8734 C 810.947 0.112634 2.32327 0
M  V30 8735 C 811.941 -0.707037 1.53939 0
M  V30 8736 O 813.147 -0.606309 1.69481 0
M  V30 8737 H 809.522 0.0176275 0.751793 0
M  V30 8738 H 811.493 0.920074 2.83861 0
M  V30 8739 C 810.242 -0.767458 3.39124 0
M  V30 8740 H 809.565 -0.146122 3.99533 0
M  V30 8741 H 811.005 -1.18216 4.07187 0
M  V30 8742 C 809.464 -1.90938 2.77568 0
M  V30 8743 O 809.994 -3.00342 2.66754 0
M  V30 8744 N 808.2 -1.70396 2.35401 0
M  V30 8745 H 807.747 -0.81413 2.44397 0
M  V30 8746 H 807.705 -2.46972 1.94557 0
M  V30 8747 N 811.477 -1.49425 0.500989 0
M  V30 8748 C 812.707 -2.06561 -0.0402858 0
M  V30 8749 C 813.115 -1.36157 -1.31369 0
M  V30 8750 O 812.458 -0.433618 -1.78509 0
M  V30 8751 C 812.52 -3.5765 -0.364269 0
M  V30 8752 C 812.184 -4.49739 0.811417 0
M  V30 8753 C 813.181 -4.91255 1.7019 0
M  V30 8754 C 810.866 -4.92036 1.01022 0
M  V30 8755 C 812.86 -5.73806 2.77534 0
M  V30 8756 C 810.547 -5.74364 2.08683 0
M  V30 8757 C 811.545 -6.15154 2.96774 0
M  V30 8758 O 811.233 -6.95836 4.02577 0
M  V30 8759 H 810.965 -0.67578 0.0172357 0
M  V30 8760 H 813.519 -1.93193 0.697553 0
M  V30 8761 H 811.749 -3.69026 -1.1557 0
M  V30 8762 H 813.438 -3.97025 -0.844156 0
M  V30 8763 H 814.204 -4.59222 1.56013 0
M  V30 8764 H 810.083 -4.59789 0.333929 0
M  V30 8765 H 813.627 -6.05564 3.4632 0
M  V30 8766 H 809.524 -6.0581 2.22855 0
M  V30 8767 H 810.292 -7.14142 3.9993 0
M  V30 8768 N 812.955 -0.234822 -1.55841 0
M  V30 8769 C 814.185 0.397168 -2.02746 0
M  V30 8770 C 814.593 1.52951 -1.11367 0
M  V30 8771 O 813.936 1.8332 -0.118133 0
M  V30 8772 C 813.998 0.977748 -3.45948 0
M  V30 8773 C 813.662 -0.0208193 -4.56995 0
M  V30 8774 C 814.659 -0.826015 -5.13296 0
M  V30 8775 C 812.344 -0.143416 -5.02095 0
M  V30 8776 C 814.338 -1.74038 -6.1318 0
M  V30 8777 C 812.025 -1.0613 -6.01814 0
M  V30 8778 C 813.023 -1.85832 -6.57233 0
M  V30 8779 O 812.711 -2.76075 -7.55008 0
M  V30 8780 H 812.443 0.0999802 -0.668566 0
M  V30 8781 H 814.997 -0.352673 -2.0235 0
M  V30 8782 H 813.227 1.77693 -3.43456 0
M  V30 8783 H 814.916 1.51854 -3.76424 0
M  V30 8784 H 815.682 -0.741822 -4.79293 0
M  V30 8785 H 811.561 0.466857 -4.5863 0
M  V30 8786 H 815.105 -2.36291 -6.56363 0
M  V30 8787 H 811.002 -1.14646 -6.35237 0
M  V30 8788 H 811.77 -2.703 -7.7258 0
M  V30 8789 N 814.433 1.57553 0.0384317 0
M  V30 8790 C 815.844 1.77258 0.586211 0
M  V30 8791 C 816.195 0.864706 1.76117 0
M  V30 8792 O 815.32 0.057141 2.16325 0
M  V30 8793 C 815.915 3.21453 1.07021 0
M  V30 8794 C 814.474 3.42387 1.56358 0
M  V30 8795 C 813.621 2.72801 0.497508 0
M  V30 8796 H 816.572 1.57585 -0.187796 0
M  V30 8797 H 816.593 3.27451 1.93794 0
M  V30 8798 H 816.105 3.87505 0.214851 0
M  V30 8799 H 814.206 2.81497 2.44111 0
M  V30 8800 H 814.319 4.50968 1.61754 0
M  V30 8801 H 812.683 2.36305 0.95038 0
M  V30 8802 H 813.466 3.41529 -0.348234 0
M  V30 8803 N 815.911 -0.310526 1.54511 0
M  V30 8804 C 817.141 -1.06456 1.77061 0
M  V30 8805 C 817.549 -1.81755 0.525528 0
M  V30 8806 O 816.892 -1.76365 -0.513904 0
M  V30 8807 C 816.954 -2.09856 2.91892 0
M  V30 8808 C 816.618 -1.53838 4.30329 0
M  V30 8809 C 817.615 -0.973358 5.10707 0
M  V30 8810 C 815.3 -1.57688 4.76906 0
M  V30 8811 C 817.294 -0.454283 6.35779 0
M  V30 8812 C 814.981 -1.05393 6.01943 0
M  V30 8813 C 815.979 -0.493595 6.81214 0
M  V30 8814 O 815.667 0.0214506 8.03897 0
M  V30 8815 H 815.399 -0.321913 0.594431 0
M  V30 8816 H 817.953 -0.358289 2.02251 0
M  V30 8817 H 816.183 -2.84137 2.62304 0
M  V30 8818 H 817.872 -2.71085 3.02106 0
M  V30 8819 H 818.638 -0.936588 4.75871 0
M  V30 8820 H 814.517 -2.00242 4.1524 0
M  V30 8821 H 818.061 -0.0162657 6.97598 0
M  V30 8822 H 813.958 -1.08782 6.36268 0
M  V30 8823 H 814.726 -0.0927478 8.18447 0
M  V30 8824 N 817.389 -1.46805 -0.573248 0
M  V30 8825 C 818.321 -1.54127 -1.6964 0
M  V30 8826 C 819.334 -0.428778 -1.57052 0
M  V30 8827 O 820.523 -0.697612 -1.64303 0
M  V30 8828 C 817.623 -1.41438 -3.07975 0
M  V30 8829 C 816.796 -2.66974 -3.46474 0
M  V30 8830 C 815.855 -2.48349 -4.63906 0
M  V30 8831 O 814.881 -3.22109 -4.69292 0
M  V30 8832 N 816.083 -1.55129 -5.59388 0
M  V30 8833 H 818.848 -2.50971 -1.6381 0
M  V30 8834 H 816.409 -1.42981 -0.759479 0
M  V30 8835 H 818.401 -1.26737 -3.84343 0
M  V30 8836 H 816.971 -0.527388 -3.08119 0
M  V30 8837 H 816.191 -2.9655 -2.59715 0
M  V30 8838 H 817.479 -3.50347 -3.68964 0
M  V30 8839 H 816.877 -0.94324 -5.57781 0
M  V30 8840 H 815.434 -1.46387 -6.35149 0
M  V30 8841 N 818.867 0.818669 -1.34668 0
M  V30 8842 C 820.283 1.11243 -1.14443 0
M  V30 8843 C 820.483 2.01435 0.0512212 0
M  V30 8844 O 819.539 2.41854 0.725471 0
M  V30 8845 C 820.852 1.75504 -2.4417 0
M  V30 8846 C 822.4 1.8798 -2.50265 0
M  V30 8847 C 822.875 2.55657 -3.80004 0
M  V30 8848 N 824.366 2.63153 -3.81189 0
M  V30 8849 C 825.101 3.16258 -4.78298 0
M  V30 8850 N 824.597 3.69893 -5.85791 0
M  V30 8851 N 826.39 3.14698 -4.65748 0
M  V30 8852 H 818.541 0.218848 -2.1127 0
M  V30 8853 H 820.804 0.159655 -0.934459 0
M  V30 8854 H 820.51 1.16697 -3.31775 0
M  V30 8855 H 820.384 2.75329 -2.57825 0
M  V30 8856 H 822.771 2.45934 -1.63096 0
M  V30 8857 H 822.852 0.870447 -2.40535 0
M  V30 8858 H 822.496 1.98356 -4.67565 0
M  V30 8859 H 822.426 3.57105 -3.87019 0
M  V30 8860 H 824.917 2.2514 -3.03513 0
M  V30 8861 H 825.23 4.08678 -6.55898 0
M  V30 8862 H 823.575 3.68125 -5.89499 0
M  V30 8863 H 826.766 2.72066 -3.80917 0
M  V30 8864 H 826.939 3.5578 -5.41594 0
M  V30 8865 N 820.346 1.18468 1.03938 0
M  V30 8866 C 821.571 1.00638 1.81347 0
M  V30 8867 C 821.996 -0.440477 1.8287 0
M  V30 8868 O 821.354 -1.31609 1.24695 0
M  V30 8869 C 821.402 1.5673 3.24759 0
M  V30 8870 O 820.506 0.789517 4.04772 0
M  V30 8871 H 819.847 0.356432 0.560225 0
M  V30 8872 H 822.377 1.57253 1.30891 0
M  V30 8873 H 822.387 1.59496 3.75533 0
M  V30 8874 H 821.062 2.62043 3.22965 0
M  V30 8875 H 819.639 0.834267 3.63448 0
M  V30 8876 N 821.824 -1.22873 0.986916 0
M  V30 8877 C 823.072 -1.91084 0.658121 0
M  V30 8878 C 823.393 -1.77304 -0.811675 0
M  V30 8879 O 822.663 -1.15649 -1.58121 0
M  V30 8880 H 821.243 -0.707251 0.240427 0
M  V30 8881 H 823.905 -1.49357 1.25213 0
M  V30 8882 H 823.001 -2.98373 0.915428 0
M  V30 8883 N 823.302 -0.75937 -1.38099 0
M  V30 8884 C 824.527 -0.327859 -2.04792 0
M  V30 8885 C 824.952 1.03752 -1.56899 0
M  V30 8886 O 824.31 1.66235 -0.723581 0
M  V30 8887 C 824.358 -0.366264 -3.58735 0
M  V30 8888 O 823.462 0.637697 -4.0744 0
M  V30 8889 H 822.803 -0.144092 -0.648177 0
M  V30 8890 H 825.333 -1.03211 -1.7666 0
M  V30 8891 H 825.343 -0.219179 -4.07411 0
M  V30 8892 H 824.018 -1.36243 -3.92951 0
M  V30 8893 H 822.595 0.454749 -3.70117 0
M  V30 8894 N 824.78 1.49157 -0.508906 0
M  V30 8895 C 826.008 2.06879 0.0293734 0
M  V30 8896 C 826.423 1.36823 1.30095 0
M  V30 8897 O 825.78 0.449034 1.7689 0
M  V30 8898 C 825.831 3.60423 0.278791 0
M  V30 8899 O 825.552 4.27844 -0.942389 0
M  V30 8900 C 827.053 4.34881 0.859825 0
M  V30 8901 H 824.273 0.67057 -0.0240184 0
M  V30 8902 H 826.817 1.91834 -0.708526 0
M  V30 8903 H 824.972 3.75145 0.966689 0
M  V30 8904 H 825.386 5.19671 -0.710097 0
M  V30 8905 H 826.86 5.43161 0.983884 0
M  V30 8906 H 827.337 3.9789 1.85958 0
M  V30 8907 H 827.943 4.24785 0.209152 0
M  V30 8908 N 826.258 0.243083 1.55714 0
M  V30 8909 C 827.504 -0.383287 1.99145 0
M  V30 8910 C 827.837 -1.57868 1.13098 0
M  V30 8911 O 827.112 -1.93535 0.193509 0
M  V30 8912 C 827.395 -0.796879 3.51172 0
M  V30 8913 C 827.248 0.403642 4.47985 0
M  V30 8914 C 828.567 -1.64525 4.08191 0
M  V30 8915 H 825.686 -0.137843 0.723995 0
M  V30 8916 H 828.328 0.343631 1.86867 0
M  V30 8917 H 826.478 -1.41625 3.61766 0
M  V30 8918 H 828.15 1.04204 4.49376 0
M  V30 8919 H 826.393 1.04741 4.20965 0
M  V30 8920 H 827.064 0.0709794 5.51954 0
M  V30 8921 H 829.54 -1.12246 4.00674 0
M  V30 8922 H 828.416 -1.9035 5.14838 0
M  V30 8923 H 828.677 -2.61582 3.56409 0
M  V30 8924 N 827.736 -1.57571 -0.0300757 0
M  V30 8925 C 828.983 -1.89226 -0.721091 0
M  V30 8926 C 829.311 -0.840244 -1.75414 0
M  V30 8927 O 828.566 0.158906 -1.95054 0
M  V30 8928 C 828.865 -3.27624 -1.42818 0
M  V30 8929 C 828.531 -4.4776 -0.531208 0
M  V30 8930 C 827.193 -4.8036 -0.28415 0
M  V30 8931 C 829.545 -5.21125 0.0881582 0
M  V30 8932 C 826.873 -5.83715 0.591065 0
M  V30 8933 C 829.225 -6.2541 0.95107 0
M  V30 8934 C 827.889 -6.56486 1.2076 0
M  V30 8935 H 827.159 -0.692428 -0.263866 0
M  V30 8936 H 829.806 -1.91491 0.0189874 0
M  V30 8937 H 828.111 -3.21343 -2.24155 0
M  V30 8938 H 829.808 -3.49365 -1.96838 0
M  V30 8939 H 826.398 -4.2227 -0.73392 0
M  V30 8940 H 830.582 -4.96219 -0.0897496 0
M  V30 8941 H 825.838 -6.06168 0.798132 0
M  V30 8942 H 830.012 -6.81402 1.43751 0
M  V30 8943 H 827.639 -7.36395 1.88751 0
M  V30 8944 N 829.214 0.302327 -1.54673 0
M  V30 8945 C 830.164 1.37443 -1.81916 0
M  V30 8946 C 831.148 1.45999 -0.676251 0
M  V30 8947 O 832.34 1.50174 -0.93685 0
M  V30 8948 C 829.469 2.73966 -2.06876 0
M  V30 8949 C 828.555 2.69637 -3.27348 0
M  V30 8950 N 828.946 2.34926 -4.47933 0
M  V30 8951 C 827.244 3.00742 -3.29348 0
M  V30 8952 C 827.945 2.39862 -5.29944 0
M  V30 8953 N 826.921 2.77163 -4.67634 0
M  V30 8954 H 830.723 1.09567 -2.72713 0
M  V30 8955 H 828.237 0.5109 -1.54154 0
M  V30 8956 H 830.234 3.51265 -2.2454 0
M  V30 8957 H 828.894 3.02754 -1.17346 0
M  V30 8958 H 829.905 2.07403 -4.74557 0
M  V30 8959 H 826.582 3.34434 -2.49921 0
M  V30 8960 H 827.972 2.15835 -6.3629 0
M  V30 8961 N 830.692 1.47107 0.565454 0
M  V30 8962 C 831.64 1.59368 1.69424 0
M  V30 8963 C 832.634 0.461344 1.62997 0
M  V30 8964 O 833.84 0.638849 1.68282 0
M  V30 8965 H 830.215 0.501387 0.560459 0
M  V30 8966 H 832.186 2.54242 1.56217 0
M  V30 8967 C 830.935 1.61739 3.07792 0
M  V30 8968 H 830.258 2.48215 3.13416 0
M  V30 8969 H 831.698 1.7437 3.86486 0
M  V30 8970 C 830.157 0.349156 3.35086 0
M  V30 8971 O 830.687 -0.553287 3.97871 0
M  V30 8972 N 828.893 0.231723 2.89675 0
M  V30 8973 H 828.44 0.967021 2.3876 0
M  V30 8974 H 828.398 -0.615911 3.08308 0
M  V30 8975 N 832.17 -0.811516 1.35101 0
M  V30 8976 C 833.417 -1.56835 1.28098 0
M  V30 8977 C 833.745 -1.93951 -0.14597 0
M  V30 8978 O 833 -1.61173 -1.11004 0
M  V30 8979 C 833.299 -2.87121 2.1283 0
M  V30 8980 C 832.965 -2.69245 3.61688 0
M  V30 8981 C 831.627 -2.64078 4.02264 0
M  V30 8982 C 833.979 -2.52122 4.56162 0
M  V30 8983 C 831.307 -2.39724 5.3549 0
M  V30 8984 C 833.659 -2.29298 5.89581 0
M  V30 8985 C 832.323 -2.2255 6.29307 0
M  V30 8986 H 831.593 -0.5739 0.468742 0
M  V30 8987 H 834.24 -0.93806 1.66951 0
M  V30 8988 H 832.545 -3.54502 1.66841 0
M  V30 8989 H 834.242 -3.44788 2.0475 0
M  V30 8990 H 830.832 -2.74112 3.29485 0
M  V30 8991 H 835.016 -2.5513 4.25702 0
M  V30 8992 H 830.272 -2.32965 5.65276 0
M  V30 8993 H 834.446 -2.15038 6.62368 0
M  V30 8994 H 832.073 -2.0344 7.32473 0
M  V30 8995 N 833.648 -1.19017 -1.03309 0
M  V30 8996 C 835.064 -0.941483 -1.28873 0
M  V30 8997 C 835.264 0.388587 -1.97718 0
M  V30 8998 O 834.32 1.12111 -2.26246 0
M  V30 8999 C 835.633 -2.11249 -2.13996 0
M  V30 9000 C 837.181 -2.15164 -2.27318 0
M  V30 9001 C 837.656 -3.31704 -3.15811 0
M  V30 9002 N 839.147 -3.31613 -3.23399 0
M  V30 9003 C 839.882 -4.18431 -3.9205 0
M  V30 9004 N 839.378 -5.15397 -4.62966 0
M  V30 9005 N 841.171 -4.06321 -3.88406 0
M  V30 9006 H 833.322 -2.04599 -0.570343 0
M  V30 9007 H 835.585 -0.894406 -0.314232 0
M  V30 9008 H 835.291 -3.07482 -1.70727 0
M  V30 9009 H 835.165 -2.07955 -3.14697 0
M  V30 9010 H 837.552 -1.19504 -2.6982 0
M  V30 9011 H 837.633 -2.22513 -1.26182 0
M  V30 9012 H 837.277 -4.2764 -2.74019 0
M  V30 9013 H 837.207 -3.21592 -4.16997 0
M  V30 9014 H 839.698 -2.6142 -2.72888 0
M  V30 9015 H 840.011 -5.78 -5.12968 0
M  V30 9016 H 838.356 -5.19349 -4.61846 0
M  V30 9017 H 841.547 -3.29849 -3.3214 0
M  V30 9018 H 841.72 -4.74196 -4.41635 0
M  V30 9019 N 835.127 1.22348 -0.993418 0
M  V30 9020 C 836.074 2.24294 -0.544118 0
M  V30 9021 C 837.044 1.60602 0.42381 0
M  V30 9022 O 838.229 1.87952 0.328453 0
M  V30 9023 C 835.369 3.44837 0.134578 0
M  V30 9024 C 834.482 4.23043 -0.875151 0
M  V30 9025 C 833.617 5.30928 -0.169919 0
M  V30 9026 C 832.656 6.00853 -1.16798 0
M  V30 9027 N 831.793 7.00381 -0.491021 0
M  V30 9028 H 836.633 2.6209 -1.4182 0
M  V30 9029 H 834.17 1.2881 -0.710384 0
M  V30 9030 H 836.128 4.13625 0.544998 0
M  V30 9031 H 834.758 3.07804 0.972446 0
M  V30 9032 H 833.81 3.53546 -1.40389 0
M  V30 9033 H 835.122 4.71237 -1.63516 0
M  V30 9034 H 834.276 6.05972 0.297205 0
M  V30 9035 H 833.015 4.8371 0.622586 0
M  V30 9036 H 832.02 5.24591 -1.64573 0
M  V30 9037 H 833.245 6.50159 -1.96137 0
M  V30 9038 H 831.191 6.55393 0.282037 0
M  V30 9039 H 831.108 7.46584 -1.18947 0
M  V30 9040 H 832.376 7.79486 -0.0467169 0
M  V30 9041 N 836.605 0.766683 1.37694 0
M  V30 9042 C 837.851 0.329201 2.0011 0
M  V30 9043 C 838.184 -1.09004 1.60723 0
M  V30 9044 O 837.459 -1.74895 0.850989 0
M  V30 9045 C 837.742 0.466989 3.57059 0
M  V30 9046 C 837.595 1.92828 4.06371 0
M  V30 9047 C 838.914 -0.131792 4.39903 0
M  V30 9048 H 836.033 0.12109 0.726984 0
M  V30 9049 H 838.675 0.968779 1.63446 0
M  V30 9050 H 836.825 -0.0775023 3.88423 0
M  V30 9051 H 838.497 2.53208 3.85595 0
M  V30 9052 H 836.74 2.43884 3.58752 0
M  V30 9053 H 837.411 1.97577 5.15429 0
M  V30 9054 H 839.887 0.332731 4.14768 0
M  V30 9055 H 838.763 -0.005217 5.489 0
M  V30 9056 H 839.024 -1.22156 4.24889 0
M  V30 9057 N 838.083 -1.48885 0.516809 0
M  V30 9058 C 839.031 -2.31066 -0.266656 0
M  V30 9059 C 840.025 -1.40393 -0.94795 0
M  V30 9060 O 841.231 -1.57366 -0.873836 0
M  V30 9061 H 837.606 -0.744654 -0.104858 0
M  V30 9062 H 839.577 -2.95045 0.446236 0
M  V30 9063 C 838.326 -3.22131 -1.3087 0
M  V30 9064 H 837.649 -3.91839 -0.793865 0
M  V30 9065 H 839.089 -3.82544 -1.82856 0
M  V30 9066 C 837.548 -2.42825 -2.33533 0
M  V30 9067 O 838.078 -2.14364 -3.39722 0
M  V30 9068 N 836.284 -2.04559 -2.06407 0
M  V30 9069 H 835.831 -2.27905 -1.20071 0
M  V30 9070 H 835.789 -1.51807 -2.75322 0
M  V30 9071 N 839.561 -0.251338 -1.55583 0
M  V30 9072 C 840.471 0.656978 -2.25213 0
M  V30 9073 C 841.487 1.18966 -1.26977 0
M  V30 9074 O 842.663 1.22499 -1.59862 0
M  V30 9075 C 839.728 1.83527 -2.94141 0
M  V30 9076 C 838.789 1.34162 -4.07798 0
M  V30 9077 C 838.022 2.46375 -4.73429 0
M  V30 9078 O 838.245 3.65205 -4.38157 0
M  V30 9079 O 837.179 2.15881 -5.61853 0
M  V30 9080 H 841.005 0.0936395 -3.03556 0
M  V30 9081 H 838.59 -0.0196638 -1.49387 0
M  V30 9082 H 840.472 2.52279 -3.3754 0
M  V30 9083 H 839.147 2.38614 -2.18735 0
M  V30 9084 H 838.054 0.621249 -3.68906 0
M  V30 9085 H 839.387 0.836779 -4.85035 0
M  V30 9086 N 841.039 1.57585 0.0217189 0
M  V30 9087 C 842.002 2.06004 1.00474 0
M  V30 9088 C 843.002 0.965461 1.2859 0
M  V30 9089 O 844.192 1.22884 1.23471 0
M  V30 9090 C 841.324 2.48319 2.33561 0
M  V30 9091 H 842.517 2.94112 0.586346 0
M  V30 9092 H 840.07 1.53973 0.268716 0
M  V30 9093 H 840.805 1.63389 2.80133 0
M  V30 9094 H 840.59 3.28239 2.1448 0
M  V30 9095 H 842.08 2.86181 3.04122 0
M  V30 9096 N 842.517 -0.29412 1.54831 0
M  V30 9097 C 843.747 -1.04572 1.7818 0
M  V30 9098 C 844.155 -1.81187 0.544776 0
M  V30 9099 O 843.498 -1.769 -0.495169 0
M  V30 9100 C 843.56 -2.06748 2.94101 0
M  V30 9101 C 843.224 -1.49265 4.31936 0
M  V30 9102 C 844.221 -0.919136 5.11711 0
M  V30 9103 C 841.906 -1.52621 4.78552 0
M  V30 9104 C 843.9 -0.386824 6.36225 0
M  V30 9105 C 841.587 -0.990031 6.03027 0
M  V30 9106 C 842.585 -0.421315 6.81699 0
M  V30 9107 O 842.273 0.106713 8.03829 0
M  V30 9108 H 842.005 -0.31559 0.597812 0
M  V30 9109 H 844.559 -0.336817 2.0262 0
M  V30 9110 H 842.789 -2.81339 2.65303 0
M  V30 9111 H 844.478 -2.67865 3.04964 0
M  V30 9112 H 845.244 -0.886062 4.76837 0
M  V30 9113 H 841.123 -1.95826 4.17341 0
M  V30 9114 H 844.667 0.0577248 6.97576 0
M  V30 9115 H 840.564 -1.02027 6.37386 0
M  V30 9116 H 841.332 -0.00593526 8.185 0
M  V30 9117 N 843.995 -1.47404 -0.557645 0
M  V30 9118 C 844.927 -1.55917 -1.67995 0
M  V30 9119 C 845.94 -0.445411 -1.56588 0
M  V30 9120 O 847.129 -0.714999 -1.63554 0
M  V30 9121 C 844.229 -1.44697 -3.06457 0
M  V30 9122 C 843.402 -2.70633 -3.43622 0
M  V30 9123 C 842.461 -2.53256 -4.61246 0
M  V30 9124 O 841.487 -3.27068 -4.65849 0
M  V30 9125 N 842.689 -1.61053 -5.57711 0
M  V30 9126 H 845.454 -2.52694 -1.61139 0
M  V30 9127 H 843.015 -1.43778 -0.744271 0
M  V30 9128 H 845.007 -1.30806 -3.82978 0
M  V30 9129 H 843.577 -0.560039 -3.07542 0
M  V30 9130 H 842.797 -2.99288 -2.56555 0
M  V30 9131 H 844.085 -3.5424 -3.65228 0
M  V30 9132 H 843.483 -1.00235 -5.56749 0
M  V30 9133 H 842.04 -1.53115 -6.33561 0
M  V30 9134 N 845.473 0.80434 -1.35529 0
M  V30 9135 C 846.719 1.56385 -1.29118 0
M  V30 9136 C 847.052 1.9374 0.133536 0
M  V30 9137 O 846.327 1.6153 1.08344 0
M  V30 9138 C 846.61 2.85097 -2.19981 0
M  V30 9139 C 846.463 2.54204 -3.7108 0
M  V30 9140 C 847.782 3.86817 -2.09907 0
M  V30 9141 H 844.901 0.567382 -0.470368 0
M  V30 9142 H 847.543 0.925235 -1.6595 0
M  V30 9143 H 845.693 3.39594 -1.88701 0
M  V30 9144 H 847.365 2.05872 -4.12813 0
M  V30 9145 H 845.608 1.87364 -3.91251 0
M  V30 9146 H 846.279 3.46068 -4.30048 0
M  V30 9147 H 848.755 3.41725 -2.37409 0
M  V30 9148 H 847.631 4.7465 -2.75678 0
M  V30 9149 H 847.892 4.28663 -1.08171 0
M  V30 9150 N 846.951 1.19563 1.02676 0
M  V30 9151 C 847.881 0.959024 2.12897 0
M  V30 9152 C 848.862 -0.108382 1.69754 0
M  V30 9153 O 850.047 0.0470698 1.94143 0
M  V30 9154 C 847.177 0.499211 3.43693 0
M  V30 9155 C 846.131 1.5087 4.00528 0
M  V30 9156 C 845.457 0.905884 5.2697 0
M  V30 9157 C 846.757 2.88954 4.3509 0
M  V30 9158 H 848.451 1.88084 2.32948 0
M  V30 9159 H 845.997 0.905731 1.11949 0
M  V30 9160 H 847.95 0.320965 4.20176 0
M  V30 9161 H 846.674 -0.458205 3.2337 0
M  V30 9162 H 845.333 1.67413 3.26142 0
M  V30 9163 H 844.981 -0.0591506 5.02965 0
M  V30 9164 H 844.681 1.58 5.65959 0
M  V30 9165 H 846.205 0.73848 6.06118 0
M  V30 9166 H 847.619 2.75981 5.02501 0
M  V30 9167 H 846.016 3.53177 4.85166 0
M  V30 9168 H 847.086 3.41447 3.44299 0
M  V30 9169 N 848.429 -1.21819 0.999893 0
M  V30 9170 C 849.677 -1.90375 0.678351 0
M  V30 9171 C 849.998 -1.78155 -0.792824 0
M  V30 9172 O 849.268 -1.17319 -1.56885 0
M  V30 9173 H 847.848 -0.704661 0.247915 0
M  V30 9174 H 850.51 -1.48021 1.2679 0
M  V30 9175 H 849.606 -2.97385 0.947023 0
M  V30 9176 N 849.908 -0.773975 -1.37286 0
M  V30 9177 C 851.185 -0.263942 -1.93811 0
M  V30 9178 C 851.565 1.24138 -1.70743 0
M  V30 9179 O 850.913 2.02557 -1.05749 0
M  V30 9180 C 851.123 -0.639753 -3.43086 0
M  V30 9181 C 852.471 -0.610796 -4.20184 0
M  V30 9182 O 853.495 -0.579278 -3.51458 0
M  V30 9183 O 852.354 -0.639862 -5.42741 0
M  V30 9184 H 849.448 -0.0614331 -0.824715 0
M  V30 9185 H 851.994 -0.855477 -1.46559 0
M  V30 9186 H 850.766 -1.67856 -3.53469 0
M  V30 9187 H 850.389 -0.0212827 -3.97594 0
M  V30 9188 N 851.386 1.48609 -0.524698 0
M  V30 9189 C 852.635 2.01696 0.0132937 0
M  V30 9190 C 852.948 1.40751 1.35825 0
M  V30 9191 O 854.154 1.85304 1.9843 0
M  V30 9192 C 852.61 3.59824 0.0741012 0
M  V30 9193 C 852.218 4.2975 -1.26564 0
M  V30 9194 C 853.962 4.20774 0.5612 0
M  V30 9195 C 851.869 5.79798 -1.16571 0
M  V30 9196 H 850.799 0.753949 0.00873931 0
M  V30 9197 H 853.45 1.70922 -0.667684 0
M  V30 9198 H 851.832 3.87416 0.820043 0
M  V30 9199 H 853.006 4.13836 -2.02674 0
M  V30 9200 H 851.321 3.80649 -1.68806 0
M  V30 9201 H 853.918 5.30687 0.653853 0
M  V30 9202 H 854.261 3.85734 1.56573 0
M  V30 9203 H 854.794 3.97591 -0.128901 0
M  V30 9204 H 851.533 6.19403 -2.14523 0
M  V30 9205 H 851.053 5.9814 -0.445894 0
M  V30 9206 H 852.732 6.41337 -0.854186 0
M  V30 9207 N 852.864 0.259585 1.55447 0
M  V30 9208 C 854.141 -0.412595 1.91199 0
M  V30 9209 C 854.521 -1.74909 1.18194 0
M  V30 9210 O 853.869 -2.26474 0.303603 0
M  V30 9211 C 854.079 -0.568195 3.44344 0
M  V30 9212 C 855.427 -0.858253 4.15836 0
M  V30 9213 O 856.451 -0.653588 3.50152 0
M  V30 9214 O 855.31 -1.24874 5.32042 0
M  V30 9215 H 852.404 -0.223403 0.796254 0
M  V30 9216 H 854.95 0.30459 1.66944 0
M  V30 9217 H 853.722 0.372989 3.89518 0
M  V30 9218 H 853.345 -1.33544 3.74502 0
M  V30 9219 N 854.342 -1.57594 -0.0133615 0
M  V30 9220 C 855.289 -2.07574 -1.00905 0
M  V30 9221 C 856.259 -0.968231 -1.34961 0
M  V30 9222 O 857.444 -1.23981 -1.45028 0
M  V30 9223 C 854.584 -2.5728 -2.30002 0
M  V30 9224 C 853.697 -3.81881 -2.01967 0
M  V30 9225 C 852.832 -4.20139 -3.25049 0
M  V30 9226 C 851.871 -5.37614 -2.92639 0
M  V30 9227 N 851.008 -5.71229 -4.08218 0
M  V30 9228 H 855.848 -2.92382 -0.575899 0
M  V30 9229 H 853.385 -1.4455 -0.272722 0
M  V30 9230 H 855.343 -2.84171 -3.05454 0
M  V30 9231 H 853.973 -1.75365 -2.71011 0
M  V30 9232 H 853.025 -3.61979 -1.16942 0
M  V30 9233 H 854.337 -4.67441 -1.74069 0
M  V30 9234 H 853.491 -4.48242 -4.08857 0
M  V30 9235 H 852.23 -3.33262 -3.56073 0
M  V30 9236 H 851.235 -5.09248 -2.07235 0
M  V30 9237 H 852.46 -6.26157 -2.62876 0
M  V30 9238 H 850.406 -4.8731 -4.39164 0
M  V30 9239 H 850.323 -6.51333 -3.83799 0
M  V30 9240 H 851.591 -6.03917 -4.92854 0
M  V30 9241 N 855.82 0.285905 -1.54985 0
M  V30 9242 C 856.767 1.35306 -1.86978 0
M  V30 9243 C 857.737 1.49682 -0.720046 0
M  V30 9244 O 858.922 1.64297 -0.970107 0
M  V30 9245 C 856.062 2.71059 -2.13591 0
M  V30 9246 C 855.175 2.6501 -3.41165 0
M  V30 9247 C 854.31 3.92856 -3.57544 0
M  V30 9248 C 853.349 3.81266 -4.78855 0
M  V30 9249 N 852.486 5.00919 -4.9196 0
M  V30 9250 H 857.326 1.07323 -2.78003 0
M  V30 9251 H 854.863 0.518776 -1.37649 0
M  V30 9252 H 856.821 3.50026 -2.27019 0
M  V30 9253 H 855.451 2.97271 -1.25816 0
M  V30 9254 H 854.503 1.77824 -3.36278 0
M  V30 9255 H 855.815 2.52342 -4.30262 0
M  V30 9256 H 854.969 4.80263 -3.70718 0
M  V30 9257 H 853.708 4.08377 -2.66608 0
M  V30 9258 H 852.713 2.92243 -4.65698 0
M  V30 9259 H 853.938 3.67277 -5.71213 0
M  V30 9260 H 851.884 5.16875 -4.03951 0
M  V30 9261 H 851.801 4.90732 -5.75081 0
M  V30 9262 H 853.069 5.89935 -5.09507 0
M  V30 9263 N 857.298 1.47698 0.54982 0
M  V30 9264 C 858.714 1.3338 0.876468 0
M  V30 9265 C 858.914 0.329837 1.98782 0
M  V30 9266 O 857.97 -0.256022 2.51199 0
M  V30 9267 C 859.283 2.72903 1.26272 0
M  V30 9268 C 860.831 2.81243 1.37373 0
M  V30 9269 C 861.306 4.21423 1.79351 0
M  V30 9270 N 862.797 4.24 1.86489 0
M  V30 9271 C 863.532 5.29386 2.20313 0
M  V30 9272 N 863.028 6.4507 2.527 0
M  V30 9273 N 864.821 5.16768 2.2115 0
M  V30 9274 H 856.972 2.11603 -0.183781 0
M  V30 9275 H 859.235 0.947798 -0.0195601 0
M  V30 9276 H 858.941 3.47836 0.519889 0
M  V30 9277 H 858.815 3.05151 2.21727 0
M  V30 9278 H 861.202 2.06577 2.10737 0
M  V30 9279 H 861.283 2.52639 0.400882 0
M  V30 9280 H 860.927 4.96597 1.06555 0
M  V30 9281 H 860.857 4.47456 2.77652 0
M  V30 9282 H 863.348 3.40547 1.63817 0
M  V30 9283 H 863.661 7.21236 2.77557 0
M  V30 9284 H 862.006 6.48377 2.50263 0
M  V30 9285 H 865.197 4.25416 1.95293 0
M  V30 9286 H 865.37 5.99004 2.4718 0
M  V30 9287 N 858.776 -0.797141 1.35954 0
M  V30 9288 C 860.022 -1.55636 1.30954 0
M  V30 9289 C 860.377 -1.92071 -0.112515 0
M  V30 9290 O 859.67 -1.5926 -1.06521 0
M  V30 9291 C 859.864 -2.84847 2.15863 0
M  V30 9292 C 859.693 -2.61039 3.66182 0
M  V30 9293 C 858.463 -2.56452 4.35385 0
M  V30 9294 C 860.661 -2.30766 4.59621 0
M  V30 9295 N 858.643 -2.2446 5.71394 0
M  V30 9296 C 860.014 -2.08695 5.8382 0
M  V30 9297 C 862.069 -2.16708 4.48266 0
M  V30 9298 C 860.772 -1.73989 6.9794 0
M  V30 9299 C 862.798 -1.83399 5.62244 0
M  V30 9300 C 862.16 -1.62171 6.85478 0
M  V30 9301 H 858.259 -0.570853 0.534463 0
M  V30 9302 H 860.843 -0.932261 1.7093 0
M  V30 9303 H 859.014 -3.45137 1.78144 0
M  V30 9304 H 860.746 -3.50503 2.02311 0
M  V30 9305 H 857.501 -2.7143 3.88101 0
M  V30 9306 H 857.925 -2.11232 6.43203 0
M  V30 9307 H 862.567 -2.31814 3.53585 0
M  V30 9308 H 860.285 -1.57621 7.92579 0
M  V30 9309 H 863.871 -1.73217 5.55416 0
M  V30 9310 H 862.751 -1.36774 7.7218 0
M  V30 9311 N 860.254 -1.20106 -1.0204 0
M  V30 9312 C 861.484 -1.0329 -1.78927 0
M  V30 9313 C 861.892 0.421115 -1.84454 0
M  V30 9314 O 861.235 1.30422 -1.29367 0
M  V30 9315 C 861.297 -1.53627 -3.25021 0
M  V30 9316 C 860.961 -3.01869 -3.4311 0
M  V30 9317 C 861.958 -3.9956 -3.32638 0
M  V30 9318 C 859.643 -3.40746 -3.6905 0
M  V30 9319 C 861.637 -5.34119 -3.47844 0
M  V30 9320 C 859.324 -4.75462 -3.839 0
M  V30 9321 C 860.322 -5.71957 -3.73302 0
M  V30 9322 O 860.01 -7.04231 -3.87703 0
M  V30 9323 H 859.742 -0.363962 -0.569656 0
M  V30 9324 H 862.296 -1.59551 -1.29354 0
M  V30 9325 H 860.526 -0.917481 -3.75658 0
M  V30 9326 H 862.215 -1.32889 -3.8353 0
M  V30 9327 H 862.981 -3.70869 -3.12539 0
M  V30 9328 H 858.86 -2.66182 -3.76388 0
M  V30 9329 H 862.404 -6.09421 -3.39488 0
M  V30 9330 H 858.301 -5.03844 -4.03499 0
M  V30 9331 H 859.069 -7.11425 -4.04744 0
M  V30 9332 N 861.732 1.21287 -1.00634 0
M  V30 9333 C 862.68 2.25733 -0.561026 0
M  V30 9334 C 863.674 1.64728 0.395095 0
M  V30 9335 O 864.88 1.78022 0.266141 0
M  V30 9336 H 861.255 0.734104 -0.163081 0
M  V30 9337 H 863.226 2.60631 -1.45307 0
M  V30 9338 C 861.975 3.47569 0.0952587 0
M  V30 9339 H 861.298 3.94782 -0.631427 0
M  V30 9340 H 862.738 4.22382 0.370105 0
M  V30 9341 C 861.197 3.09326 1.33488 0
M  V30 9342 O 861.727 3.19933 2.42912 0
M  V30 9343 N 859.933 2.63976 1.21512 0
M  V30 9344 H 859.48 2.55545 0.324741 0
M  V30 9345 H 859.438 2.38757 2.04555 0
M  V30 9346 N 863.21 0.781244 1.36873 0
M  V30 9347 C 864.157 0.172146 2.30157 0
M  V30 9348 C 865.127 -0.679328 1.51573 0
M  V30 9349 O 866.312 -0.629713 1.80109 0
M  V30 9350 C 863.452 -0.693534 3.38059 0
M  V30 9351 C 862.565 0.175586 4.31643 0
M  V30 9352 C 861.7 -0.695695 5.26625 0
M  V30 9353 C 860.739 0.17538 6.11849 0
M  V30 9354 N 859.876 -0.654416 6.99043 0
M  V30 9355 H 864.716 0.973133 2.81663 0
M  V30 9356 H 862.253 0.491469 1.38647 0
M  V30 9357 H 864.211 -1.21035 3.99257 0
M  V30 9358 H 862.841 -1.46003 2.87894 0
M  V30 9359 H 861.893 0.810295 3.7167 0
M  V30 9360 H 863.205 0.847107 4.91554 0
M  V30 9361 H 862.359 -1.27863 5.93073 0
M  V30 9362 H 861.098 -1.40087 4.67148 0
M  V30 9363 H 860.103 0.77078 5.4437 0
M  V30 9364 H 861.328 0.87803 6.734 0
M  V30 9365 H 859.274 -1.34403 6.42084 0
M  V30 9366 H 859.191 -0.0403998 7.55989 0
M  V30 9367 H 860.459 -1.22144 7.69871 0
M  V30 9368 N 864.689 -1.48329 0.532571 0
M  V30 9369 C 865.919 -2.066 0.00353785 0
M  V30 9370 C 866.327 -1.38913 -1.28451 0
M  V30 9371 O 865.67 -0.471385 -1.77549 0
M  V30 9372 C 865.732 -3.58342 -0.288324 0
M  V30 9373 C 865.396 -4.47917 0.906631 0
M  V30 9374 C 866.393 -4.87534 1.80572 0
M  V30 9375 C 864.078 -4.89783 1.11436 0
M  V30 9376 C 866.072 -5.6779 2.89642 0
M  V30 9377 C 863.759 -5.69809 2.20819 0
M  V30 9378 C 864.757 -6.08721 3.09755 0
M  V30 9379 O 864.445 -6.8714 4.17246 0
M  V30 9380 H 864.177 -0.675263 0.0315661 0
M  V30 9381 H 866.731 -1.91669 0.738375 0
M  V30 9382 H 864.961 -3.71395 -1.07717 0
M  V30 9383 H 866.65 -3.98726 -0.759752 0
M  V30 9384 H 867.416 -4.5581 1.65719 0
M  V30 9385 H 863.295 -4.58977 0.431382 0
M  V30 9386 H 866.839 -5.98082 3.59087 0
M  V30 9387 H 862.736 -6.00947 2.35655 0
M  V30 9388 H 863.504 -7.05498 4.14988 0
M  V30 9389 N 866.167 -0.267825 -1.55308 0
M  V30 9390 C 867.415 0.350343 -1.9904 0
M  V30 9391 C 867.736 1.56924 -1.15758 0
M  V30 9392 O 867.006 1.94358 -0.245336 0
M  V30 9393 H 865.586 0.132435 -0.735167 0
M  V30 9394 H 868.248 -0.371471 -1.91327 0
M  V30 9395 H 867.344 0.645203 -3.05358 0
M  V30 9396 N 867.645 1.57599 0.00500368 0
M  V30 9397 C 868.875 1.94344 0.700998 0
M  V30 9398 C 869.283 0.868011 1.68114 0
M  V30 9399 O 868.626 -0.16214 1.82983 0
M  V30 9400 C 868.688 3.27046 1.49268 0
M  V30 9401 C 868.352 4.51992 0.674684 0
M  V30 9402 C 869.349 5.19888 -0.0354833 0
M  V30 9403 C 867.034 4.98432 0.622129 0
M  V30 9404 C 869.028 6.3252 -0.787246 0
M  V30 9405 C 866.715 6.10954 -0.133362 0
M  V30 9406 C 867.713 6.77855 -0.836788 0
M  V30 9407 O 867.401 7.88221 -1.57996 0
M  V30 9408 H 867.133 0.645572 0.20053 0
M  V30 9409 H 869.687 2.0536 -0.040718 0
M  V30 9410 H 867.917 3.12424 2.27877 0
M  V30 9411 H 869.606 3.4894 2.07355 0
M  V30 9412 H 870.372 4.85 -0.00400159 0
M  V30 9413 H 866.251 4.46189 1.15917 0
M  V30 9414 H 869.795 6.84671 -1.33683 0
M  V30 9415 H 865.692 6.45285 -0.166682 0
M  V30 9416 H 866.46 8.0471 -1.49615 0
M  V30 9417 N 869.123 -0.277682 1.55134 0
M  V30 9418 C 870.4 -1.0309 1.66228 0
M  V30 9419 C 870.78 -2.0445 0.525701 0
M  V30 9420 O 870.128 -2.23512 -0.474816 0
M  V30 9421 C 870.338 -1.6919 3.05247 0
M  V30 9422 C 871.686 -2.20526 3.62841 0
M  V30 9423 O 872.71 -1.79185 3.07849 0
M  V30 9424 O 871.569 -2.96342 4.59177 0
M  V30 9425 H 868.663 -0.4779 0.674937 0
M  V30 9426 H 871.209 -0.273912 1.67475 0
M  V30 9427 H 869.981 -0.957163 3.79413 0
M  V30 9428 H 869.604 -2.51587 3.07879 0
M  V30 9429 N 870.601 -1.47988 -0.541979 0
M  V30 9430 C 871.849 -1.55086 -1.29587 0
M  V30 9431 C 872.17 -0.221304 -1.9374 0
M  V30 9432 O 871.44 0.756128 -1.80719 0
M  V30 9433 H 870.02 -0.571307 -0.481266 0
M  V30 9434 H 872.682 -1.8438 -0.631675 0
M  V30 9435 H 871.778 -2.32556 -2.08144 0
M  V30 9436 N 872.079 0.78992 -1.36375 0
M  V30 9437 C 873.328 1.54296 -1.29906 0
M  V30 9438 C 873.641 1.95234 0.119651 0
M  V30 9439 O 874.847 2.69762 0.306708 0
M  V30 9440 C 873.303 2.78533 -2.27919 0
M  V30 9441 C 872.911 2.44767 -3.75224 0
M  V30 9442 C 874.655 3.56516 -2.30427 0
M  V30 9443 C 872.562 3.65397 -4.65015 0
M  V30 9444 H 871.492 0.579214 -0.482729 0
M  V30 9445 H 874.143 0.866845 -1.61735 0
M  V30 9446 H 872.525 3.47941 -1.89084 0
M  V30 9447 H 873.699 1.83259 -4.22792 0
M  V30 9448 H 872.014 1.79996 -3.75487 0
M  V30 9449 H 874.611 4.46143 -2.94722 0
M  V30 9450 H 874.954 3.95063 -1.31266 0
M  V30 9451 H 875.487 2.94087 -2.67876 0
M  V30 9452 H 872.226 3.31946 -5.65236 0
M  V30 9453 H 871.746 4.26072 -4.22164 0
M  V30 9454 H 873.425 4.32431 -4.81261 0
M  V30 9455 N 873.557 1.20646 1.01402 0
M  V30 9456 C 874.504 0.957618 2.09996 0
M  V30 9457 C 875.474 -0.113115 1.65714 0
M  V30 9458 O 876.659 0.032142 1.90773 0
M  V30 9459 C 873.799 0.5186 3.41181 0
M  V30 9460 C 872.912 1.65777 3.98926 0
M  V30 9461 C 872.047 1.16881 5.18182 0
M  V30 9462 C 871.086 2.2809 5.68015 0
M  V30 9463 N 870.223 1.80392 6.7853 0
M  V30 9464 H 875.063 1.88732 2.30617 0
M  V30 9465 H 872.6 0.940703 1.13089 0
M  V30 9466 H 874.558 0.245367 4.16478 0
M  V30 9467 H 873.188 -0.3741 3.20625 0
M  V30 9468 H 872.24 2.04586 3.207 0
M  V30 9469 H 873.552 2.49507 4.31912 0
M  V30 9470 H 872.706 0.851694 6.00692 0
M  V30 9471 H 871.445 0.301434 4.86768 0
M  V30 9472 H 870.45 2.60614 4.84108 0
M  V30 9473 H 871.675 3.15308 6.01463 0
M  V30 9474 H 869.621 0.959856 6.4894 0
M  V30 9475 H 869.538 2.57701 7.10722 0
M  V30 9476 H 870.806 1.51688 7.64598 0
M  V30 9477 N 875.035 -1.20752 1.01276 0
M  V30 9478 C 875.967 -2.22798 0.537917 0
M  V30 9479 C 876.98 -1.5836 -0.377638 0
M  V30 9480 O 878.169 -1.77624 -0.176599 0
M  V30 9481 C 875.269 -3.38068 -0.237364 0
M  V30 9482 C 874.442 -4.32095 0.679161 0
M  V30 9483 C 873.501 -5.26178 -0.0478676 0
M  V30 9484 O 872.527 -5.66305 0.573366 0
M  V30 9485 N 873.729 -5.65201 -1.32396 0
M  V30 9486 H 876.494 -2.64166 1.4155 0
M  V30 9487 H 874.055 -1.35254 0.889826 0
M  V30 9488 H 876.047 -3.98009 -0.73288 0
M  V30 9489 H 874.617 -2.95622 -1.0162 0
M  V30 9490 H 873.837 -3.70179 1.35505 0
M  V30 9491 H 875.125 -4.91842 1.30263 0
M  V30 9492 H 874.523 -5.34606 -1.84968 0
M  V30 9493 H 873.08 -6.27468 -1.76428 0
M  V30 9494 N 876.513 -0.788492 -1.36457 0
M  V30 9495 C 877.759 -0.360995 -1.99561 0
M  V30 9496 C 878.092 1.06433 -1.62437 0
M  V30 9497 O 877.367 1.7352 -0.878705 0
M  V30 9498 C 877.65 -0.523735 -3.56271 0
M  V30 9499 C 877.503 -1.99268 -4.03252 0
M  V30 9500 C 878.822 0.0617908 -4.40057 0
M  V30 9501 H 875.941 -0.13264 -0.724966 0
M  V30 9502 H 878.583 -0.994659 -1.61884 0
M  V30 9503 H 876.733 0.0156979 -3.88497 0
M  V30 9504 H 878.405 -2.59311 -3.81518 0
M  V30 9505 H 876.648 -2.49561 -3.54826 0
M  V30 9506 H 877.319 -2.05752 -5.12221 0
M  V30 9507 H 879.795 -0.398674 -4.14186 0
M  V30 9508 H 878.671 -0.0821089 -5.48839 0
M  V30 9509 H 878.932 1.15381 -4.26778 0
M  V30 9510 N 877.991 1.48044 -0.54043 0
M  V30 9511 C 878.939 2.31461 0.229862 0
M  V30 9512 C 879.933 1.41884 0.925495 0
M  V30 9513 O 881.139 1.58736 0.848689 0
M  V30 9514 H 877.514 0.746227 0.0929975 0
M  V30 9515 H 879.485 2.94297 -0.493118 0
M  V30 9516 C 878.234 3.24172 1.25729 0
M  V30 9517 H 877.557 3.93052 0.731426 0
M  V30 9518 H 878.997 3.85404 1.76747 0
M  V30 9519 C 877.456 2.4651 2.2964 0
M  V30 9520 O 877.986 2.19742 3.36268 0
M  V30 9521 N 876.192 2.07817 2.03127 0
M  V30 9522 H 875.739 2.29786 1.1643 0
M  V30 9523 H 875.697 1.56168 2.72872 0
M  V30 9524 N 879.47 0.276058 1.55163 0
M  V30 9525 C 880.717 -0.340455 1.99618 0
M  V30 9526 C 881.045 -1.5579 1.16446 0
M  V30 9527 O 880.3 -1.94433 0.222359 0
M  V30 9528 C 880.599 -0.765744 3.491 0
M  V30 9529 C 880.265 0.347174 4.49561 0
M  V30 9530 C 878.927 0.65276 4.76752 0
M  V30 9531 C 881.279 1.09705 5.09523 0
M  V30 9532 C 878.607 1.71179 5.61173 0
M  V30 9533 C 880.959 2.14581 5.95095 0
M  V30 9534 C 879.623 2.45773 6.20606 0
M  V30 9535 H 878.893 -0.124581 0.730452 0
M  V30 9536 H 881.54 0.389966 1.87487 0
M  V30 9537 H 879.845 -1.57585 3.58712 0
M  V30 9538 H 881.542 -1.25352 3.80904 0
M  V30 9539 H 878.132 0.0988779 4.28486 0
M  V30 9540 H 882.316 0.874223 4.8854 0
M  V30 9541 H 877.572 1.95846 5.79184 0
M  V30 9542 H 881.746 2.7316 6.40591 0
M  V30 9543 H 879.373 3.27969 6.85813 0
M  V30 9544 N 880.948 -1.576 0.00335426 0
M  V30 9545 C 881.881 -2.04085 -1.021 0
M  V30 9546 C 882.859 -0.931382 -1.33282 0
M  V30 9547 O 884.043 -1.19976 -1.45389 0
M  V30 9548 C 881.17 -2.44128 -2.34775 0
M  V30 9549 C 880.216 -3.65841 -2.19232 0
M  V30 9550 S 881.049 -5.13616 -1.51521 0
M  V30 9551 C 882.205 -5.56931 -2.8562 0
M  V30 9552 H 882.438 -2.90652 -0.625192 0
M  V30 9553 H 879.971 -1.52998 -0.207611 0
M  V30 9554 H 881.929 -2.67866 -3.1106 0
M  V30 9555 H 880.59 -1.57954 -2.71495 0
M  V30 9556 H 879.783 -3.9162 -3.17253 0
M  V30 9557 H 879.385 -3.42122 -1.51091 0
M  V30 9558 H 881.677 -5.59596 -3.81914 0
M  V30 9559 H 882.62 -6.5683 -2.64536 0
M  V30 9560 H 883.028 -4.84504 -2.89683 0
M  V30 9561 N 882.426 0.269451 -1.5528 0
M  V30 9562 C 883.374 1.35303 -1.89198 0
M  V30 9563 C 884.368 1.50956 -0.768671 0
M  V30 9564 O 885.574 1.52699 -0.953054 0
M  V30 9565 H 881.949 0.452591 -0.600554 0
M  V30 9566 H 883.92 1.03949 -2.79709 0
M  V30 9567 C 882.669 2.70585 -2.18356 0
M  V30 9568 H 881.992 2.59332 -3.04281 0
M  V30 9569 H 883.432 3.45335 -2.46007 0
M  V30 9570 C 881.891 3.21954 -0.992327 0
M  V30 9571 O 882.421 4.01048 -0.228769 0
M  V30 9572 N 880.627 2.79682 -0.789062 0
M  V30 9573 H 880.174 2.15475 -1.41167 0
M  V30 9574 H 880.132 3.14399 0.00634776 0
M  V30 9575 N 883.904 1.48273 0.534124 0
M  V30 9576 C 885.315 1.49667 1.1161 0
M  V30 9577 C 885.666 0.264139 1.94414 0
M  V30 9578 O 884.791 -0.629084 2.07054 0
M  V30 9579 C 885.386 2.71191 2.03079 0
M  V30 9580 C 883.945 2.7547 2.56502 0
M  V30 9581 C 883.092 2.43119 1.33373 0
M  V30 9582 H 886.043 1.55449 0.319578 0
M  V30 9583 H 886.064 2.49473 2.87304 0
M  V30 9584 H 885.576 3.60879 1.42785 0
M  V30 9585 H 883.677 1.89979 3.20529 0
M  V30 9586 H 883.79 3.76787 2.95919 0
M  V30 9587 H 882.154 1.94187 1.64813 0
M  V30 9588 H 882.937 3.35044 0.748375 0
M  V30 9589 N 885.382 -0.782676 1.36792 0
M  V30 9590 C 886.607 -1.57676 1.34733 0
M  V30 9591 C 887.032 -1.87979 -0.0675253 0
M  V30 9592 O 886.39 -1.48404 -1.04144 0
M  V30 9593 C 886.438 -2.87047 2.18257 0
M  V30 9594 O 885.542 -3.80946 1.57969 0
M  V30 9595 H 884.883 -0.478034 0.460846 0
M  V30 9596 H 887.413 -0.969578 1.80168 0
M  V30 9597 H 887.423 -3.36254 2.31079 0
M  V30 9598 H 886.098 -2.64319 3.21104 0
M  V30 9599 H 884.675 -3.39558 1.54126 0
M  V30 9600 N 886.86 -1.21182 -1.00761 0
M  V30 9601 C 888.109 -1.02166 -1.73911 0
M  V30 9602 C 888.422 0.445638 -1.90456 0
M  V30 9603 O 889.628 0.755132 -2.60787 0
M  V30 9604 C 888.084 -1.77936 -3.12837 0
M  V30 9605 C 887.692 -3.28819 -3.04273 0
M  V30 9606 C 889.436 -1.67319 -3.90134 0
M  V30 9607 C 887.343 -3.97089 -4.38262 0
M  V30 9608 H 886.273 -0.378665 -0.652019 0
M  V30 9609 H 888.924 -1.44891 -1.12601 0
M  V30 9610 H 887.306 -1.28003 -3.74742 0
M  V30 9611 H 888.48 -3.86035 -2.51622 0
M  V30 9612 H 886.795 -3.39949 -2.40465 0
M  V30 9613 H 889.392 -2.15659 -4.8928 0
M  V30 9614 H 889.735 -0.630959 -4.11491 0
M  V30 9615 H 890.268 -2.14716 -3.34876 0
M  V30 9616 H 887.007 -5.01503 -4.22107 0
M  V30 9617 H 886.527 -3.44662 -4.90885 0
M  V30 9618 H 888.206 -4.01854 -5.07072 0
M  V30 9619 N 888.338 1.20213 -1.01915 0
M  V30 9620 C 889.585 1.89647 -0.709955 0
M  V30 9621 C 889.913 1.7901 0.760631 0
M  V30 9622 O 889.168 1.17028 1.56853 0
M  V30 9623 C 889.467 3.40232 -1.09438 0
M  V30 9624 C 889.133 3.7107 -2.5616 0
M  V30 9625 C 887.795 3.79196 -2.96249 0
M  V30 9626 C 890.147 3.85169 -3.51133 0
M  V30 9627 C 887.475 3.98882 -4.30244 0
M  V30 9628 C 889.827 4.06365 -4.8482 0
M  V30 9629 C 888.491 4.12722 -5.24611 0
M  V30 9630 H 887.761 0.693967 -0.259791 0
M  V30 9631 H 890.408 1.42419 -1.2802 0
M  V30 9632 H 888.713 3.89292 -0.442596 0
M  V30 9633 H 890.41 3.92257 -0.832811 0
M  V30 9634 H 887 3.65346 -2.24099 0
M  V30 9635 H 891.184 3.78243 -3.21319 0
M  V30 9636 H 886.44 4.02039 -4.60624 0
M  V30 9637 H 890.614 4.16216 -5.58334 0
M  V30 9638 H 888.241 4.27728 -6.28453 0
M  V30 9639 N 889.816 0.795718 1.36037 0
M  V30 9640 C 891.046 0.382597 2.03026 0
M  V30 9641 C 891.454 -1.00779 1.60126 0
M  V30 9642 O 890.797 -1.65884 0.78919 0
M  V30 9643 C 890.859 0.374145 3.57548 0
M  V30 9644 C 890.523 1.71318 4.23673 0
M  V30 9645 C 891.52 2.6697 4.4612 0
M  V30 9646 C 889.205 1.99421 4.61017 0
M  V30 9647 C 891.199 3.88916 5.04998 0
M  V30 9648 C 888.886 3.21632 5.19611 0
M  V30 9649 C 889.884 4.16198 5.41542 0
M  V30 9650 O 889.572 5.36254 5.98905 0
M  V30 9651 H 889.304 0.154944 0.658003 0
M  V30 9652 H 891.858 1.07756 1.74865 0
M  V30 9653 H 890.088 -0.377349 3.84854 0
M  V30 9654 H 891.777 -0.01517 4.05897 0
M  V30 9655 H 892.543 2.46548 4.17659 0
M  V30 9656 H 888.422 1.2663 4.43267 0
M  V30 9657 H 891.966 4.6274 5.22032 0
M  V30 9658 H 887.863 3.4193 5.47498 0
M  V30 9659 H 888.631 5.37403 6.17366 0
M  V30 9660 N 891.294 -1.47756 0.548274 0
M  V30 9661 C 892.224 -2.32702 -0.19284 0
M  V30 9662 C 893.205 -1.43237 -0.917457 0
M  V30 9663 O 894.39 -1.72103 -0.89967 0
M  V30 9664 C 891.52 -3.24831 -1.22891 0
M  V30 9665 C 890.474 -4.23466 -0.621312 0
M  V30 9666 C 889.8 -5.04856 -1.76137 0
M  V30 9667 C 891.1 -5.20616 0.419055 0
M  V30 9668 H 892.794 -2.94914 0.516323 0
M  V30 9669 H 890.34 -1.41818 0.24975 0
M  V30 9670 H 892.293 -3.83094 -1.75547 0
M  V30 9671 H 891.017 -2.60656 -1.9679 0
M  V30 9672 H 889.676 -3.66416 -0.116123 0
M  V30 9673 H 889.324 -4.37091 -2.48918 0
M  V30 9674 H 889.024 -5.71629 -1.36065 0
M  V30 9675 H 890.548 -5.65976 -2.29136 0
M  V30 9676 H 891.962 -5.73296 -0.0211034 0
M  V30 9677 H 890.359 -5.95543 0.738163 0
M  V30 9678 H 891.429 -4.66638 1.31822 0
M  V30 9679 N 892.772 -0.284283 -1.55015 0
M  V30 9680 C 893.702 0.592663 -2.25853 0
M  V30 9681 C 894.683 1.15151 -1.25197 0
M  V30 9682 O 895.868 1.18395 -1.53936 0
M  V30 9683 C 892.998 1.77254 -2.98661 0
M  V30 9684 C 891.952 1.34482 -4.06323 0
M  V30 9685 C 891.278 2.60853 -4.66754 0
M  V30 9686 C 892.578 0.488288 -5.20013 0
M  V30 9687 H 894.272 0.00187041 -2.994 0
M  V30 9688 H 891.818 -0.000540402 -1.44 0
M  V30 9689 H 893.771 2.39199 -3.46932 0
M  V30 9690 H 892.495 2.38931 -2.22664 0
M  V30 9691 H 891.154 0.748519 -3.58877 0
M  V30 9692 H 890.802 3.20808 -3.87416 0
M  V30 9693 H 890.502 2.32942 -5.39455 0
M  V30 9694 H 892.026 3.23631 -5.1778 0
M  V30 9695 H 893.44 1.01298 -5.6428 0
M  V30 9696 H 891.837 0.303669 -5.99331 0
M  V30 9697 H 892.907 -0.490727 -4.8241 0
M  V30 9698 N 894.251 1.57596 -0.0117121 0
M  V30 9699 C 895.476 1.95764 0.684938 0
M  V30 9700 C 895.901 0.887285 1.65858 0
M  V30 9701 O 895.259 -0.153508 1.80649 0
M  V30 9702 C 895.307 3.33031 1.38285 0
M  V30 9703 O 894.411 3.28163 2.49765 0
M  V30 9704 H 893.752 0.638767 0.181309 0
M  V30 9705 H 896.282 2.04486 -0.0683883 0
M  V30 9706 H 896.292 3.68866 1.74362 0
M  V30 9707 H 894.967 4.10483 0.669043 0
M  V30 9708 H 893.544 3.04021 2.15929 0
M  V30 9709 N 895.729 -0.261212 1.5542 0
M  V30 9710 C 896.954 -1.01341 1.80955 0
M  V30 9711 C 897.379 -1.78711 0.586849 0
M  V30 9712 O 896.737 -1.75266 -0.463837 0
M  V30 9713 C 896.785 -1.93835 3.04073 0
M  V30 9714 O 895.889 -3.02791 2.79985 0
M  V30 9715 H 895.23 -0.289123 0.597749 0
M  V30 9716 H 897.76 -0.286543 2.02584 0
M  V30 9717 H 897.77 -2.3557 3.33123 0
M  V30 9718 H 896.445 -1.36936 3.9271 0
M  V30 9719 H 895.022 -2.65287 2.62063 0
M  V30 9720 N 897.207 -1.48554 -0.526253 0
M  V30 9721 C 898.137 -1.66252 -1.63959 0
M  V30 9722 C 899.118 -0.511351 -1.62232 0
M  V30 9723 O 900.303 -0.744322 -1.7937 0
M  V30 9724 C 897.433 -1.70556 -3.02536 0
M  V30 9725 C 896.387 -2.8521 -3.19123 0
M  V30 9726 C 895.713 -2.74606 -4.58798 0
M  V30 9727 C 897.013 -4.26463 -3.0154 0
M  V30 9728 H 898.707 -2.59459 -1.49404 0
M  V30 9729 H 896.253 -1.24862 -0.717326 0
M  V30 9730 H 898.206 -1.81524 -3.80298 0
M  V30 9731 H 896.93 -0.739297 -3.18123 0
M  V30 9732 H 895.589 -2.73802 -2.43779 0
M  V30 9733 H 895.237 -1.75941 -4.71226 0
M  V30 9734 H 894.937 -3.51544 -4.70841 0
M  V30 9735 H 896.461 -2.87548 -5.38655 0
M  V30 9736 H 897.875 -4.38685 -3.69091 0
M  V30 9737 H 896.272 -5.04428 -3.25073 0
M  V30 9738 H 897.342 -4.42667 -1.97925 0
M  V30 9739 N 898.685 0.775411 -1.37205 0
M  V30 9740 C 899.595 1.91967 -1.34855 0
M  V30 9741 C 900.611 1.72214 -0.248656 0
M  V30 9742 O 901.787 1.95512 -0.483421 0
M  V30 9743 C 898.852 3.27038 -1.15096 0
M  V30 9744 C 897.913 3.5947 -2.34691 0
M  V30 9745 C 897.146 4.88097 -2.15865 0
M  V30 9746 O 897.369 5.58871 -1.14102 0
M  V30 9747 O 896.303 5.19507 -3.03967 0
M  V30 9748 H 900.129 1.969 -2.31223 0
M  V30 9749 H 897.714 0.917647 -1.17897 0
M  V30 9750 H 899.596 4.07837 -1.0605 0
M  V30 9751 H 898.271 3.22965 -0.217999 0
M  V30 9752 H 897.178 2.7892 -2.49308 0
M  V30 9753 H 898.511 3.68282 -3.26541 0
M  V30 9754 N 900.163 1.21714 1.00117 0
M  V30 9755 C 901.11 0.979837 2.08968 0
M  V30 9756 C 902.08 -0.0955324 1.65825 0
M  V30 9757 O 903.265 0.0523742 1.90728 0
M  V30 9758 C 900.405 0.554758 3.40612 0
M  V30 9759 C 899.518 1.69999 3.97145 0
M  V30 9760 C 898.653 1.2237 5.16913 0
M  V30 9761 C 897.692 2.34101 5.65564 0
M  V30 9762 N 896.829 1.87579 6.76579 0
M  V30 9763 H 901.669 1.91167 2.28602 0
M  V30 9764 H 899.206 0.952645 1.12085 0
M  V30 9765 H 901.164 0.289526 4.16194 0
M  V30 9766 H 899.794 -0.340073 3.21004 0
M  V30 9767 H 898.846 2.07976 3.18512 0
M  V30 9768 H 900.158 2.54074 4.29241 0
M  V30 9769 H 899.312 0.915358 5.99755 0
M  V30 9770 H 898.051 0.353045 4.8642 0
M  V30 9771 H 897.056 2.65734 4.81316 0
M  V30 9772 H 898.281 3.21669 5.98085 0
M  V30 9773 H 896.227 1.02863 6.47885 0
M  V30 9774 H 896.144 2.65225 7.07949 0
M  V30 9775 H 897.412 1.5979 7.62947 0
M  V30 9776 N 901.641 -1.19671 1.02551 0
M  V30 9777 C 902.888 -1.89268 0.720002 0
M  V30 9778 C 903.216 -1.79411 -0.751127 0
M  V30 9779 O 902.471 -1.17859 -1.5623 0
M  V30 9780 C 902.77 -3.39647 1.11241 0
M  V30 9781 C 902.436 -3.69706 2.58125 0
M  V30 9782 C 901.098 -3.7762 2.98256 0
M  V30 9783 C 903.45 -3.83301 3.53171 0
M  V30 9784 C 900.778 -3.96594 4.32354 0
M  V30 9785 C 903.13 -4.03788 4.86968 0
M  V30 9786 C 901.794 -4.09934 5.26793 0
M  V30 9787 H 901.064 -0.692579 0.263467 0
M  V30 9788 H 903.711 -1.41738 1.28774 0
M  V30 9789 H 902.016 -3.89052 0.463234 0
M  V30 9790 H 903.713 -3.91809 0.853602 0
M  V30 9791 H 900.303 -3.64152 2.26033 0
M  V30 9792 H 904.487 -3.76534 3.2332 0
M  V30 9793 H 899.743 -3.9959 4.6275 0
M  V30 9794 H 903.917 -4.1325 5.60533 0
M  V30 9795 H 901.544 -4.24389 6.30712 0
M  V30 9796 N 903.119 -0.802921 -1.35613 0
M  V30 9797 C 904.066 -0.20874 -2.29854 0
M  V30 9798 C 905.036 0.655128 -1.52634 0
M  V30 9799 O 906.221 0.600979 -1.81088 0
M  V30 9800 C 903.361 0.639663 -3.3912 0
M  V30 9801 C 902.474 -0.244234 -4.31309 0
M  V30 9802 C 901.609 0.611825 -5.27665 0
M  V30 9803 C 900.648 -0.272698 -6.11492 0
M  V30 9804 N 899.785 0.543122 -6.99996 0
M  V30 9805 H 904.625 -1.01782 -2.80079 0
M  V30 9806 H 902.162 -0.513465 -1.37848 0
M  V30 9807 H 904.12 1.14668 -4.01132 0
M  V30 9808 H 902.75 1.41404 -2.9018 0
M  V30 9809 H 901.802 -0.869322 -3.70334 0
M  V30 9810 H 903.114 -0.925202 -4.90144 0
M  V30 9811 H 902.268 1.18412 -5.95032 0
M  V30 9812 H 901.007 1.32637 -4.69317 0
M  V30 9813 H 900.012 -0.857287 -5.43075 0
M  V30 9814 H 901.237 -0.985051 -6.71918 0
M  V30 9815 H 899.183 1.24171 -6.44141 0
M  V30 9816 H 899.1 -0.0798767 -7.55958 0
M  V30 9817 H 900.368 1.09881 -7.71717 0
M  V30 9818 N 904.597 1.47463 -0.556102 0
M  V30 9819 C 905.874 1.9557 0.0339892 0
M  V30 9820 C 906.254 1.49869 1.48669 0
M  V30 9821 O 905.602 0.737019 2.16288 0
M  V30 9822 C 905.812 3.48826 -0.110343 0
M  V30 9823 C 907.16 4.24585 0.0355716 0
M  V30 9824 O 908.184 3.5618 -0.0378356 0
M  V30 9825 O 907.043 5.46158 0.193299 0
M  V30 9826 H 904.137 0.824461 0.0647521 0
M  V30 9827 H 906.683 1.57868 -0.622547 0
M  V30 9828 H 905.455 3.74891 -1.12126 0
M  V30 9829 H 905.078 3.9329 0.583855 0
M  V30 9830 N 906.075 0.2925 1.54862 0
M  V30 9831 C 907.322 -0.319263 1.99967 0
M  V30 9832 C 907.65 -1.54547 1.18092 0
M  V30 9833 O 906.905 -1.94186 0.242969 0
M  V30 9834 C 907.204 -0.728674 3.49893 0
M  V30 9835 C 906.87 0.394836 4.49168 0
M  V30 9836 C 905.532 0.703289 4.76033 0
M  V30 9837 C 907.884 1.15103 5.08331 0
M  V30 9838 C 905.212 1.77121 5.59325 0
M  V30 9839 C 907.564 2.20881 5.92785 0
M  V30 9840 C 906.228 2.52342 6.17964 0
M  V30 9841 H 905.498 -0.116827 0.731733 0
M  V30 9842 H 908.145 0.40983 1.87063 0
M  V30 9843 H 906.45 -1.53772 3.60363 0
M  V30 9844 H 908.147 -1.21305 3.82212 0
M  V30 9845 H 904.737 0.144319 4.28357 0
M  V30 9846 H 908.921 0.92599 4.87585 0
M  V30 9847 H 904.177 2.01978 5.77074 0
M  V30 9848 H 908.351 2.79939 6.37657 0
M  V30 9849 H 905.978 3.35225 6.82296 0
M  V30 9850 N 907.553 -1.57587 0.0200696 0
M  V30 9851 C 908.781 -1.95718 -0.670964 0
M  V30 9852 C 909.196 -0.896081 -1.6618 0
M  V30 9853 O 908.553 0.123037 -1.82085 0
M  V30 9854 C 908.604 -3.33904 -1.38529 0
M  V30 9855 O 908.325 -4.35943 -0.434167 0
M  V30 9856 C 909.826 -3.86614 -2.16898 0
M  V30 9857 H 907.046 -0.644819 -0.185606 0
M  V30 9858 H 909.59 -2.04354 0.0771495 0
M  V30 9859 H 907.745 -3.26515 -2.08487 0
M  V30 9860 H 908.159 -5.16001 -0.940378 0
M  V30 9861 H 909.633 -4.85673 -2.62346 0
M  V30 9862 H 910.11 -3.20379 -3.00423 0
M  V30 9863 H 910.716 -3.97243 -1.51916 0
M  V30 9864 N 909.032 0.252966 -1.55557 0
M  V30 9865 C 910.28 0.979912 -1.76754 0
M  V30 9866 C 910.601 1.86083 -0.582944 0
M  V30 9867 O 909.871 1.91742 0.401497 0
M  V30 9868 H 908.451 0.364805 -0.651864 0
M  V30 9869 H 911.113 0.272372 -1.92987 0
M  V30 9870 H 910.209 1.60518 -2.67657 0
M  V30 9871 N 910.51 1.48831 0.518367 0
M  V30 9872 C 911.738 1.6112 1.298 0
M  V30 9873 C 912.153 0.275872 1.86774 0
M  V30 9874 O 911.51 -0.736416 1.66983 0
M  V30 9875 C 911.561 2.66675 2.44063 0
M  V30 9876 O 911.282 3.95027 1.89434 0
M  V30 9877 C 912.783 2.8951 3.35706 0
M  V30 9878 H 910.003 0.542916 0.394314 0
M  V30 9879 H 912.547 1.94743 0.624142 0
M  V30 9880 H 910.702 2.35879 3.07311 0
M  V30 9881 H 911.116 4.53031 2.64316 0
M  V30 9882 H 912.59 3.67142 4.12202 0
M  V30 9883 H 913.067 1.98768 3.91648 0
M  V30 9884 H 913.673 3.21656 2.7824 0
M  V30 9885 N 911.988 -0.768124 1.37614 0
M  V30 9886 C 913.399 -1.34462 1.29525 0
M  V30 9887 C 913.75 -1.96121 -0.0555168 0
M  V30 9888 O 912.875 -1.94069 -0.957406 0
M  V30 9889 C 913.47 -2.44475 2.34558 0
M  V30 9890 C 912.029 -2.97883 2.30093 0
M  V30 9891 C 911.176 -1.71131 2.18196 0
M  V30 9892 H 914.127 -0.568103 1.48183 0
M  V30 9893 H 914.148 -3.24047 1.99434 0
M  V30 9894 H 913.66 -1.99568 3.32858 0
M  V30 9895 H 911.761 -3.47156 1.35328 0
M  V30 9896 H 911.874 -3.53251 3.23652 0
M  V30 9897 H 910.238 -1.94197 1.64802 0
M  V30 9898 H 911.021 -1.28323 3.18415 0
M  V30 9899 N 913.466 -1.22244 -0.994698 0
M  V30 9900 C 914.398 -0.948706 -2.08644 0
M  V30 9901 C 915.411 0.0720049 -1.62641 0
M  V30 9902 O 916.6 -0.161778 -1.77765 0
M  V30 9903 C 913.7 -0.404885 -3.36473 0
M  V30 9904 C 912.873 -1.48239 -4.11514 0
M  V30 9905 C 911.932 -0.94597 -5.17627 0
M  V30 9906 O 910.958 -1.63177 -5.45309 0
M  V30 9907 N 912.16 0.23355 -5.8003 0
M  V30 9908 H 914.925 -1.88858 -2.32707 0
M  V30 9909 H 912.486 -1.12908 -1.16032 0
M  V30 9910 H 914.478 -0.0313903 -4.04688 0
M  V30 9911 H 913.048 0.440061 -3.09487 0
M  V30 9912 H 912.268 -2.02928 -3.37955 0
M  V30 9913 H 913.556 -2.20741 -4.58422 0
M  V30 9914 H 912.954 0.80756 -5.59906 0
M  V30 9915 H 911.511 0.54845 -6.49488 0
M  V30 9916 N 914.944 1.19125 -1.03184 0
M  V30 9917 C 916.193 1.8821 -0.725264 0
M  V30 9918 C 916.506 1.80674 0.749411 0
M  V30 9919 O 917.712 2.45037 1.16915 0
M  V30 9920 C 916.168 3.37607 -1.24697 0
M  V30 9921 C 915.776 3.53693 -2.74964 0
M  V30 9922 C 917.52 4.12149 -1.01652 0
M  V30 9923 C 915.427 4.97001 -3.20538 0
M  V30 9924 H 914.357 0.704916 -0.267599 0
M  V30 9925 H 917.008 1.34663 -1.24652 0
M  V30 9926 H 915.39 3.90569 -0.653614 0
M  V30 9927 H 916.564 3.11046 -3.39981 0
M  V30 9928 H 914.879 2.92544 -2.96322 0
M  V30 9929 H 917.476 5.17837 -1.33226 0
M  V30 9930 H 917.819 4.16274 0.0465712 0
M  V30 9931 H 918.352 3.65334 -1.57403 0
M  V30 9932 H 915.091 4.9804 -4.26189 0
M  V30 9933 H 914.611 5.40398 -2.60251 0
M  V30 9934 H 916.29 5.65669 -3.14049 0
M  V30 9935 N 916.422 0.810101 1.35185 0
M  V30 9936 C 917.668 0.392698 1.98962 0
M  V30 9937 C 918.001 -1.03835 1.64109 0
M  V30 9938 O 917.276 -1.721 0.9062 0
M  V30 9939 C 917.559 0.580349 3.55393 0
M  V30 9940 C 917.412 2.05658 4.00031 0
M  V30 9941 C 918.731 0.00822618 4.40099 0
M  V30 9942 H 915.85 0.144157 0.722764 0
M  V30 9943 H 918.492 1.02029 1.60281 0
M  V30 9944 H 916.642 0.0461106 3.88473 0
M  V30 9945 H 918.314 2.65348 3.77344 0
M  V30 9946 H 916.557 2.55174 3.50811 0
M  V30 9947 H 917.228 2.13875 5.08883 0
M  V30 9948 H 919.704 0.464517 4.13499 0
M  V30 9949 H 918.58 0.169414 5.48638 0
M  V30 9950 H 918.841 -1.08576 4.2856 0
M  V30 9951 N 917.9 -1.47166 0.563914 0
M  V30 9952 C 919.128 -2.06846 0.0474287 0
M  V30 9953 C 919.543 -1.41557 -1.24928 0
M  V30 9954 O 918.9 -0.514376 -1.75101 0
M  V30 9955 C 918.951 -3.6121 -0.144831 0
M  V30 9956 O 918.672 -4.24052 1.10053 0
M  V30 9957 C 920.173 -4.37773 -0.69783 0
M  V30 9958 H 917.393 -0.669217 0.0488896 0
M  V30 9959 H 919.937 -1.89072 0.779235 0
M  V30 9960 H 918.092 -3.78474 -0.82679 0
M  V30 9961 H 918.506 -5.16677 0.902481 0
M  V30 9962 H 919.98 -5.46438 -0.781616 0
M  V30 9963 H 920.457 -4.04517 -1.71063 0
M  V30 9964 H 921.063 -4.25269 -0.0513516 0
M  V30 9965 N 919.378 -0.300708 -1.54705 0
M  V30 9966 C 920.308 0.568675 -2.26469 0
M  V30 9967 C 921.289 1.13817 -1.26411 0
M  V30 9968 O 922.474 1.16756 -1.55183 0
M  V30 9969 C 919.604 1.74077 -3.00524 0
M  V30 9970 C 918.558 1.30165 -4.07727 0
M  V30 9971 C 917.884 2.55888 -4.69495 0
M  V30 9972 C 919.184 0.433106 -5.20501 0
M  V30 9973 H 920.878 -0.0298851 -2.99385 0
M  V30 9974 H 918.424 -0.0158135 -1.43991 0
M  V30 9975 H 920.377 2.35506 -3.49449 0
M  V30 9976 H 919.101 2.36556 -2.25186 0
M  V30 9977 H 917.76 0.710414 -3.59651 0
M  V30 9978 H 917.408 3.16681 -3.90797 0
M  V30 9979 H 917.108 2.27207 -5.41895 0
M  V30 9980 H 918.632 3.18121 -5.21183 0
M  V30 9981 H 920.046 0.95307 -5.65322 0
M  V30 9982 H 918.443 0.240085 -5.9962 0
M  V30 9983 H 919.513 -0.541866 -4.81863 0
M  V30 9984 N 920.856 1.57574 -0.0284266 0
M  V30 9985 C 921.786 2.1321 0.952039 0
M  V30 9986 C 922.767 1.04806 1.33977 0
M  V30 9987 O 923.952 1.32635 1.41851 0
M  V30 9988 C 921.082 2.65862 2.23461 0
M  V30 9989 C 920.036 3.79047 1.98765 0
M  V30 9990 C 919.362 4.18124 3.33281 0
M  V30 9991 C 920.662 5.05151 1.32739 0
M  V30 9992 H 922.356 2.95385 0.488705 0
M  V30 9993 H 919.902 1.42092 0.233628 0
M  V30 9994 H 921.855 3.03417 2.92431 0
M  V30 9995 H 920.579 1.80848 2.71959 0
M  V30 9996 H 919.238 3.41929 1.32213 0
M  V30 9997 H 918.886 3.30092 3.79537 0
M  V30 9998 H 918.586 4.94396 3.17563 0
M  V30 9999 H 920.11 4.58262 4.0352 0
M  V30 10000 H 921.524 5.40297 1.91708 0
M  V30 10001 H 919.921 5.86416 1.27421 0
M  V30 10002 H 920.991 4.83969 0.300261 0
M  V30 10003 N 922.334 -0.244713 1.55689 0
M  V30 10004 C 923.75 -0.593331 1.48161 0
M  V30 10005 C 923.95 -1.88234 0.719047 0
M  V30 10006 O 923.006 -2.51266 0.249292 0
M  V30 10007 C 924.319 -0.694032 2.92581 0
M  V30 10008 C 925.867 -0.786213 3.02965 0
M  V30 10009 C 926.342 -0.918457 4.48696 0
M  V30 10010 N 927.833 -0.983272 4.52643 0
M  V30 10011 C 928.568 -1.1049 5.62654 0
M  V30 10012 N 928.064 -1.19193 6.8247 0
M  V30 10013 N 929.857 -1.13823 5.50455 0
M  V30 10014 H 922.008 0.601446 2.03707 0
M  V30 10015 H 924.271 0.207894 0.924924 0
M  V30 10016 H 923.977 0.183133 3.51223 0
M  V30 10017 H 923.851 -1.56525 3.4319 0
M  V30 10018 H 926.238 -1.65383 2.44402 0
M  V30 10019 H 926.319 0.110202 2.55563 0
M  V30 10020 H 925.963 -0.0553881 5.0787 0
M  V30 10021 H 925.893 -1.82994 4.93782 0
M  V30 10022 H 928.384 -0.927269 3.66347 0
M  V30 10023 H 928.697 -1.28387 7.62061 0
M  V30 10024 H 927.042 -1.16147 6.85226 0
M  V30 10025 H 930.233 -1.06673 4.55783 0
M  V30 10026 H 930.406 -1.22957 6.36228 0
M  V30 10027 N 923.813 -1.49104 -0.510467 0
M  V30 10028 C 925.06 -1.58112 -1.26518 0
M  V30 10029 C 925.388 -0.263603 -1.92705 0
M  V30 10030 O 924.643 0.747743 -1.80852 0
M  V30 10031 C 924.942 -2.68259 -2.36161 0
M  V30 10032 C 924.608 -4.10069 -1.87495 0
M  V30 10033 C 923.27 -4.48662 -1.73942 0
M  V30 10034 C 925.622 -4.98859 -1.5096 0
M  V30 10035 C 922.95 -5.73829 -1.22217 0
M  V30 10036 C 925.302 -6.24535 -1.00691 0
M  V30 10037 C 923.966 -6.61967 -0.857691 0
M  V30 10038 H 923.236 -0.578574 -0.462962 0
M  V30 10039 H 925.883 -1.82899 -0.567475 0
M  V30 10040 H 924.188 -2.37407 -3.11681 0
M  V30 10041 H 925.885 -2.7244 -2.9424 0
M  V30 10042 H 922.475 -3.79601 -1.99001 0
M  V30 10043 H 926.659 -4.69706 -1.60282 0
M  V30 10044 H 921.915 -6.01539 -1.09368 0
M  V30 10045 H 926.089 -6.9272 -0.71498 0
M  V30 10046 H 923.716 -7.58839 -0.454702 0
M  V30 10047 N 925.291 0.760815 -1.38019 0
M  V30 10048 C 926.538 1.51973 -1.3383 0
M  V30 10049 C 926.866 1.9436 0.0738855 0
M  V30 10050 O 926.121 1.65181 1.04946 0
M  V30 10051 C 926.42 2.79024 -2.23339 0
M  V30 10052 C 926.086 2.55636 -3.71431 0
M  V30 10053 C 924.748 2.48966 -4.11788 0
M  V30 10054 C 927.1 2.35018 -4.65205 0
M  V30 10055 C 924.428 2.19684 -5.44018 0
M  V30 10056 C 926.78 2.07258 -5.97685 0
M  V30 10057 C 925.444 1.9904 -6.37134 0
M  V30 10058 H 924.714 0.556108 -0.489719 0
M  V30 10059 H 927.361 0.87545 -1.70318 0
M  V30 10060 H 925.666 3.48065 -1.79883 0
M  V30 10061 H 927.363 3.36951 -2.17405 0
M  V30 10062 H 923.953 2.61695 -3.39432 0
M  V30 10063 H 928.137 2.39154 -4.34878 0
M  V30 10064 H 923.393 2.11825 -5.73533 0
M  V30 10065 H 927.567 1.90307 -6.69893 0
M  V30 10066 H 925.194 1.76115 -7.39519 0
M  V30 10067 N 926.769 1.22769 0.988202 0
M  V30 10068 C 928.016 1.05509 1.72841 0
M  V30 10069 C 928.344 -0.409145 1.90148 0
M  V30 10070 O 927.599 -1.3195 1.44526 0
M  V30 10071 C 927.898 1.71679 3.13466 0
M  V30 10072 C 927.564 3.21584 3.16061 0
M  V30 10073 C 926.226 3.62486 3.16476 0
M  V30 10074 C 928.578 4.17511 3.11984 0
M  V30 10075 C 925.906 4.97789 3.10521 0
M  V30 10076 C 928.258 5.52796 3.0757 0
M  V30 10077 C 926.922 5.93072 3.06304 0
M  V30 10078 H 926.192 0.386085 0.632471 0
M  V30 10079 H 928.839 1.52596 1.157 0
M  V30 10080 H 927.144 1.1693 3.73945 0
M  V30 10081 H 928.841 1.55809 3.69492 0
M  V30 10082 H 925.431 2.89019 3.1649 0
M  V30 10083 H 929.615 3.86926 3.10809 0
M  V30 10084 H 924.871 5.28218 3.07888 0
M  V30 10085 H 929.045 6.26848 3.03372 0
M  V30 10086 H 926.672 6.97879 3.01444 0
M  V30 10087 N 928.247 -1.18576 1.03814 0
M  V30 10088 C 929.157 -2.25778 0.637311 0
M  V30 10089 C 930.173 -1.7074 -0.335248 0
M  V30 10090 O 931.349 -2.00494 -0.19081 0
M  V30 10091 C 928.414 -3.467 0.00386953 0
M  V30 10092 C 927.475 -4.16881 1.02511 0
M  V30 10093 C 926.708 -5.32031 0.421802 0
M  V30 10094 O 926.931 -5.65142 -0.772699 0
M  V30 10095 O 925.865 -5.90826 1.14925 0
M  V30 10096 H 929.691 -2.62323 1.53037 0
M  V30 10097 H 927.276 -1.25609 0.80887 0
M  V30 10098 H 929.158 -4.19953 -0.348873 0
M  V30 10099 H 927.833 -3.11983 -0.863047 0
M  V30 10100 H 926.74 -3.45707 1.4296 0
M  V30 10101 H 928.073 -4.55592 1.86271 0
M  V30 10102 N 929.725 -0.817259 -1.34754 0
M  V30 10103 C 930.672 -0.233108 -2.2962 0
M  V30 10104 C 931.642 0.638902 -1.53321 0
M  V30 10105 O 932.827 0.581739 -1.81715 0
M  V30 10106 C 929.967 0.603659 -3.39779 0
M  V30 10107 C 929.08 -0.289967 -4.31026 0
M  V30 10108 C 928.215 0.555825 -5.28284 0
M  V30 10109 C 927.254 -0.337539 -6.11169 0
M  V30 10110 N 926.391 0.468847 -7.00533 0
M  V30 10111 H 931.231 -1.04747 -2.78984 0
M  V30 10112 H 928.768 -0.528056 -1.37295 0
M  V30 10113 H 930.726 1.10407 -4.02326 0
M  V30 10114 H 929.356 1.38319 -2.91664 0
M  V30 10115 H 928.408 -0.908552 -3.69391 0
M  V30 10116 H 929.72 -0.977136 -4.89135 0
M  V30 10117 H 928.874 1.12094 -5.96255 0
M  V30 10118 H 927.613 1.27652 -4.70698 0
M  V30 10119 H 926.618 -0.914839 -5.42135 0
M  V30 10120 H 927.843 -1.05626 -6.70835 0
M  V30 10121 H 925.789 1.17332 -6.45422 0
M  V30 10122 H 925.706 -0.160052 -7.55831 0
M  V30 10123 H 926.974 1.01689 -7.72839 0
M  V30 10124 N 931.203 1.46865 -0.571711 0
M  V30 10125 C 932.619 1.57897 -0.23255 0
M  V30 10126 C 932.819 1.56836 1.26509 0
M  V30 10127 O 931.875 1.47947 2.04617 0
M  V30 10128 C 933.188 2.87778 -0.872036 0
M  V30 10129 C 934.736 3.01389 -0.844605 0
M  V30 10130 C 935.211 4.33991 -1.46343 0
M  V30 10131 N 936.702 4.40662 -1.42727 0
M  V30 10132 C 937.437 5.41858 -1.87557 0
M  V30 10133 N 936.933 6.49787 -2.4031 0
M  V30 10134 N 938.726 5.32992 -1.7854 0
M  V30 10135 H 930.877 1.45798 -1.54457 0
M  V30 10136 H 933.14 0.694785 -0.644964 0
M  V30 10137 H 932.846 2.94332 -1.92513 0
M  V30 10138 H 932.72 3.75345 -0.373677 0
M  V30 10139 H 935.107 2.94423 0.19984 0
M  V30 10140 H 935.188 2.15327 -1.38087 0
M  V30 10141 H 934.832 4.41714 -2.50701 0
M  V30 10142 H 934.762 5.18809 -0.902479 0
M  V30 10143 H 937.253 3.63263 -1.04155 0
M  V30 10144 H 937.566 7.23199 -2.72403 0
M  V30 10145 H 935.911 6.50637 -2.44329 0
M  V30 10146 H 939.102 4.47575 -1.37093 0
M  V30 10147 H 939.275 6.11716 -2.13794 0
M  V30 10148 N 932.681 0.308908 1.54543 0
M  V30 10149 C 933.611 -0.556657 2.26768 0
M  V30 10150 C 934.592 -1.13145 1.27013 0
M  V30 10151 O 935.777 -1.15931 1.558 0
M  V30 10152 C 932.907 -1.72481 3.01443 0
M  V30 10153 C 931.861 -1.28001 4.08411 0
M  V30 10154 C 931.187 -2.53395 4.70845 0
M  V30 10155 C 932.487 -0.405497 5.20724 0
M  V30 10156 H 934.181 0.0457618 2.99365 0
M  V30 10157 H 931.727 0.0234495 1.43981 0
M  V30 10158 H 933.68 -2.3365 3.50693 0
M  V30 10159 H 932.404 -2.35359 2.26437 0
M  V30 10160 H 931.063 -0.69133 3.60022 0
M  V30 10161 H 930.711 -3.14604 3.92471 0
M  V30 10162 H 930.411 -2.2433 5.43093 0
M  V30 10163 H 931.935 -3.15352 5.22863 0
M  V30 10164 H 933.349 -0.923076 5.6582 0
M  V30 10165 H 931.746 -0.208282 5.99738 0
M  V30 10166 H 932.816 0.567412 4.81569 0
M  V30 10167 N 934.159 -1.57557 0.0367827 0
M  V30 10168 C 935.384 -1.96828 -0.653707 0
M  V30 10169 C 935.809 -0.913559 -1.64425 0
M  V30 10170 O 935.167 0.124749 -1.8087 0
M  V30 10171 C 935.215 -3.35189 -1.32969 0
M  V30 10172 O 934.319 -3.32095 -2.44513 0
M  V30 10173 H 933.66 -0.64157 -0.171124 0
M  V30 10174 H 936.19 -2.04351 0.100912 0
M  V30 10175 H 936.2 -3.71593 -1.68472 0
M  V30 10176 H 934.875 -4.11496 -0.603654 0
M  V30 10177 H 933.452 -3.07418 -2.11065 0
M  V30 10178 N 935.637 0.236453 -1.55816 0
M  V30 10179 C 936.57 1.3196 -1.86177 0
M  V30 10180 C 937.548 1.459 -0.717769 0
M  V30 10181 O 938.732 1.61949 -0.964606 0
M  V30 10182 C 935.859 2.69183 -2.05568 0
M  V30 10183 C 934.905 2.72338 -3.28229 0
M  V30 10184 S 935.738 2.27898 -4.84585 0
M  V30 10185 C 936.894 3.67025 -5.06994 0
M  V30 10186 H 937.127 1.06011 -2.77757 0
M  V30 10187 H 934.66 0.437961 -1.48058 0
M  V30 10188 H 936.618 3.48191 -2.17423 0
M  V30 10189 H 935.279 2.92365 -1.14811 0
M  V30 10190 H 934.472 3.7314 -3.38795 0
M  V30 10191 H 934.074 2.01382 -3.15153 0
M  V30 10192 H 936.366 4.62604 -4.94979 0
M  V30 10193 H 937.309 3.61385 -6.08939 0
M  V30 10194 H 937.717 3.60022 -4.34792 0
M  V30 10195 N 937.115 1.49373 0.502552 0
M  V30 10196 C 938.063 1.66411 1.62512 0
M  V30 10197 C 939.057 0.530062 1.60893 0
M  V30 10198 O 940.263 0.709648 1.65421 0
M  V30 10199 H 936.638 0.524707 0.538689 0
M  V30 10200 H 938.609 2.60639 1.45293 0
M  V30 10201 C 937.358 1.74648 3.00655 0
M  V30 10202 H 936.681 2.61285 3.02606 0
M  V30 10203 H 938.121 1.90605 3.78742 0
M  V30 10204 C 936.58 0.490963 3.33303 0
M  V30 10205 O 937.11 -0.384039 3.9986 0
M  V30 10206 N 935.316 0.354375 2.88431 0
M  V30 10207 H 934.863 1.06742 2.34444 0
M  V30 10208 H 934.821 -0.484593 3.10643 0
M  V30 10209 N 938.594 -0.753485 1.38421 0
M  V30 10210 C 939.871 -1.50318 1.25155 0
M  V30 10211 C 940.251 -2.10588 -0.147003 0
M  V30 10212 O 939.599 -1.97071 -1.15651 0
M  V30 10213 C 939.809 -2.56946 2.36177 0
M  V30 10214 C 941.157 -3.23846 2.74607 0
M  V30 10215 O 942.181 -2.67251 2.3549 0
M  V30 10216 O 941.04 -4.2621 3.42064 0
M  V30 10217 H 938.134 -0.666624 0.48943 0
M  V30 10218 H 940.68 -0.788887 1.50249 0
M  V30 10219 H 939.452 -2.1066 3.29754 0
M  V30 10220 H 939.075 -3.35956 2.12648 0
M  V30 10221 N 940.072 -1.23292 -0.981677 0
M  V30 10222 C 941.002 -1.03738 -2.09191 0
M  V30 10223 C 941.983 0.0453041 -1.7004 0
M  V30 10224 O 943.168 -0.119092 -1.93834 0
M  V30 10225 C 940.298 -0.626426 -3.41604 0
M  V30 10226 C 939.252 -1.65631 -3.94652 0
M  V30 10227 C 938.578 -1.10084 -5.23245 0
M  V30 10228 C 939.878 -3.04903 -4.24066 0
M  V30 10229 H 941.572 -1.966 -2.25807 0
M  V30 10230 H 939.118 -0.946656 -1.0851 0
M  V30 10231 H 941.071 -0.476689 -4.18695 0
M  V30 10232 H 939.795 0.337873 -3.24848 0
M  V30 10233 H 938.454 -1.79402 -3.19704 0
M  V30 10234 H 938.102 -0.127562 -5.02838 0
M  V30 10235 H 937.802 -1.78896 -5.59705 0
M  V30 10236 H 939.326 -0.962928 -6.02959 0
M  V30 10237 H 940.74 -2.94441 -4.91912 0
M  V30 10238 H 939.137 -3.70941 -4.71724 0
M  V30 10239 H 940.207 -3.53991 -3.31389 0
M  V30 10240 N 941.55 1.18024 -1.04442 0
M  V30 10241 C 942.46 2.25436 -0.649276 0
M  V30 10242 C 943.476 1.70915 0.326189 0
M  V30 10243 O 944.652 2.00592 0.180174 0
M  V30 10244 C 941.717 3.46693 -0.0222558 0
M  V30 10245 C 940.778 4.16332 -1.0472 0
M  V30 10246 C 940.011 5.31799 -0.450011 0
M  V30 10247 O 940.234 5.65544 0.742717 0
M  V30 10248 O 939.168 5.90209 -1.18056 0
M  V30 10249 H 942.994 2.61508 -1.54426 0
M  V30 10250 H 940.579 1.25178 -0.81552 0
M  V30 10251 H 942.461 4.20132 0.326597 0
M  V30 10252 H 941.136 3.12436 0.84649 0
M  V30 10253 H 940.043 3.44944 -1.44792 0
M  V30 10254 H 941.376 4.54598 -1.88684 0
M  V30 10255 N 943.028 0.824394 1.34319 0
M  V30 10256 C 943.976 0.235628 2.31403 0
M  V30 10257 C 944.97 -0.624443 1.57471 0
M  V30 10258 O 946.176 -0.515618 1.72457 0
M  V30 10259 H 942.551 0.0574537 0.749802 0
M  V30 10260 H 944.522 1.06925 2.78585 0
M  V30 10261 C 943.271 -0.586617 3.42716 0
M  V30 10262 H 942.594 0.0658669 3.99746 0
M  V30 10263 H 944.034 -0.964661 4.1288 0
M  V30 10264 C 942.493 -1.75957 2.87299 0
M  V30 10265 O 943.023 -2.8578 2.82299 0
M  V30 10266 N 941.229 -1.57678 2.44102 0
M  V30 10267 H 940.776 -0.683436 2.48369 0
M  V30 10268 H 940.734 -2.36311 2.07375 0
M  V30 10269 N 944.506 -1.46559 0.579492 0
M  V30 10270 C 945.453 -2.30275 -0.155598 0
M  V30 10271 C 946.423 -1.40422 -0.887175 0
M  V30 10272 O 947.608 -1.69373 -0.878481 0
M  V30 10273 C 944.748 -3.24827 -1.16539 0
M  V30 10274 C 943.861 -4.29778 -0.43759 0
M  V30 10275 C 942.996 -5.11461 -1.43462 0
M  V30 10276 C 942.035 -6.08164 -0.693048 0
M  V30 10277 N 941.172 -6.82726 -1.63799 0
M  V30 10278 H 946.012 -2.92607 0.564356 0
M  V30 10279 H 943.549 -1.44211 0.290126 0
M  V30 10280 H 945.507 -3.78088 -1.76368 0
M  V30 10281 H 944.137 -2.64311 -1.8531 0
M  V30 10282 H 943.189 -3.794 0.27567 0
M  V30 10283 H 944.501 -4.98597 0.142298 0
M  V30 10284 H 943.655 -5.68982 -2.1058 0
M  V30 10285 H 942.394 -4.42595 -2.04844 0
M  V30 10286 H 941.399 -5.49799 -0.00807093 0
M  V30 10287 H 942.624 -6.79047 -0.0846678 0
M  V30 10288 H 940.57 -6.16572 -2.23997 0
M  V30 10289 H 940.487 -7.47795 -1.11082 0
M  V30 10290 H 941.755 -7.44807 -2.29962 0
M  V30 10291 N 945.984 -0.3171 -1.54377 0
M  V30 10292 C 947.209 0.292311 -2.0533 0
M  V30 10293 C 947.634 1.45503 -1.19207 0
M  V30 10294 O 946.992 1.80197 -0.199721 0
M  V30 10295 C 947.04 0.710787 -3.53525 0
M  V30 10296 O 946.144 1.81387 -3.70368 0
M  V30 10297 H 945.485 0.0539976 -0.661801 0
M  V30 10298 H 948.015 -0.463629 -1.99278 0
M  V30 10299 H 948.025 0.995216 -3.95676 0
M  V30 10300 H 946.7 -0.139668 -4.15665 0
M  V30 10301 H 945.277 1.52875 -3.40123 0
M  V30 10302 N 947.462 1.57535 -0.0451378 0
M  V30 10303 C 948.372 2.14653 0.946646 0
M  V30 10304 C 949.388 1.10279 1.3459 0
M  V30 10305 O 950.564 1.42417 1.42405 0
M  V30 10306 C 947.629 2.67533 2.20515 0
M  V30 10307 C 946.69 3.86682 1.86481 0
M  V30 10308 C 945.923 4.37031 3.06332 0
M  V30 10309 O 946.146 3.86481 4.1951 0
M  V30 10310 O 945.08 5.28691 2.87697 0
M  V30 10311 H 948.906 2.99706 0.49091 0
M  V30 10312 H 946.491 1.48355 0.17641 0
M  V30 10313 H 948.373 3.01542 2.94365 0
M  V30 10314 H 947.048 1.85554 2.65238 0
M  V30 10315 H 945.955 3.57573 1.09966 0
M  V30 10316 H 947.288 4.69873 1.46562 0
M  V30 10317 N 948.94 -0.228186 1.55939 0
M  V30 10318 C 949.89 -1.28607 1.88267 0
M  V30 10319 C 950.874 -1.42606 0.745139 0
M  V30 10320 O 952.066 -1.45533 1.00743 0
M  V30 10321 C 949.195 -2.63783 2.19712 0
M  V30 10322 C 948.281 -2.53712 3.3984 0
M  V30 10323 N 948.672 -2.13287 4.58631 0
M  V30 10324 C 946.97 -2.84686 3.43322 0
M  V30 10325 C 947.671 -2.14305 5.40785 0
M  V30 10326 N 946.647 -2.54536 4.80325 0
M  V30 10327 H 950.449 -0.964307 2.7763 0
M  V30 10328 H 947.963 -0.436769 1.56416 0
M  V30 10329 H 949.96 -3.40152 2.41044 0
M  V30 10330 H 948.62 -2.9681 1.31657 0
M  V30 10331 H 949.631 -1.84525 4.83912 0
M  V30 10332 H 946.308 -3.22129 2.65592 0
M  V30 10333 H 947.698 -1.85231 6.45863 0
M  V30 10334 N 950.418 -1.49637 -0.494624 0
M  V30 10335 C 951.348 -1.69692 -1.60396 0
M  V30 10336 C 952.329 -0.545648 -1.61111 0
M  V30 10337 O 953.514 -0.782202 -1.77751 0
M  V30 10338 C 950.644 -1.76934 -2.9885 0
M  V30 10339 C 949.598 -2.91915 -3.13001 0
M  V30 10340 C 948.924 -2.84276 -4.5287 0
M  V30 10341 C 950.224 -4.32764 -2.92426 0
M  V30 10342 H 951.918 -2.6257 -1.43866 0
M  V30 10343 H 949.464 -1.26355 -0.690679 0
M  V30 10344 H 951.417 -1.8955 -3.76362 0
M  V30 10345 H 950.141 -0.806609 -3.16483 0
M  V30 10346 H 948.8 -2.78911 -2.37916 0
M  V30 10347 H 948.448 -1.85897 -4.67388 0
M  V30 10348 H 948.148 -3.61452 -4.63278 0
M  V30 10349 H 949.672 -2.98909 -5.32434 0
M  V30 10350 H 951.086 -4.46415 -3.59703 0
M  V30 10351 H 949.483 -5.1121 -3.143 0
M  V30 10352 H 950.553 -4.46765 -1.88491 0
M  V30 10353 N 951.896 0.746133 -1.38819 0
M  V30 10354 C 952.826 1.87344 -1.39372 0
M  V30 10355 C 953.807 1.68123 -0.258583 0
M  V30 10356 O 954.992 1.88606 -0.462769 0
M  V30 10357 C 952.122 3.24962 -1.22543 0
M  V30 10358 C 951.076 3.58799 -2.33339 0
M  V30 10359 C 950.402 4.95235 -2.01609 0
M  V30 10360 C 951.702 3.62911 -3.75624 0
M  V30 10361 H 953.396 1.87138 -2.33709 0
M  V30 10362 H 950.942 0.898937 -1.12495 0
M  V30 10363 H 952.895 4.03488 -1.21554 0
M  V30 10364 H 951.619 3.25667 -0.246707 0
M  V30 10365 H 950.278 2.82596 -2.33527 0
M  V30 10366 H 949.926 4.92508 -1.02202 0
M  V30 10367 H 949.626 5.18843 -2.75819 0
M  V30 10368 H 951.15 5.76131 -2.02251 0
M  V30 10369 H 952.564 4.31535 -3.77426 0
M  V30 10370 H 950.961 3.98031 -4.491 0
M  V30 10371 H 952.031 2.62967 -4.07402 0
M  V30 10372 N 953.375 1.23811 0.975125 0
M  V30 10373 C 954.322 1.02394 2.06843 0
M  V30 10374 C 955.292 -0.060337 1.6599 0
M  V30 10375 O 956.477 0.0928187 1.90574 0
M  V30 10376 C 953.617 0.626882 3.39359 0
M  V30 10377 C 952.73 1.78385 3.9345 0
M  V30 10378 C 951.865 1.33307 5.14201 0
M  V30 10379 C 950.904 2.46045 5.60471 0
M  V30 10380 N 950.041 2.01888 6.72448 0
M  V30 10381 H 954.881 1.95973 2.24496 0
M  V30 10382 H 952.418 0.976206 1.10039 0
M  V30 10383 H 954.376 0.377742 4.15486 0
M  V30 10384 H 953.006 -0.271907 3.21653 0
M  V30 10385 H 952.058 2.14685 3.14029 0
M  V30 10386 H 953.37 2.63122 4.23755 0
M  V30 10387 H 952.524 1.04237 5.97678 0
M  V30 10388 H 951.263 0.456143 4.85562 0
M  V30 10389 H 950.268 2.75884 4.75571 0
M  V30 10390 H 951.493 3.34283 5.91127 0
M  V30 10391 H 949.439 1.16583 6.45558 0
M  V30 10392 H 949.356 2.80182 7.02164 0
M  V30 10393 H 950.624 1.75937 7.59386 0
M  V30 10394 N 954.853 -1.17469 1.05066 0
M  V30 10395 C 956.1 -1.87698 0.759987 0
M  V30 10396 C 956.428 -1.80964 -0.712902 0
M  V30 10397 O 955.683 -1.21146 -1.53695 0
M  V30 10398 C 955.982 -3.37211 1.18421 0
M  V30 10399 C 955.648 -3.64148 2.65909 0
M  V30 10400 C 954.31 -3.71209 3.06199 0
M  V30 10401 C 956.662 -3.75724 3.61222 0
M  V30 10402 C 953.99 -3.87334 4.40669 0
M  V30 10403 C 956.342 -3.93368 4.95424 0
M  V30 10404 C 955.006 -3.98667 5.3537 0
M  V30 10405 H 954.276 -0.686835 0.278099 0
M  V30 10406 H 956.923 -1.38975 1.31751 0
M  V30 10407 H 955.228 -3.87982 0.545654 0
M  V30 10408 H 956.925 -3.89911 0.936518 0
M  V30 10409 H 953.515 -3.59276 2.33707 0
M  V30 10410 H 957.699 -3.69591 3.31235 0
M  V30 10411 H 952.955 -3.89685 4.71122 0
M  V30 10412 H 957.129 -4.01267 5.69173 0
M  V30 10413 H 954.756 -4.10915 6.39572 0
M  V30 10414 N 956.331 -0.831506 -1.3388 0
M  V30 10415 C 957.264 -0.2046 -2.27281 0
M  V30 10416 C 958.242 0.643992 -1.49303 0
M  V30 10417 O 959.426 0.605863 -1.78498 0
M  V30 10418 C 956.553 0.713409 -3.31101 0
M  V30 10419 C 955.599 -0.0587654 -4.2646 0
M  V30 10420 S 956.432 -1.41172 -5.16557 0
M  V30 10421 C 957.588 -0.498807 -6.23909 0
M  V30 10422 H 957.821 -0.996442 -2.80104 0
M  V30 10423 H 955.354 -0.62786 -1.41058 0
M  V30 10424 H 957.312 1.23748 -3.91403 0
M  V30 10425 H 955.973 1.47885 -2.77108 0
M  V30 10426 H 955.166 0.639466 -4.99927 0
M  V30 10427 H 954.768 -0.513665 -3.70456 0
M  V30 10428 H 957.06 0.306268 -6.76807 0
M  V30 10429 H 958.003 -1.20342 -6.97799 0
M  V30 10430 H 958.411 -0.0834242 -5.64438 0
M  V30 10431 N 957.809 1.4625 -0.587256 0
M  V30 10432 C 958.719 2.34147 0.145744 0
M  V30 10433 C 959.735 1.50026 0.881376 0
M  V30 10434 O 960.911 1.82884 0.843539 0
M  V30 10435 C 957.976 3.27294 1.14366 0
M  V30 10436 C 957.037 4.27317 0.412199 0
M  V30 10437 C 956.27 5.16013 1.36257 0
M  V30 10438 O 956.493 5.0773 2.59934 0
M  V30 10439 O 955.427 5.95569 0.870681 0
M  V30 10440 H 959.253 2.98187 -0.576055 0
M  V30 10441 H 956.838 1.45299 -0.347628 0
M  V30 10442 H 958.72 3.84747 1.71894 0
M  V30 10443 H 957.395 2.65845 1.84684 0
M  V30 10444 H 956.302 3.73538 -0.205036 0
M  V30 10445 H 957.635 4.91564 -0.250104 0
M  V30 10446 N 959.287 0.325282 1.54207 0
M  V30 10447 C 960.219 -0.57395 2.21897 0
M  V30 10448 C 961.232 -1.0785 1.21952 0
M  V30 10449 O 962.421 -0.991782 1.48411 0
M  V30 10450 C 959.521 -1.8005 2.87115 0
M  V30 10451 C 958.694 -1.43435 4.13213 0
M  V30 10452 C 957.753 -2.51862 4.62009 0
M  V30 10453 O 956.779 -2.15934 5.26651 0
M  V30 10454 N 957.981 -3.8282 4.36382 0
M  V30 10455 H 960.746 0.00566918 2.99699 0
M  V30 10456 H 958.307 0.148563 1.61217 0
M  V30 10457 H 960.299 -2.51981 3.16682 0
M  V30 10458 H 958.869 -2.28792 2.13009 0
M  V30 10459 H 958.089 -0.546598 3.90392 0
M  V30 10460 H 959.377 -1.16544 4.95273 0
M  V30 10461 H 958.775 -4.14807 3.84645 0
M  V30 10462 H 957.332 -4.50976 4.70599 0
M  V30 10463 N 960.765 -1.57509 0.0534917 0
M  V30 10464 C 961.995 -1.96812 -0.628386 0
M  V30 10465 C 962.403 -0.929808 -1.64776 0
M  V30 10466 O 961.746 0.0941155 -1.83459 0
M  V30 10467 C 961.808 -3.32361 -1.37027 0
M  V30 10468 C 961.472 -4.54185 -0.506465 0
M  V30 10469 C 962.469 -5.19398 0.228412 0
M  V30 10470 C 960.154 -5.00398 -0.43671 0
M  V30 10471 C 962.148 -6.29162 1.02146 0
M  V30 10472 C 959.835 -6.10039 0.360022 0
M  V30 10473 C 960.833 -6.74282 1.08779 0
M  V30 10474 O 960.521 -7.81814 1.87142 0
M  V30 10475 H 960.253 -0.65257 -0.176432 0
M  V30 10476 H 962.807 -2.05067 0.116908 0
M  V30 10477 H 961.037 -3.20667 -2.16125 0
M  V30 10478 H 962.726 -3.56395 -1.94261 0
M  V30 10479 H 963.492 -4.84651 0.184003 0
M  V30 10480 H 959.371 -4.50183 -0.992772 0
M  V30 10481 H 962.915 -6.79238 1.59002 0
M  V30 10482 H 958.812 -6.44222 0.406061 0
M  V30 10483 H 959.58 -7.98602 1.79378 0
M  V30 10484 N 962.243 0.219913 -1.56058 0
M  V30 10485 C 963.175 1.29604 -1.89038 0
M  V30 10486 C 964.188 1.42964 -0.778791 0
M  V30 10487 O 965.377 1.43832 -1.0571 0
M  V30 10488 C 962.477 2.67145 -2.08534 0
M  V30 10489 C 961.65 2.75712 -3.39561 0
M  V30 10490 C 960.709 3.94279 -3.48469 0
M  V30 10491 O 959.735 3.8254 -4.21487 0
M  V30 10492 N 960.937 5.08655 -2.79732 0
M  V30 10493 H 963.702 1.01638 -2.81939 0
M  V30 10494 H 961.263 0.409945 -1.56624 0
M  V30 10495 H 963.255 3.44847 -2.11808 0
M  V30 10496 H 961.825 2.87704 -1.2225 0
M  V30 10497 H 961.045 1.84475 -3.48371 0
M  V30 10498 H 962.333 2.78407 -4.25872 0
M  V30 10499 H 961.731 5.21088 -2.2019 0
M  V30 10500 H 960.288 5.84394 -2.88665 0
M  V30 10501 N 963.721 1.49897 0.486681 0
M  V30 10502 C 964.668 1.67619 1.58658 0
M  V30 10503 C 965.638 0.517537 1.57831 0
M  V30 10504 O 966.823 0.746272 1.756 0
M  V30 10505 C 963.963 1.762 2.96728 0
M  V30 10506 C 963.076 3.03465 3.07462 0
M  V30 10507 C 962.211 3.02937 4.36351 0
M  V30 10508 C 961.25 4.24721 4.4077 0
M  V30 10509 N 960.387 4.22021 5.61108 0
M  V30 10510 H 965.227 2.61528 1.42853 0
M  V30 10511 H 962.764 1.29657 0.694807 0
M  V30 10512 H 964.722 1.79156 3.76774 0
M  V30 10513 H 963.352 0.857452 3.11203 0
M  V30 10514 H 962.404 3.10054 2.20387 0
M  V30 10515 H 963.716 3.93454 3.06586 0
M  V30 10516 H 962.87 3.04536 5.24731 0
M  V30 10517 H 961.609 2.10751 4.39813 0
M  V30 10518 H 960.614 4.23352 3.5079 0
M  V30 10519 H 961.839 5.18116 4.39013 0
M  V30 10520 H 959.785 3.3268 5.65385 0
M  V30 10521 H 959.702 5.05761 5.61909 0
M  V30 10522 H 960.97 4.27743 6.51656 0
M  V30 10523 N 965.199 -0.738761 1.39212 0
M  V30 10524 C 966.109 -1.88324 1.39897 0
M  V30 10525 C 967.125 -1.71494 0.294229 0
M  V30 10526 O 968.301 -1.94162 0.535087 0
M  V30 10527 C 965.366 -3.23871 1.23726 0
M  V30 10528 C 964.427 -3.53121 2.44139 0
M  V30 10529 C 963.66 -4.82202 2.2873 0
M  V30 10530 O 963.883 -5.55649 1.28879 0
M  V30 10531 O 962.817 -5.11265 3.17634 0
M  V30 10532 H 966.643 -1.90701 2.36362 0
M  V30 10533 H 964.228 -0.886067 1.20288 0
M  V30 10534 H 966.11 -4.04882 1.16826 0
M  V30 10535 H 964.785 -3.22274 0.303551 0
M  V30 10536 H 963.692 -2.72212 2.56615 0
M  V30 10537 H 965.025 -3.59495 3.36191 0
M  V30 10538 N 966.677 -1.24326 -0.968545 0
M  V30 10539 C 968.093 -1.00847 -1.23701 0
M  V30 10540 C 968.293 0.283235 -1.99499 0
M  V30 10541 O 967.349 0.999607 -2.31871 0
M  V30 10542 C 968.662 -2.22295 -2.02498 0
M  V30 10543 C 970.21 -2.26911 -2.15593 0
M  V30 10544 C 970.685 -3.47978 -2.97784 0
M  V30 10545 N 972.176 -3.48289 -3.05367 0
M  V30 10546 C 972.911 -4.38625 -3.69318 0
M  V30 10547 N 972.407 -5.39213 -4.34995 0
M  V30 10548 N 974.2 -4.26339 -3.66322 0
M  V30 10549 H 966.351 -2.07335 -0.461087 0
M  V30 10550 H 968.614 -0.909805 -0.26638 0
M  V30 10551 H 968.32 -3.161 -1.54188 0
M  V30 10552 H 968.194 -2.24344 -3.03232 0
M  V30 10553 H 970.581 -1.33639 -2.63106 0
M  V30 10554 H 970.662 -2.28888 -1.14209 0
M  V30 10555 H 970.306 -4.41564 -2.50965 0
M  V30 10556 H 970.236 -3.43244 -3.99364 0
M  V30 10557 H 972.727 -2.75517 -2.58648 0
M  V30 10558 H 973.04 -6.04378 -4.81608 0
M  V30 10559 H 971.385 -5.43101 -4.33667 0
M  V30 10560 H 974.576 -3.46991 -3.14189 0
M  V30 10561 H 974.749 -4.9694 -4.15878 0
M  V30 10562 N 968.156 1.1691 -1.05688 0
M  V30 10563 C 969.066 2.24735 -0.67315 0
M  V30 10564 C 970.082 1.71252 0.308043 0
M  V30 10565 O 971.258 2.00772 0.158889 0
M  V30 10566 C 968.323 3.4665 -0.059026 0
M  V30 10567 C 967.384 4.15198 -1.0913 0
M  V30 10568 C 966.617 5.31292 -0.50639 0
M  V30 10569 O 966.84 5.663 0.682692 0
M  V30 10570 O 965.774 5.88923 -1.2431 0
M  V30 10571 H 969.6 2.59855 -1.57191 0
M  V30 10572 H 967.185 1.24306 -0.828751 0
M  V30 10573 H 969.067 4.20455 0.282018 0
M  V30 10574 H 967.742 3.13316 0.813304 0
M  V30 10575 H 966.649 3.43389 -1.48442 0
M  V30 10576 H 967.982 4.52571 -1.93495 0
M  V30 10577 N 969.634 0.838594 1.33437 0
M  V30 10578 C 970.597 0.276843 2.27522 0
M  V30 10579 C 971.597 -0.554275 1.50945 0
M  V30 10580 O 972.787 -0.368107 1.70266 0
M  V30 10581 C 969.919 -0.610036 3.35397 0
M  V30 10582 H 971.112 1.10705 2.78719 0
M  V30 10583 H 968.665 0.611657 1.43835 0
M  V30 10584 H 969.4 -1.46269 2.89441 0
M  V30 10585 H 969.185 -0.0153615 3.92097 0
M  V30 10586 H 970.675 -0.996368 4.05539 0
M  V30 10587 N 971.112 -1.45937 0.595003 0
M  V30 10588 C 972.062 -2.27491 -0.152331 0
M  V30 10589 C 973.046 -1.36591 -0.850396 0
M  V30 10590 O 974.238 -1.60675 -0.742462 0
M  V30 10591 C 971.367 -3.23203 -1.15735 0
M  V30 10592 C 970.453 -4.2159 -0.46077 0
M  V30 10593 N 970.844 -5.03416 0.490555 0
M  V30 10594 C 969.142 -4.40313 -0.709949 0
M  V30 10595 C 969.843 -5.74714 0.898825 0
M  V30 10596 N 968.819 -5.43046 0.24529 0
M  V30 10597 H 972.621 -2.8815 0.578526 0
M  V30 10598 H 970.135 -1.56936 0.417716 0
M  V30 10599 H 972.132 -3.8035 -1.70704 0
M  V30 10600 H 970.792 -2.64104 -1.8889 0
M  V30 10601 H 971.803 -5.10597 0.866692 0
M  V30 10602 H 968.48 -3.92351 -1.42713 0
M  V30 10603 H 969.87 -6.50487 1.68273 0
M  V30 10604 N 972.59 -0.333456 -1.54032 0
M  V30 10605 C 973.836 0.266527 -2.01041 0
M  V30 10606 C 974.169 1.51006 -1.2211 0
M  V30 10607 O 973.444 1.92078 -0.306016 0
M  V30 10608 C 973.727 0.59078 -3.55221 0
M  V30 10609 C 973.58 -0.664143 -4.4487 0
M  V30 10610 C 974.899 1.40447 -4.17088 0
M  V30 10611 H 972.018 0.0953979 -0.7308 0
M  V30 10612 H 974.66 -0.451995 -1.84545 0
M  V30 10613 H 972.81 1.20292 -3.69408 0
M  V30 10614 H 974.482 -1.30227 -4.42537 0
M  V30 10615 H 972.725 -1.29106 -4.14143 0
M  V30 10616 H 973.396 -0.392664 -5.50602 0
M  V30 10617 H 975.872 0.886946 -4.06537 0
M  V30 10618 H 974.748 1.6001 -5.2506 0
M  V30 10619 H 975.009 2.40357 -3.71054 0
M  V30 10620 N 974.068 1.57479 -0.061844 0
M  V30 10621 C 975.293 1.97843 0.622311 0
M  V30 10622 C 975.718 0.939602 1.62951 0
M  V30 10623 O 975.076 -0.095958 1.81046 0
M  V30 10624 C 975.124 3.37262 1.2762 0
M  V30 10625 O 974.228 3.35943 2.39199 0
M  V30 10626 H 973.569 0.644212 0.160896 0
M  V30 10627 H 976.099 2.04165 -0.133409 0
M  V30 10628 H 976.109 3.74226 1.62539 0
M  V30 10629 H 974.784 4.12404 0.538112 0
M  V30 10630 H 973.361 3.10737 2.06148 0
M  V30 10631 N 975.546 -0.211634 1.56173 0
M  V30 10632 C 976.456 -1.2831 1.96402 0
M  V30 10633 C 977.472 -1.50731 0.869254 0
M  V30 10634 O 978.648 -1.63669 1.17365 0
M  V30 10635 C 975.713 -2.61084 2.28114 0
M  V30 10636 C 974.774 -2.46879 3.51211 0
M  V30 10637 C 974.007 -3.73321 3.81401 0
M  V30 10638 O 974.23 -4.76773 3.13119 0
M  V30 10639 O 973.164 -3.69839 4.74871 0
M  V30 10640 H 976.99 -0.971733 2.87734 0
M  V30 10641 H 974.575 -0.415305 1.43512 0
M  V30 10642 H 976.457 -3.39481 2.49661 0
M  V30 10643 H 975.132 -2.91881 1.39954 0
M  V30 10644 H 974.039 -1.66648 3.34932 0
M  V30 10645 H 975.372 -2.21018 4.39786 0
M  V30 10646 N 977.024 -1.50153 -0.478725 0
M  V30 10647 C 978.254 -1.64266 -1.253 0
M  V30 10648 C 978.662 -0.322256 -1.86435 0
M  V30 10649 O 978.005 0.704925 -1.69636 0
M  V30 10650 C 978.067 -2.67017 -2.40712 0
M  V30 10651 C 977.731 -4.10779 -2.00274 0
M  V30 10652 C 978.728 -4.96889 -1.52963 0
M  V30 10653 C 976.413 -4.5665 -2.09228 0
M  V30 10654 C 978.407 -6.26914 -1.15139 0
M  V30 10655 C 976.094 -5.86683 -1.71015 0
M  V30 10656 C 977.092 -6.71641 -1.24048 0
M  V30 10657 O 976.78 -7.99248 -0.863617 0
M  V30 10658 H 976.512 -0.555382 -0.385392 0
M  V30 10659 H 979.066 -1.97078 -0.578751 0
M  V30 10660 H 977.296 -2.29432 -3.11284 0
M  V30 10661 H 978.985 -2.70428 -3.02694 0
M  V30 10662 H 979.751 -4.62669 -1.45474 0
M  V30 10663 H 975.63 -3.90674 -2.44735 0
M  V30 10664 H 979.174 -6.93179 -0.784089 0
M  V30 10665 H 975.071 -6.20426 -1.78162 0
M  V30 10666 H 975.839 -8.12452 -0.993139 0
M  V30 10667 N 978.502 0.731368 -1.39602 0
M  V30 10668 C 979.432 1.85855 -1.41351 0
M  V30 10669 C 980.413 1.67839 -0.2764 0
M  V30 10670 O 981.598 1.88104 -0.482747 0
M  V30 10671 C 978.728 3.23644 -1.25983 0
M  V30 10672 C 977.682 3.56304 -2.37132 0
M  V30 10673 C 977.008 4.93069 -2.0685 0
M  V30 10674 C 978.308 3.58906 -3.79452 0
M  V30 10675 H 980.002 1.84648 -2.3568 0
M  V30 10676 H 977.548 0.886955 -1.13442 0
M  V30 10677 H 979.501 4.02176 -1.25826 0
M  V30 10678 H 978.225 3.25387 -0.281234 0
M  V30 10679 H 976.884 2.80104 -2.36511 0
M  V30 10680 H 976.532 4.91396 -1.0742 0
M  V30 10681 H 976.232 5.15888 -2.81306 0
M  V30 10682 H 977.756 5.73953 -2.0835 0
M  V30 10683 H 979.17 4.27508 -3.81982 0
M  V30 10684 H 977.567 3.93246 -4.53297 0
M  V30 10685 H 978.637 2.58631 -4.10168 0
M  V30 10686 N 979.98 1.24838 0.961938 0
M  V30 10687 C 980.91 1.07053 2.07514 0
M  V30 10688 C 981.891 -0.0182465 1.7009 0
M  V30 10689 O 983.076 0.149915 1.9362 0
M  V30 10690 C 980.206 0.680693 3.40564 0
M  V30 10691 C 979.16 1.71889 3.91967 0
M  V30 10692 C 978.486 1.18395 5.21428 0
M  V30 10693 C 979.786 3.1161 4.19161 0
M  V30 10694 H 981.48 2.00167 2.22651 0
M  V30 10695 H 979.026 0.963799 1.0699 0
M  V30 10696 H 980.979 0.54324 4.17884 0
M  V30 10697 H 979.703 -0.28615 3.25344 0
M  V30 10698 H 978.362 1.84465 3.16809 0
M  V30 10699 H 978.01 0.207543 5.02572 0
M  V30 10700 H 977.71 1.87778 5.56788 0
M  V30 10701 H 979.234 1.05873 6.01351 0
M  V30 10702 H 980.648 3.0223 4.87165 0
M  V30 10703 H 979.045 3.78398 4.65763 0
M  V30 10704 H 980.115 3.59218 3.25715 0
M  V30 10705 N 981.458 -1.16348 1.06306 0
M  V30 10706 C 982.406 -2.22799 0.668087 0
M  V30 10707 C 983.4 -1.66426 -0.316051 0
M  V30 10708 O 984.606 -1.79089 -0.180902 0
M  V30 10709 H 980.981 -0.725487 0.19792 0
M  V30 10710 H 982.952 -2.53401 1.57577 0
M  V30 10711 C 981.701 -3.47628 0.0706797 0
M  V30 10712 H 981.024 -3.9132 0.819064 0
M  V30 10713 H 982.464 -4.23666 -0.16816 0
M  V30 10714 C 980.923 -3.15343 -1.18577 0
M  V30 10715 O 981.453 -3.31158 -2.27371 0
M  V30 10716 N 979.659 -2.69472 -1.08779 0
M  V30 10717 H 979.206 -2.56803 -0.202447 0
M  V30 10718 H 979.164 -2.48244 -1.92931 0
M  V30 10719 N 982.937 -0.845659 -1.3299 0
M  V30 10720 C 984.186 -0.440928 -1.96822 0
M  V30 10721 C 984.499 1.00668 -1.67706 0
M  V30 10722 O 985.705 1.51641 -2.25205 0
M  V30 10723 C 984.161 -0.73752 -3.52262 0
M  V30 10724 C 983.769 -2.20026 -3.90247 0
M  V30 10725 C 985.513 -0.400072 -4.22611 0
M  V30 10726 C 983.42 -2.44054 -5.38694 0
M  V30 10727 H 982.35 -0.161148 -0.736578 0
M  V30 10728 H 985.001 -1.03519 -1.51513 0
M  V30 10729 H 983.383 -0.0728025 -3.95933 0
M  V30 10730 H 984.557 -2.90602 -3.57613 0
M  V30 10731 H 982.872 -2.50135 -3.32899 0
M  V30 10732 H 985.469 -0.557136 -5.3179 0
M  V30 10733 H 985.812 0.657547 -4.11074 0
M  V30 10734 H 986.345 -1.0203 -3.84493 0
M  V30 10735 H 983.084 -3.48407 -5.55241 0
M  V30 10736 H 982.604 -1.78047 -5.72765 0
M  V30 10737 H 984.283 -2.27549 -6.05665 0
M  V30 10738 N 984.415 1.45619 -0.602734 0
M  V30 10739 C 985.345 2.33258 0.106342 0
M  V30 10740 C 986.326 1.46543 0.863664 0
M  V30 10741 O 987.511 1.75324 0.835175 0
M  V30 10742 C 984.641 3.29168 1.10751 0
M  V30 10743 C 983.595 4.25481 0.463717 0
M  V30 10744 C 982.921 5.11046 1.57278 0
M  V30 10745 C 984.221 5.18702 -0.61199 0
M  V30 10746 H 985.915 2.92795 -0.625423 0
M  V30 10747 H 983.461 1.40793 -0.302213 0
M  V30 10748 H 985.414 3.89346 1.61208 0
M  V30 10749 H 984.138 2.6778 1.8698 0
M  V30 10750 H 982.797 3.66595 -0.0199496 0
M  V30 10751 H 982.445 4.46029 2.32524 0
M  V30 10752 H 982.145 5.76286 1.14755 0
M  V30 10753 H 983.669 5.74091 2.07972 0
M  V30 10754 H 985.083 5.72979 -0.191686 0
M  V30 10755 H 983.48 5.92393 -0.958686 0
M  V30 10756 H 984.55 4.61424 -1.4905 0
M  V30 10757 N 985.893 0.34162 1.53853 0
M  V30 10758 C 986.825 -0.550383 2.22494 0
M  V30 10759 C 987.838 -1.0655 1.23089 0
M  V30 10760 O 989.027 -0.975985 1.49455 0
M  V30 10761 C 986.127 -1.76995 2.89009 0
M  V30 10762 C 985.3 -1.39045 4.14711 0
M  V30 10763 C 984.359 -2.46947 4.64654 0
M  V30 10764 O 983.385 -2.10336 5.28912 0
M  V30 10765 N 984.587 -3.7817 4.40418 0
M  V30 10766 H 987.352 0.037456 2.99677 0
M  V30 10767 H 984.913 0.165654 1.6105 0
M  V30 10768 H 986.905 -2.48608 3.19337 0
M  V30 10769 H 985.475 -2.2652 2.15424 0
M  V30 10770 H 984.695 -0.505161 3.9095 0
M  V30 10771 H 985.983 -1.11284 4.96481 0
M  V30 10772 H 985.381 -4.10704 3.89023 0
M  V30 10773 H 983.938 -4.45959 4.75356 0
M  V30 10774 N 987.371 -1.57444 0.0701946 0
M  V30 10775 C 988.782 -1.80875 -0.462709 0
M  V30 10776 C 989.133 -0.983975 -1.69742 0
M  V30 10777 O 988.258 -0.206027 -2.15417 0
M  V30 10778 C 988.853 -3.28062 -0.84623 0
M  V30 10779 C 987.412 -3.52345 -1.32401 0
M  V30 10780 C 986.559 -2.7558 -0.308399 0
M  V30 10781 H 989.51 -1.55917 0.295907 0
M  V30 10782 H 989.531 -3.40023 -1.70776 0
M  V30 10783 H 989.043 -3.88064 0.0526033 0
M  V30 10784 H 987.144 -2.97645 -2.24139 0
M  V30 10785 H 987.257 -4.6104 -1.30304 0
M  V30 10786 H 985.621 -2.4229 -0.785337 0
M  V30 10787 H 986.404 -3.38319 0.582679 0
M  V30 10788 N 988.849 0.203349 -1.56283 0
M  V30 10789 C 990.089 0.931871 -1.81922 0
M  V30 10790 C 990.453 1.8079 -0.646459 0
M  V30 10791 O 991.654 2.57157 -0.782556 0
M  V30 10792 C 989.925 1.73347 -3.12547 0
M  V30 10793 S 991.484 2.51514 -3.59564 0
M  V30 10794 H 988.302 0.312706 -0.638542 0
M  V30 10795 H 990.904 0.195931 -1.94516 0
M  V30 10796 H 989.608 1.08038 -3.95924 0
M  V30 10797 H 989.139 2.51138 -3.02809 0
M  V30 10798 H 991.154 3.7552 -3.24345 0
M  V30 10799 N 990.327 1.50405 0.470755 0
M  V30 10800 C 991.576 1.60652 1.21959 0
M  V30 10801 C 991.889 0.312521 1.93087 0
M  V30 10802 O 993.095 0.293901 2.69905 0
M  V30 10803 C 991.551 2.83581 2.21607 0
M  V30 10804 C 991.159 4.19858 1.5628 0
M  V30 10805 C 992.903 3.03173 2.9713 0
M  V30 10806 C 990.81 5.33974 2.54217 0
M  V30 10807 H 989.74 0.598264 0.458907 0
M  V30 10808 H 992.391 1.76836 0.490041 0
M  V30 10809 H 990.773 2.60957 2.97855 0
M  V30 10810 H 991.947 4.52738 0.85819 0
M  V30 10811 H 990.262 4.05873 0.930366 0
M  V30 10812 H 992.859 3.856 3.70428 0
M  V30 10813 H 993.202 2.14914 3.56536 0
M  V30 10814 H 993.735 3.2598 2.27995 0
M  V30 10815 H 990.474 6.24388 1.99549 0
M  V30 10816 H 989.994 5.05511 3.22829 0
M  V30 10817 H 991.673 5.64561 3.16039 0
M  V30 10818 N 991.805 -0.723954 1.39988 0
M  V30 10819 C 992.768 -1.81973 1.3935 0
M  V30 10820 C 993.768 -1.58187 0.288702 0
M  V30 10821 O 994.958 -1.65383 0.547181 0
M  V30 10822 C 992.09 -3.19937 1.177 0
M  V30 10823 H 993.283 -1.83939 2.36868 0
M  V30 10824 H 990.836 -0.928742 1.25714 0
M  V30 10825 H 991.571 -3.23625 0.209093 0
M  V30 10826 H 991.356 -3.386 1.97719 0
M  V30 10827 H 992.846 -3.99981 1.20022 0
M  V30 10828 N 993.283 -1.25346 -0.955304 0
M  V30 10829 C 994.531 -1.09837 -1.69647 0
M  V30 10830 C 994.852 0.361425 -1.91621 0
M  V30 10831 O 994.122 1.25666 -1.50283 0
M  V30 10832 H 992.702 -0.403467 -0.628668 0
M  V30 10833 H 995.364 -1.57459 -1.14859 0
M  V30 10834 H 994.46 -1.60616 -2.67598 0
M  V30 10835 N 994.761 1.15782 -1.06922 0
M  V30 10836 C 996.038 1.8253 -0.703 0
M  V30 10837 C 996.418 1.94733 0.814994 0
M  V30 10838 O 995.766 1.49537 1.72774 0
M  V30 10839 C 995.976 3.19145 -1.41234 0
M  V30 10840 C 997.324 3.94839 -1.56164 0
M  V30 10841 O 998.348 3.28685 -1.37277 0
M  V30 10842 O 997.207 5.13436 -1.87205 0
M  V30 10843 H 994.301 0.788425 -0.24963 0
M  V30 10844 H 996.847 1.22931 -1.16988 0
M  V30 10845 H 995.619 3.05336 -2.44715 0
M  V30 10846 H 995.242 3.86427 -0.935959 0
M  V30 10847 N 996.239 0.8527 1.3254 0
M  V30 10848 C 997.464 0.468157 2.02047 0
M  V30 10849 C 997.889 -0.926967 1.63673 0
M  V30 10850 O 997.247 -1.60855 0.836378 0
M  V30 10851 C 997.295 0.612519 3.5536 0
M  V30 10852 O 996.399 -0.355506 4.10865 0
M  V30 10853 H 995.74 0.188401 0.636711 0
M  V30 10854 H 998.27 1.15135 1.6913 0
M  V30 10855 H 998.28 0.499315 4.04933 0
M  V30 10856 H 996.955 1.62988 3.82632 0
M  V30 10857 H 995.532 -0.198703 3.7237 0
M  V30 10858 N 997.718 -1.45297 0.610449 0
M  V30 10859 C 998.665 -2.30553 -0.106718 0
M  V30 10860 C 999.635 -1.42272 -0.85719 0
M  V30 10861 O 1000.82 -1.71199 -0.842357 0
M  V30 10862 C 997.96 -3.27226 -1.09623 0
M  V30 10863 C 997.073 -4.3061 -0.346329 0
M  V30 10864 C 996.208 -5.14389 -1.32581 0
M  V30 10865 C 995.247 -6.09497 -0.563892 0
M  V30 10866 N 994.384 -6.86047 -1.4928 0
M  V30 10867 H 999.224 -2.91344 0.626296 0
M  V30 10868 H 996.761 -1.43563 0.32065 0
M  V30 10869 H 998.719 -3.81744 -1.68308 0
M  V30 10870 H 997.349 -2.68182 -1.79662 0
M  V30 10871 H 996.401 -3.7873 0.356084 0
M  V30 10872 H 997.713 -4.98183 0.248026 0
M  V30 10873 H 996.867 -5.73321 -1.98464 0
M  V30 10874 H 995.606 -4.4684 -1.9541 0
M  V30 10875 H 994.611 -5.49693 0.108551 0
M  V30 10876 H 995.836 -6.79074 0.0593872 0
M  V30 10877 H 993.782 -6.21185 -2.10868 0
M  V30 10878 H 993.699 -7.49983 -0.951953 0
M  V30 10879 H 994.967 -7.49518 -2.14112 0
M  V30 10880 N 999.196 -0.349774 -1.5367 0
M  V30 10881 C 1000.44 0.237837 -2.02005 0
M  V30 10882 C 1000.8 1.477 -1.23298 0
M  V30 10883 O 1000.09 1.8901 -0.313947 0
M  V30 10884 C 1000.28 0.598311 -3.52356 0
M  V30 10885 C 1000.11 -0.604368 -4.4562 0
M  V30 10886 C 998.883 -1.1116 -4.92922 0
M  V30 10887 C 1001.08 -1.46474 -4.93001 0
M  V30 10888 N 999.063 -2.27595 -5.70152 0
M  V30 10889 C 1000.43 -2.47593 -5.68417 0
M  V30 10890 C 1002.49 -1.48947 -4.75099 0
M  V30 10891 C 1001.19 -3.51021 -6.27835 0
M  V30 10892 C 1003.22 -2.51259 -5.35372 0
M  V30 10893 C 1002.58 -3.51103 -6.1066 0
M  V30 10894 H 998.679 0.0501688 -0.780389 0
M  V30 10895 H 1001.26 -0.490748 -1.88414 0
M  V30 10896 H 999.434 1.29599 -3.6614 0
M  V30 10897 H 1001.17 1.16965 -3.87429 0
M  V30 10898 H 997.921 -0.678699 -4.68712 0
M  V30 10899 H 998.345 -2.864 -6.13436 0
M  V30 10900 H 1002.99 -0.731138 -4.1643 0
M  V30 10901 H 1000.7 -4.27745 -6.85609 0
M  V30 10902 H 1004.29 -2.54006 -5.23423 0
M  V30 10903 H 1003.17 -4.28974 -6.56469 0
M  V30 10904 N 1000.67 1.57404 -0.0785433 0
M  V30 10905 C 1001.62 2.14316 0.903949 0
M  V30 10906 C 1002.62 1.08176 1.30362 0
M  V30 10907 O 1003.82 1.26546 1.28008 0
M  V30 10908 H 1000.2 0.685367 0.309477 0
M  V30 10909 H 1002.17 2.95719 0.399081 0
M  V30 10910 C 1000.92 2.72504 2.15956 0
M  V30 10911 H 1000.24 3.53853 1.86087 0
M  V30 10912 H 1001.68 3.15914 2.82798 0
M  V30 10913 C 1000.14 1.6759 2.92259 0
M  V30 10914 O 1000.67 1.10492 3.86205 0
M  V30 10915 N 998.875 1.38467 2.5549 0
M  V30 10916 H 998.422 1.85088 1.79166 0
M  V30 10917 H 998.38 0.685053 3.06846 0
M  V30 10918 N 1002.15 -0.195058 1.56388 0
M  V30 10919 C 1003.4 -0.9168 1.80894 0
M  V30 10920 C 1003.73 -1.82907 0.652592 0
M  V30 10921 O 1003.01 -1.91382 -0.346853 0
M  V30 10922 C 1003.29 -1.733 3.15657 0
M  V30 10923 C 1003.14 -0.845449 4.41783 0
M  V30 10924 C 1004.46 -2.70557 3.47112 0
M  V30 10925 H 1001.58 -0.331861 0.658056 0
M  V30 10926 H 1004.22 -0.184174 1.89105 0
M  V30 10927 H 1002.37 -2.3576 3.08787 0
M  V30 10928 H 1004.04 -0.235557 4.60698 0
M  V30 10929 H 1002.29 -0.152172 4.33533 0
M  V30 10930 H 1002.96 -1.45152 5.32574 0
M  V30 10931 H 1005.43 -2.1823 3.54281 0
M  V30 10932 H 1004.31 -3.24749 4.42526 0
M  V30 10933 H 1004.57 -3.49605 2.70608 0
M  V30 10934 N 1003.63 -1.50653 -0.462772 0
M  V30 10935 C 1005.04 -1.54821 -1.04342 0
M  V30 10936 C 1005.39 -0.356595 -1.92932 0
M  V30 10937 O 1004.52 0.529579 -2.0982 0
M  V30 10938 C 1005.11 -2.80571 -1.89909 0
M  V30 10939 C 1003.67 -2.87394 -2.43067 0
M  V30 10940 C 1002.82 -2.49206 -1.21621 0
M  V30 10941 H 1005.77 -1.56797 -0.245048 0
M  V30 10942 H 1005.79 -2.62897 -2.75074 0
M  V30 10943 H 1005.3 -3.67281 -1.25405 0
M  V30 10944 H 1003.4 -2.05055 -3.111 0
M  V30 10945 H 1003.52 -3.90477 -2.77605 0
M  V30 10946 H 1001.88 -2.01829 -1.55361 0
M  V30 10947 H 1002.66 -3.38233 -0.587669 0
M  V30 10948 N 1005.11 0.71652 -1.4037 0
M  V30 10949 C 1006.36 1.47193 -1.37903 0
M  V30 10950 C 1006.67 1.95593 0.0159939 0
M  V30 10951 O 1007.88 2.71009 0.163282 0
M  V30 10952 C 1006.33 2.6606 -2.42363 0
M  V30 10953 C 1005.94 2.24533 -3.87671 0
M  V30 10954 C 1007.68 3.438 -2.49001 0
M  V30 10955 C 1005.59 3.40234 -4.8373 0
M  V30 10956 H 1004.52 0.552811 -0.512753 0
M  V30 10957 H 1007.17 0.779894 -1.66102 0
M  V30 10958 H 1005.55 3.37429 -2.07262 0
M  V30 10959 H 1006.73 1.6059 -4.31911 0
M  V30 10960 H 1005.04 1.59839 -3.845 0
M  V30 10961 H 1007.64 4.29893 -3.17956 0
M  V30 10962 H 1007.98 3.8755 -1.52023 0
M  V30 10963 H 1008.52 2.79474 -2.83088 0
M  V30 10964 H 1005.26 3.01517 -5.82037 0
M  V30 10965 H 1004.78 4.03095 -4.44156 0
M  V30 10966 H 1006.45 4.06312 -5.03507 0
M  V30 10967 N 1006.59 1.25851 0.948643 0
M  V30 10968 C 1007.84 1.10347 1.68838 0
M  V30 10969 C 1008.15 -0.354262 1.92365 0
M  V30 10970 O 1009.35 -0.629847 2.64093 0
M  V30 10971 C 1007.81 1.92659 3.03991 0
M  V30 10972 C 1007.42 3.42962 2.88238 0
M  V30 10973 C 1009.16 1.85743 3.81707 0
M  V30 10974 C 1007.07 4.17547 4.18818 0
M  V30 10975 H 1006 0.409342 0.63321 0
M  V30 10976 H 1008.65 1.50098 1.05559 0
M  V30 10977 H 1007.03 1.45736 3.68208 0
M  V30 10978 H 1008.21 3.97601 2.32917 0
M  V30 10979 H 1006.52 3.51035 2.23972 0
M  V30 10980 H 1009.12 2.38758 4.78434 0
M  V30 10981 H 1009.46 0.826568 4.08012 0
M  V30 10982 H 1009.99 2.30449 3.2425 0
M  V30 10983 H 1006.73 5.21072 3.97699 0
M  V30 10984 H 1006.25 3.6769 4.73882 0
M  V30 10985 H 1007.93 4.25589 4.87322 0
M  V30 10986 N 1008.06 -1.15214 1.07534 0
M  V30 10987 C 1009.29 -1.89922 0.820804 0
M  V30 10988 C 1009.71 -1.78114 -0.626177 0
M  V30 10989 O 1009.06 -1.13435 -1.42964 0
M  V30 10990 C 1009.12 -3.40207 1.22236 0
M  V30 10991 O 1008.84 -3.51676 2.61257 0
M  V30 10992 C 1010.34 -4.31934 0.997393 0
M  V30 10993 H 1007.56 -0.601865 0.296647 0
M  V30 10994 H 1010.1 -1.45965 1.43229 0
M  V30 10995 H 1008.26 -3.8182 0.655167 0
M  V30 10996 H 1008.67 -4.44959 2.77689 0
M  V30 10997 H 1010.14 -5.35791 1.32785 0
M  V30 10998 H 1010.62 -4.3915 -0.0661599 0
M  V30 10999 H 1011.23 -3.96066 1.54958 0
M  V30 11000 N 1009.54 -0.859717 -1.32086 0
M  V30 11001 C 1010.49 -0.306042 -2.28762 0
M  V30 11002 C 1011.46 0.589801 -1.55276 0
M  V30 11003 O 1012.64 0.523633 -1.83474 0
M  V30 11004 C 1009.78 0.495256 -3.41528 0
M  V30 11005 C 1008.9 -0.426947 -4.29885 0
M  V30 11006 C 1008.03 0.387474 -5.29785 0
M  V30 11007 C 1007.07 -0.531807 -6.09785 0
M  V30 11008 N 1006.21 0.245741 -7.0167 0
M  V30 11009 H 1011.05 -1.1357 -2.7551 0
M  V30 11010 H 1008.59 -0.571468 -1.35546 0
M  V30 11011 H 1010.54 0.97551 -4.05635 0
M  V30 11012 H 1009.17 1.28969 -2.95917 0
M  V30 11013 H 1008.23 -1.02561 -3.66313 0
M  V30 11014 H 1009.54 -1.13226 -4.85779 0
M  V30 11015 H 1008.69 0.930677 -5.99519 0
M  V30 11016 H 1007.43 1.12612 -4.74521 0
M  V30 11017 H 1006.44 -1.08685 -5.3895 0
M  V30 11018 H 1007.66 -1.26915 -6.67135 0
M  V30 11019 H 1005.61 0.967391 -6.48828 0
M  V30 11020 H 1005.52 -0.400432 -7.54939 0
M  V30 11021 H 1006.79 0.770507 -7.75683 0
M  V30 11022 N 1011.02 1.44971 -0.618145 0
M  V30 11023 C 1011.95 2.33357 0.0815955 0
M  V30 11024 C 1012.93 1.47451 0.848072 0
M  V30 11025 O 1014.12 1.762 0.816532 0
M  V30 11026 C 1011.25 3.30324 1.07253 0
M  V30 11027 C 1010.2 4.25948 0.418563 0
M  V30 11028 C 1009.53 5.12685 1.51849 0
M  V30 11029 C 1010.83 5.18024 -0.66697 0
M  V30 11030 H 1012.52 2.92115 -0.656442 0
M  V30 11031 H 1010.07 1.40465 -0.317129 0
M  V30 11032 H 1012.02 3.91033 1.57069 0
M  V30 11033 H 1010.74 2.69748 1.8413 0
M  V30 11034 H 1009.4 3.66553 -0.0588308 0
M  V30 11035 H 1009.05 4.4847 2.2778 0
M  V30 11036 H 1008.75 5.7747 1.08637 0
M  V30 11037 H 1010.27 5.76264 2.01871 0
M  V30 11038 H 1011.69 5.72744 -0.252448 0
M  V30 11039 H 1010.09 5.91343 -1.02146 0
M  V30 11040 H 1011.16 4.59817 -1.53936 0
M  V30 11041 N 1012.5 0.357919 1.53482 0
M  V30 11042 C 1013.41 -0.500273 2.29204 0
M  V30 11043 C 1014.42 -1.09936 1.3487 0
M  V30 11044 O 1015.6 -1.11195 1.67921 0
M  V30 11045 C 1012.67 -1.62828 3.06085 0
M  V30 11046 C 1011.73 -1.05751 4.16071 0
M  V30 11047 C 1010.96 -2.13176 4.89277 0
M  V30 11048 O 1011.18 -3.34153 4.62274 0
M  V30 11049 O 1010.12 -1.76663 5.7539 0
M  V30 11050 H 1013.94 0.115696 3.0348 0
M  V30 11051 H 1011.53 0.122527 1.48897 0
M  V30 11052 H 1013.41 -2.28427 3.54117 0
M  V30 11053 H 1012.08 -2.22979 2.34653 0
M  V30 11054 H 1010.99 -0.365642 3.72309 0
M  V30 11055 H 1012.32 -0.500661 4.89647 0
M  V30 11056 N 1013.98 -1.5736 0.0868897 0
M  V30 11057 C 1015.22 -1.9367 -0.577598 0
M  V30 11058 C 1015.55 -0.968844 -1.69229 0
M  V30 11059 O 1014.82 -0.0195061 -1.9589 0
M  V30 11060 H 1013.4 -0.714983 -0.216353 0
M  V30 11061 H 1016.06 -1.94335 0.148294 0
M  V30 11062 H 1015.15 -2.95877 -0.993128 0
M  V30 11063 N 1015.45 0.186762 -1.56489 0
M  V30 11064 C 1016.38 1.23395 -1.98232 0
M  V30 11065 C 1017.37 1.4702 -0.855526 0
M  V30 11066 O 1018.55 1.58616 -1.12048 0
M  V30 11067 C 1015.68 2.57635 -2.32898 0
M  V30 11068 C 1014.63 2.48607 -3.48394 0
M  V30 11069 C 1013.96 3.87196 -3.68759 0
M  V30 11070 C 1015.26 2.00398 -4.82325 0
M  V30 11071 H 1016.95 0.887026 -2.85958 0
M  V30 11072 H 1014.5 0.42525 -1.37578 0
M  V30 11073 H 1016.45 3.31082 -2.60696 0
M  V30 11074 H 1015.18 2.94084 -1.42064 0
M  V30 11075 H 1013.84 1.77615 -3.207 0
M  V30 11076 H 1013.48 4.21012 -2.75241 0
M  V30 11077 H 1013.18 3.82029 -4.46462 0
M  V30 11078 H 1014.71 4.62253 -3.98941 0
M  V30 11079 H 1016.12 2.6361 -5.091 0
M  V30 11080 H 1014.52 2.06214 -5.63556 0
M  V30 11081 H 1015.59 0.957562 -4.75351 0
M  V30 11082 N 1016.93 1.50896 0.454776 0
M  V30 11083 C 1017.88 1.70947 1.55067 0
M  V30 11084 C 1018.85 0.550899 1.56698 0
M  V30 11085 O 1020.03 0.783352 1.73978 0
M  V30 11086 C 1017.17 1.82455 2.92924 0
M  V30 11087 C 1016.29 3.09919 3.00956 0
M  V30 11088 C 1015.42 3.12125 4.29827 0
M  V30 11089 C 1014.46 4.33975 4.31662 0
M  V30 11090 N 1013.6 4.33828 5.5203 0
M  V30 11091 H 1018.44 2.645 1.37273 0
M  V30 11092 H 1015.98 1.31101 0.667148 0
M  V30 11093 H 1017.93 1.87108 3.72889 0
M  V30 11094 H 1016.56 0.92327 3.09315 0
M  V30 11095 H 1015.62 3.14659 2.13761 0
M  V30 11096 H 1016.93 3.99869 2.98172 0
M  V30 11097 H 1016.08 3.15598 5.18154 0
M  V30 11098 H 1014.82 2.20033 4.35243 0
M  V30 11099 H 1013.83 4.30697 3.41731 0
M  V30 11100 H 1015.05 5.27312 4.27924 0
M  V30 11101 H 1013 3.44598 5.58201 0
M  V30 11102 H 1012.91 5.17566 5.51055 0
M  V30 11103 H 1014.18 4.4147 6.42437 0
M  V30 11104 N 1018.41 -0.709066 1.40748 0
M  V30 11105 C 1019.66 -1.46611 1.39103 0
M  V30 11106 C 1019.98 -1.95 -0.00365366 0
M  V30 11107 O 1019.25 -1.70791 -0.959541 0
M  V30 11108 H 1017.83 -0.543954 0.511979 0
M  V30 11109 H 1020.49 -0.840141 1.75863 0
M  V30 11110 H 1019.59 -2.33581 2.06994 0
M  V30 11111 N 1019.89 -1.26353 -0.941956 0
M  V30 11112 C 1021.11 -1.14731 -1.72776 0
M  V30 11113 C 1021.54 0.293766 -1.85792 0
M  V30 11114 O 1020.9 1.21284 -1.34759 0
M  V30 11115 C 1020.95 -1.82041 -3.11277 0
M  V30 11116 O 1020.05 -1.10867 -3.97218 0
M  V30 11117 H 1019.39 -0.399823 -0.53013 0
M  V30 11118 H 1021.92 -1.67157 -1.17981 0
M  V30 11119 H 1021.93 -1.88834 -3.61671 0
M  V30 11120 H 1020.61 -2.86879 -3.0112 0
M  V30 11121 H 1019.18 -1.12044 -3.55669 0
M  V30 11122 N 1021.37 1.14642 -1.08144 0
M  V30 11123 C 1022.78 1.37604 -0.808537 0
M  V30 11124 C 1022.98 1.92868 0.583452 0
M  V30 11125 O 1022.04 2.13964 1.34073 0
M  V30 11126 C 1023.35 2.3396 -1.889 0
M  V30 11127 C 1024.9 2.47605 -1.9147 0
M  V30 11128 C 1025.38 3.47258 -2.98623 0
M  V30 11129 N 1026.87 3.548 -2.97777 0
M  V30 11130 C 1027.6 4.31751 -3.77331 0
M  V30 11131 N 1027.1 5.11966 -4.66757 0
M  V30 11132 N 1028.89 4.2692 -3.65645 0
M  V30 11133 H 1021.04 0.771154 -1.97906 0
M  V30 11134 H 1023.3 0.401694 -0.858688 0
M  V30 11135 H 1023.01 2.00484 -2.88962 0
M  V30 11136 H 1022.88 3.33833 -1.756 0
M  V30 11137 H 1025.27 2.80375 -0.920548 0
M  V30 11138 H 1025.35 1.47702 -2.08848 0
M  V30 11139 H 1025 3.15223 -3.98243 0
M  V30 11140 H 1024.93 4.46935 -2.7849 0
M  V30 11141 H 1027.42 2.97553 -2.3296 0
M  V30 11142 H 1027.73 5.67951 -5.24072 0
M  V30 11143 H 1026.08 5.11245 -4.70801 0
M  V30 11144 H 1029.27 3.63322 -2.95152 0
M  V30 11145 H 1029.44 4.8664 -4.27885 0
M  V30 11146 N 1022.85 0.866709 1.31628 0
M  V30 11147 C 1024.09 0.476026 1.96825 0
M  V30 11148 C 1024.42 -0.970994 1.68529 0
M  V30 11149 O 1023.68 -1.69823 0.97255 0
M  V30 11150 C 1023.97 0.676018 3.50948 0
M  V30 11151 C 1023.64 2.09533 3.99258 0
M  V30 11152 C 1022.3 2.48349 4.1216 0
M  V30 11153 C 1024.65 3.02112 4.24709 0
M  V30 11154 C 1021.98 3.78991 4.47864 0
M  V30 11155 C 1024.33 4.32266 4.61875 0
M  V30 11156 C 1023 4.71 4.72985 0
M  V30 11157 H 1022.27 0.17419 0.720235 0
M  V30 11158 H 1024.92 1.09907 1.5682 0
M  V30 11159 H 1023.22 -0.0301867 3.91788 0
M  V30 11160 H 1024.92 0.353604 3.99438 0
M  V30 11161 H 1021.51 1.78396 3.89709 0
M  V30 11162 H 1025.69 2.73351 4.14238 0
M  V30 11163 H 1020.95 4.08769 4.54663 0
M  V30 11164 H 1025.12 5.04055 4.80522 0
M  V30 11165 H 1022.75 5.72273 5.00407 0
M  V30 11166 N 1024.32 -1.44642 0.625825 0
M  V30 11167 C 1025.6 -1.9551 0.0593587 0
M  V30 11168 C 1025.98 -1.56792 -1.41349 0
M  V30 11169 O 1025.33 -0.839373 -2.12525 0
M  V30 11170 C 1025.54 -3.47902 0.276647 0
M  V30 11171 C 1026.89 -4.24271 0.167044 0
M  V30 11172 O 1027.91 -3.55594 0.207731 0
M  V30 11173 O 1026.77 -5.46458 0.0675 0
M  V30 11174 H 1023.86 -0.826612 -0.0253422 0
M  V30 11175 H 1026.41 -1.54718 0.697159 0
M  V30 11176 H 1025.18 -3.69115 1.29885 0
M  V30 11177 H 1024.8 -3.95628 -0.395547 0
M  V30 11178 N 1025.8 -0.366053 -1.5329 0
M  V30 11179 C 1027.05 0.224614 -2.00445 0
M  V30 11180 C 1027.36 1.49829 -1.2574 0
M  V30 11181 O 1028.57 2.16759 -1.63487 0
M  V30 11182 C 1027.03 0.450818 -3.57065 0
M  V30 11183 C 1026.63 -0.808257 -4.40649 0
M  V30 11184 C 1028.38 0.999116 -4.12575 0
M  V30 11185 C 1026.28 -0.551612 -5.88822 0
M  V30 11186 H 1025.21 0.0877114 -0.748881 0
M  V30 11187 H 1027.87 -0.484866 -1.76978 0
M  V30 11188 H 1026.25 1.22157 -3.76688 0
M  V30 11189 H 1027.42 -1.58184 -4.32798 0
M  V30 11190 H 1025.74 -1.27981 -3.96245 0
M  V30 11191 H 1028.33 1.20646 -5.20911 0
M  V30 11192 H 1028.68 1.96139 -3.67199 0
M  V30 11193 H 1029.21 0.288518 -3.96752 0
M  V30 11194 H 1025.95 -1.48423 -6.38475 0
M  V30 11195 H 1025.47 0.183462 -5.99519 0
M  V30 11196 H 1027.15 -0.177307 -6.46757 0
M  V30 11197 N 1027.28 1.57312 -0.0952337 0
M  V30 11198 C 1028.69 1.81589 0.433875 0
M  V30 11199 C 1029.04 1.01086 1.68155 0
M  V30 11200 O 1028.17 0.240272 2.15062 0
M  V30 11201 C 1028.76 3.29366 0.793931 0
M  V30 11202 C 1027.32 3.54407 1.26778 0
M  V30 11203 C 1026.47 2.76035 0.264518 0
M  V30 11204 H 1029.42 1.55426 -0.320675 0
M  V30 11205 H 1029.44 3.42697 1.65345 0
M  V30 11206 H 1028.95 3.87932 -0.114334 0
M  V30 11207 H 1027.05 3.01173 2.19376 0
M  V30 11208 H 1027.17 4.63055 1.22952 0
M  V30 11209 H 1025.53 2.43509 0.746691 0
M  V30 11210 H 1026.31 3.37349 -0.636429 0
M  V30 11211 N 1028.76 -0.17846 1.56586 0
M  V30 11212 C 1030.01 -0.894502 1.8078 0
M  V30 11213 C 1030.32 -1.8372 0.67129 0
M  V30 11214 O 1031.53 -2.59509 0.797971 0
M  V30 11215 C 1029.98 -1.64109 3.20306 0
M  V30 11216 C 1029.59 -0.742387 4.41806 0
M  V30 11217 C 1031.33 -2.34578 3.53798 0
M  V30 11218 C 1029.24 -1.4888 5.72354 0
M  V30 11219 H 1028.17 -0.33776 0.674117 0
M  V30 11220 H 1030.82 -0.14752 1.82906 0
M  V30 11221 H 1029.2 -2.43257 3.12477 0
M  V30 11222 H 1030.38 0.011615 4.60799 0
M  V30 11223 H 1028.69 -0.147705 4.16138 0
M  V30 11224 H 1031.29 -2.91004 4.48577 0
M  V30 11225 H 1031.63 -3.09572 2.78336 0
M  V30 11226 H 1032.17 -1.62381 3.63149 0
M  V30 11227 H 1028.9 -0.781325 6.50827 0
M  V30 11228 H 1028.42 -2.21631 5.57351 0
M  V30 11229 H 1030.1 -2.03819 6.14058 0
M  V30 11230 N 1030.24 -1.51135 -0.446768 0
M  V30 11231 C 1031.17 -1.74709 -1.54916 0
M  V30 11232 C 1032.15 -0.596628 -1.59293 0
M  V30 11233 O 1033.33 -0.838356 -1.75172 0
M  V30 11234 C 1030.46 -1.86353 -2.9307 0
M  V30 11235 C 1029.42 -3.01725 -3.03556 0
M  V30 11236 C 1028.74 -2.9854 -4.43597 0
M  V30 11237 C 1030.04 -4.41848 -2.7851 0
M  V30 11238 H 1031.74 -2.67014 -1.3544 0
M  V30 11239 H 1029.28 -1.28489 -0.650131 0
M  V30 11240 H 1031.23 -2.01428 -3.70141 0
M  V30 11241 H 1029.96 -0.906887 -3.13756 0
M  V30 11242 H 1028.62 -2.86339 -2.28922 0
M  V30 11243 H 1028.27 -2.00673 -4.61237 0
M  V30 11244 H 1027.97 -3.76008 -4.51544 0
M  V30 11245 H 1029.49 -3.15696 -5.22655 0
M  V30 11246 H 1030.9 -4.57633 -3.45319 0
M  V30 11247 H 1029.3 -5.2095 -2.97877 0
M  V30 11248 H 1030.37 -4.52536 -1.74182 0
M  V30 11249 N 1031.71 0.701592 -1.41122 0
M  V30 11250 C 1032.62 1.84548 -1.44841 0
M  V30 11251 C 1033.64 1.70654 -0.339594 0
M  V30 11252 O 1034.82 1.92675 -0.586378 0
M  V30 11253 C 1031.88 3.20477 -1.3227 0
M  V30 11254 C 1030.94 3.46524 -2.53415 0
M  V30 11255 C 1030.17 4.75968 -2.41434 0
M  V30 11256 O 1030.4 5.52037 -1.43566 0
M  V30 11257 O 1029.33 5.02664 -3.31078 0
M  V30 11258 H 1033.16 1.84367 -2.41335 0
M  V30 11259 H 1030.74 0.853863 -1.22595 0
M  V30 11260 H 1032.62 4.01642 -1.2752 0
M  V30 11261 H 1031.3 3.21355 -0.388889 0
M  V30 11262 H 1030.21 2.65313 -2.63742 0
M  V30 11263 H 1031.54 3.50455 -3.45604 0
M  V30 11264 N 1033.19 1.2685 0.935242 0
M  V30 11265 C 1034.42 1.15645 1.72165 0
M  V30 11266 C 1034.84 -0.283909 1.85945 0
M  V30 11267 O 1034.2 -1.20567 1.354 0
M  V30 11268 C 1034.25 1.83689 3.10307 0
M  V30 11269 O 1033.35 1.12972 3.96625 0
M  V30 11270 H 1032.69 0.402629 0.528002 0
M  V30 11271 H 1035.22 1.67781 1.17093 0
M  V30 11272 H 1035.23 1.90749 3.60664 0
M  V30 11273 H 1033.91 2.88472 2.99595 0
M  V30 11274 H 1032.48 1.13929 3.5507 0
M  V30 11275 N 1034.67 -1.14067 1.0875 0
M  V30 11276 C 1035.6 -2.21385 0.74236 0
M  V30 11277 C 1036.58 -1.67833 -0.276805 0
M  V30 11278 O 1037.77 -1.93647 -0.1464 0
M  V30 11279 C 1034.9 -3.46956 0.154644 0
M  V30 11280 C 1033.85 -4.13555 1.10255 0
M  V30 11281 C 1033.18 -5.3337 0.376877 0
M  V30 11282 C 1034.48 -4.6169 2.44213 0
M  V30 11283 H 1036.17 -2.50512 1.63964 0
M  V30 11284 H 1033.72 -1.20408 0.789807 0
M  V30 11285 H 1035.67 -4.21284 -0.0988419 0
M  V30 11286 H 1034.39 -3.17203 -0.777789 0
M  V30 11287 H 1033.05 -3.41186 1.34119 0
M  V30 11288 H 1032.7 -4.99879 -0.559472 0
M  V30 11289 H 1032.4 -5.78875 1.00884 0
M  V30 11290 H 1033.92 -6.10458 0.131527 0
M  V30 11291 H 1035.34 -5.27475 2.24595 0
M  V30 11292 H 1033.74 -5.17909 3.03134 0
M  V30 11293 H 1034.81 -3.76574 3.05483 0
M  V30 11294 N 1036.15 -0.873678 -1.31166 0
M  V30 11295 C 1037.56 -0.566109 -1.49223 0
M  V30 11296 C 1037.76 0.898889 -1.80339 0
M  V30 11297 O 1036.82 1.68084 -1.88425 0
M  V30 11298 C 1038.13 -1.46952 -2.62346 0
M  V30 11299 C 1039.68 -1.47195 -2.76229 0
M  V30 11300 C 1040.16 -2.36102 -3.92454 0
M  V30 11301 N 1041.65 -2.34003 -3.99746 0
M  V30 11302 C 1042.38 -2.99513 -4.88958 0
M  V30 11303 N 1041.88 -3.74206 -5.83045 0
M  V30 11304 N 1043.67 -2.88802 -4.82234 0
M  V30 11305 H 1035.82 -1.82156 -1.09239 0
M  V30 11306 H 1038.09 -0.779086 -0.54012 0
M  V30 11307 H 1037.79 -2.51213 -2.4614 0
M  V30 11308 H 1037.67 -1.17077 -3.5857 0
M  V30 11309 H 1040.05 -0.436902 -2.91848 0
M  V30 11310 H 1040.13 -1.81095 -1.80661 0
M  V30 11311 H 1039.78 -3.39685 -3.77593 0
M  V30 11312 H 1039.71 -1.99524 -4.87337 0
M  V30 11313 H 1042.2 -1.79713 -3.32433 0
M  V30 11314 H 1042.51 -4.21312 -6.47855 0
M  V30 11315 H 1040.86 -3.78314 -5.83012 0
M  V30 11316 H 1044.05 -2.29984 -4.07707 0
M  V30 11317 H 1044.22 -3.40136 -5.51554 0
M  V30 11318 N 1037.63 1.44308 -0.633487 0
M  V30 11319 C 1038.87 2.02863 -0.14765 0
M  V30 11320 C 1039.23 1.48956 1.21778 0
M  V30 11321 O 1038.52 0.664997 1.7969 0
M  V30 11322 C 1038.71 3.57316 -0.0773886 0
M  V30 11323 C 1038.54 4.26208 -1.43446 0
M  V30 11324 C 1037.31 4.63087 -2.02184 0
M  V30 11325 C 1039.51 4.56501 -2.36879 0
M  V30 11326 N 1037.49 5.16957 -3.31102 0
M  V30 11327 C 1038.86 5.11479 -3.50413 0
M  V30 11328 C 1040.92 4.38454 -2.35929 0
M  V30 11329 C 1039.62 5.50311 -4.63196 0
M  V30 11330 C 1041.65 4.78336 -3.47777 0
M  V30 11331 C 1041.01 5.3343 -4.60035 0
M  V30 11332 H 1037.11 0.775835 -0.0980038 0
M  V30 11333 H 1039.69 1.75767 -0.837495 0
M  V30 11334 H 1037.86 3.84019 0.581743 0
M  V30 11335 H 1039.6 4.02541 0.417494 0
M  V30 11336 H 1036.35 4.47482 -1.55103 0
M  V30 11337 H 1036.78 5.48366 -3.97019 0
M  V30 11338 H 1041.42 3.9515 -1.50387 0
M  V30 11339 H 1039.14 5.92568 -5.49444 0
M  V30 11340 H 1042.72 4.66084 -3.4822 0
M  V30 11341 H 1041.6 5.63719 -5.45151 0
M  V30 11342 N 1039.1 0.374177 1.53094 0
M  V30 11343 C 1040.35 -0.213981 2.00562 0
M  V30 11344 C 1040.67 -1.4916 1.26533 0
M  V30 11345 O 1041.87 -2.15889 1.64634 0
M  V30 11346 C 1040.33 -0.431876 3.57299 0
M  V30 11347 C 1039.94 0.831615 4.40214 0
M  V30 11348 C 1041.68 -0.977222 4.13099 0
M  V30 11349 C 1039.59 0.582831 5.88521 0
M  V30 11350 H 1038.52 -0.0837386 0.749336 0
M  V30 11351 H 1041.17 0.494245 1.76719 0
M  V30 11352 H 1039.55 -1.20158 3.7733 0
M  V30 11353 H 1040.72 1.60477 4.31953 0
M  V30 11354 H 1039.04 1.30081 3.9556 0
M  V30 11355 H 1041.64 -1.17881 5.21544 0
M  V30 11356 H 1041.98 -1.94189 3.68234 0
M  V30 11357 H 1042.51 -0.267473 3.969 0
M  V30 11358 H 1039.25 1.51807 6.37679 0
M  V30 11359 H 1038.77 -0.151666 5.99608 0
M  V30 11360 H 1040.45 0.211604 6.46654 0
M  V30 11361 N 1040.58 -1.57259 0.103575 0
M  V30 11362 C 1041.83 -1.94657 -0.558126 0
M  V30 11363 C 1042.16 -0.985886 -1.67662 0
M  V30 11364 O 1041.41 -0.0069745 -1.95699 0
M  V30 11365 C 1041.71 -3.38549 -1.14538 0
M  V30 11366 C 1041.38 -4.50651 -0.149818 0
M  V30 11367 C 1040.04 -4.8104 0.12398 0
M  V30 11368 C 1042.39 -5.18503 0.529497 0
M  V30 11369 C 1039.72 -5.76606 1.08364 0
M  V30 11370 C 1042.07 -6.15099 1.47769 0
M  V30 11371 C 1040.74 -6.43889 1.75963 0
M  V30 11372 H 1040.01 -0.712299 -0.204233 0
M  V30 11373 H 1042.65 -1.90641 0.181208 0
M  V30 11374 H 1040.96 -3.39185 -1.96115 0
M  V30 11375 H 1042.65 -3.6479 -1.66521 0
M  V30 11376 H 1039.24 -4.2697 -0.373404 0
M  V30 11377 H 1043.43 -4.95194 0.331121 0
M  V30 11378 H 1038.68 -5.97223 1.30899 0
M  V30 11379 H 1042.86 -6.66767 2.00983 0
M  V30 11380 H 1040.49 -7.17749 2.50481 0
M  V30 11381 N 1042.06 0.170153 -1.56679 0
M  V30 11382 C 1043.01 1.21064 -1.965 0
M  V30 11383 C 1043.98 1.43928 -0.829092 0
M  V30 11384 O 1045.16 1.56649 -1.08931 0
M  V30 11385 C 1042.3 2.54468 -2.33109 0
M  V30 11386 C 1041.42 2.38974 -3.59883 0
M  V30 11387 C 1040.55 3.65252 -3.857 0
M  V30 11388 C 1039.59 3.44696 -5.05817 0
M  V30 11389 N 1038.73 4.63047 -5.27761 0
M  V30 11390 H 1043.57 0.864055 -2.85198 0
M  V30 11391 H 1041.1 0.415243 -1.41117 0
M  V30 11392 H 1043.06 3.32222 -2.52358 0
M  V30 11393 H 1041.69 2.8712 -1.4752 0
M  V30 11394 H 1040.74 1.5239 -3.48542 0
M  V30 11395 H 1042.06 2.19731 -4.47794 0
M  V30 11396 H 1041.21 4.51441 -4.05322 0
M  V30 11397 H 1039.95 3.87475 -2.96166 0
M  V30 11398 H 1038.95 2.56893 -4.86092 0
M  V30 11399 H 1040.18 3.23894 -5.96883 0
M  V30 11400 H 1038.12 4.85487 -4.41179 0
M  V30 11401 H 1038.04 4.46722 -6.09898 0
M  V30 11402 H 1039.31 5.50516 -5.51863 0
M  V30 11403 N 1043.54 1.5137 0.438746 0
M  V30 11404 C 1044.49 1.68966 1.53083 0
M  V30 11405 C 1045.47 0.543669 1.51437 0
M  V30 11406 O 1046.66 0.799519 1.57914 0
M  V30 11407 C 1043.79 1.8168 2.91286 0
M  V30 11408 C 1042.88 3.02059 2.97693 0
M  V30 11409 N 1043.27 4.25254 2.73848 0
M  V30 11410 C 1041.57 3.01284 3.28852 0
M  V30 11411 C 1042.27 5.06501 2.86062 0
M  V30 11412 N 1041.25 4.41119 3.17671 0
M  V30 11413 H 1045.05 2.61883 1.33397 0
M  V30 11414 H 1042.56 1.48997 0.64603 0
M  V30 11415 H 1044.56 1.92396 3.6985 0
M  V30 11416 H 1043.22 0.899438 3.11994 0
M  V30 11417 H 1044.23 4.54222 2.48803 0
M  V30 11418 H 1040.91 2.19174 3.55344 0
M  V30 11419 H 1042.3 6.14563 2.71592 0
M  V30 11420 N 1045.02 -0.694098 1.41492 0
M  V30 11421 C 1046.26 -1.4563 1.41137 0
M  V30 11422 C 1046.6 -1.94189 0.0208428 0
M  V30 11423 O 1045.87 -1.69628 -0.951655 0
M  V30 11424 C 1046.15 -2.66714 2.41941 0
M  V30 11425 C 1046.01 -2.23912 3.90107 0
M  V30 11426 C 1047.33 -3.68913 2.39981 0
M  V30 11427 H 1044.44 -0.52821 0.513968 0
M  V30 11428 H 1047.09 -0.790437 1.72778 0
M  V30 11429 H 1045.24 -3.23525 2.1509 0
M  V30 11430 H 1046.91 -1.72417 4.27867 0
M  V30 11431 H 1045.15 -1.5568 4.04903 0
M  V30 11432 H 1045.82 -3.108 4.56188 0
M  V30 11433 H 1048.3 -3.21779 2.63813 0
M  V30 11434 H 1047.17 -4.51242 3.12524 0
M  V30 11435 H 1047.44 -4.18711 1.41892 0
M  V30 11436 N 1046.49 -1.27344 -0.928501 0
M  V30 11437 C 1047.46 -1.10043 -2.01055 0
M  V30 11438 C 1048.46 -0.0446793 -1.60738 0
M  V30 11439 O 1049.65 -0.289202 -1.71783 0
M  V30 11440 C 1046.78 -0.676559 -3.34119 0
M  V30 11441 H 1047.97 -2.06126 -2.17835 0
M  V30 11442 H 1045.53 -1.10121 -1.10919 0
M  V30 11443 H 1046.26 0.285697 -3.23039 0
M  V30 11444 H 1046.05 -1.43903 -3.64739 0
M  V30 11445 H 1047.54 -0.577725 -4.13584 0
M  V30 11446 N 1047.97 1.13488 -1.09353 0
M  V30 11447 C 1048.92 2.18876 -0.732251 0
M  V30 11448 C 1049.89 1.63616 0.286175 0
M  V30 11449 O 1051.07 1.90059 0.167981 0
M  V30 11450 C 1048.21 3.44737 -0.158157 0
M  V30 11451 C 1047.33 4.14104 -1.23053 0
M  V30 11452 C 1046.46 5.27578 -0.619272 0
M  V30 11453 C 1045.5 5.88793 -1.67301 0
M  V30 11454 N 1044.64 6.937 -1.08283 0
M  V30 11455 H 1049.48 2.49128 -1.63522 0
M  V30 11456 H 1047.02 1.22326 -0.816995 0
M  V30 11457 H 1048.97 4.16756 0.192488 0
M  V30 11458 H 1047.6 3.14938 0.708082 0
M  V30 11459 H 1046.66 3.40376 -1.69847 0
M  V30 11460 H 1047.97 4.55683 -2.02865 0
M  V30 11461 H 1047.12 6.0631 -0.217428 0
M  V30 11462 H 1045.86 4.87246 0.210399 0
M  V30 11463 H 1044.87 5.08756 -2.0844 0
M  V30 11464 H 1046.09 6.31197 -2.50533 0
M  V30 11465 H 1044.04 6.55426 -0.274426 0
M  V30 11466 H 1043.95 7.33817 -1.81792 0
M  V30 11467 H 1045.22 7.76286 -0.707167 0
M  V30 11468 N 1049.45 0.880621 1.30701 0
M  V30 11469 C 1050.68 0.511682 2.00473 0
M  V30 11470 C 1051.09 -0.898684 1.6604 0
M  V30 11471 O 1050.45 -1.59035 0.895218 0
M  V30 11472 C 1050.5 0.671723 3.55204 0
M  V30 11473 O 1050.22 2.02656 3.8841 0
M  V30 11474 C 1051.72 0.3052 4.42248 0
M  V30 11475 H 1048.94 0.198231 0.64105 0
M  V30 11476 H 1051.49 1.18472 1.66687 0
M  V30 11477 H 1049.64 0.0461066 3.87373 0
M  V30 11478 H 1050.06 2.04202 4.83117 0
M  V30 11479 H 1051.53 0.468095 5.50012 0
M  V30 11480 H 1052.01 -0.756456 4.32637 0
M  V30 11481 H 1052.61 0.906959 4.15517 0
M  V30 11482 N 1050.93 -1.4397 0.641131 0
M  V30 11483 C 1051.88 -2.2786 -0.079879 0
M  V30 11484 C 1052.86 -1.39227 -0.80651 0
M  V30 11485 O 1054.06 -1.62956 -0.690969 0
M  V30 11486 C 1051.18 -3.26722 -1.05394 0
M  V30 11487 C 1050.27 -4.22842 -0.326411 0
M  V30 11488 N 1050.66 -5.016 0.650464 0
M  V30 11489 C 1048.96 -4.42349 -0.569507 0
M  V30 11490 C 1049.66 -5.71563 1.08121 0
M  V30 11491 N 1048.64 -5.41991 0.417932 0
M  V30 11492 H 1052.44 -2.86163 0.669906 0
M  V30 11493 H 1049.95 -1.55528 0.467433 0
M  V30 11494 H 1051.95 -3.85588 -1.58517 0
M  V30 11495 H 1050.61 -2.69979 -1.80392 0
M  V30 11496 H 1051.62 -5.07581 1.0287 0
M  V30 11497 H 1048.3 -3.96693 -1.30159 0
M  V30 11498 H 1049.69 -6.44805 1.88883 0
M  V30 11499 N 1052.41 -0.382291 -1.52893 0
M  V30 11500 C 1053.34 0.447829 -2.29165 0
M  V30 11501 C 1054.32 1.06956 -1.32267 0
M  V30 11502 O 1055.5 1.08365 -1.61154 0
M  V30 11503 C 1052.63 1.57902 -3.09329 0
M  V30 11504 C 1051.59 1.08369 -4.14053 0
M  V30 11505 C 1050.91 2.30641 -4.82399 0
M  V30 11506 C 1052.21 0.156591 -5.22065 0
M  V30 11507 H 1053.91 -0.188541 -2.98806 0
M  V30 11508 H 1051.45 -0.0921179 -1.43705 0
M  V30 11509 H 1053.41 2.16652 -3.61442 0
M  V30 11510 H 1052.13 2.24287 -2.37409 0
M  V30 11511 H 1050.79 0.518772 -3.62911 0
M  V30 11512 H 1050.44 2.9552 -4.07034 0
M  V30 11513 H 1050.14 1.98163 -5.53177 0
M  V30 11514 H 1051.66 2.90047 -5.37313 0
M  V30 11515 H 1053.08 0.652065 -5.6958 0
M  V30 11516 H 1051.47 -0.0780978 -6.00049 0
M  V30 11517 H 1052.54 -0.796529 -4.78313 0
M  V30 11518 N 1053.89 1.57202 -0.111913 0
M  V30 11519 C 1054.83 2.14936 0.840908 0
M  V30 11520 C 1055.8 1.07242 1.2684 0
M  V30 11521 O 1056.99 1.35114 1.34718 0
M  V30 11522 C 1054.13 2.74743 2.0883 0
M  V30 11523 C 1053.24 3.96723 1.70982 0
M  V30 11524 C 1052.38 4.4464 2.90634 0
M  V30 11525 C 1051.41 5.59169 2.48992 0
M  V30 11526 N 1050.55 6.01862 3.61534 0
M  V30 11527 H 1055.39 2.96034 0.341735 0
M  V30 11528 H 1052.93 1.4626 0.156993 0
M  V30 11529 H 1054.89 3.07546 2.81907 0
M  V30 11530 H 1053.52 1.96346 2.56218 0
M  V30 11531 H 1052.57 3.70127 0.878072 0
M  V30 11532 H 1053.88 4.79795 1.36373 0
M  V30 11533 H 1053.03 4.79315 3.71944 0
M  V30 11534 H 1051.77 3.60503 3.28464 0
M  V30 11535 H 1050.78 5.24106 1.66113 0
M  V30 11536 H 1052 6.45067 2.12287 0
M  V30 11537 H 1049.95 5.20667 3.99051 0
M  V30 11538 H 1049.87 6.79772 3.30827 0
M  V30 11539 H 1051.13 6.41172 4.43305 0
M  V30 11540 N 1055.36 -0.161842 1.56767 0
M  V30 11541 C 1056.31 -1.2002 1.97139 0
M  V30 11542 C 1057.28 -1.43486 0.836713 0
M  V30 11543 O 1058.47 -1.56069 1.0976 0
M  V30 11544 C 1055.61 -2.53228 2.34456 0
M  V30 11545 C 1054.72 -2.37062 3.61145 0
M  V30 11546 C 1053.85 -3.63202 3.87631 0
M  V30 11547 C 1052.89 -3.42008 5.07638 0
M  V30 11548 N 1052.03 -4.60242 5.30209 0
M  V30 11549 H 1056.87 -0.848918 2.85653 0
M  V30 11550 H 1054.41 -0.407753 1.41336 0
M  V30 11551 H 1056.36 -3.30879 2.54116 0
M  V30 11552 H 1054.99 -2.86333 1.4904 0
M  V30 11553 H 1054.05 -1.50539 3.49345 0
M  V30 11554 H 1055.36 -2.17353 4.48953 0
M  V30 11555 H 1054.51 -4.49285 4.0771 0
M  V30 11556 H 1053.25 -3.85899 2.98216 0
M  V30 11557 H 1052.26 -2.54312 4.87448 0
M  V30 11558 H 1053.48 -3.20724 5.98593 0
M  V30 11559 H 1051.43 -4.8314 4.43747 0
M  V30 11560 H 1051.34 -4.43481 6.12259 0
M  V30 11561 H 1052.61 -5.47581 5.54775 0
M  V30 11562 N 1056.84 -1.516 -0.430713 0
M  V30 11563 C 1058.07 -1.687 -1.20644 0
M  V30 11564 C 1058.49 -0.386555 -1.84085 0
M  V30 11565 O 1057.85 0.653952 -1.69095 0
M  V30 11566 C 1057.9 -2.80887 -2.2613 0
M  V30 11567 O 1057 -2.44952 -3.31772 0
M  V30 11568 H 1056.34 -0.562289 -0.353167 0
M  V30 11569 H 1058.87 -1.98198 -0.507807 0
M  V30 11570 H 1058.88 -3.05167 -2.70809 0
M  V30 11571 H 1057.56 -3.75249 -1.79334 0
M  V30 11572 H 1056.13 -2.31267 -2.92523 0
M  V30 11573 N 1058.32 0.686584 -1.41858 0
M  V30 11574 C 1059.54 1.4802 -1.45275 0
M  V30 11575 C 1059.97 1.87997 -0.0621297 0
M  V30 11576 O 1059.33 1.55226 0.936733 0
M  V30 11577 C 1059.38 2.7133 -2.37513 0
M  V30 11578 O 1058.48 3.69159 -1.83836 0
M  V30 11579 H 1057.82 0.445152 -0.492682 0
M  V30 11580 H 1060.35 0.843161 -1.86419 0
M  V30 11581 H 1060.36 3.19537 -2.53693 0
M  V30 11582 H 1059.04 2.41571 -3.3855 0
M  V30 11583 H 1057.61 3.28134 -1.77151 0
M  V30 11584 N 1059.8 1.27835 0.921735 0
M  V30 11585 C 1060.74 1.11075 2.02314 0
M  V30 11586 C 1061.71 0.0101195 1.66097 0
M  V30 11587 O 1062.9 0.173564 1.90009 0
M  V30 11588 C 1060.04 0.770251 3.36394 0
M  V30 11589 C 1059.15 1.94912 3.8553 0
M  V30 11590 C 1058.29 1.54996 5.08084 0
M  V30 11591 C 1057.33 2.69595 5.49531 0
M  V30 11592 N 1056.46 2.30227 6.6328 0
M  V30 11593 H 1061.3 2.05319 2.15982 0
M  V30 11594 H 1058.84 1.022 1.058 0
M  V30 11595 H 1060.8 0.553624 4.1351 0
M  V30 11596 H 1059.43 -0.135238 3.22517 0
M  V30 11597 H 1058.48 2.27811 3.04641 0
M  V30 11598 H 1059.79 2.80858 4.12214 0
M  V30 11599 H 1058.95 1.29493 5.9272 0
M  V30 11600 H 1057.69 0.661676 4.83191 0
M  V30 11601 H 1056.69 2.95806 4.63442 0
M  V30 11602 H 1057.92 3.59054 5.76417 0
M  V30 11603 H 1055.86 1.43858 6.40032 0
M  V30 11604 H 1055.78 3.09711 6.89649 0
M  V30 11605 H 1057.05 2.07987 7.5124 0
M  V30 11606 N 1061.28 -1.12907 1.09954 0
M  V30 11607 C 1062.5 -1.88679 0.861099 0
M  V30 11608 C 1062.93 -1.78853 -0.582499 0
M  V30 11609 O 1062.28 -1.13992 -1.4098 0
M  V30 11610 C 1062.33 -3.36047 1.30785 0
M  V30 11611 O 1061.44 -4.09716 0.469728 0
M  V30 11612 H 1060.78 -0.586447 0.31141 0
M  V30 11613 H 1063.31 -1.42818 1.46507 0
M  V30 11614 H 1063.32 -3.86882 1.29562 0
M  V30 11615 H 1061.99 -3.42516 2.35914 0
M  V30 11616 H 1060.57 -3.6887 0.54674 0
M  V30 11617 N 1062.75 -0.88754 -1.30232 0
M  V30 11618 C 1063.72 -0.361095 -2.26338 0
M  V30 11619 C 1064.72 0.497871 -1.52898 0
M  V30 11620 O 1065.91 0.30466 -1.71515 0
M  V30 11621 C 1063.04 0.485135 -3.3743 0
M  V30 11622 H 1064.23 -1.20973 -2.74419 0
M  V30 11623 H 1061.78 -0.664619 -1.41466 0
M  V30 11624 H 1062.52 1.35425 -2.9467 0
M  V30 11625 H 1062.3 -0.130173 -3.91884 0
M  V30 11626 H 1063.79 0.845169 -4.08958 0
M  V30 11627 N 1064.23 1.43628 -0.648757 0
M  V30 11628 C 1065.18 2.30755 0.0455536 0
M  V30 11629 C 1066.15 1.44495 0.819168 0
M  V30 11630 O 1067.33 1.73372 0.79667 0
M  V30 11631 C 1064.47 3.30017 1.00908 0
M  V30 11632 C 1063.59 4.31376 0.232039 0
M  V30 11633 C 1062.72 5.17723 1.18897 0
M  V30 11634 C 1061.76 6.10778 0.402096 0
M  V30 11635 N 1060.9 6.89763 1.31038 0
M  V30 11636 H 1065.74 2.89581 -0.70332 0
M  V30 11637 H 1063.28 1.42662 -0.3586 0
M  V30 11638 H 1065.23 3.86072 1.58128 0
M  V30 11639 H 1063.86 2.72851 1.72488 0
M  V30 11640 H 1062.92 3.77652 -0.456373 0
M  V30 11641 H 1064.23 4.9735 -0.380023 0
M  V30 11642 H 1063.38 5.78381 1.83194 0
M  V30 11643 H 1062.12 4.51864 1.83494 0
M  V30 11644 H 1061.13 5.49212 -0.254255 0
M  V30 11645 H 1062.35 6.78678 -0.239411 0
M  V30 11646 H 1060.3 6.26557 1.94324 0
M  V30 11647 H 1060.21 7.52243 0.752774 0
M  V30 11648 H 1061.48 7.54931 1.94164 0
M  V30 11649 N 1065.71 0.390394 1.52688 0
M  V30 11650 C 1066.66 -0.444229 2.26485 0
M  V30 11651 C 1067.63 -1.05688 1.28138 0
M  V30 11652 O 1068.81 -1.0847 1.56968 0
M  V30 11653 C 1065.95 -1.56501 3.07574 0
M  V30 11654 C 1065.07 -0.975111 4.20851 0
M  V30 11655 C 1064.2 -2.06704 4.89333 0
M  V30 11656 C 1063.24 -1.45309 5.94602 0
M  V30 11657 N 1062.38 -2.48437 6.56676 0
M  V30 11658 H 1067.22 0.191535 2.97384 0
M  V30 11659 H 1064.75 0.106287 1.46716 0
M  V30 11660 H 1066.71 -2.22558 3.52879 0
M  V30 11661 H 1065.34 -2.17107 2.38881 0
M  V30 11662 H 1064.39 -0.204109 3.79852 0
M  V30 11663 H 1065.71 -0.486465 4.96422 0
M  V30 11664 H 1064.86 -2.80528 5.37949 0
M  V30 11665 H 1063.6 -2.58928 4.13289 0
M  V30 11666 H 1062.6 -0.700091 5.45324 0
M  V30 11667 H 1063.83 -0.938775 6.7258 0
M  V30 11668 H 1061.77 -2.99829 5.83471 0
M  V30 11669 H 1061.69 -2.04331 7.27863 0
M  V30 11670 H 1062.96 -3.21888 7.09935 0
M  V30 11671 N 1067.19 -1.57141 0.120249 0
M  V30 11672 C 1068.12 -2.18398 -0.826112 0
M  V30 11673 C 1069.1 -1.12439 -1.27638 0
M  V30 11674 O 1070.28 -1.40679 -1.33877 0
M  V30 11675 C 1067.41 -2.78438 -2.0758 0
M  V30 11676 C 1066.37 -3.89991 -1.76327 0
M  V30 11677 C 1065.69 -4.36844 -3.08336 0
M  V30 11678 C 1066.99 -5.12031 -1.03062 0
M  V30 11679 H 1068.69 -2.97731 -0.315656 0
M  V30 11680 H 1066.23 -1.43213 -0.150387 0
M  V30 11681 H 1068.19 -3.19951 -2.74243 0
M  V30 11682 H 1066.91 -1.96396 -2.60953 0
M  V30 11683 H 1065.57 -3.49055 -1.12053 0
M  V30 11684 H 1065.22 -3.51659 -3.59646 0
M  V30 11685 H 1064.92 -5.1207 -2.88199 0
M  V30 11686 H 1066.44 -4.81009 -3.76116 0
M  V30 11687 H 1067.86 -5.50555 -1.59881 0
M  V30 11688 H 1066.25 -5.92848 -0.930146 0
M  V30 11689 H 1067.32 -4.84897 -0.017582 0
M  V30 11690 N 1068.67 0.153526 -1.5685 0
M  V30 11691 C 1069.6 1.2147 -1.94365 0
M  V30 11692 C 1070.61 1.39532 -0.838726 0
M  V30 11693 O 1071.8 1.39219 -1.11715 0
M  V30 11694 C 1068.9 2.5806 -2.19677 0
M  V30 11695 C 1068.07 2.61062 -3.50949 0
M  V30 11696 C 1067.13 3.79144 -3.64878 0
M  V30 11697 O 1066.16 3.64319 -4.37333 0
M  V30 11698 N 1067.36 4.96333 -3.01054 0
M  V30 11699 H 1070.13 0.895889 -2.85996 0
M  V30 11700 H 1067.69 0.343147 -1.58222 0
M  V30 11701 H 1069.68 3.35553 -2.26243 0
M  V30 11702 H 1068.25 2.8226 -1.34343 0
M  V30 11703 H 1067.47 1.69533 -3.55882 0
M  V30 11704 H 1068.76 2.60094 -4.37297 0
M  V30 11705 H 1068.15 5.1128 -2.42093 0
M  V30 11706 H 1066.71 5.71625 -3.13191 0
M  V30 11707 N 1070.14 1.51827 0.422667 0
M  V30 11708 C 1071.08 1.70409 1.53275 0
M  V30 11709 C 1072.09 0.584584 1.51942 0
M  V30 11710 O 1073.28 0.859349 1.56453 0
M  V30 11711 C 1070.38 1.717 2.92185 0
M  V30 11712 C 1069.55 3.00472 3.17861 0
M  V30 11713 C 1068.61 2.93755 4.36571 0
M  V30 11714 O 1067.64 3.67682 4.3451 0
M  V30 11715 N 1068.84 2.10612 5.40946 0
M  V30 11716 H 1071.6 2.66176 1.37734 0
M  V30 11717 H 1069.16 1.49895 0.611799 0
M  V30 11718 H 1071.16 1.64756 3.69645 0
M  V30 11719 H 1069.73 0.834655 3.01251 0
M  V30 11720 H 1068.95 3.21171 2.28567 0
M  V30 11721 H 1070.23 3.85684 3.31851 0
M  V30 11722 H 1069.63 1.49954 5.45463 0
M  V30 11723 H 1068.19 2.09535 6.17202 0
M  V30 11724 N 1071.62 -0.679052 1.4222 0
M  V30 11725 C 1073.04 -0.991665 1.25053 0
M  V30 11726 C 1073.24 -2.00928 0.151665 0
M  V30 11727 O 1072.29 -2.47925 -0.478507 0
M  V30 11728 C 1073.61 -1.50053 2.60585 0
M  V30 11729 C 1075.16 -1.61852 2.67905 0
M  V30 11730 C 1075.63 -2.16135 4.03794 0
M  V30 11731 N 1077.12 -2.23474 4.05726 0
M  V30 11732 C 1077.86 -2.66541 5.07685 0
M  V30 11733 N 1077.35 -3.09092 6.20028 0
M  V30 11734 N 1079.15 -2.66252 4.95042 0
M  V30 11735 H 1071.3 -0.00521851 2.12399 0
M  V30 11736 H 1073.56 -0.0648465 0.94578 0
M  V30 11737 H 1073.27 -0.82731 3.41831 0
M  V30 11738 H 1073.14 -2.47998 2.84213 0
M  V30 11739 H 1075.53 -2.28281 1.87008 0
M  V30 11740 H 1075.61 -0.624074 2.4807 0
M  V30 11741 H 1075.25 -1.50316 4.85147 0
M  V30 11742 H 1075.18 -3.16363 4.20978 0
M  V30 11743 H 1077.67 -1.93467 3.24621 0
M  V30 11744 H 1077.99 -3.40627 6.93681 0
M  V30 11745 H 1076.33 -3.06959 6.23539 0
M  V30 11746 H 1079.52 -2.32369 4.06352 0
M  V30 11747 H 1079.69 -2.99496 5.74636 0
M  V30 11748 N 1073.1 -1.28322 -0.914942 0
M  V30 11749 C 1074.33 -1.18254 -1.69775 0
M  V30 11750 C 1074.74 0.258978 -1.87015 0
M  V30 11751 O 1074.1 1.17514 -1.3963 0
M  V30 11752 C 1074.15 -1.8753 -3.09054 0
M  V30 11753 O 1073.87 -3.26051 -2.92613 0
M  V30 11754 C 1075.37 -1.83749 -4.03424 0
M  V30 11755 H 1072.59 -0.41055 -0.530744 0
M  V30 11756 H 1075.14 -1.69425 -1.14523 0
M  V30 11757 H 1073.29 -1.40233 -3.61128 0
M  V30 11758 H 1073.71 -3.60729 -3.80756 0
M  V30 11759 H 1075.18 -2.36813 -4.98622 0
M  V30 11760 H 1075.66 -0.809601 -4.31674 0
M  V30 11761 H 1076.26 -2.3072 -3.57279 0
M  V30 11762 N 1074.58 1.12322 -1.10551 0
M  V30 11763 C 1075.51 2.17819 -0.713263 0
M  V30 11764 C 1076.52 1.6086 0.250604 0
M  V30 11765 O 1077.71 1.78466 0.0348909 0
M  V30 11766 C 1074.81 3.38885 -0.0320325 0
M  V30 11767 C 1073.99 4.25332 -1.02038 0
M  V30 11768 C 1073.04 5.24895 -0.370412 0
M  V30 11769 O 1072.07 5.59958 -1.02157 0
M  V30 11770 N 1073.27 5.73934 0.870633 0
M  V30 11771 H 1076.04 2.52083 -1.62094 0
M  V30 11772 H 1073.6 1.27755 -0.994492 0
M  V30 11773 H 1075.59 4.02574 0.414285 0
M  V30 11774 H 1074.16 3.02762 0.778072 0
M  V30 11775 H 1073.38 3.5824 -1.64492 0
M  V30 11776 H 1074.67 4.79936 -1.68936 0
M  V30 11777 H 1074.07 5.47614 1.419 0
M  V30 11778 H 1072.62 6.39504 1.26008 0
M  V30 11779 N 1076.06 0.894434 1.2976 0
M  V30 11780 C 1077.02 0.373094 2.26143 0
M  V30 11781 C 1078.02 -0.489756 1.5316 0
M  V30 11782 O 1079.21 -0.29556 1.71674 0
M  V30 11783 C 1076.34 -0.467234 3.37683 0
M  V30 11784 H 1077.53 1.22427 2.73773 0
M  V30 11785 H 1075.09 0.672112 1.41111 0
M  V30 11786 H 1075.82 -1.33861 2.95384 0
M  V30 11787 H 1075.61 0.150954 3.91809 0
M  V30 11788 H 1077.1 -0.823469 4.094 0
M  V30 11789 N 1077.53 -1.43282 0.656365 0
M  V30 11790 C 1078.48 -2.32556 -0.0452037 0
M  V30 11791 C 1079.48 -1.48789 -0.80982 0
M  V30 11792 O 1080.68 -1.64979 -0.719865 0
M  V30 11793 H 1077.06 -0.751258 -0.0334043 0
M  V30 11794 H 1079.03 -2.89448 0.725423 0
M  V30 11795 C 1077.78 -3.33138 -0.995706 0
M  V30 11796 H 1077.1 -3.97622 -0.416774 0
M  V30 11797 H 1078.54 -3.98231 -1.45562 0
M  V30 11798 C 1077 -2.63978 -2.09325 0
M  V30 11799 O 1077.53 -2.45769 -3.17743 0
M  V30 11800 N 1075.74 -2.23301 -1.8597 0
M  V30 11801 H 1075.28 -2.38312 -0.97802 0
M  V30 11802 H 1075.24 -1.77358 -2.59599 0
M  V30 11803 N 1079.01 -0.398486 -1.52479 0
M  V30 11804 C 1079.96 0.432212 -2.26717 0
M  V30 11805 C 1080.93 1.05007 -1.28696 0
M  V30 11806 O 1082.12 1.07636 -1.57541 0
M  V30 11807 C 1079.26 1.54868 -3.08399 0
M  V30 11808 C 1078.37 0.952779 -4.21362 0
M  V30 11809 C 1077.5 2.04106 -4.90423 0
M  V30 11810 C 1076.54 1.42153 -5.95364 0
M  V30 11811 N 1075.68 2.44951 -6.57984 0
M  V30 11812 H 1080.52 -0.207303 -2.97278 0
M  V30 11813 H 1078.06 -0.114066 -1.46657 0
M  V30 11814 H 1080.01 2.20684 -3.54054 0
M  V30 11815 H 1078.64 2.15837 -2.4003 0
M  V30 11816 H 1077.7 0.183962 -3.79955 0
M  V30 11817 H 1079.01 0.460131 -4.96673 0
M  V30 11818 H 1078.16 2.77672 -5.39429 0
M  V30 11819 H 1076.9 2.56733 -4.14656 0
M  V30 11820 H 1075.91 0.671161 -5.45688 0
M  V30 11821 H 1077.13 0.903093 -6.73068 0
M  V30 11822 H 1075.08 2.9673 -5.85053 0
M  V30 11823 H 1074.99 2.00468 -7.28937 0
M  V30 11824 H 1076.26 3.18119 -7.11632 0
M  V30 11825 N 1080.49 1.57075 -0.12858 0
M  V30 11826 C 1081.42 2.12907 0.848708 0
M  V30 11827 C 1082.44 1.07406 1.22343 0
M  V30 11828 O 1083.63 1.34746 1.17071 0
M  V30 11829 C 1080.73 2.62167 2.1476 0
M  V30 11830 C 1079.9 3.91871 1.94309 0
M  V30 11831 C 1078.96 4.26629 3.08016 0
M  V30 11832 O 1077.98 4.9528 2.80511 0
M  V30 11833 N 1079.19 3.84721 4.34706 0
M  V30 11834 H 1081.95 2.97387 0.371636 0
M  V30 11835 H 1079.51 1.61805 0.0555574 0
M  V30 11836 H 1081.5 2.82444 2.89841 0
M  V30 11837 H 1080.07 1.82514 2.53786 0
M  V30 11838 H 1079.29 3.80406 1.03367 0
M  V30 11839 H 1080.58 4.76662 1.77962 0
M  V30 11840 H 1079.98 3.2937 4.59926 0
M  V30 11841 H 1078.54 4.10087 5.06628 0
M  V30 11842 N 1081.97 -0.145205 1.5693 0
M  V30 11843 C 1082.88 -1.19864 2.01667 0
M  V30 11844 C 1083.9 -1.46909 0.932402 0
M  V30 11845 O 1085.07 -1.58543 1.24201 0
M  V30 11846 C 1082.14 -2.51174 2.38982 0
M  V30 11847 C 1081.2 -2.3176 3.61366 0
M  V30 11848 C 1080.43 -3.56809 3.96892 0
M  V30 11849 O 1080.65 -4.63063 3.33059 0
M  V30 11850 O 1079.59 -3.49366 4.9013 0
M  V30 11851 H 1083.41 -0.848821 2.91597 0
M  V30 11852 H 1081 -0.354063 1.45144 0
M  V30 11853 H 1082.88 -3.28587 2.63835 0
M  V30 11854 H 1081.56 -2.85683 1.52207 0
M  V30 11855 H 1080.46 -1.52293 3.41698 0
M  V30 11856 H 1081.8 -2.02167 4.48764 0
M  V30 11857 N 1083.45 -1.52049 -0.414609 0
M  V30 11858 C 1084.38 -1.77956 -1.51175 0
M  V30 11859 C 1085.36 -0.630282 -1.57992 0
M  V30 11860 O 1086.54 -0.875324 -1.73354 0
M  V30 11861 C 1083.67 -1.92527 -2.89051 0
M  V30 11862 C 1082.63 -3.08096 -2.97087 0
M  V30 11863 C 1081.95 -3.07882 -4.37164 0
M  V30 11864 C 1083.25 -4.47656 -2.69075 0
M  V30 11865 H 1084.95 -2.69827 -1.29746 0
M  V30 11866 H 1082.49 -1.29839 -0.62273 0
M  V30 11867 H 1084.45 -2.09234 -3.65786 0
M  V30 11868 H 1083.17 -0.973235 -3.11762 0
M  V30 11869 H 1081.83 -2.91131 -2.22797 0
M  V30 11870 H 1081.48 -2.10411 -4.56877 0
M  V30 11871 H 1081.18 -3.85501 -4.43467 0
M  V30 11872 H 1082.7 -3.26712 -5.15841 0
M  V30 11873 H 1084.12 -4.64855 -3.35534 0
M  V30 11874 H 1082.51 -5.27151 -2.8676 0
M  V30 11875 H 1083.58 -4.56129 -1.64544 0
M  V30 11876 N 1084.93 0.6715 -1.42579 0
M  V30 11877 C 1085.89 1.76676 -1.46008 0
M  V30 11878 C 1086.89 1.57007 -0.347213 0
M  V30 11879 O 1088.08 1.63238 -0.608185 0
M  V30 11880 C 1085.21 3.15348 -1.29494 0
M  V30 11881 H 1086.4 1.75021 -2.43531 0
M  V30 11882 H 1083.96 0.881444 -1.29075 0
M  V30 11883 H 1084.69 3.22626 -0.32906 0
M  V30 11884 H 1084.48 3.31028 -2.10149 0
M  V30 11885 H 1085.97 3.95251 -1.34784 0
M  V30 11886 N 1086.4 1.28806 0.908124 0
M  V30 11887 C 1087.35 1.13083 2.03261 0
M  V30 11888 C 1088.35 0.0486094 1.6933 0
M  V30 11889 O 1089.55 0.207794 1.78797 0
M  V30 11890 H 1085.93 0.349057 0.666081 0
M  V30 11891 H 1087.9 2.08304 2.13663 0
M  V30 11892 C 1086.65 0.815339 3.38005 0
M  V30 11893 H 1085.97 1.64007 3.64612 0
M  V30 11894 H 1087.41 0.745311 4.17398 0
M  V30 11895 C 1085.87 -0.48113 3.33447 0
M  V30 11896 O 1086.4 -1.50974 3.7225 0
M  V30 11897 N 1084.6 -0.483912 2.86543 0
M  V30 11898 H 1084.15 0.353593 2.55162 0
M  V30 11899 H 1084.11 -1.35138 2.83875 0
M  V30 11900 N 1087.88 -1.11734 1.11145 0
M  V30 11901 C 1089.13 -1.82766 0.853194 0
M  V30 11902 C 1089.44 -1.85408 -0.623168 0
M  V30 11903 O 1090.65 -2.52509 -0.997574 0
M  V30 11904 C 1089.11 -3.28215 1.47658 0
M  V30 11905 C 1088.71 -3.33911 2.98676 0
M  V30 11906 C 1090.46 -4.04168 1.29803 0
M  V30 11907 C 1088.36 -4.73739 3.54013 0
M  V30 11908 H 1087.29 -0.684807 0.315523 0
M  V30 11909 H 1089.95 -1.25756 1.33633 0
M  V30 11910 H 1088.33 -3.85138 0.921116 0
M  V30 11911 H 1089.5 -2.86887 3.606 0
M  V30 11912 H 1087.82 -2.71437 3.15771 0
M  V30 11913 H 1090.41 -5.07429 1.68582 0
M  V30 11914 H 1090.76 -4.15606 0.240302 0
M  V30 11915 H 1091.29 -3.53623 1.82196 0
M  V30 11916 H 1088.03 -4.67497 4.59485 0
M  V30 11917 H 1087.55 -5.21186 2.9686 0
M  V30 11918 H 1089.23 -5.42691 3.52271 0
M  V30 11919 N 1089.36 -0.901303 -1.29284 0
M  V30 11920 C 1090.31 -0.370142 -2.29636 0
M  V30 11921 C 1091.3 0.53157 -1.60844 0
M  V30 11922 O 1092.51 0.414194 -1.7517 0
M  V30 11923 H 1088.88 -0.101072 -0.745177 0
M  V30 11924 H 1090.85 -1.22985 -2.71877 0
M  V30 11925 C 1089.6 0.385806 -3.45553 0
M  V30 11926 H 1088.93 -0.298818 -3.98682 0
M  V30 11927 H 1090.37 0.722299 -4.17802 0
M  V30 11928 C 1088.82 1.58907 -2.97069 0
M  V30 11929 O 1089.35 2.68835 -2.98481 0
M  V30 11930 N 1087.56 1.43178 -2.5288 0
M  V30 11931 H 1087.11 0.537467 -2.51931 0
M  V30 11932 H 1087.07 2.23819 -2.208 0
M  V30 11933 N 1090.84 1.42931 -0.663954 0
M  V30 11934 C 1091.79 2.32577 0.03287 0
M  V30 11935 C 1092.78 1.49217 0.801918 0
M  V30 11936 O 1093.99 1.65358 0.711106 0
M  V30 11937 H 1090.36 0.751424 0.0294198 0
M  V30 11938 H 1092.33 2.89059 -0.740763 0
M  V30 11939 C 1091.08 3.33661 0.978025 0
M  V30 11940 H 1090.4 3.97837 0.395681 0
M  V30 11941 H 1091.84 3.98997 1.43448 0
M  V30 11942 C 1090.3 2.65085 2.07922 0
M  V30 11943 O 1090.83 2.4745 3.16435 0
M  V30 11944 N 1089.04 2.24285 1.84783 0
M  V30 11945 H 1088.59 2.38827 0.965368 0
M  V30 11946 H 1088.54 1.78732 2.58655 0
M  V30 11947 N 1092.32 0.406567 1.52266 0
M  V30 11948 C 1093.26 -0.43489 2.28498 0
M  V30 11949 C 1094.26 -1.04806 1.33086 0
M  V30 11950 O 1095.46 -0.986557 1.50556 0
M  V30 11951 H 1091.84 -0.159023 0.734994 0
M  V30 11952 H 1093.81 0.229316 2.97518 0
M  V30 11953 C 1092.56 -1.54073 3.117 0
M  V30 11954 H 1091.88 -1.07824 3.84986 0
M  V30 11955 H 1093.32 -2.10337 3.6815 0
M  V30 11956 C 1091.78 -2.50662 2.251 0
M  V30 11957 O 1092.31 -3.54486 1.88951 0
M  V30 11958 N 1090.52 -2.20811 1.8892 0
M  V30 11959 H 1090.06 -1.36413 2.18516 0
M  V30 11960 H 1090.02 -2.85684 1.3127 0
M  V30 11961 N 1093.79 -1.57004 0.136909 0
M  V30 11962 C 1094.72 -2.19262 -0.802902 0
M  V30 11963 C 1095.71 -1.13786 -1.26439 0
M  V30 11964 O 1096.89 -1.42091 -1.32377 0
M  V30 11965 C 1094.02 -2.80624 -2.04615 0
M  V30 11966 C 1092.97 -3.91839 -1.72181 0
M  V30 11967 C 1092.3 -4.4009 -3.03686 0
M  V30 11968 C 1093.6 -5.13095 -0.976249 0
M  V30 11969 H 1095.29 -2.98049 -0.28406 0
M  V30 11970 H 1092.84 -1.43364 -0.135189 0
M  V30 11971 H 1094.79 -3.22842 -2.70834 0
M  V30 11972 H 1093.52 -1.99153 -2.58855 0
M  V30 11973 H 1092.18 -3.50224 -1.08344 0
M  V30 11974 H 1091.82 -3.55454 -3.55896 0
M  V30 11975 H 1091.52 -5.15098 -2.82751 0
M  V30 11976 H 1093.05 -4.84971 -3.70993 0
M  V30 11977 H 1094.46 -5.5222 -1.54033 0
M  V30 11978 H 1092.86 -5.93801 -0.867214 0
M  V30 11979 H 1093.93 -4.84888 0.0338488 0
M  V30 11980 N 1095.27 0.136881 -1.57004 0
M  V30 11981 C 1096.21 1.19853 -1.94192 0
M  V30 11982 C 1097.18 1.4104 -0.809103 0
M  V30 11983 O 1098.37 1.55487 -1.06565 0
M  V30 11984 C 1095.49 2.55565 -2.22271 0
M  V30 11985 C 1094.54 2.50913 -3.44884 0
M  V30 11986 S 1095.37 1.96619 -4.98098 0
M  V30 11987 C 1096.53 3.34039 -5.2931 0
M  V30 11988 H 1096.76 0.881316 -2.83937 0
M  V30 11989 H 1094.3 0.342915 -1.50544 0
M  V30 11990 H 1096.25 3.33659 -2.39127 0
M  V30 11991 H 1094.91 2.84472 -1.33172 0
M  V30 11992 H 1094.11 3.50839 -3.6184 0
M  V30 11993 H 1093.71 1.80932 -3.27322 0
M  V30 11994 H 1096 4.30189 -5.23397 0
M  V30 11995 H 1096.94 3.21927 -6.30689 0
M  V30 11996 H 1097.35 3.31642 -4.56808 0
M  V30 11997 N 1096.75 1.52266 0.40654 0
M  V30 11998 C 1097.98 1.70598 1.17945 0
M  V30 11999 C 1098.4 0.415793 1.83447 0
M  V30 12000 O 1097.76 -0.626968 1.70114 0
M  V30 12001 C 1097.81 2.84449 2.21633 0
M  V30 12002 O 1096.91 2.50199 3.27833 0
M  V30 12003 H 1096.25 0.567837 0.344177 0
M  V30 12004 H 1098.78 1.98981 0.476211 0
M  V30 12005 H 1098.79 3.09436 2.65919 0
M  V30 12006 H 1097.47 3.78055 1.73341 0
M  V30 12007 H 1096.04 2.35892 2.88807 0
M  V30 12008 N 1098.23 -0.663929 1.42933 0
M  V30 12009 C 1099.46 -1.45192 1.474 0
M  V30 12010 C 1099.87 -1.88592 0.0886014 0
M  V30 12011 O 1099.23 -1.58824 -0.898962 0
M  V30 12012 C 1099.28 -2.69394 2.41059 0
M  V30 12013 O 1099 -2.27812 3.7421 0
M  V30 12014 C 1100.5 -3.62855 2.54659 0
M  V30 12015 H 1097.72 -0.446394 0.500973 0
M  V30 12016 H 1100.27 -0.814875 1.87563 0
M  V30 12017 H 1098.42 -3.29262 2.0412 0
M  V30 12018 H 1098.83 -3.08095 4.24474 0
M  V30 12019 H 1100.31 -4.46698 3.24291 0
M  V30 12020 H 1100.79 -4.09487 1.58799 0
M  V30 12021 H 1101.39 -3.08874 2.92364 0
M  V30 12022 N 1099.71 -1.29285 -0.901281 0
M  V30 12023 C 1100.64 -1.16832 -2.0217 0
M  V30 12024 C 1101.62 -0.0629265 -1.69984 0
M  V30 12025 O 1102.8 -0.242123 -1.92685 0
M  V30 12026 C 1099.93 -0.842406 -3.36929 0
M  V30 12027 C 1098.89 -1.90394 -3.8332 0
M  V30 12028 C 1098.21 -1.43138 -5.15185 0
M  V30 12029 C 1099.51 -3.31254 -4.03817 0
M  V30 12030 H 1101.21 -2.10562 -2.12847 0
M  V30 12031 H 1098.75 -1.01375 -1.0227 0
M  V30 12032 H 1100.71 -0.741999 -4.14816 0
M  V30 12033 H 1099.43 0.130598 -3.26339 0
M  V30 12034 H 1098.09 -1.99371 -3.07647 0
M  V30 12035 H 1097.74 -0.447091 -5.01009 0
M  V30 12036 H 1097.44 -2.14129 -5.47195 0
M  V30 12037 H 1098.96 -1.34444 -5.95615 0
M  V30 12038 H 1100.37 -3.25129 -4.72191 0
M  V30 12039 H 1098.77 -4.00189 -4.47178 0
M  V30 12040 H 1099.84 -3.74349 -3.08206 0
M  V30 12041 N 1101.18 1.11143 -1.11736 0
M  V30 12042 C 1102.13 2.17274 -0.778513 0
M  V30 12043 C 1103.1 1.64186 0.251405 0
M  V30 12044 O 1104.29 1.90373 0.127629 0
M  V30 12045 C 1101.43 3.44324 -0.231246 0
M  V30 12046 C 1100.54 4.114 -1.31809 0
M  V30 12047 C 1099.67 5.26146 -0.73104 0
M  V30 12048 C 1098.71 5.85112 -1.79752 0
M  V30 12049 N 1097.85 6.91247 -1.22973 0
M  V30 12050 H 1102.69 2.45603 -1.68769 0
M  V30 12051 H 1100.23 1.20565 -0.842759 0
M  V30 12052 H 1102.19 4.1707 0.104045 0
M  V30 12053 H 1100.82 3.16369 0.641119 0
M  V30 12054 H 1099.87 3.36697 -1.77029 0
M  V30 12055 H 1101.18 4.51278 -2.12485 0
M  V30 12056 H 1100.33 6.05713 -0.345987 0
M  V30 12057 H 1099.07 4.87583 0.107 0
M  V30 12058 H 1098.08 5.0422 -2.19185 0
M  V30 12059 H 1099.3 6.25741 -2.63865 0
M  V30 12060 H 1097.25 6.54696 -0.41339 0
M  V30 12061 H 1097.17 7.29796 -1.97316 0
M  V30 12062 H 1098.43 7.74611 -0.87167 0
M  V30 12063 N 1102.66 0.908147 1.28804 0
M  V30 12064 C 1103.57 0.397167 2.31214 0
M  V30 12065 C 1104.59 -0.512352 1.66286 0
M  V30 12066 O 1105.76 -0.399893 1.9739 0
M  V30 12067 C 1102.83 -0.359522 3.44831 0
M  V30 12068 C 1101.89 0.582539 4.25329 0
M  V30 12069 C 1101.12 -0.138133 5.33521 0
M  V30 12070 O 1101.35 -1.36076 5.53931 0
M  V30 12071 O 1100.28 0.523682 5.99618 0
M  V30 12072 H 1104.11 1.247 2.76918 0
M  V30 12073 H 1101.69 0.672766 1.33395 0
M  V30 12074 H 1103.57 -0.787098 4.13984 0
M  V30 12075 H 1102.25 -1.18528 3.01219 0
M  V30 12076 H 1101.16 1.0594 3.58786 0
M  V30 12077 H 1102.49 1.37495 4.72605 0
M  V30 12078 N 1104.14 -1.42577 0.671525 0
M  V30 12079 C 1105.37 -2.05625 0.20044 0
M  V30 12080 C 1105.78 -1.50524 -1.14626 0
M  V30 12081 O 1105.12 -0.638468 -1.72248 0
M  V30 12082 C 1105.18 -3.59459 0.0545385 0
M  V30 12083 C 1104.85 -4.37236 1.32943 0
M  V30 12084 C 1105.84 -4.68104 2.26219 0
M  V30 12085 C 1103.53 -4.76932 1.57612 0
M  V30 12086 C 1105.52 -5.37599 3.42442 0
M  V30 12087 C 1103.21 -5.46167 2.74125 0
M  V30 12088 C 1104.21 -5.76425 3.66364 0
M  V30 12089 O 1103.9 -6.44242 4.8084 0
M  V30 12090 H 1103.63 -0.66918 0.0957843 0
M  V30 12091 H 1106.18 -1.83759 0.917701 0
M  V30 12092 H 1104.41 -3.79971 -0.718271 0
M  V30 12093 H 1106.1 -4.04152 -0.376251 0
M  V30 12094 H 1106.87 -4.37939 2.08409 0
M  V30 12095 H 1102.75 -4.52776 0.866887 0
M  V30 12096 H 1106.29 -5.61133 4.14458 0
M  V30 12097 H 1102.19 -5.75749 2.91861 0
M  V30 12098 H 1102.96 -6.62732 4.80342 0
M  V30 12099 N 1105.62 -0.414636 -1.52048 0
M  V30 12100 C 1106.55 0.399119 -2.30064 0
M  V30 12101 C 1107.53 1.04126 -1.34506 0
M  V30 12102 O 1108.71 1.04923 -1.63416 0
M  V30 12103 C 1105.84 1.51305 -3.12608 0
M  V30 12104 C 1104.8 0.995621 -4.16259 0
M  V30 12105 C 1104.12 2.20357 -4.87183 0
M  V30 12106 C 1105.42 0.0458178 -5.2228 0
M  V30 12107 H 1107.12 -0.251879 -2.98339 0
M  V30 12108 H 1104.66 -0.122579 -1.43477 0
M  V30 12109 H 1106.62 2.08936 -3.65956 0
M  V30 12110 H 1105.34 2.19201 -2.42113 0
M  V30 12111 H 1104 0.441676 -3.6393 0
M  V30 12112 H 1103.65 2.8682 -4.13211 0
M  V30 12113 H 1103.35 1.86385 -5.57256 0
M  V30 12114 H 1104.87 2.78584 -5.43345 0
M  V30 12115 H 1106.29 0.531102 -5.70835 0
M  V30 12116 H 1104.68 -0.20536 -5.99749 0
M  V30 12117 H 1105.75 -0.897807 -4.76516 0
M  V30 12118 N 1107.1 1.56929 -0.145233 0
M  V30 12119 C 1108.34 1.95681 0.50532 0
M  V30 12120 C 1108.67 1.03098 1.65516 0
M  V30 12121 O 1107.94 0.0921961 1.95683 0
M  V30 12122 H 1106.52 0.72252 0.189668 0
M  V30 12123 H 1109.18 1.93651 -0.220318 0
M  V30 12124 H 1108.27 2.99359 0.882631 0
M  V30 12125 N 1108.58 -0.128553 1.57075 0
M  V30 12126 C 1109.8 -0.8564 1.88893 0
M  V30 12127 C 1110.23 -1.73095 0.736196 0
M  V30 12128 O 1109.58 -1.78567 -0.313629 0
M  V30 12129 C 1109.63 -1.67368 3.19406 0
M  V30 12130 O 1108.74 -2.77973 3.04639 0
M  V30 12131 H 1108.08 -0.237424 0.620102 0
M  V30 12132 H 1110.61 -0.113821 2.04283 0
M  V30 12133 H 1110.62 -2.0649 3.51889 0
M  V30 12134 H 1109.29 -1.03161 4.02903 0
M  V30 12135 H 1107.87 -2.42123 2.83603 0
M  V30 12136 N 1110.05 -1.5248 -0.398459 0
M  V30 12137 C 1111.28 -1.71221 -1.17039 0
M  V30 12138 C 1111.7 -0.425515 -1.83224 0
M  V30 12139 O 1111.06 0.617938 -1.70444 0
M  V30 12140 C 1111.11 -2.8562 -2.20121 0
M  V30 12141 O 1110.21 -2.51934 -3.26501 0
M  V30 12142 H 1109.55 -0.569654 -0.34116 0
M  V30 12143 H 1112.08 -1.99231 -0.465652 0
M  V30 12144 H 1112.09 -3.10842 -2.64275 0
M  V30 12145 H 1110.77 -3.78969 -1.71334 0
M  V30 12146 H 1109.35 -2.3742 -2.87552 0
M  V30 12147 N 1111.53 0.65634 -1.43283 0
M  V30 12148 C 1112.44 1.79847 -1.50639 0
M  V30 12149 C 1113.46 1.69487 -0.393714 0
M  V30 12150 O 1114.63 1.90712 -0.647379 0
M  V30 12151 C 1111.7 3.16107 -1.42398 0
M  V30 12152 C 1110.76 3.38287 -2.64312 0
M  V30 12153 C 1109.99 4.68046 -2.56454 0
M  V30 12154 O 1110.22 5.4719 -1.61056 0
M  V30 12155 O 1109.15 4.91877 -3.46902 0
M  V30 12156 H 1112.98 1.76596 -2.47078 0
M  V30 12157 H 1110.56 0.814428 -1.25249 0
M  V30 12158 H 1112.44 3.97382 -1.40233 0
M  V30 12159 H 1111.12 3.19956 -0.490929 0
M  V30 12160 H 1110.02 2.56788 -2.72049 0
M  V30 12161 H 1111.36 3.39282 -3.56579 0
M  V30 12162 N 1113.01 1.29761 0.894412 0
M  V30 12163 C 1113.94 1.1115 2.00445 0
M  V30 12164 C 1114.95 0.0574655 1.62699 0
M  V30 12165 O 1116.14 0.302528 1.75918 0
M  V30 12166 C 1113.24 0.670984 3.32191 0
M  V30 12167 C 1112.42 1.80471 3.98433 0
M  V30 12168 C 1111.48 1.35431 5.08473 0
M  V30 12169 O 1110.5 2.05994 5.30618 0
M  V30 12170 N 1111.7 0.22811 5.80052 0
M  V30 12171 H 1114.47 2.06753 2.16964 0
M  V30 12172 H 1112.03 1.21772 1.06692 0
M  V30 12173 H 1114.02 0.352877 4.03159 0
M  V30 12174 H 1112.59 -0.192735 3.12005 0
M  V30 12175 H 1111.81 2.29142 3.20761 0
M  V30 12176 H 1113.1 2.56471 4.39431 0
M  V30 12177 H 1112.5 -0.360076 5.64553 0
M  V30 12178 H 1111.05 -0.0305985 6.51793 0
M  V30 12179 N 1114.49 -1.10549 1.12324 0
M  V30 12180 C 1115.42 -2.16081 0.733768 0
M  V30 12181 C 1116.4 -1.60266 -0.274511 0
M  V30 12182 O 1117.58 -1.87743 -0.168742 0
M  V30 12183 C 1114.71 -3.38591 0.0858914 0
M  V30 12184 C 1113.76 -4.13097 1.0608 0
M  V30 12185 S 1114.59 -4.68821 2.5878 0
M  V30 12186 C 1115.74 -5.94644 1.95319 0
M  V30 12187 H 1115.98 -2.48784 1.62769 0
M  V30 12188 H 1113.51 -1.22318 0.942209 0
M  V30 12189 H 1115.47 -4.09533 -0.281538 0
M  V30 12190 H 1114.13 -3.04129 -0.785122 0
M  V30 12191 H 1113.32 -5.00934 0.555095 0
M  V30 12192 H 1112.92 -3.4796 1.37112 0
M  V30 12193 H 1115.22 -6.65004 1.29523 0
M  V30 12194 H 1116.16 -6.49875 2.81191 0
M  V30 12195 H 1116.57 -5.4662 1.40951 0
M  V30 12196 N 1115.97 -0.914965 -1.28321 0
M  V30 12197 C 1116.91 -0.394477 -2.29231 0
M  V30 12198 C 1117.91 0.514481 -1.61398 0
M  V30 12199 O 1119.11 0.395591 -1.75599 0
M  V30 12200 H 1115.49 -0.108969 -0.744063 0
M  V30 12201 H 1117.46 -1.25862 -2.70557 0
M  V30 12202 C 1116.21 0.349134 -3.45943 0
M  V30 12203 H 1115.53 -0.341087 -3.98342 0
M  V30 12204 H 1116.97 0.677944 -4.18545 0
M  V30 12205 C 1115.43 1.55747 -2.98738 0
M  V30 12206 O 1115.96 2.65654 -3.01315 0
M  V30 12207 N 1114.17 1.40488 -2.54384 0
M  V30 12208 H 1113.71 0.510716 -2.52487 0
M  V30 12209 H 1113.67 2.21464 -2.23161 0
M  V30 12210 N 1117.44 1.42219 -0.679077 0
M  V30 12211 C 1118.67 2.06333 -0.210097 0
M  V30 12212 C 1119.09 1.50703 1.12562 0
M  V30 12213 O 1118.45 0.627241 1.70104 0
M  V30 12214 C 1118.5 3.60243 -0.160322 0
M  V30 12215 O 1117.6 4.03122 0.869872 0
M  V30 12216 H 1116.94 0.655362 -0.106754 0
M  V30 12217 H 1119.47 1.82278 -0.929294 0
M  V30 12218 H 1119.48 4.07997 0.014384 0
M  V30 12219 H 1118.16 4.00106 -1.13526 0
M  V30 12220 H 1116.74 3.66907 0.66586 0
M  V30 12221 N 1118.92 0.422693 1.51826 0
M  V30 12222 C 1120.17 -0.150066 2.01141 0
M  V30 12223 C 1120.48 -1.45059 1.31214 0
M  V30 12224 O 1121.69 -2.10542 1.71419 0
M  V30 12225 C 1120.15 -0.317985 3.58492 0
M  V30 12226 C 1119.75 0.971244 4.37345 0
M  V30 12227 C 1121.5 -0.845303 4.15999 0
M  V30 12228 C 1119.4 0.769769 5.86369 0
M  V30 12229 H 1118.33 -0.0598567 0.75162 0
M  V30 12230 H 1120.99 0.550217 1.75057 0
M  V30 12231 H 1119.37 -1.08092 3.80962 0
M  V30 12232 H 1120.54 1.74138 4.26629 0
M  V30 12233 H 1118.86 1.42599 3.91222 0
M  V30 12234 H 1121.45 -1.01229 5.2503 0
M  V30 12235 H 1121.8 -1.82375 3.74226 0
M  V30 12236 H 1122.33 -0.141067 3.9755 0
M  V30 12237 H 1119.07 1.72017 6.32527 0
M  V30 12238 H 1118.59 0.0391717 5.99787 0
M  V30 12239 H 1120.27 0.417225 6.45653 0
M  V30 12240 N 1120.4 -1.5685 0.153553 0
M  V30 12241 C 1121.63 -2.00701 -0.502678 0
M  V30 12242 C 1122.04 -1.0337 -1.57988 0
M  V30 12243 O 1121.4 -0.0317233 -1.82472 0
M  V30 12244 C 1121.45 -3.44443 -1.09732 0
M  V30 12245 O 1121.17 -4.38054 -0.0631405 0
M  V30 12246 C 1122.67 -4.03605 -1.83352 0
M  V30 12247 H 1119.89 -0.658229 -0.130289 0
M  V30 12248 H 1122.44 -2.02965 0.250063 0
M  V30 12249 H 1120.59 -3.43009 -1.80065 0
M  V30 12250 H 1121.01 -5.22114 -0.499681 0
M  V30 12251 H 1122.48 -5.0616 -2.20241 0
M  V30 12252 H 1122.96 -3.44687 -2.7219 0
M  V30 12253 H 1123.56 -4.08688 -1.17703 0
M  V30 12254 N 1121.88 0.120221 -1.57141 0
M  V30 12255 C 1123.11 0.841219 -1.88698 0
M  V30 12256 C 1123.52 1.7401 -0.74277 0
M  V30 12257 O 1122.86 1.81308 0.295497 0
M  V30 12258 C 1122.92 1.72781 -3.15257 0
M  V30 12259 C 1122.58 1.00336 -4.45849 0
M  V30 12260 C 1123.58 0.344734 -5.18756 0
M  V30 12261 C 1121.27 0.984899 -4.9255 0
M  V30 12262 C 1123.26 -0.322664 -6.36583 0
M  V30 12263 C 1120.95 0.313702 -6.10294 0
M  V30 12264 C 1121.95 -0.338926 -6.82159 0
M  V30 12265 O 1121.63 -0.999416 -7.97663 0
M  V30 12266 H 1121.37 0.247195 -0.629182 0
M  V30 12267 H 1123.92 0.109542 -2.05108 0
M  V30 12268 H 1122.15 2.5011 -2.94927 0
M  V30 12269 H 1123.84 2.32313 -3.32845 0
M  V30 12270 H 1124.6 0.350623 -4.83731 0
M  V30 12271 H 1120.48 1.4823 -4.36519 0
M  V30 12272 H 1124.03 -0.832643 -6.92613 0
M  V30 12273 H 1119.92 0.305572 -6.44776 0
M  V30 12274 H 1120.69 -0.90377 -8.13495 0
M  V30 12275 N 1123.36 1.52689 0.390367 0
M  V30 12276 C 1124.3 1.78007 1.4972 0
M  V30 12277 C 1125.3 0.647948 1.56518 0
M  V30 12278 O 1126.5 0.830398 1.59701 0
M  V30 12279 H 1122.88 0.56322 0.498284 0
M  V30 12280 H 1124.85 2.70698 1.25559 0
M  V30 12281 C 1123.6 1.96469 2.86872 0
M  V30 12282 H 1122.92 2.83012 2.82391 0
M  V30 12283 H 1124.36 2.18174 3.6356 0
M  V30 12284 C 1122.82 0.736847 3.28743 0
M  V30 12285 O 1123.35 -0.0863743 4.01607 0
M  V30 12286 N 1121.56 0.56735 2.85008 0
M  V30 12287 H 1121.1 1.23838 2.2588 0
M  V30 12288 H 1121.06 -0.252831 3.13382 0
M  V30 12289 N 1124.83 -0.648732 1.43629 0
M  V30 12290 C 1126.08 -1.40857 1.45483 0
M  V30 12291 C 1126.41 -1.94332 0.0807963 0
M  V30 12292 O 1125.66 -1.72999 -0.914875 0
M  V30 12293 C 1125.96 -2.60394 2.44806 0
M  V30 12294 C 1125.63 -2.25311 3.90571 0
M  V30 12295 C 1124.29 -2.15456 4.3027 0
M  V30 12296 C 1126.64 -1.97307 4.8241 0
M  V30 12297 C 1123.97 -1.75759 5.59755 0
M  V30 12298 C 1126.32 -1.59108 6.12264 0
M  V30 12299 C 1124.99 -1.47781 6.50936 0
M  V30 12300 H 1124.26 -0.515434 0.532362 0
M  V30 12301 H 1126.9 -0.737339 1.76736 0
M  V30 12302 H 1125.21 -3.3267 2.06973 0
M  V30 12303 H 1126.91 -3.18609 2.43494 0
M  V30 12304 H 1123.5 -2.33894 3.59154 0
M  V30 12305 H 1127.68 -2.0384 4.52507 0
M  V30 12306 H 1122.94 -1.65579 5.88552 0
M  V30 12307 H 1127.11 -1.36472 6.82897 0
M  V30 12308 H 1124.74 -1.16792 7.51175 0
M  V30 12309 N 1126.31 -1.30234 -0.887518 0
M  V30 12310 C 1127.22 -1.18316 -2.02579 0
M  V30 12311 C 1128.24 -0.103658 -1.73691 0
M  V30 12312 O 1129.41 -0.3181 -1.98872 0
M  V30 12313 C 1126.48 -0.873222 -3.35523 0
M  V30 12314 C 1125.54 -2.03783 -3.7785 0
M  V30 12315 C 1124.77 -1.74258 -5.0445 0
M  V30 12316 O 1125 -0.669295 -5.6646 0
M  V30 12317 O 1123.93 -2.59423 -5.43124 0
M  V30 12318 H 1127.76 -2.13933 -2.15561 0
M  V30 12319 H 1125.34 -1.09803 -1.0131 0
M  V30 12320 H 1127.22 -0.715463 -4.15282 0
M  V30 12321 H 1125.9 0.053056 -3.23657 0
M  V30 12322 H 1124.81 -2.2509 -2.98806 0
M  V30 12323 H 1126.14 -2.94574 -3.94318 0
M  V30 12324 N 1127.79 1.09952 -1.12909 0
M  V30 12325 C 1128.74 2.18525 -0.796849 0
M  V30 12326 C 1129.73 1.67985 0.218483 0
M  V30 12327 O 1130.94 1.79839 0.07618 0
M  V30 12328 H 1127.31 0.712714 -0.239882 0
M  V30 12329 H 1129.28 2.43783 -1.72083 0
M  V30 12330 C 1128.03 3.46625 -0.273237 0
M  V30 12331 H 1127.36 3.85879 -1.04582 0
M  V30 12332 H 1128.8 4.23926 -0.0791355 0
M  V30 12333 C 1127.26 3.2172 0.999903 0
M  V30 12334 O 1127.79 3.43851 2.07676 0
M  V30 12335 N 1125.99 2.75356 0.928833 0
M  V30 12336 H 1125.54 2.57547 0.052379 0
M  V30 12337 H 1125.5 2.5907 1.78129 0
M  V30 12338 N 1129.27 0.921757 1.27833 0
M  V30 12339 C 1130.52 0.55493 1.93916 0
M  V30 12340 C 1130.83 -0.907191 1.7329 0
M  V30 12341 O 1132.04 -1.38253 2.33663 0
M  V30 12342 C 1130.49 0.941644 3.47363 0
M  V30 12343 C 1130.1 2.42404 3.76755 0
M  V30 12344 C 1131.84 0.645785 4.19559 0
M  V30 12345 C 1129.75 2.75046 5.23549 0
M  V30 12346 H 1128.68 0.203818 0.72593 0
M  V30 12347 H 1131.33 1.12176 1.4522 0
M  V30 12348 H 1129.71 0.303519 3.94835 0
M  V30 12349 H 1130.89 3.10957 3.40062 0
M  V30 12350 H 1129.2 2.69118 3.17749 0
M  V30 12351 H 1131.8 0.866237 5.27637 0
M  V30 12352 H 1132.14 -0.41676 4.14209 0
M  V30 12353 H 1132.68 1.24274 3.7789 0
M  V30 12354 H 1129.42 3.80186 5.33984 0
M  V30 12355 H 1128.94 2.11138 5.6141 0
M  V30 12356 H 1130.61 2.62474 5.91368 0
M  V30 12357 N 1130.75 -1.41857 0.686609 0
M  V30 12358 C 1131.69 -2.326 0.0041351 0
M  V30 12359 C 1132.69 -1.50474 -0.778077 0
M  V30 12360 O 1133.89 -1.66468 -0.684709 0
M  V30 12361 H 1130.27 -0.751797 -0.0174615 0
M  V30 12362 H 1132.24 -2.87844 0.786656 0
M  V30 12363 C 1130.99 -3.35175 -0.924819 0
M  V30 12364 H 1130.31 -3.98416 -0.332339 0
M  V30 12365 H 1131.75 -4.01229 -1.37082 0
M  V30 12366 C 1130.21 -2.68359 -2.03679 0
M  V30 12367 O 1130.74 -2.52453 -3.12459 0
M  V30 12368 N 1128.95 -2.27196 -1.81192 0
M  V30 12369 H 1128.49 -2.40333 -0.92725 0
M  V30 12370 H 1128.45 -1.82824 -2.55778 0
M  V30 12371 N 1132.22 -0.430739 -1.51599 0
M  V30 12372 C 1133.45 0.139197 -2.06932 0
M  V30 12373 C 1133.87 1.3626 -1.29672 0
M  V30 12374 O 1133.23 1.78219 -0.332836 0
M  V30 12375 C 1133.28 0.446593 -3.57824 0
M  V30 12376 O 1132.38 1.53414 -3.82803 0
M  V30 12377 H 1131.73 0.00475812 -0.663983 0
M  V30 12378 H 1134.26 -0.610171 -1.9529 0
M  V30 12379 H 1134.27 0.698972 -4.01968 0
M  V30 12380 H 1132.94 -0.447613 -4.13484 0
M  V30 12381 H 1131.52 1.27224 -3.50526 0
M  V30 12382 N 1133.7 1.56767 -0.161869 0
M  V30 12383 C 1134.65 2.18807 0.789074 0
M  V30 12384 C 1135.64 1.14934 1.24445 0
M  V30 12385 O 1136.85 1.33154 1.2112 0
M  V30 12386 H 1133.23 0.700808 0.272713 0
M  V30 12387 H 1135.2 2.97419 0.241766 0
M  V30 12388 C 1133.95 2.83568 2.01207 0
M  V30 12389 H 1133.27 3.63219 1.67068 0
M  V30 12390 H 1134.71 3.3046 2.65654 0
M  V30 12391 C 1133.17 1.82846 2.82964 0
M  V30 12392 O 1133.7 1.30809 3.79805 0
M  V30 12393 N 1131.9 1.51815 2.47791 0
M  V30 12394 H 1131.45 1.94325 1.69103 0
M  V30 12395 H 1131.41 0.846742 3.02783 0
M  V30 12396 N 1135.18 -0.111886 1.57202 0
M  V30 12397 C 1136.43 -0.819623 1.85499 0
M  V30 12398 C 1136.76 -1.7919 0.748629 0
M  V30 12399 O 1136.03 -1.92952 -0.244918 0
M  V30 12400 C 1136.32 -1.56324 3.24399 0
M  V30 12401 C 1136.17 -0.610081 4.45643 0
M  V30 12402 C 1137.49 -2.51777 3.60966 0
M  V30 12403 H 1134.61 -0.296512 0.674722 0
M  V30 12404 H 1137.25 -0.0836741 1.89816 0
M  V30 12405 H 1135.4 -2.1906 3.2085 0
M  V30 12406 H 1137.07 0.00898038 4.61299 0
M  V30 12407 H 1135.32 0.0778488 4.3373 0
M  V30 12408 H 1135.99 -1.16718 5.39519 0
M  V30 12409 H 1138.46 -1.99143 3.65351 0
M  V30 12410 H 1137.34 -3.00835 4.59118 0
M  V30 12411 H 1137.6 -3.34769 2.8876 0
M  V30 12412 N 1136.66 -1.52894 -0.382264 0
M  V30 12413 C 1137.94 -1.58853 -1.14127 0
M  V30 12414 C 1138.32 -0.38582 -2.07544 0
M  V30 12415 O 1137.66 0.625323 -2.19777 0
M  V30 12416 C 1137.87 -2.93068 -1.89504 0
M  V30 12417 C 1139.22 -3.47048 -2.44629 0
M  V30 12418 O 1140.25 -2.94987 -1.99652 0
M  V30 12419 O 1139.1 -4.3802 -3.26804 0
M  V30 12420 H 1136.2 -0.640969 -0.522578 0
M  V30 12421 H 1138.74 -1.65231 -0.386873 0
M  V30 12422 H 1137.52 -3.72047 -1.2123 0
M  V30 12423 H 1137.14 -2.90106 -2.7189 0
M  V30 12424 N 1138.14 0.641106 -1.43971 0
M  V30 12425 C 1139.09 1.77474 -1.50352 0
M  V30 12426 C 1140.08 1.65173 -0.376052 0
M  V30 12427 O 1141.29 1.71373 -0.550572 0
M  V30 12428 H 1137.66 0.585747 -0.471597 0
M  V30 12429 H 1139.63 1.69213 -2.45784 0
M  V30 12430 C 1138.38 3.15778 -1.45532 0
M  V30 12431 H 1137.7 3.25886 -2.316 0
M  V30 12432 H 1139.14 3.95022 -1.54058 0
M  V30 12433 C 1137.6 3.36447 -0.174624 0
M  V30 12434 O 1138.13 3.9446 0.759215 0
M  V30 12435 N 1136.34 2.90487 -0.0809383 0
M  V30 12436 H 1135.89 2.43461 -0.841691 0
M  V30 12437 H 1135.84 3.04693 0.775231 0
M  V30 12438 N 1139.62 1.30703 0.880598 0
M  V30 12439 C 1140.86 1.19541 1.62955 0
M  V30 12440 C 1141.18 -0.249089 1.93403 0
M  V30 12441 O 1140.45 -1.1669 1.57354 0
M  V30 12442 H 1139.03 0.439434 0.604075 0
M  V30 12443 H 1141.7 1.63888 1.05483 0
M  V30 12444 H 1140.79 1.75945 2.57779 0
M  V30 12445 N 1141.09 -1.09351 1.1349 0
M  V30 12446 C 1142.04 -2.18099 0.808426 0
M  V30 12447 C 1143.04 -1.68099 -0.209571 0
M  V30 12448 O 1144.24 -1.79877 -0.0666417 0
M  V30 12449 H 1140.62 -0.711432 0.243658 0
M  V30 12450 H 1142.59 -2.42867 1.73373 0
M  V30 12451 C 1141.34 -3.46475 0.291615 0
M  V30 12452 H 1140.66 -3.85319 1.06627 0
M  V30 12453 H 1142.1 -4.23878 0.101616 0
M  V30 12454 C 1140.56 -3.22245 -0.982827 0
M  V30 12455 O 1141.09 -3.44947 -2.0585 0
M  V30 12456 N 1139.29 -2.75845 -0.914218 0
M  V30 12457 H 1138.84 -2.57571 -0.03872 0
M  V30 12458 H 1138.8 -2.60011 -1.76753 0
M  V30 12459 N 1142.57 -0.928524 -1.27343 0
M  V30 12460 C 1143.5 -0.385563 -2.25934 0
M  V30 12461 C 1144.52 0.484178 -1.55433 0
M  V30 12462 O 1145.71 0.296668 -1.76017 0
M  V30 12463 C 1142.81 0.466116 -3.35679 0
M  V30 12464 C 1141.98 -0.384523 -4.35707 0
M  V30 12465 C 1141.04 0.404644 -5.24642 0
M  V30 12466 O 1140.06 -0.187943 -5.6889 0
M  V30 12467 N 1141.27 1.70426 -5.54919 0
M  V30 12468 H 1144.03 -1.23306 -2.73159 0
M  V30 12469 H 1141.59 -0.796039 -1.40978 0
M  V30 12470 H 1143.58 1.00115 -3.92121 0
M  V30 12471 H 1142.15 1.21437 -2.88048 0
M  V30 12472 H 1141.37 -1.10085 -3.78517 0
M  V30 12473 H 1142.66 -0.966033 -4.99545 0
M  V30 12474 H 1142.06 2.20802 -5.20829 0
M  V30 12475 H 1140.62 2.1858 -6.14057 0
M  V30 12476 N 1144.05 1.41491 -0.694123 0
M  V30 12477 C 1145.27 2.06099 -0.23197 0
M  V30 12478 C 1145.7 1.51888 1.10958 0
M  V30 12479 O 1145.06 0.645247 1.69429 0
M  V30 12480 C 1145.11 3.60053 -0.198522 0
M  V30 12481 O 1144.21 4.04021 0.827067 0
M  V30 12482 H 1143.55 0.654193 -0.113699 0
M  V30 12483 H 1146.08 1.81282 -0.948575 0
M  V30 12484 H 1146.09 4.0799 -0.0288904 0
M  V30 12485 H 1144.77 3.98879 -1.17764 0
M  V30 12486 H 1143.34 3.67593 0.626908 0
M  V30 12487 N 1145.53 0.438773 1.51369 0
M  V30 12488 C 1146.47 -0.37195 2.27783 0
M  V30 12489 C 1147.44 -1.01558 1.31435 0
M  V30 12490 O 1148.63 -1.03421 1.60339 0
M  V30 12491 C 1145.77 -1.46636 3.12397 0
M  V30 12492 C 1144.88 -0.840727 4.2374 0
M  V30 12493 C 1144.02 -1.91031 4.95662 0
M  V30 12494 C 1143.06 -1.26318 5.98924 0
M  V30 12495 N 1142.19 -2.27419 6.64248 0
M  V30 12496 H 1147.03 0.286048 2.96624 0
M  V30 12497 H 1144.57 0.152909 1.46303 0
M  V30 12498 H 1146.53 -2.11219 3.59781 0
M  V30 12499 H 1145.16 -2.09397 2.45668 0
M  V30 12500 H 1144.21 -0.0831588 3.80309 0
M  V30 12501 H 1145.52 -0.328285 4.97719 0
M  V30 12502 H 1144.68 -2.63272 5.46601 0
M  V30 12503 H 1143.42 -2.45649 4.21317 0
M  V30 12504 H 1142.42 -0.526246 5.47276 0
M  V30 12505 H 1143.65 -0.724324 6.75226 0
M  V30 12506 H 1141.59 -2.81114 5.92715 0
M  V30 12507 H 1141.51 -1.81071 7.33996 0
M  V30 12508 H 1142.78 -2.99139 7.19817 0
M  V30 12509 N 1147.01 -1.56678 0.170181 0
M  V30 12510 C 1147.95 -2.19222 -0.777459 0
M  V30 12511 C 1148.95 -1.15592 -1.23834 0
M  V30 12512 O 1150.15 -1.33794 -1.20412 0
M  V30 12513 H 1146.53 -0.702244 -0.268992 0
M  V30 12514 H 1148.5 -2.97543 -0.225989 0
M  V30 12515 C 1147.25 -2.84631 -1.997 0
M  V30 12516 H 1146.57 -3.641 -1.65139 0
M  V30 12517 H 1148.01 -3.31864 -2.63898 0
M  V30 12518 C 1146.47 -1.84345 -2.81991 0
M  V30 12519 O 1147 -1.32821 -3.79106 0
M  V30 12520 N 1145.21 -1.53127 -2.46983 0
M  V30 12521 H 1144.75 -1.95219 -1.6807 0
M  V30 12522 H 1144.71 -0.862787 -3.0233 0
M  V30 12523 N 1148.48 0.103547 -1.57259 0
M  V30 12524 C 1149.73 0.807231 -1.84842 0
M  V30 12525 C 1150.05 1.80308 -0.758181 0
M  V30 12526 O 1151.25 2.55406 -0.920877 0
M  V30 12527 C 1149.71 1.4864 -3.27771 0
M  V30 12528 C 1149.32 0.53075 -4.44845 0
M  V30 12529 C 1151.06 2.17431 -3.64587 0
M  V30 12530 C 1148.97 1.21403 -5.78805 0
M  V30 12531 H 1147.9 0.305212 -0.689465 0
M  V30 12532 H 1150.55 0.0600855 -1.83402 0
M  V30 12533 H 1148.93 2.28071 -3.23728 0
M  V30 12534 H 1150.1 -0.231455 -4.60218 0
M  V30 12535 H 1148.42 -0.0510078 -4.16369 0
M  V30 12536 H 1151.02 2.6927 -4.6195 0
M  V30 12537 H 1151.36 2.9594 -2.92789 0
M  V30 12538 H 1151.89 1.4487 -3.70483 0
M  V30 12539 H 1148.63 0.469918 -6.53813 0
M  V30 12540 H 1148.15 1.94787 -5.6729 0
M  V30 12541 H 1149.83 1.74289 -6.23083 0
M  V30 12542 N 1149.96 1.53094 0.37415 0
M  V30 12543 C 1151.19 1.73061 1.143 0
M  V30 12544 C 1151.61 0.454611 1.82524 0
M  V30 12545 O 1150.97 -0.590743 1.71406 0
M  V30 12546 C 1151.02 2.89086 2.15549 0
M  V30 12547 O 1150.12 2.57096 3.22452 0
M  V30 12548 H 1149.46 0.575009 0.332055 0
M  V30 12549 H 1151.99 1.99946 0.433897 0
M  V30 12550 H 1152 3.15007 2.59296 0
M  V30 12551 H 1150.68 3.81647 1.65283 0
M  V30 12552 H 1149.25 2.41965 2.83738 0
M  V30 12553 N 1151.44 -0.633461 1.44309 0
M  V30 12554 C 1152.72 -1.3917 1.37444 0
M  V30 12555 C 1153.1 -2.11076 0.0319994 0
M  V30 12556 O 1152.44 -2.06164 -0.98533 0
M  V30 12557 C 1152.65 -2.36005 2.57104 0
M  V30 12558 C 1154 -2.99407 3.01065 0
M  V30 12559 O 1155.03 -2.46331 2.57292 0
M  V30 12560 O 1153.89 -3.95686 3.76954 0
M  V30 12561 H 1150.98 -0.622746 0.544166 0
M  V30 12562 H 1153.53 -0.658712 1.56394 0
M  V30 12563 H 1152.3 -1.81955 3.46422 0
M  V30 12564 H 1151.92 -3.16725 2.40356 0
M  V30 12565 N 1152.92 -1.31168 -0.873655 0
M  V30 12566 C 1153.85 -1.21094 -1.99646 0
M  V30 12567 C 1154.83 -0.0989684 -1.69812 0
M  V30 12568 O 1156.01 -0.282939 -1.92128 0
M  V30 12569 C 1153.14 -0.913684 -3.35066 0
M  V30 12570 C 1152.1 -1.98482 -3.79195 0
M  V30 12571 C 1151.42 -1.54033 -5.12033 0
M  V30 12572 C 1152.72 -3.39745 -3.96699 0
M  V30 12573 H 1154.42 -2.1503 -2.08333 0
M  V30 12574 H 1151.96 -1.03521 -1.00097 0
M  V30 12575 H 1153.92 -0.829821 -4.13149 0
M  V30 12576 H 1152.64 0.0613471 -3.26542 0
M  V30 12577 H 1151.3 -2.05851 -3.03349 0
M  V30 12578 H 1150.95 -0.553261 -4.99948 0
M  V30 12579 H 1150.65 -2.25688 -5.4253 0
M  V30 12580 H 1152.17 -1.47047 -5.92629 0
M  V30 12581 H 1153.59 -3.35071 -4.65188 0
M  V30 12582 H 1151.98 -4.09585 -4.38589 0
M  V30 12583 H 1153.05 -3.80802 -3.00196 0
M  V30 12584 N 1154.4 1.08748 -1.14068 0
M  V30 12585 C 1155.62 1.85353 -0.930532 0
M  V30 12586 C 1156.05 1.80892 0.515717 0
M  V30 12587 O 1155.4 1.19146 1.36652 0
M  V30 12588 C 1155.45 3.30962 -1.43167 0
M  V30 12589 O 1154.56 4.0769 -0.621468 0
M  V30 12590 H 1153.9 0.574485 -0.332962 0
M  V30 12591 H 1156.43 1.37282 -1.51707 0
M  V30 12592 H 1156.44 3.81807 -1.43832 0
M  V30 12593 H 1155.11 3.33524 -2.48464 0
M  V30 12594 H 1153.69 3.66587 -0.683267 0
M  V30 12595 N 1155.87 0.935264 1.26849 0
M  V30 12596 C 1157.1 0.595384 1.97835 0
M  V30 12597 C 1157.51 -0.832605 1.69895 0
M  V30 12598 O 1156.86 -1.56597 0.960371 0
M  V30 12599 C 1156.92 0.750567 3.51578 0
M  V30 12600 C 1156.58 2.15208 4.03156 0
M  V30 12601 C 1157.58 3.12699 4.15349 0
M  V30 12602 C 1155.26 2.47106 4.37314 0
M  V30 12603 C 1157.26 4.40193 4.60987 0
M  V30 12604 C 1154.94 3.74834 4.82641 0
M  V30 12605 C 1155.94 4.7119 4.94438 0
M  V30 12606 O 1155.63 5.96644 5.38768 0
M  V30 12607 H 1155.36 0.223734 0.637902 0
M  V30 12608 H 1157.92 1.25663 1.62475 0
M  V30 12609 H 1156.15 0.0322039 3.86687 0
M  V30 12610 H 1157.84 0.414625 4.03777 0
M  V30 12611 H 1158.6 2.89378 3.89211 0
M  V30 12612 H 1154.48 1.72846 4.2737 0
M  V30 12613 H 1158.02 5.15406 4.70109 0
M  V30 12614 H 1153.92 3.9797 5.08222 0
M  V30 12615 H 1154.69 5.99741 5.57003 0
M  V30 12616 N 1157.35 -1.41121 0.701616 0
M  V30 12617 C 1158.58 -2.05452 0.244365 0
M  V30 12618 C 1159 -1.5282 -1.10866 0
M  V30 12619 O 1158.35 -0.67893 -1.69401 0
M  V30 12620 C 1158.4 -3.60946 0.200112 0
M  V30 12621 O 1158.12 -4.11632 1.4997 0
M  V30 12622 C 1159.63 -4.42431 -0.277394 0
M  V30 12623 H 1156.85 -0.66151 0.112453 0
M  V30 12624 H 1159.39 -1.80784 0.9559 0
M  V30 12625 H 1157.54 -3.84632 -0.462287 0
M  V30 12626 H 1157.96 -5.05723 1.39084 0
M  V30 12627 H 1159.43 -5.514 -0.257225 0
M  V30 12628 H 1159.91 -4.1898 -1.31728 0
M  V30 12629 H 1160.52 -4.23822 0.354223 0
M  V30 12630 N 1158.83 -0.446794 -1.51134 0
M  V30 12631 C 1160.11 0.176892 -1.94798 0
M  V30 12632 C 1160.49 1.59229 -1.38598 0
M  V30 12633 O 1159.84 2.21097 -0.576905 0
M  V30 12634 C 1160.05 0.145 -3.48699 0
M  V30 12635 C 1161.39 0.345917 -4.23189 0
M  V30 12636 O 1162.42 0.222691 -3.55503 0
M  V30 12637 O 1161.28 0.592112 -5.43283 0
M  V30 12638 H 1158.37 0.12486 -0.81752 0
M  V30 12639 H 1160.92 -0.505453 -1.61998 0
M  V30 12640 H 1159.69 -0.844156 -3.82086 0
M  V30 12641 H 1159.31 0.869851 -3.87968 0
M  V30 12642 N 1160.31 1.56586 -0.178487 0
M  V30 12643 C 1161.24 2.155 0.780543 0
M  V30 12644 C 1162.25 1.11244 1.18864 0
M  V30 12645 O 1163.44 1.38403 1.12725 0
M  V30 12646 C 1160.54 2.68867 2.0631 0
M  V30 12647 C 1159.72 3.97854 1.81744 0
M  V30 12648 C 1158.77 4.36213 2.94287 0
M  V30 12649 O 1157.8 5.03954 2.64612 0
M  V30 12650 N 1159 3.98356 4.22247 0
M  V30 12651 H 1161.77 2.98419 0.276836 0
M  V30 12652 H 1159.33 1.61899 0.00405241 0
M  V30 12653 H 1161.32 2.91522 2.80708 0
M  V30 12654 H 1159.89 1.90496 2.47851 0
M  V30 12655 H 1159.11 3.83502 0.912127 0
M  V30 12656 H 1160.4 4.82083 1.62707 0
M  V30 12657 H 1159.8 3.43835 4.49215 0
M  V30 12658 H 1158.35 4.25998 4.93325 0
M  V30 12659 N 1161.79 -0.095206 1.57312 0
M  V30 12660 C 1162.73 -1.11551 2.02052 0
M  V30 12661 C 1163.7 -1.39808 0.896818 0
M  V30 12662 O 1164.89 -1.51273 1.1628 0
M  V30 12663 C 1162.03 -2.43056 2.44985 0
M  V30 12664 C 1161.14 -2.21531 3.70875 0
M  V30 12665 C 1160.28 -3.46434 4.02687 0
M  V30 12666 C 1159.32 -3.2017 5.21687 0
M  V30 12667 N 1158.45 -4.37339 5.49253 0
M  V30 12668 H 1163.29 -0.727 2.88996 0
M  V30 12669 H 1160.83 -0.347441 1.42938 0
M  V30 12670 H 1162.79 -3.19803 2.67921 0
M  V30 12671 H 1161.42 -2.79754 1.61051 0
M  V30 12672 H 1160.47 -1.35587 3.55416 0
M  V30 12673 H 1161.78 -1.98116 4.57768 0
M  V30 12674 H 1160.94 -4.31589 4.26399 0
M  V30 12675 H 1159.67 -3.72904 3.14315 0
M  V30 12676 H 1158.68 -2.33409 4.97796 0
M  V30 12677 H 1159.9 -2.95047 6.11657 0
M  V30 12678 H 1157.85 -4.63885 4.6384 0
M  V30 12679 H 1157.77 -4.17114 6.30517 0
M  V30 12680 H 1159.04 -5.23559 5.775 0
M  V30 12681 N 1163.26 -1.53291 -0.366026 0
M  V30 12682 C 1164.17 -1.82656 -1.47221 0
M  V30 12683 C 1165.19 -0.71491 -1.58635 0
M  V30 12684 O 1166.37 -1.00492 -1.74538 0
M  V30 12685 C 1163.43 -2.00995 -2.82492 0
M  V30 12686 C 1162.49 -3.24895 -2.8061 0
M  V30 12687 C 1161.73 -3.4235 -4.09429 0
M  V30 12688 O 1161.95 -2.6411 -5.05571 0
M  V30 12689 O 1160.88 -4.35702 -4.15268 0
M  V30 12690 H 1164.71 -2.76634 -1.2533 0
M  V30 12691 H 1162.29 -1.38665 -0.556084 0
M  V30 12692 H 1164.18 -2.14632 -3.62645 0
M  V30 12693 H 1162.85 -1.10207 -3.04362 0
M  V30 12694 H 1161.76 -3.16682 -1.99157 0
M  V30 12695 H 1163.09 -4.15604 -2.63694 0
M  V30 12696 N 1164.74 0.6258 -1.44643 0
M  V30 12697 C 1165.99 1.38125 -1.46984 0
M  V30 12698 C 1166.3 1.95299 -0.108429 0
M  V30 12699 O 1167.51 2.71498 -0.00940005 0
M  V30 12700 C 1165.97 2.50108 -2.58793 0
M  V30 12701 C 1165.57 1.99424 -4.01166 0
M  V30 12702 C 1167.32 3.27269 -2.70361 0
M  V30 12703 C 1165.23 3.08781 -5.04389 0
M  V30 12704 H 1164.16 0.519083 -0.546872 0
M  V30 12705 H 1166.81 0.67268 -1.70726 0
M  V30 12706 H 1165.19 3.23565 -2.28302 0
M  V30 12707 H 1166.36 1.32797 -4.4125 0
M  V30 12708 H 1164.68 1.35063 -3.93887 0
M  V30 12709 H 1167.27 4.08802 -3.44652 0
M  V30 12710 H 1167.62 3.77097 -1.76362 0
M  V30 12711 H 1168.15 2.60905 -3.00289 0
M  V30 12712 H 1164.89 2.63891 -6.00035 0
M  V30 12713 H 1164.41 3.74033 -4.68892 0
M  V30 12714 H 1166.09 3.73469 -5.28328 0
M  V30 12715 N 1166.22 1.31629 0.866686 0
M  V30 12716 C 1167.15 1.22151 1.99001 0
M  V30 12717 C 1168.13 0.107972 1.69757 0
M  V30 12718 O 1169.32 0.293125 1.91975 0
M  V30 12719 C 1166.45 0.93144 3.34577 0
M  V30 12720 C 1165.4 2.0049 3.78137 0
M  V30 12721 C 1164.73 1.56747 5.11209 0
M  V30 12722 C 1166.03 3.41844 3.94892 0
M  V30 12723 H 1167.72 2.16132 2.0719 0
M  V30 12724 H 1165.27 1.04051 0.995463 0
M  V30 12725 H 1167.22 0.851719 4.12703 0
M  V30 12726 H 1165.94 -0.0440289 3.2657 0
M  V30 12727 H 1164.6 2.07457 3.02253 0
M  V30 12728 H 1164.25 0.579767 4.99648 0
M  V30 12729 H 1163.95 2.28562 5.41326 0
M  V30 12730 H 1165.47 1.50188 5.91841 0
M  V30 12731 H 1166.89 3.37534 4.63405 0
M  V30 12732 H 1165.29 4.11905 4.36411 0
M  V30 12733 H 1166.36 3.82389 2.98172 0
M  V30 12734 N 1167.7 -1.08142 1.14644 0
M  V30 12735 C 1168.61 -2.18675 0.849607 0
M  V30 12736 C 1169.63 -1.73158 -0.170983 0
M  V30 12737 O 1170.8 -2.014 0.0011579 0
M  V30 12738 C 1167.87 -3.45084 0.334305 0
M  V30 12739 C 1166.93 -4.05213 1.41779 0
M  V30 12740 C 1166.16 -5.25588 0.926981 0
M  V30 12741 O 1166.38 -5.69934 -0.230522 0
M  V30 12742 O 1165.32 -5.77183 1.70715 0
M  V30 12743 H 1169.14 -2.46542 1.77343 0
M  V30 12744 H 1166.73 -1.17328 0.924911 0
M  V30 12745 H 1168.61 -4.21367 0.0529893 0
M  V30 12746 H 1167.29 -3.18788 -0.561755 0
M  V30 12747 H 1166.19 -3.30507 1.7526 0
M  V30 12748 H 1167.53 -4.35764 2.28847 0
M  V30 12749 N 1169.18 -0.941978 -1.26351 0
M  V30 12750 C 1170.12 -0.450906 -2.26353 0
M  V30 12751 C 1171.09 0.489857 -1.58712 0
M  V30 12752 O 1172.28 0.40589 -1.86433 0
M  V30 12753 C 1169.42 0.277054 -3.43986 0
M  V30 12754 C 1168.53 -0.699474 -4.263 0
M  V30 12755 C 1167.67 0.0497661 -5.31177 0
M  V30 12756 C 1166.71 -0.918531 -6.05169 0
M  V30 12757 N 1165.84 -0.200993 -7.01812 0
M  V30 12758 H 1170.68 -1.30861 -2.6773 0
M  V30 12759 H 1168.22 -0.656514 -1.31637 0
M  V30 12760 H 1170.18 0.715567 -4.11018 0
M  V30 12761 H 1168.81 1.09889 -3.0352 0
M  V30 12762 H 1167.86 -1.2565 -3.59049 0
M  V30 12763 H 1169.17 -1.4389 -4.77595 0
M  V30 12764 H 1168.33 0.547521 -6.04224 0
M  V30 12765 H 1167.07 0.822068 -4.80722 0
M  V30 12766 H 1166.07 -1.4274 -5.30947 0
M  V30 12767 H 1167.3 -1.69085 -6.57713 0
M  V30 12768 H 1165.24 0.552803 -6.53667 0
M  V30 12769 H 1165.16 -0.879735 -7.50864 0
M  V30 12770 H 1166.43 0.275642 -7.79012 0
M  V30 12771 N 1170.66 1.40747 -0.709091 0
M  V30 12772 C 1171.9 2.00233 -0.242836 0
M  V30 12773 C 1172.22 1.56853 1.1686 0
M  V30 12774 O 1173.42 2.08993 1.73304 0
M  V30 12775 C 1171.88 3.57854 -0.383241 0
M  V30 12776 C 1171.49 4.10209 -1.80091 0
M  V30 12777 C 1173.23 4.24494 0.0225511 0
M  V30 12778 C 1171.14 5.60311 -1.89225 0
M  V30 12779 H 1170.07 0.74896 -0.087034 0
M  V30 12780 H 1172.72 1.61064 -0.879243 0
M  V30 12781 H 1171.1 3.94692 0.321642 0
M  V30 12782 H 1172.28 3.84762 -2.53564 0
M  V30 12783 H 1170.59 3.56142 -2.15758 0
M  V30 12784 H 1173.19 5.34694 -0.0250644 0
M  V30 12785 H 1173.53 4.02488 1.06344 0
M  V30 12786 H 1174.06 3.92739 -0.632541 0
M  V30 12787 H 1170.8 5.87162 -2.91412 0
M  V30 12788 H 1170.32 5.87642 -1.20154 0
M  V30 12789 H 1172 6.25306 -1.66136 0
M  V30 12790 N 1172.13 0.454803 1.50895 0
M  V30 12791 C 1173.38 -0.105927 2.02523 0
M  V30 12792 C 1173.71 -1.40825 1.33724 0
M  V30 12793 O 1172.99 -1.89038 0.457683 0
M  V30 12794 C 1173.27 -0.306635 3.58792 0
M  V30 12795 C 1173.12 1.01556 4.38185 0
M  V30 12796 C 1174.44 -1.06858 4.2693 0
M  V30 12797 H 1171.56 -0.0370232 0.736069 0
M  V30 12798 H 1174.2 0.597215 1.8037 0
M  V30 12799 H 1172.35 -0.905563 3.77799 0
M  V30 12800 H 1174.03 1.64981 4.30789 0
M  V30 12801 H 1172.27 1.61608 4.02574 0
M  V30 12802 H 1172.94 0.828959 5.4574 0
M  V30 12803 H 1175.42 -0.561086 4.123 0
M  V30 12804 H 1174.29 -1.1778 5.36115 0
M  V30 12805 H 1174.55 -2.10111 3.8898 0
M  V30 12806 N 1173.61 -1.56489 0.186789 0
M  V30 12807 C 1174.84 -2.02163 -0.463126 0
M  V30 12808 C 1175.26 -1.06612 -1.54969 0
M  V30 12809 O 1174.62 -0.0482139 -1.81236 0
M  V30 12810 C 1174.67 -3.46337 -1.00416 0
M  V30 12811 O 1173.77 -3.53889 -2.11747 0
M  V30 12812 H 1173.11 -0.65496 -0.109194 0
M  V30 12813 H 1175.64 -2.02459 0.295227 0
M  V30 12814 H 1175.65 -3.85959 -1.32287 0
M  V30 12815 H 1174.33 -4.15376 -0.208693 0
M  V30 12816 H 1172.9 -3.26136 -1.80803 0
M  V30 12817 N 1175.09 0.086862 -1.5736 0
M  V30 12818 C 1176.32 0.801004 -1.9044 0
M  V30 12819 C 1176.73 1.72396 -0.779513 0
M  V30 12820 O 1176.07 1.81894 0.256972 0
M  V30 12821 C 1176.13 1.66055 -3.18851 0
M  V30 12822 C 1175.8 0.908561 -4.47877 0
M  V30 12823 C 1176.79 0.234621 -5.1937 0
M  V30 12824 C 1174.48 0.8802 -4.94528 0
M  V30 12825 C 1176.47 -0.45762 -6.35755 0
M  V30 12826 C 1174.16 0.184179 -6.10822 0
M  V30 12827 C 1175.16 -0.483545 -6.81286 0
M  V30 12828 O 1174.85 -1.16839 -7.95364 0
M  V30 12829 H 1174.58 0.233794 -0.634284 0
M  V30 12830 H 1177.13 0.0660113 -2.05294 0
M  V30 12831 H 1175.36 2.43798 -3.00165 0
M  V30 12832 H 1177.05 2.252 -3.37698 0
M  V30 12833 H 1177.82 0.247938 -4.84366 0
M  V30 12834 H 1173.7 1.38938 -4.39565 0
M  V30 12835 H 1177.24 -0.979369 -6.90691 0
M  V30 12836 H 1173.14 0.168737 -6.45279 0
M  V30 12837 H 1173.9 -1.07612 -8.11395 0
M  V30 12838 N 1176.57 1.53483 0.357892 0
M  V30 12839 C 1177.82 1.69256 1.09706 0
M  V30 12840 C 1178.13 0.454888 1.90237 0
M  V30 12841 O 1179.34 0.4933 2.66981 0
M  V30 12842 C 1177.79 2.99238 1.99961 0
M  V30 12843 C 1177.4 4.30293 1.24706 0
M  V30 12844 C 1179.14 3.24378 2.73823 0
M  V30 12845 C 1177.05 5.5136 2.13907 0
M  V30 12846 H 1175.98 0.630657 0.413265 0
M  V30 12847 H 1178.63 1.79983 0.357518 0
M  V30 12848 H 1177.01 2.82332 2.77677 0
M  V30 12849 H 1178.19 4.57857 0.519995 0
M  V30 12850 H 1176.5 4.11656 0.626736 0
M  V30 12851 H 1179.1 4.12015 3.40805 0
M  V30 12852 H 1179.44 2.40769 3.39612 0
M  V30 12853 H 1179.98 3.41994 2.03187 0
M  V30 12854 H 1176.71 6.3747 1.52684 0
M  V30 12855 H 1176.23 5.28065 2.84442 0
M  V30 12856 H 1177.91 5.86448 2.7329 0
M  V30 12857 N 1178.05 -0.61812 1.44973 0
M  V30 12858 C 1179.29 -1.37944 1.48658 0
M  V30 12859 C 1179.62 -1.93805 0.123749 0
M  V30 12860 O 1178.9 -1.74434 -0.860401 0
M  V30 12861 C 1179.18 -2.53515 2.55739 0
M  V30 12862 C 1179.04 -2.02918 4.01428 0
M  V30 12863 C 1180.35 -3.55674 2.59199 0
M  V30 12864 H 1177.47 -0.500223 0.541244 0
M  V30 12865 H 1180.12 -0.69774 1.76725 0
M  V30 12866 H 1178.27 -3.11669 2.31937 0
M  V30 12867 H 1179.94 -1.49494 4.36405 0
M  V30 12868 H 1178.18 -1.33999 4.12586 0
M  V30 12869 H 1178.85 -2.86181 4.72021 0
M  V30 12870 H 1181.33 -3.07343 2.80499 0
M  V30 12871 H 1180.2 -4.34042 3.36004 0
M  V30 12872 H 1180.46 -4.10601 1.63888 0
M  V30 12873 N 1179.52 -1.32087 -0.859693 0
M  V30 12874 C 1180.8 -1.12984 -1.59668 0
M  V30 12875 C 1181.18 0.311661 -2.08787 0
M  V30 12876 O 1180.53 1.30746 -1.87397 0
M  V30 12877 C 1180.74 -2.15305 -2.74672 0
M  V30 12878 C 1182.09 -2.48371 -3.44379 0
M  V30 12879 O 1183.11 -2.13811 -2.84891 0
M  V30 12880 O 1181.97 -3.07594 -4.51717 0
M  V30 12881 H 1179.06 -0.435657 -0.702945 0
M  V30 12882 H 1181.61 -1.43601 -0.90426 0
M  V30 12883 H 1180.38 -3.12223 -2.35866 0
M  V30 12884 H 1180 -1.85653 -3.51594 0
M  V30 12885 N 1181 1.07532 -1.15215 0
M  V30 12886 C 1182.25 1.79474 -0.920439 0
M  V30 12887 C 1182.56 1.87593 0.553926 0
M  V30 12888 O 1183.77 2.56037 0.903169 0
M  V30 12889 C 1182.23 3.22509 -1.59738 0
M  V30 12890 C 1181.83 3.22596 -3.10863 0
M  V30 12891 C 1183.58 3.99072 -1.44714 0
M  V30 12892 C 1181.48 4.60273 -3.71352 0
M  V30 12893 H 1180.41 0.672625 -0.340722 0
M  V30 12894 H 1183.07 1.2071 -1.38208 0
M  V30 12895 H 1181.45 3.81454 -1.06342 0
M  V30 12896 H 1182.62 2.73306 -3.70999 0
M  V30 12897 H 1180.94 2.5953 -3.25627 0
M  V30 12898 H 1183.53 5.00823 -1.87299 0
M  V30 12899 H 1183.88 4.14428 -0.394386 0
M  V30 12900 H 1184.41 3.46617 -1.95195 0
M  V30 12901 H 1181.15 4.50122 -4.76519 0
M  V30 12902 H 1180.67 5.09809 -3.15998 0
M  V30 12903 H 1182.35 5.29243 -3.7217 0
M  V30 12904 N 1182.48 0.948665 1.2585 0
M  V30 12905 C 1183.71 0.616741 1.98018 0
M  V30 12906 C 1184.13 -0.803005 1.70098 0
M  V30 12907 O 1183.49 -1.54208 0.953392 0
M  V30 12908 C 1183.54 0.874429 3.49837 0
M  V30 12909 O 1182.64 -0.0497568 4.1237 0
M  V30 12910 H 1181.98 0.235112 0.620982 0
M  V30 12911 H 1184.51 1.27364 1.60124 0
M  V30 12912 H 1184.52 0.798309 4.00114 0
M  V30 12913 H 1183.2 1.90922 3.69488 0
M  V30 12914 H 1181.77 0.0780591 3.72818 0
M  V30 12915 N 1183.96 -1.40369 0.716545 0
M  V30 12916 C 1184.89 -2.33365 0.0793533 0
M  V30 12917 C 1185.87 -1.52943 -0.744482 0
M  V30 12918 O 1187.05 -1.81406 -0.693212 0
M  V30 12919 C 1184.18 -3.36928 -0.842429 0
M  V30 12920 C 1183.14 -4.2782 -0.124142 0
M  V30 12921 C 1182.46 -5.21928 -1.1617 0
M  V30 12922 C 1183.76 -5.12199 1.02224 0
M  V30 12923 H 1185.46 -2.86899 0.856115 0
M  V30 12924 H 1183 -1.37946 0.413138 0
M  V30 12925 H 1184.96 -4.00925 -1.29759 0
M  V30 12926 H 1183.68 -2.81791 -1.6511 0
M  V30 12927 H 1182.34 -3.65277 0.311201 0
M  V30 12928 H 1181.99 -4.63096 -1.96345 0
M  V30 12929 H 1181.69 -5.83582 -0.685978 0
M  V30 12930 H 1183.21 -5.88802 -1.61694 0
M  V30 12931 H 1184.63 -5.69644 0.646399 0
M  V30 12932 H 1183.02 -5.82901 1.4264 0
M  V30 12933 H 1184.09 -4.4812 1.85246 0
M  V30 12934 N 1185.44 -0.462799 -1.50652 0
M  V30 12935 C 1186.67 0.0928413 -2.06391 0
M  V30 12936 C 1187.07 1.34791 -1.3277 0
M  V30 12937 O 1186.42 1.79555 -0.388048 0
M  V30 12938 C 1186.48 0.45517 -3.56607 0
M  V30 12939 C 1186.14 -0.696698 -4.51658 0
M  V30 12940 C 1187.14 -1.57633 -4.95427 0
M  V30 12941 C 1184.83 -0.884669 -4.94448 0
M  V30 12942 C 1186.82 -2.62841 -5.80684 0
M  V30 12943 C 1184.51 -1.93998 -5.79489 0
M  V30 12944 C 1185.5 -2.81022 -6.22508 0
M  V30 12945 O 1185.19 -3.84738 -7.05856 0
M  V30 12946 H 1184.92 -3.18898e-05 -0.676 0
M  V30 12947 H 1187.48 -0.648161 -1.94905 0
M  V30 12948 H 1185.71 1.24924 -3.65966 0
M  V30 12949 H 1187.4 0.944923 -3.94748 0
M  V30 12950 H 1188.16 -1.44276 -4.63044 0
M  V30 12951 H 1184.04 -0.216807 -4.6049 0
M  V30 12952 H 1187.59 -3.30797 -6.14182 0
M  V30 12953 H 1183.48 -2.07366 -6.11285 0
M  V30 12954 H 1184.25 -3.81626 -7.24088 0
M  V30 12955 N 1186.91 1.56388 -0.195085 0
M  V30 12956 C 1188.19 1.89329 0.491303 0
M  V30 12957 C 1188.57 1.10861 1.79647 0
M  V30 12958 O 1187.92 0.209696 2.27536 0
M  V30 12959 C 1188.13 3.417 0.710096 0
M  V30 12960 C 1189.48 4.11931 1.02947 0
M  V30 12961 O 1190.5 3.4715 0.797817 0
M  V30 12962 O 1189.36 5.26423 1.46767 0
M  V30 12963 H 1186.45 0.786335 0.256137 0
M  V30 12964 H 1189 1.68061 -0.235298 0
M  V30 12965 H 1187.77 3.90727 -0.211604 0
M  V30 12966 H 1187.4 3.6866 1.48916 0
M  V30 12967 N 1188.39 -0.0785156 1.57404 0
M  V30 12968 C 1189.64 -0.777722 1.86103 0
M  V30 12969 C 1189.95 -1.79079 0.786771 0
M  V30 12970 O 1191.16 -2.53908 0.961393 0
M  V30 12971 C 1189.62 -1.43407 3.30095 0
M  V30 12972 C 1189.22 -0.459912 4.45633 0
M  V30 12973 C 1190.97 -2.11603 3.68 0
M  V30 12974 C 1188.88 -1.12179 5.80663 0
M  V30 12975 H 1187.81 -0.294205 0.694233 0
M  V30 12976 H 1190.46 -0.0309003 1.83474 0
M  V30 12977 H 1188.84 -2.22892 3.27315 0
M  V30 12978 H 1190.01 0.304642 4.59792 0
M  V30 12979 H 1188.33 0.117242 4.16235 0
M  V30 12980 H 1190.92 -2.61887 4.66175 0
M  V30 12981 H 1191.27 -2.91244 2.9746 0
M  V30 12982 H 1191.8 -1.38958 3.72741 0
M  V30 12983 H 1188.54 -0.365842 6.54478 0
M  V30 12984 H 1188.06 -1.85737 5.70317 0
M  V30 12985 H 1189.74 -1.64355 6.25777 0
M  V30 12986 N 1189.87 -1.5367 -0.349747 0
M  V30 12987 C 1190.78 -1.84207 -1.45275 0
M  V30 12988 C 1191.8 -0.731695 -1.57868 0
M  V30 12989 O 1192.97 -1.02337 -1.73462 0
M  V30 12990 C 1190.04 -2.0398 -2.80345 0
M  V30 12991 C 1189.1 -3.27853 -2.77148 0
M  V30 12992 C 1188.33 -3.46673 -4.05775 0
M  V30 12993 O 1188.55 -2.69457 -5.02741 0
M  V30 12994 O 1187.49 -4.40082 -4.10623 0
M  V30 12995 H 1191.31 -2.77947 -1.22389 0
M  V30 12996 H 1188.9 -1.39247 -0.541345 0
M  V30 12997 H 1190.78 -2.18466 -3.60348 0
M  V30 12998 H 1189.46 -1.13429 -3.03176 0
M  V30 12999 H 1188.36 -3.18776 -1.95787 0
M  V30 13000 H 1189.7 -4.18377 -2.59271 0
M  V30 13001 N 1191.35 0.610423 -1.45298 0
M  V30 13002 C 1192.3 1.74245 -1.54083 0
M  V30 13003 C 1193.29 1.64338 -0.411003 0
M  V30 13004 O 1194.5 1.70167 -0.586799 0
M  V30 13005 H 1190.87 0.575612 -0.483916 0
M  V30 13006 H 1192.84 1.63961 -2.49318 0
M  V30 13007 C 1191.59 3.1262 -1.52198 0
M  V30 13008 H 1190.91 3.209 -2.3846 0
M  V30 13009 H 1192.35 3.91665 -1.62403 0
M  V30 13010 C 1190.81 3.36001 -0.24595 0
M  V30 13011 O 1191.34 3.95982 0.675374 0
M  V30 13012 N 1189.55 2.9025 -0.142537 0
M  V30 13013 H 1189.1 2.41621 -0.893143 0
M  V30 13014 H 1189.05 3.06268 0.710427 0
M  V30 13015 N 1192.83 1.32541 0.852676 0
M  V30 13016 C 1194.05 1.2622 1.6394 0
M  V30 13017 C 1194.47 -0.169455 1.88038 0
M  V30 13018 O 1193.83 -1.10719 1.45078 0
M  V30 13019 C 1193.88 2.02062 2.99755 0
M  V30 13020 O 1193.6 3.39641 2.76723 0
M  V30 13021 C 1195.1 2.02787 3.94198 0
M  V30 13022 H 1192.32 0.435405 0.510552 0
M  V30 13023 H 1194.86 1.74696 1.06309 0
M  V30 13024 H 1193.02 1.57303 3.54026 0
M  V30 13025 H 1193.43 3.78484 3.63111 0
M  V30 13026 H 1194.91 2.60333 4.86755 0
M  V30 13027 H 1195.38 1.01464 4.27319 0
M  V30 13028 H 1195.99 2.47504 3.45864 0
M  V30 13029 N 1194.3 -1.0692 1.15784 0
M  V30 13030 C 1195.27 -2.12407 0.861167 0
M  V30 13031 C 1196.27 -1.6018 -0.141031 0
M  V30 13032 O 1197.46 -1.73972 0.0891192 0
M  V30 13033 C 1194.59 -3.39693 0.286636 0
M  V30 13034 H 1195.78 -2.40157 1.79623 0
M  V30 13035 H 1193.34 -1.22881 0.965916 0
M  V30 13036 H 1194.07 -3.17587 -0.656417 0
M  V30 13037 H 1193.86 -3.78903 1.0087 0
M  V30 13038 H 1195.35 -4.17488 0.0967971 0
M  V30 13039 N 1195.78 -0.955326 -1.25345 0
M  V30 13040 C 1196.71 -0.494145 -2.28211 0
M  V30 13041 C 1197.69 0.459875 -1.63766 0
M  V30 13042 O 1198.88 0.358679 -1.90859 0
M  V30 13043 C 1196.01 0.228228 -3.46549 0
M  V30 13044 C 1194.96 -0.640601 -4.23179 0
M  V30 13045 C 1194.29 0.212553 -5.34277 0
M  V30 13046 C 1195.59 -1.91906 -4.85767 0
M  V30 13047 H 1197.28 -1.35391 -2.67039 0
M  V30 13048 H 1194.83 -0.652462 -1.2837 0
M  V30 13049 H 1196.78 0.561995 -4.17636 0
M  V30 13050 H 1195.51 1.12224 -3.06714 0
M  V30 13051 H 1194.16 -0.957462 -3.53876 0
M  V30 13052 H 1193.81 1.10634 -4.90682 0
M  V30 13053 H 1193.51 -0.365473 -5.86462 0
M  V30 13054 H 1195.04 0.541271 -6.08196 0
M  V30 13055 H 1196.45 -1.65165 -5.48993 0
M  V30 13056 H 1194.85 -2.44279 -5.48131 0
M  V30 13057 H 1195.92 -2.62173 -4.07914 0
M  V30 13058 N 1197.26 1.39987 -0.723979 0
M  V30 13059 C 1198.21 2.32507 -0.0658033 0
M  V30 13060 C 1199.2 1.52484 0.737908 0
M  V30 13061 O 1200.41 1.68225 0.640332 0
M  V30 13062 H 1196.78 0.751996 -0.00247717 0
M  V30 13063 H 1198.76 2.85657 -0.862696 0
M  V30 13064 C 1197.5 3.37509 0.835628 0
M  V30 13065 H 1196.83 3.99157 0.226589 0
M  V30 13066 H 1198.27 4.04722 1.26396 0
M  V30 13067 C 1196.73 2.73665 1.96492 0
M  V30 13068 O 1197.26 2.60649 3.05655 0
M  V30 13069 N 1195.46 2.3192 1.75104 0
M  V30 13070 H 1195.01 2.42707 0.863204 0
M  V30 13071 H 1194.97 1.89542 2.50841 0
M  V30 13072 N 1198.74 0.470782 1.50404 0
M  V30 13073 C 1199.7 -0.312227 2.27063 0
M  V30 13074 C 1200.7 -0.920709 1.31832 0
M  V30 13075 O 1201.89 -0.789937 1.5526 0
M  V30 13076 C 1199.02 -1.44477 3.0877 0
M  V30 13077 H 1200.22 0.36006 2.97731 0
M  V30 13078 H 1197.77 0.224837 1.54674 0
M  V30 13079 H 1198.51 -2.15212 2.42599 0
M  V30 13080 H 1198.29 -1.01426 3.78755 0
M  V30 13081 H 1199.78 -1.99713 3.66749 0
M  V30 13082 N 1200.22 -1.56282 0.203376 0
M  V30 13083 C 1201.18 -2.18233 -0.700489 0
M  V30 13084 C 1202.18 -1.13908 -1.13497 0
M  V30 13085 O 1203.37 -1.39246 -1.04672 0
M  V30 13086 C 1200.5 -2.79107 -1.95735 0
M  V30 13087 H 1201.7 -2.99469 -0.160649 0
M  V30 13088 H 1199.25 -1.56232 -0.0462475 0
M  V30 13089 H 1199.98 -2.01691 -2.53951 0
M  V30 13090 H 1199.77 -3.55486 -1.65446 0
M  V30 13091 H 1201.26 -3.2665 -2.60172 0
M  V30 13092 N 1201.7 0.070167 -1.57444 0
M  V30 13093 C 1202.61 1.10106 -2.07157 0
M  V30 13094 C 1203.62 1.42293 -1.00143 0
M  V30 13095 O 1204.8 1.52437 -1.31624 0
M  V30 13096 C 1201.86 2.39486 -2.50694 0
M  V30 13097 C 1200.92 2.14255 -3.72012 0
M  V30 13098 C 1200.16 3.37466 -4.13464 0
M  V30 13099 O 1200.38 4.46645 -3.54773 0
M  V30 13100 O 1199.31 3.25583 -5.0624 0
M  V30 13101 H 1203.14 0.70873 -2.95315 0
M  V30 13102 H 1200.72 0.28441 -1.46668 0
M  V30 13103 H 1202.61 3.15625 -2.79212 0
M  V30 13104 H 1201.28 2.78095 -1.65664 0
M  V30 13105 H 1200.19 1.35816 -3.48575 0
M  V30 13106 H 1201.52 1.80525 -4.57899 0
M  V30 13107 N 1203.17 1.53854 0.341593 0
M  V30 13108 C 1204.11 1.78295 1.44027 0
M  V30 13109 C 1205.12 0.664303 1.4863 0
M  V30 13110 O 1206.31 0.941073 1.51678 0
M  V30 13111 C 1203.41 1.86947 2.82673 0
M  V30 13112 C 1202.58 3.16898 3.01487 0
M  V30 13113 C 1201.64 3.16483 4.20386 0
M  V30 13114 O 1200.67 3.90197 4.14409 0
M  V30 13115 N 1201.87 2.3899 5.29022 0
M  V30 13116 H 1204.63 2.73102 1.23431 0
M  V30 13117 H 1202.19 1.52928 0.531483 0
M  V30 13118 H 1204.19 1.84118 3.60392 0
M  V30 13119 H 1202.76 0.993169 2.96403 0
M  V30 13120 H 1201.98 3.32835 2.11221 0
M  V30 13121 H 1203.26 4.02733 3.1094 0
M  V30 13122 H 1202.66 1.78657 5.36748 0
M  V30 13123 H 1201.22 2.41957 6.05227 0
M  V30 13124 N 1204.65 -0.602709 1.4562 0
M  V30 13125 C 1205.58 -1.72374 1.5751 0
M  V30 13126 C 1206.56 -1.64669 0.426389 0
M  V30 13127 O 1207.75 -1.82994 0.650143 0
M  V30 13128 C 1204.88 -3.10987 1.5461 0
M  V30 13129 C 1203.83 -3.33507 2.68248 0
M  V30 13130 C 1203.16 -4.72443 2.50403 0
M  V30 13131 C 1204.46 -3.23285 4.10224 0
M  V30 13132 H 1206.15 -1.62679 2.51348 0
M  V30 13133 H 1203.7 -0.781217 1.20967 0
M  V30 13134 H 1205.65 -3.89214 1.61525 0
M  V30 13135 H 1204.37 -3.21533 0.573049 0
M  V30 13136 H 1203.03 -2.57672 2.60769 0
M  V30 13137 H 1202.68 -4.79729 1.51226 0
M  V30 13138 H 1202.38 -4.88466 3.26611 0
M  V30 13139 H 1203.91 -5.52864 2.59179 0
M  V30 13140 H 1205.32 -3.91381 4.1892 0
M  V30 13141 H 1203.72 -3.50837 4.86861 0
M  V30 13142 H 1204.79 -2.20652 4.31788 0
M  V30 13143 N 1206.13 -1.32992 -0.845635 0
M  V30 13144 C 1207.06 -1.25301 -1.97033 0
M  V30 13145 C 1208.04 -0.134966 -1.69564 0
M  V30 13146 O 1209.23 -0.323629 -1.91484 0
M  V30 13147 C 1206.36 -0.984551 -3.33052 0
M  V30 13148 C 1205.31 -2.06481 -3.749 0
M  V30 13149 C 1204.64 -1.6486 -5.08651 0
M  V30 13150 C 1205.94 -3.48083 -3.89404 0
M  V30 13151 H 1207.63 -2.194 -2.03725 0
M  V30 13152 H 1205.18 -1.05621 -0.978783 0
M  V30 13153 H 1207.13 -0.917269 -4.11296 0
M  V30 13154 H 1205.85 -0.00793116 -3.26599 0
M  V30 13155 H 1204.51 -2.1224 -2.98915 0
M  V30 13156 H 1204.16 -0.659183 -4.98662 0
M  V30 13157 H 1203.86 -2.37145 -5.37621 0
M  V30 13158 H 1205.38 -1.59585 -5.89377 0
M  V30 13159 H 1206.8 -3.44863 -4.57976 0
M  V30 13160 H 1205.19 -4.18796 -4.29802 0
M  V30 13161 H 1206.26 -3.87084 -2.92051 0
M  V30 13162 N 1207.61 1.06304 -1.1635 0
M  V30 13163 C 1208.83 1.83338 -0.969639 0
M  V30 13164 C 1209.26 1.81945 0.477231 0
M  V30 13165 O 1208.62 1.22018 1.34094 0
M  V30 13166 C 1208.66 3.2785 -1.50155 0
M  V30 13167 O 1207.77 4.06281 -0.707805 0
M  V30 13168 H 1207.11 0.567293 -0.345072 0
M  V30 13169 H 1209.64 1.34033 -1.54584 0
M  V30 13170 H 1209.65 3.7867 -1.51898 0
M  V30 13171 H 1208.32 3.28179 -2.55483 0
M  V30 13172 H 1206.9 3.65055 -0.760872 0
M  V30 13173 N 1209.09 0.96196 1.24836 0
M  V30 13174 C 1210.36 0.537809 1.88061 0
M  V30 13175 C 1210.74 -0.985023 1.8671 0
M  V30 13176 O 1210.09 -1.85394 1.33572 0
M  V30 13177 C 1210.3 1.12279 3.30446 0
M  V30 13178 C 1211.65 1.20414 4.07168 0
M  V30 13179 O 1212.67 1.07488 3.39595 0
M  V30 13180 O 1211.53 1.4078 5.28056 0
M  V30 13181 H 1208.63 0.178491 0.807509 0
M  V30 13182 H 1211.17 1.05586 1.32852 0
M  V30 13183 H 1209.94 2.16578 3.25898 0
M  V30 13184 H 1209.57 0.58843 3.93222 0
M  V30 13185 N 1210.56 -1.39601 0.731392 0
M  V30 13186 C 1211.51 -2.32469 0.0781328 0
M  V30 13187 C 1212.51 -1.52873 -0.729811 0
M  V30 13188 O 1213.71 -1.68563 -0.631402 0
M  V30 13189 H 1210.09 -0.751972 0.00646515 0
M  V30 13190 H 1212.06 -2.85196 0.877833 0
M  V30 13191 C 1210.81 -3.37948 -0.817717 0
M  V30 13192 H 1210.13 -3.99272 -0.205417 0
M  V30 13193 H 1211.57 -4.05387 -1.24248 0
M  V30 13194 C 1210.03 -2.74703 -1.95038 0
M  V30 13195 O 1210.56 -2.62266 -3.04269 0
M  V30 13196 N 1208.76 -2.32845 -1.73872 0
M  V30 13197 H 1208.31 -2.43161 -0.850321 0
M  V30 13198 H 1208.27 -1.90869 -2.49833 0
M  V30 13199 N 1212.04 -0.478751 -1.50152 0
M  V30 13200 C 1213.27 0.0732929 -2.0727 0
M  V30 13201 C 1213.69 1.32066 -1.33941 0
M  V30 13202 O 1213.05 1.7707 -0.389367 0
M  V30 13203 C 1213.1 0.332528 -3.59064 0
M  V30 13204 O 1212.2 1.41158 -3.8749 0
M  V30 13205 H 1211.54 -0.0163684 -0.663798 0
M  V30 13206 H 1214.07 -0.671993 -1.9325 0
M  V30 13207 H 1214.08 0.570735 -4.03988 0
M  V30 13208 H 1212.76 -0.578934 -4.11851 0
M  V30 13209 H 1211.34 1.16008 -3.54396 0
M  V30 13210 N 1213.52 1.56172 -0.211661 0
M  V30 13211 C 1214.77 1.98332 0.423332 0
M  V30 13212 C 1215.1 1.09895 1.60115 0
M  V30 13213 O 1214.37 0.154477 1.93886 0
M  V30 13214 C 1214.66 3.49495 0.86747 0
M  V30 13215 C 1214.51 4.48708 -0.313302 0
M  V30 13216 C 1215.83 4.04793 1.72716 0
M  V30 13217 H 1212.95 0.72107 0.152402 0
M  V30 13218 H 1215.59 1.87521 -0.305912 0
M  V30 13219 H 1213.74 3.58839 1.48885 0
M  V30 13220 H 1215.41 4.51385 -0.951291 0
M  V30 13221 H 1213.66 4.2299 -0.96238 0
M  V30 13222 H 1214.33 5.51985 0.0402402 0
M  V30 13223 H 1216.8 3.98332 1.20296 0
M  V30 13224 H 1215.68 5.10898 2.00684 0
M  V30 13225 H 1215.94 3.51067 2.68709 0
M  V30 13226 N 1215 -0.0618163 1.57479 0
M  V30 13227 C 1216.28 -0.792636 1.7882 0
M  V30 13228 C 1216.66 -1.95283 0.801724 0
M  V30 13229 O 1216 -2.27917 -0.163095 0
M  V30 13230 C 1216.21 -1.25629 3.25605 0
M  V30 13231 C 1217.56 -1.68561 3.89708 0
M  V30 13232 O 1218.59 -1.35171 3.29556 0
M  V30 13233 O 1217.44 -2.30417 4.95551 0
M  V30 13234 H 1214.54 -0.380595 0.734218 0
M  V30 13235 H 1217.08 -0.0411205 1.6965 0
M  V30 13236 H 1215.86 -0.426582 3.88968 0
M  V30 13237 H 1215.48 -2.06882 3.39537 0
M  V30 13238 N 1216.48 -1.54033 -0.333429 0
M  V30 13239 C 1217.39 -1.85737 -1.43314 0
M  V30 13240 C 1218.4 -0.748398 -1.57083 0
M  V30 13241 O 1219.58 -1.04171 -1.72367 0
M  V30 13242 C 1216.64 -2.06942 -2.78165 0
M  V30 13243 C 1215.7 -3.30774 -2.73655 0
M  V30 13244 C 1214.94 -3.50957 -4.02075 0
M  V30 13245 O 1215.16 -2.74774 -4.99855 0
M  V30 13246 O 1214.09 -4.44412 -4.05933 0
M  V30 13247 H 1217.92 -2.7923 -1.19434 0
M  V30 13248 H 1215.51 -1.39814 -0.526546 0
M  V30 13249 H 1217.39 -2.22276 -3.58011 0
M  V30 13250 H 1216.06 -1.16638 -3.01956 0
M  V30 13251 H 1214.97 -3.20835 -1.92395 0
M  V30 13252 H 1216.3 -4.21103 -2.54819 0
M  V30 13253 N 1217.95 0.594978 -1.45938 0
M  V30 13254 C 1218.9 1.70489 -1.5557 0
M  V30 13255 C 1219.87 1.61193 -0.400751 0
M  V30 13256 O 1221.06 1.80587 -0.615882 0
M  V30 13257 C 1218.2 3.08817 -1.54033 0
M  V30 13258 C 1217.31 3.28827 -2.80173 0
M  V30 13259 C 1216.44 4.57333 -2.70222 0
M  V30 13260 C 1215.48 4.70644 -3.91357 0
M  V30 13261 N 1214.62 5.90463 -3.79865 0
M  V30 13262 H 1219.46 1.61593 -2.50383 0
M  V30 13263 H 1217 0.787747 -1.24229 0
M  V30 13264 H 1218.96 3.88865 -1.51129 0
M  V30 13265 H 1217.59 3.1664 -0.627617 0
M  V30 13266 H 1216.64 2.42467 -2.9311 0
M  V30 13267 H 1217.95 3.34534 -3.69985 0
M  V30 13268 H 1217.1 5.45593 -2.65354 0
M  V30 13269 H 1215.84 4.54045 -1.7803 0
M  V30 13270 H 1214.85 3.80805 -3.9657 0
M  V30 13271 H 1216.07 4.75721 -4.8463 0
M  V30 13272 H 1214.02 5.88196 -2.90451 0
M  V30 13273 H 1213.94 5.97385 -4.63322 0
M  V30 13274 H 1215.2 6.81187 -3.78952 0
M  V30 13275 N 1219.43 1.33438 0.838571 0
M  V30 13276 C 1220.66 1.27951 1.62592 0
M  V30 13277 C 1221.08 -0.149502 1.88207 0
M  V30 13278 O 1220.43 -1.09174 1.46244 0
M  V30 13279 C 1220.48 2.0523 2.97595 0
M  V30 13280 O 1220.2 3.42557 2.73105 0
M  V30 13281 C 1221.71 2.06957 3.92025 0
M  V30 13282 H 1218.93 0.440796 0.505905 0
M  V30 13283 H 1221.47 1.75814 1.0445 0
M  V30 13284 H 1219.62 1.61049 3.52338 0
M  V30 13285 H 1220.04 3.82314 3.59076 0
M  V30 13286 H 1221.51 2.65481 4.83967 0
M  V30 13287 H 1221.99 1.0599 4.26219 0
M  V30 13288 H 1222.6 2.51158 3.4322 0
M  V30 13289 N 1220.91 -1.05686 1.16912 0
M  V30 13290 C 1221.84 -2.15268 0.904532 0
M  V30 13291 C 1222.82 -1.69424 -0.151548 0
M  V30 13292 O 1224.01 -1.942 -0.00235371 0
M  V30 13293 C 1221.14 -3.44853 0.411581 0
M  V30 13294 C 1220.09 -4.04237 1.40628 0
M  V30 13295 C 1219.42 -5.29105 0.771479 0
M  V30 13296 C 1220.72 -4.42303 2.77787 0
M  V30 13297 H 1222.41 -2.37659 1.82094 0
M  V30 13298 H 1219.96 -1.14217 0.876947 0
M  V30 13299 H 1221.91 -4.20857 0.213929 0
M  V30 13300 H 1220.63 -3.22099 -0.540352 0
M  V30 13301 H 1219.29 -3.30297 1.59058 0
M  V30 13302 H 1218.94 -5.02652 -0.187133 0
M  V30 13303 H 1218.64 -5.69797 1.43545 0
M  V30 13304 H 1220.16 -6.07801 0.583988 0
M  V30 13305 H 1221.58 -5.09362 2.63103 0
M  V30 13306 H 1219.98 -4.93997 3.40716 0
M  V30 13307 H 1221.05 -3.52877 3.32575 0
M  V30 13308 N 1222.39 -0.968567 -1.24324 0
M  V30 13309 C 1223.34 -0.498817 -2.25345 0
M  V30 13310 C 1224.31 0.456082 -1.59716 0
M  V30 13311 O 1225.49 0.366254 -1.87252 0
M  V30 13312 C 1222.63 0.204027 -3.44496 0
M  V30 13313 C 1221.74 -0.789741 -4.2472 0
M  V30 13314 C 1220.88 -0.0629156 -5.31163 0
M  V30 13315 C 1219.92 -1.04669 -6.03084 0
M  V30 13316 N 1219.05 -0.349812 -7.01228 0
M  V30 13317 H 1223.89 -1.36511 -2.64894 0
M  V30 13318 H 1221.43 -0.684288 -1.30215 0
M  V30 13319 H 1223.39 0.628223 -4.12443 0
M  V30 13320 H 1222.02 1.03426 -3.05782 0
M  V30 13321 H 1221.07 -1.33237 -3.56303 0
M  V30 13322 H 1222.38 -1.53988 -4.74436 0
M  V30 13323 H 1221.54 0.419233 -6.0525 0
M  V30 13324 H 1220.28 0.719915 -4.82357 0
M  V30 13325 H 1219.28 -1.53971 -5.278 0
M  V30 13326 H 1220.51 -1.82998 -6.53979 0
M  V30 13327 H 1218.45 0.414026 -6.54692 0
M  V30 13328 H 1218.37 -1.03881 -7.48829 0
M  V30 13329 H 1219.64 0.11034 -7.79422 0
M  V30 13330 N 1223.87 1.39211 -0.738786 0
M  V30 13331 C 1224.81 2.30578 -0.10129 0
M  V30 13332 C 1225.78 1.49412 0.725616 0
M  V30 13333 O 1226.97 1.78087 0.684799 0
M  V30 13334 C 1224.11 3.35767 0.797161 0
M  V30 13335 C 1223.22 4.31979 -0.0427701 0
M  V30 13336 C 1222.36 5.24236 0.857306 0
M  V30 13337 C 1221.4 6.12099 0.0128501 0
M  V30 13338 N 1220.53 6.96701 0.869067 0
M  V30 13339 H 1225.37 2.84522 -0.88606 0
M  V30 13340 H 1222.91 1.40093 -0.448602 0
M  V30 13341 H 1224.87 3.95347 1.33255 0
M  V30 13342 H 1223.5 2.83268 1.54787 0
M  V30 13343 H 1222.55 3.73986 -0.695622 0
M  V30 13344 H 1223.86 4.93927 -0.69555 0
M  V30 13345 H 1223.02 5.88861 1.4604 0
M  V30 13346 H 1221.75 4.62619 1.54386 0
M  V30 13347 H 1220.76 5.46483 -0.603018 0
M  V30 13348 H 1221.98 6.75781 -0.67054 0
M  V30 13349 H 1219.93 6.37647 1.54084 0
M  V30 13350 H 1219.85 7.55507 0.272852 0
M  V30 13351 H 1221.12 7.65751 1.4576 0
M  V30 13352 N 1225.34 0.486708 1.49896 0
M  V30 13353 C 1226.76 0.141788 1.58969 0
M  V30 13354 C 1226.96 -1.35279 1.49338 0
M  V30 13355 O 1226.02 -2.1275 1.35992 0
M  V30 13356 C 1227.33 0.70588 2.92297 0
M  V30 13357 C 1228.88 0.670704 3.0573 0
M  V30 13358 C 1229.35 1.21261 4.41656 0
M  V30 13359 N 1230.84 1.17269 4.4811 0
M  V30 13360 C 1231.58 1.56233 5.51705 0
M  V30 13361 N 1231.07 2.02721 6.62477 0
M  V30 13362 N 1232.87 1.47738 5.42337 0
M  V30 13363 H 1225.02 1.45858 1.544 0
M  V30 13364 H 1227.28 0.604137 0.730563 0
M  V30 13365 H 1226.99 1.7535 3.04869 0
M  V30 13366 H 1226.86 0.158215 3.76868 0
M  V30 13367 H 1229.25 -0.368041 2.92796 0
M  V30 13368 H 1229.33 1.25535 2.22878 0
M  V30 13369 H 1228.97 2.25006 4.5534 0
M  V30 13370 H 1228.9 0.604031 5.23124 0
M  V30 13371 H 1231.39 0.831905 3.6863 0
M  V30 13372 H 1231.71 2.3056 7.37606 0
M  V30 13373 H 1230.05 2.06686 6.63556 0
M  V30 13374 H 1233.24 1.11249 4.54688 0
M  V30 13375 H 1233.42 1.78429 6.2295 0
M  V30 13376 N 1226.82 -1.56058 0.219941 0
M  V30 13377 C 1227.79 -2.18964 -0.677303 0
M  V30 13378 C 1228.79 -1.15105 -1.12283 0
M  V30 13379 O 1229.98 -1.40348 -1.03189 0
M  V30 13380 C 1227.11 -2.81167 -1.92764 0
M  V30 13381 H 1228.3 -2.99623 -0.128877 0
M  V30 13382 H 1225.85 -1.56272 -0.0296744 0
M  V30 13383 H 1226.59 -2.04374 -2.51797 0
M  V30 13384 H 1226.37 -3.5722 -1.61666 0
M  V30 13385 H 1227.86 -3.29391 -2.56693 0
M  V30 13386 N 1228.3 0.053464 -1.57509 0
M  V30 13387 C 1229.23 1.08863 -2.01696 0
M  V30 13388 C 1230.25 1.33916 -0.925765 0
M  V30 13389 O 1231.44 1.31833 -1.20343 0
M  V30 13390 C 1228.54 2.43567 -2.35644 0
M  V30 13391 C 1227.71 2.38215 -3.66841 0
M  V30 13392 C 1226.77 3.55172 -3.88252 0
M  V30 13393 O 1225.79 3.35769 -4.59617 0
M  V30 13394 N 1227 4.76182 -3.3201 0
M  V30 13395 H 1229.76 0.712192 -2.91115 0
M  V30 13396 H 1227.32 0.241829 -1.60084 0
M  V30 13397 H 1229.31 3.20486 -2.47125 0
M  V30 13398 H 1227.88 2.73145 -1.52022 0
M  V30 13399 H 1227.1 1.46557 -3.65943 0
M  V30 13400 H 1228.39 2.31757 -4.52953 0
M  V30 13401 H 1227.79 4.94849 -2.74118 0
M  V30 13402 H 1226.35 5.5055 -3.4891 0
M  V30 13403 N 1229.78 1.54207 0.325255 0
M  V30 13404 C 1231 1.7661 1.08736 0
M  V30 13405 C 1231.43 0.512449 1.80985 0
M  V30 13406 O 1230.79 -0.535913 1.73198 0
M  V30 13407 C 1230.84 2.95797 2.06243 0
M  V30 13408 O 1229.94 2.67225 3.14109 0
M  V30 13409 H 1229.28 0.585282 0.313593 0
M  V30 13410 H 1231.81 2.01225 0.370066 0
M  V30 13411 H 1231.82 3.23097 2.49143 0
M  V30 13412 H 1230.5 3.86712 1.53058 0
M  V30 13413 H 1229.07 2.50869 2.75897 0
M  V30 13414 N 1231.26 -0.58723 1.46251 0
M  V30 13415 C 1232.19 -1.70694 1.5933 0
M  V30 13416 C 1233.17 -1.64208 0.443831 0
M  V30 13417 O 1234.35 -1.82294 0.669516 0
M  V30 13418 C 1231.48 -3.0933 1.579 0
M  V30 13419 C 1230.44 -3.30643 2.7177 0
M  V30 13420 C 1229.76 -4.69761 2.554 0
M  V30 13421 C 1231.06 -3.18916 4.1363 0
M  V30 13422 H 1232.76 -1.60004 2.53059 0
M  V30 13423 H 1230.3 -0.768343 1.21789 0
M  V30 13424 H 1232.26 -3.87479 1.65644 0
M  V30 13425 H 1230.98 -3.20907 0.60712 0
M  V30 13426 H 1229.64 -2.54892 2.63488 0
M  V30 13427 H 1229.29 -4.78098 1.56306 0
M  V30 13428 H 1228.99 -4.84974 3.31774 0
M  V30 13429 H 1230.51 -5.50084 2.65028 0
M  V30 13430 H 1231.93 -3.86915 4.23048 0
M  V30 13431 H 1230.32 -3.45653 4.90555 0
M  V30 13432 H 1231.39 -2.1606 4.34104 0
M  V30 13433 N 1232.74 -1.33881 -0.831482 0
M  V30 13434 C 1233.68 -1.24748 -1.94182 0
M  V30 13435 C 1234.65 -0.124516 -1.65633 0
M  V30 13436 O 1235.84 -0.304045 -1.88362 0
M  V30 13437 C 1232.98 -1.00016 -3.30289 0
M  V30 13438 C 1232.09 -2.21007 -3.71187 0
M  V30 13439 C 1231.23 -1.89629 -4.962 0
M  V30 13440 C 1230.26 -3.06811 -5.29654 0
M  V30 13441 N 1229.4 -2.75372 -6.45844 0
M  V30 13442 H 1234.24 -2.19709 -2.01325 0
M  V30 13443 H 1231.78 -1.09245 -0.985081 0
M  V30 13444 H 1233.74 -0.837167 -4.08714 0
M  V30 13445 H 1232.37 -0.0872582 -3.22682 0
M  V30 13446 H 1231.42 -2.48256 -2.88224 0
M  V30 13447 H 1232.73 -3.08587 -3.91887 0
M  V30 13448 H 1231.88 -1.70016 -5.82391 0
M  V30 13449 H 1230.62 -0.992964 -4.77485 0
M  V30 13450 H 1229.63 -3.27029 -4.41964 0
M  V30 13451 H 1230.85 -3.97909 -5.50314 0
M  V30 13452 H 1228.8 -1.87607 -6.28601 0
M  V30 13453 H 1228.72 -3.56483 -6.66675 0
M  V30 13454 H 1229.98 -2.59244 -7.35128 0
M  V30 13455 N 1234.21 1.05064 -1.1747 0
M  V30 13456 C 1235.16 2.12841 -0.89259 0
M  V30 13457 C 1236.13 1.65288 0.16402 0
M  V30 13458 O 1237.32 1.90782 0.026537 0
M  V30 13459 C 1234.46 3.42614 -0.41344 0
M  V30 13460 C 1233.57 4.03835 -1.53432 0
M  V30 13461 C 1232.7 5.21531 -1.00891 0
M  V30 13462 C 1231.74 5.74761 -2.10515 0
M  V30 13463 N 1230.88 6.83756 -1.59442 0
M  V30 13464 H 1235.72 2.36312 -1.81551 0
M  V30 13465 H 1233.26 1.15929 -0.905483 0
M  V30 13466 H 1235.21 4.17035 -0.117181 0
M  V30 13467 H 1233.84 3.19323 0.472517 0
M  V30 13468 H 1232.9 3.2684 -1.94627 0
M  V30 13469 H 1234.21 4.3938 -2.36108 0
M  V30 13470 H 1233.36 6.03027 -0.666575 0
M  V30 13471 H 1232.1 4.87464 -0.151608 0
M  V30 13472 H 1231.11 4.91893 -2.45604 0
M  V30 13473 H 1232.33 6.10875 -2.96663 0
M  V30 13474 H 1230.28 6.51584 -0.759849 0
M  V30 13475 H 1230.19 7.18311 -2.35724 0
M  V30 13476 H 1231.46 7.68901 -1.28105 0
M  V30 13477 N 1235.69 0.975146 1.23809 0
M  V30 13478 C 1236.62 0.530389 2.27396 0
M  V30 13479 C 1237.6 -0.433763 1.64476 0
M  V30 13480 O 1238.79 -0.32827 1.91405 0
M  V30 13481 C 1235.92 -0.173066 3.46869 0
M  V30 13482 C 1234.87 0.707844 4.22106 0
M  V30 13483 C 1234.2 -0.127527 5.34548 0
M  V30 13484 C 1235.5 1.99609 4.82652 0
M  V30 13485 H 1237.19 1.39622 2.64851 0
M  V30 13486 H 1234.74 0.672802 1.27316 0
M  V30 13487 H 1236.69 -0.495481 4.18477 0
M  V30 13488 H 1235.41 -1.0733 3.0846 0
M  V30 13489 H 1234.07 1.01364 3.52308 0
M  V30 13490 H 1233.72 -1.02814 4.9238 0
M  V30 13491 H 1233.42 0.458728 5.85807 0
M  V30 13492 H 1234.95 -0.444443 6.0898 0
M  V30 13493 H 1236.36 1.73878 5.46296 0
M  V30 13494 H 1234.76 2.52969 5.44175 0
M  V30 13495 H 1235.83 2.68629 4.03691 0
M  V30 13496 N 1237.17 -1.38817 0.746158 0
M  V30 13497 C 1238.39 -2.05096 0.308302 0
M  V30 13498 C 1238.82 -1.55902 -1.05244 0
M  V30 13499 O 1238.18 -0.707685 -1.66918 0
M  V30 13500 C 1238.23 -3.59068 0.332016 0
M  V30 13501 O 1237.33 -4.06813 -0.676547 0
M  V30 13502 H 1236.67 -0.649523 0.1379 0
M  V30 13503 H 1239.2 -1.77637 1.0152 0
M  V30 13504 H 1239.21 -4.07601 0.180293 0
M  V30 13505 H 1237.89 -3.94234 1.32487 0
M  V30 13506 H 1236.46 -3.69666 -0.490046 0
M  V30 13507 N 1238.65 -0.49465 -1.49636 0
M  V30 13508 C 1239.87 0.051305 -2.07337 0
M  V30 13509 C 1240.3 1.30637 -1.35335 0
M  V30 13510 O 1239.66 1.76647 -0.408126 0
M  V30 13511 C 1239.7 0.294425 -3.59396 0
M  V30 13512 O 1238.81 1.3704 -3.88965 0
M  V30 13513 H 1238.15 -0.023408 -0.663587 0
M  V30 13514 H 1240.68 -0.692451 -1.92526 0
M  V30 13515 H 1240.69 0.527854 -4.04571 0
M  V30 13516 H 1239.36 -0.622583 -4.11214 0
M  V30 13517 H 1237.94 1.12242 -3.55607 0
M  V30 13518 N 1240.13 1.55939 -0.228214 0
M  V30 13519 C 1241.37 1.97652 0.402067 0
M  V30 13520 C 1241.69 1.11911 1.60422 0
M  V30 13521 O 1242.89 1.43552 2.30445 0
M  V30 13522 C 1241.35 3.51638 0.766724 0
M  V30 13523 C 1240.96 4.46092 -0.412991 0
M  V30 13524 C 1242.7 4.02049 1.36224 0
M  V30 13525 C 1240.61 5.91394 -0.0255281 0
M  V30 13526 H 1239.54 0.738107 0.153994 0
M  V30 13527 H 1242.19 1.8059 -0.32548 0
M  V30 13528 H 1240.57 3.64325 1.55188 0
M  V30 13529 H 1241.75 4.45156 -1.19049 0
M  V30 13530 H 1240.06 4.0606 -0.92218 0
M  V30 13531 H 1242.66 5.08111 1.66514 0
M  V30 13532 H 1243 3.48292 2.28032 0
M  V30 13533 H 1243.53 3.92612 0.640378 0
M  V30 13534 H 1240.27 6.49149 -0.910269 0
M  V30 13535 H 1239.79 5.95509 0.716149 0
M  V30 13536 H 1241.47 6.4577 0.398839 0
M  V30 13537 N 1241.6 -0.0451101 1.57535 0
M  V30 13538 C 1242.54 -1.08327 2.00849 0
M  V30 13539 C 1243.52 -1.36083 0.889957 0
M  V30 13540 O 1244.7 -1.49009 1.15449 0
M  V30 13541 C 1241.83 -2.42171 2.36793 0
M  V30 13542 C 1240.87 -2.30378 3.58926 0
M  V30 13543 S 1241.71 -1.67244 5.08714 0
M  V30 13544 C 1242.86 -3.02611 5.47885 0
M  V30 13545 H 1243.09 -0.714274 2.88592 0
M  V30 13546 H 1240.63 -0.254561 1.52287 0
M  V30 13547 H 1242.59 -3.1915 2.58174 0
M  V30 13548 H 1241.25 -2.76224 1.49531 0
M  V30 13549 H 1240.44 -3.29146 3.81679 0
M  V30 13550 H 1240.04 -1.6154 3.37314 0
M  V30 13551 H 1242.33 -3.98941 5.47587 0
M  V30 13552 H 1243.28 -2.84609 6.48385 0
M  V30 13553 H 1243.68 -3.04445 4.75367 0
M  V30 13554 N 1243.08 -1.54377 -0.317073 0
M  V30 13555 C 1243.99 -1.87247 -1.41335 0
M  V30 13556 C 1245.01 -0.765017 -1.5628 0
M  V30 13557 O 1246.18 -1.05994 -1.71252 0
M  V30 13558 C 1243.25 -2.0988 -2.75955 0
M  V30 13559 C 1242.31 -3.33658 -2.70131 0
M  V30 13560 C 1241.54 -3.55202 -3.9833 0
M  V30 13561 O 1241.77 -2.80061 -4.96913 0
M  V30 13562 O 1240.7 -4.48693 -4.01196 0
M  V30 13563 H 1244.53 -2.80481 -1.16465 0
M  V30 13564 H 1242.11 -1.40364 -0.511687 0
M  V30 13565 H 1243.99 -2.2606 -3.55633 0
M  V30 13566 H 1242.67 -1.19834 -3.00702 0
M  V30 13567 H 1241.58 -3.22857 -1.88981 0
M  V30 13568 H 1242.91 -4.23782 -2.50338 0
M  V30 13569 N 1244.56 0.579466 -1.4656 0
M  V30 13570 C 1245.98 0.903163 -1.31587 0
M  V30 13571 C 1246.18 1.99406 -0.28972 0
M  V30 13572 O 1245.23 2.50632 0.30658 0
M  V30 13573 C 1246.55 1.31745 -2.70303 0
M  V30 13574 C 1248.09 1.43012 -2.78418 0
M  V30 13575 C 1248.57 1.87805 -4.17724 0
M  V30 13576 N 1250.06 1.94993 -4.20157 0
M  V30 13577 C 1250.79 2.30934 -5.2484 0
M  V30 13578 N 1250.29 2.65645 -6.39847 0
M  V30 13579 N 1252.08 2.31517 -5.12207 0
M  V30 13580 H 1244.23 -0.141111 -2.11931 0
M  V30 13581 H 1246.5 -0.000460304 -0.948 0
M  V30 13582 H 1246.2 0.589864 -3.46718 0
M  V30 13583 H 1246.08 2.2783 -3.00622 0
M  V30 13584 H 1248.46 2.14856 -2.02289 0
M  V30 13585 H 1248.55 0.451701 -2.5178 0
M  V30 13586 H 1248.19 1.16539 -4.94349 0
M  V30 13587 H 1248.12 2.86611 -4.41771 0
M  V30 13588 H 1250.61 1.70645 -3.37178 0
M  V30 13589 H 1250.92 2.92032 -7.15498 0
M  V30 13590 H 1249.27 2.63276 -6.43204 0
M  V30 13591 H 1252.46 2.03824 -4.21394 0
M  V30 13592 H 1252.63 2.59199 -5.93902 0
M  V30 13593 N 1246.04 1.3432 0.824371 0
M  V30 13594 C 1247.27 1.29481 1.60992 0
M  V30 13595 C 1247.68 -0.133581 1.88728 0
M  V30 13596 O 1247.02 -1.09065 1.4782 0
M  V30 13597 C 1247.08 2.01604 2.97651 0
M  V30 13598 C 1246.75 3.50866 2.92817 0
M  V30 13599 C 1247.74 4.458 2.67504 0
M  V30 13600 C 1245.43 3.93258 3.12495 0
M  V30 13601 C 1247.42 5.81101 2.61918 0
M  V30 13602 C 1245.11 5.28659 3.06533 0
M  V30 13603 C 1246.11 6.22392 2.81278 0
M  V30 13604 O 1245.79 7.55311 2.75246 0
M  V30 13605 H 1245.53 0.446931 0.507177 0
M  V30 13606 H 1248.08 1.77484 1.03386 0
M  V30 13607 H 1246.31 1.48212 3.5717 0
M  V30 13608 H 1248 1.90073 3.58646 0
M  V30 13609 H 1248.77 4.1437 2.52037 0
M  V30 13610 H 1244.64 3.20699 3.31169 0
M  V30 13611 H 1248.19 6.54233 2.42125 0
M  V30 13612 H 1244.09 5.59709 3.21553 0
M  V30 13613 H 1244.85 7.6503 2.90984 0
M  V30 13614 N 1247.52 -1.0444 1.18026 0
M  V30 13615 C 1248.48 -2.10532 0.906028 0
M  V30 13616 C 1249.48 -1.60443 -0.107022 0
M  V30 13617 O 1250.67 -1.73744 0.126001 0
M  V30 13618 C 1247.8 -3.39008 0.358625 0
M  V30 13619 H 1248.99 -2.36293 1.84677 0
M  V30 13620 H 1246.55 -1.20805 0.991763 0
M  V30 13621 H 1247.28 -3.18908 -0.588904 0
M  V30 13622 H 1247.07 -3.76678 1.08884 0
M  V30 13623 H 1248.56 -4.17189 0.185331 0
M  V30 13624 N 1248.99 -0.981699 -1.2329 0
M  V30 13625 C 1250.24 -0.650015 -1.91361 0
M  V30 13626 C 1250.56 0.819184 -1.76959 0
M  V30 13627 O 1249.83 1.5861 -1.14977 0
M  V30 13628 H 1248.41 -0.237427 -0.708264 0
M  V30 13629 H 1251.08 -1.24579 -1.49887 0
M  V30 13630 H 1250.17 -0.902772 -2.98758 0
M  V30 13631 N 1250.47 1.3842 -0.753509 0
M  V30 13632 C 1251.72 1.99723 -0.309021 0
M  V30 13633 C 1252.04 1.60111 1.11308 0
M  V30 13634 O 1251.31 0.85792 1.76115 0
M  V30 13635 H 1249.89 0.738667 -0.111266 0
M  V30 13636 H 1252.55 1.69186 -0.967586 0
M  V30 13637 H 1251.65 3.09874 -0.372095 0
M  V30 13638 N 1251.95 0.502579 1.49372 0
M  V30 13639 C 1252.9 -0.275004 2.29156 0
M  V30 13640 C 1253.87 -0.95892 1.35624 0
M  V30 13641 O 1255.05 -0.965276 1.64581 0
M  V30 13642 C 1252.19 -1.33255 3.18335 0
M  V30 13643 C 1251.31 -0.660248 4.26925 0
M  V30 13644 C 1250.44 -1.69837 5.03318 0
M  V30 13645 C 1249.48 -1.00802 6.03743 0
M  V30 13646 N 1248.62 -1.99042 6.73295 0
M  V30 13647 H 1253.46 0.411599 2.95144 0
M  V30 13648 H 1250.99 0.214824 1.45523 0
M  V30 13649 H 1252.95 -1.95769 3.68416 0
M  V30 13650 H 1251.58 -1.98789 2.54328 0
M  V30 13651 H 1250.63 0.0782181 3.8032 0
M  V30 13652 H 1251.95 -0.11689 4.98663 0
M  V30 13653 H 1251.1 -2.39852 5.57275 0
M  V30 13654 H 1249.84 -2.27558 4.31357 0
M  V30 13655 H 1248.84 -0.293654 5.49015 0
M  V30 13656 H 1250.07 -0.437285 6.77691 0
M  V30 13657 H 1248.01 -2.55722 6.04104 0
M  V30 13658 H 1247.93 -1.49776 7.41015 0
M  V30 13659 H 1249.2 -2.6834 7.31856 0
M  V30 13660 N 1253.43 -1.55816 0.23648 0
M  V30 13661 C 1254.84 -1.59159 -0.118601 0
M  V30 13662 C 1255.04 -1.25352 -1.57763 0
M  V30 13663 O 1254.1 -0.995863 -2.32032 0
M  V30 13664 C 1255.41 -2.99885 0.221175 0
M  V30 13665 C 1256.96 -3.12567 0.164624 0
M  V30 13666 C 1257.44 -4.55496 0.478285 0
M  V30 13667 N 1258.93 -4.61215 0.428402 0
M  V30 13668 C 1259.66 -5.69768 0.644398 0
M  V30 13669 N 1259.16 -6.86624 0.922966 0
M  V30 13670 N 1260.95 -5.59143 0.575814 0
M  V30 13671 H 1253.1 -1.76063 1.18809 0
M  V30 13672 H 1255.37 -0.819079 0.477297 0
M  V30 13673 H 1255.07 -3.29326 1.2344 0
M  V30 13674 H 1254.95 -3.74425 -0.456723 0
M  V30 13675 H 1257.33 -2.82914 -0.839263 0
M  V30 13676 H 1257.41 -2.40325 0.876219 0
M  V30 13677 H 1257.06 -4.85868 1.47968 0
M  V30 13678 H 1256.99 -5.25984 -0.254671 0
M  V30 13679 H 1259.48 -3.77251 0.221398 0
M  V30 13680 H 1259.79 -7.6528 1.07548 0
M  V30 13681 H 1258.14 -6.88333 0.960325 0
M  V30 13682 H 1261.33 -4.66727 0.358307 0
M  V30 13683 H 1261.5 -6.43674 0.747548 0
M  V30 13684 N 1254.91 0.036755 -1.57557 0
M  V30 13685 C 1255.85 1.05823 -2.07133 0
M  V30 13686 C 1256.85 1.37923 -0.983546 0
M  V30 13687 O 1258.05 1.36918 -1.16848 0
M  V30 13688 H 1254.43 0.358761 -0.660905 0
M  V30 13689 H 1256.4 0.614232 -2.9201 0
M  V30 13690 C 1255.15 2.35302 -2.55985 0
M  V30 13691 H 1254.47 2.11461 -3.393 0
M  V30 13692 H 1255.91 3.05139 -2.94391 0
M  V30 13693 C 1254.37 3.0373 -1.45773 0
M  V30 13694 O 1254.9 3.9325 -0.819587 0
M  V30 13695 N 1253.11 2.64931 -1.19416 0
M  V30 13696 H 1252.65 1.92219 -1.71492 0
M  V30 13697 H 1252.61 3.11033 -0.458865 0
M  V30 13698 N 1256.39 1.54543 0.308881 0
M  V30 13699 C 1257.66 1.64118 1.06418 0
M  V30 13700 C 1258.04 0.484402 2.05467 0
M  V30 13701 O 1257.39 -0.519752 2.2251 0
M  V30 13702 C 1257.6 3.01776 1.75306 0
M  V30 13703 C 1258.95 3.58324 2.27792 0
M  V30 13704 O 1259.97 3.04177 1.85351 0
M  V30 13705 O 1258.83 4.53113 3.05533 0
M  V30 13706 H 1255.93 0.665172 0.491401 0
M  V30 13707 H 1258.47 1.66889 0.307598 0
M  V30 13708 H 1257.24 3.77407 1.03341 0
M  V30 13709 H 1256.87 3.02748 2.57739 0
M  V30 13710 N 1257.86 -0.571685 1.46866 0
M  V30 13711 C 1258.81 -1.67992 1.58263 0
M  V30 13712 C 1259.78 -1.60535 0.426345 0
M  V30 13713 O 1260.97 -1.79584 0.644534 0
M  V30 13714 C 1258.11 -3.06327 1.58927 0
M  V30 13715 C 1257.22 -3.24328 2.85369 0
M  V30 13716 C 1256.35 -4.52976 2.77464 0
M  V30 13717 C 1255.39 -4.64359 3.98795 0
M  V30 13718 N 1254.53 -5.84345 3.89211 0
M  V30 13719 H 1259.37 -1.57589 2.52922 0
M  V30 13720 H 1256.91 -0.767883 1.25467 0
M  V30 13721 H 1258.86 -3.86411 1.57296 0
M  V30 13722 H 1257.49 -3.15601 0.677912 0
M  V30 13723 H 1256.55 -2.37774 2.96931 0
M  V30 13724 H 1257.86 -3.28605 3.7526 0
M  V30 13725 H 1257.01 -5.41303 2.74001 0
M  V30 13726 H 1255.75 -4.51155 1.85231 0
M  V30 13727 H 1254.76 -3.74448 4.02578 0
M  V30 13728 H 1255.98 -4.6795 4.92137 0
M  V30 13729 H 1253.93 -5.835 2.99772 0
M  V30 13730 H 1253.84 -5.89938 4.72768 0
M  V30 13731 H 1255.11 -6.75072 3.89741 0
M  V30 13732 N 1259.34 -1.34755 -0.817236 0
M  V30 13733 C 1260.29 -1.26801 -1.92848 0
M  V30 13734 C 1261.26 -0.142077 -1.65491 0
M  V30 13735 O 1262.44 -0.324006 -1.88029 0
M  V30 13736 C 1259.58 -1.03513 -3.2921 0
M  V30 13737 C 1258.7 -2.24932 -3.68822 0
M  V30 13738 C 1257.83 -1.94881 -4.94161 0
M  V30 13739 C 1256.87 -3.12411 -5.2637 0
M  V30 13740 N 1256.01 -2.82207 -6.42887 0
M  V30 13741 H 1260.85 -2.21832 -1.98983 0
M  V30 13742 H 1258.38 -1.10284 -0.973439 0
M  V30 13743 H 1260.34 -0.88047 -4.07803 0
M  V30 13744 H 1258.97 -0.121478 -3.22571 0
M  V30 13745 H 1258.02 -2.51299 -2.85575 0
M  V30 13746 H 1259.34 -3.12726 -3.88592 0
M  V30 13747 H 1258.49 -1.76184 -5.80555 0
M  V30 13748 H 1257.23 -1.04355 -4.76405 0
M  V30 13749 H 1256.23 -3.31698 -4.3847 0
M  V30 13750 H 1257.46 -4.03724 -5.46062 0
M  V30 13751 H 1255.41 -1.94263 -6.26576 0
M  V30 13752 H 1255.32 -3.63534 -6.62857 0
M  V30 13753 H 1256.59 -2.67026 -7.32337 0
M  V30 13754 N 1260.82 1.03812 -1.18578 0
M  V30 13755 C 1262.04 1.8124 -1.00831 0
M  V30 13756 C 1262.47 1.82917 0.43853 0
M  V30 13757 O 1261.83 1.24835 1.31476 0
M  V30 13758 C 1261.88 3.24592 -1.57075 0
M  V30 13759 O 1260.98 4.04688 -0.793824 0
M  V30 13760 H 1260.32 0.559846 -0.357028 0
M  V30 13761 H 1262.85 1.30724 -1.57393 0
M  V30 13762 H 1262.86 3.75363 -1.59896 0
M  V30 13763 H 1261.54 3.22686 -2.62387 0
M  V30 13764 H 1260.11 3.63359 -0.838134 0
M  V30 13765 N 1262.3 0.988223 1.22768 0
M  V30 13766 C 1263.24 0.534605 2.24523 0
M  V30 13767 C 1264.21 -0.430615 1.60421 0
M  V30 13768 O 1265.4 -0.336417 1.87811 0
M  V30 13769 C 1262.54 -0.149195 3.44777 0
M  V30 13770 C 1261.65 0.85721 4.2341 0
M  V30 13771 C 1260.79 0.147411 5.30995 0
M  V30 13772 C 1259.83 1.1425 6.01343 0
M  V30 13773 N 1258.96 0.461327 7.00583 0
M  V30 13774 H 1263.8 1.40708 2.62689 0
M  V30 13775 H 1261.34 0.704918 1.2911 0
M  V30 13776 H 1263.3 -0.562527 4.1339 0
M  V30 13777 H 1261.93 -0.985485 3.07389 0
M  V30 13778 H 1260.98 1.38889 3.54138 0
M  V30 13779 H 1262.29 1.61517 4.71926 0
M  V30 13780 H 1261.45 -0.32289 6.0584 0
M  V30 13781 H 1260.19 -0.643085 4.83442 0
M  V30 13782 H 1259.19 1.62348 5.25284 0
M  V30 13783 H 1260.42 1.93379 6.50985 0
M  V30 13784 H 1258.36 -0.309818 6.55268 0
M  V30 13785 H 1258.28 1.15781 7.47082 0
M  V30 13786 H 1259.55 0.0136734 7.79499 0
M  V30 13787 N 1263.78 -1.38018 0.760839 0
M  V30 13788 C 1264.72 -2.32251 0.127425 0
M  V30 13789 C 1265.72 -1.54387 -0.69722 0
M  V30 13790 O 1266.92 -1.69864 -0.595505 0
M  V30 13791 H 1263.3 -0.751666 0.0224141 0
M  V30 13792 H 1265.27 -2.8327 0.93813 0
M  V30 13793 C 1264.02 -3.39606 -0.745849 0
M  V30 13794 H 1263.34 -3.99618 -0.120679 0
M  V30 13795 H 1264.78 -4.07931 -1.15621 0
M  V30 13796 C 1263.24 -2.78778 -1.89167 0
M  V30 13797 O 1263.77 -2.68661 -2.98637 0
M  V30 13798 N 1261.98 -2.36481 -1.68894 0
M  V30 13799 H 1261.52 -2.4491 -0.798551 0
M  V30 13800 H 1261.48 -1.96126 -2.45728 0
M  V30 13801 N 1265.25 -0.510493 -1.49103 0
M  V30 13802 C 1266.5 0.0306436 -2.02477 0
M  V30 13803 C 1266.83 1.36113 -1.38937 0
M  V30 13804 O 1266.08 1.88731 -0.517584 0
M  V30 13805 C 1266.38 0.221921 -3.5671 0
M  V30 13806 C 1266.05 -1.03176 -4.38937 0
M  V30 13807 C 1264.71 -1.37539 -4.61125 0
M  V30 13808 C 1267.06 -1.86464 -4.86704 0
M  V30 13809 C 1264.39 -2.55124 -5.28326 0
M  V30 13810 C 1266.74 -3.03211 -5.55199 0
M  V30 13811 C 1265.41 -3.37943 -5.75631 0
M  V30 13812 H 1264.68 0.0112133 -0.740915 0
M  V30 13813 H 1267.32 -0.672574 -1.79301 0
M  V30 13814 H 1265.63 1.00775 -3.78618 0
M  V30 13815 H 1267.33 0.655223 -3.95611 0
M  V30 13816 H 1263.92 -0.754105 -4.21914 0
M  V30 13817 H 1268.1 -1.61229 -4.69381 0
M  V30 13818 H 1263.36 -2.8226 -5.42346 0
M  V30 13819 H 1267.53 -3.68068 -5.91185 0
M  V30 13820 H 1265.16 -4.29158 -6.27477 0
M  V30 13821 N 1266.73 1.55688 -0.24474 0
M  V30 13822 C 1268.01 1.90796 0.430821 0
M  V30 13823 C 1268.39 1.1652 1.76029 0
M  V30 13824 O 1267.74 0.281978 2.26753 0
M  V30 13825 C 1267.95 3.43786 0.601027 0
M  V30 13826 C 1269.29 4.14998 0.897894 0
M  V30 13827 O 1270.32 3.49513 0.68697 0
M  V30 13828 O 1269.18 5.30826 1.29945 0
M  V30 13829 H 1266.27 0.794086 0.230991 0
M  V30 13830 H 1268.82 1.67227 -0.288646 0
M  V30 13831 H 1267.59 3.89856 -0.335804 0
M  V30 13832 H 1267.21 3.73211 1.37112 0
M  V30 13833 N 1268.21 -0.0283989 1.57574 0
M  V30 13834 C 1269.44 -0.730831 1.93563 0
M  V30 13835 C 1269.85 -1.68857 0.844556 0
M  V30 13836 O 1269.21 -1.8162 -0.178971 0
M  V30 13837 C 1269.26 -1.48731 3.29486 0
M  V30 13838 O 1268.98 -0.568017 4.34402 0
M  V30 13839 C 1270.48 -2.28684 3.79761 0
M  V30 13840 H 1267.7 -0.205346 0.638807 0
M  V30 13841 H 1270.25 0.0142728 2.04495 0
M  V30 13842 H 1268.4 -2.18429 3.19949 0
M  V30 13843 H 1268.82 -1.09861 5.12865 0
M  V30 13844 H 1270.29 -2.77157 4.77376 0
M  V30 13845 H 1270.77 -3.10133 3.10989 0
M  V30 13846 H 1271.37 -1.64059 3.92383 0
M  V30 13847 N 1269.69 -1.54705 -0.300681 0
M  V30 13848 C 1270.63 -1.85678 -1.37084 0
M  V30 13849 C 1271.6 -0.70573 -1.50362 0
M  V30 13850 O 1272.79 -0.954385 -1.65215 0
M  V30 13851 C 1269.93 -2.10995 -2.73084 0
M  V30 13852 C 1269.04 -3.38621 -2.68254 0
M  V30 13853 C 1268.18 -3.53779 -3.9625 0
M  V30 13854 C 1267.22 -4.75195 -3.85818 0
M  V30 13855 N 1266.35 -4.87157 -5.05591 0
M  V30 13856 H 1271.19 -2.76967 -1.09971 0
M  V30 13857 H 1268.73 -1.37147 -0.531887 0
M  V30 13858 H 1270.69 -2.23669 -3.52176 0
M  V30 13859 H 1269.32 -1.22973 -2.98458 0
M  V30 13860 H 1268.37 -3.34566 -1.81025 0
M  V30 13861 H 1269.68 -4.27834 -2.56436 0
M  V30 13862 H 1268.84 -3.66119 -4.83779 0
M  V30 13863 H 1267.58 -2.62699 -4.10902 0
M  V30 13864 H 1266.58 -4.62888 -2.96673 0
M  V30 13865 H 1267.81 -5.67683 -3.72711 0
M  V30 13866 H 1265.75 -3.99001 -5.20706 0
M  V30 13867 H 1265.67 -5.70372 -4.96197 0
M  V30 13868 H 1266.94 -5.03854 -5.9477 0
M  V30 13869 N 1271.17 0.563888 -1.47167 0
M  V30 13870 C 1272.44 1.32454 -1.43928 0
M  V30 13871 C 1272.82 2.10683 -0.13267 0
M  V30 13872 O 1272.17 2.1063 0.885845 0
M  V30 13873 C 1272.38 2.2347 -2.68071 0
M  V30 13874 C 1273.73 2.84702 -3.15008 0
M  V30 13875 O 1274.75 2.33775 -2.68752 0
M  V30 13876 O 1273.61 3.77251 -3.95404 0
M  V30 13877 H 1270.71 0.596074 -0.573258 0
M  V30 13878 H 1273.25 0.583345 -1.59359 0
M  V30 13879 H 1272.02 1.6522 -3.54708 0
M  V30 13880 H 1271.65 3.04897 -2.55193 0
M  V30 13881 N 1272.64 1.35187 0.810078 0
M  V30 13882 C 1273.89 1.27602 1.56207 0
M  V30 13883 C 1274.21 -0.148621 1.95035 0
M  V30 13884 O 1275.41 -0.346721 2.69277 0
M  V30 13885 C 1273.87 2.23759 2.81886 0
M  V30 13886 C 1273.48 3.71549 2.5031 0
M  V30 13887 C 1275.22 2.25109 3.59898 0
M  V30 13888 C 1273.13 4.5954 3.7226 0
M  V30 13889 H 1272.06 0.474078 0.586316 0
M  V30 13890 H 1274.71 1.6043 0.890759 0
M  V30 13891 H 1273.09 1.83898 3.5071 0
M  V30 13892 H 1274.26 4.20025 1.89515 0
M  V30 13893 H 1272.58 3.72773 1.85551 0
M  V30 13894 H 1275.18 2.88066 4.50469 0
M  V30 13895 H 1275.52 1.25387 3.96968 0
M  V30 13896 H 1276.05 2.63481 2.98031 0
M  V30 13897 H 1272.79 5.60246 3.403 0
M  V30 13898 H 1272.31 4.15792 4.32293 0
M  V30 13899 H 1273.99 4.74789 4.39528 0
M  V30 13900 N 1274.12 -1.03182 1.19127 0
M  V30 13901 C 1275.37 -1.76794 0.993563 0
M  V30 13902 C 1275.7 -1.88306 -0.474809 0
M  V30 13903 O 1274.98 -1.39769 -1.35258 0
M  V30 13904 C 1275.26 -3.19573 1.65968 0
M  V30 13905 C 1275.11 -3.1595 3.2015 0
M  V30 13906 C 1276.43 -4.17897 1.38023 0
M  V30 13907 H 1273.55 -0.641768 0.362357 0
M  V30 13908 H 1276.19 -1.20472 1.46924 0
M  V30 13909 H 1274.34 -3.67663 1.25524 0
M  V30 13910 H 1276.01 -2.7578 3.69788 0
M  V30 13911 H 1274.26 -2.53743 3.51848 0
M  V30 13912 H 1274.93 -4.16811 3.61901 0
M  V30 13913 H 1277.4 -3.78394 1.73082 0
M  V30 13914 H 1276.28 -5.15997 1.87186 0
M  V30 13915 H 1276.54 -4.41048 0.304812 0
M  V30 13916 N 1275.6 -0.99472 -1.22242 0
M  V30 13917 C 1276.85 -0.670275 -1.90661 0
M  V30 13918 C 1277.17 0.800369 -1.77818 0
M  V30 13919 O 1276.44 1.57381 -1.16653 0
M  V30 13920 H 1275.02 -0.244925 -0.705706 0
M  V30 13921 H 1277.68 -1.26162 -1.48557 0
M  V30 13922 H 1276.78 -0.934408 -2.97784 0
M  V30 13923 N 1277.08 1.37613 -0.768148 0
M  V30 13924 C 1278.31 2.03756 -0.341615 0
M  V30 13925 C 1278.72 1.58063 1.03984 0
M  V30 13926 O 1278.06 0.755609 1.6744 0
M  V30 13927 C 1278.12 3.58229 -0.302032 0
M  V30 13928 C 1277.79 4.27039 -1.62747 0
M  V30 13929 C 1278.78 4.51408 -2.57928 0
M  V30 13930 C 1276.47 4.64941 -1.90092 0
M  V30 13931 C 1278.46 5.12731 -3.78663 0
M  V30 13932 C 1276.15 5.25986 -3.11098 0
M  V30 13933 C 1277.15 5.49818 -4.05203 0
M  V30 13934 O 1276.83 6.09588 -5.24078 0
M  V30 13935 H 1276.57 0.660992 -0.141655 0
M  V30 13936 H 1279.12 1.77001 -1.04211 0
M  V30 13937 H 1277.35 3.84016 0.454811 0
M  V30 13938 H 1279.04 4.05784 0.0969452 0
M  V30 13939 H 1279.81 4.22542 -2.38083 0
M  V30 13940 H 1275.68 4.45729 -1.17674 0
M  V30 13941 H 1279.23 5.31249 -4.52129 0
M  V30 13942 H 1275.13 5.54276 -3.3083 0
M  V30 13943 H 1275.89 6.28068 -5.24855 0
M  V30 13944 N 1278.56 0.518393 1.4883 0
M  V30 13945 C 1279.81 -0.0218436 2.01688 0
M  V30 13946 C 1280.12 -1.36421 1.40174 0
M  V30 13947 O 1281.32 -1.99214 1.84461 0
M  V30 13948 C 1279.78 -0.0893538 3.59789 0
M  V30 13949 C 1279.39 1.24741 4.30283 0
M  V30 13950 C 1281.13 -0.579032 4.20532 0
M  V30 13951 C 1279.04 1.14112 5.80286 0
M  V30 13952 H 1277.97 -0.0119353 0.753906 0
M  V30 13953 H 1280.62 0.660432 1.71203 0
M  V30 13954 H 1279 -0.836458 3.87065 0
M  V30 13955 H 1280.18 2.00917 4.14691 0
M  V30 13956 H 1278.49 1.67191 3.81361 0
M  V30 13957 H 1281.09 -0.676343 5.30405 0
M  V30 13958 H 1281.43 -1.58207 3.85067 0
M  V30 13959 H 1281.96 0.112046 3.97642 0
M  V30 13960 H 1278.7 2.11895 6.20307 0
M  V30 13961 H 1278.22 0.420535 5.98324 0
M  V30 13962 H 1279.9 0.826992 6.41693 0
M  V30 13963 N 1280.03 -1.55556 0.252993 0
M  V30 13964 C 1280.97 -2.17683 -0.684776 0
M  V30 13965 C 1281.95 -1.13077 -1.16843 0
M  V30 13966 O 1283.13 -1.41495 -1.24545 0
M  V30 13967 C 1280.26 -2.78239 -1.93134 0
M  V30 13968 C 1279.3 -3.95953 -1.58504 0
M  V30 13969 S 1280.14 -5.31135 -0.682367 0
M  V30 13970 C 1281.29 -5.95147 -1.93779 0
M  V30 13971 H 1281.52 -2.96886 -0.156823 0
M  V30 13972 H 1279.06 -1.54355 0.0374019 0
M  V30 13973 H 1281.02 -3.13763 -2.64694 0
M  V30 13974 H 1279.68 -1.98971 -2.43042 0
M  V30 13975 H 1278.87 -4.36936 -2.51203 0
M  V30 13976 H 1278.47 -3.61738 -0.949815 0
M  V30 13977 H 1280.76 -6.13035 -2.88435 0
M  V30 13978 H 1281.71 -6.90445 -1.57135 0
M  V30 13979 H 1282.11 -5.24279 -2.09266 0
M  V30 13980 N 1281.51 0.0200419 -1.57587 0
M  V30 13981 C 1282.46 1.0259 -2.03615 0
M  V30 13982 C 1283.45 1.31504 -0.927116 0
M  V30 13983 O 1284.64 1.30938 -1.19098 0
M  V30 13984 C 1281.77 2.32424 -2.52654 0
M  V30 13985 C 1280.85 2.06561 -3.70396 0
M  V30 13986 N 1281.24 1.50787 -4.82801 0
M  V30 13987 C 1279.54 2.36802 -3.77943 0
M  V30 13988 C 1280.24 1.40935 -5.64369 0
M  V30 13989 N 1279.22 1.88806 -5.09758 0
M  V30 13990 H 1283.02 0.588835 -2.87941 0
M  V30 13991 H 1280.54 0.226163 -1.60817 0
M  V30 13992 H 1282.53 3.05303 -2.83894 0
M  V30 13993 H 1281.19 2.76801 -1.69738 0
M  V30 13994 H 1282.2 1.18935 -5.04058 0
M  V30 13995 H 1278.88 2.84192 -3.05845 0
M  V30 13996 H 1280.27 0.982261 -6.64681 0
M  V30 13997 N 1282.99 1.54862 0.292472 0
M  V30 13998 C 1284.24 1.74203 1.02458 0
M  V30 13999 C 1284.56 0.535398 1.87506 0
M  V30 14000 O 1283.83 -0.450164 1.90658 0
M  V30 14001 H 1282.41 0.642369 0.381276 0
M  V30 14002 H 1285.07 1.92232 0.321398 0
M  V30 14003 H 1284.17 2.63486 1.67277 0
M  V30 14004 N 1284.47 -0.556076 1.47464 0
M  V30 14005 C 1285.72 -1.30955 1.53407 0
M  V30 14006 C 1286.03 -1.94559 0.201485 0
M  V30 14007 O 1287.24 -2.71144 0.138925 0
M  V30 14008 C 1285.69 -2.37476 2.70431 0
M  V30 14009 C 1285.3 -1.80057 4.10224 0
M  V30 14010 C 1287.04 -3.13997 2.85668 0
M  V30 14011 C 1284.95 -2.84365 5.18547 0
M  V30 14012 H 1283.88 -0.4924 0.571015 0
M  V30 14013 H 1286.53 -0.590459 1.73741 0
M  V30 14014 H 1284.91 -3.12304 2.43479 0
M  V30 14015 H 1286.09 -1.11593 4.47083 0
M  V30 14016 H 1284.4 -1.16116 3.99882 0
M  V30 14017 H 1287 -3.91892 3.63764 0
M  V30 14018 H 1287.34 -3.68253 1.94153 0
M  V30 14019 H 1287.88 -2.46281 3.12395 0
M  V30 14020 H 1284.62 -2.34963 6.11942 0
M  V30 14021 H 1284.14 -3.51235 4.86203 0
M  V30 14022 H 1285.81 -3.47836 5.45545 0
M  V30 14023 N 1285.95 -1.35615 -0.802897 0
M  V30 14024 C 1287.17 -1.32377 -1.59659 0
M  V30 14025 C 1287.6 0.0954235 -1.87858 0
M  V30 14026 O 1286.96 1.06336 -1.46842 0
M  V30 14027 C 1287 -2.13972 -2.90256 0
M  V30 14028 O 1286.11 -1.52296 -3.83249 0
M  V30 14029 H 1285.45 -0.453699 -0.484823 0
M  V30 14030 H 1287.98 -1.78708 -0.996217 0
M  V30 14031 H 1287.99 -2.26061 -3.39647 0
M  V30 14032 H 1286.66 -3.17145 -2.69057 0
M  V30 14033 H 1285.24 -1.49068 -3.41809 0
M  V30 14034 N 1287.43 1.02549 -1.19673 0
M  V30 14035 C 1288.65 1.79623 -1.0268 0
M  V30 14036 C 1289.07 1.83969 0.424345 0
M  V30 14037 O 1288.43 1.28621 1.29472 0
M  V30 14038 C 1288.48 3.24514 -1.59289 0
M  V30 14039 O 1288.2 3.20462 -2.98723 0
M  V30 14040 C 1289.7 4.18173 -1.47126 0
M  V30 14041 H 1286.92 0.565167 -0.3617 0
M  V30 14042 H 1289.46 1.29143 -1.58564 0
M  V30 14043 H 1287.62 3.72173 -1.07546 0
M  V30 14044 H 1288.03 4.11341 -3.25421 0
M  V30 14045 H 1289.51 5.17714 -1.9151 0
M  V30 14046 H 1289.98 4.37165 -0.422315 0
M  V30 14047 H 1290.59 3.7639 -1.98017 0
M  V30 14048 N 1288.9 1.00119 1.21713 0
M  V30 14049 C 1290.15 0.67713 1.89994 0
M  V30 14050 C 1290.47 -0.795149 1.78709 0
M  V30 14051 O 1291.67 -1.23113 2.41982 0
M  V30 14052 C 1290.13 1.16065 3.40671 0
M  V30 14053 C 1289.74 2.65874 3.60576 0
M  V30 14054 C 1291.48 0.911302 4.14603 0
M  V30 14055 C 1289.39 3.07785 5.04997 0
M  V30 14056 H 1288.32 0.249572 0.711498 0
M  V30 14057 H 1290.97 1.21185 1.37792 0
M  V30 14058 H 1289.35 0.554005 3.92106 0
M  V30 14059 H 1290.52 3.31954 3.19598 0
M  V30 14060 H 1288.84 2.88781 2.99991 0
M  V30 14061 H 1291.44 1.20004 5.2106 0
M  V30 14062 H 1291.78 -0.152495 4.16021 0
M  V30 14063 H 1292.31 1.48055 3.69222 0
M  V30 14064 H 1289.05 4.13376 5.08724 0
M  V30 14065 H 1288.57 2.46414 5.46846 0
M  V30 14066 H 1290.25 2.99552 5.73479 0
M  V30 14067 N 1290.38 -1.37203 0.775435 0
M  V30 14068 C 1291.33 -2.32102 0.152051 0
M  V30 14069 C 1292.32 -1.55117 -0.680806 0
M  V30 14070 O 1293.53 -1.70486 -0.577455 0
M  V30 14071 H 1289.9 -0.751386 0.0303853 0
M  V30 14072 H 1291.88 -2.82259 0.968121 0
M  V30 14073 C 1290.62 -3.40378 -0.709788 0
M  V30 14074 H 1289.95 -3.99723 -0.0782879 0
M  V30 14075 H 1291.39 -4.09134 -1.11288 0
M  V30 14076 C 1289.85 -2.80769 -1.862 0
M  V30 14077 O 1290.38 -2.71813 -2.95771 0
M  V30 14078 N 1288.58 -2.38259 -1.66376 0
M  V30 14079 H 1288.13 -2.45743 -0.772531 0
M  V30 14080 H 1288.09 -1.98721 -2.43634 0
M  V30 14081 N 1291.86 -0.526279 -1.48553 0
M  V30 14082 C 1293.09 0.0052277 -2.06899 0
M  V30 14083 C 1293.5 1.2849 -1.38332 0
M  V30 14084 O 1292.86 1.76354 -0.469648 0
M  V30 14085 C 1292.91 0.236709 -3.60724 0
M  V30 14086 O 1292.63 -0.992256 -4.26715 0
M  V30 14087 C 1294.13 0.809014 -4.35855 0
M  V30 14088 H 1291.35 -0.0318426 -0.670244 0
M  V30 14089 H 1293.9 -0.730865 -1.90994 0
M  V30 14090 H 1292.05 0.922842 -3.76248 0
M  V30 14091 H 1292.47 -0.770697 -5.18807 0
M  V30 14092 H 1293.94 0.920428 -5.44272 0
M  V30 14093 H 1294.42 1.81302 -4.00033 0
M  V30 14094 H 1295.02 0.159564 -4.25001 0
M  V30 14095 N 1293.34 1.5542 -0.261239 0
M  V30 14096 C 1294.25 2.25627 0.642625 0
M  V30 14097 C 1295.26 1.27732 1.18155 0
M  V30 14098 O 1296.44 1.60639 1.21479 0
M  V30 14099 C 1293.5 2.95303 1.8165 0
M  V30 14100 C 1292.57 4.08644 1.31563 0
M  V30 14101 C 1291.8 4.74988 2.43355 0
M  V30 14102 O 1292.02 4.40474 3.62407 0
M  V30 14103 O 1290.96 5.63217 2.12299 0
M  V30 14104 H 1294.78 3.03609 0.0743091 0
M  V30 14105 H 1292.37 1.49372 -0.0291754 0
M  V30 14106 H 1294.25 3.3914 2.50125 0
M  V30 14107 H 1292.92 2.2025 2.37217 0
M  V30 14108 H 1291.83 3.69294 0.597746 0
M  V30 14109 H 1293.16 4.85558 0.805878 0
M  V30 14110 N 1294.82 -0.0116844 1.57596 0
M  V30 14111 C 1295.75 -1.04043 2.03102 0
M  V30 14112 C 1296.73 -1.34164 0.918622 0
M  V30 14113 O 1297.91 -1.46527 1.18584 0
M  V30 14114 C 1295.04 -2.37094 2.41876 0
M  V30 14115 C 1294.08 -2.22713 3.63732 0
M  V30 14116 S 1294.92 -1.56416 5.12147 0
M  V30 14117 C 1296.07 -2.90921 5.5418 0
M  V30 14118 H 1296.31 -0.652899 2.90042 0
M  V30 14119 H 1293.84 -0.222201 1.52793 0
M  V30 14120 H 1295.8 -3.13602 2.64885 0
M  V30 14121 H 1294.46 -2.7299 1.55356 0
M  V30 14122 H 1293.65 -3.20976 3.88575 0
M  V30 14123 H 1293.25 -1.54349 3.40665 0
M  V30 14124 H 1295.54 -3.87237 5.55926 0
M  V30 14125 H 1296.49 -2.70792 6.54276 0
M  V30 14126 H 1296.9 -2.94293 4.81717 0
M  V30 14127 N 1296.29 -1.55015 -0.284256 0
M  V30 14128 C 1297.24 -1.87122 -1.35107 0
M  V30 14129 C 1298.21 -0.721638 -1.49605 0
M  V30 14130 O 1299.4 -0.971855 -1.64194 0
M  V30 14131 C 1296.54 -2.1388 -2.70831 0
M  V30 14132 C 1295.65 -3.41447 -2.64647 0
M  V30 14133 C 1294.78 -3.57961 -3.92476 0
M  V30 14134 C 1293.82 -4.79261 -3.80757 0
M  V30 14135 N 1292.96 -4.92492 -5.00395 0
M  V30 14136 H 1297.8 -2.78117 -1.07027 0
M  V30 14137 H 1295.34 -1.37704 -0.517311 0
M  V30 14138 H 1297.29 -2.27391 -3.49784 0
M  V30 14139 H 1295.92 -1.26132 -2.97137 0
M  V30 14140 H 1294.98 -3.36467 -1.77466 0
M  V30 14141 H 1296.29 -4.3053 -2.51884 0
M  V30 14142 H 1295.44 -3.71229 -4.79868 0
M  V30 14143 H 1294.18 -2.67042 -4.08093 0
M  V30 14144 H 1293.19 -4.66008 -2.91747 0
M  V30 14145 H 1294.41 -5.71604 -3.66669 0
M  V30 14146 H 1292.36 -4.04501 -5.16445 0
M  V30 14147 H 1292.27 -5.75603 -4.9012 0
M  V30 14148 H 1293.54 -5.10134 -5.89392 0
M  V30 14149 N 1297.77 0.548248 -1.47757 0
M  V30 14150 C 1298.72 1.67553 -1.61335 0
M  V30 14151 C 1299.71 1.62447 -0.480335 0
M  V30 14152 O 1300.92 1.67525 -0.658445 0
M  V30 14153 H 1297.29 0.55457 -0.507894 0
M  V30 14154 H 1299.27 1.53239 -2.56047 0
M  V30 14155 C 1298.01 3.05883 -1.6532 0
M  V30 14156 H 1297.34 3.10497 -2.51856 0
M  V30 14157 H 1298.78 3.84424 -1.78868 0
M  V30 14158 C 1297.24 3.34656 -0.388238 0
M  V30 14159 O 1297.77 3.9849 0.506816 0
M  V30 14160 N 1295.97 2.89384 -0.265514 0
M  V30 14161 H 1295.52 2.37615 -0.994819 0
M  V30 14162 H 1295.48 3.09006 0.579889 0
M  V30 14163 N 1299.25 1.36039 0.795694 0
M  V30 14164 C 1300.18 1.25713 1.91648 0
M  V30 14165 C 1301.19 0.177993 1.61824 0
M  V30 14166 O 1302.38 0.432186 1.73189 0
M  V30 14167 C 1299.48 0.915546 3.26299 0
M  V30 14168 C 1298.66 2.09528 3.83949 0
M  V30 14169 C 1297.72 1.72775 4.97026 0
M  V30 14170 O 1296.74 2.44786 5.13876 0
M  V30 14171 N 1297.94 0.65775 5.76762 0
M  V30 14172 H 1300.71 2.22277 2.01029 0
M  V30 14173 H 1298.27 1.2935 0.973657 0
M  V30 14174 H 1300.26 0.650958 3.9943 0
M  V30 14175 H 1298.83 0.0392343 3.12575 0
M  V30 14176 H 1298.05 2.52304 3.0288 0
M  V30 14177 H 1299.34 2.88361 4.19196 0
M  V30 14178 H 1298.74 0.0596875 5.65669 0
M  V30 14179 H 1297.29 0.45297 6.50224 0
M  V30 14180 N 1300.73 -1.01913 1.20215 0
M  V30 14181 C 1301.68 -2.12516 0.945493 0
M  V30 14182 C 1302.67 -1.69091 -0.102243 0
M  V30 14183 O 1303.88 -1.79936 0.047888 0
M  V30 14184 H 1300.25 -0.694496 0.288409 0
M  V30 14185 H 1302.22 -2.31349 1.88468 0
M  V30 14186 C 1300.97 -3.43919 0.51137 0
M  V30 14187 H 1300.29 -3.77758 1.30916 0
M  V30 14188 H 1301.73 -4.22374 0.370981 0
M  V30 14189 C 1300.19 -3.27844 -0.775902 0
M  V30 14190 O 1300.72 -3.5734 -1.83496 0
M  V30 14191 N 1298.93 -2.81101 -0.73694 0
M  V30 14192 H 1298.48 -2.57296 0.125164 0
M  V30 14193 H 1298.43 -2.70726 -1.59859 0
M  V30 14194 N 1302.21 -1.00763 -1.2118 0
M  V30 14195 C 1303.12 -0.579646 -2.27326 0
M  V30 14196 C 1304.13 0.378592 -1.69831 0
M  V30 14197 O 1305.31 0.241772 -1.99944 0
M  V30 14198 C 1302.37 0.0843648 -3.46597 0
M  V30 14199 C 1301.43 -0.918685 -4.19355 0
M  V30 14200 C 1300.67 -0.286267 -5.32932 0
M  V30 14201 O 1300.89 0.916274 -5.62993 0
M  V30 14202 O 1299.82 -0.998513 -5.9356 0
M  V30 14203 H 1303.65 -1.46311 -2.66133 0
M  V30 14204 H 1301.24 -0.776641 -1.27627 0
M  V30 14205 H 1303.12 0.455636 -4.18929 0
M  V30 14206 H 1301.79 0.942166 -3.09685 0
M  V30 14207 H 1300.7 -1.34116 -3.49233 0
M  V30 14208 H 1302.03 -1.74616 -4.60185 0
M  V30 14209 N 1303.68 1.3679 -0.7827 0
M  V30 14210 C 1304.63 2.32019 -0.164358 0
M  V30 14211 C 1305.63 1.55476 0.672571 0
M  V30 14212 O 1306.83 1.7079 0.568406 0
M  V30 14213 H 1303.21 0.751214 -0.0343697 0
M  V30 14214 H 1305.18 2.81741 -0.983077 0
M  V30 14215 C 1303.93 3.4075 0.691727 0
M  V30 14216 H 1303.25 3.99759 0.0570885 0
M  V30 14217 H 1304.69 4.09719 1.09117 0
M  V30 14218 C 1303.15 2.81753 1.84708 0
M  V30 14219 O 1303.68 2.73378 2.94325 0
M  V30 14220 N 1301.89 2.39138 1.6511 0
M  V30 14221 H 1301.43 2.46149 0.759487 0
M  V30 14222 H 1301.39 2.0001 2.42576 0
M  V30 14223 N 1305.16 0.53415 1.48272 0
M  V30 14224 C 1306.41 0.00157492 2.028 0
M  V30 14225 C 1306.74 -1.33538 1.41001 0
M  V30 14226 O 1306.02 -1.86347 0.557245 0
M  V30 14227 C 1306.3 -0.116016 3.59913 0
M  V30 14228 C 1306.15 1.2464 4.32186 0
M  V30 14229 C 1307.47 -0.840775 4.31994 0
M  V30 14230 H 1304.59 0.00204634 0.736997 0
M  V30 14231 H 1307.23 0.691985 1.76951 0
M  V30 14232 H 1305.38 -0.704027 3.82068 0
M  V30 14233 H 1307.05 1.87584 4.21438 0
M  V30 14234 H 1305.3 1.8272 3.93441 0
M  V30 14235 H 1305.97 1.11708 5.40579 0
M  V30 14236 H 1308.44 -0.341746 4.14694 0
M  V30 14237 H 1307.32 -0.89196 5.41604 0
M  V30 14238 H 1307.58 -1.89197 3.99571 0
M  V30 14239 N 1306.64 -1.55279 0.269478 0
M  V30 14240 C 1308.05 -1.85286 -0.229372 0
M  V30 14241 C 1308.4 -1.19148 -1.55879 0
M  V30 14242 O 1307.53 -0.4778 -2.11059 0
M  V30 14243 C 1308.12 -3.3615 -0.42296 0
M  V30 14244 C 1306.68 -3.66301 -0.866047 0
M  V30 14245 C 1305.83 -2.77265 0.0439028 0
M  V30 14246 H 1308.78 -1.509 0.491427 0
M  V30 14247 H 1308.8 -3.5895 -1.26234 0
M  V30 14248 H 1308.31 -3.84258 0.544768 0
M  V30 14249 H 1306.41 -3.23688 -1.84545 0
M  V30 14250 H 1306.53 -4.73851 -0.707274 0
M  V30 14251 H 1304.89 -2.50299 -0.471433 0
M  V30 14252 H 1305.67 -3.28186 1.00741 0
M  V30 14253 N 1308.12 0.00332656 -1.576 0
M  V30 14254 C 1309.03 1.01221 -2.1164 0
M  V30 14255 C 1310.04 1.37918 -1.06088 0
M  V30 14256 O 1311.22 1.46717 -1.37971 0
M  V30 14257 C 1308.29 2.28638 -2.60626 0
M  V30 14258 C 1307.35 1.98284 -3.80765 0
M  V30 14259 C 1306.58 3.19626 -4.27405 0
M  V30 14260 O 1306.8 4.31196 -3.73398 0
M  V30 14261 O 1305.74 3.03819 -5.19594 0
M  V30 14262 H 1309.56 0.582839 -2.98055 0
M  V30 14263 H 1307.15 0.221947 -1.47742 0
M  V30 14264 H 1309.03 3.03498 -2.92347 0
M  V30 14265 H 1307.7 2.70819 -1.7731 0
M  V30 14266 H 1306.61 1.2091 -3.54022 0
M  V30 14267 H 1307.94 1.60942 -4.65144 0
M  V30 14268 N 1309.6 1.55164 0.276031 0
M  V30 14269 C 1310.55 1.84223 1.34335 0
M  V30 14270 C 1311.53 0.700934 1.4483 0
M  V30 14271 O 1312.72 0.962204 1.48562 0
M  V30 14272 C 1309.85 2.11496 2.70415 0
M  V30 14273 C 1308.94 3.31877 2.64043 0
M  V30 14274 N 1309.33 4.51856 2.27289 0
M  V30 14275 C 1307.63 3.34406 2.95108 0
M  V30 14276 C 1308.33 5.33939 2.30833 0
M  V30 14277 N 1307.3 4.72271 2.69186 0
M  V30 14278 H 1311.11 2.74533 1.04922 0
M  V30 14279 H 1308.62 1.54999 0.484661 0
M  V30 14280 H 1310.62 2.3047 3.47404 0
M  V30 14281 H 1309.28 1.22468 3.00719 0
M  V30 14282 H 1310.29 4.78009 1.99318 0
M  V30 14283 H 1306.96 2.55561 3.30144 0
M  V30 14284 H 1308.35 6.39862 2.05004 0
M  V30 14285 N 1311.07 -0.540404 1.48045 0
M  V30 14286 C 1312.32 -1.2987 1.55762 0
M  V30 14287 C 1312.65 -1.92877 0.226307 0
M  V30 14288 O 1311.93 -1.7875 -0.766727 0
M  V30 14289 C 1312.21 -2.39602 2.68817 0
M  V30 14290 C 1312.06 -1.81354 4.1162 0
M  V30 14291 C 1313.38 -3.41434 2.77688 0
M  V30 14292 H 1310.5 -0.47083 0.566999 0
M  V30 14293 H 1313.14 -0.603081 1.80175 0
M  V30 14294 H 1311.29 -2.98936 2.48132 0
M  V30 14295 H 1312.97 -1.26151 4.43716 0
M  V30 14296 H 1311.21 -1.1194 4.19108 0
M  V30 14297 H 1311.88 -2.60758 4.86528 0
M  V30 14298 H 1314.36 -2.92042 2.96396 0
M  V30 14299 H 1313.23 -4.15621 3.5854 0
M  V30 14300 H 1313.49 -4.01336 1.85422 0
M  V30 14301 N 1312.55 -1.36459 -0.788468 0
M  V30 14302 C 1313.48 -1.26727 -1.90979 0
M  V30 14303 C 1314.5 -0.186572 -1.61727 0
M  V30 14304 O 1315.69 -0.441364 -1.72957 0
M  V30 14305 C 1312.79 -0.932838 -3.25809 0
M  V30 14306 C 1311.96 -2.11562 -3.82832 0
M  V30 14307 C 1311.02 -1.75409 -4.96103 0
M  V30 14308 O 1310.04 -2.47508 -5.1257 0
M  V30 14309 N 1311.25 -0.688327 -5.76405 0
M  V30 14310 H 1314.01 -2.2334 -1.99848 0
M  V30 14311 H 1311.57 -1.29865 -0.966784 0
M  V30 14312 H 1313.56 -0.672131 -3.9908 0
M  V30 14313 H 1312.13 -0.0558103 -3.1255 0
M  V30 14314 H 1311.35 -2.53907 -3.01538 0
M  V30 14315 H 1312.64 -2.9058 -4.17661 0
M  V30 14316 H 1312.04 -0.0896854 -5.65629 0
M  V30 14317 H 1310.6 -0.487446 -6.49975 0
M  V30 14318 N 1314.03 1.01274 -1.20754 0
M  V30 14319 C 1314.98 2.08285 -0.927426 0
M  V30 14320 C 1315.96 1.60494 0.114286 0
M  V30 14321 O 1317.16 1.76752 -0.0936086 0
M  V30 14322 C 1314.29 3.39849 -0.485546 0
M  V30 14323 C 1313.37 3.94331 -1.5609 0
M  V30 14324 N 1313.76 4.22274 -2.78421 0
M  V30 14325 C 1312.06 4.22522 -1.42797 0
M  V30 14326 C 1312.76 4.66262 -3.47813 0
M  V30 14327 N 1311.74 4.68771 -2.75235 0
M  V30 14328 H 1315.54 2.27804 -1.85695 0
M  V30 14329 H 1313.05 1.19278 -1.10211 0
M  V30 14330 H 1315.05 4.16049 -0.266263 0
M  V30 14331 H 1313.71 3.21742 0.437301 0
M  V30 14332 H 1314.72 4.11063 -3.15036 0
M  V30 14333 H 1311.4 4.13593 -0.569819 0
M  V30 14334 H 1312.79 4.9667 -4.52513 0
M  V30 14335 N 1315.51 1.01404 1.20644 0
M  V30 14336 C 1316.46 0.575388 2.25371 0
M  V30 14337 C 1317.45 -0.384598 1.64976 0
M  V30 14338 O 1318.66 -0.2548 1.78187 0
M  V30 14339 H 1315.03 0.167752 0.733051 0
M  V30 14340 H 1317 1.46964 2.597 0
M  V30 14341 C 1315.75 -0.0731257 3.47623 0
M  V30 14342 H 1315.08 0.656551 3.94372 0
M  V30 14343 H 1316.52 -0.343203 4.22609 0
M  V30 14344 C 1314.97 -1.31515 3.1017 0
M  V30 14345 O 1315.5 -2.40869 3.21473 0
M  V30 14346 N 1313.71 -1.19829 2.64744 0
M  V30 14347 H 1313.26 -0.308463 2.55746 0
M  V30 14348 H 1313.22 -2.0303 2.40054 0
M  V30 14349 N 1316.99 -1.36373 0.789944 0
M  V30 14350 C 1317.95 -2.28372 0.194639 0
M  V30 14351 C 1318.95 -1.48849 -0.608332 0
M  V30 14352 O 1320.14 -1.68829 -0.42925 0
M  V30 14353 C 1317.27 -3.3298 -0.730553 0
M  V30 14354 H 1318.47 -2.82529 1.00585 0
M  V30 14355 H 1316.02 -1.45946 0.559406 0
M  V30 14356 H 1316.75 -2.8398 -1.56608 0
M  V30 14357 H 1316.54 -3.91787 -0.156706 0
M  V30 14358 H 1318.03 -4.01684 -1.14192 0
M  V30 14359 N 1318.47 -0.542005 -1.47987 0
M  V30 14360 C 1319.38 0.217677 -2.33588 0
M  V30 14361 C 1320.39 0.927093 -1.47245 0
M  V30 14362 O 1321.57 0.899378 -1.80203 0
M  V30 14363 C 1318.63 1.24376 -3.23622 0
M  V30 14364 C 1317.69 0.543407 -4.25847 0
M  V30 14365 C 1316.93 1.5206 -5.11579 0
M  V30 14366 O 1317.15 2.75425 -4.99497 0
M  V30 14367 O 1316.08 1.05341 -5.9261 0
M  V30 14368 H 1319.91 -0.484089 -2.99817 0
M  V30 14369 H 1317.49 -0.302783 -1.463 0
M  V30 14370 H 1319.38 1.83644 -3.7928 0
M  V30 14371 H 1318.05 1.92772 -2.6004 0
M  V30 14372 H 1316.96 -0.090074 -3.73992 0
M  V30 14373 H 1318.29 -0.0988264 -4.92101 0
M  V30 14374 N 1319.94 1.55134 -0.277709 0
M  V30 14375 C 1320.85 2.26296 0.618658 0
M  V30 14376 C 1321.87 1.28978 1.16794 0
M  V30 14377 O 1323.05 1.61918 1.19768 0
M  V30 14378 C 1320.11 2.97214 1.78508 0
M  V30 14379 C 1319.17 4.10016 1.27221 0
M  V30 14380 C 1318.4 4.77543 2.38304 0
M  V30 14381 O 1318.63 4.44293 3.57715 0
M  V30 14382 O 1317.56 5.65437 2.06313 0
M  V30 14383 H 1321.39 3.03671 0.0421031 0
M  V30 14384 H 1318.97 1.49332 -0.0450166 0
M  V30 14385 H 1320.85 3.41773 2.46513 0
M  V30 14386 H 1319.53 2.22753 2.34867 0
M  V30 14387 H 1318.44 3.69907 0.558544 0
M  V30 14388 H 1319.77 4.86385 0.754333 0
M  V30 14389 N 1321.42 0.00503138 1.57599 0
M  V30 14390 C 1322.37 -1.00294 2.09866 0
M  V30 14391 C 1323.36 -1.35267 1.01977 0
M  V30 14392 O 1324.57 -1.33772 1.20437 0
M  V30 14393 H 1320.94 -0.341112 0.670184 0
M  V30 14394 H 1322.92 -0.536595 2.93536 0
M  V30 14395 C 1321.66 -2.28432 2.62133 0
M  V30 14396 H 1320.99 -2.02391 3.44787 0
M  V30 14397 H 1322.43 -2.97227 3.02378 0
M  V30 14398 C 1320.89 -2.99758 1.53774 0
M  V30 14399 O 1321.42 -3.90939 0.923563 0
M  V30 14400 N 1319.62 -2.61671 1.26398 0
M  V30 14401 H 1319.17 -1.87605 1.76528 0
M  V30 14402 H 1319.13 -3.09707 0.541168 0
M  V30 14403 N 1322.9 -1.55308 -0.267798 0
M  V30 14404 C 1324.15 -1.7642 -1.00019 0
M  V30 14405 C 1324.48 -0.566559 -1.85752 0
M  V30 14406 O 1323.75 0.435752 -1.89556 0
M  V30 14407 C 1324.04 -3.07229 -1.87836 0
M  V30 14408 C 1323.89 -4.37358 -1.05061 0
M  V30 14409 C 1325.21 -3.34113 -2.86455 0
M  V30 14410 H 1322.33 -0.641859 -0.362197 0
M  V30 14411 H 1324.97 -1.8804 -0.272188 0
M  V30 14412 H 1323.12 -2.97454 -2.49907 0
M  V30 14413 H 1324.79 -4.59098 -0.450208 0
M  V30 14414 H 1323.03 -4.32351 -0.354242 0
M  V30 14415 H 1323.71 -5.25223 -1.69838 0
M  V30 14416 H 1326.18 -3.43715 -2.34519 0
M  V30 14417 H 1325.06 -4.26896 -3.45038 0
M  V30 14418 H 1325.32 -2.54005 -3.61848 0
M  V30 14419 N 1324.38 0.532545 -1.4833 0
M  V30 14420 C 1325.29 1.66433 -1.65339 0
M  V30 14421 C 1326.3 1.65541 -0.535939 0
M  V30 14422 O 1327.48 1.84539 -0.806679 0
M  V30 14423 C 1324.54 3.02901 -1.68676 0
M  V30 14424 C 1323.61 3.14669 -2.92031 0
M  V30 14425 C 1322.84 4.44627 -2.95199 0
M  V30 14426 O 1323.06 5.31572 -2.06851 0
M  V30 14427 O 1322 4.60707 -3.87341 0
M  V30 14428 H 1325.82 1.5502 -2.61156 0
M  V30 14429 H 1323.41 0.705348 -1.31701 0
M  V30 14430 H 1325.29 3.84068 -1.73407 0
M  V30 14431 H 1323.96 3.14644 -0.760327 0
M  V30 14432 H 1322.87 2.32807 -2.92834 0
M  V30 14433 H 1324.2 3.07841 -3.8405 0
M  V30 14434 N 1325.86 1.36875 0.78122 0
M  V30 14435 C 1326.81 1.28392 1.88413 0
M  V30 14436 C 1327.79 0.173687 1.5996 0
M  V30 14437 O 1328.98 0.407238 1.72251 0
M  V30 14438 C 1326.11 1.08368 3.25747 0
M  V30 14439 C 1325.2 2.23894 3.60184 0
M  V30 14440 N 1325.59 3.49247 3.65869 0
M  V30 14441 C 1323.89 2.1584 3.90294 0
M  V30 14442 C 1324.59 4.2537 3.96781 0
M  V30 14443 N 1323.56 3.54402 4.1219 0
M  V30 14444 H 1327.36 2.23334 1.91047 0
M  V30 14445 H 1324.88 1.29711 0.977175 0
M  V30 14446 H 1326.88 1.00376 4.04636 0
M  V30 14447 H 1325.54 0.143334 3.24383 0
M  V30 14448 H 1326.55 3.83276 3.4831 0
M  V30 14449 H 1323.22 1.29808 3.96807 0
M  V30 14450 H 1324.61 5.33814 4.08035 0
M  V30 14451 N 1327.33 -1.00632 1.21289 0
M  V30 14452 C 1328.61 -1.71635 0.938124 0
M  V30 14453 C 1328.99 -2.03798 -0.550416 0
M  V30 14454 O 1328.34 -1.71065 -1.5149 0
M  V30 14455 C 1328.55 -2.97674 1.82184 0
M  V30 14456 C 1329.9 -3.7073 2.06989 0
M  V30 14457 O 1330.92 -3.07653 1.79522 0
M  V30 14458 O 1329.78 -4.84183 2.53435 0
M  V30 14459 H 1326.87 -0.748506 0.351664 0
M  V30 14460 H 1329.42 -1.06387 1.32212 0
M  V30 14461 H 1328.19 -2.70306 2.82931 0
M  V30 14462 H 1327.81 -3.70663 1.43858 0
M  V30 14463 N 1328.81 -1.02043 -1.20104 0
M  V30 14464 C 1329.77 -0.598682 -2.21243 0
M  V30 14465 C 1330.77 0.333205 -1.5731 0
M  V30 14466 O 1331.96 0.12137 -1.73777 0
M  V30 14467 C 1329.1 0.125183 -3.4067 0
M  V30 14468 H 1330.29 -1.49345 -2.60069 0
M  V30 14469 H 1327.84 -0.810649 -1.33634 0
M  V30 14470 H 1328.58 1.03469 -3.07351 0
M  V30 14471 H 1328.36 -0.544316 -3.88304 0
M  V30 14472 H 1329.85 0.407469 -4.15607 0
M  V30 14473 N 1330.29 1.35952 -0.797165 0
M  V30 14474 C 1331.2 2.33726 -0.202271 0
M  V30 14475 C 1332.22 1.61415 0.649719 0
M  V30 14476 O 1333.39 1.93351 0.563686 0
M  V30 14477 C 1330.46 3.40612 0.64685 0
M  V30 14478 C 1329.52 4.28712 -0.224536 0
M  V30 14479 C 1328.75 5.30493 0.584153 0
M  V30 14480 O 1328.97 5.40599 1.81957 0
M  V30 14481 O 1327.91 6.01897 -0.0200239 0
M  V30 14482 H 1331.73 2.86383 -1.01087 0
M  V30 14483 H 1329.32 1.38557 -0.558768 0
M  V30 14484 H 1331.2 4.05944 1.1308 0
M  V30 14485 H 1329.88 2.90243 1.43321 0
M  V30 14486 H 1328.78 3.66394 -0.755415 0
M  V30 14487 H 1330.12 4.82454 -0.974603 0
M  V30 14488 N 1331.77 0.549846 1.47697 0
M  V30 14489 C 1332.68 -0.205286 2.337 0
M  V30 14490 C 1333.69 -0.919271 1.47734 0
M  V30 14491 O 1334.87 -0.889808 1.80678 0
M  V30 14492 C 1331.94 -1.22658 3.24278 0
M  V30 14493 C 1331 -0.520815 4.26129 0
M  V30 14494 C 1330.23 -1.49345 5.12378 0
M  V30 14495 O 1330.45 -2.72772 5.00951 0
M  V30 14496 O 1329.39 -1.02197 5.93161 0
M  V30 14497 H 1333.21 0.499982 2.99556 0
M  V30 14498 H 1330.8 0.310538 1.46137 0
M  V30 14499 H 1332.68 -1.8163 3.80248 0
M  V30 14500 H 1331.35 -1.9139 2.61059 0
M  V30 14501 H 1330.26 0.109906 3.73939 0
M  V30 14502 H 1331.59 0.124922 4.92041 0
M  V30 14503 N 1333.25 -1.54984 0.285932 0
M  V30 14504 C 1334.19 -2.24385 -0.612703 0
M  V30 14505 C 1335.19 -1.24459 -1.14918 0
M  V30 14506 O 1336.39 -1.42357 -1.10156 0
M  V30 14507 H 1332.77 -0.720263 -0.21616 0
M  V30 14508 H 1334.74 -2.984 -0.00465668 0
M  V30 14509 C 1333.49 -2.98661 -1.78037 0
M  V30 14510 H 1332.81 -3.75347 -1.37676 0
M  V30 14511 H 1334.25 -3.50525 -2.38554 0
M  V30 14512 C 1332.71 -2.04754 -2.67539 0
M  V30 14513 O 1333.24 -1.60577 -3.68209 0
M  V30 14514 N 1331.45 -1.71026 -2.34944 0
M  V30 14515 H 1330.99 -2.07148 -1.53126 0
M  V30 14516 H 1330.95 -1.08467 -2.95097 0
M  V30 14517 N 1334.72 -0.0133892 -1.57594 0
M  V30 14518 C 1335.97 0.669624 -1.91426 0
M  V30 14519 C 1336.3 1.72675 -0.888656 0
M  V30 14520 O 1335.58 1.94288 0.0908138 0
M  V30 14521 C 1335.86 1.30051 -3.35796 0
M  V30 14522 C 1335.71 0.254021 -4.49082 0
M  V30 14523 C 1337.03 2.22297 -3.79832 0
M  V30 14524 H 1334.15 0.241958 -0.69615 0
M  V30 14525 H 1336.79 -0.0674278 -1.8988 0
M  V30 14526 H 1334.94 1.92871 -3.37243 0
M  V30 14527 H 1336.62 -0.375524 -4.59769 0
M  V30 14528 H 1334.86 -0.422267 -4.3174 0
M  V30 14529 H 1335.53 0.734756 -5.47088 0
M  V30 14530 H 1338.01 1.69481 -3.8002 0
M  V30 14531 H 1336.88 2.634 -4.81572 0
M  V30 14532 H 1337.14 3.10764 -3.14449 0
M  V30 14533 N 1336.2 1.55448 0.259558 0
M  V30 14534 C 1337.11 1.92364 1.34289 0
M  V30 14535 C 1338.13 0.822492 1.53333 0
M  V30 14536 O 1339.3 1.12277 1.672 0
M  V30 14537 C 1336.37 2.19978 2.67975 0
M  V30 14538 C 1335.43 3.43454 2.57562 0
M  V30 14539 C 1334.66 3.69741 3.84873 0
M  V30 14540 O 1334.89 2.9831 4.86176 0
M  V30 14541 O 1333.82 4.63274 3.84267 0
M  V30 14542 H 1337.65 2.8461 1.05975 0
M  V30 14543 H 1335.23 1.42167 0.459239 0
M  V30 14544 H 1337.11 2.39104 3.46998 0
M  V30 14545 H 1335.79 1.30912 2.96047 0
M  V30 14546 H 1334.7 3.29649 1.76869 0
M  V30 14547 H 1336.03 4.32782 2.34437 0
M  V30 14548 N 1337.68 -0.524672 1.4861 0
M  V30 14549 C 1338.63 -1.62504 1.59927 0
M  V30 14550 C 1339.61 -1.543 0.456094 0
M  V30 14551 O 1340.81 -1.62231 0.707818 0
M  V30 14552 C 1337.94 -3.01207 1.64709 0
M  V30 14553 C 1337.02 -3.14495 2.84523 0
M  V30 14554 N 1337.41 -2.97741 4.08882 0
M  V30 14555 C 1335.71 -3.45559 2.81967 0
M  V30 14556 C 1336.41 -3.14585 4.89297 0
M  V30 14557 N 1335.39 -3.424 4.22212 0
M  V30 14558 H 1339.19 -1.48168 2.53818 0
M  V30 14559 H 1336.7 -0.730258 1.45055 0
M  V30 14560 H 1338.7 -3.80257 1.7091 0
M  V30 14561 H 1337.36 -3.16631 0.719376 0
M  V30 14562 H 1338.37 -2.74395 4.39235 0
M  V30 14563 H 1335.05 -3.67307 1.98474 0
M  V30 14564 H 1336.44 -3.06324 5.98009 0
M  V30 14565 N 1339.16 -1.37287 -0.77395 0
M  V30 14566 C 1340.44 -1.2291 -1.52159 0
M  V30 14567 C 1340.82 0.178249 -2.10346 0
M  V30 14568 O 1340.16 1.18564 -1.95333 0
M  V30 14569 C 1340.37 -2.32337 -2.60424 0
M  V30 14570 C 1341.72 -2.69769 -3.27887 0
M  V30 14571 O 1342.75 -2.31497 -2.70717 0
M  V30 14572 O 1341.6 -3.35699 -4.31241 0
M  V30 14573 H 1338.7 -0.47948 -0.673816 0
M  V30 14574 H 1341.24 -1.49061 -0.811105 0
M  V30 14575 H 1340.02 -3.26591 -2.15532 0
M  V30 14576 H 1339.64 -2.07638 -3.39076 0
M  V30 14577 N 1340.64 0.999871 -1.21821 0
M  V30 14578 C 1341.6 2.07024 -0.983541 0
M  V30 14579 C 1342.6 1.6073 0.0474011 0
M  V30 14580 O 1343.79 1.73156 -0.190398 0
M  V30 14581 C 1340.92 3.37444 -0.484199 0
M  V30 14582 H 1342.11 2.29276 -1.9332 0
M  V30 14583 H 1339.67 1.1704 -1.03592 0
M  V30 14584 H 1340.4 3.20874 0.470138 0
M  V30 14585 H 1340.19 3.72378 -1.2279 0
M  V30 14586 H 1341.68 4.16213 -0.34004 0
M  V30 14587 N 1342.11 1.02678 1.19562 0
M  V30 14588 C 1343.02 0.615738 2.26375 0
M  V30 14589 C 1344.04 -0.351525 1.70412 0
M  V30 14590 O 1345.22 -0.209932 2.00303 0
M  V30 14591 C 1342.28 -0.0292135 3.46688 0
M  V30 14592 C 1341.34 0.985284 4.1784 0
M  V30 14593 C 1340.58 0.371016 5.32409 0
M  V30 14594 O 1340.8 -0.826591 5.64379 0
M  V30 14595 O 1339.73 1.09282 5.91896 0
M  V30 14596 H 1343.56 1.50526 2.63772 0
M  V30 14597 H 1341.14 0.796847 1.26375 0
M  V30 14598 H 1343.03 -0.38893 4.19601 0
M  V30 14599 H 1341.7 -0.892778 3.11145 0
M  V30 14600 H 1340.61 1.39655 3.47055 0
M  V30 14601 H 1341.94 1.81915 4.57349 0
M  V30 14602 N 1343.59 -1.35528 0.804364 0
M  V30 14603 C 1344.5 -2.33616 0.214663 0
M  V30 14604 C 1345.52 -1.61757 -0.64115 0
M  V30 14605 O 1346.69 -1.93647 -0.553424 0
M  V30 14606 C 1343.76 -3.40951 -0.628778 0
M  V30 14607 C 1342.82 -4.28587 0.247269 0
M  V30 14608 C 1342.05 -5.30796 -0.556012 0
M  V30 14609 O 1342.28 -5.41557 -1.79088 0
M  V30 14610 O 1341.21 -6.01878 0.0519437 0
M  V30 14611 H 1345.04 -2.85843 1.02605 0
M  V30 14612 H 1342.62 -1.38259 0.566108 0
M  V30 14613 H 1344.5 -4.06538 -1.10926 0
M  V30 14614 H 1343.18 -2.90999 -1.4178 0
M  V30 14615 H 1342.09 -3.65988 0.774835 0
M  V30 14616 H 1343.42 -4.81931 1.00017 0
M  V30 14617 N 1345.07 -0.557671 -1.47404 0
M  V30 14618 C 1346.02 0.202834 -2.31714 0
M  V30 14619 C 1347.01 0.908873 -1.42954 0
M  V30 14620 O 1348.22 0.830106 -1.59716 0
M  V30 14621 H 1344.59 0.0842824 -0.747262 0
M  V30 14622 H 1346.57 -0.527431 -2.93702 0
M  V30 14623 C 1345.31 1.21937 -3.25617 0
M  V30 14624 H 1344.64 0.685506 -3.93879 0
M  V30 14625 H 1346.08 1.72237 -3.87441 0
M  V30 14626 C 1344.54 2.26748 -2.49173 0
M  V30 14627 O 1345.07 3.33681 -2.23651 0
M  V30 14628 N 1343.27 2.00687 -2.10174 0
M  V30 14629 H 1342.82 1.13741 -2.3113 0
M  V30 14630 H 1342.78 2.71031 -1.59342 0
M  V30 14631 N 1346.55 1.54831 -0.294147 0
M  V30 14632 C 1347.8 2.00298 0.317605 0
M  V30 14633 C 1348.13 1.18228 1.54064 0
M  V30 14634 O 1347.4 0.257034 1.92794 0
M  V30 14635 C 1347.69 3.53602 0.680991 0
M  V30 14636 C 1347.54 4.46416 -0.550711 0
M  V30 14637 C 1348.86 4.13379 1.51016 0
M  V30 14638 H 1345.98 0.728135 0.113965 0
M  V30 14639 H 1348.62 1.85636 -0.404883 0
M  V30 14640 H 1346.77 3.66227 1.29654 0
M  V30 14641 H 1348.44 4.45707 -1.18922 0
M  V30 14642 H 1346.68 4.17294 -1.18524 0
M  V30 14643 H 1347.36 5.51423 -0.252412 0
M  V30 14644 H 1349.83 4.04148 0.99012 0
M  V30 14645 H 1348.71 5.20818 1.73321 0
M  V30 14646 H 1348.97 3.64817 2.49722 0
M  V30 14647 N 1348.03 0.0217466 1.57585 0
M  V30 14648 C 1348.94 -0.978407 2.13224 0
M  V30 14649 C 1349.95 -1.36212 1.08269 0
M  V30 14650 O 1351.13 -1.44504 1.40288 0
M  V30 14651 C 1348.19 -2.24462 2.6423 0
M  V30 14652 C 1347.26 -1.92201 3.83871 0
M  V30 14653 C 1346.49 -3.12786 4.32436 0
M  V30 14654 O 1346.71 -4.25201 3.8021 0
M  V30 14655 O 1345.65 -2.95514 5.24362 0
M  V30 14656 H 1349.47 -0.535347 2.98944 0
M  V30 14657 H 1347.06 -0.198414 1.48077 0
M  V30 14658 H 1348.94 -2.98809 2.97138 0
M  V30 14659 H 1347.61 -2.67964 1.81596 0
M  V30 14660 H 1346.52 -1.15262 3.55901 0
M  V30 14661 H 1347.85 -1.53521 4.67645 0
M  V30 14662 N 1349.51 -1.55583 -0.251311 0
M  V30 14663 C 1350.46 -1.86337 -1.31387 0
M  V30 14664 C 1351.44 -0.723887 -1.43697 0
M  V30 14665 O 1352.63 -0.985717 -1.47012 0
M  V30 14666 C 1349.76 -2.15772 -2.67016 0
M  V30 14667 C 1348.85 -3.36036 -2.58729 0
M  V30 14668 N 1349.24 -4.55414 -2.20071 0
M  V30 14669 C 1347.54 -3.39058 -2.89751 0
M  V30 14670 C 1348.24 -5.37544 -2.22309 0
M  V30 14671 N 1347.21 -4.76494 -2.61638 0
M  V30 14672 H 1351.01 -2.76168 -1.00541 0
M  V30 14673 H 1348.53 -1.55751 -0.459941 0
M  V30 14674 H 1350.53 -2.35967 -3.43693 0
M  V30 14675 H 1349.19 -1.27237 -2.98732 0
M  V30 14676 H 1350.2 -4.8112 -1.91688 0
M  V30 14677 H 1346.87 -2.60781 -3.26036 0
M  V30 14678 H 1348.26 -6.43042 -1.94798 0
M  V30 14679 N 1350.98 0.516783 -1.48886 0
M  V30 14680 C 1352.26 1.27808 -1.48069 0
M  V30 14681 C 1352.64 2.10154 -0.19963 0
M  V30 14682 O 1351.99 2.13342 0.818386 0
M  V30 14683 C 1352.2 2.14828 -2.75045 0
M  V30 14684 C 1353.55 2.74536 -3.23906 0
M  V30 14685 O 1354.57 2.25107 -2.76053 0
M  V30 14686 O 1353.43 3.6448 -4.07206 0
M  V30 14687 H 1350.52 0.577535 -0.591931 0
M  V30 14688 H 1353.07 0.532351 -1.61134 0
M  V30 14689 H 1351.84 1.53852 -3.59785 0
M  V30 14690 H 1351.46 2.96624 -2.64764 0
M  V30 14691 N 1352.46 1.37696 0.766659 0
M  V30 14692 C 1353.42 1.33688 1.86172 0
M  V30 14693 C 1354.42 0.239922 1.59 0
M  V30 14694 O 1355.61 0.496066 1.66988 0
M  V30 14695 C 1352.75 1.07807 3.23405 0
M  V30 14696 H 1353.94 2.311 1.91136 0
M  V30 14697 H 1351.49 1.22799 0.966961 0
M  V30 14698 H 1352.23 0.109477 3.24115 0
M  V30 14699 H 1352.01 1.87213 3.4452 0
M  V30 14700 H 1353.5 1.07665 4.03482 0
M  V30 14701 N 1353.94 -0.993397 1.22349 0
M  V30 14702 C 1354.85 -2.11771 1.00947 0
M  V30 14703 C 1355.87 -1.73949 -0.0420679 0
M  V30 14704 O 1357.04 -2.00837 0.150548 0
M  V30 14705 C 1354.11 -3.41654 0.589359 0
M  V30 14706 C 1353.17 -3.93579 1.71446 0
M  V30 14707 C 1352.4 -5.17264 1.3143 0
M  V30 14708 O 1352.62 -5.70074 0.192876 0
M  V30 14709 O 1351.56 -5.62929 2.13059 0
M  V30 14710 H 1355.38 -2.32708 1.95142 0
M  V30 14711 H 1352.97 -1.10144 1.00939 0
M  V30 14712 H 1354.85 -4.19813 0.365403 0
M  V30 14713 H 1353.53 -3.22077 -0.323738 0
M  V30 14714 H 1352.43 -3.16596 1.99294 0
M  V30 14715 H 1353.77 -4.17588 2.6054 0
M  V30 14716 N 1355.42 -1.03311 -1.19015 0
M  V30 14717 C 1356.33 -0.627735 -2.26046 0
M  V30 14718 C 1357.34 0.342483 -1.70596 0
M  V30 14719 O 1358.52 0.199307 -2.00411 0
M  V30 14720 C 1355.58 0.0108274 -3.46698 0
M  V30 14721 C 1354.65 -1.00743 -4.17312 0
M  V30 14722 C 1353.88 -0.399245 -5.32205 0
M  V30 14723 O 1354.1 0.796649 -5.64809 0
M  V30 14724 O 1353.04 -1.12419 -5.91308 0
M  V30 14725 H 1356.86 -1.51923 -2.6297 0
M  V30 14726 H 1354.45 -0.803538 -1.25951 0
M  V30 14727 H 1356.33 0.366672 -4.19802 0
M  V30 14728 H 1355 0.876265 -3.11614 0
M  V30 14729 H 1353.91 -1.41494 -3.4631 0
M  V30 14730 H 1355.24 -1.84338 -4.56377 0
M  V30 14731 N 1356.9 1.35099 -0.81154 0
M  V30 14732 C 1357.84 2.31618 -0.213536 0
M  V30 14733 C 1358.84 1.56868 0.63944 0
M  V30 14734 O 1360.04 1.71957 0.532051 0
M  V30 14735 H 1356.42 0.750316 -0.0502963 0
M  V30 14736 H 1358.39 2.79593 -1.04262 0
M  V30 14737 C 1357.14 3.4214 0.619293 0
M  V30 14738 H 1356.46 3.9979 -0.0277192 0
M  V30 14739 H 1357.9 4.11941 1.00401 0
M  V30 14740 C 1356.36 2.85607 1.7869 0
M  V30 14741 O 1356.89 2.7956 2.8846 0
M  V30 14742 N 1355.1 2.42587 1.6 0
M  V30 14743 H 1354.64 2.47705 0.707105 0
M  V30 14744 H 1354.6 2.0511 2.38279 0
M  V30 14745 N 1358.37 0.56548 1.47106 0
M  V30 14746 C 1359.62 0.0445914 2.02751 0
M  V30 14747 C 1359.95 -1.30517 1.43801 0
M  V30 14748 O 1359.23 -1.85123 0.596646 0
M  V30 14749 C 1359.51 -0.0396474 3.60078 0
M  V30 14750 C 1359.36 1.3378 4.29445 0
M  V30 14751 C 1360.68 -0.748954 4.3368 0
M  V30 14752 H 1357.8 0.0176787 0.736788 0
M  V30 14753 H 1360.44 0.729363 1.75443 0
M  V30 14754 H 1358.59 -0.622826 3.83475 0
M  V30 14755 H 1360.27 1.96482 4.17364 0
M  V30 14756 H 1358.51 1.91024 3.89477 0
M  V30 14757 H 1359.18 1.23149 5.38088 0
M  V30 14758 H 1361.66 -0.253707 4.15326 0
M  V30 14759 H 1360.53 -0.776877 5.43374 0
M  V30 14760 H 1360.79 -1.80679 4.03494 0
M  V30 14761 N 1359.85 -1.54672 0.302354 0
M  V30 14762 C 1360.76 -2.27251 -0.582578 0
M  V30 14763 C 1361.78 -1.30819 -1.14727 0
M  V30 14764 O 1362.95 -1.63803 -1.17177 0
M  V30 14765 C 1360.02 -3.00016 -1.73757 0
M  V30 14766 C 1359.08 -4.11988 -1.20682 0
M  V30 14767 C 1358.31 -4.81273 -2.30676 0
M  V30 14768 O 1358.54 -4.49927 -3.50602 0
M  V30 14769 O 1357.47 -5.68647 -1.97291 0
M  V30 14770 H 1361.3 -3.03699 0.00621365 0
M  V30 14771 H 1358.88 -1.49242 0.0687684 0
M  V30 14772 H 1360.76 -3.45652 -2.41045 0
M  V30 14773 H 1359.44 -2.26462 -2.31294 0
M  V30 14774 H 1358.35 -3.70749 -0.499625 0
M  V30 14775 H 1359.68 -4.87524 -0.676858 0
M  V30 14776 N 1361.33 -0.0301034 -1.57571 0
M  V30 14777 C 1362.28 0.960604 -2.06776 0
M  V30 14778 C 1363.26 1.28488 -0.968483 0
M  V30 14779 O 1364.46 1.27083 -1.23203 0
M  V30 14780 C 1361.59 2.24268 -2.59921 0
M  V30 14781 C 1360.67 1.94673 -3.7678 0
M  V30 14782 N 1361.06 1.3535 -4.87354 0
M  V30 14783 C 1359.36 2.24658 -3.85285 0
M  V30 14784 C 1360.06 1.22909 -5.68567 0
M  V30 14785 N 1359.04 1.72493 -5.15507 0
M  V30 14786 H 1362.84 0.496931 -2.89668 0
M  V30 14787 H 1360.35 0.174886 -1.61456 0
M  V30 14788 H 1362.35 2.96116 -2.93463 0
M  V30 14789 H 1361.01 2.71261 -1.78459 0
M  V30 14790 H 1362.02 1.02839 -5.07587 0
M  V30 14791 H 1358.7 2.74318 -3.14731 0
M  V30 14792 H 1360.09 0.7703 -6.6747 0
M  V30 14793 N 1362.81 1.55714 0.243056 0
M  V30 14794 C 1364.09 1.68483 0.993614 0
M  V30 14795 C 1364.47 0.571112 2.03228 0
M  V30 14796 O 1363.81 -0.42491 2.24515 0
M  V30 14797 C 1364.02 3.0894 1.62349 0
M  V30 14798 C 1365.37 3.67663 2.12389 0
M  V30 14799 O 1366.4 3.11764 1.72283 0
M  V30 14800 O 1365.25 4.65664 2.8604 0
M  V30 14801 H 1362.35 0.685415 0.462747 0
M  V30 14802 H 1364.89 1.68043 0.236538 0
M  V30 14803 H 1363.67 3.81451 0.87241 0
M  V30 14804 H 1363.29 3.13407 2.44667 0
M  V30 14805 N 1364.29 -0.50888 1.49158 0
M  V30 14806 C 1365.25 -1.59354 1.64739 0
M  V30 14807 C 1366.25 -1.52175 0.519557 0
M  V30 14808 O 1367.44 -1.55468 0.785838 0
M  V30 14809 C 1364.57 -2.99002 1.63739 0
M  V30 14810 H 1365.76 -1.46871 2.61474 0
M  V30 14811 H 1363.32 -0.732532 1.38071 0
M  V30 14812 H 1364.05 -3.1697 0.685583 0
M  V30 14813 H 1363.84 -3.05622 2.45637 0
M  V30 14814 H 1365.33 -3.77822 1.77877 0
M  V30 14815 N 1365.76 -1.381 -0.759346 0
M  V30 14816 C 1366.67 -1.37086 -1.9038 0
M  V30 14817 C 1367.69 -0.268738 -1.71912 0
M  V30 14818 O 1368.87 -0.506205 -1.94935 0
M  V30 14819 C 1365.93 -1.18905 -3.25672 0
M  V30 14820 C 1364.99 -2.3887 -3.56707 0
M  V30 14821 C 1364.23 -2.21546 -4.85544 0
M  V30 14822 O 1364.45 -1.20616 -5.57501 0
M  V30 14823 O 1363.38 -3.10009 -5.15924 0
M  V30 14824 H 1367.21 -2.33505 -1.94188 0
M  V30 14825 H 1364.79 -1.18959 -0.903826 0
M  V30 14826 H 1366.68 -1.10803 -4.06572 0
M  V30 14827 H 1365.35 -0.255675 -3.22689 0
M  V30 14828 H 1364.26 -2.52546 -2.75992 0
M  V30 14829 H 1365.59 -3.30817 -3.64446 0
M  V30 14830 N 1367.24 0.986894 -1.22875 0
M  V30 14831 C 1368.15 2.11232 -1.02069 0
M  V30 14832 C 1369.17 1.73969 0.0328424 0
M  V30 14833 O 1370.34 2.00754 -0.161197 0
M  V30 14834 C 1367.41 3.41337 -0.60747 0
M  V30 14835 C 1366.47 3.92665 -1.73531 0
M  V30 14836 C 1365.7 5.1656 -1.34171 0
M  V30 14837 O 1365.93 5.69964 -0.223106 0
M  V30 14838 O 1364.86 5.61791 -2.16041 0
M  V30 14839 H 1368.69 2.3167 -1.96374 0
M  V30 14840 H 1366.27 1.09607 -1.01522 0
M  V30 14841 H 1368.15 4.19613 -0.387661 0
M  V30 14842 H 1366.83 3.22244 0.306653 0
M  V30 14843 H 1365.74 3.15534 -2.0097 0
M  V30 14844 H 1367.07 4.162 -2.62751 0
M  V30 14845 N 1368.72 1.0394 1.18466 0
M  V30 14846 C 1369.67 0.623063 2.241 0
M  V30 14847 C 1370.66 -0.349518 1.65755 0
M  V30 14848 O 1371.87 -0.216947 1.78688 0
M  V30 14849 H 1368.24 0.183263 0.729327 0
M  V30 14850 H 1370.21 1.52439 2.56524 0
M  V30 14851 C 1368.96 0.000626805 3.477 0
M  V30 14852 H 1368.29 0.740056 3.92891 0
M  V30 14853 H 1369.73 -0.253484 4.23242 0
M  V30 14854 C 1368.19 -1.24907 3.1289 0
M  V30 14855 O 1368.72 -2.33996 3.2651 0
M  V30 14856 N 1366.92 -1.14187 2.67226 0
M  V30 14857 H 1366.47 -0.254146 2.56343 0
M  V30 14858 H 1366.43 -1.97893 2.44307 0
M  V30 14859 N 1370.2 -1.34667 0.818693 0
M  V30 14860 C 1371.44 -1.98708 0.405359 0
M  V30 14861 C 1371.78 -1.64767 -1.02788 0
M  V30 14862 O 1371.05 -0.91714 -1.71519 0
M  V30 14863 C 1371.34 -3.55016 0.602966 0
M  V30 14864 C 1371.19 -3.98713 2.08201 0
M  V30 14865 C 1372.51 -4.40085 0.0362489 0
M  V30 14866 H 1369.63 -0.721831 0.148756 0
M  V30 14867 H 1372.27 -1.59628 1.03047 0
M  V30 14868 H 1370.42 -3.88435 0.0708453 0
M  V30 14869 H 1372.09 -3.75647 2.67745 0
M  V30 14870 H 1370.33 -3.49179 2.57403 0
M  V30 14871 H 1371 -5.0751 2.17111 0
M  V30 14872 H 1373.48 -4.13195 0.490837 0
M  V30 14873 H 1372.36 -5.4852 0.204344 0
M  V30 14874 H 1372.62 -4.29243 -1.05845 0
M  V30 14875 N 1371.68 -0.573274 -1.46804 0
M  V30 14876 C 1372.59 0.168081 -2.33997 0
M  V30 14877 C 1373.6 0.895652 -1.49178 0
M  V30 14878 O 1374.78 0.860951 -1.8207 0
M  V30 14879 C 1371.84 1.17483 -3.26188 0
M  V30 14880 C 1370.9 0.452956 -4.26904 0
M  V30 14881 C 1370.14 1.41175 -5.1469 0
M  V30 14882 O 1370.36 2.64767 -5.05227 0
M  V30 14883 O 1369.29 0.927472 -5.94711 0
M  V30 14884 H 1373.12 -0.547576 -2.98723 0
M  V30 14885 H 1370.71 -0.333747 -1.45624 0
M  V30 14886 H 1372.59 1.75557 -3.8309 0
M  V30 14887 H 1371.26 1.87213 -2.6407 0
M  V30 14888 H 1370.17 -0.169383 -3.73716 0
M  V30 14889 H 1371.5 -0.203186 -4.9178 0
M  V30 14890 N 1373.15 1.5451 -0.310553 0
M  V30 14891 C 1374.1 2.2059 0.576555 0
M  V30 14892 C 1375.09 1.18205 1.09163 0
M  V30 14893 O 1376.28 1.43887 1.03081 0
M  V30 14894 C 1373.41 2.95741 1.74334 0
M  V30 14895 C 1372.5 4.05452 1.24378 0
M  V30 14896 N 1372.89 5.03677 0.462921 0
M  V30 14897 C 1371.18 4.19166 1.52367 0
M  V30 14898 C 1371.89 5.81371 0.195709 0
M  V30 14899 N 1370.86 5.38001 0.778203 0
M  V30 14900 H 1374.66 2.93887 -0.0274771 0
M  V30 14901 H 1372.18 1.61987 -0.115773 0
M  V30 14902 H 1374.17 3.41556 2.39051 0
M  V30 14903 H 1372.83 2.23962 2.35098 0
M  V30 14904 H 1373.85 5.1779 0.106943 0
M  V30 14905 H 1370.52 3.58597 2.1381 0
M  V30 14906 H 1371.91 6.70509 -0.432064 0
M  V30 14907 N 1374.63 0.0384594 1.57553 0
M  V30 14908 C 1375.91 -0.677308 1.83499 0
M  V30 14909 C 1376.29 -1.89789 0.924294 0
M  V30 14910 O 1375.64 -2.28493 -0.0178185 0
M  V30 14911 C 1375.85 -1.04667 3.32935 0
M  V30 14912 C 1377.2 -1.43436 3.99639 0
M  V30 14913 O 1378.22 -1.13938 3.37486 0
M  V30 14914 O 1377.08 -1.98435 5.09201 0
M  V30 14915 H 1374.17 -0.333131 0.756936 0
M  V30 14916 H 1376.72 0.066854 1.69568 0
M  V30 14917 H 1375.49 -0.178349 3.90893 0
M  V30 14918 H 1375.11 -1.8487 3.52007 0
M  V30 14919 N 1376.11 -1.55841 -0.234795 0
M  V30 14920 C 1377.07 -1.9051 -1.2743 0
M  V30 14921 C 1378.07 -0.782543 -1.40474 0
M  V30 14922 O 1379.26 -1.05043 -1.38966 0
M  V30 14923 C 1376.4 -2.14424 -2.65019 0
M  V30 14924 H 1377.59 -2.83471 -0.979003 0
M  V30 14925 H 1375.14 -1.48919 -0.47463 0
M  V30 14926 H 1375.88 -1.23972 -2.99669 0
M  V30 14927 H 1375.66 -2.96191 -2.56931 0
M  V30 14928 H 1377.15 -2.42388 -3.40056 0
M  V30 14929 N 1377.59 0.500963 -1.49426 0
M  V30 14930 C 1378.5 1.62889 -1.68833 0
M  V30 14931 C 1379.52 1.64367 -0.570932 0
M  V30 14932 O 1380.69 1.82786 -0.845641 0
M  V30 14933 C 1377.76 2.99255 -1.75063 0
M  V30 14934 C 1376.82 3.08404 -2.9864 0
M  V30 14935 C 1376.05 4.38266 -3.04564 0
M  V30 14936 O 1376.27 5.27065 -2.1808 0
M  V30 14937 O 1375.21 4.52387 -3.97026 0
M  V30 14938 H 1379.03 1.49446 -2.64385 0
M  V30 14939 H 1376.62 0.677254 -1.33168 0
M  V30 14940 H 1378.5 3.80303 -1.81515 0
M  V30 14941 H 1377.18 3.1296 -0.826896 0
M  V30 14942 H 1376.08 2.26544 -2.97706 0
M  V30 14943 H 1377.42 2.99626 -3.90494 0
M  V30 14944 N 1379.07 1.38501 0.752011 0
M  V30 14945 C 1379.98 1.38094 1.8965 0
M  V30 14946 C 1380.99 0.277851 1.71767 0
M  V30 14947 O 1382.17 0.516536 1.94663 0
M  V30 14948 C 1379.23 1.2063 3.25037 0
M  V30 14949 C 1378.3 2.40758 3.55435 0
M  V30 14950 C 1377.53 2.24118 4.84362 0
M  V30 14951 O 1377.75 1.23571 5.56854 0
M  V30 14952 O 1376.69 3.12741 5.14273 0
M  V30 14953 H 1380.51 2.34532 1.92947 0
M  V30 14954 H 1378.1 1.19437 0.897504 0
M  V30 14955 H 1379.98 1.12957 4.05979 0
M  V30 14956 H 1378.65 0.272785 3.22549 0
M  V30 14957 H 1377.56 2.54006 2.74648 0
M  V30 14958 H 1378.89 3.32745 3.62686 0
M  V30 14959 N 1380.55 -0.980364 1.23396 0
M  V30 14960 C 1381.49 -2.09401 1.01262 0
M  V30 14961 C 1382.49 -1.69331 -0.0483957 0
M  V30 14962 O 1383.69 -1.79693 0.105109 0
M  V30 14963 H 1380.07 -0.684969 0.310358 0
M  V30 14964 H 1382.04 -2.25236 1.95732 0
M  V30 14965 C 1380.79 -3.42118 0.620526 0
M  V30 14966 H 1380.11 -3.73402 1.42868 0
M  V30 14967 H 1381.55 -4.2098 0.505169 0
M  V30 14968 C 1380.01 -3.30146 -0.671208 0
M  V30 14969 O 1380.54 -3.62997 -1.72034 0
M  V30 14970 N 1378.75 -2.83303 -0.647137 0
M  V30 14971 H 1378.29 -2.56767 0.206957 0
M  V30 14972 H 1378.25 -2.75675 -1.51165 0
M  V30 14973 N 1382.02 -1.04567 -1.17913 0
M  V30 14974 C 1383.27 -0.753137 -1.88297 0
M  V30 14975 C 1383.6 0.717651 -1.80453 0
M  V30 14976 O 1382.88 1.5242 -1.20824 0
M  V30 14977 C 1383.16 -1.22626 -3.38578 0
M  V30 14978 C 1383.01 -2.75952 -3.55205 0
M  V30 14979 C 1384.33 -0.82029 -4.32388 0
M  V30 14980 H 1381.45 -0.275067 -0.683745 0
M  V30 14981 H 1384.09 -1.29856 -1.38699 0
M  V30 14982 H 1382.24 -0.762246 -3.80949 0
M  V30 14983 H 1383.92 -3.30429 -3.21892 0
M  V30 14984 H 1382.16 -3.15534 -2.97693 0
M  V30 14985 H 1382.83 -3.04116 -4.60671 0
M  V30 14986 H 1385.31 -1.21965 -3.97824 0
M  V30 14987 H 1384.18 -1.17902 -5.36088 0
M  V30 14988 H 1384.44 0.276205 -4.41236 0
M  V30 14989 N 1383.5 1.34231 -0.825823 0
M  V30 14990 C 1384.41 2.33245 -0.251803 0
M  V30 14991 C 1385.43 1.62756 0.615334 0
M  V30 14992 O 1386.6 1.94503 0.522547 0
M  V30 14993 C 1383.67 3.41908 0.574456 0
M  V30 14994 C 1382.73 4.2814 -0.315422 0
M  V30 14995 C 1381.96 5.31613 0.471496 0
M  V30 14996 O 1382.19 5.44337 1.70449 0
M  V30 14997 O 1381.12 6.01719 -0.147691 0
M  V30 14998 H 1384.95 2.84174 -1.07139 0
M  V30 14999 H 1382.53 1.37341 -0.588032 0
M  V30 15000 H 1384.41 4.08252 1.04444 0
M  V30 15001 H 1383.09 2.93217 1.37132 0
M  V30 15002 H 1381.99 3.64709 -0.832963 0
M  V30 15003 H 1383.33 4.80279 -1.07672 0
M  V30 15004 N 1384.98 0.581051 1.46498 0
M  V30 15005 C 1385.89 -0.155669 2.34083 0
M  V30 15006 C 1386.91 -0.887728 1.49651 0
M  V30 15007 O 1388.08 -0.851284 1.82524 0
M  V30 15008 C 1385.15 -1.15752 3.26806 0
M  V30 15009 C 1384.21 -0.43031 4.27138 0
M  V30 15010 C 1383.44 -1.38443 5.15431 0
M  V30 15011 O 1383.66 -2.62084 5.06624 0
M  V30 15012 O 1382.6 -0.89592 5.95195 0
M  V30 15013 H 1386.42 0.56341 2.98428 0
M  V30 15014 H 1384.01 0.341466 1.45445 0
M  V30 15015 H 1385.89 -1.73523 3.84015 0
M  V30 15016 H 1384.57 -1.85809 2.65059 0
M  V30 15017 H 1383.47 0.1892 3.73621 0
M  V30 15018 H 1384.81 0.229263 4.91666 0
M  V30 15019 N 1386.46 -1.54343 0.318742 0
M  V30 15020 C 1387.41 -2.25634 -0.56497 0
M  V30 15021 C 1388.4 -1.26869 -1.12252 0
M  V30 15022 O 1389.61 -1.44662 -1.07112 0
M  V30 15023 H 1385.98 -0.724686 -0.200834 0
M  V30 15024 H 1387.95 -2.98342 0.0586393 0
M  V30 15025 C 1386.7 -3.0237 -1.71662 0
M  V30 15026 H 1386.02 -3.78183 -1.29684 0
M  V30 15027 H 1387.46 -3.55507 -2.31065 0
M  V30 15028 C 1385.92 -2.10383 -2.63136 0
M  V30 15029 O 1386.45 -1.68351 -3.6472 0
M  V30 15030 N 1384.66 -1.75971 -2.31263 0
M  V30 15031 H 1384.21 -2.10349 -1.48698 0
M  V30 15032 H 1384.16 -1.14702 -2.9273 0
M  V30 15033 N 1387.94 -0.0468143 -1.5753 0
M  V30 15034 C 1389.18 0.628869 -1.92803 0
M  V30 15035 C 1389.51 1.70751 -0.925083 0
M  V30 15036 O 1388.79 1.94437 0.0495821 0
M  V30 15037 C 1389.07 1.22899 -3.38479 0
M  V30 15038 C 1388.93 0.158707 -4.4952 0
M  V30 15039 C 1390.24 2.1419 -3.84461 0
M  V30 15040 H 1387.36 0.227137 -0.701126 0
M  V30 15041 H 1390.01 -0.107689 -1.89695 0
M  V30 15042 H 1388.16 1.85674 -3.41259 0
M  V30 15043 H 1389.83 -0.472963 -4.58869 0
M  V30 15044 H 1388.07 -0.51375 -4.30747 0
M  V30 15045 H 1388.74 0.618545 -5.48523 0
M  V30 15046 H 1391.22 1.61382 -3.8353 0
M  V30 15047 H 1390.09 2.53125 -4.87051 0
M  V30 15048 H 1390.35 3.04024 -3.2097 0
M  V30 15049 N 1389.41 1.55964 0.226527 0
M  V30 15050 C 1390.32 1.95169 1.30178 0
M  V30 15051 C 1391.34 0.854831 1.51554 0
M  V30 15052 O 1392.52 1.15798 1.64781 0
M  V30 15053 C 1389.58 2.25612 2.63249 0
M  V30 15054 C 1388.64 3.4884 2.50219 0
M  V30 15055 C 1387.88 3.77822 3.76944 0
M  V30 15056 O 1388.1 3.08556 4.79739 0
M  V30 15057 O 1387.03 4.7132 3.74354 0
M  V30 15058 H 1390.86 2.86794 0.999145 0
M  V30 15059 H 1388.44 1.43109 0.42898 0
M  V30 15060 H 1390.33 2.4641 3.41848 0
M  V30 15061 H 1389 1.37162 2.93203 0
M  V30 15062 H 1387.91 3.33326 1.69836 0
M  V30 15063 H 1389.24 4.37657 2.25205 0
M  V30 15064 N 1390.89 -0.493031 1.4969 0
M  V30 15065 C 1391.8 -1.61991 1.69694 0
M  V30 15066 C 1392.82 -1.64061 0.579641 0
M  V30 15067 O 1393.99 -1.82335 0.855323 0
M  V30 15068 C 1391.06 -2.98323 1.76648 0
M  V30 15069 C 1390.12 -3.06816 3.00271 0
M  V30 15070 C 1389.35 -4.36644 3.06883 0
M  V30 15071 O 1389.58 -5.25901 2.20872 0
M  V30 15072 O 1388.51 -4.50275 3.99419 0
M  V30 15073 H 1392.34 -1.48042 2.65174 0
M  V30 15074 H 1389.92 -0.670182 1.33525 0
M  V30 15075 H 1391.8 -3.79335 1.83529 0
M  V30 15076 H 1390.48 -3.12517 0.843482 0
M  V30 15077 H 1389.39 -2.24962 2.98903 0
M  V30 15078 H 1390.72 -2.97551 3.92077 0
M  V30 15079 N 1392.37 -1.38898 -0.744656 0
M  V30 15080 C 1393.62 -1.35795 -1.50623 0
M  V30 15081 C 1393.95 0.0491775 -1.94138 0
M  V30 15082 O 1393.22 1.01219 -1.66087 0
M  V30 15083 C 1393.51 -2.32168 -2.75263 0
M  V30 15084 C 1393.36 -3.81781 -2.3783 0
M  V30 15085 C 1394.68 -2.26526 -3.77325 0
M  V30 15086 H 1391.8 -0.494591 -0.546396 0
M  V30 15087 H 1394.44 -1.69816 -0.852211 0
M  V30 15088 H 1392.59 -2.03287 -3.31069 0
M  V30 15089 H 1394.26 -4.21373 -1.8773 0
M  V30 15090 H 1392.51 -3.99027 -1.70176 0
M  V30 15091 H 1393.18 -4.44687 -3.27044 0
M  V30 15092 H 1395.65 -2.52041 -3.31081 0
M  V30 15093 H 1394.53 -2.96053 -4.62216 0
M  V30 15094 H 1394.79 -1.26705 -4.23554 0
M  V30 15095 N 1393.85 0.973806 -1.23914 0
M  V30 15096 C 1394.76 2.10138 -1.04304 0
M  V30 15097 C 1395.77 1.73994 0.0143888 0
M  V30 15098 O 1396.95 2.00572 -0.182481 0
M  V30 15099 C 1394.02 3.40673 -0.643639 0
M  V30 15100 C 1393.08 3.90802 -1.77686 0
M  V30 15101 C 1392.31 5.15108 -1.39642 0
M  V30 15102 O 1392.53 5.69695 -0.283546 0
M  V30 15103 O 1391.47 5.59468 -2.21988 0
M  V30 15104 H 1395.29 2.29574 -1.9882 0
M  V30 15105 H 1392.88 1.08524 -1.02679 0
M  V30 15106 H 1394.76 4.19178 -0.432145 0
M  V30 15107 H 1393.43 3.22551 0.272458 0
M  V30 15108 H 1392.34 3.13385 -2.04305 0
M  V30 15109 H 1393.67 4.1339 -2.67151 0
M  V30 15110 N 1395.33 1.05191 1.17357 0
M  V30 15111 C 1396.24 0.663617 2.25018 0
M  V30 15112 C 1397.25 -0.315299 1.71119 0
M  V30 15113 O 1398.43 -0.167398 2.00703 0
M  V30 15114 C 1395.49 0.0443307 3.46672 0
M  V30 15115 C 1394.55 1.07369 4.15656 0
M  V30 15116 C 1393.79 0.483864 5.31502 0
M  V30 15117 O 1394.01 -0.706692 5.66005 0
M  V30 15118 O 1392.94 1.21812 5.89445 0
M  V30 15119 H 1396.77 1.56088 2.60519 0
M  V30 15120 H 1394.36 0.823474 1.24657 0
M  V30 15121 H 1396.24 -0.299839 4.20332 0
M  V30 15122 H 1394.91 -0.826579 3.12969 0
M  V30 15123 H 1393.82 1.46985 3.44015 0
M  V30 15124 H 1395.15 1.91575 4.53387 0
M  V30 15125 N 1396.8 -1.33791 0.83293 0
M  V30 15126 C 1397.75 -2.31249 0.250357 0
M  V30 15127 C 1398.75 -1.57865 -0.614403 0
M  V30 15128 O 1399.95 -1.72782 -0.504627 0
M  V30 15129 H 1396.33 -0.749421 0.0622268 0
M  V30 15130 H 1398.3 -2.77899 1.08697 0
M  V30 15131 C 1397.05 -3.43082 -0.564783 0
M  V30 15132 H 1396.37 -3.99696 0.0913189 0
M  V30 15133 H 1397.81 -4.13486 -0.938351 0
M  V30 15134 C 1396.27 -2.88414 -1.74124 0
M  V30 15135 O 1396.8 -2.84113 -2.83976 0
M  V30 15136 N 1395.01 -2.45101 -1.56121 0
M  V30 15137 H 1394.55 -2.48799 -0.667607 0
M  V30 15138 H 1394.51 -2.08875 -2.34986 0
M  V30 15139 N 1398.28 -0.588812 -1.46187 0
M  V30 15140 C 1399.53 -0.0768417 -2.02654 0
M  V30 15141 C 1399.86 1.28213 -1.4586 0
M  V30 15142 O 1399.14 1.8415 -0.626022 0
M  V30 15143 C 1399.42 -0.0176429 -3.60096 0
M  V30 15144 C 1399.27 -1.40595 -4.27262 0
M  V30 15145 C 1400.59 0.679864 -4.34817 0
M  V30 15146 H 1397.71 -0.0293981 -0.736413 0
M  V30 15147 H 1400.35 -0.757183 -1.74261 0
M  V30 15148 H 1398.5 0.56174 -3.84417 0
M  V30 15149 H 1400.17 -2.03097 -4.14185 0
M  V30 15150 H 1398.42 -1.97196 -3.86388 0
M  V30 15151 H 1399.09 -1.31694 -5.3606 0
M  V30 15152 H 1401.56 0.1876 -4.15677 0
M  V30 15153 H 1400.44 0.690333 -5.44542 0
M  V30 15154 H 1400.7 1.74237 -4.06318 0
M  V30 15155 N 1399.76 1.54172 -0.326923 0
M  V30 15156 C 1400.67 2.28149 0.546351 0
M  V30 15157 C 1401.69 1.32628 1.12631 0
M  V30 15158 O 1402.86 1.65647 1.14556 0
M  V30 15159 C 1399.93 3.02742 1.68962 0
M  V30 15160 C 1398.99 4.13856 1.14112 0
M  V30 15161 C 1398.22 4.84882 2.2299 0
M  V30 15162 O 1398.44 4.55448 3.43399 0
M  V30 15163 O 1397.38 5.71714 1.8822 0
M  V30 15164 H 1401.2 3.03651 -0.0545288 0
M  V30 15165 H 1398.79 1.49113 -0.0925027 0
M  V30 15166 H 1400.67 3.49443 2.35515 0
M  V30 15167 H 1399.35 2.30113 2.27662 0
M  V30 15168 H 1398.25 3.71497 0.440579 0
M  V30 15169 H 1399.59 4.88539 0.599211 0
M  V30 15170 N 1401.24 0.0551678 1.57503 0
M  V30 15171 C 1402.15 -0.932959 2.15251 0
M  V30 15172 C 1403.16 -1.33885 1.11134 0
M  V30 15173 O 1404.34 -1.41495 1.43321 0
M  V30 15174 C 1401.41 -2.18807 2.68932 0
M  V30 15175 C 1400.47 -1.84016 3.87862 0
M  V30 15176 C 1399.7 -3.03543 4.38973 0
M  V30 15177 O 1399.92 -4.17041 3.89144 0
M  V30 15178 O 1398.86 -2.84325 5.30512 0
M  V30 15179 H 1402.68 -0.471816 3.00013 0
M  V30 15180 H 1400.27 -0.16696 1.48464 0
M  V30 15181 H 1402.15 -2.92439 3.0341 0
M  V30 15182 H 1400.82 -2.64051 1.87239 0
M  V30 15183 H 1399.73 -1.07687 3.58266 0
M  V30 15184 H 1401.06 -1.43567 4.70796 0
M  V30 15185 N 1402.72 -1.56081 -0.218252 0
M  V30 15186 C 1403.66 -1.93544 -1.2901 0
M  V30 15187 C 1404.66 -0.817886 -1.48348 0
M  V30 15188 O 1405.86 -1.00274 -1.49483 0
M  V30 15189 H 1402.24 -0.61511 -0.432601 0
M  V30 15190 H 1404.21 -2.82975 -0.946966 0
M  V30 15191 C 1402.96 -2.27134 -2.63259 0
M  V30 15192 H 1402.28 -3.12643 -2.49188 0
M  V30 15193 H 1403.72 -2.57228 -3.3706 0
M  V30 15194 C 1402.18 -1.09764 -3.18518 0
M  V30 15195 O 1402.71 -0.360501 -4.00079 0
M  V30 15196 N 1400.92 -0.880589 -2.76937 0
M  V30 15197 H 1400.46 -1.48175 -2.10718 0
M  V30 15198 H 1400.42 -0.0970234 -3.1425 0
M  V30 15199 N 1404.2 0.485086 -1.49949 0
M  V30 15200 C 1405.44 1.23999 -1.60474 0
M  V30 15201 C 1405.77 1.91904 -0.297736 0
M  V30 15202 O 1405.05 1.81472 0.699857 0
M  V30 15203 C 1405.33 2.2946 -2.77525 0
M  V30 15204 C 1405.19 1.65952 -4.18067 0
M  V30 15205 C 1406.5 3.30893 -2.90169 0
M  V30 15206 H 1403.62 0.449462 -0.584083 0
M  V30 15207 H 1406.27 0.535795 -1.82289 0
M  V30 15208 H 1404.42 2.89521 -2.59056 0
M  V30 15209 H 1406.09 1.09596 -4.48092 0
M  V30 15210 H 1404.33 0.963079 -4.22974 0
M  V30 15211 H 1405 2.42521 -4.9587 0
M  V30 15212 H 1407.48 2.8084 -3.07031 0
M  V30 15213 H 1406.35 4.02027 -3.73718 0
M  V30 15214 H 1406.61 3.94178 -2.0019 0
M  V30 15215 N 1405.67 1.39291 0.737279 0
M  V30 15216 C 1406.58 1.40098 1.88175 0
M  V30 15217 C 1407.6 0.296053 1.71463 0
M  V30 15218 O 1408.78 0.537153 1.94105 0
M  V30 15219 C 1405.84 1.24071 3.2374 0
M  V30 15220 C 1404.9 2.44515 3.52861 0
M  V30 15221 C 1404.13 2.29243 4.81958 0
M  V30 15222 O 1404.36 1.2947 5.55512 0
M  V30 15223 O 1403.29 3.18178 5.10927 0
M  V30 15224 H 1407.12 2.36565 1.90449 0
M  V30 15225 H 1404.7 1.20382 0.884786 0
M  V30 15226 H 1406.58 1.17257 4.04758 0
M  V30 15227 H 1405.26 0.30698 3.22241 0
M  V30 15228 H 1404.17 2.56905 2.71939 0
M  V30 15229 H 1405.5 3.36573 3.59137 0
M  V30 15230 N 1407.15 -0.967221 1.24429 0
M  V30 15231 C 1408.06 -2.09582 1.05417 0
M  V30 15232 C 1409.08 -1.73999 -0.00516127 0
M  V30 15233 O 1410.25 -2.00472 0.193115 0
M  V30 15234 C 1407.32 -3.40327 0.661697 0
M  V30 15235 C 1406.38 -3.89854 1.79756 0
M  V30 15236 C 1405.61 -5.1436 1.42372 0
M  V30 15237 O 1405.84 -5.69536 0.313754 0
M  V30 15238 O 1404.77 -5.58283 2.24952 0
M  V30 15239 H 1408.6 -2.28517 2.00034 0
M  V30 15240 H 1406.18 -1.07978 1.03253 0
M  V30 15241 H 1408.06 -4.18943 0.454369 0
M  V30 15242 H 1406.74 -3.22691 -0.255348 0
M  V30 15243 H 1405.64 -3.12297 2.05964 0
M  V30 15244 H 1406.98 -4.11967 2.69339 0
M  V30 15245 N 1408.63 -1.05812 -1.16797 0
M  V30 15246 C 1409.58 -0.658636 -2.2308 0
M  V30 15247 C 1410.57 0.323104 -1.6629 0
M  V30 15248 O 1411.78 0.188492 -1.7901 0
M  V30 15249 H 1408.15 -0.194843 -0.72632 0
M  V30 15250 H 1410.12 -1.56501 -2.54067 0
M  V30 15251 C 1408.87 -0.0559428 -3.47655 0
M  V30 15252 H 1408.2 -0.802468 -3.91664 0
M  V30 15253 H 1409.64 0.186118 -4.23591 0
M  V30 15254 C 1408.09 1.19913 -3.14837 0
M  V30 15255 O 1408.62 2.28772 -3.30191 0
M  V30 15256 N 1406.83 1.09921 -2.69009 0
M  V30 15257 H 1406.38 0.213331 -2.56715 0
M  V30 15258 H 1406.34 1.93981 -2.47424 0
M  V30 15259 N 1410.11 1.33347 -0.840014 0
M  V30 15260 C 1411.35 1.98037 -0.43692 0
M  V30 15261 C 1411.69 1.66382 1.00154 0
M  V30 15262 O 1410.96 0.944311 1.70038 0
M  V30 15263 C 1411.24 3.54012 -0.65937 0
M  V30 15264 C 1411.1 3.9535 -2.14518 0
M  V30 15265 C 1412.42 4.39972 -0.106258 0
M  V30 15266 H 1409.54 0.719373 -0.160221 0
M  V30 15267 H 1412.18 1.57969 -1.05574 0
M  V30 15268 H 1410.33 3.88274 -0.132633 0
M  V30 15269 H 1412 3.7134 -2.73687 0
M  V30 15270 H 1410.24 3.4504 -2.62926 0
M  V30 15271 H 1410.91 5.03992 -2.25158 0
M  V30 15272 H 1413.39 4.12362 -0.556511 0
M  V30 15273 H 1412.27 5.48125 -0.291583 0
M  V30 15274 H 1412.53 4.30872 0.990032 0
M  V30 15275 N 1411.59 0.596556 1.45873 0
M  V30 15276 C 1412.5 -0.130832 2.34235 0
M  V30 15277 C 1413.51 -0.871805 1.50584 0
M  V30 15278 O 1414.69 -0.831877 1.83417 0
M  V30 15279 C 1411.75 -1.12279 3.28016 0
M  V30 15280 C 1410.81 -0.384982 4.2757 0
M  V30 15281 C 1410.05 -1.32969 5.1687 0
M  V30 15282 O 1410.27 -2.56696 5.09375 0
M  V30 15283 O 1409.2 -0.832741 5.96112 0
M  V30 15284 H 1413.03 0.59503 2.97814 0
M  V30 15285 H 1410.61 0.356873 1.45075 0
M  V30 15286 H 1412.5 -1.6944 3.85834 0
M  V30 15287 H 1411.17 -1.82988 2.67015 0
M  V30 15288 H 1410.08 0.228816 3.734 0
M  V30 15289 H 1411.41 0.281398 4.91395 0
M  V30 15290 N 1413.06 -1.53996 0.335095 0
M  V30 15291 C 1413.97 -2.28436 -0.534244 0
M  V30 15292 C 1414.99 -1.33224 -1.11926 0
M  V30 15293 O 1416.17 -1.66252 -1.13676 0
M  V30 15294 C 1413.23 -3.03634 -1.67354 0
M  V30 15295 C 1412.29 -4.14455 -1.11916 0
M  V30 15296 C 1411.52 -4.86058 -2.20416 0
M  V30 15297 O 1411.75 -4.57263 -3.40979 0
M  V30 15298 O 1410.68 -5.72704 -1.85185 0
M  V30 15299 H 1414.51 -3.03618 0.0706314 0
M  V30 15300 H 1412.09 -1.49062 0.100409 0
M  V30 15301 H 1413.97 -3.50687 -2.33659 0
M  V30 15302 H 1412.65 -2.31317 -2.26438 0
M  V30 15303 H 1411.56 -3.71725 -0.420871 0
M  V30 15304 H 1412.89 -4.8885 -0.573295 0
M  V30 15305 N 1414.54 -0.0635198 -1.57472 0
M  V30 15306 C 1415.49 0.924358 -2.13444 0
M  V30 15307 C 1416.48 1.31389 -1.06927 0
M  V30 15308 O 1417.69 1.2921 -1.25319 0
M  V30 15309 H 1414.06 0.316003 -0.682383 0
M  V30 15310 H 1416.04 0.427281 -2.95325 0
M  V30 15311 C 1414.78 2.18546 -2.70431 0
M  V30 15312 H 1414.11 1.89455 -3.52061 0
M  V30 15313 H 1415.55 2.85799 -3.13201 0
M  V30 15314 C 1414.01 2.93845 -1.64794 0
M  V30 15315 O 1414.54 3.87242 -1.06802 0
M  V30 15316 N 1412.74 2.568 -1.36023 0
M  V30 15317 H 1412.29 1.80924 -1.83369 0
M  V30 15318 H 1412.25 3.07486 -0.655741 0
M  V30 15319 N 1416.02 1.56195 0.209972 0
M  V30 15320 C 1417.27 1.80011 0.93402 0
M  V30 15321 C 1417.6 0.635109 1.83521 0
M  V30 15322 O 1416.87 -0.365099 1.91043 0
M  V30 15323 C 1417.16 3.13989 1.76304 0
M  V30 15324 C 1417.01 4.40956 0.887567 0
M  V30 15325 C 1418.33 3.44514 2.73857 0
M  V30 15326 H 1415.45 0.654859 0.338125 0
M  V30 15327 H 1418.09 1.88921 0.20221 0
M  V30 15328 H 1416.24 3.06524 2.38695 0
M  V30 15329 H 1417.91 4.60452 0.279507 0
M  V30 15330 H 1416.15 4.33368 0.193533 0
M  V30 15331 H 1416.83 5.31164 1.50228 0
M  V30 15332 H 1419.3 3.52182 2.216 0
M  V30 15333 H 1418.18 4.39407 3.28957 0
M  V30 15334 H 1418.44 2.6726 3.52171 0
M  V30 15335 N 1417.5 -0.477127 1.50204 0
M  V30 15336 C 1418.41 -1.60182 1.71403 0
M  V30 15337 C 1419.42 -1.63437 0.597009 0
M  V30 15338 O 1420.6 -1.81418 0.874614 0
M  V30 15339 C 1417.66 -2.96432 1.79802 0
M  V30 15340 C 1416.73 -3.03614 3.03508 0
M  V30 15341 C 1415.96 -4.33365 3.11497 0
M  V30 15342 O 1416.18 -5.23529 2.26438 0
M  V30 15343 O 1415.12 -4.46013 4.04173 0
M  V30 15344 H 1418.94 -1.45221 2.66729 0
M  V30 15345 H 1416.53 -0.655982 1.34228 0
M  V30 15346 H 1418.41 -3.77367 1.87542 0
M  V30 15347 H 1417.08 -3.11605 0.876581 0
M  V30 15348 H 1415.99 -2.21779 3.01272 0
M  V30 15349 H 1417.32 -2.93376 3.95211 0
M  V30 15350 N 1418.98 -1.3968 -0.729882 0
M  V30 15351 C 1419.89 -1.41094 -1.87429 0
M  V30 15352 C 1420.9 -0.305142 -1.71303 0
M  V30 15353 O 1422.08 -0.54744 -1.93817 0
M  V30 15354 C 1419.14 -1.25786 -3.23077 0
M  V30 15355 C 1418.2 -2.46382 -3.5156 0
M  V30 15356 C 1417.44 -2.31795 -4.80735 0
M  V30 15357 O 1417.66 -1.32415 -5.54818 0
M  V30 15358 O 1416.59 -3.20883 -5.09232 0
M  V30 15359 H 1420.42 -2.37571 -1.89192 0
M  V30 15360 H 1418.01 -1.2085 -0.878389 0
M  V30 15361 H 1419.89 -1.19402 -4.0413 0
M  V30 15362 H 1418.56 -0.324065 -3.22074 0
M  V30 15363 H 1417.47 -2.58343 -2.70573 0
M  V30 15364 H 1418.8 -3.38473 -3.57347 0
M  V30 15365 N 1420.45 0.960609 -1.2494 0
M  V30 15366 C 1421.7 1.70701 -1.09495 0
M  V30 15367 C 1422.03 1.90754 0.364214 0
M  V30 15368 O 1421.31 1.47417 1.26879 0
M  V30 15369 C 1421.59 3.09353 -1.84317 0
M  V30 15370 C 1421.44 2.96747 -3.38026 0
M  V30 15371 C 1422.76 4.09139 -1.62153 0
M  V30 15372 H 1419.88 0.61955 -0.399158 0
M  V30 15373 H 1422.52 1.11701 -1.53698 0
M  V30 15374 H 1420.67 3.59719 -1.46746 0
M  V30 15375 H 1422.35 2.53752 -3.85237 0
M  V30 15376 H 1420.59 2.32798 -3.66043 0
M  V30 15377 H 1421.26 3.95002 -3.85587 0
M  V30 15378 H 1423.74 3.67659 -1.94849 0
M  V30 15379 H 1422.61 5.04206 -2.16951 0
M  V30 15380 H 1422.87 4.38521 -0.561437 0
M  V30 15381 N 1421.93 1.0643 1.16234 0
M  V30 15382 C 1422.84 0.687446 2.24302 0
M  V30 15383 C 1423.86 -0.297132 1.71444 0
M  V30 15384 O 1425.03 -0.146101 2.00869 0
M  V30 15385 C 1422.1 0.0810973 3.46605 0
M  V30 15386 C 1421.16 1.11772 4.14494 0
M  V30 15387 C 1420.39 0.54021 5.30959 0
M  V30 15388 O 1420.62 -0.646619 5.66723 0
M  V30 15389 O 1419.55 1.28057 5.8812 0
M  V30 15390 H 1423.38 1.58842 2.58849 0
M  V30 15391 H 1420.96 0.836649 1.23776 0
M  V30 15392 H 1422.84 -0.25524 4.20626 0
M  V30 15393 H 1421.52 -0.793338 3.13828 0
M  V30 15394 H 1420.43 1.50626 3.42436 0
M  V30 15395 H 1421.76 1.96373 4.5133 0
M  V30 15396 N 1423.41 -1.329 0.847073 0
M  V30 15397 C 1424.32 -2.32815 0.288878 0
M  V30 15398 C 1425.34 -1.63715 -0.589363 0
M  V30 15399 O 1426.51 -1.9531 -0.491537 0
M  V30 15400 C 1423.58 -3.42778 -0.519988 0
M  V30 15401 C 1422.64 -4.27584 0.383496 0
M  V30 15402 C 1421.87 -5.32296 -0.386862 0
M  V30 15403 O 1422.09 -5.4698 -1.61768 0
M  V30 15404 O 1421.03 -6.01408 0.2434 0
M  V30 15405 H 1424.85 -2.82434 1.11647 0
M  V30 15406 H 1422.44 -1.36388 0.609807 0
M  V30 15407 H 1424.32 -4.09862 -0.979357 0
M  V30 15408 H 1423 -2.95362 -1.3245 0
M  V30 15409 H 1421.9 -3.63338 0.890879 0
M  V30 15410 H 1423.24 -4.78505 1.15299 0
M  V30 15411 N 1424.89 -0.604284 -1.45555 0
M  V30 15412 C 1425.84 0.129013 -2.32242 0
M  V30 15413 C 1426.83 0.862933 -1.45773 0
M  V30 15414 O 1428.04 0.778874 -1.62276 0
M  V30 15415 H 1424.41 0.0604661 -0.749565 0
M  V30 15416 H 1426.38 -0.620603 -2.91875 0
M  V30 15417 C 1425.13 1.11516 -3.29332 0
M  V30 15418 H 1424.45 0.559849 -3.95861 0
M  V30 15419 H 1425.89 1.59824 -3.92724 0
M  V30 15420 C 1424.35 2.18706 -2.5626 0
M  V30 15421 O 1424.88 3.26397 -2.34154 0
M  V30 15422 N 1423.09 1.93899 -2.16452 0
M  V30 15423 H 1422.64 1.0633 -2.34631 0
M  V30 15424 H 1422.59 2.65824 -1.67884 0
M  V30 15425 N 1426.37 1.53816 -0.343257 0
M  V30 15426 C 1427.61 2.01207 0.253721 0
M  V30 15427 C 1427.95 1.23069 1.50225 0
M  V30 15428 O 1427.22 0.31824 1.91879 0
M  V30 15429 C 1427.5 3.5559 0.56815 0
M  V30 15430 C 1427.36 4.44438 -0.692457 0
M  V30 15431 C 1428.68 4.17974 1.37788 0
M  V30 15432 H 1425.79 0.731392 0.0907427 0
M  V30 15433 H 1428.44 1.84254 -0.463736 0
M  V30 15434 H 1426.59 3.70166 1.17937 0
M  V30 15435 H 1428.26 4.41698 -1.33042 0
M  V30 15436 H 1426.5 4.13312 -1.3174 0
M  V30 15437 H 1427.17 5.5034 -0.427715 0
M  V30 15438 H 1429.65 4.07094 0.861043 0
M  V30 15439 H 1428.52 5.26068 1.56663 0
M  V30 15440 H 1428.79 3.72577 2.3799 0
M  V30 15441 N 1427.84 0.0718701 1.57436 0
M  V30 15442 C 1428.75 -0.910077 2.16229 0
M  V30 15443 C 1429.77 -1.32699 1.12548 0
M  V30 15444 O 1430.95 -1.39967 1.44814 0
M  V30 15445 C 1428.01 -2.15942 2.71238 0
M  V30 15446 C 1427.07 -1.79891 3.89792 0
M  V30 15447 C 1426.31 -2.9887 4.42168 0
M  V30 15448 O 1426.53 -4.1289 3.93545 0
M  V30 15449 O 1425.46 -2.78682 5.33498 0
M  V30 15450 H 1429.29 -0.439969 3.00496 0
M  V30 15451 H 1426.87 -0.151204 1.48633 0
M  V30 15452 H 1428.76 -2.89204 3.06494 0
M  V30 15453 H 1427.43 -2.62051 1.90029 0
M  V30 15454 H 1426.34 -1.03881 3.59388 0
M  V30 15455 H 1427.67 -1.38566 4.72293 0
M  V30 15456 N 1429.32 -1.56304 -0.201686 0
M  V30 15457 C 1430.23 -1.97215 -1.27057 0
M  V30 15458 C 1431.25 -0.878834 -1.50175 0
M  V30 15459 O 1432.42 -1.18405 -1.62918 0
M  V30 15460 C 1429.49 -2.29772 -2.59626 0
M  V30 15461 C 1428.55 -3.52776 -2.44637 0
M  V30 15462 C 1427.78 -3.83771 -3.70885 0
M  V30 15463 O 1428.01 -3.16149 -4.7477 0
M  V30 15464 O 1426.94 -4.77216 -3.66808 0
M  V30 15465 H 1430.77 -2.88347 -0.953393 0
M  V30 15466 H 1428.35 -1.43773 -0.406158 0
M  V30 15467 H 1430.23 -2.51817 -3.37885 0
M  V30 15468 H 1428.91 -1.41809 -2.90984 0
M  V30 15469 H 1427.82 -3.35986 -1.64512 0
M  V30 15470 H 1429.15 -4.41184 -2.18214 0
M  V30 15471 N 1430.8 0.469154 -1.50455 0
M  V30 15472 C 1431.75 1.58765 -1.6999 0
M  V30 15473 C 1432.74 1.59673 -0.56577 0
M  V30 15474 O 1433.95 1.63799 -0.74632 0
M  V30 15475 H 1430.32 0.526868 -0.536577 0
M  V30 15476 H 1432.29 1.39451 -2.6381 0
M  V30 15477 C 1431.04 2.9669 -1.81302 0
M  V30 15478 H 1430.37 2.96711 -2.67961 0
M  V30 15479 H 1431.81 3.74403 -1.98994 0
M  V30 15480 C 1430.27 3.32127 -0.565086 0
M  V30 15481 O 1430.8 4.00616 0.294873 0
M  V30 15482 N 1429 2.8757 -0.418537 0
M  V30 15483 H 1428.55 2.32008 -1.11938 0
M  V30 15484 H 1428.51 3.11645 0.415276 0
M  V30 15485 N 1432.28 1.40065 0.722464 0
M  V30 15486 C 1433.52 1.38175 1.48444 0
M  V30 15487 C 1433.86 -0.0182857 1.94191 0
M  V30 15488 O 1433.13 -0.985638 1.67677 0
M  V30 15489 C 1433.42 2.36518 2.71535 0
M  V30 15490 C 1433.27 3.85517 2.31726 0
M  V30 15491 C 1434.59 2.325 3.73673 0
M  V30 15492 H 1431.71 0.503221 0.538458 0
M  V30 15493 H 1434.35 1.7115 0.825087 0
M  V30 15494 H 1432.5 2.08529 3.27793 0
M  V30 15495 H 1434.17 4.24306 1.81003 0
M  V30 15496 H 1432.41 4.01684 1.63807 0
M  V30 15497 H 1433.08 4.49834 3.19928 0
M  V30 15498 H 1435.56 2.57277 3.27029 0
M  V30 15499 H 1434.44 3.03369 4.57447 0
M  V30 15500 H 1434.7 1.33427 4.21485 0
M  V30 15501 N 1433.76 -0.95397 1.25448 0
M  V30 15502 C 1434.67 -2.08452 1.07634 0
M  V30 15503 C 1435.68 -1.73995 0.013294 0
M  V30 15504 O 1436.86 -2.00256 0.214367 0
M  V30 15505 C 1433.92 -3.39606 0.697756 0
M  V30 15506 C 1432.99 -3.87926 1.83881 0
M  V30 15507 C 1432.22 -5.12821 1.47819 0
M  V30 15508 O 1432.44 -5.69172 0.374143 0
M  V30 15509 O 1431.38 -5.55866 2.3086 0
M  V30 15510 H 1435.2 -2.26382 2.02447 0
M  V30 15511 H 1432.79 -1.06877 1.04392 0
M  V30 15512 H 1434.67 -4.18438 0.498778 0
M  V30 15513 H 1433.34 -3.22944 -0.221108 0
M  V30 15514 H 1432.25 -3.10095 2.09265 0
M  V30 15515 H 1433.58 -4.09087 2.73694 0
M  V30 15516 N 1435.24 -1.07045 -1.15668 0
M  V30 15517 C 1436.15 -0.699332 -2.23934 0
M  V30 15518 C 1437.16 0.288036 -1.71599 0
M  V30 15519 O 1438.34 0.135447 -2.00944 0
M  V30 15520 C 1435.4 -0.0994775 -3.46557 0
M  V30 15521 C 1434.46 -1.13968 -4.13896 0
M  V30 15522 C 1433.7 -0.56836 -5.30665 0
M  V30 15523 O 1433.92 0.616556 -5.67058 0
M  V30 15524 O 1432.85 -1.31174 -5.87432 0
M  V30 15525 H 1436.68 -1.60212 -2.58003 0
M  V30 15526 H 1434.26 -0.843202 -1.23331 0
M  V30 15527 H 1436.15 0.23293 -4.20756 0
M  V30 15528 H 1434.82 0.776684 -3.14244 0
M  V30 15529 H 1433.73 -1.5244 -3.41633 0
M  V30 15530 H 1435.06 -1.98764 -4.50282 0
M  V30 15531 N 1436.71 1.32449 -0.85411 0
M  V30 15532 C 1437.66 2.30821 -0.287115 0
M  V30 15533 C 1438.66 1.58823 0.58921 0
M  V30 15534 O 1439.86 1.73563 0.477075 0
M  V30 15535 H 1436.24 0.748336 -0.0741416 0
M  V30 15536 H 1438.21 2.76134 -1.13104 0
M  V30 15537 C 1436.96 3.43937 0.51013 0
M  V30 15538 H 1436.28 3.995 -0.154895 0
M  V30 15539 H 1437.72 4.14927 0.872451 0
M  V30 15540 C 1436.18 2.91147 1.69513 0
M  V30 15541 O 1436.71 2.88595 2.7942 0
M  V30 15542 N 1434.91 2.47554 1.52202 0
M  V30 15543 H 1434.46 2.49829 0.627941 0
M  V30 15544 H 1434.42 2.12587 2.31633 0
M  V30 15545 N 1438.19 0.611994 1.45232 0
M  V30 15546 C 1439.44 0.109073 2.02506 0
M  V30 15547 C 1439.77 -1.25876 1.47881 0
M  V30 15548 O 1439.05 -1.83131 0.65524 0
M  V30 15549 C 1439.33 0.0749288 3.60022 0
M  V30 15550 C 1439.18 1.47374 4.24972 0
M  V30 15551 C 1440.5 -0.610602 4.35844 0
M  V30 15552 H 1437.62 0.0411101 0.735853 0
M  V30 15553 H 1440.26 0.78481 1.73034 0
M  V30 15554 H 1438.41 -0.500511 3.85262 0
M  V30 15555 H 1440.08 2.0966 4.10902 0
M  V30 15556 H 1438.33 2.03319 3.83202 0
M  V30 15557 H 1439 1.40206 5.33897 0
M  V30 15558 H 1441.47 -0.121445 4.15923 0
M  V30 15559 H 1440.35 -0.603614 5.45571 0
M  V30 15560 H 1440.61 -1.6775 4.09038 0
M  V30 15561 N 1439.67 -1.53632 0.351409 0
M  V30 15562 C 1440.58 -2.2899 -0.509985 0
M  V30 15563 C 1441.6 -1.34403 -1.10507 0
M  V30 15564 O 1442.77 -1.67448 -1.11906 0
M  V30 15565 C 1439.84 -3.05392 -1.64124 0
M  V30 15566 C 1438.9 -4.15619 -1.07514 0
M  V30 15567 C 1438.13 -4.88369 -2.15248 0
M  V30 15568 O 1438.35 -4.60854 -3.3611 0
M  V30 15569 O 1437.29 -5.74636 -1.79101 0
M  V30 15570 H 1441.11 -3.03526 0.10283 0
M  V30 15571 H 1438.7 -1.48947 0.116214 0
M  V30 15572 H 1440.58 -3.53146 -2.29926 0
M  V30 15573 H 1439.26 -2.33705 -2.23972 0
M  V30 15574 H 1438.16 -3.7215 -0.381421 0
M  V30 15575 H 1439.5 -4.8943 -0.521413 0
M  V30 15576 N 1441.15 -0.0802183 -1.57396 0
M  V30 15577 C 1442.06 0.898597 -2.16708 0
M  V30 15578 C 1443.07 1.321 -1.1325 0
M  V30 15579 O 1444.25 1.39197 -1.45554 0
M  V30 15580 C 1441.31 2.14501 -2.72379 0
M  V30 15581 C 1440.38 1.77822 -3.9074 0
M  V30 15582 C 1439.61 2.96521 -4.43747 0
M  V30 15583 O 1439.83 4.10797 -3.9573 0
M  V30 15584 O 1438.77 2.75849 -5.34968 0
M  V30 15585 H 1442.59 0.424027 -3.00725 0
M  V30 15586 H 1440.18 0.14332 -1.48711 0
M  V30 15587 H 1442.06 2.87575 -3.08024 0
M  V30 15588 H 1440.73 2.61039 -1.91416 0
M  V30 15589 H 1439.64 1.01974 -3.59934 0
M  V30 15590 H 1440.97 1.36059 -4.73021 0
M  V30 15591 N 1442.63 1.56409 0.193394 0
M  V30 15592 C 1443.57 1.95572 1.25914 0
M  V30 15593 C 1444.57 0.841384 1.47028 0
M  V30 15594 O 1445.77 1.0264 1.47868 0
M  V30 15595 H 1442.15 0.621914 0.422761 0
M  V30 15596 H 1444.12 2.84446 0.901827 0
M  V30 15597 C 1442.87 2.31293 2.59613 0
M  V30 15598 H 1442.19 3.16568 2.44182 0
M  V30 15599 H 1443.63 2.62558 3.32926 0
M  V30 15600 C 1442.09 1.14818 3.16731 0
M  V30 15601 O 1442.62 0.424105 3.99455 0
M  V30 15602 N 1440.83 0.924536 2.75501 0
M  V30 15603 H 1440.37 1.51509 2.08334 0
M  V30 15604 H 1440.33 0.147006 3.14056 0
M  V30 15605 N 1444.1 -0.461169 1.50702 0
M  V30 15606 C 1445.35 -1.21431 1.62427 0
M  V30 15607 C 1445.68 -1.91406 0.328228 0
M  V30 15608 O 1444.96 -1.82563 -0.670898 0
M  V30 15609 C 1445.24 -2.25016 2.8114 0
M  V30 15610 C 1445.09 -1.5928 4.20654 0
M  V30 15611 C 1446.41 -3.26234 2.95397 0
M  V30 15612 H 1443.53 -0.440113 0.59116 0
M  V30 15613 H 1446.17 -0.506726 1.83118 0
M  V30 15614 H 1444.32 -2.85363 2.63629 0
M  V30 15615 H 1446 -1.02454 4.49779 0
M  V30 15616 H 1444.24 -0.895665 4.24453 0
M  V30 15617 H 1444.91 -2.34602 4.99666 0
M  V30 15618 H 1447.39 -2.7592 3.1146 0
M  V30 15619 H 1446.26 -3.96031 3.80067 0
M  V30 15620 H 1446.52 -3.90943 2.06436 0
M  V30 15621 N 1445.58 -1.40446 -0.715026 0
M  V30 15622 C 1446.49 -1.43074 -1.85922 0
M  V30 15623 C 1447.51 -0.323294 -1.7097 0
M  V30 15624 O 1448.68 -0.567966 -1.93226 0
M  V30 15625 C 1445.75 -1.29206 -3.21725 0
M  V30 15626 C 1444.81 -2.50097 -3.48927 0
M  V30 15627 C 1444.04 -2.36881 -4.7825 0
M  V30 15628 O 1444.27 -1.38292 -5.53382 0
M  V30 15629 O 1443.2 -3.26266 -5.058 0
M  V30 15630 H 1447.03 -2.39565 -1.86661 0
M  V30 15631 H 1444.61 -1.21775 -0.865522 0
M  V30 15632 H 1446.49 -1.23681 -4.02841 0
M  V30 15633 H 1445.17 -0.358207 -3.21712 0
M  V30 15634 H 1444.07 -2.61199 -2.67817 0
M  V30 15635 H 1445.41 -3.42244 -3.53737 0
M  V30 15636 N 1447.06 0.947303 -1.25952 0
M  V30 15637 C 1447.97 2.07878 -1.08738 0
M  V30 15638 C 1448.99 1.73985 -0.0225212 0
M  V30 15639 O 1450.16 2.00139 -0.224984 0
M  V30 15640 C 1447.23 3.39231 -0.715756 0
M  V30 15641 C 1446.29 3.86945 -1.85935 0
M  V30 15642 C 1445.52 5.1203 -1.50537 0
M  V30 15643 O 1445.74 5.68965 -0.404323 0
M  V30 15644 O 1444.68 5.54634 -2.33805 0
M  V30 15645 H 1448.5 2.25305 -2.03645 0
M  V30 15646 H 1446.09 1.06321 -1.04958 0
M  V30 15647 H 1447.97 4.18167 -0.520962 0
M  V30 15648 H 1446.65 3.23057 0.203978 0
M  V30 15649 H 1445.55 3.08981 -2.10906 0
M  V30 15650 H 1446.89 4.0763 -2.75859 0
M  V30 15651 N 1448.54 1.07657 1.15099 0
M  V30 15652 C 1449.49 0.694043 2.22004 0
M  V30 15653 C 1450.48 -0.296607 1.66783 0
M  V30 15654 O 1451.69 -0.159989 1.79288 0
M  V30 15655 H 1448.06 0.206374 0.723128 0
M  V30 15656 H 1450.03 1.60523 2.51545 0
M  V30 15657 C 1448.78 0.111245 3.47522 0
M  V30 15658 H 1448.1 0.864677 3.90338 0
M  V30 15659 H 1449.54 -0.118705 4.23834 0
M  V30 15660 C 1448 -1.14889 3.16705 0
M  V30 15661 O 1448.53 -2.2349 3.33789 0
M  V30 15662 N 1446.74 -1.05627 2.70724 0
M  V30 15663 H 1446.29 -0.172463 2.57022 0
M  V30 15664 H 1446.24 -1.9002 2.50479 0
M  V30 15665 N 1450.02 -1.31994 0.861122 0
M  V30 15666 C 1451.26 -1.97317 0.468371 0
M  V30 15667 C 1451.6 -1.67954 -0.974941 0
M  V30 15668 O 1450.87 -0.971243 -1.68514 0
M  V30 15669 C 1451.15 -3.52918 0.715607 0
M  V30 15670 C 1451.01 -3.91888 2.20781 0
M  V30 15671 C 1452.33 -4.39747 0.17624 0
M  V30 15672 H 1449.44 -0.716733 0.171646 0
M  V30 15673 H 1452.09 -1.56269 1.08074 0
M  V30 15674 H 1450.24 -3.88013 0.194387 0
M  V30 15675 H 1451.91 -3.66938 2.7956 0
M  V30 15676 H 1450.15 -3.40813 2.68382 0
M  V30 15677 H 1450.82 -5.00346 2.33147 0
M  V30 15678 H 1453.3 -4.11424 0.622043 0
M  V30 15679 H 1452.17 -5.47592 0.378748 0
M  V30 15680 H 1452.44 -4.32393 -0.921358 0
M  V30 15681 N 1451.49 -0.619688 -1.44906 0
M  V30 15682 C 1452.4 0.0935512 -2.34413 0
M  V30 15683 C 1453.42 0.847738 -1.51952 0
M  V30 15684 O 1454.6 0.802591 -1.84717 0
M  V30 15685 C 1451.66 1.07047 -3.2976 0
M  V30 15686 C 1450.72 0.31691 -4.28129 0
M  V30 15687 C 1449.96 1.24729 -5.1892 0
M  V30 15688 O 1450.18 2.4856 -5.13395 0
M  V30 15689 O 1449.11 0.737799 -5.97361 0
M  V30 15690 H 1452.94 -0.642335 -2.96829 0
M  V30 15691 H 1450.52 -0.379908 -1.44489 0
M  V30 15692 H 1452.41 1.63281 -3.88481 0
M  V30 15693 H 1451.08 1.78717 -2.69893 0
M  V30 15694 H 1449.99 -0.288192 -3.72988 0
M  V30 15695 H 1451.32 -0.359539 -4.90885 0
M  V30 15696 N 1452.97 1.53444 -0.359552 0
M  V30 15697 C 1453.88 2.29257 0.497834 0
M  V30 15698 C 1454.9 1.34987 1.09793 0
M  V30 15699 O 1456.07 1.68039 1.11017 0
M  V30 15700 C 1453.14 3.06258 1.62502 0
M  V30 15701 C 1452.2 4.16183 1.05308 0
M  V30 15702 C 1451.43 4.89503 2.12655 0
M  V30 15703 O 1451.66 4.6263 3.33661 0
M  V30 15704 O 1450.59 5.75578 1.76051 0
M  V30 15705 H 1454.42 3.03467 -0.118925 0
M  V30 15706 H 1452 1.48884 -0.124111 0
M  V30 15707 H 1453.88 3.5436 2.2805 0
M  V30 15708 H 1452.56 2.3489 2.22729 0
M  V30 15709 H 1451.47 3.72348 0.361679 0
M  V30 15710 H 1452.8 4.897 0.49545 0
M  V30 15711 N 1454.45 0.0885642 1.57351 0
M  V30 15712 C 1455.4 -0.890284 2.14888 0
M  V30 15713 C 1456.39 -1.29671 1.09004 0
M  V30 15714 O 1457.6 -1.272 1.27359 0
M  V30 15715 H 1453.97 -0.305107 0.687324 0
M  V30 15716 H 1455.94 -0.380243 2.95967 0
M  V30 15717 C 1454.69 -2.14216 2.73874 0
M  V30 15718 H 1454.02 -1.8383 3.55031 0
M  V30 15719 H 1455.46 -2.8078 3.17708 0
M  V30 15720 C 1453.92 -2.91186 1.69448 0
M  V30 15721 O 1454.45 -3.85494 1.12949 0
M  V30 15722 N 1452.65 -2.54603 1.40091 0
M  V30 15723 H 1452.2 -1.77984 1.86225 0
M  V30 15724 H 1452.16 -3.06403 0.704577 0
M  V30 15725 N 1455.93 -1.56509 -0.185096 0
M  V30 15726 C 1457.17 -1.81474 -0.905263 0
M  V30 15727 C 1457.51 -0.664225 -1.82488 0
M  V30 15728 O 1456.78 0.33466 -1.91599 0
M  V30 15729 C 1457.07 -3.16754 -1.71287 0
M  V30 15730 C 1456.92 -4.42312 -0.817302 0
M  V30 15731 C 1458.24 -3.48828 -2.68342 0
M  V30 15732 H 1455.36 -0.660155 -0.327664 0
M  V30 15733 H 1458 -1.89219 -0.172129 0
M  V30 15734 H 1456.15 -3.10282 -2.33789 0
M  V30 15735 H 1457.82 -4.60839 -0.206218 0
M  V30 15736 H 1456.06 -4.33621 -0.124564 0
M  V30 15737 H 1456.73 -5.33487 -1.41758 0
M  V30 15738 H 1459.21 -3.55663 -2.15969 0
M  V30 15739 H 1458.09 -4.44585 -3.21924 0
M  V30 15740 H 1458.35 -2.72829 -3.47875 0
M  V30 15741 N 1457.41 0.45317 -1.50944 0
M  V30 15742 C 1458.32 1.57435 -1.73929 0
M  V30 15743 C 1459.33 1.62467 -0.622935 0
M  V30 15744 O 1460.51 1.80004 -0.903365 0
M  V30 15745 C 1457.57 2.93534 -1.84495 0
M  V30 15746 C 1456.63 2.98747 -3.083 0
M  V30 15747 C 1455.87 4.28354 -3.18352 0
M  V30 15748 O 1456.09 5.1986 -2.34738 0
M  V30 15749 O 1455.02 4.39527 -4.11217 0
M  V30 15750 H 1458.85 1.40959 -2.69006 0
M  V30 15751 H 1456.44 0.634545 -1.35255 0
M  V30 15752 H 1458.32 3.74336 -1.93522 0
M  V30 15753 H 1456.99 3.10171 -0.926044 0
M  V30 15754 H 1455.9 2.16958 -3.04762 0
M  V30 15755 H 1457.23 2.87051 -3.99828 0
M  V30 15756 N 1458.88 1.40823 0.707568 0
M  V30 15757 C 1459.79 1.44058 1.85161 0
M  V30 15758 C 1460.81 0.332357 1.70796 0
M  V30 15759 O 1461.99 0.578205 1.92922 0
M  V30 15760 C 1459.05 1.3091 3.21035 0
M  V30 15761 C 1458.11 2.51944 3.47595 0
M  V30 15762 C 1457.35 2.39414 4.76987 0
M  V30 15763 O 1457.57 1.41224 5.52641 0
M  V30 15764 O 1456.5 3.28944 5.04063 0
M  V30 15765 H 1460.33 2.40551 1.85388 0
M  V30 15766 H 1457.91 1.22232 0.859052 0
M  V30 15767 H 1459.8 1.25816 4.02179 0
M  V30 15768 H 1458.47 0.375263 3.21517 0
M  V30 15769 H 1457.38 2.62615 2.66428 0
M  V30 15770 H 1458.71 3.44115 3.51917 0
M  V30 15771 N 1460.36 -0.94061 1.26453 0
M  V30 15772 C 1461.31 -2.06073 1.07873 0
M  V30 15773 C 1462.3 -1.69399 0.0055001 0
M  V30 15774 O 1463.51 -1.79267 0.162224 0
M  V30 15775 H 1459.89 -0.674748 0.331993 0
M  V30 15776 H 1461.86 -2.18895 2.02799 0
M  V30 15777 C 1460.61 -3.39971 0.729054 0
M  V30 15778 H 1459.93 -3.68667 1.54675 0
M  V30 15779 H 1461.37 -4.1916 0.638844 0
M  V30 15780 C 1459.83 -3.32114 -0.565835 0
M  V30 15781 O 1460.36 -3.68287 -1.60399 0
M  V30 15782 N 1458.56 -2.85218 -0.556679 0
M  V30 15783 H 1458.11 -2.55979 0.288541 0
M  V30 15784 H 1458.07 -2.80344 -1.42318 0
M  V30 15785 N 1461.84 -1.08266 -1.14527 0
M  V30 15786 C 1463.09 -0.812661 -1.85805 0
M  V30 15787 C 1463.42 0.659878 -1.82645 0
M  V30 15788 O 1462.69 1.48498 -1.25612 0
M  V30 15789 C 1462.98 -1.33335 -3.34505 0
M  V30 15790 C 1462.83 -2.87113 -3.46246 0
M  V30 15791 C 1464.15 -0.957435 -4.29559 0
M  V30 15792 H 1461.27 -0.296681 -0.674648 0
M  V30 15793 H 1463.91 -1.34203 -1.34497 0
M  V30 15794 H 1462.06 -0.883056 -3.78331 0
M  V30 15795 H 1463.73 -3.40502 -3.11217 0
M  V30 15796 H 1461.98 -3.24845 -2.87504 0
M  V30 15797 H 1462.65 -3.18618 -4.50762 0
M  V30 15798 H 1465.12 -1.3456 -3.93742 0
M  V30 15799 H 1464 -1.34897 -5.32066 0
M  V30 15800 H 1464.26 0.135689 -4.41892 0
M  V30 15801 N 1463.32 1.31536 -0.86811 0
M  V30 15802 C 1464.23 2.32326 -0.32588 0
M  V30 15803 C 1465.25 1.64632 0.563243 0
M  V30 15804 O 1466.42 1.96067 0.460403 0
M  V30 15805 C 1463.49 3.43562 0.46539 0
M  V30 15806 C 1462.55 4.26919 -0.451472 0
M  V30 15807 C 1461.78 5.32844 0.302129 0
M  V30 15808 O 1462 5.49485 1.53045 0
M  V30 15809 O 1460.94 6.00944 -0.339048 0
M  V30 15810 H 1464.76 2.80622 -1.16126 0
M  V30 15811 H 1462.35 1.35401 -0.631428 0
M  V30 15812 H 1464.23 4.11368 0.914028 0
M  V30 15813 H 1462.91 2.97432 1.27734 0
M  V30 15814 H 1461.81 3.61874 -0.948571 0
M  V30 15815 H 1463.15 4.7661 -1.22897 0
M  V30 15816 N 1464.8 0.627364 1.44575 0
M  V30 15817 C 1465.71 -0.0811184 2.3446 0
M  V30 15818 C 1466.72 -0.839668 1.52399 0
M  V30 15819 O 1467.9 -0.792784 1.8514 0
M  V30 15820 C 1464.96 -1.05296 3.30323 0
M  V30 15821 C 1464.03 -0.294201 4.28291 0
M  V30 15822 C 1463.26 -1.21975 5.19575 0
M  V30 15823 O 1463.48 -2.45834 5.14706 0
M  V30 15824 O 1462.42 -0.70611 5.97744 0
M  V30 15825 H 1466.24 0.658067 2.96485 0
M  V30 15826 H 1463.83 0.387565 1.44285 0
M  V30 15827 H 1465.71 -1.61218 3.89341 0
M  V30 15828 H 1464.38 -1.77283 2.70837 0
M  V30 15829 H 1463.29 0.307969 3.7283 0
M  V30 15830 H 1464.62 0.385567 4.90687 0
M  V30 15831 N 1466.28 -1.53251 0.367684 0
M  V30 15832 C 1467.22 -2.27318 -0.4929 0
M  V30 15833 C 1468.22 -1.30376 -1.08159 0
M  V30 15834 O 1469.42 -1.47996 -1.02455 0
M  V30 15835 H 1465.8 -0.730709 -0.177677 0
M  V30 15836 H 1467.77 -2.98005 0.153525 0
M  V30 15837 C 1466.52 -3.07678 -1.61955 0
M  V30 15838 H 1465.84 -3.82117 -1.17587 0
M  V30 15839 H 1467.28 -3.62678 -2.19638 0
M  V30 15840 C 1465.74 -2.18648 -2.5631 0
M  V30 15841 O 1466.27 -1.79869 -3.5918 0
M  V30 15842 N 1464.48 -1.83239 -2.25548 0
M  V30 15843 H 1464.02 -2.14973 -1.4193 0
M  V30 15844 H 1463.98 -1.23957 -2.88933 0
M  V30 15845 N 1467.75 -0.0969077 -1.57302 0
M  V30 15846 C 1469 0.567212 -1.94706 0
M  V30 15847 C 1469.33 1.67721 -0.978937 0
M  V30 15848 O 1468.61 1.94496 -0.0123016 0
M  V30 15849 C 1468.89 1.12069 -3.42217 0
M  V30 15850 C 1468.74 0.015615 -4.49797 0
M  V30 15851 C 1470.06 2.0185 -3.91081 0
M  V30 15852 H 1467.18 0.204716 -0.707997 0
M  V30 15853 H 1469.82 -0.167984 -1.89256 0
M  V30 15854 H 1467.97 1.74723 -3.46993 0
M  V30 15855 H 1469.65 -0.61871 -4.57132 0
M  V30 15856 H 1467.89 -0.650529 -4.28895 0
M  V30 15857 H 1468.56 0.443724 -5.50214 0
M  V30 15858 H 1471.04 1.49098 -3.8847 0
M  V30 15859 H 1469.91 2.37502 -4.94858 0
M  V30 15860 H 1470.17 2.93659 -3.3048 0
M  V30 15861 N 1469.23 1.56605 0.176793 0
M  V30 15862 C 1470.14 1.99211 1.23903 0
M  V30 15863 C 1471.16 0.902614 1.48758 0
M  V30 15864 O 1472.33 1.20982 1.61014 0
M  V30 15865 C 1469.4 2.33873 2.55938 0
M  V30 15866 C 1468.46 3.56624 2.38994 0
M  V30 15867 C 1467.69 3.89623 3.64733 0
M  V30 15868 O 1467.92 3.23662 4.6968 0
M  V30 15869 O 1466.85 4.82992 3.5917 0
M  V30 15870 H 1470.68 2.89827 0.907398 0
M  V30 15871 H 1468.26 1.44401 0.383234 0
M  V30 15872 H 1470.14 2.57161 3.33836 0
M  V30 15873 H 1468.82 1.46421 2.88691 0
M  V30 15874 H 1467.72 3.38561 1.59146 0
M  V30 15875 H 1469.06 4.446 2.11167 0
M  V30 15876 N 1470.71 -0.445159 1.51182 0
M  V30 15877 C 1471.62 -1.5651 1.74762 0
M  V30 15878 C 1472.64 -1.62134 0.631542 0
M  V30 15879 O 1473.81 -1.79522 0.912898 0
M  V30 15880 C 1470.88 -2.92552 1.86049 0
M  V30 15881 C 1469.94 -2.97108 3.0988 0
M  V30 15882 C 1469.17 -4.2666 3.2062 0
M  V30 15883 O 1469.39 -5.18608 2.37491 0
M  V30 15884 O 1468.33 -4.3734 4.13542 0
M  V30 15885 H 1472.15 -1.3953 2.6975 0
M  V30 15886 H 1469.74 -0.627363 1.3559 0
M  V30 15887 H 1471.62 -3.73304 1.95504 0
M  V30 15888 H 1470.3 -3.09676 0.94248 0
M  V30 15889 H 1469.2 -2.15338 3.05909 0
M  V30 15890 H 1470.54 -2.84927 4.01345 0
M  V30 15891 N 1472.19 -1.41197 -0.700089 0
M  V30 15892 C 1473.14 -1.42885 -1.83539 0
M  V30 15893 C 1474.13 -0.307431 -1.66587 0
M  V30 15894 O 1475.34 -0.479238 -1.73503 0
M  V30 15895 H 1471.71 -0.446973 -0.604747 0
M  V30 15896 H 1473.68 -2.38576 -1.79231 0
M  V30 15897 C 1472.43 -1.3235 -3.21526 0
M  V30 15898 H 1471.75 -2.17926 -3.35184 0
M  V30 15899 H 1473.19 -1.37592 -4.01054 0
M  V30 15900 C 1471.65 -0.0353528 -3.36881 0
M  V30 15901 O 1472.18 0.921676 -3.90983 0
M  V30 15902 N 1470.39 0.0392479 -2.90573 0
M  V30 15903 H 1469.94 -0.740299 -2.46733 0
M  V30 15904 H 1469.89 0.900559 -3.01226 0
M  V30 15905 N 1473.67 0.933891 -1.2695 0
M  V30 15906 C 1474.91 1.6834 -1.13091 0
M  V30 15907 C 1475.24 1.91484 0.32367 0
M  V30 15908 O 1474.52 1.50075 1.23724 0
M  V30 15909 C 1474.8 3.05374 -1.90838 0
M  V30 15910 C 1474.66 2.8951 -3.44244 0
M  V30 15911 C 1475.97 4.05607 -1.70795 0
M  V30 15912 H 1473.09 0.610944 -0.41221 0
M  V30 15913 H 1475.74 1.08416 -1.56032 0
M  V30 15914 H 1473.89 3.56526 -1.54343 0
M  V30 15915 H 1475.56 2.45523 -3.90533 0
M  V30 15916 H 1473.8 2.24981 -3.70899 0
M  V30 15917 H 1474.47 3.86734 -3.93879 0
M  V30 15918 H 1476.95 3.63443 -2.02604 0
M  V30 15919 H 1475.82 4.9949 -2.27597 0
M  V30 15920 H 1476.08 4.37231 -0.654327 0
M  V30 15921 N 1475.14 1.08871 1.13951 0
M  V30 15922 C 1476.05 0.734869 2.22793 0
M  V30 15923 C 1477.07 -0.260699 1.72036 0
M  V30 15924 O 1478.25 -0.103461 2.01134 0
M  V30 15925 C 1475.31 0.154599 3.46355 0
M  V30 15926 C 1474.37 1.20539 4.1203 0
M  V30 15927 C 1473.6 0.652712 5.29694 0
M  V30 15928 O 1473.83 -0.526264 5.67967 0
M  V30 15929 O 1472.76 1.40503 5.85271 0
M  V30 15930 H 1476.59 1.64297 2.55422 0
M  V30 15931 H 1474.17 0.862716 1.21974 0
M  V30 15932 H 1476.05 -0.165962 4.21073 0
M  V30 15933 H 1474.73 -0.726592 3.1544 0
M  V30 15934 H 1473.64 1.57855 3.39164 0
M  V30 15935 H 1474.97 2.05902 4.47063 0
M  V30 15936 N 1476.62 -1.31073 0.875073 0
M  V30 15937 C 1477.53 -2.3215 0.338196 0
M  V30 15938 C 1478.55 -1.64928 -0.554504 0
M  V30 15939 O 1479.72 -1.96308 -0.449998 0
M  V30 15940 C 1476.79 -3.43804 -0.447163 0
M  V30 15941 C 1475.85 -4.26674 0.474106 0
M  V30 15942 C 1475.08 -5.32997 -0.273867 0
M  V30 15943 O 1475.31 -5.50288 -1.50129 0
M  V30 15944 O 1474.24 -6.00756 0.370913 0
M  V30 15945 H 1478.07 -2.80002 1.17612 0
M  V30 15946 H 1475.65 -1.35064 0.6386 0
M  V30 15947 H 1477.53 -4.11847 -0.892199 0
M  V30 15948 H 1476.21 -2.98105 -1.26155 0
M  V30 15949 H 1475.11 -3.61366 0.967748 0
M  V30 15950 H 1476.45 -4.75952 1.25423 0
M  V30 15951 N 1478.1 -0.635022 -1.4424 0
M  V30 15952 C 1479.33 -0.148045 -2.06069 0
M  V30 15953 C 1479.74 1.1842 -1.47558 0
M  V30 15954 O 1479.08 1.73817 -0.594425 0
M  V30 15955 C 1479.14 0.0369593 -3.59481 0
M  V30 15956 C 1478.81 -1.21773 -4.40478 0
M  V30 15957 C 1479.8 -2.14233 -4.73709 0
M  V30 15958 C 1477.49 -1.45423 -4.80788 0
M  V30 15959 C 1479.48 -3.2865 -5.46139 0
M  V30 15960 C 1477.17 -2.60136 -5.52967 0
M  V30 15961 C 1478.17 -3.51576 -5.85562 0
M  V30 15962 O 1477.86 -4.64289 -6.5627 0
M  V30 15963 H 1477.59 -0.0787231 -0.671401 0
M  V30 15964 H 1480.14 -0.870639 -1.86035 0
M  V30 15965 H 1478.37 0.814739 -3.7802 0
M  V30 15966 H 1480.06 0.478984 -4.03064 0
M  V30 15967 H 1480.83 -1.97196 -4.43101 0
M  V30 15968 H 1476.71 -0.751378 -4.54835 0
M  V30 15969 H 1480.25 -4.00043 -5.71499 0
M  V30 15970 H 1476.15 -2.77114 -5.82991 0
M  V30 15971 H 1476.92 -4.6332 -6.74742 0
M  V30 15972 N 1479.58 1.53054 -0.375806 0
M  V30 15973 C 1480.86 1.93761 0.26757 0
M  V30 15974 C 1481.24 1.31019 1.65521 0
M  V30 15975 O 1480.58 0.473138 2.23548 0
M  V30 15976 C 1480.79 3.47643 0.307505 0
M  V30 15977 C 1482.14 4.21114 0.542951 0
M  V30 15978 O 1483.17 3.54077 0.388285 0
M  V30 15979 O 1482.02 5.39929 0.8449 0
M  V30 15980 H 1479.12 0.810805 0.16286 0
M  V30 15981 H 1481.66 1.64179 -0.429334 0
M  V30 15982 H 1480.44 3.85608 -0.665001 0
M  V30 15983 H 1480.06 3.83488 1.04988 0
M  V30 15984 N 1481.06 0.105248 1.57248 0
M  V30 15985 C 1481.97 -0.864007 2.1811 0
M  V30 15986 C 1482.98 -1.30282 1.15337 0
M  V30 15987 O 1484.16 -1.36864 1.4775 0
M  V30 15988 C 1481.22 -2.1014 2.75757 0
M  V30 15989 C 1480.28 -1.71583 3.9352 0
M  V30 15990 C 1479.52 -2.89424 4.48408 0
M  V30 15991 O 1479.74 -4.04449 4.02215 0
M  V30 15992 O 1478.67 -2.67303 5.39289 0
M  V30 15993 H 1482.5 -0.376131 3.01362 0
M  V30 15994 H 1480.09 -0.119643 1.4892 0
M  V30 15995 H 1481.97 -2.82638 3.1256 0
M  V30 15996 H 1480.64 -2.57961 1.95545 0
M  V30 15997 H 1479.55 -0.962347 3.6151 0
M  V30 15998 H 1480.88 -1.28517 4.75126 0
M  V30 15999 N 1482.53 -1.56697 -0.168486 0
M  V30 16000 C 1483.44 -1.99866 -1.22845 0
M  V30 16001 C 1484.46 -0.910491 -1.48277 0
M  V30 16002 O 1485.64 -1.21834 -1.6037 0
M  V30 16003 C 1482.7 -2.35227 -2.54694 0
M  V30 16004 C 1481.76 -3.57886 -2.37099 0
M  V30 16005 C 1481 -3.91551 -3.62661 0
M  V30 16006 O 1481.22 -3.26148 -4.67957 0
M  V30 16007 O 1480.15 -4.8489 -3.56603 0
M  V30 16008 H 1483.98 -2.90305 -0.892015 0
M  V30 16009 H 1481.56 -1.44602 -0.375571 0
M  V30 16010 H 1483.45 -2.58928 -3.32467 0
M  V30 16011 H 1482.12 -1.4795 -2.87911 0
M  V30 16012 H 1481.03 -3.394 -1.57348 0
M  V30 16013 H 1482.36 -4.45714 -2.08806 0
M  V30 16014 N 1484.01 0.437135 -1.51416 0
M  V30 16015 C 1484.96 1.55124 -1.73319 0
M  V30 16016 C 1485.95 1.58437 -0.599511 0
M  V30 16017 O 1487.16 1.62179 -0.780896 0
M  V30 16018 H 1483.54 0.515368 -0.547632 0
M  V30 16019 H 1485.51 1.33824 -2.66709 0
M  V30 16020 C 1484.26 2.92778 -1.87554 0
M  V30 16021 H 1483.58 2.9096 -2.74194 0
M  V30 16022 H 1485.02 3.70097 -2.06891 0
M  V30 16023 C 1483.48 3.30854 -0.635408 0
M  V30 16024 O 1484.01 4.01152 0.20983 0
M  V30 16025 N 1482.21 2.86618 -0.47944 0
M  V30 16026 H 1481.76 2.29582 -1.16834 0
M  V30 16027 H 1481.72 3.12456 0.349078 0
M  V30 16028 N 1485.49 1.41566 0.692592 0
M  V30 16029 C 1486.74 1.41292 1.4548 0
M  V30 16030 C 1487.07 0.0229093 1.94186 0
M  V30 16031 O 1486.34 -0.949849 1.6973 0
M  V30 16032 C 1486.63 2.42225 2.66457 0
M  V30 16033 C 1486.48 3.90345 2.23496 0
M  V30 16034 C 1487.8 2.40374 3.68658 0
M  V30 16035 H 1484.92 0.51453 0.527663 0
M  V30 16036 H 1487.56 1.72862 0.788598 0
M  V30 16037 H 1485.71 2.15435 3.23296 0
M  V30 16038 H 1487.38 4.2805 1.71962 0
M  V30 16039 H 1485.63 4.05068 1.55249 0
M  V30 16040 H 1486.3 4.56518 3.10314 0
M  V30 16041 H 1488.77 2.64156 3.21498 0
M  V30 16042 H 1487.65 3.13004 4.5091 0
M  V30 16043 H 1487.91 1.42338 4.1856 0
M  V30 16044 N 1486.97 -0.927146 1.27443 0
M  V30 16045 C 1487.88 -2.06122 1.12031 0
M  V30 16046 C 1488.89 -1.73928 0.0501979 0
M  V30 16047 O 1490.07 -1.99756 0.256796 0
M  V30 16048 C 1487.14 -3.3805 0.769634 0
M  V30 16049 C 1486.2 -3.83938 1.92068 0
M  V30 16050 C 1485.43 -5.0957 1.58664 0
M  V30 16051 O 1485.65 -5.6825 0.494789 0
M  V30 16052 O 1484.59 -5.50844 2.42599 0
M  V30 16053 H 1488.41 -2.22037 2.07203 0
M  V30 16054 H 1486 -1.04638 1.06636 0
M  V30 16055 H 1487.88 -4.17286 0.587423 0
M  V30 16056 H 1486.55 -3.2334 -0.152557 0
M  V30 16057 H 1485.46 -3.05587 2.15795 0
M  V30 16058 H 1486.79 -4.0319 2.8231 0
M  V30 16059 N 1488.45 -1.09474 -1.13372 0
M  V30 16060 C 1489.36 -0.746674 -2.224 0
M  V30 16061 C 1490.37 0.251572 -1.72172 0
M  V30 16062 O 1491.55 0.092793 -2.01186 0
M  V30 16063 C 1488.61 -0.172965 -3.46268 0
M  V30 16064 C 1487.67 -1.22722 -4.11385 0
M  V30 16065 C 1486.91 -0.680794 -5.2934 0
M  V30 16066 O 1487.13 0.496135 -5.68238 0
M  V30 16067 O 1486.06 -1.43605 -5.84518 0
M  V30 16068 H 1489.89 -1.65649 -2.54547 0
M  V30 16069 H 1487.48 -0.869172 -1.21514 0
M  V30 16070 H 1489.36 0.143629 -4.21155 0
M  V30 16071 H 1488.03 0.709853 -3.15821 0
M  V30 16072 H 1486.94 -1.59652 -3.38323 0
M  V30 16073 H 1488.27 -2.0827 -4.45965 0
M  V30 16074 N 1489.92 1.30607 -0.882012 0
M  V30 16075 C 1491.17 1.96547 -0.499703 0
M  V30 16076 C 1491.5 1.69484 0.948098 0
M  V30 16077 O 1490.78 0.997929 1.66948 0
M  V30 16078 C 1491.06 3.51735 -0.771662 0
M  V30 16079 C 1490.91 3.88326 -2.26987 0
M  V30 16080 C 1492.23 4.39411 -0.246178 0
M  V30 16081 H 1489.35 0.713912 -0.183026 0
M  V30 16082 H 1491.99 1.5453 -1.10546 0
M  V30 16083 H 1490.14 3.87655 -0.256092 0
M  V30 16084 H 1491.82 3.62444 -2.85362 0
M  V30 16085 H 1490.06 3.36501 -2.7377 0
M  V30 16086 H 1490.73 4.96574 -2.41078 0
M  V30 16087 H 1493.21 4.10382 -0.687419 0
M  V30 16088 H 1492.08 5.4692 -0.465817 0
M  V30 16089 H 1492.34 4.33804 0.852452 0
M  V30 16090 N 1491.4 0.642663 1.43901 0
M  V30 16091 C 1492.31 -0.0562462 2.34533 0
M  V30 16092 C 1493.33 -0.823457 1.53281 0
M  V30 16093 O 1494.5 -0.773103 1.85971 0
M  V30 16094 C 1491.57 -1.01787 3.31422 0
M  V30 16095 C 1490.63 -0.248759 4.28579 0
M  V30 16096 C 1489.86 -1.16458 5.20839 0
M  V30 16097 O 1490.09 -2.40361 5.17284 0
M  V30 16098 O 1489.02 -0.642671 5.98459 0
M  V30 16099 H 1492.85 0.689476 2.9577 0
M  V30 16100 H 1490.43 0.402847 1.43866 0
M  V30 16101 H 1492.31 -1.5708 3.91029 0
M  V30 16102 H 1490.99 -1.744 2.72702 0
M  V30 16103 H 1489.9 0.347495 3.72483 0
M  V30 16104 H 1491.23 0.437589 4.90251 0
M  V30 16105 N 1492.88 -1.52852 0.383918 0
M  V30 16106 C 1493.79 -2.3002 -0.461298 0
M  V30 16107 C 1494.81 -1.36717 -1.07631 0
M  V30 16108 O 1495.98 -1.69784 -1.08329 0
M  V30 16109 C 1493.05 -3.08804 -1.57609 0
M  V30 16110 C 1492.11 -4.17806 -0.986737 0
M  V30 16111 C 1491.34 -4.92825 -2.04841 0
M  V30 16112 O 1491.57 -4.67879 -3.26259 0
M  V30 16113 O 1490.5 -5.78306 -1.66871 0
M  V30 16114 H 1494.33 -3.03239 0.167189 0
M  V30 16115 H 1491.91 -1.48667 0.147781 0
M  V30 16116 H 1493.79 -3.57943 -2.22384 0
M  V30 16117 H 1492.47 -2.38404 -2.18964 0
M  V30 16118 H 1491.37 -3.72876 -0.302396 0
M  V30 16119 H 1492.71 -4.90426 -0.417481 0
M  V30 16120 N 1494.36 -0.113586 -1.5719 0
M  V30 16121 C 1495.31 0.855985 -2.16277 0
M  V30 16122 C 1496.3 1.2792 -1.11053 0
M  V30 16123 O 1497.51 1.25158 -1.29366 0
M  V30 16124 H 1493.88 0.294134 -0.692091 0
M  V30 16125 H 1495.85 0.333109 -2.96535 0
M  V30 16126 C 1494.6 2.09832 -2.77247 0
M  V30 16127 H 1493.93 1.78158 -3.5791 0
M  V30 16128 H 1495.37 2.7569 -3.22135 0
M  V30 16129 C 1493.82 2.88453 -1.74059 0
M  V30 16130 O 1494.35 3.83648 -1.19068 0
M  V30 16131 N 1492.56 2.52342 -1.44124 0
M  V30 16132 H 1492.11 1.74998 -1.89033 0
M  V30 16133 H 1492.07 3.05244 -0.753234 0
M  V30 16134 N 1495.84 1.56784 0.160173 0
M  V30 16135 C 1497.08 1.82891 0.876278 0
M  V30 16136 C 1497.42 0.693173 1.81408 0
M  V30 16137 O 1496.69 -0.304136 1.92107 0
M  V30 16138 C 1496.97 3.19439 1.66226 0
M  V30 16139 C 1496.83 4.43557 0.746831 0
M  V30 16140 C 1498.15 3.53053 2.62758 0
M  V30 16141 H 1495.27 0.665285 0.31712 0
M  V30 16142 H 1497.91 1.89469 0.142004 0
M  V30 16143 H 1496.06 3.13962 2.28823 0
M  V30 16144 H 1497.73 4.61109 0.132876 0
M  V30 16145 H 1495.97 4.33764 0.0555625 0
M  V30 16146 H 1496.64 5.35675 1.33253 0
M  V30 16147 H 1499.12 3.59054 2.10284 0
M  V30 16148 H 1498 4.4965 3.14811 0
M  V30 16149 H 1498.26 2.78329 3.4349 0
M  V30 16150 N 1497.32 -0.429099 1.51646 0
M  V30 16151 C 1498.23 -1.54648 1.76412 0
M  V30 16152 C 1499.24 -1.61455 0.648703 0
M  V30 16153 O 1500.42 -1.78544 0.931888 0
M  V30 16154 C 1497.48 -2.90562 1.89142 0
M  V30 16155 C 1496.54 -2.93804 3.13014 0
M  V30 16156 C 1495.78 -4.23235 3.25127 0
M  V30 16157 O 1496 -5.1606 2.42979 0
M  V30 16158 O 1494.93 -4.32929 4.18158 0
M  V30 16159 H 1498.76 -1.36661 2.71215 0
M  V30 16160 H 1496.34 -0.612946 1.36247 0
M  V30 16161 H 1498.23 -3.7121 1.99453 0
M  V30 16162 H 1496.9 -3.08659 0.975272 0
M  V30 16163 H 1495.81 -2.12082 3.08175 0
M  V30 16164 H 1497.14 -2.80654 4.04344 0
M  V30 16165 N 1498.79 -1.41931 -0.685074 0
M  V30 16166 C 1499.7 -1.46985 -1.82846 0
M  V30 16167 C 1500.72 -0.359487 -1.70246 0
M  V30 16168 O 1501.9 -0.608824 -1.91977 0
M  V30 16169 C 1498.96 -1.36001 -3.18912 0
M  V30 16170 C 1498.02 -2.57442 -3.43543 0
M  V30 16171 C 1497.25 -2.46972 -4.73118 0
M  V30 16172 O 1497.48 -1.49999 -5.50324 0
M  V30 16173 O 1496.41 -3.36922 -4.98766 0
M  V30 16174 H 1500.24 -2.4347 -1.81538 0
M  V30 16175 H 1497.82 -1.23583 -0.839497 0
M  V30 16176 H 1499.7 -1.32198 -4.00127 0
M  V30 16177 H 1498.38 -0.426366 -3.2088 0
M  V30 16178 H 1497.29 -2.66821 -2.62217 0
M  V30 16179 H 1498.62 -3.49671 -3.46398 0
M  V30 16180 N 1500.27 0.920374 -1.27933 0
M  V30 16181 C 1501.22 2.04331 -1.11138 0
M  V30 16182 C 1502.21 1.69369 -0.0324493 0
M  V30 16183 O 1503.42 1.78987 -0.190723 0
M  V30 16184 H 1499.79 0.669381 -0.342685 0
M  V30 16185 H 1501.77 2.15641 -2.06256 0
M  V30 16186 C 1500.51 3.38768 -0.783049 0
M  V30 16187 H 1499.84 3.6616 -1.60521 0
M  V30 16188 H 1501.28 4.1809 -0.705448 0
M  V30 16189 C 1499.74 3.32972 0.512927 0
M  V30 16190 O 1500.27 3.70792 1.54519 0
M  V30 16191 N 1498.47 2.86068 0.511232 0
M  V30 16192 H 1498.02 2.55487 -0.329229 0
M  V30 16193 H 1497.98 2.82573 1.3784 0
M  V30 16194 N 1501.75 1.10074 1.1279 0
M  V30 16195 C 1503 0.842118 1.84489 0
M  V30 16196 C 1503.33 -0.630737 1.83672 0
M  V30 16197 O 1502.6 -1.46481 1.27959 0
M  V30 16198 C 1502.89 1.3864 3.32342 0
M  V30 16199 C 1502.74 2.92585 3.41635 0
M  V30 16200 C 1504.06 1.02565 4.27982 0
M  V30 16201 H 1501.18 0.307376 0.669842 0
M  V30 16202 H 1503.82 1.36326 1.32345 0
M  V30 16203 H 1501.97 0.943134 3.76878 0
M  V30 16204 H 1503.64 3.4541 3.0576 0
M  V30 16205 H 1501.88 3.29378 2.82299 0
M  V30 16206 H 1502.56 3.25749 4.45636 0
M  V30 16207 H 1505.03 1.40807 3.91552 0
M  V30 16208 H 1503.91 1.43345 5.29852 0
M  V30 16209 H 1504.17 -0.0653712 4.42052 0
M  V30 16210 N 1503.23 -1.30138 0.888926 0
M  V30 16211 C 1504.14 -2.31778 0.3628 0
M  V30 16212 C 1505.15 -1.65507 -0.53698 0
M  V30 16213 O 1506.33 -1.96775 -0.429152 0
M  V30 16214 C 1503.39 -3.44259 -0.410673 0
M  V30 16215 C 1502.46 -4.26147 0.519334 0
M  V30 16216 C 1501.69 -5.33257 -0.21732 0
M  V30 16217 O 1501.91 -5.5185 -1.44284 0
M  V30 16218 O 1500.85 -6.00329 0.43461 0
M  V30 16219 H 1504.67 -2.78739 1.20575 0
M  V30 16220 H 1502.26 -1.34379 0.65289 0
M  V30 16221 H 1504.14 -4.1277 -0.848467 0
M  V30 16222 H 1502.81 -2.99426 -1.22986 0
M  V30 16223 H 1501.72 -3.60319 1.00602 0
M  V30 16224 H 1503.05 -4.74595 1.30464 0
M  V30 16225 N 1504.71 -0.650285 -1.43559 0
M  V30 16226 C 1505.62 0.0438076 -2.34559 0
M  V30 16227 C 1506.63 0.815316 -1.53716 0
M  V30 16228 O 1507.81 0.76323 -1.86378 0
M  V30 16229 C 1504.87 1.00028 -3.31957 0
M  V30 16230 C 1503.93 0.226027 -4.28705 0
M  V30 16231 C 1503.17 1.13694 -5.21449 0
M  V30 16232 O 1503.39 2.37614 -5.18551 0
M  V30 16233 O 1502.32 0.610924 -5.98792 0
M  V30 16234 H 1506.15 -0.705152 -2.954 0
M  V30 16235 H 1503.73 -0.410471 -1.43651 0
M  V30 16236 H 1505.62 1.55004 -3.91857 0
M  V30 16237 H 1504.29 1.72952 -2.73623 0
M  V30 16238 H 1503.2 -0.367244 -3.72293 0
M  V30 16239 H 1504.53 -0.463582 -4.90012 0
M  V30 16240 N 1506.18 1.52647 -0.392018 0
M  V30 16241 C 1507.13 2.28073 0.456674 0
M  V30 16242 C 1508.13 1.3208 1.06071 0
M  V30 16243 O 1509.33 1.49608 1.00088 0
M  V30 16244 H 1505.71 0.733443 0.166029 0
M  V30 16245 H 1507.68 2.97723 -0.200916 0
M  V30 16246 C 1506.43 3.10216 1.5704 0
M  V30 16247 H 1505.75 3.83939 1.11493 0
M  V30 16248 H 1507.19 3.66126 2.1384 0
M  V30 16249 C 1505.65 2.22698 2.52799 0
M  V30 16250 O 1506.18 1.8556 3.56273 0
M  V30 16251 N 1504.38 1.86804 2.22604 0
M  V30 16252 H 1503.93 2.17204 1.38492 0
M  V30 16253 H 1503.89 1.28538 2.86924 0
M  V30 16254 N 1507.66 0.121921 1.57128 0
M  V30 16255 C 1508.91 -0.536164 1.95584 0
M  V30 16256 C 1509.24 -1.66143 1.0055 0
M  V30 16257 O 1508.52 -1.94452 0.0432427 0
M  V30 16258 C 1508.8 -1.0661 3.43957 0
M  V30 16259 C 1508.65 0.0559458 4.49765 0
M  V30 16260 C 1509.97 -1.95603 3.94243 0
M  V30 16261 H 1507.09 -0.193427 0.711165 0
M  V30 16262 H 1509.73 0.198072 1.88965 0
M  V30 16263 H 1507.88 -1.69181 3.49729 0
M  V30 16264 H 1509.55 0.691357 4.5609 0
M  V30 16265 H 1507.8 0.71868 4.27805 0
M  V30 16266 H 1508.47 -0.356133 5.5085 0
M  V30 16267 H 1510.94 -1.42899 3.90793 0
M  V30 16268 H 1509.82 -2.29599 4.98573 0
M  V30 16269 H 1510.08 -2.88364 3.3511 0
M  V30 16270 N 1509.14 -1.56867 -0.151857 0
M  V30 16271 C 1510.05 -2.01157 -1.20718 0
M  V30 16272 C 1511.07 -0.926166 -1.47303 0
M  V30 16273 O 1512.24 -1.23528 -1.59069 0
M  V30 16274 C 1509.31 -2.37915 -2.52185 0
M  V30 16275 C 1508.37 -3.60381 -2.3329 0
M  V30 16276 C 1507.6 -3.95376 -3.58488 0
M  V30 16277 O 1507.82 -3.31093 -4.64471 0
M  V30 16278 O 1506.76 -4.88645 -3.5144 0
M  V30 16279 H 1510.58 -2.91234 -0.861175 0
M  V30 16280 H 1508.17 -1.44993 -0.360213 0
M  V30 16281 H 1510.05 -2.6244 -3.29702 0
M  V30 16282 H 1508.73 -1.50995 -2.86325 0
M  V30 16283 H 1507.63 -3.4105 -1.5374 0
M  V30 16284 H 1508.97 -4.47903 -2.04067 0
M  V30 16285 N 1510.62 0.421051 -1.51871 0
M  V30 16286 C 1511.53 1.5371 -1.7723 0
M  V30 16287 C 1512.54 1.61109 -0.657256 0
M  V30 16288 O 1513.72 1.78047 -0.941343 0
M  V30 16289 C 1510.79 2.89555 -1.9068 0
M  V30 16290 C 1509.85 2.9214 -3.14567 0
M  V30 16291 C 1509.08 4.21505 -3.27367 0
M  V30 16292 O 1509.3 5.14764 -2.45712 0
M  V30 16293 O 1508.24 4.30706 -4.20448 0
M  V30 16294 H 1512.06 1.35221 -2.71935 0
M  V30 16295 H 1509.65 0.605712 -1.3657 0
M  V30 16296 H 1511.53 3.70147 -2.01418 0
M  V30 16297 H 1510.2 3.08137 -0.991627 0
M  V30 16298 H 1509.11 2.10444 -3.09296 0
M  V30 16299 H 1510.44 2.78505 -4.05827 0
M  V30 16300 N 1512.1 1.42293 0.677538 0
M  V30 16301 C 1513.04 1.45787 1.81243 0
M  V30 16302 C 1514.04 0.333895 1.66077 0
M  V30 16303 O 1515.24 0.50678 1.72719 0
M  V30 16304 H 1511.62 0.456538 0.597559 0
M  V30 16305 H 1513.59 2.41398 1.75413 0
M  V30 16306 C 1512.34 1.37449 3.19379 0
M  V30 16307 H 1511.66 2.23231 3.31674 0
M  V30 16308 H 1513.1 1.43955 3.98814 0
M  V30 16309 C 1511.56 0.0889433 3.36783 0
M  V30 16310 O 1512.09 -0.859357 3.924 0
M  V30 16311 N 1510.3 0.00698476 2.90599 0
M  V30 16312 H 1509.84 0.779459 2.45524 0
M  V30 16313 H 1509.8 -0.852522 3.02621 0
M  V30 16314 N 1513.57 -0.913576 1.28419 0
M  V30 16315 C 1514.82 -1.66519 1.15755 0
M  V30 16316 C 1515.15 -1.91974 -0.293166 0
M  V30 16317 O 1514.43 -1.52025 -1.21321 0
M  V30 16318 C 1514.71 -3.02299 1.95672 0
M  V30 16319 C 1514.56 -2.83996 3.48807 0
M  V30 16320 C 1515.88 -4.02838 1.77226 0
M  V30 16321 H 1513 -0.604309 0.421877 0
M  V30 16322 H 1515.64 -1.05919 1.57737 0
M  V30 16323 H 1513.79 -3.54025 1.59995 0
M  V30 16324 H 1515.47 -2.39279 3.9439 0
M  V30 16325 H 1513.71 -2.19052 3.74431 0
M  V30 16326 H 1514.38 -3.80419 3.99982 0
M  V30 16327 H 1516.86 -3.60174 2.0836 0
M  V30 16328 H 1515.73 -4.95806 2.35515 0
M  V30 16329 H 1515.99 -4.36135 0.723804 0
M  V30 16330 N 1515.05 -1.1067 -1.12204 0
M  V30 16331 C 1515.96 -0.770221 -2.21596 0
M  V30 16332 C 1516.98 0.233297 -1.72429 0
M  V30 16333 O 1518.15 0.0714493 -2.01273 0
M  V30 16334 C 1515.22 -0.209682 -3.46065 0
M  V30 16335 C 1514.28 -1.27079 -4.1006 0
M  V30 16336 C 1513.51 -0.736899 -5.28588 0
M  V30 16337 O 1513.74 0.435838 -5.68732 0
M  V30 16338 O 1512.67 -1.49797 -5.82962 0
M  V30 16339 H 1516.5 -1.6834 -2.52776 0
M  V30 16340 H 1514.08 -0.882012 -1.20586 0
M  V30 16341 H 1515.96 0.0989516 -4.21284 0
M  V30 16342 H 1514.64 0.676316 -3.16556 0
M  V30 16343 H 1513.55 -1.63231 -3.3661 0
M  V30 16344 H 1514.88 -2.12989 -4.4373 0
M  V30 16345 N 1516.53 1.29665 -0.895815 0
M  V30 16346 C 1517.44 2.31582 -0.375086 0
M  V30 16347 C 1518.46 1.65789 0.528196 0
M  V30 16348 O 1519.63 1.96999 0.41871 0
M  V30 16349 C 1516.7 3.44472 0.39241 0
M  V30 16350 C 1515.76 4.25866 -0.541926 0
M  V30 16351 C 1514.99 5.33365 0.189037 0
M  V30 16352 O 1515.21 5.52607 1.41355 0
M  V30 16353 O 1514.15 6.0009 -0.466441 0
M  V30 16354 H 1517.97 2.78095 -1.22052 0
M  V30 16355 H 1515.56 1.34031 -0.660007 0
M  V30 16356 H 1517.44 4.13214 0.826565 0
M  V30 16357 H 1516.12 3.00074 1.21397 0
M  V30 16358 H 1515.02 3.59781 -1.02512 0
M  V30 16359 H 1516.36 4.73896 -1.32979 0
M  V30 16360 N 1518.01 0.657889 1.43212 0
M  V30 16361 C 1518.96 -0.0427288 2.32561 0
M  V30 16362 C 1519.95 -0.808236 1.48875 0
M  V30 16363 O 1521.16 -0.718109 1.65055 0
M  V30 16364 H 1517.53 -0.0326049 0.751293 0
M  V30 16365 H 1519.5 0.728503 2.89371 0
M  V30 16366 C 1518.25 -0.99216 3.33244 0
M  V30 16367 H 1517.57 -0.412542 3.97666 0
M  V30 16368 H 1519.01 -1.45138 3.98385 0
M  V30 16369 C 1517.47 -2.09044 2.64201 0
M  V30 16370 O 1518 -3.17481 2.46107 0
M  V30 16371 N 1516.21 -1.85732 2.23499 0
M  V30 16372 H 1515.76 -0.975483 2.38416 0
M  V30 16373 H 1515.71 -2.5941 1.77634 0
M  V30 16374 N 1519.49 -1.52437 0.400108 0
M  V30 16375 C 1520.73 -2.0201 -0.17887 0
M  V30 16376 C 1521.07 -1.2856 -1.45554 0
M  V30 16377 O 1520.34 -0.389236 -1.90565 0
M  V30 16378 C 1520.62 -3.57453 -0.435784 0
M  V30 16379 C 1520.48 -4.41562 0.85693 0
M  V30 16380 C 1521.8 -4.228 -1.2218 0
M  V30 16381 H 1518.91 -0.734256 -0.063535 0
M  V30 16382 H 1521.56 -1.82406 0.531801 0
M  V30 16383 H 1519.71 -3.74288 -1.04117 0
M  V30 16384 H 1521.38 -4.36456 1.49344 0
M  V30 16385 H 1519.62 -4.08138 1.46989 0
M  V30 16386 H 1520.29 -5.48374 0.631675 0
M  V30 16387 H 1522.77 -4.10009 -0.709359 0
M  V30 16388 H 1521.64 -5.3152 -1.37031 0
M  V30 16389 H 1521.91 -3.81153 -2.23998 0
M  V30 16390 N 1520.96 -0.130252 -1.57061 0
M  V30 16391 C 1521.87 0.829198 -2.19457 0
M  V30 16392 C 1522.89 1.2843 -1.17395 0
M  V30 16393 O 1524.07 1.34496 -1.49909 0
M  V30 16394 C 1521.13 2.05727 -2.79065 0
M  V30 16395 C 1520.19 1.65301 -3.962 0
M  V30 16396 C 1519.43 2.82253 -4.52956 0
M  V30 16397 O 1519.65 3.97999 -4.08598 0
M  V30 16398 O 1518.58 2.5869 -5.43473 0
M  V30 16399 H 1522.41 0.328139 -3.01922 0
M  V30 16400 H 1519.99 0.0959361 -1.49092 0
M  V30 16401 H 1521.88 2.7763 -3.17017 0
M  V30 16402 H 1520.55 2.54817 -1.99624 0
M  V30 16403 H 1519.46 0.904712 -3.62996 0
M  V30 16404 H 1520.79 1.20942 -4.7711 0
M  V30 16405 N 1522.44 1.56945 0.143535 0
M  V30 16406 C 1523.35 2.01795 1.1965 0
M  V30 16407 C 1524.37 0.933965 1.4681 0
M  V30 16408 O 1525.55 1.2437 1.58411 0
M  V30 16409 C 1522.61 2.39249 2.5092 0
M  V30 16410 C 1521.67 3.61613 2.31376 0
M  V30 16411 C 1520.9 3.97271 3.56386 0
M  V30 16412 O 1521.13 3.33552 4.62709 0
M  V30 16413 O 1520.06 4.90501 3.48844 0
M  V30 16414 H 1523.89 2.91687 0.845718 0
M  V30 16415 H 1521.47 1.45182 0.352518 0
M  V30 16416 H 1523.35 2.64184 3.28306 0
M  V30 16417 H 1522.03 1.52511 2.85521 0
M  V30 16418 H 1520.94 3.4186 1.51929 0
M  V30 16419 H 1522.27 4.48979 2.01689 0
M  V30 16420 N 1523.92 -0.412991 1.52093 0
M  V30 16421 C 1525.17 -1.16202 1.66208 0
M  V30 16422 C 1525.5 -1.90265 0.388957 0
M  V30 16423 O 1524.78 -1.84605 -0.612477 0
M  V30 16424 C 1525.06 -2.15958 2.88157 0
M  V30 16425 C 1524.91 -1.45817 4.25509 0
M  V30 16426 C 1526.23 -3.16671 3.05626 0
M  V30 16427 H 1523.35 -0.421083 0.604862 0
M  V30 16428 H 1525.99 -0.448212 1.84638 0
M  V30 16429 H 1524.14 -2.76831 2.72574 0
M  V30 16430 H 1525.81 -0.880925 4.52811 0
M  V30 16431 H 1524.06 -0.760175 4.27088 0
M  V30 16432 H 1524.73 -2.18587 5.06877 0
M  V30 16433 H 1527.2 -2.65871 3.20081 0
M  V30 16434 H 1526.08 -3.83739 3.92474 0
M  V30 16435 H 1526.34 -3.84178 2.18769 0
M  V30 16436 N 1525.4 -1.4265 -0.669982 0
M  V30 16437 C 1526.31 -1.48916 -1.81276 0
M  V30 16438 C 1527.33 -0.377523 -1.69855 0
M  V30 16439 O 1528.5 -0.629151 -1.91321 0
M  V30 16440 C 1525.57 -1.39376 -3.17451 0
M  V30 16441 C 1524.63 -2.61072 -3.40793 0
M  V30 16442 C 1523.86 -2.51976 -4.70472 0
M  V30 16443 O 1524.08 -1.55827 -5.48702 0
M  V30 16444 O 1523.02 -3.42193 -4.95164 0
M  V30 16445 H 1526.84 -2.45382 -1.78945 0
M  V30 16446 H 1524.43 -1.24467 -0.826342 0
M  V30 16447 H 1526.31 -1.36435 -3.98702 0
M  V30 16448 H 1524.99 -0.460376 -3.20409 0
M  V30 16449 H 1523.89 -2.69587 -2.59372 0
M  V30 16450 H 1525.23 -3.53325 -3.42669 0
M  V30 16451 N 1526.88 0.906753 -1.28902 0
M  V30 16452 C 1527.79 2.04313 -1.15296 0
M  V30 16453 C 1528.8 1.73826 -0.0778619 0
M  V30 16454 O 1529.98 1.99322 -0.288543 0
M  V30 16455 C 1527.04 3.36782 -0.823317 0
M  V30 16456 C 1526.11 3.80834 -1.98152 0
M  V30 16457 C 1525.34 5.06981 -1.66751 0
M  V30 16458 O 1525.56 5.67391 -0.58513 0
M  V30 16459 O 1524.5 5.46915 -2.51332 0
M  V30 16460 H 1528.32 2.18713 -2.10709 0
M  V30 16461 H 1525.91 1.02928 -1.08287 0
M  V30 16462 H 1527.79 4.16298 -0.653735 0
M  V30 16463 H 1526.46 3.23542 0.101097 0
M  V30 16464 H 1525.37 3.02115 -2.2063 0
M  V30 16465 H 1526.7 3.98648 -2.88688 0
M  V30 16466 N 1528.36 1.11264 1.11616 0
M  V30 16467 C 1529.3 0.764321 2.19684 0
M  V30 16468 C 1530.3 -0.243396 1.67642 0
M  V30 16469 O 1531.5 -0.102869 1.79706 0
M  V30 16470 H 1527.88 0.229275 0.716196 0
M  V30 16471 H 1529.85 1.68445 2.46311 0
M  V30 16472 C 1528.6 0.22175 3.46992 0
M  V30 16473 H 1527.92 0.988422 3.87389 0
M  V30 16474 H 1529.36 0.0161946 4.23997 0
M  V30 16475 C 1527.82 -1.04755 3.202 0
M  V30 16476 O 1528.35 -2.12758 3.4073 0
M  V30 16477 N 1526.56 -0.969608 2.73947 0
M  V30 16478 H 1526.1 -0.0906063 2.57441 0
M  V30 16479 H 1526.06 -1.81955 2.56397 0
M  V30 16480 N 1529.83 -1.29188 0.902679 0
M  V30 16481 C 1531.08 -1.95727 0.530909 0
M  V30 16482 C 1531.41 -1.70971 -0.921014 0
M  V30 16483 O 1530.69 -1.02436 -1.65339 0
M  V30 16484 C 1530.97 -3.50463 0.827523 0
M  V30 16485 C 1530.82 -3.84665 2.33137 0
M  V30 16486 C 1532.14 -4.38964 0.316053 0
M  V30 16487 H 1529.26 -0.71091 0.194361 0
M  V30 16488 H 1531.9 -1.52752 1.1299 0
M  V30 16489 H 1530.05 -3.87199 0.317732 0
M  V30 16490 H 1531.73 -3.57859 2.91093 0
M  V30 16491 H 1529.97 -3.32102 2.79088 0
M  V30 16492 H 1530.64 -4.92676 2.48947 0
M  V30 16493 H 1533.12 -4.09237 0.75262 0
M  V30 16494 H 1531.99 -5.4611 0.552769 0
M  V30 16495 H 1532.25 -4.35105 -0.783329 0
M  V30 16496 N 1531.31 -0.665475 -1.42861 0
M  V30 16497 C 1532.22 0.018927 -2.34592 0
M  V30 16498 C 1533.24 0.798967 -1.54572 0
M  V30 16499 O 1534.41 0.743419 -1.87177 0
M  V30 16500 C 1531.48 0.965013 -3.32999 0
M  V30 16501 C 1530.54 0.180544 -4.2892 0
M  V30 16502 C 1529.77 1.08157 -5.22626 0
M  V30 16503 O 1530 2.32101 -5.21043 0
M  V30 16504 O 1528.93 0.54738 -5.99406 0
M  V30 16505 H 1532.76 -0.736444 -2.94636 0
M  V30 16506 H 1530.34 -0.425684 -1.43207 0
M  V30 16507 H 1532.22 1.50839 -3.93479 0
M  V30 16508 H 1530.9 1.7004 -2.75442 0
M  V30 16509 H 1529.8 -0.40671 -3.71883 0
M  V30 16510 H 1531.14 -0.515529 -4.89493 0
M  V30 16511 N 1532.79 1.52222 -0.408187 0
M  V30 16512 C 1533.7 2.30725 0.424645 0
M  V30 16513 C 1534.72 1.38412 1.05442 0
M  V30 16514 O 1535.89 1.71486 1.05614 0
M  V30 16515 C 1532.96 3.11273 1.52677 0
M  V30 16516 C 1532.02 4.19323 0.920143 0
M  V30 16517 C 1531.25 4.96021 1.96974 0
M  V30 16518 O 1531.47 4.73011 3.18774 0
M  V30 16519 O 1530.41 5.80887 1.5765 0
M  V30 16520 H 1534.23 3.02935 -0.215411 0
M  V30 16521 H 1531.82 1.48413 -0.171414 0
M  V30 16522 H 1533.7 3.61436 2.16661 0
M  V30 16523 H 1532.38 2.41857 2.15144 0
M  V30 16524 H 1531.28 3.7331 0.243037 0
M  V30 16525 H 1532.62 4.91028 0.339405 0
M  V30 16526 N 1534.27 0.138579 1.5699 0
M  V30 16527 C 1535.22 -0.821469 2.17611 0
M  V30 16528 C 1536.21 -1.26137 1.13074 0
M  V30 16529 O 1537.42 -1.23084 1.31341 0
M  V30 16530 H 1533.79 -0.283086 0.696682 0
M  V30 16531 H 1535.76 -0.285891 2.97027 0
M  V30 16532 C 1534.51 -2.05395 2.8055 0
M  V30 16533 H 1533.83 -1.72442 3.60699 0
M  V30 16534 H 1535.27 -2.70531 3.2648 0
M  V30 16535 C 1533.73 -2.85647 1.78626 0
M  V30 16536 O 1534.26 -3.81705 1.25156 0
M  V30 16537 N 1532.47 -2.50018 1.4812 0
M  V30 16538 H 1532.02 -1.71969 1.91793 0
M  V30 16539 H 1531.97 -3.04007 0.8017 0
M  V30 16540 N 1535.75 -1.57019 -0.13521 0
M  V30 16541 C 1536.99 -1.84262 -0.847071 0
M  V30 16542 C 1537.32 -0.721946 -1.80282 0
M  V30 16543 O 1536.6 0.273535 -1.92567 0
M  V30 16544 C 1536.88 -3.22043 -1.61123 0
M  V30 16545 C 1536.74 -4.44689 -0.67617 0
M  V30 16546 C 1538.05 -3.57188 -2.57108 0
M  V30 16547 H 1535.17 -0.670246 -0.306496 0
M  V30 16548 H 1537.82 -1.89671 -0.111843 0
M  V30 16549 H 1535.97 -3.17563 -2.23799 0
M  V30 16550 H 1537.64 -4.61262 -0.0595009 0
M  V30 16551 H 1535.88 -4.33798 0.0134526 0
M  V30 16552 H 1536.55 -5.37727 -1.24714 0
M  V30 16553 H 1539.03 -3.62354 -2.04545 0
M  V30 16554 H 1537.9 -4.54602 -3.07617 0
M  V30 16555 H 1538.16 -2.83758 -3.39019 0
M  V30 16556 N 1537.22 0.404919 -1.52309 0
M  V30 16557 C 1538.13 1.51822 -1.7885 0
M  V30 16558 C 1539.15 1.60403 -0.674307 0
M  V30 16559 O 1540.33 1.77038 -0.960175 0
M  V30 16560 C 1537.39 2.87516 -1.9374 0
M  V30 16561 C 1536.45 2.88787 -3.17648 0
M  V30 16562 C 1535.69 4.18009 -3.31819 0
M  V30 16563 O 1535.91 5.12129 -2.51158 0
M  V30 16564 O 1534.84 4.26222 -4.24992 0
M  V30 16565 H 1538.67 1.32329 -2.73354 0
M  V30 16566 H 1536.25 0.591193 -1.37205 0
M  V30 16567 H 1538.14 3.6799 -2.05333 0
M  V30 16568 H 1536.81 3.07068 -1.02425 0
M  V30 16569 H 1535.72 2.07152 -3.11511 0
M  V30 16570 H 1537.05 2.74185 -4.08758 0
M  V30 16571 N 1538.7 1.43003 0.662408 0
M  V30 16572 C 1539.61 1.49876 1.80484 0
M  V30 16573 C 1540.63 0.386526 1.69653 0
M  V30 16574 O 1541.8 0.639289 1.90984 0
M  V30 16575 C 1538.87 1.41057 3.16708 0
M  V30 16576 C 1537.93 2.62875 3.39404 0
M  V30 16577 C 1537.16 2.54468 4.69129 0
M  V30 16578 O 1537.39 1.58735 5.47868 0
M  V30 16579 O 1536.32 3.44814 4.93343 0
M  V30 16580 H 1540.15 2.46327 1.77641 0
M  V30 16581 H 1537.73 1.24903 0.81973 0
M  V30 16582 H 1539.61 1.38547 3.97973 0
M  V30 16583 H 1538.29 0.477361 3.20161 0
M  V30 16584 H 1537.2 2.70958 2.57939 0
M  V30 16585 H 1538.53 3.55137 3.40791 0
M  V30 16586 N 1540.18 -0.899904 1.29381 0
M  V30 16587 C 1541.13 -2.02537 1.14375 0
M  V30 16588 C 1542.12 -1.69296 0.0593904 0
M  V30 16589 O 1543.33 -1.78661 0.219174 0
M  V30 16590 H 1539.7 -0.663844 0.353291 0
M  V30 16591 H 1541.67 -2.12332 2.0966 0
M  V30 16592 C 1540.42 -3.37479 0.836845 0
M  V30 16593 H 1539.75 -3.6356 1.66326 0
M  V30 16594 H 1541.19 -4.16915 0.771873 0
M  V30 16595 C 1539.65 -3.33746 -0.459889 0
M  V30 16596 O 1540.18 -3.73203 -1.48601 0
M  V30 16597 N 1538.38 -2.86845 -0.465657 0
M  V30 16598 H 1537.93 -2.54931 0.369833 0
M  V30 16599 H 1537.89 -2.8473 -1.33327 0
M  V30 16600 N 1541.66 -1.11854 -1.11024 0
M  V30 16601 C 1542.9 -0.871362 -1.83126 0
M  V30 16602 C 1543.24 0.601437 -1.84652 0
M  V30 16603 O 1542.51 1.44427 -1.30273 0
M  V30 16604 C 1542.8 -1.4391 -3.30094 0
M  V30 16605 C 1542.65 -2.97983 -3.36937 0
M  V30 16606 C 1543.97 -1.09361 -4.26296 0
M  V30 16607 H 1541.09 -0.317994 -0.664867 0
M  V30 16608 H 1543.73 -1.38414 -1.3016 0
M  V30 16609 H 1541.88 -1.00297 -3.7533 0
M  V30 16610 H 1543.55 -3.50231 -3.00227 0
M  V30 16611 H 1541.79 -3.33827 -2.77023 0
M  V30 16612 H 1542.46 -3.32797 -4.40398 0
M  V30 16613 H 1544.94 -1.47018 -3.89262 0
M  V30 16614 H 1543.82 -1.51756 -5.27505 0
M  V30 16615 H 1544.08 -0.0049637 -4.421 0
M  V30 16616 N 1543.14 1.28707 -0.909517 0
M  V30 16617 C 1544.05 2.31171 -0.399628 0
M  V30 16618 C 1545.06 1.6634 0.510582 0
M  V30 16619 O 1546.24 1.97432 0.397792 0
M  V30 16620 C 1543.3 3.44869 0.355852 0
M  V30 16621 C 1542.36 4.25267 -0.587065 0
M  V30 16622 C 1541.6 5.33536 0.132456 0
M  V30 16623 O 1541.82 5.54075 1.35486 0
M  V30 16624 O 1540.75 5.99561 -0.530062 0
M  V30 16625 H 1544.58 2.76785 -1.24995 0
M  V30 16626 H 1542.17 1.33323 -0.674186 0
M  V30 16627 H 1544.05 4.14068 0.782692 0
M  V30 16628 H 1542.72 3.01345 1.18207 0
M  V30 16629 H 1541.63 3.58673 -1.06322 0
M  V30 16630 H 1542.96 4.72459 -1.37998 0
M  V30 16631 N 1544.61 0.673042 1.42506 0
M  V30 16632 C 1545.52 -0.00648572 2.34599 0
M  V30 16633 C 1546.54 -0.790758 1.54994 0
M  V30 16634 O 1547.72 -0.733482 1.87569 0
M  V30 16635 C 1544.78 -0.94734 3.33506 0
M  V30 16636 C 1543.84 -0.157795 4.2901 0
M  V30 16637 C 1543.08 -1.05384 5.23192 0
M  V30 16638 O 1543.3 -2.29334 5.22266 0
M  V30 16639 O 1542.23 -0.515584 5.99688 0
M  V30 16640 H 1546.06 0.752059 2.94241 0
M  V30 16641 H 1543.64 0.433272 1.42979 0
M  V30 16642 H 1545.53 -1.4875 3.94273 0
M  V30 16643 H 1544.2 -1.68577 2.7634 0
M  V30 16644 H 1543.11 0.426426 3.71662 0
M  V30 16645 H 1544.44 0.54148 4.89212 0
M  V30 16646 N 1546.09 -1.52004 0.416254 0
M  V30 16647 C 1547.04 -2.28771 -0.420331 0
M  V30 16648 C 1548.03 -1.33751 -1.03957 0
M  V30 16649 O 1549.24 -1.51181 -0.976951 0
M  V30 16650 H 1545.62 -0.735991 -0.15434 0
M  V30 16651 H 1547.59 -2.97366 0.248255 0
M  V30 16652 C 1546.34 -3.12675 -1.52085 0
M  V30 16653 H 1545.66 -3.85665 -1.0537 0
M  V30 16654 H 1547.1 -3.69482 -2.07989 0
M  V30 16655 C 1545.56 -2.26692 -2.49224 0
M  V30 16656 O 1546.09 -1.91205 -3.53276 0
M  V30 16657 N 1544.29 -1.90322 -2.19604 0
M  V30 16658 H 1543.84 -2.1938 -1.35019 0
M  V30 16659 H 1543.8 -1.33086 -2.84843 0
M  V30 16660 N 1547.57 -0.146903 -1.56914 0
M  V30 16661 C 1548.82 0.504981 -1.96412 0
M  V30 16662 C 1549.15 1.64522 -1.0318 0
M  V30 16663 O 1548.42 1.94359 -0.0741728 0
M  V30 16664 C 1548.71 1.01125 -3.45609 0
M  V30 16665 C 1548.56 -0.127493 -4.49619 0
M  V30 16666 C 1549.88 1.89306 -3.97305 0
M  V30 16667 H 1547 0.182088 -0.714152 0
M  V30 16668 H 1549.64 -0.22811 -1.88626 0
M  V30 16669 H 1547.79 1.63595 -3.52376 0
M  V30 16670 H 1549.46 -0.763829 -4.54932 0
M  V30 16671 H 1547.71 -0.786649 -4.26608 0
M  V30 16672 H 1548.38 0.268453 -5.51347 0
M  V30 16673 H 1550.85 1.36664 -3.93017 0
M  V30 16674 H 1549.73 2.21638 -5.02163 0
M  V30 16675 H 1549.99 2.82996 -3.39655 0
M  V30 16676 N 1549.05 1.57088 0.126881 0
M  V30 16677 C 1549.96 2.03053 1.17502 0
M  V30 16678 C 1550.97 0.949484 1.45811 0
M  V30 16679 O 1552.15 1.26043 1.57083 0
M  V30 16680 C 1549.22 2.41897 2.48368 0
M  V30 16681 C 1548.28 3.64047 2.27527 0
M  V30 16682 C 1547.51 4.01029 3.52153 0
M  V30 16683 O 1547.73 3.38441 4.59145 0
M  V30 16684 O 1546.67 4.94174 3.43622 0
M  V30 16685 H 1550.49 2.92568 0.814733 0
M  V30 16686 H 1548.08 1.45547 0.3371 0
M  V30 16687 H 1549.96 2.67652 3.25485 0
M  V30 16688 H 1548.63 1.55531 2.83887 0
M  V30 16689 H 1547.54 3.43452 1.48294 0
M  V30 16690 H 1548.87 4.51093 1.96916 0
M  V30 16691 N 1550.53 -0.396836 1.52522 0
M  V30 16692 C 1551.44 -1.50871 1.79653 0
M  V30 16693 C 1552.45 -1.60043 0.682804 0
M  V30 16694 O 1553.63 -1.76527 0.96955 0
M  V30 16695 C 1550.69 -2.86485 1.95263 0
M  V30 16696 C 1549.75 -2.87099 3.19175 0
M  V30 16697 C 1548.99 -4.16244 3.34031 0
M  V30 16698 O 1549.21 -5.1079 2.5387 0
M  V30 16699 O 1548.14 -4.23962 4.27247 0
M  V30 16700 H 1551.97 -1.30878 2.74052 0
M  V30 16701 H 1549.56 -0.583908 1.37517 0
M  V30 16702 H 1551.44 -3.66895 2.07282 0
M  V30 16703 H 1550.11 -3.0652 1.04052 0
M  V30 16704 H 1549.02 -2.05497 3.12605 0
M  V30 16705 H 1550.35 -2.72014 4.10206 0
M  V30 16706 N 1552.01 -1.43353 -0.654814 0
M  V30 16707 C 1552.95 -1.48652 -1.789 0
M  V30 16708 C 1553.95 -0.360274 -1.65525 0
M  V30 16709 O 1555.15 -0.534194 -1.71891 0
M  V30 16710 H 1551.53 -0.465987 -0.590221 0
M  V30 16711 H 1553.5 -2.44158 -1.7155 0
M  V30 16712 C 1552.25 -1.42512 -3.17152 0
M  V30 16713 H 1551.57 -2.28479 -3.28081 0
M  V30 16714 H 1553.01 -1.50282 -3.96474 0
M  V30 16715 C 1551.47 -0.142511 -3.36598 0
M  V30 16716 O 1552 0.796821 -3.93718 0
M  V30 16717 N 1550.21 -0.0532157 -2.90551 0
M  V30 16718 H 1549.75 -0.818421 -2.44253 0
M  V30 16719 H 1549.71 0.80427 -3.03939 0
M  V30 16720 N 1553.48 0.89303 -1.29857 0
M  V30 16721 C 1554.73 1.64657 -1.18389 0
M  V30 16722 C 1555.06 1.92417 0.262587 0
M  V30 16723 O 1554.34 1.53936 1.18887 0
M  V30 16724 C 1554.62 2.99148 -2.00456 0
M  V30 16725 C 1554.47 2.78411 -3.53281 0
M  V30 16726 C 1555.79 3.99968 -1.83613 0
M  V30 16727 H 1552.91 0.59752 -0.431438 0
M  V30 16728 H 1555.55 1.03397 -1.59402 0
M  V30 16729 H 1553.7 3.51435 -1.65607 0
M  V30 16730 H 1555.38 2.32974 -3.98147 0
M  V30 16731 H 1553.62 2.13067 -3.77869 0
M  V30 16732 H 1554.29 3.74008 -4.05983 0
M  V30 16733 H 1556.77 3.56813 -2.14064 0
M  V30 16734 H 1555.64 4.91997 -2.43373 0
M  V30 16735 H 1555.9 4.34928 -0.793098 0
M  V30 16736 N 1554.96 1.12442 1.10429 0
M  V30 16737 C 1555.87 0.805377 2.20343 0
M  V30 16738 C 1556.89 -0.205836 1.72778 0
M  V30 16739 O 1558.06 -0.0394195 2.01361 0
M  V30 16740 C 1555.13 0.264711 3.45688 0
M  V30 16741 C 1554.19 1.33586 4.07987 0
M  V30 16742 C 1553.42 0.8209 5.27349 0
M  V30 16743 O 1553.65 -0.345303 5.69354 0
M  V30 16744 O 1552.58 1.59052 5.80505 0
M  V30 16745 H 1556.41 1.7234 2.50065 0
M  V30 16746 H 1553.99 0.901084 1.19167 0
M  V30 16747 H 1555.87 -0.0319164 4.21388 0
M  V30 16748 H 1554.55 -0.625869 3.17592 0
M  V30 16749 H 1553.45 1.68566 3.33971 0
M  V30 16750 H 1554.79 2.20021 4.40286 0
M  V30 16751 N 1556.44 -1.28223 0.91633 0
M  V30 16752 C 1557.35 -2.30956 0.411882 0
M  V30 16753 C 1558.37 -1.66609 -0.501753 0
M  V30 16754 O 1559.54 -1.97641 -0.387317 0
M  V30 16755 C 1556.61 -3.45053 -0.337558 0
M  V30 16756 C 1555.67 -4.2495 0.609609 0
M  V30 16757 C 1554.9 -5.33598 -0.104159 0
M  V30 16758 O 1555.12 -5.54786 -1.32546 0
M  V30 16759 O 1554.06 -5.99272 0.561851 0
M  V30 16760 H 1557.88 -2.76118 1.26461 0
M  V30 16761 H 1555.47 -1.32964 0.681246 0
M  V30 16762 H 1557.35 -4.14477 -0.760722 0
M  V30 16763 H 1556.03 -3.01968 -1.16607 0
M  V30 16764 H 1554.93 -3.58104 1.08222 0
M  V30 16765 H 1556.27 -4.7172 1.40502 0
M  V30 16766 N 1557.92 -0.68059 -1.42147 0
M  V30 16767 C 1558.87 0.00572503 -2.32599 0
M  V30 16768 C 1559.86 0.784449 -1.50142 0
M  V30 16769 O 1561.07 0.69176 -1.66177 0
M  V30 16770 H 1557.44 0.0206483 -0.751716 0
M  V30 16771 H 1559.41 -0.774447 -2.88175 0
M  V30 16772 C 1558.16 0.939019 -3.3478 0
M  V30 16773 H 1557.48 0.349225 -3.98272 0
M  V30 16774 H 1558.92 1.38782 -4.00644 0
M  V30 16775 C 1557.38 2.04814 -2.67493 0
M  V30 16776 O 1557.91 3.13526 -2.51126 0
M  V30 16777 N 1556.12 1.82153 -2.26426 0
M  V30 16778 H 1555.67 0.93743 -2.39938 0
M  V30 16779 H 1555.62 2.56551 -1.81738 0
M  V30 16780 N 1559.4 1.51781 -0.424309 0
M  V30 16781 C 1560.64 2.02269 0.146709 0
M  V30 16782 C 1560.97 1.30859 1.4349 0
M  V30 16783 O 1560.25 0.419504 1.89922 0
M  V30 16784 C 1560.53 3.58101 0.378861 0
M  V30 16785 C 1560.39 4.40143 -0.92707 0
M  V30 16786 C 1561.7 4.2469 1.15438 0
M  V30 16787 H 1558.82 0.735174 0.0518456 0
M  V30 16788 H 1561.47 1.81537 -0.560753 0
M  V30 16789 H 1559.62 3.75897 0.981496 0
M  V30 16790 H 1561.29 4.34025 -1.56268 0
M  V30 16791 H 1559.53 4.05748 -1.53464 0
M  V30 16792 H 1560.2 5.47299 -0.718837 0
M  V30 16793 H 1562.68 4.11086 0.644041 0
M  V30 16794 H 1561.55 5.33633 1.28557 0
M  V30 16795 H 1561.81 3.84668 2.17905 0
M  V30 16796 N 1560.87 0.155222 1.56834 0
M  V30 16797 C 1561.78 -0.794179 2.20749 0
M  V30 16798 C 1562.8 -1.26546 1.19424 0
M  V30 16799 O 1563.98 -1.32094 1.5203 0
M  V30 16800 C 1561.04 -2.01261 2.82303 0
M  V30 16801 C 1560.1 -1.58976 3.98779 0
M  V30 16802 C 1559.33 -2.75011 4.57389 0
M  V30 16803 O 1559.56 -3.91449 4.14879 0
M  V30 16804 O 1558.49 -2.50011 5.4752 0
M  V30 16805 H 1562.32 -0.280064 3.02406 0
M  V30 16806 H 1559.9 -0.0722048 1.49225 0
M  V30 16807 H 1561.78 -2.72551 3.21394 0
M  V30 16808 H 1560.46 -2.51609 2.03653 0
M  V30 16809 H 1559.37 -0.846848 3.64389 0
M  V30 16810 H 1560.7 -1.13336 4.78974 0
M  V30 16811 N 1562.35 -1.57153 -0.118549 0
M  V30 16812 C 1563.26 -2.03673 -1.16424 0
M  V30 16813 C 1564.28 -0.957203 -1.45305 0
M  V30 16814 O 1565.45 -1.26874 -1.56413 0
M  V30 16815 C 1562.52 -2.43211 -2.47082 0
M  V30 16816 C 1561.58 -3.65248 -2.25593 0
M  V30 16817 C 1560.81 -4.02891 -3.50021 0
M  V30 16818 O 1561.04 -3.40871 -4.57344 0
M  V30 16819 O 1559.97 -4.95989 -3.40996 0
M  V30 16820 H 1563.8 -2.92996 -0.799206 0
M  V30 16821 H 1561.38 -1.45724 -0.329376 0
M  V30 16822 H 1563.26 -2.69374 -3.24061 0
M  V30 16823 H 1561.94 -1.57034 -2.83058 0
M  V30 16824 H 1560.84 -3.44234 -1.46471 0
M  V30 16825 H 1562.18 -4.52131 -1.94521 0
M  V30 16826 N 1563.83 0.388742 -1.5273 0
M  V30 16827 C 1565.06 1.15328 -1.71415 0
M  V30 16828 C 1565.47 1.84193 -0.432366 0
M  V30 16829 O 1564.81 1.73522 0.602977 0
M  V30 16830 C 1564.87 2.24436 -2.80836 0
M  V30 16831 C 1564.54 1.75535 -4.21944 0
M  V30 16832 C 1565.53 1.23196 -5.05093 0
M  V30 16833 C 1563.22 1.8175 -4.68265 0
M  V30 16834 C 1565.21 0.777194 -6.32644 0
M  V30 16835 C 1562.9 1.35885 -5.95801 0
M  V30 16836 C 1563.9 0.839573 -6.7782 0
M  V30 16837 O 1563.59 0.387619 -8.02965 0
M  V30 16838 H 1563.32 0.351742 -0.577281 0
M  V30 16839 H 1565.87 0.460735 -2.00166 0
M  V30 16840 H 1564.1 2.97115 -2.47506 0
M  V30 16841 H 1565.79 2.86106 -2.87921 0
M  V30 16842 H 1566.56 1.17751 -4.70489 0
M  V30 16843 H 1562.44 2.21111 -4.04513 0
M  V30 16844 H 1565.98 0.371199 -6.96612 0
M  V30 16845 H 1561.88 1.41016 -6.29909 0
M  V30 16846 H 1562.64 0.509073 -8.16915 0
M  V30 16847 N 1565.31 1.43698 0.647203 0
M  V30 16848 C 1566.58 1.3611 1.40476 0
M  V30 16849 C 1566.96 0.0118567 2.11097 0
M  V30 16850 O 1566.31 -1.00496 2.05214 0
M  V30 16851 C 1566.52 2.5484 2.38448 0
M  V30 16852 C 1567.87 2.98195 3.02267 0
M  V30 16853 O 1568.89 2.5493 2.48775 0
M  V30 16854 O 1567.75 3.73162 3.99265 0
M  V30 16855 H 1564.85 0.538198 0.62791 0
M  V30 16856 H 1567.39 1.55758 0.673606 0
M  V30 16857 H 1566.17 3.4467 1.85253 0
M  V30 16858 H 1565.79 2.37323 3.19004 0
M  V30 16859 N 1566.79 -0.886131 1.30328 0
M  V30 16860 C 1567.7 -2.02453 1.18532 0
M  V30 16861 C 1568.71 -1.7368 0.105506 0
M  V30 16862 O 1569.89 -1.98838 0.320217 0
M  V30 16863 C 1566.95 -3.3543 0.876792 0
M  V30 16864 C 1566.01 -3.77633 2.04185 0
M  V30 16865 C 1565.25 -5.04264 1.74795 0
M  V30 16866 O 1565.47 -5.66388 0.675323 0
M  V30 16867 O 1564.4 -5.42847 2.60001 0
M  V30 16868 H 1568.23 -2.15333 2.14162 0
M  V30 16869 H 1565.82 -1.01193 1.09911 0
M  V30 16870 H 1567.7 -4.15206 0.719882 0
M  V30 16871 H 1566.37 -3.23662 -0.0496117 0
M  V30 16872 H 1565.28 -2.98567 2.25408 0
M  V30 16873 H 1566.61 -3.94004 2.94994 0
M  V30 16874 N 1568.26 -1.13026 -1.09832 0
M  V30 16875 C 1569.17 -0.817051 -2.19912 0
M  V30 16876 C 1570.19 0.19667 -1.72885 0
M  V30 16877 O 1571.37 0.0287402 -2.01379 0
M  V30 16878 C 1568.43 -0.28304 -3.45543 0
M  V30 16879 C 1567.49 -1.35748 -4.07273 0
M  V30 16880 C 1566.73 -0.848855 -5.26906 0
M  V30 16881 O 1566.95 0.315104 -5.69529 0
M  V30 16882 O 1565.88 -1.62128 -5.79653 0
M  V30 16883 H 1569.71 -1.73663 -2.49148 0
M  V30 16884 H 1567.29 -0.907391 -1.18688 0
M  V30 16885 H 1569.18 0.00956876 -4.21399 0
M  V30 16886 H 1567.85 0.609018 -3.17919 0
M  V30 16887 H 1566.76 -1.70334 -3.33072 0
M  V30 16888 H 1568.09 -2.22353 -4.39113 0
M  V30 16889 N 1569.74 1.27735 -0.923117 0
M  V30 16890 C 1570.69 2.28975 -0.409065 0
M  V30 16891 C 1571.68 1.61723 0.504194 0
M  V30 16892 O 1572.89 1.75848 0.384402 0
M  V30 16893 H 1569.27 0.743354 -0.113705 0
M  V30 16894 H 1571.24 2.69751 -1.27582 0
M  V30 16895 C 1569.99 3.46158 0.327099 0
M  V30 16896 H 1569.31 3.98117 -0.366444 0
M  V30 16897 H 1570.75 4.18968 0.65128 0
M  V30 16898 C 1569.21 2.99724 1.53842 0
M  V30 16899 O 1569.74 3.03001 2.6373 0
M  V30 16900 N 1567.94 2.55274 1.38865 0
M  V30 16901 H 1567.49 2.52807 0.494629 0
M  V30 16902 H 1567.45 2.24567 2.20039 0
M  V30 16903 N 1571.22 0.688118 1.41784 0
M  V30 16904 C 1572.47 0.216263 2.01644 0
M  V30 16905 C 1572.8 -1.17861 1.54345 0
M  V30 16906 O 1572.07 -1.794 0.751392 0
M  V30 16907 C 1572.36 0.265663 3.59119 0
M  V30 16908 C 1572.21 1.69694 4.16562 0
M  V30 16909 C 1573.53 -0.378713 4.38468 0
M  V30 16910 H 1570.65 0.0800582 0.732639 0
M  V30 16911 H 1573.29 0.875428 1.68631 0
M  V30 16912 H 1571.44 -0.295588 3.87374 0
M  V30 16913 H 1573.11 2.31146 3.9921 0
M  V30 16914 H 1571.36 2.23345 3.71886 0
M  V30 16915 H 1572.03 1.68309 5.25715 0
M  V30 16916 H 1574.5 0.0991969 4.15982 0
M  V30 16917 H 1573.38 -0.31357 5.48004 0
M  V30 16918 H 1573.64 -1.45832 4.17355 0
M  V30 16919 N 1572.7 -1.51554 0.432352 0
M  V30 16920 C 1573.61 -2.31371 -0.387885 0
M  V30 16921 C 1574.62 -1.40072 -1.03227 0
M  V30 16922 O 1575.8 -1.73145 -1.02873 0
M  V30 16923 C 1572.87 -3.13662 -1.47705 0
M  V30 16924 C 1571.93 -4.20734 -0.853315 0
M  V30 16925 C 1571.16 -4.99092 -1.89058 0
M  V30 16926 O 1571.38 -4.78022 -3.11209 0
M  V30 16927 O 1570.32 -5.83322 -1.48389 0
M  V30 16928 H 1574.14 -3.02554 0.263578 0
M  V30 16929 H 1571.73 -1.48122 0.195004 0
M  V30 16930 H 1573.61 -3.64837 -2.10884 0
M  V30 16931 H 1572.28 -2.45249 -2.11269 0
M  V30 16932 H 1571.19 -3.73649 -0.183616 0
M  V30 16933 H 1572.52 -4.91506 -0.261244 0
M  V30 16934 N 1574.18 -0.163538 -1.56749 0
M  V30 16935 C 1575.09 0.782461 -2.21167 0
M  V30 16936 C 1576.1 1.25911 -1.20093 0
M  V30 16937 O 1577.28 1.31286 -1.52728 0
M  V30 16938 C 1574.34 1.99761 -2.83366 0
M  V30 16939 C 1573.4 1.56859 -3.99617 0
M  V30 16940 C 1572.64 2.72582 -4.58841 0
M  V30 16941 O 1572.86 3.89243 -4.16949 0
M  V30 16942 O 1571.79 2.47104 -5.48838 0
M  V30 16943 H 1575.62 0.264023 -3.0255 0
M  V30 16944 H 1573.21 0.06429 -1.49262 0
M  V30 16945 H 1575.09 2.70843 -3.22835 0
M  V30 16946 H 1573.76 2.50526 -2.04984 0
M  V30 16947 H 1572.67 0.827511 -3.64833 0
M  V30 16948 H 1574 1.10794 -4.79568 0
M  V30 16949 N 1575.65 1.57214 0.110213 0
M  V30 16950 C 1576.6 1.97409 1.14077 0
M  V30 16951 C 1577.59 0.850322 1.36596 0
M  V30 16952 O 1578.78 1.11407 1.3754 0
M  V30 16953 C 1575.91 2.38936 2.46505 0
M  V30 16954 C 1575 3.57965 2.27424 0
M  V30 16955 N 1575.39 4.73379 1.78175 0
M  V30 16956 C 1573.68 3.63768 2.58048 0
M  V30 16957 C 1574.39 5.55376 1.73009 0
M  V30 16958 N 1573.36 4.98115 2.17675 0
M  V30 16959 H 1577.16 2.84098 0.752688 0
M  V30 16960 H 1574.68 1.59259 0.317845 0
M  V30 16961 H 1576.67 2.65953 3.21052 0
M  V30 16962 H 1575.33 1.53616 2.86063 0
M  V30 16963 H 1576.35 4.96424 1.47593 0
M  V30 16964 H 1573.02 2.89076 3.01233 0
M  V30 16965 H 1574.41 6.57969 1.36112 0
M  V30 16966 N 1577.13 -0.380637 1.52934 0
M  V30 16967 C 1578.08 -1.48584 1.78957 0
M  V30 16968 C 1579.07 -1.56103 0.657901 0
M  V30 16969 O 1580.28 -1.59169 0.84055 0
M  V30 16970 H 1576.66 -0.494687 0.566382 0
M  V30 16971 H 1578.63 -1.23833 2.71492 0
M  V30 16972 C 1577.38 -2.85615 1.98291 0
M  V30 16973 H 1576.7 -2.80583 2.84804 0
M  V30 16974 H 1578.14 -3.62164 2.20485 0
M  V30 16975 C 1576.6 -3.28267 0.757764 0
M  V30 16976 O 1577.13 -4.01654 -0.0608007 0
M  V30 16977 N 1575.33 -2.84641 0.585486 0
M  V30 16978 H 1574.88 -2.25087 1.25274 0
M  V30 16979 H 1574.84 -3.13536 -0.232871 0
M  V30 16980 N 1578.61 -1.44039 -0.639573 0
M  V30 16981 C 1579.52 -1.52728 -1.78077 0
M  V30 16982 C 1580.54 -0.413467 -1.69016 0
M  V30 16983 O 1581.71 -0.669592 -1.89943 0
M  V30 16984 C 1578.78 -1.46078 -3.14424 0
M  V30 16985 C 1577.84 -2.68242 -3.35179 0
M  V30 16986 C 1577.07 -2.61899 -4.65021 0
M  V30 16987 O 1577.29 -1.67431 -5.45273 0
M  V30 16988 O 1576.23 -3.52619 -4.87795 0
M  V30 16989 H 1580.05 -2.49122 -1.737 0
M  V30 16990 H 1577.64 -1.26191 -0.799755 0
M  V30 16991 H 1579.52 -1.44861 -3.95719 0
M  V30 16992 H 1578.2 -0.528236 -3.19361 0
M  V30 16993 H 1577.1 -2.75028 -2.53595 0
M  V30 16994 H 1578.44 -3.60514 -3.35098 0
M  V30 16995 N 1580.09 0.879207 -1.30796 0
M  V30 16996 C 1581 2.01822 -1.19604 0
M  V30 16997 C 1582.01 1.73621 -0.114715 0
M  V30 16998 O 1583.19 1.98665 -0.330757 0
M  V30 16999 C 1580.26 3.3496 -0.894569 0
M  V30 17000 C 1579.32 3.76545 -2.06185 0
M  V30 17001 C 1578.55 5.0333 -1.77467 0
M  V30 17002 O 1578.77 5.66022 -0.70535 0
M  V30 17003 O 1577.71 5.41461 -2.62876 0
M  V30 17004 H 1581.53 2.14194 -2.15301 0
M  V30 17005 H 1579.12 1.00608 -1.10446 0
M  V30 17006 H 1581 4.14818 -0.741891 0
M  V30 17007 H 1579.67 3.23684 0.0324464 0
M  V30 17008 H 1578.58 2.97367 -2.26988 0
M  V30 17009 H 1579.91 3.92434 -2.97079 0
M  V30 17010 N 1581.57 1.13606 1.09231 0
M  V30 17011 C 1582.8 0.920958 1.84938 0
M  V30 17012 C 1583.21 -0.533706 1.81516 0
M  V30 17013 O 1582.55 -1.38127 1.21105 0
M  V30 17014 C 1582.61 1.33357 3.33851 0
M  V30 17015 C 1582.27 2.80206 3.61017 0
M  V30 17016 C 1583.27 3.78356 3.56571 0
M  V30 17017 C 1580.96 3.17415 3.89298 0
M  V30 17018 C 1582.95 5.11726 3.8002 0
M  V30 17019 C 1580.64 4.50963 4.12402 0
M  V30 17020 C 1581.64 5.47928 4.07755 0
M  V30 17021 O 1581.32 6.79066 4.3026 0
M  V30 17022 H 1581.06 0.328256 0.590952 0
M  V30 17023 H 1583.61 1.51298 1.38917 0
M  V30 17024 H 1581.84 0.684821 3.80588 0
M  V30 17025 H 1583.53 1.09061 3.90974 0
M  V30 17026 H 1584.29 3.50956 3.34746 0
M  V30 17027 H 1580.17 2.42542 3.92039 0
M  V30 17028 H 1583.72 5.87399 3.76309 0
M  V30 17029 H 1579.61 4.78088 4.33708 0
M  V30 17030 H 1580.38 6.85199 4.47711 0
M  V30 17031 N 1583.05 -1.27244 0.929878 0
M  V30 17032 C 1584.32 -1.89369 0.489774 0
M  V30 17033 C 1584.7 -1.84142 -1.03222 0
M  V30 17034 O 1584.05 -1.2881 -1.88733 0
M  V30 17035 C 1584.26 -3.33196 1.03833 0
M  V30 17036 C 1585.61 -4.101 1.10013 0
M  V30 17037 O 1586.63 -3.42221 0.988106 0
M  V30 17038 O 1585.49 -5.31468 1.27296 0
M  V30 17039 H 1582.59 -0.811789 0.157882 0
M  V30 17040 H 1585.13 -1.35496 1.02171 0
M  V30 17041 H 1583.9 -3.31304 2.08214 0
M  V30 17042 H 1583.53 -3.94592 0.488167 0
M  V30 17043 N 1584.52 -0.695628 -1.41417 0
M  V30 17044 C 1585.43 -0.0308378 -2.3458 0
M  V30 17045 C 1586.45 0.766 -1.56232 0
M  V30 17046 O 1587.63 0.703548 -1.88712 0
M  V30 17047 C 1584.69 0.894162 -3.34971 0
M  V30 17048 C 1583.75 0.0895231 -4.29207 0
M  V30 17049 C 1582.98 0.970467 -5.24802 0
M  V30 17050 O 1583.21 2.20997 -5.25848 0
M  V30 17051 O 1582.14 0.420114 -6.00432 0
M  V30 17052 H 1585.97 -0.798775 -2.93007 0
M  V30 17053 H 1583.55 -0.455964 -1.42272 0
M  V30 17054 H 1585.43 1.42458 -3.9659 0
M  V30 17055 H 1584.11 1.64159 -2.78987 0
M  V30 17056 H 1583.02 -0.4855 -3.70936 0
M  V30 17057 H 1584.35 -0.619241 -4.88289 0
M  V30 17058 O 1586.04 1.50633 -0.582415 0
M  V30 17059 H 1586.73 1.93504 -0.0870225 0
M  V30 END ATOM
M  V30 BEGIN BOND
M  V30 END BOND
M  V30 END CTAB
M  END
$$$$
