drugbank_target|P13981 Arginine deiminase (DB04671)
 OpenBabel12092120303D

  0  0  0     0  0            999 V3000
M  V30 BEGIN CTAB
M  V30 COUNTS 6507 6577 0 0 0
M  V30 BEGIN ATOM
M  V30 1 H -0.908 1.98254 -0.117106 0
M  V30 2 N 0 1.576 0 0
M  V30 3 C 0.933 2.03868 1.02534 0
M  V30 4 C 1.911 0.928543 1.3348 0
M  V30 5 O 3.095 1.19667 1.45644 0
M  V30 6 C 0.222 2.43627 2.35294 0
M  V30 7 C -0.732 3.65373 2.2001 0
M  V30 8 S 0.101 5.13292 1.52614 0
M  V30 9 C 1.257 5.56322 2.86805 0
M  V30 10 H 1.49 2.90518 0.631377 0
M  V30 11 H -0.977 1.52953 0.210867 0
M  V30 12 H 0.981 2.67203 3.11629 0
M  V30 13 H -0.358 1.57376 2.7183 0
M  V30 14 H -1.165 3.90944 3.18086 0
M  V30 15 H -1.563 3.418 1.51819 0
M  V30 16 H 0.729 5.58782 3.83104 0
M  V30 17 H 1.672 6.56266 2.65933 0
M  V30 18 H 2.08 4.83886 2.90714 0
M  V30 19 N 1.4781 -0.272755 1.55222 0
M  V30 20 C 2.7031 -1.02683 1.80197 0
M  V30 21 C 3.1281 -1.79142 0.573551 0
M  V30 22 O 2.4861 -1.74917 -0.476849 0
M  V30 23 C 2.5341 -1.9609 3.02624 0
M  V30 24 O 1.6381 -3.04863 2.77727 0
M  V30 25 H 0.9791 -0.293557 0.595584 0
M  V30 26 H 3.5091 -0.30159 2.02365 0
M  V30 27 H 3.5191 -2.38039 3.31363 0
M  V30 28 H 2.1941 -1.39851 3.91682 0
M  V30 29 H 0.7711 -2.67228 2.60084 0
M  V30 30 N 2.9562 -1.48159 -0.537278 0
M  V30 31 C 4.1842 -1.59454 -1.31841 0
M  V30 32 C 4.5992 -0.252065 -1.8711 0
M  V30 33 O 3.9562 0.757621 -1.66031 0
M  V30 34 C 4.0072 -2.63546 -2.47439 0
M  V30 35 O 3.7282 -3.92583 -1.94449 0
M  V30 36 C 5.2292 -2.85212 -3.39366 0
M  V30 37 H 2.4492 -0.53785 -0.401196 0
M  V30 38 H 4.9932 -1.93932 -0.648891 0
M  V30 39 H 3.1482 -2.31946 -3.1029 0
M  V30 40 H 3.5622 -4.49629 -2.70063 0
M  V30 41 H 5.0362 -3.61863 -4.16844 0
M  V30 42 H 5.5132 -1.93765 -3.94147 0
M  V30 43 H 6.1192 -3.18086 -2.82314 0
M  V30 44 N 4.4343 0.785586 -1.36625 0
M  V30 45 C 5.3443 1.92964 -1.33425 0
M  V30 46 C 6.3603 1.72394 -0.235851 0
M  V30 47 O 7.5363 1.95866 -0.468878 0
M  V30 48 C 4.6013 3.27884 -1.12662 0
M  V30 49 C 3.6623 3.61204 -2.32013 0
M  V30 50 C 2.8953 4.89687 -2.12231 0
M  V30 51 O 3.1183 5.59704 -1.09945 0
M  V30 52 O 2.0523 5.21752 -3.00098 0
M  V30 53 H 5.8783 1.98613 -2.29753 0
M  V30 54 H 3.4633 0.926384 -1.17211 0
M  V30 55 H 5.3453 4.08614 -1.03016 0
M  V30 56 H 4.0203 3.23118 -0.193991 0
M  V30 57 H 2.9273 2.80765 -2.47228 0
M  V30 58 H 4.2603 3.70698 -3.23796 0
M  V30 59 N 5.9124 1.20967 1.01018 0
M  V30 60 C 6.8594 0.964281 2.09691 0
M  V30 61 C 7.8294 -0.107853 1.65749 0
M  V30 62 O 9.0144 0.0381987 1.90762 0
M  V30 63 C 6.1544 0.52943 3.41015 0
M  V30 64 C 5.2674 1.67043 3.98398 0
M  V30 65 C 4.4024 1.18525 5.17808 0
M  V30 66 C 3.4414 2.29892 5.67288 0
M  V30 67 N 2.5784 1.82546 6.77954 0
M  V30 68 H 7.4184 1.89463 2.30017 0
M  V30 69 H 4.9554 0.944289 1.1279 0
M  V30 70 H 6.9134 0.258588 4.16398 0
M  V30 71 H 5.5434 -0.363919 3.20742 0
M  V30 72 H 4.5954 2.05603 3.20049 0
M  V30 73 H 5.9074 2.50877 4.31117 0
M  V30 74 H 5.0614 0.870762 6.00419 0
M  V30 75 H 3.8004 0.316887 4.86669 0
M  V30 76 H 2.8054 2.6215 4.83278 0
M  V30 77 H 4.0304 3.17216 6.00459 0
M  V30 78 H 1.9764 0.980454 6.48632 0
M  V30 79 H 1.8934 2.59956 7.09901 0
M  V30 80 H 3.1614 1.54115 7.64113 0
M  V30 81 N 7.3905 -1.2043 1.01659 0
M  V30 82 C 8.6185 -1.93777 0.725132 0
M  V30 83 C 9.0335 -1.74772 -0.714166 0
M  V30 84 O 8.3905 -1.06169 -1.4844 0
M  V30 85 C 8.4415 -3.45876 1.05129 0
M  V30 86 O 8.1625 -3.6426 2.43406 0
M  V30 87 C 9.6635 -4.36368 0.780891 0
M  V30 88 H 6.8835 -0.615901 0.266284 0
M  V30 89 H 9.4275 -1.52922 1.35776 0
M  V30 90 H 7.5825 -3.8461 0.464065 0
M  V30 91 H 7.9965 -4.58246 2.55169 0
M  V30 92 H 9.4705 -5.41743 1.05918 0
M  V30 93 H 9.9475 -4.38275 -0.284937 0
M  V30 94 H 10.5535 -4.03296 1.35027 0
M  V30 95 N 8.8686 -0.792821 -1.36206 0
M  V30 96 C 9.8156 -0.191653 -2.30003 0
M  V30 97 C 10.7856 0.666453 -1.52143 0
M  V30 98 O 11.9706 0.61442 -1.80636 0
M  V30 99 C 9.1106 0.664848 -3.38635 0
M  V30 100 C 8.2236 -0.212175 -4.31479 0
M  V30 101 C 7.3586 0.651022 -5.27196 0
M  V30 102 C 6.3976 -0.227247 -6.11678 0
M  V30 103 N 5.5346 0.595127 -6.99573 0
M  V30 104 H 10.3746 -0.996978 -2.80828 0
M  V30 105 H 7.9116 -0.503206 -1.38225 0
M  V30 106 H 9.8696 1.17645 -4.00269 0
M  V30 107 H 8.4996 1.43557 -2.89122 0
M  V30 108 H 7.5516 -0.841777 -3.70969 0
M  V30 109 H 8.8636 -0.888751 -4.90818 0
M  V30 110 H 8.0176 1.2283 -5.94136 0
M  V30 111 H 6.7566 1.36121 -4.68319 0
M  V30 112 H 5.7616 -0.816904 -5.43697 0
M  V30 113 H 6.9866 -0.93509 -6.72631 0
M  V30 114 H 4.9326 1.28955 -6.432 0
M  V30 115 H 4.8496 -0.0236952 -7.55996 0
M  V30 116 H 6.1176 1.15613 -7.70879 0
M  V30 117 N 10.3467 1.47872 -0.545128 0
M  V30 118 C 11.2767 2.32661 0.197793 0
M  V30 119 C 12.2577 1.43041 0.920504 0
M  V30 120 O 13.4427 1.71912 0.90333 0
M  V30 121 C 10.5727 3.24569 1.23582 0
M  V30 122 C 9.5267 4.23333 0.630323 0
M  V30 123 C 8.8527 5.0448 1.77211 0
M  V30 124 C 10.1527 5.20704 -0.407974 0
M  V30 125 H 11.8467 2.95024 -0.510045 0
M  V30 126 H 9.3927 1.4187 -0.246731 0
M  V30 127 H 11.3457 3.8272 1.76362 0
M  V30 128 H 10.0697 2.60236 1.97344 0
M  V30 129 H 8.7287 3.6639 0.123922 0
M  V30 130 H 8.3767 4.36561 2.49847 0
M  V30 131 H 8.0767 5.71339 1.37281 0
M  V30 132 H 9.6007 5.65487 2.3034 0
M  V30 133 H 11.0147 5.7329 0.033305 0
M  V30 134 H 9.4117 5.95699 -0.725486 0
M  V30 135 H 10.4817 4.66917 -1.30828 0
M  V30 136 N 11.8248 0.280983 1.55075 0
M  V30 137 C 13.0728 -0.333455 1.9933 0
M  V30 138 C 13.3938 -1.55937 1.17085 0
M  V30 139 O 12.6638 -1.94143 0.261805 0
M  V30 140 H 11.2438 -0.126197 0.736263 0
M  V30 141 H 13.9058 0.387678 1.91005 0
M  V30 142 H 13.0018 -0.619292 3.05894 0
M  V30 143 N 13.3029 -1.57598 0.00835791 0
M  V30 144 C 14.5489 -1.91211 -0.675732 0
M  V30 145 C 14.8819 -0.883139 -1.72958 0
M  V30 146 O 14.1569 0.097016 -1.94258 0
M  V30 147 C 14.4399 -3.35379 -1.31123 0
M  V30 148 C 14.2929 -4.48999 -0.268356 0
M  V30 149 C 15.6119 -3.7912 -2.23508 0
M  V30 150 H 12.7309 -0.695374 -0.244179 0
M  V30 151 H 15.3729 -1.89901 0.0613655 0
M  V30 152 H 13.5229 -3.36626 -1.93946 0
M  V30 153 H 15.1949 -4.59887 0.360844 0
M  V30 154 H 13.4379 -4.31873 0.408482 0
M  V30 155 H 14.1089 -5.46851 -0.752218 0
M  V30 156 H 16.5849 -3.79477 -1.70693 0
M  V30 157 H 15.4609 -4.80729 -2.64936 0
M  V30 158 H 15.7219 -3.13455 -3.11766 0
M  V30 159 N 14.781 0.264519 -1.55364 0
M  V30 160 C 15.731 1.32966 -1.85214 0
M  V30 161 C 16.715 1.44306 -0.711653 0
M  V30 162 O 17.907 1.47844 -0.973192 0
M  V30 163 C 15.036 2.68839 -2.13495 0
M  V30 164 C 14.122 2.61575 -3.33825 0
M  V30 165 N 14.513 2.23933 -4.53528 0
M  V30 166 C 12.811 2.92621 -3.36584 0
M  V30 167 C 13.512 2.26868 -5.35636 0
M  V30 168 N 12.488 2.65677 -4.74254 0
M  V30 169 H 16.29 1.02884 -2.75304 0
M  V30 170 H 13.804 0.473157 -1.55354 0
M  V30 171 H 15.801 3.45685 -2.33039 0
M  V30 172 H 14.461 2.99802 -1.24694 0
M  V30 173 H 15.472 1.95769 -4.79474 0
M  V30 174 H 12.149 3.2824 -2.58002 0
M  V30 175 H 13.539 2.00254 -6.41364 0
M  V30 176 N 16.2591 1.48442 0.529413 0
M  V30 177 C 17.4841 1.60406 1.31471 0
M  V30 178 C 17.9091 0.264738 1.86228 0
M  V30 179 O 17.2671 -0.763668 1.64432 0
M  V30 180 C 17.3151 2.65419 2.44101 0
M  V30 181 O 16.4191 2.22618 3.47153 0
M  V30 182 H 15.7601 0.537863 0.389357 0
M  V30 183 H 18.2901 1.94432 0.636965 0
M  V30 184 H 18.3001 2.86709 2.90279 0
M  V30 185 H 16.9751 3.62652 2.03608 0
M  V30 186 H 15.5521 2.11543 3.0709 0
M  V30 187 N 17.7372 -0.778329 1.37039 0
M  V30 188 C 18.6472 -1.92253 1.34446 0
M  V30 189 C 19.6632 -1.72267 0.244991 0
M  V30 190 O 20.8392 -1.95615 0.479258 0
M  V30 191 C 17.9042 -3.27282 1.144 0
M  V30 192 C 16.9652 -3.59969 2.33925 0
M  V30 193 C 16.1982 -4.88555 2.14825 0
M  V30 194 O 16.4212 -5.59113 1.12912 0
M  V30 195 O 15.3552 -5.20153 3.02861 0
M  V30 196 H 19.1812 -1.97392 2.30803 0
M  V30 197 H 16.7662 -0.920154 1.17701 0
M  V30 198 H 18.6482 -4.08062 1.05182 0
M  V30 199 H 17.3232 -3.23011 0.211124 0
M  V30 200 H 16.2302 -2.7945 2.48714 0
M  V30 201 H 17.5632 -3.68976 3.25757 0
M  V30 202 N 19.2153 -1.21501 -1.00376 0
M  V30 203 C 20.1783 -0.976927 -2.07337 0
M  V30 204 C 21.1783 0.0525322 -1.60714 0
M  V30 205 O 22.3683 -0.184869 -1.73216 0
M  V30 206 C 19.5003 -0.473423 -3.37597 0
M  V30 207 H 20.6933 -1.92587 -2.29892 0
M  V30 208 H 18.2463 -1.03217 -1.17371 0
M  V30 209 H 18.9813 0.480379 -3.20722 0
M  V30 210 H 18.7663 -1.216 -3.72768 0
M  V30 211 H 20.2563 -0.32675 -4.1632 0
M  V30 212 N 20.6934 1.19889 -1.02296 0
M  V30 213 C 21.9414 1.89046 -0.714558 0
M  V30 214 C 22.2624 1.79636 0.758681 0
M  V30 215 O 21.5324 1.20292 1.54618 0
M  V30 216 H 20.1124 0.699802 -0.261317 0
M  V30 217 H 22.7744 1.45574 -1.29592 0
M  V30 218 H 21.8704 2.95524 -1.0036 0
M  V30 219 N 22.1715 0.800033 1.35784 0
M  V30 220 C 23.1185 0.203848 2.29898 0
M  V30 221 C 24.0885 -0.658375 1.52495 0
M  V30 222 O 25.2735 -0.604832 1.8096 0
M  V30 223 C 22.4135 -0.64688 3.38983 0
M  V30 224 C 21.5265 0.235054 4.3136 0
M  V30 225 C 20.6615 -0.623054 5.27533 0
M  V30 226 C 19.7005 0.259682 6.11549 0
M  V30 227 N 18.8375 -0.558019 6.99879 0
M  V30 228 H 23.6775 1.01186 2.80295 0
M  V30 229 H 21.2145 0.51053 1.37957 0
M  V30 230 H 23.1725 -1.15521 4.00887 0
M  V30 231 H 21.8025 -1.42021 2.89879 0
M  V30 232 H 20.8545 0.861438 3.70518 0
M  V30 233 H 22.1665 0.914768 4.9034 0
M  V30 234 H 21.3205 -1.19678 5.94779 0
M  V30 235 H 20.0595 -1.33636 4.69034 0
M  V30 236 H 19.0645 0.845726 5.43256 0
M  V30 237 H 20.2895 0.970748 6.72126 0
M  V30 238 H 18.2355 -1.25542 6.43875 0
M  V30 239 H 18.1525 0.0637872 7.55973 0
M  V30 240 H 19.4205 -1.11523 7.71481 0
M  V30 241 N 23.6496 -1.47581 0.552962 0
M  V30 242 C 24.5796 -2.32762 -0.185451 0
M  V30 243 C 25.5606 -1.43527 -0.912905 0
M  V30 244 O 26.7456 -1.72388 -0.894201 0
M  V30 245 C 23.8756 -3.25219 -1.21859 0
M  V30 246 C 22.8296 -4.23661 -0.607864 0
M  V30 247 C 22.1556 -5.05413 -1.74533 0
M  V30 248 C 23.4556 -5.20481 0.435582 0
M  V30 249 H 25.1496 -2.94749 0.525684 0
M  V30 250 H 22.6956 -1.41738 0.254251 0
M  V30 251 H 24.6486 -3.8365 -1.7433 0
M  V30 252 H 23.3726 -2.61279 -1.95961 0
M  V30 253 H 22.0316 -3.66451 -0.104489 0
M  V30 254 H 21.6796 -4.3788 -2.47529 0
M  V30 255 H 21.3796 -5.72059 -1.34249 0
M  V30 256 H 22.9036 -5.66701 -2.27338 0
M  V30 257 H 24.3176 -5.733 -0.00290157 0
M  V30 258 H 22.7146 -5.95305 0.757067 0
M  V30 259 H 23.7846 -4.66217 1.33303 0
M  V30 260 N 25.1277 -0.289203 -1.54924 0
M  V30 261 C 26.5437 0.0645403 -1.59469 0
M  V30 262 C 26.7437 1.53419 -1.30632 0
M  V30 263 O 25.7997 2.2852 -1.074 0
M  V30 264 C 27.1127 -0.32278 -2.98963 0
M  V30 265 C 28.6607 -0.270564 -3.11828 0
M  V30 266 C 29.1357 -0.632532 -4.53611 0
M  V30 267 N 30.6267 -0.584617 -4.59496 0
M  V30 268 C 31.3617 -0.837314 -5.67254 0
M  V30 269 N 30.8577 -1.15536 -6.83098 0
M  V30 270 N 32.6507 -0.765166 -5.56868 0
M  V30 271 H 24.8017 -1.24714 -1.71931 0
M  V30 272 H 27.0647 -0.504809 -0.802416 0
M  V30 273 H 26.7707 -1.34541 -3.24948 0
M  V30 274 H 26.6447 0.32944 -3.75759 0
M  V30 275 H 29.0317 0.742805 -2.85598 0
M  V30 276 H 29.1127 -0.957242 -2.37214 0
M  V30 277 H 28.7567 -1.64365 -4.80569 0
M  V30 278 H 28.6867 0.07609 -5.26545 0
M  V30 279 H 31.1777 -0.349248 -3.76283 0
M  V30 280 H 31.4907 -1.33447 -7.61191 0
M  V30 281 H 29.8357 -1.19328 -6.84679 0
M  V30 282 H 33.0267 -0.516432 -4.65243 0
M  V30 283 H 33.1997 -0.965477 -6.40767 0
M  V30 284 N 26.6058 1.57591 -0.0167156 0
M  V30 285 C 27.5528 2.09462 0.969251 0
M  V30 286 C 28.5228 0.99381 1.33089 0
M  V30 287 O 29.7078 1.26726 1.42636 0
M  V30 288 C 26.8478 2.61622 2.25051 0
M  V30 289 C 25.9608 3.85666 1.94642 0
M  V30 290 C 25.0958 4.26266 3.16972 0
M  V30 291 C 24.1348 5.43101 2.82326 0
M  V30 292 N 23.2718 5.78915 3.97243 0
M  V30 293 H 28.1118 2.93428 0.519997 0
M  V30 294 H 25.6488 1.45044 0.245087 0
M  V30 295 H 27.6068 2.89949 2.99976 0
M  V30 296 H 26.2368 1.80505 2.67615 0
M  V30 297 H 25.2888 3.64145 1.10013 0
M  V30 298 H 26.6008 4.70678 1.65117 0
M  V30 299 H 25.7548 4.55963 4.00228 0
M  V30 300 H 24.4938 3.39996 3.49648 0
M  V30 301 H 23.4988 5.1311 1.97479 0
M  V30 302 H 24.7238 6.3106 2.50879 0
M  V30 303 H 22.6698 4.95602 4.29785 0
M  V30 304 H 22.5868 6.58539 3.71299 0
M  V30 305 H 23.8548 6.13212 4.81239 0
M  V30 306 N 28.0839 -0.256276 1.55502 0
M  V30 307 C 29.3299 -0.987079 1.77157 0
M  V30 308 C 29.6629 -1.85327 0.580315 0
M  V30 309 O 28.9379 -1.89874 -0.421686 0
M  V30 310 C 29.2209 -1.85553 3.08613 0
M  V30 311 C 29.0739 -1.01816 4.38125 0
M  V30 312 C 30.3929 -2.8397 3.36228 0
M  V30 313 H 27.5119 -0.357428 0.644526 0
M  V30 314 H 30.1539 -0.258239 1.88237 0
M  V30 315 H 28.3039 -2.47695 2.99298 0
M  V30 316 H 29.9759 -0.416159 4.59419 0
M  V30 317 H 28.2189 -0.322178 4.32602 0
M  V30 318 H 28.8899 -1.65939 5.26468 0
M  V30 319 H 31.3659 -2.31964 3.45445 0
M  V30 320 H 30.2419 -3.41864 4.29442 0
M  V30 321 H 30.5029 -3.59955 2.56681 0
M  V30 322 N 29.562 -1.4872 -0.521534 0
M  V30 323 C 30.495 -1.58451 -1.64221 0
M  V30 324 C 31.473 -0.434513 -1.56687 0
M  V30 325 O 32.657 -0.647275 -1.77038 0
M  V30 326 C 29.784 -1.52037 -3.02659 0
M  V30 327 C 28.83 -2.71981 -3.28525 0
M  V30 328 S 29.663 -4.33869 -3.13876 0
M  V30 329 C 30.819 -4.30067 -4.54745 0
M  V30 330 H 31.052 -2.53256 -1.55719 0
M  V30 331 H 28.585 -1.37358 -0.705143 0
M  V30 332 H 30.543 -1.49023 -3.82495 0
M  V30 333 H 29.204 -0.585541 -3.08594 0
M  V30 334 H 28.397 -2.63656 -4.29536 0
M  V30 335 H 27.999 -2.72302 -2.56374 0
M  V30 336 H 30.291 -4.00521 -5.46433 0
M  V30 337 H 31.234 -5.31287 -4.68123 0
M  V30 338 H 31.642 -3.60419 -4.34463 0
M  V30 339 N 31.0401 0.771051 -1.3745 0
M  V30 340 C 32.2861 1.5319 -1.32894 0
M  V30 341 C 32.6191 1.94008 0.0862511 0
M  V30 342 O 31.8941 1.64124 1.04373 0
M  V30 343 C 32.1771 2.79648 -2.26868 0
M  V30 344 C 32.0301 2.45079 -3.77169 0
M  V30 345 C 33.3491 3.81583 -2.19277 0
M  V30 346 H 30.4681 0.555744 -0.484064 0
M  V30 347 H 33.1101 0.884492 -1.68157 0
M  V30 348 H 31.2601 3.34891 -1.96926 0
M  V30 349 H 32.9321 1.95745 -4.1771 0
M  V30 350 H 31.1751 1.77767 -3.95704 0
M  V30 351 H 31.8461 3.35478 -4.38359 0
M  V30 352 H 34.3221 3.35835 -2.45671 0
M  V30 353 H 33.1981 4.67787 -2.87171 0
M  V30 354 H 33.4591 4.25897 -1.18592 0
M  V30 355 N 32.5182 1.22032 0.997298 0
M  V30 356 C 33.7582 1.05375 1.75144 0
M  V30 357 C 34.1222 -0.404696 1.87686 0
M  V30 358 O 35.3232 -0.691998 2.5974 0
M  V30 359 C 33.5942 1.74046 3.12158 0
M  V30 360 S 35.1532 1.72745 4.03366 0
M  V30 361 H 31.9712 0.377449 0.602539 0
M  V30 362 H 34.5732 1.54902 1.19272 0
M  V30 363 H 33.2772 2.79332 3.00669 0
M  V30 364 H 32.8082 1.24731 3.73103 0
M  V30 365 H 34.8232 0.774015 4.90126 0
M  V30 366 N 33.9963 -1.19345 1.0293 0
M  V30 367 C 35.2213 -1.93538 0.745511 0
M  V30 368 C 35.6463 -1.75007 -0.689511 0
M  V30 369 O 35.0043 -1.05265 -1.47611 0
M  V30 370 C 35.0523 -3.43336 1.10239 0
M  V30 371 O 34.1563 -4.11806 0.221289 0
M  V30 372 H 33.4973 -0.604193 0.275404 0
M  V30 373 H 36.0273 -1.5141 1.37609 0
M  V30 374 H 36.0373 -3.94004 1.05947 0
M  V30 375 H 34.7123 -3.56146 2.14786 0
M  V30 376 H 33.2893 -3.715 0.322842 0
M  V30 377 N 35.4744 -0.807222 -1.35358 0
M  V30 378 C 36.8854 -0.44876 -1.81226 0
M  V30 379 C 37.2364 1.02929 -1.67033 0
M  V30 380 O 36.3614 1.79991 -1.20133 0
M  V30 381 C 36.9564 -0.807774 -3.2903 0
M  V30 382 C 35.5154 -0.501901 -3.73039 0
M  V30 383 C 34.6624 -1.03304 -2.57339 0
M  V30 384 H 37.6134 -0.998808 -1.23327 0
M  V30 385 H 37.6344 -0.10554 -3.80354 0
M  V30 386 H 37.1464 -1.88357 -3.39328 0
M  V30 387 H 35.2474 0.565128 -3.68289 0
M  V30 388 H 35.3604 -1.03497 -4.67787 0
M  V30 389 H 33.7244 -0.455339 -2.50597 0
M  V30 390 H 34.5074 -2.11496 -2.70415 0
M  V30 391 N 36.9525 1.47285 -0.560781 0
M  V30 392 C 38.2005 2.02064 -0.0379868 0
M  V30 393 C 38.5215 1.43711 1.31803 0
M  V30 394 O 37.7915 0.61362 1.86042 0
M  V30 395 H 36.3715 0.746918 -0.0110531 0
M  V30 396 H 39.0335 1.80648 -0.731598 0
M  V30 397 H 38.1295 3.12064 0.0474463 0
M  V30 398 N 38.4306 0.297415 1.54768 0
M  V30 399 C 39.3606 -0.573494 2.26348 0
M  V30 400 C 40.3416 -1.14085 1.26169 0
M  V30 401 O 41.5266 -1.17086 1.54934 0
M  V30 402 C 38.6566 -1.74716 3.00153 0
M  V30 403 C 37.6106 -1.31032 4.07449 0
M  V30 404 C 36.9366 -2.56887 4.68949 0
M  V30 405 C 38.2366 -0.444183 5.20408 0
M  V30 406 H 39.9306 0.0235131 2.99391 0
M  V30 407 H 37.4766 0.0127488 1.43994 0
M  V30 408 H 39.4296 -2.3625 3.48947 0
M  V30 409 H 38.1536 -2.37035 2.24682 0
M  V30 410 H 36.8126 -0.718066 3.59499 0
M  V30 411 H 36.4606 -3.17512 3.90122 0
M  V30 412 H 36.1606 -2.2836 5.41411 0
M  V30 413 H 37.6846 -3.19229 5.20505 0
M  V30 414 H 39.0986 -0.9651 5.65118 0
M  V30 415 H 37.4956 -0.252846 5.99567 0
M  V30 416 H 38.5656 0.531609 4.81977 0
M  V30 417 N 39.9087 -1.5758 0.0250728 0
M  V30 418 C 40.8717 -2.08896 -0.943139 0
M  V30 419 C 41.8717 -1.00321 -1.25668 0
M  V30 420 O 43.0617 -1.26495 -1.19769 0
M  V30 421 C 40.1937 -2.55143 -2.26086 0
M  V30 422 H 41.3867 -2.95723 -0.498775 0
M  V30 423 H 38.9397 -1.54703 -0.222888 0
M  V30 424 H 39.6747 -1.71633 -2.75159 0
M  V30 425 H 39.4597 -3.34461 -2.04641 0
M  V30 426 H 40.9497 -2.95083 -2.95492 0
M  V30 427 N 41.3868 0.248026 -1.55636 0
M  V30 428 C 42.3368 1.30994 -1.86614 0
M  V30 429 C 43.3208 1.43543 -0.726918 0
M  V30 430 O 44.5128 1.46804 -0.988818 0
M  V30 431 C 41.6418 2.6656 -2.16335 0
M  V30 432 C 40.7278 2.58019 -3.36581 0
M  V30 433 N 41.1188 2.1911 -4.55878 0
M  V30 434 C 39.4168 2.89035 -3.39669 0
M  V30 435 C 40.1178 2.21174 -5.38012 0
M  V30 436 N 39.0938 2.60632 -4.77045 0
M  V30 437 H 42.8958 0.999583 -2.76379 0
M  V30 438 H 40.4098 0.456652 -1.55848 0
M  V30 439 H 42.4068 3.43194 -2.36692 0
M  V30 440 H 41.0668 2.98463 -1.27867 0
M  V30 441 H 42.0778 1.90672 -4.81523 0
M  V30 442 H 38.7548 3.25485 -2.61469 0
M  V30 443 H 40.1448 1.9344 -6.43452 0
M  V30 444 N 42.8649 1.48995 0.513639 0
M  V30 445 C 43.7969 1.60836 1.63293 0
M  V30 446 C 44.8099 0.491701 1.55197 0
M  V30 447 O 45.9989 0.763238 1.6136 0
M  V30 448 C 43.0989 1.53731 3.02027 0
M  V30 449 C 42.2719 2.80715 3.35437 0
M  V30 450 C 41.3309 2.66837 4.53525 0
M  V30 451 O 40.3569 3.40753 4.55934 0
M  V30 452 N 41.5589 1.77539 5.52684 0
M  V30 453 H 44.3239 2.57366 1.53566 0
M  V30 454 H 41.8849 1.45925 0.701259 0
M  V30 455 H 43.8769 1.42118 3.78926 0
M  V30 456 H 42.4469 0.651092 3.05744 0
M  V30 457 H 41.6669 3.06772 2.47557 0
M  V30 458 H 42.9549 3.64927 3.54551 0
M  V30 459 H 42.3529 1.16719 5.53528 0
M  V30 460 H 40.9099 1.71856 6.28736 0
M  V30 461 N 44.343 -0.763751 1.37857 0
M  V30 462 C 45.759 -1.06542 1.18832 0
M  V30 463 C 45.959 -2.01478 0.0299722 0
M  V30 464 O 45.015 -2.4458 -0.627447 0
M  V30 465 C 46.328 -1.65525 2.51042 0
M  V30 466 C 47.876 -1.77745 2.57635 0
M  V30 467 C 48.351 -2.4014 3.89996 0
M  V30 468 N 49.842 -2.47582 3.91481 0
M  V30 469 C 50.577 -2.96732 4.9065 0
M  V30 470 N 50.073 -3.45993 6.00217 0
M  V30 471 N 51.866 -2.95679 4.78048 0
M  V30 472 H 44.017 -0.133556 2.1198 0
M  V30 473 H 46.28 -0.121879 0.940133 0
M  V30 474 H 45.986 -1.03236 3.36207 0
M  V30 475 H 45.86 -2.64719 2.68707 0
M  V30 476 H 48.247 -2.39164 1.72872 0
M  V30 477 H 48.328 -0.772836 2.43846 0
M  V30 478 H 47.972 -1.79358 4.75177 0
M  V30 479 H 47.902 -3.41223 4.01092 0
M  V30 480 H 50.393 -2.1273 3.12337 0
M  V30 481 H 50.706 -3.81922 6.7183 0
M  V30 482 H 49.051 -3.44077 6.03851 0
M  V30 483 H 52.242 -2.56499 3.91568 0
M  V30 484 H 52.415 -3.33672 5.55488 0
M  V30 485 N 45.8211 -1.22559 -0.990812 0
M  V30 486 C 46.7511 -1.0218 -2.09956 0
M  V30 487 C 47.7321 0.0579394 -1.70001 0
M  V30 488 O 48.9171 -0.104684 -1.93918 0
M  V30 489 C 46.0471 -0.601023 -3.4206 0
M  V30 490 C 45.0011 -1.62694 -3.95872 0
M  V30 491 C 44.3271 -1.06193 -5.24049 0
M  V30 492 C 45.6271 -3.01743 -4.2632 0
M  V30 493 H 47.3211 -1.94916 -2.27262 0
M  V30 494 H 44.8671 -0.938566 -1.09211 0
M  V30 495 H 46.8201 -0.445561 -4.19038 0
M  V30 496 H 45.5441 0.362005 -3.24588 0
M  V30 497 H 44.2031 -1.77021 -3.21028 0
M  V30 498 H 43.8511 -0.0901903 -5.02919 0
M  V30 499 H 43.5511 -1.74732 -5.61019 0
M  V30 500 H 45.0751 -0.918092 -6.03658 0
M  V30 501 H 46.4891 -2.90777 -4.94087 0
M  V30 502 H 44.8861 -3.67425 -4.74467 0
M  V30 503 H 45.9561 -3.51518 -3.34011 0
M  V30 504 N 47.2992 1.18797 -1.03562 0
M  V30 505 C 48.5272 1.92599 -0.755869 0
M  V30 506 C 48.9422 1.75886 0.686271 0
M  V30 507 O 48.2992 1.08517 1.46732 0
M  V30 508 C 48.3502 3.44159 -1.10619 0
M  V30 509 O 48.0712 3.60341 -2.4917 0
M  V30 510 C 49.5722 4.3507 -0.850214 0
M  V30 511 H 46.7922 0.611587 -0.276048 0
M  V30 512 H 49.3362 1.50742 -1.38192 0
M  V30 513 H 47.4912 3.83823 -0.525194 0
M  V30 514 H 47.9052 4.54128 -2.62427 0
M  V30 515 H 49.3792 5.39989 -1.14523 0
M  V30 516 H 49.8562 4.38673 0.215176 0
M  V30 517 H 50.4622 4.01097 -1.41426 0
M  V30 518 N 48.7773 0.814389 1.34928 0
M  V30 519 C 50.1883 0.458364 1.80986 0
M  V30 520 C 50.5393 -1.02042 1.67577 0
M  V30 521 O 49.6643 -1.79352 1.21086 0
M  V30 522 C 50.2593 0.825212 3.28597 0
M  V30 523 C 48.8183 0.521677 3.72767 0
M  V30 524 C 47.9653 1.04668 2.56788 0
M  V30 525 H 50.9163 1.00533 1.22795 0
M  V30 526 H 50.9373 0.12571 3.80292 0
M  V30 527 H 50.4493 1.90154 3.38324 0
M  V30 528 H 48.5503 -0.545589 3.68584 0
M  V30 529 H 48.6633 1.05977 4.67232 0
M  V30 530 H 47.0273 0.468622 2.50352 0
M  V30 531 H 47.8103 2.12927 2.6929 0
M  V30 532 N 50.2554 -1.46986 0.568584 0
M  V30 533 C 51.4804 -2.07335 0.0520528 0
M  V30 534 C 51.9054 -1.41675 -1.23733 0
M  V30 535 O 51.2634 -0.495623 -1.74394 0
M  V30 536 C 51.3114 -3.60417 -0.11501 0
M  V30 537 O 50.4154 -3.95309 -1.17492 0
M  V30 538 H 49.7564 -0.661597 0.0564385 0
M  V30 539 H 52.2864 -1.88837 0.787507 0
M  V30 540 H 52.2964 -4.06698 -0.325644 0
M  V30 541 H 50.9714 -4.07601 0.826675 0
M  V30 542 H 49.5484 -3.60757 -0.943869 0
M  V30 543 N 51.7335 -0.305618 -1.54608 0
M  V30 544 C 52.6815 0.584119 -2.25146 0
M  V30 545 C 53.6755 1.13326 -1.25911 0
M  V30 546 O 54.8815 1.08337 -1.43747 0
M  V30 547 H 51.2565 0.206983 -0.722954 0
M  V30 548 H 53.2275 -0.033291 -2.98381 0
M  V30 549 C 51.9765 1.74225 -3.009 0
M  V30 550 H 51.2995 1.32892 -3.77067 0
M  V30 551 H 52.7395 2.34077 -3.53531 0
M  V30 552 C 51.1985 2.64914 -2.0814 0
M  V30 553 O 51.7285 3.66137 -1.65246 0
M  V30 554 N 49.9345 2.3275 -1.74 0
M  V30 555 H 49.4815 1.50479 -2.09078 0
M  V30 556 H 49.4395 2.93694 -1.12211 0
M  V30 557 N 53.2116 1.57565 -0.0334293 0
M  V30 558 C 54.4516 1.93844 0.648379 0
M  V30 559 C 54.8156 0.910387 1.69044 0
M  V30 560 O 56.0166 1.15952 2.42505 0
M  V30 561 C 54.2876 3.35017 1.24492 0
M  V30 562 S 55.8466 3.93229 1.94721 0
M  V30 563 H 52.6646 0.678231 0.213364 0
M  V30 564 H 55.2666 1.95254 -0.0981253 0
M  V30 565 H 53.9706 4.07652 0.474128 0
M  V30 566 H 53.5016 3.37061 2.02864 0
M  V30 567 H 55.5166 3.77014 3.22606 0
M  V30 568 N 54.6897 -0.239769 1.55765 0
M  V30 569 C 55.9667 -0.990056 1.68693 0
M  V30 570 C 56.3467 -2.03107 0.5754 0
M  V30 571 O 55.6947 -2.24604 -0.42017 0
M  V30 572 C 55.9047 -1.61696 3.09282 0
M  V30 573 C 57.2527 -2.11613 3.6811 0
M  V30 574 O 58.2767 -1.71624 3.12127 0
M  V30 575 O 57.1357 -2.85057 4.66267 0
M  V30 576 H 54.2297 -0.461299 0.686391 0
M  V30 577 H 56.7757 -0.232991 1.68093 0
M  V30 578 H 55.5477 -0.864357 3.81634 0
M  V30 579 H 55.1707 -2.44005 3.13923 0
M  V30 580 N 56.1678 -1.49265 -0.50573 0
M  V30 581 C 57.0778 -1.68312 -1.63427 0
M  V30 582 C 58.0938 -0.565682 -1.64548 0
M  V30 583 O 59.2698 -0.839801 -1.83055 0
M  V30 584 C 56.3348 -1.74107 -2.99813 0
M  V30 585 C 55.3958 -2.97653 -3.09356 0
M  V30 586 C 54.6288 -3.03163 -4.39236 0
M  V30 587 O 54.8518 -2.16396 -5.27758 0
M  V30 588 O 53.7858 -3.9558 -4.53652 0
M  V30 589 H 57.6118 -2.63907 -1.50289 0
M  V30 590 H 55.1968 -1.32951 -0.681502 0
M  V30 591 H 57.0788 -1.803 -3.80881 0
M  V30 592 H 55.7538 -0.816901 -3.13223 0
M  V30 593 H 54.6608 -2.96981 -2.27493 0
M  V30 594 H 55.9938 -3.89535 -3.00871 0
M  V30 595 N 57.6459 0.756429 -1.3826 0
M  V30 596 C 58.5759 1.88374 -1.37976 0
M  V30 597 C 59.5569 1.68311 -0.246082 0
M  V30 598 O 60.7419 1.88944 -0.44874 0
M  V30 599 C 57.8719 3.25864 -1.20125 0
M  V30 600 C 56.8259 3.60523 -2.30666 0
M  V30 601 C 56.1519 4.9672 -1.97923 0
M  V30 602 C 57.4519 3.65692 -3.72916 0
M  V30 603 H 59.1459 1.88869 -2.32312 0
M  V30 604 H 56.6919 0.907272 -1.11824 0
M  V30 605 H 58.6449 4.0438 -1.18552 0
M  V30 606 H 57.3689 3.25841 -0.222498 0
M  V30 607 H 56.0279 2.84324 -2.3142 0
M  V30 608 H 55.6759 4.93253 -0.985393 0
M  V30 609 H 55.3759 5.20878 -2.71955 0
M  V30 610 H 56.8999 5.77618 -1.97964 0
M  V30 611 H 58.3139 4.34328 -3.74208 0
M  V30 612 H 56.7109 4.01358 -4.4613 0
M  V30 613 H 57.7809 2.65987 -4.05436 0
M  V30 614 N 59.124 1.23083 0.984299 0
M  V30 615 C 60.054 1.03292 2.09411 0
M  V30 616 C 61.035 -0.048923 1.7003 0
M  V30 617 O 62.22 0.114967 1.93859 0
M  V30 618 C 59.35 0.619155 3.41736 0
M  V30 619 C 58.304 1.64791 3.95004 0
M  V30 620 C 57.63 1.0897 5.23478 0
M  V30 621 C 58.93 3.03999 4.24714 0
M  V30 622 H 60.624 1.96119 2.26225 0
M  V30 623 H 58.17 0.944344 1.08711 0
M  V30 624 H 60.123 0.467777 4.18796 0
M  V30 625 H 58.847 -0.344786 3.24775 0
M  V30 626 H 57.506 1.78721 3.20085 0
M  V30 627 H 57.154 0.11686 5.02864 0
M  V30 628 H 56.854 1.77704 5.60085 0
M  V30 629 H 58.378 0.950093 6.03163 0
M  V30 630 H 59.792 2.93393 4.92538 0
M  V30 631 H 58.189 3.69936 4.72512 0
M  V30 632 H 59.259 3.53285 3.32142 0
M  V30 633 N 60.6021 -1.18246 1.0419 0
M  V30 634 C 61.8491 -1.88257 0.746017 0
M  V30 635 C 62.1771 -1.80429 -0.726331 0
M  V30 636 O 61.4321 -1.2 -1.54591 0
M  V30 637 C 61.7311 -3.38082 1.15911 0
M  V30 638 C 61.3971 -3.66114 2.63195 0
M  V30 639 C 60.0591 -3.73474 3.03432 0
M  V30 640 C 62.4111 -3.78398 3.5842 0
M  V30 641 C 59.7391 -3.90599 4.37778 0
M  V30 642 C 62.0911 -3.97039 4.92487 0
M  V30 643 C 60.7551 -4.02635 5.32392 0
M  V30 644 H 60.0251 -0.688883 0.272987 0
M  V30 645 H 62.6721 -1.3995 1.30715 0
M  V30 646 H 60.9771 -3.88377 0.516806 0
M  V30 647 H 62.6741 -3.90596 0.907516 0
M  V30 648 H 59.2641 -3.61003 2.3103 0
M  V30 649 H 63.4481 -3.72042 3.28479 0
M  V30 650 H 58.7041 -3.93175 4.68213 0
M  V30 651 H 62.8781 -4.05486 5.66175 0
M  V30 652 H 60.5051 -4.15657 6.36501 0
M  V30 653 N 62.0802 -0.821533 -1.34494 0
M  V30 654 C 63.3572 -0.33159 -1.92769 0
M  V30 655 C 63.7372 1.18088 -1.74981 0
M  V30 656 O 63.0852 1.98733 -1.12772 0
M  V30 657 C 63.2952 -0.759398 -3.40638 0
M  V30 658 C 64.6432 -0.757433 -4.1779 0
M  V30 659 O 65.6672 -0.70189 -3.49216 0
M  V30 660 O 64.5262 -0.829361 -5.4017 0
M  V30 661 H 61.6202 -0.0902502 -0.822061 0
M  V30 662 H 64.1662 -0.906231 -1.43477 0
M  V30 663 H 62.9382 -1.8012 -3.47379 0
M  V30 664 H 62.5612 -0.160378 -3.97276 0
M  V30 665 N 63.5583 1.46682 -0.576371 0
M  V30 666 C 64.8353 1.95599 0.00703437 0
M  V30 667 C 65.2153 1.51904 1.46589 0
M  V30 668 O 64.5633 0.766755 2.15251 0
M  V30 669 C 64.7733 3.4864 -0.158404 0
M  V30 670 C 66.1213 4.24594 -0.0229439 0
M  V30 671 O 67.1453 3.56094 -0.0869173 0
M  V30 672 O 66.0043 5.46373 0.118015 0
M  V30 673 H 63.0983 0.825275 0.053384 0
M  V30 674 H 65.6443 1.56996 -0.644244 0
M  V30 675 H 64.4163 3.7331 -1.17282 0
M  V30 676 H 64.0393 3.94057 0.5296 0
M  V30 677 N 65.0364 0.313813 1.54444 0
M  V30 678 C 66.2824 -0.292108 2.00685 0
M  V30 679 C 66.6154 -1.52548 1.20177 0
M  V30 680 O 65.8904 -1.92452 0.281531 0
M  V30 681 C 66.1734 -0.635968 3.5444 0
M  V30 682 C 66.0264 0.607437 4.4568 0
M  V30 683 C 67.3454 -1.45747 4.15266 0
M  V30 684 H 64.4644 -0.104697 0.729526 0
M  V30 685 H 67.1064 0.428457 1.85106 0
M  V30 686 H 65.2564 -1.24986 3.67846 0
M  V30 687 H 66.9284 1.24581 4.44159 0
M  V30 688 H 65.1714 1.23822 4.15753 0
M  V30 689 H 65.8424 0.322515 5.51057 0
M  V30 690 H 68.3184 -0.938645 4.05375 0
M  V30 691 H 67.1944 -1.66683 5.2298 0
M  V30 692 H 67.4554 -2.45063 3.67963 0
M  V30 693 N 66.5145 -1.57545 0.0417849 0
M  V30 694 C 67.7635 -1.91494 -0.633492 0
M  V30 695 C 68.0765 -0.921084 -1.72556 0
M  V30 696 O 69.2825 -1.15228 -2.45835 0
M  V30 697 C 67.7385 -3.40072 -1.17808 0
M  V30 698 C 67.3465 -4.47843 -0.118633 0
M  V30 699 C 69.0905 -3.8307 -1.82915 0
M  V30 700 C 66.9975 -5.87529 -0.675578 0
M  V30 701 H 65.9275 -0.714653 -0.24039 0
M  V30 702 H 68.5785 -1.83175 0.109148 0
M  V30 703 H 66.9605 -3.43364 -1.97274 0
M  V30 704 H 68.1345 -4.56128 0.654494 0
M  V30 705 H 66.4495 -4.14128 0.434414 0
M  V30 706 H 69.0465 -4.84794 -2.25563 0
M  V30 707 H 69.3895 -3.1881 -2.67705 0
M  V30 708 H 69.9225 -3.82255 -1.10119 0
M  V30 709 H 66.6615 -6.55362 0.134475 0
M  V30 710 H 66.1815 -5.82824 -1.4169 0
M  V30 711 H 67.8605 -6.36491 -1.1614 0
M  V30 712 N 67.9926 0.231505 -1.5589 0
M  V30 713 C 69.2386 0.954429 -1.79617 0
M  V30 714 C 69.5936 1.82367 -0.613199 0
M  V30 715 O 68.8866 1.87524 0.393094 0
M  V30 716 C 69.0806 1.83577 -3.0665 0
M  V30 717 C 68.9096 1.05334 -4.3719 0
M  V30 718 C 67.6796 0.75225 -4.99669 0
M  V30 719 C 69.8776 0.423444 -5.12554 0
M  V30 720 N 67.8596 -0.052627 -6.13877 0
M  V30 721 C 69.2306 -0.245287 -6.19515 0
M  V30 722 C 71.2856 0.335466 -4.96769 0
M  V30 723 C 69.9886 -0.993566 -7.12405 0
M  V30 724 C 72.0146 -0.399321 -5.9005 0
M  V30 725 C 71.3766 -1.05663 -6.9643 0
M  V30 726 H 67.4756 0.329846 -0.709031 0
M  V30 727 H 70.0596 0.226172 -1.93382 0
M  V30 728 H 68.2306 2.53592 -2.94186 0
M  V30 729 H 69.9626 2.49541 -3.18608 0
M  V30 730 H 66.7176 1.06783 -4.61405 0
M  V30 731 H 67.1416 -0.443609 -6.75545 0
M  V30 732 H 71.7836 0.829311 -4.14587 0
M  V30 733 H 69.5016 -1.49896 -7.94076 0
M  V30 734 H 73.0876 -0.468265 -5.79913 0
M  V30 735 H 71.9676 -1.61612 -7.67366 0
M  V30 736 N 69.4707 1.49531 0.497807 0
M  V30 737 C 70.7167 1.59415 1.25358 0
M  V30 738 C 71.0497 0.281422 1.9215 0
M  V30 739 O 70.3247 -0.715249 1.80871 0
M  V30 740 C 70.6077 2.75566 2.3181 0
M  V30 741 C 70.4607 4.16642 1.69498 0
M  V30 742 C 71.7797 2.87347 3.33346 0
M  V30 743 H 68.8987 0.580244 0.454408 0
M  V30 744 H 71.5407 1.81827 0.551262 0
M  V30 745 H 69.6907 2.56587 2.91711 0
M  V30 746 H 71.3627 4.47145 1.13399 0
M  V30 747 H 69.6057 4.22141 0.998978 0
M  V30 748 H 70.2767 4.93792 2.46725 0
M  V30 749 H 72.7527 3.04634 2.83438 0
M  V30 750 H 71.6287 3.70289 4.05188 0
M  V30 751 H 71.8897 1.96834 3.95865 0
M  V30 752 N 70.9488 -0.749086 1.3866 0
M  V30 753 C 71.8968 -1.88428 1.36373 0
M  V30 754 C 72.8908 -1.67561 0.248929 0
M  V30 755 O 74.0968 -1.75074 0.41821 0
M  V30 756 H 70.4718 -0.620023 0.42553 0
M  V30 757 H 72.4428 -1.87473 2.32156 0
M  V30 758 C 71.1918 -3.25961 1.21014 0
M  V30 759 H 70.5148 -3.42607 2.06059 0
M  V30 760 H 71.9548 -4.05625 1.23469 0
M  V30 761 C 70.4138 -3.36799 -0.0825941 0
M  V30 762 O 70.9438 -3.87517 -1.05797 0
M  V30 763 N 69.1498 -2.90258 -0.140939 0
M  V30 764 H 68.6968 -2.49174 0.653477 0
M  V30 765 H 68.6548 -2.97889 -1.00545 0
M  V30 766 N 72.4269 -1.23603 -0.977757 0
M  V30 767 C 73.3589 -0.977369 -2.07317 0
M  V30 768 C 74.3719 0.0495845 -1.62724 0
M  V30 769 O 75.5609 -0.186261 -1.77526 0
M  V30 770 C 72.6609 -0.451216 -3.35883 0
M  V30 771 C 71.8339 -1.53896 -4.09432 0
M  V30 772 C 70.8929 -1.01721 -5.16274 0
M  V30 773 O 69.9189 -1.70676 -5.43009 0
M  V30 774 N 71.1209 0.153594 -5.80297 0
M  V30 775 H 73.8859 -1.92047 -2.30082 0
M  V30 776 H 71.4469 -1.14497 -1.14465 0
M  V30 777 H 73.4389 -0.0871574 -4.04606 0
M  V30 778 H 72.0089 0.397368 -3.10064 0
M  V30 779 H 71.2289 -2.07566 -3.35127 0
M  V30 780 H 72.5169 -2.27037 -4.55337 0
M  V30 781 H 71.9149 0.730323 -5.60966 0
M  V30 782 H 70.4719 0.458892 -6.50183 0
M  V30 783 N 73.905 1.17692 -1.04816 0
M  V30 784 C 74.868 2.19787 -0.650117 0
M  V30 785 C 75.868 1.58044 0.296427 0
M  V30 786 O 77.058 1.74012 0.0808097 0
M  V30 787 C 74.19 3.40869 0.0456987 0
M  V30 788 H 75.383 2.56516 -1.5537 0
M  V30 789 H 72.936 1.31708 -0.841594 0
M  V30 790 H 73.671 3.09681 0.962726 0
M  V30 791 H 73.456 3.86928 -0.634727 0
M  V30 792 H 74.946 4.16445 0.310432 0
M  V30 793 N 75.3831 0.828654 1.34056 0
M  V30 794 C 76.3301 0.252567 2.29414 0
M  V30 795 C 77.3001 -0.62588 1.53857 0
M  V30 796 O 78.4851 -0.566312 1.82202 0
M  V30 797 C 75.6251 -0.574831 3.40279 0
M  V30 798 C 74.7381 0.326499 4.30764 0
M  V30 799 C 73.8731 -0.511016 5.28736 0
M  V30 800 C 72.9121 0.389342 6.1086 0
M  V30 801 N 72.0491 -0.409439 7.00905 0
M  V30 802 H 76.8891 1.07108 2.78086 0
M  V30 803 H 74.4261 0.539677 1.36843 0
M  V30 804 H 76.3841 -1.06992 4.03248 0
M  V30 805 H 75.0141 -1.35841 2.92826 0
M  V30 806 H 74.0661 0.939837 3.68607 0
M  V30 807 H 75.3781 1.01857 4.88289 0
M  V30 808 H 74.5321 -1.07035 5.97184 0
M  V30 809 H 73.2711 -1.23657 4.71763 0
M  V30 810 H 72.2761 0.960769 5.4134 0
M  V30 811 H 73.5011 1.1131 6.69916 0
M  V30 812 H 71.4471 -1.11856 6.46393 0
M  V30 813 H 71.3641 0.224126 7.55668 0
M  V30 814 H 72.6321 -0.951336 7.73673 0
M  V30 815 N 76.8612 -1.46375 0.584142 0
M  V30 816 C 78.2772 -1.57694 0.245929 0
M  V30 817 C 78.4772 -1.57903 -1.25175 0
M  V30 818 O 77.5332 -1.49676 -2.03355 0
M  V30 819 C 78.8462 -2.87028 0.896402 0
M  V30 820 C 80.3942 -3.00662 0.870127 0
M  V30 821 C 80.8692 -4.32734 1.50017 0
M  V30 822 N 82.3602 -4.39436 1.46458 0
M  V30 823 C 83.0952 -5.40248 1.92144 0
M  V30 824 N 82.5912 -6.47726 2.4581 0
M  V30 825 N 84.3842 -5.31459 1.83052 0
M  V30 826 H 76.5352 -1.44483 1.55687 0
M  V30 827 H 78.7982 -0.689291 0.650831 0
M  V30 828 H 78.5042 -2.9269 1.95002 0
M  V30 829 H 78.3782 -3.75014 0.405486 0
M  V30 830 H 80.7652 -2.94581 -0.174871 0
M  V30 831 H 80.8462 -2.14148 1.39908 0
M  V30 832 H 80.4902 -4.39573 2.54437 0
M  V30 833 H 80.4202 -5.18025 0.946432 0
M  V30 834 H 82.9112 -3.62367 1.07231 0
M  V30 835 H 83.2242 -7.20863 2.78525 0
M  V30 836 H 81.5692 -6.48542 2.49836 0
M  V30 837 H 84.7602 -4.46396 1.40883 0
M  V30 838 H 84.9332 -6.09881 2.18973 0
M  V30 839 N 78.3393 -0.321999 -1.54275 0
M  V30 840 C 79.6163 0.335232 -1.92706 0
M  V30 841 C 79.9963 1.70006 -1.25145 0
M  V30 842 O 79.3443 2.25067 -0.394596 0
M  V30 843 C 79.5543 0.429008 -3.46353 0
M  V30 844 C 80.9023 0.690029 -4.18956 0
M  V30 845 O 81.9263 0.511992 -3.52501 0
M  V30 846 O 80.7853 1.03338 -5.36641 0
M  V30 847 H 77.8793 0.191143 -0.804608 0
M  V30 848 H 80.4253 -0.3716 -1.65581 0
M  V30 849 H 79.1973 -0.529611 -3.87699 0
M  V30 850 H 78.8203 1.18348 -3.79578 0
M  V30 851 N 79.8174 1.5752 -0.0501392 0
M  V30 852 C 80.7674 2.07981 0.934231 0
M  V30 853 C 81.7514 0.984745 1.27246 0
M  V30 854 O 82.9434 1.24809 1.25506 0
M  V30 855 C 80.0724 2.62751 2.20945 0
M  V30 856 C 79.1584 3.79225 1.89865 0
M  V30 857 N 79.5494 4.89036 1.29142 0
M  V30 858 C 77.8474 3.88111 2.19741 0
M  V30 859 C 78.5484 5.70084 1.15669 0
M  V30 860 N 77.5244 5.17659 1.65923 0
M  V30 861 H 81.3264 2.90277 0.460053 0
M  V30 862 H 78.8404 1.61665 0.15434 0
M  V30 863 H 80.8374 2.97205 2.9236 0
M  V30 864 H 79.4974 1.81894 2.6897 0
M  V30 865 H 80.5084 5.08854 0.963756 0
M  V30 866 H 77.1854 3.18194 2.70293 0
M  V30 867 H 78.5754 6.68395 0.685356 0
M  V30 868 N 81.2955 -0.223234 1.56011 0
M  V30 869 C 82.5425 -0.947875 1.78946 0
M  V30 870 C 82.8705 -1.844 0.618608 0
M  V30 871 O 82.1255 -1.91629 -0.397093 0
M  V30 872 C 82.4245 -1.81948 3.0762 0
M  V30 873 C 82.0905 -1.07672 4.37856 0
M  V30 874 C 80.7525 -0.871544 4.73242 0
M  V30 875 C 83.1045 -0.552081 5.18268 0
M  V30 876 C 80.4325 -0.129791 5.86556 0
M  V30 877 C 82.7845 0.17632 6.32354 0
M  V30 878 C 81.4485 0.39277 6.66343 0
M  V30 879 H 80.7185 -0.346852 0.654809 0
M  V30 880 H 83.3655 -0.216171 1.90276 0
M  V30 881 H 81.6705 -2.61899 2.91404 0
M  V30 882 H 83.3675 -2.38227 3.22566 0
M  V30 883 H 79.9575 -1.24662 4.1007 0
M  V30 884 H 84.1415 -0.698076 4.91366 0
M  V30 885 H 79.3975 0.048153 6.11381 0
M  V30 886 H 83.5715 0.590367 6.93893 0
M  V30 887 H 81.1985 0.969466 7.53993 0
M  V30 888 N 82.7736 -1.49793 -0.48987 0
M  V30 889 C 84.0506 -1.50348 -1.25119 0
M  V30 890 C 84.4306 -0.237466 -2.0976 0
M  V30 891 O 83.7786 0.77981 -2.14782 0
M  V30 892 C 83.9886 -2.78872 -2.09837 0
M  V30 893 C 85.3366 -3.288 -2.68655 0
M  V30 894 O 86.3606 -2.80065 -2.20096 0
M  V30 895 O 85.2196 -4.13707 -3.57083 0
M  V30 896 H 82.3136 -0.602242 -0.566775 0
M  V30 897 H 84.8596 -1.62067 -0.503229 0
M  V30 898 H 83.6316 -3.62499 -1.47343 0
M  V30 899 H 83.2546 -2.70066 -2.91805 0
M  V30 900 N 84.2517 0.741722 -1.39055 0
M  V30 901 C 85.4987 1.50114 -1.35912 0
M  V30 902 C 85.8267 1.94443 0.0470937 0
M  V30 903 O 85.0817 1.66612 1.02659 0
M  V30 904 C 85.3807 2.7592 -2.27163 0
M  V30 905 C 85.0467 2.50493 -3.74919 0
M  V30 906 C 83.7087 2.43267 -4.1518 0
M  V30 907 C 86.0607 2.28585 -4.684 0
M  V30 908 C 83.3887 2.12166 -5.46994 0
M  V30 909 C 85.7407 1.99002 -6.00484 0
M  V30 910 C 84.4047 1.90241 -6.39816 0
M  V30 911 H 83.6747 0.549306 -0.497336 0
M  V30 912 H 86.3217 0.851896 -1.71508 0
M  V30 913 H 84.6267 3.45553 -1.84663 0
M  V30 914 H 86.3237 3.33923 -2.22028 0
M  V30 915 H 82.9137 2.56992 -3.43006 0
M  V30 916 H 87.0977 2.33139 -4.38132 0
M  V30 917 H 82.3537 2.03901 -5.76398 0
M  V30 918 H 86.5277 1.81057 -6.72452 0
M  V30 919 H 84.1547 1.65907 -7.41875 0
M  V30 920 N 85.7298 1.2412 0.971189 0
M  V30 921 C 86.9758 1.08041 1.71625 0
M  V30 922 C 87.3088 -0.380407 1.90438 0
M  V30 923 O 86.5838 -1.28127 1.46334 0
M  V30 924 C 86.8668 1.81682 3.10908 0
M  V30 925 C 86.7198 3.35493 2.99608 0
M  V30 926 C 88.0388 1.58671 4.10501 0
M  V30 927 H 85.1578 0.39388 0.622919 0
M  V30 928 H 87.7998 1.52743 1.13003 0
M  V30 929 H 85.9498 1.43684 3.60953 0
M  V30 930 H 87.6218 3.83068 2.57015 0
M  V30 931 H 85.8648 3.64052 2.35899 0
M  V30 932 H 86.5358 3.82217 3.98264 0
M  V30 933 H 89.0118 1.91719 3.69301 0
M  V30 934 H 87.8878 2.1266 5.06031 0
M  V30 935 H 88.1488 0.524161 4.38982 0
M  V30 936 N 87.2079 -1.17134 1.05439 0
M  V30 937 C 88.4359 -1.91372 0.786414 0
M  V30 938 C 88.8509 -1.76955 -0.658202 0
M  V30 939 O 88.2079 -1.10838 -1.44987 0
M  V30 940 C 88.2589 -3.42356 1.1608 0
M  V30 941 O 87.9799 -3.56332 2.54871 0
M  V30 942 C 89.4809 -4.33663 0.919322 0
M  V30 943 H 86.7009 -0.607118 0.285743 0
M  V30 944 H 89.2449 -1.48525 1.40572 0
M  V30 945 H 87.3999 -3.82939 0.586191 0
M  V30 946 H 87.8139 -4.49896 2.69618 0
M  V30 947 H 89.2879 -5.38099 1.231 0
M  V30 948 H 89.7649 -4.38959 -0.145359 0
M  V30 949 H 90.3709 -3.98796 1.47789 0
M  V30 950 N 88.686 -0.835752 -1.33615 0
M  V30 951 C 89.633 -0.26473 -2.29277 0
M  V30 952 C 90.603 0.617712 -1.54187 0
M  V30 953 O 91.788 0.556641 -1.825 0
M  V30 954 C 88.928 0.556777 -3.40579 0
M  V30 955 C 88.041 -0.349339 -4.30585 0
M  V30 956 C 87.176 0.482969 -5.29 0
M  V30 957 C 86.215 -0.421732 -6.10645 0
M  V30 958 N 85.352 0.372262 -7.01112 0
M  V30 959 H 90.192 -1.08582 -2.77514 0
M  V30 960 H 87.729 -0.546927 -1.36554 0
M  V30 961 H 89.687 1.04852 -4.03809 0
M  V30 962 H 88.317 1.34286 -2.93542 0
M  V30 963 H 87.369 -0.959372 -3.68104 0
M  V30 964 H 88.681 -1.04445 -4.87742 0
M  V30 965 H 87.835 1.03866 -5.97743 0
M  V30 966 H 86.574 1.21153 -4.72412 0
M  V30 967 H 85.579 -0.989464 -5.40823 0
M  V30 968 H 86.804 -1.14861 -6.69316 0
M  V30 969 H 84.75 1.08426 -6.46977 0
M  V30 970 H 84.667 -0.264198 -7.55538 0
M  V30 971 H 85.935 0.910293 -7.74167 0
M  V30 972 N 90.1641 1.46063 -0.591896 0
M  V30 973 C 91.0971 2.27452 0.184617 0
M  V30 974 C 92.0751 1.36188 0.888351 0
M  V30 975 O 93.2591 1.65606 0.90039 0
M  V30 976 C 90.3861 3.14162 1.26571 0
M  V30 977 C 89.4321 4.21255 0.666814 0
M  V30 978 S 90.2651 5.33034 -0.513345 0
M  V30 979 C 91.4211 6.23311 0.56872 0
M  V30 980 H 91.6541 2.92963 -0.505939 0
M  V30 981 H 89.1871 1.49676 -0.379014 0
M  V30 982 H 91.1451 3.6468 1.88463 0
M  V30 983 H 89.8061 2.47946 1.92826 0
M  V30 984 H 88.9991 4.81788 1.47974 0
M  V30 985 H 88.6011 3.73797 0.123359 0
M  V30 986 H 90.8931 6.61758 1.45198 0
M  V30 987 H 91.8361 7.081 -7.23824e-05 0
M  V30 988 H 92.2441 5.57646 0.876996 0
M  V30 989 N 91.6422 0.330177 1.54103 0
M  V30 990 C 93.0582 -0.0222371 1.59585 0
M  V30 991 C 93.2582 -1.49902 1.34654 0
M  V30 992 O 92.3142 -2.25592 1.13421 0
M  V30 993 C 93.6272 0.401932 2.98002 0
M  V30 994 C 95.1752 0.353145 3.11001 0
M  V30 995 C 95.6502 0.752576 4.51775 0
M  V30 996 N 97.1412 0.706239 4.57784 0
M  V30 997 C 97.8762 0.987417 5.64834 0
M  V30 998 N 97.3722 1.33607 6.79795 0
M  V30 999 N 99.1652 0.91254 5.54643 0
M  V30 1000 H 91.3162 1.29228 1.68564 0
M  V30 1001 H 93.5792 0.525906 0.78875 0
M  V30 1002 H 93.2852 1.4311 3.21267 0
M  V30 1003 H 93.1592 -0.229699 3.765 0
M  V30 1004 H 95.5462 -0.666822 2.87467 0
M  V30 1005 H 95.6272 1.0198 2.34593 0
M  V30 1006 H 95.2712 1.77049 4.76042 0
M  V30 1007 H 95.2012 0.0635409 5.26562 0
M  V30 1008 H 97.6922 0.44889 3.75224 0
M  V30 1009 H 98.0052 1.53582 7.57385 0
M  V30 1010 H 96.3502 1.37439 6.81275 0
M  V30 1011 H 99.5412 0.639601 4.6371 0
M  V30 1012 H 99.7142 1.13503 6.37982 0
M  V30 1013 N 93.1203 -1.57491 0.0584922 0
M  V30 1014 C 94.0303 -2.15448 -0.928414 0
M  V30 1015 C 95.0463 -1.11416 -1.3365 0
M  V30 1016 O 96.2223 -1.4362 -1.41193 0
M  V30 1017 C 93.2873 -2.69393 -2.18239 0
M  V30 1018 C 92.3483 -3.88249 -1.83196 0
M  V30 1019 C 91.5813 -4.39613 -3.02616 0
M  V30 1020 O 91.8043 -3.90023 -4.16219 0
M  V30 1021 O 90.7383 -5.31111 -2.83204 0
M  V30 1022 H 94.5643 -3.00112 -0.465483 0
M  V30 1023 H 92.1493 -1.48499 -0.163826 0
M  V30 1024 H 94.0313 -3.04026 -2.91798 0
M  V30 1025 H 92.7063 -1.87796 -2.63656 0
M  V30 1026 H 91.6133 -3.58492 -1.06931 0
M  V30 1027 H 92.9463 -4.71098 -1.42573 0
M  V30 1028 N 94.5984 0.214957 -1.56127 0
M  V30 1029 C 96.0144 0.564948 -1.49267 0
M  V30 1030 C 96.2144 1.86827 -0.754838 0
M  V30 1031 O 95.2704 2.50745 -0.297198 0
M  V30 1032 C 96.5834 0.638071 -2.93852 0
M  V30 1033 C 98.1314 0.728253 -3.0441 0
M  V30 1034 C 98.6064 0.832663 -4.50367 0
M  V30 1035 N 100.097 0.896712 -4.54437 0
M  V30 1036 C 100.832 0.997324 -5.6466 0
M  V30 1037 N 100.328 1.06147 -6.8462 0
M  V30 1038 N 102.121 1.03297 -5.52527 0
M  V30 1039 H 94.2724 -0.640211 -2.02522 0
M  V30 1040 H 96.5354 -0.225507 -0.920788 0
M  V30 1041 H 96.2414 -0.250126 -3.50809 0
M  V30 1042 H 96.1154 1.49947 -3.46115 0
M  V30 1043 H 98.5024 1.60689 -2.47514 0
M  V30 1044 H 98.5834 -0.158952 -2.55306 0
M  V30 1045 H 98.2274 -0.0415417 -5.07883 0
M  V30 1046 H 98.1574 1.73538 -4.97184 0
M  V30 1047 H 100.648 0.857188 -3.6805 0
M  V30 1048 H 100.961 1.1382 -7.64372 0
M  V30 1049 H 99.3064 1.03049 -6.87318 0
M  V30 1050 H 102.497 0.979558 -4.57736 0
M  V30 1051 H 102.67 1.10793 -6.38458 0
M  V30 1052 N 96.0765 1.50051 0.48192 0
M  V30 1053 C 97.3245 1.60181 1.23234 0
M  V30 1054 C 97.6455 0.299176 1.92691 0
M  V30 1055 O 96.9155 -0.682708 1.83619 0
M  V30 1056 H 95.4955 0.590232 0.457859 0
M  V30 1057 H 98.1575 1.86775 0.556881 0
M  V30 1058 H 97.2535 2.40753 1.98607 0
M  V30 1059 N 97.5546 -0.734337 1.39446 0
M  V30 1060 C 98.8036 -1.48937 1.36017 0
M  V30 1061 C 99.1166 -1.95557 -0.0409005 0
M  V30 1062 O 100.323 -2.70779 -0.19778 0
M  V30 1063 C 98.7786 -2.69125 2.38955 0
M  V30 1064 C 98.3866 -2.29452 3.8478 0
M  V30 1065 C 100.131 -3.46944 2.44603 0
M  V30 1066 C 98.0376 -3.46366 4.79358 0
M  V30 1067 H 96.9676 -0.559296 0.505672 0
M  V30 1068 H 99.6186 -0.800983 1.65095 0
M  V30 1069 H 98.0006 -3.40041 2.02948 0
M  V30 1070 H 99.1746 -1.66077 4.29831 0
M  V30 1071 H 97.4896 -1.64723 3.82433 0
M  V30 1072 H 100.087 -4.33907 3.12456 0
M  V30 1073 H 100.43 -3.89454 1.47076 0
M  V30 1074 H 100.963 -2.83056 2.79507 0
M  V30 1075 H 97.7016 -3.08905 5.78151 0
M  V30 1076 H 97.2216 -4.08719 4.38986 0
M  V30 1077 H 98.9006 -4.12691 4.98292 0
M  V30 1078 N 99.0327 -1.24633 -0.964593 0
M  V30 1079 C 100.31 -0.995809 -1.68354 0
M  V30 1080 C 100.69 0.480964 -2.05548 0
M  V30 1081 O 100.038 1.45599 -1.76105 0
M  V30 1082 C 100.248 -1.92177 -2.91323 0
M  V30 1083 C 101.596 -2.19446 -3.63495 0
M  V30 1084 O 102.62 -1.89855 -3.01386 0
M  V30 1085 O 101.479 -2.69714 -4.75307 0
M  V30 1086 H 98.5727 -0.376854 -0.736146 0
M  V30 1087 H 101.119 -1.35745 -1.0184 0
M  V30 1088 H 99.8907 -2.91938 -2.60553 0
M  V30 1089 H 99.5137 -1.56349 -3.65569 0
M  V30 1090 N 100.511 1.16574 -1.06058 0
M  V30 1091 C 101.757 1.87324 -0.777022 0
M  V30 1092 C 102.09 1.81351 0.694645 0
M  V30 1093 O 101.365 1.22753 1.50871 0
M  V30 1094 C 101.648 3.36991 -1.26922 0
M  V30 1095 C 101.501 3.51667 -2.80447 0
M  V30 1096 C 102.82 4.3131 -0.87521 0
M  V30 1097 H 99.9388 0.680191 -0.28374 0
M  V30 1098 H 102.581 1.37036 -1.3161 0
M  V30 1099 H 100.731 3.79949 -0.81063 0
M  V30 1100 H 102.403 3.17664 -3.34495 0
M  V30 1101 H 100.646 2.93656 -3.19294 0
M  V30 1102 H 101.317 4.56766 -3.0995 0
M  V30 1103 H 103.793 3.9624 -1.27014 0
M  V30 1104 H 102.669 5.34545 -1.2471 0
M  V30 1105 H 102.93 4.41552 0.220071 0
M  V30 1106 N 101.989 0.842826 1.3317 0
M  V30 1107 C 102.919 0.294028 2.31641 0
M  V30 1108 C 103.9 -0.600401 1.59151 0
M  V30 1109 O 105.085 -0.523124 1.87022 0
M  V30 1110 C 102.215 -0.528416 3.43257 0
M  V30 1111 C 101.169 0.27056 4.27144 0
M  V30 1112 C 100.495 -0.675881 5.30411 0
M  V30 1113 C 101.795 1.48981 5.00602 0
M  V30 1114 H 103.489 1.11681 2.77791 0
M  V30 1115 H 101.035 0.538478 1.33553 0
M  V30 1116 H 102.988 -0.922674 4.11175 0
M  V30 1117 H 101.712 -1.38445 2.95805 0
M  V30 1118 H 100.371 0.646427 3.60856 0
M  V30 1119 H 100.019 -1.52842 4.79216 0
M  V30 1120 H 99.7189 -0.145374 5.8742 0
M  V30 1121 H 101.243 -1.06757 6.01195 0
M  V30 1122 H 102.657 1.16849 5.61266 0
M  V30 1123 H 101.054 1.95739 5.6728 0
M  V30 1124 H 102.124 2.25746 4.29147 0
M  V30 1125 N 103.467 -1.45747 0.599634 0
M  V30 1126 C 104.377 -2.34262 -0.125888 0
M  V30 1127 C 105.393 -1.50768 -0.868625 0
M  V30 1128 O 106.569 -1.83592 -0.828003 0
M  V30 1129 C 103.634 -3.28252 -1.11587 0
M  V30 1130 C 102.695 -4.27651 -0.375956 0
M  V30 1131 C 101.928 -5.1715 -1.31877 0
M  V30 1132 O 102.151 -5.09916 -2.55621 0
M  V30 1133 O 101.085 -5.96286 -0.820157 0
M  V30 1134 H 104.911 -2.97688 0.601315 0
M  V30 1135 H 102.496 -1.44999 0.359934 0
M  V30 1136 H 104.378 -3.86191 -1.68626 0
M  V30 1137 H 103.053 -2.67401 -1.82424 0
M  V30 1138 H 101.96 -3.7335 0.236698 0
M  V30 1139 H 103.293 -4.91334 0.29177 0
M  V30 1140 N 104.945 -0.338344 -1.53925 0
M  V30 1141 C 105.878 0.563758 -2.21127 0
M  V30 1142 C 106.856 1.10433 -1.19345 0
M  V30 1143 O 108.04 1.16557 -1.48144 0
M  V30 1144 C 105.167 1.77505 -2.88461 0
M  V30 1145 C 104.213 1.3644 -4.04087 0
M  V30 1146 S 105.046 0.388593 -5.34088 0
M  V30 1147 C 106.202 1.60683 -6.04923 0
M  V30 1148 H 106.435 -0.00704546 -2.97299 0
M  V30 1149 H 103.968 -0.122418 -1.53914 0
M  V30 1150 H 105.926 2.46999 -3.27875 0
M  V30 1151 H 104.587 2.31706 -2.12064 0
M  V30 1152 H 103.78 2.26739 -4.50117 0
M  V30 1153 H 103.382 0.748998 -3.66423 0
M  V30 1154 H 105.674 2.54209 -6.28 0
M  V30 1155 H 106.617 1.18842 -6.98056 0
M  V30 1156 H 107.025 1.80052 -5.35015 0
M  V30 1157 N 106.423 1.57458 -0.0668435 0
M  V30 1158 C 107.373 2.0896 0.912119 0
M  V30 1159 C 108.357 0.998186 1.26195 0
M  V30 1160 O 109.549 1.26133 1.24175 0
M  V30 1161 C 106.678 2.6508 2.18145 0
M  V30 1162 C 105.764 3.81218 1.85832 0
M  V30 1163 N 106.155 4.90378 1.23948 0
M  V30 1164 C 104.453 3.9042 2.15612 0
M  V30 1165 C 105.154 5.71279 1.09616 0
M  V30 1166 N 104.13 5.19389 1.60423 0
M  V30 1167 H 107.932 2.90749 0.42924 0
M  V30 1168 H 105.446 1.6182 0.137184 0
M  V30 1169 H 107.443 3.0029 2.89192 0
M  V30 1170 H 106.103 1.84736 2.67025 0
M  V30 1171 H 107.114 5.09847 0.909731 0
M  V30 1172 H 103.791 3.21043 2.66903 0
M  V30 1173 H 105.181 6.69085 0.614425 0
M  V30 1174 N 107.901 -0.206675 1.56239 0
M  V30 1175 C 108.849 -1.27571 1.94495 0
M  V30 1176 C 109.843 -1.47737 0.828862 0
M  V30 1177 O 111.049 -1.48735 1.0138 0
M  V30 1178 H 107.424 -0.428029 0.6183 0
M  V30 1179 H 109.395 -0.925961 2.8367 0
M  V30 1180 C 108.144 -2.61568 2.29079 0
M  V30 1181 H 107.467 -2.46863 3.14482 0
M  V30 1182 H 108.907 -3.35144 2.5972 0
M  V30 1183 C 107.366 -3.17695 1.12123 0
M  V30 1184 O 107.896 -3.99801 0.390153 0
M  V30 1185 N 106.102 -2.76276 0.901097 0
M  V30 1186 H 105.649 -2.09613 1.49733 0
M  V30 1187 H 105.607 -3.1417 0.120319 0
M  V30 1188 N 109.379 -1.50304 -0.473955 0
M  V30 1189 C 110.309 -1.71886 -1.58042 0
M  V30 1190 C 111.29 -0.567799 -1.60344 0
M  V30 1191 O 112.475 -0.806623 -1.76656 0
M  V30 1192 C 109.605 -1.81036 -2.96384 0
M  V30 1193 C 108.559 -2.962 -3.08949 0
M  V30 1194 C 107.885 -2.9049 -4.48909 0
M  V30 1195 C 109.185 -4.36752 -2.86434 0
M  V30 1196 H 110.879 -2.64527 -1.40234 0
M  V30 1197 H 108.425 -1.27295 -0.673201 0
M  V30 1198 H 110.378 -1.94719 -3.73714 0
M  V30 1199 H 109.102 -0.850147 -3.15341 0
M  V30 1200 H 107.761 -2.82164 -2.3405 0
M  V30 1201 H 107.409 -1.92321 -4.64781 0
M  V30 1202 H 107.109 -3.67802 -4.58253 0
M  V30 1203 H 108.633 -3.06218 -5.28264 0
M  V30 1204 H 110.047 -4.5133 -3.53517 0
M  V30 1205 H 108.444 -5.15493 -3.07225 0
M  V30 1206 H 109.514 -4.49321 -1.82316 0
M  V30 1207 N 110.857 0.726932 -1.39834 0
M  V30 1208 C 111.787 1.85405 -1.41941 0
M  V30 1209 C 112.768 1.67751 -0.281728 0
M  V30 1210 O 113.953 1.8795 -0.488717 0
M  V30 1211 C 111.083 3.23243 -1.2701 0
M  V30 1212 C 110.037 3.55549 -2.38262 0
M  V30 1213 C 109.363 4.9241 -2.08415 0
M  V30 1214 C 110.663 3.577 -3.80589 0
M  V30 1215 H 112.357 1.83899 -2.36266 0
M  V30 1216 H 109.903 0.883349 -1.13723 0
M  V30 1217 H 111.856 4.01775 -1.27103 0
M  V30 1218 H 110.58 3.25296 -0.291564 0
M  V30 1219 H 109.239 2.79351 -2.37399 0
M  V30 1220 H 108.887 4.91052 -1.0898 0
M  V30 1221 H 108.587 5.14992 -2.82943 0
M  V30 1222 H 110.111 5.73289 -2.10171 0
M  V30 1223 H 111.525 4.26293 -3.83337 0
M  V30 1224 H 109.922 3.91804 -4.54543 0
M  V30 1225 H 110.992 2.57328 -4.10987 0
M  V30 1226 N 112.336 1.25143 0.95797 0
M  V30 1227 C 113.564 1.12424 1.73691 0
M  V30 1228 C 113.979 -0.322304 1.86029 0
M  V30 1229 O 113.336 -1.22186 1.35561 0
M  V30 1230 C 113.387 1.76933 3.15241 0
M  V30 1231 O 113.108 3.15932 3.03511 0
M  V30 1232 C 114.609 1.6995 4.09429 0
M  V30 1233 H 111.829 0.3923 0.544373 0
M  V30 1234 H 114.373 1.6544 1.20207 0
M  V30 1235 H 112.528 1.27895 3.6568 0
M  V30 1236 H 112.942 3.47598 3.9278 0
M  V30 1237 H 114.416 2.19753 5.06372 0
M  V30 1238 H 114.893 0.662619 4.34173 0
M  V30 1239 H 115.499 2.18461 3.64904 0
M  V30 1240 N 113.814 -1.1601 1.06675 0
M  V30 1241 C 114.724 -2.24156 0.692179 0
M  V30 1242 C 115.74 -1.71507 -0.293513 0
M  V30 1243 O 116.916 -2.009 -0.141861 0
M  V30 1244 C 113.981 -3.46587 0.0884131 0
M  V30 1245 C 113.042 -4.14257 1.12646 0
M  V30 1246 C 112.275 -5.30844 0.551416 0
M  V30 1247 O 112.498 -5.66858 -0.634656 0
M  V30 1248 O 111.432 -5.87848 1.29298 0
M  V30 1249 H 115.258 -2.58513 1.59388 0
M  V30 1250 H 112.843 -1.23599 0.83926 0
M  V30 1251 H 114.725 -4.20679 -0.246361 0
M  V30 1252 H 113.4 -3.13994 -0.786712 0
M  V30 1253 H 112.307 -3.42118 1.51348 0
M  V30 1254 H 113.64 -4.50914 1.97325 0
M  V30 1255 N 115.292 -0.849877 -1.32721 0
M  V30 1256 C 116.52 -0.464754 -2.01613 0
M  V30 1257 C 116.935 0.937191 -1.63897 0
M  V30 1258 O 116.292 1.61081 -0.857856 0
M  V30 1259 C 116.343 -0.588638 -3.56675 0
M  V30 1260 O 116.064 -1.93535 -3.93034 0
M  V30 1261 C 117.565 -0.2019 -4.4284 0
M  V30 1262 H 114.785 -0.183215 -0.645502 0
M  V30 1263 H 117.329 -1.1455 -1.69407 0
M  V30 1264 H 115.484 0.0443159 -3.87375 0
M  V30 1265 H 115.898 -1.92871 -4.87751 0
M  V30 1266 H 117.372 -0.339599 -5.50954 0
M  V30 1267 H 117.849 0.857224 -4.30753 0
M  V30 1268 H 118.455 -0.809733 -4.17521 0
M  V30 1269 N 116.77 1.45427 -0.607355 0
M  V30 1270 C 118.019 2.01452 -0.100036 0
M  V30 1271 C 118.332 1.48159 1.27704 0
M  V30 1272 O 119.538 1.96159 1.87707 0
M  V30 1273 C 117.994 3.59672 -0.128158 0
M  V30 1274 C 117.602 4.21962 -1.50507 0
M  V30 1275 C 119.346 4.23262 0.323932 0
M  V30 1276 C 117.253 5.72333 -1.48959 0
M  V30 1277 H 116.183 0.75325 -0.0336299 0
M  V30 1278 H 118.834 1.66901 -0.76265 0
M  V30 1279 H 117.216 3.91411 0.601105 0
M  V30 1280 H 118.39 4.01796 -2.25602 0
M  V30 1281 H 116.705 3.70565 -1.89923 0
M  V30 1282 H 119.302 5.33522 0.354691 0
M  V30 1283 H 119.645 3.93921 1.34656 0
M  V30 1284 H 120.178 3.96239 -0.352056 0
M  V30 1285 H 116.917 6.06373 -2.48981 0
M  V30 1286 H 116.437 5.94691 -0.781214 0
M  V30 1287 H 118.116 6.35525 -1.21313 0
M  V30 1288 N 118.248 0.346503 1.53744 0
M  V30 1289 C 119.18 -0.543316 2.22667 0
M  V30 1290 C 120.193 -1.06159 1.23427 0
M  V30 1291 O 121.382 -0.971235 1.49764 0
M  V30 1292 C 118.482 -1.76076 2.89569 0
M  V30 1293 C 117.655 -1.37727 4.15151 0
M  V30 1294 C 116.714 -2.45471 4.65436 0
M  V30 1295 O 115.74 -2.08655 5.29577 0
M  V30 1296 N 116.942 -3.7677 4.41616 0
M  V30 1297 H 119.707 0.0469703 2.99663 0
M  V30 1298 H 117.268 0.170766 1.60997 0
M  V30 1299 H 119.26 -2.47593 3.20125 0
M  V30 1300 H 117.83 -2.25835 2.16142 0
M  V30 1301 H 117.05 -0.492746 3.91108 0
M  V30 1302 H 118.338 -1.09708 4.96832 0
M  V30 1303 H 117.736 -4.09467 3.90325 0
M  V30 1304 H 116.293 -4.44448 4.7677 0
M  V30 1305 N 119.726 -1.57421 0.075193 0
M  V30 1306 C 120.674 -2.14124 -0.908508 0
M  V30 1307 C 121.668 -1.07898 -1.30592 0
M  V30 1308 O 122.874 -1.26273 -1.28277 0
M  V30 1309 H 119.249 -0.684707 -0.310935 0
M  V30 1310 H 121.22 -2.95634 -0.405374 0
M  V30 1311 C 119.969 -2.72044 -2.16535 0
M  V30 1312 H 119.292 -3.53456 -1.86839 0
M  V30 1313 H 120.732 -3.15311 -2.83469 0
M  V30 1314 C 119.191 -1.66968 -2.92615 0
M  V30 1315 O 119.721 -1.0967 -3.86439 0
M  V30 1316 N 117.927 -1.37923 -2.55784 0
M  V30 1317 H 117.474 -1.84706 -1.79559 0
M  V30 1318 H 117.432 -0.67852 -3.06991 0
M  V30 1319 N 121.204 0.198386 -1.56346 0
M  V30 1320 C 122.615 0.763358 -1.70381 0
M  V30 1321 C 122.966 1.83995 -0.681203 0
M  V30 1322 O 122.091 2.15785 0.16305 0
M  V30 1323 C 122.686 1.39143 -3.08909 0
M  V30 1324 C 121.245 1.90352 -3.2472 0
M  V30 1325 C 120.392 0.772233 -2.6633 0
M  V30 1326 H 123.343 -0.0266377 -1.58678 0
M  V30 1327 H 123.364 2.26076 -3.06055 0
M  V30 1328 H 122.876 0.607638 -3.83314 0
M  V30 1329 H 120.977 2.71461 -2.55225 0
M  V30 1330 H 121.09 2.06757 -4.3219 0
M  V30 1331 H 119.454 1.18566 -2.2542 0
M  V30 1332 H 120.237 0.00073556 -3.433 0
M  V30 1333 N 122.682 1.50554 0.465978 0
M  V30 1334 C 123.592 1.72585 1.58907 0
M  V30 1335 C 124.608 0.60911 1.6299 0
M  V30 1336 O 125.784 0.88804 1.80765 0
M  V30 1337 C 122.849 1.81995 2.95091 0
M  V30 1338 C 121.91 3.05751 3.01355 0
M  V30 1339 C 121.143 3.14702 4.31043 0
M  V30 1340 O 121.366 2.30313 5.21835 0
M  V30 1341 O 120.3 4.07468 4.43005 0
M  V30 1342 H 124.126 2.67799 1.43239 0
M  V30 1343 H 121.711 1.34711 0.646013 0
M  V30 1344 H 123.593 1.90335 3.75966 0
M  V30 1345 H 122.268 0.899659 3.10947 0
M  V30 1346 H 121.175 3.02908 2.19539 0
M  V30 1347 H 122.508 3.97375 2.90437 0
M  V30 1348 N 124.16 -0.719506 1.40217 0
M  V30 1349 C 125.123 -1.8153 1.39927 0
M  V30 1350 C 126.123 -1.58095 0.293723 0
M  V30 1351 O 127.313 -1.65209 0.552429 0
M  V30 1352 C 124.445 -3.19561 1.18716 0
M  V30 1353 H 125.638 -1.83186 2.37451 0
M  V30 1354 H 123.191 -0.924746 1.26008 0
M  V30 1355 H 123.926 -3.23557 0.219366 0
M  V30 1356 H 123.711 -3.3797 1.98793 0
M  V30 1357 H 125.201 -3.99598 1.21291 0
M  V30 1358 N 125.638 -1.25649 -0.95132 0
M  V30 1359 C 126.568 -1.08808 -2.06599 0
M  V30 1360 C 127.549 0.00382547 -1.701 0
M  V30 1361 O 128.734 -0.166325 -1.93486 0
M  V30 1362 C 125.864 -0.709542 -3.39975 0
M  V30 1363 C 124.818 -1.75206 -3.90496 0
M  V30 1364 C 124.144 -1.22811 -5.20405 0
M  V30 1365 C 125.444 -3.15153 -4.16504 0
M  V30 1366 H 127.138 -2.02048 -2.20946 0
M  V30 1367 H 124.684 -0.972835 -1.06169 0
M  V30 1368 H 126.637 -0.578649 -4.17408 0
M  V30 1369 H 125.361 0.258556 -3.25575 0
M  V30 1370 H 124.02 -1.87145 -3.15234 0
M  V30 1371 H 123.668 -0.250145 -5.02378 0
M  V30 1372 H 123.368 -1.92492 -5.55176 0
M  V30 1373 H 124.892 -1.10968 -6.00432 0
M  V30 1374 H 126.306 -3.06349 -4.84586 0
M  V30 1375 H 124.703 -3.82333 -4.62538 0
M  V30 1376 H 125.773 -3.61966 -3.22658 0
M  V30 1377 N 127.117 1.15442 -1.07289 0
M  V30 1378 C 128.064 2.20161 -0.692653 0
M  V30 1379 C 129.034 1.63073 0.31564 0
M  V30 1380 O 130.219 1.89725 0.202235 0
M  V30 1381 C 127.359 3.44967 -0.0959509 0
M  V30 1382 C 126.472 4.16256 -1.15564 0
M  V30 1383 C 125.607 5.28609 -0.524011 0
M  V30 1384 C 124.646 5.91715 -1.56653 0
M  V30 1385 N 123.783 6.9554 -0.957531 0
M  V30 1386 H 128.623 2.52037 -1.59002 0
M  V30 1387 H 126.16 1.2378 -0.794798 0
M  V30 1388 H 128.118 4.16341 0.267628 0
M  V30 1389 H 126.748 3.1361 0.764772 0
M  V30 1390 H 125.8 3.43385 -1.6368 0
M  V30 1391 H 127.112 4.59268 -1.94613 0
M  V30 1392 H 126.266 6.06604 -0.108032 0
M  V30 1393 H 125.005 4.86787 0.29825 0
M  V30 1394 H 124.01 5.12433 -1.9923 0
M  V30 1395 H 125.235 6.35614 -2.39107 0
M  V30 1396 H 123.181 6.55814 -0.156162 0
M  V30 1397 H 123.098 7.36977 -1.68526 0
M  V30 1398 H 124.366 7.77435 -0.567032 0
M  V30 1399 N 128.595 0.856903 1.32268 0
M  V30 1400 C 129.841 0.471355 1.97863 0
M  V30 1401 C 130.196 -0.962896 1.66572 0
M  V30 1402 O 129.489 -1.66686 0.944797 0
M  V30 1403 C 129.683 0.649919 3.51441 0
M  V30 1404 C 129.512 2.09997 3.97657 0
M  V30 1405 C 128.282 2.73893 4.2463 0
M  V30 1406 C 130.48 3.07081 4.1256 0
M  V30 1407 N 128.462 4.09786 4.57109 0
M  V30 1408 C 129.833 4.27968 4.48602 0
M  V30 1409 C 131.888 3.03247 3.949 0
M  V30 1410 C 130.591 5.45521 4.68827 0
M  V30 1411 C 132.617 4.20046 4.16311 0
M  V30 1412 C 131.979 5.39692 4.52672 0
M  V30 1413 H 128.078 0.221263 0.750044 0
M  V30 1414 H 130.662 1.10876 1.60045 0
M  V30 1415 H 128.833 0.0421938 3.88377 0
M  V30 1416 H 130.565 0.234044 4.04023 0
M  V30 1417 H 127.32 2.24918 4.16784 0
M  V30 1418 H 127.744 4.7989 4.7753 0
M  V30 1419 H 132.386 2.11863 3.65888 0
M  V30 1420 H 130.104 6.37434 4.96693 0
M  V30 1421 H 133.69 4.18517 4.04147 0
M  V30 1422 H 132.57 6.28566 4.68907 0
M  V30 1423 N 130.073 -1.45103 0.615059 0
M  V30 1424 C 131.322 -2.01396 0.110718 0
M  V30 1425 C 131.635 -1.48834 -1.26916 0
M  V30 1426 O 132.841 -1.97152 -1.86664 0
M  V30 1427 C 131.297 -3.59599 0.14723 0
M  V30 1428 C 130.905 -4.21158 1.52743 0
M  V30 1429 C 132.649 -4.23428 -0.30148 0
M  V30 1430 C 130.556 -5.71535 1.51992 0
M  V30 1431 H 129.486 -0.753061 0.0376241 0
M  V30 1432 H 132.137 -1.66494 0.77149 0
M  V30 1433 H 130.519 -3.91724 -0.580339 0
M  V30 1434 H 131.693 -4.00594 2.2773 0
M  V30 1435 H 130.008 -3.69552 1.91886 0
M  V30 1436 H 132.605 -5.33703 -0.326392 0
M  V30 1437 H 132.948 -3.94629 -1.32565 0
M  V30 1438 H 133.481 -3.96047 0.373065 0
M  V30 1439 H 130.22 -6.05044 2.52193 0
M  V30 1440 H 129.74 -5.94268 0.81274 0
M  V30 1441 H 131.419 -6.34873 1.24681 0
M  V30 1442 N 131.551 -0.354651 -1.53558 0
M  V30 1443 C 132.481 0.489091 -2.2832 0
M  V30 1444 C 133.462 1.09324 -1.30316 0
M  V30 1445 O 134.647 1.11255 -1.59173 0
M  V30 1446 C 131.777 1.63456 -3.0643 0
M  V30 1447 C 130.731 1.1582 -4.12031 0
M  V30 1448 C 130.057 2.39305 -4.7816 0
M  V30 1449 C 131.357 0.250731 -5.21698 0
M  V30 1450 H 133.051 -0.134614 -2.99097 0
M  V30 1451 H 130.597 -0.0661826 -1.43848 0
M  V30 1452 H 132.55 2.23136 -3.57475 0
M  V30 1453 H 131.274 2.28533 -2.33325 0
M  V30 1454 H 129.933 0.584146 -3.61916 0
M  V30 1455 H 129.581 3.02814 -4.01637 0
M  V30 1456 H 129.281 2.08109 -5.49513 0
M  V30 1457 H 130.805 2.99691 -5.31994 0
M  V30 1458 H 132.219 0.754695 -5.68311 0
M  V30 1459 H 130.616 0.0301468 -6.00092 0
M  V30 1460 H 131.686 -0.710125 -4.79672 0
M  V30 1461 N 133.029 1.57378 -0.0835403 0
M  V30 1462 C 134.306 1.85363 0.624507 0
M  V30 1463 C 134.686 0.978239 1.87066 0
M  V30 1464 O 134.034 0.0475908 2.2845 0
M  V30 1465 C 134.244 3.35795 0.950947 0
M  V30 1466 C 135.592 4.03581 1.31939 0
M  V30 1467 O 136.616 3.40609 1.04232 0
M  V30 1468 O 135.475 5.14672 1.83779 0
M  V30 1469 H 132.569 0.766162 0.311329 0
M  V30 1470 H 135.115 1.69307 -0.115362 0
M  V30 1471 H 133.887 3.91244 0.0663899 0
M  V30 1472 H 133.51 3.57154 1.74719 0
M  V30 1473 N 134.507 -0.190092 1.56449 0
M  V30 1474 C 135.923 -0.54113 1.50146 0
M  V30 1475 C 136.123 -1.85603 0.784465 0
M  V30 1476 O 135.179 -2.5024 0.337051 0
M  V30 1477 C 136.492 -0.591241 2.9483 0
M  V30 1478 C 138.04 -0.679732 3.0553 0
M  V30 1479 C 138.515 -0.760908 4.51635 0
M  V30 1480 N 140.006 -0.824302 4.55806 0
M  V30 1481 C 140.741 -0.907365 5.66175 0
M  V30 1482 N 140.237 -0.952422 6.86222 0
M  V30 1483 N 142.03 -0.94494 5.541 0
M  V30 1484 H 134.181 0.67235 2.01478 0
M  V30 1485 H 136.444 0.240127 0.917084 0
M  V30 1486 H 136.15 0.305905 3.50367 0
M  V30 1487 H 136.024 -1.44422 3.48457 0
M  V30 1488 H 138.411 -1.56731 2.50039 0
M  V30 1489 H 138.492 0.199549 2.5502 0
M  V30 1490 H 138.136 0.122336 5.07753 0
M  V30 1491 H 138.066 -1.65606 4.99882 0
M  V30 1492 H 140.557 -0.798526 3.69367 0
M  V30 1493 H 140.87 -1.01645 7.66086 0
M  V30 1494 H 139.215 -0.921014 6.8887 0
M  V30 1495 H 142.406 -0.906612 4.59236 0
M  V30 1496 H 142.579 -1.00622 6.4014 0
M  V30 1497 N 135.985 -1.50799 -0.457987 0
M  V30 1498 C 136.932 -1.70617 -1.5543 0
M  V30 1499 C 137.902 -0.547562 -1.56815 0
M  V30 1500 O 139.087 -0.779647 -1.74144 0
M  V30 1501 C 136.227 -1.81831 -2.93311 0
M  V30 1502 C 135.34 -3.09278 -3.01615 0
M  V30 1503 C 134.475 -3.11209 -4.30491 0
M  V30 1504 C 133.514 -4.33055 -4.32585 0
M  V30 1505 N 132.651 -4.32652 -5.52952 0
M  V30 1506 H 137.491 -2.64207 -1.37836 0
M  V30 1507 H 135.028 -1.30959 -0.669937 0
M  V30 1508 H 136.986 -1.86314 -3.73287 0
M  V30 1509 H 135.616 -0.916685 -3.0951 0
M  V30 1510 H 134.668 -3.14203 -2.1443 0
M  V30 1511 H 135.98 -3.99233 -2.99022 0
M  V30 1512 H 135.134 -3.14494 -5.18824 0
M  V30 1513 H 133.873 -2.19106 -4.35711 0
M  V30 1514 H 132.878 -4.29969 -3.42647 0
M  V30 1515 H 134.103 -5.264 -4.29046 0
M  V30 1516 H 132.049 -3.43409 -5.58933 0
M  V30 1517 H 131.966 -5.16392 -5.52155 0
M  V30 1518 H 133.234 -4.40101 -6.43375 0
M  V30 1519 N 137.463 0.71206 -1.40597 0
M  V30 1520 C 138.712 1.46754 -1.38369 0
M  V30 1521 C 139.025 1.95598 0.0097839 0
M  V30 1522 O 140.231 2.71059 0.154677 0
M  V30 1523 C 138.687 2.65289 -2.43207 0
M  V30 1524 C 138.295 2.23301 -3.88382 0
M  V30 1525 C 140.039 3.43008 -2.50091 0
M  V30 1526 C 137.946 3.38696 -4.84808 0
M  V30 1527 H 136.876 0.55118 -0.514506 0
M  V30 1528 H 139.527 0.774616 -1.66349 0
M  V30 1529 H 137.909 3.36769 -2.08332 0
M  V30 1530 H 139.083 1.59218 -4.32419 0
M  V30 1531 H 137.398 1.58618 -3.85006 0
M  V30 1532 H 139.995 4.28881 -3.1932 0
M  V30 1533 H 140.338 3.87065 -1.53253 0
M  V30 1534 H 140.871 2.78574 -2.83974 0
M  V30 1535 H 137.61 2.99668 -5.82992 0
M  V30 1536 H 137.13 4.01683 -4.45433 0
M  V30 1537 H 138.809 4.04712 -5.04794 0
M  V30 1538 N 138.941 1.26152 0.944643 0
M  V30 1539 C 140.169 1.14259 1.72489 0
M  V30 1540 C 140.584 -0.302555 1.8636 0
M  V30 1541 O 139.941 -1.20741 1.36849 0
M  V30 1542 C 139.992 1.80266 3.13347 0
M  V30 1543 O 139.713 3.19133 3.00143 0
M  V30 1544 C 141.214 1.74283 4.07603 0
M  V30 1545 H 138.434 0.398051 0.540181 0
M  V30 1546 H 140.978 1.66706 1.18446 0
M  V30 1547 H 139.133 1.31766 3.64303 0
M  V30 1548 H 139.547 3.51744 3.89071 0
M  V30 1549 H 141.021 2.25111 5.04013 0
M  V30 1550 H 141.498 0.708631 4.33446 0
M  V30 1551 H 142.104 2.22319 3.62567 0
M  V30 1552 N 140.419 -1.14872 1.07899 0
M  V30 1553 C 141.382 -2.17986 0.708161 0
M  V30 1554 C 142.382 -1.58775 -0.25442 0
M  V30 1555 O 143.572 -1.74166 -0.034645 0
M  V30 1556 C 140.704 -3.40871 0.0446929 0
M  V30 1557 H 141.897 -2.52306 1.62116 0
M  V30 1558 H 139.45 -1.2943 0.876218 0
M  V30 1559 H 140.185 -3.12124 -0.880281 0
M  V30 1560 H 139.97 -3.8511 0.737091 0
M  V30 1561 H 141.46 -4.17121 -0.19991 0
M  V30 1562 N 141.898 -0.863906 -1.31812 0
M  V30 1563 C 143.175 -0.39275 -1.91616 0
M  V30 1564 C 143.555 1.12461 -1.7865 0
M  V30 1565 O 142.903 1.95045 -1.19037 0
M  V30 1566 C 143.113 -0.867385 -3.38049 0
M  V30 1567 C 144.461 -0.889966 -4.15168 0
M  V30 1568 O 145.485 -0.812635 -3.46806 0
M  V30 1569 O 144.344 -1.00079 -5.37258 0
M  V30 1570 H 141.438 -0.116358 -0.818773 0
M  V30 1571 H 143.984 -0.951418 -1.40521 0
M  V30 1572 H 142.756 -1.91081 -3.41473 0
M  V30 1573 H 142.379 -0.286687 -3.96565 0
M  V30 1574 N 143.376 1.44774 -0.622745 0
M  V30 1575 C 144.601 2.06999 -0.128968 0
M  V30 1576 C 145.026 1.4617 1.1839 0
M  V30 1577 O 144.384 0.560007 1.72434 0
M  V30 1578 C 144.432 3.60595 -0.0188351 0
M  V30 1579 O 143.536 3.99398 1.02739 0
M  V30 1580 H 142.877 0.659047 -0.0809544 0
M  V30 1581 H 145.407 1.85784 -0.85705 0
M  V30 1582 H 145.417 4.07627 0.174476 0
M  V30 1583 H 144.092 4.04252 -0.977384 0
M  V30 1584 H 142.669 3.64011 0.809326 0
M  V30 1585 N 144.854 0.36279 1.53368 0
M  V30 1586 C 146.1 -0.228113 2.01513 0
M  V30 1587 C 146.433 -1.48648 1.2497 0
M  V30 1588 O 145.708 -1.91459 0.342616 0
M  V30 1589 C 145.991 -0.522884 3.56284 0
M  V30 1590 C 145.844 0.74892 4.43521 0
M  V30 1591 C 147.163 -1.32461 4.19693 0
M  V30 1592 H 144.282 -0.0814343 0.732487 0
M  V30 1593 H 146.924 0.48713 1.83649 0
M  V30 1594 H 145.074 -1.1322 3.71636 0
M  V30 1595 H 146.746 1.38648 4.39971 0
M  V30 1596 H 144.989 1.36986 4.11603 0
M  V30 1597 H 145.66 0.497667 5.49752 0
M  V30 1598 H 148.136 -0.809203 4.08156 0
M  V30 1599 H 147.012 -1.49961 5.28018 0
M  V30 1600 H 147.273 -2.33232 3.75573 0
M  V30 1601 N 146.332 -1.57332 0.0918853 0
M  V30 1602 C 147.58 -1.93853 -0.571446 0
M  V30 1603 C 147.901 -0.974212 -1.6892 0
M  V30 1604 O 147.171 -0.0257254 -1.95883 0
M  V30 1605 H 145.751 -0.715666 -0.214082 0
M  V30 1606 H 148.413 -1.94287 0.154464 0
M  V30 1607 H 147.509 -2.96191 -0.983729 0
M  V30 1608 N 147.81 0.181792 -1.56548 0
M  V30 1609 C 148.74 1.22765 -1.98623 0
M  V30 1610 C 149.721 1.46747 -0.860189 0
M  V30 1611 O 150.906 1.58259 -1.12551 0
M  V30 1612 C 148.036 2.56894 -2.33715 0
M  V30 1613 C 146.99 2.475 -3.49182 0
M  V30 1614 C 146.316 3.86023 -3.69986 0
M  V30 1615 C 147.616 1.98866 -4.82959 0
M  V30 1616 H 149.31 0.877942 -2.86239 0
M  V30 1617 H 146.856 0.42088 -1.37712 0
M  V30 1618 H 148.809 3.30253 -2.61746 0
M  V30 1619 H 147.533 2.93632 -1.42997 0
M  V30 1620 H 146.192 1.76596 -3.21262 0
M  V30 1621 H 145.84 4.20136 -2.76576 0
M  V30 1622 H 145.54 3.80609 -4.47672 0
M  V30 1623 H 147.064 4.60984 -4.00407 0
M  V30 1624 H 148.478 2.61992 -5.09934 0
M  V30 1625 H 146.875 2.04424 -5.64208 0
M  V30 1626 H 147.945 0.942465 -4.75653 0
M  V30 1627 N 149.288 1.51039 0.449983 0
M  V30 1628 C 150.536 1.62759 1.19808 0
M  V30 1629 C 150.857 0.339981 1.92013 0
M  V30 1630 O 150.127 -0.643606 1.85026 0
M  V30 1631 H 148.707 0.599811 0.445237 0
M  V30 1632 H 151.369 1.87914 0.517138 0
M  V30 1633 H 150.465 2.44911 1.93455 0
M  V30 1634 N 150.766 -0.704594 1.40972 0
M  V30 1635 C 151.696 -1.83124 1.44872 0
M  V30 1636 C 152.677 -1.67281 0.30838 0
M  V30 1637 O 153.862 -1.87149 0.518556 0
M  V30 1638 C 150.992 -3.21181 1.32136 0
M  V30 1639 C 149.946 -3.51714 2.43888 0
M  V30 1640 C 149.272 -4.89032 2.16222 0
M  V30 1641 C 150.572 -3.516 3.86232 0
M  V30 1642 H 152.266 -1.80117 2.39161 0
M  V30 1643 H 149.812 -0.865145 1.15114 0
M  V30 1644 H 151.765 -3.99702 1.33479 0
M  V30 1645 H 150.489 -3.24791 0.343279 0
M  V30 1646 H 149.148 -2.75539 2.41813 0
M  V30 1647 H 148.796 -4.89256 1.16778 0
M  V30 1648 H 148.496 -5.10426 2.911 0
M  V30 1649 H 150.02 -5.69873 2.19265 0
M  V30 1650 H 151.434 -4.2014 3.9007 0
M  V30 1651 H 149.831 -3.84523 4.60719 0
M  V30 1652 H 150.901 -2.50757 4.15029 0
M  V30 1653 N 152.244 -1.26651 -0.937939 0
M  V30 1654 C 153.472 -1.15173 -1.7188 0
M  V30 1655 C 153.887 0.292668 -1.86518 0
M  V30 1656 O 153.244 1.20014 -1.37488 0
M  V30 1657 C 153.295 -1.81925 -3.12387 0
M  V30 1658 O 153.016 -3.2072 -2.98446 0
M  V30 1659 C 154.517 -1.76442 -4.06673 0
M  V30 1660 H 151.737 -0.400911 -0.538063 0
M  V30 1661 H 154.281 -1.67332 -1.1756 0
M  V30 1662 H 152.436 -1.33696 -3.63599 0
M  V30 1663 H 152.85 -3.53802 -3.872 0
M  V30 1664 H 154.324 -2.27781 -5.02812 0
M  V30 1665 H 154.801 -0.731608 -4.33064 0
M  V30 1666 H 155.407 -2.24238 -3.61382 0
M  V30 1667 N 153.722 1.14298 -1.08507 0
M  V30 1668 C 154.947 1.8976 -0.837001 0
M  V30 1669 C 155.372 1.78097 0.605228 0
M  V30 1670 O 154.73 1.12188 1.4242 0
M  V30 1671 C 154.778 3.37685 -1.26495 0
M  V30 1672 O 153.882 4.10281 -0.417514 0
M  V30 1673 H 153.223 0.590365 -0.303917 0
M  V30 1674 H 155.753 1.44672 -1.44676 0
M  V30 1675 H 155.763 3.88501 -1.24625 0
M  V30 1676 H 154.438 3.45492 -2.31534 0
M  V30 1677 H 153.015 3.69536 -0.499722 0
M  V30 1678 N 155.201 0.870884 1.31352 0
M  V30 1679 C 156.111 0.330783 2.32256 0
M  V30 1680 C 157.127 -0.559767 1.6475 0
M  V30 1681 O 158.303 -0.456263 1.96164 0
M  V30 1682 C 155.368 -0.458137 3.4366 0
M  V30 1683 C 154.429 0.460482 4.26823 0
M  V30 1684 C 153.662 -0.290881 5.32907 0
M  V30 1685 O 153.885 -1.51885 5.49806 0
M  V30 1686 O 152.819 0.351732 6.00871 0
M  V30 1687 H 156.645 1.16718 2.80376 0
M  V30 1688 H 154.23 0.634285 1.35267 0
M  V30 1689 H 156.112 -0.905343 4.1156 0
M  V30 1690 H 154.787 -1.27106 2.97701 0
M  V30 1691 H 153.694 0.956207 3.61673 0
M  V30 1692 H 155.027 1.23903 4.7635 0
M  V30 1693 N 156.679 -1.44442 0.630414 0
M  V30 1694 C 157.609 -2.33418 -0.0618083 0
M  V30 1695 C 158.59 -1.48165 -0.835541 0
M  V30 1696 O 159.775 -1.76886 -0.801564 0
M  V30 1697 C 156.905 -3.31222 -1.04449 0
M  V30 1698 C 155.859 -4.26288 -0.382436 0
M  V30 1699 C 155.185 -5.13954 -1.47497 0
M  V30 1700 C 156.485 -5.1744 0.710865 0
M  V30 1701 H 158.179 -2.91548 0.681184 0
M  V30 1702 H 155.725 -1.40191 0.329026 0
M  V30 1703 H 157.678 -3.92351 -1.53748 0
M  V30 1704 H 156.402 -2.71299 -1.81836 0
M  V30 1705 H 155.061 -3.6649 0.0899054 0
M  V30 1706 H 154.709 -4.50385 -2.2397 0
M  V30 1707 H 154.409 -5.7837 -1.03737 0
M  V30 1708 H 155.933 -5.77955 -1.96979 0
M  V30 1709 H 157.347 -5.72509 0.300996 0
M  V30 1710 H 155.744 -5.90455 1.07156 0
M  V30 1711 H 156.814 -4.58496 1.57829 0
M  V30 1712 N 158.157 -0.370918 -1.53173 0
M  V30 1713 C 159.573 -0.0200818 -1.59587 0
M  V30 1714 C 159.773 1.46279 -1.38581 0
M  V30 1715 O 158.829 2.22506 -1.19363 0
M  V30 1716 C 160.142 -0.4808 -2.96831 0
M  V30 1717 C 161.69 -0.435477 -3.09956 0
M  V30 1718 C 162.165 -0.872092 -4.4962 0
M  V30 1719 N 163.656 -0.827364 -4.55751 0
M  V30 1720 C 164.391 -1.13683 -5.62018 0
M  V30 1721 N 163.887 -1.51584 -6.76014 0
M  V30 1722 N 165.68 -1.05927 -5.52029 0
M  V30 1723 H 157.831 -1.33652 -1.65079 0
M  V30 1724 H 160.094 -0.546634 -0.774529 0
M  V30 1725 H 159.8 -1.51577 -3.1736 0
M  V30 1726 H 159.674 0.129796 -3.76977 0
M  V30 1727 H 162.061 0.590371 -2.89134 0
M  V30 1728 H 162.142 -1.08164 -2.31806 0
M  V30 1729 H 161.786 -1.89608 -4.71181 0
M  V30 1730 H 161.716 -0.203127 -5.26208 0
M  V30 1731 H 164.207 -0.548216 -3.73902 0
M  V30 1732 H 164.52 -1.73609 -7.53047 0
M  V30 1733 H 162.865 -1.55454 -6.77391 0
M  V30 1734 H 166.056 -0.762321 -4.61851 0
M  V30 1735 H 166.229 -1.30378 -6.34749 0
M  V30 1736 N 159.635 1.57281 -0.100228 0
M  V30 1737 C 160.86 1.99302 0.573881 0
M  V30 1738 C 161.285 0.979059 1.60611 0
M  V30 1739 O 160.643 -0.0517803 1.81226 0
M  V30 1740 C 160.691 3.40274 1.19358 0
M  V30 1741 O 159.795 3.41676 2.30935 0
M  V30 1742 H 159.136 0.647944 0.145138 0
M  V30 1743 H 161.666 2.03779 -0.183156 0
M  V30 1744 H 161.676 3.78078 1.53365 0
M  V30 1745 H 160.351 4.13594 0.437385 0
M  V30 1746 H 158.928 3.15672 1.98509 0
M  V30 1747 N 161.113 -0.173488 1.56642 0
M  V30 1748 C 162.359 -0.887108 1.83035 0
M  V30 1749 C 162.714 -1.79965 0.680461 0
M  V30 1750 O 162.007 -1.88854 -0.323225 0
M  V30 1751 C 162.201 -1.72069 3.13252 0
M  V30 1752 C 162.03 -0.89035 4.40798 0
M  V30 1753 C 160.8 -0.566282 5.02117 0
M  V30 1754 C 162.998 -0.232921 5.13772 0
M  V30 1755 N 160.98 0.280427 6.13259 0
M  V30 1756 C 162.351 0.475046 6.18177 0
M  V30 1757 C 164.406 -0.150863 4.97671 0
M  V30 1758 C 163.109 1.25729 7.08227 0
M  V30 1759 C 165.135 0.618039 5.88162 0
M  V30 1760 C 164.497 1.31438 6.92029 0
M  V30 1761 H 160.596 -0.303303 0.720785 0
M  V30 1762 H 163.18 -0.154244 1.94088 0
M  V30 1763 H 161.351 -2.42499 3.03395 0
M  V30 1764 H 163.083 -2.37545 3.2765 0
M  V30 1765 H 159.838 -0.895852 4.6505 0
M  V30 1766 H 160.262 0.694027 6.73433 0
M  V30 1767 H 164.904 -0.674868 4.17379 0
M  V30 1768 H 162.622 1.79265 7.87966 0
M  V30 1769 H 166.208 0.683173 5.77775 0
M  V30 1770 H 165.088 1.89981 7.6084 0
M  V30 1771 N 162.591 -1.51276 -0.441967 0
M  V30 1772 C 163.521 -1.752 -1.54361 0
M  V30 1773 C 164.502 -0.601682 -1.59103 0
M  V30 1774 O 165.687 -0.843913 -1.74905 0
M  V30 1775 C 162.817 -1.87282 -2.92477 0
M  V30 1776 C 161.771 -3.02687 -3.02596 0
M  V30 1777 C 161.097 -2.99947 -4.42647 0
M  V30 1778 C 162.397 -4.4273 -2.77106 0
M  V30 1779 H 164.091 -2.67442 -1.34592 0
M  V30 1780 H 161.637 -1.28694 -0.646048 0
M  V30 1781 H 163.59 -2.02602 -3.695 0
M  V30 1782 H 162.314 -0.916844 -3.13467 0
M  V30 1783 H 160.973 -2.87065 -2.28012 0
M  V30 1784 H 160.621 -2.02136 -4.60597 0
M  V30 1785 H 160.321 -3.77439 -4.50348 0
M  V30 1786 H 161.845 -3.17354 -5.2165 0
M  V30 1787 H 163.259 -4.58727 -3.43864 0
M  V30 1788 H 161.656 -5.21893 -2.96222 0
M  V30 1789 H 162.726 -4.53087 -1.72744 0
M  V30 1790 N 164.069 0.697108 -1.41344 0
M  V30 1791 C 164.979 1.84088 -1.45427 0
M  V30 1792 C 165.995 1.70545 -0.34501 0
M  V30 1793 O 167.171 1.92488 -0.592492 0
M  V30 1794 C 164.236 3.20056 -1.33286 0
M  V30 1795 C 163.297 3.45718 -2.54514 0
M  V30 1796 C 162.53 4.75199 -2.42944 0
M  V30 1797 O 162.753 5.51579 -1.45318 0
M  V30 1798 O 161.687 5.0161 -3.32672 0
M  V30 1799 H 165.513 1.836 -2.41919 0
M  V30 1800 H 163.098 0.849966 -1.22866 0
M  V30 1801 H 164.98 4.01236 -1.28794 0
M  V30 1802 H 163.655 3.2123 -0.39909 0
M  V30 1803 H 162.562 2.64474 -2.64583 0
M  V30 1804 H 163.895 3.49356 -3.46715 0
M  V30 1805 N 165.547 1.27147 0.931209 0
M  V30 1806 C 166.772 1.16191 1.71797 0
M  V30 1807 C 167.197 -0.278004 1.86034 0
M  V30 1808 O 166.555 -1.20137 1.35782 0
M  V30 1809 C 166.603 1.84673 3.09723 0
M  V30 1810 O 165.707 1.14231 3.96264 0
M  V30 1811 H 165.048 0.404303 0.526721 0
M  V30 1812 H 167.578 1.68152 1.1656 0
M  V30 1813 H 167.588 1.91893 3.60057 0
M  V30 1814 H 166.263 2.89421 2.98677 0
M  V30 1815 H 164.84 1.15056 3.54706 0
M  V30 1816 N 167.025 -1.13721 1.09112 0
M  V30 1817 C 167.955 -2.21148 0.749385 0
M  V30 1818 C 168.936 -1.6792 -0.271475 0
M  V30 1819 O 170.121 -1.93693 -0.140251 0
M  V30 1820 C 167.251 -3.46905 0.165659 0
M  V30 1821 C 166.205 -4.13203 1.11567 0
M  V30 1822 C 165.531 -5.33248 0.393809 0
M  V30 1823 C 166.831 -4.60912 2.45678 0
M  V30 1824 H 168.525 -2.4999 1.64758 0
M  V30 1825 H 166.071 -1.20156 0.793626 0
M  V30 1826 H 168.024 -4.21313 -0.085466 0
M  V30 1827 H 166.748 -3.17449 -0.767714 0
M  V30 1828 H 165.407 -3.40758 1.35202 0
M  V30 1829 H 165.055 -5.00054 -0.543599 0
M  V30 1830 H 164.755 -5.78552 1.02721 0
M  V30 1831 H 166.279 -6.10413 0.150908 0
M  V30 1832 H 167.693 -5.26759 2.26269 0
M  V30 1833 H 166.09 -5.16944 3.04776 0
M  V30 1834 H 167.16 -3.75603 3.06677 0
M  V30 1835 N 168.503 -0.877838 -1.30888 0
M  V30 1836 C 169.413 -0.343096 -2.32078 0
M  V30 1837 C 170.429 0.551022 -1.65045 0
M  V30 1838 O 171.605 0.445854 -1.96403 0
M  V30 1839 C 168.67 0.439905 -3.43898 0
M  V30 1840 C 167.731 -0.483111 -4.26573 0
M  V30 1841 C 166.964 0.262616 -5.33053 0
M  V30 1842 O 167.187 1.48967 -5.50604 0
M  V30 1843 O 166.121 -0.383593 -6.00676 0
M  V30 1844 H 169.947 -1.18203 -2.79753 0
M  V30 1845 H 167.532 -0.64145 -1.34929 0
M  V30 1846 H 169.414 0.883504 -4.12034 0
M  V30 1847 H 168.089 1.25526 -2.98371 0
M  V30 1848 H 166.996 -0.975374 -3.61161 0
M  V30 1849 H 168.329 -1.26427 -4.75686 0
M  V30 1850 N 169.982 1.44106 -0.638065 0
M  V30 1851 C 171.393 1.85316 -0.226894 0
M  V30 1852 C 171.744 1.53399 1.22324 0
M  V30 1853 O 170.869 0.975463 1.93167 0
M  V30 1854 C 171.464 3.3637 -0.405013 0
M  V30 1855 C 170.023 3.76369 -0.0482902 0
M  V30 1856 C 169.17 2.67921 -0.715108 0
M  V30 1857 H 172.121 1.34474 -0.842764 0
M  V30 1858 H 172.142 3.7885 0.354 0
M  V30 1859 H 171.654 3.59569 -1.46053 0
M  V30 1860 H 169.755 3.58784 1.00522 0
M  V30 1861 H 169.868 4.76856 -0.463187 0
M  V30 1862 H 168.232 2.54259 -0.149753 0
M  V30 1863 H 169.015 2.93951 -1.77335 0
M  V30 1864 N 171.46 0.379036 1.52974 0
M  V30 1865 C 172.876 0.0285448 1.59574 0
M  V30 1866 C 173.076 -1.45542 1.39355 0
M  V30 1867 O 172.132 -2.2187 1.20541 0
M  V30 1868 C 173.445 0.496535 2.96572 0
M  V30 1869 C 174.993 0.451909 3.0972 0
M  V30 1870 C 175.468 0.895924 4.49152 0
M  V30 1871 N 176.959 0.851522 4.55306 0
M  V30 1872 C 177.694 1.16661 5.61407 0
M  V30 1873 N 177.19 1.55166 6.752 0
M  V30 1874 N 178.983 1.08853 5.51459 0
M  V30 1875 H 171.134 1.34525 1.64367 0
M  V30 1876 H 173.397 0.550733 0.771619 0
M  V30 1877 H 173.103 1.53258 3.16552 0
M  V30 1878 H 172.977 -0.109802 3.7704 0
M  V30 1879 H 175.364 -0.575029 2.89443 0
M  V30 1880 H 175.445 1.09392 2.3123 0
M  V30 1881 H 175.089 1.92104 4.70168 0
M  V30 1882 H 175.019 0.23103 5.26093 0
M  V30 1883 H 177.51 0.568038 3.73606 0
M  V30 1884 H 177.823 1.776 7.52116 0
M  V30 1885 H 176.168 1.59044 6.76557 0
M  V30 1886 H 179.359 0.786803 4.6144 0
M  V30 1887 H 179.532 1.33742 6.34048 0
M  V30 1888 N 172.938 -1.57226 0.108567 0
M  V30 1889 C 173.885 -2.14756 -0.845481 0
M  V30 1890 C 174.855 -1.06971 -1.27068 0
M  V30 1891 O 176.04 -1.34827 -1.35005 0
M  V30 1892 C 173.18 -2.74298 -2.09415 0
M  V30 1893 C 172.293 -3.96358 -1.71826 0
M  V30 1894 C 171.428 -4.44021 -2.9158 0
M  V30 1895 C 170.467 -5.58637 -2.50181 0
M  V30 1896 N 169.604 -6.01091 -3.62814 0
M  V30 1897 H 174.444 -2.95961 -0.348035 0
M  V30 1898 H 171.981 -1.46226 -0.160106 0
M  V30 1899 H 173.939 -3.06945 -2.82561 0
M  V30 1900 H 172.569 -1.95801 -2.56636 0
M  V30 1901 H 171.621 -3.69939 -0.885947 0
M  V30 1902 H 172.933 -4.79504 -1.37394 0
M  V30 1903 H 172.087 -4.78522 -3.72963 0
M  V30 1904 H 170.826 -3.59803 -3.29231 0
M  V30 1905 H 169.831 -5.23751 -1.67228 0
M  V30 1906 H 171.056 -6.44613 -2.13659 0
M  V30 1907 H 169.002 -5.19817 -4.00158 0
M  V30 1908 H 168.919 -6.79066 -3.32273 0
M  V30 1909 H 170.187 -6.40227 -4.44668 0
M  V30 1910 N 174.416 0.165178 -1.56732 0
M  V30 1911 C 175.346 1.20651 -1.99914 0
M  V30 1912 C 176.327 1.45827 -0.875705 0
M  V30 1913 O 177.512 1.57057 -1.14223 0
M  V30 1914 C 174.642 2.54401 -2.36427 0
M  V30 1915 C 173.596 2.43782 -3.51787 0
M  V30 1916 C 172.922 3.82078 -3.7406 0
M  V30 1917 C 174.222 1.93732 -4.85041 0
M  V30 1918 H 175.916 0.847534 -2.87154 0
M  V30 1919 H 173.462 0.40625 -1.38151 0
M  V30 1920 H 175.415 3.27458 -2.65234 0
M  V30 1921 H 174.139 2.92098 -1.46103 0
M  V30 1922 H 172.798 1.73178 -3.23117 0
M  V30 1923 H 172.446 4.17179 -2.81017 0
M  V30 1924 H 172.146 3.7584 -4.51684 0
M  V30 1925 H 173.67 4.56712 -4.05274 0
M  V30 1926 H 175.084 2.56569 -5.12684 0
M  V30 1927 H 173.481 1.98428 -5.66345 0
M  V30 1928 H 174.551 0.891962 -4.76626 0
M  V30 1929 N 175.894 1.51508 0.433938 0
M  V30 1930 C 176.857 1.72473 1.50949 0
M  V30 1931 C 177.857 0.594725 1.49398 0
M  V30 1932 O 179.047 0.862315 1.5136 0
M  V30 1933 C 176.179 1.78431 2.90474 0
M  V30 1934 H 177.372 2.68467 1.33662 0
M  V30 1935 H 174.925 1.41549 0.662836 0
M  V30 1936 H 175.66 0.842645 3.13161 0
M  V30 1937 H 175.445 2.60558 2.93005 0
M  V30 1938 H 176.935 1.96479 3.68491 0
M  V30 1939 N 177.372 -0.689602 1.41712 0
M  V30 1940 C 178.282 -1.83314 1.46401 0
M  V30 1941 C 179.298 -1.7036 0.35405 0
M  V30 1942 O 180.474 -1.92171 0.602692 0
M  V30 1943 C 177.539 -3.19344 1.34982 0
M  V30 1944 C 176.6 -3.44363 2.56344 0
M  V30 1945 C 175.833 -4.73904 2.45461 0
M  V30 1946 O 176.056 -5.508 1.48241 0
M  V30 1947 O 174.99 -4.99839 3.35328 0
M  V30 1948 H 178.816 -1.82314 2.42889 0
M  V30 1949 H 176.401 -0.843438 1.23315 0
M  V30 1950 H 178.283 -4.00547 1.3092 0
M  V30 1951 H 176.958 -3.21014 0.41612 0
M  V30 1952 H 175.865 -2.63067 2.65982 0
M  V30 1953 H 177.198 -3.47512 3.48563 0
M  V30 1954 N 178.85 -1.27639 -0.924453 0
M  V30 1955 C 180.08 -1.16819 -1.70402 0
M  V30 1956 C 180.488 0.277191 -1.87158 0
M  V30 1957 O 179.831 1.20025 -1.39067 0
M  V30 1958 C 179.893 -1.78305 -3.12166 0
M  V30 1959 C 179.557 -3.27502 -3.18734 0
M  V30 1960 C 180.554 -4.2409 -3.00738 0
M  V30 1961 C 178.239 -3.68269 -3.4159 0
M  V30 1962 C 180.233 -5.59422 -3.05492 0
M  V30 1963 C 177.92 -5.0373 -3.45977 0
M  V30 1964 C 178.918 -5.99116 -3.27946 0
M  V30 1965 O 178.606 -7.32108 -3.32074 0
M  V30 1966 H 178.338 -0.406931 -0.539799 0
M  V30 1967 H 180.892 -1.69078 -1.16626 0
M  V30 1968 H 179.122 -1.20528 -3.67437 0
M  V30 1969 H 180.811 -1.62154 -3.72103 0
M  V30 1970 H 181.577 -3.93931 -2.82919 0
M  V30 1971 H 177.456 -2.94496 -3.54673 0
M  V30 1972 H 181 -6.33852 -2.91337 0
M  V30 1973 H 176.897 -5.33543 -3.63321 0
M  V30 1974 H 177.665 -7.40598 -3.48507 0
M  V30 1975 N 180.328 1.1314 -1.09713 0
M  V30 1976 C 181.258 2.20748 -0.761102 0
M  V30 1977 C 182.239 1.68061 0.262566 0
M  V30 1978 O 183.424 1.93765 0.129977 0
M  V30 1979 C 180.554 3.46812 -0.184054 0
M  V30 1980 C 179.508 4.12606 -1.13757 0
M  V30 1981 C 178.834 5.33031 -0.422083 0
M  V30 1982 C 180.134 4.59603 -2.48118 0
M  V30 1983 H 181.828 2.49113 -1.66082 0
M  V30 1984 H 179.374 1.19734 -0.799987 0
M  V30 1985 H 181.327 4.21353 0.0631215 0
M  V30 1986 H 180.051 3.17851 0.750868 0
M  V30 1987 H 178.71 3.40036 -1.37007 0
M  V30 1988 H 178.358 5.00335 0.517072 0
M  V30 1989 H 178.058 5.77999 -1.05788 0
M  V30 1990 H 179.582 6.10325 -0.183277 0
M  V30 1991 H 180.996 5.25552 -2.29059 0
M  V30 1992 H 179.393 5.15321 -3.07514 0
M  V30 1993 H 180.463 3.73971 -3.08665 0
M  V30 1994 N 181.806 0.884767 1.30421 0
M  V30 1995 C 183.055 0.499164 1.95426 0
M  V30 1996 C 183.368 -0.95645 1.70621 0
M  V30 1997 O 184.574 -1.44889 2.29607 0
M  V30 1998 C 183.03 0.84177 3.49917 0
M  V30 1999 C 182.638 2.31514 3.83543 0
M  V30 2000 C 184.382 0.525355 4.21237 0
M  V30 2001 C 182.289 2.59939 5.31212 0
M  V30 2002 H 181.219 0.182944 0.73147 0
M  V30 2003 H 183.87 1.07971 1.48373 0
M  V30 2004 H 182.252 0.190311 3.95542 0
M  V30 2005 H 183.426 3.0109 3.48829 0
M  V30 2006 H 181.741 2.59907 3.25326 0
M  V30 2007 H 184.338 0.714762 5.29901 0
M  V30 2008 H 184.681 -0.535222 4.12845 0
M  V30 2009 H 185.214 1.134 3.81294 0
M  V30 2010 H 181.953 3.64736 5.44654 0
M  V30 2011 H 181.473 1.94972 5.67227 0
M  V30 2012 H 183.152 2.45429 5.98643 0
M  V30 2013 N 183.284 -1.43765 0.645699 0
M  V30 2014 C 184.532 -2.01499 0.155731 0
M  V30 2015 C 184.853 -1.51151 -1.232 0
M  V30 2016 O 184.123 -0.721044 -1.82148 0
M  V30 2017 H 182.703 -0.745003 0.0545817 0
M  V30 2018 H 185.365 -1.76075 0.835677 0
M  V30 2019 H 184.461 -3.1181 0.134577 0
M  V30 2020 N 184.763 -0.387143 -1.52771 0
M  V30 2021 C 186.011 0.195349 -2.01154 0
M  V30 2022 C 186.332 1.475 -1.27549 0
M  V30 2023 O 185.602 1.91878 -0.394924 0
M  V30 2024 H 184.182 0.075178 -0.743207 0
M  V30 2025 H 186.844 -0.518337 -1.87881 0
M  V30 2026 H 185.94 0.407096 -3.09434 0
M  V30 2027 N 186.241 1.57166 -0.116904 0
M  V30 2028 C 187.487 1.95412 0.542405 0
M  V30 2029 C 187.82 1.00019 1.66463 0
M  V30 2030 O 187.095 0.0370346 1.94465 0
M  V30 2031 C 187.378 3.43615 1.07708 0
M  V30 2032 C 187.231 4.49781 -0.0415868 0
M  V30 2033 C 188.55 3.93616 1.96861 0
M  V30 2034 H 185.669 0.710543 0.195696 0
M  V30 2035 H 188.311 1.89027 -0.192038 0
M  V30 2036 H 186.461 3.49187 1.70296 0
M  V30 2037 H 188.133 4.56308 -0.676793 0
M  V30 2038 H 186.376 4.28033 -0.705019 0
M  V30 2039 H 187.047 5.50733 0.373717 0
M  V30 2040 H 189.523 3.90335 1.44146 0
M  V30 2041 H 188.399 4.97838 2.3119 0
M  V30 2042 H 188.66 3.34188 2.89432 0
M  V30 2043 N 187.719 -0.156864 1.56817 0
M  V30 2044 C 188.682 -1.17781 1.96622 0
M  V30 2045 C 189.682 -1.36401 0.851555 0
M  V30 2046 O 190.872 -1.33561 1.11836 0
M  V30 2047 C 188.004 -2.54008 2.27361 0
M  V30 2048 H 189.197 -0.836564 2.87996 0
M  V30 2049 H 186.75 -0.39985 1.51099 0
M  V30 2050 H 187.485 -2.9312 1.38748 0
M  V30 2051 H 187.27 -2.41856 3.08623 0
M  V30 2052 H 188.76 -3.27558 2.59029 0
M  V30 2053 N 189.197 -1.51736 -0.425897 0
M  V30 2054 C 190.16 -1.73271 -1.50032 0
M  V30 2055 C 191.16 -0.602639 -1.4908 0
M  V30 2056 O 192.35 -0.87033 -1.509 0
M  V30 2057 C 189.482 -1.79969 -2.89523 0
M  V30 2058 H 190.675 -2.69172 -1.32237 0
M  V30 2059 H 188.228 -1.41899 -0.65532 0
M  V30 2060 H 188.963 -0.859241 -3.1271 0
M  V30 2061 H 188.748 -2.62109 -2.91619 0
M  V30 2062 H 190.238 -1.9843 -3.67444 0
M  V30 2063 N 190.675 0.682077 -1.42076 0
M  V30 2064 C 191.952 1.43755 -1.32642 0
M  V30 2065 C 192.332 2.11063 0.0396611 0
M  V30 2066 O 191.68 2.02701 1.05474 0
M  V30 2067 C 191.89 2.44596 -2.48946 0
M  V30 2068 C 193.238 3.09454 -2.9073 0
M  V30 2069 O 194.262 2.54922 -2.48783 0
M  V30 2070 O 193.121 4.08253 -3.63307 0
M  V30 2071 H 190.215 0.640857 -0.522715 0
M  V30 2072 H 192.761 0.711415 -1.54068 0
M  V30 2073 H 191.533 1.93609 -3.40046 0
M  V30 2074 H 191.156 3.24701 -2.29467 0
M  V30 2075 N 192.153 1.28127 0.917671 0
M  V30 2076 C 193.43 1.05761 1.64542 0
M  V30 2077 C 193.81 -0.404344 2.07191 0
M  V30 2078 O 193.158 -1.38963 1.81388 0
M  V30 2079 C 193.368 2.02857 2.83989 0
M  V30 2080 C 194.716 2.32786 3.551 0
M  V30 2081 O 195.74 2.0091 2.94132 0
M  V30 2082 O 194.599 2.87169 4.64969 0
M  V30 2083 H 191.693 0.403916 0.721652 0
M  V30 2084 H 194.239 1.39431 0.967322 0
M  V30 2085 H 193.011 3.01407 2.49538 0
M  V30 2086 H 192.634 1.69809 3.59514 0
M  V30 2087 N 193.631 -1.12557 1.10312 0
M  V30 2088 C 194.561 -2.20341 0.772798 0
M  V30 2089 C 195.542 -1.68198 -0.25365 0
M  V30 2090 O 196.727 -1.93831 -0.119699 0
M  V30 2091 C 193.857 -3.46709 0.202443 0
M  V30 2092 C 192.811 -4.11996 1.15943 0
M  V30 2093 C 192.137 -5.328 0.450345 0
M  V30 2094 C 193.437 -4.5828 2.50552 0
M  V30 2095 H 195.131 -2.48229 1.674 0
M  V30 2096 H 192.677 -1.19308 0.806326 0
M  V30 2097 H 194.63 -4.2138 -0.0407752 0
M  V30 2098 H 193.354 -3.18245 -0.734001 0
M  V30 2099 H 192.013 -3.39305 1.38808 0
M  V30 2100 H 191.661 -5.00602 -0.490531 0
M  V30 2101 H 191.361 -5.7743 1.08851 0
M  V30 2102 H 192.885 -6.10219 0.215642 0
M  V30 2103 H 194.299 -5.2433 2.31843 0
M  V30 2104 H 192.696 -5.13683 3.10242 0
M  V30 2105 H 193.766 -3.72329 3.10643 0
M  V30 2106 N 195.109 -0.891671 -1.2995 0
M  V30 2107 C 196.52 -0.563104 -1.78006 0
M  V30 2108 C 196.871 0.920978 -1.73241 0
M  V30 2109 O 195.996 1.71987 -1.31337 0
M  V30 2110 C 196.591 -1.01539 -3.23226 0
M  V30 2111 C 195.15 -0.738124 -3.69092 0
M  V30 2112 C 194.297 -1.19461 -2.50249 0
M  V30 2113 H 197.248 -1.07522 -1.16725 0
M  V30 2114 H 197.269 -0.347217 -3.78912 0
M  V30 2115 H 196.781 -2.09555 -3.26662 0
M  V30 2116 H 194.882 0.329766 -3.71138 0
M  V30 2117 H 194.995 -1.33037 -4.60259 0
M  V30 2118 H 193.359 -0.613787 -2.47194 0
M  V30 2119 H 194.142 -2.28265 -2.56417 0
M  V30 2120 N 196.587 1.43421 -0.653314 0
M  V30 2121 C 197.55 2.29182 0.0287951 0
M  V30 2122 C 198.55 1.42213 0.750465 0
M  V30 2123 O 199.74 1.63843 0.591701 0
M  V30 2124 C 196.872 3.24278 1.05151 0
M  V30 2125 H 198.065 2.90985 -0.725786 0
M  V30 2126 H 195.618 1.50702 -0.414545 0
M  V30 2127 H 196.353 2.6737 1.83532 0
M  V30 2128 H 196.138 3.88396 0.537687 0
M  V30 2129 H 197.628 3.88647 1.52786 0
M  V30 2130 N 198.065 0.39524 1.52563 0
M  V30 2131 C 199.29 -0.187456 2.06551 0
M  V30 2132 C 199.715 -1.39249 1.26457 0
M  V30 2133 O 199.073 -1.78947 0.291151 0
M  V30 2134 C 199.121 -0.529985 3.56684 0
M  V30 2135 O 198.225 -1.62307 3.79118 0
M  V30 2136 H 197.566 -0.0202537 0.663691 0
M  V30 2137 H 200.096 0.564426 1.96661 0
M  V30 2138 H 200.106 -0.792598 4.00227 0
M  V30 2139 H 198.781 0.350987 4.14416 0
M  V30 2140 H 197.358 -1.3537 3.47461 0
M  V30 2141 N 199.544 -1.57102 0.125237 0
M  V30 2142 C 200.454 -2.19191 -0.8362 0
M  V30 2143 C 201.47 -1.16985 -1.28805 0
M  V30 2144 O 202.646 -1.49479 -1.34974 0
M  V30 2145 C 199.711 -2.78407 -2.06617 0
M  V30 2146 C 198.772 -3.9567 -1.66565 0
M  V30 2147 C 198.005 -4.52052 -2.83698 0
M  V30 2148 O 198.228 -4.07326 -3.99302 0
M  V30 2149 O 197.162 -5.42645 -2.60423 0
M  V30 2150 H 200.988 -3.01816 -0.337776 0
M  V30 2151 H 198.573 -1.4906 -0.100695 0
M  V30 2152 H 200.455 -3.16129 -2.7864 0
M  V30 2153 H 199.13 -1.9881 -2.55453 0
M  V30 2154 H 198.037 -3.62705 -0.916296 0
M  V30 2155 H 199.37 -4.76722 -1.22464 0
M  V30 2156 N 201.022 0.148545 -1.56898 0
M  V30 2157 C 202.27 0.859717 -1.82902 0
M  V30 2158 C 202.591 1.81775 -0.70588 0
M  V30 2159 O 201.861 1.93994 0.272586 0
M  V30 2160 H 200.441 0.320469 -0.674766 0
M  V30 2161 H 203.103 0.142918 -1.94375 0
M  V30 2162 H 202.199 1.4229 -2.77777 0
M  V30 2163 N 202.5 1.5196 0.417844 0
M  V30 2164 C 203.463 1.74065 1.49111 0
M  V30 2165 C 204.463 0.610537 1.48758 0
M  V30 2166 O 205.653 0.87832 1.50437 0
M  V30 2167 C 202.785 1.81502 2.88565 0
M  V30 2168 H 203.978 2.69869 1.30807 0
M  V30 2169 H 201.531 1.42244 0.647785 0
M  V30 2170 H 202.266 0.875813 3.1225 0
M  V30 2171 H 202.051 2.63651 2.90225 0
M  V30 2172 H 203.541 2.00376 3.66387 0
M  V30 2173 N 203.978 -0.674533 1.42435 0
M  V30 2174 C 204.926 -1.80934 1.46169 0
M  V30 2175 C 205.92 -1.66006 0.3374 0
M  V30 2176 O 207.126 -1.72611 0.510425 0
M  V30 2177 H 203.501 -0.596594 0.457798 0
M  V30 2178 H 205.472 -1.74903 2.41767 0
M  V30 2179 C 204.221 -3.19088 1.38123 0
M  V30 2180 H 203.544 -3.31203 2.23931 0
M  V30 2181 H 204.984 -3.9851 1.44797 0
M  V30 2182 C 203.443 -3.36763 0.0960517 0
M  V30 2183 O 203.973 -3.92581 -0.851073 0
M  V30 2184 N 202.179 -2.90597 0.0131186 0
M  V30 2185 H 201.726 -2.45359 0.784639 0
M  V30 2186 H 201.684 -3.028 -0.846133 0
M  V30 2187 N 205.456 -1.28612 -0.910864 0
M  V30 2188 C 206.705 -1.15311 -1.65488 0
M  V30 2189 C 207.018 0.296999 -1.93332 0
M  V30 2190 O 208.224 0.551168 -2.65847 0
M  V30 2191 C 206.68 -2.01599 -2.98137 0
M  V30 2192 C 206.288 -3.51367 -2.7793 0
M  V30 2193 C 208.032 -1.96993 -3.76024 0
M  V30 2194 C 205.939 -4.29797 -4.06237 0
M  V30 2195 H 204.869 -0.42796 -0.620779 0
M  V30 2196 H 207.52 -1.53166 -1.01057 0
M  V30 2197 H 205.902 -1.56603 -3.63719 0
M  V30 2198 H 207.076 -4.0434 -2.21011 0
M  V30 2199 H 205.391 -3.57529 -2.13452 0
M  V30 2200 H 207.988 -2.52856 -4.71135 0
M  V30 2201 H 208.331 -0.94733 -4.05378 0
M  V30 2202 H 208.864 -2.39973 -3.17266 0
M  V30 2203 H 205.603 -5.32648 -3.82055 0
M  V30 2204 H 205.123 -3.81596 -4.62757 0
M  V30 2205 H 206.802 -4.39869 -4.74473 0
M  V30 2206 N 206.934 1.1197 -1.10907 0
M  V30 2207 C 207.864 2.19928 -0.784473 0
M  V30 2208 C 208.845 1.6833 0.244726 0
M  V30 2209 O 210.03 1.93892 0.109418 0
M  V30 2210 C 207.16 3.46597 -0.220827 0
M  V30 2211 C 206.114 4.11376 -1.18127 0
M  V30 2212 C 205.44 5.32554 -0.478594 0
M  V30 2213 C 206.74 4.56945 -2.52979 0
M  V30 2214 H 208.434 2.47337 -1.68715 0
M  V30 2215 H 205.98 1.18879 -0.812642 0
M  V30 2216 H 207.933 4.21396 0.0184278 0
M  V30 2217 H 206.657 3.1863 0.717113 0
M  V30 2218 H 205.316 3.38564 -1.40606 0
M  V30 2219 H 204.964 5.00856 0.463976 0
M  V30 2220 H 204.664 5.76844 -1.11912 0
M  V30 2221 H 206.188 6.10096 -0.248 0
M  V30 2222 H 207.602 5.23093 -2.3462 0
M  V30 2223 H 205.999 5.1203 -3.12962 0
M  V30 2224 H 207.069 3.70676 -3.12614 0
M  V30 2225 N 208.412 0.89855 1.29475 0
M  V30 2226 C 209.359 0.373819 2.27753 0
M  V30 2227 C 210.329 -0.543444 1.56958 0
M  V30 2228 O 211.514 -0.468934 1.84948 0
M  V30 2229 C 208.654 -0.393648 3.42848 0
M  V30 2230 C 207.767 0.554379 4.28428 0
M  V30 2231 C 206.902 -0.230026 5.30702 0
M  V30 2232 C 205.941 0.712599 6.07938 0
M  V30 2233 N 205.078 -0.0373283 7.0209 0
M  V30 2234 H 209.918 1.21699 2.72017 0
M  V30 2235 H 207.455 0.611456 1.33789 0
M  V30 2236 H 209.413 -0.85466 4.08352 0
M  V30 2237 H 208.043 -1.20128 2.99615 0
M  V30 2238 H 207.095 1.13391 3.63107 0
M  V30 2239 H 208.407 1.27597 4.82204 0
M  V30 2240 H 207.561 -0.752288 6.02018 0
M  V30 2241 H 206.3 -0.984758 4.77654 0
M  V30 2242 H 205.305 1.24637 5.35486 0
M  V30 2243 H 206.53 1.46664 6.63074 0
M  V30 2244 H 204.476 -0.774348 6.51414 0
M  V30 2245 H 204.393 0.624374 7.53417 0
M  V30 2246 H 205.661 -0.539891 7.77628 0
M  V30 2247 N 209.89 -1.43072 0.660911 0
M  V30 2248 C 210.823 -2.28074 -0.0758862 0
M  V30 2249 C 211.801 -1.40271 -0.822362 0
M  V30 2250 O 212.985 -1.69713 -0.820352 0
M  V30 2251 C 210.112 -3.19843 -1.11437 0
M  V30 2252 C 209.158 -4.23957 -0.465069 0
M  V30 2253 S 209.991 -5.29978 0.767078 0
M  V30 2254 C 211.147 -6.25314 -0.270682 0
M  V30 2255 H 211.38 -2.90216 0.645139 0
M  V30 2256 H 208.913 -1.47697 0.449995 0
M  V30 2257 H 210.871 -3.73257 -1.70849 0
M  V30 2258 H 209.532 -2.56863 -1.80776 0
M  V30 2259 H 208.725 -4.88299 -1.24819 0
M  V30 2260 H 208.327 -3.73959 0.0551242 0
M  V30 2261 H 210.619 -6.67932 -1.13459 0
M  V30 2262 H 211.562 -7.07293 0.337916 0
M  V30 2263 H 211.97 -5.61195 -0.609937 0
M  V30 2264 N 211.368 -0.403325 -1.52352 0
M  V30 2265 C 212.598 0.17376 -2.05868 0
M  V30 2266 C 213.006 1.39898 -1.27378 0
M  V30 2267 O 212.349 1.80939 -0.31729 0
M  V30 2268 C 212.411 0.594756 -3.54546 0
M  V30 2269 C 212.075 -0.518926 -4.54044 0
M  V30 2270 C 213.072 -1.3807 -5.01231 0
M  V30 2271 C 210.757 -0.689961 -4.97539 0
M  V30 2272 C 212.751 -2.39852 -5.90551 0
M  V30 2273 C 210.438 -1.71109 -5.86656 0
M  V30 2274 C 211.436 -2.56378 -6.33056 0
M  V30 2275 O 211.124 -3.56743 -7.20409 0
M  V30 2276 H 210.856 0.0264951 -0.675481 0
M  V30 2277 H 213.41 -0.571179 -1.97299 0
M  V30 2278 H 211.64 1.39189 -3.60782 0
M  V30 2279 H 213.329 1.0991 -3.90736 0
M  V30 2280 H 214.095 -1.25994 -4.68349 0
M  V30 2281 H 209.974 -0.035939 -4.60986 0
M  V30 2282 H 213.518 -3.06441 -6.26689 0
M  V30 2283 H 209.415 -1.83218 -6.18952 0
M  V30 2284 H 210.183 -3.52918 -7.38506 0
M  V30 2285 N 212.846 1.57033 -0.133567 0
M  V30 2286 C 214.262 1.58035 0.222944 0
M  V30 2287 C 214.462 1.14713 1.6566 0
M  V30 2288 O 213.518 0.841218 2.38075 0
M  V30 2289 C 214.831 3.00691 -0.0236116 0
M  V30 2290 C 216.379 3.12973 0.0411512 0
M  V30 2291 C 216.854 4.57654 -0.177899 0
M  V30 2292 N 218.345 4.63033 -0.124365 0
M  V30 2293 C 219.08 5.72771 -0.268553 0
M  V30 2294 N 218.576 6.91206 -0.46972 0
M  V30 2295 N 220.369 5.61718 -0.2071 0
M  V30 2296 H 212.52 1.8349 -1.06981 0
M  V30 2297 H 214.783 0.848677 -0.422436 0
M  V30 2298 H 214.489 3.36726 -1.0153 0
M  V30 2299 H 214.363 3.70614 0.701808 0
M  V30 2300 H 216.75 2.76787 1.02338 0
M  V30 2301 H 216.831 2.45564 -0.716383 0
M  V30 2302 H 216.475 4.94542 -1.15717 0
M  V30 2303 H 216.405 5.23173 0.599797 0
M  V30 2304 H 218.896 3.7789 0.027011 0
M  V30 2305 H 219.209 7.70693 -0.570212 0
M  V30 2306 H 217.554 6.93156 -0.505876 0
M  V30 2307 H 220.745 4.68072 -0.0507986 0
M  V30 2308 H 220.918 6.47195 -0.322909 0
M  V30 2309 N 214.325 -0.140222 1.56975 0
M  V30 2310 C 215.235 -1.19223 2.02047 0
M  V30 2311 C 216.251 -1.46612 0.937062 0
M  V30 2312 O 217.427 -1.58148 1.24704 0
M  V30 2313 C 214.492 -2.50414 2.39778 0
M  V30 2314 C 213.553 -2.30612 3.621 0
M  V30 2315 C 212.786 -3.55547 3.98023 0
M  V30 2316 O 213.009 -4.62004 3.34528 0
M  V30 2317 O 211.943 -3.47808 4.91237 0
M  V30 2318 H 215.769 -0.839559 2.91865 0
M  V30 2319 H 213.354 -0.349453 1.45256 0
M  V30 2320 H 215.236 -3.27747 2.64877 0
M  V30 2321 H 213.911 -2.85198 1.53114 0
M  V30 2322 H 212.818 -1.51207 3.4218 0
M  V30 2323 H 214.151 -2.00741 4.49404 0
M  V30 2324 N 215.803 -1.52179 -0.40978 0
M  V30 2325 C 217.033 -1.69807 -1.17682 0
M  V30 2326 C 217.441 -0.406908 -1.84773 0
M  V30 2327 O 216.784 0.626863 -1.72673 0
M  V30 2328 C 216.846 -2.77712 -2.2829 0
M  V30 2329 C 216.51 -4.19481 -1.81341 0
M  V30 2330 C 217.507 -5.03345 -1.30154 0
M  V30 2331 C 215.192 -4.65713 -1.88194 0
M  V30 2332 C 217.186 -6.31511 -0.864416 0
M  V30 2333 C 214.873 -5.93869 -1.44093 0
M  V30 2334 C 215.871 -6.76597 -0.933023 0
M  V30 2335 O 215.559 -8.02354 -0.49838 0
M  V30 2336 H 215.291 -0.572372 -0.359675 0
M  V30 2337 H 217.845 -1.99511 -0.488311 0
M  V30 2338 H 216.075 -2.43383 -3.00502 0
M  V30 2339 H 217.764 -2.83946 -2.90051 0
M  V30 2340 H 218.53 -4.68819 -1.24232 0
M  V30 2341 H 214.409 -4.01424 -2.26671 0
M  V30 2342 H 217.953 -6.96033 -0.467286 0
M  V30 2343 H 213.85 -6.27903 -1.49694 0
M  V30 2344 H 214.618 -8.16135 -0.621747 0
M  V30 2345 N 217.281 0.66697 -1.42791 0
M  V30 2346 C 218.211 1.79218 -1.49677 0
M  V30 2347 C 219.192 1.66405 -0.352623 0
M  V30 2348 O 220.377 1.85708 -0.567993 0
M  V30 2349 C 217.507 3.17565 -1.40605 0
M  V30 2350 C 216.461 3.45124 -2.53127 0
M  V30 2351 C 215.787 4.83127 -2.29112 0
M  V30 2352 C 217.087 3.41236 -3.95418 0
M  V30 2353 H 218.781 1.73713 -2.43853 0
M  V30 2354 H 216.327 0.83432 -1.17367 0
M  V30 2355 H 218.28 3.96022 -1.44029 0
M  V30 2356 H 217.004 3.23767 -0.429271 0
M  V30 2357 H 215.663 2.69031 -2.49034 0
M  V30 2358 H 215.311 4.85988 -1.29709 0
M  V30 2359 H 215.011 5.02528 -3.04531 0
M  V30 2360 H 216.535 5.63859 -2.34297 0
M  V30 2361 H 217.949 4.09651 -4.01073 0
M  V30 2362 H 216.346 3.72173 -4.70752 0
M  V30 2363 H 217.416 2.39665 -4.21532 0
M  V30 2364 N 218.759 1.29093 0.90403 0
M  V30 2365 C 220.007 1.16583 1.65085 0
M  V30 2366 C 220.328 -0.283933 1.92922 0
M  V30 2367 O 219.598 -1.19509 1.55224 0
M  V30 2368 H 218.178 0.428467 0.611903 0
M  V30 2369 H 220.84 1.61959 1.08422 0
M  V30 2370 H 219.936 1.71266 2.6091 0
M  V30 2371 N 220.237 -1.11381 1.11499 0
M  V30 2372 C 221.187 -2.15555 0.74298 0
M  V30 2373 C 222.171 -1.58894 -0.253276 0
M  V30 2374 O 223.363 -1.76897 -0.0602918 0
M  V30 2375 C 220.492 -3.42782 0.188481 0
M  V30 2376 C 219.578 -4.064 1.21244 0
M  V30 2377 N 219.969 -4.44864 2.40685 0
M  V30 2378 C 218.267 -4.3333 1.05552 0
M  V30 2379 C 218.968 -4.94715 3.05994 0
M  V30 2380 N 217.944 -4.90909 2.33472 0
M  V30 2381 H 221.746 -2.43074 1.65203 0
M  V30 2382 H 219.26 -1.28401 0.994329 0
M  V30 2383 H 221.257 -4.16789 -0.0961693 0
M  V30 2384 H 219.917 -3.16727 -0.715149 0
M  V30 2385 H 220.928 -4.36876 2.78136 0
M  V30 2386 H 217.605 -4.1698 0.208372 0
M  V30 2387 H 218.995 -5.34103 4.07656 0
M  V30 2388 N 221.715 -0.905404 -1.28997 0
M  V30 2389 C 222.94 -0.549175 -1.99997 0
M  V30 2390 C 223.365 0.860276 -1.67275 0
M  V30 2391 O 222.723 1.57355 -0.900502 0
M  V30 2392 C 222.771 -0.755185 -3.52604 0
M  V30 2393 O 221.875 0.189692 -4.11964 0
M  V30 2394 H 221.216 -0.213899 -0.628604 0
M  V30 2395 H 223.746 -1.21856 -1.64354 0
M  V30 2396 H 223.756 -0.662045 -4.02593 0
M  V30 2397 H 222.431 -1.78271 -3.75755 0
M  V30 2398 H 221.008 0.0485257 -3.72868 0
M  V30 2399 N 223.193 1.4272 -0.668489 0
M  V30 2400 C 224.418 2.06484 -0.194758 0
M  V30 2401 C 224.843 1.49862 1.13679 0
M  V30 2402 O 224.201 0.614582 1.70565 0
M  V30 2403 C 224.249 3.60353 -0.133546 0
M  V30 2404 O 223.353 4.02464 0.899806 0
M  V30 2405 H 222.694 0.656137 -0.10188 0
M  V30 2406 H 225.224 1.82964 -0.915722 0
M  V30 2407 H 225.234 4.07976 0.0447041 0
M  V30 2408 H 223.909 4.00938 -1.1055 0
M  V30 2409 H 222.486 3.66402 0.693109 0
M  V30 2410 N 224.671 0.411399 1.52136 0
M  V30 2411 C 225.918 -0.163645 2.01838 0
M  V30 2412 C 226.246 -1.4495 1.29691 0
M  V30 2413 O 225.501 -1.91725 0.392431 0
M  V30 2414 C 225.8 -0.455872 3.54481 0
M  V30 2415 C 225.466 0.741055 4.44769 0
M  V30 2416 C 224.128 1.06936 4.69167 0
M  V30 2417 C 226.48 1.54075 4.97906 0
M  V30 2418 C 223.808 2.19851 5.43951 0
M  V30 2419 C 226.16 2.66067 5.73926 0
M  V30 2420 C 224.824 2.99381 5.96596 0
M  V30 2421 H 224.094 -0.0598821 0.738576 0
M  V30 2422 H 226.741 0.553283 1.83333 0
M  V30 2423 H 225.046 -1.2544 3.71177 0
M  V30 2424 H 226.743 -0.913802 3.90449 0
M  V30 2425 H 223.333 0.475192 4.25958 0
M  V30 2426 H 227.517 1.30033 4.78963 0
M  V30 2427 H 222.773 2.46006 5.59724 0
M  V30 2428 H 226.947 3.28419 6.14096 0
M  V30 2429 H 224.574 3.86992 6.54325 0
M  V30 2430 N 226.149 -1.5696 0.141893 0
M  V30 2431 C 227.079 -2.19516 -0.795936 0
M  V30 2432 C 228.06 -1.14187 -1.26077 0
M  V30 2433 O 229.245 -1.42511 -1.31925 0
M  V30 2434 C 226.375 -2.81272 -2.03723 0
M  V30 2435 C 225.329 -3.92384 -1.70936 0
M  V30 2436 C 224.655 -4.41052 -3.02287 0
M  V30 2437 C 225.955 -5.13403 -0.959954 0
M  V30 2438 H 227.649 -2.98138 -0.274596 0
M  V30 2439 H 225.195 -1.43406 -0.130636 0
M  V30 2440 H 227.148 -3.237 -2.69808 0
M  V30 2441 H 225.872 -1.99973 -2.58221 0
M  V30 2442 H 224.531 -3.50566 -1.07232 0
M  V30 2443 H 224.179 -3.56582 -3.54765 0
M  V30 2444 H 223.879 -5.15993 -2.81114 0
M  V30 2445 H 225.403 -4.86146 -3.69451 0
M  V30 2446 H 226.817 -5.52706 -1.52279 0
M  V30 2447 H 225.214 -5.94073 -0.848357 0
M  V30 2448 H 226.284 -4.84875 0.0492434 0
M  V30 2449 N 227.627 0.131896 -1.57047 0
M  V30 2450 C 228.557 1.16384 -2.02428 0
M  V30 2451 C 229.538 1.43936 -0.90644 0
M  V30 2452 O 230.723 1.54599 -1.17528 0
M  V30 2453 C 227.853 2.49328 -2.4177 0
M  V30 2454 C 226.807 2.36266 -3.56879 0
M  V30 2455 C 226.133 3.74057 -3.8208 0
M  V30 2456 C 227.433 1.834 -4.89042 0
M  V30 2457 H 229.127 0.786433 -2.88887 0
M  V30 2458 H 226.673 0.376855 -1.38981 0
M  V30 2459 H 228.626 3.21759 -2.7212 0
M  V30 2460 H 227.35 2.88934 -1.52266 0
M  V30 2461 H 226.009 1.66286 -3.26718 0
M  V30 2462 H 225.657 4.11125 -2.89803 0
M  V30 2463 H 225.357 3.66174 -4.59554 0
M  V30 2464 H 226.881 4.48012 -4.1487 0
M  V30 2465 H 228.295 2.45636 -5.18011 0
M  V30 2466 H 226.692 1.8637 -5.70426 0
M  V30 2467 H 227.762 0.790662 -4.7841 0
M  V30 2468 N 229.106 1.52395 0.401703 0
M  V30 2469 C 230.517 1.58899 0.980202 0
M  V30 2470 C 230.868 0.434032 1.91339 0
M  V30 2471 O 229.993 -0.444619 2.11783 0
M  V30 2472 C 230.588 2.87994 1.78451 0
M  V30 2473 C 229.147 2.96953 2.31292 0
M  V30 2474 C 228.294 2.53903 1.11483 0
M  V30 2475 H 231.245 1.57657 0.18168 0
M  V30 2476 H 231.266 2.73765 2.64259 0
M  V30 2477 H 230.778 3.72035 1.10506 0
M  V30 2478 H 228.879 2.17422 3.02586 0
M  V30 2479 H 228.992 4.01344 2.61649 0
M  V30 2480 H 227.356 2.07925 1.47104 0
M  V30 2481 H 228.139 3.40326 0.450928 0
M  V30 2482 N 230.584 -0.659388 1.43143 0
M  V30 2483 C 231.995 -1.24041 1.39537 0
M  V30 2484 C 232.346 -1.95963 0.0963364 0
M  V30 2485 O 231.471 -2.00892 -0.804438 0
M  V30 2486 C 232.066 -2.25601 2.52764 0
M  V30 2487 C 230.625 -2.79195 2.52443 0
M  V30 2488 C 229.772 -1.53743 2.30778 0
M  V30 2489 H 232.723 -0.451792 1.52133 0
M  V30 2490 H 232.744 -3.07651 2.23899 0
M  V30 2491 H 232.256 -1.73226 3.47296 0
M  V30 2492 H 230.357 -3.35649 1.61773 0
M  V30 2493 H 230.47 -3.2716 3.50004 0
M  V30 2494 H 228.834 -1.80869 1.79328 0
M  V30 2495 H 229.617 -1.03312 3.27386 0
M  V30 2496 N 232.062 -1.29571 -0.897171 0
M  V30 2497 C 232.992 -1.17473 -2.01798 0
M  V30 2498 C 233.973 -0.068323 -1.69963 0
M  V30 2499 O 235.158 -0.248239 -1.92607 0
M  V30 2500 C 232.288 -0.853099 -3.36659 0
M  V30 2501 C 231.242 -1.9161 -3.82713 0
M  V30 2502 C 230.568 -1.44773 -5.14728 0
M  V30 2503 C 231.868 -3.32535 -4.02763 0
M  V30 2504 H 233.562 -2.11237 -2.12177 0
M  V30 2505 H 231.108 -1.01699 -1.01948 0
M  V30 2506 H 233.061 -0.755165 -4.14578 0
M  V30 2507 H 231.785 0.120236 -3.26379 0
M  V30 2508 H 230.444 -2.00346 -3.07013 0
M  V30 2509 H 230.092 -0.462995 -5.00865 0
M  V30 2510 H 229.792 -2.15865 -5.46513 0
M  V30 2511 H 231.316 -1.36334 -5.95185 0
M  V30 2512 H 232.73 -3.26626 -4.71156 0
M  V30 2513 H 231.127 -4.01607 -4.45905 0
M  V30 2514 H 232.197 -3.75326 -3.07016 0
M  V30 2515 N 233.54 1.10788 -1.12088 0
M  V30 2516 C 234.951 1.64181 -0.88891 0
M  V30 2517 C 235.302 1.87508 0.577498 0
M  V30 2518 O 234.427 1.61434 1.44112 0
M  V30 2519 C 235.022 2.98257 -1.60712 0
M  V30 2520 C 233.581 3.4853 -1.42139 0
M  V30 2521 C 232.728 2.23208 -1.6454 0
M  V30 2522 H 235.679 0.943368 -1.27618 0
M  V30 2523 H 235.7 3.65552 -1.05604 0
M  V30 2524 H 235.212 2.81246 -2.67436 0
M  V30 2525 H 233.313 3.70692 -0.376552 0
M  V30 2526 H 233.426 4.26882 -2.17505 0
M  V30 2527 H 231.79 2.31169 -1.06925 0
M  V30 2528 H 232.573 2.08733 -2.72554 0
M  V30 2529 N 235.018 0.912232 1.28515 0
M  V30 2530 C 235.966 0.389597 2.29314 0
M  V30 2531 C 236.96 -0.517915 1.61289 0
M  V30 2532 O 238.166 -0.399328 1.75515 0
M  V30 2533 H 234.541 0.107386 0.744293 0
M  V30 2534 H 236.512 1.25286 2.70825 0
M  V30 2535 C 235.261 -0.356496 3.45868 0
M  V30 2536 H 234.584 0.332608 3.98414 0
M  V30 2537 H 236.024 -0.686851 4.184 0
M  V30 2538 C 234.483 -1.56383 2.98406 0
M  V30 2539 O 235.013 -2.66294 3.00749 0
M  V30 2540 N 233.219 -1.41029 2.54085 0
M  V30 2541 H 232.766 -0.516089 2.52377 0
M  V30 2542 H 232.724 -2.21939 2.22689 0
M  V30 2543 N 236.496 -1.42363 0.676048 0
M  V30 2544 C 237.724 -2.05859 0.207268 0
M  V30 2545 C 238.139 -1.50796 -1.13605 0
M  V30 2546 O 237.496 -0.648265 -1.70598 0
M  V30 2547 C 237.547 -3.61248 0.134975 0
M  V30 2548 O 237.268 -4.1427 1.42521 0
M  V30 2549 C 238.769 -4.41859 -0.357151 0
M  V30 2550 H 235.989 -0.663431 0.100503 0
M  V30 2551 H 238.533 -1.82479 0.923136 0
M  V30 2552 H 236.688 -3.83735 -0.531588 0
M  V30 2553 H 237.102 -5.0815 1.29939 0
M  V30 2554 H 238.576 -5.50847 -0.356641 0
M  V30 2555 H 239.053 -4.16536 -1.39264 0
M  V30 2556 H 239.659 -4.24392 0.27772 0
M  V30 2557 N 237.974 -0.419461 -1.51915 0
M  V30 2558 C 238.906 0.43646 -2.25006 0
M  V30 2559 C 239.919 1.00149 -1.28351 0
M  V30 2560 O 241.108 0.898674 -1.54227 0
M  V30 2561 C 238.208 1.6206 -2.9764 0
M  V30 2562 C 237.381 1.17763 -4.21249 0
M  V30 2563 C 236.44 2.22985 -4.76617 0
M  V30 2564 O 235.466 1.83151 -5.38929 0
M  V30 2565 N 236.668 3.55271 -4.59089 0
M  V30 2566 H 239.433 -0.18989 -2.99098 0
M  V30 2567 H 236.994 -0.247386 -1.59999 0
M  V30 2568 H 238.986 2.32038 -3.31573 0
M  V30 2569 H 237.556 2.15266 -2.2667 0
M  V30 2570 H 236.776 0.305582 -3.93014 0
M  V30 2571 H 238.064 0.858781 -5.015 0
M  V30 2572 H 237.462 3.90377 -4.09417 0
M  V30 2573 H 236.019 4.21195 -4.97432 0
M  V30 2574 N 239.452 1.56882 -0.150215 0
M  V30 2575 C 240.699 1.96228 0.500093 0
M  V30 2576 C 241.027 1.03522 1.64661 0
M  V30 2577 O 240.282 0.0650683 1.95592 0
M  V30 2578 C 240.581 3.41801 1.04437 0
M  V30 2579 C 240.247 4.50897 0.0159671 0
M  V30 2580 C 238.909 4.8046 -0.266731 0
M  V30 2581 C 241.261 5.16703 -0.683192 0
M  V30 2582 C 238.589 5.73135 -1.25434 0
M  V30 2583 C 240.941 6.10441 -1.65964 0
M  V30 2584 C 239.605 6.38382 -1.95 0
M  V30 2585 H 238.875 0.718048 0.182997 0
M  V30 2586 H 241.522 1.90019 -0.237724 0
M  V30 2587 H 239.827 3.44857 1.85959 0
M  V30 2588 H 241.524 3.69573 1.55618 0
M  V30 2589 H 238.114 4.27891 0.246485 0
M  V30 2590 H 242.298 4.93993 -0.477983 0
M  V30 2591 H 237.554 5.93074 -1.48571 0
M  V30 2592 H 241.728 6.60507 -2.20689 0
M  V30 2593 H 239.355 7.09996 -2.71679 0
M  V30 2594 N 240.93 -0.123565 1.57115 0
M  V30 2595 C 242.158 -0.846461 1.88793 0
M  V30 2596 C 242.573 -1.73652 0.740976 0
M  V30 2597 O 241.93 -1.80207 -0.288393 0
M  V30 2598 C 241.981 -1.6837 3.19897 0
M  V30 2599 O 241.702 -0.829477 4.30176 0
M  V30 2600 C 243.203 -2.51214 3.65248 0
M  V30 2601 H 240.423 -0.243573 0.625231 0
M  V30 2602 H 242.967 -0.109324 2.04208 0
M  V30 2603 H 241.122 -2.37364 3.06165 0
M  V30 2604 H 241.536 -1.40651 5.0529 0
M  V30 2605 H 243.01 -3.05497 4.59756 0
M  V30 2606 H 243.487 -3.28359 2.9168 0
M  V30 2607 H 244.093 -1.8747 3.81752 0
M  V30 2608 N 242.408 -1.52605 -0.393616 0
M  V30 2609 C 243.824 -1.41753 -0.733357 0
M  V30 2610 C 244.024 -0.534293 -1.94287 0
M  V30 2611 O 243.08 -0.0059787 -2.52499 0
M  V30 2612 C 244.393 -2.84531 -0.972772 0
M  V30 2613 C 245.941 -2.93978 -1.07453 0
M  V30 2614 C 246.416 -4.37756 -1.3466 0
M  V30 2615 N 247.907 -4.4106 -1.41492 0
M  V30 2616 C 248.642 -5.49387 -1.642 0
M  V30 2617 N 248.138 -6.67806 -1.8441 0
M  V30 2618 N 249.931 -5.36923 -1.66342 0
M  V30 2619 H 242.082 -2.08555 0.402328 0
M  V30 2620 H 244.345 -0.940654 0.117789 0
M  V30 2621 H 244.051 -3.51353 -0.156204 0
M  V30 2622 H 243.925 -3.26508 -1.88871 0
M  V30 2623 H 246.312 -2.27326 -1.88167 0
M  V30 2624 H 246.393 -2.55435 -0.136605 0
M  V30 2625 H 246.037 -5.04972 -0.544581 0
M  V30 2626 H 245.967 -4.73848 -2.2973 0
M  V30 2627 H 248.458 -3.55705 -1.27601 0
M  V30 2628 H 248.771 -7.46141 -2.01231 0
M  V30 2629 H 247.116 -6.70843 -1.81644 0
M  V30 2630 H 250.307 -4.43381 -1.50102 0
M  V30 2631 H 250.48 -6.21416 -1.837 0
M  V30 2632 N 243.887 0.651787 -1.4349 0
M  V30 2633 C 245.164 1.40909 -1.35661 0
M  V30 2634 C 245.544 2.11099 -0.00511733 0
M  V30 2635 O 244.892 2.04892 1.0115 0
M  V30 2636 C 245.102 2.3926 -2.54078 0
M  V30 2637 C 246.45 3.03217 -2.97228 0
M  V30 2638 O 247.474 2.49588 -2.54135 0
M  V30 2639 O 246.333 4.00455 -3.71885 0
M  V30 2640 H 243.427 0.629625 -0.536191 0
M  V30 2641 H 245.973 0.678575 -1.55542 0
M  V30 2642 H 244.745 1.86352 -3.44076 0
M  V30 2643 H 244.368 3.1976 -2.36303 0
M  V30 2644 N 245.365 1.30045 0.890287 0
M  V30 2645 C 246.593 1.21472 1.67487 0
M  V30 2646 C 247.008 -0.223241 1.87476 0
M  V30 2647 O 246.365 -1.14828 1.41847 0
M  V30 2648 C 246.416 1.93394 3.05419 0
M  V30 2649 O 246.137 3.31576 2.86337 0
M  V30 2650 C 247.638 1.91414 3.99844 0
M  V30 2651 H 244.858 0.420604 0.522813 0
M  V30 2652 H 247.402 1.7158 1.11268 0
M  V30 2653 H 245.557 1.47099 3.58386 0
M  V30 2654 H 245.971 3.67929 3.73802 0
M  V30 2655 H 247.445 2.46285 4.94012 0
M  V30 2656 H 247.922 0.891833 4.3005 0
M  V30 2657 H 248.528 2.37496 3.52811 0
M  V30 2658 N 246.843 -1.10192 1.12674 0
M  V30 2659 C 248.071 -1.85983 0.906527 0
M  V30 2660 C 248.486 -1.80783 -0.544333 0
M  V30 2661 O 247.843 -1.19834 -1.37645 0
M  V30 2662 C 247.894 -3.34281 1.37618 0
M  V30 2663 O 247.615 -3.39401 2.77017 0
M  V30 2664 C 249.116 -4.26938 1.19325 0
M  V30 2665 H 246.336 -0.587716 0.323775 0
M  V30 2666 H 248.88 -1.39284 1.49734 0
M  V30 2667 H 247.035 -3.78436 0.828539 0
M  V30 2668 H 247.449 -4.31838 2.97684 0
M  V30 2669 H 248.923 -5.29181 1.57071 0
M  V30 2670 H 249.4 -4.38995 0.134097 0
M  V30 2671 H 250.006 -3.8859 1.72852 0
M  V30 2672 N 248.321 -0.919034 -1.28029 0
M  V30 2673 C 249.561 -0.562107 -1.96519 0
M  V30 2674 C 249.925 0.878784 -1.70708 0
M  V30 2675 O 251.126 1.34355 -2.32813 0
M  V30 2676 C 249.397 -0.868953 -3.46676 0
M  V30 2677 S 250.956 -0.619237 -4.34409 0
M  V30 2678 H 247.774 -0.2078 -0.679956 0
M  V30 2679 H 250.376 -1.18562 -1.55446 0
M  V30 2680 H 249.08 -1.91547 -3.62957 0
M  V30 2681 H 248.611 -0.234301 -3.92702 0
M  V30 2682 H 250.626 0.526995 -4.93394 0
M  V30 2683 N 249.799 1.42003 -0.683588 0
M  V30 2684 C 251.045 2.02223 -0.218536 0
M  V30 2685 C 251.4 1.53126 1.16492 0
M  V30 2686 O 250.693 0.727459 1.77253 0
M  V30 2687 C 250.887 3.56827 -0.202357 0
M  V30 2688 C 250.716 4.20928 -1.5827 0
M  V30 2689 C 249.486 4.5573 -2.18262 0
M  V30 2690 C 251.684 4.47933 -2.52706 0
M  V30 2691 N 249.666 5.05056 -3.48986 0
M  V30 2692 C 251.037 4.98906 -3.68094 0
M  V30 2693 C 253.092 4.29931 -2.51125 0
M  V30 2694 C 251.795 5.33768 -4.82166 0
M  V30 2695 C 253.821 4.65875 -3.643 0
M  V30 2696 C 253.183 5.17008 -4.78417 0
M  V30 2697 H 249.282 0.771931 -0.125088 0
M  V30 2698 H 251.866 1.72729 -0.898479 0
M  V30 2699 H 250.037 3.85819 0.447029 0
M  V30 2700 H 251.769 4.03755 0.276399 0
M  V30 2701 H 248.524 4.41781 -1.70665 0
M  V30 2702 H 248.948 5.34139 -4.15962 0
M  V30 2703 H 253.59 3.89647 -1.6412 0
M  V30 2704 H 251.308 5.72981 -5.6984 0
M  V30 2705 H 254.894 4.53615 -3.64314 0
M  V30 2706 H 253.774 5.44301 -5.64541 0
M  V30 2707 N 251.277 0.427512 1.51691 0
M  V30 2708 C 252.526 -0.143679 2.01188 0
M  V30 2709 C 252.839 -1.44642 1.31674 0
M  V30 2710 O 254.045 -2.09997 1.72086 0
M  V30 2711 C 252.501 -0.306602 3.58592 0
M  V30 2712 C 252.109 0.985125 4.37035 0
M  V30 2713 C 253.853 -0.832091 4.16265 0
M  V30 2714 C 251.76 0.788382 5.86122 0
M  V30 2715 H 250.69 -0.0574701 0.751807 0
M  V30 2716 H 253.341 0.555772 1.74881 0
M  V30 2717 H 251.723 -1.06882 3.81303 0
M  V30 2718 H 252.897 1.75492 4.26074 0
M  V30 2719 H 251.212 1.4384 3.90767 0
M  V30 2720 H 253.809 -0.995617 5.25349 0
M  V30 2721 H 254.152 -1.81186 3.74803 0
M  V30 2722 H 254.685 -0.128444 3.97593 0
M  V30 2723 H 251.424 1.74025 6.31978 0
M  V30 2724 H 250.944 0.0582143 5.99772 0
M  V30 2725 H 252.623 0.437722 6.45518 0
M  V30 2726 N 252.755 -1.56801 0.158532 0
M  V30 2727 C 253.985 -2.00568 -0.495583 0
M  V30 2728 C 254.393 -1.03774 -1.58201 0
M  V30 2729 O 253.736 -0.0285797 -1.83678 0
M  V30 2730 C 253.798 -3.40768 -1.14532 0
M  V30 2731 C 253.462 -4.56553 -0.202101 0
M  V30 2732 C 254.459 -5.16714 0.574675 0
M  V30 2733 C 252.144 -5.02197 -0.101648 0
M  V30 2734 C 254.138 -6.20939 1.43924 0
M  V30 2735 C 251.825 -6.06274 0.766508 0
M  V30 2736 C 252.823 -6.65515 1.53555 0
M  V30 2737 O 252.511 -7.67575 2.38922 0
M  V30 2738 H 252.243 -0.662893 -0.13247 0
M  V30 2739 H 254.797 -2.03829 0.253559 0
M  V30 2740 H 253.027 -3.34381 -1.94233 0
M  V30 2741 H 254.716 -3.6857 -1.70033 0
M  V30 2742 H 255.482 -4.82341 0.507167 0
M  V30 2743 H 251.361 -4.55807 -0.689994 0
M  V30 2744 H 254.905 -6.67107 2.03996 0
M  V30 2745 H 250.802 -6.40073 0.835266 0
M  V30 2746 H 251.57 -7.84844 2.32296 0
M  V30 2747 N 254.233 0.115231 -1.57178 0
M  V30 2748 C 255.481 0.820727 -1.84685 0
M  V30 2749 C 255.802 1.80237 -0.744279 0
M  V30 2750 O 255.072 1.94529 0.231375 0
M  V30 2751 H 253.652 0.306084 -0.681411 0
M  V30 2752 H 256.314 0.101656 -1.94635 0
M  V30 2753 H 255.41 1.36366 -2.80733 0
M  V30 2754 N 255.711 1.52812 0.385517 0
M  V30 2755 C 256.959 1.67694 1.12797 0
M  V30 2756 C 257.28 0.421115 1.90399 0
M  V30 2757 O 256.55 -0.564551 1.87589 0
M  V30 2758 H 255.13 0.618155 0.419396 0
M  V30 2759 H 257.792 1.89938 0.436972 0
M  V30 2760 H 256.888 2.52896 1.82894 0
M  V30 2761 N 257.189 -0.644168 1.43834 0
M  V30 2762 C 258.435 -1.40603 1.46146 0
M  V30 2763 C 258.768 -1.93997 0.0887717 0
M  V30 2764 O 258.043 -1.72854 -0.891724 0
M  V30 2765 C 258.326 -2.58086 2.51124 0
M  V30 2766 C 258.179 -2.10126 3.97702 0
M  V30 2767 C 259.498 -3.60291 2.52742 0
M  V30 2768 H 256.617 -0.509905 0.532134 0
M  V30 2769 H 259.259 -0.729502 1.75437 0
M  V30 2770 H 257.409 -3.15801 2.26278 0
M  V30 2771 H 259.081 -1.57342 4.33637 0
M  V30 2772 H 257.324 -1.41419 4.10101 0
M  V30 2773 H 257.995 -2.94649 4.66783 0
M  V30 2774 H 260.471 -3.12352 2.7491 0
M  V30 2775 H 259.347 -4.40032 3.28121 0
M  V30 2776 H 259.608 -4.1349 1.56455 0
M  V30 2777 N 258.668 -1.30515 -0.883378 0
M  V30 2778 C 259.896 -1.22359 -1.66841 0
M  V30 2779 C 260.311 0.213296 -1.87591 0
M  V30 2780 O 259.668 1.14075 -1.42454 0
M  V30 2781 C 259.719 -1.95011 -3.04389 0
M  V30 2782 O 259.44 -3.3309 -2.84575 0
M  V30 2783 C 260.941 -1.93532 -3.98824 0
M  V30 2784 H 258.161 -0.423371 -0.520575 0
M  V30 2785 H 260.705 -1.72167 -1.10357 0
M  V30 2786 H 258.86 -1.48997 -3.57601 0
M  V30 2787 H 259.274 -3.69907 -3.71846 0
M  V30 2788 H 260.748 -2.48902 -4.92699 0
M  V30 2789 H 261.225 -0.914627 -4.29571 0
M  V30 2790 H 261.831 -2.39364 -3.51547 0
M  V30 2791 N 260.146 1.09593 -1.13257 0
M  V30 2792 C 261.076 2.18214 -0.830946 0
M  V30 2793 C 262.057 1.68812 0.208966 0
M  V30 2794 O 263.242 1.9408 0.0682666 0
M  V30 2795 C 260.372 3.46051 -0.294296 0
M  V30 2796 C 259.326 4.08778 -1.26826 0
M  V30 2797 C 258.652 5.31419 -0.591449 0
M  V30 2798 C 259.952 4.51476 -2.62615 0
M  V30 2799 H 261.646 2.43703 -1.73923 0
M  V30 2800 H 259.192 1.17128 -0.837675 0
M  V30 2801 H 261.145 4.2134 -0.0709606 0
M  V30 2802 H 259.869 3.20079 0.649366 0
M  V30 2803 H 258.528 3.35505 -1.47756 0
M  V30 2804 H 258.176 5.01727 0.357633 0
M  V30 2805 H 257.876 5.74341 -1.24123 0
M  V30 2806 H 259.4 6.09433 -0.377355 0
M  V30 2807 H 260.814 5.17999 -2.45663 0
M  V30 2808 H 259.211 5.05277 -3.23752 0
M  V30 2809 H 260.281 3.63962 -3.20406 0
M  V30 2810 N 261.624 0.925811 1.2754 0
M  V30 2811 C 262.572 0.413897 2.28888 0
M  V30 2812 C 263.566 -0.500779 1.61829 0
M  V30 2813 O 264.772 -0.38069 1.75928 0
M  V30 2814 H 261.147 0.115274 0.743112 0
M  V30 2815 H 263.118 1.28151 2.69481 0
M  V30 2816 C 261.867 -0.319792 3.46226 0
M  V30 2817 H 261.19 0.374846 3.98039 0
M  V30 2818 H 262.63 -0.642435 4.19105 0
M  V30 2819 C 261.089 -1.53209 3.00048 0
M  V30 2820 O 261.619 -2.6309 3.03557 0
M  V30 2821 N 259.825 -1.38326 2.55566 0
M  V30 2822 H 259.372 -0.489292 2.5291 0
M  V30 2823 H 259.33 -2.19564 2.25031 0
M  V30 2824 N 263.102 -1.41638 0.69111 0
M  V30 2825 C 264.513 -1.84346 0.295517 0
M  V30 2826 C 264.864 -1.57833 -1.16547 0
M  V30 2827 O 263.989 -1.04648 -1.89414 0
M  V30 2828 C 264.584 -3.34636 0.529575 0
M  V30 2829 C 263.143 -3.7593 0.187944 0
M  V30 2830 C 262.29 -2.65082 0.814052 0
M  V30 2831 H 265.241 -1.31253 0.892092 0
M  V30 2832 H 265.262 -3.79903 -0.213148 0
M  V30 2833 H 264.774 -3.53901 1.59297 0
M  V30 2834 H 262.875 -3.62268 -0.871367 0
M  V30 2835 H 262.988 -4.74808 0.63985 0
M  V30 2836 H 261.352 -2.53528 0.244017 0
M  V30 2837 H 262.135 -2.87167 1.88123 0
M  V30 2838 N 264.58 -0.43555 -1.51462 0
M  V30 2839 C 265.513 0.421989 -2.24264 0
M  V30 2840 C 266.491 1.02619 -1.26127 0
M  V30 2841 O 267.675 1.069 -1.55257 0
M  V30 2842 C 264.802 1.588 -2.99166 0
M  V30 2843 C 263.848 1.10465 -4.11946 0
M  V30 2844 S 264.681 0.048146 -5.35478 0
M  V30 2845 C 265.837 1.21887 -6.13917 0
M  V30 2846 H 266.07 -0.196102 -2.96653 0
M  V30 2847 H 263.603 -0.220054 -1.52824 0
M  V30 2848 H 265.561 2.25647 -3.42919 0
M  V30 2849 H 264.222 2.1775 -2.26371 0
M  V30 2850 H 263.415 1.97654 -4.63626 0
M  V30 2851 H 263.017 0.51445 -3.70445 0
M  V30 2852 H 265.309 2.13756 -6.42895 0
M  V30 2853 H 266.252 0.742076 -7.04201 0
M  V30 2854 H 266.66 1.45663 -5.45383 0
M  V30 2855 N 266.058 1.56714 -0.166846 0
M  V30 2856 C 267.288 2.00828 0.48494 0
M  V30 2857 C 267.696 1.04612 1.57648 0
M  V30 2858 O 267.039 0.0383201 1.8366 0
M  V30 2859 C 267.101 3.4137 1.12723 0
M  V30 2860 C 266.765 4.56654 0.177886 0
M  V30 2861 C 267.762 5.16402 -0.60207 0
M  V30 2862 C 265.447 5.02244 0.0750139 0
M  V30 2863 C 267.441 6.20167 -1.47215 0
M  V30 2864 C 265.128 6.05859 -0.798649 0
M  V30 2865 C 266.126 6.64691 -1.57082 0
M  V30 2866 O 265.814 7.66297 -2.42989 0
M  V30 2867 H 265.546 0.663587 0.128953 0
M  V30 2868 H 268.1 2.03692 -0.264365 0
M  V30 2869 H 266.33 3.35406 1.92457 0
M  V30 2870 H 268.019 3.69466 1.68076 0
M  V30 2871 H 268.785 4.82065 -0.53274 0
M  V30 2872 H 264.664 4.56167 0.665812 0
M  V30 2873 H 268.208 6.66016 -2.07531 0
M  V30 2874 H 264.105 6.39621 -0.869199 0
M  V30 2875 H 264.873 7.83601 -2.36455 0
M  V30 2876 N 267.536 -0.106894 1.57237 0
M  V30 2877 C 268.782 -0.808678 1.86633 0
M  V30 2878 C 269.137 -1.76917 0.756178 0
M  V30 2879 O 268.43 -1.90055 -0.242834 0
M  V30 2880 C 268.624 -1.58628 3.20268 0
M  V30 2881 C 268.453 -0.702592 4.44178 0
M  V30 2882 C 267.223 -0.352808 5.04067 0
M  V30 2883 C 269.421 -0.0148031 5.14298 0
M  V30 2884 N 267.403 0.540279 6.11518 0
M  V30 2885 C 268.774 0.736809 6.15606 0
M  V30 2886 C 270.829 0.0603524 4.97863 0
M  V30 2887 C 269.532 1.55654 7.02257 0
M  V30 2888 C 271.558 0.866942 5.85011 0
M  V30 2889 C 270.92 1.60671 6.85831 0
M  V30 2890 H 267.019 -0.27246 0.733001 0
M  V30 2891 H 269.603 -0.0717858 1.94568 0
M  V30 2892 H 267.774 -2.29413 3.13408 0
M  V30 2893 H 269.506 -2.23434 3.3743 0
M  V30 2894 H 266.261 -0.697802 4.68431 0
M  V30 2895 H 266.685 0.979029 6.69884 0
M  V30 2896 H 271.327 -0.497236 4.19866 0
M  V30 2897 H 269.045 2.12524 7.79653 0
M  V30 2898 H 272.631 0.927612 5.74358 0
M  V30 2899 H 271.511 2.2208 7.52097 0
M  V30 2900 N 269.014 -1.53014 -0.377408 0
M  V30 2901 C 270.425 -1.60438 -0.954798 0
M  V30 2902 C 270.776 -0.464418 -1.90624 0
M  V30 2903 O 269.901 0.41087 -2.12464 0
M  V30 2904 C 270.496 -2.90797 -1.73847 0
M  V30 2905 C 269.055 -3.00595 -2.26538 0
M  V30 2906 C 268.202 -2.55645 -1.07429 0
M  V30 2907 H 271.153 -1.57926 -0.156575 0
M  V30 2908 H 271.174 -2.77935 -2.5987 0
M  V30 2909 H 270.686 -3.73746 -1.04574 0
M  V30 2910 H 268.787 -2.22208 -2.99089 0
M  V30 2911 H 268.9 -4.05456 -2.5523 0
M  V30 2912 H 267.264 -2.10239 -1.43777 0
M  V30 2913 H 268.047 -3.41 -0.396728 0
M  V30 2914 N 270.492 0.636531 -1.44174 0
M  V30 2915 C 271.455 1.73063 -1.50273 0
M  V30 2916 C 272.455 1.56113 -0.385397 0
M  V30 2917 O 273.645 1.61707 -0.64781 0
M  V30 2918 C 270.777 3.12096 -1.37145 0
M  V30 2919 H 271.97 1.69031 -2.47727 0
M  V30 2920 H 269.523 0.849706 -1.31186 0
M  V30 2921 H 270.258 3.21728 -0.407636 0
M  V30 2922 H 270.043 3.25805 -2.18159 0
M  V30 2923 H 271.533 3.91846 -1.44382 0
M  V30 2924 N 271.97 1.30982 0.876444 0
M  V30 2925 C 273.386 1.09498 1.16113 0
M  V30 2926 C 273.586 -0.13875 2.01022 0
M  V30 2927 O 272.642 -0.829935 2.38471 0
M  V30 2928 C 273.955 2.36308 1.85954 0
M  V30 2929 C 275.503 2.41856 1.98683 0
M  V30 2930 C 275.978 3.6853 2.71937 0
M  V30 2931 N 277.469 3.69387 2.79477 0
M  V30 2932 C 278.204 4.64096 3.36753 0
M  V30 2933 N 277.7 5.69155 3.95012 0
M  V30 2934 N 279.493 4.51626 3.3465 0
M  V30 2935 H 271.644 2.10118 0.310494 0
M  V30 2936 H 273.907 0.926634 0.200131 0
M  V30 2937 H 273.613 3.26388 1.31011 0
M  V30 2938 H 273.487 2.4561 2.86278 0
M  V30 2939 H 275.874 1.52249 2.52793 0
M  V30 2940 H 275.955 2.36523 0.9742 0
M  V30 2941 H 275.599 4.58499 2.18496 0
M  V30 2942 H 275.529 3.71127 3.73593 0
M  V30 2943 H 278.02 2.93438 2.38123 0
M  V30 2944 H 278.333 6.3751 4.36808 0
M  V30 2945 H 276.678 5.72937 3.93406 0
M  V30 2946 H 279.869 3.68728 2.8837 0
M  V30 2947 H 280.042 5.25614 3.7899 0
M  V30 2948 N 273.449 -1.08991 1.13837 0
M  V30 2949 C 274.865 -1.33312 0.877506 0
M  V30 2950 C 275.065 -1.95587 -0.48456 0
M  V30 2951 O 274.121 -2.20509 -1.23013 0
M  V30 2952 C 275.434 -2.24045 2.0056 0
M  V30 2953 C 276.982 -2.37542 2.03821 0
M  V30 2954 C 277.457 -3.31614 3.15905 0
M  V30 2955 N 278.948 -3.39189 3.15445 0
M  V30 2956 C 279.683 -4.11992 3.98811 0
M  V30 2957 N 279.179 -4.87553 4.92203 0
M  V30 2958 N 280.972 -4.07762 3.86894 0
M  V30 2959 H 273.123 -0.669456 2.01574 0
M  V30 2960 H 275.386 -0.357482 0.878015 0
M  V30 2961 H 275.092 -1.85521 2.98789 0
M  V30 2962 H 274.966 -3.24466 1.92359 0
M  V30 2963 H 277.353 -2.75327 1.06202 0
M  V30 2964 H 277.434 -1.36884 2.16093 0
M  V30 2965 H 277.078 -2.94551 4.13766 0
M  V30 2966 H 277.008 -4.32186 3.0087 0
M  V30 2967 H 279.499 -2.85314 2.47799 0
M  V30 2968 H 279.812 -5.40549 5.52292 0
M  V30 2969 H 278.157 -4.86627 4.96205 0
M  V30 2970 H 281.348 -3.47833 3.13257 0
M  V30 2971 H 281.521 -4.64238 4.52092 0
M  V30 2972 N 274.927 -0.932562 -1.27047 0
M  V30 2973 C 275.859 -0.392734 -2.2581 0
M  V30 2974 C 276.872 0.479241 -1.55586 0
M  V30 2975 O 278.061 0.291078 -1.76111 0
M  V30 2976 C 275.161 0.455456 -3.35826 0
M  V30 2977 C 274.334 -0.398355 -4.35582 0
M  V30 2978 C 273.393 0.387985 -5.24768 0
M  V30 2979 O 272.419 -0.206003 -5.68827 0
M  V30 2980 N 273.621 1.68664 -5.55457 0
M  V30 2981 H 276.386 -1.24173 -2.72766 0
M  V30 2982 H 273.947 -0.800511 -1.40725 0
M  V30 2983 H 275.939 0.988692 -3.92437 0
M  V30 2984 H 274.509 1.20522 -2.88432 0
M  V30 2985 H 273.729 -1.11286 -3.78165 0
M  V30 2986 H 275.017 -0.981889 -4.99236 0
M  V30 2987 H 274.415 2.19147 -5.21528 0
M  V30 2988 H 272.972 2.1663 -6.14748 0
M  V30 2989 N 276.405 1.4127 -0.698611 0
M  V30 2990 C 277.315 2.34573 -0.0357891 0
M  V30 2991 C 278.331 1.56393 0.762701 0
M  V30 2992 O 279.507 1.8886 0.699564 0
M  V30 2993 C 276.572 3.35159 0.887089 0
M  V30 2994 C 275.633 4.29225 0.0804634 0
M  V30 2995 C 274.866 5.25006 0.959387 0
M  V30 2996 O 275.089 5.26314 2.19886 0
M  V30 2997 O 274.023 6.00519 0.407439 0
M  V30 2998 H 277.849 2.92838 -0.804957 0
M  V30 2999 H 275.434 1.42175 -0.458966 0
M  V30 3000 H 277.316 3.9689 1.41621 0
M  V30 3001 H 275.991 2.79333 1.6357 0
M  V30 3002 H 274.898 3.70833 -0.493328 0
M  V30 3003 H 276.231 4.88157 -0.629547 0
M  V30 3004 N 277.883 0.443576 1.51229 0
M  V30 3005 C 279.111 -0.11929 2.06556 0
M  V30 3006 C 279.526 -1.35921 1.31038 0
M  V30 3007 O 278.883 -1.78675 0.371704 0
M  V30 3008 C 278.934 -0.435228 3.5887 0
M  V30 3009 O 278.655 0.755486 4.31537 0
M  V30 3010 C 280.156 -1.04808 4.30732 0
M  V30 3011 H 277.376 -0.0051584 0.67098 0
M  V30 3012 H 279.92 0.624453 1.94733 0
M  V30 3013 H 278.075 -1.12887 3.70588 0
M  V30 3014 H 278.489 0.483491 5.22267 0
M  V30 3015 H 279.963 -1.2191 5.3837 0
M  V30 3016 H 280.44 -2.03081 3.89429 0
M  V30 3017 H 281.046 -0.393637 4.23474 0
M  V30 3018 N 279.361 -1.56624 0.175154 0
M  V30 3019 C 280.291 -2.21155 -0.749195 0
M  V30 3020 C 281.272 -1.16836 -1.23626 0
M  V30 3021 O 282.457 -1.45277 -1.28873 0
M  V30 3022 C 279.587 -2.8553 -1.97711 0
M  V30 3023 C 278.541 -3.95921 -1.62575 0
M  V30 3024 C 277.867 -4.47365 -2.92864 0
M  V30 3025 C 279.167 -5.15323 -0.850838 0
M  V30 3026 H 280.861 -2.98653 -0.211295 0
M  V30 3027 H 278.407 -1.43651 -0.100188 0
M  V30 3028 H 280.36 -3.2935 -2.62881 0
M  V30 3029 H 279.084 -2.05406 -2.53921 0
M  V30 3030 H 277.743 -3.52762 -0.997719 0
M  V30 3031 H 277.391 -3.64027 -3.47122 0
M  V30 3032 H 277.091 -5.21839 -2.70106 0
M  V30 3033 H 278.615 -4.93873 -3.59056 0
M  V30 3034 H 280.029 -5.55812 -1.40521 0
M  V30 3035 H 278.426 -5.95739 -0.722154 0
M  V30 3036 H 279.496 -4.84661 0.152082 0
M  V30 3037 N 280.839 0.0985539 -1.57292 0
M  V30 3038 C 281.769 1.12064 -2.04851 0
M  V30 3039 C 282.75 1.41981 -0.936767 0
M  V30 3040 O 283.935 1.52071 -1.20781 0
M  V30 3041 C 281.065 2.44144 -2.47004 0
M  V30 3042 C 280.019 2.28643 -3.6181 0
M  V30 3043 C 279.345 3.65869 -3.89929 0
M  V30 3044 C 280.645 1.72986 -4.92822 0
M  V30 3045 H 282.339 0.724979 -2.9049 0
M  V30 3046 H 279.885 0.34729 -1.39749 0
M  V30 3047 H 281.838 3.15914 -2.78884 0
M  V30 3048 H 280.562 2.85639 -1.5836 0
M  V30 3049 H 279.221 1.59318 -3.30172 0
M  V30 3050 H 278.869 4.04885 -2.98458 0
M  V30 3051 H 278.569 3.56344 -4.67218 0
M  V30 3052 H 280.093 4.39112 -4.2428 0
M  V30 3053 H 281.507 2.34593 -5.23105 0
M  V30 3054 H 279.904 1.74229 -5.74251 0
M  V30 3055 H 280.974 0.689007 -4.7998 0
M  V30 3056 N 282.317 1.53212 0.369288 0
M  V30 3057 C 283.545 1.73119 1.13303 0
M  V30 3058 C 283.96 0.458455 1.83149 0
M  V30 3059 O 283.317 -0.568403 1.73423 0
M  V30 3060 C 283.368 2.89413 2.16616 0
M  V30 3061 O 283.089 4.11761 1.49614 0
M  V30 3062 C 284.59 3.21161 3.05566 0
M  V30 3063 H 281.81 0.579107 0.338934 0
M  V30 3064 H 284.354 1.99942 0.429338 0
M  V30 3065 H 282.509 2.64994 2.82589 0
M  V30 3066 H 282.923 4.76858 2.18419 0
M  V30 3067 H 284.397 4.05949 3.74045 0
M  V30 3068 H 284.874 2.36369 3.70171 0
M  V30 3069 H 285.48 3.47492 2.45213 0
M  V30 3070 N 283.795 -0.628877 1.44509 0
M  V30 3071 C 285.023 -1.41554 1.50897 0
M  V30 3072 C 285.438 -1.8832 0.134564 0
M  V30 3073 O 284.795 -1.60969 -0.859965 0
M  V30 3074 C 284.846 -2.63435 2.47556 0
M  V30 3075 O 284.567 -2.18619 3.79654 0
M  V30 3076 C 286.068 -3.56537 2.63431 0
M  V30 3077 H 283.288 -0.434044 0.511709 0
M  V30 3078 H 285.832 -0.768895 1.89495 0
M  V30 3079 H 283.987 -3.24187 2.12089 0
M  V30 3080 H 284.401 -2.97652 4.31861 0
M  V30 3081 H 285.875 -4.38657 3.35088 0
M  V30 3082 H 286.352 -4.05493 1.68738 0
M  V30 3083 H 286.958 -3.01653 2.9981 0
M  V30 3084 N 285.273 -1.31445 -0.869486 0
M  V30 3085 C 286.236 -1.19094 -1.9583 0
M  V30 3086 C 287.236 -0.117906 -1.60367 0
M  V30 3087 O 288.426 -0.367208 -1.70286 0
M  V30 3088 C 285.558 -0.828165 -3.30688 0
M  V30 3089 H 286.751 -2.15842 -2.08212 0
M  V30 3090 H 284.304 -1.15063 -1.05784 0
M  V30 3091 H 285.039 0.138142 -3.24006 0
M  V30 3092 H 284.824 -1.6038 -3.578 0
M  V30 3093 H 286.314 -0.765658 -4.10521 0
M  V30 3094 N 286.751 1.08385 -1.14413 0
M  V30 3095 C 288 1.80153 -0.907076 0
M  V30 3096 C 288.313 1.87176 0.567851 0
M  V30 3097 O 289.519 2.55359 0.922172 0
M  V30 3098 C 287.975 3.23687 -1.57336 0
M  V30 3099 C 287.583 3.24897 -3.08457 0
M  V30 3100 C 289.327 4.00136 -1.41744 0
M  V30 3101 C 287.234 4.6302 -3.67921 0
M  V30 3102 H 286.164 0.675139 -0.335714 0
M  V30 3103 H 288.815 1.21733 -1.37307 0
M  V30 3104 H 287.197 3.82234 -1.03505 0
M  V30 3105 H 288.371 2.76055 -3.68958 0
M  V30 3106 H 286.686 2.61943 -3.2369 0
M  V30 3107 H 289.283 5.02201 -1.83572 0
M  V30 3108 H 289.626 4.14709 -0.363576 0
M  V30 3109 H 290.159 3.48058 -1.92614 0
M  V30 3110 H 286.898 4.5365 -4.73161 0
M  V30 3111 H 286.418 5.12143 -3.12201 0
M  V30 3112 H 288.097 5.31994 -3.68227 0
M  V30 3113 N 288.23 0.939286 1.26551 0
M  V30 3114 C 289.46 0.601663 1.97645 0
M  V30 3115 C 289.868 -0.827206 1.70159 0
M  V30 3116 O 289.211 -1.56291 0.965338 0
M  V30 3117 C 289.273 0.761725 3.51337 0
M  V30 3118 C 288.937 2.16487 4.0247 0
M  V30 3119 C 289.934 3.14016 4.14355 0
M  V30 3120 C 287.619 2.48494 4.36527 0
M  V30 3121 C 289.613 4.41654 4.59587 0
M  V30 3122 C 287.3 3.76364 4.81449 0
M  V30 3123 C 288.298 4.72758 4.92939 0
M  V30 3124 O 287.986 5.98352 5.36871 0
M  V30 3125 H 287.718 0.225758 0.637189 0
M  V30 3126 H 290.272 1.26178 1.62075 0
M  V30 3127 H 288.502 0.0444808 3.86674 0
M  V30 3128 H 290.191 0.427442 4.03643 0
M  V30 3129 H 290.957 2.90613 3.8829 0
M  V30 3130 H 286.836 1.74202 4.26819 0
M  V30 3131 H 290.38 5.16896 4.68471 0
M  V30 3132 H 286.277 3.99582 5.06956 0
M  V30 3133 H 287.045 6.01507 5.55096 0
M  V30 3134 N 289.708 -1.40897 0.706093 0
M  V30 3135 C 290.655 -2.30751 0.0474474 0
M  V30 3136 C 291.625 -1.47678 -0.76029 0
M  V30 3137 O 292.81 -1.76441 -0.726177 0
M  V30 3138 C 289.95 -3.33815 -0.875309 0
M  V30 3139 C 289.063 -4.31961 -0.0580623 0
M  V30 3140 C 288.198 -5.22093 -0.979425 0
M  V30 3141 C 287.237 -6.11902 -0.155706 0
M  V30 3142 N 286.374 -6.94482 -1.03144 0
M  V30 3143 H 291.214 -2.86513 0.819413 0
M  V30 3144 H 288.751 -1.41102 0.415783 0
M  V30 3145 H 290.709 -3.92129 -1.42446 0
M  V30 3146 H 289.339 -2.79579 -1.61356 0
M  V30 3147 H 288.391 -3.75507 0.608147 0
M  V30 3148 H 289.703 -4.95415 0.580082 0
M  V30 3149 H 288.857 -5.85292 -1.59744 0
M  V30 3150 H 287.596 -4.5889 -1.65141 0
M  V30 3151 H 286.601 -5.47742 0.475309 0
M  V30 3152 H 287.826 -6.77162 0.512635 0
M  V30 3153 H 285.772 -6.33877 -1.68924 0
M  V30 3154 H 285.689 -7.54665 -0.449108 0
M  V30 3155 H 286.957 -7.6214 -1.63593 0
M  V30 3156 N 291.186 -0.45159 -1.50991 0
M  V30 3157 C 292.433 0.110074 -2.02201 0
M  V30 3158 C 292.761 1.4146 -1.33489 0
M  V30 3159 O 292.016 1.90617 -0.443125 0
M  V30 3160 C 292.315 0.361728 -3.55565 0
M  V30 3161 C 291.981 -0.858717 -4.42648 0
M  V30 3162 C 290.643 -1.19338 -4.66167 0
M  V30 3163 C 292.995 -1.67221 -4.93646 0
M  V30 3164 C 290.323 -2.34195 -5.37931 0
M  V30 3165 C 292.675 -2.8119 -5.6667 0
M  V30 3166 C 291.339 -3.15094 -5.88449 0
M  V30 3167 H 290.609 0.040279 -0.739904 0
M  V30 3168 H 293.256 -0.601696 -1.81802 0
M  V30 3169 H 291.561 1.15554 -3.74372 0
M  V30 3170 H 293.258 0.80996 -3.92735 0
M  V30 3171 H 289.848 -0.58796 -4.24548 0
M  V30 3172 H 294.032 -1.42686 -4.75347 0
M  V30 3173 H 289.288 -2.6076 -5.53005 0
M  V30 3174 H 293.462 -3.44585 -6.05173 0
M  V30 3175 H 291.089 -4.04204 -6.43835 0
M  V30 3176 N 292.664 1.56529 -0.183458 0
M  V30 3177 C 293.614 2.1515 0.754605 0
M  V30 3178 C 294.598 1.08904 1.18443 0
M  V30 3179 O 295.79 1.34997 1.14476 0
M  V30 3180 C 292.919 2.80531 1.97881 0
M  V30 3181 C 292.005 3.93952 1.57043 0
M  V30 3182 N 292.396 4.98221 0.87231 0
M  V30 3183 C 290.694 4.05338 1.86057 0
M  V30 3184 C 291.395 5.77836 0.669377 0
M  V30 3185 N 290.371 5.29858 1.21454 0
M  V30 3186 H 294.173 2.93132 0.212387 0
M  V30 3187 H 291.687 1.62391 0.0167725 0
M  V30 3188 H 293.684 3.20914 2.6612 0
M  V30 3189 H 292.344 2.04035 2.52586 0
M  V30 3190 H 293.355 5.15191 0.529033 0
M  V30 3191 H 290.032 3.39957 2.42354 0
M  V30 3192 H 291.422 6.71799 0.116422 0
M  V30 3193 N 294.142 -0.090211 1.57342 0
M  V30 3194 C 295.553 -0.644173 1.75235 0
M  V30 3195 C 295.904 -1.78865 0.806335 0
M  V30 3196 O 295.029 -2.16395 -0.0140128 0
M  V30 3197 C 295.624 -1.17532 3.1776 0
M  V30 3198 C 294.183 -1.67531 3.37061 0
M  V30 3199 C 293.33 -0.58693 2.71017 0
M  V30 3200 H 296.281 0.135884 1.58117 0
M  V30 3201 H 296.302 -2.04455 3.20902 0
M  V30 3202 H 295.814 -0.342138 3.86589 0
M  V30 3203 H 293.915 -2.53234 2.73319 0
M  V30 3204 H 294.028 -1.76493 4.45406 0
M  V30 3205 H 292.392 -1.02756 2.33052 0
M  V30 3206 H 293.175 0.235758 3.4249 0
M  V30 3207 N 295.62 -1.53406 -0.361157 0
M  V30 3208 C 296.53 -1.83122 -1.4664 0
M  V30 3209 C 297.546 -0.719943 -1.58407 0
M  V30 3210 O 298.722 -1.01046 -1.74218 0
M  V30 3211 C 295.787 -2.01891 -2.81853 0
M  V30 3212 C 294.848 -3.25784 -2.79577 0
M  V30 3213 C 294.081 -3.43648 -4.0834 0
M  V30 3214 O 294.304 -2.65714 -5.0473 0
M  V30 3215 O 293.238 -4.37018 -4.13883 0
M  V30 3216 H 297.064 -2.7703 -1.24451 0
M  V30 3217 H 294.649 -1.38841 -0.551678 0
M  V30 3218 H 296.531 -2.15782 -3.61962 0
M  V30 3219 H 295.206 -1.11173 -3.0401 0
M  V30 3220 H 294.113 -3.17312 -1.98151 0
M  V30 3221 H 295.446 -4.16439 -2.62373 0
M  V30 3222 N 297.098 0.621204 -1.44841 0
M  V30 3223 C 298.345 1.38055 -1.48145 0
M  V30 3224 C 298.673 1.94143 -0.117867 0
M  V30 3225 O 297.928 1.74713 0.881694 0
M  V30 3226 C 298.227 2.55675 -2.4973 0
M  V30 3227 C 297.893 2.17817 -3.94799 0
M  V30 3228 C 296.555 2.07205 -4.34303 0
M  V30 3229 C 298.907 1.88065 -4.86087 0
M  V30 3230 C 296.235 1.65045 -5.63007 0
M  V30 3231 C 298.587 1.47394 -6.15189 0
M  V30 3232 C 297.251 1.35331 -6.53637 0
M  V30 3233 H 296.521 0.505181 -0.542101 0
M  V30 3234 H 299.168 0.703477 -1.78111 0
M  V30 3235 H 297.473 3.2866 -2.13284 0
M  V30 3236 H 299.17 3.13904 -2.4953 0
M  V30 3237 H 295.76 2.26998 -3.63552 0
M  V30 3238 H 299.944 1.95168 -4.56315 0
M  V30 3239 H 295.2 1.54317 -5.91605 0
M  V30 3240 H 299.374 1.23415 -6.85377 0
M  V30 3241 H 297.001 1.02435 -7.53267 0
M  V30 3242 N 298.576 1.31904 0.862503 0
M  V30 3243 C 299.539 1.20131 1.95195 0
M  V30 3244 C 300.539 0.126409 1.60302 0
M  V30 3245 O 301.729 0.376234 1.70089 0
M  V30 3246 C 298.861 0.845691 3.30244 0
M  V30 3247 H 300.054 2.16943 2.07064 0
M  V30 3248 H 297.607 1.15622 1.05172 0
M  V30 3249 H 298.342 -0.120957 3.24074 0
M  V30 3250 H 298.127 1.62276 3.56944 0
M  V30 3251 H 299.617 0.787418 4.10109 0
M  V30 3252 N 300.054 -1.07777 1.14986 0
M  V30 3253 C 301.002 -2.16964 0.838406 0
M  V30 3254 C 301.996 -1.68372 -0.186386 0
M  V30 3255 O 303.202 -1.79951 -0.0418465 0
M  V30 3256 H 299.577 -0.708006 0.253439 0
M  V30 3257 H 301.548 -2.40454 1.76704 0
M  V30 3258 C 300.297 -3.4604 0.339335 0
M  V30 3259 H 299.62 -3.83813 1.11927 0
M  V30 3260 H 301.06 -4.23698 0.160021 0
M  V30 3261 C 299.519 -3.23569 -0.938325 0
M  V30 3262 O 300.049 -3.47752 -2.01077 0
M  V30 3263 N 298.255 -2.77079 -0.876117 0
M  V30 3264 H 297.802 -2.576 -0.00322037 0
M  V30 3265 H 297.76 -2.62422 -1.73153 0
M  V30 3266 N 301.532 -0.945985 -1.26051 0
M  V30 3267 C 302.495 -0.463897 -2.24456 0
M  V30 3268 C 303.495 0.427655 -1.55009 0
M  V30 3269 O 304.685 0.226157 -1.72726 0
M  V30 3270 C 301.817 0.330812 -3.39291 0
M  V30 3271 H 303.01 -1.33357 -2.68619 0
M  V30 3272 H 300.563 -0.728416 -1.38289 0
M  V30 3273 H 301.298 1.21852 -3.00537 0
M  V30 3274 H 301.083 -0.308679 -3.90883 0
M  V30 3275 H 302.573 0.657865 -4.12386 0
M  V30 3276 N 303.011 1.40521 -0.713556 0
M  V30 3277 C 303.921 2.34522 -0.0606667 0
M  V30 3278 C 304.937 1.57193 0.74607 0
M  V30 3279 O 306.113 1.89591 0.679493 0
M  V30 3280 C 303.178 3.36081 0.851491 0
M  V30 3281 C 302.239 4.29286 0.0349339 0
M  V30 3282 C 301.472 5.25994 0.903649 0
M  V30 3283 O 301.695 5.28616 2.14292 0
M  V30 3284 O 300.629 6.00918 0.343723 0
M  V30 3285 H 304.455 2.91968 -0.835972 0
M  V30 3286 H 302.04 1.41681 -0.47402 0
M  V30 3287 H 303.922 3.98369 1.37404 0
M  V30 3288 H 302.597 2.81052 1.60598 0
M  V30 3289 H 301.504 3.70289 -0.532633 0
M  V30 3290 H 302.837 4.87462 -0.681287 0
M  V30 3291 N 304.489 0.459591 1.5075 0
M  V30 3292 C 305.736 -0.0993495 2.02256 0
M  V30 3293 C 306.064 -1.40751 1.34237 0
M  V30 3294 O 305.319 -1.90379 0.453228 0
M  V30 3295 C 305.618 -0.342866 3.55752 0
M  V30 3296 C 305.284 0.88218 4.42186 0
M  V30 3297 C 303.946 1.21808 4.65528 0
M  V30 3298 C 306.298 1.69837 4.92752 0
M  V30 3299 C 303.626 2.37045 5.36681 0
M  V30 3300 C 305.978 2.84192 5.65171 0
M  V30 3301 C 304.642 3.1821 5.8677 0
M  V30 3302 H 303.912 -0.0363545 0.740108 0
M  V30 3303 H 306.559 0.611329 1.8148 0
M  V30 3304 H 304.864 -1.13567 3.7498 0
M  V30 3305 H 306.561 -0.789121 3.93159 0
M  V30 3306 H 303.151 0.610467 4.2423 0
M  V30 3307 H 307.335 1.45205 4.74583 0
M  V30 3308 H 302.591 2.63689 5.51614 0
M  V30 3309 H 306.765 3.4779 6.03337 0
M  V30 3310 H 304.392 4.07613 6.41682 0
M  V30 3311 N 305.967 -1.56429 0.191757 0
M  V30 3312 C 306.877 -2.22541 -0.742481 0
M  V30 3313 C 307.893 -1.22342 -1.23727 0
M  V30 3314 O 309.069 -1.55069 -1.28513 0
M  V30 3315 C 306.134 -2.8692 -1.94623 0
M  V30 3316 C 305.195 -4.02378 -1.49633 0
M  V30 3317 C 304.428 -4.63678 -2.6427 0
M  V30 3318 O 304.651 -4.23895 -3.81666 0
M  V30 3319 O 303.585 -5.53202 -2.37174 0
M  V30 3320 H 307.411 -3.02977 -0.209462 0
M  V30 3321 H 304.996 -1.49353 -0.0373832 0
M  V30 3322 H 306.878 -3.27663 -2.64982 0
M  V30 3323 H 305.553 -2.09466 -2.46791 0
M  V30 3324 H 304.46 -3.66265 -0.761636 0
M  V30 3325 H 305.793 -4.81487 -1.02134 0
M  V30 3326 N 307.445 0.0818655 -1.57387 0
M  V30 3327 C 308.694 0.781681 -1.85937 0
M  V30 3328 C 309.007 1.79246 -0.782957 0
M  V30 3329 O 310.213 2.54112 -0.955987 0
M  V30 3330 C 308.669 1.44109 -3.29789 0
M  V30 3331 C 308.277 0.469396 -4.45534 0
M  V30 3332 C 310.021 2.12386 -3.67549 0
M  V30 3333 C 307.928 1.13415 -5.80423 0
M  V30 3334 H 306.858 0.295682 -0.693605 0
M  V30 3335 H 309.509 0.0348051 -1.83467 0
M  V30 3336 H 307.891 2.23588 -3.2684 0
M  V30 3337 H 309.065 -0.294856 -4.59856 0
M  V30 3338 H 307.38 -0.108383 -4.16259 0
M  V30 3339 H 309.977 2.62878 -4.65617 0
M  V30 3340 H 310.32 2.91877 -2.96839 0
M  V30 3341 H 310.853 1.39751 -3.72444 0
M  V30 3342 H 307.592 0.379771 -6.54399 0
M  V30 3343 H 307.112 1.8695 -5.69921 0
M  V30 3344 H 308.791 1.65686 -6.25426 0
M  V30 3345 N 308.923 1.53595 0.353017 0
M  V30 3346 C 310.169 1.71581 1.09232 0
M  V30 3347 C 310.524 0.468328 1.86613 0
M  V30 3348 O 309.817 -0.538911 1.83865 0
M  V30 3349 C 310.011 2.91313 2.07054 0
M  V30 3350 C 309.84 4.27585 1.39287 0
M  V30 3351 C 308.61 4.92233 1.1417 0
M  V30 3352 C 310.808 5.07656 0.824005 0
M  V30 3353 N 308.79 6.124 0.428841 0
M  V30 3354 C 310.161 6.19531 0.241195 0
M  V30 3355 C 312.216 4.92609 0.723922 0
M  V30 3356 C 310.919 7.18002 -0.431952 0
M  V30 3357 C 312.945 5.91365 0.0645334 0
M  V30 3358 C 312.307 7.02571 -0.507347 0
M  V30 3359 H 308.406 0.680987 0.384422 0
M  V30 3360 H 310.99 1.91013 0.377096 0
M  V30 3361 H 309.161 2.73398 2.75877 0
M  V30 3362 H 310.893 2.98062 2.73753 0
M  V30 3363 H 307.648 4.51612 1.42631 0
M  V30 3364 H 308.072 6.76944 0.0874131 0
M  V30 3365 H 312.714 4.06808 1.15181 0
M  V30 3366 H 310.432 8.03384 -0.871758 0
M  V30 3367 H 314.018 5.81799 -0.0121469 0
M  V30 3368 H 312.898 7.77675 -1.0095 0
M  V30 3369 N 310.401 -0.613514 1.45168 0
M  V30 3370 C 311.631 -1.39743 1.52169 0
M  V30 3371 C 312.039 -1.88596 0.151086 0
M  V30 3372 O 311.382 -1.6251 -0.856521 0
M  V30 3373 C 311.444 -2.64035 2.43979 0
M  V30 3374 C 311.108 -2.36861 3.90827 0
M  V30 3375 C 312.105 -1.97591 4.80889 0
M  V30 3376 C 309.79 -2.49956 4.35692 0
M  V30 3377 C 311.784 -1.71768 6.1382 0
M  V30 3378 C 309.471 -2.23747 5.68665 0
M  V30 3379 C 310.469 -1.84714 6.57548 0
M  V30 3380 O 310.157 -1.58809 7.88058 0
M  V30 3381 H 309.889 -0.434382 0.517966 0
M  V30 3382 H 312.443 -0.75587 1.90986 0
M  V30 3383 H 310.673 -3.3089 2.00122 0
M  V30 3384 H 312.362 -3.26069 2.41731 0
M  V30 3385 H 313.128 -1.87015 4.47493 0
M  V30 3386 H 309.007 -2.79305 3.66756 0
M  V30 3387 H 312.551 -1.41227 6.83155 0
M  V30 3388 H 308.448 -2.33938 6.01617 0
M  V30 3389 H 309.216 -1.7291 8.00028 0
M  V30 3390 N 311.879 -1.3236 -0.855495 0
M  V30 3391 C 313.127 -1.22629 -1.60644 0
M  V30 3392 C 313.448 0.212136 -1.93843 0
M  V30 3393 O 312.718 1.13666 -1.59552 0
M  V30 3394 H 311.298 -0.450882 -0.595579 0
M  V30 3395 H 313.96 -1.65871 -1.02337 0
M  V30 3396 H 313.056 -1.80832 -2.54374 0
M  V30 3397 N 313.357 1.07166 -1.15556 0
M  V30 3398 C 314.634 1.76546 -0.842069 0
M  V30 3399 C 315.014 2.00453 0.661939 0
M  V30 3400 O 314.362 1.62452 1.60691 0
M  V30 3401 C 314.572 3.07266 -1.65495 0
M  V30 3402 C 315.92 3.81578 -1.86234 0
M  V30 3403 O 316.944 3.17083 -1.62287 0
M  V30 3404 O 315.803 4.97419 -2.26355 0
M  V30 3405 H 312.897 0.766756 -0.309862 0
M  V30 3406 H 315.443 1.13514 -1.26145 0
M  V30 3407 H 314.215 2.85494 -2.67598 0
M  V30 3408 H 313.838 3.7803 -1.23203 0
M  V30 3409 N 314.835 0.952656 1.25548 0
M  V30 3410 C 316.246 0.647392 1.75116 0
M  V30 3411 C 316.597 -0.837274 1.77438 0
M  V30 3412 O 315.722 -1.65525 1.39393 0
M  V30 3413 C 316.317 1.16845 3.18014 0
M  V30 3414 C 314.876 0.913382 3.6515 0
M  V30 3415 C 314.023 1.31265 2.44264 0
M  V30 3416 H 316.974 1.12968 1.11462 0
M  V30 3417 H 316.995 0.527606 3.76824 0
M  V30 3418 H 316.507 2.24902 3.16292 0
M  V30 3419 H 314.608 -0.152316 3.72289 0
M  V30 3420 H 314.721 1.54845 4.53387 0
M  V30 3421 H 313.085 0.731028 2.43984 0
M  V30 3422 H 313.868 2.40239 2.45234 0
M  V30 3423 N 316.313 -1.40141 0.720998 0
M  V30 3424 C 317.59 -1.94677 0.189757 0
M  V30 3425 C 317.97 -1.65879 -1.30566 0
M  V30 3426 O 317.318 -0.979391 -2.06447 0
M  V30 3427 C 317.528 -3.45279 0.508304 0
M  V30 3428 C 318.876 -4.22209 0.449934 0
M  V30 3429 O 319.9 -3.53413 0.444677 0
M  V30 3430 O 318.759 -5.44788 0.432189 0
M  V30 3431 H 315.853 -0.826459 0.0299026 0
M  V30 3432 H 318.399 -1.49719 0.7989 0
M  V30 3433 H 317.171 -3.59619 1.54239 0
M  V30 3434 H 316.794 -3.97386 -0.130525 0
M  V30 3435 N 317.792 -0.46758 -1.50504 0
M  V30 3436 C 318.739 0.328413 -2.28452 0
M  V30 3437 C 319.709 0.990313 -1.33349 0
M  V30 3438 O 320.894 1.00343 -1.62284 0
M  V30 3439 C 318.034 1.40648 -3.15138 0
M  V30 3440 C 317.147 0.759709 -4.25267 0
M  V30 3441 C 316.282 1.81537 -4.99217 0
M  V30 3442 C 315.321 1.14866 -6.01226 0
M  V30 3443 N 314.458 2.14702 -6.68467 0
M  V30 3444 H 319.298 -0.342603 -2.96024 0
M  V30 3445 H 316.835 -0.180801 -1.45985 0
M  V30 3446 H 318.793 2.04315 -3.63746 0
M  V30 3447 H 317.423 2.04671 -2.49619 0
M  V30 3448 H 316.475 0.0105671 -3.80399 0
M  V30 3449 H 317.787 0.233243 -4.98254 0
M  V30 3450 H 316.941 2.52793 -5.51526 0
M  V30 3451 H 315.68 2.37564 -4.25928 0
M  V30 3452 H 314.685 0.42171 -5.4818 0
M  V30 3453 H 315.91 0.595334 -6.76485 0
M  V30 3454 H 313.856 2.69752 -5.97972 0
M  V30 3455 H 313.773 1.6703 -7.37317 0
M  V30 3456 H 315.041 2.85348 -7.25394 0
M  V30 3457 N 319.27 1.56325 -0.20005 0
M  V30 3458 C 320.547 1.89484 0.48529 0
M  V30 3459 C 320.927 1.1143 1.79294 0
M  V30 3460 O 320.275 0.216919 2.27468 0
M  V30 3461 C 320.485 3.41923 0.699243 0
M  V30 3462 C 321.833 4.12256 1.01638 0
M  V30 3463 O 322.857 3.47402 0.786792 0
M  V30 3464 O 321.716 5.26887 1.45095 0
M  V30 3465 H 318.81 0.787144 0.253639 0
M  V30 3466 H 321.356 1.67985 -0.240633 0
M  V30 3467 H 320.128 3.90658 -0.224008 0
M  V30 3468 H 319.751 3.69131 1.47744 0
M  V30 3469 N 320.748 -0.0735177 1.57428 0
M  V30 3470 C 321.698 -1.09442 2.00016 0
M  V30 3471 C 322.682 -1.34575 0.881947 0
M  V30 3472 O 323.874 -1.34905 1.14585 0
M  V30 3473 C 321.003 -2.40865 2.4462 0
M  V30 3474 C 320.089 -2.19014 3.63172 0
M  V30 3475 N 320.48 -1.67087 4.77405 0
M  V30 3476 C 318.778 -2.49494 3.69688 0
M  V30 3477 C 319.479 -1.6001 5.5926 0
M  V30 3478 N 318.455 -2.05999 5.03056 0
M  V30 3479 H 322.257 -0.686227 2.85776 0
M  V30 3480 H 319.771 -0.280617 1.59957 0
M  V30 3481 H 321.768 -3.14763 2.73368 0
M  V30 3482 H 320.428 -2.82403 1.60246 0
M  V30 3483 H 321.439 -1.35975 4.99731 0
M  V30 3484 H 318.116 -2.94409 2.96023 0
M  V30 3485 H 319.506 -1.2073 6.60964 0
M  V30 3486 N 322.226 -1.5378 -0.344866 0
M  V30 3487 C 323.474 -1.70625 -1.08311 0
M  V30 3488 C 323.795 -0.471447 -1.89215 0
M  V30 3489 O 323.065 0.514616 -1.8902 0
M  V30 3490 H 321.645 -0.629058 -0.402859 0
M  V30 3491 H 324.307 -1.9103 -0.386459 0
M  V30 3492 H 323.403 -2.57656 -1.76124 0
M  V30 3493 N 323.704 0.605807 -1.45491 0
M  V30 3494 C 324.929 1.39625 -1.53361 0
M  V30 3495 C 325.354 1.87351 -0.167645 0
M  V30 3496 O 324.712 1.60243 0.848051 0
M  V30 3497 C 324.76 2.57559 -2.5238 0
M  V30 3498 O 323.864 3.58248 -2.04285 0
M  V30 3499 H 323.205 0.416771 -0.516912 0
M  V30 3500 H 325.735 0.737103 -1.90861 0
M  V30 3501 H 325.745 3.0478 -2.71244 0
M  V30 3502 H 324.42 2.22171 -3.51586 0
M  V30 3503 H 322.997 3.17664 -1.95305 0
M  V30 3504 N 325.182 1.32811 0.848464 0
M  V30 3505 C 326.407 1.26882 1.6406 0
M  V30 3506 C 326.832 -0.15913 1.87426 0
M  V30 3507 O 326.19 -1.11258 1.43148 0
M  V30 3508 C 326.238 2.03997 2.97351 0
M  V30 3509 O 325.342 1.39201 3.88197 0
M  V30 3510 H 324.683 0.436982 0.499943 0
M  V30 3511 H 327.213 1.75224 1.0563 0
M  V30 3512 H 327.223 2.14403 3.47124 0
M  V30 3513 H 325.898 3.0783 2.79666 0
M  V30 3514 H 324.475 1.37381 3.46671 0
M  V30 3515 N 326.66 -1.06551 1.16123 0
M  V30 3516 C 327.888 -1.83005 0.965237 0
M  V30 3517 C 328.303 -1.82423 -0.486542 0
M  V30 3518 O 327.66 -1.24152 -1.33763 0
M  V30 3519 C 327.711 -3.29733 1.48183 0
M  V30 3520 O 327.432 -3.30416 2.87674 0
M  V30 3521 C 328.933 -4.22926 1.32848 0
M  V30 3522 H 326.153 -0.577118 0.342309 0
M  V30 3523 H 328.697 -1.3445 1.54089 0
M  V30 3524 H 326.852 -3.75609 0.948517 0
M  V30 3525 H 327.266 -4.22149 3.11272 0
M  V30 3526 H 328.74 -5.23916 1.73827 0
M  V30 3527 H 329.217 -4.38346 0.273692 0
M  V30 3528 H 329.823 -3.82894 1.85127 0
M  V30 3529 N 328.138 -0.959301 -1.25041 0
M  V30 3530 C 329.068 -0.501388 -2.28053 0
M  V30 3531 C 330.049 0.454673 -1.63911 0
M  V30 3532 O 331.234 0.352618 -1.90972 0
M  V30 3533 C 328.364 0.217224 -3.4662 0
M  V30 3534 C 327.318 -0.654034 -4.22973 0
M  V30 3535 C 326.644 0.195589 -5.34342 0
M  V30 3536 C 327.944 -1.93447 -4.85155 0
M  V30 3537 H 329.638 -1.36238 -2.66608 0
M  V30 3538 H 327.184 -0.656534 -1.28163 0
M  V30 3539 H 329.137 0.548732 -4.17812 0
M  V30 3540 H 327.861 1.1125 -3.07068 0
M  V30 3541 H 326.52 -0.968693 -3.5357 0
M  V30 3542 H 326.168 1.09076 -4.91031 0
M  V30 3543 H 325.868 -0.384091 -5.86343 0
M  V30 3544 H 327.392 0.521958 -6.08365 0
M  V30 3545 H 328.806 -1.66908 -5.48466 0
M  V30 3546 H 327.203 -2.46018 -5.47353 0
M  V30 3547 H 328.273 -2.63466 -4.07079 0
M  V30 3548 N 329.616 1.39756 -0.72842 0
M  V30 3549 C 330.526 2.34444 -0.0855374 0
M  V30 3550 C 331.542 1.57976 0.729356 0
M  V30 3551 O 332.718 1.90301 0.659346 0
M  V30 3552 C 329.783 3.36965 0.815798 0
M  V30 3553 C 328.844 4.29299 -0.0105996 0
M  V30 3554 C 328.077 5.26923 0.84781 0
M  V30 3555 O 328.3 5.30859 2.08673 0
M  V30 3556 O 327.234 6.01249 0.279969 0
M  V30 3557 H 331.06 2.91065 -0.866892 0
M  V30 3558 H 328.645 1.4117 -0.48902 0
M  V30 3559 H 330.527 3.99804 1.33171 0
M  V30 3560 H 329.202 2.82739 1.57608 0
M  V30 3561 H 328.109 3.69703 -0.571877 0
M  V30 3562 H 329.442 4.86712 -0.73295 0
M  V30 3563 N 331.094 0.475555 1.50254 0
M  V30 3564 C 332.342 -0.077738 2.0195 0
M  V30 3565 C 332.663 -1.39813 1.35931 0
M  V30 3566 O 331.933 -1.89249 0.506123 0
M  V30 3567 H 330.513 -0.031719 0.746326 0
M  V30 3568 H 333.175 0.626995 1.84539 0
M  V30 3569 H 332.271 -0.225995 3.11281 0
M  V30 3570 N 332.573 -1.56217 0.208337 0
M  V30 3571 C 333.821 -1.97558 -0.426076 0
M  V30 3572 C 334.142 -1.09683 -1.61229 0
M  V30 3573 O 333.412 -0.170956 -1.95153 0
M  V30 3574 H 331.992 -0.729575 -0.160405 0
M  V30 3575 H 334.654 -1.92606 0.298155 0
M  V30 3576 H 333.75 -3.02672 -0.761312 0
M  V30 3577 N 334.051 0.0651679 -1.57465 0
M  V30 3578 C 335.328 0.79644 -1.78651 0
M  V30 3579 C 335.708 1.95454 -0.797566 0
M  V30 3580 O 335.056 2.27882 0.167946 0
M  V30 3581 C 335.266 1.26322 -3.25337 0
M  V30 3582 C 336.614 1.6939 -3.89348 0
M  V30 3583 O 337.638 1.35872 -3.29268 0
M  V30 3584 O 336.497 2.31471 -4.95059 0
M  V30 3585 H 333.591 0.382157 -0.733407 0
M  V30 3586 H 336.137 0.0447311 -1.69641 0
M  V30 3587 H 334.909 0.434859 -3.88876 0
M  V30 3588 H 334.532 2.07604 -3.39096 0
M  V30 3589 N 335.529 1.53961 0.336706 0
M  V30 3590 C 336.775 1.7179 1.07777 0
M  V30 3591 C 337.108 0.483263 1.88091 0
M  V30 3592 O 336.383 -0.519747 1.87427 0
M  V30 3593 C 336.666 2.98558 2.01334 0
M  V30 3594 C 336.519 4.32245 1.24437 0
M  V30 3595 C 337.838 3.21023 3.01052 0
M  V30 3596 H 334.957 0.625089 0.390426 0
M  V30 3597 H 337.599 1.86641 0.35567 0
M  V30 3598 H 335.749 2.86028 2.62908 0
M  V30 3599 H 337.421 4.56637 0.654243 0
M  V30 3600 H 335.664 4.30344 0.546458 0
M  V30 3601 H 336.335 5.17137 1.93063 0
M  V30 3602 H 338.811 3.32929 2.49595 0
M  V30 3603 H 337.687 4.11104 3.6371 0
M  V30 3604 H 337.948 2.37637 3.72802 0
M  V30 3605 N 337.007 -0.598083 1.45811 0
M  V30 3606 C 337.94 -1.7223 1.49706 0
M  V30 3607 C 338.918 -1.58732 0.352535 0
M  V30 3608 O 340.102 -1.80162 0.554438 0
M  V30 3609 C 337.229 -3.10148 1.3611 0
M  V30 3610 C 336.275 -3.42209 2.54549 0
M  V30 3611 S 337.108 -3.35989 4.16979 0
M  V30 3612 C 338.264 -4.76471 4.05865 0
M  V30 3613 H 338.497 -1.68665 2.44826 0
M  V30 3614 H 336.03 -0.775541 1.33509 0
M  V30 3615 H 337.988 -3.8972 1.28953 0
M  V30 3616 H 336.649 -3.11219 0.424451 0
M  V30 3617 H 335.842 -4.42652 2.40988 0
M  V30 3618 H 335.444 -2.70173 2.58617 0
M  V30 3619 H 337.736 -5.665 3.71596 0
M  V30 3620 H 338.679 -4.95089 5.06253 0
M  V30 3621 H 339.087 -4.52599 3.37364 0
M  V30 3622 N 338.485 -1.33259 -0.841409 0
M  V30 3623 C 339.896 -1.22066 -1.41269 0
M  V30 3624 C 340.247 0.161479 -1.95534 0
M  V30 3625 O 339.372 1.06094 -1.88608 0
M  V30 3626 C 339.967 -2.20996 -2.568 0
M  V30 3627 C 338.526 -2.13649 -3.09888 0
M  V30 3628 C 337.673 -2.08623 -1.82679 0
M  V30 3629 H 340.624 -1.44895 -0.647395 0
M  V30 3630 H 340.645 -1.81621 -3.34356 0
M  V30 3631 H 340.157 -3.2158 -2.17274 0
M  V30 3632 H 338.258 -1.16359 -3.53965 0
M  V30 3633 H 338.371 -3.04079 -3.70234 0
M  V30 3634 H 336.735 -1.54061 -2.02824 0
M  V30 3635 H 337.518 -3.1101 -1.45353 0
M  V30 3636 N 339.963 1.05934 -1.16686 0
M  V30 3637 C 341.212 1.78188 -0.945085 0
M  V30 3638 C 341.525 1.88338 0.528021 0
M  V30 3639 O 342.731 2.57258 0.867799 0
M  V30 3640 C 341.187 3.20277 -1.64167 0
M  V30 3641 C 340.795 3.18281 -3.15279 0
M  V30 3642 C 342.539 3.97039 -1.502 0
M  V30 3643 C 340.446 4.55112 -3.7766 0
M  V30 3644 H 339.376 0.667866 -0.349959 0
M  V30 3645 H 342.027 1.18794 -1.39858 0
M  V30 3646 H 340.409 3.79952 -1.11589 0
M  V30 3647 H 341.583 2.68167 -3.74731 0
M  V30 3648 H 339.898 2.55018 -3.29173 0
M  V30 3649 H 342.495 4.98194 -1.94183 0
M  V30 3650 H 342.838 4.13845 -0.451461 0
M  V30 3651 H 343.371 3.43894 -1.99954 0
M  V30 3652 H 340.11 4.43512 -4.82677 0
M  V30 3653 H 339.63 5.05406 -3.22994 0
M  V30 3654 H 341.309 5.24064 -3.79428 0
M  V30 3655 N 341.441 0.965919 1.2453 0
M  V30 3656 C 342.689 0.625593 1.92174 0
M  V30 3657 C 343.01 -0.841652 1.75901 0
M  V30 3658 O 342.28 -1.60061 1.12948 0
M  V30 3659 H 340.86 0.228388 0.71123 0
M  V30 3660 H 343.522 1.2266 1.51461 0
M  V30 3661 H 342.618 0.864653 2.99884 0
M  V30 3662 N 342.919 -1.39368 0.735821 0
M  V30 3663 C 343.867 -2.32443 0.0855131 0
M  V30 3664 C 344.861 -1.53104 -0.724954 0
M  V30 3665 O 346.067 -1.68762 -0.626047 0
M  V30 3666 H 342.442 -0.751948 0.00885257 0
M  V30 3667 H 344.413 -2.84916 0.886883 0
M  V30 3668 C 343.162 -3.38206 -0.806983 0
M  V30 3669 H 342.485 -3.99335 -0.19274 0
M  V30 3670 H 343.925 -4.05779 -1.2296 0
M  V30 3671 C 342.384 -2.75321 -1.94165 0
M  V30 3672 O 342.914 -2.63231 -3.03435 0
M  V30 3673 N 341.12 -2.33396 -1.73132 0
M  V30 3674 H 340.667 -2.4343 -0.842596 0
M  V30 3675 H 340.625 -1.91661 -2.49225 0
M  V30 3676 N 344.397 -0.483516 -1.5 0
M  V30 3677 C 345.645 0.067027 -2.01989 0
M  V30 3678 C 345.966 1.3909 -1.36671 0
M  V30 3679 O 345.236 1.88978 -0.516152 0
M  V30 3680 H 343.816 0.0277606 -0.746484 0
M  V30 3681 H 346.478 -0.636773 -1.84204 0
M  V30 3682 H 345.574 0.209484 -3.11396 0
M  V30 3683 N 345.875 1.56104 -0.216619 0
M  V30 3684 C 347.121 1.98466 0.417033 0
M  V30 3685 C 347.454 1.10403 1.59765 0
M  V30 3686 O 346.729 0.160632 1.93836 0
M  V30 3687 C 347.012 3.49769 0.85637 0
M  V30 3688 C 346.865 4.48606 -0.327546 0
M  V30 3689 C 348.184 4.05339 1.7143 0
M  V30 3690 H 345.303 0.721551 0.150112 0
M  V30 3691 H 347.945 1.87423 -0.311864 0
M  V30 3692 H 346.095 3.5931 1.47745 0
M  V30 3693 H 347.767 4.5108 -0.965618 0
M  V30 3694 H 346.01 4.22682 -0.975805 0
M  V30 3695 H 346.681 5.51995 0.0227149 0
M  V30 3696 H 349.157 3.98712 1.19031 0
M  V30 3697 H 348.033 5.11533 1.99061 0
M  V30 3698 H 348.294 3.51918 2.67593 0
M  V30 3699 N 347.353 -0.0568162 1.57498 0
M  V30 3700 C 348.599 -0.75422 1.88253 0
M  V30 3701 C 348.932 -1.76461 0.810865 0
M  V30 3702 O 348.207 -1.93691 -0.177259 0
M  V30 3703 C 348.49 -1.44878 3.2967 0
M  V30 3704 C 348.343 -0.453789 4.47505 0
M  V30 3705 C 349.662 -2.38994 3.69554 0
M  V30 3706 H 346.781 -0.272724 0.684683 0
M  V30 3707 H 349.423 -0.0172113 1.89992 0
M  V30 3708 H 347.573 -2.077 3.28318 0
M  V30 3709 H 349.245 0.170371 4.60985 0
M  V30 3710 H 347.488 0.229552 4.33192 0
M  V30 3711 H 348.159 -0.977699 5.43273 0
M  V30 3712 H 350.635 -1.86239 3.72095 0
M  V30 3713 H 349.511 -2.84587 4.69363 0
M  V30 3714 H 349.772 -3.24461 3.00296 0
M  V30 3715 N 348.832 -1.54138 -0.328536 0
M  V30 3716 C 349.762 -1.86167 -1.40939 0
M  V30 3717 C 350.743 -0.718044 -1.54202 0
M  V30 3718 O 351.928 -0.971328 -1.68163 0
M  V30 3719 C 349.058 -2.08461 -2.77779 0
M  V30 3720 C 348.012 -3.24299 -2.7931 0
M  V30 3721 C 347.338 -3.31955 -4.19178 0
M  V30 3722 C 348.638 -4.62065 -2.43502 0
M  V30 3723 H 350.332 -2.76689 -1.14383 0
M  V30 3724 H 347.878 -1.33132 -0.548806 0
M  V30 3725 H 349.831 -2.29453 -3.53454 0
M  V30 3726 H 348.555 -1.14684 -3.05802 0
M  V30 3727 H 347.214 -3.03187 -2.0609 0
M  V30 3728 H 346.862 -2.35745 -4.44335 0
M  V30 3729 H 346.562 -4.09805 -4.2111 0
M  V30 3730 H 348.086 -3.55175 -4.96672 0
M  V30 3731 H 349.5 -4.8297 -3.08889 0
M  V30 3732 H 347.897 -5.42429 -2.56693 0
M  V30 3733 H 348.967 -4.64652 -1.38659 0
M  V30 3734 N 350.31 0.590341 -1.46126 0
M  V30 3735 C 351.559 1.34499 -1.50309 0
M  V30 3736 C 351.872 1.94977 -0.156021 0
M  V30 3737 O 353.078 2.71395 -0.0756037 0
M  V30 3738 C 351.534 2.43723 -2.64815 0
M  V30 3739 C 351.142 1.89582 -4.0591 0
M  V30 3740 C 352.886 3.20579 -2.78262 0
M  V30 3741 C 350.793 2.9639 -5.11769 0
M  V30 3742 H 349.723 0.505593 -0.559368 0
M  V30 3743 H 352.374 0.630848 -1.72315 0
M  V30 3744 H 350.756 3.17902 -2.36124 0
M  V30 3745 H 351.93 1.21997 -4.44357 0
M  V30 3746 H 350.245 1.25418 -3.97063 0
M  V30 3747 H 352.842 4.00276 -3.54519 0
M  V30 3748 H 353.185 3.72684 -1.85505 0
M  V30 3749 H 353.718 2.53505 -3.06562 0
M  V30 3750 H 350.457 2.49181 -6.06291 0
M  V30 3751 H 349.977 3.62487 -4.77873 0
M  V30 3752 H 351.656 3.60474 -5.37278 0
M  V30 3753 N 351.788 1.33704 0.83433 0
M  V30 3754 C 353.036 1.25169 1.58673 0
M  V30 3755 C 353.357 -0.18127 1.94156 0
M  V30 3756 O 352.627 -1.11113 1.6134 0
M  V30 3757 H 351.207 0.4603 0.58833 0
M  V30 3758 H 353.869 1.67478 0.996847 0
M  V30 3759 H 352.965 1.84856 2.51465 0
M  V30 3760 N 353.266 -1.05314 1.17247 0
M  V30 3761 C 354.199 -2.12512 0.831507 0
M  V30 3762 C 355.177 -1.61351 -0.201168 0
M  V30 3763 O 356.361 -1.88317 -0.0829831 0
M  V30 3764 C 353.488 -3.37848 0.24015 0
M  V30 3765 C 352.534 -4.07832 1.24801 0
M  V30 3766 S 353.367 -4.56537 2.79882 0
M  V30 3767 C 354.523 -5.85122 2.22223 0
M  V30 3768 H 354.756 -2.41106 1.7394 0
M  V30 3769 H 352.289 -1.17896 0.996988 0
M  V30 3770 H 354.247 -4.10391 -0.0945588 0
M  V30 3771 H 352.908 -3.07392 -0.645668 0
M  V30 3772 H 352.101 -4.97883 0.78287 0
M  V30 3773 H 351.703 -3.41348 1.52831 0
M  V30 3774 H 353.995 -6.58408 1.59703 0
M  V30 3775 H 354.938 -6.36381 3.10523 0
M  V30 3776 H 355.346 -5.39626 1.65722 0
M  V30 3777 N 354.744 -0.972509 -1.24016 0
M  V30 3778 C 355.992 -0.635776 -1.91839 0
M  V30 3779 C 356.313 0.832312 -1.76345 0
M  V30 3780 O 355.583 1.5946 -1.13795 0
M  V30 3781 H 354.163 -0.232157 -0.710009 0
M  V30 3782 H 356.825 -1.23462 -1.50809 0
M  V30 3783 H 355.921 -0.880545 -2.99421 0
M  V30 3784 N 356.222 1.38976 -0.743202 0
M  V30 3785 C 357.132 2.3434 -0.110399 0
M  V30 3786 C 358.148 1.58741 0.712559 0
M  V30 3787 O 359.324 1.9099 0.639125 0
M  V30 3788 C 356.389 3.37812 0.780012 0
M  V30 3789 C 355.45 4.29263 -0.0561319 0
M  V30 3790 C 354.683 5.27793 0.791875 0
M  V30 3791 O 354.906 5.33043 2.03031 0
M  V30 3792 O 353.84 6.01512 0.216183 0
M  V30 3793 H 357.666 2.90129 -0.897714 0
M  V30 3794 H 355.251 1.40643 -0.503966 0
M  V30 3795 H 357.133 4.01194 1.28923 0
M  V30 3796 H 355.808 2.84395 1.546 0
M  V30 3797 H 354.715 3.69076 -0.611056 0
M  V30 3798 H 356.048 4.85907 -0.784531 0
M  V30 3799 N 357.7 0.491464 1.49741 0
M  V30 3800 C 359.116 0.146835 1.58923 0
M  V30 3801 C 359.316 -1.34804 1.49767 0
M  V30 3802 O 358.372 -2.12317 1.36667 0
M  V30 3803 C 359.685 0.715157 2.92072 0
M  V30 3804 C 361.233 0.680407 3.05515 0
M  V30 3805 C 361.708 1.22663 4.41269 0
M  V30 3806 N 363.199 1.18691 4.47735 0
M  V30 3807 C 363.934 1.57984 5.51207 0
M  V30 3808 N 363.43 2.04824 6.6183 0
M  V30 3809 N 365.223 1.49459 5.41866 0
M  V30 3810 H 357.374 1.46347 1.53936 0
M  V30 3811 H 359.637 0.606453 0.728642 0
M  V30 3812 H 359.343 1.76317 3.04311 0
M  V30 3813 H 359.217 0.17018 3.76816 0
M  V30 3814 H 361.604 -0.358743 2.92911 0
M  V30 3815 H 361.685 1.26242 2.22478 0
M  V30 3816 H 361.329 2.26451 4.54623 0
M  V30 3817 H 361.259 0.620637 5.2293 0
M  V30 3818 H 363.75 0.843605 3.68364 0
M  V30 3819 H 364.063 2.32901 7.3687 0
M  V30 3820 H 362.408 2.08791 6.62896 0
M  V30 3821 H 365.599 1.12692 4.54333 0
M  V30 3822 H 365.772 1.80406 6.22381 0
M  V30 3823 N 359.178 -1.55987 0.224894 0
M  V30 3824 C 360.403 -2.03232 -0.41369 0
M  V30 3825 C 360.828 -1.10359 -1.52323 0
M  V30 3826 O 360.186 -0.092395 -1.81064 0
M  V30 3827 C 360.234 -3.48682 -0.919405 0
M  V30 3828 O 359.338 -3.58947 -2.03054 0
M  V30 3829 H 358.679 -0.657428 -0.0931903 0
M  V30 3830 H 361.209 -2.01679 0.34451 0
M  V30 3831 H 361.219 -3.8907 -1.22835 0
M  V30 3832 H 359.894 -4.15761 -0.107339 0
M  V30 3833 H 358.471 -3.30448 -1.72796 0
M  V30 3834 N 360.656 0.0484629 -1.57525 0
M  V30 3835 C 361.881 0.759177 -1.93006 0
M  V30 3836 C 362.306 1.69125 -0.823317 0
M  V30 3837 O 361.664 1.79931 0.222364 0
M  V30 3838 C 361.712 1.50899 -3.27509 0
M  V30 3839 O 360.816 2.62112 -3.18388 0
M  V30 3840 H 360.157 0.205564 -0.631379 0
M  V30 3841 H 362.687 0.00972959 -2.04598 0
M  V30 3842 H 362.697 1.88317 -3.6194 0
M  V30 3843 H 361.372 0.825269 -4.0763 0
M  V30 3844 H 359.949 2.27379 -2.95556 0
M  V30 3845 N 362.134 1.5431 0.320358 0
M  V30 3846 C 363.55 1.45091 0.664889 0
M  V30 3847 C 363.75 0.626382 1.91517 0
M  V30 3848 O 362.806 0.126443 2.52183 0
M  V30 3849 C 364.119 2.88848 0.83591 0
M  V30 3850 C 365.667 2.9877 0.933046 0
M  V30 3851 C 366.142 4.43683 1.13621 0
M  V30 3852 N 367.633 4.47309 1.20287 0
M  V30 3853 C 368.368 5.56595 1.37801 0
M  V30 3854 N 367.864 6.75844 1.52338 0
M  V30 3855 N 369.657 5.44248 1.40535 0
M  V30 3856 H 361.808 2.06398 -0.501374 0
M  V30 3857 H 364.071 0.933963 -0.162534 0
M  V30 3858 H 363.777 3.51698 -0.0116092 0
M  V30 3859 H 363.651 3.35148 1.73078 0
M  V30 3860 H 366.038 2.36045 1.77107 0
M  V30 3861 H 366.119 2.55796 0.0145782 0
M  V30 3862 H 365.763 5.06995 0.303032 0
M  V30 3863 H 365.693 4.84269 2.0686 0
M  V30 3864 H 368.184 3.61388 1.10485 0
M  V30 3865 H 368.497 7.54892 1.65403 0
M  V30 3866 H 366.842 6.78746 1.4943 0
M  V30 3867 H 370.033 4.50038 1.28777 0
M  V30 3868 H 370.206 6.29473 1.53842 0
M  V30 3869 N 363.613 -0.582584 1.46437 0
M  V30 3870 C 364.545 -1.70618 1.53043 0
M  V30 3871 C 365.558 -1.57322 0.418769 0
M  V30 3872 O 366.747 -1.64744 0.687136 0
M  V30 3873 C 363.847 -3.08869 1.39474 0
M  V30 3874 C 363.02 -3.48166 2.64762 0
M  V30 3875 C 362.079 -4.65478 2.4539 0
M  V30 3876 O 361.105 -4.71333 3.19114 0
M  V30 3877 N 362.307 -5.60365 1.51564 0
M  V30 3878 H 365.072 -1.65405 2.49923 0
M  V30 3879 H 362.633 -0.768567 1.42494 0
M  V30 3880 H 364.625 -3.85143 1.24287 0
M  V30 3881 H 363.195 -3.08449 0.507758 0
M  V30 3882 H 362.415 -2.61598 2.9489 0
M  V30 3883 H 363.703 -3.71188 3.4799 0
M  V30 3884 H 363.101 -5.5837 0.907705 0
M  V30 3885 H 361.658 -6.36068 1.4234 0
M  V30 3886 N 365.091 -1.34144 -0.827227 0
M  V30 3887 C 366.054 -1.25264 -1.91942 0
M  V30 3888 C 367.054 -0.168866 -1.59911 0
M  V30 3889 O 368.244 -0.421198 -1.69031 0
M  V30 3890 C 365.376 -0.932952 -3.27885 0
M  V30 3891 H 366.569 -2.22357 -2.0124 0
M  V30 3892 H 364.122 -1.1837 -1.0207 0
M  V30 3893 H 364.857 0.0349917 -3.24281 0
M  V30 3894 H 364.642 -1.71682 -3.52516 0
M  V30 3895 H 366.132 -0.895874 -4.07877 0
M  V30 3896 N 366.569 1.04691 -1.17803 0
M  V30 3897 C 367.818 1.77176 -0.963931 0
M  V30 3898 C 368.131 1.88888 0.508015 0
M  V30 3899 O 369.337 2.58164 0.840465 0
M  V30 3900 C 367.793 3.18518 -1.67555 0
M  V30 3901 C 367.401 3.14919 -3.18637 0
M  V30 3902 C 369.145 3.95424 -1.54402 0
M  V30 3903 C 367.052 4.51081 -3.82466 0
M  V30 3904 H 365.982 0.664116 -0.357023 0
M  V30 3905 H 368.633 1.17303 -1.4111 0
M  V30 3906 H 367.015 3.78748 -1.15613 0
M  V30 3907 H 368.189 2.64178 -3.77554 0
M  V30 3908 H 366.504 2.51512 -3.31859 0
M  V30 3909 H 369.101 4.96106 -1.99456 0
M  V30 3910 H 369.444 4.13343 -0.495329 0
M  V30 3911 H 369.977 3.41754 -2.0359 0
M  V30 3912 H 366.716 4.38368 -4.87354 0
M  V30 3913 H 366.236 5.01951 -3.28337 0
M  V30 3914 H 367.915 5.2001 -3.84965 0
M  V30 3915 N 368.047 0.979072 1.23499 0
M  V30 3916 C 369.295 0.645941 1.91499 0
M  V30 3917 C 369.616 -0.822948 1.76784 0
M  V30 3918 O 368.886 -1.58854 1.14639 0
M  V30 3919 H 367.466 0.235919 0.708767 0
M  V30 3920 H 370.128 1.2426 1.50152 0
M  V30 3921 H 369.224 0.896411 2.9895 0
M  V30 3922 N 369.525 -1.3858 0.750561 0
M  V30 3923 C 370.457 -2.29057 0.0810714 0
M  V30 3924 C 371.47 -1.47596 -0.686973 0
M  V30 3925 O 372.659 -1.70495 -0.528563 0
M  V30 3926 C 369.759 -3.26475 -0.909247 0
M  V30 3927 C 368.932 -4.36945 -0.199478 0
M  V30 3928 C 367.991 -5.14572 -1.10011 0
M  V30 3929 O 367.017 -5.66321 -0.57177 0
M  V30 3930 N 368.219 -5.27262 -2.42849 0
M  V30 3931 H 370.984 -2.87153 0.858087 0
M  V30 3932 H 368.545 -1.50328 0.60109 0
M  V30 3933 H 370.537 -3.75285 -1.51471 0
M  V30 3934 H 369.107 -2.69298 -1.58736 0
M  V30 3935 H 368.327 -3.8981 0.586664 0
M  V30 3936 H 369.615 -5.07963 0.291783 0
M  V30 3937 H 369.013 -4.86763 -2.88233 0
M  V30 3938 H 367.57 -5.79456 -2.98453 0
M  V30 3939 N 371.003 -0.499398 -1.49478 0
M  V30 3940 C 372.249 0.0457576 -2.02748 0
M  V30 3941 C 372.582 1.36793 -1.37846 0
M  V30 3942 O 371.857 1.87596 -0.513601 0
M  V30 3943 C 372.14 0.199986 -3.59544 0
M  V30 3944 C 371.993 -1.1452 -4.34977 0
M  V30 3945 C 373.312 0.94137 -4.29914 0
M  V30 3946 H 370.431 0.0151552 -0.736844 0
M  V30 3947 H 373.073 -0.650498 -1.78518 0
M  V30 3948 H 371.223 0.793007 -3.8032 0
M  V30 3949 H 372.895 -1.77697 -4.25701 0
M  V30 3950 H 371.138 -1.73488 -3.97598 0
M  V30 3951 H 371.809 -0.990607 -5.43039 0
M  V30 3952 H 374.285 0.43844 -4.13784 0
M  V30 3953 H 373.161 1.01812 -5.39375 0
M  V30 3954 H 373.422 1.98471 -3.95046 0
M  V30 3955 N 372.481 1.55866 -0.233164 0
M  V30 3956 C 373.444 2.1953 0.658715 0
M  V30 3957 C 374.444 1.16053 1.11303 0
M  V30 3958 O 375.634 1.41218 1.01996 0
M  V30 3959 C 372.766 2.82791 1.90373 0
M  V30 3960 H 373.959 2.99721 0.10347 0
M  V30 3961 H 371.512 1.56291 0.0164245 0
M  V30 3962 H 372.247 2.06501 2.50056 0
M  V30 3963 H 372.032 3.58578 1.58632 0
M  V30 3964 H 373.522 3.31556 2.53891 0
M  V30 3965 N 373.959 -0.0401083 1.57549 0
M  V30 3966 C 374.891 -1.07149 2.02612 0
M  V30 3967 C 375.904 -1.33126 0.937085 0
M  V30 3968 O 377.093 -1.30808 1.21456 0
M  V30 3969 C 374.193 -2.41561 2.37701 0
M  V30 3970 C 373.366 -2.35096 3.68848 0
M  V30 3971 C 372.425 -3.51867 3.91249 0
M  V30 3972 O 371.451 -3.3186 4.62447 0
M  V30 3973 N 372.653 -4.73351 3.36035 0
M  V30 3974 H 375.418 -0.687485 2.91708 0
M  V30 3975 H 372.979 -0.228248 1.60283 0
M  V30 3976 H 374.971 -3.18379 2.49833 0
M  V30 3977 H 373.541 -2.71846 1.54332 0
M  V30 3978 H 372.761 -1.4345 3.67173 0
M  V30 3979 H 374.049 -2.27908 4.54901 0
M  V30 3980 H 373.447 -4.92507 2.78304 0
M  V30 3981 H 372.004 -5.47572 3.53565 0
M  V30 3982 N 375.437 -1.54477 -0.31217 0
M  V30 3983 C 376.662 -1.77526 -1.07235 0
M  V30 3984 C 377.087 -0.527775 -1.80544 0
M  V30 3985 O 376.445 0.52121 -1.73646 0
M  V30 3986 C 376.493 -2.97535 -2.03728 0
M  V30 3987 O 375.597 -2.69878 -3.11833 0
M  V30 3988 H 374.938 -0.58792 -0.30862 0
M  V30 3989 H 377.468 -2.01532 -0.352993 0
M  V30 3990 H 377.478 -3.25198 -2.46395 0
M  V30 3991 H 376.153 -3.87996 -1.49774 0
M  V30 3992 H 374.73 -2.53199 -2.7376 0
M  V30 3993 N 376.915 0.57481 -1.46744 0
M  V30 3994 C 377.845 1.69337 -1.60771 0
M  V30 3995 C 378.826 1.63825 -0.457736 0
M  V30 3996 O 380.011 1.8172 -0.684947 0
M  V30 3997 C 377.141 3.0798 -1.60517 0
M  V30 3998 C 376.095 3.28327 -2.74564 0
M  V30 3999 C 375.421 4.67578 -2.59373 0
M  V30 4000 C 376.721 3.15398 -4.16319 0
M  V30 4001 H 378.415 1.57853 -2.54407 0
M  V30 4002 H 375.961 0.75799 -1.22436 0
M  V30 4003 H 377.914 3.86061 -1.68923 0
M  V30 4004 H 376.638 3.20381 -0.634305 0
M  V30 4005 H 375.297 2.52649 -2.65639 0
M  V30 4006 H 374.945 4.76755 -1.60353 0
M  V30 4007 H 374.645 4.82144 -3.35873 0
M  V30 4008 H 376.169 5.47817 -2.69682 0
M  V30 4009 H 377.583 3.83315 -4.26313 0
M  V30 4010 H 375.98 3.41482 -4.93468 0
M  V30 4011 H 377.05 2.12372 -4.3592 0
M  V30 4012 N 378.394 1.34581 0.820102 0
M  V30 4013 C 379.641 1.27096 1.57648 0
M  V30 4014 C 379.969 -0.158317 1.93855 0
M  V30 4015 O 379.224 -1.12028 1.60463 0
M  V30 4016 C 379.523 2.10997 2.8847 0
M  V30 4017 C 379.189 3.59966 2.71543 0
M  V30 4018 C 377.851 4.00575 2.66634 0
M  V30 4019 C 380.203 4.54548 2.55021 0
M  V30 4020 C 377.531 5.33953 2.43128 0
M  V30 4021 C 379.883 5.88109 2.33047 0
M  V30 4022 C 378.547 6.27878 2.26552 0
M  V30 4023 H 377.817 0.465078 0.576874 0
M  V30 4024 H 380.464 1.6635 0.948671 0
M  V30 4025 H 378.769 1.6458 3.55557 0
M  V30 4026 H 380.466 2.0255 3.46084 0
M  V30 4027 H 377.056 3.27733 2.76205 0
M  V30 4028 H 381.24 4.24069 2.57835 0
M  V30 4029 H 376.496 5.63781 2.3656 0
M  V30 4030 H 380.67 6.60985 2.19251 0
M  V30 4031 H 378.297 7.31162 2.081 0
M  V30 4032 N 379.872 -1.04064 1.18357 0
M  V30 4033 C 380.835 -2.10243 0.912707 0
M  V30 4034 C 381.835 -1.60477 -0.101928 0
M  V30 4035 O 383.025 -1.73703 0.131517 0
M  V30 4036 C 380.157 -3.38893 0.369387 0
M  V30 4037 H 381.35 -2.35706 1.85426 0
M  V30 4038 H 378.903 -1.20489 0.995594 0
M  V30 4039 H 379.638 -3.19094 -0.578776 0
M  V30 4040 H 379.423 -3.76331 1.1008 0
M  V30 4041 H 380.913 -4.17128 0.198575 0
M  V30 4042 N 381.35 -0.985608 -1.22978 0
M  V30 4043 C 382.297 -0.529825 -2.24636 0
M  V30 4044 C 383.267 0.434028 -1.60329 0
M  V30 4045 O 384.452 0.340414 -1.87739 0
M  V30 4046 C 381.592 0.156533 -3.44745 0
M  V30 4047 C 380.705 -0.848197 -4.23591 0
M  V30 4048 C 379.84 -0.136109 -5.31026 0
M  V30 4049 C 378.879 -1.1297 -6.01585 0
M  V30 4050 N 378.016 -0.446415 -7.00679 0
M  V30 4051 H 382.856 -1.40148 -2.62988 0
M  V30 4052 H 380.393 -0.702168 -1.29259 0
M  V30 4053 H 382.351 0.571324 -4.1327 0
M  V30 4054 H 380.981 0.992025 -3.07179 0
M  V30 4055 H 380.033 -1.38135 -3.54433 0
M  V30 4056 H 381.345 -1.60512 -4.72268 0
M  V30 4057 H 380.499 0.335784 -6.0577 0
M  V30 4058 H 379.238 0.653373 -4.83304 0
M  V30 4059 H 378.243 -1.6123 -5.25628 0
M  V30 4060 H 379.468 -1.91993 -6.51395 0
M  V30 4061 H 377.414 0.323763 -6.55201 0
M  V30 4062 H 377.331 -1.1419 -7.47326 0
M  V30 4063 H 378.599 0.00291697 -7.795 0
M  V30 4064 N 382.828 1.3818 -0.7579 0
M  V30 4065 C 384.076 1.99624 -0.315361 0
M  V30 4066 C 384.397 1.60464 1.10799 0
M  V30 4067 O 383.667 0.863507 1.75842 0
M  V30 4068 H 382.247 0.73831 -0.113611 0
M  V30 4069 H 384.909 1.68878 -0.972952 0
M  V30 4070 H 384.005 3.09754 -0.381931 0
M  V30 4071 N 384.306 0.507319 1.49211 0
M  V30 4072 C 385.269 -0.256763 2.27757 0
M  V30 4073 C 386.269 -0.888287 1.34038 0
M  V30 4074 O 387.459 -0.751841 1.5714 0
M  V30 4075 C 384.591 -1.36905 3.12202 0
M  V30 4076 H 385.784 0.432557 2.96764 0
M  V30 4077 H 383.337 0.262488 1.5408 0
M  V30 4078 H 384.072 -2.09233 2.47775 0
M  V30 4079 H 383.857 -0.921599 3.81115 0
M  V30 4080 H 385.347 -1.9071 3.7151 0
M  V30 4081 N 385.784 -1.5574 0.241426 0
M  V30 4082 C 386.747 -2.19877 -0.647063 0
M  V30 4083 C 387.747 -1.16642 -1.10686 0
M  V30 4084 O 388.937 -1.41757 -1.01245 0
M  V30 4085 C 386.069 -2.83797 -1.88871 0
M  V30 4086 H 387.262 -2.99772 -0.087574 0
M  V30 4087 H 384.815 -1.56298 -0.00813574 0
M  V30 4088 H 385.55 -2.07824 -2.48957 0
M  V30 4089 H 385.335 -3.59414 -1.56728 0
M  V30 4090 H 386.825 -3.32898 -2.52129 0
M  V30 4091 N 387.262 0.0317525 -1.57568 0
M  V30 4092 C 388.172 1.05021 -2.0978 0
M  V30 4093 C 389.188 1.39809 -1.03583 0
M  V30 4094 O 390.364 1.49182 -1.35302 0
M  V30 4095 C 387.429 2.33301 -2.56459 0
M  V30 4096 C 386.49 2.0512 -3.77127 0
M  V30 4097 C 385.723 3.27283 -4.2157 0
M  V30 4098 O 385.946 4.37861 -3.65559 0
M  V30 4099 O 384.88 3.13141 -5.14029 0
M  V30 4100 H 388.706 0.636505 -2.96955 0
M  V30 4101 H 386.291 0.248559 -1.47318 0
M  V30 4102 H 388.173 3.08722 -2.86825 0
M  V30 4103 H 386.848 2.73973 -1.72397 0
M  V30 4104 H 385.755 1.27276 -3.51784 0
M  V30 4105 H 387.088 1.69305 -4.62165 0
M  V30 4106 N 388.74 1.54641 0.303973 0
M  V30 4107 C 390.156 1.45788 0.649463 0
M  V30 4108 C 390.356 0.64666 1.90842 0
M  V30 4109 O 389.412 0.153183 2.52035 0
M  V30 4110 C 390.725 2.89718 0.805227 0
M  V30 4111 C 392.273 2.99742 0.901305 0
M  V30 4112 C 392.748 4.44863 1.08909 0
M  V30 4113 N 394.239 4.48559 1.15536 0
M  V30 4114 C 394.974 5.58026 1.3189 0
M  V30 4115 N 394.47 6.77422 1.45161 0
M  V30 4116 N 396.263 5.45708 1.34755 0
M  V30 4117 H 388.414 2.05854 -0.523237 0
M  V30 4118 H 390.677 0.932186 -0.172431 0
M  V30 4119 H 390.383 3.51666 -0.0489108 0
M  V30 4120 H 390.257 3.36964 1.69513 0
M  V30 4121 H 392.644 2.3791 1.74593 0
M  V30 4122 H 392.725 2.55797 -0.0125531 0
M  V30 4123 H 392.369 5.07288 0.249241 0
M  V30 4124 H 392.299 4.86436 2.01713 0
M  V30 4125 H 394.79 3.6254 1.06646 0
M  V30 4126 H 395.103 7.56604 1.57387 0
M  V30 4127 H 393.448 6.80292 1.42223 0
M  V30 4128 H 396.639 4.51378 1.23996 0
M  V30 4129 H 396.812 6.3107 1.47157 0
M  V30 4130 N 390.218 -0.567019 1.47046 0
M  V30 4131 C 391.464 -1.32658 1.53394 0
M  V30 4132 C 391.797 -1.93254 0.19148 0
M  V30 4133 O 391.072 -1.77338 -0.798844 0
M  V30 4134 C 391.355 -2.44412 2.64452 0
M  V30 4135 C 391.208 -1.88749 4.08282 0
M  V30 4136 C 392.527 -3.46387 2.71485 0
M  V30 4137 H 389.646 -0.48098 0.558415 0
M  V30 4138 H 392.288 -0.635481 1.79058 0
M  V30 4139 H 390.438 -3.03363 2.427 0
M  V30 4140 H 392.11 -1.34134 4.41368 0
M  V30 4141 H 390.353 -1.19481 4.17021 0
M  V30 4142 H 391.024 -2.69491 4.81745 0
M  V30 4143 H 393.5 -2.9734 2.91081 0
M  V30 4144 H 392.376 -4.2202 3.50985 0
M  V30 4145 H 392.637 -4.04616 1.78153 0
M  V30 4146 N 391.696 -1.35014 -0.812953 0
M  V30 4147 C 392.945 -1.27269 -1.56479 0
M  V30 4148 C 393.258 0.152771 -1.95002 0
M  V30 4149 O 394.464 0.352451 -2.69203 0
M  V30 4150 C 392.92 -2.23159 -2.82362 0
M  V30 4151 C 392.528 -3.71016 -2.511 0
M  V30 4152 C 394.272 -2.24342 -3.60376 0
M  V30 4153 C 392.179 -4.58746 -3.73237 0
M  V30 4154 H 391.109 -0.472829 -0.587324 0
M  V30 4155 H 393.76 -1.6024 -0.894171 0
M  V30 4156 H 392.142 -1.83151 -3.51101 0
M  V30 4157 H 393.316 -4.1962 -1.90409 0
M  V30 4158 H 391.631 -3.72378 -1.86343 0
M  V30 4159 H 394.228 -2.87107 -4.51081 0
M  V30 4160 H 394.571 -1.24542 -3.97234 0
M  V30 4161 H 395.104 -2.62846 -2.98591 0
M  V30 4162 H 391.843 -5.59521 -3.41492 0
M  V30 4163 H 391.363 -4.14871 -4.33176 0
M  V30 4164 H 393.042 -4.73852 -4.40537 0
M  V30 4165 N 393.175 1.03435 -1.18907 0
M  V30 4166 C 394.421 1.77005 -0.989798 0
M  V30 4167 C 394.754 1.88205 0.478816 0
M  V30 4168 O 394.029 1.39481 1.35556 0
M  V30 4169 C 394.312 3.19925 -1.65287 0
M  V30 4170 C 394.165 3.1663 -3.19477 0
M  V30 4171 C 395.484 4.18189 -1.37134 0
M  V30 4172 H 392.603 0.642538 -0.360991 0
M  V30 4173 H 395.245 1.20784 -1.46667 0
M  V30 4174 H 393.395 3.67929 -1.24741 0
M  V30 4175 H 395.067 2.76567 -3.692 0
M  V30 4176 H 393.31 2.54491 -3.51307 0
M  V30 4177 H 393.981 4.1758 -3.61013 0
M  V30 4178 H 396.457 3.78761 -1.72276 0
M  V30 4179 H 395.333 5.16394 -1.86087 0
M  V30 4180 H 395.594 4.41112 -0.295424 0
M  V30 4181 N 394.653 0.992116 1.22453 0
M  V30 4182 C 395.616 0.546883 2.2258 0
M  V30 4183 C 396.616 -0.369829 1.56489 0
M  V30 4184 O 397.806 -0.161896 1.73446 0
M  V30 4185 C 394.938 -0.204659 3.40285 0
M  V30 4186 H 396.131 1.43234 2.63484 0
M  V30 4187 H 393.684 0.779239 1.3549 0
M  V30 4188 H 394.419 -1.10614 3.04853 0
M  V30 4189 H 394.204 0.45354 3.89468 0
M  V30 4190 H 395.694 -0.504358 4.14543 0
M  V30 4191 N 396.131 -1.37776 0.765217 0
M  V30 4192 C 397.379 -1.99454 0.325943 0
M  V30 4193 C 397.7 -1.61049 -1.09947 0
M  V30 4194 O 396.97 -0.872821 -1.75381 0
M  V30 4195 H 395.55 -0.737697 0.117525 0
M  V30 4196 H 398.212 -1.68359 0.981895 0
M  V30 4197 H 397.308 -3.09547 0.398353 0
M  V30 4198 N 397.609 -0.515225 -1.4894 0
M  V30 4199 C 398.539 0.244628 -2.32215 0
M  V30 4200 C 399.52 0.949136 -1.41157 0
M  V30 4201 O 400.705 0.937783 -1.70057 0
M  V30 4202 C 397.835 1.30096 -3.22013 0
M  V30 4203 C 396.789 0.715486 -4.21977 0
M  V30 4204 C 396.115 1.87339 -5.00808 0
M  V30 4205 C 397.415 -0.302982 -5.2142 0
M  V30 4206 H 399.109 -0.450501 -2.95991 0
M  V30 4207 H 396.655 -0.218098 -1.42339 0
M  V30 4208 H 398.608 1.84037 -3.79089 0
M  V30 4209 H 397.332 2.02547 -2.56207 0
M  V30 4210 H 395.991 0.197715 -3.66066 0
M  V30 4211 H 395.639 2.58592 -4.31438 0
M  V30 4212 H 395.339 1.48764 -5.68457 0
M  V30 4213 H 396.863 2.41686 -5.60732 0
M  V30 4214 H 398.277 0.148802 -5.73107 0
M  V30 4215 H 396.674 -0.60532 -5.97039 0
M  V30 4216 H 397.744 -1.21395 -4.69459 0
M  V30 4217 N 399.087 1.5561 -0.249682 0
M  V30 4218 C 400.498 1.84979 0.252949 0
M  V30 4219 C 400.849 1.17153 1.57384 0
M  V30 4220 O 399.974 0.450884 2.11651 0
M  V30 4221 C 400.569 3.35584 0.465732 0
M  V30 4222 C 399.128 3.65169 0.912624 0
M  V30 4223 C 398.275 2.77299 -0.00859085 0
M  V30 4224 H 401.226 1.51513 -0.47217 0
M  V30 4225 H 401.247 3.57313 1.30795 0
M  V30 4226 H 400.759 3.8492 -0.49579 0
M  V30 4227 H 398.86 3.21312 1.88652 0
M  V30 4228 H 398.973 4.72912 0.767559 0
M  V30 4229 H 397.337 2.49678 0.50327 0
M  V30 4230 H 398.12 3.29442 -0.965537 0
M  V30 4231 N 400.565 -0.0233959 1.57583 0
M  V30 4232 C 401.512 -1.02224 2.06927 0
M  V30 4233 C 402.482 -1.35575 0.959617 0
M  V30 4234 O 403.667 -1.45815 1.23055 0
M  V30 4235 C 400.807 -2.31636 2.5581 0
M  V30 4236 C 399.92 -2.04394 3.80588 0
M  V30 4237 C 399.055 -3.27717 4.18061 0
M  V30 4238 C 398.094 -2.96056 5.3574 0
M  V30 4239 N 397.231 -4.11847 5.68618 0
M  V30 4240 H 402.071 -0.594504 2.9201 0
M  V30 4241 H 399.608 -0.281921 1.44373 0
M  V30 4242 H 401.566 -3.07258 2.82221 0
M  V30 4243 H 400.196 -2.72122 1.73636 0
M  V30 4244 H 399.248 -1.19244 3.61227 0
M  V30 4245 H 400.56 -1.77042 4.66323 0
M  V30 4246 H 399.714 -4.11702 4.4563 0
M  V30 4247 H 398.453 -3.58188 3.30988 0
M  V30 4248 H 397.458 -2.10474 5.07918 0
M  V30 4249 H 398.683 -2.66857 6.24471 0
M  V30 4250 H 396.629 -4.42258 4.84504 0
M  V30 4251 H 396.546 -3.87938 6.48876 0
M  V30 4252 H 397.814 -4.96689 6.00766 0
M  V30 4253 N 402.043 -1.548 -0.295768 0
M  V30 4254 C 403.268 -1.78653 -1.05346 0
M  V30 4255 C 403.693 -0.546894 -1.79974 0
M  V30 4256 O 403.051 0.502763 -1.7419 0
M  V30 4257 C 403.099 -2.99679 -2.00561 0
M  V30 4258 O 402.203 -2.7317 -3.08953 0
M  V30 4259 H 401.544 -0.59116 -0.302367 0
M  V30 4260 H 404.074 -2.01895 -0.331598 0
M  V30 4261 H 404.084 -3.27793 -2.42932 0
M  V30 4262 H 402.759 -3.89562 -1.4565 0
M  V30 4263 H 401.336 -2.56089 -2.71059 0
M  V30 4264 N 403.521 0.559213 -1.47345 0
M  V30 4265 C 404.937 0.884943 -1.32819 0
M  V30 4266 C 405.137 1.98988 -0.317173 0
M  V30 4267 O 404.193 2.51031 0.272011 0
M  V30 4268 C 405.506 1.28007 -2.72093 0
M  V30 4269 C 407.054 1.39161 -2.80363 0
M  V30 4270 C 407.529 1.82031 -4.20272 0
M  V30 4271 N 409.02 1.89185 -4.22804 0
M  V30 4272 C 409.755 2.2368 -5.27973 0
M  V30 4273 N 409.251 2.56802 -6.43447 0
M  V30 4274 N 411.044 2.24436 -5.15349 0
M  V30 4275 H 403.195 -0.170304 -2.11716 0
M  V30 4276 H 405.458 -0.0135247 -0.947904 0
M  V30 4277 H 405.164 0.542027 -3.47498 0
M  V30 4278 H 405.038 2.23665 -3.03733 0
M  V30 4279 H 407.425 2.12048 -2.05231 0
M  V30 4280 H 407.506 0.41696 -2.52379 0
M  V30 4281 H 407.15 1.09715 -4.95908 0
M  V30 4282 H 407.08 2.80495 -4.45679 0
M  V30 4283 H 409.571 1.65982 -3.39497 0
M  V30 4284 H 409.884 2.82144 -7.19454 0
M  V30 4285 H 408.229 2.54387 -6.46771 0
M  V30 4286 H 411.42 1.97998 -4.24163 0
M  V30 4287 H 411.593 2.50989 -5.97418 0
M  V30 4288 N 404.999 1.35443 0.805782 0
M  V30 4289 C 405.962 1.28301 1.89925 0
M  V30 4290 C 406.962 0.194285 1.59622 0
M  V30 4291 O 408.152 0.448036 1.6834 0
M  V30 4292 C 405.284 0.984997 3.2636 0
M  V30 4293 H 406.477 2.2553 1.97677 0
M  V30 4294 H 404.03 1.19979 1.00173 0
M  V30 4295 H 404.765 0.016603 3.24296 0
M  V30 4296 H 404.55 1.77269 3.4974 0
M  V30 4297 H 406.04 0.960651 4.064 0
M  V30 4298 N 406.477 -1.02803 1.19454 0
M  V30 4299 C 407.44 -2.09264 0.934955 0
M  V30 4300 C 408.44 -1.60576 -0.0849015 0
M  V30 4301 O 409.63 -1.73554 0.149933 0
M  V30 4302 C 406.762 -3.38482 0.40531 0
M  V30 4303 H 407.955 -2.33726 1.87916 0
M  V30 4304 H 405.508 -1.19426 1.00832 0
M  V30 4305 H 406.243 -3.19689 -0.544899 0
M  V30 4306 H 406.028 -3.75142 1.14065 0
M  V30 4307 H 407.518 -4.16894 0.242806 0
M  V30 4308 N 407.956 -0.998596 -1.21925 0
M  V30 4309 C 408.889 -0.498517 -2.22688 0
M  V30 4310 C 409.867 0.444301 -1.56412 0
M  V30 4311 O 411.051 0.368518 -1.84863 0
M  V30 4312 C 408.178 0.276639 -3.37568 0
M  V30 4313 C 407.224 -0.61302 -4.22071 0
M  V30 4314 S 408.057 -2.07168 -4.93803 0
M  V30 4315 C 409.213 -1.30617 -6.12119 0
M  V30 4316 H 409.446 -1.35234 -2.64762 0
M  V30 4317 H 406.979 -0.806018 -1.31692 0
M  V30 4318 H 408.937 0.717817 -4.04175 0
M  V30 4319 H 407.598 1.10581 -2.93991 0
M  V30 4320 H 406.791 -0.0162909 -5.03997 0
M  V30 4321 H 406.393 -0.991202 -3.60626 0
M  V30 4322 H 408.685 -0.57675 -6.75041 0
M  V30 4323 H 409.628 -2.10091 -6.76215 0
M  V30 4324 H 410.036 -0.816957 -5.58557 0
M  V30 4325 N 409.434 1.37368 -0.772513 0
M  V30 4326 C 410.384 2.27613 -0.132823 0
M  V30 4327 C 411.368 1.46138 0.673247 0
M  V30 4328 O 412.56 1.68686 0.536095 0
M  V30 4329 C 409.689 3.35122 0.744864 0
M  V30 4330 C 408.775 4.24044 -0.0690771 0
M  V30 4331 N 409.166 4.93355 -1.1151 0
M  V30 4332 C 407.464 4.45731 0.154782 0
M  V30 4333 C 408.165 5.59 -1.60917 0
M  V30 4334 N 407.141 5.35737 -0.921222 0
M  V30 4335 H 410.943 2.78675 -0.933681 0
M  V30 4336 H 408.457 1.50494 -0.610342 0
M  V30 4337 H 410.454 3.98683 1.21892 0
M  V30 4338 H 409.114 2.85616 1.54446 0
M  V30 4339 H 410.125 4.95785 -1.49726 0
M  V30 4340 H 406.802 4.07096 0.926224 0
M  V30 4341 H 408.192 6.24395 -2.48153 0
M  V30 4342 N 410.912 0.523116 1.48665 0
M  V30 4343 C 411.842 -0.23231 2.32342 0
M  V30 4344 C 412.823 -0.941637 1.41659 0
M  V30 4345 O 414.008 -0.928751 1.70552 0
M  V30 4346 C 411.138 -1.28387 3.22698 0
M  V30 4347 C 410.092 -0.693098 4.22351 0
M  V30 4348 C 409.418 -1.8468 5.01794 0
M  V30 4349 C 410.718 0.33063 5.21252 0
M  V30 4350 H 412.412 0.466192 2.95748 0
M  V30 4351 H 409.958 0.225643 1.42221 0
M  V30 4352 H 411.911 -1.82024 3.80059 0
M  V30 4353 H 410.635 -2.01186 2.57278 0
M  V30 4354 H 409.294 -0.178299 3.66166 0
M  V30 4355 H 408.942 -2.56301 4.32804 0
M  V30 4356 H 408.642 -1.45747 5.69238 0
M  V30 4357 H 410.166 -2.38709 5.62006 0
M  V30 4358 H 411.58 -0.118407 5.73178 0
M  V30 4359 H 409.977 0.636974 5.9671 0
M  V30 4360 H 411.047 1.23883 4.68808 0
M  V30 4361 N 412.39 -1.55475 0.257931 0
M  V30 4362 C 413.667 -1.91155 -0.414629 0
M  V30 4363 C 414.047 -1.18008 -1.75035 0
M  V30 4364 O 413.395 -0.301193 -2.26506 0
M  V30 4365 C 413.605 -3.44283 -0.571859 0
M  V30 4366 C 414.953 -4.15744 -0.862678 0
M  V30 4367 O 415.977 -3.50083 -0.657314 0
M  V30 4368 O 414.836 -5.31909 -1.2544 0
M  V30 4369 H 411.93 -0.796016 -0.22425 0
M  V30 4370 H 414.476 -1.66976 0.302814 0
M  V30 4371 H 413.248 -3.89558 0.368844 0
M  V30 4372 H 412.871 -3.7436 -1.33943 0
M  V30 4373 N 413.868 0.0150385 -1.57593 0
M  V30 4374 C 415.096 0.714395 -1.94175 0
M  V30 4375 C 415.511 1.68135 -0.858841 0
M  V30 4376 O 414.868 1.81766 0.163567 0
M  V30 4377 C 414.919 1.45933 -3.30735 0
M  V30 4378 O 414.64 0.531167 -4.34868 0
M  V30 4379 C 416.141 2.25456 -3.81686 0
M  V30 4380 H 413.361 0.199923 -0.640525 0
M  V30 4381 H 415.905 -0.0316096 -2.04476 0
M  V30 4382 H 414.06 2.15709 -3.21789 0
M  V30 4383 H 414.474 1.05509 -5.13778 0
M  V30 4384 H 415.948 2.731 -4.79709 0
M  V30 4385 H 416.425 3.07485 -3.13607 0
M  V30 4386 H 417.031 1.60727 -3.9376 0
M  V30 4387 N 415.346 1.54954 0.287554 0
M  V30 4388 C 416.592 1.75132 1.02257 0
M  V30 4389 C 416.925 0.542858 1.86458 0
M  V30 4390 O 416.2 -0.459856 1.88986 0
M  V30 4391 C 416.483 3.04812 1.91733 0
M  V30 4392 C 416.336 4.35985 1.10622 0
M  V30 4393 C 417.655 3.30438 2.90687 0
M  V30 4394 H 414.774 0.637194 0.370341 0
M  V30 4395 H 417.416 1.87678 0.296111 0
M  V30 4396 H 415.566 2.94247 2.53675 0
M  V30 4397 H 417.238 4.58487 0.508636 0
M  V30 4398 H 415.481 4.31865 0.409271 0
M  V30 4399 H 416.152 5.23017 1.76513 0
M  V30 4400 H 418.628 3.40701 2.38877 0
M  V30 4401 H 417.504 4.22467 3.50447 0
M  V30 4402 H 417.765 2.49377 3.65053 0
M  V30 4403 N 416.824 -0.551391 1.4764 0
M  V30 4404 C 418.071 -1.3083 1.54563 0
M  V30 4405 C 418.399 -1.93359 0.210361 0
M  V30 4406 O 417.654 -1.78721 -0.797332 0
M  V30 4407 C 417.953 -2.43469 2.61644 0
M  V30 4408 C 417.619 -1.98732 4.04742 0
M  V30 4409 C 416.281 -1.86248 4.43695 0
M  V30 4410 C 418.633 -1.64659 4.94507 0
M  V30 4411 C 415.961 -1.37995 5.70241 0
M  V30 4412 C 418.313 -1.17875 6.21521 0
M  V30 4413 C 416.977 -1.03992 6.5935 0
M  V30 4414 H 416.247 -0.478741 0.565587 0
M  V30 4415 H 418.894 -0.617697 1.81264 0
M  V30 4416 H 417.199 -3.18109 2.28722 0
M  V30 4417 H 418.896 -3.01642 2.64222 0
M  V30 4418 H 415.486 -2.09393 3.73968 0
M  V30 4419 H 419.67 -1.73174 4.65107 0
M  V30 4420 H 414.926 -1.25915 5.98294 0
M  V30 4421 H 419.1 -0.905739 6.90485 0
M  V30 4422 H 416.727 -0.663794 7.57296 0
M  V30 4423 N 418.302 -1.35869 -0.798587 0
M  V30 4424 C 419.527 -1.32883 -1.59238 0
M  V30 4425 C 419.952 0.0894587 -1.87887 0
M  V30 4426 O 419.31 1.05869 -1.47178 0
M  V30 4427 C 419.358 -2.14892 -2.89575 0
M  V30 4428 O 418.462 -1.53512 -3.82763 0
M  V30 4429 H 417.803 -0.455236 -0.48338 0
M  V30 4430 H 420.333 -1.79024 -0.990539 0
M  V30 4431 H 420.343 -2.27139 -3.38928 0
M  V30 4432 H 419.018 -3.17998 -2.68049 0
M  V30 4433 H 417.595 -1.50153 -3.41334 0
M  V30 4434 N 419.78 1.02168 -1.19998 0
M  V30 4435 C 421.027 1.75685 -1.00702 0
M  V30 4436 C 421.355 1.88947 0.461426 0
M  V30 4437 O 420.61 1.40832 1.35885 0
M  V30 4438 C 420.909 3.18081 -1.62969 0
M  V30 4439 C 420.575 3.24809 -3.12746 0
M  V30 4440 C 419.237 3.26352 -3.53621 0
M  V30 4441 C 421.589 3.23379 -4.08749 0
M  V30 4442 C 418.917 3.2413 -4.89036 0
M  V30 4443 C 421.269 3.22698 -5.44104 0
M  V30 4444 C 419.933 3.22542 -5.84399 0
M  V30 4445 H 419.203 0.642877 -0.368496 0
M  V30 4446 H 421.85 1.19865 -1.49348 0
M  V30 4447 H 420.155 3.77027 -1.06573 0
M  V30 4448 H 421.852 3.73648 -1.45561 0
M  V30 4449 H 418.442 3.2434 -2.80181 0
M  V30 4450 H 422.626 3.21361 -3.78207 0
M  V30 4451 H 417.882 3.22338 -5.19527 0
M  V30 4452 H 422.056 3.20543 -6.18244 0
M  V30 4453 H 419.683 3.20575 -6.89301 0
M  V30 4454 N 421.258 1.00505 1.21394 0
M  V30 4455 C 422.498 0.696149 1.9218 0
M  V30 4456 C 422.862 -0.759099 1.76357 0
M  V30 4457 O 424.063 -1.17998 2.41516 0
M  V30 4458 C 422.334 1.10571 3.39866 0
M  V30 4459 S 423.893 0.91702 4.29111 0
M  V30 4460 H 420.711 0.254147 0.664026 0
M  V30 4461 H 423.313 1.28988 1.46909 0
M  V30 4462 H 422.017 2.16096 3.489 0
M  V30 4463 H 421.548 0.504268 3.90155 0
M  V30 4464 H 423.563 -0.185855 4.95852 0
M  V30 4465 N 422.737 -1.36956 0.779787 0
M  V30 4466 C 424.014 -1.93697 0.272156 0
M  V30 4467 C 424.394 -1.71267 -1.23413 0
M  V30 4468 O 423.742 -1.06607 -2.02107 0
M  V30 4469 C 423.952 -3.42812 0.654291 0
M  V30 4470 C 425.3 -4.19921 0.628602 0
M  V30 4471 O 426.324 -3.51209 0.594172 0
M  V30 4472 O 425.183 -5.42465 0.662864 0
M  V30 4473 H 422.277 -0.824447 0.0649286 0
M  V30 4474 H 424.823 -1.46196 0.861682 0
M  V30 4475 H 423.595 -3.52754 1.69353 0
M  V30 4476 H 423.218 -3.97582 0.0381369 0
M  V30 4477 N 424.215 -0.530993 -1.48385 0
M  V30 4478 C 425.631 -0.188919 -1.58478 0
M  V30 4479 C 425.831 1.30786 -1.53288 0
M  V30 4480 O 424.887 2.08619 -1.42248 0
M  V30 4481 C 426.2 -0.792343 -2.90073 0
M  V30 4482 C 427.748 -0.76117 -3.03604 0
M  V30 4483 C 428.223 -1.34319 -4.37861 0
M  V30 4484 N 429.714 -1.3052 -4.44431 0
M  V30 4485 C 430.449 -1.72543 -5.46824 0
M  V30 4486 N 429.945 -2.22299 -6.56167 0
M  V30 4487 N 431.738 -1.63773 -5.37712 0
M  V30 4488 H 423.889 -1.50377 -1.50002 0
M  V30 4489 H 426.152 -0.625559 -0.712306 0
M  V30 4490 H 425.858 -1.84323 -2.99529 0
M  V30 4491 H 425.732 -0.270026 -3.76232 0
M  V30 4492 H 428.119 0.280957 -2.93759 0
M  V30 4493 H 428.2 -1.32097 -2.19053 0
M  V30 4494 H 427.844 -2.38425 -4.4846 0
M  V30 4495 H 427.774 -0.759064 -5.21101 0
M  V30 4496 H 430.265 -0.940973 -3.65997 0
M  V30 4497 H 430.578 -2.52356 -7.30436 0
M  V30 4498 H 428.923 -2.26293 -6.57127 0
M  V30 4499 H 432.114 -1.24698 -4.51185 0
M  V30 4500 H 432.287 -1.96844 -6.17379 0
M  V30 4501 N 425.693 1.55336 -0.266172 0
M  V30 4502 C 426.97 1.91372 0.404486 0
M  V30 4503 C 427.35 1.18935 1.74407 0
M  V30 4504 O 426.698 0.3132 2.26343 0
M  V30 4505 C 426.908 3.44581 0.553593 0
M  V30 4506 C 428.256 4.16196 0.840618 0
M  V30 4507 O 429.28 3.50426 0.638739 0
M  V30 4508 O 428.139 5.32567 1.22618 0
M  V30 4509 H 425.233 0.797194 0.220025 0
M  V30 4510 H 427.779 1.66813 -0.311664 0
M  V30 4511 H 426.551 3.89357 -0.389498 0
M  V30 4512 H 426.174 3.75065 1.31955 0
M  V30 4513 N 427.171 -0.0066808 1.57599 0
M  V30 4514 C 428.101 -0.999296 2.11036 0
M  V30 4515 C 429.082 -1.36278 1.01795 0
M  V30 4516 O 430.267 -1.4477 1.29442 0
M  V30 4517 C 427.397 -2.29328 2.60818 0
M  V30 4518 C 426.351 -2.07159 3.74525 0
M  V30 4519 C 425.677 -3.42512 4.10596 0
M  V30 4520 C 426.977 -1.43959 5.02069 0
M  V30 4521 H 428.671 -0.554382 2.94223 0
M  V30 4522 H 426.217 -0.265221 1.41536 0
M  V30 4523 H 428.17 -2.99117 2.96828 0
M  V30 4524 H 426.894 -2.7592 1.74745 0
M  V30 4525 H 425.553 -1.39797 3.38899 0
M  V30 4526 H 425.201 -3.86795 3.21556 0
M  V30 4527 H 424.901 -3.28498 4.87199 0
M  V30 4528 H 426.425 -4.13628 4.4916 0
M  V30 4529 H 427.839 -2.03696 5.35893 0
M  V30 4530 H 426.236 -1.40452 5.83432 0
M  V30 4531 H 427.306 -0.407992 4.83181 0
M  V30 4532 N 428.649 -1.55105 -0.279332 0
M  V30 4533 C 429.895 -1.75672 -1.01327 0
M  V30 4534 C 430.228 -0.552739 -1.86168 0
M  V30 4535 O 429.503 0.449827 -1.89227 0
M  V30 4536 C 429.786 -3.05825 -1.90114 0
M  V30 4537 C 429.639 -4.36565 -1.08309 0
M  V30 4538 C 430.958 -3.31975 -2.8893 0
M  V30 4539 H 428.077 -0.639149 -0.366957 0
M  V30 4540 H 430.719 -1.87833 -0.286154 0
M  V30 4541 H 428.869 -2.95588 -2.52111 0
M  V30 4542 H 430.541 -4.58751 -0.484314 0
M  V30 4543 H 428.784 -4.32076 -0.386362 0
M  V30 4544 H 429.455 -5.23946 -1.73737 0
M  V30 4545 H 431.931 -3.41963 -2.37067 0
M  V30 4546 H 430.807 -4.2432 -3.48201 0
M  V30 4547 H 431.068 -2.51309 -3.63725 0
M  V30 4548 N 430.127 0.543554 -1.4793 0
M  V30 4549 C 431.355 1.32516 -1.58894 0
M  V30 4550 C 431.77 1.87215 -0.244131 0
M  V30 4551 O 431.127 1.65709 0.764652 0
M  V30 4552 C 431.178 2.48554 -2.62494 0
M  V30 4553 O 430.899 1.96112 -3.91755 0
M  V30 4554 C 432.4 3.40572 -2.8377 0
M  V30 4555 H 429.62 0.403472 -0.536145 0
M  V30 4556 H 432.164 0.657106 -1.93655 0
M  V30 4557 H 430.319 3.1127 -2.30629 0
M  V30 4558 H 430.733 2.71967 -4.4848 0
M  V30 4559 H 432.207 4.18375 -3.60093 0
M  V30 4560 H 432.684 3.94965 -1.92092 0
M  V30 4561 H 433.29 2.8366 -3.16887 0
M  V30 4562 N 431.605 1.3629 0.791371 0
M  V30 4563 C 432.851 1.30605 1.55146 0
M  V30 4564 C 433.184 -0.115042 1.93859 0
M  V30 4565 O 432.459 -1.06798 1.62556 0
M  V30 4566 C 432.742 2.22692 2.82985 0
M  V30 4567 C 432.595 3.73489 2.50651 0
M  V30 4568 C 433.914 2.13588 3.84796 0
M  V30 4569 H 431.033 0.475761 0.562868 0
M  V30 4570 H 433.675 1.66825 0.909358 0
M  V30 4571 H 431.825 1.91933 3.37778 0
M  V30 4572 H 433.497 4.14758 2.01924 0
M  V30 4573 H 431.74 3.93021 1.83622 0
M  V30 4574 H 432.411 4.3333 3.41949 0
M  V30 4575 H 434.887 2.40659 3.39445 0
M  V30 4576 H 433.763 2.80195 4.71998 0
M  V30 4577 H 434.024 1.12256 4.27611 0
M  V30 4578 N 433.083 -1.0153 1.20538 0
M  V30 4579 C 434.33 -1.75149 1.01633 0
M  V30 4580 C 434.658 -1.89189 -0.451399 0
M  V30 4581 O 433.913 -1.41551 -1.35136 0
M  V30 4582 C 434.212 -3.17213 1.64654 0
M  V30 4583 C 433.878 -3.23146 3.14464 0
M  V30 4584 C 432.54 -3.24472 3.55347 0
M  V30 4585 C 434.892 -3.21207 4.10458 0
M  V30 4586 C 432.22 -3.21532 4.90748 0
M  V30 4587 C 434.572 -3.19808 5.45807 0
M  V30 4588 C 433.236 -3.19439 5.86102 0
M  V30 4589 H 432.506 -0.640914 0.3719 0
M  V30 4590 H 435.153 -1.19071 1.49981 0
M  V30 4591 H 433.458 -3.76457 1.08571 0
M  V30 4592 H 435.155 -3.72871 1.4754 0
M  V30 4593 H 431.745 -3.2285 2.81897 0
M  V30 4594 H 435.929 -3.19351 3.79906 0
M  V30 4595 H 431.185 -3.19578 5.21229 0
M  V30 4596 H 435.359 -3.1726 6.19935 0
M  V30 4597 H 432.986 -3.16915 6.90991 0
M  V30 4598 N 434.561 -1.01147 -1.20859 0
M  V30 4599 C 435.972 -0.730205 -1.71828 0
M  V30 4600 C 436.323 0.751662 -1.8123 0
M  V30 4601 O 435.448 1.58686 -1.47132 0
M  V30 4602 C 436.043 -1.31885 -3.12077 0
M  V30 4603 C 434.602 -1.08656 -3.60376 0
M  V30 4604 C 433.749 -1.42769 -2.37723 0
M  V30 4605 H 436.7 -1.18158 -1.05945 0
M  V30 4606 H 436.721 -0.706793 -3.73878 0
M  V30 4607 H 436.233 -2.39737 -3.05201 0
M  V30 4608 H 434.334 -0.0254814 -3.72591 0
M  V30 4609 H 434.447 -1.76301 -4.45483 0
M  V30 4610 H 432.811 -0.846603 -2.40218 0
M  V30 4611 H 433.594 -2.51666 -2.33493 0
M  V30 4612 N 436.039 1.36541 -0.78704 0
M  V30 4613 C 436.949 2.3387 -0.184896 0
M  V30 4614 C 437.965 1.60927 0.661697 0
M  V30 4615 O 439.141 1.92927 0.57804 0
M  V30 4616 C 436.206 3.40122 0.672145 0
M  V30 4617 C 435.267 4.28867 -0.19267 0
M  V30 4618 C 434.5 5.30045 0.623561 0
M  V30 4619 O 434.723 5.39232 1.8597 0
M  V30 4620 O 433.657 6.01895 0.0247068 0
M  V30 4621 H 437.483 2.87126 -0.989562 0
M  V30 4622 H 435.068 1.38969 -0.548455 0
M  V30 4623 H 436.95 4.05093 1.16094 0
M  V30 4624 H 435.625 2.89169 1.45474 0
M  V30 4625 H 434.532 3.66945 -0.728166 0
M  V30 4626 H 435.865 4.83165 -0.938722 0
M  V30 4627 N 437.518 0.538854 1.48102 0
M  V30 4628 C 438.764 0.00801365 2.02798 0
M  V30 4629 C 439.097 -1.3309 1.41424 0
M  V30 4630 O 438.372 -1.86169 0.563158 0
M  V30 4631 C 438.655 -0.104589 3.59948 0
M  V30 4632 C 438.508 1.26012 4.31788 0
M  V30 4633 C 439.827 -0.827055 4.32259 0
M  V30 4634 H 436.946 0.00438624 0.736987 0
M  V30 4635 H 439.588 0.6976 1.7673 0
M  V30 4636 H 437.738 -0.691893 3.82289 0
M  V30 4637 H 439.41 1.88922 4.2084 0
M  V30 4638 H 437.653 1.83968 3.92859 0
M  V30 4639 H 438.324 1.13424 5.40221 0
M  V30 4640 H 440.8 -0.328578 4.14801 0
M  V30 4641 H 439.676 -0.87476 5.41885 0
M  V30 4642 H 439.937 -1.87927 4.0017 0
M  V30 4643 N 438.996 -1.55193 0.274407 0
M  V30 4644 C 440.242 -1.99877 -0.343086 0
M  V30 4645 C 440.575 -1.16256 -1.55558 0
M  V30 4646 O 439.85 -0.232462 -1.93106 0
M  V30 4647 C 440.133 -3.52706 -0.725965 0
M  V30 4648 C 439.986 -4.47081 0.493818 0
M  V30 4649 C 441.305 -4.11422 -1.56268 0
M  V30 4650 H 438.424 -0.726625 -0.123229 0
M  V30 4651 H 441.066 -1.86136 0.38121 0
M  V30 4652 H 439.216 -3.64546 -1.34307 0
M  V30 4653 H 440.888 -4.47186 1.13237 0
M  V30 4654 H 439.131 -4.1877 1.13201 0
M  V30 4655 H 439.802 -5.51699 0.18217 0
M  V30 4656 H 442.278 -4.02855 -1.04151 0
M  V30 4657 H 441.154 -5.18568 -1.79939 0
M  V30 4658 H 441.415 -3.61607 -2.54348 0
M  V30 4659 N 440.474 -0.00167713 -1.576 0
M  V30 4660 C 441.421 0.989195 -2.08527 0
M  V30 4661 C 442.391 1.34031 -0.981065 0
M  V30 4662 O 443.576 1.43839 -1.2536 0
M  V30 4663 C 440.716 2.27537 -2.59463 0
M  V30 4664 C 439.829 1.98314 -3.83791 0
M  V30 4665 C 438.964 3.21025 -4.23222 0
M  V30 4666 C 438.003 2.87495 -5.40382 0
M  V30 4667 N 437.14 4.02749 -5.75098 0
M  V30 4668 H 441.98 0.547973 -2.92919 0
M  V30 4669 H 439.517 0.258917 -1.44803 0
M  V30 4670 H 441.475 3.02729 -2.87073 0
M  V30 4671 H 440.105 2.69325 -1.77943 0
M  V30 4672 H 439.157 1.13482 -3.63078 0
M  V30 4673 H 440.469 1.69601 -4.69081 0
M  V30 4674 H 439.623 4.04561 -4.52123 0
M  V30 4675 H 438.362 3.52877 -3.36644 0
M  V30 4676 H 437.367 2.02367 -5.11202 0
M  V30 4677 H 438.592 2.56889 -6.28637 0
M  V30 4678 H 436.538 4.34494 -4.91478 0
M  V30 4679 H 436.455 3.77566 -6.54966 0
M  V30 4680 H 437.723 4.87068 -6.08592 0
M  V30 4681 N 441.952 1.55251 0.271103 0
M  V30 4682 C 442.862 1.9136 1.35714 0
M  V30 4683 C 443.878 0.811075 1.5394 0
M  V30 4684 O 445.054 1.11031 1.6803 0
M  V30 4685 C 442.119 2.1798 2.69603 0
M  V30 4686 C 441.18 3.4153 2.60107 0
M  V30 4687 C 440.413 3.66871 3.8761 0
M  V30 4688 O 440.636 2.94689 4.8838 0
M  V30 4689 O 439.57 4.60405 3.87699 0
M  V30 4690 H 443.396 2.83815 1.08088 0
M  V30 4691 H 440.981 1.41821 0.469792 0
M  V30 4692 H 442.863 2.36518 3.48765 0
M  V30 4693 H 441.538 1.28708 2.97012 0
M  V30 4694 H 440.445 3.28325 1.79314 0
M  V30 4695 H 441.778 4.31027 2.37647 0
M  V30 4696 N 443.43 -0.535701 1.48216 0
M  V30 4697 C 444.679 -1.28828 1.55197 0
M  V30 4698 C 444.992 -1.94263 0.228278 0
M  V30 4699 O 446.198 -2.70927 0.176278 0
M  V30 4700 C 444.654 -2.33727 2.73678 0
M  V30 4701 C 444.262 -1.74386 4.12666 0
M  V30 4702 C 446.006 -3.1003 2.89968 0
M  V30 4703 C 443.913 -2.77192 5.22416 0
M  V30 4704 H 442.843 -0.484484 0.577747 0
M  V30 4705 H 445.494 -0.56646 1.74538 0
M  V30 4706 H 443.876 -3.08919 2.4776 0
M  V30 4707 H 445.05 -1.05421 4.48579 0
M  V30 4708 H 443.365 -1.10595 4.01445 0
M  V30 4709 H 445.962 -3.86842 3.6913 0
M  V30 4710 H 446.305 -3.65542 1.9921 0
M  V30 4711 H 446.838 -2.41952 3.15759 0
M  V30 4712 H 443.577 -2.26507 6.15122 0
M  V30 4713 H 443.097 -3.44502 4.90998 0
M  V30 4714 H 444.776 -3.40285 5.50286 0
M  V30 4715 N 444.908 -1.36708 -0.784132 0
M  V30 4716 C 446.154 -1.31426 -1.54451 0
M  V30 4717 C 446.487 0.10476 -1.93917 0
M  V30 4718 O 445.762 1.05934 -1.6312 0
M  V30 4719 C 446.045 -2.24189 -2.818 0
M  V30 4720 C 445.898 -3.74813 -2.48667 0
M  V30 4721 C 447.217 -2.15626 -3.83658 0
M  V30 4722 H 444.336 -0.478739 -0.560337 0
M  V30 4723 H 446.978 -1.67305 -0.900498 0
M  V30 4724 H 445.128 -1.93722 -3.36755 0
M  V30 4725 H 446.8 -4.15823 -1.99722 0
M  V30 4726 H 445.043 -3.93989 -1.81535 0
M  V30 4727 H 445.714 -4.35138 -3.39646 0
M  V30 4728 H 448.19 -2.42456 -3.38163 0
M  V30 4729 H 447.066 -2.82694 -4.70506 0
M  V30 4730 H 447.327 -1.14522 -4.27009 0
M  V30 4731 N 446.386 1.0089 -1.21074 0
M  V30 4732 C 447.797 1.56056 -1.02486 0
M  V30 4733 C 448.148 1.91728 0.416506 0
M  V30 4734 O 447.273 1.73066 1.29912 0
M  V30 4735 C 447.868 2.83563 -1.85411 0
M  V30 4736 C 446.427 3.3523 -1.71166 0
M  V30 4737 C 445.574 2.0846 -1.82865 0
M  V30 4738 H 448.525 0.831818 -1.35154 0
M  V30 4739 H 448.546 3.55286 -1.36205 0
M  V30 4740 H 448.058 2.57569 -2.9031 0
M  V30 4741 H 446.159 3.66167 -0.689361 0
M  V30 4742 H 446.272 4.06913 -2.52901 0
M  V30 4743 H 444.636 2.21275 -1.26132 0
M  V30 4744 H 445.419 1.84883 -2.89263 0
M  V30 4745 N 447.864 1.01787 1.20321 0
M  V30 4746 C 449.111 0.707936 1.89722 0
M  V30 4747 C 449.439 -0.762535 1.78929 0
M  V30 4748 O 448.694 -1.56977 1.16861 0
M  V30 4749 C 448.993 1.09076 3.40349 0
M  V30 4750 C 448.659 2.55765 3.71342 0
M  V30 4751 C 447.321 2.95845 3.79511 0
M  V30 4752 C 449.673 3.50723 3.85542 0
M  V30 4753 C 447.001 4.2982 3.99339 0
M  V30 4754 C 449.353 4.84387 4.06881 0
M  V30 4755 C 448.017 5.24172 4.1328 0
M  V30 4756 H 447.287 0.259052 0.694243 0
M  V30 4757 H 449.934 1.27868 1.42555 0
M  V30 4758 H 448.239 0.438453 3.89339 0
M  V30 4759 H 449.936 0.828636 3.92345 0
M  V30 4760 H 446.526 2.2371 3.65584 0
M  V30 4761 H 450.71 3.20916 3.78585 0
M  V30 4762 H 445.966 4.60196 4.02529 0
M  V30 4763 H 450.14 5.57891 4.1681 0
M  V30 4764 H 447.767 6.27997 4.28396 0
M  V30 4765 N 449.342 -1.36122 0.79427 0
M  V30 4766 C 450.567 -2.03891 0.379871 0
M  V30 4767 C 450.992 -1.59488 -0.997251 0
M  V30 4768 O 450.35 -0.765652 -1.64339 0
M  V30 4769 C 450.398 -3.57687 0.457442 0
M  V30 4770 O 449.502 -4.08931 -0.5338 0
M  V30 4771 H 448.843 -0.6443 0.160541 0
M  V30 4772 H 451.373 -1.73976 1.07673 0
M  V30 4773 H 451.383 -4.06721 0.322792 0
M  V30 4774 H 450.058 -3.89357 1.46199 0
M  V30 4775 H 448.635 -3.71154 -0.360409 0
M  V30 4776 N 450.82 -0.546701 -1.47814 0
M  V30 4777 C 451.75 0.195317 -2.32682 0
M  V30 4778 C 452.731 0.918981 -1.43139 0
M  V30 4779 O 453.916 0.901501 -1.72008 0
M  V30 4780 C 451.046 1.23237 -3.247 0
M  V30 4781 C 450 0.625818 -4.234 0
M  V30 4782 C 449.326 1.76674 -5.04669 0
M  V30 4783 C 450.626 -0.413515 -5.2066 0
M  V30 4784 H 452.32 -0.513184 -2.94969 0
M  V30 4785 H 449.866 -0.248241 -1.41844 0
M  V30 4786 H 451.819 1.75955 -3.82907 0
M  V30 4787 H 450.543 1.97067 -2.60446 0
M  V30 4788 H 449.202 0.120023 -3.66403 0
M  V30 4789 H 448.85 2.49383 -4.36826 0
M  V30 4790 H 448.55 1.36673 -5.71484 0
M  V30 4791 H 450.074 2.29738 -5.65732 0
M  V30 4792 H 451.488 0.0272042 -5.73294 0
M  V30 4793 H 449.885 -0.731825 -5.95621 0
M  V30 4794 H 450.955 -1.31325 -4.66778 0
M  V30 4795 N 452.299 1.55045 -0.282633 0
M  V30 4796 C 453.715 1.59441 0.0712997 0
M  V30 4797 C 453.915 1.2998 1.53972 0
M  V30 4798 O 452.971 1.06431 2.28973 0
M  V30 4799 C 454.284 2.99097 -0.310104 0
M  V30 4800 C 455.832 3.1194 -0.257343 0
M  V30 4801 C 456.307 4.53875 -0.613297 0
M  V30 4802 N 457.798 4.5974 -0.565134 0
M  V30 4803 C 458.533 5.67603 -0.81326 0
M  V30 4804 N 458.029 6.83582 -1.1264 0
M  V30 4805 N 459.822 5.57187 -0.741553 0
M  V30 4806 H 451.973 1.72458 -1.23984 0
M  V30 4807 H 454.236 0.804549 -0.501403 0
M  V30 4808 H 453.942 3.25516 -1.33163 0
M  V30 4809 H 453.816 3.75616 0.345366 0
M  V30 4810 H 456.203 2.85281 0.754905 0
M  V30 4811 H 456.284 2.37618 -0.947178 0
M  V30 4812 H 455.928 4.81261 -1.62327 0
M  V30 4813 H 455.858 5.26508 0.09841 0
M  V30 4814 H 458.349 3.76427 -0.333294 0
M  V30 4815 H 458.662 7.6175 -1.30219 0
M  V30 4816 H 457.007 6.85179 -1.16425 0
M  V30 4817 H 460.198 4.65457 -0.496705 0
M  V30 4818 H 460.371 6.41171 -0.938306 0
M  V30 4819 N 453.777 0.010035 1.57597 0
M  V30 4820 C 455.188 -0.531426 1.78977 0
M  V30 4821 C 455.539 -1.73375 0.918454 0
M  V30 4822 O 454.664 -2.16047 0.123635 0
M  V30 4823 C 455.259 -0.97086 3.24592 0
M  V30 4824 C 453.818 -1.45756 3.47033 0
M  V30 4825 C 452.965 -0.413384 2.74201 0
M  V30 4826 H 455.916 0.236166 1.56933 0
M  V30 4827 H 455.937 -1.83633 3.33255 0
M  V30 4828 H 455.449 -0.0955893 3.87982 0
M  V30 4829 H 453.55 -2.35339 2.88871 0
M  V30 4830 H 453.663 -1.4781 4.55729 0
M  V30 4831 H 452.027 -0.877266 2.39115 0
M  V30 4832 H 452.81 0.453092 3.40297 0
M  V30 4833 N 455.255 -1.55392 -0.262866 0
M  V30 4834 C 456.532 -1.67204 -1.01499 0
M  V30 4835 C 456.912 -0.545186 -2.03939 0
M  V30 4836 O 456.26 0.453467 -2.23955 0
M  V30 4837 C 456.47 -3.06847 -1.6627 0
M  V30 4838 C 457.818 -3.64928 -2.17054 0
M  V30 4839 O 458.842 -3.09545 -1.76239 0
M  V30 4840 O 457.701 -4.61984 -2.91947 0
M  V30 4841 H 454.795 -0.679467 -0.471438 0
M  V30 4842 H 457.341 -1.67729 -0.257918 0
M  V30 4843 H 456.113 -3.80309 -0.920915 0
M  V30 4844 H 455.736 -3.10266 -2.48638 0
M  V30 4845 N 456.733 0.527833 -1.48498 0
M  V30 4846 C 458.144 1.10975 -1.50138 0
M  V30 4847 C 458.495 1.943 -0.272378 0
M  V30 4848 O 457.62 2.07319 0.620301 0
M  V30 4849 C 458.215 2.01927 -2.72049 0
M  V30 4850 C 456.774 2.55332 -2.76554 0
M  V30 4851 C 455.921 1.32341 -2.43683 0
M  V30 4852 H 458.872 0.312986 -1.55583 0
M  V30 4853 H 458.893 2.86244 -2.50689 0
M  V30 4854 H 458.405 1.41254 -3.61481 0
M  V30 4855 H 456.506 3.19721 -1.91336 0
M  V30 4856 H 456.619 2.94319 -3.78038 0
M  V30 4857 H 454.983 1.63989 -1.94884 0
M  V30 4858 H 455.766 0.734165 -3.35358 0
M  V30 4859 N 458.211 1.37122 0.776871 0
M  V30 4860 C 459.436 1.354 1.57104 0
M  V30 4861 C 459.861 -0.0595562 1.88006 0
M  V30 4862 O 459.219 -1.03514 1.48844 0
M  V30 4863 C 459.267 2.19472 2.8612 0
M  V30 4864 O 458.371 1.59582 3.80273 0
M  V30 4865 H 457.712 0.462869 0.476076 0
M  V30 4866 H 460.242 1.80577 0.961932 0
M  V30 4867 H 460.252 2.32502 3.35271 0
M  V30 4868 H 458.927 3.22222 2.62956 0
M  V30 4869 H 457.504 1.55564 3.38902 0
M  V30 4870 N 459.689 -1.00246 1.21608 0
M  V30 4871 C 460.914 -1.78167 1.06167 0
M  V30 4872 C 461.339 -1.84138 -0.384035 0
M  V30 4873 O 460.697 -1.28683 -1.27712 0
M  V30 4874 C 460.745 -3.19786 1.66642 0
M  V30 4875 O 459.849 -4.02153 0.913613 0
M  V30 4876 H 459.19 -0.549 0.37349 0
M  V30 4877 H 461.72 -1.25994 1.61204 0
M  V30 4878 H 461.73 -3.70451 1.70969 0
M  V30 4879 H 460.405 -3.14754 2.7185 0
M  V30 4880 H 458.982 -3.60711 0.945635 0
M  V30 4881 N 461.167 -1.02423 -1.1978 0
M  V30 4882 C 462.578 -0.748389 -1.71044 0
M  V30 4883 C 462.929 0.732398 -1.82017 0
M  V30 4884 O 462.054 1.57116 -1.48807 0
M  V30 4885 C 462.649 -1.35187 -3.1066 0
M  V30 4886 C 461.208 -1.12472 -3.59203 0
M  V30 4887 C 460.355 -1.45283 -2.36195 0
M  V30 4888 H 463.306 -1.19275 -1.04686 0
M  V30 4889 H 463.327 -0.746408 -3.73107 0
M  V30 4890 H 462.839 -2.4296 -3.02642 0
M  V30 4891 H 460.94 -0.0649983 -3.72543 0
M  V30 4892 H 461.053 -1.81016 -4.43588 0
M  V30 4893 H 459.417 -0.872034 -2.39307 0
M  V30 4894 H 460.2 -2.54129 -2.30811 0
M  V30 4895 N 462.645 1.35699 -0.801477 0
M  V30 4896 C 463.875 2.02862 -0.3912 0
M  V30 4897 C 464.283 1.60552 1.00099 0
M  V30 4898 O 463.626 0.796215 1.65548 0
M  V30 4899 C 463.688 3.57386 -0.389299 0
M  V30 4900 C 463.352 4.22943 -1.73113 0
M  V30 4901 C 464.349 4.44984 -2.68859 0
M  V30 4902 C 462.034 4.60167 -2.01373 0
M  V30 4903 C 464.028 5.03345 -3.91053 0
M  V30 4904 C 461.715 5.18243 -3.23832 0
M  V30 4905 C 462.713 5.39773 -4.1849 0
M  V30 4906 O 462.401 5.96626 -5.38788 0
M  V30 4907 H 462.133 0.657341 -0.157732 0
M  V30 4908 H 464.687 1.74407 -1.08496 0
M  V30 4909 H 462.917 3.85011 0.361031 0
M  V30 4910 H 464.606 4.059 -0.0020365 0
M  V30 4911 H 465.372 4.1661 -2.48316 0
M  V30 4912 H 461.251 4.42726 -1.28508 0
M  V30 4913 H 464.795 5.20065 -4.64949 0
M  V30 4914 H 460.692 5.46044 -3.44248 0
M  V30 4915 H 461.46 6.15082 -5.40015 0
M  V30 4916 N 464.123 0.554532 1.47522 0
M  V30 4917 C 465.371 0.0294208 2.02079 0
M  V30 4918 C 465.692 -1.32411 1.43151 0
M  V30 4919 O 464.962 -1.863 0.605728 0
M  V30 4920 H 463.542 0.00788672 0.746958 0
M  V30 4921 H 466.204 0.723934 1.80956 0
M  V30 4922 H 465.3 -0.0606745 3.12041 0
M  V30 4923 N 465.601 -1.54893 0.290851 0
M  V30 4924 C 466.534 -2.19289 -0.631489 0
M  V30 4925 C 467.512 -1.15893 -1.14051 0
M  V30 4926 O 468.696 -1.4449 -1.21058 0
M  V30 4927 C 465.823 -2.82866 -1.86291 0
M  V30 4928 C 464.869 -3.997 -1.48801 0
M  V30 4929 S 465.702 -5.32641 -0.552644 0
M  V30 4930 C 466.858 -5.99696 -1.79209 0
M  V30 4931 H 467.091 -2.9718 -0.0843791 0
M  V30 4932 H 464.624 -1.54218 0.075031 0
M  V30 4933 H 466.582 -3.20124 -2.56964 0
M  V30 4934 H 465.243 -2.04839 -2.38117 0
M  V30 4935 H 464.436 -4.42932 -2.40473 0
M  V30 4936 H 464.038 -3.63947 -0.861321 0
M  V30 4937 H 466.33 -6.19886 -2.734 0
M  V30 4938 H 467.273 -6.94071 -1.40251 0
M  V30 4939 H 467.681 -5.29226 -1.96419 0
M  V30 4940 N 467.08 -0.0183926 -1.57589 0
M  V30 4941 C 468.028 0.985111 -2.10709 0
M  V30 4942 C 469.022 1.34397 -1.0312 0
M  V30 4943 O 470.228 1.32746 -1.21567 0
M  V30 4944 H 466.603 0.335418 -0.673052 0
M  V30 4945 H 468.574 0.511689 -2.9398 0
M  V30 4946 C 467.323 2.26202 -2.64061 0
M  V30 4947 H 466.646 1.9946 -3.4649 0
M  V30 4948 H 468.086 2.94652 -3.04887 0
M  V30 4949 C 466.545 2.98444 -1.5631 0
M  V30 4950 O 467.075 3.90142 -0.956674 0
M  V30 4951 N 465.281 2.6059 -1.28612 0
M  V30 4952 H 464.828 1.86101 -1.78112 0
M  V30 4953 H 464.786 3.09238 -0.567406 0
M  V30 4954 N 468.558 1.5553 0.254621 0
M  V30 4955 C 469.807 1.76202 0.981612 0
M  V30 4956 C 470.12 0.580883 1.86776 0
M  V30 4957 O 471.326 0.670448 2.63092 0
M  V30 4958 C 469.782 3.11921 1.79537 0
M  V30 4959 C 469.39 4.37659 0.956991 0
M  V30 4960 C 471.134 3.41936 2.51555 0
M  V30 4961 C 469.041 5.64411 1.76619 0
M  V30 4962 H 467.971 0.656841 0.370237 0
M  V30 4963 H 470.622 1.81969 0.236556 0
M  V30 4964 H 469.004 3.00241 2.58208 0
M  V30 4965 H 470.178 4.60307 0.21315 0
M  V30 4966 H 468.493 4.14922 0.350497 0
M  V30 4967 H 471.09 4.33849 3.12536 0
M  V30 4968 H 471.433 2.62905 3.22779 0
M  V30 4969 H 471.966 3.54797 1.799 0
M  V30 4970 H 468.705 6.46241 1.09783 0
M  V30 4971 H 468.225 5.45877 2.48551 0
M  V30 4972 H 469.904 6.03386 2.33527 0
M  V30 4973 N 470.036 -0.519951 1.48776 0
M  V30 4974 C 471.452 -0.849418 1.35119 0
M  V30 4975 C 471.652 -1.98077 0.36982 0
M  V30 4976 O 470.708 -2.51664 -0.205359 0
M  V30 4977 C 472.021 -1.20748 2.75391 0
M  V30 4978 C 473.569 -1.31679 2.83954 0
M  V30 4979 C 474.044 -1.70824 4.24951 0
M  V30 4980 N 475.535 -1.77908 4.27672 0
M  V30 4981 C 476.27 -2.09603 5.33717 0
M  V30 4982 N 475.766 -2.39652 6.5003 0
M  V30 4983 N 477.559 -2.10694 5.21119 0
M  V30 4984 H 469.71 0.226377 2.1119 0
M  V30 4985 H 471.973 0.0386519 0.947212 0
M  V30 4986 H 471.679 -0.449703 3.48813 0
M  V30 4987 H 471.553 -2.15534 3.09556 0
M  V30 4988 H 473.94 -2.06532 2.10781 0
M  V30 4989 H 474.021 -0.3499 2.53396 0
M  V30 4990 H 473.665 -0.965282 4.98643 0
M  V30 4991 H 473.595 -2.6858 4.52959 0
M  V30 4992 H 476.086 -1.56923 3.43779 0
M  V30 4993 H 476.399 -2.6297 7.26682 0
M  V30 4994 H 474.744 -2.37149 6.53288 0
M  V30 4995 H 477.935 -1.86682 4.29264 0
M  V30 4996 H 478.108 -2.35062 6.03863 0
M  V30 4997 N 471.514 -1.37532 -0.769588 0
M  V30 4998 C 472.93 -1.18379 -1.07045 0
M  V30 4999 C 473.13 -0.0214312 -2.01489 0
M  V30 5000 O 472.186 0.637809 -2.44312 0
M  V30 5001 C 473.499 -2.50338 -1.66588 0
M  V30 5002 C 475.047 -2.56879 -1.78835 0
M  V30 5003 C 475.522 -3.88974 -2.41792 0
M  V30 5004 N 477.013 -3.90428 -2.4924 0
M  V30 5005 C 477.748 -4.89388 -2.98809 0
M  V30 5006 N 477.244 -5.98745 -3.48535 0
M  V30 5007 N 479.037 -4.76791 -2.97703 0
M  V30 5008 H 471.188 -2.11921 -0.142541 0
M  V30 5009 H 473.451 -0.939608 -0.125863 0
M  V30 5010 H 473.157 -3.35767 -1.0466 0
M  V30 5011 H 473.031 -2.67583 -2.65856 0
M  V30 5012 H 475.418 -1.71856 -2.39895 0
M  V30 5013 H 475.499 -2.43516 -0.783166 0
M  V30 5014 H 475.143 -4.74412 -1.81371 0
M  V30 5015 H 475.073 -3.99641 -3.4292 0
M  V30 5016 H 477.564 -3.11433 -2.14052 0
M  V30 5017 H 477.877 -6.70205 -3.84767 0
M  V30 5018 H 476.222 -6.02387 -3.46634 0
M  V30 5019 H 479.413 -3.90478 -2.58157 0
M  V30 5020 H 479.586 -5.54069 -3.36024 0
M  V30 5021 N 472.992 0.995999 -1.22138 0
M  V30 5022 C 473.902 2.11985 -1.00496 0
M  V30 5023 C 474.918 1.7394 0.0457701 0
M  V30 5024 O 476.094 2.00868 -0.146273 0
M  V30 5025 C 473.159 3.41779 -0.582086 0
M  V30 5026 C 472.22 3.93943 -1.70608 0
M  V30 5027 C 471.453 5.17542 -1.30328 0
M  V30 5028 O 471.676 5.70114 -0.180743 0
M  V30 5029 O 470.61 5.63382 -2.11861 0
M  V30 5030 H 474.436 2.33123 -1.94647 0
M  V30 5031 H 472.021 1.10358 -1.00705 0
M  V30 5032 H 473.903 4.1989 -0.356467 0
M  V30 5033 H 472.578 3.22007 0.330592 0
M  V30 5034 H 471.485 3.17019 -1.98619 0
M  V30 5035 H 472.818 4.18141 -2.59651 0
M  V30 5036 N 474.47 1.03057 1.19235 0
M  V30 5037 C 475.38 0.622922 2.26179 0
M  V30 5038 C 476.396 -0.346113 1.70523 0
M  V30 5039 O 477.572 -0.203572 2.00369 0
M  V30 5040 C 474.637 -0.0182063 3.46695 0
M  V30 5041 C 473.698 0.998546 4.17526 0
M  V30 5042 C 472.931 0.387917 5.32288 0
M  V30 5043 O 473.154 -0.808668 5.64639 0
M  V30 5044 O 472.088 1.1116 5.91546 0
M  V30 5045 H 475.914 1.51363 2.63292 0
M  V30 5046 H 473.499 0.800856 1.26122 0
M  V30 5047 H 475.381 -0.375606 4.19723 0
M  V30 5048 H 474.056 -0.882895 3.11427 0
M  V30 5049 H 472.963 1.40756 3.4661 0
M  V30 5050 H 474.296 1.83366 4.56769 0
M  V30 5051 N 475.948 -1.35272 0.808662 0
M  V30 5052 C 476.895 -2.29764 0.218482 0
M  V30 5053 C 477.865 -1.52911 -0.648652 0
M  V30 5054 O 479.05 -1.81341 -0.593297 0
M  V30 5055 C 476.19 -3.39388 -0.625282 0
M  V30 5056 C 475.303 -4.31202 0.262516 0
M  V30 5057 C 474.438 -5.27919 -0.589451 0
M  V30 5058 C 473.477 -6.11371 0.298617 0
M  V30 5059 N 472.614 -7.0022 -0.513443 0
M  V30 5060 H 477.454 -2.79645 1.02968 0
M  V30 5061 H 474.991 -1.37629 0.519303 0
M  V30 5062 H 476.949 -4.01615 -1.12966 0
M  V30 5063 H 475.579 -2.90777 -1.40173 0
M  V30 5064 H 474.631 -3.69962 0.885013 0
M  V30 5065 H 475.943 -4.89748 0.945971 0
M  V30 5066 H 475.097 -5.95529 -1.15888 0
M  V30 5067 H 473.836 -4.69875 -1.30647 0
M  V30 5068 H 472.841 -5.42707 0.880301 0
M  V30 5069 H 474.066 -6.71494 1.01352 0
M  V30 5070 H 472.012 -6.44662 -1.21439 0
M  V30 5071 H 471.929 -7.55917 0.111922 0
M  V30 5072 H 473.197 -7.72175 -1.06608 0
M  V30 5073 N 477.426 -0.562348 -1.47226 0
M  V30 5074 C 478.654 -0.0452275 -2.06851 0
M  V30 5075 C 479.069 1.25078 -1.41424 0
M  V30 5076 O 478.426 1.75156 -0.512513 0
M  V30 5077 C 478.477 0.148674 -3.61194 0
M  V30 5078 O 478.198 -1.09602 -4.24169 0
M  V30 5079 C 479.699 0.702488 -4.37699 0
M  V30 5080 H 476.919 -0.0481775 -0.669268 0
M  V30 5081 H 479.463 -0.777223 -1.89155 0
M  V30 5082 H 477.618 0.830817 -3.78386 0
M  V30 5083 H 478.032 -0.896982 -5.16773 0
M  V30 5084 H 479.506 0.78743 -5.46355 0
M  V30 5085 H 479.983 1.71493 -4.04335 0
M  V30 5086 H 480.589 0.0558772 -4.25263 0
M  V30 5087 N 478.904 1.54736 -0.299062 0
M  V30 5088 C 480.151 2.00101 0.310784 0
M  V30 5089 C 480.479 1.18746 1.54045 0
M  V30 5090 O 479.734 0.251198 1.94081 0
M  V30 5091 C 480.033 3.50199 0.713835 0
M  V30 5092 C 479.699 4.48997 -0.413873 0
M  V30 5093 C 478.361 4.7573 -0.723462 0
M  V30 5094 C 480.713 5.07839 -1.17257 0
M  V30 5095 C 478.041 5.5857 -1.79491 0
M  V30 5096 C 480.393 5.91844 -2.23392 0
M  V30 5097 C 479.057 6.16889 -2.54959 0
M  V30 5098 H 478.327 0.732221 0.113724 0
M  V30 5099 H 480.974 1.86888 -0.417756 0
M  V30 5100 H 479.279 3.61012 1.52243 0
M  V30 5101 H 480.976 3.82723 1.19684 0
M  V30 5102 H 477.566 4.28292 -0.162476 0
M  V30 5103 H 481.75 4.87188 -0.946651 0
M  V30 5104 H 477.006 5.76213 -2.04423 0
M  V30 5105 H 481.18 6.36465 -2.8264 0
M  V30 5106 H 478.807 6.80869 -3.38114 0
M  V30 5107 N 480.382 0.0267497 1.57577 0
M  V30 5108 C 481.312 -0.954308 2.13108 0
M  V30 5109 C 482.293 -1.34088 1.04663 0
M  V30 5110 O 483.478 -1.41992 1.32484 0
M  V30 5111 C 480.608 -2.23744 2.65624 0
M  V30 5112 C 479.562 -1.99168 3.78835 0
M  V30 5113 C 478.888 -3.33726 4.17769 0
M  V30 5114 C 480.188 -1.33277 5.0501 0
M  V30 5115 H 481.882 -0.491848 2.95332 0
M  V30 5116 H 479.428 -0.23514 1.42067 0
M  V30 5117 H 481.381 -2.92754 3.03106 0
M  V30 5118 H 480.105 -2.72151 1.80558 0
M  V30 5119 H 478.764 -1.32577 3.41788 0
M  V30 5120 H 478.412 -3.79888 3.29688 0
M  V30 5121 H 478.112 -3.18089 4.94058 0
M  V30 5122 H 479.636 -4.04008 4.57832 0
M  V30 5123 H 481.05 -1.92283 5.40093 0
M  V30 5124 H 479.447 -1.28045 5.8628 0
M  V30 5125 H 480.517 -0.305411 4.83937 0
M  V30 5126 N 481.861 -1.55662 -0.24637 0
M  V30 5127 C 482.771 -1.93495 -1.32653 0
M  V30 5128 C 483.787 -0.835462 -1.5263 0
M  V30 5129 O 484.963 -1.1369 -1.66242 0
M  V30 5130 C 482.028 -2.22242 -2.66101 0
M  V30 5131 C 481.089 -3.45625 -2.54641 0
M  V30 5132 C 480.322 -3.72991 -3.81724 0
M  V30 5133 O 480.545 -3.02421 -4.8363 0
M  V30 5134 O 479.479 -4.66515 -3.80325 0
M  V30 5135 H 483.305 -2.85498 -1.03559 0
M  V30 5136 H 480.89 -1.42551 -0.44717 0
M  V30 5137 H 482.772 -2.42037 -3.44958 0
M  V30 5138 H 481.447 -1.33417 -2.94926 0
M  V30 5139 H 480.354 -3.31136 -1.74067 0
M  V30 5140 H 481.687 -4.34754 -2.3076 0
M  V30 5141 N 483.339 0.512053 -1.4905 0
M  V30 5142 C 484.585 1.26874 -1.58212 0
M  V30 5143 C 484.918 1.9241 -0.263073 0
M  V30 5144 O 484.193 1.80181 0.732476 0
M  V30 5145 C 484.476 2.34428 -2.73341 0
M  V30 5146 C 484.329 1.73466 -4.15006 0
M  V30 5147 C 485.648 3.36073 -2.84154 0
M  V30 5148 H 482.767 0.459924 -0.575881 0
M  V30 5149 H 485.409 0.568587 -1.81293 0
M  V30 5150 H 483.559 2.94146 -2.53792 0
M  V30 5151 H 485.231 1.17661 -4.46042 0
M  V30 5152 H 483.474 1.03921 -4.21168 0
M  V30 5153 H 484.145 2.51426 -4.91415 0
M  V30 5154 H 486.621 2.86332 -3.01916 0
M  V30 5155 H 485.497 4.08703 -3.66406 0
M  V30 5156 H 485.758 3.97725 -1.93048 0
M  V30 5157 N 484.817 1.37938 0.762283 0
M  V30 5158 C 486.063 1.33866 1.52341 0
M  V30 5159 C 486.396 -0.0738961 1.94059 0
M  V30 5160 O 485.671 -1.03326 1.64785 0
M  V30 5161 C 485.954 2.28644 2.78197 0
M  V30 5162 C 485.807 3.78722 2.42672 0
M  V30 5163 C 487.126 2.21702 3.80179 0
M  V30 5164 H 484.245 0.487593 0.55265 0
M  V30 5165 H 486.887 1.68717 0.873767 0
M  V30 5166 H 485.037 1.99055 3.33631 0
M  V30 5167 H 486.709 4.18948 1.93081 0
M  V30 5168 H 484.952 3.96827 1.75244 0
M  V30 5169 H 485.623 4.40486 3.3268 0
M  V30 5170 H 488.099 2.47805 3.34263 0
M  V30 5171 H 486.975 2.90143 4.65949 0
M  V30 5172 H 487.236 1.21301 4.25133 0
M  V30 5173 N 486.295 -0.989507 1.22664 0
M  V30 5174 C 487.258 -2.06183 1.00106 0
M  V30 5175 C 488.258 -1.60765 -0.0337726 0
M  V30 5176 O 489.448 -1.72989 0.205072 0
M  V30 5177 C 486.58 -3.37021 0.51279 0
M  V30 5178 H 487.773 -2.27629 1.95256 0
M  V30 5179 H 485.326 -1.16158 1.0458 0
M  V30 5180 H 486.061 -3.21261 -0.442917 0
M  V30 5181 H 485.846 -3.71323 1.25942 0
M  V30 5182 H 487.336 -4.1591 0.375315 0
M  V30 5183 N 487.773 -1.03688 -1.18687 0
M  V30 5184 C 488.683 -0.634908 -2.25845 0
M  V30 5185 C 489.699 0.337065 -1.70704 0
M  V30 5186 O 490.875 0.192943 -2.00474 0
M  V30 5187 C 487.94 -0.000180054 -3.467 0
M  V30 5188 C 487.001 -1.02067 -4.1699 0
M  V30 5189 C 486.234 -0.41614 -5.32075 0
M  V30 5190 O 486.457 0.778712 -5.65059 0
M  V30 5191 O 485.391 -1.14296 -5.90948 0
M  V30 5192 H 489.217 -1.52757 -2.62486 0
M  V30 5193 H 486.802 -0.807533 -1.25695 0
M  V30 5194 H 488.684 0.353342 -4.19916 0
M  V30 5195 H 487.359 0.866367 -3.11891 0
M  V30 5196 H 486.266 -1.42592 -3.45859 0
M  V30 5197 H 487.599 -1.85786 -4.5579 0
M  V30 5198 N 489.251 1.34841 -0.815825 0
M  V30 5199 C 490.476 2.03261 -0.41226 0
M  V30 5200 C 490.901 1.61055 0.971751 0
M  V30 5201 O 490.259 0.7917 1.63101 0
M  V30 5202 C 490.307 3.56914 -0.514289 0
M  V30 5203 O 489.411 4.09728 0.468675 0
M  V30 5204 H 488.752 0.641664 -0.170771 0
M  V30 5205 H 491.282 1.72241 -1.10427 0
M  V30 5206 H 491.292 4.06156 -0.387457 0
M  V30 5207 H 489.967 3.86982 -1.52375 0
M  V30 5208 H 488.544 3.71681 0.301316 0
M  V30 5209 N 490.729 0.570148 1.46925 0
M  V30 5210 C 491.659 -0.158274 2.32963 0
M  V30 5211 C 492.64 -0.896093 1.44583 0
M  V30 5212 O 493.825 -0.874022 1.7342 0
M  V30 5213 C 490.955 -1.18055 3.26619 0
M  V30 5214 C 489.909 -0.558379 4.24342 0
M  V30 5215 C 489.235 -1.68623 5.07415 0
M  V30 5216 C 490.535 0.496295 5.19937 0
M  V30 5217 H 492.229 0.560046 2.94115 0
M  V30 5218 H 489.775 0.270775 1.41431 0
M  V30 5219 H 491.728 -1.69841 3.85658 0
M  V30 5220 H 490.452 -1.92899 2.63548 0
M  V30 5221 H 489.111 -0.0617157 3.66548 0
M  V30 5222 H 488.759 -2.42402 4.40738 0
M  V30 5223 H 488.459 -1.27564 5.73586 0
M  V30 5224 H 489.983 -2.20709 5.69315 0
M  V30 5225 H 491.397 0.0640052 5.73264 0
M  V30 5226 H 489.794 0.82649 5.94381 0
M  V30 5227 H 490.864 1.38735 4.6463 0
M  V30 5228 N 492.207 -1.54576 0.307264 0
M  V30 5229 C 493.455 -1.99867 -0.299574 0
M  V30 5230 C 493.776 -1.19714 -1.53927 0
M  V30 5231 O 493.046 -0.29472 -1.9367 0
M  V30 5232 H 491.626 -0.738299 -0.113683 0
M  V30 5233 H 494.288 -1.9032 0.420042 0
M  V30 5234 H 493.384 -3.06901 -0.567283 0
M  V30 5235 N 493.685 -0.035106 -1.57561 0
M  V30 5236 C 494.615 0.942993 -2.13612 0
M  V30 5237 C 495.596 1.33531 -1.05373 0
M  V30 5238 O 496.781 1.41287 -1.33235 0
M  V30 5239 C 493.911 2.22332 -2.66807 0
M  V30 5240 C 492.865 1.97156 -3.79886 0
M  V30 5241 C 492.191 3.31506 -4.19533 0
M  V30 5242 C 493.491 1.30596 -5.05709 0
M  V30 5243 H 495.185 0.476179 -2.95589 0
M  V30 5244 H 492.731 0.227602 -1.4219 0
M  V30 5245 H 494.684 2.91142 -3.04654 0
M  V30 5246 H 493.408 2.7119 -1.81999 0
M  V30 5247 H 492.067 1.30763 -3.42486 0
M  V30 5248 H 491.715 3.78134 -3.31698 0
M  V30 5249 H 491.415 3.15465 -4.95738 0
M  V30 5250 H 492.939 4.01574 -4.59968 0
M  V30 5251 H 494.353 1.89416 -5.41105 0
M  V30 5252 H 492.75 1.24934 -5.86951 0
M  V30 5253 H 493.82 0.279742 -4.84092 0
M  V30 5254 N 495.163 1.55791 0.238111 0
M  V30 5255 C 496.11 1.9105 1.29493 0
M  V30 5256 C 497.08 0.765733 1.47397 0
M  V30 5257 O 498.265 1.02017 1.61236 0
M  V30 5258 C 495.405 2.21826 2.64362 0
M  V30 5259 C 494.518 3.49153 2.54394 0
M  V30 5260 C 493.653 3.69455 3.81676 0
M  V30 5261 C 492.692 4.90353 3.66361 0
M  V30 5262 N 491.829 5.07131 4.85554 0
M  V30 5263 H 496.669 2.81172 0.987233 0
M  V30 5264 H 494.206 1.39179 0.476203 0
M  V30 5265 H 496.164 2.37675 3.4288 0
M  V30 5266 H 494.794 1.34897 2.93262 0
M  V30 5267 H 493.846 3.41587 1.67399 0
M  V30 5268 H 495.158 4.37818 2.38991 0
M  V30 5269 H 494.312 3.85311 4.68636 0
M  V30 5270 H 493.051 2.7904 3.99985 0
M  V30 5271 H 492.056 4.74464 2.77784 0
M  V30 5272 H 493.281 5.82237 3.49538 0
M  V30 5273 H 491.227 4.19654 5.04209 0
M  V30 5274 H 491.144 5.89899 4.72816 0
M  V30 5275 H 492.412 5.27407 5.73988 0
M  V30 5276 N 496.642 -0.504142 1.49319 0
M  V30 5277 C 497.589 -1.60603 1.65756 0
M  V30 5278 C 498.559 -1.58425 0.499082 0
M  V30 5279 O 499.744 -1.76459 0.725728 0
M  V30 5280 C 496.884 -2.98764 1.72726 0
M  V30 5281 C 495.997 -3.10982 2.99857 0
M  V30 5282 C 495.132 -4.39857 2.97824 0
M  V30 5283 C 494.171 -4.45697 4.19548 0
M  V30 5284 N 493.308 -5.65995 4.15444 0
M  V30 5285 H 498.148 -1.45895 2.59843 0
M  V30 5286 H 495.685 -0.709891 1.28837 0
M  V30 5287 H 497.643 -3.78839 1.74747 0
M  V30 5288 H 496.273 -3.12183 0.821075 0
M  V30 5289 H 495.325 -2.23991 3.07461 0
M  V30 5290 H 496.637 -3.11157 3.89849 0
M  V30 5291 H 495.791 -5.2825 2.98391 0
M  V30 5292 H 494.53 -4.42242 2.05604 0
M  V30 5293 H 493.535 -3.55707 4.19229 0
M  V30 5294 H 494.76 -4.4503 5.12957 0
M  V30 5295 H 492.706 -5.69229 3.26059 0
M  V30 5296 H 492.623 -5.67773 4.99169 0
M  V30 5297 H 493.891 -6.56604 4.20109 0
M  V30 5298 N 498.12 -1.38341 -0.754957 0
M  V30 5299 C 499.05 -1.38176 -1.88227 0
M  V30 5300 C 500.031 -0.247873 -1.68284 0
M  V30 5301 O 501.216 -0.45075 -1.88896 0
M  V30 5302 C 498.346 -1.20471 -3.25736 0
M  V30 5303 C 497.3 -2.3105 -3.60278 0
M  V30 5304 C 496.626 -1.98452 -4.96509 0
M  V30 5305 C 497.926 -3.73305 -3.65295 0
M  V30 5306 H 499.62 -2.32512 -1.88622 0
M  V30 5307 H 497.166 -1.1192 -0.906082 0
M  V30 5308 H 499.119 -1.18982 -4.04254 0
M  V30 5309 H 497.843 -0.225965 -3.25817 0
M  V30 5310 H 496.502 -2.31723 -2.84078 0
M  V30 5311 H 496.15 -0.990641 -4.93148 0
M  V30 5312 H 495.85 -2.7251 -5.20588 0
M  V30 5313 H 497.374 -1.98578 -5.77407 0
M  V30 5314 H 498.788 -3.7467 -4.3393 0
M  V30 5315 H 497.185 -4.46557 -4.00883 0
M  V30 5316 H 498.255 -4.05719 -2.65556 0
M  V30 5317 N 499.598 0.982988 -1.23187 0
M  V30 5318 C 501.014 1.2487 -0.993967 0
M  V30 5319 C 501.214 1.99155 0.306498 0
M  V30 5320 O 500.27 2.30688 1.0266 0
M  V30 5321 C 501.583 2.05078 -2.19917 0
M  V30 5322 C 503.131 2.18227 -2.2438 0
M  V30 5323 C 503.606 3.01825 -3.44479 0
M  V30 5324 N 505.097 3.09411 -3.44702 0
M  V30 5325 C 505.832 3.74412 -4.34285 0
M  V30 5326 N 505.328 4.41259 -5.341 0
M  V30 5327 N 507.121 3.71273 -4.22035 0
M  V30 5328 H 499.272 0.485253 -2.06783 0
M  V30 5329 H 501.535 0.276979 -0.906635 0
M  V30 5330 H 501.241 1.57867 -3.14279 0
M  V30 5331 H 501.115 3.05829 -2.2079 0
M  V30 5332 H 503.502 2.64648 -1.30559 0
M  V30 5333 H 503.583 1.16873 -2.2754 0
M  V30 5334 H 503.227 2.56102 -4.38605 0
M  V30 5335 H 503.157 4.03342 -3.38559 0
M  V30 5336 H 505.648 2.61845 -2.7248 0
M  V30 5337 H 505.961 4.88629 -5.98717 0
M  V30 5338 H 504.306 4.39975 -5.38002 0
M  V30 5339 H 507.497 3.18217 -3.43301 0
M  V30 5340 H 507.67 4.21649 -4.92053 0
M  V30 5341 N 501.076 1.04316 1.18135 0
M  V30 5342 C 502.322 0.749128 1.88457 0
M  V30 5343 C 502.655 -0.72149 1.803 0
M  V30 5344 O 501.93 -1.52676 1.205 0
M  V30 5345 C 502.213 1.21905 3.38838 0
M  V30 5346 C 502.066 2.75195 3.55792 0
M  V30 5347 C 503.385 0.811085 4.32561 0
M  V30 5348 H 500.504 0.273611 0.684329 0
M  V30 5349 H 503.146 1.29561 1.38975 0
M  V30 5350 H 501.296 0.754137 3.8111 0
M  V30 5351 H 502.968 3.29743 3.22595 0
M  V30 5352 H 501.211 3.14899 2.98364 0
M  V30 5353 H 501.882 3.03135 4.61317 0
M  V30 5354 H 504.358 1.21118 3.98082 0
M  V30 5355 H 503.234 1.16761 5.36338 0
M  V30 5356 H 503.495 -0.285596 4.41177 0
M  V30 5357 N 502.554 -1.34406 0.822964 0
M  V30 5358 C 503.8 -1.98578 0.411666 0
M  V30 5359 C 504.133 -1.65093 -1.02264 0
M  V30 5360 O 503.408 -0.92258 -1.71227 0
M  V30 5361 C 503.691 -3.54823 0.614235 0
M  V30 5362 C 503.544 -3.9805 2.09466 0
M  V30 5363 C 504.863 -4.40071 0.050221 0
M  V30 5364 H 501.982 -0.721355 0.151047 0
M  V30 5365 H 504.624 -1.59301 1.03554 0
M  V30 5366 H 502.774 -3.88411 0.0831774 0
M  V30 5367 H 504.446 -3.74795 2.68936 0
M  V30 5368 H 502.689 -3.4836 2.5851 0
M  V30 5369 H 503.36 -5.06819 2.18721 0
M  V30 5370 H 505.836 -4.13037 0.503953 0
M  V30 5371 H 504.712 -5.48452 0.221759 0
M  V30 5372 H 504.973 -4.29576 -1.04482 0
M  V30 5373 N 504.032 -0.577932 -1.46621 0
M  V30 5374 C 504.942 0.160651 -2.34049 0
M  V30 5375 C 505.958 0.890911 -1.49462 0
M  V30 5376 O 507.134 0.855166 -1.82343 0
M  V30 5377 C 504.199 1.16447 -3.26559 0
M  V30 5378 C 503.26 0.4394 -4.27045 0
M  V30 5379 C 502.493 1.3954 -5.15135 0
M  V30 5380 O 502.716 2.63162 -5.06065 0
M  V30 5381 O 501.65 0.908585 -5.95003 0
M  V30 5382 H 505.476 -0.557057 -2.98547 0
M  V30 5383 H 503.061 -0.338369 -1.45518 0
M  V30 5384 H 504.943 1.7434 -3.83645 0
M  V30 5385 H 503.618 1.86373 -2.64663 0
M  V30 5386 H 502.525 -0.181247 -3.73661 0
M  V30 5387 H 503.858 -0.218799 -4.91713 0
M  V30 5388 N 505.51 1.54411 -0.315457 0
M  V30 5389 C 506.738 2.04833 0.291738 0
M  V30 5390 C 507.153 1.19203 1.46411 0
M  V30 5391 O 506.51 0.220867 1.81159 0
M  V30 5392 C 506.561 3.53969 0.73404 0
M  V30 5393 O 506.282 4.36346 -0.391682 0
M  V30 5394 C 507.783 4.2045 1.40489 0
M  V30 5395 H 505.003 0.668195 0.0612947 0
M  V30 5396 H 507.547 1.99276 -0.45929 0
M  V30 5397 H 505.702 3.5984 1.43506 0
M  V30 5398 H 506.116 5.24481 -0.0447088 0
M  V30 5399 H 507.59 5.26278 1.66539 0
M  V30 5400 H 508.067 3.71067 2.3496 0
M  V30 5401 H 508.673 4.18694 0.746662 0
M  V30 5402 N 506.988 0.0434614 1.5754 0
M  V30 5403 C 508.236 -0.630786 1.92004 0
M  V30 5404 C 508.557 -1.71836 0.921807 0
M  V30 5405 O 507.827 -1.9587 -0.034522 0
M  V30 5406 H 506.407 -0.235988 0.708745 0
M  V30 5407 H 509.069 0.0946462 1.9467 0
M  V30 5408 H 508.165 -1.07434 2.93026 0
M  V30 5409 N 508.466 -1.55915 -0.229846 0
M  V30 5410 C 509.714 -1.7819 -0.953565 0
M  V30 5411 C 510.035 -0.610504 -1.85197 0
M  V30 5412 O 509.305 0.372988 -1.92316 0
M  V30 5413 H 507.885 -0.657208 -0.355087 0
M  V30 5414 H 510.547 -1.9337 -0.243693 0
M  V30 5415 H 509.643 -2.70011 -1.56527 0
M  V30 5416 N 509.944 0.496216 -1.49584 0
M  V30 5417 C 510.892 1.61805 -1.67098 0
M  V30 5418 C 511.886 1.60667 -0.536877 0
M  V30 5419 O 513.092 1.65118 -0.716654 0
M  V30 5420 H 509.467 0.53646 -0.526986 0
M  V30 5421 H 511.438 1.44187 -2.61252 0
M  V30 5422 C 510.187 2.99912 -1.75921 0
M  V30 5423 H 509.51 3.01496 -2.62565 0
M  V30 5424 H 510.95 3.77931 -1.92209 0
M  V30 5425 C 509.409 3.33092 -0.505088 0
M  V30 5426 O 509.939 4.00019 0.367085 0
M  V30 5427 N 508.145 2.88278 -0.366599 0
M  V30 5428 H 507.692 2.33989 -1.07735 0
M  V30 5429 H 507.65 3.10846 0.47142 0
M  V30 5430 N 511.423 1.38739 0.74761 0
M  V30 5431 C 512.648 1.38702 1.54197 0
M  V30 5432 C 513.073 -0.019664 1.8809 0
M  V30 5433 O 512.431 -1.00333 1.51006 0
M  V30 5434 C 512.479 2.25492 2.814 0
M  V30 5435 O 511.583 1.67613 3.76802 0
M  V30 5436 H 510.924 0.472863 0.466151 0
M  V30 5437 H 513.454 1.82577 0.923413 0
M  V30 5438 H 513.464 2.39561 3.30264 0
M  V30 5439 H 512.139 3.27727 2.56062 0
M  V30 5440 H 510.716 1.62718 3.35526 0
M  V30 5441 N 512.901 -0.976442 1.23707 0
M  V30 5442 C 514.148 -1.71827 1.07153 0
M  V30 5443 C 514.476 -1.9053 -0.390982 0
M  V30 5444 O 513.731 -1.45779 -1.30564 0
M  V30 5445 C 514.03 -3.11814 1.74662 0
M  V30 5446 C 513.696 -3.12978 3.24585 0
M  V30 5447 C 512.358 -3.13003 3.6549 0
M  V30 5448 C 514.71 -3.07986 4.20469 0
M  V30 5449 C 512.038 -3.05757 5.00729 0
M  V30 5450 C 514.39 -3.02282 5.55705 0
M  V30 5451 C 513.054 -3.00631 5.95968 0
M  V30 5452 H 512.324 -0.628758 0.392102 0
M  V30 5453 H 514.971 -1.14239 1.53693 0
M  V30 5454 H 513.276 -3.72812 1.20492 0
M  V30 5455 H 514.973 -3.67989 1.59328 0
M  V30 5456 H 511.563 -3.13718 2.92026 0
M  V30 5457 H 515.747 -3.07103 3.89874 0
M  V30 5458 H 511.003 -3.02834 5.31132 0
M  V30 5459 H 515.177 -2.97376 6.29714 0
M  V30 5460 H 512.804 -2.94771 7.00724 0
M  V30 5461 N 514.379 -1.04941 -1.1758 0
M  V30 5462 C 515.342 -0.652456 -2.19717 0
M  V30 5463 C 516.342 0.294745 -1.58076 0
M  V30 5464 O 517.532 0.0789579 -1.74021 0
M  V30 5465 C 514.664 0.0420712 -3.40874 0
M  V30 5466 H 515.857 -1.55642 -2.5635 0
M  V30 5467 H 513.41 -0.842995 -1.31618 0
M  V30 5468 H 514.145 0.95943 -3.09783 0
M  V30 5469 H 513.93 -0.638844 -3.86861 0
M  V30 5470 H 515.42 0.306 -4.16477 0
M  V30 5471 N 515.857 1.33968 -0.830081 0
M  V30 5472 C 516.82 2.27694 -0.26235 0
M  V30 5473 C 517.82 1.50589 0.563876 0
M  V30 5474 O 519.01 1.70028 0.378941 0
M  V30 5475 C 516.142 3.35002 0.63138 0
M  V30 5476 H 517.335 2.79419 -1.08928 0
M  V30 5477 H 514.888 1.44221 -0.602486 0
M  V30 5478 H 515.623 2.88504 1.48109 0
M  V30 5479 H 515.408 3.92079 0.0403276 0
M  V30 5480 H 516.898 4.04897 1.02217 0
M  V30 5481 N 517.335 0.585699 1.46312 0
M  V30 5482 C 518.245 -0.148236 2.34131 0
M  V30 5483 C 519.261 -0.882972 1.49932 0
M  V30 5484 O 520.437 -0.845484 1.82794 0
M  V30 5485 C 517.502 -1.14714 3.27172 0
M  V30 5486 C 516.563 -0.416746 4.27272 0
M  V30 5487 C 515.796 -1.36806 5.15868 0
M  V30 5488 O 516.019 -2.60475 5.07454 0
M  V30 5489 O 514.953 -0.877018 5.95476 0
M  V30 5490 H 518.779 0.572882 2.98248 0
M  V30 5491 H 516.364 0.346082 1.45336 0
M  V30 5492 H 518.246 -1.72303 3.84564 0
M  V30 5493 H 516.921 -1.84967 2.65648 0
M  V30 5494 H 515.828 0.201061 3.73559 0
M  V30 5495 H 517.161 0.244872 4.9159 0
M  V30 5496 N 518.813 -1.54241 0.323641 0
M  V30 5497 C 520.229 -1.59574 -0.0290018 0
M  V30 5498 C 520.429 -1.34017 -1.50472 0
M  V30 5499 O 519.485 -1.12464 -2.26071 0
M  V30 5500 C 520.798 -2.98169 0.389295 0
M  V30 5501 C 522.346 -3.11148 0.339958 0
M  V30 5502 C 522.821 -4.5209 0.733418 0
M  V30 5503 N 524.312 -4.5808 0.686827 0
M  V30 5504 C 525.047 -5.65248 0.963464 0
M  V30 5505 N 524.543 -6.80355 1.30724 0
M  V30 5506 N 526.336 -5.55025 0.88902 0
M  V30 5507 H 518.487 -1.6911 1.28512 0
M  V30 5508 H 520.75 -0.790972 0.522558 0
M  V30 5509 H 520.456 -3.21871 1.41746 0
M  V30 5510 H 520.33 -3.76399 -0.245657 0
M  V30 5511 H 522.717 -2.87182 -0.679002 0
M  V30 5512 H 522.798 -2.35023 1.00985 0
M  V30 5513 H 522.442 -4.76788 1.75029 0
M  V30 5514 H 522.372 -5.26584 0.0412189 0
M  V30 5515 H 524.863 -3.75411 0.43298 0
M  V30 5516 H 525.176 -7.58029 1.5037 0
M  V30 5517 H 523.521 -6.81851 1.3455 0
M  V30 5518 H 526.712 -4.63977 0.619939 0
M  V30 5519 H 526.885 -6.38458 1.10797 0
M  V30 5520 N 520.291 -0.0518155 -1.57515 0
M  V30 5521 C 521.201 0.937539 -2.15052 0
M  V30 5522 C 522.217 1.34121 -1.10849 0
M  V30 5523 O 523.393 1.418 -1.4302 0
M  V30 5524 C 520.458 2.19379 -2.68466 0
M  V30 5525 C 519.519 1.84841 -3.87469 0
M  V30 5526 C 518.752 3.04477 -4.38326 0
M  V30 5527 O 518.975 4.17868 -3.88256 0
M  V30 5528 O 517.909 2.85453 -5.29906 0
M  V30 5529 H 521.735 0.478201 -2.99912 0
M  V30 5530 H 519.32 0.17012 -1.48428 0
M  V30 5531 H 521.202 2.93084 -3.02787 0
M  V30 5532 H 519.877 2.64449 -1.86677 0
M  V30 5533 H 518.784 1.08449 -3.58036 0
M  V30 5534 H 520.117 1.44569 -4.7049 0
M  V30 5535 N 521.769 1.56035 0.221574 0
M  V30 5536 C 522.701 1.889 1.29805 0
M  V30 5537 C 523.714 0.777269 1.43047 0
M  V30 5538 O 524.903 1.05557 1.43945 0
M  V30 5539 C 522.003 2.0825 2.67367 0
M  V30 5540 C 521.176 3.39267 2.76073 0
M  V30 5541 C 520.235 3.48049 3.94649 0
M  V30 5542 O 519.261 4.2108 3.82988 0
M  V30 5543 N 520.463 2.79191 5.08953 0
M  V30 5544 H 523.228 2.81831 1.01938 0
M  V30 5545 H 520.789 1.5658 0.411612 0
M  V30 5546 H 522.781 2.11441 3.45072 0
M  V30 5547 H 521.351 1.21944 2.87834 0
M  V30 5548 H 520.571 3.48175 1.84846 0
M  V30 5549 H 521.859 4.25575 2.7886 0
M  V30 5550 H 521.257 2.19635 5.21322 0
M  V30 5551 H 519.814 2.88043 5.84701 0
M  V30 5552 N 523.247 -0.488276 1.49845 0
M  V30 5553 C 524.493 -1.24065 1.61182 0
M  V30 5554 C 524.848 -1.9004 0.300435 0
M  V30 5555 O 524.141 -1.78341 -0.700365 0
M  V30 5556 C 524.335 -2.32152 2.71735 0
M  V30 5557 C 524.164 -1.76778 4.13497 0
M  V30 5558 C 522.934 -1.57513 4.80123 0
M  V30 5559 C 525.132 -1.27242 4.98311 0
M  V30 5560 N 523.114 -0.972015 6.06156 0
M  V30 5561 C 524.485 -0.791457 6.14928 0
M  V30 5562 C 526.54 -1.15934 4.84214 0
M  V30 5563 C 525.243 -0.208593 7.18997 0
M  V30 5564 C 527.269 -0.590436 5.88445 0
M  V30 5565 C 526.631 -0.119767 7.04298 0
M  V30 5566 H 522.73 -0.443487 0.644083 0
M  V30 5567 H 525.314 -0.545551 1.86901 0
M  V30 5568 H 523.485 -2.99108 2.47768 0
M  V30 5569 H 525.217 -2.99187 2.72523 0
M  V30 5570 H 521.972 -1.82247 4.37131 0
M  V30 5571 H 522.396 -0.689367 6.73481 0
M  V30 5572 H 527.038 -1.5092 3.94947 0
M  V30 5573 H 524.756 0.153501 8.07954 0
M  V30 5574 H 528.342 -0.505548 5.79599 0
M  V30 5575 H 527.222 0.313568 7.83573 0
M  V30 5576 N 524.725 -1.39134 -0.740242 0
M  V30 5577 C 526.002 -1.26584 -1.49117 0
M  V30 5578 C 526.382 0.126902 -2.10718 0
M  V30 5579 O 525.73 1.13765 -1.98166 0
M  V30 5580 C 525.94 -2.38619 -2.54681 0
M  V30 5581 C 527.288 -2.77685 -3.21211 0
M  V30 5582 O 528.312 -2.38029 -2.64991 0
M  V30 5583 O 527.171 -3.46115 -4.22926 0
M  V30 5584 H 524.265 -0.495769 -0.661923 0
M  V30 5585 H 526.811 -1.50995 -0.774514 0
M  V30 5586 H 525.583 -3.3175 -2.07504 0
M  V30 5587 H 525.206 -2.15845 -3.33911 0
M  V30 5588 N 526.204 0.969867 -1.24223 0
M  V30 5589 C 527.481 1.68774 -0.988664 0
M  V30 5590 C 527.861 2.05342 0.489673 0
M  V30 5591 O 527.209 1.75486 1.46345 0
M  V30 5592 C 527.419 2.92135 -1.90941 0
M  V30 5593 C 528.767 3.64422 -2.17903 0
M  V30 5594 O 529.791 3.02188 -1.88576 0
M  V30 5595 O 528.65 4.76446 -2.67697 0
M  V30 5596 H 525.744 0.737736 -0.37373 0
M  V30 5597 H 528.29 1.02415 -1.35312 0
M  V30 5598 H 527.062 2.61788 -2.90831 0
M  V30 5599 H 526.685 3.66228 -1.54798 0
M  V30 5600 N 527.682 1.05563 1.17022 0
M  V30 5601 C 528.93 0.76642 1.87004 0
M  V30 5602 C 529.251 -0.708854 1.8166 0
M  V30 5603 O 528.521 -1.51242 1.2451 0
M  V30 5604 H 527.101 0.280516 0.692329 0
M  V30 5605 H 529.763 1.33557 1.41945 0
M  V30 5606 H 528.859 1.08472 2.92644 0
M  V30 5607 N 529.16 -1.33526 0.837174 0
M  V30 5608 C 530.108 -2.31168 0.257698 0
M  V30 5609 C 531.102 -1.5806 -0.609388 0
M  V30 5610 O 532.308 -1.72941 -0.499139 0
M  V30 5611 H 528.683 -0.74922 0.0646058 0
M  V30 5612 H 530.654 -2.77552 1.09578 0
M  V30 5613 C 529.403 -3.4326 -0.553887 0
M  V30 5614 H 528.726 -3.99665 0.104008 0
M  V30 5615 H 530.166 -4.13782 -0.925219 0
M  V30 5616 C 528.625 -2.88965 -1.73207 0
M  V30 5617 O 529.155 -2.85013 -2.83073 0
M  V30 5618 N 527.361 -2.45596 -1.55342 0
M  V30 5619 H 526.908 -2.49009 -0.659705 0
M  V30 5620 H 526.866 -2.0962 -2.34322 0
M  V30 5621 N 530.638 -0.59345 -1.46 0
M  V30 5622 C 531.586 0.146268 -2.3214 0
M  V30 5623 C 532.58 0.873743 -1.45128 0
M  V30 5624 O 533.786 0.790912 -1.61693 0
M  V30 5625 H 530.161 0.0660349 -0.749095 0
M  V30 5626 H 532.132 -0.598895 -2.92328 0
M  V30 5627 C 530.881 1.1396 -3.28494 0
M  V30 5628 H 530.204 0.589252 -3.95434 0
M  V30 5629 H 531.644 1.62738 -3.91526 0
M  V30 5630 C 530.103 2.20604 -2.54628 0
M  V30 5631 O 530.633 3.28128 -2.31722 0
M  V30 5632 N 528.839 1.95502 -2.15005 0
M  V30 5633 H 528.386 1.0807 -2.33834 0
M  V30 5634 H 528.344 2.67064 -1.65904 0
M  V30 5635 N 532.116 1.54067 -0.331816 0
M  V30 5636 C 533.362 2.01012 0.268667 0
M  V30 5637 C 533.695 1.2195 1.51136 0
M  V30 5638 O 532.97 0.303972 1.9211 0
M  V30 5639 C 533.253 3.55158 0.59456 0
M  V30 5640 C 533.106 4.4494 -0.659409 0
M  V30 5641 C 534.425 4.16939 1.4089 0
M  V30 5642 H 531.544 0.730698 0.0961756 0
M  V30 5643 H 534.186 1.84593 -0.450031 0
M  V30 5644 H 532.336 3.6928 1.20685 0
M  V30 5645 H 534.008 4.42675 -1.29756 0
M  V30 5646 H 532.251 4.1428 -1.28665 0
M  V30 5647 H 532.922 5.50643 -0.386804 0
M  V30 5648 H 535.398 4.06443 0.891272 0
M  V30 5649 H 534.274 5.24889 1.60569 0
M  V30 5650 H 534.535 3.70798 2.40752 0
M  V30 5651 N 533.594 0.0601682 1.57485 0
M  V30 5652 C 534.84 -0.612501 1.93329 0
M  V30 5653 C 535.173 -1.6996 0.939526 0
M  V30 5654 O 534.448 -1.94472 -0.0330957 0
M  V30 5655 C 534.731 -1.20025 3.39508 0
M  V30 5656 C 534.584 -0.12059 4.49638 0
M  V30 5657 C 535.903 -2.10923 3.86264 0
M  V30 5658 H 533.022 -0.221185 0.703027 0
M  V30 5659 H 535.664 0.123768 1.89596 0
M  V30 5660 H 533.814 -1.82774 3.42821 0
M  V30 5661 H 535.486 0.51185 4.58452 0
M  V30 5662 H 533.729 0.550251 4.30296 0
M  V30 5663 H 534.4 -0.572019 5.49028 0
M  V30 5664 H 536.876 -1.58124 3.84884 0
M  V30 5665 H 535.752 -2.48987 4.8918 0
M  V30 5666 H 536.013 -3.01292 3.23536 0
M  V30 5667 N 535.072 -1.5615 -0.213296 0
M  V30 5668 C 536.312 -1.81325 -0.943435 0
M  V30 5669 C 536.676 -0.634934 -1.81198 0
M  V30 5670 O 537.877 -0.766166 -2.5765 0
M  V30 5671 C 536.148 -3.11437 -1.75334 0
M  V30 5672 S 537.707 -3.57955 -2.53799 0
M  V30 5673 H 534.525 -0.636538 -0.316766 0
M  V30 5674 H 537.127 -1.94387 -0.208313 0
M  V30 5675 H 535.831 -3.95228 -1.10556 0
M  V30 5676 H 535.362 -3.01204 -2.53061 0
M  V30 5677 H 537.377 -3.21947 -3.77577 0
M  V30 5678 N 536.55 0.480323 -1.50102 0
M  V30 5679 C 537.48 1.58769 -1.71215 0
M  V30 5680 C 538.461 1.60583 -0.560997 0
M  V30 5681 O 539.646 1.76996 -0.799127 0
M  V30 5682 C 536.776 2.97148 -1.79778 0
M  V30 5683 C 535.73 3.10201 -2.94888 0
M  V30 5684 C 535.056 4.50137 -2.88584 0
M  V30 5685 C 536.356 2.88283 -4.35534 0
M  V30 5686 H 538.05 1.41354 -2.6393 0
M  V30 5687 H 535.596 0.678591 -1.27008 0
M  V30 5688 H 537.549 3.74536 -1.93133 0
M  V30 5689 H 536.273 3.15699 -0.836772 0
M  V30 5690 H 534.932 2.35244 -2.81169 0
M  V30 5691 H 534.58 4.65593 -1.90349 0
M  V30 5692 H 534.28 4.59808 -3.65856 0
M  V30 5693 H 535.804 5.29558 -3.03976 0
M  V30 5694 H 537.218 3.55427 -4.49827 0
M  V30 5695 H 535.615 3.09408 -5.14186 0
M  V30 5696 H 536.685 1.84219 -4.48544 0
M  V30 5697 N 538.028 1.39524 0.732853 0
M  V30 5698 C 538.938 1.40695 1.87729 0
M  V30 5699 C 539.954 0.301496 1.71368 0
M  V30 5700 O 541.13 0.543313 1.93933 0
M  V30 5701 C 538.195 1.25098 3.23344 0
M  V30 5702 C 537.256 2.45634 3.52083 0
M  V30 5703 C 536.489 2.30772 4.81228 0
M  V30 5704 O 536.712 1.31233 5.55098 0
M  V30 5705 O 535.646 3.19799 5.09914 0
M  V30 5706 H 539.472 2.37168 1.89697 0
M  V30 5707 H 537.057 1.20663 0.880959 0
M  V30 5708 H 538.939 1.18541 4.04383 0
M  V30 5709 H 537.614 0.317209 3.22142 0
M  V30 5710 H 536.521 2.57767 2.71122 0
M  V30 5711 H 537.854 3.37712 3.58066 0
M  V30 5712 N 539.506 -0.963266 1.24736 0
M  V30 5713 C 540.917 -1.52145 1.08207 0
M  V30 5714 C 541.268 -1.93142 -0.345061 0
M  V30 5715 O 540.393 -1.77769 -1.23399 0
M  V30 5716 C 540.988 -2.76486 1.95808 0
M  V30 5717 C 539.547 -3.28646 1.8349 0
M  V30 5718 C 538.694 -2.01529 1.90476 0
M  V30 5719 H 541.645 -0.781083 1.38148 0
M  V30 5720 H 541.666 -3.49986 1.49297 0
M  V30 5721 H 541.178 -2.46617 2.99669 0
M  V30 5722 H 539.279 -3.63357 0.824787 0
M  V30 5723 H 539.392 -3.97246 2.67829 0
M  V30 5724 H 537.756 -2.16442 1.34258 0
M  V30 5725 H 538.539 -1.7402 2.95926 0
M  V30 5726 N 540.985 -1.06182 -1.16461 0
M  V30 5727 C 542.233 -0.776326 -1.86595 0
M  V30 5728 C 542.554 0.69921 -1.82033 0
M  V30 5729 O 541.824 1.50579 -1.2531 0
M  V30 5730 H 540.404 -0.284184 -0.690832 0
M  V30 5731 H 543.066 -1.34308 -1.41235 0
M  V30 5732 H 542.162 -1.10022 -2.92064 0
M  V30 5733 N 542.463 1.3308 -0.844243 0
M  V30 5734 C 543.709 1.97898 -0.443206 0
M  V30 5735 C 544.042 1.66699 0.99625 0
M  V30 5736 O 543.317 0.949704 1.69738 0
M  V30 5737 C 543.6 3.53801 -0.670606 0
M  V30 5738 C 543.453 3.94667 -2.15772 0
M  V30 5739 C 544.772 4.39936 -0.120226 0
M  V30 5740 H 541.891 0.718861 -0.162504 0
M  V30 5741 H 544.533 1.57633 -1.06075 0
M  V30 5742 H 542.683 3.88229 -0.14496 0
M  V30 5743 H 544.355 3.70469 -2.74865 0
M  V30 5744 H 542.598 3.44203 -2.6402 0
M  V30 5745 H 543.269 5.03275 -2.26757 0
M  V30 5746 H 545.745 4.12183 -0.5696 0
M  V30 5747 H 544.621 5.4803 -0.308984 0
M  V30 5748 H 544.882 4.31184 0.976347 0
M  V30 5749 N 543.941 0.601185 1.45683 0
M  V30 5750 C 545.187 0.0940202 2.02582 0
M  V30 5751 C 545.52 -1.26972 1.46941 0
M  V30 5752 O 544.795 -1.83613 0.641612 0
M  V30 5753 C 545.078 0.0481715 3.60068 0
M  V30 5754 C 544.931 1.44212 4.26055 0
M  V30 5755 C 546.25 -0.642975 4.35378 0
M  V30 5756 H 543.369 0.0356404 0.736138 0
M  V30 5757 H 546.011 0.771929 1.73612 0
M  V30 5758 H 544.161 -0.529128 3.8488 0
M  V30 5759 H 545.833 2.06601 4.12449 0
M  V30 5760 H 544.076 2.00465 3.84703 0
M  V30 5761 H 544.747 1.36234 5.34925 0
M  V30 5762 H 547.223 -0.152351 4.15821 0
M  V30 5763 H 546.099 -0.644141 5.45107 0
M  V30 5764 H 546.36 -1.70785 4.0778 0
M  V30 5765 N 545.419 -1.53889 0.339982 0
M  V30 5766 C 546.665 -2.01152 -0.258003 0
M  V30 5767 C 546.998 -1.22749 -1.50487 0
M  V30 5768 O 546.273 -0.314156 -1.91946 0
M  V30 5769 C 546.556 -3.55468 -0.575717 0
M  V30 5770 C 546.409 -4.44584 0.682996 0
M  V30 5771 C 547.728 -4.1768 -1.38677 0
M  V30 5772 H 544.847 -0.731198 -0.0922992 0
M  V30 5773 H 547.489 -1.84352 0.459814 0
M  V30 5774 H 545.639 -3.69914 -1.18725 0
M  V30 5775 H 547.311 -4.41981 1.32102 0
M  V30 5776 H 545.554 -4.13592 1.3086 0
M  V30 5777 H 546.225 -5.5043 0.416001 0
M  V30 5778 H 548.701 -4.0691 -0.869705 0
M  V30 5779 H 547.577 -5.25734 -1.57783 0
M  V30 5780 H 547.838 -3.72069 -2.38782 0
M  V30 5781 N 546.897 -0.0685191 -1.57451 0
M  V30 5782 C 548.145 0.60016 -1.92983 0
M  V30 5783 C 548.466 1.70348 -0.949028 0
M  V30 5784 O 547.736 1.959 0.00335647 0
M  V30 5785 H 546.316 0.224682 -0.712409 0
M  V30 5786 H 548.978 -0.125605 -1.94495 0
M  V30 5787 H 548.074 1.02759 -2.94698 0
M  V30 5788 N 548.375 1.56261 0.205012 0
M  V30 5789 C 549.605 1.83874 0.942018 0
M  V30 5790 C 550.013 0.647595 1.77772 0
M  V30 5791 O 549.356 -0.393098 1.79445 0
M  V30 5792 C 549.418 3.05453 1.89575 0
M  V30 5793 C 549.082 4.39772 1.24296 0
M  V30 5794 C 550.079 5.16133 0.624724 0
M  V30 5795 C 547.764 4.86504 1.24978 0
M  V30 5796 C 549.758 6.37396 0.0220117 0
M  V30 5797 C 547.445 6.07705 0.643232 0
M  V30 5798 C 548.443 6.82993 0.0304164 0
M  V30 5799 O 548.131 8.019 -0.566654 0
M  V30 5800 H 547.863 0.614896 0.280854 0
M  V30 5801 H 550.417 2.04215 0.220285 0
M  V30 5802 H 548.647 2.80972 2.65691 0
M  V30 5803 H 550.336 3.19797 2.4997 0
M  V30 5804 H 551.102 4.81127 0.611666 0
M  V30 5805 H 546.981 4.27865 1.71616 0
M  V30 5806 H 550.525 6.96102 -0.456926 0
M  V30 5807 H 546.422 6.42181 0.653759 0
M  V30 5808 H 547.19 8.17192 -0.462588 0
M  V30 5809 N 549.853 -0.472356 1.50355 0
M  V30 5810 C 551.13 -1.23356 1.51798 0
M  V30 5811 C 551.51 -2.09469 0.26193 0
M  V30 5812 O 550.858 -2.15677 -0.754691 0
M  V30 5813 C 551.068 -2.06568 2.81302 0
M  V30 5814 C 552.416 -2.648 3.31913 0
M  V30 5815 O 553.44 -2.16812 2.82614 0
M  V30 5816 O 552.299 -3.52231 4.17846 0
M  V30 5817 H 549.393 -0.559707 0.608816 0
M  V30 5818 H 551.939 -0.48428 1.62643 0
M  V30 5819 H 550.711 -1.43103 3.64194 0
M  V30 5820 H 550.334 -2.88633 2.73454 0
M  V30 5821 N 551.331 -1.39911 -0.725443 0
M  V30 5822 C 552.747 -1.21725 -1.03224 0
M  V30 5823 C 552.947 -0.0855224 -2.01318 0
M  V30 5824 O 552.003 0.55976 -2.46217 0
M  V30 5825 C 553.316 -2.55511 -1.58539 0
M  V30 5826 C 554.864 -2.62439 -1.70572 0
M  V30 5827 C 555.339 -3.9647 -2.29294 0
M  V30 5828 N 556.83 -3.98159 -2.36692 0
M  V30 5829 C 557.565 -4.98647 -2.83088 0
M  V30 5830 N 557.061 -6.0953 -3.2931 0
M  V30 5831 N 558.854 -4.8602 -2.82384 0
M  V30 5832 H 551.005 -2.12267 -0.075048 0
M  V30 5833 H 553.268 -0.943136 -0.0959066 0
M  V30 5834 H 552.974 -3.38926 -0.939249 0
M  V30 5835 H 552.848 -2.75905 -2.57208 0
M  V30 5836 H 555.235 -1.79401 -2.34306 0
M  V30 5837 H 555.316 -2.45885 -0.705297 0
M  V30 5838 H 554.96 -4.79942 -1.66186 0
M  V30 5839 H 554.89 -4.10349 -3.30032 0
M  V30 5840 H 557.381 -3.18085 -2.04035 0
M  V30 5841 H 557.694 -6.82106 -3.6325 0
M  V30 5842 H 556.039 -6.1311 -3.27294 0
M  V30 5843 H 559.23 -3.98493 -2.45603 0
M  V30 5844 H 559.403 -5.64478 -3.18226 0
M  V30 5845 N 552.809 0.956637 -1.25245 0
M  V30 5846 C 553.757 2.0743 -1.0524 0
M  V30 5847 C 554.751 1.69392 0.0160725 0
M  V30 5848 O 555.957 1.7946 -0.139382 0
M  V30 5849 H 552.332 0.678921 -0.323373 0
M  V30 5850 H 554.303 2.2146 -1.99995 0
M  V30 5851 C 553.052 3.40872 -0.685702 0
M  V30 5852 H 552.375 3.70607 -1.49968 0
M  V30 5853 H 553.815 4.19939 -0.585415 0
M  V30 5854 C 552.274 3.31367 0.608082 0
M  V30 5855 O 552.804 3.66214 1.65076 0
M  V30 5856 N 551.01 2.84486 0.592955 0
M  V30 5857 H 550.557 2.56326 -0.25592 0
M  V30 5858 H 550.515 2.78509 1.45877 0
M  V30 5859 N 554.287 1.06798 1.15896 0
M  V30 5860 C 555.515 0.808694 1.90441 0
M  V30 5861 C 555.93 -0.637506 1.77711 0
M  V30 5862 O 555.287 -1.43684 1.12522 0
M  V30 5863 C 555.338 1.20068 3.40978 0
M  V30 5864 O 555.059 2.59013 3.53333 0
M  V30 5865 C 556.56 0.96987 4.3256 0
M  V30 5866 H 553.78 0.292809 0.603742 0
M  V30 5867 H 556.324 1.42296 1.46874 0
M  V30 5868 H 554.479 0.630842 3.82229 0
M  V30 5869 H 554.893 2.7485 4.46719 0
M  V30 5870 H 556.367 1.29371 5.36626 0
M  V30 5871 H 556.844 -0.0941209 4.39099 0
M  V30 5872 H 557.45 1.52433 3.97044 0
M  V30 5873 N 555.766 -1.3263 0.851289 0
M  V30 5874 C 556.996 -2.01271 0.466222 0
M  V30 5875 C 557.404 -1.64156 -0.940714 0
M  V30 5876 O 556.747 -0.857109 -1.62479 0
M  V30 5877 C 556.809 -3.55695 0.521672 0
M  V30 5878 C 556.473 -4.16227 1.88691 0
M  V30 5879 C 557.47 -4.34699 2.85189 0
M  V30 5880 C 555.155 -4.52377 2.18313 0
M  V30 5881 C 557.149 -4.88484 4.09465 0
M  V30 5882 C 554.836 -5.05868 3.42843 0
M  V30 5883 C 555.834 -5.23869 4.38235 0
M  V30 5884 O 555.522 -5.76218 5.6056 0
M  V30 5885 H 555.254 -0.651034 0.18202 0
M  V30 5886 H 557.808 -1.7026 1.14894 0
M  V30 5887 H 556.038 -3.86086 -0.217888 0
M  V30 5888 H 557.727 -4.05613 0.152682 0
M  V30 5889 H 558.493 -4.07107 2.63607 0
M  V30 5890 H 554.372 -4.37652 1.44851 0
M  V30 5891 H 557.916 -5.02451 4.83931 0
M  V30 5892 H 553.813 -5.32891 3.64277 0
M  V30 5893 H 554.581 -5.94616 5.62471 0
M  V30 5894 N 557.244 -0.608902 -1.45362 0
M  V30 5895 C 558.472 -0.111013 -2.06602 0
M  V30 5896 C 558.887 1.20516 -1.45332 0
M  V30 5897 O 558.244 1.73437 -0.567978 0
M  V30 5898 C 558.295 0.033688 -3.61484 0
M  V30 5899 O 558.016 -1.23041 -4.20467 0
M  V30 5900 C 559.517 0.562882 -4.39712 0
M  V30 5901 H 556.737 -0.0694453 -0.667397 0
M  V30 5902 H 559.281 -0.837008 -1.86586 0
M  V30 5903 H 557.436 0.710016 -3.80838 0
M  V30 5904 H 557.85 -1.06094 -5.13658 0
M  V30 5905 H 559.324 0.613213 -5.48583 0
M  V30 5906 H 559.801 1.58543 -4.09586 0
M  V30 5907 H 560.407 -0.0794454 -4.25226 0
M  V30 5908 N 558.722 1.53707 -0.348139 0
M  V30 5909 C 559.67 2.26671 0.521808 0
M  V30 5910 C 560.664 1.28988 1.09811 0
M  V30 5911 O 561.87 1.4668 1.04332 0
M  V30 5912 H 558.245 0.728387 0.186968 0
M  V30 5913 H 560.216 2.98176 -0.115563 0
M  V30 5914 C 558.965 3.05591 1.6586 0
M  V30 5915 H 558.288 3.80589 1.22443 0
M  V30 5916 H 559.728 3.59851 2.24239 0
M  V30 5917 C 558.187 2.15366 2.59073 0
M  V30 5918 O 558.717 1.7528 3.61441 0
M  V30 5919 N 556.923 1.80352 2.27863 0
M  V30 5920 H 556.47 2.13149 1.44656 0
M  V30 5921 H 556.428 1.20268 2.90488 0
M  V30 5922 N 560.2 0.0768682 1.57412 0
M  V30 5923 C 561.428 -0.59997 1.9801 0
M  V30 5924 C 561.843 -1.62842 0.955408 0
M  V30 5925 O 561.2 -1.8241 -0.057314 0
M  V30 5926 C 561.251 -1.26401 3.38681 0
M  V30 5927 O 560.972 -0.276723 4.37225 0
M  V30 5928 C 562.473 -2.0282 3.94182 0
M  V30 5929 H 559.693 -0.162239 0.651091 0
M  V30 5930 H 562.237 0.150771 2.03943 0
M  V30 5931 H 560.392 -1.96581 3.33819 0
M  V30 5932 H 560.806 -0.753744 5.19056 0
M  V30 5933 H 562.28 -2.44667 4.94815 0
M  V30 5934 H 562.757 -2.88678 3.31001 0
M  V30 5935 H 563.363 -1.37496 4.02461 0
M  V30 5936 N 561.678 -1.56367 -0.196722 0
M  V30 5937 C 562.608 -1.97442 -1.24655 0
M  V30 5938 C 563.589 -0.846147 -1.47561 0
M  V30 5939 O 564.774 -1.11035 -1.59326 0
M  V30 5940 C 561.904 -2.31253 -2.59112 0
M  V30 5941 C 560.858 -3.46804 -2.50821 0
M  V30 5942 C 560.184 -3.66286 -3.89536 0
M  V30 5943 C 561.484 -4.8104 -2.03465 0
M  V30 5944 H 563.178 -2.85388 -0.905216 0
M  V30 5945 H 560.724 -1.37304 -0.434002 0
M  V30 5946 H 562.677 -2.58583 -3.32736 0
M  V30 5947 H 561.401 -1.40188 -2.94983 0
M  V30 5948 H 560.06 -3.19563 -1.79653 0
M  V30 5949 H 559.708 -2.72555 -4.22756 0
M  V30 5950 H 559.408 -4.4402 -3.84864 0
M  V30 5951 H 560.932 -3.9599 -4.64784 0
M  V30 5952 H 562.346 -5.07411 -2.66846 0
M  V30 5953 H 560.743 -5.62232 -2.09798 0
M  V30 5954 H 561.813 -4.74732 -0.98781 0
M  V30 5955 N 563.156 0.464375 -1.50603 0
M  V30 5956 C 564.086 1.56944 -1.72889 0
M  V30 5957 C 565.067 1.59979 -0.577997 0
M  V30 5958 O 566.252 1.76138 -0.817855 0
M  V30 5959 C 563.382 2.95225 -1.8292 0
M  V30 5960 C 562.336 3.07056 -2.98162 0
M  V30 5961 C 561.662 4.47051 -2.93343 0
M  V30 5962 C 562.962 2.83648 -4.38567 0
M  V30 5963 H 564.656 1.38547 -2.65415 0
M  V30 5964 H 562.202 0.665082 -1.27721 0
M  V30 5965 H 564.155 3.72467 -1.97095 0
M  V30 5966 H 562.879 3.14793 -0.870209 0
M  V30 5967 H 561.538 2.32248 -2.83648 0
M  V30 5968 H 561.186 4.63547 -1.95276 0
M  V30 5969 H 560.886 4.55902 -3.70712 0
M  V30 5970 H 562.41 5.26304 -3.09575 0
M  V30 5971 H 563.824 3.50636 -4.53572 0
M  V30 5972 H 562.221 3.03937 -5.17438 0
M  V30 5973 H 563.291 1.79451 -4.50472 0
M  V30 5974 N 564.634 1.40294 0.718013 0
M  V30 5975 C 566.05 1.2227 1.02577 0
M  V30 5976 C 566.25 0.0961976 2.0127 0
M  V30 5977 O 565.306 -0.546695 2.46511 0
M  V30 5978 C 566.619 2.56348 1.57182 0
M  V30 5979 C 568.167 2.6334 1.69178 0
M  V30 5980 C 568.642 3.9768 2.27188 0
M  V30 5981 N 570.133 3.99409 2.34578 0
M  V30 5982 C 570.868 5.00141 2.8044 0
M  V30 5983 N 570.364 6.11268 3.26073 0
M  V30 5984 N 572.157 4.87511 2.79802 0
M  V30 5985 H 564.308 2.12304 0.0637899 0
M  V30 5986 H 566.571 0.943632 0.0909036 0
M  V30 5987 H 566.277 3.3942 0.921262 0
M  V30 5988 H 566.151 2.77266 2.55741 0
M  V30 5989 H 568.538 1.80641 2.33351 0
M  V30 5990 H 568.619 2.46255 0.692247 0
M  V30 5991 H 568.263 4.80817 1.63638 0
M  V30 5992 H 568.193 4.12093 3.27852 0
M  V30 5993 H 570.684 3.19162 2.02346 0
M  V30 5994 H 570.997 6.84023 3.59628 0
M  V30 5995 H 569.342 6.14837 3.24038 0
M  V30 5996 H 572.533 3.9979 2.43487 0
M  V30 5997 H 572.706 5.66158 3.15228 0
M  V30 5998 N 566.112 -0.949982 1.2575 0
M  V30 5999 C 567.059 -2.04738 1.06541 0
M  V30 6000 C 568.029 -1.66078 -0.0268818 0
M  V30 6001 O 569.214 -1.90348 0.131196 0
M  V30 6002 C 566.354 -3.38027 0.695127 0
M  V30 6003 C 565.467 -3.89776 1.86276 0
M  V30 6004 C 564.602 -5.11411 1.4364 0
M  V30 6005 C 563.641 -5.554 2.57287 0
M  V30 6006 N 562.778 -6.68244 2.15395 0
M  V30 6007 H 567.618 -2.20502 2.00457 0
M  V30 6008 H 565.155 -1.0805 0.998178 0
M  V30 6009 H 567.113 -4.14641 0.461375 0
M  V30 6010 H 565.743 -3.22135 -0.207046 0
M  V30 6011 H 564.795 -3.0964 2.20969 0
M  V30 6012 H 566.107 -4.18368 2.71606 0
M  V30 6013 H 565.261 -5.95457 1.16257 0
M  V30 6014 H 564 -4.84545 0.553879 0
M  V30 6015 H 563.005 -4.69916 2.85409 0
M  V30 6016 H 564.23 -5.84272 3.46125 0
M  V30 6017 H 562.176 -6.43078 1.29565 0
M  V30 6018 H 562.093 -6.96377 2.94272 0
M  V30 6019 H 563.361 -7.55687 1.91201 0
M  V30 6020 N 567.59 -1.07411 -1.15328 0
M  V30 6021 C 568.553 -0.698914 -2.18284 0
M  V30 6022 C 569.553 0.261149 -1.58665 0
M  V30 6023 O 570.743 0.0420277 -1.74149 0
M  V30 6024 C 567.875 -0.0302427 -3.40887 0
M  V30 6025 H 569.068 -1.61045 -2.52991 0
M  V30 6026 H 566.621 -0.870724 -1.298 0
M  V30 6027 H 567.356 0.893505 -3.11748 0
M  V30 6028 H 567.141 -0.720759 -3.85419 0
M  V30 6029 H 568.631 0.21759 -4.17033 0
M  V30 6030 N 569.068 1.32177 -0.85831 0
M  V30 6031 C 570.316 1.96735 -0.462568 0
M  V30 6032 C 570.637 1.6824 0.985911 0
M  V30 6033 O 569.907 0.991564 1.68952 0
M  V30 6034 H 568.487 0.727849 -0.168064 0
M  V30 6035 H 571.149 1.61195 -1.09554 0
M  V30 6036 H 570.245 3.06068 -0.610647 0
M  V30 6037 N 570.547 0.616602 1.45037 0
M  V30 6038 C 571.793 0.115501 2.02471 0
M  V30 6039 C 572.126 -1.25406 1.4828 0
M  V30 6040 O 571.401 -1.82922 0.661051 0
M  V30 6041 C 571.684 0.0863588 3.59996 0
M  V30 6042 C 571.537 1.48723 4.24501 0
M  V30 6043 C 572.856 -0.596762 4.36035 0
M  V30 6044 H 569.975 0.0434461 0.735718 0
M  V30 6045 H 572.617 0.7903 1.72784 0
M  V30 6046 H 570.767 -0.488277 3.85419 0
M  V30 6047 H 572.439 2.10964 4.10234 0
M  V30 6048 H 570.682 2.04534 3.82555 0
M  V30 6049 H 571.353 1.419 5.3345 0
M  V30 6050 H 573.829 -0.10824 4.15959 0
M  V30 6051 H 572.705 -0.586289 5.4576 0
M  V30 6052 H 572.966 -1.66451 4.09569 0
M  V30 6053 N 572.025 -1.5352 0.356285 0
M  V30 6054 C 572.935 -2.29151 -0.502712 0
M  V30 6055 C 573.951 -1.34753 -1.1008 0
M  V30 6056 O 575.127 -1.67803 -1.11374 0
M  V30 6057 C 572.192 -3.05911 -1.63154 0
M  V30 6058 C 571.253 -4.15958 -1.06194 0
M  V30 6059 C 570.486 -4.8905 -2.13696 0
M  V30 6060 O 570.709 -4.61919 -3.34645 0
M  V30 6061 O 569.643 -5.75202 -1.77275 0
M  V30 6062 H 573.469 -3.03492 0.112466 0
M  V30 6063 H 571.054 -1.4891 0.120942 0
M  V30 6064 H 572.936 -3.53874 -2.28804 0
M  V30 6065 H 571.611 -2.34415 -2.23229 0
M  V30 6066 H 570.518 -3.7227 -0.369603 0
M  V30 6067 H 571.851 -4.89593 -0.505872 0
M  V30 6068 N 573.503 -0.0852151 -1.57369 0
M  V30 6069 C 574.749 0.581666 -1.94279 0
M  V30 6070 C 575.082 1.68444 -0.966446 0
M  V30 6071 O 574.357 1.945 0.00215277 0
M  V30 6072 C 574.64 1.14609 -3.41375 0
M  V30 6073 C 574.493 0.0490414 -4.49773 0
M  V30 6074 C 575.812 2.04751 -3.8957 0
M  V30 6075 H 572.931 0.209972 -0.706456 0
M  V30 6076 H 575.573 -0.153915 -1.89376 0
M  V30 6077 H 573.723 1.77297 -3.45685 0
M  V30 6078 H 575.395 -0.584721 -4.57579 0
M  V30 6079 H 573.638 -0.618638 -4.29366 0
M  V30 6080 H 574.309 0.484601 -5.49869 0
M  V30 6081 H 576.785 1.51981 -3.87351 0
M  V30 6082 H 575.661 2.41173 -4.93079 0
M  V30 6083 H 575.922 2.96107 -3.28288 0
M  V30 6084 N 574.981 1.5647 0.188427 0
M  V30 6085 C 576.23 1.80207 0.905995 0
M  V30 6086 C 576.543 0.659579 1.84144 0
M  V30 6087 O 577.749 0.781431 2.60011 0
M  V30 6088 C 576.205 3.19255 1.66145 0
M  V30 6089 C 575.813 4.41324 0.770504 0
M  V30 6090 C 577.557 3.52298 2.36826 0
M  V30 6091 C 575.464 5.71394 1.52521 0
M  V30 6092 H 574.394 0.671953 0.342045 0
M  V30 6093 H 577.045 1.82808 0.159164 0
M  V30 6094 H 575.427 3.10922 2.45242 0
M  V30 6095 H 576.601 4.60797 0.0177261 0
M  V30 6096 H 574.916 4.16035 0.174199 0
M  V30 6097 H 577.513 4.46715 2.93854 0
M  V30 6098 H 577.856 2.76359 3.11338 0
M  V30 6099 H 578.389 3.62108 1.6469 0
M  V30 6100 H 575.128 6.50316 0.82275 0
M  V30 6101 H 574.648 5.55928 2.25175 0
M  V30 6102 H 576.327 6.12747 2.07725 0
M  V30 6103 N 576.459 -0.456382 1.50847 0
M  V30 6104 C 577.687 -1.23026 1.66349 0
M  V30 6105 C 578.102 -1.85473 0.352868 0
M  V30 6106 O 577.459 -1.69885 -0.666739 0
M  V30 6107 C 577.51 -2.32827 2.76539 0
M  V30 6108 O 577.231 -1.72938 4.02522 0
M  V30 6109 C 578.732 -3.23448 3.03144 0
M  V30 6110 H 575.952 -0.371527 0.558756 0
M  V30 6111 H 578.496 -0.543082 1.97157 0
M  V30 6112 H 576.651 -2.97294 2.48384 0
M  V30 6113 H 577.065 -2.45357 4.63573 0
M  V30 6114 H 578.539 -3.96669 3.83872 0
M  V30 6115 H 579.016 -3.83094 2.14793 0
M  V30 6116 H 579.622 -2.64702 3.32886 0
M  V30 6117 N 577.937 -1.40673 -0.710563 0
M  V30 6118 C 579.186 -1.38525 -1.46607 0
M  V30 6119 C 579.499 0.0077024 -1.95598 0
M  V30 6120 O 580.705 0.151792 -2.71075 0
M  V30 6121 C 579.161 -2.43489 -2.6503 0
M  V30 6122 C 578.769 -3.88619 -2.22888 0
M  V30 6123 C 580.513 -2.50456 -3.42742 0
M  V30 6124 C 578.42 -4.85168 -3.3818 0
M  V30 6125 H 577.35 -0.515092 -0.550632 0
M  V30 6126 H 580.001 -1.66431 -0.772846 0
M  V30 6127 H 578.383 -2.0869 -3.36548 0
M  V30 6128 H 579.557 -4.32588 -1.58758 0
M  V30 6129 H 577.872 -3.85174 -1.58208 0
M  V30 6130 H 580.469 -3.19776 -4.28541 0
M  V30 6131 H 580.812 -1.53665 -3.86902 0
M  V30 6132 H 581.345 -2.84271 -2.78271 0
M  V30 6133 H 578.084 -5.8331 -2.99047 0
M  V30 6134 H 577.604 -4.4586 -4.01209 0
M  V30 6135 H 579.283 -5.05225 -4.04174 0
M  V30 6136 N 579.415 0.9433 -1.26252 0
M  V30 6137 C 580.64 1.72898 -1.14547 0
M  V30 6138 C 581.065 1.85761 0.295743 0
M  V30 6139 O 580.423 1.3463 1.21427 0
M  V30 6140 C 580.471 3.11471 -1.8171 0
M  V30 6141 O 579.575 3.97336 -1.10445 0
M  V30 6142 H 578.916 0.530555 -0.399259 0
M  V30 6143 H 581.446 1.18159 -1.67032 0
M  V30 6144 H 581.456 3.61872 -1.88449 0
M  V30 6145 H 580.131 3.01425 -2.86558 0
M  V30 6146 H 578.708 3.55788 -1.11666 0
M  V30 6147 N 580.893 1.08022 1.14757 0
M  V30 6148 C 581.856 0.71048 2.1791 0
M  V30 6149 C 582.856 -0.252731 1.58801 0
M  V30 6150 O 584.046 -0.0327915 1.74169 0
M  V30 6151 C 581.178 0.0483203 3.40866 0
M  V30 6152 H 582.371 1.62384 2.52134 0
M  V30 6153 H 579.924 0.877595 1.29337 0
M  V30 6154 H 580.659 -0.876959 3.12218 0
M  V30 6155 H 580.444 0.741189 3.85031 0
M  V30 6156 H 581.934 -0.195471 4.17142 0
M  V30 6157 N 582.371 -1.3172 0.865308 0
M  V30 6158 C 583.596 -2.01591 0.487415 0
M  V30 6159 C 584.021 -1.6455 -0.911307 0
M  V30 6160 O 583.379 -0.851689 -1.6005 0
M  V30 6161 C 583.427 -3.54759 0.646401 0
M  V30 6162 O 582.531 -4.11185 -0.316284 0
M  V30 6163 H 581.872 -0.634884 0.194468 0
M  V30 6164 H 584.402 -1.68024 1.16744 0
M  V30 6165 H 584.412 -4.04438 0.537932 0
M  V30 6166 H 583.087 -3.8106 1.66632 0
M  V30 6167 H 581.664 -3.72543 -0.163162 0
M  V30 6168 N 583.85 -0.624285 -1.44708 0
M  V30 6169 C 584.76 0.0861083 -2.34442 0
M  V30 6170 C 585.776 0.84291 -1.5222 0
M  V30 6171 O 586.952 0.796723 -1.84971 0
M  V30 6172 C 584.017 1.05999 -3.30099 0
M  V30 6173 C 583.077 0.303316 -4.28227 0
M  V30 6174 C 582.311 1.23081 -5.19314 0
M  V30 6175 O 582.534 2.46929 -5.14181 0
M  V30 6176 O 581.468 0.71883 -5.97592 0
M  V30 6177 H 585.293 -0.651756 -2.96624 0
M  V30 6178 H 582.879 -0.384493 -1.44368 0
M  V30 6179 H 584.76 1.62046 -3.88997 0
M  V30 6180 H 583.436 1.77859 -2.70459 0
M  V30 6181 H 582.343 -0.300033 -3.72895 0
M  V30 6182 H 583.676 -0.375123 -4.90768 0
M  V30 6183 N 585.328 1.53329 -0.364422 0
M  V30 6184 C 586.258 2.28627 0.474543 0
M  V30 6185 C 587.239 1.31009 1.08492 0
M  V30 6186 O 588.424 1.59878 1.10239 0
M  V30 6187 C 585.554 3.07465 1.61501 0
M  V30 6188 C 584.508 4.1276 1.13194 0
M  V30 6189 C 583.834 4.79674 2.36255 0
M  V30 6190 C 585.134 5.21847 0.217507 0
M  V30 6191 H 586.828 2.99005 -0.153656 0
M  V30 6192 H 584.374 1.43803 -0.0753406 0
M  V30 6193 H 586.327 3.58889 2.20855 0
M  V30 6194 H 585.051 2.34775 2.27042 0
M  V30 6195 H 583.71 3.62281 0.56109 0
M  V30 6196 H 583.358 4.03557 3.00251 0
M  V30 6197 H 583.058 5.50827 2.04606 0
M  V30 6198 H 584.582 5.33892 2.96297 0
M  V30 6199 H 585.996 5.6878 0.718493 0
M  V30 6200 H 584.393 6.00099 -0.00806408 0
M  V30 6201 H 585.463 4.7921 -0.740653 0
M  V30 6202 N 586.806 0.0935595 1.57322 0
M  V30 6203 C 588.054 -0.569383 1.93913 0
M  V30 6204 C 588.375 -1.68817 0.976009 0
M  V30 6205 O 587.645 -1.9588 0.0278099 0
M  V30 6206 H 586.225 -0.21332 0.715894 0
M  V30 6207 H 588.887 0.156531 1.9427 0
M  V30 6208 H 587.983 -0.980577 2.96296 0
M  V30 6209 N 588.284 -1.56567 -0.180126 0
M  V30 6210 C 589.7 -1.50488 -0.531559 0
M  V30 6211 C 589.9 -0.796267 -1.851 0
M  V30 6212 O 588.956 -0.352978 -2.50021 0
M  V30 6213 C 590.269 -2.95201 -0.572456 0
M  V30 6214 C 591.817 -3.05957 -0.660264 0
M  V30 6215 C 592.292 -4.5211 -0.732135 0
M  V30 6216 N 593.783 -4.56322 -0.795262 0
M  V30 6217 C 594.518 -5.66742 -0.871296 0
M  V30 6218 N 594.014 -6.86815 -0.908708 0
M  V30 6219 N 595.807 -5.54691 -0.909639 0
M  V30 6220 H 587.958 -2.01045 0.685165 0
M  V30 6221 H 590.221 -0.915536 0.245962 0
M  V30 6222 H 589.927 -3.50165 0.328208 0
M  V30 6223 H 589.801 -3.49369 -1.422 0
M  V30 6224 H 592.188 -2.51032 -1.55136 0
M  V30 6225 H 592.269 -2.54888 0.215783 0
M  V30 6226 H 591.913 -5.07664 0.154664 0
M  V30 6227 H 591.843 -5.00926 -1.6242 0
M  V30 6228 H 594.334 -3.69868 -0.77499 0
M  V30 6229 H 594.647 -7.66718 -0.967654 0
M  V30 6230 H 592.992 -6.89443 -0.877132 0
M  V30 6231 H 596.183 -4.59804 -0.877353 0
M  V30 6232 H 596.356 -6.40768 -0.965434 0
M  V30 6233 N 589.762 0.448376 -1.51087 0
M  V30 6234 C 591.01 1.19635 -1.62886 0
M  V30 6235 C 591.331 1.91977 -0.342024 0
M  V30 6236 O 590.601 1.85094 0.641636 0
M  V30 6237 H 589.181 0.444598 -0.600285 0
M  V30 6238 H 591.843 0.515138 -1.87969 0
M  V30 6239 H 590.939 1.93194 -2.45117 0
M  V30 6240 N 591.24 1.41047 0.703093 0
M  V30 6241 C 592.656 1.23351 1.01275 0
M  V30 6242 C 592.856 0.11754 2.01157 0
M  V30 6243 O 591.912 -0.520518 2.47077 0
M  V30 6244 C 593.225 2.58001 1.54454 0
M  V30 6245 C 594.773 2.65119 1.66376 0
M  V30 6246 C 595.248 4.00067 2.22958 0
M  V30 6247 N 596.739 4.01875 2.30328 0
M  V30 6248 C 597.474 5.03087 2.75119 0
M  V30 6249 N 596.97 6.14692 3.19571 0
M  V30 6250 N 598.763 4.90451 2.74616 0
M  V30 6251 H 590.914 2.1236 0.0412686 0
M  V30 6252 H 593.177 0.944543 0.08089 0
M  V30 6253 H 592.883 3.40378 0.88521 0
M  V30 6254 H 592.757 2.79962 2.52786 0
M  V30 6255 H 595.144 1.83106 2.31422 0
M  V30 6256 H 595.225 2.46975 0.666089 0
M  V30 6257 H 594.869 4.82526 1.58529 0
M  V30 6258 H 594.799 4.15547 3.23462 0
M  V30 6259 H 597.29 3.21291 1.98949 0
M  V30 6260 H 597.603 6.87799 3.52352 0
M  V30 6261 H 595.948 6.18239 3.17498 0
M  V30 6262 H 599.139 4.0235 2.39233 0
M  V30 6263 H 599.312 5.6947 3.09206 0
M  V30 6264 N 592.718 -0.936591 1.26751 0
M  V30 6265 C 593.966 -1.67998 1.12343 0
M  V30 6266 C 594.287 -1.92137 -0.332938 0
M  V30 6267 O 593.557 -1.52132 -1.23421 0
M  V30 6268 H 592.137 -0.622609 0.412756 0
M  V30 6269 H 594.799 -1.12509 1.59147 0
M  V30 6270 H 593.895 -2.65185 1.64571 0
M  V30 6271 N 594.196 -1.08629 -1.14182 0
M  V30 6272 C 595.444 -0.815731 -1.84906 0
M  V30 6273 C 595.765 0.660441 -1.83475 0
M  V30 6274 O 595.035 1.47888 -1.28476 0
M  V30 6275 H 593.615 -0.298773 -0.684648 0
M  V30 6276 H 596.277 -1.37274 -1.38354 0
M  V30 6277 H 595.373 -1.16193 -2.89665 0
M  V30 6278 N 595.674 1.31259 -0.872281 0
M  V30 6279 C 596.922 1.96233 -0.483409 0
M  V30 6280 C 597.243 1.69276 0.968012 0
M  V30 6281 O 596.513 1.00943 1.67891 0
M  V30 6282 H 595.093 0.726025 -0.175774 0
M  V30 6283 H 597.755 1.60024 -1.11258 0
M  V30 6284 H 596.851 3.05403 -0.643075 0
M  V30 6285 N 597.152 0.631951 1.44375 0
M  V30 6286 C 598.102 -0.0943862 2.27805 0
M  V30 6287 C 599.086 -0.815359 1.38711 0
M  V30 6288 O 600.278 -0.701331 1.62513 0
M  V30 6289 C 597.407 -1.07472 3.26044 0
M  V30 6290 C 596.493 -0.353329 4.22626 0
M  V30 6291 N 596.884 0.618512 5.02004 0
M  V30 6292 C 595.182 -0.597662 4.41977 0
M  V30 6293 C 595.883 1.0448 5.7224 0
M  V30 6294 N 594.859 0.383413 5.42246 0
M  V30 6295 H 598.661 0.651672 2.86584 0
M  V30 6296 H 596.175 0.45752 1.55822 0
M  V30 6297 H 598.172 -1.60969 3.84571 0
M  V30 6298 H 596.832 -1.82107 2.68825 0
M  V30 6299 H 597.843 0.996356 5.08226 0
M  V30 6300 H 594.52 -1.32682 3.95856 0
M  V30 6301 H 595.91 1.84773 6.45994 0
M  V30 6302 N 598.631 -1.53133 0.372548 0
M  V30 6303 C 599.871 -2.03267 -0.214943 0
M  V30 6304 C 600.235 -1.25362 -1.45425 0
M  V30 6305 O 601.436 -1.65536 -2.11781 0
M  V30 6306 C 599.707 -3.53985 -0.492897 0
M  V30 6307 S 601.266 -4.25977 -1.05307 0
M  V30 6308 H 598.084 -0.708289 -0.062029 0
M  V30 6309 H 600.686 -1.88539 0.517025 0
M  V30 6310 H 599.39 -4.08282 0.416442 0
M  V30 6311 H 598.921 -3.72887 -1.25375 0
M  V30 6312 H 600.936 -4.37731 -2.33679 0
M  V30 6313 N 600.109 -0.101901 -1.5727 0
M  V30 6314 C 601.042 0.891377 -2.10071 0
M  V30 6315 C 602.02 1.27197 -1.01291 0
M  V30 6316 O 603.204 1.37602 -1.28833 0
M  V30 6317 C 600.331 2.19049 -2.58331 0
M  V30 6318 C 599.377 1.95925 -3.78834 0
M  V30 6319 S 600.21 1.19106 -5.22086 0
M  V30 6320 C 601.366 2.50234 -5.73702 0
M  V30 6321 H 601.599 0.442212 -2.93993 0
M  V30 6322 H 599.132 0.111529 -1.53997 0
M  V30 6323 H 601.09 2.937 -2.86793 0
M  V30 6324 H 599.751 2.61086 -1.74622 0
M  V30 6325 H 598.944 2.92143 -4.10693 0
M  V30 6326 H 598.546 1.29401 -3.50901 0
M  V30 6327 H 600.838 3.46173 -5.82384 0
M  V30 6328 H 601.781 2.22944 -6.72088 0
M  V30 6329 H 602.189 2.58818 -5.01671 0
M  V30 6330 N 601.587 1.56661 0.17182 0
M  V30 6331 C 602.815 1.861 0.904115 0
M  V30 6332 C 603.23 0.687227 1.75848 0
M  V30 6333 O 602.587 -0.343671 1.79235 0
M  V30 6334 C 602.638 3.14568 1.78127 0
M  V30 6335 O 602.359 4.27422 0.961366 0
M  V30 6336 C 603.86 3.5735 2.62327 0
M  V30 6337 H 601.08 0.617445 0.262684 0
M  V30 6338 H 603.624 2.03775 0.172068 0
M  V30 6339 H 601.779 2.98721 2.46666 0
M  V30 6340 H 602.193 5.00725 1.56123 0
M  V30 6341 H 603.667 4.50144 3.1949 0
M  V30 6342 H 604.144 2.81445 3.37173 0
M  V30 6343 H 604.75 3.75807 1.99121 0
M  V30 6344 N 603.065 -0.440357 1.51323 0
M  V30 6345 C 604.305 -1.19956 1.65499 0
M  V30 6346 C 604.669 -1.88559 0.361878 0
M  V30 6347 O 605.87 -2.66109 0.379383 0
M  V30 6348 C 604.141 -2.1918 2.82303 0
M  V30 6349 S 605.7 -3.03627 3.1679 0
M  V30 6350 H 602.518 -0.406833 0.583102 0
M  V30 6351 H 605.12 -0.491596 1.89218 0
M  V30 6352 H 603.824 -1.67414 3.74701 0
M  V30 6353 H 603.355 -2.94561 2.60763 0
M  V30 6354 H 605.37 -4.20773 2.62991 0
M  V30 6355 N 604.543 -1.41418 -0.695603 0
M  V30 6356 C 605.954 -1.36335 -1.27552 0
M  V30 6357 C 606.305 -0.0464336 -1.96145 0
M  V30 6358 O 605.43 0.855304 -1.9878 0
M  V30 6359 C 606.025 -2.46941 -2.3196 0
M  V30 6360 C 604.584 -2.45256 -2.85529 0
M  V30 6361 C 603.731 -2.2679 -1.59566 0
M  V30 6362 H 606.682 -1.50934 -0.490362 0
M  V30 6363 H 606.703 -2.15997 -3.1325 0
M  V30 6364 H 606.215 -3.42775 -1.82008 0
M  V30 6365 H 604.316 -1.53179 -3.39657 0
M  V30 6366 H 604.429 -3.41565 -3.35961 0
M  V30 6367 H 602.793 -1.74667 -1.85374 0
M  V30 6368 H 603.576 -3.24651 -1.1161 0
M  V30 6369 N 606.021 0.929856 -1.27246 0
M  V30 6370 C 607.27 1.67182 -1.12842 0
M  V30 6371 C 607.583 1.9287 0.325666 0
M  V30 6372 O 608.789 2.64999 0.590572 0
M  V30 6373 C 607.245 3.01097 -1.97151 0
M  V30 6374 C 606.853 2.83115 -3.47203 0
M  V30 6375 C 608.597 3.78907 -1.91389 0
M  V30 6376 C 606.504 4.12573 -4.23719 0
M  V30 6377 H 605.434 0.627064 -0.418697 0
M  V30 6378 H 608.085 1.0332 -1.51649 0
M  V30 6379 H 606.467 3.66004 -1.51186 0
M  V30 6380 H 607.641 2.26989 -4.01015 0
M  V30 6381 H 605.956 2.18736 -3.54321 0
M  V30 6382 H 608.553 4.74837 -2.45834 0
M  V30 6383 H 608.896 4.0674 -0.887047 0
M  V30 6384 H 609.429 3.20794 -2.35237 0
M  V30 6385 H 606.168 3.8992 -5.26918 0
M  V30 6386 H 605.688 4.68371 -3.74685 0
M  V30 6387 H 607.367 4.8095 -4.32777 0
M  V30 6388 N 607.499 1.09233 1.13605 0
M  V30 6389 C 608.745 0.828385 1.8511 0
M  V30 6390 C 609.078 -0.64437 1.83198 0
M  V30 6391 O 608.353 -1.47428 1.26867 0
M  V30 6392 C 608.636 1.36167 3.33363 0
M  V30 6393 C 608.489 2.90038 3.438 0
M  V30 6394 C 609.808 0.993819 4.28732 0
M  V30 6395 H 606.927 0.30239 0.672108 0
M  V30 6396 H 609.569 1.35339 1.33355 0
M  V30 6397 H 607.719 0.9151 3.77569 0
M  V30 6398 H 609.391 3.43128 3.08319 0
M  V30 6399 H 607.634 3.27271 2.84739 0
M  V30 6400 H 608.305 3.22428 4.48045 0
M  V30 6401 H 610.781 1.37893 3.92587 0
M  V30 6402 H 609.657 1.39403 5.30903 0
M  V30 6403 H 609.918 -0.0982206 4.41991 0
M  V30 6404 N 608.977 -1.30795 0.87923 0
M  V30 6405 C 610.393 -1.48981 0.57243 0
M  V30 6406 C 610.593 -1.80719 -0.891236 0
M  V30 6407 O 609.649 -1.89136 -1.67283 0
M  V30 6408 C 610.962 -2.61721 1.48063 0
M  V30 6409 C 612.51 -2.75603 1.48365 0
M  V30 6410 C 612.985 -3.91449 2.37763 0
M  V30 6411 N 614.476 -3.98751 2.35695 0
M  V30 6412 C 615.211 -4.87684 3.01583 0
M  V30 6413 N 614.707 -5.81454 3.76674 0
M  V30 6414 N 616.5 -4.81005 2.90844 0
M  V30 6415 H 608.651 -1.08465 1.82617 0
M  V30 6416 H 610.914 -0.536813 0.781368 0
M  V30 6417 H 610.62 -2.45073 2.52254 0
M  V30 6418 H 610.494 -3.58071 1.18596 0
M  V30 6419 H 612.881 -2.9166 0.44927 0
M  V30 6420 H 612.962 -1.79891 1.81859 0
M  V30 6421 H 612.606 -3.76149 3.41283 0
M  V30 6422 H 612.536 -4.86487 2.01589 0
M  V30 6423 H 615.027 -3.31668 1.81121 0
M  V30 6424 H 615.34 -6.46063 4.24054 0
M  V30 6425 H 613.685 -5.81403 3.80782 0
M  V30 6426 H 616.876 -4.06728 2.31711 0
M  V30 6427 H 617.049 -5.50107 3.42471 0
M  V30 6428 N 610.455 -0.639598 -1.44038 0
M  V30 6429 C 611.732 -0.078012 -1.95444 0
M  V30 6430 C 612.112 1.39847 -1.58133 0
M  V30 6431 O 611.46 2.11714 -0.859614 0
M  V30 6432 C 611.67 -0.309832 -3.47622 0
M  V30 6433 C 613.018 -0.207521 -4.24093 0
M  V30 6434 O 614.042 -0.241653 -3.55379 0
M  V30 6435 O 612.901 -0.119641 -5.46369 0
M  V30 6436 H 609.995 0.0174534 -0.826816 0
M  V30 6437 H 612.541 -0.711891 -1.54046 0
M  V30 6438 H 611.313 -1.33401 -3.67858 0
M  V30 6439 H 610.936 0.357777 -3.95987 0
M  V30 6440 N 611.933 1.52934 -0.380664 0
M  V30 6441 C 613.344 1.86457 0.0952684 0
M  V30 6442 C 613.695 1.3007 1.46889 0
M  V30 6443 O 612.82 0.628636 2.07068 0
M  V30 6444 C 613.415 3.38323 0.179648 0
M  V30 6445 C 611.974 3.71589 0.599858 0
M  V30 6446 C 611.121 2.76228 -0.243572 0
M  V30 6447 H 614.072 1.46966 -0.59888 0
M  V30 6448 H 614.093 3.67113 1.00042 0
M  V30 6449 H 613.605 3.79333 -0.820228 0
M  V30 6450 H 611.706 3.36144 1.60742 0
M  V30 6451 H 611.819 4.77715 0.364003 0
M  V30 6452 H 610.183 2.53045 0.289855 0
M  V30 6453 H 610.966 3.20074 -1.24127 0
M  V30 6454 N 613.412 0.11024 1.57214 0
M  V30 6455 C 614.661 -0.549638 1.94067 0
M  V30 6456 C 614.974 -1.68388 0.995234 0
M  V30 6457 O 616.18 -2.40593 1.25807 0
M  V30 6458 C 614.636 -1.02912 3.44873 0
M  V30 6459 C 614.244 0.0761861 4.47935 0
M  V30 6460 C 615.988 -1.66087 3.9066 0
M  V30 6461 C 613.895 -0.419502 5.8991 0
M  V30 6462 H 612.825 -0.209092 0.724428 0
M  V30 6463 H 615.476 0.188683 1.82527 0
M  V30 6464 H 613.858 -1.82159 3.51616 0
M  V30 6465 H 615.032 0.852185 4.52851 0
M  V30 6466 H 613.347 0.614052 4.11847 0
M  V30 6467 H 615.944 -2.04272 4.94143 0
M  V30 6468 H 616.287 -2.53591 3.30148 0
M  V30 6469 H 616.82 -0.933959 3.86681 0
M  V30 6470 H 613.559 0.419277 6.54158 0
M  V30 6471 H 613.079 -1.16217 5.88433 0
M  V30 6472 H 614.758 -0.883577 6.40938 0
M  V30 6473 N 614.89 -1.56749 -0.16351 0
M  V30 6474 C 616.167 -1.73321 -0.906599 0
M  V30 6475 C 616.547 -0.673779 -2.00059 0
M  V30 6476 O 615.895 0.310121 -2.26386 0
M  V30 6477 C 616.105 -3.168 -1.46419 0
M  V30 6478 C 617.453 -3.77993 -1.93407 0
M  V30 6479 O 618.477 -3.20127 -1.56196 0
M  V30 6480 O 617.336 -4.79615 -2.61976 0
M  V30 6481 H 614.43 -0.708073 -0.427272 0
M  V30 6482 H 616.976 -1.69029 -0.150727 0
M  V30 6483 H 615.748 -3.85396 -0.677189 0
M  V30 6484 H 615.371 -3.2545 -2.28403 0
M  V30 6485 N 616.368 0.432326 -1.51554 0
M  V30 6486 C 617.598 1.2019 -1.68042 0
M  V30 6487 C 618.006 1.85356 -0.379434 0
M  V30 6488 O 617.349 1.71724 0.652427 0
M  V30 6489 C 617.411 2.32387 -2.74292 0
M  V30 6490 C 617.075 1.87548 -4.16743 0
M  V30 6491 C 618.072 1.37611 -5.01357 0
M  V30 6492 C 615.757 1.95087 -4.62868 0
M  V30 6493 C 617.751 0.958069 -6.30159 0
M  V30 6494 C 615.438 1.52894 -5.91664 0
M  V30 6495 C 616.436 1.03336 -6.75137 0
M  V30 6496 O 616.124 0.617435 -8.01525 0
M  V30 6497 H 615.856 0.368132 -0.56697 0
M  V30 6498 H 618.41 0.517875 -1.98764 0
M  V30 6499 H 616.64 3.04082 -2.38895 0
M  V30 6500 H 618.329 2.94235 -2.79608 0
M  V30 6501 H 619.095 1.31178 -4.66923 0
M  V30 6502 H 614.974 2.32606 -3.98015 0
M  V30 6503 H 618.518 0.570562 -6.95263 0
M  V30 6504 H 614.415 1.58999 -6.25611 0
M  V30 6505 H 615.183 0.742835 -8.15122 0
M  V30 6506 O 617.885 1.50798 0.578109 0
M  V30 6507 H 618.576 1.4938 1.2331 0
M  V30 END ATOM
M  V30 BEGIN BOND
M  V30 END BOND
M  V30 END CTAB
M  END
$$$$
