drugbank_target|P14090 Endoglucanase C (DB02379)
 OpenBabel12092120243D

  0  0  0     0  0            999 V3000
M  V30 BEGIN CTAB
M  V30 COUNTS 15829 16048 0 0 0
M  V30 BEGIN ATOM
M  V30 1 H -0.908 1.98254 -0.117106 0
M  V30 2 N 0 1.576 0 0
M  V30 3 C 0.933 2.03868 1.02534 0
M  V30 4 C 1.911 0.928543 1.3348 0
M  V30 5 O 3.095 1.19667 1.45644 0
M  V30 6 C 0.222 2.43627 2.35294 0
M  V30 7 C -0.732 3.65373 2.2001 0
M  V30 8 S 0.101 5.13292 1.52614 0
M  V30 9 C 1.257 5.56322 2.86805 0
M  V30 10 H 1.49 2.90518 0.631377 0
M  V30 11 H -0.977 1.52953 0.210867 0
M  V30 12 H 0.981 2.67203 3.11629 0
M  V30 13 H -0.358 1.57376 2.7183 0
M  V30 14 H -1.165 3.90944 3.18086 0
M  V30 15 H -1.563 3.418 1.51819 0
M  V30 16 H 0.729 5.58782 3.83104 0
M  V30 17 H 1.672 6.56266 2.65933 0
M  V30 18 H 2.08 4.83886 2.90714 0
M  V30 19 N 1.4781 -0.272755 1.55222 0
M  V30 20 C 2.7241 -1.00581 1.761 0
M  V30 21 C 3.0571 -1.85932 0.560625 0
M  V30 22 O 2.3321 -1.89416 -0.441801 0
M  V30 23 C 2.6151 -1.88816 3.06628 0
M  V30 24 C 2.4681 -1.06457 4.37021 0
M  V30 25 C 3.7871 -2.8752 3.33197 0
M  V30 26 H 0.9061 -0.364244 0.640699 0
M  V30 27 H 3.5481 -0.278189 1.87952 0
M  V30 28 H 1.6981 -2.50856 2.96654 0
M  V30 29 H 3.3701 -0.464863 4.58952 0
M  V30 30 H 1.6131 -0.368043 4.32236 0
M  V30 31 H 2.2841 -1.71514 5.24678 0
M  V30 32 H 4.7601 -2.35615 3.42965 0
M  V30 33 H 3.6361 -3.46399 4.25792 0
M  V30 34 H 3.8971 -3.62657 2.52849 0
M  V30 35 N 2.9562 -1.48159 -0.537278 0
M  V30 36 C 4.1812 -1.59707 -1.32319 0
M  V30 37 C 4.6062 -0.254859 -1.86365 0
M  V30 38 O 3.9642 0.772378 -1.64024 0
M  V30 39 C 4.0122 -2.6412 -2.45505 0
M  V30 40 O 3.1162 -2.20774 -3.48328 0
M  V30 41 H 2.4572 -0.535791 -0.392204 0
M  V30 42 H 4.9872 -1.94092 -0.647268 0
M  V30 43 H 4.9972 -2.85166 -2.91795 0
M  V30 44 H 3.6722 -3.61567 -2.05528 0
M  V30 45 H 2.2492 -2.09911 -3.08207 0
M  V30 46 N 4.4343 0.785586 -1.36625 0
M  V30 47 C 5.8503 1.08419 -1.17122 0
M  V30 48 C 6.0503 2.015 0.00208491 0
M  V30 49 O 5.1063 2.43551 0.666278 0
M  V30 50 C 6.4193 1.69498 -2.48377 0
M  V30 51 C 7.9673 1.81821 -2.54775 0
M  V30 52 C 8.4423 2.46315 -3.86126 0
M  V30 53 N 9.9333 2.53779 -3.87492 0
M  V30 54 C 10.6683 3.045 -4.85868 0
M  V30 55 N 10.1643 3.55499 -5.94637 0
M  V30 56 N 11.9573 3.03247 -4.73284 0
M  V30 57 H 4.1083 0.167264 -2.1174 0
M  V30 58 H 6.3713 0.13682 -0.938075 0
M  V30 59 H 6.0773 1.08571 -3.34522 0
M  V30 60 H 5.9513 2.6896 -2.64462 0
M  V30 61 H 8.3383 2.41884 -1.69045 0
M  V30 62 H 8.4193 0.811532 -2.42586 0
M  V30 63 H 8.0633 1.86895 -4.72263 0
M  V30 64 H 7.9933 3.47561 -3.95612 0
M  V30 65 H 10.4843 2.17672 -3.08913 0
M  V30 66 H 10.7973 3.92562 -6.65669 0
M  V30 67 H 9.1423 3.5364 -5.98301 0
M  V30 68 H 12.3333 2.62696 -3.87438 0
M  V30 69 H 12.5063 3.42467 -5.50109 0
M  V30 70 N 5.9124 1.20967 1.01018 0
M  V30 71 C 7.3284 0.965905 1.27053 0
M  V30 72 C 7.5284 -0.350785 1.98423 0
M  V30 73 O 6.5844 -1.07773 2.28344 0
M  V30 74 C 7.8974 2.15294 2.09926 0
M  V30 75 C 9.4454 2.19463 2.23171 0
M  V30 76 C 9.9204 3.3767 3.09424 0
M  V30 77 N 11.4114 3.37724 3.17012 0
M  V30 78 C 12.1464 4.25837 3.83993 0
M  V30 79 N 11.6424 5.24138 4.53047 0
M  V30 80 N 13.4354 4.1366 3.80581 0
M  V30 81 H 5.5864 2.0565 0.531194 0
M  V30 82 H 7.8494 0.90024 0.297106 0
M  V30 83 H 7.5554 3.10684 1.64828 0
M  V30 84 H 7.4294 2.13923 3.10672 0
M  V30 85 H 9.8164 1.24632 2.6749 0
M  V30 86 H 9.8974 2.2488 1.21912 0
M  V30 87 H 9.5414 4.32791 2.65808 0
M  V30 88 H 9.4714 3.29491 4.10784 0
M  V30 89 H 11.9624 2.6658 2.6785 0
M  V30 90 H 12.2754 5.87684 5.01844 0
M  V30 91 H 10.6204 5.28068 4.5185 0
M  V30 92 H 13.8114 3.36127 3.25785 0
M  V30 93 H 13.9844 4.82538 4.32505 0
M  V30 94 N 7.3905 -1.2043 1.01659 0
M  V30 95 C 8.6155 -1.94318 0.724942 0
M  V30 96 C 9.0405 -1.74266 -0.708034 0
M  V30 97 O 8.3985 -1.03694 -1.48719 0
M  V30 98 C 8.4465 -3.44486 1.06591 0
M  V30 99 O 7.5505 -4.12017 0.177599 0
M  V30 100 H 6.8915 -0.60708 0.26898 0
M  V30 101 H 9.4215 -1.52861 1.35995 0
M  V30 102 H 9.4315 -3.95106 1.01762 0
M  V30 103 H 8.1065 -3.58404 2.10997 0
M  V30 104 H 6.6835 -3.71821 0.283421 0
M  V30 105 N 8.8686 -0.792821 -1.36206 0
M  V30 106 C 10.0936 -0.377701 -2.03932 0
M  V30 107 C 10.5186 0.998947 -1.59382 0
M  V30 108 O 9.8766 1.64421 -0.763903 0
M  V30 109 C 9.9246 -0.453635 -3.57735 0
M  V30 110 O 9.0286 0.538151 -4.08874 0
M  V30 111 H 8.3696 -0.159855 -0.644471 0
M  V30 112 H 10.8996 -1.07488 -1.7409 0
M  V30 113 H 10.9096 -0.318464 -4.06755 0
M  V30 114 H 9.5846 -1.45784 -3.89512 0
M  V30 115 H 8.1616 0.364359 -3.71116 0
M  V30 116 N 10.3467 1.47872 -0.545128 0
M  V30 117 C 11.2787 2.27869 0.246621 0
M  V30 118 C 12.2917 1.36282 0.890561 0
M  V30 119 O 13.4807 1.61207 0.766449 0
M  V30 120 C 10.5807 3.10159 1.36582 0
M  V30 121 C 9.7537 4.29627 0.820954 0
M  V30 122 C 8.8127 4.93607 1.82314 0
M  V30 123 O 7.8387 5.52366 1.37406 0
M  V30 124 N 9.0407 4.87211 3.15603 0
M  V30 125 H 11.8057 2.96459 -0.439539 0
M  V30 126 H 9.3667 1.57367 -0.380421 0
M  V30 127 H 11.3587 3.49829 2.03474 0
M  V30 128 H 9.9287 2.43891 1.9554 0
M  V30 129 H 9.1487 3.94192 -0.0244032 0
M  V30 130 H 10.4367 5.06928 0.436063 0
M  V30 131 H 9.8347 4.40651 3.54744 0
M  V30 132 H 8.3917 5.30937 3.78087 0
M  V30 133 N 11.8248 0.280983 1.55075 0
M  V30 134 C 12.7878 -0.590896 2.21452 0
M  V30 135 C 13.7878 -1.07682 1.19421 0
M  V30 136 O 14.9778 -0.97605 1.44288 0
M  V30 137 C 12.1098 -1.81587 2.88511 0
M  V30 138 H 13.3028 -0.0112554 2.99898 0
M  V30 139 H 10.8558 0.0316438 1.56268 0
M  V30 140 H 11.5908 -2.43587 2.14093 0
M  V30 141 H 11.3758 -1.4753 3.63287 0
M  V30 142 H 12.8658 -2.43575 3.39206 0
M  V30 143 N 13.3029 -1.57598 0.00835791 0
M  V30 144 C 14.7189 -1.55764 -0.347822 0
M  V30 145 C 14.9189 -1.01186 -1.74252 0
M  V30 146 O 13.9749 -0.649371 -2.44007 0
M  V30 147 C 15.2879 -2.99927 -0.215407 0
M  V30 148 C 16.8359 -3.11656 -0.289725 0
M  V30 149 C 17.3109 -4.57621 -0.18634 0
M  V30 150 N 18.8019 -4.62557 -0.243978 0
M  V30 151 C 19.5369 -5.73094 -0.18745 0
M  V30 152 N 19.0329 -6.92753 -0.0810331 0
M  V30 153 N 20.8259 -5.61588 -0.239925 0
M  V30 154 H 12.9769 -1.91411 0.92062 0
M  V30 155 H 15.2399 -0.879562 0.353659 0
M  V30 156 H 14.9459 -3.43729 0.744512 0
M  V30 157 H 14.8199 -3.63865 -0.994097 0
M  V30 158 H 17.2069 -2.67779 -1.24009 0
M  V30 159 H 17.2879 -2.5048 0.51898 0
M  V30 160 H 16.9319 -5.02174 0.760519 0
M  V30 161 H 16.8619 -5.16752 -1.01364 0
M  V30 162 H 19.3529 -3.76481 -0.327217 0
M  V30 163 H 19.6659 -7.72787 -0.0440241 0
M  V30 164 H 18.0109 -6.94984 -0.0465419 0
M  V30 165 H 21.2019 -4.66996 -0.321317 0
M  V30 166 H 21.3749 -6.47714 -0.192407 0
M  V30 167 N 14.781 0.264519 -1.55364 0
M  V30 168 C 16.029 0.993021 -1.76021 0
M  V30 169 C 16.35 1.86511 -0.569099 0
M  V30 170 O 15.62 1.91438 0.415735 0
M  V30 171 H 14.2 0.369639 -0.649135 0
M  V30 172 H 16.862 0.286707 -1.9278 0
M  V30 173 H 15.958 1.62502 -2.66457 0
M  V30 174 N 16.2591 1.48442 0.529413 0
M  V30 175 C 17.2221 1.62524 1.61612 0
M  V30 176 C 18.2221 0.498509 1.52877 0
M  V30 177 O 19.4121 0.76431 1.56537 0
M  V30 178 C 16.5441 1.59597 3.01233 0
M  V30 179 H 17.7371 2.59423 1.50465 0
M  V30 180 H 15.2901 1.37047 0.751514 0
M  V30 181 H 16.0251 0.641781 3.17886 0
M  V30 182 H 15.8101 2.41397 3.08982 0
M  V30 183 H 17.3001 1.72646 3.80241 0
M  V30 184 N 17.7372 -0.778329 1.37039 0
M  V30 185 C 18.6672 -1.90546 1.34962 0
M  V30 186 C 19.6482 -1.68681 0.219274 0
M  V30 187 O 20.8332 -1.89634 0.418624 0
M  V30 188 C 17.9632 -3.27734 1.14925 0
M  V30 189 C 16.9172 -3.64147 2.24902 0
M  V30 190 C 16.2432 -4.99806 1.89996 0
M  V30 191 C 17.5432 -3.71579 3.67051 0
M  V30 192 H 19.2372 -1.92541 2.29277 0
M  V30 193 H 16.7832 -0.924948 1.10366 0
M  V30 194 H 18.7362 -4.06215 1.12104 0
M  V30 195 H 17.4602 -3.26154 0.170631 0
M  V30 196 H 16.1192 -2.8797 2.26868 0
M  V30 197 H 15.7672 -4.94759 0.906796 0
M  V30 198 H 15.4672 -5.25139 2.63634 0
M  V30 199 H 16.9912 -5.80694 1.88749 0
M  V30 200 H 18.4052 -4.40227 3.67251 0
M  V30 201 H 16.8022 -4.08405 4.39688 0
M  V30 202 H 17.8722 -2.72404 4.01154 0
M  V30 203 N 19.2153 -1.21501 -1.00376 0
M  V30 204 C 20.4433 -1.059 -1.77744 0
M  V30 205 C 20.8583 0.391125 -1.84704 0
M  V30 206 O 20.2153 1.27133 -1.30933 0
M  V30 207 C 20.2663 -1.65111 -3.21591 0
M  V30 208 O 19.9873 -3.0445 -3.15027 0
M  V30 209 C 21.4883 -1.54637 -4.15454 0
M  V30 210 H 18.7083 -0.371825 -0.558558 0
M  V30 211 H 21.2523 -1.60865 -1.26264 0
M  V30 212 H 19.4073 -1.14235 -3.70175 0
M  V30 213 H 19.8213 -3.3278 -4.0541 0
M  V30 214 H 21.2953 -2.00808 -5.14179 0
M  V30 215 H 21.7723 -0.501022 -4.36333 0
M  V30 216 H 22.3783 -2.04767 -3.72761 0
M  V30 217 N 20.6934 1.19889 -1.02296 0
M  V30 218 C 21.6564 2.21116 -0.603351 0
M  V30 219 C 22.6564 1.5738 0.329884 0
M  V30 220 O 23.8464 1.73802 0.117702 0
M  V30 221 C 20.9784 3.40696 0.117992 0
M  V30 222 H 22.1714 2.59754 -1.49893 0
M  V30 223 H 19.7244 1.33463 -0.813468 0
M  V30 224 H 20.4594 3.07569 1.0282 0
M  V30 225 H 20.2444 3.88188 -0.552511 0
M  V30 226 H 21.7344 4.15692 0.398696 0
M  V30 227 N 22.1715 0.800033 1.35784 0
M  V30 228 C 23.4175 0.377901 1.99248 0
M  V30 229 C 23.7505 -1.05052 1.63333 0
M  V30 230 O 23.0255 -1.72768 0.893385 0
M  V30 231 C 23.3085 0.553922 3.55814 0
M  V30 232 C 23.1615 2.0268 4.01548 0
M  V30 233 C 24.4805 -0.0244802 4.40093 0
M  V30 234 H 21.5995 0.138782 0.723815 0
M  V30 235 H 24.2415 1.00835 1.61035 0
M  V30 236 H 22.3915 0.0172398 3.88496 0
M  V30 237 H 24.0635 2.62536 3.79305 0
M  V30 238 H 22.3065 2.5256 3.52698 0
M  V30 239 H 22.9775 2.10087 5.10458 0
M  V30 240 H 25.4535 0.433775 4.13833 0
M  V30 241 H 24.3295 0.128637 5.48749 0
M  V30 242 H 24.5905 -1.11758 4.27741 0
M  V30 243 N 23.6496 -1.47581 0.552962 0
M  V30 244 C 24.8956 -2.02782 0.0273648 0
M  V30 245 C 25.2286 -1.42687 -1.31734 0
M  V30 246 O 24.5036 -0.580897 -1.85623 0
M  V30 247 C 24.7866 -3.60031 -0.0702371 0
M  V30 248 C 24.6396 -4.30566 1.30126 0
M  V30 249 C 25.9586 -4.33028 -0.785771 0
M  V30 250 H 23.0776 -0.736912 0.0114185 0
M  V30 251 H 25.7196 -1.76056 0.714432 0
M  V30 252 H 23.8696 -3.82932 -0.655382 0
M  V30 253 H 25.5416 -4.19018 1.92929 0
M  V30 254 H 23.7846 -3.91086 1.87709 0
M  V30 255 H 24.4556 -5.39114 1.18573 0
M  V30 256 H 26.9316 -4.15095 -0.288982 0
M  V30 257 H 25.8076 -5.42695 -0.823013 0
M  V30 258 H 26.0686 -4.01945 -1.841 0
M  V30 259 N 25.1277 -0.289203 -1.54924 0
M  V30 260 C 26.0907 0.579144 -2.21762 0
M  V30 261 C 27.0907 1.07047 -1.1999 0
M  V30 262 O 28.2807 0.968384 -1.44803 0
M  V30 263 C 25.4127 1.80055 -2.8947 0
M  V30 264 H 26.6057 -0.00464908 -2.999 0
M  V30 265 H 24.1587 -0.0399306 -1.56249 0
M  V30 266 H 24.8937 2.42449 -2.15381 0
M  V30 267 H 24.6787 1.45602 -3.64064 0
M  V30 268 H 26.1687 2.41773 -3.40493 0
M  V30 269 N 26.6058 1.57591 -0.0167156 0
M  V30 270 C 27.8338 1.95575 0.675128 0
M  V30 271 C 28.2488 0.892542 1.6637 0
M  V30 272 O 27.6058 -0.126912 1.82058 0
M  V30 273 C 27.6568 3.33608 1.39239 0
M  V30 274 O 27.3778 4.3585 0.443444 0
M  V30 275 C 28.8788 3.86151 2.17721 0
M  V30 276 H 26.0988 0.644423 0.186978 0
M  V30 277 H 28.6428 2.0437 -0.0728 0
M  V30 278 H 26.7978 3.2607 2.09182 0
M  V30 279 H 27.2118 5.158 0.951358 0
M  V30 280 H 28.6858 4.85114 2.63379 0
M  V30 281 H 29.1628 3.19738 3.01105 0
M  V30 282 H 29.7688 3.96918 1.52761 0
M  V30 283 N 28.0839 -0.256276 1.55502 0
M  V30 284 C 29.0139 -1.32102 1.92539 0
M  V30 285 C 29.9949 -1.50684 0.789194 0
M  V30 286 O 31.1799 -1.63449 1.04872 0
M  V30 287 C 28.3099 -2.67752 2.21192 0
M  V30 288 C 27.2639 -2.63878 3.36975 0
M  V30 289 C 26.5899 -4.03236 3.51147 0
M  V30 290 C 27.8899 -2.21682 4.72921 0
M  V30 291 H 29.5839 -1.01351 2.81724 0
M  V30 292 H 27.1299 -0.486105 1.35547 0
M  V30 293 H 29.0829 -3.42365 2.45691 0
M  V30 294 H 27.8069 -3.0012 1.28824 0
M  V30 295 H 26.4659 -1.91722 3.12471 0
M  V30 296 H 26.1139 -4.32854 2.56216 0
M  V30 297 H 25.8139 -4.01535 4.29003 0
M  V30 298 H 27.3379 -4.79563 3.77957 0
M  V30 299 H 28.7519 -2.86023 4.96854 0
M  V30 300 H 27.1489 -2.3111 5.53812 0
M  V30 301 H 28.2189 -1.16833 4.70615 0
M  V30 302 N 29.562 -1.4872 -0.521534 0
M  V30 303 C 30.525 -1.63379 -1.60748 0
M  V30 304 C 31.525 -0.50661 -1.52611 0
M  V30 305 O 32.715 -0.772601 -1.5613 0
M  V30 306 C 29.847 -1.61192 -3.00383 0
M  V30 307 H 31.04 -2.60217 -1.49087 0
M  V30 308 H 28.593 -1.37444 -0.744235 0
M  V30 309 H 29.328 -0.65863 -3.17541 0
M  V30 310 H 29.113 -2.43032 -3.07698 0
M  V30 311 H 30.603 -1.7466 -3.7932 0
M  V30 312 N 31.0401 0.771051 -1.3745 0
M  V30 313 C 31.9701 1.89827 -1.3597 0
M  V30 314 C 32.9511 1.68562 -0.228216 0
M  V30 315 O 34.1361 1.8941 -0.428675 0
M  V30 316 C 31.2661 3.2712 -1.16662 0
M  V30 317 C 30.2201 3.6295 -2.2683 0
M  V30 318 C 29.5461 4.98791 -1.92644 0
M  V30 319 C 30.8461 3.69627 -3.69017 0
M  V30 320 H 32.5401 1.91323 -2.30295 0
M  V30 321 H 30.0861 0.919082 -1.10855 0
M  V30 322 H 32.0391 4.05615 -1.14256 0
M  V30 323 H 30.7631 3.26059 -0.187926 0
M  V30 324 H 29.4221 2.86763 -2.28392 0
M  V30 325 H 29.0701 4.94271 -0.933021 0
M  V30 326 H 28.7701 5.23733 -2.66416 0
M  V30 327 H 30.2941 5.79685 -1.91826 0
M  V30 328 H 31.7081 4.38273 -3.69581 0
M  V30 329 H 30.1051 4.06067 -4.41848 0
M  V30 330 H 31.1751 2.70273 -4.02592 0
M  V30 331 N 32.5182 1.22032 0.997298 0
M  V30 332 C 33.4812 0.987909 2.06816 0
M  V30 333 C 34.4812 -0.0440084 1.6074 0
M  V30 334 O 35.6712 0.194053 1.73116 0
M  V30 335 C 32.8032 0.49132 3.37341 0
M  V30 336 H 33.9962 1.93803 2.28868 0
M  V30 337 H 31.5492 1.03838 1.16822 0
M  V30 338 H 32.2842 -0.463364 3.20973 0
M  V30 339 H 32.0692 1.23575 3.72118 0
M  V30 340 H 33.5592 0.348824 4.16141 0
M  V30 341 N 33.9963 -1.19345 1.0293 0
M  V30 342 C 34.9263 -2.2481 0.631105 0
M  V30 343 C 35.9073 -1.66245 -0.360104 0
M  V30 344 O 37.0923 -1.92677 -0.242726 0
M  V30 345 C 34.2223 -3.47295 -0.0184607 0
M  V30 346 C 33.1763 -4.18536 0.895073 0
M  V30 347 C 32.5023 -5.34586 0.110592 0
M  V30 348 C 33.8023 -4.73287 2.209 0
M  V30 349 H 35.4963 -2.58372 1.51275 0
M  V30 350 H 33.0423 -1.24194 0.728818 0
M  V30 351 H 34.9953 -4.20268 -0.308675 0
M  V30 352 H 33.7193 -3.12933 -0.934907 0
M  V30 353 H 32.3783 -3.47446 1.16949 0
M  V30 354 H 32.0263 -4.96469 -0.807902 0
M  V30 355 H 31.7263 -5.83183 0.719087 0
M  V30 356 H 33.2503 -6.10355 -0.172871 0
M  V30 357 H 34.6643 -5.38013 1.98028 0
M  V30 358 H 33.0613 -5.32373 2.76946 0
M  V30 359 H 34.1313 -3.91331 2.86336 0
M  V30 360 N 35.4744 -0.807222 -1.35358 0
M  V30 361 C 36.4374 -0.223665 -2.28106 0
M  V30 362 C 37.4374 0.589354 -1.4961 0
M  V30 363 O 38.6274 0.407745 -1.69361 0
M  V30 364 C 35.7594 0.688149 -3.33882 0
M  V30 365 H 36.9524 -1.04169 -2.81227 0
M  V30 366 H 34.5054 -0.577921 -1.45223 0
M  V30 367 H 35.2404 1.52984 -2.85948 0
M  V30 368 H 35.0254 0.10687 -3.91954 0
M  V30 369 H 36.5154 1.09075 -4.03104 0
M  V30 370 N 36.9525 1.47285 -0.560781 0
M  V30 371 C 38.2005 2.02064 -0.0379868 0
M  V30 372 C 38.5215 1.43711 1.31803 0
M  V30 373 O 37.7915 0.61362 1.86042 0
M  V30 374 H 36.3715 0.746918 -0.0110531 0
M  V30 375 H 39.0335 1.80648 -0.731598 0
M  V30 376 H 38.1295 3.12064 0.0474463 0
M  V30 377 N 38.4306 0.297415 1.54768 0
M  V30 378 C 39.6556 -0.318435 2.04941 0
M  V30 379 C 40.0806 -1.4701 1.17345 0
M  V30 380 O 39.4386 -1.80436 0.176758 0
M  V30 381 C 39.4866 -0.755749 3.52592 0
M  V30 382 O 38.5906 -1.86088 3.68028 0
M  V30 383 H 37.9316 -0.062421 0.661059 0
M  V30 384 H 40.4616 0.438215 1.99852 0
M  V30 385 H 40.4716 -1.04552 3.94376 0
M  V30 386 H 39.1466 0.0867233 4.1581 0
M  V30 387 H 37.7236 -1.57193 3.38149 0
M  V30 388 N 39.9087 -1.5758 0.0250728 0
M  V30 389 C 41.1567 -1.91255 -0.653151 0
M  V30 390 C 41.4777 -0.901691 -1.729 0
M  V30 391 O 40.7477 0.0573785 -1.95816 0
M  V30 392 H 39.3277 -0.705942 -0.244243 0
M  V30 393 H 41.9897 -1.94767 0.0719209 0
M  V30 394 H 41.0857 -2.91752 -1.10847 0
M  V30 395 N 41.3868 0.248026 -1.55636 0
M  V30 396 C 42.6148 0.993808 -1.81469 0
M  V30 397 C 43.0298 1.78991 -0.60064 0
M  V30 398 O 42.3868 1.77345 0.430682 0
M  V30 399 C 42.4378 1.93258 -3.05506 0
M  V30 400 O 42.1588 1.16869 -4.22224 0
M  V30 401 C 43.6598 2.79444 -3.4413 0
M  V30 402 H 40.8798 0.292486 -0.603898 0
M  V30 403 H 43.4238 0.271253 -2.02693 0
M  V30 404 H 41.5788 2.60943 -2.86335 0
M  V30 405 H 41.9928 1.80359 -4.92515 0
M  V30 406 H 43.4668 3.41066 -4.34026 0
M  V30 407 H 43.9438 3.50499 -2.64665 0
M  V30 408 H 44.5498 2.17214 -3.65648 0
M  V30 409 N 42.8649 1.48995 0.513639 0
M  V30 410 C 43.8279 1.64229 1.59879 0
M  V30 411 C 44.8279 0.514696 1.5234 0
M  V30 412 O 46.0179 0.78087 1.55718 0
M  V30 413 C 43.1499 1.62783 2.99524 0
M  V30 414 H 44.3429 2.61004 1.47705 0
M  V30 415 H 41.8959 1.37837 0.736936 0
M  V30 416 H 42.6309 0.675461 3.17188 0
M  V30 417 H 42.4159 2.4466 3.06404 0
M  V30 418 H 43.9059 1.76669 3.78388 0
M  V30 419 N 44.343 -0.763751 1.37857 0
M  V30 420 C 45.273 -1.89103 1.36975 0
M  V30 421 C 46.254 -1.68439 0.237152 0
M  V30 422 O 47.439 -1.8918 0.438713 0
M  V30 423 C 44.569 -3.26496 1.18395 0
M  V30 424 C 43.523 -3.61741 2.28751 0
M  V30 425 C 42.849 -4.97762 1.95286 0
M  V30 426 C 44.149 -3.67665 3.70972 0
M  V30 427 H 45.843 -1.90099 2.31307 0
M  V30 428 H 43.389 -0.91319 1.11341 0
M  V30 429 H 45.342 -4.05003 1.16406 0
M  V30 430 H 44.066 -3.25955 0.205215 0
M  V30 431 H 42.725 -2.85547 2.29909 0
M  V30 432 H 42.373 -4.93769 0.959221 0
M  V30 433 H 42.073 -5.22313 2.69189 0
M  V30 434 H 43.597 -5.7866 1.94898 0
M  V30 435 H 45.011 -4.36307 3.719 0
M  V30 436 H 43.408 -4.03718 4.43995 0
M  V30 437 H 44.478 -2.68134 4.0402 0
M  V30 438 N 45.8211 -1.22559 -0.990812 0
M  V30 439 C 46.7841 -0.998863 -2.0629 0
M  V30 440 C 47.7841 0.0354834 -1.60761 0
M  V30 441 O 48.9741 -0.203231 -1.7301 0
M  V30 442 C 46.1061 -0.509203 -3.37076 0
M  V30 443 H 47.2991 -1.95014 -2.27837 0
M  V30 444 H 44.8521 -1.04456 -1.16269 0
M  V30 445 H 45.5871 0.446335 -3.21214 0
M  V30 446 H 45.3721 -1.25547 -3.71457 0
M  V30 447 H 46.8621 -0.370888 -4.1595 0
M  V30 448 N 47.2992 1.18797 -1.03562 0
M  V30 449 C 48.2622 2.20464 -0.626769 0
M  V30 450 C 49.2622 1.57721 0.313173 0
M  V30 451 O 50.4522 1.73917 0.0992615 0
M  V30 452 C 47.5842 3.40802 0.0818498 0
M  V30 453 H 48.7772 2.58149 -1.5264 0
M  V30 454 H 46.3302 1.32593 -0.827578 0
M  V30 455 H 47.0652 3.08642 0.995518 0
M  V30 456 H 46.8502 3.8758 -0.593652 0
M  V30 457 H 48.3402 4.16092 0.354584 0
M  V30 458 N 48.7773 0.814389 1.34928 0
M  V30 459 C 50.0023 0.410097 2.03305 0
M  V30 460 C 50.4273 -0.973464 1.60951 0
M  V30 461 O 49.7853 -1.63185 0.789964 0
M  V30 462 C 49.8333 0.51049 3.56968 0
M  V30 463 O 48.9373 -0.473035 4.09678 0
M  V30 464 H 48.2783 0.170088 0.641846 0
M  V30 465 H 50.8083 1.10244 1.72358 0
M  V30 466 H 50.8183 0.383135 4.06197 0
M  V30 467 H 49.4933 1.51963 3.87144 0
M  V30 468 H 48.0703 -0.305272 3.71648 0
M  V30 469 N 50.2554 -1.46986 0.568584 0
M  V30 470 C 51.6664 -1.86188 0.138219 0
M  V30 471 C 52.0174 -1.47388 -1.29504 0
M  V30 472 O 51.1424 -0.88219 -1.97602 0
M  V30 473 C 51.7374 -3.3792 0.244065 0
M  V30 474 C 50.2964 -3.76171 -0.131335 0
M  V30 475 C 49.4434 -2.71027 0.586465 0
M  V30 476 H 52.3944 -1.38342 0.777645 0
M  V30 477 H 52.4154 -3.76729 -0.534351 0
M  V30 478 H 51.9274 -3.66128 1.28731 0
M  V30 479 H 50.0284 -3.5358 -1.17526 0
M  V30 480 H 50.1414 -4.78523 0.235146 0
M  V30 481 H 48.5054 -2.54684 0.0282722 0
M  V30 482 H 49.2884 -3.02077 1.63109 0
M  V30 483 N 51.7335 -0.305618 -1.54608 0
M  V30 484 C 52.9825 0.303098 -1.9941 0
M  V30 485 C 53.2955 1.54648 -1.19764 0
M  V30 486 O 54.5015 2.23007 -1.54855 0
M  V30 487 C 52.9575 0.590588 -3.55021 0
M  V30 488 C 52.5655 -0.634719 -4.43481 0
M  V30 489 C 54.3095 1.16025 -4.08336 0
M  V30 490 C 52.2165 -0.320126 -5.90533 0
M  V30 491 H 51.1465 0.117031 -0.744862 0
M  V30 492 H 53.7975 -0.415045 -1.78745 0
M  V30 493 H 52.1795 1.36845 -3.71604 0
M  V30 494 H 53.3535 -1.41079 -4.38672 0
M  V30 495 H 51.6685 -1.12333 -4.00962 0
M  V30 496 H 54.2655 1.40994 -5.15776 0
M  V30 497 H 54.6085 2.10397 -3.5922 0
M  V30 498 H 55.1415 0.443985 -3.95315 0
M  V30 499 H 51.8805 -1.23254 -6.43808 0
M  V30 500 H 51.4005 0.418579 -5.98338 0
M  V30 501 H 53.0795 0.0766241 -6.46955 0
M  V30 502 N 53.2116 1.57565 -0.0334293 0
M  V30 503 C 54.4596 1.91598 0.642999 0
M  V30 504 C 54.7806 0.910847 1.7242 0
M  V30 505 O 54.0506 -0.0469931 1.95844 0
M  V30 506 H 52.6306 0.707228 0.240496 0
M  V30 507 H 55.2926 1.94726 -0.0822488 0
M  V30 508 H 54.3886 2.92336 1.09298 0
M  V30 509 N 54.6897 -0.239769 1.55765 0
M  V30 510 C 55.5997 -1.31831 1.94056 0
M  V30 511 C 56.6157 -1.52275 0.841925 0
M  V30 512 O 57.7917 -1.65759 1.14394 0
M  V30 513 C 54.8567 -2.65156 2.23368 0
M  V30 514 C 53.9177 -2.53173 3.46701 0
M  V30 515 C 53.1507 -3.8014 3.74606 0
M  V30 516 O 53.3737 -4.82343 3.04469 0
M  V30 517 O 52.3077 -3.78344 4.68123 0
M  V30 518 H 56.1337 -1.02347 2.85935 0
M  V30 519 H 53.7187 -0.441123 1.42739 0
M  V30 520 H 55.6007 -3.43929 2.43497 0
M  V30 521 H 54.2757 -2.94358 1.34666 0
M  V30 522 H 53.1827 -1.72662 3.31871 0
M  V30 523 H 54.5157 -2.28915 4.35728 0
M  V30 524 N 56.1678 -1.49265 -0.50573 0
M  V30 525 C 57.4158 -1.582 -1.25766 0
M  V30 526 C 57.7368 -0.268482 -1.93143 0
M  V30 527 O 57.0068 0.711833 -1.8251 0
M  V30 528 H 55.5868 -0.582873 -0.467191 0
M  V30 529 H 58.2488 -1.85865 -0.586525 0
M  V30 530 H 57.3448 -2.37563 -2.02412 0
M  V30 531 N 57.6459 0.756429 -1.3826 0
M  V30 532 C 58.8739 1.54565 -1.3754 0
M  V30 533 C 59.2889 1.88767 0.0355331 0
M  V30 534 O 58.6459 1.52572 1.0014 0
M  V30 535 C 58.6969 2.84654 -2.22833 0
M  V30 536 O 58.4179 2.51912 -3.5843 0
M  V30 537 C 59.9189 3.78807 -2.30261 0
M  V30 538 H 57.1389 0.478353 -0.470553 0
M  V30 539 H 59.6829 0.936381 -1.81803 0
M  V30 540 H 57.8379 3.41965 -1.8204 0
M  V30 541 H 58.2519 3.35325 -4.03308 0
M  V30 542 H 59.7259 4.67045 -2.94233 0
M  V30 543 H 60.2029 4.19038 -1.31545 0
M  V30 544 H 60.8089 3.2742 -2.71433 0
M  V30 545 N 59.124 1.23083 0.984299 0
M  V30 546 C 60.371 1.06057 1.72505 0
M  V30 547 C 60.699 -0.403105 1.90277 0
M  V30 548 O 59.954 -1.3149 1.44944 0
M  V30 549 C 60.253 1.72673 3.1292 0
M  V30 550 C 59.919 3.22586 3.15038 0
M  V30 551 C 58.581 3.63489 3.15324 0
M  V30 552 C 60.933 4.185 3.10657 0
M  V30 553 C 58.261 4.98772 3.08939 0
M  V30 554 C 60.613 5.53769 3.05814 0
M  V30 555 C 59.277 5.94041 3.04419 0
M  V30 556 H 58.547 0.388091 0.631242 0
M  V30 557 H 61.194 1.52963 1.15215 0
M  V30 558 H 59.499 1.18116 3.73572 0
M  V30 559 H 61.196 1.56982 3.68996 0
M  V30 560 H 57.786 2.90022 3.15571 0
M  V30 561 H 61.97 3.87911 3.09579 0
M  V30 562 H 57.226 5.29193 3.0621 0
M  V30 563 H 61.4 6.27808 3.0138 0
M  V30 564 H 59.027 6.98833 2.99227 0
M  V30 565 N 60.6021 -1.18246 1.0419 0
M  V30 566 C 61.8791 -1.84121 0.660208 0
M  V30 567 C 62.2591 -1.92778 -0.860221 0
M  V30 568 O 61.6071 -1.45464 -1.76217 0
M  V30 569 C 61.8171 -3.22355 1.33747 0
M  V30 570 C 63.1651 -3.98376 1.46906 0
M  V30 571 O 64.1891 -3.31799 1.29568 0
M  V30 572 O 63.0481 -5.17665 1.75171 0
M  V30 573 H 60.1421 -0.794036 0.231161 0
M  V30 574 H 62.6881 -1.25628 1.14087 0
M  V30 575 H 61.4601 -3.10964 2.37522 0
M  V30 576 H 61.0831 -3.88506 0.845515 0
M  V30 577 N 62.0802 -0.821533 -1.34494 0
M  V30 578 C 63.3572 -0.33159 -1.92769 0
M  V30 579 C 63.7372 1.18088 -1.74981 0
M  V30 580 O 63.0852 1.98733 -1.12772 0
M  V30 581 C 63.2952 -0.759398 -3.40638 0
M  V30 582 C 64.6432 -0.757433 -4.1779 0
M  V30 583 O 65.6672 -0.70189 -3.49216 0
M  V30 584 O 64.5262 -0.829361 -5.4017 0
M  V30 585 H 61.6202 -0.0902502 -0.822061 0
M  V30 586 H 64.1662 -0.906231 -1.43477 0
M  V30 587 H 62.9382 -1.8012 -3.47379 0
M  V30 588 H 62.5612 -0.160378 -3.97276 0
M  V30 589 N 63.5583 1.46682 -0.576371 0
M  V30 590 C 64.8063 2.02013 -0.0594163 0
M  V30 591 C 65.1273 1.45101 1.30271 0
M  V30 592 O 64.3973 0.633317 1.8538 0
M  V30 593 H 62.9773 0.746759 -0.0189745 0
M  V30 594 H 65.6393 1.79862 -0.750717 0
M  V30 595 H 64.7353 3.12097 0.014345 0
M  V30 596 N 65.0364 0.313813 1.54444 0
M  V30 597 C 66.4474 -0.176243 1.85866 0
M  V30 598 C 66.7984 -1.52405 1.23561 0
M  V30 599 O 65.9234 -2.09605 0.538016 0
M  V30 600 C 66.5184 -0.32657 3.37222 0
M  V30 601 C 65.0774 -0.760846 3.6863 0
M  V30 602 C 64.2244 0.123247 2.77026 0
M  V30 603 H 67.1754 0.534418 1.49431 0
M  V30 604 H 67.1964 -1.15908 3.62416 0
M  V30 605 H 66.7084 0.654531 3.82541 0
M  V30 606 H 64.8094 -1.75204 3.28838 0
M  V30 607 H 64.9224 -0.571353 4.75681 0
M  V30 608 H 63.2864 -0.399597 2.51546 0
M  V30 609 H 64.0694 1.10094 3.25168 0
M  V30 610 N 66.5145 -1.57545 0.0417849 0
M  V30 611 C 67.4245 -2.14451 -0.951213 0
M  V30 612 C 68.4405 -1.09992 -1.34825 0
M  V30 613 O 69.6165 -1.42114 -1.42708 0
M  V30 614 C 66.6815 -2.67063 -2.21084 0
M  V30 615 C 65.7425 -3.86284 -1.87304 0
M  V30 616 C 64.9755 -4.36378 -3.07261 0
M  V30 617 O 65.1985 -3.85587 -4.20332 0
M  V30 618 O 64.1325 -5.28077 -2.88822 0
M  V30 619 H 67.9585 -2.99601 -0.497287 0
M  V30 620 H 65.5435 -1.48317 -0.179567 0
M  V30 621 H 67.4255 -3.00914 -2.95006 0
M  V30 622 H 66.1005 -1.84989 -2.65633 0
M  V30 623 H 65.0075 -3.57338 -1.10727 0
M  V30 624 H 66.3405 -4.6956 -1.47562 0
M  V30 625 N 67.9926 0.231505 -1.5589 0
M  V30 626 C 69.2406 0.955461 -1.78088 0
M  V30 627 C 69.5616 1.85262 -0.608533 0
M  V30 628 O 68.8316 1.92277 0.375035 0
M  V30 629 H 67.4116 0.355787 -0.656829 0
M  V30 630 H 70.0736 0.245751 -1.93344 0
M  V30 631 H 69.1696 1.56814 -2.69844 0
M  V30 632 N 69.4707 1.49531 0.497807 0
M  V30 633 C 70.7167 1.60388 1.25089 0
M  V30 634 C 71.0717 0.288328 1.90227 0
M  V30 635 O 70.3647 -0.711706 1.77891 0
M  V30 636 C 70.5587 2.70252 2.33878 0
M  V30 637 C 70.3877 4.12363 1.79408 0
M  V30 638 C 69.1577 4.7911 1.60566 0
M  V30 639 C 71.3557 4.97491 1.30412 0
M  V30 640 N 69.3377 6.05525 1.01059 0
M  V30 641 C 70.7087 6.14411 0.830595 0
M  V30 642 C 72.7637 4.83466 1.19015 0
M  V30 643 C 71.4667 7.1885 0.254371 0
M  V30 644 C 73.4927 5.88057 0.627892 0
M  V30 645 C 72.8547 7.04208 0.16461 0
M  V30 646 H 68.9537 0.641246 0.447579 0
M  V30 647 H 71.5377 1.86549 0.557441 0
M  V30 648 H 69.7087 2.45858 3.0068 0
M  V30 649 H 71.4407 2.70613 3.00917 0
M  V30 650 H 68.1957 4.35961 1.85026 0
M  V30 651 H 68.6197 6.73028 0.732236 0
M  V30 652 H 73.2617 3.93978 1.53431 0
M  V30 653 H 70.9797 8.08036 -0.102052 0
M  V30 654 H 74.5657 5.79266 0.542444 0
M  V30 655 H 73.4457 7.83757 -0.263669 0
M  V30 656 N 70.9488 -0.749086 1.3866 0
M  V30 657 C 72.1948 -1.51056 1.35314 0
M  V30 658 C 72.5278 -1.94121 -0.0553751 0
M  V30 659 O 71.8028 -1.65763 -1.01749 0
M  V30 660 C 72.0858 -2.76003 2.31288 0
M  V30 661 C 71.9388 -2.39047 3.8102 0
M  V30 662 C 73.2578 -3.78046 2.2532 0
M  V30 663 H 70.3768 -0.547972 0.492844 0
M  V30 664 H 73.0188 -0.857628 1.69543 0
M  V30 665 H 71.1688 -3.31716 2.02229 0
M  V30 666 H 72.8408 -1.89074 4.20771 0
M  V30 667 H 71.0838 -1.71449 3.98482 0
M  V30 668 H 71.7548 -3.28462 4.4364 0
M  V30 669 H 74.2308 -3.31884 2.50983 0
M  V30 670 H 73.1068 -4.63159 2.94576 0
M  V30 671 H 73.3678 -4.23957 1.25352 0
M  V30 672 N 72.4269 -1.23603 -0.977757 0
M  V30 673 C 73.3899 -1.02069 -2.05218 0
M  V30 674 C 74.3899 0.0184305 -1.60789 0
M  V30 675 O 75.5799 -0.221569 -1.72785 0
M  V30 676 C 72.7119 -0.544926 -3.36517 0
M  V30 677 H 73.9049 -1.9742 -2.25755 0
M  V30 678 H 71.4579 -1.05684 -1.15155 0
M  V30 679 H 72.1929 0.412241 -3.21669 0
M  V30 680 H 71.9779 -1.2948 -3.70105 0
M  V30 681 H 73.4679 -0.414985 -4.15533 0
M  V30 682 N 73.905 1.17692 -1.04816 0
M  V30 683 C 75.135 1.91508 -0.775128 0
M  V30 684 C 75.543 1.76844 0.67253 0
M  V30 685 O 74.886 1.10057 1.47082 0
M  V30 686 C 74.948 3.43167 -1.0713 0
M  V30 687 C 74.612 3.81612 -2.51438 0
M  V30 688 C 75.609 3.84772 -3.49638 0
M  V30 689 C 73.294 4.12687 -2.86348 0
M  V30 690 C 75.288 4.18469 -4.80794 0
M  V30 691 C 72.975 4.46053 -4.17708 0
M  V30 692 C 73.973 4.48921 -5.14741 0
M  V30 693 O 73.661 4.81504 -6.43746 0
M  V30 694 H 73.393 0.614575 -0.281555 0
M  V30 695 H 75.947 1.50206 -1.40098 0
M  V30 696 H 74.177 3.84745 -0.388342 0
M  V30 697 H 75.866 3.98239 -0.784883 0
M  V30 698 H 76.632 3.60893 -3.24008 0
M  V30 699 H 72.511 4.09627 -2.11486 0
M  V30 700 H 76.055 4.20623 -5.56527 0
M  V30 701 H 71.952 4.69393 -4.43103 0
M  V30 702 H 72.72 4.99377 -6.4851 0
M  V30 703 N 75.3831 0.828654 1.34056 0
M  V30 704 C 76.6311 0.41863 1.97717 0
M  V30 705 C 76.9521 -1.02314 1.66002 0
M  V30 706 O 76.2221 -1.71119 0.953683 0
M  V30 707 H 74.8021 0.151809 0.731412 0
M  V30 708 H 77.4641 1.05936 1.63596 0
M  V30 709 H 76.5601 0.542318 3.07352 0
M  V30 710 N 76.8612 -1.46375 0.584142 0
M  V30 711 C 78.0892 -2.06761 0.0759296 0
M  V30 712 C 78.5042 -1.43266 -1.22965 0
M  V30 713 O 77.8612 -0.538458 -1.74376 0
M  V30 714 C 77.9122 -3.61375 -0.0950384 0
M  V30 715 O 77.6332 -4.22495 1.15887 0
M  V30 716 C 79.1342 -4.38693 -0.637434 0
M  V30 717 H 76.3542 -0.668479 0.0581075 0
M  V30 718 H 78.8982 -1.8798 0.805218 0
M  V30 719 H 77.0532 -3.79578 -0.774554 0
M  V30 720 H 77.4672 -5.15385 0.973598 0
M  V30 721 H 78.9412 -5.47464 -0.706237 0
M  V30 722 H 79.4182 -4.06836 -1.65472 0
M  V30 723 H 80.0242 -4.25299 0.00725967 0
M  V30 724 N 78.3393 -0.321999 -1.54275 0
M  V30 725 C 79.6163 0.335232 -1.92706 0
M  V30 726 C 79.9963 1.70006 -1.25145 0
M  V30 727 O 79.3443 2.25067 -0.394596 0
M  V30 728 C 79.5543 0.429008 -3.46353 0
M  V30 729 C 80.9023 0.690029 -4.18956 0
M  V30 730 O 81.9263 0.511992 -3.52501 0
M  V30 731 O 80.7853 1.03338 -5.36641 0
M  V30 732 H 77.8793 0.191143 -0.804608 0
M  V30 733 H 80.4253 -0.3716 -1.65581 0
M  V30 734 H 79.1973 -0.529611 -3.87699 0
M  V30 735 H 78.8203 1.18348 -3.79578 0
M  V30 736 N 79.8174 1.5752 -0.0501392 0
M  V30 737 C 81.0654 1.9227 0.622642 0
M  V30 738 C 81.3864 0.929083 1.71444 0
M  V30 739 O 80.6564 -0.0262186 1.95882 0
M  V30 740 H 79.2364 0.709739 0.232981 0
M  V30 741 H 81.8984 1.94628 -0.102898 0
M  V30 742 H 80.9944 2.93479 1.06191 0
M  V30 743 N 81.2955 -0.223234 1.56011 0
M  V30 744 C 82.7065 -0.790368 1.69145 0
M  V30 745 C 83.0575 -1.85055 0.651845 0
M  V30 746 O 82.1825 -2.15498 -0.197359 0
M  V30 747 C 82.7775 -1.4404 3.06656 0
M  V30 748 C 81.3365 -1.95494 3.2165 0
M  V30 749 C 80.4835 -0.814506 2.65068 0
M  V30 750 H 83.4345 0.00139011 1.587 0
M  V30 751 H 83.4555 -2.30916 3.0242 0
M  V30 752 H 82.9675 -0.668543 3.82298 0
M  V30 753 H 81.0685 -2.75487 2.50874 0
M  V30 754 H 81.1815 -2.13607 4.28846 0
M  V30 755 H 79.5455 -1.22137 2.23505 0
M  V30 756 H 80.3285 -0.0553515 3.43255 0
M  V30 757 N 82.7736 -1.49793 -0.48987 0
M  V30 758 C 83.7036 -1.70201 -1.59856 0
M  V30 759 C 84.6846 -0.55076 -1.60937 0
M  V30 760 O 85.8696 -0.787841 -1.77501 0
M  V30 761 C 82.9996 -1.77882 -2.98287 0
M  V30 762 C 81.9536 -2.92907 -3.12073 0
M  V30 763 C 81.2796 -2.85712 -4.51965 0
M  V30 764 C 82.5796 -4.3369 -2.91051 0
M  V30 765 H 84.2736 -2.63025 -1.43032 0
M  V30 766 H 81.8196 -1.26574 -0.686664 0
M  V30 767 H 83.7726 -1.90744 -3.75759 0
M  V30 768 H 82.4966 -0.816653 -3.16225 0
M  V30 769 H 81.1556 -2.79665 -2.37029 0
M  V30 770 H 80.8036 -1.8738 -4.66795 0
M  V30 771 H 80.5036 -3.62921 -4.62128 0
M  V30 772 H 82.0276 -3.00598 -5.31482 0
M  V30 773 H 83.4416 -4.47555 -3.58284 0
M  V30 774 H 81.8386 -5.12205 -3.12675 0
M  V30 775 H 82.9086 -4.47362 -1.87071 0
M  V30 776 N 84.2517 0.741722 -1.39055 0
M  V30 777 C 85.5287 1.49252 -1.26425 0
M  V30 778 C 85.9087 2.10705 0.129144 0
M  V30 779 O 85.2567 1.98045 1.13976 0
M  V30 780 C 85.4667 2.54934 -2.38347 0
M  V30 781 C 86.8147 3.21506 -2.77343 0
M  V30 782 O 87.8387 2.65245 -2.37747 0
M  V30 783 O 86.6977 4.23294 -3.45665 0
M  V30 784 H 83.7917 0.662451 -0.495064 0
M  V30 785 H 86.3377 0.776121 -1.50912 0
M  V30 786 H 85.1097 2.07857 -3.31529 0
M  V30 787 H 84.7327 3.34141 -2.15489 0
M  V30 788 N 85.7298 1.2412 0.971189 0
M  V30 789 C 86.9578 1.10575 1.74874 0
M  V30 790 C 87.3728 -0.342017 1.85676 0
M  V30 791 O 86.7298 -1.23617 1.34258 0
M  V30 792 C 86.7808 1.73579 3.171 0
M  V30 793 O 86.5018 3.12695 3.06844 0
M  V30 794 C 88.0028 1.65598 4.11208 0
M  V30 795 H 85.2228 0.386504 0.548503 0
M  V30 796 H 87.7668 1.64156 1.21955 0
M  V30 797 H 85.9218 1.24009 3.67016 0
M  V30 798 H 86.3358 3.43412 3.96445 0
M  V30 799 H 87.8098 2.1437 5.08674 0
M  V30 800 H 88.2868 0.616532 4.34851 0
M  V30 801 H 88.8928 2.14578 3.67201 0
M  V30 802 N 87.2079 -1.17134 1.05439 0
M  V30 803 C 88.4329 -1.91913 0.786396 0
M  V30 804 C 88.8579 -1.7643 -0.652234 0
M  V30 805 O 88.2159 -1.08372 -1.45345 0
M  V30 806 C 88.2639 -3.40921 1.17497 0
M  V30 807 O 87.3679 -4.11244 0.308589 0
M  V30 808 H 86.7089 -0.598215 0.288158 0
M  V30 809 H 89.2389 -1.48457 1.4079 0
M  V30 810 H 89.2489 -3.91668 1.14281 0
M  V30 811 H 87.9239 -3.5151 2.22292 0
M  V30 812 H 86.5009 -3.70731 0.40157 0
M  V30 813 N 88.686 -0.835752 -1.33615 0
M  V30 814 C 89.914 -0.443344 -2.02094 0
M  V30 815 C 90.329 0.954522 -1.62894 0
M  V30 816 O 89.686 1.61982 -0.840723 0
M  V30 817 C 89.737 -0.550775 -3.5728 0
M  V30 818 O 89.458 -1.89356 -3.95065 0
M  V30 819 C 90.959 -0.154919 -4.43029 0
M  V30 820 H 88.179 -0.176359 -0.647409 0
M  V30 821 H 90.723 -1.12746 -1.70612 0
M  V30 822 H 88.878 0.0853997 -3.87306 0
M  V30 823 H 89.292 -1.87687 -4.89769 0
M  V30 824 H 90.766 -0.281144 -5.51284 0
M  V30 825 H 91.243 0.902863 -4.2982 0
M  V30 826 H 91.849 -0.765404 -4.18356 0
M  V30 827 N 90.1641 1.46063 -0.591896 0
M  V30 828 C 91.4121 2.01938 -0.0808391 0
M  V30 829 C 91.7331 1.46475 1.28725 0
M  V30 830 O 91.0031 0.652944 1.84698 0
M  V30 831 H 89.5831 0.746516 -0.0268938 0
M  V30 832 H 92.2451 1.79055 -0.769752 0
M  V30 833 H 91.3411 3.12094 -0.0187578 0
M  V30 834 N 91.6422 0.330177 1.54103 0
M  V30 835 C 92.6052 -0.520144 2.2322 0
M  V30 836 C 93.6052 -1.03828 1.22786 0
M  V30 837 O 94.7952 -0.929652 1.4732 0
M  V30 838 C 91.9272 -1.72317 2.94142 0
M  V30 839 H 93.1202 0.0841605 2.99782 0
M  V30 840 H 90.6732 0.0813433 1.56088 0
M  V30 841 H 91.4082 -2.36653 2.21734 0
M  V30 842 H 91.1932 -1.35898 3.67796 0
M  V30 843 H 92.6832 -2.3266 3.46784 0
M  V30 844 N 93.1203 -1.57491 0.0584922 0
M  V30 845 C 94.0503 -2.14988 -0.911178 0
M  V30 846 C 95.0313 -1.07343 -1.31952 0
M  V30 847 O 96.2163 -1.35318 -1.39294 0
M  V30 848 C 93.3463 -2.70078 -2.18347 0
M  V30 849 C 92.3003 -3.82771 -1.91495 0
M  V30 850 C 91.6263 -4.24408 -3.25241 0
M  V30 851 C 92.9263 -5.07592 -1.23075 0
M  V30 852 H 94.6203 -2.96263 -0.432246 0
M  V30 853 H 92.1663 -1.42512 -0.206469 0
M  V30 854 H 94.1193 -3.08943 -2.86587 0
M  V30 855 H 92.8433 -1.86005 -2.68458 0
M  V30 856 H 91.5023 -3.44389 -1.25664 0
M  V30 857 H 91.1503 -3.37275 -3.73168 0
M  V30 858 H 90.8503 -5.00366 -3.08071 0
M  V30 859 H 92.3743 -4.65879 -3.94701 0
M  V30 860 H 93.7883 -5.43857 -1.81362 0
M  V30 861 H 92.1853 -5.88741 -1.16207 0
M  V30 862 H 93.2553 -4.84454 -0.207847 0
M  V30 863 N 94.5984 0.214957 -1.56127 0
M  V30 864 C 95.8384 0.945364 -1.81224 0
M  V30 865 C 96.2024 1.81265 -0.633005 0
M  V30 866 O 97.4034 2.57731 -0.763423 0
M  V30 867 C 95.6744 1.75665 -3.1125 0
M  V30 868 S 97.2334 2.54179 -3.57685 0
M  V30 869 H 94.0514 0.317443 -0.6362 0
M  V30 870 H 96.6534 0.210381 -1.94365 0
M  V30 871 H 95.3574 1.10977 -3.9511 0
M  V30 872 H 94.8884 2.53381 -3.00934 0
M  V30 873 H 96.9034 3.7792 -3.21545 0
M  V30 874 N 96.0765 1.50051 0.48192 0
M  V30 875 C 97.3225 1.60736 1.2366 0
M  V30 876 C 97.6555 0.301786 1.91841 0
M  V30 877 O 96.9305 -0.696025 1.8162 0
M  V30 878 C 97.2135 2.78009 2.28874 0
M  V30 879 C 97.0665 4.18416 1.65069 0
M  V30 880 C 98.3855 2.90867 3.30279 0
M  V30 881 H 95.5045 0.585031 0.448228 0
M  V30 882 H 98.1465 1.82402 0.531946 0
M  V30 883 H 96.2965 2.59667 2.88973 0
M  V30 884 H 97.9685 4.48322 1.0865 0
M  V30 885 H 96.2115 4.23177 0.954148 0
M  V30 886 H 96.8825 4.96381 2.41474 0
M  V30 887 H 99.3585 3.07623 2.80191 0
M  V30 888 H 98.2345 3.74566 4.01238 0
M  V30 889 H 98.4955 2.01021 3.93755 0
M  V30 890 N 97.5546 -0.734337 1.39446 0
M  V30 891 C 98.5176 -1.83004 1.37994 0
M  V30 892 C 99.5176 -1.58397 0.276938 0
M  V30 893 O 100.708 -1.65785 0.534875 0
M  V30 894 C 97.8396 -3.20802 1.1532 0
M  V30 895 H 99.0326 -1.85694 2.35494 0
M  V30 896 H 96.5856 -0.938059 1.25021 0
M  V30 897 H 97.3206 -3.23772 0.185036 0
M  V30 898 H 97.1056 -3.4006 1.95197 0
M  V30 899 H 98.5956 -4.00862 1.17046 0
M  V30 900 N 99.0327 -1.24633 -0.964593 0
M  V30 901 C 100.279 -1.08949 -1.71049 0
M  V30 902 C 100.612 0.370302 -1.90637 0
M  V30 903 O 99.8867 1.27349 -1.47011 0
M  V30 904 C 100.17 -1.83329 -3.0994 0
M  V30 905 C 100.023 -3.37077 -2.97824 0
M  V30 906 C 101.342 -1.60846 -4.09654 0
M  V30 907 H 98.4607 -0.397178 -0.620821 0
M  V30 908 H 101.103 -1.5334 -1.12191 0
M  V30 909 H 99.2527 -1.45597 -3.60186 0
M  V30 910 H 100.925 -3.84425 -2.5498 0
M  V30 911 H 99.1677 -3.65298 -2.33965 0
M  V30 912 H 99.8387 -3.84324 -3.96231 0
M  V30 913 H 102.315 -1.93674 -3.68279 0
M  V30 914 H 101.191 -2.1534 -5.04896 0
M  V30 915 H 101.452 -0.547434 -4.38698 0
M  V30 916 N 100.511 1.16574 -1.06058 0
M  V30 917 C 101.922 1.68662 -0.800632 0
M  V30 918 C 102.273 1.84184 0.67608 0
M  V30 919 O 101.398 1.53568 1.52466 0
M  V30 920 C 101.993 3.06356 -1.44676 0
M  V30 921 C 100.552 3.55575 -1.23465 0
M  V30 922 C 99.6988 2.31616 -1.52477 0
M  V30 923 H 102.65 1.00969 -1.22438 0
M  V30 924 H 102.671 3.70636 -0.860788 0
M  V30 925 H 102.183 2.95027 -2.52152 0
M  V30 926 H 100.284 3.72167 -0.179527 0
M  V30 927 H 100.397 4.37812 -1.94571 0
M  V30 928 H 98.7608 2.36512 -0.945209 0
M  V30 929 H 99.5438 2.22887 -2.61106 0
M  V30 930 N 101.989 0.842826 1.3317 0
M  V30 931 C 102.952 0.284065 2.27433 0
M  V30 932 C 103.952 -0.54948 1.5112 0
M  V30 933 O 105.142 -0.362699 1.70382 0
M  V30 934 C 102.274 -0.599384 3.35589 0
M  V30 935 H 103.467 1.11589 2.78366 0
M  V30 936 H 101.02 0.616221 1.4364 0
M  V30 937 H 101.755 -1.45349 2.89904 0
M  V30 938 H 101.54 -0.00291266 3.921 0
M  V30 939 H 103.03 -0.983488 4.05854 0
M  V30 940 N 103.467 -1.45747 0.599634 0
M  V30 941 C 104.715 -2.01893 0.0915472 0
M  V30 942 C 105.036 -1.47155 -1.27946 0
M  V30 943 O 104.306 -0.66273 -1.84349 0
M  V30 944 H 102.886 -0.746363 0.0308524 0
M  V30 945 H 105.548 -1.78645 0.779237 0
M  V30 946 H 104.644 -3.1208 0.0353086 0
M  V30 947 N 104.945 -0.338344 -1.53925 0
M  V30 948 C 106.17 0.263987 -2.05713 0
M  V30 949 C 106.595 1.43847 -1.21201 0
M  V30 950 O 105.953 1.79904 -0.224535 0
M  V30 951 C 106.001 0.662 -3.54471 0
M  V30 952 O 105.105 1.76265 -3.72833 0
M  V30 953 H 104.446 0.0448722 -0.662482 0
M  V30 954 H 106.976 -0.491048 -1.9862 0
M  V30 955 H 106.986 0.940594 -3.9701 0
M  V30 956 H 105.661 -0.196937 -4.15433 0
M  V30 957 H 104.238 1.48173 -3.42198 0
M  V30 958 N 106.423 1.57458 -0.0668435 0
M  V30 959 C 107.386 2.11323 0.887422 0
M  V30 960 C 108.386 1.03618 1.22964 0
M  V30 961 O 109.576 1.29626 1.16373 0
M  V30 962 C 106.708 2.61048 2.19242 0
M  V30 963 H 107.901 2.96942 0.420194 0
M  V30 964 H 105.454 1.55239 0.181793 0
M  V30 965 H 106.189 1.78868 2.70512 0
M  V30 966 H 105.974 3.39769 1.95702 0
M  V30 967 H 107.464 3.02814 2.87565 0
M  V30 968 N 107.901 -0.206675 1.56239 0
M  V30 969 C 108.833 -1.27997 1.9013 0
M  V30 970 C 109.846 -1.42299 0.790883 0
M  V30 971 O 111.035 -1.42931 1.06925 0
M  V30 972 C 108.135 -2.65368 2.10792 0
M  V30 973 C 107.308 -2.72824 3.41886 0
M  V30 974 C 106.367 -3.9131 3.51799 0
M  V30 975 O 105.393 -3.78953 4.24716 0
M  V30 976 N 106.595 -5.06265 2.84035 0
M  V30 977 H 109.36 -0.992444 2.82791 0
M  V30 978 H 106.921 -0.396652 1.56966 0
M  V30 979 H 108.913 -3.43039 2.14724 0
M  V30 980 H 107.483 -2.86657 1.24685 0
M  V30 981 H 106.703 -1.81515 3.49923 0
M  V30 982 H 107.991 -2.74786 4.28217 0
M  V30 983 H 107.389 -5.19203 2.246 0
M  V30 984 H 105.946 -5.81925 2.93609 0
M  V30 985 N 109.379 -1.50304 -0.473955 0
M  V30 986 C 110.609 -1.64663 -1.24778 0
M  V30 987 C 111.017 -0.328174 -1.86332 0
M  V30 988 O 110.36 0.699536 -1.69859 0
M  V30 989 C 110.422 -2.6778 -2.39863 0
M  V30 990 C 110.086 -4.11413 -1.98969 0
M  V30 991 C 111.083 -4.97372 -1.51385 0
M  V30 992 C 108.768 -4.57312 -2.07777 0
M  V30 993 C 110.762 -6.27277 -1.13148 0
M  V30 994 C 108.449 -5.87223 -1.69152 0
M  V30 995 C 109.447 -6.72031 -1.21915 0
M  V30 996 O 109.135 -7.99518 -0.838237 0
M  V30 997 H 108.867 -0.556602 -0.383627 0
M  V30 998 H 111.421 -1.9726 -0.572491 0
M  V30 999 H 109.651 -2.30419 -3.10554 0
M  V30 1000 H 111.34 -2.71388 -3.01833 0
M  V30 1001 H 112.106 -4.63128 -1.44004 0
M  V30 1002 H 107.985 -3.91449 -2.43493 0
M  V30 1003 H 111.529 -6.93425 -0.762077 0
M  V30 1004 H 107.426 -6.20989 -1.76191 0
M  V30 1005 H 108.194 -8.12764 -0.967339 0
M  V30 1006 N 110.857 0.726932 -1.39834 0
M  V30 1007 C 112.105 1.4837 -1.37225 0
M  V30 1008 C 112.426 1.94979 0.0284857 0
M  V30 1009 O 111.696 1.69555 0.981213 0
M  V30 1010 H 110.276 0.55043 -0.505011 0
M  V30 1011 H 112.938 0.862468 -1.74778 0
M  V30 1012 H 112.034 2.36198 -2.04003 0
M  V30 1013 N 112.336 1.25143 0.95797 0
M  V30 1014 C 113.582 1.09855 1.70469 0
M  V30 1015 C 113.915 -0.360187 1.90831 0
M  V30 1016 O 113.19 -1.26568 1.47685 0
M  V30 1017 C 113.473 1.8497 3.08963 0
M  V30 1018 C 113.326 3.38652 2.96032 0
M  V30 1019 C 114.645 1.63016 4.08795 0
M  V30 1020 H 111.764 0.400465 0.618706 0
M  V30 1021 H 114.406 1.53933 1.11376 0
M  V30 1022 H 112.556 1.47505 3.59409 0
M  V30 1023 H 114.228 3.85772 2.52938 0
M  V30 1024 H 112.471 3.66534 2.32025 0
M  V30 1025 H 113.142 3.8642 3.94187 0
M  V30 1026 H 115.618 1.95625 3.67247 0
M  V30 1027 H 114.494 2.18015 5.03747 0
M  V30 1028 H 114.755 0.570692 4.38401 0
M  V30 1029 N 113.814 -1.1601 1.06675 0
M  V30 1030 C 115.062 -1.86264 0.784229 0
M  V30 1031 C 115.383 -1.82328 -0.691488 0
M  V30 1032 O 114.653 -1.25947 -1.50047 0
M  V30 1033 H 113.233 -0.689621 0.28711 0
M  V30 1034 H 115.895 -1.40664 1.34906 0
M  V30 1035 H 114.991 -2.91595 1.11259 0
M  V30 1036 N 115.292 -0.849877 -1.32721 0
M  V30 1037 C 116.538 -0.451591 -1.97708 0
M  V30 1038 C 116.871 0.989175 -1.6712 0
M  V30 1039 O 116.146 1.69334 -0.956891 0
M  V30 1040 C 116.429 -0.685598 -3.53513 0
M  V30 1041 C 116.282 -2.17444 -3.93749 0
M  V30 1042 C 117.601 -0.138874 -4.39881 0
M  V30 1043 H 114.72 -0.16555 -0.718166 0
M  V30 1044 H 117.362 -1.06742 -1.57182 0
M  V30 1045 H 115.512 -0.161416 -3.88165 0
M  V30 1046 H 117.184 -2.76433 -3.693 0
M  V30 1047 H 115.427 -2.65476 -3.43081 0
M  V30 1048 H 116.098 -2.28888 -5.02309 0
M  V30 1049 H 118.574 -0.587068 -4.11938 0
M  V30 1050 H 117.45 -0.332213 -5.47894 0
M  V30 1051 H 117.711 0.95806 -4.31594 0
M  V30 1052 N 116.77 1.45427 -0.607355 0
M  V30 1053 C 118.016 2.0254 -0.102607 0
M  V30 1054 C 118.349 1.47478 1.26348 0
M  V30 1055 O 117.624 0.64939 1.83339 0
M  V30 1056 C 117.907 3.60044 -0.0634347 0
M  V30 1057 C 117.76 4.2544 -1.46017 0
M  V30 1058 C 119.079 4.35646 0.624514 0
M  V30 1059 H 116.198 0.73598 -0.0387607 0
M  V30 1060 H 118.84 1.73284 -0.779282 0
M  V30 1061 H 116.99 3.85101 0.512808 0
M  V30 1062 H 118.662 4.11569 -2.08347 0
M  V30 1063 H 116.905 3.83849 -2.02094 0
M  V30 1064 H 117.576 5.34342 -1.385 0
M  V30 1065 H 120.052 4.15882 0.134723 0
M  V30 1066 H 118.928 5.45376 0.621028 0
M  V30 1067 H 119.189 4.08501 1.69055 0
M  V30 1068 N 118.248 0.346503 1.53744 0
M  V30 1069 C 119.178 -0.501193 2.28058 0
M  V30 1070 C 120.159 -1.10014 1.29734 0
M  V30 1071 O 121.344 -1.12097 1.58581 0
M  V30 1072 C 118.474 -1.65078 3.05559 0
M  V30 1073 C 117.428 -1.18003 4.11411 0
M  V30 1074 C 116.754 -2.41837 4.76884 0
M  V30 1075 C 118.054 -0.278394 5.21558 0
M  V30 1076 H 119.748 0.11875 2.99164 0
M  V30 1077 H 117.294 0.0585531 1.43881 0
M  V30 1078 H 119.247 -2.25028 3.56287 0
M  V30 1079 H 117.971 -2.29767 2.32109 0
M  V30 1080 H 116.63 -0.603331 3.61601 0
M  V30 1081 H 116.278 -3.0494 4.00026 0
M  V30 1082 H 115.978 -2.1102 5.48402 0
M  V30 1083 H 117.502 -3.02508 5.30397 0
M  V30 1084 H 118.916 -0.784823 5.67903 0
M  V30 1085 H 117.313 -0.0619707 6.00068 0
M  V30 1086 H 118.383 0.684677 4.80042 0
M  V30 1087 N 119.726 -1.57421 0.075193 0
M  V30 1088 C 120.674 -2.14124 -0.908508 0
M  V30 1089 C 121.668 -1.07898 -1.30592 0
M  V30 1090 O 122.874 -1.26273 -1.28277 0
M  V30 1091 H 119.249 -0.684707 -0.310935 0
M  V30 1092 H 121.22 -2.95634 -0.405374 0
M  V30 1093 C 119.969 -2.72044 -2.16535 0
M  V30 1094 H 119.292 -3.53456 -1.86839 0
M  V30 1095 H 120.732 -3.15311 -2.83469 0
M  V30 1096 C 119.191 -1.66968 -2.92615 0
M  V30 1097 O 119.721 -1.0967 -3.86439 0
M  V30 1098 N 117.927 -1.37923 -2.55784 0
M  V30 1099 H 117.474 -1.84706 -1.79559 0
M  V30 1100 H 117.432 -0.67852 -3.06991 0
M  V30 1101 N 121.204 0.198386 -1.56346 0
M  V30 1102 C 122.452 0.91747 -1.80075 0
M  V30 1103 C 122.773 1.83929 -0.647692 0
M  V30 1104 O 122.043 1.93029 0.334166 0
M  V30 1105 H 120.623 0.341774 -0.664228 0
M  V30 1106 H 123.285 0.204684 -1.93822 0
M  V30 1107 H 122.381 1.51055 -2.7311 0
M  V30 1108 N 122.682 1.50554 0.465978 0
M  V30 1109 C 123.928 1.62038 1.21949 0
M  V30 1110 C 124.261 0.322116 1.9151 0
M  V30 1111 O 123.536 -0.676723 1.82348 0
M  V30 1112 C 123.819 2.80421 2.25912 0
M  V30 1113 C 123.672 4.20144 1.60622 0
M  V30 1114 C 124.991 2.94354 3.27176 0
M  V30 1115 H 122.11 0.589752 0.441998 0
M  V30 1116 H 124.752 1.82956 0.51257 0
M  V30 1117 H 122.902 2.62717 2.86203 0
M  V30 1118 H 124.574 4.49449 1.03889 0
M  V30 1119 H 122.817 4.24165 0.909211 0
M  V30 1120 H 123.488 4.98914 2.36196 0
M  V30 1121 H 125.964 3.10578 2.76913 0
M  V30 1122 H 124.84 3.788 3.97242 0
M  V30 1123 H 125.101 2.05186 3.916 0
M  V30 1124 N 124.16 -0.719506 1.40217 0
M  V30 1125 C 125.123 -1.8153 1.39927 0
M  V30 1126 C 126.123 -1.58095 0.293723 0
M  V30 1127 O 127.313 -1.65209 0.552429 0
M  V30 1128 C 124.445 -3.19561 1.18716 0
M  V30 1129 H 125.638 -1.83186 2.37451 0
M  V30 1130 H 123.191 -0.924746 1.26008 0
M  V30 1131 H 123.926 -3.23557 0.219366 0
M  V30 1132 H 123.711 -3.3797 1.98793 0
M  V30 1133 H 125.201 -3.99598 1.21291 0
M  V30 1134 N 125.638 -1.25649 -0.95132 0
M  V30 1135 C 126.887 -1.09988 -1.69073 0
M  V30 1136 C 127.2 0.358355 -1.92289 0
M  V30 1137 O 128.406 0.635466 -2.63958 0
M  V30 1138 C 126.862 -1.92012 -3.044 0
M  V30 1139 C 126.47 -3.42347 -2.88968 0
M  V30 1140 C 128.214 -1.8493 -3.82101 0
M  V30 1141 C 126.121 -4.16655 -4.19705 0
M  V30 1142 H 125.051 -0.407993 -0.63408 0
M  V30 1143 H 127.702 -1.49873 -1.05879 0
M  V30 1144 H 126.084 -1.44952 -3.68517 0
M  V30 1145 H 127.258 -3.97104 -2.33762 0
M  V30 1146 H 125.573 -3.50557 -2.24719 0
M  V30 1147 H 128.17 -2.37739 -4.78941 0
M  V30 1148 H 128.513 -0.817883 -4.08187 0
M  V30 1149 H 129.046 -2.29758 -3.2474 0
M  V30 1150 H 125.785 -5.20224 -3.98807 0
M  V30 1151 H 125.305 -3.66681 -4.74663 0
M  V30 1152 H 126.984 -4.24551 -4.88227 0
M  V30 1153 N 127.117 1.15442 -1.07289 0
M  V30 1154 C 128.027 2.23786 -0.704057 0
M  V30 1155 C 129.043 1.7166 0.284413 0
M  V30 1156 O 130.219 2.00972 0.131205 0
M  V30 1157 C 127.284 3.46535 -0.106792 0
M  V30 1158 C 126.345 4.13654 -1.14842 0
M  V30 1159 C 125.578 5.30544 -0.57956 0
M  V30 1160 O 125.801 5.67187 0.604585 0
M  V30 1161 O 124.735 5.87154 -1.32414 0
M  V30 1162 H 128.561 2.57664 -1.60757 0
M  V30 1163 H 126.146 1.23152 -0.845803 0
M  V30 1164 H 128.028 4.20804 0.224048 0
M  V30 1165 H 126.703 3.14407 0.770049 0
M  V30 1166 H 125.61 3.4131 -1.5316 0
M  V30 1167 H 126.943 4.49861 -1.99714 0
M  V30 1168 N 128.595 0.856903 1.32268 0
M  V30 1169 C 129.505 0.306131 2.32594 0
M  V30 1170 C 130.521 -0.577209 1.64147 0
M  V30 1171 O 131.697 -0.477043 1.95669 0
M  V30 1172 C 128.762 -0.494561 3.43154 0
M  V30 1173 C 127.823 0.415186 4.27288 0
M  V30 1174 C 127.056 -0.347387 5.32568 0
M  V30 1175 O 127.279 -1.57708 5.48165 0
M  V30 1176 O 126.213 0.287982 6.01211 0
M  V30 1177 H 130.039 1.13737 2.81598 0
M  V30 1178 H 127.624 0.619902 1.35932 0
M  V30 1179 H 129.506 -0.948944 4.10576 0
M  V30 1180 H 128.181 -1.30257 2.96336 0
M  V30 1181 H 127.088 0.917793 3.62667 0
M  V30 1182 H 128.421 1.18844 4.77637 0
M  V30 1183 N 130.073 -1.45103 0.615059 0
M  V30 1184 C 131.321 -2.01784 0.112955 0
M  V30 1185 C 131.642 -1.48504 -1.26378 0
M  V30 1186 O 130.912 -0.682245 -1.83636 0
M  V30 1187 H 129.492 -0.745993 0.0387668 0
M  V30 1188 H 132.154 -1.77808 0.798141 0
M  V30 1189 H 131.25 -3.12025 0.0684069 0
M  V30 1190 N 131.551 -0.354651 -1.53558 0
M  V30 1191 C 132.779 0.239515 -2.05509 0
M  V30 1192 C 133.194 1.4333 -1.2289 0
M  V30 1193 O 132.551 1.80538 -0.266899 0
M  V30 1194 C 132.602 0.643719 -3.55723 0
M  V30 1195 O 132.323 -0.502602 -4.35207 0
M  V30 1196 C 133.824 1.29743 -4.23889 0
M  V30 1197 H 131.044 0.0442697 -0.669538 0
M  V30 1198 H 133.588 -0.509856 -1.98042 0
M  V30 1199 H 131.743 1.34302 -3.63376 0
M  V30 1200 H 132.157 -0.178172 -5.24197 0
M  V30 1201 H 133.631 1.53091 -5.30346 0
M  V30 1202 H 134.108 2.25441 -3.76926 0
M  V30 1203 H 134.714 0.639865 -4.20459 0
M  V30 1204 N 133.029 1.57378 -0.0835403 0
M  V30 1205 C 134.257 1.98263 0.59157 0
M  V30 1206 C 134.672 0.962302 1.62435 0
M  V30 1207 O 134.029 -0.049581 1.82433 0
M  V30 1208 C 134.08 3.39214 1.24965 0
M  V30 1209 O 133.801 4.37339 0.258186 0
M  V30 1210 C 135.302 3.95038 2.01147 0
M  V30 1211 H 132.522 0.651773 0.159477 0
M  V30 1212 H 135.066 2.03878 -0.159415 0
M  V30 1213 H 133.221 3.34649 1.95164 0
M  V30 1214 H 133.635 5.19371 0.731734 0
M  V30 1215 H 135.109 4.95848 2.42567 0
M  V30 1216 H 135.586 3.32222 2.87272 0
M  V30 1217 H 136.192 4.0304 1.35789 0
M  V30 1218 N 134.507 -0.190092 1.56449 0
M  V30 1219 C 135.737 -0.92443 1.84764 0
M  V30 1220 C 136.145 -1.77146 0.664529 0
M  V30 1221 O 135.488 -1.79812 -0.375957 0
M  V30 1222 C 135.55 -1.86651 3.07248 0
M  V30 1223 C 135.214 -1.20094 4.40938 0
M  V30 1224 C 136.211 -0.575445 5.16706 0
M  V30 1225 C 133.896 -1.2033 4.87674 0
M  V30 1226 C 135.89 0.0388111 6.37388 0
M  V30 1227 C 133.577 -0.585214 6.08291 0
M  V30 1228 C 134.575 0.0347578 6.82991 0
M  V30 1229 O 134.263 0.643147 8.01323 0
M  V30 1230 H 133.995 -0.274974 0.617548 0
M  V30 1231 H 136.549 -0.200788 2.04416 0
M  V30 1232 H 134.779 -2.62998 2.83494 0
M  V30 1233 H 136.468 -2.46907 3.22167 0
M  V30 1234 H 137.234 -0.565728 4.81689 0
M  V30 1235 H 133.113 -1.67526 4.29484 0
M  V30 1236 H 136.657 0.523329 6.95634 0
M  V30 1237 H 132.554 -0.592451 6.42775 0
M  V30 1238 H 133.322 0.540545 8.16713 0
M  V30 1239 N 135.985 -1.50799 -0.457987 0
M  V30 1240 C 137.213 -1.66218 -1.23203 0
M  V30 1241 C 137.628 -0.350894 -1.85511 0
M  V30 1242 O 136.985 0.668546 -1.69814 0
M  V30 1243 C 137.036 -2.76291 -2.33121 0
M  V30 1244 O 136.757 -4.02338 -1.73366 0
M  V30 1245 C 138.258 -3.028 -3.2377 0
M  V30 1246 H 135.478 -0.558361 -0.372121 0
M  V30 1247 H 138.022 -1.97099 -0.545179 0
M  V30 1248 H 136.177 -2.48068 -2.97558 0
M  V30 1249 H 136.591 -4.63312 -2.4585 0
M  V30 1250 H 138.065 -3.8345 -3.97077 0
M  V30 1251 H 138.542 -2.14385 -3.83322 0
M  V30 1252 H 139.148 -3.32604 -2.65056 0
M  V30 1253 N 137.463 0.71206 -1.40597 0
M  V30 1254 C 138.393 1.83889 -1.43899 0
M  V30 1255 C 139.374 1.67442 -0.299504 0
M  V30 1256 O 140.559 1.87421 -0.508624 0
M  V30 1257 C 137.689 3.21877 -1.30431 0
M  V30 1258 C 136.643 3.53002 -2.42019 0
M  V30 1259 C 135.969 4.90172 -2.13626 0
M  V30 1260 C 137.269 3.53643 -3.84362 0
M  V30 1261 H 138.963 1.81383 -2.38203 0
M  V30 1262 H 136.509 0.871237 -1.14654 0
M  V30 1263 H 138.462 4.00404 -1.31357 0
M  V30 1264 H 137.186 3.24968 -0.326049 0
M  V30 1265 H 135.845 2.76818 -2.40349 0
M  V30 1266 H 135.493 4.89869 -1.14182 0
M  V30 1267 H 135.193 5.11962 -2.88389 0
M  V30 1268 H 136.717 5.71028 -2.1624 0
M  V30 1269 H 138.131 4.22203 -3.87837 0
M  V30 1270 H 136.528 3.86961 -4.58673 0
M  V30 1271 H 137.598 2.52954 -4.13693 0
M  V30 1272 N 138.941 1.26152 0.944643 0
M  V30 1273 C 140.357 1.03189 1.21754 0
M  V30 1274 C 140.557 -0.245112 2.00004 0
M  V30 1275 O 139.613 -0.955176 2.33736 0
M  V30 1276 C 140.926 2.26119 1.98219 0
M  V30 1277 C 142.474 2.30984 2.11224 0
M  V30 1278 C 142.949 3.53597 2.91089 0
M  V30 1279 N 144.44 3.54053 2.98664 0
M  V30 1280 C 145.175 4.45593 3.60881 0
M  V30 1281 N 144.671 5.47416 4.24626 0
M  V30 1282 N 146.464 4.33252 3.58119 0
M  V30 1283 H 138.615 2.08177 0.421437 0
M  V30 1284 H 140.878 0.914723 0.248969 0
M  V30 1285 H 140.584 3.18984 1.48128 0
M  V30 1286 H 140.458 2.3009 2.98895 0
M  V30 1287 H 142.845 1.38635 2.60508 0
M  V30 1288 H 142.926 2.31026 1.09821 0
M  V30 1289 H 142.57 4.46273 2.42493 0
M  V30 1290 H 142.5 3.50802 3.92741 0
M  V30 1291 H 144.991 2.80403 2.53343 0
M  V30 1292 H 145.304 6.13459 4.69987 0
M  V30 1293 H 143.649 5.51278 4.23223 0
M  V30 1294 H 146.84 3.52924 3.0751 0
M  V30 1295 H 147.013 5.04786 4.06319 0
M  V30 1296 N 140.419 -1.14872 1.07899 0
M  V30 1297 C 141.649 -1.89386 0.825631 0
M  V30 1298 C 142.057 -1.78565 -0.625406 0
M  V30 1299 O 141.4 -1.13918 -1.44113 0
M  V30 1300 C 141.462 -3.40206 1.16191 0
M  V30 1301 C 141.126 -3.74812 2.61467 0
M  V30 1302 C 142.123 -3.75367 3.59716 0
M  V30 1303 C 139.808 -4.0495 2.97189 0
M  V30 1304 C 141.802 -4.05574 4.9172 0
M  V30 1305 C 139.489 -4.34821 4.29388 0
M  V30 1306 C 140.487 -4.35116 5.26463 0
M  V30 1307 O 140.175 -4.64267 6.56286 0
M  V30 1308 H 139.907 -0.606894 0.297751 0
M  V30 1309 H 142.461 -1.46438 1.44031 0
M  V30 1310 H 140.691 -3.8358 0.490214 0
M  V30 1311 H 142.38 -3.96018 0.890193 0
M  V30 1312 H 143.146 -3.52176 3.33462 0
M  V30 1313 H 139.025 -4.03876 2.22273 0
M  V30 1314 H 142.569 -4.05719 5.67484 0
M  V30 1315 H 138.466 -4.5748 4.55392 0
M  V30 1316 H 139.234 -4.82007 6.61522 0
M  V30 1317 N 141.898 -0.863906 -1.31812 0
M  V30 1318 C 143.126 -0.486111 -2.01108 0
M  V30 1319 C 143.541 0.919755 -1.64882 0
M  V30 1320 O 142.898 1.60162 -0.874893 0
M  V30 1321 C 142.949 -0.626435 -3.56031 0
M  V30 1322 O 142.67 -1.97693 -3.90959 0
M  V30 1323 C 144.171 -0.248857 -4.42601 0
M  V30 1324 H 141.391 -0.190052 -0.643523 0
M  V30 1325 H 143.935 -1.1634 -1.68182 0
M  V30 1326 H 142.09 0.00322717 -3.874 0
M  V30 1327 H 142.504 -1.98034 -4.85678 0
M  V30 1328 H 143.978 -0.398016 -5.50563 0
M  V30 1329 H 144.455 0.811489 -4.31638 0
M  V30 1330 H 145.061 -0.853971 -4.16638 0
M  V30 1331 N 143.376 1.44774 -0.622745 0
M  V30 1332 C 144.339 2.29069 0.0774015 0
M  V30 1333 C 145.339 1.4059 0.780461 0
M  V30 1334 O 146.529 1.62551 0.626322 0
M  V30 1335 C 143.661 3.21974 1.12006 0
M  V30 1336 H 144.854 2.92459 -0.663901 0
M  V30 1337 H 142.407 1.51548 -0.382486 0
M  V30 1338 H 143.142 2.63417 1.89162 0
M  V30 1339 H 142.927 3.87168 0.619951 0
M  V30 1340 H 144.417 3.85318 1.60995 0
M  V30 1341 N 144.854 0.36279 1.53368 0
M  V30 1342 C 146.082 -0.228613 2.05633 0
M  V30 1343 C 146.497 -1.42676 1.23649 0
M  V30 1344 O 145.854 -1.80394 0.27647 0
M  V30 1345 C 145.905 -0.624845 3.56059 0
M  V30 1346 O 145.626 0.525675 4.34935 0
M  V30 1347 C 147.127 -1.27493 4.24571 0
M  V30 1348 H 144.347 -0.0407183 0.669763 0
M  V30 1349 H 146.891 0.520352 1.97769 0
M  V30 1350 H 145.046 -1.32373 3.64083 0
M  V30 1351 H 145.46 0.205969 5.24095 0
M  V30 1352 H 146.934 -1.50277 5.31151 0
M  V30 1353 H 147.411 -2.23439 3.78116 0
M  V30 1354 H 148.017 -0.617558 4.20792 0
M  V30 1355 N 146.332 -1.57332 0.0918853 0
M  V30 1356 C 147.295 -2.12708 -0.85369 0
M  V30 1357 C 148.295 -1.05561 -1.213 0
M  V30 1358 O 149.485 -1.31461 -1.14296 0
M  V30 1359 C 146.617 -2.64503 -2.15061 0
M  V30 1360 H 147.81 -2.97573 -0.3729 0
M  V30 1361 H 145.363 -1.55509 -0.157072 0
M  V30 1362 H 146.098 -1.83149 -2.67632 0
M  V30 1363 H 145.883 -3.4284 -1.90272 0
M  V30 1364 H 147.373 -3.07351 -2.82711 0
M  V30 1365 N 147.81 0.181792 -1.56548 0
M  V30 1366 C 149.035 0.920019 -1.85877 0
M  V30 1367 C 149.46 1.75494 -0.677021 0
M  V30 1368 O 148.818 1.77399 0.374056 0
M  V30 1369 C 148.866 1.78112 -3.13542 0
M  V30 1370 O 147.97 2.88152 -2.95029 0
M  V30 1371 H 147.311 0.258334 -0.611686 0
M  V30 1372 H 149.841 0.183092 -2.03779 0
M  V30 1373 H 149.851 2.18314 -3.44678 0
M  V30 1374 H 148.526 1.16777 -3.99169 0
M  V30 1375 H 147.103 2.51609 -2.75222 0
M  V30 1376 N 149.288 1.51039 0.449983 0
M  V30 1377 C 150.516 1.66869 1.2232 0
M  V30 1378 C 150.931 0.360727 1.85322 0
M  V30 1379 O 150.288 -0.659531 1.70166 0
M  V30 1380 C 150.339 2.77524 2.31652 0
M  V30 1381 O 150.06 4.03252 1.7123 0
M  V30 1382 C 151.561 3.04512 3.2216 0
M  V30 1383 H 148.781 0.560326 0.369155 0
M  V30 1384 H 151.325 1.97385 0.534719 0
M  V30 1385 H 149.48 2.49642 2.96239 0
M  V30 1386 H 149.894 4.64609 2.43389 0
M  V30 1387 H 151.368 3.85551 3.95038 0
M  V30 1388 H 151.845 2.16415 3.8218 0
M  V30 1389 H 152.451 3.34005 2.63288 0
M  V30 1390 N 150.766 -0.704594 1.40972 0
M  V30 1391 C 152.043 -1.45847 1.30338 0
M  V30 1392 C 152.423 -2.10973 -0.0732344 0
M  V30 1393 O 151.771 -2.00997 -1.08685 0
M  V30 1394 C 151.981 -2.48525 2.45023 0
M  V30 1395 C 153.329 -3.1404 2.8577 0
M  V30 1396 O 154.353 -2.58848 2.44696 0
M  V30 1397 O 153.212 -4.13981 3.56766 0
M  V30 1398 H 150.306 -0.649092 0.512454 0
M  V30 1399 H 152.852 -0.735836 1.52917 0
M  V30 1400 H 151.624 -1.98994 3.36923 0
M  V30 1401 H 151.247 -3.2831 2.24272 0
M  V30 1402 N 152.244 -1.26651 -0.937939 0
M  V30 1403 C 153.49 -1.12553 -1.687 0
M  V30 1404 C 153.823 0.329782 -1.91379 0
M  V30 1405 O 153.098 1.24202 -1.4968 0
M  V30 1406 C 153.381 -1.89862 -3.05981 0
M  V30 1407 C 153.234 -3.43318 -2.90607 0
M  V30 1408 C 154.553 -1.69499 -4.0615 0
M  V30 1409 H 151.672 -0.410257 -0.612257 0
M  V30 1410 H 154.314 -1.55685 -1.08913 0
M  V30 1411 H 152.464 -1.53204 -3.57017 0
M  V30 1412 H 154.136 -3.89747 -2.46769 0
M  V30 1413 H 152.379 -3.70179 -2.26164 0
M  V30 1414 H 153.05 -3.92642 -3.8799 0
M  V30 1415 H 155.526 -2.01442 -3.64088 0
M  V30 1416 H 154.402 -2.26002 -5.00214 0
M  V30 1417 H 154.663 -0.640365 -4.37438 0
M  V30 1418 N 153.722 1.14298 -1.08507 0
M  V30 1419 C 154.95 1.89219 -0.836876 0
M  V30 1420 C 155.365 1.78638 0.611054 0
M  V30 1421 O 154.722 1.14643 1.41998 0
M  V30 1422 C 154.773 3.39158 -1.25116 0
M  V30 1423 O 154.494 3.49449 -2.64229 0
M  V30 1424 C 155.995 4.31073 -1.03398 0
M  V30 1425 H 153.215 0.599328 -0.301739 0
M  V30 1426 H 155.759 1.44746 -1.44461 0
M  V30 1427 H 153.914 3.81251 -0.687514 0
M  V30 1428 H 154.328 4.42589 -2.81452 0
M  V30 1429 H 155.802 5.34646 -1.37323 0
M  V30 1430 H 156.279 4.3919 0.0289259 0
M  V30 1431 H 156.885 3.94738 -1.58311 0
M  V30 1432 N 155.201 0.870884 1.31352 0
M  V30 1433 C 156.447 0.482987 1.96965 0
M  V30 1434 C 156.78 -0.962462 1.68672 0
M  V30 1435 O 156.055 -1.6779 0.98371 0
M  V30 1436 C 156.338 0.741752 3.52378 0
M  V30 1437 C 156.191 2.2368 3.9024 0
M  V30 1438 C 157.51 0.208838 4.39604 0
M  V30 1439 H 154.629 0.176955 0.715441 0
M  V30 1440 H 157.271 1.09229 1.55464 0
M  V30 1441 H 155.421 0.223149 3.87859 0
M  V30 1442 H 157.093 2.82273 3.64856 0
M  V30 1443 H 155.336 2.70901 3.38814 0
M  V30 1444 H 156.007 2.3685 4.98604 0
M  V30 1445 H 158.483 0.652529 4.10952 0
M  V30 1446 H 157.359 0.419336 5.47296 0
M  V30 1447 H 157.62 -0.889275 4.33064 0
M  V30 1448 N 156.679 -1.44442 0.630414 0
M  V30 1449 C 158.095 -1.56832 0.295973 0
M  V30 1450 C 158.295 -1.61806 -1.20088 0
M  V30 1451 O 157.351 -1.5607 -1.9849 0
M  V30 1452 C 158.664 -2.84031 0.987264 0
M  V30 1453 C 160.212 -2.97742 0.96534 0
M  V30 1454 C 160.687 -4.27743 1.63708 0
M  V30 1455 N 162.178 -4.34555 1.60364 0
M  V30 1456 C 162.913 -5.33862 2.09234 0
M  V30 1457 N 162.409 -6.39578 2.66292 0
M  V30 1458 N 164.202 -5.25366 1.99867 0
M  V30 1459 H 156.353 -1.39457 1.60205 0
M  V30 1460 H 158.616 -0.668237 0.672431 0
M  V30 1461 H 158.322 -2.86338 2.04215 0
M  V30 1462 H 158.196 -3.73534 0.524588 0
M  V30 1463 H 160.583 -2.94989 -0.0810639 0
M  V30 1464 H 160.664 -2.09589 1.4665 0
M  V30 1465 H 160.308 -4.31255 2.68293 0
M  V30 1466 H 160.238 -5.14752 1.11076 0
M  V30 1467 H 162.729 -3.58772 1.18705 0
M  V30 1468 H 163.042 -7.11637 3.01317 0
M  V30 1469 H 161.387 -6.40265 2.70343 0
M  V30 1470 H 164.578 -4.41688 1.55013 0
M  V30 1471 H 164.751 -6.02606 2.38265 0
M  V30 1472 N 158.157 -0.370918 -1.53173 0
M  V30 1473 C 159.12 0.460778 -2.24521 0
M  V30 1474 C 160.12 1.00536 -1.25496 0
M  V30 1475 O 161.31 0.890266 -1.49733 0
M  V30 1476 C 158.442 1.64457 -2.98608 0
M  V30 1477 H 159.635 -0.163613 -2.99453 0
M  V30 1478 H 157.188 -0.122699 -1.55818 0
M  V30 1479 H 157.923 2.30691 -2.2793 0
M  V30 1480 H 157.708 1.26099 -3.7127 0
M  V30 1481 H 159.198 2.23384 -3.5283 0
M  V30 1482 N 159.635 1.57281 -0.100228 0
M  V30 1483 C 160.565 2.17328 0.853857 0
M  V30 1484 C 161.546 1.10804 1.2906 0
M  V30 1485 O 162.731 1.38963 1.35657 0
M  V30 1486 C 159.861 2.75772 2.11109 0
M  V30 1487 C 158.815 3.87713 1.81279 0
M  V30 1488 C 158.141 4.32882 3.13874 0
M  V30 1489 C 159.441 5.10677 1.09574 0
M  V30 1490 H 161.135 2.97305 0.353545 0
M  V30 1491 H 158.681 1.43009 0.168612 0
M  V30 1492 H 160.634 3.16433 2.78296 0
M  V30 1493 H 159.358 1.93057 2.63432 0
M  V30 1494 H 158.017 3.476 1.16489 0
M  V30 1495 H 157.665 3.47051 3.64095 0
M  V30 1496 H 157.365 5.08358 2.94696 0
M  V30 1497 H 158.889 4.7618 3.82211 0
M  V30 1498 H 160.303 5.48474 1.66879 0
M  V30 1499 H 158.7 5.91615 1.00557 0
M  V30 1500 H 159.77 4.84835 0.0793299 0
M  V30 1501 N 161.113 -0.173488 1.56642 0
M  V30 1502 C 162.359 -0.891784 1.8214 0
M  V30 1503 C 162.692 -1.8199 0.677736 0
M  V30 1504 O 161.967 -1.91842 -0.320446 0
M  V30 1505 C 162.25 -1.68933 3.18015 0
M  V30 1506 C 162.103 -0.784487 4.42906 0
M  V30 1507 C 163.422 -2.65748 3.50808 0
M  V30 1508 H 160.541 -0.322761 0.662567 0
M  V30 1509 H 163.183 -0.158095 1.89341 0
M  V30 1510 H 161.333 -2.31482 3.12007 0
M  V30 1511 H 163.005 -0.172046 4.60979 0
M  V30 1512 H 161.248 -0.0924117 4.33702 0
M  V30 1513 H 161.919 -1.37799 5.34524 0
M  V30 1514 H 164.395 -2.13327 3.57255 0
M  V30 1515 H 163.271 -3.18619 4.4696 0
M  V30 1516 H 163.532 -3.45842 2.75401 0
M  V30 1517 N 162.591 -1.51276 -0.441967 0
M  V30 1518 C 163.839 -1.63392 -1.18943 0
M  V30 1519 C 164.16 -0.350159 -1.9183 0
M  V30 1520 O 163.43 0.633784 -1.85364 0
M  V30 1521 H 162.01 -0.602164 -0.442049 0
M  V30 1522 H 164.672 -1.88186 -0.507165 0
M  V30 1523 H 163.768 -2.45934 -1.92154 0
M  V30 1524 N 164.069 0.697108 -1.41344 0
M  V30 1525 C 165.001 1.8224 -1.39001 0
M  V30 1526 C 166.014 1.60152 -0.292428 0
M  V30 1527 O 167.203 1.69684 -0.554048 0
M  V30 1528 C 164.303 3.18976 -1.14489 0
M  V30 1529 C 163.476 3.68105 -2.36258 0
M  V30 1530 C 162.535 4.83506 -2.07625 0
M  V30 1531 O 161.561 4.95201 -2.8065 0
M  V30 1532 N 162.763 5.70637 -1.06555 0
M  V30 1533 H 165.528 1.84742 -2.35988 0
M  V30 1534 H 163.089 0.87937 -1.35936 0
M  V30 1535 H 165.081 3.93801 -0.932885 0
M  V30 1536 H 163.651 3.11508 -0.261043 0
M  V30 1537 H 162.871 2.84204 -2.7317 0
M  V30 1538 H 164.159 3.97667 -3.17393 0
M  V30 1539 H 163.557 5.63817 -0.461125 0
M  V30 1540 H 162.114 6.45368 -0.913444 0
M  V30 1541 N 165.547 1.27147 0.931209 0
M  V30 1542 C 166.495 1.09398 2.05268 0
M  V30 1543 C 167.489 0.0180591 1.6939 0
M  V30 1544 O 168.695 0.17551 1.79142 0
M  V30 1545 H 165.07 0.336986 0.672268 0
M  V30 1546 H 167.041 2.04416 2.17386 0
M  V30 1547 C 165.79 0.75424 3.39421 0
M  V30 1548 H 165.113 1.57404 3.67511 0
M  V30 1549 H 166.553 0.669903 4.18674 0
M  V30 1550 C 165.012 -0.541197 3.32525 0
M  V30 1551 O 165.542 -1.57664 3.69466 0
M  V30 1552 N 163.748 -0.535517 2.85623 0
M  V30 1553 H 163.295 0.307511 2.55758 0
M  V30 1554 H 163.253 -1.40236 2.81392 0
M  V30 1555 N 167.025 -1.13721 1.09112 0
M  V30 1556 C 168.273 -1.84559 0.823562 0
M  V30 1557 C 168.594 -1.83754 -0.652658 0
M  V30 1558 O 167.864 -1.29102 -1.47342 0
M  V30 1559 H 166.444 -0.683376 0.301673 0
M  V30 1560 H 169.106 -1.37771 1.37859 0
M  V30 1561 H 168.202 -2.8917 1.17419 0
M  V30 1562 N 168.503 -0.877838 -1.30888 0
M  V30 1563 C 169.466 -0.344265 -2.266 0
M  V30 1564 C 170.466 0.50922 -1.52524 0
M  V30 1565 O 171.656 0.317398 -1.71284 0
M  V30 1566 C 168.788 0.510198 -3.37061 0
M  V30 1567 H 169.981 -1.1893 -2.7531 0
M  V30 1568 H 167.534 -0.654088 -1.41956 0
M  V30 1569 H 168.269 1.37612 -2.93655 0
M  V30 1570 H 168.054 -0.101047 -3.9197 0
M  V30 1571 H 169.544 0.875537 -4.08319 0
M  V30 1572 N 169.982 1.44106 -0.638065 0
M  V30 1573 C 171.393 1.85316 -0.226894 0
M  V30 1574 C 171.744 1.53399 1.22324 0
M  V30 1575 O 170.869 0.975463 1.93167 0
M  V30 1576 C 171.464 3.3637 -0.405013 0
M  V30 1577 C 170.023 3.76369 -0.0482902 0
M  V30 1578 C 169.17 2.67921 -0.715108 0
M  V30 1579 H 172.121 1.34474 -0.842764 0
M  V30 1580 H 172.142 3.7885 0.354 0
M  V30 1581 H 171.654 3.59569 -1.46053 0
M  V30 1582 H 169.755 3.58784 1.00522 0
M  V30 1583 H 169.868 4.76856 -0.463187 0
M  V30 1584 H 168.232 2.54259 -0.149753 0
M  V30 1585 H 169.015 2.93951 -1.77335 0
M  V30 1586 N 171.46 0.379036 1.52974 0
M  V30 1587 C 172.69 -0.20649 2.05566 0
M  V30 1588 C 173.098 -1.41906 1.25137 0
M  V30 1589 O 172.441 -1.81421 0.288464 0
M  V30 1590 C 172.503 -0.651086 3.53555 0
M  V30 1591 C 172.167 0.446626 4.54812 0
M  V30 1592 C 173.164 1.30079 5.03364 0
M  V30 1593 C 170.849 0.610719 4.98573 0
M  V30 1594 C 172.843 2.30426 5.94292 0
M  V30 1595 C 170.53 1.61754 5.89304 0
M  V30 1596 C 171.528 2.46274 6.37054 0
M  V30 1597 O 171.216 3.45237 7.25994 0
M  V30 1598 H 170.948 -0.0372381 0.674974 0
M  V30 1599 H 173.502 0.539718 1.98182 0
M  V30 1600 H 171.732 -1.44911 3.58522 0
M  V30 1601 H 173.421 -1.16112 3.88938 0
M  V30 1602 H 174.187 1.18527 4.70294 0
M  V30 1603 H 170.066 -0.0374044 4.60985 0
M  V30 1604 H 173.61 2.96432 6.31485 0
M  V30 1605 H 169.507 1.73348 6.21788 0
M  V30 1606 H 170.275 3.41124 7.44027 0
M  V30 1607 N 172.938 -1.57226 0.108567 0
M  V30 1608 C 174.186 -1.94448 -0.550853 0
M  V30 1609 C 174.507 -0.992074 -1.67878 0
M  V30 1610 O 173.777 -0.0465 -1.95845 0
M  V30 1611 H 172.357 -0.717897 -0.206479 0
M  V30 1612 H 175.019 -1.94112 0.175062 0
M  V30 1613 H 174.115 -2.97218 -0.952259 0
M  V30 1614 N 174.416 0.165178 -1.56732 0
M  V30 1615 C 175.644 0.896218 -1.86482 0
M  V30 1616 C 176.059 1.75555 -0.694675 0
M  V30 1617 O 175.416 1.79379 0.33607 0
M  V30 1618 C 175.467 1.76792 -3.1532 0
M  V30 1619 O 175.188 0.943239 -4.27825 0
M  V30 1620 C 176.689 2.6081 -3.58459 0
M  V30 1621 H 173.909 0.260064 -0.618553 0
M  V30 1622 H 176.453 0.163428 -2.03846 0
M  V30 1623 H 174.608 2.45398 -2.99764 0
M  V30 1624 H 175.022 1.53998 -5.01383 0
M  V30 1625 H 176.496 3.17579 -4.51495 0
M  V30 1626 H 176.973 3.35977 -2.82872 0
M  V30 1627 H 177.579 1.97526 -3.76648 0
M  V30 1628 N 175.894 1.51508 0.433938 0
M  V30 1629 C 177.14 1.64588 1.18484 0
M  V30 1630 C 177.473 0.362666 1.90784 0
M  V30 1631 O 176.748 -0.637892 1.83742 0
M  V30 1632 C 177.031 2.85149 2.19913 0
M  V30 1633 C 176.884 4.23456 1.51674 0
M  V30 1634 C 178.203 3.01227 3.20858 0
M  V30 1635 H 175.322 0.598994 0.429389 0
M  V30 1636 H 177.964 1.84002 0.473647 0
M  V30 1637 H 176.114 2.68729 2.80566 0
M  V30 1638 H 177.786 4.51552 0.943322 0
M  V30 1639 H 176.029 4.25998 0.819035 0
M  V30 1640 H 176.7 5.03812 2.2556 0
M  V30 1641 H 179.176 3.16382 2.70263 0
M  V30 1642 H 178.052 3.87141 3.89118 0
M  V30 1643 H 178.313 2.13447 3.8716 0
M  V30 1644 N 177.372 -0.689602 1.41712 0
M  V30 1645 C 178.302 -1.81577 1.46806 0
M  V30 1646 C 179.283 -1.66945 0.326105 0
M  V30 1647 O 180.468 -1.86588 0.538377 0
M  V30 1648 C 177.598 -3.19762 1.35535 0
M  V30 1649 C 176.552 -3.49107 2.47605 0
M  V30 1650 C 175.878 -4.86711 2.21397 0
M  V30 1651 C 177.178 -3.47483 3.89939 0
M  V30 1652 H 178.872 -1.7757 2.41058 0
M  V30 1653 H 176.418 -0.852887 1.16025 0
M  V30 1654 H 178.371 -3.98263 1.3771 0
M  V30 1655 H 177.095 -3.24409 0.377708 0
M  V30 1656 H 175.754 -2.72959 2.44722 0
M  V30 1657 H 175.402 -4.8799 1.21961 0
M  V30 1658 H 175.102 -5.0731 2.96497 0
M  V30 1659 H 176.626 -5.67515 2.25297 0
M  V30 1660 H 178.04 -4.1598 3.94505 0
M  V30 1661 H 176.437 -3.79615 4.64771 0
M  V30 1662 H 177.507 -2.46341 4.17665 0
M  V30 1663 N 178.85 -1.27639 -0.924453 0
M  V30 1664 C 180.127 -1.04887 -1.651 0
M  V30 1665 C 180.507 0.415327 -2.06974 0
M  V30 1666 O 179.855 1.39923 -1.80648 0
M  V30 1667 C 180.065 -2.01348 -2.85061 0
M  V30 1668 C 181.413 -2.30899 -3.56329 0
M  V30 1669 O 182.437 -1.99348 -2.95193 0
M  V30 1670 O 181.296 -2.84699 -4.66485 0
M  V30 1671 H 178.39 -0.400083 -0.723784 0
M  V30 1672 H 180.936 -1.38916 -0.974703 0
M  V30 1673 H 179.708 -3.0008 -2.51133 0
M  V30 1674 H 179.331 -1.679 -3.6041 0
M  V30 1675 N 180.328 1.1314 -1.09713 0
M  V30 1676 C 181.556 1.88321 -0.856898 0
M  V30 1677 C 181.971 1.79276 0.592073 0
M  V30 1678 O 181.328 1.16142 1.40774 0
M  V30 1679 C 181.379 3.37812 -1.28706 0
M  V30 1680 O 181.1 3.46627 -2.67921 0
M  V30 1681 C 182.601 4.29952 -1.07964 0
M  V30 1682 H 179.821 0.596094 -0.308079 0
M  V30 1683 H 182.365 1.43205 -1.45988 0
M  V30 1684 H 180.52 3.805 -0.727912 0
M  V30 1685 H 180.934 4.39579 -2.8613 0
M  V30 1686 H 182.408 5.33159 -1.42986 0
M  V30 1687 H 182.885 4.39196 -0.0176577 0
M  V30 1688 H 183.491 3.93036 -1.62489 0
M  V30 1689 N 181.806 0.884767 1.30421 0
M  V30 1690 C 183.031 0.517288 2.00845 0
M  V30 1691 C 183.456 -0.886779 1.65885 0
M  V30 1692 O 182.814 -1.58768 0.875354 0
M  V30 1693 C 182.862 0.698994 3.5376 0
M  V30 1694 O 181.966 -0.255208 4.1161 0
M  V30 1695 H 181.307 0.203872 0.631927 0
M  V30 1696 H 183.837 1.19225 1.66272 0
M  V30 1697 H 183.847 0.597912 4.03595 0
M  V30 1698 H 182.522 1.72271 3.78544 0
M  V30 1699 H 181.099 -0.10784 3.72744 0
M  V30 1700 N 183.284 -1.43765 0.645699 0
M  V30 1701 C 184.695 -1.85193 0.236719 0
M  V30 1702 C 185.046 -1.54045 -1.21509 0
M  V30 1703 O 184.171 -0.985694 -1.92647 0
M  V30 1704 C 184.766 -3.36151 0.422845 0
M  V30 1705 C 183.325 -3.76338 0.0682492 0
M  V30 1706 C 182.472 -2.67538 0.729306 0
M  V30 1707 H 185.423 -1.34025 0.849883 0
M  V30 1708 H 185.444 -3.79032 -0.333904 0
M  V30 1709 H 184.956 -3.5879 1.47958 0
M  V30 1710 H 183.057 -3.59312 -0.986179 0
M  V30 1711 H 183.17 -4.76603 0.488469 0
M  V30 1712 H 181.534 -2.54176 0.163235 0
M  V30 1713 H 182.317 -2.93006 1.78892 0
M  V30 1714 N 184.763 -0.387143 -1.52771 0
M  V30 1715 C 185.726 0.436939 -2.24997 0
M  V30 1716 C 186.726 0.991991 -1.26555 0
M  V30 1717 O 187.916 0.874335 -1.50669 0
M  V30 1718 C 185.048 1.61281 -3.00335 0
M  V30 1719 H 186.241 -0.195365 -2.99263 0
M  V30 1720 H 183.794 -0.139218 -1.55679 0
M  V30 1721 H 184.529 2.2826 -2.30364 0
M  V30 1722 H 184.314 1.22154 -3.72587 0
M  V30 1723 H 185.804 2.19629 -3.5518 0
M  V30 1724 N 186.241 1.57166 -0.116904 0
M  V30 1725 C 187.171 2.18222 0.830759 0
M  V30 1726 C 188.152 1.12167 1.27877 0
M  V30 1727 O 189.337 1.40394 1.34176 0
M  V30 1728 C 186.467 2.77996 2.08172 0
M  V30 1729 C 185.421 3.89614 1.77157 0
M  V30 1730 C 184.747 4.36187 3.09265 0
M  V30 1731 C 186.047 5.1181 1.04151 0
M  V30 1732 H 187.741 2.97664 0.321992 0
M  V30 1733 H 185.287 1.4318 0.153434 0
M  V30 1734 H 187.24 3.19366 2.74924 0
M  V30 1735 H 185.964 1.9584 2.6137 0
M  V30 1736 H 184.623 3.48816 1.12796 0
M  V30 1737 H 184.271 3.50893 3.60393 0
M  V30 1738 H 183.971 5.11455 2.89288 0
M  V30 1739 H 185.495 4.80207 3.77139 0
M  V30 1740 H 186.909 5.50214 1.61052 0
M  V30 1741 H 185.306 5.92648 0.942762 0
M  V30 1742 H 186.376 4.84892 0.0279022 0
M  V30 1743 N 187.719 -0.156864 1.56817 0
M  V30 1744 C 188.947 -0.886316 1.86955 0
M  V30 1745 C 189.362 -1.75185 0.703975 0
M  V30 1746 O 188.719 -1.79555 -0.326552 0
M  V30 1747 C 188.77 -1.75117 3.16253 0
M  V30 1748 O 188.491 -0.920537 4.2832 0
M  V30 1749 C 189.992 -2.58905 3.59837 0
M  V30 1750 H 187.212 -0.25678 0.619923 0
M  V30 1751 H 189.756 -0.152615 2.0393 0
M  V30 1752 H 187.911 -2.43805 3.01062 0
M  V30 1753 H 188.325 -1.51337 5.02192 0
M  V30 1754 H 189.799 -3.1518 4.53172 0
M  V30 1755 H 190.276 -3.34472 2.84649 0
M  V30 1756 H 190.882 -1.95526 3.7769 0
M  V30 1757 N 189.197 -1.51736 -0.425897 0
M  V30 1758 C 190.422 -1.69082 -1.20108 0
M  V30 1759 C 190.847 -0.392398 -1.83962 0
M  V30 1760 O 190.205 0.64858 -1.69302 0
M  V30 1761 C 190.253 -2.81604 -2.25237 0
M  V30 1762 O 189.357 -2.46004 -3.30992 0
M  V30 1763 H 188.698 -0.563408 -0.35138 0
M  V30 1764 H 191.228 -1.98358 -0.501512 0
M  V30 1765 H 191.238 -3.06025 -2.69838 0
M  V30 1766 H 189.913 -3.75817 -1.78142 0
M  V30 1767 H 188.49 -2.32195 -2.91787 0
M  V30 1768 N 190.675 0.682077 -1.42076 0
M  V30 1769 C 191.585 1.82535 -1.47371 0
M  V30 1770 C 192.601 1.7017 -0.363079 0
M  V30 1771 O 193.777 1.91848 -0.612875 0
M  V30 1772 C 190.842 3.18624 -1.36674 0
M  V30 1773 C 189.903 3.42999 -2.58167 0
M  V30 1774 C 189.136 4.72595 -2.4797 0
M  V30 1775 O 189.359 5.50006 -1.5116 0
M  V30 1776 O 188.293 4.98054 -3.37974 0
M  V30 1777 H 192.119 1.81023 -2.43853 0
M  V30 1778 H 189.704 0.836887 -1.2376 0
M  V30 1779 H 191.586 3.99847 -1.33043 0
M  V30 1780 H 190.261 3.20789 -0.433138 0
M  V30 1781 H 189.168 2.61653 -2.67373 0
M  V30 1782 H 190.501 3.45659 -3.50401 0
M  V30 1783 N 192.153 1.28127 0.917671 0
M  V30 1784 C 193.564 1.13622 1.48145 0
M  V30 1785 C 193.915 -0.275207 1.9426 0
M  V30 1786 O 193.04 -1.1691 1.82102 0
M  V30 1787 C 193.635 2.05648 2.69248 0
M  V30 1788 C 192.194 1.95219 3.21818 0
M  V30 1789 C 191.341 1.97618 1.94532 0
M  V30 1790 H 194.292 1.40874 0.730772 0
M  V30 1791 H 194.313 1.61818 3.44377 0
M  V30 1792 H 193.825 3.08365 2.35653 0
M  V30 1793 H 191.926 0.955244 3.60147 0
M  V30 1794 H 192.039 2.81976 3.87333 0
M  V30 1795 H 190.403 1.41973 2.11461 0
M  V30 1796 H 191.186 3.02007 1.63238 0
M  V30 1797 N 193.631 -1.12557 1.10312 0
M  V30 1798 C 195.047 -1.36036 0.834649 0
M  V30 1799 C 195.247 -1.93946 -0.546539 0
M  V30 1800 O 194.303 -2.16484 -1.29966 0
M  V30 1801 C 195.616 -2.30312 1.9333 0
M  V30 1802 C 197.164 -2.43906 1.9616 0
M  V30 1803 C 197.639 -3.41496 3.05195 0
M  V30 1804 N 199.13 -3.49053 3.04494 0
M  V30 1805 C 199.865 -4.24471 3.85502 0
M  V30 1806 N 199.361 -5.02966 4.76442 0
M  V30 1807 N 201.154 -4.19864 3.73725 0
M  V30 1808 H 193.305 -0.733246 1.99342 0
M  V30 1809 H 195.568 -0.385234 0.866198 0
M  V30 1810 H 195.274 -1.94933 2.92735 0
M  V30 1811 H 195.148 -3.30421 1.81939 0
M  V30 1812 H 197.535 -2.78567 0.973886 0
M  V30 1813 H 197.616 -1.4369 2.11629 0
M  V30 1814 H 197.26 -3.07565 4.04186 0
M  V30 1815 H 197.19 -4.41539 2.86968 0
M  V30 1816 H 199.681 -2.93053 2.38596 0
M  V30 1817 H 199.994 -5.57846 5.34815 0
M  V30 1818 H 198.339 -5.02167 4.80472 0
M  V30 1819 H 201.53 -3.57623 3.02032 0
M  V30 1820 H 201.703 -4.78386 4.37093 0
M  V30 1821 N 195.109 -0.891671 -1.2995 0
M  V30 1822 C 196.041 -0.320695 -2.26945 0
M  V30 1823 C 197.054 0.528497 -1.53983 0
M  V30 1824 O 198.243 0.346959 -1.75096 0
M  V30 1825 C 195.343 0.562066 -3.34207 0
M  V30 1826 C 194.516 -0.259576 -4.36629 0
M  V30 1827 C 193.575 0.554739 -5.23268 0
M  V30 1828 O 192.601 -0.0249311 -5.69195 0
M  V30 1829 N 193.803 1.8625 -5.4981 0
M  V30 1830 H 196.568 -1.15432 -2.76578 0
M  V30 1831 H 194.129 -0.755336 -1.432 0
M  V30 1832 H 196.121 1.11304 -3.89093 0
M  V30 1833 H 194.691 1.29637 -2.84452 0
M  V30 1834 H 193.911 -0.991986 -3.81514 0
M  V30 1835 H 195.199 -0.822564 -5.02107 0
M  V30 1836 H 194.597 2.35628 -5.14292 0
M  V30 1837 H 193.154 2.36078 -6.07545 0
M  V30 1838 N 196.587 1.43421 -0.653314 0
M  V30 1839 C 197.833 2.02111 -0.166992 0
M  V30 1840 C 198.166 1.51423 1.21592 0
M  V30 1841 O 197.441 0.707389 1.8118 0
M  V30 1842 C 197.724 3.5966 -0.177948 0
M  V30 1843 C 197.577 4.20579 -1.59478 0
M  V30 1844 C 198.896 4.37413 0.4856 0
M  V30 1845 H 196.015 0.734374 -0.0621557 0
M  V30 1846 H 198.657 1.70717 -0.834016 0
M  V30 1847 H 196.807 3.86537 0.390032 0
M  V30 1848 H 198.479 4.04732 -2.21336 0
M  V30 1849 H 196.722 3.77226 -2.14204 0
M  V30 1850 H 197.393 5.29665 -1.5543 0
M  V30 1851 H 199.869 4.161 0.00234528 0
M  V30 1852 H 198.745 5.47075 0.447207 0
M  V30 1853 H 199.006 4.13672 1.55974 0
M  V30 1854 N 198.065 0.39524 1.52563 0
M  V30 1855 C 199.293 -0.184943 2.06072 0
M  V30 1856 C 199.708 -1.40021 1.26647 0
M  V30 1857 O 199.065 -1.79767 0.314672 0
M  V30 1858 C 199.116 -0.549179 3.57304 0
M  V30 1859 O 198.837 0.617813 4.33722 0
M  V30 1860 C 200.338 -1.18459 4.2718 0
M  V30 1861 H 197.558 -0.0265025 0.670476 0
M  V30 1862 H 200.102 0.562184 1.96621 0
M  V30 1863 H 198.257 -1.2462 3.66809 0
M  V30 1864 H 198.671 0.317091 5.23541 0
M  V30 1865 H 200.145 -1.38976 5.34219 0
M  V30 1866 H 200.622 -2.15368 3.82771 0
M  V30 1867 H 201.228 -0.528163 4.22008 0
M  V30 1868 N 199.544 -1.57102 0.125237 0
M  V30 1869 C 200.454 -2.19191 -0.8362 0
M  V30 1870 C 201.47 -1.16985 -1.28805 0
M  V30 1871 O 202.646 -1.49479 -1.34974 0
M  V30 1872 C 199.711 -2.78407 -2.06617 0
M  V30 1873 C 198.772 -3.9567 -1.66565 0
M  V30 1874 C 198.005 -4.52052 -2.83698 0
M  V30 1875 O 198.228 -4.07326 -3.99302 0
M  V30 1876 O 197.162 -5.42645 -2.60423 0
M  V30 1877 H 200.988 -3.01816 -0.337776 0
M  V30 1878 H 198.573 -1.4906 -0.100695 0
M  V30 1879 H 200.455 -3.16129 -2.7864 0
M  V30 1880 H 199.13 -1.9881 -2.55453 0
M  V30 1881 H 198.037 -3.62705 -0.916296 0
M  V30 1882 H 199.37 -4.76722 -1.22464 0
M  V30 1883 N 201.022 0.148545 -1.56898 0
M  V30 1884 C 202.25 0.876389 -1.87422 0
M  V30 1885 C 202.665 1.74809 -0.713256 0
M  V30 1886 O 202.022 1.79725 0.317025 0
M  V30 1887 C 202.073 1.73438 -3.17178 0
M  V30 1888 O 201.794 0.897809 -4.28802 0
M  V30 1889 C 203.295 2.56993 -3.61205 0
M  V30 1890 H 200.515 0.253489 -0.621277 0
M  V30 1891 H 203.059 0.141798 -2.04008 0
M  V30 1892 H 201.214 2.42205 -3.0235 0
M  V30 1893 H 201.628 1.48672 -5.02988 0
M  V30 1894 H 203.102 3.12773 -4.54838 0
M  V30 1895 H 203.579 3.32958 -2.86419 0
M  V30 1896 H 204.185 1.9352 -3.78722 0
M  V30 1897 N 202.5 1.5196 0.417844 0
M  V30 1898 C 203.747 1.65591 1.16559 0
M  V30 1899 C 204.075 0.381565 1.90721 0
M  V30 1900 O 203.33 -0.635156 1.85106 0
M  V30 1901 C 203.629 2.82269 2.19223 0
M  V30 1902 C 203.295 4.20819 1.61933 0
M  V30 1903 C 201.957 4.58506 1.46033 0
M  V30 1904 C 204.309 5.07196 1.20008 0
M  V30 1905 C 201.637 5.80257 0.867113 0
M  V30 1906 C 203.989 6.29544 0.621086 0
M  V30 1907 C 202.653 6.65987 0.449144 0
M  V30 1908 H 201.923 0.605939 0.42652 0
M  V30 1909 H 204.57 1.86041 0.45397 0
M  V30 1910 H 202.875 2.56118 2.96498 0
M  V30 1911 H 204.572 2.90012 2.76936 0
M  V30 1912 H 201.162 3.91116 1.7529 0
M  V30 1913 H 205.346 4.7867 1.31105 0
M  V30 1914 H 200.602 6.07124 0.721833 0
M  V30 1915 H 204.776 6.95805 0.287798 0
M  V30 1916 H 202.403 7.60199 -0.012632 0
M  V30 1917 N 203.978 -0.674533 1.42435 0
M  V30 1918 C 205.206 -1.46283 1.46317 0
M  V30 1919 C 205.621 -1.88653 0.0745836 0
M  V30 1920 O 204.978 -1.58151 -0.91074 0
M  V30 1921 C 205.029 -2.71178 2.3905 0
M  V30 1922 O 204.75 -2.30586 3.72507 0
M  V30 1923 C 206.251 -3.64738 2.51955 0
M  V30 1924 H 203.471 -0.450104 0.497642 0
M  V30 1925 H 206.015 -0.828792 1.86953 0
M  V30 1926 H 204.17 -3.3077 2.01667 0
M  V30 1927 H 204.584 -3.11241 4.22172 0
M  V30 1928 H 206.058 -4.49096 3.20962 0
M  V30 1929 H 206.535 -4.10656 1.55752 0
M  V30 1930 H 207.141 -3.11038 2.90061 0
M  V30 1931 N 205.456 -1.28612 -0.910864 0
M  V30 1932 C 206.419 -1.12803 -1.9952 0
M  V30 1933 C 207.419 -0.0668264 -1.60661 0
M  V30 1934 O 208.609 -0.312847 -1.71368 0
M  V30 1935 C 205.741 -0.72254 -3.33155 0
M  V30 1936 H 206.934 -2.09109 -2.14973 0
M  V30 1937 H 204.487 -1.11639 -1.09391 0
M  V30 1938 H 205.222 0.241152 -3.23402 0
M  V30 1939 H 205.007 -1.48916 -3.62721 0
M  V30 1940 H 206.497 -0.634666 -4.12749 0
M  V30 1941 N 206.934 1.1197 -1.10907 0
M  V30 1942 C 208.159 1.87942 -0.877064 0
M  V30 1943 C 208.584 1.79341 0.567314 0
M  V30 1944 O 207.942 1.15184 1.40009 0
M  V30 1945 C 207.99 3.34926 -1.33629 0
M  V30 1946 O 207.094 4.09303 -0.504447 0
M  V30 1947 H 206.435 0.583785 -0.316371 0
M  V30 1948 H 208.965 1.4157 -1.47712 0
M  V30 1949 H 208.975 3.8577 -1.32837 0
M  V30 1950 H 207.65 3.40504 -2.3881 0
M  V30 1951 H 206.227 3.68393 -0.577993 0
M  V30 1952 N 208.412 0.89855 1.29475 0
M  V30 1953 C 209.375 0.380272 2.26023 0
M  V30 1954 C 210.375 -0.484891 1.53315 0
M  V30 1955 O 211.565 -0.290108 1.71767 0
M  V30 1956 C 208.697 -0.45651 3.3783 0
M  V30 1957 H 209.89 1.23295 2.73383 0
M  V30 1958 H 207.443 0.676589 1.40897 0
M  V30 1959 H 208.178 -1.32922 2.95808 0
M  V30 1960 H 207.963 0.163393 3.91759 0
M  V30 1961 H 209.453 -0.810466 4.0966 0
M  V30 1962 N 209.89 -1.43072 0.660911 0
M  V30 1963 C 211.118 -2.06067 0.185422 0
M  V30 1964 C 211.533 -1.49582 -1.15198 0
M  V30 1965 O 210.89 -0.630134 -1.71276 0
M  V30 1966 C 210.941 -3.61371 0.0966523 0
M  V30 1967 O 210.662 -4.15758 1.38119 0
M  V30 1968 C 212.163 -4.41455 -0.403996 0
M  V30 1969 H 209.383 -0.664459 0.0934604 0
M  V30 1970 H 211.927 -1.83447 0.90373 0
M  V30 1971 H 210.082 -3.8315 -0.572259 0
M  V30 1972 H 210.496 -5.09499 1.24542 0
M  V30 1973 H 211.97 -5.50437 -0.415045 0
M  V30 1974 H 212.447 -4.15036 -1.43674 0
M  V30 1975 H 213.053 -4.24663 0.232691 0
M  V30 1976 N 211.368 -0.403325 -1.52352 0
M  V30 1977 C 212.598 0.17376 -2.05868 0
M  V30 1978 C 213.006 1.39898 -1.27378 0
M  V30 1979 O 212.349 1.80939 -0.31729 0
M  V30 1980 C 212.411 0.594756 -3.54546 0
M  V30 1981 C 212.075 -0.518926 -4.54044 0
M  V30 1982 C 213.072 -1.3807 -5.01231 0
M  V30 1983 C 210.757 -0.689961 -4.97539 0
M  V30 1984 C 212.751 -2.39852 -5.90551 0
M  V30 1985 C 210.438 -1.71109 -5.86656 0
M  V30 1986 C 211.436 -2.56378 -6.33056 0
M  V30 1987 O 211.124 -3.56743 -7.20409 0
M  V30 1988 H 210.856 0.0264951 -0.675481 0
M  V30 1989 H 213.41 -0.571179 -1.97299 0
M  V30 1990 H 211.64 1.39189 -3.60782 0
M  V30 1991 H 213.329 1.0991 -3.90736 0
M  V30 1992 H 214.095 -1.25994 -4.68349 0
M  V30 1993 H 209.974 -0.035939 -4.60986 0
M  V30 1994 H 213.518 -3.06441 -6.26689 0
M  V30 1995 H 209.415 -1.83218 -6.18952 0
M  V30 1996 H 210.183 -3.52918 -7.38506 0
M  V30 1997 N 212.846 1.57033 -0.133567 0
M  V30 1998 C 214.257 1.82593 0.389464 0
M  V30 1999 C 214.608 1.05156 1.6564 0
M  V30 2000 O 213.733 0.292644 2.14412 0
M  V30 2001 C 214.328 3.31204 0.713377 0
M  V30 2002 C 212.887 3.57393 1.18098 0
M  V30 2003 C 212.034 2.76598 0.197126 0
M  V30 2004 H 214.985 1.54598 -0.358481 0
M  V30 2005 H 215.006 3.46627 1.56939 0
M  V30 2006 H 214.518 3.87537 -0.2089 0
M  V30 2007 H 212.619 3.06433 2.11966 0
M  V30 2008 H 212.732 4.65915 1.11624 0
M  V30 2009 H 211.096 2.45257 0.687088 0
M  V30 2010 H 211.879 3.35697 -0.718504 0
M  V30 2011 N 214.325 -0.140222 1.56975 0
M  V30 2012 C 215.288 -1.15689 1.97861 0
M  V30 2013 C 216.288 -1.3549 0.865974 0
M  V30 2014 O 217.478 -1.32367 1.13246 0
M  V30 2015 C 214.61 -2.51582 2.30042 0
M  V30 2016 H 215.803 -0.805971 2.88867 0
M  V30 2017 H 213.356 -0.383801 1.51515 0
M  V30 2018 H 214.091 -2.91632 1.41849 0
M  V30 2019 H 213.876 -2.38569 3.11171 0
M  V30 2020 H 215.366 -3.24792 2.62488 0
M  V30 2021 N 215.803 -1.52179 -0.40978 0
M  V30 2022 C 217.031 -1.70054 -1.17853 0
M  V30 2023 C 217.446 -0.409735 -1.843 0
M  V30 2024 O 216.803 0.614183 -1.71855 0
M  V30 2025 C 216.854 -2.83568 -2.24213 0
M  V30 2026 O 216.575 -4.0765 -1.60478 0
M  V30 2027 C 218.076 -3.12947 -3.13973 0
M  V30 2028 H 215.296 -0.569917 -0.354169 0
M  V30 2029 H 217.84 -1.98734 -0.482198 0
M  V30 2030 H 215.995 -2.57409 -2.89516 0
M  V30 2031 H 216.409 -4.70899 -2.30986 0
M  V30 2032 H 217.883 -3.95889 -3.84677 0
M  V30 2033 H 218.36 -2.26472 -3.76307 0
M  V30 2034 H 218.966 -3.40868 -2.5434 0
M  V30 2035 N 217.281 0.66697 -1.42791 0
M  V30 2036 C 218.692 1.2478 -1.38877 0
M  V30 2037 C 219.043 1.96012 -0.0859426 0
M  V30 2038 O 218.168 2.00463 0.815081 0
M  V30 2039 C 218.763 2.26938 -2.51564 0
M  V30 2040 C 217.322 2.80529 -2.50959 0
M  V30 2041 C 216.469 1.54965 -2.29959 0
M  V30 2042 H 219.42 0.459853 -1.51892 0
M  V30 2043 H 219.441 3.08834 -2.22265 0
M  V30 2044 H 218.953 1.75065 -3.46372 0
M  V30 2045 H 217.054 3.36502 -1.59991 0
M  V30 2046 H 217.167 3.29012 -3.48265 0
M  V30 2047 H 215.531 1.81817 -1.78366 0
M  V30 2048 H 216.314 1.05047 -3.26833 0
M  V30 2049 N 218.759 1.29093 0.90403 0
M  V30 2050 C 219.722 1.1386 1.98919 0
M  V30 2051 C 220.722 0.0753457 1.60623 0
M  V30 2052 O 221.912 0.321931 1.71199 0
M  V30 2053 C 219.044 0.740198 3.32767 0
M  V30 2054 H 220.237 2.10246 2.13861 0
M  V30 2055 H 217.79 1.12218 1.08797 0
M  V30 2056 H 218.525 -0.223997 3.23525 0
M  V30 2057 H 218.31 1.50838 3.61926 0
M  V30 2058 H 219.8 0.656546 4.12407 0
M  V30 2059 N 220.237 -1.11381 1.11499 0
M  V30 2060 C 221.2 -2.15622 0.777153 0
M  V30 2061 C 222.2 -1.59504 -0.203779 0
M  V30 2062 O 223.39 -1.74188 0.020782 0
M  V30 2063 C 220.522 -3.40556 0.153116 0
M  V30 2064 H 221.715 -2.47021 1.70061 0
M  V30 2065 H 219.268 -1.26577 0.916952 0
M  V30 2066 H 220.003 -3.14767 -0.780536 0
M  V30 2067 H 219.788 -3.8257 0.859238 0
M  V30 2068 H 221.278 -4.17546 -0.0671044 0
M  V30 2069 N 221.715 -0.905404 -1.28997 0
M  V30 2070 C 222.992 -0.453513 -1.9027 0
M  V30 2071 C 223.372 1.06721 -1.82137 0
M  V30 2072 O 222.72 1.91159 -1.25182 0
M  V30 2073 C 222.93 -0.974494 -3.35119 0
M  V30 2074 C 224.278 -1.0216 -4.12127 0
M  V30 2075 O 225.302 -0.922557 -3.44046 0
M  V30 2076 O 224.161 -1.17121 -5.33802 0
M  V30 2077 H 221.255 -0.142347 -0.814657 0
M  V30 2078 H 223.801 -0.995642 -1.37423 0
M  V30 2079 H 222.573 -2.01848 -3.35221 0
M  V30 2080 H 222.196 -0.412706 -3.95452 0
M  V30 2081 N 223.193 1.4272 -0.668489 0
M  V30 2082 C 224.47 1.95248 -0.117373 0
M  V30 2083 C 224.85 1.60919 1.36632 0
M  V30 2084 O 224.198 0.902095 2.09939 0
M  V30 2085 C 224.408 3.46927 -0.379806 0
M  V30 2086 C 225.756 4.23588 -0.292923 0
M  V30 2087 O 226.78 3.5482 -0.313204 0
M  V30 2088 O 225.639 5.46017 -0.229697 0
M  V30 2089 H 222.733 0.827 0.00079152 0
M  V30 2090 H 225.279 1.52581 -0.742783 0
M  V30 2091 H 224.051 3.65096 -1.40786 0
M  V30 2092 H 223.674 3.96627 0.277923 0
M  V30 2093 N 224.671 0.411399 1.52136 0
M  V30 2094 C 226.082 -0.0576826 1.86611 0
M  V30 2095 C 226.433 -1.44238 1.33003 0
M  V30 2096 O 225.558 -2.05759 0.670228 0
M  V30 2097 C 226.153 -0.111448 3.38617 0
M  V30 2098 C 224.712 -0.52487 3.72723 0
M  V30 2099 C 223.859 0.299176 2.75681 0
M  V30 2100 H 226.81 0.628368 1.4573 0
M  V30 2101 H 226.831 -0.926252 3.69054 0
M  V30 2102 H 226.343 0.896488 3.77604 0
M  V30 2103 H 224.444 -1.53936 3.39315 0
M  V30 2104 H 224.557 -0.267681 4.78352 0
M  V30 2105 H 222.921 -0.238814 2.53578 0
M  V30 2106 H 223.704 1.3055 3.17508 0
M  V30 2107 N 226.149 -1.5696 0.141893 0
M  V30 2108 C 227.059 -2.20066 -0.812905 0
M  V30 2109 C 228.075 -1.18344 -1.27557 0
M  V30 2110 O 229.251 -1.50902 -1.33381 0
M  V30 2111 C 226.316 -2.80583 -2.03652 0
M  V30 2112 C 225.377 -3.97414 -1.62359 0
M  V30 2113 C 224.61 -4.55036 -2.78887 0
M  V30 2114 O 224.833 -4.11538 -3.94959 0
M  V30 2115 O 223.767 -5.45376 -2.54653 0
M  V30 2116 H 227.593 -3.02157 -0.305746 0
M  V30 2117 H 225.178 -1.49159 -0.0848799 0
M  V30 2118 H 227.06 -3.19067 -2.75272 0
M  V30 2119 H 225.735 -2.01508 -2.5333 0
M  V30 2120 H 224.642 -3.63656 -0.877775 0
M  V30 2121 H 225.975 -4.77994 -1.17401 0
M  V30 2122 N 227.627 0.131896 -1.57047 0
M  V30 2123 C 228.875 0.840269 -1.83804 0
M  V30 2124 C 229.196 1.81017 -0.72512 0
M  V30 2125 O 228.466 1.94272 0.251995 0
M  V30 2126 H 227.046 0.313294 -0.678127 0
M  V30 2127 H 229.708 0.122294 -1.94516 0
M  V30 2128 H 228.804 1.39335 -2.79271 0
M  V30 2129 N 229.106 1.52395 0.401703 0
M  V30 2130 C 230.038 1.72505 1.50912 0
M  V30 2131 C 231.051 0.605468 1.51122 0
M  V30 2132 O 232.24 0.880828 1.55254 0
M  V30 2133 C 229.34 1.75711 2.89791 0
M  V30 2134 C 228.513 3.04824 3.1369 0
M  V30 2135 C 227.572 2.99743 4.32482 0
M  V30 2136 O 226.598 3.73635 4.29402 0
M  V30 2137 N 227.8 2.18047 5.37992 0
M  V30 2138 H 230.565 2.68049 1.34052 0
M  V30 2139 H 228.126 1.50724 0.591084 0
M  V30 2140 H 230.118 1.69834 3.6734 0
M  V30 2141 H 228.688 0.876092 3.00072 0
M  V30 2142 H 227.908 3.2429 2.24119 0
M  V30 2143 H 229.196 3.90221 3.26504 0
M  V30 2144 H 228.594 1.57456 5.43345 0
M  V30 2145 H 227.151 2.18021 6.14256 0
M  V30 2146 N 230.584 -0.659388 1.43143 0
M  V30 2147 C 231.833 -1.41518 1.43721 0
M  V30 2148 C 232.146 -1.95499 0.0628176 0
M  V30 2149 O 233.352 -2.71446 -0.0539683 0
M  V30 2150 C 231.808 -2.5608 2.52885 0
M  V30 2151 C 231.416 -2.08733 3.96402 0
M  V30 2152 C 233.16 -3.3349 2.62649 0
M  V30 2153 C 231.067 -3.20469 4.97045 0
M  V30 2154 H 229.997 -0.531705 0.534608 0
M  V30 2155 H 232.648 -0.712343 1.69109 0
M  V30 2156 H 231.03 -3.28805 2.20688 0
M  V30 2157 H 232.204 -1.43059 4.3803 0
M  V30 2158 H 230.519 -1.44219 3.90627 0
M  V30 2159 H 233.116 -4.16734 3.35017 0
M  V30 2160 H 233.459 -3.8111 1.67513 0
M  V30 2161 H 233.992 -2.67842 2.94118 0
M  V30 2162 H 230.731 -2.77824 5.93712 0
M  V30 2163 H 230.251 -3.84874 4.60034 0
M  V30 2164 H 231.93 -3.85698 5.19467 0
M  V30 2165 N 232.062 -1.29571 -0.897171 0
M  V30 2166 C 233.025 -1.14913 -1.98312 0
M  V30 2167 C 234.025 -0.0838629 -1.60581 0
M  V30 2168 O 235.215 -0.331006 -1.71026 0
M  V30 2169 C 232.347 -0.757835 -3.3237 0
M  V30 2170 H 233.54 -2.11377 -2.12743 0
M  V30 2171 H 231.093 -1.12793 -1.08201 0
M  V30 2172 H 231.828 0.206837 -3.2364 0
M  V30 2173 H 231.613 -1.52755 -3.61121 0
M  V30 2174 H 233.103 -0.678408 -4.12053 0
M  V30 2175 N 233.54 1.10788 -1.12088 0
M  V30 2176 C 234.787 1.82671 -0.873931 0
M  V30 2177 C 235.115 1.85004 0.600311 0
M  V30 2178 O 234.37 1.30365 1.45957 0
M  V30 2179 C 234.669 3.29294 -1.38926 0
M  V30 2180 C 234.335 3.47113 -2.87791 0
M  V30 2181 C 232.997 3.51684 -3.28439 0
M  V30 2182 C 235.349 3.52808 -3.83635 0
M  V30 2183 C 232.677 3.59513 -4.63646 0
M  V30 2184 C 235.029 3.62169 -5.18668 0
M  V30 2185 C 233.693 3.65003 -5.58864 0
M  V30 2186 H 232.963 0.668441 -0.319794 0
M  V30 2187 H 235.61 1.30613 -1.40045 0
M  V30 2188 H 233.915 3.83894 -0.783122 0
M  V30 2189 H 235.612 3.83416 -1.17443 0
M  V30 2190 H 232.202 3.4423 -2.5535 0
M  V30 2191 H 236.386 3.4853 -3.53328 0
M  V30 2192 H 231.642 3.59987 -4.94185 0
M  V30 2193 H 235.816 3.6552 -5.92763 0
M  V30 2194 H 233.443 3.70822 -6.63623 0
M  V30 2195 N 235.018 0.912232 1.28515 0
M  V30 2196 C 235.95 0.35676 2.26406 0
M  V30 2197 C 236.963 -0.503933 1.54804 0
M  V30 2198 O 238.152 -0.319059 1.75625 0
M  V30 2199 C 235.252 -0.508825 3.35058 0
M  V30 2200 C 234.425 0.329007 4.36161 0
M  V30 2201 C 233.484 -0.471422 5.24084 0
M  V30 2202 O 232.51 0.115482 5.69083 0
M  V30 2203 N 233.712 -1.77479 5.52704 0
M  V30 2204 H 236.477 1.19818 2.74707 0
M  V30 2205 H 234.038 0.778022 1.4198 0
M  V30 2206 H 236.03 -1.051 3.90815 0
M  V30 2207 H 234.6 -1.25095 2.86478 0
M  V30 2208 H 233.82 1.05256 3.79888 0
M  V30 2209 H 235.108 0.90234 5.00735 0
M  V30 2210 H 234.506 -2.27417 5.17975 0
M  V30 2211 H 233.063 -2.26382 6.11224 0
M  V30 2212 N 236.496 -1.42363 0.676048 0
M  V30 2213 C 237.426 -2.33497 0.0124832 0
M  V30 2214 C 238.407 -1.50748 -0.787981 0
M  V30 2215 O 239.592 -1.79346 -0.744884 0
M  V30 2216 C 236.722 -3.34377 -0.938582 0
M  V30 2217 C 235.676 -4.27289 -0.246622 0
M  V30 2218 C 235.002 -5.18386 -1.31071 0
M  V30 2219 C 236.302 -5.14916 0.875125 0
M  V30 2220 H 237.996 -2.89233 0.773593 0
M  V30 2221 H 235.542 -1.39073 0.37346 0
M  V30 2222 H 237.495 -3.97044 -1.41188 0
M  V30 2223 H 236.219 -2.76947 -1.73113 0
M  V30 2224 H 234.878 -3.66018 0.206456 0
M  V30 2225 H 234.526 -4.57282 -2.09528 0
M  V30 2226 H 234.226 -5.81378 -0.852839 0
M  V30 2227 H 235.75 -5.83929 -1.78492 0
M  V30 2228 H 237.164 -5.71262 0.482983 0
M  V30 2229 H 235.561 -5.86747 1.25887 0
M  V30 2230 H 236.631 -4.53242 1.72335 0
M  V30 2231 N 237.974 -0.419461 -1.51915 0
M  V30 2232 C 239.222 0.152637 -2.01523 0
M  V30 2233 C 239.543 1.44762 -1.30649 0
M  V30 2234 O 238.813 1.90997 -0.435535 0
M  V30 2235 H 237.393 0.0593966 -0.744635 0
M  V30 2236 H 240.055 -0.558073 -1.86739 0
M  V30 2237 H 239.151 0.341369 -3.10227 0
M  V30 2238 N 239.452 1.56882 -0.150215 0
M  V30 2239 C 240.7 1.9584 0.499105 0
M  V30 2240 C 241.021 1.03623 1.65188 0
M  V30 2241 O 240.291 0.0984084 1.95653 0
M  V30 2242 H 238.871 0.723119 0.187373 0
M  V30 2243 H 241.533 1.9358 -0.226466 0
M  V30 2244 H 240.629 2.99638 0.873122 0
M  V30 2245 N 240.93 -0.123565 1.57115 0
M  V30 2246 C 242.177 -0.832153 1.84612 0
M  V30 2247 C 242.505 -1.80093 0.734627 0
M  V30 2248 O 241.76 -1.93766 -0.27442 0
M  V30 2249 C 242.059 -1.62016 3.18568 0
M  V30 2250 C 241.725 -0.796084 4.43817 0
M  V30 2251 C 240.387 -0.568816 4.77826 0
M  V30 2252 C 242.739 -0.221364 5.2073 0
M  V30 2253 C 240.067 0.243499 5.86194 0
M  V30 2254 C 242.419 0.578117 6.29953 0
M  V30 2255 C 241.083 0.815744 6.62497 0
M  V30 2256 H 240.353 -0.304507 0.675542 0
M  V30 2257 H 243 -0.0947248 1.91266 0
M  V30 2258 H 241.305 -2.42837 3.0747 0
M  V30 2259 H 243.002 -2.17231 3.37064 0
M  V30 2260 H 239.592 -0.983307 4.17168 0
M  V30 2261 H 243.776 -0.384173 4.94811 0
M  V30 2262 H 239.032 0.436871 6.09837 0
M  V30 2263 H 243.206 1.03046 6.88734 0
M  V30 2264 H 240.833 1.44701 7.46301 0
M  V30 2265 N 242.408 -1.52605 -0.393616 0
M  V30 2266 C 243.633 -1.71592 -1.16495 0
M  V30 2267 C 244.058 -0.43133 -1.83088 0
M  V30 2268 O 243.416 0.612523 -1.7064 0
M  V30 2269 C 243.464 -2.86318 -2.19213 0
M  V30 2270 O 242.568 -2.52969 -3.257 0
M  V30 2271 H 241.909 -0.570734 -0.33935 0
M  V30 2272 H 244.439 -1.99377 -0.459324 0
M  V30 2273 H 244.449 -3.1168 -2.63286 0
M  V30 2274 H 243.124 -3.79511 -1.7013 0
M  V30 2275 H 241.701 -2.38332 -2.86797 0
M  V30 2276 N 243.887 0.651787 -1.4349 0
M  V30 2277 C 244.85 1.74647 -1.48429 0
M  V30 2278 C 245.85 1.56513 -0.368817 0
M  V30 2279 O 247.04 1.62385 -0.630623 0
M  V30 2280 C 244.172 3.13533 -1.33827 0
M  V30 2281 H 245.365 1.71649 -2.4592 0
M  V30 2282 H 242.918 0.863573 -1.30277 0
M  V30 2283 H 243.653 3.22142 -0.37349 0
M  V30 2284 H 243.438 3.28101 -2.14691 0
M  V30 2285 H 244.928 3.93356 -1.40218 0
M  V30 2286 N 245.365 1.30045 0.890287 0
M  V30 2287 C 246.642 1.09227 1.62262 0
M  V30 2288 C 247.022 -0.360305 2.08002 0
M  V30 2289 O 246.37 -1.35084 1.84295 0
M  V30 2290 C 246.58 2.08835 2.79623 0
M  V30 2291 C 247.928 2.40266 3.50082 0
M  V30 2292 O 248.952 2.07104 2.89804 0
M  V30 2293 O 247.811 2.96967 4.58773 0
M  V30 2294 H 244.905 0.419132 0.712922 0
M  V30 2295 H 247.451 1.41451 0.937529 0
M  V30 2296 H 246.223 3.06633 2.43089 0
M  V30 2297 H 245.846 1.77397 3.55832 0
M  V30 2298 N 246.843 -1.10192 1.12674 0
M  V30 2299 C 247.806 -2.14786 0.799979 0
M  V30 2300 C 248.806 -1.59711 -0.18685 0
M  V30 2301 O 249.996 -1.74156 0.0392558 0
M  V30 2302 C 247.128 -3.40374 0.189228 0
M  V30 2303 H 248.321 -2.45203 1.72671 0
M  V30 2304 H 245.874 -1.25597 0.930326 0
M  V30 2305 H 246.609 -3.15577 -0.747107 0
M  V30 2306 H 246.394 -3.81637 0.899766 0
M  V30 2307 H 247.884 -4.17594 -0.0228143 0
M  V30 2308 N 248.321 -0.919034 -1.28029 0
M  V30 2309 C 249.567 -0.565221 -1.95389 0
M  V30 2310 C 249.922 0.882325 -1.70976 0
M  V30 2311 O 249.215 1.61988 -1.02325 0
M  V30 2312 C 249.409 -0.816855 -3.4794 0
M  V30 2313 C 249.238 -2.28731 -3.87185 0
M  V30 2314 C 248.008 -2.93841 -4.11079 0
M  V30 2315 C 250.206 -3.26415 -3.97439 0
M  V30 2316 N 248.188 -4.31129 -4.37037 0
M  V30 2317 C 249.559 -4.48884 -4.27672 0
M  V30 2318 C 251.614 -3.21742 -3.79982 0
M  V30 2319 C 250.317 -5.67268 -4.42266 0
M  V30 2320 C 252.343 -4.39431 -3.95796 0
M  V30 2321 C 251.705 -5.60675 -4.26407 0
M  V30 2322 H 247.804 -0.256797 -0.738633 0
M  V30 2323 H 250.388 -1.18386 -1.54573 0
M  V30 2324 H 248.559 -0.227445 -3.87733 0
M  V30 2325 H 250.291 -0.426542 -4.02446 0
M  V30 2326 H 247.046 -2.44547 -4.05578 0
M  V30 2327 H 247.47 -5.02127 -4.5409 0
M  V30 2328 H 252.112 -2.29079 -3.55363 0
M  V30 2329 H 249.83 -6.60406 -4.65714 0
M  V30 2330 H 253.416 -4.37323 -3.83719 0
M  V30 2331 H 252.296 -6.50223 -4.38383 0
M  V30 2332 N 249.799 1.42003 -0.683588 0
M  V30 2333 C 251.027 2.05746 -0.218182 0
M  V30 2334 C 251.442 1.51396 1.12804 0
M  V30 2335 O 250.799 0.657303 1.70252 0
M  V30 2336 C 250.85 3.61171 -0.154131 0
M  V30 2337 O 250.571 4.13508 -1.44716 0
M  V30 2338 C 252.072 4.42042 0.333713 0
M  V30 2339 H 249.292 0.662888 -0.10402 0
M  V30 2340 H 251.836 1.81987 -0.9328 0
M  V30 2341 H 249.991 3.84012 0.511231 0
M  V30 2342 H 250.405 5.07453 -1.32632 0
M  V30 2343 H 251.879 5.51028 0.327423 0
M  V30 2344 H 252.356 4.17269 1.37053 0
M  V30 2345 H 252.962 4.24239 -0.300222 0
M  V30 2346 N 251.277 0.427512 1.51691 0
M  V30 2347 C 252.524 -0.142229 2.02 0
M  V30 2348 C 252.852 -1.43566 1.31221 0
M  V30 2349 O 252.107 -1.91298 0.412744 0
M  V30 2350 C 252.406 -0.418249 3.54944 0
M  V30 2351 C 252.072 0.788187 4.43958 0
M  V30 2352 C 250.734 1.11906 4.68007 0
M  V30 2353 C 253.086 1.59347 4.96244 0
M  V30 2354 C 250.414 2.25608 5.41588 0
M  V30 2355 C 252.766 2.7214 5.71072 0
M  V30 2356 C 251.43 3.05692 5.93387 0
M  V30 2357 H 250.7 -0.0520451 0.73917 0
M  V30 2358 H 253.347 0.572697 1.82736 0
M  V30 2359 H 251.652 -1.21496 3.72486 0
M  V30 2360 H 253.349 -0.872339 3.91397 0
M  V30 2361 H 249.939 0.520344 4.2543 0
M  V30 2362 H 254.123 1.35106 4.77556 0
M  V30 2363 H 249.379 2.51929 5.57083 0
M  V30 2364 H 253.553 3.34914 6.10578 0
M  V30 2365 H 251.18 3.9391 6.50184 0
M  V30 2366 N 252.755 -1.56801 0.158532 0
M  V30 2367 C 253.995 -1.98383 -0.49229 0
M  V30 2368 C 254.359 -1.04184 -1.61275 0
M  V30 2369 O 255.56 -1.34856 -2.32524 0
M  V30 2370 C 253.831 -3.4385 -0.974766 0
M  V30 2371 S 255.39 -4.07459 -1.62857 0
M  V30 2372 H 252.208 -0.693041 -0.158794 0
M  V30 2373 H 254.81 -1.93856 0.252974 0
M  V30 2374 H 253.514 -4.10131 -0.148688 0
M  V30 2375 H 253.045 -3.52115 -1.75438 0
M  V30 2376 H 255.06 -4.01458 -2.91627 0
M  V30 2377 N 254.233 0.115231 -1.57178 0
M  V30 2378 C 255.163 1.1423 -2.03651 0
M  V30 2379 C 256.144 1.42967 -0.921655 0
M  V30 2380 O 257.329 1.53343 -1.19162 0
M  V30 2381 C 254.459 2.4675 -2.44401 0
M  V30 2382 C 253.413 2.32467 -3.59365 0
M  V30 2383 C 252.739 3.69984 -3.86026 0
M  V30 2384 C 254.039 1.78203 -4.90959 0
M  V30 2385 H 255.733 0.755749 -2.89705 0
M  V30 2386 H 253.279 0.362093 -1.39373 0
M  V30 2387 H 255.232 3.18854 -2.75517 0
M  V30 2388 H 253.956 2.87302 -1.55322 0
M  V30 2389 H 252.615 1.62811 -3.28463 0
M  V30 2390 H 252.263 4.08028 -2.94147 0
M  V30 2391 H 251.963 3.61279 -4.63412 0
M  V30 2392 H 253.487 4.43587 -4.19599 0
M  V30 2393 H 254.901 2.40128 -5.20587 0
M  V30 2394 H 253.298 1.8031 -5.72371 0
M  V30 2395 H 254.368 0.739876 -4.79222 0
M  V30 2396 N 255.711 1.52812 0.385517 0
M  V30 2397 C 256.988 1.5861 1.14465 0
M  V30 2398 C 257.368 0.381402 2.07626 0
M  V30 2399 O 256.716 -0.629999 2.19643 0
M  V30 2400 C 256.926 2.92664 1.90128 0
M  V30 2401 C 258.274 3.46526 2.45367 0
M  V30 2402 O 259.298 2.94562 2.0028 0
M  V30 2403 O 258.157 4.37323 3.27736 0
M  V30 2404 H 255.251 0.639855 0.523941 0
M  V30 2405 H 257.797 1.65149 0.390389 0
M  V30 2406 H 256.569 3.71788 1.22022 0
M  V30 2407 H 256.192 2.89527 2.72507 0
M  V30 2408 N 257.189 -0.644168 1.43834 0
M  V30 2409 C 258.466 -1.40188 1.36406 0
M  V30 2410 C 258.846 -2.11094 0.0163124 0
M  V30 2411 O 258.194 -2.05426 -1.00062 0
M  V30 2412 C 258.404 -2.3791 2.55343 0
M  V30 2413 C 259.752 -3.01637 2.98832 0
M  V30 2414 O 260.776 -2.48237 2.55455 0
M  V30 2415 O 259.635 -3.98477 3.74003 0
M  V30 2416 H 256.729 -0.626773 0.539523 0
M  V30 2417 H 259.275 -0.670317 1.559 0
M  V30 2418 H 258.047 -1.84525 3.4506 0
M  V30 2419 H 257.67 -3.18503 2.37995 0
M  V30 2420 N 258.668 -1.30515 -0.883378 0
M  V30 2421 C 259.914 -1.19607 -1.63774 0
M  V30 2422 C 260.247 0.248314 -1.92606 0
M  V30 2423 O 259.522 1.17742 -1.54813 0
M  V30 2424 C 259.805 -2.02669 -2.97653 0
M  V30 2425 C 259.658 -3.55335 -2.75784 0
M  V30 2426 C 260.977 -1.86573 -3.98596 0
M  V30 2427 H 258.096 -0.435856 -0.594305 0
M  V30 2428 H 260.738 -1.60165 -1.02212 0
M  V30 2429 H 258.888 -1.68208 -3.50197 0
M  V30 2430 H 260.56 -3.99863 -2.30016 0
M  V30 2431 H 258.803 -3.79438 -2.1026 0
M  V30 2432 H 259.474 -4.08745 -3.70988 0
M  V30 2433 H 261.95 -2.16703 -3.55217 0
M  V30 2434 H 260.826 -2.47014 -4.90179 0
M  V30 2435 H 261.087 -0.825321 -4.34328 0
M  V30 2436 N 260.146 1.09593 -1.13257 0
M  V30 2437 C 261.109 2.14359 -0.811358 0
M  V30 2438 C 262.109 1.59808 0.178377 0
M  V30 2439 O 263.299 1.74132 -0.0484911 0
M  V30 2440 C 260.431 3.40269 -0.207276 0
M  V30 2441 H 261.624 2.44284 -1.73969 0
M  V30 2442 H 259.177 1.25102 -0.936973 0
M  V30 2443 H 259.912 3.15969 0.73036 0
M  V30 2444 H 259.697 3.81154 -0.919992 0
M  V30 2445 H 261.187 4.176 0.000667944 0
M  V30 2446 N 261.624 0.925811 1.2754 0
M  V30 2447 C 262.554 0.440748 2.29303 0
M  V30 2448 C 263.535 -0.497971 1.62648 0
M  V30 2449 O 264.72 -0.403126 1.8997 0
M  V30 2450 C 261.85 -0.309048 3.45922 0
M  V30 2451 C 260.804 0.54166 4.24559 0
M  V30 2452 C 260.13 -0.337191 5.33636 0
M  V30 2453 C 261.43 1.80516 4.90114 0
M  V30 2454 H 263.124 1.29121 2.70126 0
M  V30 2455 H 260.67 0.622323 1.29858 0
M  V30 2456 H 262.623 -0.659315 4.1621 0
M  V30 2457 H 261.347 -1.19352 3.04011 0
M  V30 2458 H 260.006 0.874609 3.56014 0
M  V30 2459 H 259.654 -1.22056 4.87966 0
M  V30 2460 H 259.354 0.228497 5.87156 0
M  V30 2461 H 260.878 -0.683072 6.06767 0
M  V30 2462 H 262.292 1.52307 5.52698 0
M  V30 2463 H 260.689 2.3142 5.53683 0
M  V30 2464 H 261.759 2.52581 4.13921 0
M  V30 2465 N 263.102 -1.41638 0.69111 0
M  V30 2466 C 264.379 -1.95036 0.148421 0
M  V30 2467 C 264.759 -1.63072 -1.34055 0
M  V30 2468 O 264.107 -0.93538 -2.08478 0
M  V30 2469 C 264.317 -3.46279 0.434951 0
M  V30 2470 C 265.665 -4.23069 0.360275 0
M  V30 2471 O 266.689 -3.54277 0.369613 0
M  V30 2472 O 265.548 -5.45583 0.316534 0
M  V30 2473 H 262.642 -0.826908 0.0123654 0
M  V30 2474 H 265.188 -1.5138 0.766963 0
M  V30 2475 H 263.96 -3.6281 1.46576 0
M  V30 2476 H 263.583 -3.97019 -0.214787 0
M  V30 2477 N 264.58 -0.43555 -1.51462 0
M  V30 2478 C 265.805 0.132627 -2.06976 0
M  V30 2479 C 266.23 1.35848 -1.30104 0
M  V30 2480 O 265.588 1.78112 -0.338493 0
M  V30 2481 C 265.636 0.43523 -3.57964 0
M  V30 2482 O 264.74 1.52198 -3.83288 0
M  V30 2483 H 264.081 0.00265 -0.663995 0
M  V30 2484 H 266.611 -0.616369 -1.95095 0
M  V30 2485 H 266.621 0.686206 -4.02188 0
M  V30 2486 H 265.296 -0.460739 -4.1334 0
M  V30 2487 H 263.873 1.2611 -3.50928 0
M  V30 2488 N 266.058 1.56714 -0.166846 0
M  V30 2489 C 266.968 2.21331 0.777791 0
M  V30 2490 C 267.984 1.20358 1.25658 0
M  V30 2491 O 269.16 1.53005 1.30964 0
M  V30 2492 C 266.225 2.83787 1.99163 0
M  V30 2493 C 265.286 3.99947 1.56016 0
M  V30 2494 C 264.519 4.59415 2.71613 0
M  V30 2495 O 264.742 4.17769 3.88362 0
M  V30 2496 O 263.676 5.49359 2.45945 0
M  V30 2497 H 267.502 3.02605 0.257636 0
M  V30 2498 H 265.087 1.49275 0.0611393 0
M  V30 2499 H 266.969 3.23405 2.70161 0
M  V30 2500 H 265.644 2.05513 2.50092 0
M  V30 2501 H 264.551 3.65007 0.819809 0
M  V30 2502 H 265.884 4.79801 1.09782 0
M  V30 2503 N 267.536 -0.106894 1.57237 0
M  V30 2504 C 268.782 -0.81373 1.85759 0
M  V30 2505 C 269.115 -1.78952 0.754315 0
M  V30 2506 O 268.39 -1.93029 -0.23879 0
M  V30 2507 C 268.673 -1.55293 3.24894 0
M  V30 2508 C 268.526 -0.595929 4.45835 0
M  V30 2509 C 269.845 -2.5063 3.61763 0
M  V30 2510 H 266.964 -0.294369 0.67566 0
M  V30 2511 H 269.606 -0.0776472 1.89841 0
M  V30 2512 H 267.756 -2.1804 3.21544 0
M  V30 2513 H 269.428 0.0236262 4.61294 0
M  V30 2514 H 267.671 0.0916191 4.33703 0
M  V30 2515 H 268.342 -1.15004 5.39887 0
M  V30 2516 H 270.818 -1.97982 3.65981 0
M  V30 2517 H 269.694 -2.99376 4.60071 0
M  V30 2518 H 269.955 -3.3385 2.89821 0
M  V30 2519 N 269.014 -1.53014 -0.377408 0
M  V30 2520 C 269.924 -1.81557 -1.48574 0
M  V30 2521 C 270.94 -0.703102 -1.59162 0
M  V30 2522 O 272.116 -0.99192 -1.75279 0
M  V30 2523 C 269.181 -1.9889 -2.83978 0
M  V30 2524 C 268.242 -3.22801 -2.83016 0
M  V30 2525 C 267.475 -3.39298 -4.11962 0
M  V30 2526 O 267.698 -2.60345 -5.0752 0
M  V30 2527 O 266.632 -4.32604 -4.18494 0
M  V30 2528 H 270.458 -2.75695 -1.27382 0
M  V30 2529 H 268.043 -1.38248 -0.566373 0
M  V30 2530 H 269.925 -2.11931 -3.6423 0
M  V30 2531 H 268.6 -1.07942 -3.05172 0
M  V30 2532 H 267.507 -3.15193 -2.01505 0
M  V30 2533 H 268.84 -4.13632 -2.66775 0
M  V30 2534 N 270.492 0.636531 -1.44174 0
M  V30 2535 C 271.422 1.76003 -1.53444 0
M  V30 2536 C 272.403 1.65619 -0.387841 0
M  V30 2537 O 273.588 1.84461 -0.607257 0
M  V30 2538 C 270.718 3.14511 -1.4731 0
M  V30 2539 C 269.672 3.39677 -2.60391 0
M  V30 2540 C 268.998 4.78159 -2.39308 0
M  V30 2541 C 270.298 3.32772 -4.02567 0
M  V30 2542 H 271.992 1.68501 -2.47483 0
M  V30 2543 H 269.538 0.809237 -1.19111 0
M  V30 2544 H 271.491 3.92878 -1.52397 0
M  V30 2545 H 270.215 3.22783 -0.49785 0
M  V30 2546 H 268.874 2.63688 -2.54684 0
M  V30 2547 H 268.522 4.83128 -1.39988 0
M  V30 2548 H 268.222 4.95956 -3.15122 0
M  V30 2549 H 269.746 5.58762 -2.46205 0
M  V30 2550 H 271.16 4.01051 -4.09672 0
M  V30 2551 H 269.557 3.62104 -4.7854 0
M  V30 2552 H 270.627 2.30669 -4.2652 0
M  V30 2553 N 271.97 1.30982 0.876444 0
M  V30 2554 C 272.9 1.20668 1.99903 0
M  V30 2555 C 273.881 0.095354 1.69833 0
M  V30 2556 O 275.066 0.27885 1.92188 0
M  V30 2557 C 272.196 0.90655 3.3526 0
M  V30 2558 C 271.15 1.97675 3.79617 0
M  V30 2559 C 270.476 1.52943 5.1236 0
M  V30 2560 C 271.776 3.389 3.97422 0
M  V30 2561 H 273.47 2.14586 2.0879 0
M  V30 2562 H 271.016 1.03308 1.00317 0
M  V30 2563 H 272.969 0.821025 4.13324 0
M  V30 2564 H 271.693 -0.0682969 3.26529 0
M  V30 2565 H 270.352 2.05205 3.03787 0
M  V30 2566 H 270 0.54262 5.00065 0
M  V30 2567 H 269.7 2.24532 5.43009 0
M  V30 2568 H 271.224 1.45786 5.92941 0
M  V30 2569 H 272.638 3.34081 4.659 0
M  V30 2570 H 271.035 4.0865 4.3946 0
M  V30 2571 H 272.105 3.80163 3.01006 0
M  V30 2572 N 273.449 -1.08991 1.13837 0
M  V30 2573 C 274.86 -1.62746 0.914917 0
M  V30 2574 C 275.211 -1.88403 -0.547594 0
M  V30 2575 O 274.336 -1.63706 -1.41525 0
M  V30 2576 C 274.931 -2.95662 1.65437 0
M  V30 2577 C 273.49 -3.46225 1.47666 0
M  V30 2578 C 272.637 -2.20562 1.6807 0
M  V30 2579 H 275.588 -0.922946 1.29102 0
M  V30 2580 H 275.609 -3.63825 1.11407 0
M  V30 2581 H 275.121 -2.76956 2.71877 0
M  V30 2582 H 273.222 -3.70046 0.435478 0
M  V30 2583 H 273.335 -4.23368 2.24268 0
M  V30 2584 H 271.699 -2.29439 1.10589 0
M  V30 2585 H 272.482 -2.0437 2.7584 0
M  V30 2586 N 274.927 -0.932562 -1.27047 0
M  V30 2587 C 275.877 -0.406392 -2.24349 0
M  V30 2588 C 276.861 0.492066 -1.53191 0
M  V30 2589 O 278.053 0.328717 -1.73921 0
M  V30 2590 C 275.182 0.335214 -3.41659 0
M  V30 2591 C 274.268 -0.58004 -4.20115 0
M  V30 2592 N 274.659 -1.70203 -4.76303 0
M  V30 2593 C 272.957 -0.383974 -4.44344 0
M  V30 2594 C 273.658 -2.27167 -5.35509 0
M  V30 2595 N 272.634 -1.56068 -5.20715 0
M  V30 2596 H 276.436 -1.26299 -2.65378 0
M  V30 2597 H 273.95 -0.787408 -1.42034 0
M  V30 2598 H 275.947 0.729142 -4.10474 0
M  V30 2599 H 274.607 1.18868 -3.0216 0
M  V30 2600 H 275.618 -2.08433 -4.74106 0
M  V30 2601 H 272.295 0.428436 -4.15296 0
M  V30 2602 H 273.685 -3.21654 -5.89905 0
M  V30 2603 N 276.405 1.4127 -0.698611 0
M  V30 2604 C 277.633 2.05503 -0.239992 0
M  V30 2605 C 278.048 1.52584 1.11191 0
M  V30 2606 O 277.405 0.675323 1.69545 0
M  V30 2607 C 277.456 3.60987 -0.192429 0
M  V30 2608 O 277.177 4.1195 -1.49094 0
M  V30 2609 C 278.678 4.42371 0.28681 0
M  V30 2610 H 275.898 0.661748 -0.111045 0
M  V30 2611 H 278.442 1.80987 -0.95205 0
M  V30 2612 H 276.597 3.84533 0.470472 0
M  V30 2613 H 277.011 5.06018 -1.38007 0
M  V30 2614 H 278.485 5.51344 0.26896 0
M  V30 2615 H 278.962 4.18699 1.32619 0
M  V30 2616 H 279.568 4.23897 -0.345201 0
M  V30 2617 N 277.883 0.443576 1.51229 0
M  V30 2618 C 279.108 -0.121648 2.07043 0
M  V30 2619 C 279.533 -1.35156 1.30823 0
M  V30 2620 O 278.891 -1.7793 0.347934 0
M  V30 2621 C 278.939 -0.41624 3.5819 0
M  V30 2622 O 278.043 -1.50163 3.8409 0
M  V30 2623 H 277.384 0.000871367 0.663999 0
M  V30 2624 H 279.914 0.626706 1.94765 0
M  V30 2625 H 279.924 -0.664867 4.02546 0
M  V30 2626 H 278.599 0.482653 4.1309 0
M  V30 2627 H 277.176 -1.24248 3.51592 0
M  V30 2628 N 279.361 -1.56624 0.175154 0
M  V30 2629 C 280.608 -1.96999 -0.468811 0
M  V30 2630 C 280.936 -1.06129 -1.62994 0
M  V30 2631 O 280.191 -0.0961771 -1.95464 0
M  V30 2632 C 280.49 -3.43419 -0.989864 0
M  V30 2633 C 280.156 -4.50866 0.0557687 0
M  V30 2634 C 278.818 -4.79975 0.343134 0
M  V30 2635 C 281.17 -5.15551 0.765308 0
M  V30 2636 C 278.498 -5.71066 1.34536 0
M  V30 2637 C 280.85 -6.07724 1.75654 0
M  V30 2638 C 279.514 -6.35199 2.05132 0
M  V30 2639 H 278.784 -0.720869 -0.17155 0
M  V30 2640 H 281.431 -1.89616 0.267924 0
M  V30 2641 H 279.736 -3.47772 -1.80449 0
M  V30 2642 H 281.433 -3.72002 -1.49719 0
M  V30 2643 H 278.023 -4.28229 -0.178381 0
M  V30 2644 H 282.207 -4.9317 0.556513 0
M  V30 2645 H 277.463 -5.90635 1.57988 0
M  V30 2646 H 281.637 -6.56912 2.31169 0
M  V30 2647 H 279.264 -7.05584 2.8294 0
M  V30 2648 N 280.839 0.0985539 -1.57292 0
M  V30 2649 C 281.802 1.10402 -2.00858 0
M  V30 2650 C 282.802 1.33146 -0.901593 0
M  V30 2651 O 283.992 1.29318 -1.16716 0
M  V30 2652 C 281.124 2.45394 -2.36632 0
M  V30 2653 H 282.317 0.729099 -2.90902 0
M  V30 2654 H 279.87 0.343495 -1.52479 0
M  V30 2655 H 280.605 2.87769 -1.49531 0
M  V30 2656 H 280.39 2.30235 -3.17387 0
M  V30 2657 H 281.88 3.17718 -2.71007 0
M  V30 2658 N 282.317 1.53212 0.369288 0
M  V30 2659 C 283.227 1.82342 1.47609 0
M  V30 2660 C 284.243 0.711532 1.58787 0
M  V30 2661 O 285.419 1.0012 1.74751 0
M  V30 2662 C 282.484 2.00393 2.8292 0
M  V30 2663 C 281.545 3.24297 2.81301 0
M  V30 2664 C 280.778 3.41478 4.10157 0
M  V30 2665 O 281.001 2.63033 5.06132 0
M  V30 2666 O 279.935 4.34817 4.16194 0
M  V30 2667 H 283.761 2.76366 1.25918 0
M  V30 2668 H 281.346 1.38547 0.559034 0
M  V30 2669 H 283.228 2.13859 3.63101 0
M  V30 2670 H 281.903 1.09559 3.04596 0
M  V30 2671 H 280.81 3.16257 1.99831 0
M  V30 2672 H 282.143 4.15041 2.64578 0
M  V30 2673 N 283.795 -0.628877 1.44509 0
M  V30 2674 C 285.02 -1.42048 1.5112 0
M  V30 2675 C 285.445 -1.87594 0.137818 0
M  V30 2676 O 284.803 -1.58873 -0.873437 0
M  V30 2677 C 284.851 -2.61541 2.48251 0
M  V30 2678 O 283.955 -3.61453 1.98559 0
M  V30 2679 H 283.296 -0.424942 0.510216 0
M  V30 2680 H 285.826 -0.767374 1.89664 0
M  V30 2681 H 285.836 -3.09057 2.66361 0
M  V30 2682 H 284.511 -2.27736 3.48007 0
M  V30 2683 H 283.088 -3.20731 1.90227 0
M  V30 2684 N 285.273 -1.31445 -0.869486 0
M  V30 2685 C 286.203 -1.21727 -1.99261 0
M  V30 2686 C 287.184 -0.104359 -1.6978 0
M  V30 2687 O 288.369 -0.289038 -1.92037 0
M  V30 2688 C 285.499 -0.924317 -3.34774 0
M  V30 2689 C 284.453 -1.99685 -3.78563 0
M  V30 2690 C 283.779 -1.55658 -5.11541 0
M  V30 2691 C 285.079 -3.41003 -3.95619 0
M  V30 2692 H 286.773 -2.1569 -2.07649 0
M  V30 2693 H 284.319 -1.03839 -0.997675 0
M  V30 2694 H 286.272 -0.842934 -4.12883 0
M  V30 2695 H 284.996 0.0509793 -3.2656 0
M  V30 2696 H 283.655 -2.06813 -3.02694 0
M  V30 2697 H 283.303 -0.569132 -4.9977 0
M  V30 2698 H 283.003 -2.27409 -5.41811 0
M  V30 2699 H 284.527 -1.48928 -5.92159 0
M  V30 2700 H 285.941 -3.36547 -4.64122 0
M  V30 2701 H 284.338 -4.10975 -4.37286 0
M  V30 2702 H 285.408 -3.81754 -2.98985 0
M  V30 2703 N 286.751 1.08385 -1.14413 0
M  V30 2704 C 287.999 1.80419 -0.910679 0
M  V30 2705 C 288.32 1.86658 0.564243 0
M  V30 2706 O 287.59 1.35985 1.41014 0
M  V30 2707 H 286.17 0.668204 -0.333934 0
M  V30 2708 H 288.832 1.31037 -1.44275 0
M  V30 2709 H 287.928 2.83238 -1.31082 0
M  V30 2710 N 288.23 0.939286 1.26551 0
M  V30 2711 C 289.641 0.628782 1.75793 0
M  V30 2712 C 289.992 -0.856046 1.7654 0
M  V30 2713 O 289.117 -1.66994 1.3763 0
M  V30 2714 C 289.712 1.13465 3.19235 0
M  V30 2715 C 288.271 0.874601 3.66098 0
M  V30 2716 C 287.418 1.28667 2.45642 0
M  V30 2717 H 290.369 1.1178 1.12654 0
M  V30 2718 H 290.39 0.487609 3.77363 0
M  V30 2719 H 289.902 2.21535 3.1866 0
M  V30 2720 H 288.003 -0.191793 3.72106 0
M  V30 2721 H 288.116 1.50028 4.55004 0
M  V30 2722 H 286.48 0.705109 2.44745 0
M  V30 2723 H 287.263 2.37625 2.47769 0
M  V30 2724 N 289.708 -1.40897 0.706093 0
M  V30 2725 C 290.954 -2.01849 0.250681 0
M  V30 2726 C 291.309 -1.5496 -1.14041 0
M  V30 2727 O 290.602 -0.755566 -1.76073 0
M  V30 2728 C 290.796 -3.5646 0.259099 0
M  V30 2729 C 290.625 -4.18357 1.64947 0
M  V30 2730 C 289.395 -4.522 2.25485 0
M  V30 2731 C 291.593 -4.43856 2.598 0
M  V30 2732 N 289.575 -4.9944 3.56977 0
M  V30 2733 C 290.946 -4.92986 3.75985 0
M  V30 2734 C 293.001 -4.25882 2.57933 0
M  V30 2735 C 291.704 -5.2603 4.90597 0
M  V30 2736 C 293.73 -4.6002 3.71665 0
M  V30 2737 C 293.092 -5.09331 4.86581 0
M  V30 2738 H 289.191 -0.769843 0.137353 0
M  V30 2739 H 291.775 -1.71278 0.925845 0
M  V30 2740 H 289.946 -3.86481 -0.385592 0
M  V30 2741 H 291.678 -4.04144 -0.21213 0
M  V30 2742 H 288.433 -4.3901 1.77671 0
M  V30 2743 H 288.857 -5.27454 4.24407 0
M  V30 2744 H 293.499 -3.86986 1.70298 0
M  V30 2745 H 291.217 -5.63843 5.78884 0
M  V30 2746 H 294.803 -4.47762 3.71484 0
M  V30 2747 H 293.683 -5.35251 5.73129 0
M  V30 2748 N 291.186 -0.45159 -1.50991 0
M  V30 2749 C 292.411 0.110667 -2.07105 0
M  V30 2750 C 292.836 1.3446 -1.31538 0
M  V30 2751 O 292.194 1.77743 -0.357365 0
M  V30 2752 C 292.242 0.397238 -3.58405 0
M  V30 2753 O 291.346 1.48124 -3.84881 0
M  V30 2754 H 290.687 -0.00439271 -0.663985 0
M  V30 2755 H 293.217 -0.637026 -1.9443 0
M  V30 2756 H 293.227 0.64351 -4.02893 0
M  V30 2757 H 291.902 -0.504553 -4.12828 0
M  V30 2758 H 290.479 1.22381 -3.52246 0
M  V30 2759 N 292.664 1.56529 -0.183458 0
M  V30 2760 C 293.594 2.21549 0.737456 0
M  V30 2761 C 294.575 1.17489 1.23005 0
M  V30 2762 O 295.76 1.45959 1.281 0
M  V30 2763 C 292.89 2.86575 1.96194 0
M  V30 2764 C 291.844 3.96778 1.60473 0
M  V30 2765 C 291.17 4.48911 2.90487 0
M  V30 2766 C 292.47 5.15767 0.823497 0
M  V30 2767 H 294.164 2.98761 0.195453 0
M  V30 2768 H 291.71 1.43702 0.0925686 0
M  V30 2769 H 293.663 3.30739 2.61131 0
M  V30 2770 H 292.387 2.06749 2.52828 0
M  V30 2771 H 291.046 3.53286 0.978997 0
M  V30 2772 H 290.694 3.65862 3.45186 0
M  V30 2773 H 290.394 5.23265 2.67335 0
M  V30 2774 H 291.918 4.95771 3.56432 0
M  V30 2775 H 293.332 5.56549 1.37571 0
M  V30 2776 H 291.729 5.96114 0.690551 0
M  V30 2777 H 292.799 4.84574 -0.177782 0
M  V30 2778 N 294.142 -0.090211 1.57342 0
M  V30 2779 C 295.372 -0.805055 1.90269 0
M  V30 2780 C 295.78 -1.72561 0.775842 0
M  V30 2781 O 295.123 -1.81839 -0.260843 0
M  V30 2782 C 295.185 -1.66734 3.18497 0
M  V30 2783 C 294.849 -0.918092 4.47683 0
M  V30 2784 C 295.846 -0.245674 5.19319 0
M  V30 2785 C 293.531 -0.890724 4.94339 0
M  V30 2786 C 295.525 0.444088 6.35851 0
M  V30 2787 C 293.212 -0.197179 6.10782 0
M  V30 2788 C 294.21 0.469044 6.81388 0
M  V30 2789 O 293.898 1.15146 7.95611 0
M  V30 2790 H 293.63 -0.235143 0.633785 0
M  V30 2791 H 296.184 -0.0703805 2.05279 0
M  V30 2792 H 294.414 -2.44437 2.99646 0
M  V30 2793 H 296.103 -2.25919 3.37217 0
M  V30 2794 H 296.869 -0.258246 4.84312 0
M  V30 2795 H 292.748 -1.39873 4.39268 0
M  V30 2796 H 296.292 0.964667 6.90898 0
M  V30 2797 H 292.189 -0.18247 6.45242 0
M  V30 2798 H 292.957 1.05885 8.11622 0
M  V30 2799 N 295.62 -1.53406 -0.361157 0
M  V30 2800 C 296.868 -1.69467 -1.10115 0
M  V30 2801 C 297.189 -0.451352 -1.89705 0
M  V30 2802 O 296.459 0.534636 -1.88463 0
M  V30 2803 H 295.039 -0.624749 -0.409508 0
M  V30 2804 H 297.701 -1.90609 -0.406699 0
M  V30 2805 H 296.797 -2.55774 -1.78847 0
M  V30 2806 N 297.098 0.621204 -1.44841 0
M  V30 2807 C 298.326 1.40752 -1.51646 0
M  V30 2808 C 298.741 1.88246 -0.144549 0
M  V30 2809 O 298.098 1.61422 0.851416 0
M  V30 2810 C 298.149 2.62119 -2.4895 0
M  V30 2811 O 297.87 2.16602 -3.80808 0
M  V30 2812 C 299.371 3.55135 -2.65319 0
M  V30 2813 H 296.591 0.431325 -0.514004 0
M  V30 2814 H 299.135 0.758835 -1.899 0
M  V30 2815 H 297.29 3.23058 -2.13805 0
M  V30 2816 H 297.704 2.95358 -4.33433 0
M  V30 2817 H 299.178 4.36874 -3.37409 0
M  V30 2818 H 299.655 4.04592 -1.70886 0
M  V30 2819 H 300.261 3.00058 -3.01405 0
M  V30 2820 N 298.576 1.31904 0.862503 0
M  V30 2821 C 299.801 1.25135 1.65397 0
M  V30 2822 C 300.226 -0.179 1.87246 0
M  V30 2823 O 299.584 -1.1277 1.4196 0
M  V30 2824 C 299.632 2.00832 2.99498 0
M  V30 2825 O 298.736 1.35075 3.89652 0
M  V30 2826 H 298.077 0.431655 0.504549 0
M  V30 2827 H 300.607 1.74094 1.07483 0
M  V30 2828 H 300.617 2.10709 3.49379 0
M  V30 2829 H 299.292 3.04847 2.82916 0
M  V30 2830 H 297.869 1.33696 3.48109 0
M  V30 2831 N 300.054 -1.07777 1.14986 0
M  V30 2832 C 300.964 -2.18404 0.856546 0
M  V30 2833 C 301.98 -1.73211 -0.165485 0
M  V30 2834 O 303.156 -2.01399 0.00755219 0
M  V30 2835 C 300.221 -3.44977 0.34526 0
M  V30 2836 C 299.282 -4.0476 1.43065 0
M  V30 2837 C 298.515 -5.25291 0.943663 0
M  V30 2838 O 298.738 -5.70004 -0.212426 0
M  V30 2839 O 297.672 -5.76638 1.72547 0
M  V30 2840 H 301.498 -2.45978 1.78125 0
M  V30 2841 H 299.083 -1.17033 0.928631 0
M  V30 2842 H 300.965 -4.21348 0.0663671 0
M  V30 2843 H 299.64 -3.18965 -0.551631 0
M  V30 2844 H 298.547 -3.29949 1.76309 0
M  V30 2845 H 299.88 -4.35035 2.30229 0
M  V30 2846 N 301.532 -0.945985 -1.26051 0
M  V30 2847 C 302.943 -0.638096 -1.75457 0
M  V30 2848 C 303.294 0.846672 -1.76991 0
M  V30 2849 O 302.419 1.66262 -1.38513 0
M  V30 2850 C 303.014 -1.15157 -3.18629 0
M  V30 2851 C 301.573 -0.894004 -3.65629 0
M  V30 2852 C 300.72 -1.29967 -2.44957 0
M  V30 2853 H 303.671 -1.12376 -1.1206 0
M  V30 2854 H 303.692 -0.507615 -3.77099 0
M  V30 2855 H 303.204 -2.23222 -3.1748 0
M  V30 2856 H 301.305 0.172057 -3.72203 0
M  V30 2857 H 301.418 -1.52439 -4.54202 0
M  V30 2858 H 299.782 -0.718078 -2.44368 0
M  V30 2859 H 300.565 -2.38935 -2.46505 0
M  V30 2860 N 303.011 1.40521 -0.713556 0
M  V30 2861 C 304.257 2.01221 -0.252564 0
M  V30 2862 C 304.59 1.56444 1.1506 0
M  V30 2863 O 303.865 0.783597 1.78017 0
M  V30 2864 C 304.148 3.58582 -0.330332 0
M  V30 2865 C 304.001 4.13437 -1.77173 0
M  V30 2866 C 305.32 4.39079 0.299641 0
M  V30 2867 H 302.439 0.731077 -0.0932471 0
M  V30 2868 H 305.081 1.67026 -0.905673 0
M  V30 2869 H 303.231 3.87844 0.225737 0
M  V30 2870 H 304.903 3.9498 -2.38303 0
M  V30 2871 H 303.146 3.67801 -2.3001 0
M  V30 2872 H 303.817 5.22597 -1.77755 0
M  V30 2873 H 306.293 4.15735 -0.174139 0
M  V30 2874 H 305.169 5.4848 0.214771 0
M  V30 2875 H 305.43 4.19915 1.38288 0
M  V30 2876 N 304.489 0.459591 1.5075 0
M  V30 2877 C 305.736 -0.0993495 2.02256 0
M  V30 2878 C 306.064 -1.40751 1.34237 0
M  V30 2879 O 305.319 -1.90379 0.453228 0
M  V30 2880 C 305.618 -0.342866 3.55752 0
M  V30 2881 C 305.284 0.88218 4.42186 0
M  V30 2882 C 303.946 1.21808 4.65528 0
M  V30 2883 C 306.298 1.69837 4.92752 0
M  V30 2884 C 303.626 2.37045 5.36681 0
M  V30 2885 C 305.978 2.84192 5.65171 0
M  V30 2886 C 304.642 3.1821 5.8677 0
M  V30 2887 H 303.912 -0.0363545 0.740108 0
M  V30 2888 H 306.559 0.611329 1.8148 0
M  V30 2889 H 304.864 -1.13567 3.7498 0
M  V30 2890 H 306.561 -0.789121 3.93159 0
M  V30 2891 H 303.151 0.610467 4.2423 0
M  V30 2892 H 307.335 1.45205 4.74583 0
M  V30 2893 H 302.591 2.63689 5.51614 0
M  V30 2894 H 306.765 3.4779 6.03337 0
M  V30 2895 H 304.392 4.07613 6.41682 0
M  V30 2896 N 305.967 -1.56429 0.191757 0
M  V30 2897 C 306.93 -2.17707 -0.716688 0
M  V30 2898 C 307.93 -1.13061 -1.14341 0
M  V30 2899 O 309.12 -1.38464 -1.05704 0
M  V30 2900 C 306.252 -2.77644 -1.97804 0
M  V30 2901 H 307.445 -2.99342 -0.1829 0
M  V30 2902 H 304.998 -1.56193 -0.0578566 0
M  V30 2903 H 305.733 -1.99799 -2.55443 0
M  V30 2904 H 305.518 -3.54246 -1.68083 0
M  V30 2905 H 307.008 -3.24708 -2.62592 0
M  V30 2906 N 307.445 0.0818655 -1.57387 0
M  V30 2907 C 308.722 0.815343 -1.77796 0
M  V30 2908 C 309.102 1.96289 -0.77679 0
M  V30 2909 O 308.45 2.27691 0.192106 0
M  V30 2910 C 308.66 1.29765 -3.23978 0
M  V30 2911 C 310.008 1.7351 -3.8753 0
M  V30 2912 O 311.032 1.39356 -3.27808 0
M  V30 2913 O 309.891 2.36708 -4.92576 0
M  V30 2914 H 306.985 0.389914 -0.729312 0
M  V30 2915 H 309.531 0.0627213 -1.69584 0
M  V30 2916 H 308.303 0.47608 -3.88393 0
M  V30 2917 H 307.926 2.11189 -3.36875 0
M  V30 2918 N 308.923 1.53595 0.353017 0
M  V30 2919 C 310.171 1.70049 1.09215 0
M  V30 2920 C 310.492 0.461406 1.89463 0
M  V30 2921 O 309.762 -0.524633 1.88744 0
M  V30 2922 H 308.342 0.626912 0.40619 0
M  V30 2923 H 311.004 1.90822 0.396585 0
M  V30 2924 H 310.1 2.56718 1.77488 0
M  V30 2925 N 310.401 -0.613514 1.45168 0
M  V30 2926 C 311.817 -0.933629 1.29443 0
M  V30 2927 C 312.017 -2.00028 0.243101 0
M  V30 2928 O 311.073 -2.49848 -0.364992 0
M  V30 2929 C 312.386 -1.38018 2.67155 0
M  V30 2930 C 313.934 -1.49471 2.75004 0
M  V30 2931 C 314.409 -1.97503 4.13227 0
M  V30 2932 N 315.9 -2.04746 4.15491 0
M  V30 2933 C 316.635 -2.43121 5.19307 0
M  V30 2934 N 316.131 -2.80506 6.33473 0
M  V30 2935 N 317.924 -2.43408 5.06664 0
M  V30 2936 H 310.075 0.0916097 2.12202 0
M  V30 2937 H 312.338 -0.0216655 0.947752 0
M  V30 2938 H 312.044 -0.670625 3.45247 0
M  V30 2939 H 311.918 -2.34784 2.95222 0
M  V30 2940 H 314.305 -2.19519 1.9722 0
M  V30 2941 H 314.386 -0.510342 2.50657 0
M  V30 2942 H 314.03 -1.28045 4.91495 0
M  V30 2943 H 313.96 -2.96843 4.34962 0
M  V30 2944 H 316.451 -1.78468 3.33103 0
M  V30 2945 H 316.764 -3.08652 7.08487 0
M  V30 2946 H 315.109 -2.78216 6.36884 0
M  V30 2947 H 318.3 -2.13604 4.16523 0
M  V30 2948 H 318.473 -2.72989 5.87691 0
M  V30 2949 N 311.879 -1.3236 -0.855495 0
M  V30 2950 C 312.812 -1.15559 -1.96777 0
M  V30 2951 C 313.79 -0.0552681 -1.62506 0
M  V30 2952 O 314.974 -0.214419 -1.87277 0
M  V30 2953 C 312.101 -0.768851 -3.29858 0
M  V30 2954 C 311.147 -1.87429 -3.83109 0
M  V30 2955 S 311.98 -3.48243 -4.06801 0
M  V30 2956 C 313.136 -3.11539 -5.42858 0
M  V30 2957 H 313.369 -2.09717 -2.10727 0
M  V30 2958 H 310.902 -1.17011 -1.00737 0
M  V30 2959 H 312.86 -0.55248 -4.06765 0
M  V30 2960 H 311.521 0.153857 -3.13723 0
M  V30 2961 H 310.714 -1.55667 -4.79358 0
M  V30 2962 H 310.316 -2.04647 -3.13042 0
M  V30 2963 H 312.608 -2.61331 -6.2507 0
M  V30 2964 H 313.551 -4.06806 -5.79582 0
M  V30 2965 H 313.959 -2.48582 -5.06821 0
M  V30 2966 N 313.357 1.07166 -1.15556 0
M  V30 2967 C 314.597 1.81391 -0.94216 0
M  V30 2968 C 314.961 1.84788 0.521272 0
M  V30 2969 O 316.162 2.54904 0.85307 0
M  V30 2970 C 314.433 3.22431 -1.54185 0
M  V30 2971 S 315.992 4.13379 -1.47183 0
M  V30 2972 H 312.81 0.624963 -0.339031 0
M  V30 2973 H 315.412 1.28725 -1.4714 0
M  V30 2974 H 314.116 3.17548 -2.59984 0
M  V30 2975 H 313.647 3.80172 -1.01156 0
M  V30 2976 H 315.662 4.94007 -0.466004 0
M  V30 2977 N 314.835 0.952656 1.25548 0
M  V30 2978 C 316.081 0.607272 1.93494 0
M  V30 2979 C 316.414 -0.853245 1.74452 0
M  V30 2980 O 315.689 -1.61194 1.08843 0
M  V30 2981 C 315.972 0.96435 3.46947 0
M  V30 2982 C 315.825 2.48045 3.75225 0
M  V30 2983 C 317.144 0.487987 4.37386 0
M  V30 2984 H 314.263 0.222096 0.702739 0
M  V30 2985 H 316.905 1.18895 1.48203 0
M  V30 2986 H 315.055 0.469361 3.85654 0
M  V30 2987 H 316.727 3.04905 3.46166 0
M  V30 2988 H 314.97 2.919 3.209 0
M  V30 2989 H 315.641 2.6808 4.82532 0
M  V30 2990 H 318.117 0.912558 4.0597 0
M  V30 2991 H 316.993 0.766547 5.43521 0
M  V30 2992 H 317.254 -0.612063 4.37843 0
M  V30 2993 N 316.313 -1.40141 0.720998 0
M  V30 2994 C 317.59 -1.94677 0.189757 0
M  V30 2995 C 317.97 -1.65879 -1.30566 0
M  V30 2996 O 317.318 -0.979391 -2.06447 0
M  V30 2997 C 317.528 -3.45279 0.508304 0
M  V30 2998 C 318.876 -4.22209 0.449934 0
M  V30 2999 O 319.9 -3.53413 0.444677 0
M  V30 3000 O 318.759 -5.44788 0.432189 0
M  V30 3001 H 315.853 -0.826459 0.0299026 0
M  V30 3002 H 318.399 -1.49719 0.7989 0
M  V30 3003 H 317.171 -3.59619 1.54239 0
M  V30 3004 H 316.794 -3.97386 -0.130525 0
M  V30 3005 N 317.792 -0.46758 -1.50504 0
M  V30 3006 C 318.722 0.318381 -2.31319 0
M  V30 3007 C 319.703 0.993564 -1.38066 0
M  V30 3008 O 320.888 0.991411 -1.66987 0
M  V30 3009 C 318.018 1.40275 -3.17711 0
M  V30 3010 C 316.972 0.849373 -4.19487 0
M  V30 3011 C 316.298 2.03177 -4.94594 0
M  V30 3012 C 317.598 -0.136942 -5.2212 0
M  V30 3013 H 319.292 -0.356106 -2.97275 0
M  V30 3014 H 316.838 -0.172703 -1.42961 0
M  V30 3015 H 318.791 1.96004 -3.73042 0
M  V30 3016 H 317.515 2.10596 -2.49634 0
M  V30 3017 H 316.174 0.314076 -3.65252 0
M  V30 3018 H 315.822 2.72187 -4.22993 0
M  V30 3019 H 315.522 1.66774 -5.63436 0
M  V30 3020 H 317.046 2.59403 -5.52759 0
M  V30 3021 H 318.46 0.331056 -5.72343 0
M  V30 3022 H 316.857 -0.41507 -5.98663 0
M  V30 3023 H 317.927 -1.06398 -4.73083 0
M  V30 3024 N 319.27 1.56325 -0.20005 0
M  V30 3025 C 320.681 1.8408 0.31167 0
M  V30 3026 C 321.032 1.12087 1.61031 0
M  V30 3027 O 320.157 0.38332 2.12978 0
M  V30 3028 C 320.752 3.33932 0.57226 0
M  V30 3029 C 319.311 3.6208 1.02834 0
M  V30 3030 C 318.458 2.77186 0.079634 0
M  V30 3031 H 321.409 1.52939 -0.423729 0
M  V30 3032 H 321.43 3.52971 1.42096 0
M  V30 3033 H 320.942 3.86303 -0.37308 0
M  V30 3034 H 319.043 3.15147 1.98778 0
M  V30 3035 H 319.156 4.7023 0.917624 0
M  V30 3036 H 317.52 2.47951 0.582448 0
M  V30 3037 H 318.303 3.32347 -0.860238 0
M  V30 3038 N 320.748 -0.0735177 1.57428 0
M  V30 3039 C 321.996 -0.771472 1.86796 0
M  V30 3040 C 322.317 -1.78201 0.791804 0
M  V30 3041 O 321.587 -1.95074 -0.179718 0
M  V30 3042 H 320.167 -0.28791 0.689287 0
M  V30 3043 H 322.829 -0.0500161 1.94836 0
M  V30 3044 H 321.925 -1.28874 2.8425 0
M  V30 3045 N 322.226 -1.5378 -0.344866 0
M  V30 3046 C 323.474 -1.70625 -1.08311 0
M  V30 3047 C 323.795 -0.471447 -1.89215 0
M  V30 3048 O 323.065 0.514616 -1.8902 0
M  V30 3049 H 321.645 -0.629058 -0.402859 0
M  V30 3050 H 324.307 -1.9103 -0.386459 0
M  V30 3051 H 323.403 -2.57656 -1.76124 0
M  V30 3052 N 323.704 0.605807 -1.45491 0
M  V30 3053 C 324.636 1.73031 -1.5031 0
M  V30 3054 C 325.649 1.57968 -0.393687 0
M  V30 3055 O 326.838 1.65817 -0.660839 0
M  V30 3056 C 323.938 3.11049 -1.34543 0
M  V30 3057 C 323.111 3.52334 -2.59189 0
M  V30 3058 C 322.17 4.69323 -2.37954 0
M  V30 3059 O 321.196 4.7635 -3.11575 0
M  V30 3060 N 322.398 5.62705 -1.4263 0
M  V30 3061 H 325.163 1.6936 -2.4726 0
M  V30 3062 H 322.724 0.79114 -1.41254 0
M  V30 3063 H 324.716 3.87071 -1.18144 0
M  V30 3064 H 323.286 3.09217 -0.458623 0
M  V30 3065 H 322.506 2.66256 -2.90691 0
M  V30 3066 H 323.794 3.76677 -3.42041 0
M  V30 3067 H 323.192 5.59744 -0.818758 0
M  V30 3068 H 321.749 6.38252 -1.32202 0
M  V30 3069 N 325.182 1.32811 0.848464 0
M  V30 3070 C 326.43 1.23479 1.59991 0
M  V30 3071 C 326.751 -0.201853 1.93952 0
M  V30 3072 O 326.021 -1.12818 1.60153 0
M  V30 3073 H 324.601 0.454034 0.593179 0
M  V30 3074 H 327.263 1.66412 1.01455 0
M  V30 3075 H 326.359 1.82178 2.53412 0
M  V30 3076 N 326.66 -1.06551 1.16123 0
M  V30 3077 C 327.608 -2.16063 0.861371 0
M  V30 3078 C 328.602 -1.6856 -0.168517 0
M  V30 3079 O 329.808 -1.79986 -0.0227579 0
M  V30 3080 H 326.183 -0.705278 0.260934 0
M  V30 3081 H 328.154 -2.38567 1.79244 0
M  V30 3082 C 326.903 -3.45661 0.376018 0
M  V30 3083 H 326.226 -3.82604 1.15992 0
M  V30 3084 H 327.666 -4.23504 0.204951 0
M  V30 3085 C 326.125 -3.24546 -0.903954 0
M  V30 3086 O 326.655 -3.49865 -1.97377 0
M  V30 3087 N 324.861 -2.77992 -0.846679 0
M  V30 3088 H 324.408 -2.57589 0.0241017 0
M  V30 3089 H 324.366 -2.64244 -1.70359 0
M  V30 3090 N 328.138 -0.959301 -1.25041 0
M  V30 3091 C 329.549 -0.65667 -1.74771 0
M  V30 3092 C 329.9 0.827852 -1.77879 0
M  V30 3093 O 329.025 1.64783 -1.40269 0
M  V30 3094 C 329.62 -1.1853 -3.1739 0
M  V30 3095 C 328.179 -0.932734 -3.6466 0
M  V30 3096 C 327.326 -1.32558 -2.43564 0
M  V30 3097 H 330.277 -1.13558 -1.10862 0
M  V30 3098 H 330.298 -0.547582 -3.76539 0
M  V30 3099 H 329.81 -2.26576 -3.15095 0
M  V30 3100 H 327.911 0.13257 -3.72364 0
M  V30 3101 H 328.024 -1.57248 -4.52559 0
M  V30 3102 H 326.388 -0.743956 -2.43593 0
M  V30 3103 H 327.171 -2.41537 -2.43957 0
M  V30 3104 N 329.616 1.39756 -0.72842 0
M  V30 3105 C 330.862 2.01425 -0.282761 0
M  V30 3106 C 331.217 1.56754 1.11561 0
M  V30 3107 O 330.51 0.783482 1.74849 0
M  V30 3108 C 330.704 3.56002 -0.315776 0
M  V30 3109 C 330.533 4.1568 -1.71582 0
M  V30 3110 C 329.303 4.48555 -2.32651 0
M  V30 3111 C 331.501 4.39667 -2.66829 0
M  V30 3112 N 329.483 4.93698 -3.64877 0
M  V30 3113 C 330.854 4.86942 -3.8378 0
M  V30 3114 C 332.909 4.21724 -2.64675 0
M  V30 3115 C 331.612 5.18158 -4.98904 0
M  V30 3116 C 333.638 4.54049 -3.78937 0
M  V30 3117 C 333 5.01525 -4.94623 0
M  V30 3118 H 329.099 0.76756 -0.149583 0
M  V30 3119 H 331.683 1.69784 -0.952976 0
M  V30 3120 H 329.854 3.87046 0.324057 0
M  V30 3121 H 331.586 4.0443 0.147808 0
M  V30 3122 H 328.341 4.36128 -1.84633 0
M  V30 3123 H 328.765 5.20635 -4.32744 0
M  V30 3124 H 333.407 3.84228 -1.76433 0
M  V30 3125 H 331.125 5.54562 -5.87781 0
M  V30 3126 H 334.711 4.41795 -3.78561 0
M  V30 3127 H 333.591 5.26065 -5.81572 0
M  V30 3128 N 331.094 0.475555 1.50254 0
M  V30 3129 C 332.371 -0.139685 1.95101 0
M  V30 3130 C 332.751 -1.56555 1.41611 0
M  V30 3131 O 332.099 -2.19956 0.618993 0
M  V30 3132 C 332.309 -0.0784298 3.48912 0
M  V30 3133 C 333.657 -0.265095 4.23772 0
M  V30 3134 O 334.681 -0.154808 3.55863 0
M  V30 3135 O 333.54 -0.488327 5.44314 0
M  V30 3136 H 330.634 -0.109236 0.819754 0
M  V30 3137 H 333.18 0.536276 1.61004 0
M  V30 3138 H 331.952 0.916918 3.80405 0
M  V30 3139 H 331.575 -0.795655 3.89558 0
M  V30 3140 N 332.573 -1.56217 0.208337 0
M  V30 3141 C 333.536 -2.18455 -0.693557 0
M  V30 3142 C 334.536 -1.14268 -1.13135 0
M  V30 3143 O 335.726 -1.39577 -1.0423 0
M  V30 3144 C 332.858 -2.79727 -1.94848 0
M  V30 3145 H 334.051 -2.99519 -0.15114 0
M  V30 3146 H 331.604 -1.56245 -0.041287 0
M  V30 3147 H 332.339 -2.02497 -2.53309 0
M  V30 3148 H 332.124 -3.56009 -1.64316 0
M  V30 3149 H 333.614 -3.27475 -2.59133 0
M  V30 3150 N 334.051 0.0651679 -1.57465 0
M  V30 3151 C 335.299 0.761555 -1.87202 0
M  V30 3152 C 335.62 1.77778 -0.801243 0
M  V30 3153 O 334.89 1.95166 0.16937 0
M  V30 3154 H 333.47 0.284251 -0.690804 0
M  V30 3155 H 336.132 0.0396827 -1.9486 0
M  V30 3156 H 335.228 1.27365 -2.84929 0
M  V30 3157 N 335.529 1.53961 0.336706 0
M  V30 3158 C 336.459 1.85417 1.41925 0
M  V30 3159 C 337.44 0.709856 1.5458 0
M  V30 3160 O 338.625 0.962396 1.68676 0
M  V30 3161 C 335.755 2.06985 2.78881 0
M  V30 3162 C 334.709 3.22813 2.81026 0
M  V30 3163 C 334.035 3.29727 4.20932 0
M  V30 3164 C 335.335 4.60767 2.45949 0
M  V30 3165 H 337.029 2.76079 1.15848 0
M  V30 3166 H 334.575 1.32839 0.555859 0
M  V30 3167 H 336.528 2.27575 3.54665 0
M  V30 3168 H 335.252 1.13061 3.06406 0
M  V30 3169 H 333.911 3.0209 2.07695 0
M  V30 3170 H 333.559 2.33385 4.45579 0
M  V30 3171 H 333.259 4.07566 4.23277 0
M  V30 3172 H 334.783 3.52536 4.98549 0
M  V30 3173 H 336.197 4.81325 3.11446 0
M  V30 3174 H 334.594 5.4106 2.59566 0
M  V30 3175 H 335.664 4.6391 1.41122 0
M  V30 3176 N 337.007 -0.598083 1.45811 0
M  V30 3177 C 338.253 -1.35882 1.50545 0
M  V30 3178 C 338.586 -1.93616 0.150445 0
M  V30 3179 O 337.861 -1.75604 -0.83628 0
M  V30 3180 C 338.144 -2.49966 2.59208 0
M  V30 3181 C 337.997 -1.97367 4.04186 0
M  V30 3182 C 339.316 -3.52068 2.64076 0
M  V30 3183 H 336.435 -0.492717 0.548087 0
M  V30 3184 H 339.077 -0.673319 1.77669 0
M  V30 3185 H 337.227 -3.08443 2.3621 0
M  V30 3186 H 338.899 -1.43466 4.38423 0
M  V30 3187 H 337.142 -1.283 4.14393 0
M  V30 3188 H 337.813 -2.79649 4.75921 0
M  V30 3189 H 340.289 -3.03448 2.84708 0
M  V30 3190 H 339.165 -4.2937 3.41954 0
M  V30 3191 H 339.426 -4.08304 1.69531 0
M  V30 3192 N 338.485 -1.33259 -0.841409 0
M  V30 3193 C 339.715 -1.2742 -1.62628 0
M  V30 3194 C 340.123 0.157604 -1.88542 0
M  V30 3195 O 339.466 1.10938 -1.46419 0
M  V30 3196 C 339.528 -1.97797 -3.00194 0
M  V30 3197 C 339.192 -3.47109 -2.97261 0
M  V30 3198 C 340.189 -4.42358 -2.73159 0
M  V30 3199 C 337.874 -3.89247 -3.17478 0
M  V30 3200 C 339.868 -5.77718 -2.69296 0
M  V30 3201 C 337.555 -5.24713 -3.13241 0
M  V30 3202 C 338.553 -6.1876 -2.89181 0
M  V30 3203 O 338.241 -7.51745 -2.84843 0
M  V30 3204 H 337.973 -0.440436 -0.512827 0
M  V30 3205 H 340.527 -1.76153 -1.05638 0
M  V30 3206 H 338.757 -1.43652 -3.59028 0
M  V30 3207 H 340.446 -1.8549 -3.61038 0
M  V30 3208 H 341.212 -4.11127 -2.57294 0
M  V30 3209 H 337.091 -3.16456 -3.35226 0
M  V30 3210 H 340.635 -6.51097 -2.50436 0
M  V30 3211 H 336.532 -5.55569 -3.28654 0
M  V30 3212 H 337.3 -7.61262 -3.00702 0
M  V30 3213 N 339.963 1.05934 -1.16686 0
M  V30 3214 C 340.911 2.15603 -0.872817 0
M  V30 3215 C 341.905 1.68647 0.159576 0
M  V30 3216 O 343.111 1.79995 0.0132125 0
M  V30 3217 H 339.486 0.703885 -0.264671 0
M  V30 3218 H 341.457 2.37613 -1.80507 0
M  V30 3219 C 340.206 3.45457 -0.394344 0
M  V30 3220 H 339.529 3.81984 -1.18019 0
M  V30 3221 H 340.969 4.2339 -0.227408 0
M  V30 3222 C 339.428 3.25021 0.88673 0
M  V30 3223 O 339.958 3.50906 1.95519 0
M  V30 3224 N 338.164 2.78437 0.831925 0
M  V30 3225 H 337.711 2.57572 -0.0377619 0
M  V30 3226 H 337.669 2.65144 1.68956 0
M  V30 3227 N 341.441 0.965919 1.2453 0
M  V30 3228 C 342.689 0.625593 1.92174 0
M  V30 3229 C 343.01 -0.841652 1.75901 0
M  V30 3230 O 342.28 -1.60061 1.12948 0
M  V30 3231 H 340.86 0.228388 0.71123 0
M  V30 3232 H 343.522 1.2266 1.51461 0
M  V30 3233 H 342.618 0.864653 2.99884 0
M  V30 3234 N 342.919 -1.39368 0.735821 0
M  V30 3235 C 344.165 -2.00794 0.284544 0
M  V30 3236 C 344.498 -1.58255 -1.12557 0
M  V30 3237 O 343.773 -0.811819 -1.76748 0
M  V30 3238 C 344.056 -3.58011 0.387337 0
M  V30 3239 C 343.909 -4.10566 1.83728 0
M  V30 3240 C 345.228 -4.395 -0.22975 0
M  V30 3241 H 342.347 -0.729501 0.104866 0
M  V30 3242 H 344.989 -1.65564 0.93213 0
M  V30 3243 H 343.139 -3.88154 -0.164006 0
M  V30 3244 H 344.811 -3.91139 2.44556 0
M  V30 3245 H 343.054 -3.64095 2.35833 0
M  V30 3246 H 343.725 -5.19702 1.86047 0
M  V30 3247 H 346.201 -4.15406 0.240257 0
M  V30 3248 H 345.077 -5.48752 -0.127485 0
M  V30 3249 H 345.338 -4.22062 -1.3159 0
M  V30 3250 N 344.397 -0.483516 -1.5 0
M  V30 3251 C 345.808 -0.0314176 -1.86674 0
M  V30 3252 C 346.159 1.37728 -1.39733 0
M  V30 3253 O 345.284 2.02327 -0.767635 0
M  V30 3254 C 345.879 -0.0502376 -3.38763 0
M  V30 3255 C 344.438 0.346442 -3.74802 0
M  V30 3256 C 343.585 -0.430366 -2.7394 0
M  V30 3257 H 346.536 -0.697182 -1.42566 0
M  V30 3258 H 346.557 0.749116 -3.73053 0
M  V30 3259 H 346.069 -1.07563 -3.72897 0
M  V30 3260 H 344.17 1.37572 -3.46273 0
M  V30 3261 H 344.283 0.0391486 -4.79084 0
M  V30 3262 H 342.647 0.117557 -2.54429 0
M  V30 3263 H 343.43 -1.4555 -3.10918 0
M  V30 3264 N 345.875 1.56104 -0.216619 0
M  V30 3265 C 347.121 1.98466 0.417033 0
M  V30 3266 C 347.454 1.10403 1.59765 0
M  V30 3267 O 346.729 0.160632 1.93836 0
M  V30 3268 C 347.012 3.49769 0.85637 0
M  V30 3269 C 346.865 4.48606 -0.327546 0
M  V30 3270 C 348.184 4.05339 1.7143 0
M  V30 3271 H 345.303 0.721551 0.150112 0
M  V30 3272 H 347.945 1.87423 -0.311864 0
M  V30 3273 H 346.095 3.5931 1.47745 0
M  V30 3274 H 347.767 4.5108 -0.965618 0
M  V30 3275 H 346.01 4.22682 -0.975805 0
M  V30 3276 H 346.681 5.51995 0.0227149 0
M  V30 3277 H 349.157 3.98712 1.19031 0
M  V30 3278 H 348.033 5.11533 1.99061 0
M  V30 3279 H 348.294 3.51918 2.67593 0
M  V30 3280 N 347.353 -0.0568162 1.57498 0
M  V30 3281 C 348.601 -0.751617 1.87604 0
M  V30 3282 C 348.922 -1.77351 0.81066 0
M  V30 3283 O 348.192 -1.95254 -0.159018 0
M  V30 3284 H 346.772 -0.280583 0.692302 0
M  V30 3285 H 349.434 -0.0293483 1.94878 0
M  V30 3286 H 348.53 -1.25852 2.856 0
M  V30 3287 N 348.832 -1.54138 -0.328536 0
M  V30 3288 C 349.742 -1.86192 -1.42723 0
M  V30 3289 C 350.758 -0.753382 -1.56844 0
M  V30 3290 O 351.934 -1.04718 -1.72035 0
M  V30 3291 C 348.999 -2.07824 -2.77507 0
M  V30 3292 C 348.06 -3.31641 -2.72603 0
M  V30 3293 C 347.293 -3.52232 -4.00959 0
M  V30 3294 O 347.516 -2.7636 -4.9898 0
M  V30 3295 O 346.45 -4.45699 -4.0452 0
M  V30 3296 H 350.276 -2.79608 -1.18547 0
M  V30 3297 H 347.861 -1.3998 -0.522104 0
M  V30 3298 H 349.743 -2.23411 -3.57303 0
M  V30 3299 H 348.418 -1.17596 -3.01584 0
M  V30 3300 H 347.325 -3.21444 -1.91376 0
M  V30 3301 H 348.658 -4.2191 -2.53481 0
M  V30 3302 N 350.31 0.590341 -1.46126 0
M  V30 3303 C 351.558 1.34616 -1.50742 0
M  V30 3304 C 351.879 1.94363 -0.157486 0
M  V30 3305 O 351.149 1.78136 0.815136 0
M  V30 3306 H 349.729 0.499789 -0.555175 0
M  V30 3307 H 352.391 0.691953 -1.82203 0
M  V30 3308 H 351.487 2.15678 -2.25587 0
M  V30 3309 N 351.788 1.33704 0.83433 0
M  V30 3310 C 352.698 1.26382 1.97648 0
M  V30 3311 C 353.714 0.173548 1.73132 0
M  V30 3312 O 354.89 0.397962 1.97429 0
M  V30 3313 C 351.955 1.00769 3.31733 0
M  V30 3314 C 351.016 2.1884 3.69334 0
M  V30 3315 C 350.249 1.9444 4.9702 0
M  V30 3316 O 350.472 0.896961 5.63303 0
M  V30 3317 O 349.406 2.81093 5.32231 0
M  V30 3318 H 353.232 2.22444 2.06767 0
M  V30 3319 H 350.817 1.13795 0.968037 0
M  V30 3320 H 352.699 0.882186 4.12062 0
M  V30 3321 H 351.374 0.0773783 3.23608 0
M  V30 3322 H 350.281 2.36946 2.89495 0
M  V30 3323 H 351.614 3.10221 3.82131 0
M  V30 3324 N 353.266 -1.05314 1.17247 0
M  V30 3325 C 354.491 -1.82509 0.985148 0
M  V30 3326 C 354.916 -1.82343 -0.461788 0
M  V30 3327 O 354.274 -1.23151 -1.33055 0
M  V30 3328 C 354.322 -3.26566 1.52929 0
M  V30 3329 O 353.426 -4.05666 0.742225 0
M  V30 3330 H 352.767 -0.564347 0.349869 0
M  V30 3331 H 355.297 -1.32718 1.55715 0
M  V30 3332 H 355.307 -3.77369 1.55103 0
M  V30 3333 H 353.982 -3.26001 2.58256 0
M  V30 3334 H 352.559 -3.64397 0.791794 0
M  V30 3335 N 354.744 -0.972509 -1.24016 0
M  V30 3336 C 355.974 -0.653853 -1.9598 0
M  V30 3337 C 356.382 0.781801 -1.72292 0
M  V30 3338 O 355.725 1.53677 -1.00644 0
M  V30 3339 C 355.787 -0.854608 -3.49194 0
M  V30 3340 C 355.451 -2.27082 -3.96589 0
M  V30 3341 C 356.448 -3.24892 -4.05883 0
M  V30 3342 C 354.133 -2.5998 -4.29786 0
M  V30 3343 C 356.127 -4.53684 -4.47716 0
M  V30 3344 C 353.814 -3.88997 -4.71301 0
M  V30 3345 C 354.812 -4.85661 -4.80232 0
M  V30 3346 O 354.5 -6.12376 -5.20818 0
M  V30 3347 H 354.232 -0.242572 -0.630979 0
M  V30 3348 H 356.786 -1.30431 -1.58673 0
M  V30 3349 H 355.016 -0.146985 -3.86421 0
M  V30 3350 H 356.705 -0.534311 -4.02368 0
M  V30 3351 H 357.471 -3.00805 -3.80449 0
M  V30 3352 H 353.35 -1.85457 -4.22051 0
M  V30 3353 H 356.894 -5.29135 -4.54601 0
M  V30 3354 H 352.791 -4.12882 -4.96184 0
M  V30 3355 H 353.559 -6.16013 -5.38953 0
M  V30 3356 N 356.222 1.38976 -0.743202 0
M  V30 3357 C 357.468 2.0064 -0.295189 0
M  V30 3358 C 357.801 1.5885 1.11716 0
M  V30 3359 O 357.076 0.821181 1.76315 0
M  V30 3360 C 357.359 3.578 -0.406318 0
M  V30 3361 C 357.212 4.09586 -1.85903 0
M  V30 3362 C 358.531 4.39616 0.206439 0
M  V30 3363 H 355.65 0.728935 -0.108733 0
M  V30 3364 H 358.292 1.65067 -0.940897 0
M  V30 3365 H 356.442 3.88235 0.143419 0
M  V30 3366 H 358.114 3.89837 -2.46627 0
M  V30 3367 H 356.357 3.6284 -2.3776 0
M  V30 3368 H 357.028 5.18708 -1.888 0
M  V30 3369 H 359.504 4.15273 -0.262283 0
M  V30 3370 H 358.38 5.48812 0.0983819 0
M  V30 3371 H 358.641 4.22754 1.2935 0
M  V30 3372 N 357.7 0.491464 1.49741 0
M  V30 3373 C 358.63 -0.28154 2.31796 0
M  V30 3374 C 359.611 -0.971473 1.3963 0
M  V30 3375 O 360.796 -0.964719 1.68543 0
M  V30 3376 C 357.926 -1.35203 3.19902 0
M  V30 3377 C 356.88 -0.782529 4.20786 0
M  V30 3378 C 356.206 -1.95283 4.97764 0
M  V30 3379 C 357.506 0.21999 5.21837 0
M  V30 3380 H 359.2 0.403355 2.96671 0
M  V30 3381 H 356.746 0.195425 1.42668 0
M  V30 3382 H 358.699 -1.90045 3.76113 0
M  V30 3383 H 357.423 -2.06598 2.52953 0
M  V30 3384 H 356.082 -0.255928 3.65706 0
M  V30 3385 H 355.73 -2.65423 4.2727 0
M  V30 3386 H 355.43 -1.57789 5.66018 0
M  V30 3387 H 356.954 -2.50577 5.56816 0
M  V30 3388 H 358.368 -0.23996 5.72798 0
M  V30 3389 H 356.765 0.51026 5.97927 0
M  V30 3390 H 357.835 1.13911 4.7133 0
M  V30 3391 N 359.178 -1.55987 0.224894 0
M  V30 3392 C 360.403 -2.03232 -0.41369 0
M  V30 3393 C 360.828 -1.10359 -1.52323 0
M  V30 3394 O 360.186 -0.092395 -1.81064 0
M  V30 3395 C 360.234 -3.48682 -0.919405 0
M  V30 3396 O 359.338 -3.58947 -2.03054 0
M  V30 3397 H 358.679 -0.657428 -0.0931903 0
M  V30 3398 H 361.209 -2.01679 0.34451 0
M  V30 3399 H 361.219 -3.8907 -1.22835 0
M  V30 3400 H 359.894 -4.15761 -0.107339 0
M  V30 3401 H 358.471 -3.30448 -1.72796 0
M  V30 3402 N 360.656 0.0484629 -1.57525 0
M  V30 3403 C 361.903 0.743125 -1.88372 0
M  V30 3404 C 362.231 1.76383 -0.819715 0
M  V30 3405 O 361.486 1.94855 0.181659 0
M  V30 3406 C 361.785 1.46632 -3.25935 0
M  V30 3407 C 361.451 0.583427 -4.4711 0
M  V30 3408 C 360.113 0.340191 -4.79996 0
M  V30 3409 C 362.465 -0.0273345 -5.21193 0
M  V30 3410 C 359.793 -0.522903 -5.84365 0
M  V30 3411 C 362.145 -0.878017 -6.26477 0
M  V30 3412 C 360.809 -1.1309 -6.5785 0
M  V30 3413 H 360.079 0.271929 -0.689301 0
M  V30 3414 H 362.726 0.00336166 -1.915 0
M  V30 3415 H 361.031 2.2789 -3.18706 0
M  V30 3416 H 362.728 2.00902 -3.47044 0
M  V30 3417 H 359.318 0.783151 -4.21384 0
M  V30 3418 H 363.502 0.147654 -4.9608 0
M  V30 3419 H 358.758 -0.727335 -6.07058 0
M  V30 3420 H 362.932 -1.35789 -6.83033 0
M  V30 3421 H 360.559 -1.80144 -7.38547 0
M  V30 3422 N 362.134 1.5431 0.320358 0
M  V30 3423 C 363.362 1.76636 1.07738 0
M  V30 3424 C 363.777 0.51649 1.81598 0
M  V30 3425 O 363.134 -0.512942 1.75143 0
M  V30 3426 C 363.185 2.96158 2.07299 0
M  V30 3427 O 362.906 4.16313 1.36438 0
M  V30 3428 C 364.407 3.3072 2.95193 0
M  V30 3429 H 361.627 0.589597 0.320339 0
M  V30 3430 H 364.171 2.01207 0.36551 0
M  V30 3431 H 362.326 2.73851 2.74016 0
M  V30 3432 H 362.74 4.83565 2.03138 0
M  V30 3433 H 364.214 4.17643 3.60941 0
M  V30 3434 H 364.691 2.48026 3.62463 0
M  V30 3435 H 365.297 3.55117 2.34034 0
M  V30 3436 N 363.613 -0.582584 1.46437 0
M  V30 3437 C 364.576 -1.67366 1.56592 0
M  V30 3438 C 365.576 -1.54575 0.443072 0
M  V30 3439 O 366.766 -1.59191 0.707381 0
M  V30 3440 C 363.898 -3.06791 1.48634 0
M  V30 3441 H 365.091 -1.5972 2.5383 0
M  V30 3442 H 362.644 -0.800432 1.34249 0
M  V30 3443 H 363.379 -3.19993 0.526763 0
M  V30 3444 H 363.164 -3.17484 2.30101 0
M  V30 3445 H 364.654 -3.86218 1.58826 0
M  V30 3446 N 365.091 -1.34144 -0.827227 0
M  V30 3447 C 366.316 -1.29476 -1.62021 0
M  V30 3448 C 366.741 0.129292 -1.87655 0
M  V30 3449 O 366.099 1.08967 -1.449 0
M  V30 3450 C 366.147 -2.08702 -2.94068 0
M  V30 3451 O 365.251 -1.45359 -3.85933 0
M  V30 3452 H 364.592 -0.444881 -0.492927 0
M  V30 3453 H 367.122 -1.76882 -1.02829 0
M  V30 3454 H 367.132 -2.19898 -3.43669 0
M  V30 3455 H 365.807 -3.12241 -2.74734 0
M  V30 3456 H 364.384 -1.42879 -3.44442 0
M  V30 3457 N 366.569 1.04691 -1.17803 0
M  V30 3458 C 367.532 2.10724 -0.901545 0
M  V30 3459 C 368.532 1.6042 0.110437 0
M  V30 3460 O 369.722 1.7377 -0.122303 0
M  V30 3461 C 366.854 3.39084 -0.351409 0
M  V30 3462 H 368.047 2.36686 -1.84174 0
M  V30 3463 H 365.6 1.21015 -0.98919 0
M  V30 3464 H 366.335 3.18782 0.59569 0
M  V30 3465 H 366.12 3.76909 -1.08083 0
M  V30 3466 H 367.61 4.17227 -0.176451 0
M  V30 3467 N 368.047 0.979072 1.23499 0
M  V30 3468 C 369.275 0.665202 1.95915 0
M  V30 3469 C 369.69 -0.767571 1.72493 0
M  V30 3470 O 369.047 -1.51635 1.01554 0
M  V30 3471 C 369.098 0.944438 3.48945 0
M  V30 3472 O 368.819 2.3209 3.71572 0
M  V30 3473 C 370.32 0.646336 4.38563 0
M  V30 3474 H 367.54 0.247218 0.623798 0
M  V30 3475 H 370.084 1.31009 1.57025 0
M  V30 3476 H 368.239 0.345575 3.85856 0
M  V30 3477 H 368.653 2.40957 4.65876 0
M  V30 3478 H 370.127 0.892091 5.44744 0
M  V30 3479 H 370.604 -0.419575 4.37191 0
M  V30 3480 H 371.21 1.22562 4.07258 0
M  V30 3481 N 369.525 -1.3858 0.750561 0
M  V30 3482 C 370.936 -1.82927 0.373438 0
M  V30 3483 C 371.287 -1.62634 -1.09748 0
M  V30 3484 O 370.412 -1.12588 -1.84805 0
M  V30 3485 C 371.007 -3.32088 0.671029 0
M  V30 3486 C 369.566 -3.74795 0.34722 0
M  V30 3487 C 368.713 -2.61391 0.92575 0
M  V30 3488 H 371.664 -1.27351 0.946958 0
M  V30 3489 H 371.685 -3.80465 -0.0518269 0
M  V30 3490 H 371.197 -3.46826 1.74164 0
M  V30 3491 H 369.298 -3.65638 -0.716933 0
M  V30 3492 H 369.411 -4.71667 0.840656 0
M  V30 3493 H 367.775 -2.52265 0.351327 0
M  V30 3494 H 368.558 -2.78929 2.00133 0
M  V30 3495 N 371.003 -0.499398 -1.49478 0
M  V30 3496 C 372.28 0.108629 -1.95298 0
M  V30 3497 C 372.66 1.54282 -1.44084 0
M  V30 3498 O 372.008 2.18944 -0.653908 0
M  V30 3499 C 372.218 0.0229111 -3.48992 0
M  V30 3500 C 373.566 0.197643 -4.2414 0
M  V30 3501 O 374.59 0.0981735 -3.56065 0
M  V30 3502 O 373.449 0.401669 -5.45022 0
M  V30 3503 H 370.543 0.096181 -0.821388 0
M  V30 3504 H 373.089 -0.561822 -1.6013 0
M  V30 3505 H 371.861 -0.977321 -3.78899 0
M  V30 3506 H 371.484 0.733579 -3.90774 0
M  V30 3507 N 372.481 1.55866 -0.233164 0
M  V30 3508 C 373.414 2.16794 0.712442 0
M  V30 3509 C 374.392 1.1158 1.18273 0
M  V30 3510 O 375.576 1.39897 1.26337 0
M  V30 3511 C 372.703 2.75757 1.96661 0
M  V30 3512 C 371.749 3.93902 1.63533 0
M  V30 3513 S 372.582 5.30223 0.74995 0
M  V30 3514 C 373.738 5.92631 2.01343 0
M  V30 3515 H 373.971 2.96662 0.194617 0
M  V30 3516 H 371.504 1.5439 -0.0177425 0
M  V30 3517 H 373.462 3.10367 2.68668 0
M  V30 3518 H 372.123 1.9586 2.45556 0
M  V30 3519 H 371.316 4.33702 2.56747 0
M  V30 3520 H 370.918 3.60499 0.995804 0
M  V30 3521 H 373.21 6.09312 2.96219 0
M  V30 3522 H 374.153 6.88388 1.65915 0
M  V30 3523 H 374.561 5.21571 2.15925 0
M  V30 3524 N 373.959 -0.0401083 1.57549 0
M  V30 3525 C 375.37 -0.588097 1.77196 0
M  V30 3526 C 375.721 -1.76209 0.862832 0
M  V30 3527 O 374.846 -2.16331 0.0548389 0
M  V30 3528 C 375.441 -1.07363 3.21339 0
M  V30 3529 C 374 -1.56723 3.42221 0
M  V30 3530 C 373.147 -0.50041 2.72747 0
M  V30 3531 H 376.098 0.186119 1.57605 0
M  V30 3532 H 376.119 -1.94143 3.27244 0
M  V30 3533 H 375.631 -0.218975 3.87482 0
M  V30 3534 H 373.732 -2.4441 2.81237 0
M  V30 3535 H 373.845 -1.62234 4.50796 0
M  V30 3536 H 372.209 -0.952894 2.36203 0
M  V30 3537 H 372.992 0.344599 3.41566 0
M  V30 3538 N 375.437 -1.54477 -0.31217 0
M  V30 3539 C 376.683 -1.73483 -1.0503 0
M  V30 3540 C 377.016 -0.513125 -1.87298 0
M  V30 3541 O 376.291 0.489864 -1.8823 0
M  V30 3542 C 376.574 -3.01723 -1.96558 0
M  V30 3543 C 376.427 -4.3417 -1.17545 0
M  V30 3544 C 377.746 -3.25772 -2.95907 0
M  V30 3545 H 374.865 -0.631222 -0.380432 0
M  V30 3546 H 377.507 -1.87184 -0.325932 0
M  V30 3547 H 375.657 -2.90174 -2.58324 0
M  V30 3548 H 377.329 -4.5762 -0.581513 0
M  V30 3549 H 375.572 -4.31159 -0.477925 0
M  V30 3550 H 376.243 -5.20143 -1.84811 0
M  V30 3551 H 378.719 -3.36857 -2.44267 0
M  V30 3552 H 377.595 -4.16838 -3.57123 0
M  V30 3553 H 377.856 -2.43537 -3.68974 0
M  V30 3554 N 376.915 0.57481 -1.46744 0
M  V30 3555 C 378.331 0.898981 -1.31873 0
M  V30 3556 C 378.531 1.99313 -0.29605 0
M  V30 3557 O 377.587 2.50728 0.298621 0
M  V30 3558 C 378.9 1.30886 -2.7072 0
M  V30 3559 C 380.448 1.42127 -2.78871 0
M  V30 3560 C 380.923 1.86478 -4.18318 0
M  V30 3561 N 382.414 1.93658 -4.20774 0
M  V30 3562 C 383.149 2.29267 -5.2557 0
M  V30 3563 N 382.645 2.63612 -6.40688 0
M  V30 3564 N 384.438 2.29889 -5.1294 0
M  V30 3565 H 376.589 -0.147839 -2.11885 0
M  V30 3566 H 378.852 -0.00347013 -0.947994 0
M  V30 3567 H 378.558 0.578853 -3.46904 0
M  V30 3568 H 378.432 2.26874 -3.01343 0
M  V30 3569 H 380.819 2.14213 -2.0297 0
M  V30 3570 H 380.9 0.443705 -2.51922 0
M  V30 3571 H 380.544 1.14968 -4.94717 0
M  V30 3572 H 380.474 2.85207 -4.42679 0
M  V30 3573 H 382.965 1.69574 -3.37718 0
M  V30 3574 H 383.278 2.89759 -7.16421 0
M  V30 3575 H 381.623 2.61232 -6.44036 0
M  V30 3576 H 384.814 2.02485 -4.22039 0
M  V30 3577 H 384.987 2.57312 -5.94722 0
M  V30 3578 N 378.394 1.34581 0.820102 0
M  V30 3579 C 379.64 1.27285 1.57881 0
M  V30 3580 C 379.973 -0.156137 1.93571 0
M  V30 3581 O 379.248 -1.10222 1.60254 0
M  V30 3582 C 379.531 2.16639 2.87645 0
M  V30 3583 C 379.384 3.68088 2.58517 0
M  V30 3584 C 380.703 2.05378 3.8924 0
M  V30 3585 H 377.822 0.463714 0.572833 0
M  V30 3586 H 380.464 1.64859 0.944539 0
M  V30 3587 H 378.614 1.84725 3.41773 0
M  V30 3588 H 380.286 4.10382 2.10676 0
M  V30 3589 H 378.529 3.89038 1.91917 0
M  V30 3590 H 379.2 4.2598 3.51063 0
M  V30 3591 H 381.676 2.33404 3.44473 0
M  V30 3592 H 380.552 2.7012 4.77835 0
M  V30 3593 H 380.813 1.0316 4.29896 0
M  V30 3594 N 379.872 -1.04064 1.18357 0
M  V30 3595 C 380.802 -2.14001 0.934113 0
M  V30 3596 C 381.783 -1.69616 -0.128186 0
M  V30 3597 O 382.968 -1.94185 0.0244093 0
M  V30 3598 C 380.098 -3.44253 0.459066 0
M  V30 3599 C 379.052 -4.02261 1.46185 0
M  V30 3600 C 378.378 -5.27992 0.844322 0
M  V30 3601 C 379.678 -4.38432 2.83856 0
M  V30 3602 H 381.372 -2.35127 1.85352 0
M  V30 3603 H 378.918 -1.12998 0.892604 0
M  V30 3604 H 380.871 -4.20522 0.271907 0
M  V30 3605 H 379.595 -3.22813 -0.495912 0
M  V30 3606 H 378.254 -3.28074 1.63595 0
M  V30 3607 H 377.902 -5.02862 -0.117845 0
M  V30 3608 H 377.602 -5.67765 1.51384 0
M  V30 3609 H 379.126 -6.06938 0.667693 0
M  V30 3610 H 380.54 -5.05688 2.70098 0
M  V30 3611 H 378.937 -4.89254 3.47491 0
M  V30 3612 H 380.007 -3.4826 3.37406 0
M  V30 3613 N 381.35 -0.985608 -1.22978 0
M  V30 3614 C 382.596 -0.65836 -1.91816 0
M  V30 3615 C 382.929 0.806692 -1.76653 0
M  V30 3616 O 382.204 1.58252 -1.13078 0
M  V30 3617 C 382.487 -1.056 -3.44268 0
M  V30 3618 C 382.34 -2.57906 -3.68516 0
M  V30 3619 C 383.659 -0.603781 -4.35939 0
M  V30 3620 H 380.778 -0.24065 -0.696604 0
M  V30 3621 H 383.42 -1.22783 -1.44998 0
M  V30 3622 H 381.57 -0.571445 -3.84274 0
M  V30 3623 H 383.242 -3.13976 -3.3796 0
M  V30 3624 H 381.485 -3.00305 -3.13048 0
M  V30 3625 H 382.156 -2.80779 -4.75255 0
M  V30 3626 H 384.632 -1.01987 -4.03408 0
M  V30 3627 H 383.508 -0.910383 -5.41298 0
M  V30 3628 H 383.769 0.495761 -4.39312 0
M  V30 3629 N 382.828 1.3818 -0.7579 0
M  V30 3630 C 384.076 1.99624 -0.315361 0
M  V30 3631 C 384.397 1.60464 1.10799 0
M  V30 3632 O 383.667 0.863507 1.75842 0
M  V30 3633 H 382.247 0.73831 -0.113611 0
M  V30 3634 H 384.909 1.68878 -0.972952 0
M  V30 3635 H 384.005 3.09754 -0.381931 0
M  V30 3636 N 384.306 0.507319 1.49211 0
M  V30 3637 C 385.216 -0.272136 2.33016 0
M  V30 3638 C 386.232 -0.961206 1.45041 0
M  V30 3639 O 387.408 -0.941191 1.78055 0
M  V30 3640 C 384.473 -1.31895 3.20631 0
M  V30 3641 C 383.534 -0.642648 4.24463 0
M  V30 3642 C 382.767 -1.63959 5.07891 0
M  V30 3643 O 382.99 -2.87007 4.92933 0
M  V30 3644 O 381.924 -1.19143 5.8999 0
M  V30 3645 H 385.75 0.413982 3.00865 0
M  V30 3646 H 383.335 0.268556 1.46966 0
M  V30 3647 H 385.217 -1.92446 3.7489 0
M  V30 3648 H 383.892 -1.98788 2.5547 0
M  V30 3649 H 382.799 0.00276252 3.741 0
M  V30 3650 H 384.132 -0.0160534 4.92197 0
M  V30 3651 N 385.784 -1.5574 0.241426 0
M  V30 3652 C 387.032 -1.98417 -0.384075 0
M  V30 3653 C 387.353 -1.13078 -1.58866 0
M  V30 3654 O 386.623 -0.212312 -1.94746 0
M  V30 3655 H 385.203 -0.732813 -0.144894 0
M  V30 3656 H 387.865 -1.9193 0.338943 0
M  V30 3657 H 386.961 -3.04219 -0.696939 0
M  V30 3658 N 387.262 0.0317525 -1.57568 0
M  V30 3659 C 388.51 0.721676 -1.88776 0
M  V30 3660 C 388.831 1.76039 -0.838772 0
M  V30 3661 O 388.101 1.95482 0.127935 0
M  V30 3662 H 386.681 0.269534 -0.696678 0
M  V30 3663 H 389.343 -0.00165879 -1.949 0
M  V30 3664 H 388.439 1.21293 -2.87566 0
M  V30 3665 N 388.74 1.54641 0.303973 0
M  V30 3666 C 389.988 1.73437 1.0375 0
M  V30 3667 C 390.309 0.521449 1.87899 0
M  V30 3668 O 389.579 -0.46432 1.90318 0
M  V30 3669 H 388.159 0.639518 0.386039 0
M  V30 3670 H 390.821 1.91988 0.335675 0
M  V30 3671 H 389.917 2.62235 1.69231 0
M  V30 3672 N 390.218 -0.567019 1.47046 0
M  V30 3673 C 391.181 -1.65696 1.58359 0
M  V30 3674 C 392.181 -1.54097 0.459441 0
M  V30 3675 O 393.371 -1.58432 0.724225 0
M  V30 3676 C 390.503 -3.05197 1.51879 0
M  V30 3677 H 391.696 -1.57019 2.5551 0
M  V30 3678 H 389.249 -0.786148 1.3509 0
M  V30 3679 H 389.984 -3.19417 0.560673 0
M  V30 3680 H 389.769 -3.15025 2.33455 0
M  V30 3681 H 391.259 -3.84511 1.62913 0
M  V30 3682 N 391.696 -1.35014 -0.812953 0
M  V30 3683 C 392.926 -1.30841 -1.59888 0
M  V30 3684 C 393.334 0.117576 -1.88834 0
M  V30 3685 O 392.677 1.07807 -1.48739 0
M  V30 3686 C 392.739 -2.0412 -2.95931 0
M  V30 3687 C 392.403 -3.53336 -2.89832 0
M  V30 3688 C 393.4 -4.48052 -2.63714 0
M  V30 3689 C 391.085 -3.95894 -3.0915 0
M  V30 3690 C 393.079 -5.833 -2.56982 0
M  V30 3691 C 390.766 -5.31239 -3.0204 0
M  V30 3692 C 391.764 -6.24754 -2.75991 0
M  V30 3693 O 391.452 -7.57617 -2.68833 0
M  V30 3694 H 391.184 -0.451215 -0.50337 0
M  V30 3695 H 393.738 -1.78354 -1.01877 0
M  V30 3696 H 391.968 -1.51235 -3.559 0
M  V30 3697 H 393.657 -1.93107 -3.57022 0
M  V30 3698 H 394.423 -4.16492 -2.48515 0
M  V30 3699 H 390.302 -3.23495 -3.28438 0
M  V30 3700 H 393.846 -6.56263 -2.36569 0
M  V30 3701 H 389.743 -5.62415 -3.16796 0
M  V30 3702 H 390.511 -7.67469 -2.84487 0
M  V30 3703 N 393.175 1.03435 -1.18907 0
M  V30 3704 C 394.591 1.28973 -0.940111 0
M  V30 3705 C 394.791 1.97676 0.390691 0
M  V30 3706 O 393.847 2.26127 1.12352 0
M  V30 3707 C 395.16 2.14221 -2.11021 0
M  V30 3708 C 396.708 2.27547 -2.14922 0
M  V30 3709 C 397.183 3.16164 -3.31367 0
M  V30 3710 N 398.674 3.23752 -3.31269 0
M  V30 3711 C 399.409 3.92495 -4.18014 0
M  V30 3712 N 398.905 4.63515 -5.14904 0
M  V30 3713 N 400.698 3.88838 -4.05908 0
M  V30 3714 H 392.849 0.57252 -2.04538 0
M  V30 3715 H 395.112 0.315184 -0.894071 0
M  V30 3716 H 394.818 1.71054 -3.073 0
M  V30 3717 H 394.692 3.14919 -2.0762 0
M  V30 3718 H 397.079 2.69947 -1.19217 0
M  V30 3719 H 397.16 1.26418 -2.22378 0
M  V30 3720 H 396.804 2.74474 -4.27348 0
M  V30 3721 H 396.734 4.17339 -3.21148 0
M  V30 3722 H 399.225 2.73167 -2.61129 0
M  V30 3723 H 399.538 5.13583 -5.77453 0
M  V30 3724 H 397.883 4.62398 -5.18857 0
M  V30 3725 H 401.074 3.32491 -3.29495 0
M  V30 3726 H 401.247 4.4214 -4.73726 0
M  V30 3727 N 394.653 0.992116 1.22453 0
M  V30 3728 C 395.881 0.685944 1.95198 0
M  V30 3729 C 396.296 -0.749233 1.73297 0
M  V30 3730 O 395.653 -1.50549 1.03156 0
M  V30 3731 C 395.704 0.981395 3.47924 0
M  V30 3732 O 395.425 2.36018 3.6909 0
M  V30 3733 C 396.926 0.692815 4.37853 0
M  V30 3734 H 394.146 0.253821 0.621141 0
M  V30 3735 H 396.69 1.32668 1.55626 0
M  V30 3736 H 394.845 0.386481 3.85467 0
M  V30 3737 H 395.259 2.45884 4.63294 0
M  V30 3738 H 396.733 0.949818 5.43767 0
M  V30 3739 H 397.21 -0.373181 4.37612 0
M  V30 3740 H 397.816 1.26874 4.05935 0
M  V30 3741 N 396.131 -1.37776 0.765217 0
M  V30 3742 C 397.094 -2.28686 0.153416 0
M  V30 3743 C 398.094 -1.47727 -0.635081 0
M  V30 3744 O 399.284 -1.68027 -0.459632 0
M  V30 3745 C 396.416 -3.31608 -0.790495 0
M  V30 3746 H 397.609 -2.84297 0.954723 0
M  V30 3747 H 395.162 -1.46932 0.53299 0
M  V30 3748 H 395.897 -2.81109 -1.61705 0
M  V30 3749 H 395.682 -3.9144 -0.227348 0
M  V30 3750 H 397.172 -3.99559 -1.21419 0
M  V30 3751 N 397.609 -0.515225 -1.4894 0
M  V30 3752 C 398.856 0.024215 -2.02486 0
M  V30 3753 C 399.184 1.35671 -1.39368 0
M  V30 3754 O 398.439 1.88566 -0.523574 0
M  V30 3755 C 398.738 0.210595 -3.56779 0
M  V30 3756 C 398.404 -1.04569 -4.38607 0
M  V30 3757 C 397.066 -1.39002 -4.60686 0
M  V30 3758 C 399.418 -1.88008 -4.86109 0
M  V30 3759 C 396.746 -2.568 -5.27514 0
M  V30 3760 C 399.098 -3.04972 -5.54234 0
M  V30 3761 C 397.762 -3.39768 -5.74555 0
M  V30 3762 H 397.032 0.00886088 -0.740947 0
M  V30 3763 H 399.679 -0.678263 -1.79086 0
M  V30 3764 H 397.984 0.99572 -3.78936 0
M  V30 3765 H 399.681 0.642659 -3.95817 0
M  V30 3766 H 396.271 -0.767497 -4.21672 0
M  V30 3767 H 400.455 -1.62719 -4.68867 0
M  V30 3768 H 395.711 -2.8398 -5.41447 0
M  V30 3769 H 399.885 -3.69943 -5.90013 0
M  V30 3770 H 397.512 -4.31148 -6.26112 0
M  V30 3771 N 399.087 1.5561 -0.249682 0
M  V30 3772 C 399.997 2.25143 0.659375 0
M  V30 3773 C 401.013 1.2685 1.19101 0
M  V30 3774 O 402.189 1.59732 1.22669 0
M  V30 3775 C 399.254 2.93945 1.8384 0
M  V30 3776 C 398.315 4.07655 1.34596 0
M  V30 3777 C 397.548 4.73167 2.46878 0
M  V30 3778 O 397.771 4.37768 3.65671 0
M  V30 3779 O 396.705 5.61623 2.16478 0
M  V30 3780 H 400.531 3.03545 0.0968698 0
M  V30 3781 H 398.116 1.49389 -0.018074 0
M  V30 3782 H 399.998 3.37271 2.52638 0
M  V30 3783 H 398.673 2.18481 2.38847 0
M  V30 3784 H 397.58 3.68839 0.625174 0
M  V30 3785 H 398.913 4.84946 0.841941 0
M  V30 3786 N 400.565 -0.0233959 1.57583 0
M  V30 3787 C 401.497 -1.04994 2.03737 0
M  V30 3788 C 402.51 -1.32125 0.951152 0
M  V30 3789 O 403.699 -1.29512 1.22837 0
M  V30 3790 C 400.799 -2.39026 2.40249 0
M  V30 3791 C 399.972 -2.31171 3.7132 0
M  V30 3792 C 399.031 -3.47698 3.94959 0
M  V30 3793 O 398.057 -3.26937 4.65941 0
M  V30 3794 N 399.259 -4.6976 3.41037 0
M  V30 3795 H 402.024 -0.656507 2.92421 0
M  V30 3796 H 399.585 -0.211235 1.60516 0
M  V30 3797 H 401.577 -3.15712 2.53196 0
M  V30 3798 H 400.147 -2.70194 1.57207 0
M  V30 3799 H 399.367 -1.39547 3.68674 0
M  V30 3800 H 400.655 -2.23071 4.57293 0
M  V30 3801 H 400.053 -4.89528 2.83512 0
M  V30 3802 H 398.61 -5.43791 3.59353 0
M  V30 3803 N 402.043 -1.548 -0.295768 0
M  V30 3804 C 403.291 -1.73985 -1.02828 0
M  V30 3805 C 403.612 -0.531406 -1.87619 0
M  V30 3806 O 402.882 0.454221 -1.90561 0
M  V30 3807 H 401.462 -0.641556 -0.382642 0
M  V30 3808 H 404.124 -1.92163 -0.325489 0
M  V30 3809 H 403.22 -2.63129 -1.67838 0
M  V30 3810 N 403.521 0.559213 -1.47345 0
M  V30 3811 C 404.746 1.34676 -1.57725 0
M  V30 3812 C 405.171 1.86723 -0.227164 0
M  V30 3813 O 404.529 1.6286 0.796642 0
M  V30 3814 C 404.577 2.49399 -2.60447 0
M  V30 3815 O 403.681 3.51567 -2.15578 0
M  V30 3816 H 403.022 0.400115 -0.52991 0
M  V30 3817 H 405.552 0.676009 -1.93109 0
M  V30 3818 H 405.562 2.95996 -2.80803 0
M  V30 3819 H 404.237 2.10873 -3.58477 0
M  V30 3820 H 402.814 3.11289 -2.05313 0
M  V30 3821 N 404.999 1.35443 0.805782 0
M  V30 3822 C 405.962 1.28301 1.89925 0
M  V30 3823 C 406.962 0.194285 1.59622 0
M  V30 3824 O 408.152 0.448036 1.6834 0
M  V30 3825 C 405.284 0.984997 3.2636 0
M  V30 3826 H 406.477 2.2553 1.97677 0
M  V30 3827 H 404.03 1.19979 1.00173 0
M  V30 3828 H 404.765 0.016603 3.24296 0
M  V30 3829 H 404.55 1.77269 3.4974 0
M  V30 3830 H 406.04 0.960651 4.064 0
M  V30 3831 N 406.477 -1.02803 1.19454 0
M  V30 3832 C 407.888 -1.57667 0.999899 0
M  V30 3833 C 408.239 -1.91041 -0.446956 0
M  V30 3834 O 407.364 -1.70978 -1.32648 0
M  V30 3835 C 407.959 -2.86477 1.80877 0
M  V30 3836 C 406.518 -3.37911 1.65811 0
M  V30 3837 C 405.665 -2.11343 1.79526 0
M  V30 3838 H 408.616 -0.853214 1.33813 0
M  V30 3839 H 408.637 -3.57408 1.30536 0
M  V30 3840 H 408.149 -2.62155 2.86175 0
M  V30 3841 H 406.25 -3.67218 0.63102 0
M  V30 3842 H 406.363 -4.10885 2.46395 0
M  V30 3843 H 404.727 -2.23254 1.22596 0
M  V30 3844 H 405.51 -1.89461 2.86285 0
M  V30 3845 N 407.956 -0.998596 -1.21925 0
M  V30 3846 C 408.886 -0.573688 -2.26343 0
M  V30 3847 C 409.867 0.402296 -1.65274 0
M  V30 3848 O 411.052 0.291683 -1.91997 0
M  V30 3849 C 408.182 0.106839 -3.47136 0
M  V30 3850 C 407.136 -0.788269 -4.20678 0
M  V30 3851 C 406.462 0.0254927 -5.34694 0
M  V30 3852 C 407.762 -2.08784 -4.78755 0
M  V30 3853 H 409.456 -1.44651 -2.62138 0
M  V30 3854 H 407.002 -0.696975 -1.26009 0
M  V30 3855 H 408.955 0.415531 -4.19346 0
M  V30 3856 H 407.679 1.01424 -3.10452 0
M  V30 3857 H 406.338 -1.08069 -3.50309 0
M  V30 3858 H 405.986 0.933989 -4.94253 0
M  V30 3859 H 405.686 -0.570437 -5.84825 0
M  V30 3860 H 407.21 0.328147 -6.09718 0
M  V30 3861 H 408.624 -1.84272 -5.42878 0
M  V30 3862 H 407.021 -2.63307 -5.39249 0
M  V30 3863 H 408.091 -2.76284 -3.98491 0
M  V30 3864 N 409.434 1.37368 -0.772513 0
M  V30 3865 C 410.662 2.03942 -0.348588 0
M  V30 3866 C 411.077 1.58264 1.02947 0
M  V30 3867 O 410.434 0.764246 1.65727 0
M  V30 3868 C 410.485 3.5946 -0.38351 0
M  V30 3869 O 410.206 4.03468 -1.70721 0
M  V30 3870 C 411.707 4.4327 0.0519152 0
M  V30 3871 H 408.927 0.654931 -0.145966 0
M  V30 3872 H 411.471 1.75686 -1.04665 0
M  V30 3873 H 409.626 3.86486 0.265978 0
M  V30 3874 H 410.04 4.97991 -1.64636 0
M  V30 3875 H 411.514 5.51995 -0.0236733 0
M  V30 3876 H 411.991 4.2514 1.10238 0
M  V30 3877 H 412.597 4.21471 -0.569415 0
M  V30 3878 N 410.912 0.523116 1.48665 0
M  V30 3879 C 412.16 -0.0134497 2.02096 0
M  V30 3880 C 412.481 -1.35418 1.40311 0
M  V30 3881 O 411.751 -1.87543 0.566074 0
M  V30 3882 H 410.331 -0.00795915 0.746958 0
M  V30 3883 H 412.993 0.685388 1.82451 0
M  V30 3884 H 412.089 -0.126849 3.11842 0
M  V30 3885 N 412.39 -1.55475 0.257931 0
M  V30 3886 C 413.3 -2.2549 -0.647425 0
M  V30 3887 C 414.316 -1.2748 -1.18427 0
M  V30 3888 O 415.492 -1.6038 -1.2182 0
M  V30 3889 C 412.557 -2.94916 -1.82278 0
M  V30 3890 C 411.618 -4.08363 -1.32432 0
M  V30 3891 C 410.851 -4.74469 -2.44366 0
M  V30 3892 O 411.074 -4.39701 -3.63344 0
M  V30 3893 O 410.008 -5.62763 -2.13497 0
M  V30 3894 H 413.834 -3.03593 -0.0807707 0
M  V30 3895 H 411.419 -1.49377 0.0259962 0
M  V30 3896 H 413.301 -3.38606 -2.50846 0
M  V30 3897 H 411.976 -2.19744 -2.37685 0
M  V30 3898 H 410.883 -3.69166 -0.605605 0
M  V30 3899 H 412.216 -4.85385 -0.816211 0
M  V30 3900 N 413.868 0.0150385 -1.57593 0
M  V30 3901 C 415.279 0.559832 -1.78109 0
M  V30 3902 C 415.63 1.74814 -0.890756 0
M  V30 3903 O 414.755 2.16216 -0.0892482 0
M  V30 3904 C 415.35 1.02238 -3.23006 0
M  V30 3905 C 413.909 1.51258 -3.44671 0
M  V30 3906 C 413.056 0.456955 -2.73509 0
M  V30 3907 H 416.007 -0.211169 -1.57289 0
M  V30 3908 H 416.028 1.88912 -3.30292 0
M  V30 3909 H 415.54 0.157302 -3.87781 0
M  V30 3910 H 413.641 2.39905 -2.8509 0
M  V30 3911 H 413.754 1.55042 -4.5332 0
M  V30 3912 H 412.118 0.915196 -2.37689 0
M  V30 3913 H 412.901 -0.398896 -3.40975 0
M  V30 3914 N 415.346 1.54954 0.287554 0
M  V30 3915 C 416.309 1.86076 1.33823 0
M  V30 3916 C 417.309 0.734414 1.43049 0
M  V30 3917 O 418.499 1.00266 1.42452 0
M  V30 3918 C 415.631 2.05305 2.72144 0
M  V30 3919 H 416.824 2.79984 1.07465 0
M  V30 3920 H 414.377 1.47223 0.524902 0
M  V30 3921 H 415.112 1.1373 3.03704 0
M  V30 3922 H 414.897 2.873 2.66836 0
M  V30 3923 H 416.387 2.30706 3.48087 0
M  V30 3924 N 416.824 -0.551391 1.4764 0
M  V30 3925 C 418.052 -1.33357 1.58189 0
M  V30 3926 C 418.467 -1.87342 0.234199 0
M  V30 3927 O 417.824 -1.65301 -0.77343 0
M  V30 3928 C 417.875 -2.49942 2.61173 0
M  V30 3929 O 417.596 -1.98187 3.90709 0
M  V30 3930 C 419.097 -3.42072 2.8196 0
M  V30 3931 H 416.317 -0.40631 0.533998 0
M  V30 3932 H 418.861 -0.667367 1.93304 0
M  V30 3933 H 417.016 -3.12489 2.28975 0
M  V30 3934 H 417.43 -2.74342 4.47031 0
M  V30 3935 H 418.904 -4.20278 3.57869 0
M  V30 3936 H 419.381 -3.95978 1.89995 0
M  V30 3937 H 419.987 -2.85336 3.15378 0
M  V30 3938 N 418.302 -1.35869 -0.798587 0
M  V30 3939 C 419.718 -1.16082 -1.09532 0
M  V30 3940 C 419.918 0.0213124 -2.01489 0
M  V30 3941 O 418.974 0.689488 -2.42904 0
M  V30 3942 C 420.287 -2.46748 -1.7186 0
M  V30 3943 C 421.835 -2.53028 -1.84244 0
M  V30 3944 C 422.31 -3.83758 -2.49988 0
M  V30 3945 N 423.801 -3.85053 -2.57465 0
M  V30 3946 C 424.536 -4.8294 -3.09122 0
M  V30 3947 N 424.032 -5.91217 -3.61157 0
M  V30 3948 N 425.825 -4.70369 -3.0775 0
M  V30 3949 H 417.976 -2.11571 -0.187461 0
M  V30 3950 H 420.239 -0.936726 -0.145765 0
M  V30 3951 H 419.945 -3.33471 -1.11759 0
M  V30 3952 H 419.819 -2.61883 -2.71472 0
M  V30 3953 H 422.206 -1.66729 -2.43486 0
M  V30 3954 H 422.287 -2.418 -0.834643 0
M  V30 3955 H 421.931 -4.70459 -1.91393 0
M  V30 3956 H 421.861 -3.92278 -3.5132 0
M  V30 3957 H 424.352 -3.06822 -2.20609 0
M  V30 3958 H 424.665 -6.61892 -3.98896 0
M  V30 3959 H 423.01 -5.94899 -3.59333 0
M  V30 3960 H 426.201 -3.84914 -2.66381 0
M  V30 3961 H 426.374 -5.46816 -3.47701 0
M  V30 3962 N 419.78 1.02168 -1.19998 0
M  V30 3963 C 420.69 2.14069 -0.959774 0
M  V30 3964 C 421.706 1.73804 0.082655 0
M  V30 3965 O 422.882 2.01133 -0.103633 0
M  V30 3966 C 419.947 3.42936 -0.509459 0
M  V30 3967 C 419.008 3.97474 -1.62213 0
M  V30 3968 C 418.241 5.2019 -1.19321 0
M  V30 3969 O 418.464 5.70369 -0.0597726 0
M  V30 3970 O 417.398 5.67749 -1.99863 0
M  V30 3971 H 421.224 2.37199 -1.89658 0
M  V30 3972 H 418.809 1.12469 -0.983411 0
M  V30 3973 H 420.691 4.20551 -0.267322 0
M  V30 3974 H 419.366 3.21234 0.398821 0
M  V30 3975 H 418.273 3.21161 -1.9185 0
M  V30 3976 H 419.606 4.23555 -2.50723 0
M  V30 3977 N 421.258 1.00505 1.21394 0
M  V30 3978 C 422.488 0.705584 1.94178 0
M  V30 3979 C 422.896 -0.735846 1.74304 0
M  V30 3980 O 422.239 -1.50954 1.04683 0
M  V30 3981 C 422.301 0.94689 3.46806 0
M  V30 3982 C 421.965 2.37517 3.90429 0
M  V30 3983 C 422.962 3.35539 3.97127 0
M  V30 3984 C 420.647 2.71284 4.22742 0
M  V30 3985 C 422.641 4.65395 4.3553 0
M  V30 3986 C 420.328 4.01356 4.60822 0
M  V30 3987 C 421.326 4.98223 4.67186 0
M  V30 3988 O 421.014 6.25969 5.04399 0
M  V30 3989 H 420.746 0.259216 0.624326 0
M  V30 3990 H 423.3 1.34592 1.55159 0
M  V30 3991 H 421.53 0.249386 3.85895 0
M  V30 3992 H 423.219 0.640804 4.0081 0
M  V30 3993 H 423.985 3.10786 3.7234 0
M  V30 3994 H 419.864 1.96581 4.16985 0
M  V30 3995 H 423.408 5.41002 4.40412 0
M  V30 3996 H 419.305 4.25893 4.85063 0
M  V30 3997 H 420.073 6.30085 5.22431 0
M  V30 3998 N 422.737 -1.36956 0.779787 0
M  V30 3999 C 423.7 -2.2851 0.177662 0
M  V30 4000 C 424.7 -1.48393 -0.619377 0
M  V30 4001 O 425.89 -1.68505 -0.441785 0
M  V30 4002 C 423.022 -3.32428 -0.755279 0
M  V30 4003 H 424.215 -2.83269 0.984823 0
M  V30 4004 H 421.768 -1.46358 0.548544 0
M  V30 4005 H 422.503 -2.82808 -1.58714 0
M  V30 4006 H 422.288 -3.91659 -0.185817 0
M  V30 4007 H 423.778 -4.00824 -1.17174 0
M  V30 4008 N 424.215 -0.530993 -1.48385 0
M  V30 4009 C 425.462 0.0027373 -2.025 0
M  V30 4010 C 425.79 1.34186 -1.40799 0
M  V30 4011 O 425.045 1.88 -0.543544 0
M  V30 4012 C 425.344 0.172742 -3.56982 0
M  V30 4013 C 425.01 -1.09215 -4.37473 0
M  V30 4014 C 423.672 -1.43881 -4.59186 0
M  V30 4015 C 426.024 -1.93153 -4.84088 0
M  V30 4016 C 423.352 -2.62381 -5.2476 0
M  V30 4017 C 425.704 -3.10833 -5.50968 0
M  V30 4018 C 424.368 -3.45843 -5.70919 0
M  V30 4019 H 423.638 0.00100165 -0.740999 0
M  V30 4020 H 426.285 -0.697219 -1.78357 0
M  V30 4021 H 424.59 0.955473 -3.79971 0
M  V30 4022 H 426.287 0.600642 -3.96476 0
M  V30 4023 H 422.877 -0.812177 -4.20834 0
M  V30 4024 H 427.061 -1.67683 -4.67115 0
M  V30 4025 H 422.317 -2.89707 -5.38405 0
M  V30 4026 H 426.491 -3.7618 -5.86056 0
M  V30 4027 H 424.118 -4.37764 -6.21503 0
M  V30 4028 N 425.693 1.55336 -0.266172 0
M  V30 4029 C 426.921 2.03801 0.356756 0
M  V30 4030 C 427.336 1.14485 1.50129 0
M  V30 4031 O 426.693 0.163121 1.8177 0
M  V30 4032 C 426.744 3.51455 0.846281 0
M  V30 4033 O 426.465 4.37371 -0.252663 0
M  V30 4034 C 427.966 4.15767 1.53794 0
M  V30 4035 H 425.186 0.665906 0.0825218 0
M  V30 4036 H 427.73 2.00636 -0.39566 0
M  V30 4037 H 425.885 3.55092 1.54881 0
M  V30 4038 H 426.299 5.24358 0.122173 0
M  V30 4039 H 427.773 5.20714 1.83198 0
M  V30 4040 H 428.25 3.63404 2.46646 0
M  V30 4041 H 428.856 4.16107 0.879488 0
M  V30 4042 N 427.171 -0.0066808 1.57599 0
M  V30 4043 C 428.396 -0.707738 1.94951 0
M  V30 4044 C 428.821 -1.66882 0.867868 0
M  V30 4045 O 428.179 -1.80457 -0.17458 0
M  V30 4046 C 428.227 -1.42162 3.31394 0
M  V30 4047 O 427.331 -2.53578 3.25226 0
M  V30 4048 H 426.672 -0.188752 0.636607 0
M  V30 4049 H 429.202 0.0445193 2.04552 0
M  V30 4050 H 429.212 -1.78655 3.66806 0
M  V30 4051 H 427.887 -0.716903 4.09675 0
M  V30 4052 H 426.464 -2.19463 3.01481 0
M  V30 4053 N 428.649 -1.55105 -0.279332 0
M  V30 4054 C 429.597 -1.88333 -1.36505 0
M  V30 4055 C 430.591 -0.759043 -1.51443 0
M  V30 4056 O 431.797 -0.943312 -1.53302 0
M  V30 4057 H 428.172 -0.59766 -0.456406 0
M  V30 4058 H 430.143 -2.79041 -1.05728 0
M  V30 4059 C 428.892 -2.16628 -2.7197 0
M  V30 4060 H 428.215 -3.02624 -2.61264 0
M  V30 4061 H 429.655 -2.43803 -3.46895 0
M  V30 4062 C 428.114 -0.971807 -3.22579 0
M  V30 4063 O 428.644 -0.203228 -4.01186 0
M  V30 4064 N 426.85 -0.771238 -2.80179 0
M  V30 4065 H 426.397 -1.39792 -2.1637 0
M  V30 4066 H 426.355 0.0263667 -3.14389 0
M  V30 4067 N 430.127 0.543554 -1.4793 0
M  V30 4068 C 431.057 1.65888 -1.64327 0
M  V30 4069 C 432.038 1.62818 -0.492383 0
M  V30 4070 O 433.223 1.80226 -0.723338 0
M  V30 4071 C 430.353 3.04506 -1.67013 0
M  V30 4072 C 429.307 3.2243 -2.81466 0
M  V30 4073 C 428.633 4.61972 -2.69233 0
M  V30 4074 C 429.933 3.06496 -4.22915 0
M  V30 4075 H 431.627 1.52421 -2.57698 0
M  V30 4076 H 429.173 0.731849 -1.24016 0
M  V30 4077 H 431.126 3.82391 -1.77074 0
M  V30 4078 H 429.85 3.18964 -0.70212 0
M  V30 4079 H 428.509 2.46957 -2.70938 0
M  V30 4080 H 428.157 4.73247 -1.7043 0
M  V30 4081 H 427.857 4.74911 -3.46025 0
M  V30 4082 H 429.381 5.41974 -2.81242 0
M  V30 4083 H 430.795 3.74186 -4.34348 0
M  V30 4084 H 429.192 3.30938 -5.006 0
M  V30 4085 H 430.262 2.03077 -4.40327 0
M  V30 4086 N 431.605 1.3629 0.791371 0
M  V30 4087 C 432.833 1.33562 1.58016 0
M  V30 4088 C 433.248 -0.0835616 1.88615 0
M  V30 4089 O 432.605 -1.0399 1.49974 0
M  V30 4090 C 432.656 2.15517 2.90232 0
M  V30 4091 O 432.377 3.51902 2.60953 0
M  V30 4092 C 433.878 2.20546 3.84544 0
M  V30 4093 H 431.098 0.458226 0.490173 0
M  V30 4094 H 433.642 1.79361 0.982345 0
M  V30 4095 H 431.797 1.73278 3.46487 0
M  V30 4096 H 432.211 3.94644 3.4548 0
M  V30 4097 H 433.685 2.82252 4.74382 0
M  V30 4098 H 434.162 1.20838 4.2225 0
M  V30 4099 H 434.768 2.63013 3.34222 0
M  V30 4100 N 433.083 -1.0153 1.20538 0
M  V30 4101 C 434.33 -1.75149 1.01633 0
M  V30 4102 C 434.658 -1.89189 -0.451399 0
M  V30 4103 O 433.913 -1.41551 -1.35136 0
M  V30 4104 C 434.212 -3.17213 1.64654 0
M  V30 4105 C 433.878 -3.23146 3.14464 0
M  V30 4106 C 432.54 -3.24472 3.55347 0
M  V30 4107 C 434.892 -3.21207 4.10458 0
M  V30 4108 C 432.22 -3.21532 4.90748 0
M  V30 4109 C 434.572 -3.19808 5.45807 0
M  V30 4110 C 433.236 -3.19439 5.86102 0
M  V30 4111 H 432.506 -0.640914 0.3719 0
M  V30 4112 H 435.153 -1.19071 1.49981 0
M  V30 4113 H 433.458 -3.76457 1.08571 0
M  V30 4114 H 435.155 -3.72871 1.4754 0
M  V30 4115 H 431.745 -3.2285 2.81897 0
M  V30 4116 H 435.929 -3.19351 3.79906 0
M  V30 4117 H 431.185 -3.19578 5.21229 0
M  V30 4118 H 435.359 -3.1726 6.19935 0
M  V30 4119 H 432.986 -3.16915 6.90991 0
M  V30 4120 N 434.561 -1.01147 -1.20859 0
M  V30 4121 C 435.972 -0.730205 -1.71828 0
M  V30 4122 C 436.323 0.751662 -1.8123 0
M  V30 4123 O 435.448 1.58686 -1.47132 0
M  V30 4124 C 436.043 -1.31885 -3.12077 0
M  V30 4125 C 434.602 -1.08656 -3.60376 0
M  V30 4126 C 433.749 -1.42769 -2.37723 0
M  V30 4127 H 436.7 -1.18158 -1.05945 0
M  V30 4128 H 436.721 -0.706793 -3.73878 0
M  V30 4129 H 436.233 -2.39737 -3.05201 0
M  V30 4130 H 434.334 -0.0254814 -3.72591 0
M  V30 4131 H 434.447 -1.76301 -4.45483 0
M  V30 4132 H 432.811 -0.846603 -2.40218 0
M  V30 4133 H 433.594 -2.51666 -2.33493 0
M  V30 4134 N 436.039 1.36541 -0.78704 0
M  V30 4135 C 437.45 1.81873 -0.421807 0
M  V30 4136 C 437.801 1.65487 1.05397 0
M  V30 4137 O 436.926 1.17448 1.81755 0
M  V30 4138 C 437.521 3.30192 -0.758841 0
M  V30 4139 C 436.08 3.73743 -0.446468 0
M  V30 4140 C 435.227 2.58844 -0.994728 0
M  V30 4141 H 438.178 1.24796 -0.98039 0
M  V30 4142 H 438.199 3.80468 -0.0490648 0
M  V30 4143 H 437.711 3.42087 -1.83299 0
M  V30 4144 H 435.812 3.6741 0.619739 0
M  V30 4145 H 435.925 4.69272 -0.965415 0
M  V30 4146 H 434.289 2.51245 -0.418087 0
M  V30 4147 H 435.072 2.73525 -2.07458 0
M  V30 4148 N 437.518 0.538854 1.48102 0
M  V30 4149 C 438.795 -0.0568108 1.95517 0
M  V30 4150 C 439.175 -1.50408 1.48124 0
M  V30 4151 O 438.523 -2.17133 0.711727 0
M  V30 4152 C 438.733 0.0696262 3.48931 0
M  V30 4153 C 440.081 -0.0851202 4.24515 0
M  V30 4154 O 441.105 -0.0037347 3.562 0
M  V30 4155 O 439.964 -0.257025 5.45895 0
M  V30 4156 H 437.058 -0.0743695 0.823649 0
M  V30 4157 H 439.604 0.604081 1.58584 0
M  V30 4158 H 438.376 1.07744 3.76174 0
M  V30 4159 H 437.999 -0.629714 3.92582 0
M  V30 4160 N 438.996 -1.55193 0.274407 0
M  V30 4161 C 440.244 -1.99187 -0.341902 0
M  V30 4162 C 440.565 -1.16422 -1.56431 0
M  V30 4163 O 439.835 -0.253573 -1.94252 0
M  V30 4164 H 438.415 -0.735721 -0.129317 0
M  V30 4165 H 441.077 -1.91168 0.379578 0
M  V30 4166 H 440.173 -3.05629 -0.632253 0
M  V30 4167 N 440.474 -0.00167713 -1.576 0
M  V30 4168 C 441.751 0.719951 -1.81868 0
M  V30 4169 C 442.131 1.91895 -0.879747 0
M  V30 4170 O 441.479 2.28389 0.0711423 0
M  V30 4171 C 441.689 1.12409 -3.30402 0
M  V30 4172 C 443.037 1.52724 -3.96182 0
M  V30 4173 O 444.061 1.21784 -3.34734 0
M  V30 4174 O 442.92 2.10265 -5.04431 0
M  V30 4175 H 440.014 0.350707 -0.748955 0
M  V30 4176 H 442.56 -0.0272597 -1.69678 0
M  V30 4177 H 441.332 0.269532 -3.90371 0
M  V30 4178 H 440.955 1.93035 -3.47596 0
M  V30 4179 N 441.952 1.55251 0.271103 0
M  V30 4180 C 442.915 1.87484 1.31842 0
M  V30 4181 C 443.915 0.749545 1.42262 0
M  V30 4182 O 445.105 1.01771 1.4138 0
M  V30 4183 C 442.237 2.0818 2.69951 0
M  V30 4184 H 443.43 2.81108 1.0449 0
M  V30 4185 H 440.983 1.47771 0.509258 0
M  V30 4186 H 441.718 1.16944 3.02481 0
M  V30 4187 H 441.503 2.90114 2.63774 0
M  V30 4188 H 442.993 2.34385 3.4562 0
M  V30 4189 N 443.43 -0.535701 1.48216 0
M  V30 4190 C 444.841 -1.11769 1.49548 0
M  V30 4191 C 445.192 -1.94442 0.26207 0
M  V30 4192 O 444.317 -2.06987 -0.631287 0
M  V30 4193 C 444.912 -2.03367 2.70975 0
M  V30 4194 C 443.471 -2.56795 2.75196 0
M  V30 4195 C 442.618 -1.33631 2.42977 0
M  V30 4196 H 445.569 -0.321232 1.55415 0
M  V30 4197 H 445.59 -2.87569 2.49167 0
M  V30 4198 H 445.102 -1.43169 3.60727 0
M  V30 4199 H 443.203 -3.20731 1.89638 0
M  V30 4200 H 443.316 -2.9632 3.76472 0
M  V30 4201 H 441.68 -1.6502 1.94012 0
M  V30 4202 H 442.463 -0.75194 3.34964 0
M  V30 4203 N 444.908 -1.36708 -0.784132 0
M  V30 4204 C 446.156 -1.30972 -1.53918 0
M  V30 4205 C 446.477 0.109086 -1.94695 0
M  V30 4206 O 445.747 1.05048 -1.65353 0
M  V30 4207 H 444.327 -0.481819 -0.570841 0
M  V30 4208 H 446.989 -1.71063 -0.934002 0
M  V30 4209 H 446.085 -1.94061 -2.44431 0
M  V30 4210 N 446.386 1.0089 -1.21074 0
M  V30 4211 C 447.318 2.09737 -0.924291 0
M  V30 4212 C 448.331 1.62546 0.0909809 0
M  V30 4213 O 449.52 1.77942 -0.141021 0
M  V30 4214 C 446.62 3.36922 -0.36559 0
M  V30 4215 C 445.793 4.13216 -1.43426 0
M  V30 4216 C 444.852 5.18696 -0.885496 0
M  V30 4217 O 443.878 5.47176 -1.56801 0
M  V30 4218 N 445.08 5.79718 0.301227 0
M  V30 4219 H 447.845 2.34895 -1.8613 0
M  V30 4220 H 445.406 1.17341 -1.11546 0
M  V30 4221 H 447.398 4.04697 0.0158407 0
M  V30 4222 H 445.968 3.08952 0.476149 0
M  V30 4223 H 445.188 3.40301 -1.9897 0
M  V30 4224 H 446.476 4.60967 -2.15376 0
M  V30 4225 H 445.874 5.58926 0.872849 0
M  V30 4226 H 444.431 6.48804 0.624211 0
M  V30 4227 N 447.864 1.01787 1.20321 0
M  V30 4228 C 449.11 0.708985 1.90003 0
M  V30 4229 C 449.443 -0.759572 1.78729 0
M  V30 4230 O 448.718 -1.55198 1.17234 0
M  V30 4231 C 449.001 1.1469 3.41348 0
M  V30 4232 C 448.854 2.67586 3.61549 0
M  V30 4233 C 450.173 0.71915 4.34185 0
M  V30 4234 H 447.292 0.259034 0.689978 0
M  V30 4235 H 449.934 1.26584 1.41692 0
M  V30 4236 H 448.084 0.673128 3.82624 0
M  V30 4237 H 449.756 3.22826 3.29517 0
M  V30 4238 H 447.999 3.085 3.04976 0
M  V30 4239 H 448.67 2.93281 4.67643 0
M  V30 4240 H 451.146 1.12647 4.00562 0
M  V30 4241 H 450.022 1.05358 5.38694 0
M  V30 4242 H 450.283 -0.379111 4.40472 0
M  V30 4243 N 449.342 -1.36122 0.79427 0
M  V30 4244 C 450.305 -2.28309 0.201889 0
M  V30 4245 C 451.305 -1.49041 -0.603603 0
M  V30 4246 O 452.495 -1.68964 -0.423888 0
M  V30 4247 C 449.627 -3.3321 -0.719978 0
M  V30 4248 H 450.82 -2.82208 1.01481 0
M  V30 4249 H 448.373 -1.45768 0.564037 0
M  V30 4250 H 449.108 -2.84475 -1.55706 0
M  V30 4251 H 448.893 -3.91835 -0.144266 0
M  V30 4252 H 450.383 -4.02044 -1.12916 0
M  V30 4253 N 450.82 -0.546701 -1.47814 0
M  V30 4254 C 452.067 -0.0187407 -2.02491 0
M  V30 4255 C 452.395 1.32685 -1.42215 0
M  V30 4256 O 451.65 1.87413 -0.563454 0
M  V30 4257 C 451.949 0.134869 -3.57145 0
M  V30 4258 C 451.615 -1.13849 -4.3629 0
M  V30 4259 C 450.277 -1.48743 -4.57634 0
M  V30 4260 C 452.629 -1.98277 -4.82012 0
M  V30 4261 C 449.957 -2.67932 -5.21948 0
M  V30 4262 C 452.309 -3.16659 -5.4764 0
M  V30 4263 C 450.973 -3.51879 -5.67219 0
M  V30 4264 H 450.243 -0.0068577 -0.740968 0
M  V30 4265 H 452.89 -0.716097 -1.77607 0
M  V30 4266 H 451.195 0.915118 -3.80963 0
M  V30 4267 H 452.892 0.558556 -3.97091 0
M  V30 4268 H 449.482 -0.856767 -4.19949 0
M  V30 4269 H 453.666 -1.72628 -4.6531 0
M  V30 4270 H 448.922 -2.95401 -5.35302 0
M  V30 4271 H 453.096 -3.82374 -5.82033 0
M  V30 4272 H 450.723 -4.44331 -6.16825 0
M  V30 4273 N 452.299 1.55045 -0.282633 0
M  V30 4274 C 453.249 2.19514 0.616249 0
M  V30 4275 C 454.233 1.16216 1.11277 0
M  V30 4276 O 455.425 1.42004 1.05659 0
M  V30 4277 C 452.554 2.92548 1.7964 0
M  V30 4278 C 451.64 4.03142 1.31671 0
M  V30 4279 N 452.031 5.0276 0.553695 0
M  V30 4280 C 450.329 4.1635 1.59903 0
M  V30 4281 C 451.03 5.80923 0.30054 0
M  V30 4282 N 450.006 5.3651 0.875116 0
M  V30 4283 H 453.808 2.93889 0.0255363 0
M  V30 4284 H 451.322 1.62169 -0.0865362 0
M  V30 4285 H 453.319 3.37188 2.45173 0
M  V30 4286 H 451.979 2.19685 2.39099 0
M  V30 4287 H 452.99 5.17512 0.20032 0
M  V30 4288 H 449.667 3.54682 2.20243 0
M  V30 4289 H 451.057 6.7118 -0.311053 0
M  V30 4290 N 453.777 0.010035 1.57597 0
M  V30 4291 C 454.707 -0.976857 2.12084 0
M  V30 4292 C 455.688 -1.35191 1.03235 0
M  V30 4293 O 456.873 -1.43389 1.3097 0
M  V30 4294 C 454.003 -2.26548 2.63236 0
M  V30 4295 C 452.957 -2.03175 3.76701 0
M  V30 4296 C 452.283 -3.38138 4.14206 0
M  V30 4297 C 453.583 -1.38625 5.03568 0
M  V30 4298 H 455.277 -0.523145 2.94794 0
M  V30 4299 H 452.823 -0.250195 1.4181 0
M  V30 4300 H 454.776 -2.95952 2.99984 0
M  V30 4301 H 453.5 -2.74051 1.77661 0
M  V30 4302 H 452.159 -1.36195 3.40362 0
M  V30 4303 H 451.807 -3.83363 3.25641 0
M  V30 4304 H 451.507 -3.23312 4.90656 0
M  V30 4305 H 453.031 -4.08841 4.53521 0
M  V30 4306 H 454.445 -1.98 5.38023 0
M  V30 4307 H 452.842 -1.34256 5.84889 0
M  V30 4308 H 453.912 -0.356722 4.83586 0
M  V30 4309 N 455.255 -1.55392 -0.262866 0
M  V30 4310 C 456.503 -1.76127 -0.991147 0
M  V30 4311 C 456.824 -0.571083 -1.8645 0
M  V30 4312 O 456.094 0.413698 -1.91482 0
M  V30 4313 H 454.674 -0.649528 -0.368948 0
M  V30 4314 H 457.336 -1.9281 -0.284655 0
M  V30 4315 H 456.432 -2.6663 -1.62219 0
M  V30 4316 N 456.733 0.527833 -1.48498 0
M  V30 4317 C 457.68 1.6322 -1.6318 0
M  V30 4318 C 458.65 1.59199 -0.473815 0
M  V30 4319 O 459.835 1.77591 -0.697563 0
M  V30 4320 C 456.975 3.01474 -1.67951 0
M  V30 4321 C 456.088 3.15713 -2.94871 0
M  V30 4322 C 455.223 4.44539 -2.90789 0
M  V30 4323 C 454.262 4.52315 -4.12404 0
M  V30 4324 N 453.399 5.72533 -4.06387 0
M  V30 4325 H 458.239 1.50011 -2.57489 0
M  V30 4326 H 455.776 0.730298 -1.27691 0
M  V30 4327 H 457.734 3.81572 -1.68698 0
M  V30 4328 H 456.364 3.1345 -0.771306 0
M  V30 4329 H 455.416 2.28854 -3.03859 0
M  V30 4330 H 456.728 3.1732 -3.8485 0
M  V30 4331 H 455.882 5.3293 -2.89949 0
M  V30 4332 H 454.621 4.45457 -1.98542 0
M  V30 4333 H 453.626 3.62331 -4.13517 0
M  V30 4334 H 454.851 4.53134 -5.05812 0
M  V30 4335 H 452.797 5.74344 -3.16962 0
M  V30 4336 H 452.714 5.75643 -4.90073 0
M  V30 4337 H 453.982 6.63204 -4.0961 0
M  V30 4338 N 458.211 1.37122 0.776871 0
M  V30 4339 C 459.174 1.32301 1.8716 0
M  V30 4340 C 460.174 0.228099 1.59174 0
M  V30 4341 O 461.364 0.483642 1.67352 0
M  V30 4342 C 458.496 1.054 3.24197 0
M  V30 4343 H 459.689 2.29673 1.92848 0
M  V30 4344 H 457.242 1.22077 0.97606 0
M  V30 4345 H 457.977 0.0853872 3.24188 0
M  V30 4346 H 457.762 1.84648 3.45901 0
M  V30 4347 H 459.252 1.04664 4.04271 0
M  V30 4348 N 459.689 -1.00246 1.21608 0
M  V30 4349 C 460.937 -1.73717 1.0328 0
M  V30 4350 C 461.258 -1.90102 -0.434318 0
M  V30 4351 O 460.528 -1.45376 -1.31311 0
M  V30 4352 H 459.108 -0.643613 0.379172 0
M  V30 4353 H 461.77 -1.20787 1.52959 0
M  V30 4354 H 460.866 -2.73535 1.50283 0
M  V30 4355 N 461.167 -1.02423 -1.1978 0
M  V30 4356 C 462.13 -0.605703 -2.21052 0
M  V30 4357 C 463.13 0.328209 -1.57415 0
M  V30 4358 O 464.32 0.115853 -1.73814 0
M  V30 4359 C 461.452 0.114366 -3.40708 0
M  V30 4360 H 462.645 -1.5017 -2.59594 0
M  V30 4361 H 460.198 -0.814888 -1.33376 0
M  V30 4362 H 460.933 1.02492 -3.07678 0
M  V30 4363 H 460.718 -0.556641 -3.88129 0
M  V30 4364 H 462.208 0.394272 -4.15735 0
M  V30 4365 N 462.645 1.35699 -0.801477 0
M  V30 4366 C 463.875 2.02862 -0.3912 0
M  V30 4367 C 464.283 1.60552 1.00099 0
M  V30 4368 O 463.626 0.796215 1.65548 0
M  V30 4369 C 463.688 3.57386 -0.389299 0
M  V30 4370 C 463.352 4.22943 -1.73113 0
M  V30 4371 C 464.349 4.44984 -2.68859 0
M  V30 4372 C 462.034 4.60167 -2.01373 0
M  V30 4373 C 464.028 5.03345 -3.91053 0
M  V30 4374 C 461.715 5.18243 -3.23832 0
M  V30 4375 C 462.713 5.39773 -4.1849 0
M  V30 4376 O 462.401 5.96626 -5.38788 0
M  V30 4377 H 462.133 0.657341 -0.157732 0
M  V30 4378 H 464.687 1.74407 -1.08496 0
M  V30 4379 H 462.917 3.85011 0.361031 0
M  V30 4380 H 464.606 4.059 -0.0020365 0
M  V30 4381 H 465.372 4.1661 -2.48316 0
M  V30 4382 H 461.251 4.42726 -1.28508 0
M  V30 4383 H 464.795 5.20065 -4.64949 0
M  V30 4384 H 460.692 5.46044 -3.44248 0
M  V30 4385 H 461.46 6.15082 -5.40015 0
M  V30 4386 N 464.123 0.554532 1.47522 0
M  V30 4387 C 465.033 -0.197865 2.33764 0
M  V30 4388 C 466.049 -0.914576 1.48025 0
M  V30 4389 O 467.225 -0.884067 1.80959 0
M  V30 4390 C 464.29 -1.21628 3.24665 0
M  V30 4391 C 463.351 -0.507283 4.26292 0
M  V30 4392 C 462.584 -1.47718 5.1285 0
M  V30 4393 O 462.807 -2.7118 5.01814 0
M  V30 4394 O 461.741 -1.00313 5.93482 0
M  V30 4395 H 465.567 0.50949 2.99396 0
M  V30 4396 H 463.152 0.315176 1.46038 0
M  V30 4397 H 465.034 -1.80421 3.80823 0
M  V30 4398 H 463.709 -1.9056 2.61665 0
M  V30 4399 H 462.616 0.121778 3.73902 0
M  V30 4400 H 463.949 0.140544 4.91999 0
M  V30 4401 N 465.601 -1.54893 0.290851 0
M  V30 4402 C 466.848 -1.99933 -0.321391 0
M  V30 4403 C 467.176 -1.17927 -1.54672 0
M  V30 4404 O 466.431 -0.240902 -1.94212 0
M  V30 4405 C 466.73 -3.49815 -0.732397 0
M  V30 4406 C 466.396 -4.4921 0.390056 0
M  V30 4407 C 465.058 -4.76107 0.698223 0
M  V30 4408 C 467.41 -5.08453 1.14562 0
M  V30 4409 C 464.738 -5.59514 1.76526 0
M  V30 4410 C 467.09 -5.9302 2.2025 0
M  V30 4411 C 465.754 -6.18232 2.51684 0
M  V30 4412 H 465.024 -0.731608 -0.117605 0
M  V30 4413 H 467.671 -1.87107 0.407839 0
M  V30 4414 H 465.976 -3.60199 -1.54155 0
M  V30 4415 H 467.673 -3.82083 -1.21712 0
M  V30 4416 H 464.263 -4.28372 0.13976 0
M  V30 4417 H 468.447 -4.87683 0.920801 0
M  V30 4418 H 463.703 -5.77289 2.01364 0
M  V30 4419 H 467.877 -6.37955 2.7926 0
M  V30 4420 H 465.504 -6.82653 3.34499 0
M  V30 4421 N 467.08 -0.0183926 -1.57589 0
M  V30 4422 C 468.32 0.666846 -1.93216 0
M  V30 4423 C 468.684 1.69905 -0.894215 0
M  V30 4424 O 469.885 2.436 -1.13633 0
M  V30 4425 C 468.156 1.27684 -3.33814 0
M  V30 4426 S 469.715 1.98464 -3.91353 0
M  V30 4427 H 466.533 0.219826 -0.676164 0
M  V30 4428 H 469.135 -0.0794893 -1.95338 0
M  V30 4429 H 467.839 0.513006 -4.07181 0
M  V30 4430 H 467.37 2.06071 -3.3511 0
M  V30 4431 H 469.385 3.26189 -3.73918 0
M  V30 4432 N 468.558 1.5553 0.254621 0
M  V30 4433 C 469.807 1.76202 0.981612 0
M  V30 4434 C 470.12 0.580883 1.86776 0
M  V30 4435 O 471.326 0.670448 2.63092 0
M  V30 4436 C 469.782 3.11921 1.79537 0
M  V30 4437 C 469.39 4.37659 0.956991 0
M  V30 4438 C 471.134 3.41936 2.51555 0
M  V30 4439 C 469.041 5.64411 1.76619 0
M  V30 4440 H 467.971 0.656841 0.370237 0
M  V30 4441 H 470.622 1.81969 0.236556 0
M  V30 4442 H 469.004 3.00241 2.58208 0
M  V30 4443 H 470.178 4.60307 0.21315 0
M  V30 4444 H 468.493 4.14922 0.350497 0
M  V30 4445 H 471.09 4.33849 3.12536 0
M  V30 4446 H 471.433 2.62905 3.22779 0
M  V30 4447 H 471.966 3.54797 1.799 0
M  V30 4448 H 468.705 6.46241 1.09783 0
M  V30 4449 H 468.225 5.45877 2.48551 0
M  V30 4450 H 469.904 6.03386 2.33527 0
M  V30 4451 N 470.036 -0.519951 1.48776 0
M  V30 4452 C 471.261 -1.30447 1.6124 0
M  V30 4453 C 471.686 -1.86055 0.276591 0
M  V30 4454 O 471.044 -1.64915 -0.753183 0
M  V30 4455 C 471.092 -2.42406 2.66967 0
M  V30 4456 O 470.196 -3.45728 2.24824 0
M  V30 4457 H 469.537 -0.385924 0.540332 0
M  V30 4458 H 472.067 -0.624572 1.94834 0
M  V30 4459 H 472.077 -2.88447 2.88552 0
M  V30 4460 H 470.752 -2.01294 3.63941 0
M  V30 4461 H 469.329 -3.05737 2.13494 0
M  V30 4462 N 471.514 -1.37532 -0.769588 0
M  V30 4463 C 472.446 -1.29347 -1.89214 0
M  V30 4464 C 473.459 -0.208842 -1.61455 0
M  V30 4465 O 474.648 -0.465158 -1.72333 0
M  V30 4466 C 471.748 -0.977649 -3.24492 0
M  V30 4467 C 470.921 -2.16817 -3.7988 0
M  V30 4468 C 469.98 -1.82229 -4.93639 0
M  V30 4469 O 469.006 -2.54548 -5.09111 0
M  V30 4470 N 470.208 -0.767696 -5.75401 0
M  V30 4471 H 472.973 -2.26073 -1.96751 0
M  V30 4472 H 470.534 -1.31185 -0.948795 0
M  V30 4473 H 472.526 -0.727065 -3.98115 0
M  V30 4474 H 471.096 -0.0988777 -3.12444 0
M  V30 4475 H 470.316 -2.58038 -2.9801 0
M  V30 4476 H 471.604 -2.96308 -4.13617 0
M  V30 4477 H 471.002 -0.167626 -5.65452 0
M  V30 4478 H 469.559 -0.576973 -6.49241 0
M  V30 4479 N 472.992 0.995999 -1.22138 0
M  V30 4480 C 474.238 1.73767 -1.04561 0
M  V30 4481 C 474.571 1.89633 0.418698 0
M  V30 4482 O 473.846 1.43723 1.3105 0
M  V30 4483 C 474.129 3.14505 -1.75382 0
M  V30 4484 C 473.982 3.06306 -3.29388 0
M  V30 4485 C 475.301 4.13615 -1.50369 0
M  V30 4486 H 472.42 0.630728 -0.38125 0
M  V30 4487 H 475.062 1.16057 -1.50435 0
M  V30 4488 H 473.212 3.63775 -1.36383 0
M  V30 4489 H 474.884 2.64681 -3.77812 0
M  V30 4490 H 473.127 2.43186 -3.59226 0
M  V30 4491 H 473.798 4.05884 -3.74116 0
M  V30 4492 H 476.274 3.73089 -1.84239 0
M  V30 4493 H 475.15 5.10212 -2.02421 0
M  V30 4494 H 475.411 4.39949 -0.435611 0
M  V30 4495 N 474.47 1.03057 1.19235 0
M  V30 4496 C 475.695 0.74757 1.93458 0
M  V30 4497 C 476.12 -0.687648 1.7508 0
M  V30 4498 O 475.478 -1.47499 1.05422 0
M  V30 4499 C 475.526 1.10604 3.43219 0
M  V30 4500 O 474.63 0.225671 4.11782 0
M  V30 4501 H 473.971 0.276047 0.603899 0
M  V30 4502 H 476.501 1.3777 1.51263 0
M  V30 4503 H 476.511 1.06366 3.93891 0
M  V30 4504 H 475.186 2.15165 3.55917 0
M  V30 4505 H 473.763 0.326795 3.71465 0
M  V30 4506 N 475.948 -1.35272 0.808662 0
M  V30 4507 C 476.878 -2.32315 0.234981 0
M  V30 4508 C 477.859 -1.57572 -0.64071 0
M  V30 4509 O 479.044 -1.8563 -0.570551 0
M  V30 4510 C 476.174 -3.41801 -0.615601 0
M  V30 4511 C 475.128 -4.27694 0.161767 0
M  V30 4512 C 474.454 -5.28519 -0.810649 0
M  V30 4513 C 475.754 -5.04231 1.36193 0
M  V30 4514 H 477.448 -2.80543 1.04575 0
M  V30 4515 H 474.994 -1.3488 0.504315 0
M  V30 4516 H 476.947 -4.08693 -1.02702 0
M  V30 4517 H 475.671 -2.92186 -1.45928 0
M  V30 4518 H 474.33 -3.62384 0.554382 0
M  V30 4519 H 473.978 -4.75171 -1.64988 0
M  V30 4520 H 473.678 -5.8686 -0.294822 0
M  V30 4521 H 475.202 -5.98283 -1.22023 0
M  V30 4522 H 476.616 -5.64058 1.02528 0
M  V30 4523 H 475.013 -5.72077 1.81239 0
M  V30 4524 H 476.083 -4.34753 2.14751 0
M  V30 4525 N 477.426 -0.562348 -1.47226 0
M  V30 4526 C 478.654 -0.0452275 -2.06851 0
M  V30 4527 C 479.069 1.25078 -1.41424 0
M  V30 4528 O 478.426 1.75156 -0.512513 0
M  V30 4529 C 478.477 0.148674 -3.61194 0
M  V30 4530 O 478.198 -1.09602 -4.24169 0
M  V30 4531 C 479.699 0.702488 -4.37699 0
M  V30 4532 H 476.919 -0.0481775 -0.669268 0
M  V30 4533 H 479.463 -0.777223 -1.89155 0
M  V30 4534 H 477.618 0.830817 -3.78386 0
M  V30 4535 H 478.032 -0.896982 -5.16773 0
M  V30 4536 H 479.506 0.78743 -5.46355 0
M  V30 4537 H 479.983 1.71493 -4.04335 0
M  V30 4538 H 480.589 0.0558772 -4.25263 0
M  V30 4539 N 478.904 1.54736 -0.299062 0
M  V30 4540 C 480.132 2.04512 0.313447 0
M  V30 4541 C 480.547 1.17643 1.47667 0
M  V30 4542 O 479.904 0.20164 1.81383 0
M  V30 4543 C 479.955 3.53171 0.771542 0
M  V30 4544 O 479.676 4.36736 -0.345379 0
M  V30 4545 C 481.177 4.18936 1.4494 0
M  V30 4546 H 478.397 0.667507 0.0683784 0
M  V30 4547 H 480.941 1.99752 -0.438129 0
M  V30 4548 H 479.096 3.58298 1.47314 0
M  V30 4549 H 479.51 5.24499 0.0109219 0
M  V30 4550 H 480.984 5.24482 1.72111 0
M  V30 4551 H 481.461 3.68554 2.38883 0
M  V30 4552 H 482.067 4.17879 0.791028 0
M  V30 4553 N 480.382 0.0267497 1.57577 0
M  V30 4554 C 481.607 -0.666227 1.96408 0
M  V30 4555 C 482.032 -1.65004 0.903071 0
M  V30 4556 O 481.39 -1.80787 -0.136263 0
M  V30 4557 C 481.438 -1.35101 3.34335 0
M  V30 4558 O 480.542 -2.46623 3.30531 0
M  V30 4559 H 479.883 -0.175206 0.640468 0
M  V30 4560 H 482.413 0.0878977 2.04411 0
M  V30 4561 H 482.423 -1.70834 3.70513 0
M  V30 4562 H 481.098 -0.629844 4.11103 0
M  V30 4563 H 479.675 -2.13019 3.06068 0
M  V30 4564 N 481.861 -1.55662 -0.24637 0
M  V30 4565 C 482.824 -1.89558 -1.28842 0
M  V30 4566 C 483.824 -0.772082 -1.41052 0
M  V30 4567 O 485.014 -1.04007 -1.39743 0
M  V30 4568 C 482.146 -2.12449 -2.66605 0
M  V30 4569 H 483.339 -2.82735 -1.00004 0
M  V30 4570 H 480.892 -1.48562 -0.485684 0
M  V30 4571 H 481.627 -1.21742 -3.00582 0
M  V30 4572 H 481.412 -2.94273 -2.59125 0
M  V30 4573 H 482.902 -2.39854 -3.41847 0
M  V30 4574 N 483.339 0.512053 -1.4905 0
M  V30 4575 C 484.567 1.29116 -1.61669 0
M  V30 4576 C 484.982 1.86655 -0.283787 0
M  V30 4577 O 484.339 1.67293 0.729331 0
M  V30 4578 C 484.39 2.4293 -2.67707 0
M  V30 4579 O 484.111 1.87758 -3.95826 0
M  V30 4580 C 485.612 3.34476 -2.90931 0
M  V30 4581 H 482.832 0.392009 -0.544583 0
M  V30 4582 H 485.376 0.615881 -1.95006 0
M  V30 4583 H 483.531 3.06308 -2.37179 0
M  V30 4584 H 483.945 2.62393 -4.54148 0
M  V30 4585 H 485.419 4.10642 -3.68886 0
M  V30 4586 H 485.896 3.90801 -2.00427 0
M  V30 4587 H 486.502 2.76874 -3.22832 0
M  V30 4588 N 484.817 1.37938 0.762283 0
M  V30 4589 C 486.228 1.30094 1.33912 0
M  V30 4590 C 486.579 -0.0472026 1.96143 0
M  V30 4591 O 485.704 -0.94917 1.94473 0
M  V30 4592 C 486.299 2.35592 2.43478 0
M  V30 4593 C 484.858 2.31353 2.96905 0
M  V30 4594 C 484.005 2.18919 1.70205 0
M  V30 4595 H 486.956 1.48423 0.561816 0
M  V30 4596 H 486.977 2.00806 3.23199 0
M  V30 4597 H 486.489 3.33701 1.98155 0
M  V30 4598 H 484.59 1.36799 3.46579 0
M  V30 4599 H 484.703 3.25147 3.51875 0
M  V30 4600 H 483.067 1.65624 1.93496 0
M  V30 4601 H 483.85 3.18956 1.26973 0
M  V30 4602 N 486.295 -0.989507 1.22664 0
M  V30 4603 C 487.706 -1.54406 1.04955 0
M  V30 4604 C 488.057 -1.92366 -0.385951 0
M  V30 4605 O 487.182 -1.75111 -1.27142 0
M  V30 4606 C 487.777 -2.80578 1.89899 0
M  V30 4607 C 486.336 -3.32464 1.76478 0
M  V30 4608 C 485.483 -2.05524 1.86159 0
M  V30 4609 H 488.434 -0.810211 1.3646 0
M  V30 4610 H 488.455 -3.53075 1.4184 0
M  V30 4611 H 487.967 -2.52918 2.94371 0
M  V30 4612 H 486.068 -3.65024 0.747528 0
M  V30 4613 H 486.181 -4.02838 2.59342 0
M  V30 4614 H 484.545 -2.19241 1.29636 0
M  V30 4615 H 485.328 -1.80258 2.92168 0
M  V30 4616 N 487.773 -1.03688 -1.18687 0
M  V30 4617 C 489.184 -0.766488 -1.70241 0
M  V30 4618 C 489.535 0.713052 -1.82784 0
M  V30 4619 O 488.66 1.55529 -1.50465 0
M  V30 4620 C 489.255 -1.38475 -3.09209 0
M  V30 4621 C 487.814 -1.16276 -3.5799 0
M  V30 4622 C 486.961 -1.4778 -2.34641 0
M  V30 4623 H 489.912 -1.20378 -1.03415 0
M  V30 4624 H 489.933 -0.785939 -3.72295 0
M  V30 4625 H 489.445 -2.46157 -3.00048 0
M  V30 4626 H 487.546 -0.104508 -3.72453 0
M  V30 4627 H 487.659 -1.8571 -4.41643 0
M  V30 4628 H 486.023 -0.897366 -2.38368 0
M  V30 4629 H 486.806 -2.56562 -2.28102 0
M  V30 4630 N 489.251 1.34841 -0.815825 0
M  V30 4631 C 490.499 1.98107 -0.399744 0
M  V30 4632 C 490.82 1.65019 1.03894 0
M  V30 4633 O 490.09 0.937311 1.72021 0
M  V30 4634 H 488.67 0.732827 -0.144823 0
M  V30 4635 H 491.332 1.64599 -1.0437 0
M  V30 4636 H 490.428 3.07856 -0.512965 0
M  V30 4637 N 490.729 0.570148 1.46925 0
M  V30 4638 C 491.959 0.0561151 2.06524 0
M  V30 4639 C 492.367 -1.24874 1.42137 0
M  V30 4640 O 491.71 -1.76292 0.516417 0
M  V30 4641 C 491.772 -0.197035 3.5896 0
M  V30 4642 C 491.436 1.02033 4.45464 0
M  V30 4643 C 492.433 1.92921 4.82781 0
M  V30 4644 C 490.118 1.23864 4.86788 0
M  V30 4645 C 492.112 3.03999 5.60235 0
M  V30 4646 C 489.799 2.35249 5.64004 0
M  V30 4647 C 490.797 3.25146 6.0064 0
M  V30 4648 O 490.485 4.34598 6.76299 0
M  V30 4649 H 490.217 0.0487409 0.674241 0
M  V30 4650 H 492.771 0.786915 1.89728 0
M  V30 4651 H 491.001 -0.982299 3.74016 0
M  V30 4652 H 492.69 -0.658032 4.00531 0
M  V30 4653 H 493.456 1.77265 4.51444 0
M  V30 4654 H 489.335 0.54805 4.57731 0
M  V30 4655 H 492.879 3.74192 5.8875 0
M  V30 4656 H 488.776 2.50873 5.94755 0
M  V30 4657 H 489.544 4.32808 6.94708 0
M  V30 4658 N 492.207 -1.54576 0.307264 0
M  V30 4659 C 493.117 -2.27435 -0.57536 0
M  V30 4660 C 494.133 -1.31183 -1.14311 0
M  V30 4661 O 495.309 -1.64175 -1.16656 0
M  V30 4662 C 492.374 -3.00566 -1.72803 0
M  V30 4663 C 491.435 -4.12369 -1.19373 0
M  V30 4664 C 490.668 -4.82003 -2.29147 0
M  V30 4665 O 490.891 -4.51038 -3.49171 0
M  V30 4666 O 489.825 -5.69271 -1.95485 0
M  V30 4667 H 493.651 -3.03696 0.0158558 0
M  V30 4668 H 491.236 -1.49219 0.0735064 0
M  V30 4669 H 493.118 -3.46416 -2.39946 0
M  V30 4670 H 491.793 -2.27195 -2.30574 0
M  V30 4671 H 490.7 -3.70905 -0.487851 0
M  V30 4672 H 492.033 -4.87736 -0.661376 0
M  V30 4673 N 493.685 -0.035106 -1.57561 0
M  V30 4674 C 495.096 0.502885 -1.798 0
M  V30 4675 C 495.447 1.71892 -0.945921 0
M  V30 4676 O 494.572 2.15822 -0.157991 0
M  V30 4677 C 495.167 0.919097 -3.26095 0
M  V30 4678 C 493.726 1.40216 -3.49308 0
M  V30 4679 C 492.873 0.369709 -2.74824 0
M  V30 4680 H 495.824 -0.261102 -1.56537 0
M  V30 4681 H 495.845 1.78308 -3.36135 0
M  V30 4682 H 495.357 0.0338526 -3.88085 0
M  V30 4683 H 493.458 2.30714 -2.92578 0
M  V30 4684 H 493.571 1.40541 -4.58023 0
M  V30 4685 H 491.935 0.839113 -2.40481 0
M  V30 4686 H 492.718 -0.507173 -3.39533 0
M  V30 4687 N 495.163 1.55791 0.238111 0
M  V30 4688 C 496.44 1.68798 0.98826 0
M  V30 4689 C 496.82 0.577562 2.03045 0
M  V30 4690 O 496.168 -0.41778 2.24648 0
M  V30 4691 C 496.378 3.09454 1.61367 0
M  V30 4692 C 497.726 3.68335 2.11221 0
M  V30 4693 O 498.75 3.1231 1.71292 0
M  V30 4694 O 497.609 4.6657 2.84561 0
M  V30 4695 H 494.703 0.686881 0.460568 0
M  V30 4696 H 497.249 1.68118 0.231202 0
M  V30 4697 H 496.021 3.81726 0.860295 0
M  V30 4698 H 495.644 3.14182 2.4367 0
M  V30 4699 N 496.642 -0.504142 1.49319 0
M  V30 4700 C 497.87 -1.28256 1.62351 0
M  V30 4701 C 498.285 -1.86502 0.293682 0
M  V30 4702 O 497.642 -1.67678 -0.720449 0
M  V30 4703 C 497.693 -2.41507 2.68992 0
M  V30 4704 O 497.414 -1.85656 3.96817 0
M  V30 4705 C 498.915 -3.32929 2.927 0
M  V30 4706 H 496.135 -0.389115 0.546654 0
M  V30 4707 H 498.679 -0.605531 1.95329 0
M  V30 4708 H 496.834 -3.05046 2.38801 0
M  V30 4709 H 497.248 -2.59981 4.55533 0
M  V30 4710 H 498.722 -4.0868 3.71058 0
M  V30 4711 H 499.199 -3.89733 2.02496 0
M  V30 4712 H 499.805 -2.75158 3.24296 0
M  V30 4713 N 498.12 -1.38341 -0.754957 0
M  V30 4714 C 499.368 -1.34208 -1.51105 0
M  V30 4715 C 499.689 0.0677634 -1.94882 0
M  V30 4716 O 498.959 1.01517 -1.67544 0
M  V30 4717 H 497.539 -0.493819 -0.560493 0
M  V30 4718 H 500.201 -1.73005 -0.897507 0
M  V30 4719 H 499.297 -1.99203 -2.4026 0
M  V30 4720 N 499.598 0.982988 -1.23187 0
M  V30 4721 C 501.009 1.53847 -1.05773 0
M  V30 4722 C 501.36 1.92568 0.375744 0
M  V30 4723 O 500.485 1.75783 1.26211 0
M  V30 4724 C 501.08 2.79567 -1.91384 0
M  V30 4725 C 499.639 3.31524 -1.78238 0
M  V30 4726 C 498.786 2.04534 -1.87246 0
M  V30 4727 H 501.737 0.802962 -1.36888 0
M  V30 4728 H 501.758 3.52317 -1.43711 0
M  V30 4729 H 501.27 2.51353 -2.95708 0
M  V30 4730 H 499.371 3.64623 -0.766875 0
M  V30 4731 H 499.484 4.01457 -2.61475 0
M  V30 4732 H 497.848 2.1855 -1.30797 0
M  V30 4733 H 498.631 1.78706 -2.9312 0
M  V30 4734 N 501.076 1.04316 1.18135 0
M  V30 4735 C 502.492 0.762858 1.40188 0
M  V30 4736 C 502.692 -0.646547 1.90846 0
M  V30 4737 O 501.748 -1.41036 2.0944 0
M  V30 4738 C 503.061 1.81106 2.40044 0
M  V30 4739 C 504.609 1.83226 2.53766 0
M  V30 4740 C 505.084 2.87044 3.56889 0
M  V30 4741 N 506.575 2.85951 3.64398 0
M  V30 4742 C 507.31 3.62932 4.43923 0
M  V30 4743 N 506.806 4.49672 5.27036 0
M  V30 4744 N 508.599 3.51411 4.38711 0
M  V30 4745 H 500.75 1.95264 0.835805 0
M  V30 4746 H 503.013 0.845017 0.429709 0
M  V30 4747 H 502.719 2.82214 2.09876 0
M  V30 4748 H 502.593 1.64529 3.39426 0
M  V30 4749 H 504.98 0.827869 2.8325 0
M  V30 4750 H 505.061 2.03879 1.54489 0
M  V30 4751 H 504.705 3.87663 3.28145 0
M  V30 4752 H 504.635 2.63645 4.5585 0
M  V30 4753 H 507.126 2.23051 3.05052 0
M  V30 4754 H 507.439 5.05116 5.84874 0
M  V30 4755 H 505.784 4.53738 5.26447 0
M  V30 4756 H 508.975 2.83047 3.72829 0
M  V30 4757 H 509.148 4.11654 5.00445 0
M  V30 4758 N 502.554 -1.34406 0.822964 0
M  V30 4759 C 503.8 -1.98578 0.411666 0
M  V30 4760 C 504.133 -1.65093 -1.02264 0
M  V30 4761 O 503.408 -0.92258 -1.71227 0
M  V30 4762 C 503.691 -3.54823 0.614235 0
M  V30 4763 C 503.544 -3.9805 2.09466 0
M  V30 4764 C 504.863 -4.40071 0.050221 0
M  V30 4765 H 501.982 -0.721355 0.151047 0
M  V30 4766 H 504.624 -1.59301 1.03554 0
M  V30 4767 H 502.774 -3.88411 0.0831774 0
M  V30 4768 H 504.446 -3.74795 2.68936 0
M  V30 4769 H 502.689 -3.4836 2.5851 0
M  V30 4770 H 503.36 -5.06819 2.18721 0
M  V30 4771 H 505.836 -4.13037 0.503953 0
M  V30 4772 H 504.712 -5.48452 0.221759 0
M  V30 4773 H 504.973 -4.29576 -1.04482 0
M  V30 4774 N 504.032 -0.577932 -1.46621 0
M  V30 4775 C 505.448 -0.239242 -1.57797 0
M  V30 4776 C 505.648 1.25843 -1.57371 0
M  V30 4777 O 504.704 2.03988 -1.48813 0
M  V30 4778 C 506.017 -0.884227 -2.87405 0
M  V30 4779 C 507.565 -0.857373 -3.01028 0
M  V30 4780 C 508.04 -1.48181 -4.33366 0
M  V30 4781 N 509.531 -1.44593 -4.40053 0
M  V30 4782 C 510.266 -1.89852 -5.41058 0
M  V30 4783 N 509.762 -2.43062 -6.48762 0
M  V30 4784 N 511.555 -1.80797 -5.3223 0
M  V30 4785 H 503.706 -1.55073 -1.45142 0
M  V30 4786 H 505.969 -0.647903 -0.692044 0
M  V30 4787 H 505.675 -1.93759 -2.93514 0
M  V30 4788 H 505.549 -0.389585 -3.75183 0
M  V30 4789 H 507.936 0.187357 -2.94505 0
M  V30 4790 H 508.017 -1.38999 -2.14739 0
M  V30 4791 H 507.661 -2.52572 -4.40647 0
M  V30 4792 H 507.591 -0.924464 -5.18422 0
M  V30 4793 H 510.082 -1.05694 -3.62819 0
M  V30 4794 H 510.395 -2.75466 -7.22038 0
M  V30 4795 H 508.74 -2.47085 -6.49595 0
M  V30 4796 H 511.931 -1.38989 -4.46989 0
M  V30 4797 H 512.104 -2.16385 -6.10804 0
M  V30 4798 N 505.51 1.54411 -0.315457 0
M  V30 4799 C 506.756 2.00716 0.289972 0
M  V30 4800 C 507.089 1.2034 1.5242 0
M  V30 4801 O 506.364 0.283579 1.92422 0
M  V30 4802 C 506.647 3.54507 0.632196 0
M  V30 4803 C 506.5 4.45615 -0.61218 0
M  V30 4804 C 507.819 4.15421 1.45305 0
M  V30 4805 H 504.938 0.729637 0.10392 0
M  V30 4806 H 507.58 1.8506 -0.430427 0
M  V30 4807 H 505.73 3.67979 1.24595 0
M  V30 4808 H 507.402 4.44026 -1.25053 0
M  V30 4809 H 505.645 4.15621 -1.24264 0
M  V30 4810 H 506.316 5.51022 -0.328379 0
M  V30 4811 H 508.792 4.05474 0.934331 0
M  V30 4812 H 507.668 5.23157 1.66127 0
M  V30 4813 H 507.929 3.68223 2.44671 0
M  V30 4814 N 506.988 0.0434614 1.5754 0
M  V30 4815 C 507.936 -0.951465 2.1225 0
M  V30 4816 C 508.93 -1.3274 1.05245 0
M  V30 4817 O 510.136 -1.30795 1.23663 0
M  V30 4818 H 506.511 -0.324667 0.678303 0
M  V30 4819 H 508.482 -0.464855 2.94757 0
M  V30 4820 C 507.231 -2.21972 2.67626 0
M  V30 4821 H 506.554 -1.93923 3.4962 0
M  V30 4822 H 507.994 -2.89765 3.09536 0
M  V30 4823 C 506.453 -2.95919 1.61038 0
M  V30 4824 O 506.983 -3.8857 1.01862 0
M  V30 4825 N 505.189 -2.58511 1.32741 0
M  V30 4826 H 504.736 -1.83244 1.81051 0
M  V30 4827 H 504.694 -3.08296 0.616531 0
M  V30 4828 N 508.466 -1.55915 -0.229846 0
M  V30 4829 C 509.398 -1.88209 -1.30805 0
M  V30 4830 C 510.411 -0.769672 -1.43457 0
M  V30 4831 O 511.6 -1.04792 -1.44502 0
M  V30 4832 C 508.7 -2.06829 -2.68468 0
M  V30 4833 C 507.873 -3.37798 -2.77869 0
M  V30 4834 C 506.932 -3.45952 -3.96489 0
M  V30 4835 O 505.958 -4.19043 -3.85216 0
M  V30 4836 N 507.16 -2.76488 -5.10426 0
M  V30 4837 H 509.925 -2.81286 -1.03431 0
M  V30 4838 H 507.486 -1.5636 -0.41991 0
M  V30 4839 H 509.478 -2.09608 -3.46189 0
M  V30 4840 H 508.048 -1.20416 -2.88477 0
M  V30 4841 H 507.268 -3.4719 -1.86689 0
M  V30 4842 H 508.556 -4.24091 -2.81113 0
M  V30 4843 H 507.954 -2.16868 -5.2248 0
M  V30 4844 H 506.511 -2.84938 -5.8622 0
M  V30 4845 N 509.944 0.496216 -1.49584 0
M  V30 4846 C 511.19 1.25189 -1.59548 0
M  V30 4847 C 511.523 1.9212 -0.283466 0
M  V30 4848 O 510.798 1.80947 0.713324 0
M  V30 4849 C 511.081 2.31516 -2.75812 0
M  V30 4850 C 510.934 1.69054 -4.16822 0
M  V30 4851 C 512.253 3.3304 -2.87702 0
M  V30 4852 H 509.372 0.45379 -0.580727 0
M  V30 4853 H 512.014 0.549327 -1.81886 0
M  V30 4854 H 510.164 2.91438 -2.56897 0
M  V30 4855 H 511.836 1.12923 -4.47265 0
M  V30 4856 H 510.079 0.994485 -4.22247 0
M  V30 4857 H 510.75 2.462 -4.94054 0
M  V30 4858 H 513.226 2.83114 -3.04936 0
M  V30 4859 H 512.102 4.04794 -3.7072 0
M  V30 4860 H 512.363 3.95655 -1.97255 0
M  V30 4861 N 511.423 1.38739 0.74761 0
M  V30 4862 C 512.671 1.35007 1.50391 0
M  V30 4863 C 512.992 -0.0574274 1.94915 0
M  V30 4864 O 512.262 -1.00628 1.6808 0
M  V30 4865 H 510.842 0.496784 0.557866 0
M  V30 4866 H 513.504 1.73479 0.888319 0
M  V30 4867 H 512.6 2.00474 2.392 0
M  V30 4868 N 512.901 -0.976442 1.23707 0
M  V30 4869 C 514.131 -1.75087 1.09673 0
M  V30 4870 C 514.539 -1.85852 -0.354344 0
M  V30 4871 O 513.882 -1.33985 -1.25673 0
M  V30 4872 C 513.944 -3.19272 1.65245 0
M  V30 4873 C 513.608 -3.32004 3.14042 0
M  V30 4874 C 514.605 -3.18017 4.11292 0
M  V30 4875 C 512.29 -3.56525 3.53829 0
M  V30 4876 C 514.284 -3.28363 5.46312 0
M  V30 4877 C 511.971 -3.6651 4.88993 0
M  V30 4878 C 512.969 -3.52439 5.85043 0
M  V30 4879 O 512.657 -3.62063 7.1775 0
M  V30 4880 H 512.389 -0.556164 0.384262 0
M  V30 4881 H 514.943 -1.23518 1.64111 0
M  V30 4882 H 513.173 -3.72107 1.05231 0
M  V30 4883 H 514.862 -3.7849 1.46629 0
M  V30 4884 H 515.628 -2.98966 3.81896 0
M  V30 4885 H 511.507 -3.66547 2.79579 0
M  V30 4886 H 515.051 -3.17297 6.21263 0
M  V30 4887 H 510.948 -3.85072 5.18063 0
M  V30 4888 H 511.716 -3.78833 7.25553 0
M  V30 4889 N 514.379 -1.04941 -1.1758 0
M  V30 4890 C 515.309 -0.669172 -2.23706 0
M  V30 4891 C 516.29 0.331835 -1.66832 0
M  V30 4892 O 517.475 0.209988 -1.93061 0
M  V30 4893 C 514.605 -0.0404889 -3.47276 0
M  V30 4894 C 513.559 -0.965983 -4.16957 0
M  V30 4895 C 512.885 -0.201312 -5.34321 0
M  V30 4896 C 514.185 -2.28902 -4.69469 0
M  V30 4897 H 515.879 -1.55639 -2.55767 0
M  V30 4898 H 513.425 -0.749793 -1.22939 0
M  V30 4899 H 515.378 0.237298 -4.20731 0
M  V30 4900 H 514.102 0.881658 -3.14475 0
M  V30 4901 H 512.761 -1.22829 -3.45411 0
M  V30 4902 H 512.409 0.723519 -4.97769 0
M  V30 4903 H 512.109 -0.817968 -5.81879 0
M  V30 4904 H 513.633 0.0692499 -6.10561 0
M  V30 4905 H 515.047 -2.07132 -5.34574 0
M  V30 4906 H 513.444 -2.85942 -5.27596 0
M  V30 4907 H 514.514 -2.92937 -3.86414 0
M  V30 4908 N 515.857 1.33968 -0.830081 0
M  V30 4909 C 517.268 1.80439 -0.479455 0
M  V30 4910 C 517.619 1.68756 1.00079 0
M  V30 4911 O 516.744 1.23171 1.77927 0
M  V30 4912 C 517.339 3.27611 -0.863505 0
M  V30 4913 C 515.898 3.72133 -0.565145 0
M  V30 4914 C 515.045 2.55549 -1.07657 0
M  V30 4915 H 517.996 1.21614 -1.0196 0
M  V30 4916 H 518.017 3.8012 -0.170083 0
M  V30 4917 H 517.529 3.36082 -1.94089 0
M  V30 4918 H 515.63 3.69196 0.502536 0
M  V30 4919 H 515.743 4.65963 -1.11422 0
M  V30 4920 H 514.107 2.49788 -0.497807 0
M  V30 4921 H 514.89 2.66786 -2.16055 0
M  V30 4922 N 517.335 0.585699 1.46312 0
M  V30 4923 C 518.582 0.0724211 2.0237 0
M  V30 4924 C 518.91 -1.28868 1.45683 0
M  V30 4925 O 518.165 -1.85853 0.612945 0
M  V30 4926 C 518.464 -0.0401312 3.57377 0
M  V30 4927 C 518.13 1.25376 4.33119 0
M  V30 4928 C 516.792 1.60824 4.5353 0
M  V30 4929 C 519.144 2.10987 4.76586 0
M  V30 4930 C 516.472 2.81676 5.14661 0
M  V30 4931 C 518.824 3.31068 5.39052 0
M  V30 4932 C 517.488 3.66794 5.5769 0
M  V30 4933 H 516.758 0.0265007 0.740526 0
M  V30 4934 H 519.405 0.762935 1.75646 0
M  V30 4935 H 517.71 -0.813791 3.83255 0
M  V30 4936 H 519.407 -0.453078 3.98432 0
M  V30 4937 H 515.997 0.967808 4.1753 0
M  V30 4938 H 520.181 1.84904 4.60569 0
M  V30 4939 H 515.437 3.0949 5.27282 0
M  V30 4940 H 519.611 3.97672 5.71691 0
M  V30 4941 H 517.238 4.60529 6.04828 0
M  V30 4942 N 518.813 -1.54241 0.323641 0
M  V30 4943 C 520.061 -2.00174 -0.278359 0
M  V30 4944 C 520.382 -1.2134 -1.52648 0
M  V30 4945 O 519.652 -0.315244 -1.93347 0
M  V30 4946 H 518.232 -0.739463 -0.105845 0
M  V30 4947 H 520.894 -1.89864 0.440204 0
M  V30 4948 H 519.99 -3.07486 -0.5347 0
M  V30 4949 N 520.291 -0.0518155 -1.57515 0
M  V30 4950 C 521.702 0.483787 -1.80323 0
M  V30 4951 C 522.053 1.70879 -0.964099 0
M  V30 4952 O 521.178 2.15643 -0.180872 0
M  V30 4953 C 521.773 0.884459 -3.27052 0
M  V30 4954 C 520.332 1.36504 -3.50776 0
M  V30 4955 C 519.479 0.340539 -2.75201 0
M  V30 4956 H 522.43 -0.277691 -1.56252 0
M  V30 4957 H 522.451 1.74733 -3.38007 0
M  V30 4958 H 521.963 -0.00731093 -3.88099 0
M  V30 4959 H 520.064 2.27598 -2.95009 0
M  V30 4960 H 520.177 1.35675 -4.59488 0
M  V30 4961 H 518.541 0.81356 -2.41357 0
M  V30 4962 H 519.324 -0.543156 -3.38976 0
M  V30 4963 N 521.769 1.56035 0.221574 0
M  V30 4964 C 522.716 1.92413 1.27459 0
M  V30 4965 C 523.686 0.781323 1.46576 0
M  V30 4966 O 524.871 1.03721 1.60145 0
M  V30 4967 C 522.011 2.24617 2.61995 0
M  V30 4968 C 521.124 3.51831 2.50677 0
M  V30 4969 C 520.259 3.73482 3.77736 0
M  V30 4970 C 519.298 4.94211 3.6114 0
M  V30 4971 N 518.435 5.12252 4.80148 0
M  V30 4972 H 523.275 2.82203 0.957355 0
M  V30 4973 H 520.812 1.39676 0.461415 0
M  V30 4974 H 522.77 2.41298 3.40339 0
M  V30 4975 H 521.4 1.38 2.91815 0
M  V30 4976 H 520.452 3.43343 1.63767 0
M  V30 4977 H 521.764 4.40328 2.34334 0
M  V30 4978 H 520.918 3.9026 4.64523 0
M  V30 4979 H 519.657 2.83266 3.97003 0
M  V30 4980 H 518.662 4.77384 2.72736 0
M  V30 4981 H 519.887 5.85912 3.43343 0
M  V30 4982 H 517.833 4.24978 4.99729 0
M  V30 4983 H 517.75 5.94881 4.66532 0
M  V30 4984 H 519.018 5.33465 5.68362 0
M  V30 4985 N 523.247 -0.488276 1.49845 0
M  V30 4986 C 524.663 -0.820566 1.3689 0
M  V30 4987 C 524.863 -1.97248 0.411752 0
M  V30 4988 O 523.919 -2.52042 -0.151931 0
M  V30 4989 C 525.232 -1.1488 2.77891 0
M  V30 4990 C 526.78 -1.25626 2.86683 0
M  V30 4991 C 527.255 -1.61772 4.28479 0
M  V30 4992 N 528.746 -1.68797 4.31349 0
M  V30 4993 C 529.481 -1.98235 5.38043 0
M  V30 4994 N 528.977 -2.2581 6.54967 0
M  V30 4995 N 530.77 -1.99593 5.2547 0
M  V30 4996 H 522.921 0.271123 2.10662 0
M  V30 4997 H 525.184 0.058735 0.946179 0
M  V30 4998 H 524.89 -0.375614 3.49688 0
M  V30 4999 H 524.764 -2.08919 3.14058 0
M  V30 5000 H 527.151 -2.02014 2.15114 0
M  V30 5001 H 527.232 -0.296072 2.54081 0
M  V30 5002 H 526.876 -0.859295 5.00578 0
M  V30 5003 H 526.806 -2.58912 4.58554 0
M  V30 5004 H 529.297 -1.49595 3.4703 0
M  V30 5005 H 529.61 -2.47497 7.32096 0
M  V30 5006 H 527.955 -2.23239 6.58171 0
M  V30 5007 H 531.146 -1.77535 4.33127 0
M  V30 5008 H 531.319 -2.222 6.08713 0
M  V30 5009 N 524.725 -1.39134 -0.740242 0
M  V30 5010 C 525.688 -1.37217 -1.83587 0
M  V30 5011 C 526.688 -0.270221 -1.58513 0
M  V30 5012 O 527.878 -0.527843 -1.6601 0
M  V30 5013 C 525.01 -1.13959 -3.21288 0
M  V30 5014 H 526.203 -2.34705 -1.86691 0
M  V30 5015 H 523.756 -1.24622 -0.94335 0
M  V30 5016 H 524.491 -0.17131 -3.23847 0
M  V30 5017 H 524.276 -1.93754 -3.40884 0
M  V30 5018 H 525.766 -1.15346 -4.01354 0
M  V30 5019 N 526.204 0.969867 -1.24223 0
M  V30 5020 C 527.432 1.74756 -1.10761 0
M  V30 5021 C 527.847 1.85713 0.340041 0
M  V30 5022 O 527.204 1.34389 1.23474 0
M  V30 5023 C 527.255 3.16915 -1.73917 0
M  V30 5024 O 526.976 3.06511 -3.13021 0
M  V30 5025 C 528.477 4.11032 -1.66036 0
M  V30 5026 H 525.697 0.548092 -0.387087 0
M  V30 5027 H 528.241 1.2178 -1.64286 0
M  V30 5028 H 526.396 3.66884 -1.244 0
M  V30 5029 H 526.81 3.96079 -3.43834 0
M  V30 5030 H 528.284 5.08446 -2.14911 0
M  V30 5031 H 528.761 4.34785 -0.621159 0
M  V30 5032 H 529.367 3.66972 -2.14969 0
M  V30 5033 N 527.682 1.05563 1.17022 0
M  V30 5034 C 528.612 0.681026 2.23348 0
M  V30 5035 C 529.593 -0.322983 1.67005 0
M  V30 5036 O 530.778 -0.199746 1.9317 0
M  V30 5037 C 527.908 0.0589053 3.4725 0
M  V30 5038 C 526.862 0.988082 4.16438 0
M  V30 5039 C 526.188 0.229646 5.34207 0
M  V30 5040 C 527.488 2.31388 4.68249 0
M  V30 5041 H 529.182 1.56993 2.54938 0
M  V30 5042 H 526.728 0.756302 1.2254 0
M  V30 5043 H 528.681 -0.214982 4.20851 0
M  V30 5044 H 527.405 -0.864968 3.14938 0
M  V30 5045 H 526.064 1.24659 3.44754 0
M  V30 5046 H 525.712 -0.697111 4.98146 0
M  V30 5047 H 525.412 0.848815 5.81437 0
M  V30 5048 H 526.936 -0.0368694 6.10589 0
M  V30 5049 H 528.35 2.09964 5.33468 0
M  V30 5050 H 526.747 2.88736 5.26072 0
M  V30 5051 H 527.817 2.94982 3.84855 0
M  V30 5052 N 529.16 -1.33526 0.837174 0
M  V30 5053 C 530.406 -1.9813 0.432704 0
M  V30 5054 C 530.739 -1.66168 -1.00508 0
M  V30 5055 O 530.014 -0.94069 -1.70239 0
M  V30 5056 C 530.297 -3.54151 0.651834 0
M  V30 5057 C 530.15 -3.95806 2.13676 0
M  V30 5058 C 531.469 -4.39993 0.0968937 0
M  V30 5059 H 528.588 -0.719713 0.15869 0
M  V30 5060 H 531.23 -1.58193 1.05237 0
M  V30 5061 H 529.38 -3.88301 0.124369 0
M  V30 5062 H 531.052 -3.71921 2.72896 0
M  V30 5063 H 529.295 -3.45599 2.62191 0
M  V30 5064 H 529.966 -5.0447 2.24084 0
M  V30 5065 H 532.442 -4.12479 0.547733 0
M  V30 5066 H 531.318 -5.48186 0.279917 0
M  V30 5067 H 531.579 -4.3066 -0.9992 0
M  V30 5068 N 530.638 -0.59345 -1.46 0
M  V30 5069 C 531.866 -0.0890934 -2.06708 0
M  V30 5070 C 532.281 1.2205 -1.44046 0
M  V30 5071 O 531.638 1.74029 -0.549551 0
M  V30 5072 C 531.689 0.0720263 -3.61428 0
M  V30 5073 O 531.41 -1.18574 -4.21748 0
M  V30 5074 C 532.911 0.609487 -4.3909 0
M  V30 5075 H 530.131 -0.0623628 -0.668096 0
M  V30 5076 H 532.675 -0.817171 -1.87464 0
M  V30 5077 H 530.83 0.750369 -3.80063 0
M  V30 5078 H 531.244 -1.0064 -5.14754 0
M  V30 5079 H 532.718 0.671363 -5.47902 0
M  V30 5080 H 533.195 1.62878 -4.07882 0
M  V30 5081 H 533.801 -0.03434 -4.25286 0
M  V30 5082 N 532.116 1.54067 -0.331816 0
M  V30 5083 C 533.393 1.92915 0.322955 0
M  V30 5084 C 533.773 1.26225 1.69205 0
M  V30 5085 O 533.121 0.408919 2.24811 0
M  V30 5086 C 533.331 3.46619 0.406946 0
M  V30 5087 C 534.679 4.19386 0.663339 0
M  V30 5088 O 535.703 3.5282 0.489536 0
M  V30 5089 O 534.562 5.37288 0.999193 0
M  V30 5090 H 531.656 0.805808 0.186016 0
M  V30 5091 H 534.202 1.65342 -0.382135 0
M  V30 5092 H 532.974 3.87354 -0.554287 0
M  V30 5093 H 532.597 3.80324 1.15929 0
M  V30 5094 N 533.594 0.0601682 1.57485 0
M  V30 5095 C 534.557 -0.896373 2.10945 0
M  V30 5096 C 535.557 -1.23402 1.03095 0
M  V30 5097 O 536.747 -1.16921 1.29132 0
M  V30 5098 C 533.879 -2.20346 2.60116 0
M  V30 5099 H 535.072 -0.432778 2.96761 0
M  V30 5100 H 532.625 -0.188372 1.55161 0
M  V30 5101 H 533.36 -2.71268 1.7772 0
M  V30 5102 H 533.145 -1.9714 3.38937 0
M  V30 5103 H 534.635 -2.88846 3.01592 0
M  V30 5104 N 535.072 -1.5615 -0.213296 0
M  V30 5105 C 536.035 -1.92249 -1.24792 0
M  V30 5106 C 537.035 -0.801828 -1.39382 0
M  V30 5107 O 538.225 -1.06948 -1.37506 0
M  V30 5108 C 535.357 -2.18056 -2.62039 0
M  V30 5109 H 536.55 -2.84793 -0.939845 0
M  V30 5110 H 534.103 -1.49559 -0.454062 0
M  V30 5111 H 534.838 -1.2809 -2.97932 0
M  V30 5112 H 534.623 -2.99703 -2.52825 0
M  V30 5113 H 536.113 -2.47051 -3.36683 0
M  V30 5114 N 536.55 0.480323 -1.50102 0
M  V30 5115 C 537.46 1.60547 -1.71061 0
M  V30 5116 C 538.476 1.63564 -0.593529 0
M  V30 5117 O 539.652 1.81604 -0.870751 0
M  V30 5118 C 536.717 2.96814 -1.79171 0
M  V30 5119 C 535.778 3.04259 -3.02861 0
M  V30 5120 C 535.011 4.34027 -3.10574 0
M  V30 5121 O 535.234 5.24009 -2.25323 0
M  V30 5122 O 534.168 4.46873 -4.03223 0
M  V30 5123 H 537.994 1.45788 -2.6642 0
M  V30 5124 H 535.579 0.658838 -1.34088 0
M  V30 5125 H 537.461 3.77765 -1.86738 0
M  V30 5126 H 536.136 3.11791 -0.869947 0
M  V30 5127 H 535.043 2.22419 -3.008 0
M  V30 5128 H 536.376 2.94216 -3.94586 0
M  V30 5129 N 538.028 1.39524 0.732853 0
M  V30 5130 C 539.439 1.32905 1.31122 0
M  V30 5131 C 539.79 -0.00558708 1.96199 0
M  V30 5132 O 538.915 -0.907706 1.96443 0
M  V30 5133 C 539.51 2.40704 2.38426 0
M  V30 5134 C 538.069 2.37599 2.91931 0
M  V30 5135 C 537.216 2.2248 1.65523 0
M  V30 5136 H 540.167 1.49581 0.530207 0
M  V30 5137 H 540.188 2.07616 3.18867 0
M  V30 5138 H 539.7 3.37829 1.91033 0
M  V30 5139 H 537.801 1.44119 3.43599 0
M  V30 5140 H 537.914 3.32538 3.44899 0
M  V30 5141 H 536.278 1.69691 1.8994 0
M  V30 5142 H 537.061 3.21577 1.20178 0
M  V30 5143 N 539.506 -0.963266 1.24736 0
M  V30 5144 C 540.752 -1.70933 1.09131 0
M  V30 5145 C 541.085 -1.90676 -0.368273 0
M  V30 5146 O 540.36 -1.47147 -1.27193 0
M  V30 5147 C 540.643 -3.09744 1.83658 0
M  V30 5148 C 540.496 -2.97465 3.37394 0
M  V30 5149 C 541.815 -4.09483 1.61282 0
M  V30 5150 H 538.934 -0.620398 0.397838 0
M  V30 5151 H 541.576 -1.12028 1.53459 0
M  V30 5152 H 539.726 -3.60031 1.4598 0
M  V30 5153 H 541.398 -2.54571 3.84696 0
M  V30 5154 H 539.641 -2.33576 3.65547 0
M  V30 5155 H 540.312 -3.95822 3.84745 0
M  V30 5156 H 542.788 -3.68073 1.94066 0
M  V30 5157 H 541.664 -5.04666 2.15878 0
M  V30 5158 H 541.925 -4.38639 0.552102 0
M  V30 5159 N 540.985 -1.06182 -1.16461 0
M  V30 5160 C 541.948 -0.675723 -2.19013 0
M  V30 5161 C 542.948 0.277963 -1.58379 0
M  V30 5162 O 544.138 0.0604962 -1.74095 0
M  V30 5163 C 541.27 0.00591459 -3.40899 0
M  V30 5164 H 542.463 -1.58353 -2.54685 0
M  V30 5165 H 540.016 -0.856908 -1.30716 0
M  V30 5166 H 540.751 0.92652 -3.10783 0
M  V30 5167 H 540.536 -0.67984 -3.86161 0
M  V30 5168 H 542.026 0.26181 -4.16778 0
M  V30 5169 N 542.463 1.3308 -0.844243 0
M  V30 5170 C 543.709 1.98304 -0.452453 0
M  V30 5171 C 544.064 1.65645 0.978746 0
M  V30 5172 O 543.357 0.928849 1.6758 0
M  V30 5173 C 543.551 3.52045 -0.616354 0
M  V30 5174 C 543.38 3.99643 -2.06193 0
M  V30 5175 C 542.15 4.27224 -2.69829 0
M  V30 5176 C 544.348 4.15471 -3.03131 0
M  V30 5177 N 542.33 4.60998 -4.05406 0
M  V30 5178 C 543.701 4.52665 -4.23668 0
M  V30 5179 C 545.756 3.97776 -2.99465 0
M  V30 5180 C 544.459 4.74011 -5.41023 0
M  V30 5181 C 546.485 4.20301 -4.16055 0
M  V30 5182 C 545.847 4.57801 -5.35348 0
M  V30 5183 H 541.946 0.752122 -0.214096 0
M  V30 5184 H 544.53 1.61096 -1.09344 0
M  V30 5185 H 542.701 3.884 -0.00513205 0
M  V30 5186 H 544.433 4.04228 -0.19548 0
M  V30 5187 H 541.188 4.18911 -2.20931 0
M  V30 5188 H 541.612 4.82087 -4.75312 0
M  V30 5189 H 546.254 3.67893 -2.08362 0
M  V30 5190 H 543.972 5.02753 -6.32665 0
M  V30 5191 H 547.558 4.08122 -4.14641 0
M  V30 5192 H 546.438 4.74884 -6.24063 0
M  V30 5193 N 543.941 0.601185 1.45683 0
M  V30 5194 C 544.851 -0.123395 2.34275 0
M  V30 5195 C 545.867 -0.86702 1.5086 0
M  V30 5196 O 547.043 -0.826049 1.8368 0
M  V30 5197 C 544.108 -1.11237 3.2837 0
M  V30 5198 C 543.169 -0.371405 4.2769 0
M  V30 5199 C 542.402 -1.31327 5.1729 0
M  V30 5200 O 542.625 -2.55078 5.10188 0
M  V30 5201 O 541.559 -0.813811 5.96373 0
M  V30 5202 H 545.385 0.604483 2.97623 0
M  V30 5203 H 542.97 0.361477 1.44961 0
M  V30 5204 H 544.852 -1.68214 3.8637 0
M  V30 5205 H 543.527 -1.82139 2.67595 0
M  V30 5206 H 542.434 0.24067 3.73325 0
M  V30 5207 H 543.767 0.296998 4.91303 0
M  V30 5208 N 545.419 -1.53889 0.339982 0
M  V30 5209 C 546.349 -2.27843 -0.510856 0
M  V30 5210 C 547.33 -1.29267 -1.10563 0
M  V30 5211 O 548.515 -1.58104 -1.12768 0
M  V30 5212 C 545.645 -3.04857 -1.66372 0
M  V30 5213 C 544.599 -4.10907 -1.19746 0
M  V30 5214 C 543.925 -4.75855 -2.43857 0
M  V30 5215 C 545.225 -5.21435 -0.300501 0
M  V30 5216 H 546.919 -2.99212 0.106067 0
M  V30 5217 H 544.465 -1.43904 0.0524533 0
M  V30 5218 H 546.418 -3.5533 -2.26537 0
M  V30 5219 H 545.142 -2.31133 -2.30749 0
M  V30 5220 H 543.801 -3.61342 -0.618654 0
M  V30 5221 H 543.449 -3.9873 -3.06633 0
M  V30 5222 H 543.149 -5.47502 -2.13343 0
M  V30 5223 H 544.673 -5.2911 -3.04754 0
M  V30 5224 H 546.087 -5.67565 -0.80889 0
M  V30 5225 H 544.484 -6.00036 -0.0874076 0
M  V30 5226 H 545.554 -4.80328 0.664321 0
M  V30 5227 N 546.897 -0.0685191 -1.57451 0
M  V30 5228 C 548.313 0.288101 -1.56978 0
M  V30 5229 C 548.513 1.70262 -1.07765 0
M  V30 5230 O 547.569 2.4135 -0.742054 0
M  V30 5231 C 548.882 0.100745 -3.00531 0
M  V30 5232 C 550.43 0.170531 -3.12535 0
M  V30 5233 C 550.905 0.0114944 -4.57999 0
M  V30 5234 N 552.396 0.0672065 -4.63151 0
M  V30 5235 C 553.131 -0.0314813 -5.73391 0
M  V30 5236 N 552.627 -0.183503 -6.92557 0
M  V30 5237 N 554.42 0.0253489 -5.62094 0
M  V30 5238 H 546.571 -0.993026 -1.87757 0
M  V30 5239 H 548.834 -0.386981 -0.865419 0
M  V30 5240 H 548.54 -0.875197 -3.40636 0
M  V30 5241 H 548.414 0.854457 -3.67395 0
M  V30 5242 H 550.801 1.13696 -2.72318 0
M  V30 5243 H 550.882 -0.614229 -2.48316 0
M  V30 5244 H 550.526 -0.951684 -4.98904 0
M  V30 5245 H 550.456 0.815617 -5.20245 0
M  V30 5246 H 552.947 0.183246 -3.77455 0
M  V30 5247 H 553.26 -0.251041 -7.72392 0
M  V30 5248 H 551.605 -0.218822 -6.94655 0
M  V30 5249 H 554.796 0.142794 -4.67882 0
M  V30 5250 H 554.969 -0.0550166 -6.47977 0
M  V30 5251 N 548.375 1.56261 0.205012 0
M  V30 5252 C 549.652 1.70856 0.952233 0
M  V30 5253 C 550.032 0.620501 2.01775 0
M  V30 5254 O 549.38 -0.370035 2.25484 0
M  V30 5255 C 549.59 3.12807 1.54767 0
M  V30 5256 C 550.938 3.72733 2.0336 0
M  V30 5257 O 551.962 3.15873 1.64629 0
M  V30 5258 O 550.821 4.72501 2.746 0
M  V30 5259 H 547.915 0.696496 0.445895 0
M  V30 5260 H 550.461 1.6857 0.195489 0
M  V30 5261 H 549.233 3.83465 0.779132 0
M  V30 5262 H 548.856 3.1928 2.36951 0
M  V30 5263 N 549.853 -0.472356 1.50355 0
M  V30 5264 C 550.816 -1.5529 1.68576 0
M  V30 5265 C 551.816 -1.50863 0.556511 0
M  V30 5266 O 553.006 -1.53505 0.823516 0
M  V30 5267 C 550.138 -2.94921 1.70981 0
M  V30 5268 H 551.331 -1.40451 2.64978 0
M  V30 5269 H 548.884 -0.698645 1.39816 0
M  V30 5270 H 549.619 -3.15204 0.762675 0
M  V30 5271 H 549.404 -2.99541 2.53017 0
M  V30 5272 H 550.894 -3.73372 1.87037 0
M  V30 5273 N 551.331 -1.39911 -0.725443 0
M  V30 5274 C 552.608 -1.28158 -1.47766 0
M  V30 5275 C 552.988 0.104545 -2.10841 0
M  V30 5276 O 552.336 1.11657 -1.99361 0
M  V30 5277 C 552.546 -2.41306 -2.52135 0
M  V30 5278 C 553.894 -2.81076 -3.18247 0
M  V30 5279 O 554.918 -2.40827 -2.62452 0
M  V30 5280 O 553.777 -3.50581 -4.19231 0
M  V30 5281 H 550.871 -0.502761 -0.656628 0
M  V30 5282 H 553.417 -1.51808 -0.758456 0
M  V30 5283 H 552.189 -3.33932 -2.03974 0
M  V30 5284 H 551.812 -2.19374 -3.31603 0
M  V30 5285 N 552.809 0.956637 -1.25245 0
M  V30 5286 C 554.057 1.69764 -1.09657 0
M  V30 5287 C 554.378 1.91583 0.363464 0
M  V30 5288 O 553.648 1.50149 1.25825 0
M  V30 5289 H 552.228 0.629097 -0.402798 0
M  V30 5290 H 554.89 1.15026 -1.57337 0
M  V30 5291 H 553.986 2.67769 -1.60331 0
M  V30 5292 N 554.287 1.06798 1.15896 0
M  V30 5293 C 555.533 0.788934 1.86825 0
M  V30 5294 C 555.866 -0.683084 1.8179 0
M  V30 5295 O 555.141 -1.50086 1.23711 0
M  V30 5296 C 555.424 1.29065 3.36176 0
M  V30 5297 C 555.277 2.8268 3.49874 0
M  V30 5298 C 556.596 0.902655 4.30744 0
M  V30 5299 H 553.715 0.288066 0.678371 0
M  V30 5300 H 556.357 1.32479 1.36195 0
M  V30 5301 H 554.507 0.834806 3.79425 0
M  V30 5302 H 556.179 3.36511 3.15528 0
M  V30 5303 H 554.422 3.21157 2.91617 0
M  V30 5304 H 555.093 3.12852 4.54783 0
M  V30 5305 H 557.569 1.29535 3.95424 0
M  V30 5306 H 556.445 1.28111 5.3374 0
M  V30 5307 H 556.706 -0.191951 4.41683 0
M  V30 5308 N 555.766 -1.3263 0.851289 0
M  V30 5309 C 557.012 -1.9766 0.453694 0
M  V30 5310 C 557.345 -1.67225 -0.987396 0
M  V30 5311 O 556.62 -0.958693 -1.69232 0
M  V30 5312 C 556.903 -3.5344 0.68936 0
M  V30 5313 C 556.756 -3.93517 2.17862 0
M  V30 5314 C 558.075 -4.39866 0.143555 0
M  V30 5315 H 555.194 -0.717989 0.166314 0
M  V30 5316 H 557.836 -1.57068 1.06909 0
M  V30 5317 H 555.986 -3.88147 0.165546 0
M  V30 5318 H 557.658 -3.69006 2.76826 0
M  V30 5319 H 555.901 -3.42798 2.65841 0
M  V30 5320 H 556.572 -5.02065 2.29422 0
M  V30 5321 H 559.048 -4.11875 0.591451 0
M  V30 5322 H 557.924 -5.47858 0.338043 0
M  V30 5323 H 558.185 -4.31696 -0.953466 0
M  V30 5324 N 557.244 -0.608902 -1.45362 0
M  V30 5325 C 558.49 -0.104762 -2.02529 0
M  V30 5326 C 558.823 1.26191 -1.47613 0
M  V30 5327 O 558.098 1.8327 -0.65134 0
M  V30 5328 C 558.381 -0.0672661 -3.60037 0
M  V30 5329 C 558.234 -1.4647 -4.25284 0
M  V30 5330 C 559.553 0.619877 -4.35713 0
M  V30 5331 H 556.672 -0.0395438 -0.735938 0
M  V30 5332 H 559.314 -0.781126 -1.73201 0
M  V30 5333 H 557.464 0.50871 -3.85155 0
M  V30 5334 H 559.136 -2.08785 -4.11347 0
M  V30 5335 H 557.379 -2.02502 -3.83634 0
M  V30 5336 H 558.05 -1.39069 -5.34195 0
M  V30 5337 H 560.526 0.130297 -4.15896 0
M  V30 5338 H 559.402 0.615224 -5.45441 0
M  V30 5339 H 559.663 1.68621 -4.0868 0
M  V30 5340 N 558.722 1.53707 -0.348139 0
M  V30 5341 C 559.685 2.23812 0.494058 0
M  V30 5342 C 560.685 1.23989 1.02388 0
M  V30 5343 O 561.875 1.48395 0.912396 0
M  V30 5344 C 559.007 2.96133 1.68872 0
M  V30 5345 H 560.2 2.99663 -0.119141 0
M  V30 5346 H 557.753 1.55983 -0.0995539 0
M  V30 5347 H 558.488 2.24481 2.34049 0
M  V30 5348 H 558.273 3.69357 1.31596 0
M  V30 5349 H 559.763 3.49475 2.28597 0
M  V30 5350 N 560.2 0.0768682 1.57412 0
M  V30 5351 C 561.477 -0.632359 1.85096 0
M  V30 5352 C 561.857 -1.87479 0.9703 0
M  V30 5353 O 561.205 -2.28469 0.0379062 0
M  V30 5354 C 561.415 -0.965174 3.35388 0
M  V30 5355 C 562.763 -1.33648 4.03018 0
M  V30 5356 O 563.787 -1.05675 3.40164 0
M  V30 5357 O 562.646 -1.85959 5.13889 0
M  V30 5358 H 559.74 -0.314574 0.764835 0
M  V30 5359 H 562.286 0.108184 1.69355 0
M  V30 5360 H 561.058 -0.0829745 3.91212 0
M  V30 5361 H 560.681 -1.76231 3.5641 0
M  V30 5362 N 561.678 -1.56367 -0.196722 0
M  V30 5363 C 562.926 -1.80172 -0.915554 0
M  V30 5364 C 563.247 -0.649649 -1.8386 0
M  V30 5365 O 562.517 0.332111 -1.93064 0
M  V30 5366 H 561.097 -0.664592 -0.341067 0
M  V30 5367 H 563.759 -1.93844 -0.202622 0
M  V30 5368 H 562.855 -2.7327 -1.50764 0
M  V30 5369 N 563.156 0.464375 -1.50603 0
M  V30 5370 C 564.384 1.23907 -1.65695 0
M  V30 5371 C 564.799 1.85658 -0.343027 0
M  V30 5372 O 564.156 1.69529 0.675739 0
M  V30 5373 C 564.207 2.3429 -2.75301 0
M  V30 5374 O 563.928 1.7507 -4.01599 0
M  V30 5375 C 565.429 3.25051 -3.01424 0
M  V30 5376 H 562.649 0.374485 -0.556778 0
M  V30 5377 H 565.193 0.55353 -1.96866 0
M  V30 5378 H 563.348 2.98607 -2.46804 0
M  V30 5379 H 563.762 2.47812 -4.62266 0
M  V30 5380 H 565.236 3.98699 -3.81763 0
M  V30 5381 H 565.713 3.84227 -2.12758 0
M  V30 5382 H 566.319 2.66463 -3.31477 0
M  V30 5383 N 564.634 1.40294 0.718013 0
M  V30 5384 C 565.859 1.41941 1.5122 0
M  V30 5385 C 566.284 0.0202371 1.88089 0
M  V30 5386 O 565.642 -0.971078 1.53101 0
M  V30 5387 C 565.69 2.3141 2.76554 0
M  V30 5388 O 564.794 1.75567 3.73162 0
M  V30 5389 H 564.135 0.482644 0.456016 0
M  V30 5390 H 566.665 1.84494 0.884478 0
M  V30 5391 H 566.675 2.46513 3.25108 0
M  V30 5392 H 565.35 3.33085 2.49053 0
M  V30 5393 H 563.927 1.69798 3.31999 0
M  V30 5394 N 566.112 -0.949982 1.2575 0
M  V30 5395 C 567.022 -2.08109 1.08295 0
M  V30 5396 C 568.038 -1.7399 0.0188181 0
M  V30 5397 O 569.214 -2.00187 0.220724 0
M  V30 5398 C 566.279 -3.39383 0.708534 0
M  V30 5399 C 565.34 -3.8734 1.85111 0
M  V30 5400 C 564.573 -5.12349 1.49447 0
M  V30 5401 O 564.796 -5.6905 0.392212 0
M  V30 5402 O 563.73 -5.5513 2.32624 0
M  V30 5403 H 567.556 -2.25738 2.03165 0
M  V30 5404 H 565.141 -1.06545 1.04731 0
M  V30 5405 H 567.023 -4.18277 0.512061 0
M  V30 5406 H 565.698 -3.23013 -0.210854 0
M  V30 5407 H 564.605 -3.09429 2.10248 0
M  V30 5408 H 565.938 -4.08216 2.74991 0
M  V30 5409 N 567.59 -1.07411 -1.15328 0
M  V30 5410 C 569.001 -0.820261 -1.67716 0
M  V30 5411 C 569.352 0.654539 -1.8496 0
M  V30 5412 O 568.477 1.50664 -1.55337 0
M  V30 5413 C 569.072 -1.48242 -3.04647 0
M  V30 5414 C 567.631 -1.27606 -3.5411 0
M  V30 5415 C 566.778 -1.5517 -2.29821 0
M  V30 5416 H 569.729 -1.23608 -0.995332 0
M  V30 5417 H 569.75 -0.903984 -3.69606 0
M  V30 5418 H 569.262 -2.55578 -2.92064 0
M  V30 5419 H 567.363 -0.222948 -3.71932 0
M  V30 5420 H 567.476 -1.99667 -4.35511 0
M  V30 5421 H 565.84 -0.972747 -2.35393 0
M  V30 5422 H 566.623 -2.63689 -2.19824 0
M  V30 5423 N 569.068 1.32177 -0.85831 0
M  V30 5424 C 570.484 1.49873 -0.548656 0
M  V30 5425 C 570.684 1.79278 0.919874 0
M  V30 5426 O 569.74 1.86451 1.70271 0
M  V30 5427 C 571.053 2.64043 -1.4388 0
M  V30 5428 C 572.601 2.77928 -1.43961 0
M  V30 5429 C 573.076 3.95182 -2.31506 0
M  V30 5430 N 574.567 4.0245 -2.29321 0
M  V30 5431 C 575.302 4.9242 -2.93786 0
M  V30 5432 N 574.798 5.87373 -3.67376 0
M  V30 5433 N 576.591 4.85572 -2.83155 0
M  V30 5434 H 568.742 1.11357 -1.80868 0
M  V30 5435 H 571.005 0.549175 -0.772729 0
M  V30 5436 H 570.711 2.49055 -2.48324 0
M  V30 5437 H 570.585 3.59912 -1.12885 0
M  V30 5438 H 572.972 2.92338 -0.402813 0
M  V30 5439 H 573.053 1.82762 -1.78974 0
M  V30 5440 H 572.697 3.81531 -3.35256 0
M  V30 5441 H 572.627 4.89633 -1.93823 0
M  V30 5442 H 575.118 3.34507 -1.75822 0
M  V30 5443 H 575.431 6.52728 -4.13722 0
M  V30 5444 H 573.776 5.87388 -3.71484 0
M  V30 5445 H 576.967 4.10363 -2.25211 0
M  V30 5446 H 577.14 5.55486 -3.33676 0
M  V30 5447 N 570.547 0.616602 1.45037 0
M  V30 5448 C 571.795 0.115103 2.01772 0
M  V30 5449 C 572.116 -1.2622 1.48639 0
M  V30 5450 O 571.386 -1.83563 0.684199 0
M  V30 5451 H 569.966 0.0395607 0.745952 0
M  V30 5452 H 572.628 0.800032 1.77723 0
M  V30 5453 H 571.724 0.0717274 3.12018 0
M  V30 5454 N 572.025 -1.5352 0.356285 0
M  V30 5455 C 573.271 -2.01414 -0.236653 0
M  V30 5456 C 573.604 -1.24339 -1.49176 0
M  V30 5457 O 572.879 -0.334496 -1.91602 0
M  V30 5458 C 573.162 -3.56059 -0.537982 0
M  V30 5459 C 573.015 -4.43835 0.730112 0
M  V30 5460 C 574.334 -4.19127 -1.34239 0
M  V30 5461 H 571.453 -0.732135 -0.0845386 0
M  V30 5462 H 574.095 -1.83854 0.479341 0
M  V30 5463 H 572.245 -3.71153 -1.14795 0
M  V30 5464 H 573.917 -4.40555 1.36782 0
M  V30 5465 H 572.16 -4.1218 1.3524 0
M  V30 5466 H 572.831 -5.49958 0.474358 0
M  V30 5467 H 575.307 -4.07809 -0.826498 0
M  V30 5468 H 574.183 -5.27378 -1.52198 0
M  V30 5469 H 574.444 -3.74581 -2.34822 0
M  V30 5470 N 573.503 -0.0852151 -1.57369 0
M  V30 5471 C 574.413 0.891712 -2.16992 0
M  V30 5472 C 575.429 1.3174 -1.13669 0
M  V30 5473 O 576.605 1.38735 -1.45995 0
M  V30 5474 C 573.67 2.13635 -2.73059 0
M  V30 5475 C 572.731 1.7658 -3.91303 0
M  V30 5476 C 571.964 2.95111 -4.44686 0
M  V30 5477 O 572.187 4.09539 -3.97032 0
M  V30 5478 O 571.121 2.74149 -5.35841 0
M  V30 5479 H 574.947 0.414477 -3.00858 0
M  V30 5480 H 572.532 0.138598 -1.48756 0
M  V30 5481 H 574.414 2.86595 -3.08935 0
M  V30 5482 H 573.089 2.6043 -1.92244 0
M  V30 5483 H 571.996 1.00831 -3.60255 0
M  V30 5484 H 573.329 1.34557 -4.7345 0
M  V30 5485 N 574.981 1.5647 0.188427 0
M  V30 5486 C 576.392 1.70864 0.752494 0
M  V30 5487 C 576.743 0.692905 1.83557 0
M  V30 5488 O 575.868 -0.149307 2.15884 0
M  V30 5489 C 576.463 3.09789 1.37173 0
M  V30 5490 C 575.022 3.25925 1.88281 0
M  V30 5491 C 574.169 2.66817 0.755259 0
M  V30 5492 H 577.12 1.58657 -0.0367408 0
M  V30 5493 H 577.141 3.07489 2.24122 0
M  V30 5494 H 576.653 3.83693 0.583219 0
M  V30 5495 H 574.754 2.56948 2.6983 0
M  V30 5496 H 574.867 4.33498 2.04001 0
M  V30 5497 H 573.231 2.2617 1.17128 0
M  V30 5498 H 574.014 3.43294 -0.0211237 0
M  V30 5499 N 576.459 -0.456382 1.50847 0
M  V30 5500 C 577.684 -1.2349 1.66628 0
M  V30 5501 C 578.109 -1.84715 0.355254 0
M  V30 5502 O 577.467 -1.67961 -0.682559 0
M  V30 5503 C 577.515 -2.30865 2.77009 0
M  V30 5504 O 576.619 -3.35882 2.39285 0
M  V30 5505 H 575.96 -0.36266 0.556214 0
M  V30 5506 H 578.49 -0.541374 1.97308 0
M  V30 5507 H 578.5 -2.75949 3.00526 0
M  V30 5508 H 577.175 -1.85677 3.72152 0
M  V30 5509 H 575.752 -2.96406 2.26269 0
M  V30 5510 N 577.937 -1.40673 -0.710563 0
M  V30 5511 C 578.9 -1.4108 -1.80635 0
M  V30 5512 C 579.9 -0.303783 -1.57904 0
M  V30 5513 O 581.09 -0.562937 -1.64853 0
M  V30 5514 C 578.222 -1.20748 -3.18799 0
M  V30 5515 H 579.415 -2.38612 -1.81671 0
M  V30 5516 H 576.968 -1.26595 -0.916704 0
M  V30 5517 H 577.703 -0.239964 -3.23411 0
M  V30 5518 H 577.488 -2.00941 -3.36698 0
M  V30 5519 H 578.978 -1.23833 -3.98817 0
M  V30 5520 N 579.415 0.9433 -1.26252 0
M  V30 5521 C 580.378 2.02326 -1.07689 0
M  V30 5522 C 581.378 1.60779 -0.0259174 0
M  V30 5523 O 582.568 1.72108 -0.269134 0
M  V30 5524 C 579.7 3.34886 -0.63752 0
M  V30 5525 H 580.893 2.20225 -2.0357 0
M  V30 5526 H 578.446 1.12197 -1.08819 0
M  V30 5527 H 579.181 3.22684 0.323377 0
M  V30 5528 H 578.966 3.66393 -1.39637 0
M  V30 5529 H 580.456 4.14231 -0.529418 0
M  V30 5530 N 580.893 1.08022 1.14757 0
M  V30 5531 C 581.825 0.664566 2.19354 0
M  V30 5532 C 582.838 -0.286374 1.60261 0
M  V30 5533 O 584.027 -0.0746362 1.78344 0
M  V30 5534 C 581.127 -0.0434634 3.38872 0
M  V30 5535 C 580.3 0.925381 4.27499 0
M  V30 5536 C 579.359 0.253398 5.2559 0
M  V30 5537 O 578.385 0.896581 5.62094 0
M  V30 5538 N 579.587 -0.998263 5.71852 0
M  V30 5539 H 582.352 1.56438 2.55631 0
M  V30 5540 H 579.913 0.965788 1.29939 0
M  V30 5541 H 581.905 -0.503857 4.01551 0
M  V30 5542 H 580.475 -0.845321 3.00954 0
M  V30 5543 H 579.695 1.56472 3.61815 0
M  V30 5544 H 580.983 1.58203 4.8358 0
M  V30 5545 H 580.381 -1.54063 5.44317 0
M  V30 5546 H 578.938 -1.40222 6.36538 0
M  V30 5547 N 582.371 -1.3172 0.865308 0
M  V30 5548 C 583.334 -2.26918 0.322627 0
M  V30 5549 C 584.334 -1.52031 -0.523751 0
M  V30 5550 O 585.524 -1.70973 -0.333727 0
M  V30 5551 C 582.656 -3.36558 -0.542338 0
M  V30 5552 H 583.849 -2.76432 1.16298 0
M  V30 5553 H 581.402 -1.42573 0.640512 0
M  V30 5554 H 582.137 -2.92329 -1.40407 0
M  V30 5555 H 581.922 -3.92048 0.0636395 0
M  V30 5556 H 583.412 -4.07465 -0.91446 0
M  V30 5557 N 583.85 -0.624285 -1.44708 0
M  V30 5558 C 585.096 -0.126237 -2.02407 0
M  V30 5559 C 585.428 1.24618 -1.48943 0
M  V30 5560 O 584.704 1.82569 -0.670742 0
M  V30 5561 C 584.986 -0.105449 -3.59946 0
M  V30 5562 C 584.84 -1.50972 -4.23707 0
M  V30 5563 C 586.159 0.573629 -4.36346 0
M  V30 5564 H 583.278 -0.0473472 -0.735478 0
M  V30 5565 H 585.92 -0.799452 -1.72362 0
M  V30 5566 H 584.07 0.46783 -3.85673 0
M  V30 5567 H 585.742 -2.13136 -4.0911 0
M  V30 5568 H 583.985 -2.0656 -3.81465 0
M  V30 5569 H 584.656 -1.44727 -5.32689 0
M  V30 5570 H 587.132 0.0861787 -4.16011 0
M  V30 5571 H 586.008 0.557338 -5.46063 0
M  V30 5572 H 586.269 1.64276 -4.10446 0
M  V30 5573 N 585.328 1.53329 -0.364422 0
M  V30 5574 C 586.278 2.22472 0.499024 0
M  V30 5575 C 587.262 1.21952 1.0496 0
M  V30 5576 O 588.454 1.47405 0.979836 0
M  V30 5577 C 585.583 3.01659 1.6388 0
M  V30 5578 C 584.669 4.09555 1.10116 0
M  V30 5579 N 585.06 5.04988 0.286414 0
M  V30 5580 C 583.358 4.2424 1.37608 0
M  V30 5581 C 584.059 5.81699 -0.00781682 0
M  V30 5582 N 583.035 5.40394 0.589494 0
M  V30 5583 H 586.837 2.93611 -0.130284 0
M  V30 5584 H 584.351 1.61483 -0.172377 0
M  V30 5585 H 586.348 3.4971 2.26954 0
M  V30 5586 H 585.008 2.32051 2.27118 0
M  V30 5587 H 586.019 5.17847 -0.0742839 0
M  V30 5588 H 582.696 3.65858 2.01133 0
M  V30 5589 H 584.086 6.68587 -0.666394 0
M  V30 5590 N 586.806 0.0935595 1.57322 0
M  V30 5591 C 588.052 -0.571355 1.94585 0
M  V30 5592 C 588.385 -1.67929 0.975366 0
M  V30 5593 O 587.66 -1.94498 0.00816206 0
M  V30 5594 C 587.943 -1.12797 3.41978 0
M  V30 5595 C 587.796 -0.0251881 4.49793 0
M  V30 5596 C 589.115 -2.02682 3.90651 0
M  V30 5597 H 586.234 -0.206223 0.70756 0
M  V30 5598 H 588.876 0.163956 1.89291 0
M  V30 5599 H 587.026 -1.75461 3.4662 0
M  V30 5600 H 588.698 0.608979 4.57263 0
M  V30 5601 H 586.941 0.641399 4.29032 0
M  V30 5602 H 587.612 -0.455433 5.50118 0
M  V30 5603 H 590.088 -1.49925 3.88152 0
M  V30 5604 H 588.964 -2.38555 4.94351 0
M  V30 5605 H 589.225 -2.94362 3.29854 0
M  V30 5606 N 588.284 -1.56567 -0.180126 0
M  V30 5607 C 589.214 -1.98753 -1.22553 0
M  V30 5608 C 590.195 -0.86175 -1.46656 0
M  V30 5609 O 591.38 -1.12719 -1.58139 0
M  V30 5610 C 588.51 -2.33988 -2.56645 0
M  V30 5611 C 587.464 -3.49445 -2.47128 0
M  V30 5612 C 586.79 -3.70397 -3.8563 0
M  V30 5613 C 588.09 -4.83171 -1.98352 0
M  V30 5614 H 589.784 -2.86332 -0.874896 0
M  V30 5615 H 587.33 -1.37757 -0.419414 0
M  V30 5616 H 589.283 -2.62097 -3.29974 0
M  V30 5617 H 588.007 -1.43309 -2.93479 0
M  V30 5618 H 586.666 -3.2145 -1.76254 0
M  V30 5619 H 586.314 -2.77023 -4.19842 0
M  V30 5620 H 586.014 -4.48077 -3.80132 0
M  V30 5621 H 587.538 -4.00897 -4.60558 0
M  V30 5622 H 588.952 -5.10213 -2.61449 0
M  V30 5623 H 587.349 -5.64425 -2.03823 0
M  V30 5624 H 588.419 -4.75753 -0.937402 0
M  V30 5625 N 589.762 0.448376 -1.51087 0
M  V30 5626 C 591.039 1.20926 -1.53741 0
M  V30 5627 C 591.419 2.09025 -0.295222 0
M  V30 5628 O 590.767 2.16851 0.720283 0
M  V30 5629 C 590.977 2.02067 -2.84552 0
M  V30 5630 C 592.325 2.59486 -3.36084 0
M  V30 5631 O 593.349 2.12289 -2.86028 0
M  V30 5632 O 592.208 3.45539 -4.23397 0
M  V30 5633 H 589.302 0.549951 -0.617643 0
M  V30 5634 H 591.848 0.458344 -1.63393 0
M  V30 5635 H 590.62 1.37291 -3.66425 0
M  V30 5636 H 590.243 2.84246 -2.78011 0
M  V30 5637 N 591.24 1.41047 0.703093 0
M  V30 5638 C 592.487 1.4 1.46309 0
M  V30 5639 C 592.815 0.00654574 1.94499 0
M  V30 5640 O 592.07 -0.980255 1.6938 0
M  V30 5641 C 592.369 2.34686 2.6955 0
M  V30 5642 C 592.035 3.81684 2.40058 0
M  V30 5643 C 590.697 4.21731 2.31725 0
M  V30 5644 C 593.049 4.74525 2.15581 0
M  V30 5645 C 590.377 5.52637 1.97001 0
M  V30 5646 C 592.729 6.05744 1.82366 0
M  V30 5647 C 591.393 6.44819 1.72524 0
M  V30 5648 H 590.663 0.512295 0.535382 0
M  V30 5649 H 593.31 1.73792 0.804275 0
M  V30 5650 H 591.615 1.94122 3.40329 0
M  V30 5651 H 593.312 2.31152 3.27673 0
M  V30 5652 H 589.902 3.49963 2.47435 0
M  V30 5653 H 594.086 4.44395 2.20968 0
M  V30 5654 H 589.342 5.81802 1.87928 0
M  V30 5655 H 593.516 6.77189 1.62444 0
M  V30 5656 H 591.143 7.46168 1.45385 0
M  V30 5657 N 592.718 -0.936591 1.26751 0
M  V30 5658 C 593.943 -1.72288 1.15462 0
M  V30 5659 C 594.368 -1.85915 -0.285887 0
M  V30 5660 O 593.726 -1.35272 -1.20711 0
M  V30 5661 C 593.774 -3.10503 1.83359 0
M  V30 5662 O 592.878 -3.96745 1.1255 0
M  V30 5663 H 592.219 -0.52843 0.402067 0
M  V30 5664 H 594.749 -1.17271 1.67656 0
M  V30 5665 H 594.759 -3.60867 1.90365 0
M  V30 5666 H 593.434 -2.99901 2.88153 0
M  V30 5667 H 592.011 -3.55191 1.13551 0
M  V30 5668 N 594.196 -1.08629 -1.14182 0
M  V30 5669 C 595.473 -0.73002 -1.81466 0
M  V30 5670 C 595.853 0.785996 -1.95922 0
M  V30 5671 O 595.201 1.70535 -1.52086 0
M  V30 5672 C 595.411 -1.45957 -3.17014 0
M  V30 5673 C 596.759 -1.62008 -3.92477 0
M  V30 5674 O 597.783 -1.42141 -3.26611 0
M  V30 5675 O 596.642 -1.94806 -5.106 0
M  V30 5676 H 593.736 -0.261307 -0.784632 0
M  V30 5677 H 596.282 -1.188 -1.2118 0
M  V30 5678 H 595.054 -2.49221 -3.01669 0
M  V30 5679 H 594.677 -0.993222 -3.84995 0
M  V30 5680 N 595.674 1.31259 -0.872281 0
M  V30 5681 C 596.92 1.96913 -0.485083 0
M  V30 5682 C 597.253 1.68774 0.960667 0
M  V30 5683 O 596.528 0.985495 1.67685 0
M  V30 5684 C 596.811 3.52299 -0.745502 0
M  V30 5685 C 596.664 3.90002 -2.24095 0
M  V30 5686 C 597.983 4.39582 -0.213516 0
M  V30 5687 H 595.102 0.715252 -0.177716 0
M  V30 5688 H 597.744 1.55347 -1.09395 0
M  V30 5689 H 595.894 3.87835 -0.227276 0
M  V30 5690 H 597.566 3.64555 -2.82661 0
M  V30 5691 H 595.809 3.38526 -2.71261 0
M  V30 5692 H 596.48 4.98352 -2.37381 0
M  V30 5693 H 598.956 4.10882 -0.656902 0
M  V30 5694 H 597.832 5.47251 -0.42516 0
M  V30 5695 H 598.093 4.33158 0.884666 0
M  V30 5696 N 597.152 0.631951 1.44375 0
M  V30 5697 C 598.38 0.143867 2.06399 0
M  V30 5698 C 598.795 -1.18188 1.47231 0
M  V30 5699 O 598.152 -1.72511 0.595498 0
M  V30 5700 C 598.203 0.0238253 3.61492 0
M  V30 5701 O 597.924 1.29715 4.18456 0
M  V30 5702 C 599.425 -0.492856 4.40552 0
M  V30 5703 H 596.645 0.0800542 0.666207 0
M  V30 5704 H 599.189 0.866586 1.85231 0
M  V30 5705 H 597.344 -0.649338 3.81919 0
M  V30 5706 H 597.758 1.14252 5.11905 0
M  V30 5707 H 599.232 -0.525861 5.49489 0
M  V30 5708 H 599.709 -1.52006 4.12057 0
M  V30 5709 H 600.315 0.147085 4.25046 0
M  V30 5710 N 598.631 -1.53133 0.372548 0
M  V30 5711 C 599.859 -2.05774 -0.215515 0
M  V30 5712 C 600.274 -1.24555 -1.41886 0
M  V30 5713 O 599.631 -0.287951 -1.80214 0
M  V30 5714 C 599.682 -3.5645 -0.602161 0
M  V30 5715 O 599.403 -4.34591 0.553359 0
M  V30 5716 C 600.904 -4.25374 -1.24787 0
M  V30 5717 H 598.124 -0.670009 -0.0364529 0
M  V30 5718 H 600.668 -1.97434 0.532934 0
M  V30 5719 H 598.823 -3.64918 -1.30052 0
M  V30 5720 H 599.237 -5.23954 0.239336 0
M  V30 5721 H 600.711 -5.32097 -1.46891 0
M  V30 5722 H 601.188 -3.79531 -2.21026 0
M  V30 5723 H 601.794 -4.21177 -0.590752 0
M  V30 5724 N 600.109 -0.101901 -1.5727 0
M  V30 5725 C 601.041 0.884723 -2.11436 0
M  V30 5726 C 602.054 1.24149 -1.05314 0
M  V30 5727 O 603.243 1.19341 -1.3274 0
M  V30 5728 C 600.343 2.19179 -2.58484 0
M  V30 5729 C 599.516 2.00933 -3.88516 0
M  V30 5730 C 598.575 3.15213 -4.2134 0
M  V30 5731 O 597.601 2.88877 -4.90448 0
M  V30 5732 N 598.803 4.41174 -3.77288 0
M  V30 5733 H 601.568 0.422058 -2.96713 0
M  V30 5734 H 599.129 0.0830128 -1.61687 0
M  V30 5735 H 601.121 2.94593 -2.77484 0
M  V30 5736 H 599.691 2.56847 -1.7818 0
M  V30 5737 H 598.911 1.09809 -3.78597 0
M  V30 5738 H 600.199 1.86026 -4.73573 0
M  V30 5739 H 599.597 4.6545 -3.21516 0
M  V30 5740 H 598.154 5.13515 -4.01429 0
M  V30 5741 N 601.587 1.56661 0.17182 0
M  V30 5742 C 602.835 1.81606 0.886774 0
M  V30 5743 C 603.156 0.678818 1.82803 0
M  V30 5744 O 602.426 -0.301354 1.93568 0
M  V30 5745 H 601.006 0.669934 0.330451 0
M  V30 5746 H 603.668 1.94142 0.171757 0
M  V30 5747 H 602.764 2.75634 1.46398 0
M  V30 5748 N 603.065 -0.440357 1.51323 0
M  V30 5749 C 604.028 -1.51679 1.71832 0
M  V30 5750 C 605.028 -1.49648 0.588386 0
M  V30 5751 O 606.218 -1.51724 0.855891 0
M  V30 5752 C 603.35 -2.91228 1.77199 0
M  V30 5753 H 604.543 -1.34799 2.67898 0
M  V30 5754 H 602.096 -0.66883 1.41267 0
M  V30 5755 H 602.831 -3.13516 0.829363 0
M  V30 5756 H 602.616 -2.94107 2.59314 0
M  V30 5757 H 604.106 -3.69321 1.94915 0
M  V30 5758 N 604.543 -1.41418 -0.695603 0
M  V30 5759 C 605.791 -1.40496 -1.45277 0
M  V30 5760 C 606.112 -0.0149538 -1.94994 0
M  V30 5761 O 605.382 0.9432 -1.71699 0
M  V30 5762 H 603.962 -0.517147 -0.539044 0
M  V30 5763 H 606.624 -1.76656 -0.823321 0
M  V30 5764 H 605.72 -2.09214 -2.31595 0
M  V30 5765 N 606.021 0.929856 -1.27246 0
M  V30 5766 C 607.251 1.70895 -1.16096 0
M  V30 5767 C 607.659 1.87039 0.285122 0
M  V30 5768 O 607.002 1.38557 1.20614 0
M  V30 5769 C 607.064 3.12919 -1.7698 0
M  V30 5770 C 606.728 3.2012 -3.26148 0
M  V30 5771 C 607.725 3.02533 -4.22812 0
M  V30 5772 C 605.41 3.43148 -3.66817 0
M  V30 5773 C 607.404 3.07861 -5.58122 0
M  V30 5774 C 605.091 3.48109 -5.02258 0
M  V30 5775 C 606.089 3.30483 -5.97721 0
M  V30 5776 O 605.777 3.35175 -7.30694 0
M  V30 5777 H 605.509 0.54152 -0.404639 0
M  V30 5778 H 608.063 1.17342 -1.68582 0
M  V30 5779 H 606.293 3.67945 -1.18969 0
M  V30 5780 H 607.982 3.72787 -1.60576 0
M  V30 5781 H 608.748 2.84586 -3.92728 0
M  V30 5782 H 604.627 3.55918 -2.9299 0
M  V30 5783 H 608.171 2.94021 -6.32612 0
M  V30 5784 H 604.068 3.65579 -5.31998 0
M  V30 5785 H 604.836 3.51644 -7.39114 0
M  V30 5786 N 607.499 1.09233 1.13605 0
M  V30 5787 C 608.727 0.848908 1.88683 0
M  V30 5788 C 609.142 -0.599667 1.79024 0
M  V30 5789 O 608.499 -1.41265 1.15544 0
M  V30 5790 C 608.55 1.27273 3.38355 0
M  V30 5791 O 608.271 2.66449 3.47759 0
M  V30 5792 C 609.772 1.0614 4.30406 0
M  V30 5793 H 606.992 0.305549 0.597395 0
M  V30 5794 H 609.536 1.4538 1.43823 0
M  V30 5795 H 607.691 0.711776 3.80805 0
M  V30 5796 H 608.105 2.84264 4.40788 0
M  V30 5797 H 609.579 1.40725 5.33761 0
M  V30 5798 H 610.056 -0.000960332 4.392 0
M  V30 5799 H 610.662 1.60821 3.93722 0
M  V30 5800 N 608.977 -1.30795 0.87923 0
M  V30 5801 C 609.907 -2.30742 0.357796 0
M  V30 5802 C 610.888 -1.60747 -0.556283 0
M  V30 5803 O 612.073 -1.88393 -0.47135 0
M  V30 5804 C 609.203 -3.44583 -0.433555 0
M  V30 5805 C 608.157 -4.26235 0.388251 0
M  V30 5806 C 607.483 -5.32073 -0.529352 0
M  V30 5807 C 608.783 -4.96303 1.62729 0
M  V30 5808 H 610.477 -2.74605 1.19299 0
M  V30 5809 H 608.023 -1.32017 0.575104 0
M  V30 5810 H 609.976 -4.13563 -0.808934 0
M  V30 5811 H 608.7 -2.99511 -1.30234 0
M  V30 5812 H 607.359 -3.58936 0.745695 0
M  V30 5813 H 607.007 -4.83249 -1.39569 0
M  V30 5814 H 606.707 -5.87598 0.0166741 0
M  V30 5815 H 608.231 -6.0391 -0.901373 0
M  V30 5816 H 609.645 -5.5783 1.32283 0
M  V30 5817 H 608.042 -5.61666 2.11309 0
M  V30 5818 H 609.112 -4.22758 2.37494 0
M  V30 5819 N 610.455 -0.639598 -1.44038 0
M  V30 5820 C 611.701 -0.147698 -2.02261 0
M  V30 5821 C 612.034 1.23031 -1.50256 0
M  V30 5822 O 611.309 1.81847 -0.690068 0
M  V30 5823 C 611.592 -0.14362 -3.59813 0
M  V30 5824 C 611.445 -1.55458 -4.22082 0
M  V30 5825 C 612.764 0.527317 -4.36929 0
M  V30 5826 H 609.883 -0.0551453 -0.734934 0
M  V30 5827 H 612.525 -0.817688 -1.71505 0
M  V30 5828 H 610.675 0.426898 -3.86147 0
M  V30 5829 H 612.347 -2.17464 -4.06826 0
M  V30 5830 H 610.59 -2.10594 -3.79253 0
M  V30 5831 H 611.261 -1.50369 -5.31124 0
M  V30 5832 H 613.737 0.0420504 -4.16079 0
M  V30 5833 H 612.613 0.499389 -5.46624 0
M  V30 5834 H 612.874 1.59914 -4.12165 0
M  V30 5835 N 611.933 1.52934 -0.380664 0
M  V30 5836 C 612.896 2.24809 0.446473 0
M  V30 5837 C 613.896 1.26133 0.997347 0
M  V30 5838 O 615.086 1.50297 0.880714 0
M  V30 5839 C 612.218 2.99649 1.62553 0
M  V30 5840 H 613.411 2.99343 -0.182677 0
M  V30 5841 H 610.964 1.55736 -0.132618 0
M  V30 5842 H 611.699 2.29395 2.29235 0
M  V30 5843 H 611.484 3.72066 1.23732 0
M  V30 5844 H 612.974 3.54246 2.21133 0
M  V30 5845 N 613.412 0.11024 1.57214 0
M  V30 5846 C 614.689 -0.592956 1.86396 0
M  V30 5847 C 615.069 -1.85379 1.00985 0
M  V30 5848 O 614.417 -2.28337 0.0863592 0
M  V30 5849 C 614.627 -0.893816 3.3736 0
M  V30 5850 C 615.975 -1.25069 4.05762 0
M  V30 5851 O 616.999 -0.984356 3.42329 0
M  V30 5852 O 615.858 -1.75017 5.17718 0
M  V30 5853 H 612.952 -0.29828 0.771335 0
M  V30 5854 H 615.498 0.144083 1.69087 0
M  V30 5855 H 614.27 2.6031e-05 3.913 0
M  V30 5856 H 613.893 -1.68631 3.60068 0
M  V30 5857 N 614.89 -1.56749 -0.16351 0
M  V30 5858 C 616.138 -1.82074 -0.87713 0
M  V30 5859 C 616.459 -0.688503 -1.82441 0
M  V30 5860 O 615.729 0.291085 -1.93725 0
M  V30 5861 H 614.309 -0.671677 -0.326893 0
M  V30 5862 H 616.971 -1.9423 -0.161459 0
M  V30 5863 H 616.067 -2.76407 -1.44934 0
M  V30 5864 N 616.368 0.432326 -1.51554 0
M  V30 5865 C 617.278 1.55023 -1.76082 0
M  V30 5866 C 618.294 1.61593 -0.645265 0
M  V30 5867 O 619.47 1.78742 -0.928086 0
M  V30 5868 C 616.535 2.90964 -1.88523 0
M  V30 5869 C 615.596 2.9447 -3.12388 0
M  V30 5870 C 614.829 4.23926 -3.24225 0
M  V30 5871 O 615.052 5.16576 -2.4188 0
M  V30 5872 O 613.986 4.33818 -4.17235 0
M  V30 5873 H 617.812 1.37238 -2.70923 0
M  V30 5874 H 615.397 0.615845 -1.36117 0
M  V30 5875 H 617.279 3.71633 -1.98662 0
M  V30 5876 H 615.954 3.08865 -0.9687 0
M  V30 5877 H 614.861 2.12737 -3.07723 0
M  V30 5878 H 616.194 2.81514 -4.03746 0
M  V30 5879 N 617.846 1.41785 0.688094 0
M  V30 5880 C 619.074 1.44915 1.47673 0
M  V30 5881 C 619.489 0.0565786 1.88715 0
M  V30 5882 O 618.846 -0.92579 1.57275 0
M  V30 5883 C 618.897 2.36452 2.73446 0
M  V30 5884 O 618.618 3.7029 2.34131 0
M  V30 5885 C 620.119 2.48463 3.67125 0
M  V30 5886 H 617.339 0.493324 0.454832 0
M  V30 5887 H 619.883 1.86153 0.846594 0
M  V30 5888 H 618.038 1.98502 3.3268 0
M  V30 5889 H 618.452 4.19183 3.15255 0
M  V30 5890 H 619.926 3.16662 4.52138 0
M  V30 5891 H 620.403 1.51826 4.12123 0
M  V30 5892 H 621.009 2.8708 3.13792 0
M  V30 5893 N 619.324 -0.923095 1.27737 0
M  V30 5894 C 620.549 -1.71054 1.17283 0
M  V30 5895 C 620.974 -1.86208 -0.266153 0
M  V30 5896 O 620.332 -1.36545 -1.1927 0
M  V30 5897 C 620.38 -3.0854 1.86642 0
M  V30 5898 O 619.484 -3.95528 1.16752 0
M  V30 5899 H 618.825 -0.524136 0.407649 0
M  V30 5900 H 621.355 -1.15487 1.6889 0
M  V30 5901 H 621.365 -3.58828 1.94182 0
M  V30 5902 H 620.04 -2.96828 2.91317 0
M  V30 5903 H 618.617 -3.53967 1.17312 0
M  V30 5904 N 620.802 -1.09834 -1.13024 0
M  V30 5905 C 622.218 -0.828875 -1.36388 0
M  V30 5906 C 622.418 0.554756 -1.93713 0
M  V30 5907 O 621.474 1.30882 -2.15931 0
M  V30 5908 C 622.787 -1.92352 -2.3113 0
M  V30 5909 C 624.335 -1.95124 -2.44735 0
M  V30 5910 C 624.81 -3.03745 -3.42787 0
M  V30 5911 N 626.301 -3.03012 -3.5034 0
M  V30 5912 C 627.036 -3.83699 -4.26101 0
M  V30 5913 N 626.532 -4.74306 -5.04981 0
M  V30 5914 N 628.325 -3.71942 -4.21445 0
M  V30 5915 H 620.476 -1.99029 -0.74169 0
M  V30 5916 H 622.739 -0.864557 -0.388903 0
M  V30 5917 H 622.445 -2.91906 -1.96172 0
M  V30 5918 H 622.319 -1.80536 -3.3119 0
M  V30 5919 H 624.706 -0.962069 -2.78977 0
M  V30 5920 H 624.787 -2.11018 -1.44586 0
M  V30 5921 H 624.431 -4.02878 -3.09276 0
M  V30 5922 H 624.361 -2.85094 -4.42752 0
M  V30 5923 H 626.852 -2.37352 -2.94062 0
M  V30 5924 H 627.165 -5.32446 -5.60108 0
M  V30 5925 H 625.51 -4.78339 -5.04199 0
M  V30 5926 H 628.701 -3.00513 -3.589 0
M  V30 5927 H 628.874 -4.35062 -4.80235 0
M  V30 5928 N 622.28 1.30327 -0.886154 0
M  V30 5929 C 623.691 1.78243 -0.555554 0
M  V30 5930 C 624.042 1.72849 0.928314 0
M  V30 5931 O 623.167 1.30607 1.72542 0
M  V30 5932 C 623.762 3.23654 -1.00168 0
M  V30 5933 C 622.321 3.69401 -0.722471 0
M  V30 5934 C 621.468 2.50753 -1.18399 0
M  V30 5935 H 624.419 1.1718 -1.07026 0
M  V30 5936 H 624.44 3.79056 -0.331152 0
M  V30 5937 H 623.952 3.27548 -2.08169 0
M  V30 5938 H 622.053 3.70995 0.345496 0
M  V30 5939 H 622.166 4.60818 -1.31085 0
M  V30 5940 H 620.53 2.47452 -0.603303 0
M  V30 5941 H 621.313 2.57383 -2.27176 0
M  V30 5942 N 623.758 0.647228 1.43697 0
M  V30 5943 C 625.005 0.158188 2.01881 0
M  V30 5944 C 625.333 -1.22573 1.51017 0
M  V30 5945 O 624.588 -1.83086 0.69122 0
M  V30 5946 C 624.887 0.111481 3.57226 0
M  V30 5947 C 624.553 1.43633 4.27411 0
M  V30 5948 C 623.215 1.79915 4.463 0
M  V30 5949 C 625.567 2.31011 4.67208 0
M  V30 5950 C 622.895 3.03251 5.02251 0
M  V30 5951 C 625.247 3.53633 5.24525 0
M  V30 5952 C 623.911 3.90118 5.41631 0
M  V30 5953 H 623.181 0.0578851 0.738736 0
M  V30 5954 H 625.828 0.836746 1.72252 0
M  V30 5955 H 624.133 -0.650507 3.86362 0
M  V30 5956 H 625.83 -0.283682 3.99995 0
M  V30 5957 H 622.42 1.14403 4.1305 0
M  V30 5958 H 626.604 2.04272 4.52313 0
M  V30 5959 H 621.86 3.31575 5.13681 0
M  V30 5960 H 626.034 4.21561 5.5431 0
M  V30 5961 H 623.661 4.85768 5.84751 0
M  V30 5962 N 625.236 -1.5273 0.388769 0
M  V30 5963 C 626.513 -1.93981 -0.251133 0
M  V30 5964 C 626.893 -1.32418 -1.64404 0
M  V30 5965 O 626.241 -0.492074 -2.23139 0
M  V30 5966 C 626.451 -3.47891 -0.27802 0
M  V30 5967 C 627.799 -4.21559 -0.507229 0
M  V30 5968 O 628.823 -3.54394 -0.358252 0
M  V30 5969 O 627.682 -5.40626 -0.799094 0
M  V30 5970 H 624.776 -0.812157 -0.15598 0
M  V30 5971 H 627.322 -1.63809 0.443237 0
M  V30 5972 H 626.094 -3.8503 0.697669 0
M  V30 5973 H 625.717 -3.84364 -1.01733 0
M  V30 5974 N 626.714 -0.118576 -1.57153 0
M  V30 5975 C 627.963 0.539339 -1.94355 0
M  V30 5976 C 628.276 1.67858 -1.00415 0
M  V30 5977 O 629.482 2.39922 -1.27081 0
M  V30 5978 C 627.938 1.01082 -3.45414 0
M  V30 5979 C 627.546 -0.0999402 -4.47889 0
M  V30 5980 C 629.29 1.64013 -3.91535 0
M  V30 5981 C 627.197 0.388212 -5.90124 0
M  V30 5982 H 626.127 0.205247 -0.725527 0
M  V30 5983 H 628.778 -0.19836 -1.82425 0
M  V30 5984 H 627.16 1.80292 -3.52577 0
M  V30 5985 H 628.334 -0.876189 -4.52393 0
M  V30 5986 H 626.649 -0.635885 -4.11516 0
M  V30 5987 H 629.246 2.01649 -4.95219 0
M  V30 5988 H 629.589 2.51836 -3.31488 0
M  V30 5989 H 630.122 0.913439 -3.87171 0
M  V30 5990 H 626.861 -0.453963 -6.53926 0
M  V30 5991 H 626.381 1.13095 -5.89041 0
M  V30 5992 H 628.06 0.849574 -6.41398 0
M  V30 5993 N 628.193 1.56834 0.155195 0
M  V30 5994 C 629.47 1.73799 0.897395 0
M  V30 5995 C 629.85 0.684379 1.99698 0
M  V30 5996 O 629.198 -0.298111 2.26547 0
M  V30 5997 C 629.408 3.17572 1.44737 0
M  V30 5998 C 630.756 3.79014 1.91399 0
M  V30 5999 O 631.78 3.20951 1.54496 0
M  V30 6000 O 630.639 4.80998 2.59429 0
M  V30 6001 H 627.733 0.710329 0.423511 0
M  V30 6002 H 630.279 1.69107 0.141761 0
M  V30 6003 H 629.051 3.85749 0.656741 0
M  V30 6004 H 628.674 3.26657 2.26674 0
M  V30 6005 N 629.671 -0.424282 1.51781 0
M  V30 6006 C 630.919 -1.17028 1.64769 0
M  V30 6007 C 631.24 -1.91409 0.372523 0
M  V30 6008 O 630.51 -1.86091 -0.612108 0
M  V30 6009 H 629.09 -0.434992 0.607282 0
M  V30 6010 H 631.752 -0.485169 1.88765 0
M  V30 6011 H 630.848 -1.8927 2.4816 0
M  V30 6012 N 631.149 -1.42148 -0.680565 0
M  V30 6013 C 632.426 -1.32795 -1.43614 0
M  V30 6014 C 632.806 0.037415 -2.11067 0
M  V30 6015 O 632.154 1.05258 -2.02813 0
M  V30 6016 C 632.364 -2.49206 -2.44331 0
M  V30 6017 C 633.712 -2.91059 -3.09144 0
M  V30 6018 O 634.736 -2.49054 -2.54657 0
M  V30 6019 O 633.595 -3.63741 -4.07866 0
M  V30 6020 H 630.689 -0.523397 -0.640301 0
M  V30 6021 H 633.235 -1.54144 -0.709775 0
M  V30 6022 H 632.007 -3.40252 -1.93247 0
M  V30 6023 H 631.63 -2.29813 -3.24456 0
M  V30 6024 N 632.627 0.916307 -1.28225 0
M  V30 6025 C 633.557 2.0352 -1.14464 0
M  V30 6026 C 634.538 1.70045 -0.0430844 0
M  V30 6027 O 635.723 1.92954 -0.219619 0
M  V30 6028 C 632.853 3.37889 -0.803027 0
M  V30 6029 C 631.807 3.85516 -1.85908 0
M  V30 6030 C 631.133 5.1682 -1.37116 0
M  V30 6031 C 632.433 4.07655 -3.26519 0
M  V30 6032 H 634.127 2.1529 -2.08064 0
M  V30 6033 H 631.673 1.03446 -1.00174 0
M  V30 6034 H 633.626 4.15654 -0.693537 0
M  V30 6035 H 632.35 3.26164 0.168674 0
M  V30 6036 H 631.009 3.09953 -1.95767 0
M  V30 6037 H 630.657 5.01497 -0.38859 0
M  V30 6038 H 630.357 5.49657 -2.07728 0
M  V30 6039 H 631.881 5.97143 -1.27484 0
M  V30 6040 H 633.295 4.75953 -3.19596 0
M  V30 6041 H 631.692 4.51818 -3.94943 0
M  V30 6042 H 632.762 3.12553 -3.70727 0
M  V30 6043 N 634.105 1.10431 1.1244 0
M  V30 6044 C 635.335 0.867612 1.87499 0
M  V30 6045 C 635.743 -0.585475 1.79913 0
M  V30 6046 O 635.086 -1.41539 1.171 0
M  V30 6047 C 635.148 1.2374 3.37533 0
M  V30 6048 C 634.812 2.69751 3.68895 0
M  V30 6049 C 635.809 3.67988 3.67261 0
M  V30 6050 C 633.494 3.06135 3.98229 0
M  V30 6051 C 635.488 5.00632 3.9452 0
M  V30 6052 C 633.175 4.38967 4.25149 0
M  V30 6053 C 634.173 5.36025 4.23281 0
M  V30 6054 O 633.861 6.66465 4.49533 0
M  V30 6055 H 633.593 0.311196 0.600111 0
M  V30 6056 H 636.147 1.47257 1.43194 0
M  V30 6057 H 634.377 0.575537 3.82393 0
M  V30 6058 H 636.066 0.978187 3.93937 0
M  V30 6059 H 636.832 3.41224 3.44661 0
M  V30 6060 H 632.711 2.31214 3.98825 0
M  V30 6061 H 636.255 5.7638 3.92978 0
M  V30 6062 H 632.152 4.6547 4.47223 0
M  V30 6063 H 632.92 6.72095 4.67152 0
M  V30 6064 N 635.583 -1.29855 0.893053 0
M  V30 6065 C 636.515 -2.26911 0.32311 0
M  V30 6066 C 637.528 -1.54039 -0.526858 0
M  V30 6067 O 638.717 -1.75132 -0.345095 0
M  V30 6068 C 635.817 -3.34266 -0.558509 0
M  V30 6069 C 634.99 -4.36601 0.264222 0
M  V30 6070 C 634.049 -5.23326 -0.549171 0
M  V30 6071 O 633.075 -5.69192 0.0309883 0
M  V30 6072 N 634.277 -5.50008 -1.85664 0
M  V30 6073 H 637.042 -2.76455 1.15726 0
M  V30 6074 H 634.603 -1.4312 0.756859 0
M  V30 6075 H 636.595 -3.89211 -1.1089 0
M  V30 6076 H 635.165 -2.8459 -1.29334 0
M  V30 6077 H 634.385 -3.81409 0.996046 0
M  V30 6078 H 635.673 -5.02019 0.827906 0
M  V30 6079 H 635.071 -5.14542 -2.35081 0
M  V30 6080 H 633.628 -6.07796 -2.35431 0
M  V30 6081 N 637.061 -0.65484 -1.43351 0
M  V30 6082 C 637.993 0.0744757 -2.29079 0
M  V30 6083 C 639.006 0.7855 -1.42596 0
M  V30 6084 O 640.195 0.642986 -1.66517 0
M  V30 6085 C 637.295 1.12859 -3.19556 0
M  V30 6086 C 636.468 0.495381 -4.34586 0
M  V30 6087 C 635.527 1.44659 -5.05925 0
M  V30 6088 O 634.553 0.954567 -5.61139 0
M  V30 6089 N 635.755 2.78051 -5.09576 0
M  V30 6090 H 638.52 -0.661346 -2.92312 0
M  V30 6091 H 636.081 -0.497744 -1.54059 0
M  V30 6092 H 638.073 1.76577 -3.64147 0
M  V30 6093 H 636.643 1.76636 -2.57912 0
M  V30 6094 H 635.863 -0.32092 -3.92892 0
M  V30 6095 H 637.151 0.0534203 -5.08772 0
M  V30 6096 H 636.549 3.20584 -4.66093 0
M  V30 6097 H 635.106 3.37068 -5.57878 0
M  V30 6098 N 638.539 1.52521 -0.396863 0
M  V30 6099 C 639.469 2.29582 0.425941 0
M  V30 6100 C 640.45 1.33281 1.05689 0
M  V30 6101 O 641.635 1.62181 1.06823 0
M  V30 6102 C 638.765 3.10821 1.54943 0
M  V30 6103 C 637.719 4.15069 1.04413 0
M  V30 6104 C 637.045 4.84578 2.26028 0
M  V30 6105 C 638.345 5.22191 0.106767 0
M  V30 6106 H 640.039 2.98612 -0.217045 0
M  V30 6107 H 637.585 1.43611 -0.105826 0
M  V30 6108 H 639.538 3.63492 2.13193 0
M  V30 6109 H 638.262 2.39538 2.22011 0
M  V30 6110 H 636.921 3.63389 0.484118 0
M  V30 6111 H 636.569 4.09835 2.91623 0
M  V30 6112 H 636.269 5.55043 1.92876 0
M  V30 6113 H 637.793 5.40056 2.84906 0
M  V30 6114 H 639.207 5.70176 0.597685 0
M  V30 6115 H 637.604 5.99947 -0.135352 0
M  V30 6116 H 638.674 4.77531 -0.842134 0
M  V30 6117 N 640.017 0.126909 1.57088 0
M  V30 6118 C 641.433 -0.229641 1.57939 0
M  V30 6119 C 641.633 -1.66145 1.1401 0
M  V30 6120 O 640.689 -2.3843 0.831119 0
M  V30 6121 C 642.002 0.0108648 3.00698 0
M  V30 6122 C 643.55 -0.054418 3.12953 0
M  V30 6123 C 644.025 0.158497 4.57726 0
M  V30 6124 N 645.516 0.104735 4.63082 0
M  V30 6125 C 646.251 0.24427 5.72879 0
M  V30 6126 N 645.747 0.440415 6.91399 0
M  V30 6127 N 647.54 0.183286 5.61801 0
M  V30 6128 H 639.691 1.06203 1.83942 0
M  V30 6129 H 641.954 0.418834 0.85046 0
M  V30 6130 H 641.66 1.00102 3.37154 0
M  V30 6131 H 641.534 -0.717512 3.70313 0
M  V30 6132 H 643.921 -1.0351 2.7635 0
M  V30 6133 H 644.002 0.705967 2.45865 0
M  V30 6134 H 643.646 1.13619 4.95028 0
M  V30 6135 H 643.576 -0.62197 5.22914 0
M  V30 6136 H 646.067 -0.0430298 3.77876 0
M  V30 6137 H 646.38 0.537536 7.70928 0
M  V30 6138 H 644.725 0.476488 6.93365 0
M  V30 6139 H 647.916 0.0309561 4.6809 0
M  V30 6140 H 648.089 0.295471 6.47326 0
M  V30 6141 N 641.495 -1.56914 -0.146875 0
M  V30 6142 C 642.725 -1.87243 -0.873126 0
M  V30 6143 C 643.133 -0.713127 -1.75246 0
M  V30 6144 O 642.476 0.326228 -1.8078 0
M  V30 6145 C 642.538 -3.12279 -1.78107 0
M  V30 6146 C 642.202 -4.44082 -1.07889 0
M  V30 6147 C 643.199 -5.18096 -0.432734 0
M  V30 6148 C 640.884 -4.90807 -1.06836 0
M  V30 6149 C 642.878 -6.37039 0.214569 0
M  V30 6150 C 640.565 -6.09674 -0.417243 0
M  V30 6151 C 641.563 -6.82636 0.223093 0
M  V30 6152 O 641.251 -7.99245 0.863884 0
M  V30 6153 H 640.983 -0.624896 -0.257839 0
M  V30 6154 H 643.537 -2.04892 -0.14434 0
M  V30 6155 H 641.767 -2.90639 -2.5508 0
M  V30 6156 H 643.456 -3.28854 -2.37929 0
M  V30 6157 H 644.222 -4.83066 -0.432677 0
M  V30 6158 H 640.101 -4.3394 -1.55618 0
M  V30 6159 H 643.645 -6.93927 0.714965 0
M  V30 6160 H 639.542 -6.44165 -0.414967 0
M  V30 6161 H 640.31 -8.14912 0.765564 0
M  V30 6162 N 642.974 0.416227 -1.52004 0
M  V30 6163 C 644.251 1.17637 -1.56272 0
M  V30 6164 C 644.631 2.08352 -0.339493 0
M  V30 6165 O 643.979 2.1833 0.674124 0
M  V30 6166 C 644.189 1.95986 -2.88774 0
M  V30 6167 C 645.537 2.52299 -3.41512 0
M  V30 6168 O 646.561 2.06174 -2.90467 0
M  V30 6169 O 645.42 3.3648 -4.30631 0
M  V30 6170 H 642.514 0.536726 -0.629169 0
M  V30 6171 H 645.06 0.423583 -1.64329 0
M  V30 6172 H 643.832 1.29487 -3.69254 0
M  V30 6173 H 643.455 2.78285 -2.83978 0
M  V30 6174 N 644.452 1.42507 0.673017 0
M  V30 6175 C 645.415 1.4582 1.76831 0
M  V30 6176 C 646.415 0.345542 1.57043 0
M  V30 6177 O 647.605 0.606447 1.63303 0
M  V30 6178 C 644.737 1.29158 3.15485 0
M  V30 6179 H 645.93 2.43345 1.7528 0
M  V30 6180 H 643.483 1.28981 0.882817 0
M  V30 6181 H 644.218 0.325626 3.22661 0
M  V30 6182 H 644.003 2.09797 3.31252 0
M  V30 6183 H 645.493 1.34363 3.95394 0
M  V30 6184 N 645.93 -0.909495 1.28709 0
M  V30 6185 C 646.86 -2.0291 1.15542 0
M  V30 6186 C 647.841 -1.7002 0.0521017 0
M  V30 6187 O 649.026 -1.92835 0.229849 0
M  V30 6188 C 646.156 -3.37458 0.820935 0
M  V30 6189 C 645.11 -3.84524 1.87949 0
M  V30 6190 C 644.436 -5.16086 1.39854 0
M  V30 6191 C 645.736 -4.05918 3.28676 0
M  V30 6192 H 647.43 -2.14183 2.09203 0
M  V30 6193 H 644.976 -1.02913 1.00722 0
M  V30 6194 H 646.929 -4.1528 0.715571 0
M  V30 6195 H 645.653 -3.26249 -0.151374 0
M  V30 6196 H 644.312 -3.08911 1.97408 0
M  V30 6197 H 643.96 -5.01284 0.41518 0
M  V30 6198 H 643.66 -5.48547 2.1064 0
M  V30 6199 H 645.184 -5.96459 1.30649 0
M  V30 6200 H 646.598 -4.74252 3.22115 0
M  V30 6201 H 644.995 -4.49717 3.97334 0
M  V30 6202 H 646.065 -3.10583 3.72379 0
M  V30 6203 N 647.408 -1.11026 -1.11852 0
M  V30 6204 C 648.356 -0.759643 -2.19846 0
M  V30 6205 C 649.35 0.246964 -1.6759 0
M  V30 6206 O 650.556 0.106693 -1.79684 0
M  V30 6207 H 646.931 -0.22775 -0.716683 0
M  V30 6208 H 648.902 -1.6792 -2.46669 0
M  V30 6209 C 647.651 -0.214364 -3.47039 0
M  V30 6210 H 646.974 -0.980175 -3.87599 0
M  V30 6211 H 648.414 -0.00717047 -4.23999 0
M  V30 6212 C 646.873 1.05436 -3.19976 0
M  V30 6213 O 647.403 2.13483 -3.40276 0
M  V30 6214 N 645.609 0.975436 -2.7374 0
M  V30 6215 H 645.156 0.0960853 -2.57421 0
M  V30 6216 H 645.114 1.82501 -2.5601 0
M  V30 6217 N 648.886 1.2938 -0.899927 0
M  V30 6218 C 650.116 1.99402 -0.540601 0
M  V30 6219 C 650.524 1.67534 0.87914 0
M  V30 6220 O 649.867 0.916821 1.59186 0
M  V30 6221 C 649.929 3.53514 -0.653326 0
M  V30 6222 C 649.593 4.08937 -2.04009 0
M  V30 6223 C 650.59 4.23815 -3.01126 0
M  V30 6224 C 648.275 4.43962 -2.34953 0
M  V30 6225 C 650.269 4.72951 -4.27313 0
M  V30 6226 C 647.956 4.92795 -3.61382 0
M  V30 6227 C 648.954 5.07244 -4.57376 0
M  V30 6228 O 648.642 5.55017 -5.8156 0
M  V30 6229 H 648.374 0.64383 -0.206057 0
M  V30 6230 H 650.928 1.65878 -1.21134 0
M  V30 6231 H 649.158 3.86628 0.0744449 0
M  V30 6232 H 650.847 4.04767 -0.303118 0
M  V30 6233 H 651.613 3.97043 -2.78535 0
M  V30 6234 H 647.492 4.31974 -1.60994 0
M  V30 6235 H 651.036 4.84144 -5.02245 0
M  V30 6236 H 646.933 5.19004 -3.83804 0
M  V30 6237 H 647.701 5.73331 -5.84153 0
M  V30 6238 N 650.364 0.662433 1.43002 0
M  V30 6239 C 651.611 0.179591 2.01702 0
M  V30 6240 C 651.939 -1.20964 1.52309 0
M  V30 6241 O 651.194 -1.82343 0.7106 0
M  V30 6242 C 651.493 0.149363 3.57088 0
M  V30 6243 C 651.159 1.48158 4.25864 0
M  V30 6244 C 649.821 1.84638 4.44367 0
M  V30 6245 C 652.173 2.35953 4.64732 0
M  V30 6246 C 649.501 3.08561 4.99006 0
M  V30 6247 C 651.853 3.59176 5.20745 0
M  V30 6248 C 650.517 3.95841 5.37463 0
M  V30 6249 H 649.787 0.0657172 0.73808 0
M  V30 6250 H 652.434 0.854968 1.71355 0
M  V30 6251 H 650.739 -0.609491 3.8703 0
M  V30 6252 H 652.436 -0.241241 4.00274 0
M  V30 6253 H 649.026 1.18777 4.11813 0
M  V30 6254 H 653.21 2.09058 4.50121 0
M  V30 6255 H 648.466 3.37005 5.10135 0
M  V30 6256 H 652.64 4.27417 5.49807 0
M  V30 6257 H 650.267 4.91942 5.79566 0
M  V30 6258 N 651.842 -1.52309 0.404946 0
M  V30 6259 C 653.072 -2.05886 -0.171569 0
M  V30 6260 C 653.48 -1.27527 -1.39762 0
M  V30 6261 O 652.823 -0.319215 -1.80905 0
M  V30 6262 C 652.885 -3.54609 -0.590983 0
M  V30 6263 C 652.549 -4.53989 0.523757 0
M  V30 6264 C 653.546 -5.01084 1.38604 0
M  V30 6265 C 651.231 -4.97465 0.695255 0
M  V30 6266 C 653.225 -5.90295 2.4048 0
M  V30 6267 C 650.912 -5.86473 1.71733 0
M  V30 6268 C 651.91 -6.32782 2.57051 0
M  V30 6269 O 651.598 -7.20029 3.57509 0
M  V30 6270 H 651.33 -0.675508 -0.0257763 0
M  V30 6271 H 653.884 -1.97238 0.573278 0
M  V30 6272 H 652.114 -3.60929 -1.38805 0
M  V30 6273 H 653.803 -3.90853 -1.09494 0
M  V30 6274 H 654.569 -4.68214 1.26492 0
M  V30 6275 H 650.448 -4.60982 0.0408447 0
M  V30 6276 H 653.992 -6.26363 3.07108 0
M  V30 6277 H 649.889 -6.18756 1.83877 0
M  V30 6278 H 650.657 -7.3813 3.53703 0
M  V30 6279 N 653.32 -0.135238 -1.57019 0
M  V30 6280 C 654.25 0.805235 -2.19176 0
M  V30 6281 C 655.231 1.2656 -1.13651 0
M  V30 6282 O 656.416 1.32528 -1.4195 0
M  V30 6283 C 653.546 2.04914 -2.80406 0
M  V30 6284 C 652.5 1.72598 -3.91655 0
M  V30 6285 C 651.826 3.04154 -4.39766 0
M  V30 6286 C 653.126 0.981709 -5.12991 0
M  V30 6287 H 654.82 0.287232 -2.98019 0
M  V30 6288 H 652.366 0.136714 -1.4335 0
M  V30 6289 H 654.319 2.71178 -3.22553 0
M  V30 6290 H 653.043 2.59067 -1.98877 0
M  V30 6291 H 651.702 1.08717 -3.50109 0
M  V30 6292 H 651.35 3.56274 -3.55075 0
M  V30 6293 H 651.05 2.83299 -5.14796 0
M  V30 6294 H 652.574 3.71509 -4.84576 0
M  V30 6295 H 653.988 1.5462 -5.52056 0
M  V30 6296 H 652.385 0.873533 -5.93708 0
M  V30 6297 H 653.455 -0.0286887 -4.84892 0
M  V30 6298 N 654.798 1.5699 0.138552 0
M  V30 6299 C 655.761 1.97984 1.15478 0
M  V30 6300 C 656.761 0.867416 1.35398 0
M  V30 6301 O 657.951 1.13387 1.32246 0
M  V30 6302 C 655.083 2.3031 2.51337 0
M  V30 6303 H 656.276 2.88953 0.802896 0
M  V30 6304 H 653.829 1.51555 0.382189 0
M  V30 6305 H 654.564 1.42159 2.91481 0
M  V30 6306 H 654.349 3.11425 2.38237 0
M  V30 6307 H 655.839 2.62834 3.24512 0
M  V30 6308 N 656.276 -0.40816 1.52223 0
M  V30 6309 C 657.692 -0.74685 1.41047 0
M  V30 6310 C 657.892 -1.94788 0.51573 0
M  V30 6311 O 656.948 -2.52494 -0.0181156 0
M  V30 6312 C 658.261 -0.999878 2.83589 0
M  V30 6313 C 659.809 -1.10253 2.92939 0
M  V30 6314 C 660.284 -1.38832 4.36451 0
M  V30 6315 N 661.775 -1.45694 4.3969 0
M  V30 6316 C 662.51 -1.69435 5.47795 0
M  V30 6317 N 662.006 -1.90774 6.66016 0
M  V30 6318 N 663.799 -1.71458 5.35312 0
M  V30 6319 H 655.95 0.382409 2.08929 0
M  V30 6320 H 658.213 0.108807 0.941735 0
M  V30 6321 H 657.919 -0.189723 3.51188 0
M  V30 6322 H 657.793 -1.91978 3.24691 0
M  V30 6323 H 660.18 -1.90328 2.2552 0
M  V30 6324 H 660.261 -0.160973 2.55293 0
M  V30 6325 H 659.905 -0.592741 5.04429 0
M  V30 6326 H 659.835 -2.34241 4.71634 0
M  V30 6327 H 662.326 -1.3099 3.54472 0
M  V30 6328 H 662.639 -2.08342 7.44186 0
M  V30 6329 H 660.984 -1.88037 6.69079 0
M  V30 6330 H 664.175 -1.54326 4.41929 0
M  V30 6331 H 664.348 -1.89621 6.19635 0
M  V30 6332 N 657.755 -1.42862 -0.66545 0
M  V30 6333 C 658.98 -1.47456 -1.45848 0
M  V30 6334 C 659.405 -0.0900312 -1.87884 0
M  V30 6335 O 658.763 0.913587 -1.56599 0
M  V30 6336 C 658.811 -2.41514 -2.67774 0
M  V30 6337 O 657.915 -1.89296 -3.66389 0
M  V30 6338 H 657.256 -0.499236 -0.437789 0
M  V30 6339 H 659.786 -1.8765 -0.815394 0
M  V30 6340 H 659.796 -2.58409 -3.15735 0
M  V30 6341 H 658.471 -3.42099 -2.36519 0
M  V30 6342 H 657.048 -1.82003 -3.25468 0
M  V30 6343 N 659.233 0.902656 -1.29189 0
M  V30 6344 C 660.481 1.6496 -1.16758 0
M  V30 6345 C 660.802 1.92952 0.28188 0
M  V30 6346 O 660.072 1.55351 1.19344 0
M  V30 6347 H 658.652 0.611447 -0.429118 0
M  V30 6348 H 661.314 1.0825 -1.62074 0
M  V30 6349 H 660.41 2.60728 -1.71544 0
M  V30 6350 N 660.711 1.11618 1.11262 0
M  V30 6351 C 661.939 0.888739 1.8684 0
M  V30 6352 C 662.354 -0.561558 1.80255 0
M  V30 6353 O 661.711 -1.38782 1.18515 0
M  V30 6354 C 661.762 1.34422 3.35579 0
M  V30 6355 O 661.483 2.73766 3.42029 0
M  V30 6356 C 662.984 1.15246 4.28058 0
M  V30 6357 H 660.204 0.318152 0.590779 0
M  V30 6358 H 662.748 1.48398 1.40707 0
M  V30 6359 H 660.903 0.79239 3.7921 0
M  V30 6360 H 661.317 2.9355 4.34659 0
M  V30 6361 H 662.791 1.52015 5.30656 0
M  V30 6362 H 663.268 0.0922007 4.39103 0
M  V30 6363 H 663.874 1.69136 3.90222 0
M  V30 6364 N 662.189 -1.289 0.906776 0
M  V30 6365 C 663.099 -2.31256 0.394707 0
M  V30 6366 C 664.115 -1.66231 -0.514121 0
M  V30 6367 O 665.291 -1.97347 -0.401994 0
M  V30 6368 C 662.356 -3.44792 -0.363191 0
M  V30 6369 C 661.417 -4.25391 0.578012 0
M  V30 6370 C 660.65 -5.33506 -0.143811 0
M  V30 6371 O 660.873 -5.53786 -1.36665 0
M  V30 6372 O 659.807 -5.99673 0.5173 0
M  V30 6373 H 663.633 -2.77051 1.24405 0
M  V30 6374 H 661.218 -1.33466 0.671346 0
M  V30 6375 H 663.1 -4.139 -0.791503 0
M  V30 6376 H 661.775 -3.01093 -1.18848 0
M  V30 6377 H 660.682 -3.58899 1.05558 0
M  V30 6378 H 662.015 -4.72752 1.36992 0
M  V30 6379 N 663.667 -0.670007 -1.42649 0
M  V30 6380 C 664.916 -0.187526 -2.00826 0
M  V30 6381 C 665.229 1.21142 -1.53571 0
M  V30 6382 O 666.435 1.79001 -2.04134 0
M  V30 6383 C 664.891 -0.284409 -3.58774 0
M  V30 6384 C 664.499 -1.6871 -4.15019 0
M  V30 6385 C 666.243 0.139605 -4.2427 0
M  V30 6386 C 664.15 -1.73701 -5.65316 0
M  V30 6387 H 663.08 -0.0663468 -0.751075 0
M  V30 6388 H 665.731 -0.834492 -1.63427 0
M  V30 6389 H 664.113 0.430364 -3.93655 0
M  V30 6390 H 665.287 -2.42857 -3.91608 0
M  V30 6391 H 663.602 -2.05855 -3.61957 0
M  V30 6392 H 666.199 0.122398 -5.3456 0
M  V30 6393 H 666.542 1.17403 -3.99402 0
M  V30 6394 H 667.075 -0.523995 -3.94334 0
M  V30 6395 H 663.814 -2.75109 -5.94975 0
M  V30 6396 H 663.334 -1.03903 -5.90732 0
M  V30 6397 H 665.013 -1.48829 -6.2965 0
M  V30 6398 N 665.145 1.52092 -0.413018 0
M  V30 6399 C 666.055 2.30858 0.417318 0
M  V30 6400 C 667.071 1.38746 1.05003 0
M  V30 6401 O 668.247 1.71821 1.05069 0
M  V30 6402 C 665.312 3.11756 1.51687 0
M  V30 6403 C 664.373 4.19613 0.906825 0
M  V30 6404 C 663.606 4.96644 1.95399 0
M  V30 6405 O 663.829 4.7402 3.17271 0
M  V30 6406 O 662.763 5.81385 1.55805 0
M  V30 6407 H 666.589 3.02865 -0.225028 0
M  V30 6408 H 664.174 1.48358 -0.176126 0
M  V30 6409 H 666.056 3.62122 2.15512 0
M  V30 6410 H 664.731 2.42539 2.14375 0
M  V30 6411 H 663.638 3.73385 0.231183 0
M  V30 6412 H 664.971 4.91134 0.323814 0
M  V30 6413 N 666.623 0.143563 1.56945 0
M  V30 6414 C 667.586 -0.783295 2.154 0
M  V30 6415 C 668.586 -1.17763 1.09492 0
M  V30 6416 O 669.776 -1.09912 1.35148 0
M  V30 6417 C 666.908 -2.06248 2.7143 0
M  V30 6418 H 668.101 -0.274863 2.98638 0
M  V30 6419 H 665.654 -0.105859 1.55941 0
M  V30 6420 H 666.389 -2.61466 1.91849 0
M  V30 6421 H 666.174 -1.78897 3.4891 0
M  V30 6422 H 667.664 -2.72453 3.16479 0
M  V30 6423 N 668.101 -1.57061 -0.130224 0
M  V30 6424 C 669.378 -1.75205 -0.869631 0
M  V30 6425 C 669.758 -0.716063 -1.98584 0
M  V30 6426 O 669.106 0.262032 -2.26993 0
M  V30 6427 C 669.316 -3.19835 -1.39666 0
M  V30 6428 C 670.664 -3.82011 -1.85345 0
M  V30 6429 O 671.688 -3.23368 -1.49371 0
M  V30 6430 O 670.547 -4.85064 -2.51744 0
M  V30 6431 H 667.641 -0.716977 -0.412157 0
M  V30 6432 H 670.187 -1.69311 -0.11484 0
M  V30 6433 H 668.959 -3.86745 -0.595288 0
M  V30 6434 H 668.582 -3.30222 -2.21448 0
M  V30 6435 N 669.579 0.400081 -1.52437 0
M  V30 6436 C 670.825 1.14788 -1.67187 0
M  V30 6437 C 671.158 1.89928 -0.405074 0
M  V30 6438 O 670.433 1.85118 0.596804 0
M  V30 6439 C 670.716 2.13507 -2.89977 0
M  V30 6440 C 670.569 1.42204 -4.2673 0
M  V30 6441 C 671.888 3.14069 -3.083 0
M  V30 6442 H 669.007 0.415939 -0.608411 0
M  V30 6443 H 671.649 0.432542 -1.85011 0
M  V30 6444 H 669.799 2.7451 -2.74912 0
M  V30 6445 H 671.471 0.842503 -4.53541 0
M  V30 6446 H 669.714 0.723939 -4.27717 0
M  V30 6447 H 670.385 2.14281 -5.08712 0
M  V30 6448 H 672.861 2.63148 -3.22323 0
M  V30 6449 H 671.737 3.80398 -3.95713 0
M  V30 6450 H 671.998 3.82309 -2.22018 0
M  V30 6451 N 671.057 1.43213 0.657864 0
M  V30 6452 C 672.303 1.44798 1.41991 0
M  V30 6453 C 672.636 0.070256 1.94073 0
M  V30 6454 O 671.911 -0.908177 1.71995 0
M  V30 6455 C 672.194 2.4865 2.60471 0
M  V30 6456 C 672.047 3.95679 2.13911 0
M  V30 6457 C 673.366 2.49292 3.62686 0
M  V30 6458 H 670.485 0.527244 0.514959 0
M  V30 6459 H 673.127 1.74733 0.74621 0
M  V30 6460 H 671.277 2.23254 3.17946 0
M  V30 6461 H 672.949 4.32116 1.61472 0
M  V30 6462 H 671.192 4.08733 1.45325 0
M  V30 6463 H 671.863 4.6395 2.99089 0
M  V30 6464 H 674.339 2.71917 3.14961 0
M  V30 6465 H 673.215 3.23907 4.43143 0
M  V30 6466 H 673.476 1.52502 4.14964 0
M  V30 6467 N 672.536 -0.895792 1.29666 0
M  V30 6468 C 673.784 -1.64339 1.17631 0
M  V30 6469 C 674.105 -1.93099 -0.271643 0
M  V30 6470 O 673.375 -1.55981 -1.18518 0
M  V30 6471 H 671.955 -0.609162 0.432354 0
M  V30 6472 H 674.617 -1.07389 1.62646 0
M  V30 6473 H 673.713 -2.59815 1.72924 0
M  V30 6474 N 674.014 -1.12206 -1.10668 0
M  V30 6475 C 674.924 -0.800686 -2.20513 0
M  V30 6476 C 675.94 0.209512 -1.72734 0
M  V30 6477 O 677.116 0.043705 -2.01353 0
M  V30 6478 C 674.181 -0.257353 -3.45744 0
M  V30 6479 C 673.242 -1.32718 -4.0827 0
M  V30 6480 C 672.475 -0.809674 -5.27522 0
M  V30 6481 O 672.698 0.35742 -5.69279 0
M  V30 6482 O 671.632 -1.57816 -5.80842 0
M  V30 6483 H 675.458 -1.71807 -2.50432 0
M  V30 6484 H 673.043 -0.898546 -1.19359 0
M  V30 6485 H 674.925 0.0408849 -4.2138 0
M  V30 6486 H 673.6 0.632627 -3.17458 0
M  V30 6487 H 672.507 -1.67855 -3.34329 0
M  V30 6488 H 673.84 -2.19083 -4.40753 0
M  V30 6489 N 675.492 1.28418 -0.913599 0
M  V30 6490 C 676.402 2.31043 -0.406965 0
M  V30 6491 C 677.418 1.66501 0.505298 0
M  V30 6492 O 678.594 1.97558 0.391522 0
M  V30 6493 C 675.659 3.4498 0.344901 0
M  V30 6494 C 674.72 4.25078 -0.600563 0
M  V30 6495 C 673.953 5.33575 0.115516 0
M  V30 6496 O 674.176 5.54503 1.33727 0
M  V30 6497 O 673.11 5.9939 -0.549095 0
M  V30 6498 H 676.936 2.76387 -1.25873 0
M  V30 6499 H 674.521 1.33109 -0.678415 0
M  V30 6500 H 676.403 4.14314 0.769542 0
M  V30 6501 H 675.078 3.01719 1.1725 0
M  V30 6502 H 673.985 3.58334 -1.0746 0
M  V30 6503 H 675.318 4.72018 -1.39497 0
M  V30 6504 N 676.97 0.677563 1.42291 0
M  V30 6505 C 678.2 0.209155 2.05539 0
M  V30 6506 C 678.608 -1.13987 1.51009 0
M  V30 6507 O 677.951 -1.71976 0.645764 0
M  V30 6508 C 678.013 0.0697758 3.59432 0
M  V30 6509 C 677.677 1.34795 4.36668 0
M  V30 6510 C 678.674 2.28201 4.67141 0
M  V30 6511 C 676.359 1.59632 4.76259 0
M  V30 6512 C 678.353 3.44718 5.36142 0
M  V30 6513 C 676.04 2.76437 5.45 0
M  V30 6514 C 677.038 3.68805 5.74867 0
M  V30 6515 O 676.726 4.83567 6.42198 0
M  V30 6516 H 676.458 0.0986202 0.668768 0
M  V30 6517 H 679.012 0.925483 1.83368 0
M  V30 6518 H 677.242 -0.702157 3.80272 0
M  V30 6519 H 678.931 -0.359115 4.04308 0
M  V30 6520 H 679.697 2.10264 4.37052 0
M  V30 6521 H 675.576 0.886073 4.52404 0
M  V30 6522 H 679.12 4.16833 5.59371 0
M  V30 6523 H 675.017 2.94299 5.74507 0
M  V30 6524 H 675.785 4.83147 6.6069 0
M  V30 6525 N 678.448 -1.51871 0.421078 0
M  V30 6526 C 679.411 -2.25914 -0.386712 0
M  V30 6527 C 680.411 -1.28733 -0.963555 0
M  V30 6528 O 681.601 -1.52579 -0.840556 0
M  V30 6529 C 678.733 -3.03853 -1.54551 0
M  V30 6530 H 679.926 -2.98754 0.261978 0
M  V30 6531 H 677.479 -1.5533 0.173862 0
M  V30 6532 H 678.214 -2.35392 -2.23072 0
M  V30 6533 H 677.999 -3.75215 -1.13824 0
M  V30 6534 H 679.489 -3.59984 -2.11663 0
M  V30 6535 N 679.926 -0.151884 -1.56866 0
M  V30 6536 C 681.342 0.204486 -1.58285 0
M  V30 6537 C 681.542 1.6431 -1.16639 0
M  V30 6538 O 680.598 2.37077 -0.868946 0
M  V30 6539 C 681.911 -0.0587019 -3.00643 0
M  V30 6540 C 683.459 0.00462303 -3.13 0
M  V30 6541 C 683.934 -0.231297 -4.57416 0
M  V30 6542 N 685.425 -0.178394 -4.62856 0
M  V30 6543 C 686.16 -0.335379 -5.72418 0
M  V30 6544 N 685.656 -0.550355 -6.90611 0
M  V30 6545 N 687.449 -0.272641 -5.61438 0
M  V30 6546 H 679.6 -1.09116 -1.82229 0
M  V30 6547 H 681.863 -0.432311 -0.843689 0
M  V30 6548 H 681.569 -1.05453 -3.35518 0
M  V30 6549 H 681.443 0.658508 -3.71407 0
M  V30 6550 H 683.83 0.991009 -2.77962 0
M  V30 6551 H 683.911 -0.744992 -2.44711 0
M  V30 6552 H 683.555 -1.2148 -4.93158 0
M  V30 6553 H 683.485 0.5387 -5.23837 0
M  V30 6554 H 685.976 -0.0170923 -3.77896 0
M  V30 6555 H 686.289 -0.660116 -7.69976 0
M  V30 6556 H 684.634 -0.586736 -6.92519 0
M  V30 6557 H 687.825 -0.105421 -4.67981 0
M  V30 6558 H 687.998 -0.398418 -6.46774 0
M  V30 6559 N 681.404 1.57128 0.121893 0
M  V30 6560 C 682.314 2.03425 1.16857 0
M  V30 6561 C 683.33 0.954108 1.45509 0
M  V30 6562 O 684.506 1.26541 1.56682 0
M  V30 6563 C 681.571 2.42685 2.47599 0
M  V30 6564 C 680.632 3.64767 2.2637 0
M  V30 6565 C 679.865 4.02145 3.50878 0
M  V30 6566 O 680.088 3.39897 4.58068 0
M  V30 6567 O 679.022 4.95262 3.42051 0
M  V30 6568 H 682.848 2.92825 0.80544 0
M  V30 6569 H 680.433 1.45654 0.332477 0
M  V30 6570 H 682.315 2.68684 3.24634 0
M  V30 6571 H 680.99 1.56432 2.83392 0
M  V30 6572 H 679.897 3.43922 1.47203 0
M  V30 6573 H 681.23 4.51716 1.95482 0
M  V30 6574 N 682.882 -0.391992 1.52647 0
M  V30 6575 C 683.845 -1.46135 1.7657 0
M  V30 6576 C 684.845 -1.47701 0.635698 0
M  V30 6577 O 686.035 -1.48924 0.903728 0
M  V30 6578 C 683.167 -2.85443 1.86374 0
M  V30 6579 H 684.36 -1.26208 2.72051 0
M  V30 6580 H 681.913 -0.623549 1.43323 0
M  V30 6581 H 682.648 -3.10718 0.928685 0
M  V30 6582 H 682.433 -2.85708 2.68539 0
M  V30 6583 H 683.923 -3.62933 2.06566 0
M  V30 6584 N 684.36 -1.4356 -0.65026 0
M  V30 6585 C 685.608 -1.45046 -1.40734 0
M  V30 6586 C 685.929 -0.0769822 -1.94848 0
M  V30 6587 O 685.199 0.888098 -1.74613 0
M  V30 6588 H 683.779 -0.534034 -0.522318 0
M  V30 6589 H 686.441 -1.79186 -0.766703 0
M  V30 6590 H 685.537 -2.16476 -2.24822 0
M  V30 6591 N 685.838 0.888903 -1.30139 0
M  V30 6592 C 686.788 1.9814 -1.12803 0
M  V30 6593 C 687.772 1.60839 -0.0443137 0
M  V30 6594 O 688.964 1.74971 -0.267208 0
M  V30 6595 C 686.093 3.33416 -0.817849 0
M  V30 6596 C 685.179 3.77043 -1.94163 0
M  V30 6597 N 685.57 3.92805 -3.18651 0
M  V30 6598 C 683.868 4.06407 -1.8371 0
M  V30 6599 C 684.569 4.29746 -3.92038 0
M  V30 6600 N 683.545 4.3939 -3.20059 0
M  V30 6601 H 687.347 2.08411 -2.07225 0
M  V30 6602 H 684.861 1.07845 -1.21421 0
M  V30 6603 H 686.858 4.11405 -0.674668 0
M  V30 6604 H 685.518 3.24484 0.118344 0
M  V30 6605 H 686.529 3.78042 -3.53984 0
M  V30 6606 H 683.206 4.05972 -0.974331 0
M  V30 6607 H 684.596 4.49695 -4.99223 0
M  V30 6608 N 687.317 1.12792 1.10072 0
M  V30 6609 C 688.563 0.886857 1.82381 0
M  V30 6610 C 688.896 -0.58576 1.85155 0
M  V30 6611 O 688.171 -1.43317 1.31493 0
M  V30 6612 C 688.454 1.46703 3.28862 0
M  V30 6613 C 688.307 3.00829 3.34398 0
M  V30 6614 C 689.626 1.12971 4.25353 0
M  V30 6615 H 686.745 0.32362 0.662148 0
M  V30 6616 H 689.387 1.39513 1.28982 0
M  V30 6617 H 687.537 1.03476 3.74466 0
M  V30 6618 H 689.209 3.52764 2.97247 0
M  V30 6619 H 687.452 3.36164 2.74183 0
M  V30 6620 H 688.123 3.36519 4.3756 0
M  V30 6621 H 690.599 1.50313 3.88001 0
M  V30 6622 H 689.475 1.56223 5.26199 0
M  V30 6623 H 689.736 0.0424452 4.4208 0
M  V30 6624 N 688.795 -1.27931 0.920396 0
M  V30 6625 C 690.043 -1.94304 0.555906 0
M  V30 6626 C 690.364 -1.72753 -0.904519 0
M  V30 6627 O 689.634 -1.07104 -1.64029 0
M  V30 6628 H 688.214 -0.719001 0.202599 0
M  V30 6629 H 690.876 -1.55785 1.1712 0
M  V30 6630 H 689.972 -3.02806 0.755981 0
M  V30 6631 N 690.273 -0.685099 -1.4193 0
M  V30 6632 C 691.519 -0.211971 -2.01689 0
M  V30 6633 C 691.852 1.18189 -1.54094 0
M  V30 6634 O 691.127 1.79559 -0.747572 0
M  V30 6635 C 691.41 -0.258019 -3.59174 0
M  V30 6636 C 691.263 -1.68807 -4.16922 0
M  V30 6637 C 692.582 0.388044 -4.38386 0
M  V30 6638 H 689.701 -0.0784987 -0.732808 0
M  V30 6639 H 692.343 -0.871837 -1.68816 0
M  V30 6640 H 690.493 0.303832 -3.8731 0
M  V30 6641 H 692.165 -2.30296 -3.99702 0
M  V30 6642 H 690.408 -2.22553 -3.72361 0
M  V30 6643 H 691.079 -1.6719 -5.26072 0
M  V30 6644 H 693.555 -0.0903432 -4.16002 0
M  V30 6645 H 692.431 0.325232 -5.47936 0
M  V30 6646 H 692.692 1.4672 -4.17044 0
M  V30 6647 N 691.751 1.51645 -0.429126 0
M  V30 6648 C 692.714 2.26116 0.374726 0
M  V30 6649 C 693.714 1.29242 0.956714 0
M  V30 6650 O 694.904 1.53022 0.832452 0
M  V30 6651 C 692.036 3.04669 1.52937 0
M  V30 6652 H 693.229 2.9861 -0.277818 0
M  V30 6653 H 690.782 1.55236 -0.182097 0
M  V30 6654 H 691.517 2.36571 2.21821 0
M  V30 6655 H 691.302 3.75814 1.11833 0
M  V30 6656 H 692.792 3.61102 2.09751 0
M  V30 6657 N 693.229 0.160201 1.56784 0
M  V30 6658 C 694.64 -0.358417 1.83227 0
M  V30 6659 C 694.991 -1.63831 1.07952 0
M  V30 6660 O 694.116 -2.13885 0.328995 0
M  V30 6661 C 694.711 -0.657058 3.32368 0
M  V30 6662 C 693.27 -1.12015 3.59346 0
M  V30 6663 C 692.417 -0.15015 2.76893 0
M  V30 6664 H 695.368 0.384669 1.53967 0
M  V30 6665 H 695.389 -1.51033 3.49241 0
M  V30 6666 H 694.901 0.274647 3.87127 0
M  V30 6667 H 693.002 -2.06734 3.09987 0
M  V30 6668 H 693.115 -1.037 4.67743 0
M  V30 6669 H 691.479 -0.645361 2.46388 0
M  V30 6670 H 692.262 0.775379 3.34429 0
M  V30 6671 N 694.707 -1.5719 -0.113559 0
M  V30 6672 C 695.655 -2.01725 -1.158 0
M  V30 6673 C 696.649 -0.915105 -1.42556 0
M  V30 6674 O 697.855 -1.10031 -1.42454 0
M  V30 6675 H 694.23 -0.64262 -0.390569 0
M  V30 6676 H 696.201 -2.88666 -0.755926 0
M  V30 6677 C 694.95 -2.44203 -2.47507 0
M  V30 6678 H 694.273 -3.28582 -2.27758 0
M  V30 6679 H 695.713 -2.79158 -3.19135 0
M  V30 6680 C 694.172 -1.30785 -3.10478 0
M  V30 6681 O 694.702 -0.626807 -3.9678 0
M  V30 6682 N 692.908 -1.06352 -2.7044 0
M  V30 6683 H 692.455 -1.61913 -2.00355 0
M  V30 6684 H 692.413 -0.306614 -3.12901 0
M  V30 6685 N 696.185 0.383891 -1.52853 0
M  V30 6686 C 697.117 1.48889 -1.74255 0
M  V30 6687 C 698.13 1.50405 -0.623063 0
M  V30 6688 O 699.319 1.54215 -0.898887 0
M  V30 6689 C 696.419 2.87721 -1.79081 0
M  V30 6690 C 695.592 3.10111 -3.08464 0
M  V30 6691 C 694.651 4.28954 -3.0477 0
M  V30 6692 O 693.677 4.25012 -3.78621 0
M  V30 6693 N 694.879 5.35411 -2.24311 0
M  V30 6694 H 697.644 1.30915 -2.69595 0
M  V30 6695 H 695.205 0.573454 -1.51404 0
M  V30 6696 H 697.197 3.65333 -1.7411 0
M  V30 6697 H 695.767 2.99029 -0.911052 0
M  V30 6698 H 694.987 2.20319 -3.26884 0
M  V30 6699 H 696.275 3.21928 -3.94005 0
M  V30 6700 H 695.673 5.41471 -1.63787 0
M  V30 6701 H 694.23 6.1167 -2.25175 0
M  V30 6702 N 697.663 1.43903 0.642637 0
M  V30 6703 C 698.911 1.45791 1.39962 0
M  V30 6704 C 699.232 0.0873144 1.94804 0
M  V30 6705 O 698.502 -0.878825 1.75081 0
M  V30 6706 H 697.082 0.536797 0.519479 0
M  V30 6707 H 699.744 1.7959 0.757189 0
M  V30 6708 H 698.84 2.17665 2.2367 0
M  V30 6709 N 699.141 -0.881989 1.30609 0
M  V30 6710 C 700.418 -1.61563 1.10258 0
M  V30 6711 C 700.798 -2.08228 -0.347053 0
M  V30 6712 O 700.146 -1.85151 -1.33908 0
M  V30 6713 C 700.356 -2.78287 2.10612 0
M  V30 6714 C 701.704 -3.48545 2.4249 0
M  V30 6715 O 702.728 -2.88479 2.08945 0
M  V30 6716 O 701.587 -4.56873 2.99883 0
M  V30 6717 H 698.681 -0.710238 0.423663 0
M  V30 6718 H 701.227 -0.928503 1.42045 0
M  V30 6719 H 699.999 -2.41131 3.08174 0
M  V30 6720 H 699.622 -3.54695 1.79659 0
M  V30 6721 N 700.619 -1.13374 -1.09472 0
M  V30 6722 C 701.847 -0.918351 -1.85402 0
M  V30 6723 C 702.262 0.53281 -1.81126 0
M  V30 6724 O 701.619 1.36879 -1.20708 0
M  V30 6725 C 701.67 -1.39743 -3.33398 0
M  V30 6726 O 701.391 -2.79172 -3.37631 0
M  V30 6727 C 702.892 -1.22042 -4.2617 0
M  V30 6728 H 700.112 -0.327511 -0.585643 0
M  V30 6729 H 702.656 -1.50617 -1.38328 0
M  V30 6730 H 700.811 -0.852619 -3.77901 0
M  V30 6731 H 701.225 -3.00428 -4.29934 0
M  V30 6732 H 702.699 -1.60438 -5.2817 0
M  V30 6733 H 703.176 -0.162047 -4.38901 0
M  V30 6734 H 703.782 -1.75323 -3.87482 0
M  V30 6735 N 702.098 1.27442 -0.927168 0
M  V30 6736 C 703.375 1.89473 -0.485742 0
M  V30 6737 C 703.755 1.83922 1.03614 0
M  V30 6738 O 703.103 1.28409 1.89007 0
M  V30 6739 C 703.313 3.33417 -1.03123 0
M  V30 6740 C 704.661 4.10333 -1.0914 0
M  V30 6741 O 705.685 3.4243 -0.98082 0
M  V30 6742 O 704.544 5.31737 -1.26165 0
M  V30 6743 H 701.638 0.812124 -0.156154 0
M  V30 6744 H 704.184 1.35713 -1.01882 0
M  V30 6745 H 702.956 3.31747 -2.07508 0
M  V30 6746 H 702.579 3.94695 -0.479767 0
M  V30 6747 N 703.576 0.692616 1.41565 0
M  V30 6748 C 704.822 0.222664 2.01574 0
M  V30 6749 C 705.155 -1.1737 1.54719 0
M  V30 6750 O 704.43 -1.79161 0.757084 0
M  V30 6751 C 704.713 0.277064 3.59033 0
M  V30 6752 C 704.566 1.71016 4.16021 0
M  V30 6753 C 705.885 -0.36479 4.38586 0
M  V30 6754 H 703.004 0.0823839 0.732381 0
M  V30 6755 H 705.646 0.880778 1.68352 0
M  V30 6756 H 703.796 -0.283288 3.87466 0
M  V30 6757 H 705.468 2.32413 3.98475 0
M  V30 6758 H 703.711 2.24525 3.71175 0
M  V30 6759 H 704.382 1.69978 5.25178 0
M  V30 6760 H 706.858 0.112404 4.15948 0
M  V30 6761 H 705.734 -0.296169 5.481 0
M  V30 6762 H 705.995 -1.44506 4.17816 0
M  V30 6763 N 705.054 -1.51416 0.437162 0
M  V30 6764 C 706.465 -1.86682 -0.0260005 0
M  V30 6765 C 706.816 -1.35432 -1.4196 0
M  V30 6766 O 705.941 -0.705055 -2.04592 0
M  V30 6767 C 706.536 -3.38757 -0.0539577 0
M  V30 6768 C 705.095 -3.7356 -0.461532 0
M  V30 6769 C 704.242 -2.75134 0.345924 0
M  V30 6770 H 707.193 -1.44642 0.653013 0
M  V30 6771 H 707.214 -3.70573 -0.863478 0
M  V30 6772 H 706.726 -3.76028 0.96045 0
M  V30 6773 H 704.827 -3.41878 -1.48155 0
M  V30 6774 H 704.94 -4.78737 -0.186451 0
M  V30 6775 H 703.304 -2.53947 -0.195739 0
M  V30 6776 H 704.087 -3.15247 1.35921 0
M  V30 6777 N 706.532 -0.168513 -1.56696 0
M  V30 6778 C 707.772 0.479648 -1.98693 0
M  V30 6779 C 708.136 1.60609 -1.05209 0
M  V30 6780 O 709.337 2.3166 -1.36334 0
M  V30 6781 C 707.608 0.952852 -3.44464 0
M  V30 6782 S 709.167 1.60259 -4.08488 0
M  V30 6783 H 705.985 0.154377 -0.694038 0
M  V30 6784 H 708.587 -0.265312 -1.93691 0
M  V30 6785 H 707.291 0.12257 -4.10217 0
M  V30 6786 H 706.822 1.73192 -3.53225 0
M  V30 6787 H 708.837 2.89065 -4.03307 0
M  V30 6788 N 708.01 1.57248 0.105221 0
M  V30 6789 C 709.259 1.84756 0.809198 0
M  V30 6790 C 709.572 0.756262 1.80389 0
M  V30 6791 O 710.778 0.918158 2.55504 0
M  V30 6792 C 709.234 3.27613 1.48989 0
M  V30 6793 C 708.842 4.44788 0.535484 0
M  V30 6794 C 710.586 3.64356 2.17819 0
M  V30 6795 C 708.493 5.78676 1.22019 0
M  V30 6796 H 707.423 0.689139 0.305946 0
M  V30 6797 H 710.074 1.83395 0.0620371 0
M  V30 6798 H 708.456 3.23485 2.28415 0
M  V30 6799 H 709.63 4.60243 -0.226557 0
M  V30 6800 H 707.945 4.16374 -0.0465769 0
M  V30 6801 H 710.542 4.61663 2.69761 0
M  V30 6802 H 710.885 2.92474 2.96251 0
M  V30 6803 H 711.418 3.70328 1.45264 0
M  V30 6804 H 708.157 6.53763 0.476875 0
M  V30 6805 H 707.677 5.67083 1.9539 0
M  V30 6806 H 709.356 6.22897 1.74952 0
M  V30 6807 N 709.488 -0.375779 1.53054 0
M  V30 6808 C 710.736 -1.11727 1.68409 0
M  V30 6809 C 711.057 -1.90127 0.43323 0
M  V30 6810 O 710.327 -1.87945 -0.552595 0
M  V30 6811 H 708.907 -0.415451 0.620813 0
M  V30 6812 H 711.569 -0.424869 1.90213 0
M  V30 6813 H 710.665 -1.8128 2.54055 0
M  V30 6814 N 710.966 -1.44241 -0.634997 0
M  V30 6815 C 712.377 -1.41622 -1.21655 0
M  V30 6816 C 712.728 -0.129584 -1.95772 0
M  V30 6817 O 711.853 0.770225 -2.02229 0
M  V30 6818 C 712.448 -2.56557 -2.21278 0
M  V30 6819 C 711.007 -2.57145 -2.7487 0
M  V30 6820 C 710.154 -2.33354 -1.49804 0
M  V30 6821 H 713.105 -1.52878 -0.425905 0
M  V30 6822 H 713.126 -2.29089 -3.03807 0
M  V30 6823 H 712.638 -3.50186 -1.67306 0
M  V30 6824 H 710.739 -1.67447 -3.32855 0
M  V30 6825 H 710.852 -3.55507 -3.21172 0
M  V30 6826 H 709.216 -1.82372 -1.77799 0
M  V30 6827 H 709.999 -3.29092 -0.977402 0
M  V30 6828 N 712.444 0.87505 -1.31075 0
M  V30 6829 C 713.86 1.15997 -1.09622 0
M  V30 6830 C 714.06 2.01036 0.136611 0
M  V30 6831 O 713.116 2.38559 0.827397 0
M  V30 6832 C 714.429 1.85702 -2.36506 0
M  V30 6833 C 715.977 1.98425 -2.42067 0
M  V30 6834 C 716.452 2.71544 -3.68819 0
M  V30 6835 N 717.943 2.79084 -3.69684 0
M  V30 6836 C 718.678 3.36259 -4.64454 0
M  V30 6837 N 718.174 3.94406 -5.69575 0
M  V30 6838 N 719.967 3.34169 -4.51982 0
M  V30 6839 H 712.118 0.308258 -2.10151 0
M  V30 6840 H 714.381 0.199145 -0.926847 0
M  V30 6841 H 714.087 1.30663 -3.26527 0
M  V30 6842 H 713.961 2.86017 -2.45915 0
M  V30 6843 H 716.348 2.5263 -1.52518 0
M  V30 6844 H 716.429 0.971682 -2.36626 0
M  V30 6845 H 716.073 2.18008 -4.58732 0
M  V30 6846 H 716.003 3.73198 -3.71525 0
M  V30 6847 H 718.494 2.3781 -2.93691 0
M  V30 6848 H 718.807 4.36129 -6.37974 0
M  V30 6849 H 717.152 3.92797 -5.73355 0
M  V30 6850 H 720.343 2.87977 -3.69035 0
M  V30 6851 H 720.516 3.78431 -5.26017 0
M  V30 6852 N 713.922 1.13953 1.08869 0
M  V30 6853 C 715.199 0.815768 1.77777 0
M  V30 6854 C 715.579 -0.691624 1.99449 0
M  V30 6855 O 714.927 -1.63085 1.60049 0
M  V30 6856 C 715.137 1.60916 3.09689 0
M  V30 6857 C 716.485 1.80549 3.84301 0
M  V30 6858 O 717.509 1.57562 3.19457 0
M  V30 6859 O 716.368 2.18946 5.00724 0
M  V30 6860 H 713.462 0.298445 0.771271 0
M  V30 6861 H 716.008 1.24446 1.15374 0
M  V30 6862 H 714.78 2.6333 2.89435 0
M  V30 6863 H 714.403 1.17578 3.79817 0
M  V30 6864 N 715.4 -1.26948 0.933913 0
M  V30 6865 C 716.63 -1.97898 0.593279 0
M  V30 6866 C 717.038 -1.69806 -0.834412 0
M  V30 6867 O 716.381 -0.958704 -1.56699 0
M  V30 6868 C 716.443 -3.51657 0.746825 0
M  V30 6869 C 716.107 -4.03384 2.14779 0
M  V30 6870 C 717.104 -4.15682 3.12257 0
M  V30 6871 C 714.789 -4.37577 2.46641 0
M  V30 6872 C 716.783 -4.61455 4.39702 0
M  V30 6873 C 714.47 -4.8304 3.7432 0
M  V30 6874 C 715.468 -4.94939 4.70664 0
M  V30 6875 O 715.156 -5.39403 5.96071 0
M  V30 6876 H 714.888 -0.63814 0.223055 0
M  V30 6877 H 717.442 -1.62608 1.2549 0
M  V30 6878 H 715.672 -3.8669 0.0280889 0
M  V30 6879 H 717.361 -4.03821 0.410328 0
M  V30 6880 H 718.127 -3.89519 2.88964 0
M  V30 6881 H 714.006 -4.27554 1.72391 0
M  V30 6882 H 717.55 -4.70658 5.14905 0
M  V30 6883 H 713.447 -5.08646 3.97429 0
M  V30 6884 H 714.215 -5.57641 5.99148 0
M  V30 6885 N 716.879 -0.700114 -1.41195 0
M  V30 6886 C 718.109 -0.241828 -2.0518 0
M  V30 6887 C 718.517 1.1157 -1.52803 0
M  V30 6888 O 717.86 1.70926 -0.673042 0
M  V30 6889 C 717.922 -0.12695 -3.59276 0
M  V30 6890 C 717.586 -1.41725 -4.34469 0
M  V30 6891 C 718.583 -2.35604 -4.63451 0
M  V30 6892 C 716.268 -1.67189 -4.73659 0
M  V30 6893 C 718.262 -3.53204 -5.3059 0
M  V30 6894 C 715.949 -2.85073 -5.40534 0
M  V30 6895 C 716.947 -3.77904 -5.68927 0
M  V30 6896 O 716.635 -4.93723 -6.34424 0
M  V30 6897 H 716.367 -0.109247 -0.667114 0
M  V30 6898 H 718.921 -0.954538 -1.81873 0
M  V30 6899 H 717.151 0.641571 -3.81341 0
M  V30 6900 H 718.84 0.294748 -4.04828 0
M  V30 6901 H 719.606 -2.1719 -4.33651 0
M  V30 6902 H 715.485 -0.957935 -4.50937 0
M  V30 6903 H 719.029 -4.25679 -5.52669 0
M  V30 6904 H 714.926 -3.03402 -5.69752 0
M  V30 6905 H 715.694 -4.93597 -6.5292 0
M  V30 6906 N 718.357 1.51182 -0.445186 0
M  V30 6907 C 719.634 1.9478 0.178965 0
M  V30 6908 C 720.014 1.38428 1.59376 0
M  V30 6909 O 719.362 0.574552 2.21159 0
M  V30 6910 C 719.572 3.48683 0.148711 0
M  V30 6911 C 720.92 4.23152 0.35042 0
M  V30 6912 O 721.944 3.55479 0.226474 0
M  V30 6913 O 720.803 5.4322 0.597893 0
M  V30 6914 H 717.897 0.817387 0.12573 0
M  V30 6915 H 720.443 1.62051 -0.503729 0
M  V30 6916 H 719.215 3.82176 -0.84009 0
M  V30 6917 H 718.838 3.87875 0.873979 0
M  V30 6918 N 719.835 0.176821 1.56605 0
M  V30 6919 C 721.083 -0.465793 1.96659 0
M  V30 6920 C 721.404 -1.63406 1.06412 0
M  V30 6921 O 720.674 -1.95457 0.131603 0
M  V30 6922 H 719.254 -0.175072 0.726195 0
M  V30 6923 H 721.916 0.25929 1.93168 0
M  V30 6924 H 721.012 -0.822138 3.01077 0
M  V30 6925 N 721.313 -1.57302 -0.09688 0
M  V30 6926 C 722.559 -1.87144 -0.796778 0
M  V30 6927 C 722.914 -0.767428 -1.76432 0
M  V30 6928 O 722.207 0.230728 -1.90206 0
M  V30 6929 C 722.401 -3.21272 -1.56586 0
M  V30 6930 C 722.23 -4.44616 -0.674295 0
M  V30 6931 C 721 -5.04281 -0.320705 0
M  V30 6932 C 723.198 -5.14297 0.0179445 0
M  V30 6933 N 721.18 -6.11162 0.579206 0
M  V30 6934 C 722.551 -6.15125 0.775992 0
M  V30 6935 C 724.606 -4.97815 0.0920521 0
M  V30 6936 C 723.309 -7.01251 1.60122 0
M  V30 6937 C 725.335 -5.84447 0.904175 0
M  V30 6938 C 724.697 -6.84794 1.65035 0
M  V30 6939 H 720.796 -0.734721 -0.267787 0
M  V30 6940 H 723.38 -1.94609 -0.0593955 0
M  V30 6941 H 721.551 -3.14862 -2.27413 0
M  V30 6942 H 723.283 -3.38846 -2.21281 0
M  V30 6943 H 720.038 -4.68866 -0.667961 0
M  V30 6944 H 720.462 -6.69247 1.02166 0
M  V30 6945 H 725.104 -4.20174 -0.470492 0
M  V30 6946 H 722.822 -7.78284 2.17484 0
M  V30 6947 H 726.408 -5.73755 0.964165 0
M  V30 6948 H 725.288 -7.50668 2.26864 0
M  V30 6949 N 722.791 0.367657 -1.53252 0
M  V30 6950 C 724.019 1.13119 -1.73239 0
M  V30 6951 C 724.434 1.831 -0.460404 0
M  V30 6952 O 723.791 1.73483 0.566557 0
M  V30 6953 C 723.842 2.16308 -2.89643 0
M  V30 6954 O 723.563 1.49175 -4.1192 0
M  V30 6955 C 725.064 3.05224 -3.21486 0
M  V30 6956 H 722.284 0.338318 -0.579467 0
M  V30 6957 H 724.828 0.42721 -1.99988 0
M  V30 6958 H 722.983 2.82307 -2.65295 0
M  V30 6959 H 723.397 2.17912 -4.7709 0
M  V30 6960 H 724.871 3.73613 -4.06346 0
M  V30 6961 H 725.348 3.69919 -2.36763 0
M  V30 6962 H 725.954 2.44843 -3.47753 0
M  V30 6963 N 724.269 1.44576 0.627338 0
M  V30 6964 C 725.509 1.49083 1.39834 0
M  V30 6965 C 725.873 0.121643 1.91614 0
M  V30 6966 O 727.074 0.0413885 2.68768 0
M  V30 6967 C 725.345 2.52467 2.52973 0
M  V30 6968 S 726.904 2.7605 3.41089 0
M  V30 6969 H 723.722 0.527252 0.476997 0
M  V30 6970 H 726.324 1.81525 0.725872 0
M  V30 6971 H 725.028 3.50646 2.13249 0
M  V30 6972 H 724.559 2.2161 3.25042 0
M  V30 6973 H 726.574 2.07932 4.50531 0
M  V30 6974 N 725.747 -0.868086 1.31537 0
M  V30 6975 C 727.024 -1.60384 1.11965 0
M  V30 6976 C 727.404 -2.08584 -0.324949 0
M  V30 6977 O 726.752 -1.86561 -1.31937 0
M  V30 6978 C 726.962 -2.76038 2.13551 0
M  V30 6979 C 728.31 -3.45954 2.46173 0
M  V30 6980 O 729.334 -2.86247 2.11993 0
M  V30 6981 O 728.193 -4.53666 3.04711 0
M  V30 6982 H 725.287 -0.705705 0.431172 0
M  V30 6983 H 727.833 -0.913385 1.43022 0
M  V30 6984 H 726.605 -2.37849 3.10714 0
M  V30 6985 H 726.228 -3.52769 1.83411 0
M  V30 6986 N 727.225 -1.14528 -1.08264 0
M  V30 6987 C 728.455 -0.936604 -1.8415 0
M  V30 6988 C 728.863 0.518298 -1.81962 0
M  V30 6989 O 728.206 1.37096 -1.22272 0
M  V30 6990 C 728.268 -1.36182 -3.32708 0
M  V30 6991 C 727.932 -2.83257 -3.58629 0
M  V30 6992 C 728.929 -3.81366 -3.5335 0
M  V30 6993 C 726.614 -3.20704 -3.86593 0
M  V30 6994 C 728.608 -5.14929 -3.75668 0
M  V30 6995 C 726.295 -4.54443 -4.08564 0
M  V30 6996 C 727.293 -5.51365 -4.03095 0
M  V30 6997 O 726.981 -6.8269 -4.24488 0
M  V30 6998 H 726.713 -0.333254 -0.588148 0
M  V30 6999 H 729.267 -1.5247 -1.3763 0
M  V30 7000 H 727.497 -0.717063 -3.79994 0
M  V30 7001 H 729.186 -1.12372 -3.90035 0
M  V30 7002 H 729.952 -3.53781 -3.31759 0
M  V30 7003 H 725.831 -2.45857 -3.89969 0
M  V30 7004 H 729.375 -5.90568 -3.71315 0
M  V30 7005 H 725.272 -4.81747 -4.29639 0
M  V30 7006 H 726.04 -6.8897 -4.41886 0
M  V30 7007 N 728.703 1.26451 -0.940633 0
M  V30 7008 C 730.119 1.4608 -0.642859 0
M  V30 7009 C 730.319 1.84765 0.803998 0
M  V30 7010 O 729.375 1.96902 1.58069 0
M  V30 7011 C 730.688 2.54359 -1.60381 0
M  V30 7012 C 732.236 2.6821 -1.61345 0
M  V30 7013 C 732.711 3.79659 -2.56169 0
M  V30 7014 N 734.202 3.87051 -2.54452 0
M  V30 7015 C 734.937 4.72739 -3.24507 0
M  V30 7016 N 734.433 5.6282 -4.03987 0
M  V30 7017 N 736.226 4.66581 -3.13462 0
M  V30 7018 H 728.377 0.996289 -1.87584 0
M  V30 7019 H 730.64 0.498921 -0.80609 0
M  V30 7020 H 730.346 2.32758 -2.6366 0
M  V30 7021 H 730.22 3.52005 -1.35545 0
M  V30 7022 H 732.607 2.89184 -0.587913 0
M  V30 7023 H 732.688 1.7101 -1.90235 0
M  V30 7024 H 732.332 3.59438 -3.58841 0
M  V30 7025 H 732.262 4.76315 -2.2457 0
M  V30 7026 H 734.753 3.22649 -1.96739 0
M  V30 7027 H 735.066 6.25095 -4.54396 0
M  V30 7028 H 733.411 5.62574 -4.08088 0
M  V30 7029 H 736.602 3.9521 -2.50852 0
M  V30 7030 H 736.775 5.33141 -3.68327 0
M  V30 7031 N 730.181 0.707592 1.40822 0
M  V30 7032 C 731.111 0.0644925 2.33411 0
M  V30 7033 C 732.092 -0.754205 1.52466 0
M  V30 7034 O 733.277 -0.704749 1.80961 0
M  V30 7035 C 730.407 -0.863865 3.36385 0
M  V30 7036 C 729.361 -0.15138 4.27732 0
M  V30 7037 C 728.687 -1.19491 5.21177 0
M  V30 7038 C 729.987 0.989607 5.12839 0
M  V30 7039 H 731.681 0.837829 2.87438 0
M  V30 7040 H 729.227 0.404346 1.38207 0
M  V30 7041 H 731.18 -1.32309 4.0009 0
M  V30 7042 H 729.904 -1.66901 2.80734 0
M  V30 7043 H 728.563 0.287937 3.65467 0
M  V30 7044 H 728.211 -1.9929 4.61836 0
M  V30 7045 H 727.911 -0.723123 5.83134 0
M  V30 7046 H 729.435 -1.6544 5.8776 0
M  V30 7047 H 730.849 0.610114 5.70044 0
M  V30 7048 H 729.246 1.38926 5.83798 0
M  V30 7049 H 730.316 1.82389 4.49291 0
M  V30 7050 N 731.66 -1.50943 0.453197 0
M  V30 7051 C 732.937 -1.94872 -0.168633 0
M  V30 7052 C 733.317 -1.39272 -1.5864 0
M  V30 7053 O 732.665 -0.586272 -2.20851 0
M  V30 7054 C 732.875 -3.48757 -0.130217 0
M  V30 7055 C 734.223 -4.23331 -0.327975 0
M  V30 7056 O 735.247 -3.55594 -0.207619 0
M  V30 7057 O 734.106 -5.43529 -0.569077 0
M  V30 7058 H 731.2 -0.818042 -0.121394 0
M  V30 7059 H 733.746 -1.61782 0.512316 0
M  V30 7060 H 732.518 -3.81725 0.860346 0
M  V30 7061 H 732.141 -3.88333 -0.853397 0
M  V30 7062 N 733.138 -0.185124 -1.56509 0
M  V30 7063 C 734.384 0.456934 -1.97585 0
M  V30 7064 C 734.717 1.61957 -1.07161 0
M  V30 7065 O 733.992 1.9412 -0.121546 0
M  V30 7066 C 734.275 0.926666 -3.47973 0
M  V30 7067 C 734.128 -0.237097 -4.49175 0
M  V30 7068 C 735.447 1.79561 -4.01803 0
M  V30 7069 H 732.566 0.164619 -0.71838 0
M  V30 7070 H 735.208 -0.274039 -1.88013 0
M  V30 7071 H 733.358 1.54954 -3.56261 0
M  V30 7072 H 735.03 -0.87454 -4.52934 0
M  V30 7073 H 733.273 -0.890446 -4.24563 0
M  V30 7074 H 733.944 0.133924 -5.51838 0
M  V30 7075 H 736.42 1.27039 -3.96232 0
M  V30 7076 H 735.296 2.09327 -5.07418 0
M  V30 7077 H 735.557 2.74629 -3.46455 0
M  V30 7078 N 734.616 1.57351 0.0885366 0
M  V30 7079 C 735.841 1.91011 0.80805 0
M  V30 7080 C 736.266 0.780009 1.71165 0
M  V30 7081 O 735.624 -0.268083 1.79307 0
M  V30 7082 C 735.672 3.23562 1.59185 0
M  V30 7083 O 734.776 3.11615 2.7013 0
M  V30 7084 H 734.117 0.625943 0.221565 0
M  V30 7085 H 736.647 2.04507 0.0617954 0
M  V30 7086 H 736.657 3.5703 1.97468 0
M  V30 7087 H 735.332 4.05398 0.928741 0
M  V30 7088 H 733.909 2.89673 2.34827 0
M  V30 7089 N 736.094 -0.359525 1.53444 0
M  V30 7090 C 737.342 -1.09935 1.69584 0
M  V30 7091 C 737.663 -1.89656 0.453371 0
M  V30 7092 O 736.933 -1.8852 -0.53263 0
M  V30 7093 H 735.513 -0.408843 0.625185 0
M  V30 7094 H 738.175 -0.40467 1.90653 0
M  V30 7095 H 737.271 -1.78575 2.55964 0
M  V30 7096 N 737.572 -1.44907 -0.619662 0
M  V30 7097 C 738.82 -1.47999 -1.37625 0
M  V30 7098 C 739.141 -0.118295 -1.94641 0
M  V30 7099 O 738.411 0.85086 -1.76457 0
M  V30 7100 H 736.991 -0.544993 -0.510873 0
M  V30 7101 H 739.653 -1.80772 -0.728522 0
M  V30 7102 H 738.749 -2.21196 -2.20179 0
M  V30 7103 N 739.05 0.861098 -1.31996 0
M  V30 7104 C 740.296 1.61707 -1.23379 0
M  V30 7105 C 740.651 1.91315 0.204026 0
M  V30 7106 O 739.944 1.53997 1.13998 0
M  V30 7107 C 740.138 2.94822 -2.02027 0
M  V30 7108 C 739.967 2.78212 -3.5331 0
M  V30 7109 C 738.737 2.76933 -4.22654 0
M  V30 7110 C 740.935 2.52432 -4.48088 0
M  V30 7111 N 738.917 2.51466 -5.60034 0
M  V30 7112 C 740.288 2.36312 -5.73198 0
M  V30 7113 C 742.343 2.37848 -4.37416 0
M  V30 7114 C 741.046 2.0709 -6.88844 0
M  V30 7115 C 743.072 2.10016 -5.52854 0
M  V30 7116 C 742.434 1.94691 -6.7696 0
M  V30 7117 H 738.533 0.595703 -0.506618 0
M  V30 7118 H 741.117 1.01275 -1.66287 0
M  V30 7119 H 739.288 3.53243 -1.61474 0
M  V30 7120 H 741.02 3.59756 -1.85358 0
M  V30 7121 H 737.775 2.89638 -3.74709 0
M  V30 7122 H 738.199 2.41679 -6.32392 0
M  V30 7123 H 742.841 2.4842 -3.42122 0
M  V30 7124 H 740.559 1.95256 -7.84156 0
M  V30 7125 H 744.145 1.99519 -5.46519 0
M  V30 7126 H 743.025 1.7346 -7.64775 0
M  V30 7127 N 740.528 1.15101 1.07655 0
M  V30 7128 C 741.758 0.946357 1.83651 0
M  V30 7129 C 742.166 -0.508641 1.82235 0
M  V30 7130 O 741.509 -1.36445 1.22997 0
M  V30 7131 C 741.571 1.37945 3.31981 0
M  V30 7132 C 741.235 2.85155 3.57122 0
M  V30 7133 C 742.232 3.83234 3.51323 0
M  V30 7134 C 739.917 3.2275 3.84887 0
M  V30 7135 C 741.911 5.16914 3.72932 0
M  V30 7136 C 739.598 4.56604 4.06148 0
M  V30 7137 C 740.596 5.53495 4.00165 0
M  V30 7138 O 740.284 6.84931 4.20861 0
M  V30 7139 H 740.016 0.336368 0.586372 0
M  V30 7140 H 742.57 1.53198 1.36819 0
M  V30 7141 H 740.8 0.737205 3.79608 0
M  V30 7142 H 742.489 1.14439 3.89434 0
M  V30 7143 H 743.255 3.55535 3.29878 0
M  V30 7144 H 739.134 2.47921 3.88659 0
M  V30 7145 H 742.678 5.92529 3.68178 0
M  V30 7146 H 738.575 4.84019 4.27078 0
M  V30 7147 H 739.343 6.91304 4.38226 0
M  V30 7148 N 742.006 -1.2595 0.947325 0
M  V30 7149 C 743.283 -1.88676 0.515824 0
M  V30 7150 C 743.663 -1.85547 -1.00675 0
M  V30 7151 O 743.011 -1.31399 -1.8694 0
M  V30 7152 C 743.221 -3.31734 1.08415 0
M  V30 7153 C 744.569 -4.08545 1.15654 0
M  V30 7154 O 745.593 -3.40826 1.03517 0
M  V30 7155 O 744.452 -5.29663 1.34608 0
M  V30 7156 H 741.546 -0.809537 0.169055 0
M  V30 7157 H 744.092 -1.34075 1.04029 0
M  V30 7158 H 742.864 -3.28404 2.1276 0
M  V30 7159 H 742.487 -3.93882 0.542499 0
M  V30 7160 N 743.484 -0.715051 -1.40445 0
M  V30 7161 C 744.447 -0.0708726 -2.2909 0
M  V30 7162 C 745.447 0.687926 -1.45342 0
M  V30 7163 O 746.637 0.519908 -1.66261 0
M  V30 7164 C 743.769 0.909528 -3.28543 0
M  V30 7165 H 744.962 -0.851611 -2.87555 0
M  V30 7166 H 742.515 -0.479674 -1.48758 0
M  V30 7167 H 743.25 1.71734 -2.75096 0
M  V30 7168 H 743.035 0.368318 -3.90366 0
M  V30 7169 H 744.525 1.35744 -3.94922 0
M  V30 7170 N 744.962 1.50701 -0.461195 0
M  V30 7171 C 746.21 2.01867 0.0970051 0
M  V30 7172 C 746.531 1.34591 1.41104 0
M  V30 7173 O 745.801 0.488041 1.89723 0
M  V30 7174 H 744.381 0.74599 0.0388392 0
M  V30 7175 H 747.043 1.85129 -0.609357 0
M  V30 7176 H 746.139 3.11051 0.255688 0
M  V30 7177 N 746.441 0.193421 1.56409 0
M  V30 7178 C 747.718 -0.493318 1.89277 0
M  V30 7179 C 748.098 -1.79765 1.10669 0
M  V30 7180 O 747.446 -2.27558 0.207274 0
M  V30 7181 C 747.656 -0.713732 3.41624 0
M  V30 7182 C 749.004 -1.03385 4.11821 0
M  V30 7183 O 750.028 -0.801511 3.47065 0
M  V30 7184 O 748.887 -1.47327 5.26267 0
M  V30 7185 H 745.981 -0.256973 0.786062 0
M  V30 7186 H 748.527 0.23351 1.68086 0
M  V30 7187 H 747.299 0.207446 3.9075 0
M  V30 7188 H 746.922 -1.49308 3.68501 0
M  V30 7189 N 747.919 -1.57396 -0.0801906 0
M  V30 7190 C 748.869 -1.9955 -1.10289 0
M  V30 7191 C 749.853 -0.876234 -1.34948 0
M  V30 7192 O 751.045 -1.14012 -1.35389 0
M  V30 7193 C 748.174 -2.43596 -2.419 0
M  V30 7194 C 747.26 -3.6224 -2.20551 0
M  V30 7195 N 747.651 -4.76693 -1.69109 0
M  V30 7196 C 745.949 -3.68627 -2.51059 0
M  V30 7197 C 746.65 -5.58577 -1.62379 0
M  V30 7198 N 745.626 -5.02178 -2.0813 0
M  V30 7199 H 749.428 -2.85483 -0.698335 0
M  V30 7200 H 746.942 -1.59837 -0.287395 0
M  V30 7201 H 748.939 -2.72031 -3.15919 0
M  V30 7202 H 747.599 -1.59047 -2.8308 0
M  V30 7203 H 748.61 -4.9915 -1.38092 0
M  V30 7204 H 745.287 -2.94772 -2.95661 0
M  V30 7205 H 746.677 -6.60447 -1.2353 0
M  V30 7206 N 749.397 0.351382 -1.53633 0
M  V30 7207 C 750.645 1.09034 -1.70165 0
M  V30 7208 C 750.966 1.89413 -0.463422 0
M  V30 7209 O 750.236 1.888 0.522624 0
M  V30 7210 H 748.816 0.405522 -0.627344 0
M  V30 7211 H 751.478 0.394554 -1.90865 0
M  V30 7212 H 750.574 1.77215 -2.56907 0
M  V30 7213 N 750.875 1.45233 0.611969 0
M  V30 7214 C 751.822 1.5357 1.72293 0
M  V30 7215 C 752.792 0.381912 1.6165 0
M  V30 7216 O 753.977 0.594765 1.81293 0
M  V30 7217 C 751.117 1.50419 3.10593 0
M  V30 7218 C 750.23 2.76316 3.32074 0
M  V30 7219 C 749.365 2.64866 4.60456 0
M  V30 7220 C 748.404 3.85838 4.7518 0
M  V30 7221 N 747.541 3.72949 5.94856 0
M  V30 7222 H 752.381 2.4848 1.64504 0
M  V30 7223 H 749.918 1.23302 0.802191 0
M  V30 7224 H 751.876 1.4658 3.90602 0
M  V30 7225 H 750.506 0.590621 3.17351 0
M  V30 7226 H 749.558 2.90261 2.45872 0
M  V30 7227 H 750.87 3.66055 3.38829 0
M  V30 7228 H 750.024 2.58969 5.48653 0
M  V30 7229 H 748.763 1.72719 4.56092 0
M  V30 7230 H 747.768 3.92099 3.85407 0
M  V30 7231 H 748.993 4.79045 4.81344 0
M  V30 7232 H 746.939 2.83567 5.91545 0
M  V30 7233 H 746.856 4.56319 6.02751 0
M  V30 7234 H 748.124 3.70976 6.85563 0
M  V30 7235 N 752.353 -0.854086 1.3245 0
M  V30 7236 C 753.583 -1.63836 1.25862 0
M  V30 7237 C 753.991 -1.88383 -0.175588 0
M  V30 7238 O 753.334 -1.45353 -1.1233 0
M  V30 7239 C 753.396 -3.02068 1.94923 0
M  V30 7240 C 753.06 -3.0056 3.44257 0
M  V30 7241 C 754.057 -2.77368 4.39731 0
M  V30 7242 C 751.742 -3.21177 3.862 0
M  V30 7243 C 753.736 -2.74797 5.75122 0
M  V30 7244 C 751.423 -3.18234 5.217 0
M  V30 7245 C 752.421 -2.95072 6.15972 0
M  V30 7246 O 752.109 -2.92003 7.48992 0
M  V30 7247 H 751.841 -0.517007 0.435523 0
M  V30 7248 H 754.395 -1.07314 1.75137 0
M  V30 7249 H 752.625 -3.60382 1.40219 0
M  V30 7250 H 754.314 -3.62791 1.82037 0
M  V30 7251 H 755.08 -2.61205 4.08653 0
M  V30 7252 H 750.959 -3.38231 3.13243 0
M  V30 7253 H 754.503 -2.56638 6.48678 0
M  V30 7254 H 750.4 -3.33941 5.52407 0
M  V30 7255 H 751.168 -3.07953 7.58358 0
M  V30 7256 N 753.831 -1.1567 -1.07043 0
M  V30 7257 C 755.077 -0.9349 -1.79965 0
M  V30 7258 C 755.41 0.536464 -1.86643 0
M  V30 7259 O 754.685 1.39781 -1.35247 0
M  V30 7260 C 754.968 -1.55371 -3.24857 0
M  V30 7261 C 754.821 -3.09589 -3.26305 0
M  V30 7262 C 756.14 -1.24209 -4.22209 0
M  V30 7263 H 753.259 -0.341061 -0.653335 0
M  V30 7264 H 755.901 -1.42883 -1.25237 0
M  V30 7265 H 754.051 -1.13368 -3.71591 0
M  V30 7266 H 755.723 -3.60521 -2.87789 0
M  V30 7267 H 753.966 -3.43315 -2.65174 0
M  V30 7268 H 754.637 -3.48002 -4.28484 0
M  V30 7269 H 757.113 -1.60548 -3.8388 0
M  V30 7270 H 755.989 -1.70119 -5.21872 0
M  V30 7271 H 756.25 -0.15964 -4.41812 0
M  V30 7272 N 755.309 1.25446 -0.953992 0
M  V30 7273 C 756.555 1.9343 -0.60933 0
M  V30 7274 C 756.888 1.74542 0.851388 0
M  V30 7275 O 756.163 1.09014 1.61078 0
M  V30 7276 C 756.446 3.46844 -0.968041 0
M  V30 7277 C 756.299 3.74961 -2.48444 0
M  V30 7278 C 757.618 4.37334 -0.492641 0
M  V30 7279 H 754.737 0.702502 -0.222844 0
M  V30 7280 H 757.379 1.48076 -1.19053 0
M  V30 7281 H 755.529 3.85604 -0.473465 0
M  V30 7282 H 757.201 3.45841 -3.05273 0
M  V30 7283 H 755.444 3.20589 -2.92241 0
M  V30 7284 H 756.115 4.82246 -2.68594 0
M  V30 7285 H 758.591 4.05873 -0.916878 0
M  V30 7286 H 757.467 5.43439 -0.772331 0
M  V30 7287 H 757.728 4.37908 0.607403 0
M  V30 7288 N 756.787 0.722489 1.40064 0
M  V30 7289 C 757.735 0.063329 2.32514 0
M  V30 7290 C 758.729 -0.73953 1.52405 0
M  V30 7291 O 759.935 -0.642122 1.68157 0
M  V30 7292 H 756.31 0.00167692 0.751998 0
M  V30 7293 H 758.281 0.859656 2.85749 0
M  V30 7294 C 757.03 -0.839219 3.3742 0
M  V30 7295 H 756.353 -0.230836 3.99133 0
M  V30 7296 H 757.793 -1.26827 4.04587 0
M  V30 7297 C 756.252 -1.96783 2.73456 0
M  V30 7298 O 756.782 -3.05933 2.60323 0
M  V30 7299 N 754.988 -1.75351 2.31734 0
M  V30 7300 H 754.535 -0.865787 2.42615 0
M  V30 7301 H 754.493 -2.51043 1.89275 0
M  V30 7302 N 758.265 -1.50454 0.469181 0
M  V30 7303 C 759.513 -2.01916 -0.0862982 0
M  V30 7304 C 759.834 -1.35337 -1.40388 0
M  V30 7305 O 759.104 -0.498096 -1.89462 0
M  V30 7306 H 757.684 -0.746185 -0.0348825 0
M  V30 7307 H 760.346 -1.84804 0.619167 0
M  V30 7308 H 759.442 -3.11182 -0.239189 0
M  V30 7309 N 759.743 -0.201713 -1.56304 0
M  V30 7310 C 760.991 0.434447 -1.97375 0
M  V30 7311 C 761.312 1.61692 -1.08998 0
M  V30 7312 O 760.582 1.95223 -0.162682 0
M  V30 7313 H 759.162 0.163497 -0.728888 0
M  V30 7314 H 761.824 -0.289988 -1.92731 0
M  V30 7315 H 760.92 0.774136 -3.02347 0
M  V30 7316 N 761.222 1.57436 0.0718424 0
M  V30 7317 C 762.471 1.86431 0.769826 0
M  V30 7318 C 762.784 0.794355 1.78744 0
M  V30 7319 O 763.99 0.972148 2.53499 0
M  V30 7320 C 762.446 3.307 1.42006 0
M  V30 7321 C 762.054 4.45824 0.441017 0
M  V30 7322 C 763.798 3.68894 2.10041 0
M  V30 7323 C 761.705 5.81134 1.09717 0
M  V30 7324 H 760.635 0.695474 0.291259 0
M  V30 7325 H 763.286 1.83485 0.0231224 0
M  V30 7326 H 761.668 3.28257 2.21502 0
M  V30 7327 H 762.842 4.59659 -0.32413 0
M  V30 7328 H 761.157 4.16181 -0.134886 0
M  V30 7329 H 763.754 4.67281 2.59908 0
M  V30 7330 H 764.097 2.98692 2.89981 0
M  V30 7331 H 764.63 3.73326 1.37376 0
M  V30 7332 H 761.369 6.54628 0.338095 0
M  V30 7333 H 760.889 5.711 1.83317 0
M  V30 7334 H 762.568 6.26468 1.617 0
M  V30 7335 N 762.7 -0.34323 1.53817 0
M  V30 7336 C 763.663 -1.40444 1.8113 0
M  V30 7337 C 764.663 -1.45604 0.682366 0
M  V30 7338 O 765.853 -1.45974 0.950649 0
M  V30 7339 C 762.985 -2.79369 1.95361 0
M  V30 7340 H 764.178 -1.17489 2.75928 0
M  V30 7341 H 761.731 -0.577636 1.45234 0
M  V30 7342 H 762.466 -3.07607 1.02707 0
M  V30 7343 H 762.251 -2.7702 2.77493 0
M  V30 7344 H 763.741 -3.56178 2.18008 0
M  V30 7345 N 764.178 -1.45556 -0.604258 0
M  V30 7346 C 765.424 -1.49968 -1.36519 0
M  V30 7347 C 765.757 -0.142236 -1.93678 0
M  V30 7348 O 765.032 0.843717 -1.75247 0
M  V30 7349 C 765.315 -2.58146 -2.51063 0
M  V30 7350 C 765.168 -4.03346 -1.99078 0
M  V30 7351 C 766.487 -2.62581 -3.53184 0
M  V30 7352 H 763.606 -0.545993 -0.495036 0
M  V30 7353 H 766.248 -1.77382 -0.680845 0
M  V30 7354 H 764.398 -2.34901 -3.09441 0
M  V30 7355 H 766.07 -4.37811 -1.45323 0
M  V30 7356 H 764.313 -4.13845 -1.30055 0
M  V30 7357 H 764.984 -4.74731 -2.81664 0
M  V30 7358 H 767.46 -2.83419 -3.04652 0
M  V30 7359 H 766.336 -3.40131 -4.30816 0
M  V30 7360 H 766.597 -1.67798 -4.09019 0
M  V30 7361 N 765.656 0.84705 -1.32902 0
M  V30 7362 C 766.904 1.5986 -1.2365 0
M  V30 7363 C 767.225 1.93974 0.199789 0
M  V30 7364 O 766.495 1.60273 1.12648 0
M  V30 7365 H 765.075 0.592696 -0.454665 0
M  V30 7366 H 767.737 1.01278 -1.66519 0
M  V30 7367 H 766.833 2.53218 -1.82448 0
M  V30 7368 N 767.134 1.16236 1.06428 0
M  V30 7369 C 768.066 0.825446 2.1382 0
M  V30 7370 C 769.079 -0.166707 1.61944 0
M  V30 7371 O 770.268 0.0578606 1.78406 0
M  V30 7372 C 767.368 0.208023 3.38261 0
M  V30 7373 C 766.541 1.23994 4.19457 0
M  V30 7374 C 765.6 0.642569 5.22262 0
M  V30 7375 O 764.626 1.31106 5.53895 0
M  V30 7376 N 765.828 -0.571327 5.77682 0
M  V30 7377 H 768.593 1.7497 2.43322 0
M  V30 7378 H 766.154 1.05951 1.22417 0
M  V30 7379 H 768.146 -0.204608 4.04182 0
M  V30 7380 H 766.716 -0.619752 3.06395 0
M  V30 7381 H 765.936 1.82879 3.49212 0
M  V30 7382 H 767.224 1.93638 4.70512 0
M  V30 7383 H 766.622 -1.13263 5.54245 0
M  V30 7384 H 765.179 -0.926187 6.45186 0
M  V30 7385 N 768.612 -1.24939 0.960631 0
M  V30 7386 C 769.542 -2.28 0.503815 0
M  V30 7387 C 770.523 -1.63959 -0.452928 0
M  V30 7388 O 771.708 -1.91009 -0.350585 0
M  V30 7389 C 768.838 -3.46643 -0.213535 0
M  V30 7390 C 767.792 -4.22903 0.658535 0
M  V30 7391 C 767.118 -5.34363 -0.189902 0
M  V30 7392 C 768.418 -4.84949 1.93963 0
M  V30 7393 H 770.112 -2.66462 1.36521 0
M  V30 7394 H 767.658 -1.28093 0.657897 0
M  V30 7395 H 769.611 -4.1787 -0.544286 0
M  V30 7396 H 768.335 -3.07187 -1.10923 0
M  V30 7397 H 766.994 -3.53467 0.972455 0
M  V30 7398 H 766.642 -4.91147 -1.08553 0
M  V30 7399 H 766.342 -5.86302 0.390331 0
M  V30 7400 H 767.866 -6.0842 -0.515484 0
M  V30 7401 H 769.28 -5.48288 1.67491 0
M  V30 7402 H 767.677 -5.47091 2.46601 0
M  V30 7403 H 768.747 -4.06799 2.639 0
M  V30 7404 N 770.09 -0.729906 -1.39679 0
M  V30 7405 C 771.02 -0.101618 -2.33279 0
M  V30 7406 C 772.001 0.729854 -1.53646 0
M  V30 7407 O 773.186 0.67587 -1.82059 0
M  V30 7408 C 770.316 0.81024 -3.37716 0
M  V30 7409 C 769.27 0.0833126 -4.27919 0
M  V30 7410 C 768.596 1.11185 -5.23012 0
M  V30 7411 C 769.896 -1.07107 -5.112 0
M  V30 7412 H 771.59 -0.883452 -2.86069 0
M  V30 7413 H 769.136 -0.426283 -1.37546 0
M  V30 7414 H 771.089 1.25927 -4.02145 0
M  V30 7415 H 769.813 1.62413 -2.83354 0
M  V30 7416 H 768.472 -0.346043 -3.64963 0
M  V30 7417 H 768.12 1.91917 -4.64948 0
M  V30 7418 H 767.82 0.63026 -5.8421 0
M  V30 7419 H 769.344 1.56068 -5.90318 0
M  V30 7420 H 770.758 -0.700726 -5.69002 0
M  V30 7421 H 769.155 -1.48196 -5.81514 0
M  V30 7422 H 770.225 -1.89513 -4.46332 0
M  V30 7423 N 771.568 1.50203 -0.477153 0
M  V30 7424 C 772.5 2.26508 0.350239 0
M  V30 7425 C 773.513 1.32081 0.95176 0
M  V30 7426 O 774.702 1.57546 0.839139 0
M  V30 7427 C 771.802 3.0361 1.50579 0
M  V30 7428 C 770.975 4.25438 1.01595 0
M  V30 7429 C 770.034 4.84783 2.04626 0
M  V30 7430 O 769.06 5.45528 1.62442 0
M  V30 7431 N 770.262 4.72318 3.37485 0
M  V30 7432 H 773.027 2.98155 -0.30394 0
M  V30 7433 H 770.588 1.58938 -0.308289 0
M  V30 7434 H 772.58 3.4019 2.1921 0
M  V30 7435 H 771.15 2.34724 2.06455 0
M  V30 7436 H 770.37 3.93894 0.155316 0
M  V30 7437 H 771.658 5.04413 0.666694 0
M  V30 7438 H 771.056 4.24022 3.74462 0
M  V30 7439 H 769.613 5.13149 4.01897 0
M  V30 7440 N 773.046 0.209999 1.56195 0
M  V30 7441 C 774.274 -0.429996 2.02382 0
M  V30 7442 C 774.689 -1.54159 1.08998 0
M  V30 7443 O 774.046 -1.82239 0.0974856 0
M  V30 7444 C 774.097 -0.972433 3.48175 0
M  V30 7445 O 773.818 0.0948231 4.37997 0
M  V30 7446 C 775.319 -1.68683 4.09952 0
M  V30 7447 H 772.539 -0.106475 0.662498 0
M  V30 7448 H 775.083 0.323072 2.01932 0
M  V30 7449 H 773.238 -1.67582 3.49278 0
M  V30 7450 H 773.652 -0.31113 5.23576 0
M  V30 7451 H 775.126 -2.01851 5.13771 0
M  V30 7452 H 775.603 -2.59587 3.54276 0
M  V30 7453 H 776.209 -1.02893 4.12666 0
M  V30 7454 N 774.524 -1.57472 -0.0634922 0
M  V30 7455 C 775.754 -1.91608 -0.772645 0
M  V30 7456 C 776.162 -0.805019 -1.71219 0
M  V30 7457 O 775.505 0.229941 -1.82255 0
M  V30 7458 C 775.567 -3.21281 -1.61304 0
M  V30 7459 C 775.231 -4.49177 -0.841973 0
M  V30 7460 C 776.228 -5.19661 -0.157494 0
M  V30 7461 C 773.913 -4.9578 -0.80669 0
M  V30 7462 C 775.907 -6.35006 0.551948 0
M  V30 7463 C 773.594 -6.11028 -0.0934812 0
M  V30 7464 C 774.592 -6.80493 0.58463 0
M  V30 7465 O 774.28 -7.93542 1.28633 0
M  V30 7466 H 774.012 -0.637685 -0.224352 0
M  V30 7467 H 776.566 -2.05369 -0.0355279 0
M  V30 7468 H 774.796 -3.03752 -2.39315 0
M  V30 7469 H 776.485 -3.41003 -2.20162 0
M  V30 7470 H 777.251 -4.84681 -0.176006 0
M  V30 7471 H 773.13 -4.41579 -1.32397 0
M  V30 7472 H 776.674 -6.89161 1.0818 0
M  V30 7473 H 772.571 -6.45459 -0.0729258 0
M  V30 7474 H 773.339 -8.09708 1.19646 0
M  V30 7475 N 776.003 0.335068 -1.53997 0
M  V30 7476 C 776.913 1.43511 -1.85585 0
M  V30 7477 C 777.929 1.57162 -0.746726 0
M  V30 7478 O 779.105 1.72477 -1.03988 0
M  V30 7479 C 776.17 2.78386 -2.06646 0
M  V30 7480 C 775.231 2.74007 -3.30483 0
M  V30 7481 C 774.464 4.02449 -3.50529 0
M  V30 7482 O 774.687 5.00147 -2.74242 0
M  V30 7483 O 773.621 4.06405 -4.4398 0
M  V30 7484 H 777.447 1.19731 -2.79102 0
M  V30 7485 H 775.032 0.528033 -1.39758 0
M  V30 7486 H 776.914 3.58247 -2.21894 0
M  V30 7487 H 775.589 3.0208 -1.16317 0
M  V30 7488 H 774.496 1.92736 -3.2063 0
M  V30 7489 H 775.829 2.55267 -4.20832 0
M  V30 7490 N 777.481 1.45874 0.596531 0
M  V30 7491 C 778.897 1.30524 0.918459 0
M  V30 7492 C 779.097 0.266429 1.99731 0
M  V30 7493 O 778.153 -0.335809 2.50257 0
M  V30 7494 C 779.466 2.68747 1.3489 0
M  V30 7495 C 781.014 2.7673 1.46251 0
M  V30 7496 C 781.489 4.15504 1.92667 0
M  V30 7497 N 782.98 4.17853 1.99883 0
M  V30 7498 C 783.715 5.22109 2.37044 0
M  V30 7499 N 783.211 6.36704 2.73094 0
M  V30 7500 N 785.004 5.09471 2.37479 0
M  V30 7501 H 777.155 2.12081 -0.116368 0
M  V30 7502 H 779.418 0.947941 0.0106033 0
M  V30 7503 H 779.124 3.46006 0.630288 0
M  V30 7504 H 778.998 2.97942 2.31323 0
M  V30 7505 H 781.385 1.99768 2.17202 0
M  V30 7506 H 781.466 2.51236 0.481054 0
M  V30 7507 H 781.11 4.92956 1.223 0
M  V30 7508 H 781.04 4.38396 2.91747 0
M  V30 7509 H 783.531 3.35163 1.74568 0
M  V30 7510 H 783.844 7.12041 3.00362 0
M  V30 7511 H 782.189 6.40087 2.70764 0
M  V30 7512 H 785.38 4.18987 2.08728 0
M  V30 7513 H 785.553 5.90837 2.66112 0
M  V30 7514 N 778.959 -0.83999 1.33349 0
M  V30 7515 C 779.922 -1.93128 1.23426 0
M  V30 7516 C 780.922 -1.60065 0.153599 0
M  V30 7517 O 782.112 -1.69425 0.405049 0
M  V30 7518 C 779.244 -3.28761 0.901622 0
M  V30 7519 H 780.437 -2.03352 2.20427 0
M  V30 7520 H 777.99 -1.03194 1.17391 0
M  V30 7521 H 778.725 -3.24233 -0.0659337 0
M  V30 7522 H 778.51 -3.54138 1.68311 0
M  V30 7523 H 780 -4.08714 0.856913 0
M  V30 7524 N 780.437 -1.16799 -1.0581 0
M  V30 7525 C 781.367 -0.902241 -2.15364 0
M  V30 7526 C 782.348 0.153351 -1.69407 0
M  V30 7527 O 783.533 0.00442032 -1.94199 0
M  V30 7528 C 780.663 -0.407911 -3.44896 0
M  V30 7529 C 779.617 -1.40197 -4.04387 0
M  V30 7530 C 778.943 -0.765848 -5.29187 0
M  V30 7531 C 780.243 -2.77316 -4.42598 0
M  V30 7532 H 781.937 -1.81841 -2.37853 0
M  V30 7533 H 779.483 -0.875731 -1.14311 0
M  V30 7534 H 781.436 -0.20945 -4.20879 0
M  V30 7535 H 780.16 0.54378 -3.22041 0
M  V30 7536 H 778.819 -1.58707 -3.30466 0
M  V30 7537 H 778.467 0.192482 -5.02632 0
M  V30 7538 H 778.167 -1.42939 -5.69949 0
M  V30 7539 H 779.691 -0.577519 -6.07863 0
M  V30 7540 H 781.105 -2.62561 -5.09642 0
M  V30 7541 H 779.502 -3.4019 -4.94359 0
M  V30 7542 H 780.572 -3.32199 -3.53231 0
M  V30 7543 N 781.915 1.24427 -0.967243 0
M  V30 7544 C 782.865 2.23143 -0.468106 0
M  V30 7545 C 783.849 1.5449 0.449633 0
M  V30 7546 O 785.041 1.74761 0.28063 0
M  V30 7547 C 782.17 3.42454 0.240867 0
M  V30 7548 C 781.256 4.18355 -0.695674 0
M  V30 7549 N 781.647 4.71428 -1.83273 0
M  V30 7550 C 779.945 4.43116 -0.506365 0
M  V30 7551 C 780.646 5.29041 -2.41849 0
M  V30 7552 N 779.622 5.16213 -1.70369 0
M  V30 7553 H 783.424 2.61795 -1.3357 0
M  V30 7554 H 780.938 1.39809 -0.826277 0
M  V30 7555 H 782.935 4.12329 0.615668 0
M  V30 7556 H 781.595 3.05323 1.10491 0
M  V30 7557 H 782.606 4.68177 -2.21428 0
M  V30 7558 H 779.283 4.16319 0.313747 0
M  V30 7559 H 780.673 5.80811 -3.37799 0
M  V30 7560 N 783.393 0.737304 1.3929 0
M  V30 7561 C 784.356 0.10731 2.28949 0
M  V30 7562 C 785.356 -0.664716 1.46418 0
M  V30 7563 O 786.546 -0.493392 1.67067 0
M  V30 7564 C 783.678 -0.857145 3.29948 0
M  V30 7565 H 784.871 0.89725 2.86163 0
M  V30 7566 H 782.424 0.503279 1.47976 0
M  V30 7567 H 783.159 -1.67336 2.77794 0
M  V30 7568 H 782.944 -0.306167 3.90903 0
M  V30 7569 H 784.434 -1.29444 3.97031 0
M  V30 7570 N 784.871 -1.49948 0.485112 0
M  V30 7571 C 786.119 -2.01996 -0.0648775 0
M  V30 7572 C 786.44 -1.36819 -1.38945 0
M  V30 7573 O 785.71 -0.518163 -1.88923 0
M  V30 7574 H 784.29 -0.746513 -0.0269662 0
M  V30 7575 H 786.952 -1.84136 0.638733 0
M  V30 7576 H 786.048 -3.11418 -0.20617 0
M  V30 7577 N 786.349 -0.21828 -1.56081 0
M  V30 7578 C 787.577 0.419258 -2.02608 0
M  V30 7579 C 787.992 1.53578 -1.09814 0
M  V30 7580 O 787.349 1.82185 -0.107149 0
M  V30 7581 C 787.4 0.953955 -3.48686 0
M  V30 7582 O 787.121 -0.11805 -4.37941 0
M  V30 7583 C 788.622 1.66506 -4.10841 0
M  V30 7584 H 785.842 0.10296 -0.663054 0
M  V30 7585 H 788.386 -0.333776 -2.01758 0
M  V30 7586 H 786.541 1.65727 -3.50162 0
M  V30 7587 H 786.955 0.283359 -5.23734 0
M  V30 7588 H 788.429 1.99123 -5.14834 0
M  V30 7589 H 788.906 2.57705 -3.55647 0
M  V30 7590 H 789.512 1.00703 -4.13206 0
M  V30 7591 N 787.827 1.57504 0.0551401 0
M  V30 7592 C 788.79 2.03826 1.04821 0
M  V30 7593 C 789.79 0.937968 1.30609 0
M  V30 7594 O 790.98 1.20237 1.2605 0
M  V30 7595 C 788.112 2.43309 2.38775 0
M  V30 7596 H 789.305 2.92802 0.6486 0
M  V30 7597 H 786.858 1.53368 0.301315 0
M  V30 7598 H 787.593 1.5741 2.83536 0
M  V30 7599 H 787.378 3.23615 2.21395 0
M  V30 7600 H 788.868 2.79666 3.10124 0
M  V30 7601 N 789.305 -0.326896 1.54172 0
M  V30 7602 C 790.582 -1.08326 1.62864 0
M  V30 7603 C 790.962 -2.06018 0.46039 0
M  V30 7604 O 790.31 -2.21889 -0.545685 0
M  V30 7605 C 790.52 -1.78816 2.9971 0
M  V30 7606 C 791.868 -2.31958 3.55641 0
M  V30 7607 O 792.892 -1.88888 3.01993 0
M  V30 7608 O 791.751 -3.10801 4.49517 0
M  V30 7609 H 788.845 -0.499131 0.659392 0
M  V30 7610 H 791.391 -0.327054 1.66519 0
M  V30 7611 H 790.163 -1.07739 3.76176 0
M  V30 7612 H 789.786 -2.61255 2.99719 0
M  V30 7613 N 790.784 -1.46188 -0.588786 0
M  V30 7614 C 791.747 -1.55882 -1.68029 0
M  V30 7615 C 792.747 -0.436515 -1.54762 0
M  V30 7616 O 793.937 -0.700626 -1.59489 0
M  V30 7617 C 791.069 -1.47332 -3.07418 0
M  V30 7618 H 792.262 -2.5315 -1.60795 0
M  V30 7619 H 789.815 -1.33908 -0.806116 0
M  V30 7620 H 790.55 -0.513193 -3.20214 0
M  V30 7621 H 790.335 -2.28753 -3.18456 0
M  V30 7622 H 791.825 -1.57187 -3.86887 0
M  V30 7623 N 792.262 0.832906 -1.33792 0
M  V30 7624 C 793.192 1.95828 -1.27176 0
M  V30 7625 C 794.173 1.69427 -0.15114 0
M  V30 7626 O 795.358 1.91167 -0.341886 0
M  V30 7627 C 792.488 3.32098 -1.01629 0
M  V30 7628 C 791.442 3.72912 -2.10049 0
M  V30 7629 C 790.768 5.07054 -1.69706 0
M  V30 7630 C 792.068 3.86064 -3.51783 0
M  V30 7631 H 793.762 2.01622 -2.21334 0
M  V30 7632 H 791.308 0.96866 -1.0655 0
M  V30 7633 H 793.261 4.10402 -0.956474 0
M  V30 7634 H 791.985 3.26577 -0.0390956 0
M  V30 7635 H 790.644 2.96876 -2.15082 0
M  V30 7636 H 790.292 4.9801 -0.706737 0
M  V30 7637 H 789.992 5.35333 -2.42264 0
M  V30 7638 H 791.516 5.87827 -1.65202 0
M  V30 7639 H 792.93 4.54665 -3.49218 0
M  V30 7640 H 791.327 4.25787 -4.22878 0
M  V30 7641 H 792.397 2.88344 -3.89854 0
M  V30 7642 N 793.74 1.17359 1.05189 0
M  V30 7643 C 794.703 0.892604 2.11105 0
M  V30 7644 C 795.703 -0.117236 1.60372 0
M  V30 7645 O 796.893 0.114936 1.7382 0
M  V30 7646 C 794.025 0.337032 3.3923 0
M  V30 7647 H 795.218 1.83169 2.37464 0
M  V30 7648 H 792.771 0.984051 1.21434 0
M  V30 7649 H 793.506 -0.609198 3.18527 0
M  V30 7650 H 793.291 1.06484 3.77364 0
M  V30 7651 H 794.781 0.158763 4.17298 0
M  V30 7652 N 795.218 -1.23913 0.973828 0
M  V30 7653 C 796.495 -1.87539 0.555729 0
M  V30 7654 C 796.875 -1.87641 -0.967162 0
M  V30 7655 O 796.223 -1.35335 -1.84111 0
M  V30 7656 C 796.433 -3.29359 1.15427 0
M  V30 7657 C 797.781 -4.06 1.24294 0
M  V30 7658 O 798.805 -3.38554 1.10723 0
M  V30 7659 O 797.664 -5.26689 1.45813 0
M  V30 7660 H 794.758 -0.805769 0.186188 0
M  V30 7661 H 797.304 -1.31838 1.06849 0
M  V30 7662 H 796.076 -3.23817 2.19678 0
M  V30 7663 H 795.699 -3.92642 0.625925 0
M  V30 7664 N 796.696 -0.74468 -1.38897 0
M  V30 7665 C 797.944 -0.296298 -1.99916 0
M  V30 7666 C 798.265 1.12325 -1.59399 0
M  V30 7667 O 797.535 1.76658 -0.846689 0
M  V30 7668 H 796.115 -0.106561 -0.73936 0
M  V30 7669 H 798.777 -0.956793 -1.69798 0
M  V30 7670 H 797.873 -0.352356 -3.10105 0
M  V30 7671 N 798.174 1.49689 -0.493057 0
M  V30 7672 C 799.402 2.06836 0.0513141 0
M  V30 7673 C 799.817 1.35436 1.31539 0
M  V30 7674 O 799.174 0.430248 1.77356 0
M  V30 7675 C 799.225 3.60107 0.317003 0
M  V30 7676 O 798.946 4.2882 -0.896957 0
M  V30 7677 C 800.447 4.33945 0.905902 0
M  V30 7678 H 797.667 0.670787 -0.0169048 0
M  V30 7679 H 800.211 1.92574 -0.688139 0
M  V30 7680 H 798.366 3.74099 1.00642 0
M  V30 7681 H 798.78 5.20395 -0.654939 0
M  V30 7682 H 800.254 5.42087 1.04144 0
M  V30 7683 H 800.731 3.95895 1.90168 0
M  V30 7684 H 801.337 4.2454 0.254195 0
M  V30 7685 N 799.652 0.226554 1.55963 0
M  V30 7686 C 800.582 -0.676079 2.23498 0
M  V30 7687 C 801.563 -1.19718 1.20837 0
M  V30 7688 O 802.748 -1.24027 1.49436 0
M  V30 7689 C 799.878 -1.88217 2.91876 0
M  V30 7690 C 798.832 -1.4947 4.01052 0
M  V30 7691 C 798.158 -2.77997 4.56751 0
M  V30 7692 C 799.458 -0.680951 5.17842 0
M  V30 7693 H 801.152 -0.112989 2.99187 0
M  V30 7694 H 798.698 -0.0529046 1.43903 0
M  V30 7695 H 800.651 -2.51911 3.37815 0
M  V30 7696 H 799.375 -2.47031 2.13643 0
M  V30 7697 H 798.034 -0.881199 3.55852 0
M  V30 7698 H 797.682 -3.34966 3.75243 0
M  V30 7699 H 797.382 -2.52803 5.30438 0
M  V30 7700 H 798.906 -3.42625 5.05411 0
M  V30 7701 H 800.32 -1.22171 5.60131 0
M  V30 7702 H 798.717 -0.525898 5.97791 0
M  V30 7703 H 799.787 0.311346 4.83899 0
M  V30 7704 N 801.13 -1.57531 -0.0467866 0
M  V30 7705 C 802.407 -1.79568 -0.775536 0
M  V30 7706 C 802.787 -0.820322 -1.94509 0
M  V30 7707 O 802.135 0.14134 -2.28062 0
M  V30 7708 C 802.345 -3.26789 -1.22516 0
M  V30 7709 C 803.693 -3.91299 -1.64835 0
M  V30 7710 O 804.717 -3.30831 -1.3202 0
M  V30 7711 O 803.576 -4.97727 -2.25677 0
M  V30 7712 H 800.67 -0.737817 -0.373572 0
M  V30 7713 H 803.216 -1.69682 -0.0249302 0
M  V30 7714 H 801.988 -3.89357 -0.389446 0
M  V30 7715 H 801.611 -3.41496 -2.03633 0
M  V30 7716 N 802.608 0.318715 -1.54344 0
M  V30 7717 C 803.854 1.05765 -1.73037 0
M  V30 7718 C 804.187 1.87514 -0.505181 0
M  V30 7719 O 803.462 1.88021 0.497838 0
M  V30 7720 C 803.745 1.97836 -3.00887 0
M  V30 7721 C 803.598 1.19384 -4.33668 0
M  V30 7722 C 804.917 2.97285 -3.24514 0
M  V30 7723 H 802.036 0.383104 -0.629603 0
M  V30 7724 H 804.678 0.333864 -1.87044 0
M  V30 7725 H 802.828 2.59552 -2.89076 0
M  V30 7726 H 804.5 0.600906 -4.57369 0
M  V30 7727 H 802.743 0.496198 -4.30953 0
M  V30 7728 H 803.414 1.87014 -5.19355 0
M  V30 7729 H 805.89 2.45693 -3.35819 0
M  V30 7730 H 804.766 3.58887 -4.15321 0
M  V30 7731 H 805.027 3.70003 -2.41971 0
M  V30 7732 N 804.086 1.46499 0.581025 0
M  V30 7733 C 805.497 1.4604 1.16315 0
M  V30 7734 C 805.848 0.202154 1.95156 0
M  V30 7735 O 804.973 -0.694638 2.04948 0
M  V30 7736 C 805.568 2.64593 2.11604 0
M  V30 7737 C 804.127 2.6717 2.65136 0
M  V30 7738 C 803.274 2.38753 1.4104 0
M  V30 7739 H 806.225 1.54354 0.368871 0
M  V30 7740 H 806.246 2.40207 2.95095 0
M  V30 7741 H 805.758 3.56154 1.54194 0
M  V30 7742 H 803.859 1.79685 3.26411 0
M  V30 7743 H 803.972 3.67182 3.07757 0
M  V30 7744 H 802.336 1.88845 1.70908 0
M  V30 7745 H 803.119 3.32493 0.854588 0
M  V30 7746 N 805.565 -0.825799 1.34232 0
M  V30 7747 C 806.475 -1.9684 1.27638 0
M  V30 7748 C 807.491 -1.73018 0.184569 0
M  V30 7749 O 808.667 -1.97172 0.410525 0
M  V30 7750 C 805.732 -3.31084 1.02879 0
M  V30 7751 C 804.793 -3.67933 2.21188 0
M  V30 7752 C 804.026 -4.95772 1.976 0
M  V30 7753 O 804.249 -5.62721 0.93281 0
M  V30 7754 O 803.183 -5.30431 2.84477 0
M  V30 7755 H 807.009 -2.05346 2.23756 0
M  V30 7756 H 804.594 -0.960772 1.1441 0
M  V30 7757 H 806.476 -4.11492 0.908406 0
M  V30 7758 H 805.151 -3.23552 0.0979821 0
M  V30 7759 H 804.058 -2.87981 2.38784 0
M  V30 7760 H 805.391 -3.80147 3.12648 0
M  V30 7761 N 807.043 -1.17915 -1.04565 0
M  V30 7762 C 807.993 -0.869634 -2.10764 0
M  V30 7763 C 808.977 0.158502 -1.60117 0
M  V30 7764 O 810.169 -0.04483 -1.76943 0
M  V30 7765 C 807.298 -0.391642 -3.41059 0
M  V30 7766 C 806.384 -1.45156 -3.98485 0
M  V30 7767 N 806.775 -2.6667 -4.29792 0
M  V30 7768 C 805.073 -1.3109 -4.263 0
M  V30 7769 C 805.774 -3.34823 -4.75677 0
M  V30 7770 N 804.75 -2.62203 -4.76183 0
M  V30 7771 H 808.552 -1.79342 -2.32838 0
M  V30 7772 H 806.066 -1.0688 -1.22272 0
M  V30 7773 H 808.063 -0.151428 -4.16625 0
M  V30 7774 H 806.723 0.525862 -3.20413 0
M  V30 7775 H 807.734 -3.0358 -4.19594 0
M  V30 7776 H 804.411 -0.455545 -4.15007 0
M  V30 7777 H 805.801 -4.38645 -5.0896 0
M  V30 7778 N 808.521 1.23394 -0.980386 0
M  V30 7779 C 809.769 1.91431 -0.647978 0
M  V30 7780 C 810.09 1.76871 0.821066 0
M  V30 7781 O 809.36 1.14808 1.58732 0
M  V30 7782 H 807.94 0.708516 -0.236673 0
M  V30 7783 H 810.602 1.50019 -1.2442 0
M  V30 7784 H 809.698 2.98854 -0.899592 0
M  V30 7785 N 809.999 0.752036 1.385 0
M  V30 7786 C 810.947 0.112634 2.32327 0
M  V30 7787 C 811.941 -0.707037 1.53939 0
M  V30 7788 O 813.147 -0.606309 1.69481 0
M  V30 7789 H 809.522 0.0176275 0.751793 0
M  V30 7790 H 811.493 0.920074 2.83861 0
M  V30 7791 C 810.242 -0.767458 3.39124 0
M  V30 7792 H 809.565 -0.146122 3.99533 0
M  V30 7793 H 811.005 -1.18216 4.07187 0
M  V30 7794 C 809.464 -1.90938 2.77568 0
M  V30 7795 O 809.994 -3.00342 2.66754 0
M  V30 7796 N 808.2 -1.70396 2.35401 0
M  V30 7797 H 807.747 -0.81413 2.44397 0
M  V30 7798 H 807.705 -2.46972 1.94557 0
M  V30 7799 N 811.477 -1.49425 0.500989 0
M  V30 7800 C 812.754 -1.9531 -0.106551 0
M  V30 7801 C 813.134 -1.44248 -1.54129 0
M  V30 7802 O 812.482 -0.656237 -2.18874 0
M  V30 7803 C 812.692 -3.48995 -0.0191972 0
M  V30 7804 C 814.04 -4.24161 -0.193129 0
M  V30 7805 O 815.064 -3.56075 -0.0943843 0
M  V30 7806 O 813.923 -5.45064 -0.395869 0
M  V30 7807 H 811.017 -0.82149 -0.0953068 0
M  V30 7808 H 813.563 -1.6007 0.563526 0
M  V30 7809 H 812.335 -3.78794 0.981353 0
M  V30 7810 H 811.958 -3.90852 -0.72942 0
M  V30 7811 N 812.955 -0.234822 -1.55841 0
M  V30 7812 C 814.201 0.393843 -1.98939 0
M  V30 7813 C 814.534 1.58466 -1.1226 0
M  V30 7814 O 813.809 1.93635 -0.183242 0
M  V30 7815 C 814.092 0.815492 -3.50745 0
M  V30 7816 C 813.945 -0.379878 -4.48193 0
M  V30 7817 C 815.264 1.66687 -4.07312 0
M  V30 7818 H 812.383 0.141681 -0.723253 0
M  V30 7819 H 815.025 -0.333716 -1.87046 0
M  V30 7820 H 813.175 1.43541 -3.6101 0
M  V30 7821 H 814.847 -1.0182 -4.49923 0
M  V30 7822 H 813.09 -1.02507 -4.21515 0
M  V30 7823 H 813.761 -0.0417069 -5.51984 0
M  V30 7824 H 816.237 1.14369 -4.00074 0
M  V30 7825 H 815.113 1.93078 -5.13821 0
M  V30 7826 H 815.374 2.63468 -3.55017 0
M  V30 7827 N 814.433 1.57553 0.0384317 0
M  V30 7828 C 815.844 1.77258 0.586211 0
M  V30 7829 C 816.195 0.864706 1.76117 0
M  V30 7830 O 815.32 0.057141 2.16325 0
M  V30 7831 C 815.915 3.21453 1.07021 0
M  V30 7832 C 814.474 3.42387 1.56358 0
M  V30 7833 C 813.621 2.72801 0.497508 0
M  V30 7834 H 816.572 1.57585 -0.187796 0
M  V30 7835 H 816.593 3.27451 1.93794 0
M  V30 7836 H 816.105 3.87505 0.214851 0
M  V30 7837 H 814.206 2.81497 2.44111 0
M  V30 7838 H 814.319 4.50968 1.61754 0
M  V30 7839 H 812.683 2.36305 0.95038 0
M  V30 7840 H 813.466 3.41529 -0.348234 0
M  V30 7841 N 815.911 -0.310526 1.54511 0
M  V30 7842 C 817.188 -1.06593 1.64004 0
M  V30 7843 C 817.568 -2.05519 0.482216 0
M  V30 7844 O 816.916 -2.22455 -0.52212 0
M  V30 7845 C 817.126 -1.75627 3.01589 0
M  V30 7846 C 818.474 -2.28173 3.58081 0
M  V30 7847 O 819.498 -1.85674 3.03979 0
M  V30 7848 O 818.357 -3.06015 4.52788 0
M  V30 7849 H 815.451 -0.492109 0.664649 0
M  V30 7850 H 817.997 -0.309374 1.66856 0
M  V30 7851 H 816.769 -1.03743 3.77297 0
M  V30 7852 H 816.392 -2.58061 3.02473 0
M  V30 7853 N 817.389 -1.46805 -0.573248 0
M  V30 7854 C 818.635 -1.5283 -1.33307 0
M  V30 7855 C 818.968 -0.183287 -1.93333 0
M  V30 7856 O 818.243 0.806354 -1.76998 0
M  V30 7857 C 818.526 -2.63414 -2.45531 0
M  V30 7858 C 818.379 -4.07478 -1.90478 0
M  V30 7859 C 819.698 -2.70014 -3.47535 0
M  V30 7860 H 816.817 -0.556371 -0.483343 0
M  V30 7861 H 819.459 -1.78787 -0.643066 0
M  V30 7862 H 817.609 -2.41412 -3.04389 0
M  V30 7863 H 819.281 -4.40795 -1.36004 0
M  V30 7864 H 817.524 -4.16511 -1.21248 0
M  V30 7865 H 818.195 -4.80598 -2.71531 0
M  V30 7866 H 820.671 -2.89817 -2.98572 0
M  V30 7867 H 819.547 -3.49192 -4.23504 0
M  V30 7868 H 819.808 -1.76436 -4.05367 0
M  V30 7869 N 818.867 0.818669 -1.34668 0
M  V30 7870 C 819.797 1.94468 -1.29245 0
M  V30 7871 C 820.778 1.69257 -0.169101 0
M  V30 7872 O 821.963 1.90794 -0.362143 0
M  V30 7873 C 819.093 3.31001 -1.05145 0
M  V30 7874 C 818.047 3.70663 -2.13992 0
M  V30 7875 C 817.373 5.05226 -1.75074 0
M  V30 7876 C 818.673 3.82312 -3.55858 0
M  V30 7877 H 820.367 1.99263 -2.2346 0
M  V30 7878 H 817.913 0.957304 -1.07572 0
M  V30 7879 H 819.866 4.09364 -0.999949 0
M  V30 7880 H 818.59 3.26517 -0.0737312 0
M  V30 7881 H 817.249 2.94578 -2.18219 0
M  V30 7882 H 816.897 4.97233 -0.759518 0
M  V30 7883 H 816.597 5.32734 -2.47928 0
M  V30 7884 H 818.121 5.86042 -1.71427 0
M  V30 7885 H 819.535 4.50935 -3.5402 0
M  V30 7886 H 817.932 4.21278 -4.2737 0
M  V30 7887 H 819.002 2.84193 -3.9289 0
M  V30 7888 N 820.346 1.18468 1.03938 0
M  V30 7889 C 821.623 0.890435 1.74157 0
M  V30 7890 C 822.003 -0.606409 2.02203 0
M  V30 7891 O 821.351 -1.5615 1.66822 0
M  V30 7892 C 821.561 1.73906 3.02585 0
M  V30 7893 C 822.909 1.96686 3.76297 0
M  V30 7894 O 823.933 1.70969 3.12487 0
M  V30 7895 O 822.792 2.39986 4.90988 0
M  V30 7896 H 819.886 0.330889 0.757919 0
M  V30 7897 H 822.432 1.29228 1.09992 0
M  V30 7898 H 821.204 2.75369 2.78006 0
M  V30 7899 H 820.827 1.33581 3.74489 0
M  V30 7900 N 821.824 -1.22873 0.986916 0
M  V30 7901 C 822.734 -2.28277 0.540978 0
M  V30 7902 C 823.75 -1.69164 -0.407363 0
M  V30 7903 O 824.926 -1.99504 -0.275674 0
M  V30 7904 C 821.991 -3.46404 -0.143181 0
M  V30 7905 C 821.052 -4.20854 0.847375 0
M  V30 7906 C 820.285 -5.33341 0.19577 0
M  V30 7907 O 820.508 -5.61356 -1.0117 0
M  V30 7908 O 819.442 -5.95169 0.897623 0
M  V30 7909 H 823.268 -2.68578 1.41773 0
M  V30 7910 H 820.853 -1.28927 0.754867 0
M  V30 7911 H 822.735 -4.18096 -0.526676 0
M  V30 7912 H 821.41 -3.08041 -0.994593 0
M  V30 7913 H 820.317 -3.51459 1.28169 0
M  V30 7914 H 821.65 -4.63082 1.6678 0
M  V30 7915 N 823.302 -0.75937 -1.38099 0
M  V30 7916 C 824.265 -0.14372 -2.28749 0
M  V30 7917 C 825.265 0.641338 -1.47457 0
M  V30 7918 O 826.455 0.466751 -1.67831 0
M  V30 7919 C 823.587 0.804545 -3.3127 0
M  V30 7920 H 824.78 -0.942663 -2.847 0
M  V30 7921 H 822.333 -0.526757 -1.47156 0
M  V30 7922 H 823.068 1.62895 -2.80421 0
M  V30 7923 H 822.853 0.243939 -3.9134 0
M  V30 7924 H 824.343 1.23111 -3.99041 0
M  V30 7925 N 824.78 1.49157 -0.508906 0
M  V30 7926 C 826.196 1.58741 -0.165372 0
M  V30 7927 C 826.396 1.5133 1.33047 0
M  V30 7928 O 825.452 1.39135 2.10707 0
M  V30 7929 C 826.765 2.91217 -0.749194 0
M  V30 7930 C 828.313 3.047 -0.716015 0
M  V30 7931 C 828.788 4.39807 -1.27804 0
M  V30 7932 N 830.279 4.46319 -1.23908 0
M  V30 7933 C 831.014 5.49325 -1.64406 0
M  V30 7934 N 830.51 6.59395 -2.12534 0
M  V30 7935 N 832.303 5.40084 -1.55773 0
M  V30 7936 H 824.454 1.52217 -1.48134 0
M  V30 7937 H 826.717 0.721514 -0.614915 0
M  V30 7938 H 826.423 3.02233 -1.79856 0
M  V30 7939 H 826.297 3.76592 -0.214144 0
M  V30 7940 H 828.684 2.9331 0.324535 0
M  V30 7941 H 828.765 2.2099 -1.2883 0
M  V30 7942 H 828.409 4.5195 -2.31741 0
M  V30 7943 H 828.339 5.2217 -0.681623 0
M  V30 7944 H 830.83 3.67354 -0.886537 0
M  V30 7945 H 831.143 7.34102 -2.41485 0
M  V30 7946 H 829.488 6.60414 -2.16513 0
M  V30 7947 H 832.679 4.52986 -1.17987 0
M  V30 7948 H 832.852 6.20233 -1.87657 0
M  V30 7949 N 826.258 0.243083 1.55714 0
M  V30 7950 C 827.504 -0.376428 1.99886 0
M  V30 7951 C 827.859 -1.55843 1.12831 0
M  V30 7952 O 827.152 -1.90724 0.182996 0
M  V30 7953 C 827.346 -0.839621 3.47398 0
M  V30 7954 C 827.175 0.295954 4.48725 0
M  V30 7955 C 825.945 0.769392 4.99408 0
M  V30 7956 C 828.143 1.12165 5.0192 0
M  V30 7957 N 826.125 1.87778 5.84477 0
M  V30 7958 C 827.496 2.07848 5.84123 0
M  V30 7959 C 829.551 1.15864 4.84231 0
M  V30 7960 C 828.254 3.06937 6.50524 0
M  V30 7961 C 830.28 2.13782 5.51409 0
M  V30 7962 C 829.642 3.08202 6.33396 0
M  V30 7963 H 825.741 -0.103809 0.775079 0
M  V30 7964 H 828.325 0.359788 1.91347 0
M  V30 7965 H 826.496 -1.54514 3.56343 0
M  V30 7966 H 828.228 -1.43376 3.78451 0
M  V30 7967 H 824.983 0.354201 4.72274 0
M  V30 7968 H 825.407 2.43462 6.31708 0
M  V30 7969 H 830.049 0.442532 4.20478 0
M  V30 7970 H 827.767 3.79499 7.13447 0
M  V30 7971 H 831.353 2.17345 5.39678 0
M  V30 7972 H 830.233 3.82732 6.8446 0
M  V30 7973 N 827.736 -1.57571 -0.0300757 0
M  V30 7974 C 828.646 -2.09892 -1.04798 0
M  V30 7975 C 829.662 -1.03732 -1.39698 0
M  V30 7976 O 830.838 -1.35461 -1.49038 0
M  V30 7977 C 827.903 -2.56707 -2.33028 0
M  V30 7978 C 826.964 -3.77345 -2.04718 0
M  V30 7979 C 826.197 -4.21918 -3.26834 0
M  V30 7980 O 826.42 -3.66025 -4.37472 0
M  V30 7981 O 825.354 -5.14362 -3.12594 0
M  V30 7982 H 829.18 -2.97023 -0.633344 0
M  V30 7983 H 826.765 -1.47344 -0.246991 0
M  V30 7984 H 828.647 -2.87154 -3.08417 0
M  V30 7985 H 827.322 -1.72688 -2.73789 0
M  V30 7986 H 826.229 -3.51919 -1.26901 0
M  V30 7987 H 827.562 -4.62345 -1.68813 0
M  V30 7988 N 829.214 0.302327 -1.54673 0
M  V30 7989 C 830.144 1.37759 -1.88533 0
M  V30 7990 C 831.125 1.52961 -0.744113 0
M  V30 7991 O 832.31 1.6649 -0.999731 0
M  V30 7992 C 829.44 2.74201 -2.13146 0
M  V30 7993 C 828.394 2.73765 -3.28993 0
M  V30 7994 C 827.72 4.13483 -3.39022 0
M  V30 7995 C 829.02 2.35624 -4.66132 0
M  V30 7996 H 830.714 1.0967 -2.78591 0
M  V30 7997 H 828.26 0.52613 -1.34044 0
M  V30 7998 H 830.213 3.49508 -2.35419 0
M  V30 7999 H 828.937 3.03812 -1.19858 0
M  V30 8000 H 827.596 2.00914 -3.06642 0
M  V30 8001 H 827.244 4.40269 -2.43253 0
M  V30 8002 H 826.944 4.14093 -4.16894 0
M  V30 8003 H 828.468 4.90572 -3.63553 0
M  V30 8004 H 829.882 3.00647 -4.88143 0
M  V30 8005 H 828.279 2.47449 -5.46707 0
M  V30 8006 H 829.349 1.30753 -4.66939 0
M  V30 8007 N 830.692 1.47107 0.565454 0
M  V30 8008 C 831.602 1.61591 1.70075 0
M  V30 8009 C 832.618 0.498931 1.66693 0
M  V30 8010 O 833.794 0.765372 1.8629 0
M  V30 8011 C 830.859 1.61887 3.06583 0
M  V30 8012 C 829.92 2.84949 3.21096 0
M  V30 8013 C 829.153 2.85221 4.51093 0
M  V30 8014 O 829.376 1.94959 5.36048 0
M  V30 8015 O 828.31 3.76982 4.69221 0
M  V30 8016 H 832.136 2.57638 1.60799 0
M  V30 8017 H 829.721 1.30097 0.73451 0
M  V30 8018 H 831.603 1.64809 3.87835 0
M  V30 8019 H 830.278 0.69005 3.16259 0
M  V30 8020 H 829.185 2.87575 2.39273 0
M  V30 8021 H 830.518 3.77098 3.1632 0
M  V30 8022 N 832.17 -0.811516 1.35101 0
M  V30 8023 C 833.416 -1.57016 1.29296 0
M  V30 8024 C 833.771 -1.91941 -0.13288 0
M  V30 8025 O 833.064 -1.58121 -1.08204 0
M  V30 8026 C 833.258 -2.87121 2.1283 0
M  V30 8027 C 833.087 -2.64908 3.63392 0
M  V30 8028 C 831.857 -2.61055 4.32641 0
M  V30 8029 C 834.055 -2.35628 4.57148 0
M  V30 8030 N 832.037 -2.30508 5.68981 0
M  V30 8031 C 833.408 -2.14876 5.81574 0
M  V30 8032 C 835.463 -2.2145 4.45942 0
M  V30 8033 C 834.166 -1.81381 6.96055 0
M  V30 8034 C 836.192 -1.89352 5.60267 0
M  V30 8035 C 835.554 -1.69432 6.83719 0
M  V30 8036 H 831.653 -0.57649 0.528378 0
M  V30 8037 H 834.237 -0.950338 1.69931 0
M  V30 8038 H 832.408 -3.47007 1.74473 0
M  V30 8039 H 834.14 -3.52629 1.98582 0
M  V30 8040 H 830.895 -2.75531 3.85201 0
M  V30 8041 H 831.319 -2.18042 6.40927 0
M  V30 8042 H 835.961 -2.35551 3.51106 0
M  V30 8043 H 833.679 -1.66018 7.90863 0
M  V30 8044 H 837.265 -1.79098 5.53548 0
M  V30 8045 H 836.145 -1.44957 7.70686 0
M  V30 8046 N 833.648 -1.19017 -1.03309 0
M  V30 8047 C 834.581 -0.867457 -2.1107 0
M  V30 8048 C 835.559 0.173752 -1.61669 0
M  V30 8049 O 836.743 0.0510077 -1.88431 0
M  V30 8050 C 833.87 -0.297459 -3.37391 0
M  V30 8051 C 832.916 -1.31706 -4.05655 0
M  V30 8052 S 833.749 -2.87591 -4.51721 0
M  V30 8053 C 834.905 -2.32122 -5.81266 0
M  V30 8054 H 835.138 -1.78008 -2.38119 0
M  V30 8055 H 832.671 -1.01686 -1.16187 0
M  V30 8056 H 834.629 0.0248889 -4.10492 0
M  V30 8057 H 833.29 0.5934 -3.08444 0
M  V30 8058 H 832.483 -0.867264 -4.96482 0
M  V30 8059 H 832.085 -1.58603 -3.38705 0
M  V30 8060 H 834.377 -1.70855 -6.55603 0
M  V30 8061 H 835.32 -3.2128 -6.31019 0
M  V30 8062 H 835.728 -1.74858 -5.36736 0
M  V30 8063 N 835.127 1.22348 -0.993418 0
M  V30 8064 C 836.057 2.26584 -0.564088 0
M  V30 8065 C 837.038 1.65102 0.409298 0
M  V30 8066 O 838.223 1.91872 0.299819 0
M  V30 8067 C 835.353 3.47087 0.121554 0
M  V30 8068 C 834.307 4.21009 -0.770429 0
M  V30 8069 C 833.633 5.34678 0.0481586 0
M  V30 8070 C 834.933 4.79636 -2.06752 0
M  V30 8071 H 836.627 2.62749 -1.43538 0
M  V30 8072 H 834.173 1.26303 -0.691628 0
M  V30 8073 H 836.126 4.19166 0.433303 0
M  V30 8074 H 834.85 3.1002 1.0274 0
M  V30 8075 H 833.509 3.50764 -1.06583 0
M  V30 8076 H 833.157 4.93852 0.954933 0
M  V30 8077 H 832.857 5.85061 -0.545641 0
M  V30 8078 H 834.381 6.09573 0.353991 0
M  V30 8079 H 835.795 5.43654 -1.81969 0
M  V30 8080 H 834.192 5.4036 -2.61019 0
M  V30 8081 H 835.262 3.99659 -2.74592 0
M  V30 8082 N 836.605 0.766683 1.37694 0
M  V30 8083 C 837.83 0.338715 2.04615 0
M  V30 8084 C 838.255 -1.02918 1.57447 0
M  V30 8085 O 837.613 -1.65849 0.732386 0
M  V30 8086 C 837.661 0.385284 3.58536 0
M  V30 8087 O 836.765 -0.616081 4.07772 0
M  V30 8088 H 836.106 0.147527 0.647404 0
M  V30 8089 H 838.636 1.04146 1.7611 0
M  V30 8090 H 838.646 0.240782 4.07289 0
M  V30 8091 H 837.321 1.38325 3.92223 0
M  V30 8092 H 835.898 -0.435115 3.70353 0
M  V30 8093 N 838.083 -1.48885 0.516809 0
M  V30 8094 C 839.016 -2.26218 -0.30011 0
M  V30 8095 C 839.994 -1.31491 -0.956496 0
M  V30 8096 O 841.178 -1.6081 -0.983488 0
M  V30 8097 C 838.305 -3.07315 -1.42392 0
M  V30 8098 C 837.351 -4.17316 -0.880295 0
M  V30 8099 S 838.184 -5.34955 0.24146 0
M  V30 8100 C 839.34 -6.1961 -0.885138 0
M  V30 8101 H 839.573 -2.95158 0.356217 0
M  V30 8102 H 837.106 -1.5141 0.302365 0
M  V30 8103 H 839.064 -3.54619 -2.06775 0
M  V30 8104 H 837.725 -2.37813 -2.05192 0
M  V30 8105 H 836.918 -4.73635 -1.72297 0
M  V30 8106 H 836.52 -3.72685 -0.313396 0
M  V30 8107 H 838.812 -6.53513 -1.78682 0
M  V30 8108 H 839.755 -7.07183 -0.360226 0
M  V30 8109 H 840.163 -5.52461 -1.1596 0
M  V30 8110 N 839.561 -0.251338 -1.55583 0
M  V30 8111 C 840.81 0.372681 -1.98227 0
M  V30 8112 C 841.123 1.58743 -1.1428 0
M  V30 8113 O 842.329 2.28289 -1.46957 0
M  V30 8114 C 840.785 0.714439 -3.52738 0
M  V30 8115 C 840.393 -0.479168 -4.4543 0
M  V30 8116 C 842.137 1.3024 -4.04027 0
M  V30 8117 C 840.044 -0.113318 -5.91291 0
M  V30 8118 H 838.974 0.14302 -0.740312 0
M  V30 8119 H 841.625 -0.352253 -1.80087 0
M  V30 8120 H 840.007 1.49762 -3.66589 0
M  V30 8121 H 841.181 -1.25644 -4.4334 0
M  V30 8122 H 839.496 -0.982359 -4.04646 0
M  V30 8123 H 842.093 1.58953 -5.10527 0
M  V30 8124 H 842.436 2.22837 -3.51638 0
M  V30 8125 H 842.969 0.582024 -3.93519 0
M  V30 8126 H 839.708 -1.00654 -6.47726 0
M  V30 8127 H 839.228 0.627666 -5.96507 0
M  V30 8128 H 840.907 0.30293 -6.4629 0
M  V30 8129 N 841.039 1.57585 0.0217189 0
M  V30 8130 C 842.285 1.89887 0.712099 0
M  V30 8131 C 842.618 0.849971 1.74611 0
M  V30 8132 O 841.893 -0.13407 1.94037 0
M  V30 8133 C 842.176 3.32815 1.37499 0
M  V30 8134 C 842.029 4.48405 0.353993 0
M  V30 8135 C 843.348 3.74786 2.30703 0
M  V30 8136 H 840.467 0.690588 0.257405 0
M  V30 8137 H 843.109 1.89983 -0.0251145 0
M  V30 8138 H 841.259 3.32863 2.00335 0
M  V30 8139 H 842.931 4.60491 -0.273015 0
M  V30 8140 H 841.174 4.32573 -0.32599 0
M  V30 8141 H 841.845 5.45316 0.85644 0
M  V30 8142 H 844.321 3.76151 1.77904 0
M  V30 8143 H 843.197 4.75585 2.74061 0
M  V30 8144 H 843.458 3.07449 3.17691 0
M  V30 8145 N 842.517 -0.29412 1.54831 0
M  V30 8146 C 843.928 -0.866651 1.65366 0
M  V30 8147 C 844.279 -1.87834 0.56681 0
M  V30 8148 O 843.404 -2.14374 -0.295389 0
M  V30 8149 C 843.999 -1.57869 2.99771 0
M  V30 8150 C 842.558 -2.09954 3.12404 0
M  V30 8151 C 841.705 -0.934492 2.6108 0
M  V30 8152 H 844.656 -0.0709551 1.58541 0
M  V30 8153 H 844.677 -2.44462 2.91579 0
M  V30 8154 H 844.189 -0.84212 3.78853 0
M  V30 8155 H 842.29 -2.86637 2.38055 0
M  V30 8156 H 842.403 -2.32934 4.18663 0
M  V30 8157 H 840.767 -1.32199 2.17705 0
M  V30 8158 H 841.55 -0.211768 3.42646 0
M  V30 8159 N 843.995 -1.47404 -0.557645 0
M  V30 8160 C 844.905 -1.62491 -1.69216 0
M  V30 8161 C 845.921 -0.507764 -1.66426 0
M  V30 8162 O 847.097 -0.775241 -1.85882 0
M  V30 8163 C 844.162 -1.63511 -3.05721 0
M  V30 8164 C 843.223 -2.86648 -3.1958 0
M  V30 8165 C 842.456 -2.87609 -4.49574 0
M  V30 8166 O 842.679 -1.97799 -5.35006 0
M  V30 8167 O 841.613 -3.79465 -4.67215 0
M  V30 8168 H 845.439 -2.58487 -1.59431 0
M  V30 8169 H 843.024 -1.30485 -0.7276 0
M  V30 8170 H 844.906 -1.66863 -3.86956 0
M  V30 8171 H 843.581 -0.706812 -3.15889 0
M  V30 8172 H 842.488 -2.8884 -2.37744 0
M  V30 8173 H 843.821 -3.7877 -3.14316 0
M  V30 8174 N 845.473 0.80434 -1.35529 0
M  V30 8175 C 846.721 1.55845 -1.28673 0
M  V30 8176 C 847.042 1.94511 0.137976 0
M  V30 8177 O 846.312 1.63775 1.07492 0
M  V30 8178 H 844.892 0.577931 -0.473291 0
M  V30 8179 H 847.554 0.959293 -1.69657 0
M  V30 8180 H 846.65 2.47285 -1.90411 0
M  V30 8181 N 846.951 1.19563 1.02676 0
M  V30 8182 C 847.861 0.950691 2.14474 0
M  V30 8183 C 848.877 -0.0900219 1.73767 0
M  V30 8184 O 850.053 0.0951063 2.01175 0
M  V30 8185 C 847.118 0.494917 3.43149 0
M  V30 8186 C 846.179 1.60527 3.98158 0
M  V30 8187 C 845.412 1.17115 5.20692 0
M  V30 8188 O 845.635 0.0355937 5.70389 0
M  V30 8189 O 844.569 1.97454 5.68591 0
M  V30 8190 H 848.395 1.88651 2.38001 0
M  V30 8191 H 845.98 0.978635 1.12885 0
M  V30 8192 H 847.862 0.249492 4.20661 0
M  V30 8193 H 846.537 -0.412434 3.21062 0
M  V30 8194 H 845.444 1.90487 3.21971 0
M  V30 8195 H 846.777 2.48925 4.24614 0
M  V30 8196 N 848.429 -1.21819 0.999893 0
M  V30 8197 C 849.659 -1.94475 0.697346 0
M  V30 8198 C 850.067 -1.73991 -0.743228 0
M  V30 8199 O 849.41 -1.04042 -1.51397 0
M  V30 8200 C 849.472 -3.47204 0.932181 0
M  V30 8201 C 849.136 -3.91432 2.3586 0
M  V30 8202 C 850.133 -3.98545 3.33853 0
M  V30 8203 C 847.818 -4.23888 2.69489 0
M  V30 8204 C 849.812 -4.37499 4.63545 0
M  V30 8205 C 847.499 -4.62519 3.99399 0
M  V30 8206 C 848.497 -4.69294 4.96238 0
M  V30 8207 O 848.185 -5.07048 6.23825 0
M  V30 8208 H 847.917 -0.625419 0.256567 0
M  V30 8209 H 850.471 -1.55728 1.33933 0
M  V30 8210 H 848.701 -3.85997 0.233025 0
M  V30 8211 H 850.39 -4.01078 0.623807 0
M  V30 8212 H 851.156 -3.73654 3.09205 0
M  V30 8213 H 847.035 -4.17815 1.94812 0
M  V30 8214 H 850.579 -4.42702 5.3913 0
M  V30 8215 H 846.476 -4.86864 4.23833 0
M  V30 8216 H 847.244 -5.25098 6.27865 0
M  V30 8217 N 849.908 -0.773975 -1.37286 0
M  V30 8218 C 850.871 -0.167974 -2.28584 0
M  V30 8219 C 851.871 0.625662 -1.48129 0
M  V30 8220 O 853.061 0.448924 -1.68316 0
M  V30 8221 C 850.193 0.769364 -3.32105 0
M  V30 8222 H 851.386 -0.972806 -2.83684 0
M  V30 8223 H 848.939 -0.542335 -1.46589 0
M  V30 8224 H 849.674 1.59912 -2.82132 0
M  V30 8225 H 849.459 0.202419 -3.91577 0
M  V30 8226 H 850.949 1.18872 -4.00324 0
M  V30 8227 N 851.386 1.48609 -0.524698 0
M  V30 8228 C 852.634 2.02097 0.0112991 0
M  V30 8229 C 852.955 1.40455 1.35268 0
M  V30 8230 O 852.225 0.56807 1.87483 0
M  V30 8231 H 850.805 0.746966 0.00716426 0
M  V30 8232 H 853.467 1.82378 -0.687329 0
M  V30 8233 H 852.563 3.11855 0.123531 0
M  V30 8234 N 852.864 0.259585 1.55447 0
M  V30 8235 C 853.797 -0.675542 2.17972 0
M  V30 8236 C 854.775 -1.16362 1.13572 0
M  V30 8237 O 855.959 -1.23944 1.42021 0
M  V30 8238 C 853.086 -1.91952 2.79056 0
M  V30 8239 C 852.132 -1.56824 3.96621 0
M  V30 8240 S 852.965 -0.659846 5.31419 0
M  V30 8241 C 854.121 -1.91255 5.95963 0
M  V30 8242 H 854.354 -0.144236 2.9695 0
M  V30 8243 H 851.887 0.0439448 1.54337 0
M  V30 8244 H 853.845 -2.63362 3.14882 0
M  V30 8245 H 852.506 -2.42196 2 0
M  V30 8246 H 851.699 -2.49348 4.37997 0
M  V30 8247 H 851.301 -0.934472 3.62138 0
M  V30 8248 H 853.593 -2.85834 6.14252 0
M  V30 8249 H 854.536 -1.54207 6.91105 0
M  V30 8250 H 854.944 -2.07042 5.25161 0
M  V30 8251 N 854.342 -1.57594 -0.0133615 0
M  V30 8252 C 855.588 -1.90262 -0.702019 0
M  V30 8253 C 855.921 -0.859219 -1.74158 0
M  V30 8254 O 855.196 0.123778 -1.94106 0
M  V30 8255 C 855.479 -3.3354 -1.35732 0
M  V30 8256 C 855.332 -4.48586 -0.330208 0
M  V30 8257 C 856.651 -3.76004 -2.28712 0
M  V30 8258 H 853.77 -0.691943 -0.253739 0
M  V30 8259 H 856.412 -1.89967 0.0351894 0
M  V30 8260 H 854.562 -3.33921 -1.98567 0
M  V30 8261 H 856.234 -4.6034 0.297433 0
M  V30 8262 H 854.477 -4.32394 0.348926 0
M  V30 8263 H 855.148 -5.45762 -0.827508 0
M  V30 8264 H 857.624 -3.77089 -1.75906 0
M  V30 8265 H 856.5 -4.77032 -2.71535 0
M  V30 8266 H 856.761 -3.09129 -3.16056 0
M  V30 8267 N 855.82 0.285905 -1.54985 0
M  V30 8268 C 856.77 1.35505 -1.83364 0
M  V30 8269 C 857.754 1.45273 -0.691698 0
M  V30 8270 O 858.946 1.49172 -0.952725 0
M  V30 8271 C 856.075 2.71756 -2.0977 0
M  V30 8272 C 855.161 2.6615 -3.30189 0
M  V30 8273 N 855.552 2.30161 -4.50399 0
M  V30 8274 C 853.85 2.97232 -3.3252 0
M  V30 8275 C 854.551 2.34228 -5.32459 0
M  V30 8276 N 853.527 2.72187 -4.70548 0
M  V30 8277 H 857.329 1.06668 -2.7386 0
M  V30 8278 H 854.843 0.494521 -1.54688 0
M  V30 8279 H 856.84 3.48864 -2.28253 0
M  V30 8280 H 855.5 3.01492 -1.20551 0
M  V30 8281 H 856.511 2.02358 -4.7673 0
M  V30 8282 H 853.188 3.31764 -2.53454 0
M  V30 8283 H 854.578 2.09074 -6.38543 0
M  V30 8284 N 857.298 1.47698 0.54982 0
M  V30 8285 C 858.248 1.57145 1.65195 0
M  V30 8286 C 859.232 0.429839 1.55052 0
M  V30 8287 O 860.424 0.68018 1.63409 0
M  V30 8288 C 857.553 1.59573 3.0396 0
M  V30 8289 C 856.639 2.79144 3.19279 0
M  V30 8290 N 857.03 4.03769 3.04638 0
M  V30 8291 C 855.328 2.76061 3.50295 0
M  V30 8292 C 856.029 4.83887 3.22845 0
M  V30 8293 N 855.005 4.1634 3.49517 0
M  V30 8294 H 858.807 2.51266 1.52455 0
M  V30 8295 H 856.321 1.43795 0.754773 0
M  V30 8296 H 858.318 1.64431 3.83103 0
M  V30 8297 H 856.978 0.66553 3.17806 0
M  V30 8298 H 857.989 4.34515 2.81811 0
M  V30 8299 H 854.666 1.92211 3.70622 0
M  V30 8300 H 856.056 5.92724 3.1643 0
M  V30 8301 N 858.776 -0.797141 1.35954 0
M  V30 8302 C 859.723 -1.90944 1.2965 0
M  V30 8303 C 860.693 -1.65262 0.166628 0
M  V30 8304 O 861.878 -1.87527 0.351883 0
M  V30 8305 C 859.018 -3.27637 1.08389 0
M  V30 8306 C 858.131 -3.65442 2.30382 0
M  V30 8307 C 857.266 -4.91213 2.02195 0
M  V30 8308 C 856.305 -5.21674 3.20191 0
M  V30 8309 N 855.442 -6.38627 2.91719 0
M  V30 8310 H 860.282 -1.95668 2.24762 0
M  V30 8311 H 857.819 -0.95696 1.11717 0
M  V30 8312 H 859.777 -4.06451 0.940912 0
M  V30 8313 H 858.407 -3.22355 0.169351 0
M  V30 8314 H 857.459 -2.81813 2.55511 0
M  V30 8315 H 858.771 -3.83907 3.18461 0
M  V30 8316 H 857.925 -5.77876 1.84783 0
M  V30 8317 H 856.664 -4.74803 1.11416 0
M  V30 8318 H 855.669 -4.33498 3.38171 0
M  V30 8319 H 856.894 -5.40009 4.11786 0
M  V30 8320 H 854.84 -6.23623 2.03543 0
M  V30 8321 H 854.757 -6.57387 3.73334 0
M  V30 8322 H 856.025 -7.28292 2.77868 0
M  V30 8323 N 860.254 -1.20106 -1.0204 0
M  V30 8324 C 861.5 -1.01039 -1.75838 0
M  V30 8325 C 861.833 0.456819 -1.88751 0
M  V30 8326 O 861.108 1.33919 -1.41053 0
M  V30 8327 C 861.391 -1.69009 -3.17975 0
M  V30 8328 C 861.244 -3.2315 -3.1288 0
M  V30 8329 C 862.563 -1.42005 -4.16561 0
M  V30 8330 H 859.682 -0.368465 -0.638281 0
M  V30 8331 H 862.324 -1.48066 -1.19064 0
M  V30 8332 H 860.474 -1.29026 -3.66449 0
M  V30 8333 H 862.146 -3.72402 -2.72239 0
M  V30 8334 H 860.389 -3.54253 -2.50374 0
M  V30 8335 H 861.06 -3.65862 -4.13339 0
M  V30 8336 H 863.536 -1.76685 -3.76725 0
M  V30 8337 H 862.412 -1.92101 -5.14187 0
M  V30 8338 H 862.673 -0.346884 -4.40737 0
M  V30 8339 N 861.732 1.21287 -1.00634 0
M  V30 8340 C 862.682 2.21541 -0.53886 0
M  V30 8341 C 863.666 1.55842 0.400256 0
M  V30 8342 O 864.858 1.75566 0.224889 0
M  V30 8343 C 861.987 3.43047 0.131796 0
M  V30 8344 C 861.073 4.1593 -0.828419 0
M  V30 8345 N 861.464 4.65359 -1.98178 0
M  V30 8346 C 859.762 4.41281 -0.647083 0
M  V30 8347 C 860.463 5.21079 -2.58557 0
M  V30 8348 N 859.439 5.10531 -1.86705 0
M  V30 8349 H 863.241 2.57413 -1.41831 0
M  V30 8350 H 860.755 1.37109 -0.870338 0
M  V30 8351 H 862.752 4.14079 0.484178 0
M  V30 8352 H 861.412 3.08683 1.00721 0
M  V30 8353 H 862.423 4.60896 -2.3621 0
M  V30 8354 H 859.1 4.17107 0.181139 0
M  V30 8355 H 860.49 5.6977 -3.56107 0
M  V30 8356 N 863.21 0.781244 1.36873 0
M  V30 8357 C 864.487 0.274217 1.93668 0
M  V30 8358 C 864.867 -1.2323 1.71399 0
M  V30 8359 O 864.215 -2.01993 1.06822 0
M  V30 8360 C 864.425 0.657939 3.42742 0
M  V30 8361 C 865.773 0.63307 4.19854 0
M  V30 8362 O 866.797 0.597909 3.51146 0
M  V30 8363 O 865.656 0.668636 5.42394 0
M  V30 8364 H 862.75 0.0658059 0.824378 0
M  V30 8365 H 865.296 0.863238 1.46104 0
M  V30 8366 H 864.068 1.69728 3.52573 0
M  V30 8367 H 863.691 0.0423678 3.97577 0
M  V30 8368 N 864.689 -1.48329 0.532571 0
M  V30 8369 C 865.599 -2.33445 -0.232546 0
M  V30 8370 C 866.615 -1.46651 -0.93645 0
M  V30 8371 O 867.791 -1.79627 -0.910834 0
M  V30 8372 C 864.856 -3.22824 -1.26434 0
M  V30 8373 C 863.917 -4.25492 -0.570511 0
M  V30 8374 C 863.15 -5.10601 -1.55315 0
M  V30 8375 O 863.373 -4.97733 -2.78599 0
M  V30 8376 O 862.307 -5.91927 -1.09112 0
M  V30 8377 H 866.133 -3.00119 0.464988 0
M  V30 8378 H 863.718 -1.46489 0.293462 0
M  V30 8379 H 865.6 -3.78103 -1.86055 0
M  V30 8380 H 864.275 -2.58807 -1.94424 0
M  V30 8381 H 863.182 -3.74041 0.0662587 0
M  V30 8382 H 864.515 -4.92154 0.0674904 0
M  V30 8383 N 866.167 -0.267825 -1.55308 0
M  V30 8384 C 867.415 0.350343 -1.9904 0
M  V30 8385 C 867.736 1.56924 -1.15758 0
M  V30 8386 O 867.006 1.94358 -0.245336 0
M  V30 8387 H 865.586 0.132435 -0.735167 0
M  V30 8388 H 868.248 -0.371471 -1.91327 0
M  V30 8389 H 867.344 0.645203 -3.05358 0
M  V30 8390 N 867.645 1.57599 0.00500368 0
M  V30 8391 C 868.891 1.91471 0.686313 0
M  V30 8392 C 869.246 0.868988 1.71658 0
M  V30 8393 O 868.539 -0.11944 1.91227 0
M  V30 8394 C 868.733 3.29855 1.37588 0
M  V30 8395 C 868.562 4.47791 0.413924 0
M  V30 8396 C 867.332 5.05293 0.0261488 0
M  V30 8397 C 869.53 5.13317 -0.317764 0
M  V30 8398 N 867.512 6.06745 -0.934545 0
M  V30 8399 C 868.883 6.09554 -1.13331 0
M  V30 8400 C 870.938 4.96431 -0.382136 0
M  V30 8401 C 869.641 6.90723 -2.00735 0
M  V30 8402 C 871.667 5.78182 -1.24339 0
M  V30 8403 C 871.029 6.74007 -2.04679 0
M  V30 8404 H 867.128 0.749083 0.224495 0
M  V30 8405 H 869.712 1.94625 -0.0541684 0
M  V30 8406 H 867.883 3.27585 2.08668 0
M  V30 8407 H 869.615 3.51171 2.01149 0
M  V30 8408 H 866.37 4.71963 0.393462 0
M  V30 8409 H 866.794 6.62152 -1.41012 0
M  V30 8410 H 871.436 4.22202 0.224718 0
M  V30 8411 H 869.154 7.64281 -2.6249 0
M  V30 8412 H 872.74 5.67158 -1.29704 0
M  V30 8413 H 871.62 7.36164 -2.70244 0
M  V30 8414 N 869.123 -0.277682 1.55134 0
M  V30 8415 C 870.351 -1.02826 1.7954 0
M  V30 8416 C 870.766 -1.80105 0.566373 0
M  V30 8417 O 870.123 -1.76491 -0.464448 0
M  V30 8418 C 870.174 -1.99053 3.01762 0
M  V30 8419 O 869.895 -1.24906 4.19917 0
M  V30 8420 C 871.396 -2.85961 3.38735 0
M  V30 8421 H 868.616 -0.303958 0.598206 0
M  V30 8422 H 871.16 -0.309884 2.02138 0
M  V30 8423 H 869.315 -2.66359 2.81303 0
M  V30 8424 H 869.729 -1.89725 4.88983 0
M  V30 8425 H 871.203 -3.49286 4.27438 0
M  V30 8426 H 871.68 -3.55486 2.57928 0
M  V30 8427 H 872.286 -2.24152 3.61436 0
M  V30 8428 N 870.601 -1.47988 -0.541979 0
M  V30 8429 C 871.849 -1.55086 -1.29587 0
M  V30 8430 C 872.17 -0.221304 -1.9374 0
M  V30 8431 O 871.44 0.756128 -1.80719 0
M  V30 8432 H 870.02 -0.571307 -0.481266 0
M  V30 8433 H 872.682 -1.8438 -0.631675 0
M  V30 8434 H 871.778 -2.32556 -2.08144 0
M  V30 8435 N 872.079 0.78992 -1.36375 0
M  V30 8436 C 873.009 1.91683 -1.33341 0
M  V30 8437 C 873.99 1.68861 -0.204965 0
M  V30 8438 O 875.175 1.89982 -0.402531 0
M  V30 8439 C 872.305 3.28696 -1.12143 0
M  V30 8440 C 871.259 3.66041 -2.21806 0
M  V30 8441 C 870.585 5.01399 -1.85751 0
M  V30 8442 C 871.885 3.74677 -3.63888 0
M  V30 8443 H 873.579 1.94478 -2.27637 0
M  V30 8444 H 871.125 0.934271 -1.09578 0
M  V30 8445 H 873.078 4.07151 -1.08656 0
M  V30 8446 H 871.802 3.26287 -0.142974 0
M  V30 8447 H 870.461 2.89883 -2.24418 0
M  V30 8448 H 870.109 4.9551 -0.864817 0
M  V30 8449 H 869.809 5.27355 -2.59173 0
M  V30 8450 H 871.333 5.82274 -1.83819 0
M  V30 8451 H 872.747 4.43324 -3.63506 0
M  V30 8452 H 871.144 4.12118 -4.3621 0
M  V30 8453 H 872.214 2.75795 -3.9883 0
M  V30 8454 N 873.557 1.20646 1.01402 0
M  V30 8455 C 874.968 1.01823 1.56489 0
M  V30 8456 C 875.319 -0.42463 1.9155 0
M  V30 8457 O 874.444 -1.30644 1.72514 0
M  V30 8458 C 875.039 1.84208 2.84347 0
M  V30 8459 C 873.598 1.69743 3.35953 0
M  V30 8460 C 872.745 1.8198 2.09233 0
M  V30 8461 H 875.696 1.348 0.837539 0
M  V30 8462 H 875.717 1.34698 3.55861 0
M  V30 8463 H 875.229 2.89215 2.58798 0
M  V30 8464 H 873.33 0.673833 3.66456 0
M  V30 8465 H 873.443 2.51173 4.07981 0
M  V30 8466 H 871.807 1.25193 2.21808 0
M  V30 8467 H 872.59 2.88477 1.86107 0
M  V30 8468 N 875.035 -1.20752 1.01276 0
M  V30 8469 C 875.965 -2.25658 0.600064 0
M  V30 8470 C 876.946 -1.65733 -0.38298 0
M  V30 8471 O 878.131 -1.92324 -0.269256 0
M  V30 8472 C 875.261 -3.47237 -0.0663197 0
M  V30 8473 C 874.215 -4.1973 0.83731 0
M  V30 8474 C 873.541 -5.34687 0.0369102 0
M  V30 8475 C 874.841 -4.76286 2.14357 0
M  V30 8476 H 876.535 -2.60432 1.477 0
M  V30 8477 H 874.081 -1.25187 0.711634 0
M  V30 8478 H 876.034 -4.19803 -0.366563 0
M  V30 8479 H 874.758 -3.11615 -0.977944 0
M  V30 8480 H 873.417 -3.49024 1.1215 0
M  V30 8481 H 873.065 -4.95309 -0.876244 0
M  V30 8482 H 872.765 -5.84119 0.63865 0
M  V30 8483 H 874.289 -6.10059 -0.256968 0
M  V30 8484 H 875.703 -5.40691 1.90595 0
M  V30 8485 H 874.1 -5.36139 2.69583 0
M  V30 8486 H 875.17 -3.9524 2.80916 0
M  V30 8487 N 876.513 -0.788492 -1.36457 0
M  V30 8488 C 877.443 -0.200468 -2.32638 0
M  V30 8489 C 878.424 0.664031 -1.56603 0
M  V30 8490 O 879.609 0.598045 -1.84762 0
M  V30 8491 C 876.739 0.666274 -3.40849 0
M  V30 8492 C 875.693 -0.0982574 -4.27887 0
M  V30 8493 C 875.019 0.889018 -5.27258 0
M  V30 8494 C 876.319 -1.28692 -5.06197 0
M  V30 8495 H 878.013 -1.00399 -2.82065 0
M  V30 8496 H 875.559 -0.484237 -1.35614 0
M  V30 8497 H 877.512 1.08757 -4.07124 0
M  V30 8498 H 876.236 1.50249 -2.89987 0
M  V30 8499 H 874.895 -0.500525 -3.63167 0
M  V30 8500 H 874.543 1.72024 -4.7267 0
M  V30 8501 H 874.243 0.381909 -5.86358 0
M  V30 8502 H 875.767 1.30891 -5.96406 0
M  V30 8503 H 877.181 -0.941429 -5.65517 0
M  V30 8504 H 875.578 -1.72726 -5.74705 0
M  V30 8505 H 876.648 -2.08273 -4.37893 0
M  V30 8506 N 877.991 1.48044 -0.54043 0
M  V30 8507 C 879.402 1.86418 -0.102662 0
M  V30 8508 C 879.753 1.4489 1.32293 0
M  V30 8509 O 878.878 0.844319 1.99249 0
M  V30 8510 C 879.473 3.38324 -0.179533 0
M  V30 8511 C 878.032 3.75852 0.203098 0
M  V30 8512 C 877.179 2.72097 -0.534637 0
M  V30 8513 H 880.13 1.398 -0.751103 0
M  V30 8514 H 880.151 3.75641 0.606147 0
M  V30 8515 H 879.663 3.68518 -1.21721 0
M  V30 8516 H 877.764 3.51272 1.24252 0
M  V30 8517 H 877.877 4.78884 -0.143784 0
M  V30 8518 H 876.241 2.54692 0.0203358 0
M  V30 8519 H 877.024 3.05135 -1.57314 0
M  V30 8520 N 879.47 0.276058 1.55163 0
M  V30 8521 C 880.433 -0.597924 2.21263 0
M  V30 8522 C 881.433 -1.0806 1.19078 0
M  V30 8523 O 882.623 -0.980626 1.43977 0
M  V30 8524 C 879.755 -1.82503 2.87933 0
M  V30 8525 H 880.948 -0.0207769 2.99893 0
M  V30 8526 H 878.501 0.0266823 1.56277 0
M  V30 8527 H 879.236 -2.44266 2.13318 0
M  V30 8528 H 879.021 -1.48683 3.62816 0
M  V30 8529 H 880.511 -2.44651 3.38431 0
M  V30 8530 N 880.948 -1.576 0.00335426 0
M  V30 8531 C 882.225 -1.81945 -0.718015 0
M  V30 8532 C 882.605 -0.881788 -1.91801 0
M  V30 8533 O 881.953 0.0687118 -2.28397 0
M  V30 8534 C 882.163 -3.30521 -1.12058 0
M  V30 8535 C 883.511 -3.96345 -1.52303 0
M  V30 8536 O 884.535 -3.34864 -1.21428 0
M  V30 8537 O 883.394 -5.04655 -2.09728 0
M  V30 8538 H 880.488 -0.749328 -0.34991 0
M  V30 8539 H 883.034 -1.69675 0.0290654 0
M  V30 8540 H 881.806 -3.90399 -0.265378 0
M  V30 8541 H 881.429 -3.47802 -1.92665 0
M  V30 8542 N 882.426 0.269451 -1.5528 0
M  V30 8543 C 883.703 1.02207 -1.66773 0
M  V30 8544 C 884.083 2.04168 -0.536536 0
M  V30 8545 O 883.431 2.23761 0.462956 0
M  V30 8546 C 883.641 1.67569 -3.0614 0
M  V30 8547 C 884.989 2.18599 -3.64005 0
M  V30 8548 O 886.013 1.7755 -3.08795 0
M  V30 8549 O 884.872 2.93903 -4.60742 0
M  V30 8550 H 881.966 0.474314 -0.677462 0
M  V30 8551 H 884.512 0.265026 -1.67618 0
M  V30 8552 H 883.284 0.937029 -3.79915 0
M  V30 8553 H 882.907 2.49951 -3.09209 0
M  V30 8554 N 883.904 1.48273 0.534124 0
M  V30 8555 C 885.315 1.49667 1.1161 0
M  V30 8556 C 885.666 0.264139 1.94414 0
M  V30 8557 O 884.791 -0.629084 2.07054 0
M  V30 8558 C 885.386 2.71191 2.03079 0
M  V30 8559 C 883.945 2.7547 2.56502 0
M  V30 8560 C 883.092 2.43119 1.33373 0
M  V30 8561 H 886.043 1.55449 0.319578 0
M  V30 8562 H 886.064 2.49473 2.87304 0
M  V30 8563 H 885.576 3.60879 1.42785 0
M  V30 8564 H 883.677 1.89979 3.20529 0
M  V30 8565 H 883.79 3.76787 2.95919 0
M  V30 8566 H 882.154 1.94187 1.64813 0
M  V30 8567 H 882.937 3.35044 0.748375 0
M  V30 8568 N 885.382 -0.782676 1.36792 0
M  V30 8569 C 886.314 -1.9044 1.27536 0
M  V30 8570 C 887.327 -1.61647 0.193426 0
M  V30 8571 O 888.516 -1.72769 0.448692 0
M  V30 8572 C 885.616 -3.2541 0.946641 0
M  V30 8573 C 884.789 -3.81932 2.13183 0
M  V30 8574 C 883.848 -4.95355 1.7751 0
M  V30 8575 O 882.874 -5.11517 2.49678 0
M  V30 8576 N 884.076 -5.76108 0.712755 0
M  V30 8577 H 886.841 -1.98899 2.24186 0
M  V30 8578 H 884.402 -0.96127 1.30274 0
M  V30 8579 H 886.394 -3.98791 0.689043 0
M  V30 8580 H 884.964 -3.12524 0.0690591 0
M  V30 8581 H 884.184 -3.00459 2.55183 0
M  V30 8582 H 885.472 -4.16426 2.92347 0
M  V30 8583 H 884.87 -5.65586 0.113662 0
M  V30 8584 H 883.427 -6.49762 0.514995 0
M  V30 8585 N 886.86 -1.21182 -1.00761 0
M  V30 8586 C 887.823 -0.970339 -2.07646 0
M  V30 8587 C 888.823 0.0576345 -1.60697 0
M  V30 8588 O 890.013 -0.179369 -1.73274 0
M  V30 8589 C 887.145 -0.462703 -3.37745 0
M  V30 8590 H 888.338 -1.91856 -2.30502 0
M  V30 8591 H 885.891 -1.02844 -1.17698 0
M  V30 8592 H 886.626 0.490559 -3.20568 0
M  V30 8593 H 886.411 -1.20416 -3.73152 0
M  V30 8594 H 887.901 -0.313531 -4.16421 0
M  V30 8595 N 888.338 1.20213 -1.01915 0
M  V30 8596 C 889.754 1.41696 -0.734459 0
M  V30 8597 C 889.954 1.89504 0.684867 0
M  V30 8598 O 889.01 2.06556 1.45227 0
M  V30 8599 C 890.323 2.43644 -1.76233 0
M  V30 8600 C 891.871 2.57406 -1.78076 0
M  V30 8601 C 892.346 3.626 -2.79796 0
M  V30 8602 N 893.837 3.70086 -2.78551 0
M  V30 8603 C 894.572 4.51145 -3.53915 0
M  V30 8604 N 894.068 5.35988 -4.38963 0
M  V30 8605 N 895.861 4.45702 -3.425 0
M  V30 8606 H 888.012 0.874976 -1.93541 0
M  V30 8607 H 890.275 0.446647 -0.836188 0
M  V30 8608 H 889.981 2.15519 -2.77929 0
M  V30 8609 H 889.855 3.42672 -1.57657 0
M  V30 8610 H 892.242 2.8486 -0.770634 0
M  V30 8611 H 892.323 1.58565 -2.00725 0
M  V30 8612 H 891.967 3.35889 -3.80973 0
M  V30 8613 H 891.897 4.61069 -2.54407 0
M  V30 8614 H 894.388 3.09484 -2.1686 0
M  V30 8615 H 894.701 5.94932 -4.9323 0
M  V30 8616 H 893.046 5.35482 -4.4304 0
M  V30 8617 H 896.237 3.78456 -2.75478 0
M  V30 8618 H 896.41 5.08637 -4.01487 0
M  V30 8619 N 889.816 0.795718 1.36037 0
M  V30 8620 C 891.041 0.38204 2.03851 0
M  V30 8621 C 891.466 -0.995553 1.59594 0
M  V30 8622 O 890.824 -1.64258 0.767401 0
M  V30 8623 C 890.872 0.461248 3.57638 0
M  V30 8624 O 889.976 -0.529448 4.08987 0
M  V30 8625 H 889.317 0.161227 0.644129 0
M  V30 8626 H 891.847 1.07858 1.73861 0
M  V30 8627 H 891.857 0.32712 4.06687 0
M  V30 8628 H 890.532 1.46613 3.89201 0
M  V30 8629 H 889.109 -0.35646 3.71192 0
M  V30 8630 N 891.294 -1.47756 0.548274 0
M  V30 8631 C 892.224 -2.32702 -0.19284 0
M  V30 8632 C 893.205 -1.43237 -0.917457 0
M  V30 8633 O 894.39 -1.72103 -0.89967 0
M  V30 8634 C 891.52 -3.24831 -1.22891 0
M  V30 8635 C 890.474 -4.23466 -0.621312 0
M  V30 8636 C 889.8 -5.04856 -1.76137 0
M  V30 8637 C 891.1 -5.20616 0.419055 0
M  V30 8638 H 892.794 -2.94914 0.516323 0
M  V30 8639 H 890.34 -1.41818 0.24975 0
M  V30 8640 H 892.293 -3.83094 -1.75547 0
M  V30 8641 H 891.017 -2.60656 -1.9679 0
M  V30 8642 H 889.676 -3.66416 -0.116123 0
M  V30 8643 H 889.324 -4.37091 -2.48918 0
M  V30 8644 H 889.024 -5.71629 -1.36065 0
M  V30 8645 H 890.548 -5.65976 -2.29136 0
M  V30 8646 H 891.962 -5.73296 -0.0211034 0
M  V30 8647 H 890.359 -5.95543 0.738163 0
M  V30 8648 H 891.429 -4.66638 1.31822 0
M  V30 8649 N 892.772 -0.284283 -1.55015 0
M  V30 8650 C 893.722 0.613913 -2.19579 0
M  V30 8651 C 894.706 1.11153 -1.16335 0
M  V30 8652 O 895.898 1.05508 -1.42116 0
M  V30 8653 C 893.027 1.79329 -2.92739 0
M  V30 8654 C 892.113 1.31242 -4.03282 0
M  V30 8655 N 892.504 0.548344 -5.02819 0
M  V30 8656 C 890.802 1.5946 -4.1652 0
M  V30 8657 C 891.503 0.294358 -5.80955 0
M  V30 8658 N 890.479 0.869406 -5.36603 0
M  V30 8659 H 894.281 0.0224088 -2.93891 0
M  V30 8660 H 891.795 -0.0882619 -1.6216 0
M  V30 8661 H 893.792 2.44814 -3.37449 0
M  V30 8662 H 892.452 2.38865 -2.1994 0
M  V30 8663 H 893.463 0.194812 -5.17533 0
M  V30 8664 H 890.14 2.19866 -3.54916 0
M  V30 8665 H 891.53 -0.318195 -6.71146 0
M  V30 8666 N 894.251 1.57596 -0.0117121 0
M  V30 8667 C 895.667 1.55837 0.344506 0
M  V30 8668 C 895.867 1.01557 1.74036 0
M  V30 8669 O 894.923 0.654563 2.43868 0
M  V30 8670 C 896.236 2.99973 0.209023 0
M  V30 8671 C 897.784 3.11717 0.283092 0
M  V30 8672 C 898.259 4.57659 0.176599 0
M  V30 8673 N 899.75 4.62608 0.234133 0
M  V30 8674 C 900.485 5.73132 0.175252 0
M  V30 8675 N 899.981 6.92768 0.0662888 0
M  V30 8676 N 901.774 5.61638 0.227972 0
M  V30 8677 H 893.925 1.91215 -0.924692 0
M  V30 8678 H 896.188 0.878807 -0.355531 0
M  V30 8679 H 895.894 3.4357 -0.751826 0
M  V30 8680 H 895.768 3.64075 0.98635 0
M  V30 8681 H 898.155 2.68043 1.23439 0
M  V30 8682 H 898.236 2.50369 -0.52431 0
M  V30 8683 H 897.88 5.02011 -0.771205 0
M  V30 8684 H 897.81 5.16967 1.00264 0
M  V30 8685 H 900.301 3.76549 0.319203 0
M  V30 8686 H 900.614 7.72795 0.0275765 0
M  V30 8687 H 898.959 6.94993 0.0317502 0
M  V30 8688 H 902.15 4.67063 0.311377 0
M  V30 8689 H 902.323 6.47754 0.178621 0
M  V30 8690 N 895.729 -0.261212 1.5542 0
M  V30 8691 C 897.14 -0.83138 1.67167 0
M  V30 8692 C 897.491 -1.8659 0.606525 0
M  V30 8693 O 896.616 -2.14953 -0.24985 0
M  V30 8694 C 897.211 -1.51475 3.03052 0
M  V30 8695 C 895.77 -2.0328 3.16787 0
M  V30 8696 C 894.917 -0.878903 2.63003 0
M  V30 8697 H 897.868 -0.0373102 1.58656 0
M  V30 8698 H 897.889 -2.38222 2.96699 0
M  V30 8699 H 897.401 -0.76157 3.80554 0
M  V30 8700 H 895.502 -2.81523 2.44082 0
M  V30 8701 H 895.615 -2.24001 4.2351 0
M  V30 8702 H 893.979 -1.27551 2.2046 0
M  V30 8703 H 894.762 -0.13904 3.43018 0
M  V30 8704 N 897.207 -1.48554 -0.526253 0
M  V30 8705 C 898.432 -1.60686 -1.31129 0
M  V30 8706 C 898.857 -0.268701 -1.86171 0
M  V30 8707 O 898.215 0.760167 -1.64594 0
M  V30 8708 C 898.263 -2.65938 -2.43536 0
M  V30 8709 O 897.367 -2.23356 -3.46678 0
M  V30 8710 H 896.708 -0.538691 -0.388211 0
M  V30 8711 H 899.238 -1.94567 -0.632826 0
M  V30 8712 H 899.248 -2.87327 -2.89668 0
M  V30 8713 H 897.923 -3.63085 -2.02835 0
M  V30 8714 H 896.5 -2.12196 -3.06639 0
M  V30 8715 N 898.685 0.775411 -1.37205 0
M  V30 8716 C 899.913 1.56446 -1.35397 0
M  V30 8717 C 900.328 1.887 0.0615437 0
M  V30 8718 O 899.685 1.51178 1.02233 0
M  V30 8719 C 899.736 2.87697 -2.18889 0
M  V30 8720 O 899.457 2.56828 -3.54924 0
M  V30 8721 C 900.958 3.81944 -2.25019 0
M  V30 8722 H 898.178 0.484792 -0.463916 0
M  V30 8723 H 900.722 0.961346 -1.80495 0
M  V30 8724 H 898.877 3.44442 -1.7731 0
M  V30 8725 H 899.291 3.40851 -3.98649 0
M  V30 8726 H 900.765 4.71055 -2.87769 0
M  V30 8727 H 901.242 4.20811 -1.25757 0
M  V30 8728 H 901.848 3.3113 -2.66895 0
M  V30 8729 N 900.163 1.21714 1.00117 0
M  V30 8730 C 901.126 0.981338 2.07129 0
M  V30 8731 C 902.126 -0.0491116 1.60725 0
M  V30 8732 O 903.316 0.188555 1.73177 0
M  V30 8733 C 900.448 0.480608 3.37495 0
M  V30 8734 H 901.641 1.93075 2.29482 0
M  V30 8735 H 899.194 1.03467 1.17151 0
M  V30 8736 H 899.929 -0.473552 3.20824 0
M  V30 8737 H 899.714 1.22393 3.72508 0
M  V30 8738 H 901.204 0.33561 4.16249 0
M  V30 8739 N 901.641 -1.19671 1.02551 0
M  V30 8740 C 902.604 -2.20987 0.608055 0
M  V30 8741 C 903.604 -1.5745 -0.326534 0
M  V30 8742 O 904.794 -1.73827 -0.114003 0
M  V30 8743 C 901.926 -3.4072 -0.11074 0
M  V30 8744 H 903.119 -2.59434 1.50446 0
M  V30 8745 H 900.672 -1.3329 0.816307 0
M  V30 8746 H 901.407 -3.07787 -1.02165 0
M  V30 8747 H 901.192 -3.88069 0.560772 0
M  V30 8748 H 902.682 -4.15776 -0.389848 0
M  V30 8749 N 903.119 -0.802921 -1.35613 0
M  V30 8750 C 904.347 -0.39393 -2.03115 0
M  V30 8751 C 904.762 0.993961 -1.60517 0
M  V30 8752 O 904.119 1.63984 -0.800973 0
M  V30 8753 C 904.17 -0.463486 -3.58516 0
M  V30 8754 O 903.891 -1.79666 -3.99565 0
M  V30 8755 C 905.392 -0.0468377 -4.43275 0
M  V30 8756 H 902.612 -0.160519 -0.651517 0
M  V30 8757 H 905.156 -1.08552 -1.73311 0
M  V30 8758 H 903.311 0.179821 -3.86982 0
M  V30 8759 H 903.725 -1.75688 -4.942 0
M  V30 8760 H 905.199 -0.146626 -5.51805 0
M  V30 8761 H 905.676 1.00741 -4.2749 0
M  V30 8762 H 906.282 -0.663158 -4.20098 0
M  V30 8763 N 904.597 1.47463 -0.556102 0
M  V30 8764 C 905.527 2.32801 0.180497 0
M  V30 8765 C 906.508 1.43721 0.909848 0
M  V30 8766 O 907.693 1.72578 0.89053 0
M  V30 8767 C 904.823 3.25478 1.21167 0
M  V30 8768 C 903.777 4.2379 0.598846 0
M  V30 8769 C 903.103 5.05783 1.73457 0
M  V30 8770 C 904.403 5.20387 -0.446659 0
M  V30 8771 H 906.097 2.94636 -0.531956 0
M  V30 8772 H 903.643 1.41683 -0.257267 0
M  V30 8773 H 905.596 3.8402 1.73513 0
M  V30 8774 H 904.32 2.61695 1.95405 0
M  V30 8775 H 902.979 3.66472 0.0966897 0
M  V30 8776 H 902.627 4.38405 2.46596 0
M  V30 8777 H 902.327 5.72343 1.33031 0
M  V30 8778 H 903.851 5.67183 2.26131 0
M  V30 8779 H 905.265 5.73299 -0.00930019 0
M  V30 8780 H 903.662 5.95143 -0.769735 0
M  V30 8781 H 904.732 4.65932 -1.34295 0
M  V30 8782 N 906.075 0.2925 1.54862 0
M  V30 8783 C 907.023 -0.603186 2.24643 0
M  V30 8784 C 908.017 -1.1439 1.24946 0
M  V30 8785 O 909.223 -1.09552 1.42823 0
M  V30 8786 H 905.598 -0.213105 0.721173 0
M  V30 8787 H 907.569 0.00799278 2.98399 0
M  V30 8788 C 906.318 -1.76769 2.99413 0
M  V30 8789 H 905.641 -1.36084 3.75927 0
M  V30 8790 H 907.081 -2.37066 3.51533 0
M  V30 8791 C 905.54 -2.66669 2.05886 0
M  V30 8792 O 906.07 -3.67525 1.62136 0
M  V30 8793 N 904.276 -2.34216 1.7202 0
M  V30 8794 H 903.823 -1.52246 2.07795 0
M  V30 8795 H 903.781 -2.94635 1.09717 0
M  V30 8796 N 907.553 -1.57587 0.0200696 0
M  V30 8797 C 908.483 -2.12702 -0.963333 0
M  V30 8798 C 909.464 -1.04094 -1.34531 0
M  V30 8799 O 910.649 -1.31881 -1.42552 0
M  V30 8800 C 907.779 -2.64673 -2.24868 0
M  V30 8801 C 906.733 -3.77987 -2.00772 0
M  V30 8802 C 906.059 -4.16351 -3.35494 0
M  V30 8803 C 907.359 -5.0444 -1.35416 0
M  V30 8804 H 909.053 -2.95121 -0.504363 0
M  V30 8805 H 906.599 -1.41966 -0.24116 0
M  V30 8806 H 908.552 -3.01862 -2.94036 0
M  V30 8807 H 907.276 -1.79403 -2.72914 0
M  V30 8808 H 905.935 -3.41223 -1.34025 0
M  V30 8809 H 905.583 -3.28075 -3.81282 0
M  V30 8810 H 905.283 -4.92705 -3.20181 0
M  V30 8811 H 906.807 -4.56115 -4.05945 0
M  V30 8812 H 908.221 -5.39273 -1.94571 0
M  V30 8813 H 906.618 -5.85732 -1.30529 0
M  V30 8814 H 907.688 -4.83803 -0.325923 0
M  V30 8815 N 909.032 0.252966 -1.55557 0
M  V30 8816 C 910.257 1.0038 -1.8149 0
M  V30 8817 C 910.682 1.78397 -0.596318 0
M  V30 8818 O 910.04 1.7551 0.454535 0
M  V30 8819 C 910.088 1.9222 -3.05096 0
M  V30 8820 O 909.192 3.01302 -2.81587 0
M  V30 8821 H 908.533 0.285949 -0.599274 0
M  V30 8822 H 911.063 0.275795 -2.02733 0
M  V30 8823 H 911.073 2.338 -3.34368 0
M  V30 8824 H 909.748 1.34852 -3.93431 0
M  V30 8825 H 908.325 2.63894 -2.63466 0
M  V30 8826 N 910.51 1.48831 0.518367 0
M  V30 8827 C 911.473 1.63721 1.604 0
M  V30 8828 C 912.473 0.509857 1.52503 0
M  V30 8829 O 913.663 0.775922 1.55965 0
M  V30 8830 C 910.795 1.61831 3.00039 0
M  V30 8831 H 911.988 2.60534 1.48533 0
M  V30 8832 H 909.541 1.37602 0.741309 0
M  V30 8833 H 910.276 0.665387 3.17401 0
M  V30 8834 H 910.061 2.43686 3.0718 0
M  V30 8835 H 911.551 1.75467 3.78947 0
M  V30 8836 N 911.988 -0.768124 1.37614 0
M  V30 8837 C 913.234 -1.52907 1.33219 0
M  V30 8838 C 913.567 -1.94026 -0.0821218 0
M  V30 8839 O 912.842 -1.64345 -1.04023 0
M  V30 8840 C 913.125 -2.79164 2.27463 0
M  V30 8841 C 912.978 -2.44276 3.7769 0
M  V30 8842 C 914.297 -3.81115 2.20089 0
M  V30 8843 H 911.416 -0.554712 0.485246 0
M  V30 8844 H 914.058 -0.880911 1.68345 0
M  V30 8845 H 912.208 -3.34472 1.97639 0
M  V30 8846 H 913.88 -1.94855 4.18126 0
M  V30 8847 H 912.123 -1.76925 3.96081 0
M  V30 8848 H 912.794 -3.34544 4.39072 0
M  V30 8849 H 915.27 -3.35311 2.46386 0
M  V30 8850 H 914.146 -4.67174 2.88166 0
M  V30 8851 H 914.407 -4.25644 1.19498 0
M  V30 8852 N 913.466 -1.22244 -0.994698 0
M  V30 8853 C 914.429 -0.992308 -2.06606 0
M  V30 8854 C 915.429 0.0405872 -1.60749 0
M  V30 8855 O 916.619 -0.197737 -1.73074 0
M  V30 8856 C 913.751 -0.498499 -3.37236 0
M  V30 8857 H 914.944 -1.9429 -2.28455 0
M  V30 8858 H 912.497 -1.04087 -1.166 0
M  V30 8859 H 913.232 0.456531 -3.21071 0
M  V30 8860 H 913.017 -1.24367 -3.71854 0
M  V30 8861 H 914.507 -0.35768 -4.16065 0
M  V30 8862 N 914.944 1.19125 -1.03184 0
M  V30 8863 C 915.907 2.20662 -0.619766 0
M  V30 8864 C 916.907 1.57621 0.318179 0
M  V30 8865 O 918.097 1.73885 0.104783 0
M  V30 8866 C 915.229 3.40774 0.0926696 0
M  V30 8867 H 916.422 2.58633 -1.5182 0
M  V30 8868 H 913.975 1.32855 -0.823364 0
M  V30 8869 H 914.71 3.08324 1.00531 0
M  V30 8870 H 914.495 3.87766 -0.581344 0
M  V30 8871 H 915.985 4.15977 0.367792 0
M  V30 8872 N 916.422 0.810101 1.35185 0
M  V30 8873 C 917.354 0.180581 2.28488 0
M  V30 8874 C 918.367 -0.622154 1.50443 0
M  V30 8875 O 919.556 -0.453938 1.72632 0
M  V30 8876 C 916.656 -0.766447 3.30119 0
M  V30 8877 C 915.829 -0.00932028 4.37399 0
M  V30 8878 C 914.888 -0.875354 5.18868 0
M  V30 8879 O 913.914 -0.325012 5.68271 0
M  V30 8880 N 915.116 -2.19695 5.37321 0
M  V30 8881 H 917.881 0.98212 2.83151 0
M  V30 8882 H 915.442 0.665879 1.47573 0
M  V30 8883 H 917.434 -1.35012 3.81515 0
M  V30 8884 H 916.004 -1.46878 2.75945 0
M  V30 8885 H 915.224 0.755585 3.86891 0
M  V30 8886 H 916.512 0.512352 5.06214 0
M  V30 8887 H 915.91 -2.66797 4.98834 0
M  V30 8888 H 914.467 -2.72978 5.91884 0
M  V30 8889 N 917.9 -1.47166 0.563914 0
M  V30 8890 C 919.148 -2.02056 0.0422873 0
M  V30 8891 C 919.469 -1.43992 -1.31497 0
M  V30 8892 O 918.739 -0.617578 -1.85911 0
M  V30 8893 H 917.319 -0.746893 0.0126427 0
M  V30 8894 H 919.981 -1.80492 0.735441 0
M  V30 8895 H 919.077 -3.12073 -0.0408044 0
M  V30 8896 N 919.378 -0.300708 -1.54705 0
M  V30 8897 C 920.341 0.562648 -2.22187 0
M  V30 8898 C 921.341 1.06152 -1.20782 0
M  V30 8899 O 922.531 0.957596 -1.45519 0
M  V30 8900 C 919.663 1.77899 -2.908 0
M  V30 8901 H 920.856 -0.0269361 -2.99888 0
M  V30 8902 H 918.409 -0.0515412 -1.56215 0
M  V30 8903 H 919.144 2.40841 -2.17177 0
M  V30 8904 H 918.929 1.42892 -3.65136 0
M  V30 8905 H 920.419 2.39236 -3.42281 0
M  V30 8906 N 920.856 1.57574 -0.0284266 0
M  V30 8907 C 922.272 1.56194 0.327958 0
M  V30 8908 C 922.472 1.03397 1.72949 0
M  V30 8909 O 921.528 0.680392 2.4316 0
M  V30 8910 C 922.841 3.00177 0.177196 0
M  V30 8911 C 924.389 3.12 0.250014 0
M  V30 8912 C 924.864 4.57821 0.128049 0
M  V30 8913 N 926.355 4.6283 0.185054 0
M  V30 8914 C 927.09 5.73286 0.114454 0
M  V30 8915 N 926.586 6.928 -0.00719225 0
M  V30 8916 N 928.379 5.61848 0.16839 0
M  V30 8917 H 920.53 1.90224 -0.944921 0
M  V30 8918 H 922.793 0.874987 -0.364832 0
M  V30 8919 H 922.499 3.42753 -0.788224 0
M  V30 8920 H 922.373 3.65101 0.94768 0
M  V30 8921 H 924.76 2.69337 1.20589 0
M  V30 8922 H 924.841 2.49799 -0.550835 0
M  V30 8923 H 924.485 5.01165 -0.824407 0
M  V30 8924 H 924.415 5.18001 0.947753 0
M  V30 8925 H 926.906 3.76867 0.279247 0
M  V30 8926 H 927.219 7.72781 -0.0543903 0
M  V30 8927 H 925.564 6.94987 -0.0419648 0
M  V30 8928 H 928.755 4.67367 0.261821 0
M  V30 8929 H 928.928 6.47907 0.109908 0
M  V30 8930 N 922.334 -0.244713 1.55689 0
M  V30 8931 C 923.264 -1.30667 1.93516 0
M  V30 8932 C 924.245 -1.50094 0.800371 0
M  V30 8933 O 925.43 -1.62665 1.06083 0
M  V30 8934 C 922.56 -2.66101 2.23176 0
M  V30 8935 C 921.514 -2.61366 3.38927 0
M  V30 8936 C 920.84 -4.00616 3.54134 0
M  V30 8937 C 922.14 -2.18161 4.74555 0
M  V30 8938 H 923.834 -0.992546 2.82469 0
M  V30 8939 H 921.38 -0.476018 1.35905 0
M  V30 8940 H 923.333 -3.4053 2.48228 0
M  V30 8941 H 922.057 -2.99154 1.31051 0
M  V30 8942 H 920.716 -1.89395 3.13887 0
M  V30 8943 H 920.364 -4.30938 2.59426 0
M  V30 8944 H 920.064 -3.98335 4.31975 0
M  V30 8945 H 921.588 -4.76741 3.8151 0
M  V30 8946 H 923.002 -2.82323 4.98965 0
M  V30 8947 H 921.399 -2.26988 5.55515 0
M  V30 8948 H 922.469 -1.13333 4.7147 0
M  V30 8949 N 923.813 -1.49104 -0.510467 0
M  V30 8950 C 924.743 -1.67981 -1.62187 0
M  V30 8951 C 925.724 -0.528529 -1.6168 0
M  V30 8952 O 926.909 -0.763305 -1.7857 0
M  V30 8953 C 924.039 -1.73755 -3.0071 0
M  V30 8954 C 922.993 -2.88579 -3.1608 0
M  V30 8955 C 922.319 -2.79457 -4.5586 0
M  V30 8956 C 923.619 -4.29638 -2.97 0
M  V30 8957 H 925.313 -2.61029 -1.46643 0
M  V30 8958 H 922.859 -1.25615 -0.704042 0
M  V30 8959 H 924.812 -1.85548 -3.78352 0
M  V30 8960 H 923.536 -0.772996 -3.17321 0
M  V30 8961 H 922.195 -2.76372 -2.40861 0
M  V30 8962 H 921.843 -1.80929 -4.69333 0
M  V30 8963 H 921.543 -3.56518 -4.67086 0
M  V30 8964 H 923.067 -2.93245 -5.35574 0
M  V30 8965 H 924.481 -4.42575 -3.64418 0
M  V30 8966 H 922.878 -5.07847 -3.19704 0
M  V30 8967 H 923.948 -4.44741 -1.93219 0
M  V30 8968 N 925.291 0.760815 -1.38019 0
M  V30 8969 C 926.201 1.90526 -1.36884 0
M  V30 8970 C 927.217 1.71941 -0.266908 0
M  V30 8971 O 928.393 1.94988 -0.50413 0
M  V30 8972 C 925.458 3.25799 -1.18558 0
M  V30 8973 C 924.519 3.56961 -2.3849 0
M  V30 8974 C 923.752 4.8578 -2.21029 0
M  V30 8975 O 923.975 5.57629 -1.20023 0
M  V30 8976 O 922.909 5.16254 -3.0946 0
M  V30 8977 H 926.735 1.94437 -2.33298 0
M  V30 8978 H 924.32 0.905091 -1.18863 0
M  V30 8979 H 926.202 4.0669 -1.1037 0
M  V30 8980 H 924.877 3.22716 -0.252241 0
M  V30 8981 H 923.784 2.7626 -2.52252 0
M  V30 8982 H 925.117 3.64798 -3.30429 0
M  V30 8983 N 926.769 1.22769 0.988202 0
M  V30 8984 C 928.18 1.0512 1.54294 0
M  V30 8985 C 928.531 -0.383904 1.92407 0
M  V30 8986 O 927.656 -1.26955 1.75246 0
M  V30 8987 C 928.251 1.90198 2.80375 0
M  V30 8988 C 926.81 1.76831 3.32276 0
M  V30 8989 C 925.957 1.86377 2.05326 0
M  V30 8990 H 928.908 1.36546 0.808758 0
M  V30 8991 H 928.929 1.42216 3.52923 0
M  V30 8992 H 928.441 2.9464 2.52605 0
M  V30 8993 H 926.542 0.751412 3.64945 0
M  V30 8994 H 926.655 2.59771 4.02562 0
M  V30 8995 H 925.019 1.2987 2.19103 0
M  V30 8996 H 925.802 2.9236 1.79946 0
M  V30 8997 N 928.247 -1.18576 1.03814 0
M  V30 8998 C 929.477 -1.92158 0.758864 0
M  V30 8999 C 929.885 -1.76267 -0.687498 0
M  V30 9000 O 929.228 -1.08806 -1.4801 0
M  V30 9001 C 929.29 -3.44063 1.04217 0
M  V30 9002 C 928.954 -3.8373 2.48193 0
M  V30 9003 C 929.951 -3.87722 3.46363 0
M  V30 9004 C 927.636 -4.151 2.82838 0
M  V30 9005 C 929.63 -4.2253 4.77229 0
M  V30 9006 C 927.317 -4.49578 4.13911 0
M  V30 9007 C 928.315 -4.53269 5.10917 0
M  V30 9008 O 928.003 -4.86945 6.39641 0
M  V30 9009 H 927.735 -0.61694 0.276335 0
M  V30 9010 H 930.289 -1.51388 1.38819 0
M  V30 9011 H 928.519 -3.85061 0.355709 0
M  V30 9012 H 930.208 -3.9889 0.751091 0
M  V30 9013 H 930.974 -3.63627 3.20936 0
M  V30 9014 H 926.853 -4.11406 2.08006 0
M  V30 9015 H 930.397 -4.25326 5.52941 0
M  V30 9016 H 926.294 -4.73133 4.39107 0
M  V30 9017 H 927.062 -5.04857 6.44253 0
M  V30 9018 N 929.725 -0.817259 -1.34754 0
M  V30 9019 C 931.002 -0.325468 -1.92873 0
M  V30 9020 C 931.382 1.18643 -1.74606 0
M  V30 9021 O 930.73 1.9909 -1.1214 0
M  V30 9022 C 930.94 -0.74858 -3.40877 0
M  V30 9023 C 932.288 -0.744165 -4.18028 0
M  V30 9024 O 933.312 -0.690799 -3.49437 0
M  V30 9025 O 932.171 -0.812207 -5.40431 0
M  V30 9026 H 929.265 -0.0876397 -0.822343 0
M  V30 9027 H 931.811 -0.901671 -1.43764 0
M  V30 9028 H 930.583 -1.79017 -3.47949 0
M  V30 9029 H 930.206 -0.147764 -3.97325 0
M  V30 9030 N 931.203 1.46865 -0.571711 0
M  V30 9031 C 932.614 1.86158 -0.142181 0
M  V30 9032 C 932.965 1.47663 1.2919 0
M  V30 9033 O 932.09 0.886393 1.97413 0
M  V30 9034 C 932.685 3.37867 -0.251256 0
M  V30 9035 C 931.244 3.76198 0.123329 0
M  V30 9036 C 930.391 2.70902 -0.592232 0
M  V30 9037 H 933.342 1.38176 -0.780587 0
M  V30 9038 H 933.363 3.76842 0.526331 0
M  V30 9039 H 932.875 3.65853 -1.2951 0
M  V30 9040 H 930.976 3.53829 1.16773 0
M  V30 9041 H 931.089 4.78471 -0.24533 0
M  V30 9042 H 929.453 2.54678 -0.0336927 0
M  V30 9043 H 930.236 3.01729 -1.63751 0
M  V30 9044 N 932.681 0.308908 1.54543 0
M  V30 9045 C 933.613 -0.597453 2.21276 0
M  V30 9046 C 934.626 -1.09137 1.20801 0
M  V30 9047 O 935.815 -1.00747 1.47351 0
M  V30 9048 C 932.915 -1.83085 2.85189 0
M  V30 9049 C 932.088 -1.4781 4.11669 0
M  V30 9050 C 931.147 -2.56748 4.59311 0
M  V30 9051 O 930.173 -2.21507 5.24331 0
M  V30 9052 N 931.375 -3.87427 4.32297 0
M  V30 9053 H 934.14 -0.0261183 2.99689 0
M  V30 9054 H 931.701 0.131456 1.61365 0
M  V30 9055 H 933.693 -2.55326 3.13992 0
M  V30 9056 H 932.263 -2.31039 2.1057 0
M  V30 9057 H 931.483 -0.587974 3.8979 0
M  V30 9058 H 932.771 -1.2179 4.94009 0
M  V30 9059 H 932.169 -4.18863 3.80224 0
M  V30 9060 H 930.726 -4.55942 4.6579 0
M  V30 9061 N 934.159 -1.57557 0.0367827 0
M  V30 9062 C 935.089 -2.13712 -0.940719 0
M  V30 9063 C 936.07 -1.05515 -1.33419 0
M  V30 9064 O 937.255 -1.33385 -1.41146 0
M  V30 9065 C 934.385 -2.67043 -2.22048 0
M  V30 9066 C 933.339 -3.80096 -1.96752 0
M  V30 9067 C 932.665 -4.19886 -3.31059 0
M  V30 9068 C 933.965 -5.05848 -1.30058 0
M  V30 9069 H 935.659 -2.9564 -0.473033 0
M  V30 9070 H 933.205 -1.42214 -0.226089 0
M  V30 9071 H 935.158 -3.04964 -2.90818 0
M  V30 9072 H 933.882 -1.82287 -2.70996 0
M  V30 9073 H 932.541 -3.42625 -1.30398 0
M  V30 9074 H 932.189 -3.32101 -3.77781 0
M  V30 9075 H 931.889 -4.96073 -3.14937 0
M  V30 9076 H 933.413 -4.60395 -4.01084 0
M  V30 9077 H 934.827 -5.41306 -1.8884 0
M  V30 9078 H 933.224 -5.87084 -1.24309 0
M  V30 9079 H 934.294 -4.84122 -0.274591 0
M  V30 9080 N 935.637 0.236453 -1.55816 0
M  V30 9081 C 936.6 1.27633 -1.90375 0
M  V30 9082 C 937.6 1.40557 -0.781048 0
M  V30 9083 O 938.79 1.39078 -1.04895 0
M  V30 9084 C 935.922 2.65247 -2.14142 0
M  V30 9085 H 937.115 0.982019 -2.83366 0
M  V30 9086 H 934.668 0.476215 -1.48869 0
M  V30 9087 H 935.403 2.99801 -1.23653 0
M  V30 9088 H 935.188 2.57246 -2.95917 0
M  V30 9089 H 936.678 3.40313 -2.42026 0
M  V30 9090 N 937.115 1.49373 0.502552 0
M  V30 9091 C 938.047 1.62045 1.62093 0
M  V30 9092 C 939.06 0.503221 1.54827 0
M  V30 9093 O 940.249 0.775208 1.60788 0
M  V30 9094 C 937.349 1.55971 3.00876 0
M  V30 9095 C 936.522 2.832 3.33341 0
M  V30 9096 C 935.581 2.702 4.51529 0
M  V30 9097 O 934.607 3.44132 4.53389 0
M  V30 9098 N 935.809 1.81642 5.5135 0
M  V30 9099 H 938.574 2.58501 1.51649 0
M  V30 9100 H 936.135 1.46442 0.690396 0
M  V30 9101 H 938.127 1.4493 3.77859 0
M  V30 9102 H 936.697 0.673795 3.05252 0
M  V30 9103 H 935.917 3.08604 2.4527 0
M  V30 9104 H 937.205 3.67551 3.51829 0
M  V30 9105 H 936.603 1.20829 5.52645 0
M  V30 9106 H 935.16 1.76524 6.27441 0
M  V30 9107 N 938.594 -0.753485 1.38421 0
M  V30 9108 C 939.822 -1.54272 1.37868 0
M  V30 9109 C 940.237 -1.88774 -0.0315155 0
M  V30 9110 O 939.594 -1.52785 -0.998148 0
M  V30 9111 C 939.645 -2.84179 2.23438 0
M  V30 9112 O 939.366 -2.51149 3.58965 0
M  V30 9113 C 940.867 -3.78316 2.31067 0
M  V30 9114 H 938.087 -0.47735 0.47157 0
M  V30 9115 H 940.631 -0.932509 1.82001 0
M  V30 9116 H 938.786 -3.41577 1.82767 0
M  V30 9117 H 939.2 -3.34466 4.04021 0
M  V30 9118 H 940.674 -4.66418 2.95226 0
M  V30 9119 H 941.151 -4.18757 1.32436 0
M  V30 9120 H 941.757 -3.26842 2.72129 0
M  V30 9121 N 940.072 -1.23292 -0.981677 0
M  V30 9122 C 941.002 -1.03738 -2.09191 0
M  V30 9123 C 941.983 0.0453041 -1.7004 0
M  V30 9124 O 943.168 -0.119092 -1.93834 0
M  V30 9125 C 940.298 -0.626426 -3.41604 0
M  V30 9126 C 939.252 -1.65631 -3.94652 0
M  V30 9127 C 938.578 -1.10084 -5.23245 0
M  V30 9128 C 939.878 -3.04903 -4.24066 0
M  V30 9129 H 941.572 -1.966 -2.25807 0
M  V30 9130 H 939.118 -0.946656 -1.0851 0
M  V30 9131 H 941.071 -0.476689 -4.18695 0
M  V30 9132 H 939.795 0.337873 -3.24848 0
M  V30 9133 H 938.454 -1.79402 -3.19704 0
M  V30 9134 H 938.102 -0.127562 -5.02838 0
M  V30 9135 H 937.802 -1.78896 -5.59705 0
M  V30 9136 H 939.326 -0.962928 -6.02959 0
M  V30 9137 H 940.74 -2.94441 -4.91912 0
M  V30 9138 H 939.137 -3.70941 -4.71724 0
M  V30 9139 H 940.207 -3.53991 -3.31389 0
M  V30 9140 N 941.55 1.18024 -1.04442 0
M  V30 9141 C 942.48 2.23988 -0.659683 0
M  V30 9142 C 943.461 1.6669 0.338904 0
M  V30 9143 O 944.646 1.92971 0.21817 0
M  V30 9144 C 941.776 3.4729 -0.0257672 0
M  V30 9145 C 940.73 4.17362 -0.948299 0
M  V30 9146 C 940.056 5.34401 -0.17866 0
M  V30 9147 C 941.356 4.70435 -2.26909 0
M  V30 9148 H 943.05 2.56425 -1.54553 0
M  V30 9149 H 940.596 1.23256 -0.744575 0
M  V30 9150 H 942.549 4.20627 0.255131 0
M  V30 9151 H 941.273 3.14098 0.894981 0
M  V30 9152 H 939.932 3.45928 -1.21364 0
M  V30 9153 H 939.58 4.97458 0.744614 0
M  V30 9154 H 939.28 5.8222 -0.793294 0
M  V30 9155 H 940.804 6.10526 0.0951315 0
M  V30 9156 H 942.218 5.35447 -2.04864 0
M  V30 9157 H 940.615 5.28803 -2.83703 0
M  V30 9158 H 941.685 3.87653 -2.91296 0
M  V30 9159 N 943.028 0.824394 1.34319 0
M  V30 9160 C 943.938 0.24932 2.33271 0
M  V30 9161 C 944.954 -0.617066 1.62691 0
M  V30 9162 O 946.13 -0.524616 1.94447 0
M  V30 9163 C 943.195 -0.578094 3.41846 0
M  V30 9164 C 942.256 0.310866 4.28173 0
M  V30 9165 C 941.489 -0.477153 5.31563 0
M  V30 9166 O 941.712 -1.71028 5.44156 0
M  V30 9167 O 940.646 0.141287 6.01734 0
M  V30 9168 H 944.472 1.06837 2.84288 0
M  V30 9169 H 942.057 0.58657 1.37403 0
M  V30 9170 H 943.939 -1.04878 4.0814 0
M  V30 9171 H 942.614 -1.37444 2.93071 0
M  V30 9172 H 941.521 0.829081 3.64797 0
M  V30 9173 H 942.854 1.07161 4.80393 0
M  V30 9174 N 944.506 -1.46559 0.579492 0
M  V30 9175 C 945.469 -2.28739 -0.145371 0
M  V30 9176 C 946.469 -1.38211 -0.821854 0
M  V30 9177 O 947.659 -1.6062 -0.674302 0
M  V30 9178 C 944.791 -3.18507 -1.21515 0
M  V30 9179 H 945.984 -2.94301 0.576786 0
M  V30 9180 H 943.537 -1.52616 0.337327 0
M  V30 9181 H 944.272 -2.57685 -1.96899 0
M  V30 9182 H 944.057 -3.85157 -0.734616 0
M  V30 9183 H 945.547 -3.80369 -1.72363 0
M  V30 9184 N 945.984 -0.3171 -1.54377 0
M  V30 9185 C 946.947 0.53905 -2.22771 0
M  V30 9186 C 947.947 1.04865 -1.21901 0
M  V30 9187 O 949.137 0.942108 -1.46526 0
M  V30 9188 C 946.269 1.74804 -2.92671 0
M  V30 9189 H 947.462 -0.0587417 -2.99842 0
M  V30 9190 H 945.015 -0.068107 -1.56152 0
M  V30 9191 H 945.75 2.38524 -2.1972 0
M  V30 9192 H 945.535 1.39011 -3.66631 0
M  V30 9193 H 947.025 2.35592 -3.44799 0
M  V30 9194 N 947.462 1.57535 -0.0451378 0
M  V30 9195 C 948.878 1.56533 0.311373 0
M  V30 9196 C 949.078 1.05225 1.71843 0
M  V30 9197 O 948.134 0.706144 2.42425 0
M  V30 9198 C 949.447 3.00349 0.145348 0
M  V30 9199 C 950.995 3.12248 0.216908 0
M  V30 9200 C 951.47 4.57931 0.0794834 0
M  V30 9201 N 952.961 4.63 0.135954 0
M  V30 9202 C 953.696 5.73375 0.0536426 0
M  V30 9203 N 953.192 6.92753 -0.0806725 0
M  V30 9204 N 954.985 5.61995 0.108789 0
M  V30 9205 H 947.136 1.89211 -0.965044 0
M  V30 9206 H 949.399 0.871068 -0.374091 0
M  V30 9207 H 949.105 3.41898 -0.824533 0
M  V30 9208 H 948.979 3.66086 0.908903 0
M  V30 9209 H 951.366 2.70601 1.17726 0
M  V30 9210 H 951.447 2.49201 -0.577299 0
M  V30 9211 H 951.091 5.00262 -0.877516 0
M  V30 9212 H 951.021 5.18977 0.892758 0
M  V30 9213 H 953.512 3.77142 0.23926 0
M  V30 9214 H 953.825 7.7268 -0.136351 0
M  V30 9215 H 952.17 6.94904 -0.115675 0
M  V30 9216 H 955.361 4.67619 0.212235 0
M  V30 9217 H 955.534 6.47987 0.0411822 0
M  V30 9218 N 948.94 -0.228186 1.55939 0
M  V30 9219 C 950.168 -0.970618 1.8272 0
M  V30 9220 C 950.583 -1.78212 0.623385 0
M  V30 9221 O 949.94 -1.77879 -0.408063 0
M  V30 9222 C 949.991 -1.89352 3.07942 0
M  V30 9223 O 949.712 -1.11483 4.23678 0
M  V30 9224 C 951.213 -2.75039 3.47661 0
M  V30 9225 H 948.433 -0.284772 0.607574 0
M  V30 9226 H 950.977 -0.245419 2.03022 0
M  V30 9227 H 949.132 -2.57275 2.89635 0
M  V30 9228 H 949.546 -1.74073 4.94772 0
M  V30 9229 H 951.02 -3.35511 4.38334 0
M  V30 9230 H 951.497 -3.471 2.69106 0
M  V30 9231 H 952.103 -2.1254 3.68384 0
M  V30 9232 N 950.418 -1.49637 -0.494624 0
M  V30 9233 C 951.646 -1.63164 -1.2722 0
M  V30 9234 C 952.061 -0.305552 -1.86311 0
M  V30 9235 O 951.418 0.709758 -1.68133 0
M  V30 9236 C 951.469 -2.70524 -2.39789 0
M  V30 9237 O 951.19 -3.97991 -1.83126 0
M  V30 9238 C 952.691 -2.94814 -3.31058 0
M  V30 9239 H 949.911 -0.54912 -0.385627 0
M  V30 9240 H 952.455 -1.95711 -0.593081 0
M  V30 9241 H 950.61 -2.40738 -3.03519 0
M  V30 9242 H 951.024 -4.57179 -2.57075 0
M  V30 9243 H 952.498 -3.73653 -4.06309 0
M  V30 9244 H 952.975 -2.04974 -3.88436 0
M  V30 9245 H 953.581 -3.26042 -2.73088 0
M  V30 9246 N 951.896 0.746133 -1.38819 0
M  V30 9247 C 953.142 1.50669 -1.3664 0
M  V30 9248 C 953.497 1.92356 0.0411513 0
M  V30 9249 O 952.79 1.63104 1.00537 0
M  V30 9250 C 952.984 2.76639 -2.26286 0
M  V30 9251 C 952.813 2.47268 -3.75618 0
M  V30 9252 C 951.583 2.40116 -4.44603 0
M  V30 9253 C 953.781 2.13548 -4.67869 0
M  V30 9254 N 951.763 2.03098 -5.79331 0
M  V30 9255 C 953.134 1.86883 -5.91164 0
M  V30 9256 C 955.189 1.99922 -4.56 0
M  V30 9257 C 953.892 1.47965 -7.03917 0
M  V30 9258 C 955.918 1.62406 -5.68664 0
M  V30 9259 C 955.28 1.36618 -6.91025 0
M  V30 9260 H 951.379 0.550624 -0.555282 0
M  V30 9261 H 953.963 0.868179 -1.74272 0
M  V30 9262 H 952.134 3.38287 -1.9083 0
M  V30 9263 H 953.866 3.42753 -2.1518 0
M  V30 9264 H 950.621 2.56839 -3.97908 0
M  V30 9265 H 951.045 1.87214 -6.506 0
M  V30 9266 H 955.687 2.18531 -3.61945 0
M  V30 9267 H 953.405 1.28096 -7.97883 0
M  V30 9268 H 956.991 1.52483 -5.61462 0
M  V30 9269 H 955.871 1.08021 -7.76725 0
M  V30 9270 N 953.375 1.23811 0.975125 0
M  V30 9271 C 954.338 1.02505 2.05001 0
M  V30 9272 C 955.338 -0.0150084 1.60793 0
M  V30 9273 O 956.528 0.225246 1.72738 0
M  V30 9274 C 953.66 0.552087 3.364 0
M  V30 9275 H 954.853 1.979 2.25335 0
M  V30 9276 H 952.406 1.05929 1.1493 0
M  V30 9277 H 953.141 -0.405394 3.21756 0
M  V30 9278 H 952.926 1.30267 3.69828 0
M  V30 9279 H 954.416 0.423828 4.15444 0
M  V30 9280 N 954.853 -1.17469 1.05066 0
M  V30 9281 C 955.816 -2.19648 0.654793 0
M  V30 9282 C 956.816 -1.58107 -0.293063 0
M  V30 9283 O 958.006 -1.74029 -0.077106 0
M  V30 9284 C 955.138 -3.40878 -0.0384437 0
M  V30 9285 H 956.331 -2.56184 1.55915 0
M  V30 9286 H 953.884 -1.31528 0.844396 0
M  V30 9287 H 954.619 -3.09885 -0.956133 0
M  V30 9288 H 954.404 -3.86792 0.642961 0
M  V30 9289 H 955.894 -4.1651 -0.301568 0
M  V30 9290 N 956.331 -0.831506 -1.3388 0
M  V30 9291 C 957.294 -0.264773 -2.27666 0
M  V30 9292 C 958.294 0.562273 -1.50649 0
M  V30 9293 O 959.484 0.377131 -1.70069 0
M  V30 9294 C 956.616 0.627814 -3.35069 0
M  V30 9295 H 957.809 -1.09225 -2.79303 0
M  V30 9296 H 955.362 -0.604021 -1.44157 0
M  V30 9297 H 956.097 1.47802 -2.88661 0
M  V30 9298 H 955.882 0.0361552 -3.92083 0
M  V30 9299 H 957.372 1.01786 -4.05005 0
M  V30 9300 N 957.809 1.4625 -0.587256 0
M  V30 9301 C 958.741 2.28482 0.181256 0
M  V30 9302 C 959.754 1.38777 0.851163 0
M  V30 9303 O 960.943 1.63336 0.719963 0
M  V30 9304 C 958.043 3.13944 1.27643 0
M  V30 9305 C 957.216 4.31802 0.697569 0
M  V30 9306 C 956.275 4.98626 1.68102 0
M  V30 9307 O 955.301 5.56075 1.21529 0
M  V30 9308 N 956.503 4.96051 3.0152 0
M  V30 9309 H 959.268 2.95079 -0.524267 0
M  V30 9310 H 956.829 1.56213 -0.425336 0
M  V30 9311 H 958.821 3.55513 1.93371 0
M  V30 9312 H 957.391 2.49391 1.88475 0
M  V30 9313 H 956.611 3.93961 -0.137293 0
M  V30 9314 H 957.899 5.07969 0.290696 0
M  V30 9315 H 957.297 4.5063 3.41978 0
M  V30 9316 H 955.854 5.41547 3.62725 0
M  V30 9317 N 959.287 0.325282 1.54207 0
M  V30 9318 C 960.197 -0.548778 2.28091 0
M  V30 9319 C 961.213 -1.12772 1.32508 0
M  V30 9320 O 962.389 -1.14732 1.65525 0
M  V30 9321 C 959.454 -1.69284 3.02562 0
M  V30 9322 C 958.515 -1.14553 4.13734 0
M  V30 9323 C 957.748 -2.23506 4.84645 0
M  V30 9324 O 957.971 -3.43884 4.55082 0
M  V30 9325 O 956.905 -1.88828 5.71513 0
M  V30 9326 H 960.731 0.0512974 3.03657 0
M  V30 9327 H 958.316 0.0909159 1.49123 0
M  V30 9328 H 960.198 -2.35887 3.49192 0
M  V30 9329 H 958.873 -2.27906 2.2987 0
M  V30 9330 H 957.78 -0.444532 3.71449 0
M  V30 9331 H 959.113 -0.60441 4.88475 0
M  V30 9332 N 960.765 -1.57509 0.0534917 0
M  V30 9333 C 961.715 -2.08179 -0.929802 0
M  V30 9334 C 962.699 -0.987451 -1.27036 0
M  V30 9335 O 963.891 -1.25076 -1.2524 0
M  V30 9336 C 961.02 -2.63221 -2.20385 0
M  V30 9337 C 960.106 -3.79629 -1.89058 0
M  V30 9338 N 960.497 -4.8931 -1.28101 0
M  V30 9339 C 958.795 -3.88578 -2.18914 0
M  V30 9340 C 959.496 -5.70329 -1.14455 0
M  V30 9341 N 958.472 -5.18011 -1.64821 0
M  V30 9342 H 962.274 -2.90374 -0.453874 0
M  V30 9343 H 959.788 -1.61697 -0.150899 0
M  V30 9344 H 961.785 -2.97827 -2.91727 0
M  V30 9345 H 960.445 -1.82466 -2.68582 0
M  V30 9346 H 961.456 -5.09058 -0.952924 0
M  V30 9347 H 958.133 -3.18769 -2.69616 0
M  V30 9348 H 959.523 -6.6854 -0.671129 0
M  V30 9349 N 962.243 0.219913 -1.56058 0
M  V30 9350 C 963.654 0.786766 -1.69313 0
M  V30 9351 C 964.005 1.84916 -0.655782 0
M  V30 9352 O 963.13 2.1554 0.192772 0
M  V30 9353 C 963.725 1.43387 -3.06962 0
M  V30 9354 C 962.284 1.94809 -3.22066 0
M  V30 9355 C 961.431 0.808863 -2.65241 0
M  V30 9356 H 964.382 -0.00476777 -1.58699 0
M  V30 9357 H 964.403 2.30272 -3.02911 0
M  V30 9358 H 963.915 0.660405 -3.8244 0
M  V30 9359 H 962.016 2.74952 -2.5146 0
M  V30 9360 H 962.129 2.12694 -4.293 0
M  V30 9361 H 960.493 1.21661 -2.23765 0
M  V30 9362 H 961.276 0.0480458 -3.43266 0
M  V30 9363 N 963.721 1.49897 0.486681 0
M  V30 9364 C 964.684 1.67086 1.56891 0
M  V30 9365 C 965.684 0.54209 1.51387 0
M  V30 9366 O 966.874 0.80883 1.54284 0
M  V30 9367 C 964.006 1.68159 2.96539 0
M  V30 9368 H 965.199 2.63626 1.42974 0
M  V30 9369 H 962.752 1.39143 0.711954 0
M  V30 9370 H 963.487 0.732562 3.15918 0
M  V30 9371 H 963.272 2.50147 3.01942 0
M  V30 9372 H 964.762 1.83466 3.7514 0
M  V30 9373 N 965.199 -0.738761 1.39212 0
M  V30 9374 C 966.129 -1.86602 1.40364 0
M  V30 9375 C 967.11 -1.67984 0.267495 0
M  V30 9376 O 968.295 -1.88358 0.472765 0
M  V30 9377 C 965.425 -3.24308 1.24265 0
M  V30 9378 C 964.379 -3.57557 2.35239 0
M  V30 9379 C 963.705 -4.94159 2.04233 0
M  V30 9380 C 965.005 -3.60914 3.77543 0
M  V30 9381 H 966.699 -1.85896 2.34698 0
M  V30 9382 H 964.245 -0.892959 1.1297 0
M  V30 9383 H 966.198 -4.02838 1.23692 0
M  V30 9384 H 964.922 -3.25531 0.263974 0
M  V30 9385 H 963.581 -2.81354 2.35022 0
M  V30 9386 H 963.229 -4.91959 1.04813 0
M  V30 9387 H 962.929 -5.17373 2.78567 0
M  V30 9388 H 964.453 -5.7505 2.05303 0
M  V30 9389 H 965.867 -4.29528 3.79709 0
M  V30 9390 H 964.264 -3.95644 4.51205 0
M  V30 9391 H 965.334 -2.60803 4.08791 0
M  V30 9392 N 966.677 -1.24326 -0.968545 0
M  V30 9393 C 967.907 -1.10786 -1.74385 0
M  V30 9394 C 968.315 0.342503 -1.86074 0
M  V30 9395 O 967.658 1.24817 -1.34782 0
M  V30 9396 C 967.72 -1.67274 -3.18213 0
M  V30 9397 C 967.384 -3.1615 -3.29998 0
M  V30 9398 C 968.381 -4.13309 -3.15392 0
M  V30 9399 C 966.066 -3.56092 -3.54265 0
M  V30 9400 C 968.06 -5.48392 -3.24878 0
M  V30 9401 C 965.747 -4.91316 -3.63389 0
M  V30 9402 C 966.745 -5.87275 -3.48707 0
M  V30 9403 O 966.433 -7.20041 -3.57485 0
M  V30 9404 H 966.165 -0.387795 -0.553706 0
M  V30 9405 H 968.719 -1.64894 -1.22471 0
M  V30 9406 H 966.949 -1.07598 -3.71429 0
M  V30 9407 H 968.638 -1.49036 -3.77549 0
M  V30 9408 H 969.404 -3.83792 -2.96528 0
M  V30 9409 H 965.283 -2.81907 -3.6476 0
M  V30 9410 H 968.827 -6.23271 -3.13335 0
M  V30 9411 H 964.724 -5.20505 -3.81766 0
M  V30 9412 H 965.492 -7.27951 -3.74205 0
M  V30 9413 N 968.156 1.1691 -1.05688 0
M  V30 9414 C 969.119 2.19297 -0.666433 0
M  V30 9415 C 970.119 1.5826 0.284674 0
M  V30 9416 O 971.309 1.74068 0.0678757 0
M  V30 9417 C 968.441 3.40894 0.0203656 0
M  V30 9418 H 969.634 2.55354 -1.57272 0
M  V30 9419 H 967.187 1.31078 -0.851359 0
M  V30 9420 H 967.922 3.10388 0.939686 0
M  V30 9421 H 967.707 3.86446 -0.663464 0
M  V30 9422 H 969.197 4.16664 0.279475 0
M  V30 9423 N 969.634 0.838594 1.33437 0
M  V30 9424 C 971.045 0.490934 1.8013 0
M  V30 9425 C 971.396 -0.990024 1.6939 0
M  V30 9426 O 970.521 -1.77139 1.24302 0
M  V30 9427 C 971.116 0.884347 3.27055 0
M  V30 9428 C 969.675 0.588829 3.71766 0
M  V30 9429 C 968.822 1.09282 2.54858 0
M  V30 9430 H 971.773 1.02732 1.20962 0
M  V30 9431 H 971.794 0.194283 3.80004 0
M  V30 9432 H 971.306 1.96225 3.34839 0
M  V30 9433 H 969.407 -0.479018 3.69508 0
M  V30 9434 H 969.52 1.14387 4.65245 0
M  V30 9435 H 967.884 0.513702 2.49466 0
M  V30 9436 H 968.667 2.1775 2.65405 0
M  V30 9437 N 971.112 -1.45937 0.595003 0
M  V30 9438 C 972.36 -2.01921 0.0851368 0
M  V30 9439 C 972.681 -1.46748 -1.28413 0
M  V30 9440 O 971.951 -0.656873 -1.84559 0
M  V30 9441 H 970.531 -0.746457 0.0284826 0
M  V30 9442 H 973.193 -1.78891 0.773561 0
M  V30 9443 H 972.289 -3.1209 0.0254002 0
M  V30 9444 N 972.59 -0.333456 -1.54032 0
M  V30 9445 C 973.5 0.536674 -2.28379 0
M  V30 9446 C 974.516 1.12068 -1.33104 0
M  V30 9447 O 975.692 1.13853 -1.66131 0
M  V30 9448 C 972.757 1.67677 -3.03456 0
M  V30 9449 C 971.818 1.12357 -4.14336 0
M  V30 9450 C 971.051 2.20933 -4.85823 0
M  V30 9451 O 971.274 3.41466 -4.569 0
M  V30 9452 O 970.208 1.85795 -5.72507 0
M  V30 9453 H 974.034 -0.0674003 -3.03625 0
M  V30 9454 H 971.619 -0.098823 -1.49073 0
M  V30 9455 H 973.501 2.34032 -3.50438 0
M  V30 9456 H 972.176 2.26684 -2.31076 0
M  V30 9457 H 971.083 0.424827 -3.7168 0
M  V30 9458 H 972.416 0.578497 -4.88789 0
M  V30 9459 N 974.068 1.57479 -0.061844 0
M  V30 9460 C 975.031 2.1104 0.894127 0
M  V30 9461 C 976.031 1.03227 1.23292 0
M  V30 9462 O 977.221 1.29256 1.16784 0
M  V30 9463 C 974.353 2.6035 2.20069 0
M  V30 9464 H 975.546 2.96807 0.429619 0
M  V30 9465 H 973.099 1.55181 0.18672 0
M  V30 9466 H 973.834 1.78008 2.71079 0
M  V30 9467 H 973.619 3.39146 1.9678 0
M  V30 9468 H 975.109 3.019 2.88525 0
M  V30 9469 N 975.546 -0.211634 1.56173 0
M  V30 9470 C 976.794 -0.932704 1.7929 0
M  V30 9471 C 977.115 -1.84472 0.632076 0
M  V30 9472 O 976.385 -1.92739 -0.350519 0
M  V30 9473 H 974.965 -0.347393 0.661307 0
M  V30 9474 H 977.627 -0.22111 1.93642 0
M  V30 9475 H 976.723 -1.53365 2.71819 0
M  V30 9476 N 977.024 -1.50153 -0.478725 0
M  V30 9477 C 977.987 -1.67916 -1.56003 0
M  V30 9478 C 978.987 -0.550111 -1.51097 0
M  V30 9479 O 980.177 -0.817001 -1.53853 0
M  V30 9480 C 977.309 -1.6973 -2.95643 0
M  V30 9481 H 978.502 -2.6438 -1.41573 0
M  V30 9482 H 976.055 -1.39519 -0.704565 0
M  V30 9483 H 976.79 -0.749306 -3.15525 0
M  V30 9484 H 976.575 -2.51745 -3.00611 0
M  V30 9485 H 978.065 -1.85453 -3.74162 0
M  V30 9486 N 978.502 0.731368 -1.39602 0
M  V30 9487 C 979.779 1.48308 -1.27531 0
M  V30 9488 C 980.159 2.10795 0.113482 0
M  V30 9489 O 979.507 1.98886 1.12501 0
M  V30 9490 C 979.717 2.53156 -2.40235 0
M  V30 9491 C 981.065 3.19436 -2.79725 0
M  V30 9492 O 982.089 2.6347 -2.39712 0
M  V30 9493 O 980.948 4.20714 -3.48801 0
M  V30 9494 H 978.042 0.658753 -0.499973 0
M  V30 9495 H 980.588 0.764884 -1.51485 0
M  V30 9496 H 979.36 2.05387 -3.33064 0
M  V30 9497 H 978.983 3.3253 -2.17966 0
M  V30 9498 N 979.98 1.24838 0.961938 0
M  V30 9499 C 981.228 1.08936 1.70227 0
M  V30 9500 C 981.549 -0.371582 1.91427 0
M  V30 9501 O 980.819 -1.26461 1.49614 0
M  V30 9502 H 979.399 0.400128 0.630799 0
M  V30 9503 H 982.061 1.56848 1.15692 0
M  V30 9504 H 981.157 1.59195 2.68446 0
M  V30 9505 N 981.458 -1.16348 1.06306 0
M  V30 9506 C 982.706 -1.86512 0.778311 0
M  V30 9507 C 983.027 -1.82107 -0.697273 0
M  V30 9508 O 982.297 -1.2547 -1.50446 0
M  V30 9509 H 980.877 -0.690529 0.284919 0
M  V30 9510 H 983.539 -1.41092 1.34458 0
M  V30 9511 H 982.635 -2.91947 1.10333 0
M  V30 9512 N 982.937 -0.845659 -1.3299 0
M  V30 9513 C 984.185 -0.443774 -1.97168 0
M  V30 9514 C 984.506 1.00192 -1.67292 0
M  V30 9515 O 983.776 1.69891 -0.975397 0
M  V30 9516 H 982.356 -0.161111 -0.729419 0
M  V30 9517 H 985.018 -1.08011 -1.62233 0
M  V30 9518 H 984.114 -0.581414 -3.06637 0
M  V30 9519 N 984.415 1.45619 -0.602734 0
M  V30 9520 C 985.378 2.28941 0.108962 0
M  V30 9521 C 986.378 1.39501 0.799762 0
M  V30 9522 O 987.568 1.61673 0.648663 0
M  V30 9523 C 984.7 3.204 1.16432 0
M  V30 9524 H 985.893 2.93346 -0.623534 0
M  V30 9525 H 983.446 1.52061 -0.361565 0
M  V30 9526 H 984.181 2.60785 1.92774 0
M  V30 9527 H 983.966 3.86277 0.673248 0
M  V30 9528 H 985.456 3.83063 1.6629 0
M  V30 9529 N 985.893 0.34162 1.53853 0
M  V30 9530 C 987.123 -0.256557 2.05001 0
M  V30 9531 C 987.531 -1.44916 1.21639 0
M  V30 9532 O 986.874 -1.8207 0.244138 0
M  V30 9533 C 986.936 -0.737109 3.51862 0
M  V30 9534 C 986.6 0.335584 4.55766 0
M  V30 9535 C 987.597 1.17765 5.06387 0
M  V30 9536 C 985.282 0.488958 4.99914 0
M  V30 9537 C 987.276 2.15865 5.99734 0
M  V30 9538 C 984.963 1.47336 5.93073 0
M  V30 9539 C 985.961 2.30666 6.4287 0
M  V30 9540 O 985.649 3.2743 7.34197 0
M  V30 9541 H 985.381 -0.0536867 0.673865 0
M  V30 9542 H 987.935 0.49123 1.99439 0
M  V30 9543 H 986.165 -1.53611 3.54881 0
M  V30 9544 H 987.854 -1.25562 3.85991 0
M  V30 9545 H 988.62 1.07023 4.73044 0
M  V30 9546 H 984.499 -0.149807 4.60757 0
M  V30 9547 H 988.043 2.80945 6.38526 0
M  V30 9548 H 983.94 1.58134 6.25831 0
M  V30 9549 H 984.708 3.22879 7.52125 0
M  V30 9550 N 987.371 -1.57444 0.0701946 0
M  V30 9551 C 988.319 -2.13834 -0.915302 0
M  V30 9552 C 989.313 -1.07483 -1.30934 0
M  V30 9553 O 990.519 -1.25865 -1.28678 0
M  V30 9554 H 986.894 -0.683716 -0.313108 0
M  V30 9555 H 988.865 -2.95503 -0.414758 0
M  V30 9556 C 987.614 -2.71355 -2.17398 0
M  V30 9557 H 986.937 -3.52861 -1.87961 0
M  V30 9558 H 988.377 -3.1441 -2.84469 0
M  V30 9559 C 986.836 -1.66038 -2.93143 0
M  V30 9560 O 987.366 -1.08443 -3.86786 0
M  V30 9561 N 985.572 -1.3711 -2.56221 0
M  V30 9562 H 985.119 -1.84135 -1.80145 0
M  V30 9563 H 985.077 -0.66877 -3.07205 0
M  V30 9564 N 988.849 0.203349 -1.56283 0
M  V30 9565 C 990.126 0.950415 -1.70958 0
M  V30 9566 C 990.506 2.01708 -0.622647 0
M  V30 9567 O 989.854 2.25523 0.367635 0
M  V30 9568 C 990.064 1.54434 -3.12971 0
M  V30 9569 C 991.412 2.02964 -3.72949 0
M  V30 9570 O 992.436 1.64293 -3.16048 0
M  V30 9571 O 991.295 2.74097 -4.72793 0
M  V30 9572 H 988.389 0.445154 -0.69697 0
M  V30 9573 H 990.935 0.193695 -1.68591 0
M  V30 9574 H 989.707 0.77505 -3.83547 0
M  V30 9575 H 989.33 2.36611 -3.19532 0
M  V30 9576 N 990.327 1.50405 0.470755 0
M  V30 9577 C 991.552 1.65442 1.25075 0
M  V30 9578 C 991.977 0.337612 1.85045 0
M  V30 9579 O 991.335 -0.698555 1.67302 0
M  V30 9580 C 991.383 2.74793 2.33498 0
M  V30 9581 O 990.487 2.36069 3.3815 0
M  V30 9582 H 989.828 0.552728 0.367951 0
M  V30 9583 H 992.358 1.96782 0.560177 0
M  V30 9584 H 992.368 2.97879 2.78804 0
M  V30 9585 H 991.043 3.70363 1.8922 0
M  V30 9586 H 989.62 2.2343 2.98552 0
M  V30 9587 N 991.805 -0.723954 1.39988 0
M  V30 9588 C 992.737 -1.84859 1.35498 0
M  V30 9589 C 993.75 -1.60681 0.261812 0
M  V30 9590 O 994.939 -1.7071 0.521566 0
M  V30 9591 C 992.039 -3.21103 1.08381 0
M  V30 9592 C 991.212 -3.72546 2.2919 0
M  V30 9593 C 990.271 -4.8738 1.9836 0
M  V30 9594 O 989.297 -5.00467 2.71149 0
M  V30 9595 N 990.499 -5.72566 0.956461 0
M  V30 9596 H 993.264 -1.89212 2.3242 0
M  V30 9597 H 990.825 -0.905152 1.34233 0
M  V30 9598 H 992.817 -3.9551 0.857564 0
M  V30 9599 H 991.387 -3.1195 0.201549 0
M  V30 9600 H 990.607 -2.89365 2.67697 0
M  V30 9601 H 991.895 -4.03652 3.09746 0
M  V30 9602 H 991.293 -5.64595 0.353444 0
M  V30 9603 H 989.85 -6.46993 0.790118 0
M  V30 9604 N 993.283 -1.25346 -0.955304 0
M  V30 9605 C 994.529 -1.10218 -1.70235 0
M  V30 9606 C 994.862 0.356124 -1.90907 0
M  V30 9607 O 994.137 1.26253 -1.47954 0
M  V30 9608 C 994.42 -1.85627 -3.08569 0
M  V30 9609 C 994.273 -3.39281 -2.95311 0
M  V30 9610 C 995.592 -1.63886 -4.08448 0
M  V30 9611 H 992.711 -0.401781 -0.617852 0
M  V30 9612 H 995.353 -1.5417 -1.11048 0
M  V30 9613 H 993.503 -1.48269 -3.59094 0
M  V30 9614 H 995.175 -3.8631 -2.52116 0
M  V30 9615 H 993.418 -3.67027 -2.31244 0
M  V30 9616 H 994.089 -3.87258 -3.93364 0
M  V30 9617 H 996.565 -1.96406 -3.6683 0
M  V30 9618 H 995.441 -2.19087 -5.03281 0
M  V30 9619 H 995.702 -0.580021 -4.38279 0
M  V30 9620 N 994.761 1.15782 -1.06922 0
M  V30 9621 C 995.724 2.18578 -0.689654 0
M  V30 9622 C 996.724 1.58553 0.267872 0
M  V30 9623 O 997.914 1.7413 0.0494097 0
M  V30 9624 C 995.046 3.40896 -0.0157919 0
M  V30 9625 H 996.239 2.53672 -1.59971 0
M  V30 9626 H 993.792 1.30168 -0.865214 0
M  V30 9627 H 994.527 3.11367 0.906712 0
M  V30 9628 H 994.312 3.85721 -0.704415 0
M  V30 9629 H 995.802 4.16937 0.235266 0
M  V30 9630 N 996.239 0.8527 1.3254 0
M  V30 9631 C 997.516 0.376491 1.91942 0
M  V30 9632 C 997.896 -1.13972 1.7769 0
M  V30 9633 O 997.244 -1.96047 1.17379 0
M  V30 9634 C 997.454 0.838694 3.38773 0
M  V30 9635 C 998.802 0.854736 4.15908 0
M  V30 9636 O 999.826 0.783203 3.47483 0
M  V30 9637 O 998.685 0.955207 5.38087 0
M  V30 9638 H 995.779 0.109412 0.81973 0
M  V30 9639 H 998.325 0.93947 1.41322 0
M  V30 9640 H 997.097 1.88179 3.43081 0
M  V30 9641 H 996.72 0.253055 3.96794 0
M  V30 9642 N 997.718 -1.45297 0.610449 0
M  V30 9643 C 998.628 -2.34349 -0.108475 0
M  V30 9644 C 999.644 -1.51409 -0.857397 0
M  V30 9645 O 1000.82 -1.84202 -0.814337 0
M  V30 9646 C 997.885 -3.29072 -1.09144 0
M  V30 9647 C 996.946 -4.27918 -0.344165 0
M  V30 9648 C 996.179 -5.18116 -1.28031 0
M  V30 9649 O 996.402 -5.11802 -2.51824 0
M  V30 9650 O 995.336 -5.96879 -0.775821 0
M  V30 9651 H 999.162 -2.97232 0.623421 0
M  V30 9652 H 996.747 -1.44728 0.3707 0
M  V30 9653 H 998.629 -3.87433 -1.65751 0
M  V30 9654 H 997.304 -2.68749 -1.80431 0
M  V30 9655 H 996.211 -3.73164 0.264437 0
M  V30 9656 H 997.544 -4.91104 0.328275 0
M  V30 9657 N 999.196 -0.349774 -1.5367 0
M  V30 9658 C 1000.44 0.244827 -2.01015 0
M  V30 9659 C 1000.77 1.50057 -1.23746 0
M  V30 9660 O 1000.03 1.9315 -0.314872 0
M  V30 9661 C 1000.32 0.598311 -3.52356 0
M  V30 9662 C 999.991 -0.56127 -4.47393 0
M  V30 9663 C 998.653 -0.879481 -4.73095 0
M  V30 9664 C 1001 -1.3389 -5.03709 0
M  V30 9665 C 998.333 -1.97758 -5.52366 0
M  V30 9666 C 1000.68 -2.4273 -5.84179 0
M  V30 9667 C 999.349 -2.75103 -6.08173 0
M  V30 9668 H 998.619 0.0895884 -0.735564 0
M  V30 9669 H 1001.27 -0.478975 -1.85413 0
M  V30 9670 H 999.571 1.40291 -3.65822 0
M  V30 9671 H 1001.27 1.07036 -3.86451 0
M  V30 9672 H 997.858 -0.303201 -4.27526 0
M  V30 9673 H 1002.04 -1.10632 -4.83812 0
M  V30 9674 H 997.298 -2.23257 -5.6918 0
M  V30 9675 H 1001.47 -3.03412 -6.26828 0
M  V30 9676 H 999.099 -3.60317 -6.69385 0
M  V30 9677 N 1000.67 1.57404 -0.0785433 0
M  V30 9678 C 1001.9 1.97787 0.596995 0
M  V30 9679 C 1002.31 0.955904 1.63276 0
M  V30 9680 O 1001.65 -0.0649169 1.83585 0
M  V30 9681 C 1001.72 3.34499 1.31723 0
M  V30 9682 C 1001.38 4.54933 0.434144 0
M  V30 9683 C 1002.38 5.18969 -0.311015 0
M  V30 9684 C 1000.06 5.01029 0.357046 0
M  V30 9685 C 1002.06 6.27457 -1.12142 0
M  V30 9686 C 999.744 6.09389 -0.457029 0
M  V30 9687 C 1000.74 6.72466 -1.19493 0
M  V30 9688 O 1000.43 7.78738 -1.99556 0
M  V30 9689 H 1000.16 0.655294 0.166028 0
M  V30 9690 H 1002.72 2.04855 -0.149517 0
M  V30 9691 H 1000.95 3.24064 2.10996 0
M  V30 9692 H 1002.63 3.5944 1.88567 0
M  V30 9693 H 1003.4 4.84297 -0.261084 0
M  V30 9694 H 999.28 4.51706 0.921026 0
M  V30 9695 H 1002.82 6.76622 -1.69788 0
M  V30 9696 H 998.721 6.43494 -0.508499 0
M  V30 9697 H 999.489 7.95648 -1.9206 0
M  V30 9698 N 1002.15 -0.195058 1.56388 0
M  V30 9699 C 1003.4 -0.912248 1.81795 0
M  V30 9700 C 1003.75 -1.80886 0.655596 0
M  V30 9701 O 1003.05 -1.88391 -0.34922 0
M  V30 9702 C 1003.24 -1.7637 3.10851 0
M  V30 9703 C 1003.07 -0.951012 4.39529 0
M  V30 9704 C 1001.84 -0.635425 5.01289 0
M  V30 9705 C 1004.04 -0.303702 5.13403 0
M  V30 9706 N 1002.02 0.195887 6.13587 0
M  V30 9707 C 1003.39 0.38981 6.18773 0
M  V30 9708 C 1005.44 -0.219433 4.97416 0
M  V30 9709 C 1004.15 1.15957 7.09892 0
M  V30 9710 C 1006.17 0.536925 5.88958 0
M  V30 9711 C 1005.54 1.21888 6.93774 0
M  V30 9712 H 1001.63 -0.313208 0.716537 0
M  V30 9713 H 1004.22 -0.180977 1.93857 0
M  V30 9714 H 1002.39 -2.46657 3.00025 0
M  V30 9715 H 1004.12 -2.42037 3.24346 0
M  V30 9716 H 1000.88 -0.959855 4.63771 0
M  V30 9717 H 1001.3 0.601155 6.74326 0
M  V30 9718 H 1005.94 -0.732323 4.16409 0
M  V30 9719 H 1003.66 1.68389 7.90361 0
M  V30 9720 H 1007.25 0.603485 5.78662 0
M  V30 9721 H 1006.13 1.79478 7.63385 0
M  V30 9722 N 1003.63 -1.50653 -0.462772 0
M  V30 9723 C 1004.59 -1.69561 -1.54213 0
M  V30 9724 C 1005.59 -0.566106 -1.50505 0
M  V30 9725 O 1006.78 -0.833273 -1.52978 0
M  V30 9726 C 1003.91 -1.72856 -2.93826 0
M  V30 9727 H 1005.11 -2.65867 -1.38761 0
M  V30 9728 H 1002.66 -1.40259 -0.689728 0
M  V30 9729 H 1003.4 -0.78273 -3.14712 0
M  V30 9730 H 1003.18 -2.54919 -2.97924 0
M  V30 9731 H 1004.67 -1.89411 -3.72174 0
M  V30 9732 N 1005.11 0.71652 -1.4037 0
M  V30 9733 C 1006.07 1.81231 -1.40313 0
M  V30 9734 C 1007.07 1.58032 -0.297087 0
M  V30 9735 O 1008.26 1.65091 -0.555944 0
M  V30 9736 C 1005.39 3.19308 -1.19395 0
M  V30 9737 H 1006.59 1.8268 -2.3784 0
M  V30 9738 H 1004.14 0.922062 -1.26205 0
M  V30 9739 H 1004.87 3.2351 -0.226252 0
M  V30 9740 H 1004.66 3.37546 -1.99512 0
M  V30 9741 H 1006.15 3.99339 -1.22141 0
M  V30 9742 N 1006.59 1.25851 0.948643 0
M  V30 9743 C 1007.55 1.0683 2.0278 0
M  V30 9744 C 1008.55 0.0191016 1.60789 0
M  V30 9745 O 1009.74 0.261836 1.72221 0
M  V30 9746 C 1006.87 0.623318 3.35153 0
M  V30 9747 H 1008.06 2.02635 2.21086 0
M  V30 9748 H 1005.62 1.08343 1.12657 0
M  V30 9749 H 1006.35 -0.337053 3.22544 0
M  V30 9750 H 1006.14 1.38082 3.66982 0
M  V30 9751 H 1007.63 0.511854 4.14451 0
M  V30 9752 N 1008.06 -1.15214 1.07534 0
M  V30 9753 C 1008.97 -2.23636 0.708818 0
M  V30 9754 C 1009.99 -1.7172 -0.280759 0
M  V30 9755 O 1011.17 -2.01 -0.126927 0
M  V30 9756 C 1008.23 -3.46512 0.114167 0
M  V30 9757 C 1007.29 -4.13409 1.15722 0
M  V30 9758 C 1006.53 -5.30419 0.59085 0
M  V30 9759 O 1006.75 -5.67314 -0.592512 0
M  V30 9760 O 1005.68 -5.86871 1.33663 0
M  V30 9761 H 1009.51 -2.57322 1.61305 0
M  V30 9762 H 1007.09 -1.22972 0.848422 0
M  V30 9763 H 1008.98 -4.20851 -0.215091 0
M  V30 9764 H 1007.65 -3.1457 -0.763356 0
M  V30 9765 H 1006.56 -3.40984 1.53886 0
M  V30 9766 H 1007.89 -4.49435 2.00671 0
M  V30 9767 N 1009.54 -0.859717 -1.32086 0
M  V30 9768 C 1010.47 -0.323502 -2.31248 0
M  V30 9769 C 1011.45 0.580085 -1.59903 0
M  V30 9770 O 1012.64 0.499265 -1.87673 0
M  V30 9771 C 1009.77 0.484661 -3.43902 0
M  V30 9772 C 1008.72 -0.324933 -4.26765 0
M  V30 9773 C 1008.05 0.608281 -5.31229 0
M  V30 9774 C 1009.35 -1.55344 -4.98664 0
M  V30 9775 H 1011.04 -1.15209 -2.76346 0
M  V30 9776 H 1008.59 -0.555442 -1.32856 0
M  V30 9777 H 1010.54 0.870238 -4.12316 0
M  V30 9778 H 1009.27 1.34666 -2.97544 0
M  V30 9779 H 1007.92 -0.692328 -3.60003 0
M  V30 9780 H 1007.57 1.46727 -4.81124 0
M  V30 9781 H 1007.27 0.0705571 -5.87558 0
M  V30 9782 H 1008.8 0.990925 -6.02506 0
M  V30 9783 H 1010.21 -1.23987 -5.59732 0
M  V30 9784 H 1008.61 -2.02947 -5.64741 0
M  V30 9785 H 1009.68 -2.31192 -4.26237 0
M  V30 9786 N 1011.02 1.44971 -0.618145 0
M  V30 9787 C 1012.25 2.06228 -0.123985 0
M  V30 9788 C 1012.66 1.46166 1.20134 0
M  V30 9789 O 1012 0.574099 1.74499 0
M  V30 9790 C 1012.06 3.59413 0.0789098 0
M  V30 9791 C 1011.73 4.41869 -1.16624 0
M  V30 9792 C 1012.72 4.76177 -2.0869 0
M  V30 9793 C 1010.41 4.82453 -1.39802 0
M  V30 9794 C 1012.4 5.49938 -3.22254 0
M  V30 9795 C 1010.09 5.55965 -2.53665 0
M  V30 9796 C 1011.09 5.89626 -3.44718 0
M  V30 9797 O 1010.78 6.61644 -4.56598 0
M  V30 9798 H 1010.51 0.672274 -0.0708822 0
M  V30 9799 H 1013.06 1.87038 -0.848868 0
M  V30 9800 H 1011.29 3.77043 0.8588 0
M  V30 9801 H 1012.98 4.02478 0.52599 0
M  V30 9802 H 1013.75 4.45372 -1.92012 0
M  V30 9803 H 1009.63 4.55681 -0.698245 0
M  V30 9804 H 1013.17 5.76129 -3.93347 0
M  V30 9805 H 1009.07 5.86185 -2.70291 0
M  V30 9806 H 1009.84 6.80103 -4.55414 0
M  V30 9807 N 1012.5 0.357919 1.53482 0
M  V30 9808 C 1013.43 -0.484231 2.28424 0
M  V30 9809 C 1014.41 -1.09046 1.30548 0
M  V30 9810 O 1015.59 -1.10916 1.59409 0
M  V30 9811 C 1012.72 -1.62803 3.06778 0
M  V30 9812 C 1011.68 -1.14943 4.12277 0
M  V30 9813 C 1011 -2.38287 4.78669 0
M  V30 9814 C 1012.3 -0.239627 5.2175 0
M  V30 9815 H 1014 0.140979 2.99068 0
M  V30 9816 H 1011.54 0.069244 1.43833 0
M  V30 9817 H 1013.5 -2.22374 3.57949 0
M  V30 9818 H 1012.22 -2.28036 2.3381 0
M  V30 9819 H 1010.88 -0.576442 3.6204 0
M  V30 9820 H 1010.53 -3.01959 4.02281 0
M  V30 9821 H 1010.23 -2.06939 5.49955 0
M  V30 9822 H 1011.75 -2.98558 5.32631 0
M  V30 9823 H 1013.17 -0.742597 5.6847 0
M  V30 9824 H 1011.56 -0.0173747 6.00097 0
M  V30 9825 H 1012.63 0.720333 4.7952 0
M  V30 9826 N 1013.98 -1.5736 0.0868897 0
M  V30 9827 C 1015.2 -1.98388 -0.587349 0
M  V30 9828 C 1015.62 -0.965757 -1.6223 0
M  V30 9829 O 1014.98 0.0456981 -1.82443 0
M  V30 9830 C 1015.03 -3.39479 -1.24242 0
M  V30 9831 O 1014.75 -4.37393 -0.248878 0
M  V30 9832 C 1016.25 -3.95465 -2.00305 0
M  V30 9833 H 1013.47 -0.652111 -0.15809 0
M  V30 9834 H 1016.01 -2.03843 0.163754 0
M  V30 9835 H 1014.17 -3.35063 -1.94451 0
M  V30 9836 H 1014.58 -5.19525 -0.720678 0
M  V30 9837 H 1016.06 -4.96363 -2.41511 0
M  V30 9838 H 1016.53 -3.32832 -2.86565 0
M  V30 9839 H 1017.14 -4.03328 -1.34931 0
M  V30 9840 N 1015.45 0.186762 -1.56489 0
M  V30 9841 C 1016.68 0.921832 -1.85229 0
M  V30 9842 C 1017.1 1.76496 -0.670416 0
M  V30 9843 O 1016.45 1.78899 0.360758 0
M  V30 9844 C 1016.51 1.81121 -3.12854 0
M  V30 9845 O 1016.23 1.00211 -4.26485 0
M  V30 9846 C 1017.73 2.65725 -3.54831 0
M  V30 9847 H 1014.95 0.268563 -0.61491 0
M  V30 9848 H 1017.49 0.191505 -2.03601 0
M  V30 9849 H 1015.65 2.49506 -2.96354 0
M  V30 9850 H 1016.06 1.60893 -4.99213 0
M  V30 9851 H 1017.53 3.23771 -4.47075 0
M  V30 9852 H 1018.01 3.39843 -2.78215 0
M  V30 9853 H 1018.62 2.02698 -3.7389 0
M  V30 9854 N 1016.93 1.50896 0.454776 0
M  V30 9855 C 1018.18 1.62378 1.20324 0
M  V30 9856 C 1018.5 0.333883 1.9212 0
M  V30 9857 O 1017.77 -0.649477 1.8482 0
M  V30 9858 H 1016.35 0.598395 0.447139 0
M  V30 9859 H 1019.01 1.87749 0.523102 0
M  V30 9860 H 1018.11 2.44296 1.94232 0
M  V30 9861 N 1018.41 -0.709066 1.40748 0
M  V30 9862 C 1019.32 -1.85314 1.43861 0
M  V30 9863 C 1020.34 -1.70832 0.330539 0
M  V30 9864 O 1021.51 -1.92983 0.576152 0
M  V30 9865 C 1018.58 -3.21174 1.30568 0
M  V30 9866 C 1017.64 -3.47863 2.51574 0
M  V30 9867 C 1016.87 -4.77241 2.38906 0
M  V30 9868 O 1017.09 -5.52791 1.40636 0
M  V30 9869 O 1016.03 -5.04413 3.28407 0
M  V30 9870 H 1019.85 -1.85644 2.40354 0
M  V30 9871 H 1017.44 -0.860352 1.2214 0
M  V30 9872 H 1019.32 -4.02313 1.25388 0
M  V30 9873 H 1018 -3.21557 0.371841 0
M  V30 9874 H 1016.9 -2.66708 2.62331 0
M  V30 9875 H 1018.24 -3.52283 3.43741 0
M  V30 9876 N 1019.89 -1.26353 -0.941956 0
M  V30 9877 C 1021.17 -1.02601 -1.6653 0
M  V30 9878 C 1021.55 0.44381 -2.06382 0
M  V30 9879 O 1020.89 1.42399 -1.78703 0
M  V30 9880 C 1021.1 -1.97401 -2.87809 0
M  V30 9881 C 1022.45 -2.25967 -3.59478 0
M  V30 9882 O 1023.48 -1.95261 -2.97912 0
M  V30 9883 O 1022.34 -2.78244 -4.70364 0
M  V30 9884 H 1019.43 -0.39007 -0.729228 0
M  V30 9885 H 1021.98 -1.37559 -0.993754 0
M  V30 9886 H 1020.75 -2.9659 -2.55245 0
M  V30 9887 H 1020.37 -1.62918 -3.62689 0
M  V30 9888 N 1021.37 1.14642 -1.08144 0
M  V30 9889 C 1022.33 2.17834 -0.712799 0
M  V30 9890 C 1023.33 1.58828 0.251041 0
M  V30 9891 O 1024.52 1.74173 0.0309381 0
M  V30 9892 C 1021.65 3.4086 -0.0519477 0
M  V30 9893 H 1022.85 2.51961 -1.62653 0
M  V30 9894 H 1020.4 1.29243 -0.878971 0
M  V30 9895 H 1021.13 3.12311 0.873636 0
M  V30 9896 H 1020.92 3.84952 -0.745286 0
M  V30 9897 H 1022.41 4.17163 0.191031 0
M  V30 9898 N 1022.85 0.866709 1.31628 0
M  V30 9899 C 1024.09 0.476026 1.96825 0
M  V30 9900 C 1024.42 -0.970994 1.68529 0
M  V30 9901 O 1023.68 -1.69823 0.97255 0
M  V30 9902 C 1023.97 0.676018 3.50948 0
M  V30 9903 C 1023.64 2.09533 3.99258 0
M  V30 9904 C 1022.3 2.48349 4.1216 0
M  V30 9905 C 1024.65 3.02112 4.24709 0
M  V30 9906 C 1021.98 3.78991 4.47864 0
M  V30 9907 C 1024.33 4.32266 4.61875 0
M  V30 9908 C 1023 4.71 4.72985 0
M  V30 9909 H 1022.27 0.17419 0.720235 0
M  V30 9910 H 1024.92 1.09907 1.5682 0
M  V30 9911 H 1023.22 -0.0301867 3.91788 0
M  V30 9912 H 1024.92 0.353604 3.99438 0
M  V30 9913 H 1021.51 1.78396 3.89709 0
M  V30 9914 H 1025.69 2.73351 4.14238 0
M  V30 9915 H 1020.95 4.08769 4.54663 0
M  V30 9916 H 1025.12 5.04055 4.80522 0
M  V30 9917 H 1022.75 5.72273 5.00407 0
M  V30 9918 N 1024.32 -1.44642 0.625825 0
M  V30 9919 C 1025.29 -2.29085 -0.072526 0
M  V30 9920 C 1026.29 -1.40755 -0.777467 0
M  V30 9921 O 1027.48 -1.62684 -0.622861 0
M  V30 9922 C 1024.61 -3.22212 -1.1132 0
M  V30 9923 H 1025.8 -2.92317 0.670124 0
M  V30 9924 H 1023.35 -1.51466 0.38571 0
M  V30 9925 H 1024.09 -2.63819 -1.88601 0
M  V30 9926 H 1023.87 -3.87299 -0.611709 0
M  V30 9927 H 1025.36 -3.8566 -1.60175 0
M  V30 9928 N 1025.8 -0.366053 -1.5329 0
M  V30 9929 C 1027.03 0.224236 -2.05681 0
M  V30 9930 C 1027.44 1.42412 -1.23952 0
M  V30 9931 O 1026.8 1.80334 -0.280309 0
M  V30 9932 C 1026.85 0.617266 -3.56191 0
M  V30 9933 O 1026.57 -0.534931 -4.34822 0
M  V30 9934 C 1028.07 1.26589 -4.24841 0
M  V30 9935 H 1025.29 0.0392928 -0.669849 0
M  V30 9936 H 1027.84 -0.52456 -1.97658 0
M  V30 9937 H 1025.99 1.31598 -3.64364 0
M  V30 9938 H 1026.41 -0.217123 -5.2405 0
M  V30 9939 H 1027.88 1.49146 -5.31469 0
M  V30 9940 H 1028.36 2.22633 -3.78591 0
M  V30 9941 H 1028.96 0.6086 -4.20923 0
M  V30 9942 N 1027.28 1.57312 -0.0952337 0
M  V30 9943 C 1028.24 2.12889 0.849161 0
M  V30 9944 C 1029.24 1.05819 1.21075 0
M  V30 9945 O 1030.43 1.31704 1.14016 0
M  V30 9946 C 1027.56 2.6496 2.14498 0
M  V30 9947 H 1028.76 2.97651 0.366566 0
M  V30 9948 H 1026.31 1.55542 0.153762 0
M  V30 9949 H 1027.05 1.83718 2.67242 0
M  V30 9950 H 1026.83 3.43244 1.89542 0
M  V30 9951 H 1028.32 3.07952 2.82056 0
M  V30 9952 N 1028.76 -0.17846 1.56586 0
M  V30 9953 C 1030 -0.897562 1.81856 0
M  V30 9954 C 1030.34 -1.82204 0.671955 0
M  V30 9955 O 1029.61 -1.91739 -0.326535 0
M  V30 9956 C 1029.89 -1.69942 3.17477 0
M  V30 9957 C 1029.75 -0.798545 4.42655 0
M  V30 9958 C 1031.07 -2.66861 3.49962 0
M  V30 9959 H 1028.19 -0.324863 0.661539 0
M  V30 9960 H 1030.83 -0.164106 1.8929 0
M  V30 9961 H 1028.98 -2.32471 3.11271 0
M  V30 9962 H 1030.65 -0.18668 4.60922 0
M  V30 9963 H 1028.89 -0.106181 4.3367 0
M  V30 9964 H 1029.56 -1.39496 5.34083 0
M  V30 9965 H 1032.04 -2.1446 3.56576 0
M  V30 9966 H 1030.92 -3.20037 4.45946 0
M  V30 9967 H 1031.18 -3.46715 2.74301 0
M  V30 9968 N 1030.24 -1.51135 -0.446768 0
M  V30 9969 C 1031.46 -1.67129 -1.21965 0
M  V30 9970 C 1031.88 -0.36467 -1.85245 0
M  V30 9971 O 1031.24 0.655908 -1.70306 0
M  V30 9972 C 1031.29 -2.78016 -2.31061 0
M  V30 9973 O 1031.01 -4.03615 -1.70371 0
M  V30 9974 C 1032.51 -3.05197 -3.21511 0
M  V30 9975 H 1029.73 -0.561111 -0.367961 0
M  V30 9976 H 1032.27 -1.97499 -0.530517 0
M  V30 9977 H 1030.43 -2.50272 -2.95707 0
M  V30 9978 H 1030.84 -4.65126 -2.424 0
M  V30 9979 H 1032.32 -3.8639 -3.94216 0
M  V30 9980 H 1032.79 -2.17228 -3.81718 0
M  V30 9981 H 1033.4 -3.34565 -2.62577 0
M  V30 9982 N 1031.71 0.701592 -1.41122 0
M  V30 9983 C 1032.94 1.49049 -1.43499 0
M  V30 9984 C 1033.36 1.88761 -0.0385684 0
M  V30 9985 O 1032.71 1.56384 0.940755 0
M  V30 9986 C 1032.76 2.7569 -2.33832 0
M  V30 9987 O 1032.49 2.37653 -3.68039 0
M  V30 9988 C 1033.99 3.69479 -2.44949 0
M  V30 9989 H 1031.21 0.459519 -0.488961 0
M  V30 9990 H 1033.75 0.864318 -1.85337 0
M  V30 9991 H 1031.91 3.34559 -1.95318 0
M  V30 9992 H 1032.32 3.19241 -4.16156 0
M  V30 9993 H 1033.79 4.55139 -3.12334 0
M  V30 9994 H 1034.27 4.13553 -1.47887 0
M  V30 9995 H 1034.88 3.16517 -2.84072 0
M  V30 9996 N 1033.19 1.2685 0.935242 0
M  V30 9997 C 1034.42 1.15645 1.72165 0
M  V30 9998 C 1034.84 -0.283909 1.85945 0
M  V30 9999 O 1034.2 -1.20567 1.354 0
M  V30 10000 C 1034.25 1.83689 3.10307 0
M  V30 10001 O 1033.35 1.12972 3.96625 0
M  V30 10002 H 1032.69 0.402629 0.528002 0
M  V30 10003 H 1035.22 1.67781 1.17093 0
M  V30 10004 H 1035.23 1.90749 3.60664 0
M  V30 10005 H 1033.91 2.88472 2.99595 0
M  V30 10006 H 1032.48 1.13929 3.5507 0
M  V30 10007 N 1034.67 -1.14067 1.0875 0
M  V30 10008 C 1036.08 -1.66747 0.839778 0
M  V30 10009 C 1036.43 -1.85711 -0.632909 0
M  V30 10010 O 1035.56 -1.57084 -1.48841 0
M  V30 10011 C 1036.15 -3.02896 1.51787 0
M  V30 10012 C 1034.71 -3.52596 1.3173 0
M  V30 10013 C 1033.86 -2.27994 1.57841 0
M  V30 10014 H 1036.81 -0.980838 1.24761 0
M  V30 10015 H 1036.83 -3.68526 0.947057 0
M  V30 10016 H 1036.34 -2.89062 2.58969 0
M  V30 10017 H 1034.44 -3.71647 0.266339 0
M  V30 10018 H 1034.56 -4.33151 2.04736 0
M  V30 10019 H 1032.92 -2.34241 1.00015 0
M  V30 10020 H 1033.7 -2.16732 2.66237 0
M  V30 10021 N 1036.15 -0.873678 -1.31166 0
M  V30 10022 C 1037.08 -0.348011 -2.30892 0
M  V30 10023 C 1038.06 0.563092 -1.60509 0
M  V30 10024 O 1039.24 0.479332 -1.88192 0
M  V30 10025 C 1036.37 0.448158 -3.44396 0
M  V30 10026 C 1035.33 -0.370179 -4.26396 0
M  V30 10027 C 1034.65 0.551903 -5.31844 0
M  V30 10028 C 1035.95 -1.60624 -4.96988 0
M  V30 10029 H 1037.65 -1.18134 -2.75109 0
M  V30 10030 H 1035.19 -0.569502 -1.3226 0
M  V30 10031 H 1037.15 0.826458 -4.13216 0
M  V30 10032 H 1035.87 1.31503 -2.98956 0
M  V30 10033 H 1034.53 -0.730472 -3.59249 0
M  V30 10034 H 1034.18 1.41616 -4.82653 0
M  V30 10035 H 1033.88 0.00823478 -5.87599 0
M  V30 10036 H 1035.4 0.926965 -6.03523 0
M  V30 10037 H 1036.82 -1.29917 -5.58386 0
M  V30 10038 H 1035.21 -2.08926 -5.62557 0
M  V30 10039 H 1036.28 -2.357 -4.23761 0
M  V30 10040 N 1037.63 1.44308 -0.633487 0
M  V30 10041 C 1038.58 2.27814 0.0919619 0
M  V30 10042 C 1039.56 1.38798 0.813882 0
M  V30 10043 O 1040.75 1.62587 0.699601 0
M  V30 10044 C 1037.88 3.26158 1.07125 0
M  V30 10045 C 1036.97 4.22663 0.348831 0
M  V30 10046 N 1037.36 5.01938 -0.623854 0
M  V30 10047 C 1035.66 4.42041 0.592958 0
M  V30 10048 C 1036.36 5.72129 -1.05088 0
M  V30 10049 N 1035.33 5.42205 -0.389183 0
M  V30 10050 H 1039.14 2.86515 -0.654721 0
M  V30 10051 H 1036.65 1.55773 -0.459178 0
M  V30 10052 H 1038.65 3.84742 1.60559 0
M  V30 10053 H 1037.31 2.69019 1.81821 0
M  V30 10054 H 1038.32 5.08119 -1.00176 0
M  V30 10055 H 1034.99 3.95997 1.32261 0
M  V30 10056 H 1036.38 6.45797 -1.85461 0
M  V30 10057 N 1039.1 0.374177 1.53094 0
M  V30 10058 C 1040.33 -0.213325 2.05797 0
M  V30 10059 C 1040.75 -1.41753 1.24706 0
M  V30 10060 O 1040.1 -1.80183 0.289868 0
M  V30 10061 C 1040.16 -0.598367 3.56513 0
M  V30 10062 O 1039.88 0.557983 4.34532 0
M  V30 10063 C 1041.38 -1.24334 4.25507 0
M  V30 10064 H 1038.6 -0.0357398 0.670048 0
M  V30 10065 H 1041.14 0.535035 1.97377 0
M  V30 10066 H 1039.3 -1.29663 3.65056 0
M  V30 10067 H 1039.71 0.244911 5.23928 0
M  V30 10068 H 1041.18 -1.46325 5.32253 0
M  V30 10069 H 1041.66 -2.20622 3.79766 0
M  V30 10070 H 1042.27 -0.586269 4.2124 0
M  V30 10071 N 1040.58 -1.57259 0.103575 0
M  V30 10072 C 1041.55 -2.13337 -0.837859 0
M  V30 10073 C 1042.55 -1.06459 -1.20512 0
M  V30 10074 O 1043.74 -1.32307 -1.13316 0
M  V30 10075 C 1040.87 -2.66093 -2.13089 0
M  V30 10076 H 1042.06 -2.97842 -0.350775 0
M  V30 10077 H 1039.61 -1.55621 -0.145511 0
M  V30 10078 H 1040.35 -1.85133 -2.66264 0
M  V30 10079 H 1040.13 -3.44244 -1.87719 0
M  V30 10080 H 1041.62 -3.09443 -2.80419 0
M  V30 10081 N 1042.06 0.170153 -1.56679 0
M  V30 10082 C 1043.34 0.913938 -1.72935 0
M  V30 10083 C 1043.72 2.00342 -0.665293 0
M  V30 10084 O 1043.07 2.26252 0.319715 0
M  V30 10085 C 1043.28 1.47761 -3.16177 0
M  V30 10086 C 1044.62 1.95007 -3.7717 0
M  V30 10087 O 1045.65 1.57552 -3.19462 0
M  V30 10088 O 1044.51 2.64007 -4.78501 0
M  V30 10089 H 1041.6 0.43027 -0.706256 0
M  V30 10090 H 1044.15 0.157891 -1.68964 0
M  V30 10091 H 1042.92 0.69352 -3.85105 0
M  V30 10092 H 1042.54 2.2978 -3.24479 0
M  V30 10093 N 1043.54 1.5137 0.438746 0
M  V30 10094 C 1044.78 1.64211 1.19006 0
M  V30 10095 C 1045.12 0.356607 1.90898 0
M  V30 10096 O 1044.39 -0.643722 1.83539 0
M  V30 10097 C 1044.68 2.8445 2.20817 0
M  V30 10098 C 1044.53 4.22972 1.53018 0
M  V30 10099 C 1045.85 3.00207 3.21813 0
M  V30 10100 H 1042.97 0.597628 0.431288 0
M  V30 10101 H 1045.61 1.8385 0.479487 0
M  V30 10102 H 1043.76 2.67836 2.81418 0
M  V30 10103 H 1045.43 4.5125 0.957654 0
M  V30 10104 H 1043.67 4.25736 0.832556 0
M  V30 10105 H 1044.34 5.03094 2.27158 0
M  V30 10106 H 1046.82 3.15522 2.71266 0
M  V30 10107 H 1045.7 3.85904 3.90345 0
M  V30 10108 H 1045.96 2.12216 3.87836 0
M  V30 10109 N 1045.02 -0.694098 1.41492 0
M  V30 10110 C 1046.26 -1.45415 1.40929 0
M  V30 10111 C 1046.59 -1.94491 0.0189301 0
M  V30 10112 O 1045.85 -1.7 -0.96945 0
M  V30 10113 C 1046.15 -2.6805 2.36398 0
M  V30 10114 C 1045.81 -2.37623 3.83205 0
M  V30 10115 C 1044.47 -2.29035 4.23198 0
M  V30 10116 C 1046.83 -2.12555 4.75888 0
M  V30 10117 C 1044.15 -1.93478 5.5388 0
M  V30 10118 C 1046.51 -1.78506 6.06892 0
M  V30 10119 C 1045.17 -1.68415 6.45905 0
M  V30 10120 H 1044.44 -0.53211 0.515694 0
M  V30 10121 H 1047.09 -0.793193 1.74301 0
M  V30 10122 H 1045.39 -3.39086 1.96285 0
M  V30 10123 H 1047.09 -3.26194 2.33234 0
M  V30 10124 H 1043.68 -2.45202 3.51531 0
M  V30 10125 H 1047.86 -2.18133 4.45793 0
M  V30 10126 H 1043.12 -1.84219 5.82986 0
M  V30 10127 H 1047.29 -1.58128 6.7821 0
M  V30 10128 H 1044.92 -1.40631 7.47079 0
M  V30 10129 N 1046.49 -1.27344 -0.928501 0
M  V30 10130 C 1047.72 -1.16447 -1.7102 0
M  V30 10131 C 1048.14 0.278799 -1.8673 0
M  V30 10132 O 1047.49 1.18989 -1.38376 0
M  V30 10133 C 1047.55 -1.84242 -3.11026 0
M  V30 10134 O 1047.27 -3.2293 -2.96054 0
M  V30 10135 C 1048.77 -1.7946 -4.05351 0
M  V30 10136 H 1045.99 -0.404898 -0.535069 0
M  V30 10137 H 1048.53 -1.68201 -1.16313 0
M  V30 10138 H 1046.69 -1.36395 -3.62595 0
M  V30 10139 H 1047.1 -3.5667 -3.8456 0
M  V30 10140 H 1048.57 -2.31511 -5.01105 0
M  V30 10141 H 1049.05 -0.763771 -4.32508 0
M  V30 10142 H 1049.66 -2.26918 -3.59706 0
M  V30 10143 N 1047.97 1.13488 -1.09353 0
M  V30 10144 C 1048.94 2.17066 -0.735863 0
M  V30 10145 C 1049.94 1.59086 0.234181 0
M  V30 10146 O 1051.13 1.74196 0.012463 0
M  V30 10147 C 1048.26 3.40786 -0.0880975 0
M  V30 10148 H 1049.45 2.50221 -1.65316 0
M  V30 10149 H 1047 1.28304 -0.89263 0
M  V30 10150 H 1047.74 3.1322 0.840462 0
M  V30 10151 H 1047.52 3.8414 -0.786073 0
M  V30 10152 H 1049.01 4.17342 0.146775 0
M  V30 10153 N 1049.45 0.880621 1.30701 0
M  V30 10154 C 1050.73 0.41712 1.91101 0
M  V30 10155 C 1051.11 -1.10177 1.80067 0
M  V30 10156 O 1050.46 -1.93513 1.21511 0
M  V30 10157 C 1050.67 0.910364 3.36917 0
M  V30 10158 C 1052.01 0.942764 4.14001 0
M  V30 10159 O 1053.04 0.856733 3.45743 0
M  V30 10160 O 1051.9 1.06913 5.3594 0
M  V30 10161 H 1048.99 0.126775 0.817225 0
M  V30 10162 H 1051.54 0.969236 1.39298 0
M  V30 10163 H 1050.31 1.95414 3.39012 0
M  V30 10164 H 1049.93 0.337164 3.96168 0
M  V30 10165 N 1050.93 -1.4397 0.641131 0
M  V30 10166 C 1052.18 -2.01548 0.149333 0
M  V30 10167 C 1052.5 -1.50759 -1.23679 0
M  V30 10168 O 1051.77 -0.715257 -1.82376 0
M  V30 10169 H 1050.35 -0.745173 0.0522161 0
M  V30 10170 H 1053.01 -1.7634 0.830082 0
M  V30 10171 H 1052.11 -3.11851 0.124676 0
M  V30 10172 N 1052.41 -0.382291 -1.52893 0
M  V30 10173 C 1053.65 0.202133 -2.01489 0
M  V30 10174 C 1053.98 1.47399 -1.26901 0
M  V30 10175 O 1053.24 1.92439 -0.355771 0
M  V30 10176 C 1053.54 0.523437 -3.53546 0
M  V30 10177 C 1053.2 -0.656042 -4.46102 0
M  V30 10178 C 1051.86 -0.979633 -4.71123 0
M  V30 10179 C 1054.22 -1.44545 -5.00756 0
M  V30 10180 C 1051.54 -2.0943 -5.48047 0
M  V30 10181 C 1053.9 -2.55066 -5.78899 0
M  V30 10182 C 1052.56 -2.87942 -6.02201 0
M  V30 10183 H 1051.83 0.0739659 -0.737299 0
M  V30 10184 H 1054.48 -0.518196 -1.84356 0
M  V30 10185 H 1052.78 1.325 -3.68715 0
M  V30 10186 H 1054.48 0.988148 -3.88634 0
M  V30 10187 H 1051.07 -0.393818 -4.26787 0
M  V30 10188 H 1055.25 -1.20869 -4.81357 0
M  V30 10189 H 1050.51 -2.3528 -5.64317 0
M  V30 10190 H 1054.68 -3.1664 -6.20252 0
M  V30 10191 H 1052.31 -3.74435 -6.61591 0
M  V30 10192 N 1053.89 1.57202 -0.111913 0
M  V30 10193 C 1055.13 1.94565 0.546713 0
M  V30 10194 C 1055.45 0.995644 1.67666 0
M  V30 10195 O 1054.72 0.0506681 1.95834 0
M  V30 10196 H 1053.3 0.718334 0.204951 0
M  V30 10197 H 1055.97 1.94074 -0.179193 0
M  V30 10198 H 1055.06 2.9742 0.945931 0
M  V30 10199 N 1055.36 -0.161842 1.56767 0
M  V30 10200 C 1056.61 -0.873481 1.8369 0
M  V30 10201 C 1056.96 -1.79455 0.693817 0
M  V30 10202 O 1056.26 -1.89089 -0.309181 0
M  V30 10203 C 1056.45 -1.69736 3.14522 0
M  V30 10204 C 1056.28 -0.857568 4.41447 0
M  V30 10205 C 1055.05 -0.528952 5.02524 0
M  V30 10206 C 1057.25 -0.194734 5.13931 0
M  V30 10207 N 1055.23 0.325994 6.13034 0
M  V30 10208 C 1056.6 0.520973 6.17807 0
M  V30 10209 C 1058.66 -0.113874 4.9777 0
M  V30 10210 C 1057.36 1.30988 7.07273 0
M  V30 10211 C 1059.39 0.661731 5.87686 0
M  V30 10212 C 1058.75 1.36577 6.91033 0
M  V30 10213 H 1054.85 -0.297939 0.723019 0
M  V30 10214 H 1057.43 -0.139816 1.94197 0
M  V30 10215 H 1055.6 -2.40238 3.05189 0
M  V30 10216 H 1057.33 -2.35103 3.29407 0
M  V30 10217 H 1054.09 -0.861267 4.65703 0
M  V30 10218 H 1054.51 0.744055 6.72899 0
M  V30 10219 H 1059.15 -0.643832 4.17869 0
M  V30 10220 H 1056.87 1.85115 7.86612 0
M  V30 10221 H 1060.46 0.726092 5.77251 0
M  V30 10222 H 1059.34 1.9563 7.59407 0
M  V30 10223 N 1056.84 -1.516 -0.430713 0
M  V30 10224 C 1058.09 -1.64271 -1.17726 0
M  V30 10225 C 1058.41 -0.364406 -1.91565 0
M  V30 10226 O 1057.68 0.619991 -1.8583 0
M  V30 10227 H 1056.26 -0.605432 -0.437562 0
M  V30 10228 H 1058.92 -1.88557 -0.493166 0
M  V30 10229 H 1058.02 -2.47355 -1.90321 0
M  V30 10230 N 1058.32 0.686584 -1.41858 0
M  V30 10231 C 1059.54 1.4802 -1.45275 0
M  V30 10232 C 1059.97 1.87997 -0.0621297 0
M  V30 10233 O 1059.33 1.55226 0.936733 0
M  V30 10234 C 1059.38 2.7133 -2.37513 0
M  V30 10235 O 1058.48 3.69159 -1.83836 0
M  V30 10236 H 1057.82 0.445152 -0.492682 0
M  V30 10237 H 1060.35 0.843161 -1.86419 0
M  V30 10238 H 1060.36 3.19537 -2.53693 0
M  V30 10239 H 1059.04 2.41571 -3.3855 0
M  V30 10240 H 1057.61 3.28134 -1.77151 0
M  V30 10241 N 1059.8 1.27835 0.921735 0
M  V30 10242 C 1061.04 1.14692 1.67253 0
M  V30 10243 C 1061.38 -0.305384 1.91784 0
M  V30 10244 O 1060.65 -1.22286 1.51249 0
M  V30 10245 C 1060.93 1.93743 3.03539 0
M  V30 10246 C 1060.79 3.46991 2.86212 0
M  V30 10247 C 1062.11 1.74658 4.03959 0
M  V30 10248 H 1059.23 0.418021 0.606983 0
M  V30 10249 H 1061.87 1.5706 1.06922 0
M  V30 10250 H 1060.02 1.57738 3.55037 0
M  V30 10251 H 1061.69 3.92858 2.41785 0
M  V30 10252 H 1059.93 3.73029 2.21432 0
M  V30 10253 H 1060.6 3.97551 3.82958 0
M  V30 10254 H 1063.08 2.06063 3.61493 0
M  V30 10255 H 1061.96 2.32353 4.97296 0
M  V30 10256 H 1062.22 0.696019 4.36587 0
M  V30 10257 N 1061.28 -1.12907 1.09954 0
M  V30 10258 C 1062.24 -2.16673 0.747364 0
M  V30 10259 C 1063.24 -1.59208 -0.225741 0
M  V30 10260 O 1064.43 -1.742 -0.00322482 0
M  V30 10261 C 1061.56 -3.40735 0.106169 0
M  V30 10262 H 1062.75 -2.49341 1.6664 0
M  V30 10263 H 1060.31 -1.27828 0.899421 0
M  V30 10264 H 1061.04 -3.13661 -0.82384 0
M  V30 10265 H 1060.83 -3.83717 0.806434 0
M  V30 10266 H 1062.32 -4.17414 -0.12464 0
M  V30 10267 N 1062.75 -0.88754 -1.30232 0
M  V30 10268 C 1063.72 -0.361095 -2.26338 0
M  V30 10269 C 1064.72 0.497871 -1.52898 0
M  V30 10270 O 1065.91 0.30466 -1.71515 0
M  V30 10271 C 1063.04 0.485135 -3.3743 0
M  V30 10272 H 1064.23 -1.20973 -2.74419 0
M  V30 10273 H 1061.78 -0.664619 -1.41466 0
M  V30 10274 H 1062.52 1.35425 -2.9467 0
M  V30 10275 H 1062.3 -0.130173 -3.91884 0
M  V30 10276 H 1063.79 0.845169 -4.08958 0
M  V30 10277 N 1064.23 1.43628 -0.648757 0
M  V30 10278 C 1065.16 2.33478 0.0320785 0
M  V30 10279 C 1066.14 1.49217 0.816605 0
M  V30 10280 O 1067.33 1.77892 0.778974 0
M  V30 10281 C 1064.46 3.32525 1.00222 0
M  V30 10282 C 1063.41 4.2674 0.328119 0
M  V30 10283 C 1062.74 5.15791 1.4094 0
M  V30 10284 C 1064.04 5.16493 -0.776701 0
M  V30 10285 H 1065.73 2.90657 -0.718257 0
M  V30 10286 H 1063.28 1.3976 -0.346852 0
M  V30 10287 H 1065.23 3.94277 1.4874 0
M  V30 10288 H 1063.96 2.73593 1.78366 0
M  V30 10289 H 1062.61 3.66346 -0.136569 0
M  V30 10290 H 1062.26 4.53201 2.18216 0
M  V30 10291 H 1061.96 5.79645 0.963631 0
M  V30 10292 H 1063.49 5.80416 1.89603 0
M  V30 10293 H 1064.9 5.7208 -0.373878 0
M  V30 10294 H 1063.3 5.89043 -1.14667 0
M  V30 10295 H 1064.37 4.56448 -1.63654 0
M  V30 10296 N 1065.71 0.390394 1.52688 0
M  V30 10297 C 1066.96 -0.191067 2.01195 0
M  V30 10298 C 1067.28 -1.47229 1.27862 0
M  V30 10299 O 1066.55 -1.91793 0.399007 0
M  V30 10300 H 1065.13 -0.073596 0.743366 0
M  V30 10301 H 1067.79 0.522334 1.8777 0
M  V30 10302 H 1066.89 -0.40051 3.0952 0
M  V30 10303 N 1067.19 -1.57141 0.120249 0
M  V30 10304 C 1068.6 -1.5784 -0.236335 0
M  V30 10305 C 1068.8 -1.13304 -1.66626 0
M  V30 10306 O 1067.86 -0.821004 -2.3878 0
M  V30 10307 C 1069.17 -3.007 -0.00188211 0
M  V30 10308 C 1070.72 -3.12927 -0.0676838 0
M  V30 10309 C 1071.2 -4.57789 0.139092 0
M  V30 10310 N 1072.69 -4.63122 0.085104 0
M  V30 10311 C 1073.42 -5.72978 0.219983 0
M  V30 10312 N 1072.92 -6.91579 0.411102 0
M  V30 10313 N 1074.71 -5.61874 0.159469 0
M  V30 10314 H 1066.86 -1.84391 1.05422 0
M  V30 10315 H 1069.13 -0.852228 0.415225 0
M  V30 10316 H 1068.83 -3.37575 0.986718 0
M  V30 10317 H 1068.71 -3.70005 -0.733203 0
M  V30 10318 H 1071.09 -2.75909 -1.04681 0
M  V30 10319 H 1071.17 -2.46162 0.695538 0
M  V30 10320 H 1070.82 -4.95506 1.1152 0
M  V30 10321 H 1070.75 -5.22646 -0.644131 0
M  V30 10322 H 1073.24 -3.77854 -0.0590479 0
M  V30 10323 H 1073.55 -7.71149 0.504851 0
M  V30 10324 H 1071.9 -6.9356 0.447091 0
M  V30 10325 H 1075.09 -4.68099 0.0111131 0
M  V30 10326 H 1075.26 -6.47445 0.268028 0
M  V30 10327 N 1068.67 0.153526 -1.5685 0
M  V30 10328 C 1069.6 1.19162 -2.00805 0
M  V30 10329 C 1070.58 1.45172 -0.886518 0
M  V30 10330 O 1071.76 1.56203 -1.15387 0
M  V30 10331 C 1068.89 2.52637 -2.38311 0
M  V30 10332 C 1067.85 2.41161 -3.53589 0
M  V30 10333 C 1067.17 3.79287 -3.76889 0
M  V30 10334 C 1068.47 1.90122 -4.86468 0
M  V30 10335 H 1070.17 0.82617 -2.87776 0
M  V30 10336 H 1067.71 0.395972 -1.38449 0
M  V30 10337 H 1069.67 3.25478 -2.6766 0
M  V30 10338 H 1068.39 2.91005 -1.4827 0
M  V30 10339 H 1067.05 1.70772 -3.24395 0
M  V30 10340 H 1066.7 4.15079 -2.84109 0
M  V30 10341 H 1066.4 3.72472 -4.54465 0
M  V30 10342 H 1067.92 4.53687 -4.08657 0
M  V30 10343 H 1069.33 2.52752 -5.14577 0
M  V30 10344 H 1067.73 1.94214 -5.67804 0
M  V30 10345 H 1068.8 0.856517 -4.77275 0
M  V30 10346 N 1070.14 1.51827 0.422667 0
M  V30 10347 C 1071.42 1.55772 1.18299 0
M  V30 10348 C 1071.8 0.330657 2.08494 0
M  V30 10349 O 1071.15 -0.683373 2.18042 0
M  V30 10350 C 1071.36 2.87941 1.97208 0
M  V30 10351 C 1072.71 3.4044 2.53744 0
M  V30 10352 O 1073.73 2.8959 2.07403 0
M  V30 10353 O 1072.59 4.29201 3.38303 0
M  V30 10354 H 1069.68 0.626889 0.539388 0
M  V30 10355 H 1072.23 1.64147 0.430545 0
M  V30 10356 H 1071 3.68702 1.31052 0
M  V30 10357 H 1070.63 2.82795 2.79486 0
M  V30 10358 N 1071.62 -0.679052 1.4222 0
M  V30 10359 C 1072.55 -1.80481 1.48152 0
M  V30 10360 C 1073.53 -1.66698 0.338502 0
M  V30 10361 O 1074.72 -1.86183 0.552228 0
M  V30 10362 C 1071.85 -3.18746 1.37908 0
M  V30 10363 C 1070.8 -3.47258 2.50192 0
M  V30 10364 C 1070.13 -4.85052 2.25008 0
M  V30 10365 C 1071.43 -3.44576 3.92511 0
M  V30 10366 H 1073.12 -1.75774 2.42371 0
M  V30 10367 H 1070.67 -0.844241 1.16656 0
M  V30 10368 H 1072.62 -3.97229 1.40666 0
M  V30 10369 H 1071.35 -3.24119 0.401806 0
M  V30 10370 H 1070 -2.71133 2.46744 0
M  V30 10371 H 1069.65 -4.8707 1.25584 0
M  V30 10372 H 1069.35 -5.05092 3.00259 0
M  V30 10373 H 1070.88 -5.65825 2.29508 0
M  V30 10374 H 1072.29 -4.13036 3.97585 0
M  V30 10375 H 1070.69 -3.76151 4.67579 0
M  V30 10376 H 1071.76 -2.4323 4.19484 0
M  V30 10377 N 1073.1 -1.28322 -0.914942 0
M  V30 10378 C 1074.06 -1.12169 -1.99877 0
M  V30 10379 C 1075.06 -0.0617252 -1.60681 0
M  V30 10380 O 1076.25 -0.307405 -1.71466 0
M  V30 10381 C 1073.39 -0.711959 -3.33383 0
M  V30 10382 H 1074.58 -2.08425 -2.15636 0
M  V30 10383 H 1072.13 -1.11291 -1.09745 0
M  V30 10384 H 1072.87 0.251418 -3.23324 0
M  V30 10385 H 1072.65 -1.47764 -3.63192 0
M  V30 10386 H 1074.14 -0.621558 -4.12948 0
M  V30 10387 N 1074.58 1.12322 -1.10551 0
M  V30 10388 C 1075.81 1.87679 -0.87087 0
M  V30 10389 C 1076.22 1.79711 0.578733 0
M  V30 10390 O 1075.58 1.17185 1.39907 0
M  V30 10391 C 1075.63 3.36846 -1.31213 0
M  V30 10392 O 1075.35 3.44626 -2.70489 0
M  V30 10393 C 1076.85 4.29138 -1.11156 0
M  V30 10394 H 1074.07 0.593788 -0.3125 0
M  V30 10395 H 1076.62 1.42116 -1.47048 0
M  V30 10396 H 1074.77 3.79948 -0.756169 0
M  V30 10397 H 1075.18 4.37441 -2.89389 0
M  V30 10398 H 1076.66 5.32082 -1.46944 0
M  V30 10399 H 1077.14 4.39171 -0.0502963 0
M  V30 10400 H 1077.74 3.91818 -1.65405 0
M  V30 10401 N 1076.06 0.894434 1.2976 0
M  V30 10402 C 1077.3 0.518435 1.96061 0
M  V30 10403 C 1077.64 -0.931882 1.70381 0
M  V30 10404 O 1076.91 -1.65988 1.01381 0
M  V30 10405 C 1077.19 0.80519 3.50982 0
M  V30 10406 C 1077.05 2.30683 3.86142 0
M  V30 10407 C 1078.37 0.288096 4.39156 0
M  V30 10408 H 1075.48 0.18983 0.712133 0
M  V30 10409 H 1078.13 1.12016 1.53468 0
M  V30 10410 H 1076.28 0.293071 3.87393 0
M  V30 10411 H 1077.95 2.88808 3.59705 0
M  V30 10412 H 1076.19 2.76968 3.33873 0
M  V30 10413 H 1076.86 2.45805 4.94251 0
M  V30 10414 H 1079.34 0.726547 4.09708 0
M  V30 10415 H 1078.21 0.517985 5.4645 0
M  V30 10416 H 1078.48 -0.811018 4.34597 0
M  V30 10417 N 1077.53 -1.43282 0.656365 0
M  V30 10418 C 1078.95 -1.85012 0.250475 0
M  V30 10419 C 1079.3 -1.54944 -1.20361 0
M  V30 10420 O 1078.42 -0.999983 -1.9191 0
M  V30 10421 C 1079.02 -3.35827 0.447815 0
M  V30 10422 C 1077.58 -3.76277 0.0962151 0
M  V30 10423 C 1076.72 -2.66988 0.749168 0
M  V30 10424 H 1079.67 -1.3339 0.85982 0
M  V30 10425 H 1079.69 -3.7927 -0.305726 0
M  V30 10426 H 1079.21 -3.5768 1.5062 0
M  V30 10427 H 1077.31 -3.60035 -0.959449 0
M  V30 10428 H 1077.42 -4.76227 0.523875 0
M  V30 10429 H 1075.78 -2.54048 0.18212 0
M  V30 10430 H 1076.57 -2.91669 1.81064 0
M  V30 10431 N 1079.01 -0.398486 -1.52479 0
M  V30 10432 C 1079.96 0.447001 -2.28264 0
M  V30 10433 C 1080.96 1.05511 -1.32529 0
M  V30 10434 O 1082.16 0.994528 -1.5003 0
M  V30 10435 H 1078.54 0.162919 -0.73414 0
M  V30 10436 H 1080.51 -0.213534 -2.97635 0
M  V30 10437 C 1079.26 1.55724 -3.10879 0
M  V30 10438 H 1078.58 1.09864 -3.84409 0
M  V30 10439 H 1080.02 2.12286 -3.67029 0
M  V30 10440 C 1078.48 2.51853 -2.23768 0
M  V30 10441 O 1079.01 3.55483 -1.87069 0
M  V30 10442 N 1077.21 2.2181 -1.87746 0
M  V30 10443 H 1076.76 1.3757 -2.17789 0
M  V30 10444 H 1076.72 2.86376 -1.29753 0
M  V30 10445 N 1080.49 1.57075 -0.12858 0
M  V30 10446 C 1081.4 2.19369 0.831533 0
M  V30 10447 C 1082.42 1.17258 1.28555 0
M  V30 10448 O 1083.59 1.49766 1.34656 0
M  V30 10449 C 1080.66 2.78846 2.06024 0
M  V30 10450 C 1079.72 3.96024 1.65722 0
M  V30 10451 C 1078.95 4.52655 2.82735 0
M  V30 10452 O 1079.18 4.08175 3.98434 0
M  V30 10453 O 1078.11 5.43198 2.59268 0
M  V30 10454 H 1081.94 3.01887 0.331352 0
M  V30 10455 H 1079.52 1.49081 0.0975226 0
M  V30 10456 H 1081.4 3.16721 2.77967 0
M  V30 10457 H 1080.08 1.99353 2.5503 0
M  V30 10458 H 1078.98 3.62899 0.908574 0
M  V30 10459 H 1080.32 4.76981 1.21449 0
M  V30 10460 N 1081.97 -0.145205 1.5693 0
M  V30 10461 C 1082.9 -1.18096 2.01434 0
M  V30 10462 C 1083.88 -1.447 0.894204 0
M  V30 10463 O 1085.07 -1.55589 1.16214 0
M  V30 10464 C 1082.2 -2.51369 2.39647 0
M  V30 10465 C 1081.15 -2.39283 3.54863 0
M  V30 10466 C 1080.48 -3.77283 3.78895 0
M  V30 10467 C 1081.78 -1.8754 4.87469 0
M  V30 10468 H 1083.47 -0.810897 2.8821 0
M  V30 10469 H 1081.02 -0.388624 1.38657 0
M  V30 10470 H 1082.97 -3.24054 2.69382 0
M  V30 10471 H 1081.69 -2.90214 1.49811 0
M  V30 10472 H 1080.35 -1.6905 3.25296 0
M  V30 10473 H 1080 -4.13567 2.86307 0
M  V30 10474 H 1079.7 -3.70057 4.56433 0
M  V30 10475 H 1081.22 -4.51514 4.11057 0
M  V30 10476 H 1082.64 -2.50019 5.1591 0
M  V30 10477 H 1081.03 -1.912 5.68826 0
M  V30 10478 H 1082.1 -0.831194 4.77723 0
M  V30 10479 N 1083.45 -1.52049 -0.414609 0
M  V30 10480 C 1084.86 -1.58062 -0.993638 0
M  V30 10481 C 1085.21 -0.417795 -1.917 0
M  V30 10482 O 1084.33 0.462558 -2.11399 0
M  V30 10483 C 1084.93 -2.86471 -1.80886 0
M  V30 10484 C 1083.49 -2.94981 -2.33801 0
M  V30 10485 C 1082.64 -2.52949 -1.13631 0
M  V30 10486 H 1085.59 -1.57497 -0.19504 0
M  V30 10487 H 1085.61 -2.71515 -2.66571 0
M  V30 10488 H 1085.12 -3.71085 -1.13657 0
M  V30 10489 H 1083.22 -2.14849 -3.04419 0
M  V30 10490 H 1083.33 -3.99111 -2.65042 0
M  V30 10491 H 1081.7 -2.0667 -1.48861 0
M  V30 10492 H 1082.48 -3.39931 -0.479765 0
M  V30 10493 N 1084.93 0.6715 -1.42579 0
M  V30 10494 C 1086.17 1.42871 -1.42941 0
M  V30 10495 C 1086.49 1.94941 -0.0480483 0
M  V30 10496 O 1085.76 1.73275 0.913921 0
M  V30 10497 H 1084.34 0.530189 -0.526221 0
M  V30 10498 H 1087.01 0.793219 -1.78028 0
M  V30 10499 H 1086.1 2.2801 -2.13114 0
M  V30 10500 N 1086.4 1.28806 0.908124 0
M  V30 10501 C 1087.33 1.15758 2.02787 0
M  V30 10502 C 1088.31 0.053911 1.70015 0
M  V30 10503 O 1089.5 0.231901 1.9281 0
M  V30 10504 C 1086.63 0.824526 3.37371 0
M  V30 10505 C 1085.58 1.88359 3.84324 0
M  V30 10506 C 1084.91 1.40404 5.15937 0
M  V30 10507 C 1086.21 3.29108 4.05568 0
M  V30 10508 H 1087.9 2.09431 2.13961 0
M  V30 10509 H 1085.45 1.00831 1.02806 0
M  V30 10510 H 1087.4 0.71999 4.15204 0
M  V30 10511 H 1086.13 -0.147902 3.26265 0
M  V30 10512 H 1084.79 1.97736 3.087 0
M  V30 10513 H 1084.43 0.420515 5.01239 0
M  V30 10514 H 1084.13 2.11224 5.48323 0
M  V30 10515 H 1085.66 1.31283 5.9632 0
M  V30 10516 H 1087.07 3.2262 4.73909 0
M  V30 10517 H 1085.47 3.97812 4.49294 0
M  V30 10518 H 1086.54 3.72709 3.10187 0
M  V30 10519 N 1087.88 -1.11734 1.11145 0
M  V30 10520 C 1089.16 -1.79795 0.770261 0
M  V30 10521 C 1089.54 -1.97624 -0.742158 0
M  V30 10522 O 1088.89 -1.55847 -1.67105 0
M  V30 10523 C 1089.1 -3.13684 1.52982 0
M  V30 10524 C 1090.44 -3.88771 1.70711 0
M  V30 10525 O 1091.47 -3.23363 1.49381 0
M  V30 10526 O 1090.33 -5.06134 2.06132 0
M  V30 10527 H 1087.42 -0.778617 0.27872 0
M  V30 10528 H 1089.97 -1.18504 1.2147 0
M  V30 10529 H 1088.74 -2.96043 2.55879 0
M  V30 10530 H 1088.36 -3.82687 1.07873 0
M  V30 10531 N 1089.36 -0.901303 -1.29284 0
M  V30 10532 C 1090.32 -0.385081 -2.25942 0
M  V30 10533 C 1091.32 0.481626 -1.53418 0
M  V30 10534 O 1092.51 0.286451 -1.71829 0
M  V30 10535 C 1089.64 0.449319 -3.37926 0
M  V30 10536 H 1090.84 -1.23877 -2.7312 0
M  V30 10537 H 1088.39 -0.679586 -1.40753 0
M  V30 10538 H 1089.13 1.32292 -2.9609 0
M  V30 10539 H 1088.91 -0.171731 -3.91724 0
M  V30 10540 H 1090.4 0.801746 -4.09831 0
M  V30 10541 N 1090.84 1.42931 -0.663954 0
M  V30 10542 C 1092.08 2.01982 -0.182007 0
M  V30 10543 C 1092.42 1.52323 1.20463 0
M  V30 10544 O 1091.69 0.720834 1.80649 0
M  V30 10545 C 1091.97 3.59518 -0.204671 0
M  V30 10546 C 1091.83 4.19382 -1.62599 0
M  V30 10547 C 1093.15 4.37762 0.45308 0
M  V30 10548 H 1090.27 0.733892 -0.0676115 0
M  V30 10549 H 1092.91 1.70092 -0.84668 0
M  V30 10550 H 1091.06 3.86816 0.361295 0
M  V30 10551 H 1092.73 4.03076 -2.24337 0
M  V30 10552 H 1090.97 3.75623 -2.17001 0
M  V30 10553 H 1091.64 5.28496 -1.59362 0
M  V30 10554 H 1094.12 4.1609 -0.0285774 0
M  V30 10555 H 1093 5.47392 0.406538 0
M  V30 10556 H 1093.26 4.1482 1.52895 0
M  V30 10557 N 1092.32 0.406567 1.52266 0
M  V30 10558 C 1093.25 -0.45552 2.24628 0
M  V30 10559 C 1094.26 -1.01234 1.27497 0
M  V30 10560 O 1095.45 -0.911718 1.5346 0
M  V30 10561 C 1092.55 -1.64578 2.96256 0
M  V30 10562 C 1091.72 -1.2133 4.20235 0
M  V30 10563 C 1090.78 -2.27018 4.7471 0
M  V30 10564 O 1089.81 -1.87714 5.37357 0
M  V30 10565 N 1091.01 -3.5915 4.56061 0
M  V30 10566 H 1093.77 0.164525 2.99248 0
M  V30 10567 H 1091.34 0.233812 1.60203 0
M  V30 10568 H 1093.33 -2.3484 3.29594 0
M  V30 10569 H 1091.9 -2.1718 2.24837 0
M  V30 10570 H 1091.12 -0.338892 3.92741 0
M  V30 10571 H 1092.41 -0.901268 5.00754 0
M  V30 10572 H 1091.8 -3.93834 4.06092 0
M  V30 10573 H 1090.36 -4.25397 4.93843 0
M  V30 10574 N 1093.79 -1.57004 0.136909 0
M  V30 10575 C 1095.02 -2.00587 -0.527209 0
M  V30 10576 C 1095.44 -1.01628 -1.58283 0
M  V30 10577 O 1094.8 0.00946934 -1.81298 0
M  V30 10578 C 1094.85 -3.42967 -1.11384 0
M  V30 10579 O 1093.95 -3.46973 -2.22898 0
M  V30 10580 H 1093.3 -0.651155 -0.129976 0
M  V30 10581 H 1095.83 -2.03296 0.230667 0
M  V30 10582 H 1095.84 -3.81555 -1.44499 0
M  V30 10583 H 1094.51 -4.14502 -0.340736 0
M  V30 10584 H 1093.09 -3.20219 -1.91087 0
M  V30 10585 N 1095.27 0.136881 -1.57004 0
M  V30 10586 C 1096.5 0.866405 -1.88436 0
M  V30 10587 C 1096.92 1.73483 -0.727006 0
M  V30 10588 O 1096.28 1.78398 0.323094 0
M  V30 10589 C 1096.33 1.69059 -3.18514 0
M  V30 10590 O 1095.43 2.79584 -3.03161 0
M  V30 10591 H 1094.77 0.240709 -0.618834 0
M  V30 10592 H 1097.3 0.124653 -2.0422 0
M  V30 10593 H 1097.31 2.08353 -3.50789 0
M  V30 10594 H 1095.99 1.05296 -4.0235 0
M  V30 10595 H 1094.57 2.43623 -2.82315 0
M  V30 10596 N 1096.75 1.52266 0.40654 0
M  V30 10597 C 1098 1.66699 1.15496 0
M  V30 10598 C 1098.33 0.397019 1.90098 0
M  V30 10599 O 1097.6 -0.604646 1.84863 0
M  V30 10600 C 1097.89 2.8907 2.14734 0
M  V30 10601 C 1097.74 4.26123 1.44012 0
M  V30 10602 C 1099.06 3.06966 3.15373 0
M  V30 10603 H 1096.18 0.606642 0.418515 0
M  V30 10604 H 1098.82 1.84826 0.440381 0
M  V30 10605 H 1096.97 2.73745 2.75673 0
M  V30 10606 H 1098.64 4.5318 0.861722 0
M  V30 10607 H 1096.89 4.27406 0.742064 0
M  V30 10608 H 1097.56 5.07799 2.16436 0
M  V30 10609 H 1100.03 3.21205 2.64512 0
M  V30 10610 H 1098.91 3.94097 3.82072 0
M  V30 10611 H 1099.17 2.20395 3.83247 0
M  V30 10612 N 1098.23 -0.663929 1.42933 0
M  V30 10613 C 1099.47 -1.42603 1.44195 0
M  V30 10614 C 1099.81 -1.94101 0.0620284 0
M  V30 10615 O 1099.08 -1.71609 -0.91546 0
M  V30 10616 C 1099.37 -2.61522 2.47544 0
M  V30 10617 C 1099.22 -2.15587 3.94769 0
M  V30 10618 C 1100.54 -3.6374 2.47753 0
M  V30 10619 H 1097.66 -0.517189 0.525056 0
M  V30 10620 H 1100.3 -0.75361 1.74415 0
M  V30 10621 H 1098.45 -3.1889 2.21904 0
M  V30 10622 H 1100.12 -1.63303 4.31428 0
M  V30 10623 H 1098.36 -1.47057 4.08114 0
M  V30 10624 H 1099.03 -3.01053 4.62678 0
M  V30 10625 H 1101.51 -3.16111 2.70579 0
M  V30 10626 H 1100.39 -4.44512 3.22025 0
M  V30 10627 H 1100.65 -4.15607 1.50742 0
M  V30 10628 N 1099.71 -1.29285 -0.901281 0
M  V30 10629 C 1100.62 -1.16161 -2.03823 0
M  V30 10630 C 1101.63 -0.0852298 -1.73791 0
M  V30 10631 O 1102.81 -0.29699 -1.99198 0
M  V30 10632 C 1099.87 -0.837586 -3.3643 0
M  V30 10633 C 1098.93 -1.99764 -3.7999 0
M  V30 10634 C 1098.17 -1.68898 -5.0627 0
M  V30 10635 O 1098.39 -0.609177 -5.67138 0
M  V30 10636 O 1097.32 -2.53648 -5.45845 0
M  V30 10637 H 1101.15 -2.11635 -2.17817 0
M  V30 10638 H 1098.74 -1.08722 -1.02468 0
M  V30 10639 H 1100.62 -0.671376 -4.16017 0
M  V30 10640 H 1099.29 0.0873811 -3.23582 0
M  V30 10641 H 1098.2 -2.21908 -3.01177 0
M  V30 10642 H 1099.53 -2.90376 -3.9742 0
M  V30 10643 N 1101.18 1.11143 -1.11736 0
M  V30 10644 C 1102.43 1.82586 -0.866412 0
M  V30 10645 C 1102.75 1.85227 0.609593 0
M  V30 10646 O 1102.02 1.32505 1.44288 0
M  V30 10647 H 1100.6 0.676149 -0.31754 0
M  V30 10648 H 1103.27 1.34516 -1.41037 0
M  V30 10649 H 1102.36 2.8635 -1.24136 0
M  V30 10650 N 1102.66 0.908147 1.28804 0
M  V30 10651 C 1103.63 0.397058 2.25735 0
M  V30 10652 C 1104.63 -0.473483 1.53671 0
M  V30 10653 O 1105.82 -0.277335 1.71978 0
M  V30 10654 C 1102.95 -0.431392 3.38159 0
M  V30 10655 H 1104.14 1.25323 2.72459 0
M  V30 10656 H 1101.69 0.687041 1.4039 0
M  V30 10657 H 1102.43 -1.3072 2.96787 0
M  V30 10658 H 1102.21 0.192502 3.91627 0
M  V30 10659 H 1103.7 -0.78 4.10251 0
M  V30 10660 N 1104.14 -1.42577 0.671525 0
M  V30 10661 C 1105.07 -2.2915 -0.0477361 0
M  V30 10662 C 1106.09 -1.43503 -0.768805 0
M  V30 10663 O 1107.27 -1.67256 -0.623509 0
M  V30 10664 C 1104.37 -3.20851 -1.09122 0
M  V30 10665 C 1103.55 -4.35134 -0.44463 0
M  V30 10666 C 1102.61 -5.07579 -1.38745 0
M  V30 10667 O 1101.63 -5.62215 -0.889015 0
M  V30 10668 N 1102.83 -5.12786 -2.72086 0
M  V30 10669 H 1105.6 -2.9152 0.695415 0
M  V30 10670 H 1103.16 -1.53467 0.515689 0
M  V30 10671 H 1105.15 -3.66183 -1.72315 0
M  V30 10672 H 1103.72 -2.59956 -1.73614 0
M  V30 10673 H 1102.94 -3.9249 0.36675 0
M  V30 10674 H 1104.23 -5.088 0.00595927 0
M  V30 10675 H 1103.63 -4.69802 -3.15123 0
M  V30 10676 H 1102.19 -5.61774 -3.30535 0
M  V30 10677 N 1105.62 -0.414636 -1.52048 0
M  V30 10678 C 1106.53 0.414861 -2.30903 0
M  V30 10679 C 1107.54 1.04855 -1.38858 0
M  V30 10680 O 1108.72 1.04886 -1.71933 0
M  V30 10681 C 1105.79 1.51356 -3.11917 0
M  V30 10682 C 1104.85 0.902359 -4.19709 0
M  V30 10683 C 1104.08 1.9487 -4.96852 0
M  V30 10684 O 1104.3 3.16766 -4.74358 0
M  V30 10685 O 1103.24 1.55186 -5.8155 0
M  V30 10686 H 1107.06 -0.228251 -3.02841 0
M  V30 10687 H 1104.65 -0.177704 -1.48339 0
M  V30 10688 H 1106.53 2.15127 -3.62351 0
M  V30 10689 H 1105.2 2.14117 -2.42767 0
M  V30 10690 H 1104.11 0.22721 -3.73409 0
M  V30 10691 H 1105.44 0.318587 -4.91168 0
M  V30 10692 N 1107.1 1.56929 -0.145233 0
M  V30 10693 C 1108.33 2.00141 0.51257 0
M  V30 10694 C 1108.73 1.0243 1.59075 0
M  V30 10695 O 1108.08 0.0130063 1.83695 0
M  V30 10696 C 1108.14 3.39785 1.17417 0
M  V30 10697 C 1107.8 4.56365 0.240801 0
M  V30 10698 C 1108.8 5.17183 -0.530847 0
M  V30 10699 C 1106.49 5.02093 0.144221 0
M  V30 10700 C 1108.48 6.22136 -1.38654 0
M  V30 10701 C 1106.17 6.06902 -0.71508 0
M  V30 10702 C 1107.16 6.66793 -1.47907 0
M  V30 10703 O 1106.85 7.69573 -2.32405 0
M  V30 10704 H 1106.58 0.661747 0.138085 0
M  V30 10705 H 1109.14 2.04037 -0.236269 0
M  V30 10706 H 1107.37 3.32722 1.97061 0
M  V30 10707 H 1109.06 3.67115 1.73152 0
M  V30 10708 H 1109.82 4.82754 -0.466256 0
M  V30 10709 H 1105.7 4.55206 0.728613 0
M  V30 10710 H 1109.25 6.68812 -1.98333 0
M  V30 10711 H 1105.14 6.40758 -0.78097 0
M  V30 10712 H 1105.91 7.86786 -2.25634 0
M  V30 10713 N 1108.58 -0.128553 1.57075 0
M  V30 10714 C 1109.51 -1.15953 2.02675 0
M  V30 10715 C 1110.49 -1.43743 0.909501 0
M  V30 10716 O 1111.67 -1.54348 1.17857 0
M  V30 10717 C 1108.8 -2.48813 2.423 0
M  V30 10718 C 1107.76 -2.35506 3.57381 0
M  V30 10719 C 1107.08 -3.73243 3.82875 0
M  V30 10720 C 1108.38 -1.82359 4.89431 0
M  V30 10721 H 1110.08 -0.780283 2.89054 0
M  V30 10722 H 1107.62 -0.373896 1.39061 0
M  V30 10723 H 1109.57 -3.21179 2.72804 0
M  V30 10724 H 1108.3 -2.88609 1.52881 0
M  V30 10725 H 1106.96 -1.6559 3.27071 0
M  V30 10726 H 1106.61 -4.10507 2.90677 0
M  V30 10727 H 1106.31 -3.65195 4.60333 0
M  V30 10728 H 1107.83 -4.47128 4.15823 0
M  V30 10729 H 1109.24 -2.44533 5.18533 0
M  V30 10730 H 1107.64 -1.85156 5.70822 0
M  V30 10731 H 1108.71 -0.780478 4.78578 0
M  V30 10732 N 1110.05 -1.5248 -0.398459 0
M  V30 10733 C 1111.02 -1.75949 -1.46883 0
M  V30 10734 C 1112.02 -0.629431 -1.47969 0
M  V30 10735 O 1113.21 -0.897407 -1.49306 0
M  V30 10736 C 1110.34 -1.85162 -2.8623 0
M  V30 10737 H 1111.53 -2.71513 -1.2736 0
M  V30 10738 H 1109.08 -1.43058 -0.629619 0
M  V30 10739 H 1109.82 -0.915505 -3.11109 0
M  V30 10740 H 1109.6 -2.67326 -2.86844 0
M  V30 10741 H 1111.09 -2.05025 -3.63805 0
M  V30 10742 N 1111.53 0.65634 -1.43283 0
M  V30 10743 C 1112.49 1.75117 -1.47874 0
M  V30 10744 C 1113.49 1.56629 -0.363846 0
M  V30 10745 O 1114.68 1.62584 -0.625464 0
M  V30 10746 C 1111.82 3.13957 -1.32831 0
M  V30 10747 H 1113.01 1.72429 -2.45374 0
M  V30 10748 H 1110.56 0.867704 -1.30002 0
M  V30 10749 H 1111.3 3.22259 -0.36326 0
M  V30 10750 H 1111.08 3.28781 -2.13649 0
M  V30 10751 H 1112.57 3.93799 -1.38969 0
M  V30 10752 N 1113.01 1.29761 0.894412 0
M  V30 10753 C 1113.94 1.1115 2.00445 0
M  V30 10754 C 1114.95 0.0574655 1.62699 0
M  V30 10755 O 1116.14 0.302528 1.75918 0
M  V30 10756 C 1113.24 0.670984 3.32191 0
M  V30 10757 C 1112.42 1.80471 3.98433 0
M  V30 10758 C 1111.48 1.35431 5.08473 0
M  V30 10759 O 1110.5 2.05994 5.30618 0
M  V30 10760 N 1111.7 0.22811 5.80052 0
M  V30 10761 H 1114.47 2.06753 2.16964 0
M  V30 10762 H 1112.03 1.21772 1.06692 0
M  V30 10763 H 1114.02 0.352877 4.03159 0
M  V30 10764 H 1112.59 -0.192735 3.12005 0
M  V30 10765 H 1111.81 2.29142 3.20761 0
M  V30 10766 H 1113.1 2.56471 4.39431 0
M  V30 10767 H 1112.5 -0.360076 5.64553 0
M  V30 10768 H 1111.05 -0.0305985 6.51793 0
M  V30 10769 N 1114.49 -1.10549 1.12324 0
M  V30 10770 C 1115.45 -2.15039 0.793156 0
M  V30 10771 C 1116.45 -1.59651 -0.19192 0
M  V30 10772 O 1117.64 -1.74167 0.0337262 0
M  V30 10773 C 1114.77 -3.40433 0.17842 0
M  V30 10774 H 1115.97 -2.4575 1.71892 0
M  V30 10775 H 1113.52 -1.25892 0.926333 0
M  V30 10776 H 1114.25 -3.15338 -0.757122 0
M  V30 10777 H 1114.04 -3.81921 0.887645 0
M  V30 10778 H 1115.53 -4.17584 -0.0360724 0
M  V30 10779 N 1115.97 -0.914965 -1.28321 0
M  V30 10780 C 1117.21 -0.547665 -1.94538 0
M  V30 10781 C 1117.53 0.911834 -1.72368 0
M  V30 10782 O 1116.8 1.64481 -1.06408 0
M  V30 10783 H 1115.38 -0.199549 -0.719853 0
M  V30 10784 H 1118.05 -1.16459 -1.5628 0
M  V30 10785 H 1117.14 -0.743138 -3.03124 0
M  V30 10786 N 1117.44 1.42219 -0.679077 0
M  V30 10787 C 1118.38 2.29172 0.035583 0
M  V30 10788 C 1119.39 1.43909 0.761183 0
M  V30 10789 O 1120.58 1.67584 0.61463 0
M  V30 10790 C 1117.68 3.21426 1.07419 0
M  V30 10791 C 1116.85 4.35364 0.421547 0
M  V30 10792 C 1115.91 5.08307 1.36051 0
M  V30 10793 O 1114.94 5.62678 0.859186 0
M  V30 10794 N 1116.14 5.14222 2.69362 0
M  V30 10795 H 1118.9 2.91147 -0.710865 0
M  V30 10796 H 1116.46 1.53192 -0.523821 0
M  V30 10797 H 1118.46 3.67091 1.70371 0
M  V30 10798 H 1117.03 2.60873 1.72233 0
M  V30 10799 H 1116.25 3.9229 -0.387559 0
M  V30 10800 H 1117.53 5.08789 -0.0329421 0
M  V30 10801 H 1116.93 4.71467 3.12627 0
M  V30 10802 H 1115.49 5.63519 3.27551 0
M  V30 10803 N 1118.92 0.422693 1.51826 0
M  V30 10804 C 1120.17 -0.148348 2.01555 0
M  V30 10805 C 1120.49 -1.44483 1.30956 0
M  V30 10806 O 1119.76 -1.90904 0.439599 0
M  V30 10807 H 1118.34 -0.0578116 0.74476 0
M  V30 10808 H 1121 0.562046 1.8662 0
M  V30 10809 H 1120.1 -0.334766 3.10299 0
M  V30 10810 N 1120.4 -1.5685 0.153553 0
M  V30 10811 C 1121.65 -1.96334 -0.495915 0
M  V30 10812 C 1121.97 -1.03873 -1.64441 0
M  V30 10813 O 1121.23 -0.069231 -1.95578 0
M  V30 10814 C 1121.53 -3.42022 -1.0371 0
M  V30 10815 C 1121.19 -4.509 -0.00637049 0
M  V30 10816 C 1119.86 -4.80402 0.276956 0
M  V30 10817 C 1122.21 -5.16556 0.694187 0
M  V30 10818 C 1119.54 -5.72866 1.26653 0
M  V30 10819 C 1121.89 -6.10087 1.67263 0
M  V30 10820 C 1120.55 -6.37965 1.96359 0
M  V30 10821 H 1119.82 -0.718436 -0.181468 0
M  V30 10822 H 1122.47 -1.89968 0.241768 0
M  V30 10823 H 1120.77 -3.45252 -1.85225 0
M  V30 10824 H 1122.47 -3.69903 -1.54831 0
M  V30 10825 H 1119.06 -4.27942 -0.237378 0
M  V30 10826 H 1123.25 -4.9389 0.488496 0
M  V30 10827 H 1118.5 -5.92756 1.49833 0
M  V30 10828 H 1122.68 -6.60036 2.22094 0
M  V30 10829 H 1120.3 -7.09416 2.73189 0
M  V30 10830 N 1121.88 0.120221 -1.57141 0
M  V30 10831 C 1123.13 0.826586 -1.84423 0
M  V30 10832 C 1123.45 1.80473 -0.738553 0
M  V30 10833 O 1122.72 1.94454 0.23755 0
M  V30 10834 H 1121.3 0.308246 -0.680436 0
M  V30 10835 H 1123.96 0.107835 -1.94601 0
M  V30 10836 H 1123.05 1.37256 -2.80298 0
M  V30 10837 N 1123.36 1.52689 0.390367 0
M  V30 10838 C 1124.58 1.71839 1.16129 0
M  V30 10839 C 1125.01 0.435226 1.82996 0
M  V30 10840 O 1124.36 -0.60889 1.70769 0
M  V30 10841 C 1124.41 2.86784 2.18603 0
M  V30 10842 O 1123.52 2.53662 3.25161 0
M  V30 10843 H 1122.86 0.571455 0.338135 0
M  V30 10844 H 1125.39 1.99475 0.45508 0
M  V30 10845 H 1125.4 3.12239 2.62622 0
M  V30 10846 H 1124.07 3.79872 1.69322 0
M  V30 10847 H 1122.65 2.38942 2.86289 0
M  V30 10848 N 1124.83 -0.648732 1.43629 0
M  V30 10849 C 1125.76 -1.77298 1.51947 0
M  V30 10850 C 1126.75 -1.65942 0.373785 0
M  V30 10851 O 1127.93 -1.8497 0.591596 0
M  V30 10852 C 1125.06 -3.15749 1.44638 0
M  V30 10853 C 1124.01 -3.41872 2.57502 0
M  V30 10854 C 1123.34 -4.8017 2.35246 0
M  V30 10855 C 1124.64 -3.36173 3.99731 0
M  V30 10856 H 1126.33 -1.70594 2.46045 0
M  V30 10857 H 1123.88 -0.819306 1.1842 0
M  V30 10858 H 1125.83 -3.94156 1.4906 0
M  V30 10859 H 1124.56 -3.23194 0.470466 0
M  V30 10860 H 1123.22 -2.65838 2.5244 0
M  V30 10861 H 1122.86 -4.84297 1.35887 0
M  V30 10862 H 1122.56 -4.9861 3.10906 0
M  V30 10863 H 1124.09 -5.6083 2.41459 0
M  V30 10864 H 1125.5 -4.0451 4.06257 0
M  V30 10865 H 1123.9 -3.66148 4.75453 0
M  V30 10866 H 1124.97 -2.34277 4.24549 0
M  V30 10867 N 1126.31 -1.30234 -0.887518 0
M  V30 10868 C 1127.54 -1.21652 -1.66986 0
M  V30 10869 C 1127.95 0.223473 -1.87876 0
M  V30 10870 O 1127.29 1.15993 -1.42448 0
M  V30 10871 C 1127.36 -1.87173 -3.06931 0
M  V30 10872 C 1127.02 -3.36496 -3.09224 0
M  V30 10873 C 1128.02 -4.3253 -2.88469 0
M  V30 10874 C 1125.7 -3.77901 -3.30902 0
M  V30 10875 C 1127.7 -5.67942 -2.89344 0
M  V30 10876 C 1125.38 -5.13432 -3.31407 0
M  V30 10877 C 1126.38 -6.08263 -3.10653 0
M  V30 10878 O 1126.07 -7.41318 -3.1097 0
M  V30 10879 H 1125.8 -0.422224 -0.527923 0
M  V30 10880 H 1128.35 -1.72349 -1.11736 0
M  V30 10881 H 1126.58 -1.31002 -3.63834 0
M  V30 10882 H 1128.27 -1.72745 -3.67306 0
M  V30 10883 H 1129.04 -4.01873 -2.7152 0
M  V30 10884 H 1124.92 -3.04534 -3.46093 0
M  V30 10885 H 1128.46 -6.41936 -2.73063 0
M  V30 10886 H 1124.36 -5.4373 -3.47891 0
M  V30 10887 H 1125.13 -7.50275 -3.27153 0
M  V30 10888 N 1127.79 1.09952 -1.12909 0
M  V30 10889 C 1129.02 1.8633 -0.910821 0
M  V30 10890 C 1129.44 1.80335 0.534874 0
M  V30 10891 O 1128.8 1.1769 1.37908 0
M  V30 10892 C 1128.85 3.32462 -1.39648 0
M  V30 10893 O 1127.95 4.08327 -0.578192 0
M  V30 10894 H 1127.29 0.577984 -0.32685 0
M  V30 10895 H 1129.82 1.38883 -1.50242 0
M  V30 10896 H 1129.83 3.83311 -1.39774 0
M  V30 10897 H 1128.51 3.36141 -2.44913 0
M  V30 10898 H 1127.08 3.67291 -0.644347 0
M  V30 10899 N 1129.27 0.921757 1.27833 0
M  V30 10900 C 1130.68 0.604496 1.76643 0
M  V30 10901 C 1131.03 -0.880294 1.75343 0
M  V30 10902 O 1130.16 -1.68875 1.35315 0
M  V30 10903 C 1130.75 1.09055 3.20768 0
M  V30 10904 C 1129.31 0.824066 3.67268 0
M  V30 10905 C 1128.46 1.25269 2.47392 0
M  V30 10906 H 1131.41 1.10217 1.14184 0
M  V30 10907 H 1131.43 0.435558 3.77999 0
M  V30 10908 H 1130.94 2.17122 3.21682 0
M  V30 10909 H 1129.04 -0.243055 3.71806 0
M  V30 10910 H 1129.15 1.43743 4.57028 0
M  V30 10911 H 1127.52 0.671313 2.45694 0
M  V30 10912 H 1128.3 2.34188 2.5102 0
M  V30 10913 N 1130.75 -1.41857 0.686609 0
M  V30 10914 C 1132.16 -1.84439 0.289662 0
M  V30 10915 C 1132.51 -1.57462 -1.17047 0
M  V30 10916 O 1131.63 -1.04046 -1.89745 0
M  V30 10917 C 1132.23 -3.34802 0.518948 0
M  V30 10918 C 1130.79 -3.75988 0.176007 0
M  V30 10919 C 1129.93 -2.65339 0.805632 0
M  V30 10920 H 1132.89 -1.31536 0.88792 0
M  V30 10921 H 1132.91 -3.79833 -0.225209 0
M  V30 10922 H 1132.42 -3.54405 1.58173 0
M  V30 10923 H 1130.52 -3.61989 -0.882865 0
M  V30 10924 H 1130.63 -4.75009 0.624772 0
M  V30 10925 H 1129 -2.53605 0.235966 0
M  V30 10926 H 1129.78 -2.87762 1.8721 0
M  V30 10927 N 1132.22 -0.430739 -1.51599 0
M  V30 10928 C 1133.47 0.137657 -2.01631 0
M  V30 10929 C 1133.79 1.43787 -1.31721 0
M  V30 10930 O 1133.06 1.90668 -0.449717 0
M  V30 10931 H 1131.64 0.0538611 -0.745056 0
M  V30 10932 H 1134.31 -0.571935 -1.86319 0
M  V30 10933 H 1133.4 0.318305 -3.10473 0
M  V30 10934 N 1133.7 1.56767 -0.161869 0
M  V30 10935 C 1134.95 1.96206 0.484537 0
M  V30 10936 C 1135.27 1.04848 1.64414 0
M  V30 10937 O 1134.54 0.112946 1.95574 0
M  V30 10938 H 1133.12 0.724491 0.181994 0
M  V30 10939 H 1135.78 1.93406 -0.240845 0
M  V30 10940 H 1134.88 3.00279 0.85083 0
M  V30 10941 N 1135.18 -0.111886 1.57202 0
M  V30 10942 C 1136.09 -1.1556 2.04165 0
M  V30 10943 C 1137.11 -1.44898 0.963354 0
M  V30 10944 O 1138.28 -1.55873 1.27536 0
M  V30 10945 C 1135.35 -2.46048 2.44256 0
M  V30 10946 C 1134.41 -2.24043 3.66201 0
M  V30 10947 C 1133.64 -3.4831 4.04371 0
M  V30 10948 O 1133.86 -4.55895 3.42806 0
M  V30 10949 O 1132.8 -3.38891 4.9743 0
M  V30 10950 H 1136.62 -0.786778 2.93332 0
M  V30 10951 H 1134.21 -0.323196 1.45862 0
M  V30 10952 H 1136.09 -3.22916 2.70745 0
M  V30 10953 H 1134.77 -2.8239 1.58233 0
M  V30 10954 H 1133.67 -1.4501 3.44852 0
M  V30 10955 H 1135.01 -1.92602 4.52952 0
M  V30 10956 N 1136.66 -1.52894 -0.382264 0
M  V30 10957 C 1137.89 -1.71902 -1.146 0
M  V30 10958 C 1138.3 -0.44017 -1.84009 0
M  V30 10959 O 1137.64 0.595616 -1.73776 0
M  V30 10960 C 1137.7 -2.81785 -2.23244 0
M  V30 10961 C 1137.37 -4.22684 -1.73745 0
M  V30 10962 C 1138.36 -5.05611 -1.21054 0
M  V30 10963 C 1136.05 -4.69031 -1.79763 0
M  V30 10964 C 1138.04 -6.32968 -0.750368 0
M  V30 10965 C 1135.73 -5.96371 -1.33358 0
M  V30 10966 C 1136.73 -6.7817 -0.810832 0
M  V30 10967 O 1136.41 -8.03122 -0.353577 0
M  V30 10968 H 1136.15 -0.578767 -0.349292 0
M  V30 10969 H 1138.7 -2.00359 -0.452246 0
M  V30 10970 H 1136.93 -2.48764 -2.96063 0
M  V30 10971 H 1138.62 -2.89131 -2.84883 0
M  V30 10972 H 1139.39 -4.70984 -1.15755 0
M  V30 10973 H 1135.26 -4.05447 -2.19394 0
M  V30 10974 H 1138.81 -6.96763 -0.341666 0
M  V30 10975 H 1134.71 -6.30501 -1.38344 0
M  V30 10976 H 1135.47 -8.17124 -0.474439 0
M  V30 10977 N 1138.14 0.641106 -1.43971 0
M  V30 10978 C 1139.38 1.40291 -1.46445 0
M  V30 10979 C 1139.72 1.93978 -0.0929004 0
M  V30 10980 O 1138.99 1.73043 0.888043 0
M  V30 10981 C 1139.27 2.57551 -2.51673 0
M  V30 10982 C 1139.13 2.09279 -3.98149 0
M  V30 10983 C 1140.45 3.59752 -2.53508 0
M  V30 10984 H 1137.57 0.508771 -0.533218 0
M  V30 10985 H 1140.21 0.725767 -1.75592 0
M  V30 10986 H 1138.36 3.15319 -2.2695 0
M  V30 10987 H 1140.03 1.56418 -4.33971 0
M  V30 10988 H 1138.27 1.40545 -4.10402 0
M  V30 10989 H 1138.94 2.93655 -4.67409 0
M  V30 10990 H 1141.42 3.11766 -2.75574 0
M  V30 10991 H 1140.3 4.39332 -3.29057 0
M  V30 10992 H 1140.56 4.13156 -1.57335 0
M  V30 10993 N 1139.62 1.30703 0.880598 0
M  V30 10994 C 1140.86 1.20965 1.63521 0
M  V30 10995 C 1141.22 -0.232404 1.90991 0
M  V30 10996 O 1140.51 -1.16272 1.52287 0
M  V30 10997 C 1140.7 1.97628 2.97789 0
M  V30 10998 C 1140.53 3.49141 2.83427 0
M  V30 10999 C 1139.3 4.18496 2.83177 0
M  V30 11000 C 1141.5 4.44291 2.59056 0
M  V30 11001 N 1139.48 5.56239 2.59752 0
M  V30 11002 C 1140.85 5.69627 2.44795 0
M  V30 11003 C 1142.91 4.33837 2.44316 0
M  V30 11004 C 1141.61 6.85694 2.17293 0
M  V30 11005 C 1143.64 5.49675 2.182 0
M  V30 11006 C 1143 6.73995 2.04719 0
M  V30 11007 H 1139.1 0.497719 0.603158 0
M  V30 11008 H 1141.68 1.64765 1.03733 0
M  V30 11009 H 1139.85 1.56212 3.55601 0
M  V30 11010 H 1141.59 1.79996 3.62468 0
M  V30 11011 H 1138.34 3.70368 2.95168 0
M  V30 11012 H 1138.76 6.28735 2.5104 0
M  V30 11013 H 1143.41 3.38396 2.53471 0
M  V30 11014 H 1141.12 7.81171 2.06875 0
M  V30 11015 H 1144.71 5.43497 2.0761 0
M  V30 11016 H 1143.59 7.62116 1.84794 0
M  V30 11017 N 1141.09 -1.09351 1.1349 0
M  V30 11018 C 1142.34 -1.81185 0.89535 0
M  V30 11019 C 1142.66 -1.86173 -0.580048 0
M  V30 11020 O 1141.93 -1.34784 -1.42162 0
M  V30 11021 H 1140.51 -0.671011 0.328257 0
M  V30 11022 H 1143.17 -1.32255 1.43159 0
M  V30 11023 H 1142.27 -2.84339 1.28676 0
M  V30 11024 N 1142.57 -0.928524 -1.27343 0
M  V30 11025 C 1143.8 -0.58516 -1.98974 0
M  V30 11026 C 1144.22 0.829964 -1.68799 0
M  V30 11027 O 1143.58 1.55705 -0.928738 0
M  V30 11028 C 1143.63 -0.818662 -3.51184 0
M  V30 11029 O 1142.73 0.115355 -4.12239 0
M  V30 11030 H 1142.07 -0.225203 -0.624644 0
M  V30 11031 H 1144.6 -1.248 -1.6213 0
M  V30 11032 H 1144.61 -0.734554 -4.01333 0
M  V30 11033 H 1143.29 -1.8502 -3.72479 0
M  V30 11034 H 1141.86 -0.0187371 -3.72895 0
M  V30 11035 N 1144.05 1.41491 -0.694123 0
M  V30 11036 C 1145.27 2.06099 -0.23197 0
M  V30 11037 C 1145.7 1.51888 1.10958 0
M  V30 11038 O 1145.06 0.645247 1.69429 0
M  V30 11039 C 1145.11 3.60053 -0.198522 0
M  V30 11040 O 1144.21 4.04021 0.827067 0
M  V30 11041 H 1143.55 0.654193 -0.113699 0
M  V30 11042 H 1146.08 1.81282 -0.948575 0
M  V30 11043 H 1146.09 4.0799 -0.0288904 0
M  V30 11044 H 1144.77 3.98879 -1.17764 0
M  V30 11045 H 1143.34 3.67593 0.626908 0
M  V30 11046 N 1145.53 0.438773 1.51369 0
M  V30 11047 C 1146.75 -0.128221 2.07003 0
M  V30 11048 C 1147.18 -1.3557 1.30393 0
M  V30 11049 O 1146.54 -1.7804 0.342283 0
M  V30 11050 C 1146.58 -0.42761 3.58056 0
M  V30 11051 O 1145.69 -1.51382 3.83611 0
M  V30 11052 H 1145.03 -0.00123679 0.663999 0
M  V30 11053 H 1147.56 0.62052 1.94963 0
M  V30 11054 H 1147.57 -0.677645 4.02333 0
M  V30 11055 H 1146.24 0.469535 4.13241 0
M  V30 11056 H 1144.82 -1.25363 3.51196 0
M  V30 11057 N 1147.01 -1.56678 0.170181 0
M  V30 11058 C 1147.94 -2.15083 -0.791961 0
M  V30 11059 C 1148.95 -1.10612 -1.19452 0
M  V30 11060 O 1150.14 -1.37803 -1.13457 0
M  V30 11061 C 1147.24 -2.67769 -2.07733 0
M  V30 11062 C 1146.41 -3.96885 -1.83851 0
M  V30 11063 C 1145.47 -4.34646 -2.96596 0
M  V30 11064 O 1144.5 -5.02543 -2.67281 0
M  V30 11065 N 1145.7 -3.96112 -4.24353 0
M  V30 11066 H 1148.46 -2.98268 -0.292658 0
M  V30 11067 H 1146.03 -1.61895 -0.0126383 0
M  V30 11068 H 1148.02 -2.90029 -2.8225 0
M  V30 11069 H 1146.59 -1.89179 -2.48858 0
M  V30 11070 H 1145.81 -3.83013 -0.932452 0
M  V30 11071 H 1147.1 -4.81213 -1.65261 0
M  V30 11072 H 1146.49 -3.41448 -4.51032 0
M  V30 11073 H 1145.05 -4.23375 -4.95577 0
M  V30 11074 N 1148.48 0.103547 -1.57259 0
M  V30 11075 C 1149.73 0.809774 -1.85931 0
M  V30 11076 C 1150.06 1.78791 -0.758122 0
M  V30 11077 O 1149.34 1.93079 0.234682 0
M  V30 11078 C 1149.62 1.54601 -3.25224 0
M  V30 11079 C 1149.47 0.586439 -4.45961 0
M  V30 11080 C 1150.79 2.4986 -3.62296 0
M  V30 11081 H 1147.91 0.29293 -0.676285 0
M  V30 11082 H 1150.55 0.0736065 -1.89857 0
M  V30 11083 H 1148.7 2.17355 -3.22008 0
M  V30 11084 H 1150.38 -0.0334441 -4.61288 0
M  V30 11085 H 1148.62 -0.10085 -4.33683 0
M  V30 11086 H 1149.29 1.13855 -5.40131 0
M  V30 11087 H 1151.77 1.97203 -3.66402 0
M  V30 11088 H 1150.64 2.98396 -4.60707 0
M  V30 11089 H 1150.9 3.33233 -2.90531 0
M  V30 11090 N 1149.96 1.53094 0.37415 0
M  V30 11091 C 1150.92 1.78264 1.44065 0
M  V30 11092 C 1151.92 0.652892 1.46949 0
M  V30 11093 O 1153.11 0.921046 1.47859 0
M  V30 11094 C 1150.25 1.89693 2.83248 0
M  V30 11095 H 1151.44 2.73505 1.23025 0
M  V30 11096 H 1148.99 1.44041 0.60678 0
M  V30 11097 H 1149.73 0.964884 3.09613 0
M  V30 11098 H 1149.51 2.71855 2.82554 0
M  V30 11099 H 1151 2.10787 3.60498 0
M  V30 11100 N 1151.44 -0.633461 1.44309 0
M  V30 11101 C 1152.39 -1.76674 1.51292 0
M  V30 11102 C 1153.38 -1.64972 0.384807 0
M  V30 11103 O 1154.59 -1.71079 0.559653 0
M  V30 11104 H 1150.96 -0.583238 0.474697 0
M  V30 11105 H 1152.93 -1.67907 2.46678 0
M  V30 11106 C 1151.68 -3.15002 1.47205 0
M  V30 11107 H 1151.01 -3.24653 2.33325 0
M  V30 11108 H 1152.45 -3.94199 1.56151 0
M  V30 11109 C 1150.9 -3.3635 0.192464 0
M  V30 11110 O 1151.43 -3.94857 -0.738285 0
M  V30 11111 N 1149.64 -2.9044 0.0963424 0
M  V30 11112 H 1149.19 -2.43011 0.85459 0
M  V30 11113 H 1149.15 -3.05099 -0.759061 0
M  V30 11114 N 1152.92 -1.31168 -0.873655 0
M  V30 11115 C 1153.87 -1.18432 -2.00191 0
M  V30 11116 C 1154.86 -0.0934873 -1.69142 0
M  V30 11117 O 1156.07 -0.255126 -1.78183 0
M  V30 11118 H 1152.44 -0.366594 -0.656592 0
M  V30 11119 H 1154.41 -2.13896 -2.08065 0
M  V30 11120 C 1153.16 -0.904668 -3.35725 0
M  V30 11121 H 1152.48 -1.73617 -3.60135 0
M  V30 11122 H 1153.92 -0.855715 -4.15275 0
M  V30 11123 C 1152.38 0.392554 -3.34605 0
M  V30 11124 O 1152.91 1.41052 -3.76121 0
M  V30 11125 N 1151.12 0.40777 -2.87725 0
M  V30 11126 H 1150.67 -0.42112 -2.54134 0
M  V30 11127 H 1150.62 1.27564 -2.87358 0
M  V30 11128 N 1154.4 1.08748 -1.14068 0
M  V30 11129 C 1155.33 2.17591 -0.84714 0
M  V30 11130 C 1156.31 1.68962 0.196415 0
M  V30 11131 O 1157.49 1.94125 0.0538415 0
M  V30 11132 C 1154.62 3.45823 -0.320005 0
M  V30 11133 C 1153.58 4.07824 -1.2986 0
M  V30 11134 C 1152.9 5.30965 -0.630925 0
M  V30 11135 C 1154.2 4.49512 -2.65963 0
M  V30 11136 H 1155.9 2.42404 -1.75729 0
M  V30 11137 H 1153.44 1.16502 -0.846356 0
M  V30 11138 H 1155.4 4.21276 -0.102271 0
M  V30 11139 H 1154.12 3.20553 0.625561 0
M  V30 11140 H 1152.78 3.34398 -1.50245 0
M  V30 11141 H 1152.43 5.01979 0.320337 0
M  V30 11142 H 1152.13 5.73402 -1.28388 0
M  V30 11143 H 1153.65 6.09136 -0.422635 0
M  V30 11144 H 1155.06 5.16159 -2.49506 0
M  V30 11145 H 1153.46 5.02857 -3.27498 0
M  V30 11146 H 1154.53 3.6157 -3.23102 0
M  V30 11147 N 1155.87 0.935264 1.26849 0
M  V30 11148 C 1157.12 0.580548 1.94313 0
M  V30 11149 C 1157.45 -0.877205 1.73259 0
M  V30 11150 O 1156.73 -1.62679 1.06611 0
M  V30 11151 C 1157.01 0.916445 3.48243 0
M  V30 11152 C 1156.86 2.42851 3.78607 0
M  V30 11153 C 1158.18 0.427665 4.38017 0
M  V30 11154 H 1155.3 0.21239 0.705733 0
M  V30 11155 H 1157.94 1.16841 1.49827 0
M  V30 11156 H 1156.09 0.416169 3.86265 0
M  V30 11157 H 1157.77 3.00106 3.50335 0
M  V30 11158 H 1156.01 2.8745 3.24892 0
M  V30 11159 H 1156.68 2.61405 4.8618 0
M  V30 11160 H 1159.16 0.856525 4.07189 0
M  V30 11161 H 1158.03 0.691571 5.44526 0
M  V30 11162 H 1158.29 -0.672344 4.36958 0
M  V30 11163 N 1157.35 -1.41121 0.701616 0
M  V30 11164 C 1158.6 -2.01428 0.235495 0
M  V30 11165 C 1158.93 -1.55463 -1.16382 0
M  V30 11166 O 1158.21 -0.768477 -1.78675 0
M  V30 11167 C 1158.49 -3.58849 0.299919 0
M  V30 11168 C 1158.34 -4.14924 1.73661 0
M  V30 11169 C 1159.66 -4.38809 -0.336856 0
M  V30 11170 H 1156.78 -0.731842 0.0870456 0
M  V30 11171 H 1159.42 -1.67787 0.891479 0
M  V30 11172 H 1157.57 -3.87638 -0.258611 0
M  V30 11173 H 1159.24 -3.96987 2.34945 0
M  V30 11174 H 1157.49 -3.69738 2.26884 0
M  V30 11175 H 1158.16 -5.24085 1.73318 0
M  V30 11176 H 1160.63 -4.15868 0.138886 0
M  V30 11177 H 1159.51 -5.48278 -0.261264 0
M  V30 11178 H 1159.77 -4.18728 -1.41843 0
M  V30 11179 N 1158.83 -0.446794 -1.51134 0
M  V30 11180 C 1160.08 0.116666 -2.02464 0
M  V30 11181 C 1160.41 1.41532 -1.32975 0
M  V30 11182 O 1159.68 1.89278 -0.447651 0
M  V30 11183 C 1159.97 0.325659 -3.58624 0
M  V30 11184 C 1159.82 -0.992307 -4.38718 0
M  V30 11185 C 1161.14 1.09121 -4.26357 0
M  V30 11186 H 1158.26 0.0409262 -0.735863 0
M  V30 11187 H 1160.9 -0.587641 -1.80684 0
M  V30 11188 H 1159.05 0.925585 -3.77313 0
M  V30 11189 H 1160.72 -1.62694 -4.31658 0
M  V30 11190 H 1158.97 -1.5947 -4.03425 0
M  V30 11191 H 1159.64 -0.800005 -5.46172 0
M  V30 11192 H 1162.11 0.582944 -4.11996 0
M  V30 11193 H 1160.99 1.20621 -5.35483 0
M  V30 11194 H 1161.25 2.12171 -3.87861 0
M  V30 11195 N 1160.31 1.56586 -0.178487 0
M  V30 11196 C 1161.27 2.17091 0.73512 0
M  V30 11197 C 1162.27 1.12088 1.15295 0
M  V30 11198 O 1163.46 1.37563 1.06874 0
M  V30 11199 C 1160.59 2.75957 2.00151 0
M  V30 11200 H 1161.79 2.99176 0.208272 0
M  V30 11201 H 1159.34 1.56138 0.0710967 0
M  V30 11202 H 1160.07 1.97626 2.57127 0
M  V30 11203 H 1159.86 3.52809 1.7108 0
M  V30 11204 H 1161.35 3.2247 2.65335 0
M  V30 11205 N 1161.79 -0.095206 1.57312 0
M  V30 11206 C 1163.01 -0.81227 1.90289 0
M  V30 11207 C 1163.43 -1.72287 0.772178 0
M  V30 11208 O 1162.79 -1.80698 -0.255841 0
M  V30 11209 C 1162.84 -1.62572 3.22882 0
M  V30 11210 O 1162.56 -0.75175 4.31602 0
M  V30 11211 C 1164.06 -2.44585 3.6972 0
M  V30 11212 H 1161.28 -0.232256 0.629522 0
M  V30 11213 H 1163.82 -0.0724733 2.04372 0
M  V30 11214 H 1161.98 -2.31803 3.10397 0
M  V30 11215 H 1162.39 -1.31514 5.07744 0
M  V30 11216 H 1163.87 -2.97155 4.65191 0
M  V30 11217 H 1164.34 -3.23044 2.97555 0
M  V30 11218 H 1164.95 -1.80554 3.85072 0
M  V30 11219 N 1163.26 -1.53291 -0.366026 0
M  V30 11220 C 1164.23 -1.79025 -1.43117 0
M  V30 11221 C 1165.23 -0.660676 -1.46601 0
M  V30 11222 O 1166.42 -0.928875 -1.47369 0
M  V30 11223 C 1163.55 -1.91192 -2.82238 0
M  V30 11224 H 1164.74 -2.74154 -1.21572 0
M  V30 11225 H 1162.3 -1.44361 -0.599132 0
M  V30 11226 H 1163.03 -0.98129 -3.09097 0
M  V30 11227 H 1162.82 -2.7335 -2.81109 0
M  V30 11228 H 1164.31 -2.12696 -3.59375 0
M  V30 11229 N 1164.74 0.6258 -1.44643 0
M  V30 11230 C 1165.97 1.41028 -1.50979 0
M  V30 11231 C 1166.38 1.88717 -0.135092 0
M  V30 11232 O 1165.72 1.61778 0.870268 0
M  V30 11233 C 1165.79 2.66094 -2.41732 0
M  V30 11234 C 1165.45 2.40166 -3.88805 0
M  V30 11235 C 1166.45 2.01661 -4.79196 0
M  V30 11236 C 1164.13 2.53641 -4.33557 0
M  V30 11237 C 1166.13 1.76966 -6.12341 0
M  V30 11238 C 1163.81 2.2856 -5.66748 0
M  V30 11239 C 1164.81 1.90282 -6.55959 0
M  V30 11240 O 1164.5 1.65484 -7.86683 0
M  V30 11241 H 1164.23 0.438757 -0.514265 0
M  V30 11242 H 1166.78 0.772034 -1.90339 0
M  V30 11243 H 1165.01 3.32575 -1.97309 0
M  V30 11244 H 1166.7 3.28107 -2.38957 0
M  V30 11245 H 1167.47 1.90802 -4.45892 0
M  V30 11246 H 1163.35 2.82404 -3.64375 0
M  V30 11247 H 1166.89 1.47014 -6.81933 0
M  V30 11248 H 1162.79 2.3903 -5.99612 0
M  V30 11249 H 1163.56 1.79686 -7.98533 0
M  V30 11250 N 1166.22 1.31629 0.866686 0
M  V30 11251 C 1167.5 1.12136 1.60265 0
M  V30 11252 C 1167.88 -0.322729 2.08618 0
M  V30 11253 O 1167.23 -1.31738 1.86701 0
M  V30 11254 C 1167.44 2.13845 2.7581 0
M  V30 11255 C 1168.78 2.46541 3.45692 0
M  V30 11256 O 1169.81 2.12298 2.86021 0
M  V30 11257 O 1168.67 3.05194 4.53342 0
M  V30 11258 H 1165.76 0.431923 0.705246 0
M  V30 11259 H 1168.31 1.43119 0.911863 0
M  V30 11260 H 1167.08 3.10967 2.37518 0
M  V30 11261 H 1166.7 1.83786 3.52574 0
M  V30 11262 N 1167.7 -1.08142 1.14644 0
M  V30 11263 C 1168.63 -2.17139 0.858667 0
M  V30 11264 C 1169.61 -1.69064 -0.187452 0
M  V30 11265 O 1170.8 -1.94151 -0.0435458 0
M  V30 11266 C 1167.93 -3.45648 0.33834 0
M  V30 11267 C 1166.88 -4.07129 1.32021 0
M  V30 11268 C 1166.21 -5.30623 0.659075 0
M  V30 11269 C 1167.51 -4.48095 2.68343 0
M  V30 11270 H 1169.2 -2.41468 1.77012 0
M  V30 11271 H 1166.75 -1.16052 0.852523 0
M  V30 11272 H 1168.7 -4.21216 0.124611 0
M  V30 11273 H 1167.42 -3.2088 -0.608553 0
M  V30 11274 H 1166.08 -3.33596 1.52016 0
M  V30 11275 H 1165.73 -5.02142 -0.293711 0
M  V30 11276 H 1165.43 -5.72714 1.31427 0
M  V30 11277 H 1166.95 -6.08903 0.454933 0
M  V30 11278 H 1168.37 -5.14828 2.5224 0
M  V30 11279 H 1166.76 -5.01113 3.30161 0
M  V30 11280 H 1167.83 -3.59852 3.25015 0
M  V30 11281 N 1169.18 -0.941978 -1.26351 0
M  V30 11282 C 1170.41 -0.606748 -1.97803 0
M  V30 11283 C 1170.82 0.818441 -1.70138 0
M  V30 11284 O 1170.18 1.54583 -0.970076 0
M  V30 11285 C 1170.23 -0.840431 -3.51595 0
M  V30 11286 O 1169.95 -2.20957 -3.78299 0
M  V30 11287 C 1171.45 -0.515855 -4.40288 0
M  V30 11288 H 1168.67 -0.228591 -0.630862 0
M  V30 11289 H 1171.21 -1.2629 -1.60845 0
M  V30 11290 H 1169.37 -0.230875 -3.86711 0
M  V30 11291 H 1169.78 -2.2702 -4.72824 0
M  V30 11292 H 1171.26 -0.72998 -5.47152 0
M  V30 11293 H 1171.73 0.549178 -4.35753 0
M  V30 11294 H 1172.34 -1.10417 -4.10717 0
M  V30 11295 N 1170.66 1.40747 -0.709091 0
M  V30 11296 C 1171.9 2.00606 -0.245324 0
M  V30 11297 C 1172.22 1.56489 1.16346 0
M  V30 11298 O 1171.49 0.801456 1.78755 0
M  V30 11299 H 1170.07 0.741833 -0.0877098 0
M  V30 11300 H 1172.74 1.72178 -0.913271 0
M  V30 11301 H 1171.83 3.10901 -0.273322 0
M  V30 11302 N 1172.13 0.454803 1.50895 0
M  V30 11303 C 1173.41 -0.166559 1.9489 0
M  V30 11304 C 1173.79 -1.58492 1.3944 0
M  V30 11305 O 1173.14 -2.20788 0.588622 0
M  V30 11306 C 1173.35 -0.126506 3.48771 0
M  V30 11307 C 1174.7 -0.32347 4.23366 0
M  V30 11308 O 1175.72 -0.203835 3.55616 0
M  V30 11309 O 1174.58 -0.563292 5.43589 0
M  V30 11310 H 1171.67 -0.120523 0.818171 0
M  V30 11311 H 1174.22 0.514037 1.61727 0
M  V30 11312 H 1172.99 0.864407 3.81633 0
M  V30 11313 H 1172.61 -0.849264 3.88424 0
M  V30 11314 N 1173.61 -1.56489 0.186789 0
M  V30 11315 C 1174.52 -2.22304 -0.749543 0
M  V30 11316 C 1175.54 -1.21949 -1.24115 0
M  V30 11317 O 1176.71 -1.5466 -1.29005 0
M  V30 11318 C 1173.78 -2.863 -1.95533 0
M  V30 11319 C 1172.84 -4.01901 -1.5091 0
M  V30 11320 C 1172.07 -4.62837 -2.6574 0
M  V30 11321 O 1172.3 -4.22681 -3.8301 0
M  V30 11322 O 1171.23 -5.52446 -2.38929 0
M  V30 11323 H 1175.06 -3.02909 -0.21908 0
M  V30 11324 H 1172.64 -1.49341 -0.0421249 0
M  V30 11325 H 1174.52 -3.2682 -2.6602 0
M  V30 11326 H 1173.2 -2.08681 -2.47455 0
M  V30 11327 H 1172.1 -3.66021 -0.773261 0
M  V30 11328 H 1173.44 -4.8116 -1.03663 0
M  V30 11329 N 1175.09 0.086862 -1.5736 0
M  V30 11330 C 1176.51 0.441284 -1.53378 0
M  V30 11331 C 1176.71 1.80046 -0.904748 0
M  V30 11332 O 1175.76 2.47484 -0.500781 0
M  V30 11333 C 1177.07 0.3962 -2.98078 0
M  V30 11334 C 1178.62 0.477468 -3.09337 0
M  V30 11335 C 1179.1 0.462448 -4.55659 0
M  V30 11336 N 1180.59 0.522963 -4.60238 0
M  V30 11337 C 1181.32 0.533313 -5.70914 0
M  V30 11338 N 1180.82 0.499376 -6.90998 0
M  V30 11339 N 1182.61 0.578742 -5.59113 0
M  V30 11340 H 1174.76 -0.803308 -1.96623 0
M  V30 11341 H 1177.03 -0.299879 -0.89932 0
M  V30 11342 H 1176.73 -0.535505 -3.47599 0
M  V30 11343 H 1176.61 1.21209 -3.57195 0
M  V30 11344 H 1178.99 1.39959 -2.59799 0
M  V30 11345 H 1179.07 -0.366717 -2.53158 0
M  V30 11346 H 1178.72 -0.455768 -5.05851 0
M  V30 11347 H 1178.65 1.32396 -5.09685 0
M  V30 11348 H 1181.14 0.554051 -3.73816 0
M  V30 11349 H 1181.45 0.510784 -7.7111 0
M  V30 11350 H 1179.8 0.466296 -6.93434 0
M  V30 11351 H 1182.99 0.602841 -4.64202 0
M  V30 11352 H 1183.16 0.583339 -6.45369 0
M  V30 11353 N 1176.57 1.53483 0.357892 0
M  V30 11354 C 1177.81 1.70037 1.09971 0
M  V30 11355 C 1178.14 0.456112 1.89076 0
M  V30 11356 O 1177.4 -0.562029 1.87456 0
M  V30 11357 C 1177.7 2.90654 2.07978 0
M  V30 11358 C 1177.36 4.26849 1.45295 0
M  V30 11359 C 1176.02 4.63884 1.27928 0
M  V30 11360 C 1178.38 5.11514 1.00013 0
M  V30 11361 C 1175.7 5.83213 0.638745 0
M  V30 11362 C 1178.06 6.31496 0.373568 0
M  V30 11363 C 1176.72 6.67237 0.187457 0
M  V30 11364 H 1175.99 0.622209 0.402414 0
M  V30 11365 H 1178.64 1.87679 0.380615 0
M  V30 11366 H 1176.94 2.67556 2.86219 0
M  V30 11367 H 1178.64 3.00656 2.65343 0
M  V30 11368 H 1175.23 3.97693 1.59807 0
M  V30 11369 H 1179.41 4.83446 1.12221 0
M  V30 11370 H 1174.67 6.09489 0.483035 0
M  V30 11371 H 1178.84 6.96398 0.0145346 0
M  V30 11372 H 1176.47 7.59564 -0.310933 0
M  V30 11373 N 1178.05 -0.61812 1.44973 0
M  V30 11374 C 1179.46 -0.937734 1.29146 0
M  V30 11375 C 1179.66 -2.00104 0.236749 0
M  V30 11376 O 1178.72 -2.49731 -0.372923 0
M  V30 11377 C 1180.03 -1.38865 2.66715 0
M  V30 11378 C 1181.58 -1.50343 2.74529 0
M  V30 11379 C 1182.05 -1.98814 4.12598 0
M  V30 11380 N 1183.54 -2.06064 4.14839 0
M  V30 11381 C 1184.28 -2.44768 5.18533 0
M  V30 11382 N 1183.78 -2.82516 6.32579 0
M  V30 11383 N 1185.57 -2.45016 5.05889 0
M  V30 11384 H 1177.72 0.084872 2.1223 0
M  V30 11385 H 1179.98 -0.0246744 0.947679 0
M  V30 11386 H 1179.69 -0.681583 3.45032 0
M  V30 11387 H 1179.56 -2.3572 2.94475 0
M  V30 11388 H 1181.95 -2.20144 1.96522 0
M  V30 11389 H 1182.03 -0.518297 2.50494 0
M  V30 11390 H 1181.67 -1.29604 4.91086 0
M  V30 11391 H 1181.6 -2.98223 4.34017 0
M  V30 11392 H 1184.1 -1.79525 3.32535 0
M  V30 11393 H 1184.41 -3.109 7.07504 0
M  V30 11394 H 1182.75 -2.80237 6.35997 0
M  V30 11395 H 1185.94 -2.14925 4.15842 0
M  V30 11396 H 1186.12 -2.74854 5.86821 0
M  V30 11397 N 1179.52 -1.32087 -0.859693 0
M  V30 11398 C 1180.49 -1.20546 -1.94939 0
M  V30 11399 C 1181.49 -0.12982 -1.60275 0
M  V30 11400 O 1182.68 -0.379853 -1.70008 0
M  V30 11401 C 1179.81 -0.852717 -3.30063 0
M  V30 11402 H 1181 -2.17384 -2.06602 0
M  V30 11403 H 1178.55 -1.15846 -1.04926 0
M  V30 11404 H 1179.29 0.114059 -3.24099 0
M  V30 11405 H 1179.07 -1.63035 -3.56598 0
M  V30 11406 H 1180.56 -0.796145 -4.09941 0
M  V30 11407 N 1181 1.07532 -1.15215 0
M  V30 11408 C 1181.96 2.1286 -0.84989 0
M  V30 11409 C 1182.96 1.60103 0.149524 0
M  V30 11410 O 1184.15 1.74017 -0.0798918 0
M  V30 11411 C 1181.29 3.3984 -0.268617 0
M  V30 11412 H 1182.48 2.41106 -1.78347 0
M  V30 11413 H 1180.03 1.23392 -0.959386 0
M  V30 11414 H 1180.77 3.17235 0.67325 0
M  V30 11415 H 1180.55 3.79433 -0.988592 0
M  V30 11416 H 1182.04 4.17533 -0.0746554 0
M  V30 11417 N 1182.48 0.948665 1.2585 0
M  V30 11418 C 1183.71 0.617229 1.97479 0
M  V30 11419 C 1184.12 -0.809406 1.7057 0
M  V30 11420 O 1183.48 -1.54066 0.97826 0
M  V30 11421 C 1183.53 0.859065 3.51144 0
M  V30 11422 O 1183.25 2.2296 3.77121 0
M  V30 11423 C 1184.75 0.539197 4.40009 0
M  V30 11424 H 1181.97 0.231933 0.629641 0
M  V30 11425 H 1184.52 1.27141 1.60173 0
M  V30 11426 H 1182.67 0.25138 3.86584 0
M  V30 11427 H 1183.09 2.29524 4.71613 0
M  V30 11428 H 1184.56 0.758986 5.46757 0
M  V30 11429 H 1185.04 -0.526062 4.36038 0
M  V30 11430 H 1185.64 1.12594 4.10125 0
M  V30 11431 N 1183.96 -1.40369 0.716545 0
M  V30 11432 C 1184.89 -2.33365 0.0793533 0
M  V30 11433 C 1185.87 -1.52943 -0.744482 0
M  V30 11434 O 1187.05 -1.81406 -0.693212 0
M  V30 11435 C 1184.18 -3.36928 -0.842429 0
M  V30 11436 C 1183.14 -4.2782 -0.124142 0
M  V30 11437 C 1182.46 -5.21928 -1.1617 0
M  V30 11438 C 1183.76 -5.12199 1.02224 0
M  V30 11439 H 1185.46 -2.86899 0.856115 0
M  V30 11440 H 1183 -1.37946 0.413138 0
M  V30 11441 H 1184.96 -4.00925 -1.29759 0
M  V30 11442 H 1183.68 -2.81791 -1.6511 0
M  V30 11443 H 1182.34 -3.65277 0.311201 0
M  V30 11444 H 1181.99 -4.63096 -1.96345 0
M  V30 11445 H 1181.69 -5.83582 -0.685978 0
M  V30 11446 H 1183.21 -5.88802 -1.61694 0
M  V30 11447 H 1184.63 -5.69644 0.646399 0
M  V30 11448 H 1183.02 -5.82901 1.4264 0
M  V30 11449 H 1184.09 -4.4812 1.85246 0
M  V30 11450 N 1185.44 -0.462799 -1.50652 0
M  V30 11451 C 1186.35 0.341191 -2.32106 0
M  V30 11452 C 1187.36 1.00384 -1.42123 0
M  V30 11453 O 1188.54 0.993635 -1.75182 0
M  V30 11454 C 1185.6 1.41356 -3.16575 0
M  V30 11455 C 1184.66 0.768375 -4.22368 0
M  V30 11456 C 1183.9 1.78964 -5.028 0
M  V30 11457 O 1184.12 3.01515 -4.84195 0
M  V30 11458 O 1183.05 1.36606 -5.86193 0
M  V30 11459 H 1186.88 -0.324482 -3.01962 0
M  V30 11460 H 1184.47 -0.224807 -1.47699 0
M  V30 11461 H 1186.35 2.0349 -3.69012 0
M  V30 11462 H 1185.02 2.06285 -2.49456 0
M  V30 11463 H 1183.93 0.108297 -3.73943 0
M  V30 11464 H 1185.26 0.162164 -4.91933 0
M  V30 11465 N 1186.91 1.56388 -0.195085 0
M  V30 11466 C 1188.16 1.97189 0.44281 0
M  V30 11467 C 1188.48 1.08312 1.62153 0
M  V30 11468 O 1187.75 0.154404 1.95291 0
M  V30 11469 H 1186.33 0.728188 0.166585 0
M  V30 11470 H 1189 1.92852 -0.281815 0
M  V30 11471 H 1188.09 3.02016 0.786945 0
M  V30 11472 N 1188.39 -0.0785156 1.57404 0
M  V30 11473 C 1189.32 -1.09446 2.06262 0
M  V30 11474 C 1190.3 -1.40777 0.954772 0
M  V30 11475 O 1191.49 -1.5052 1.22708 0
M  V30 11476 C 1188.62 -2.40979 2.50093 0
M  V30 11477 C 1187.57 -2.24017 3.64692 0
M  V30 11478 C 1186.9 -3.60873 3.94556 0
M  V30 11479 C 1188.2 -1.66696 4.94985 0
M  V30 11480 H 1189.89 -0.687928 2.9139 0
M  V30 11481 H 1187.44 -0.329466 1.4018 0
M  V30 11482 H 1189.39 -3.12337 2.82884 0
M  V30 11483 H 1188.12 -2.83599 1.61985 0
M  V30 11484 H 1186.77 -1.55101 3.32174 0
M  V30 11485 H 1186.42 -4.01051 3.0359 0
M  V30 11486 H 1186.12 -3.50365 4.71718 0
M  V30 11487 H 1187.65 -4.33673 4.29837 0
M  V30 11488 H 1189.06 -2.27913 5.2605 0
M  V30 11489 H 1187.46 -1.66902 5.76423 0
M  V30 11490 H 1188.53 -0.627827 4.80818 0
M  V30 11491 N 1189.87 -1.5367 -0.349747 0
M  V30 11492 C 1191.15 -1.61238 -1.10732 0
M  V30 11493 C 1191.53 -0.429756 -2.06679 0
M  V30 11494 O 1190.88 0.578564 -2.21054 0
M  V30 11495 C 1191.09 -2.97022 -1.83245 0
M  V30 11496 C 1192.43 -3.52158 -2.37212 0
M  V30 11497 O 1193.46 -2.99156 -1.9335 0
M  V30 11498 O 1192.32 -4.44853 -3.1744 0
M  V30 11499 H 1189.41 -0.65191 -0.508864 0
M  V30 11500 H 1191.96 -1.66015 -0.351738 0
M  V30 11501 H 1190.73 -3.74535 -1.13311 0
M  V30 11502 H 1190.35 -2.95808 -2.65675 0
M  V30 11503 N 1191.35 0.610423 -1.45298 0
M  V30 11504 C 1192.58 1.39419 -1.52466 0
M  V30 11505 C 1192.99 1.88563 -0.1551 0
M  V30 11506 O 1192.33 1.62692 0.853061 0
M  V30 11507 C 1192.39 2.63515 -2.44541 0
M  V30 11508 C 1192.06 2.36028 -3.91331 0
M  V30 11509 C 1193.05 1.96567 -4.81308 0
M  V30 11510 C 1190.74 2.49028 -4.36223 0
M  V30 11511 C 1192.73 1.70461 -6.14184 0
M  V30 11512 C 1190.42 2.22536 -5.6914 0
M  V30 11513 C 1191.42 1.83314 -6.5794 0
M  V30 11514 O 1191.1 1.57131 -7.88394 0
M  V30 11515 H 1190.84 0.433278 -0.518889 0
M  V30 11516 H 1193.39 0.751803 -1.91147 0
M  V30 11517 H 1191.62 3.30463 -2.00826 0
M  V30 11518 H 1193.31 3.25554 -2.42424 0
M  V30 11519 H 1194.08 1.86062 -4.4789 0
M  V30 11520 H 1189.95 2.78524 -3.67349 0
M  V30 11521 H 1193.5 1.39773 -6.83454 0
M  V30 11522 H 1189.4 2.32657 -6.02114 0
M  V30 11523 H 1190.16 1.71207 -8.00394 0
M  V30 11524 N 1192.83 1.32541 0.852676 0
M  V30 11525 C 1193.76 1.24254 1.97694 0
M  V30 11526 C 1194.74 0.125971 1.69633 0
M  V30 11527 O 1195.92 0.31347 1.91653 0
M  V30 11528 C 1193.05 0.966874 3.3357 0
M  V30 11529 C 1192.01 2.0449 3.75989 0
M  V30 11530 C 1191.33 1.6216 5.09518 0
M  V30 11531 C 1192.63 3.46013 3.91244 0
M  V30 11532 H 1194.33 2.18317 2.04886 0
M  V30 11533 H 1191.87 1.05101 0.984371 0
M  V30 11534 H 1193.83 0.895444 4.11776 0
M  V30 11535 H 1192.55 -0.0093893 3.26599 0
M  V30 11536 H 1191.21 2.10651 3.00036 0
M  V30 11537 H 1190.86 0.632729 4.99005 0
M  V30 11538 H 1190.56 2.3429 5.38871 0
M  V30 11539 H 1192.08 1.56457 5.90215 0
M  V30 11540 H 1193.49 3.4243 4.59799 0
M  V30 11541 H 1191.89 4.1651 4.32017 0
M  V30 11542 H 1192.96 3.8553 2.941 0
M  V30 11543 N 1194.3 -1.0692 1.15784 0
M  V30 11544 C 1195.55 -1.796 0.935429 0
M  V30 11545 C 1195.88 -1.86935 -0.537173 0
M  V30 11546 O 1195.13 -1.35244 -1.41448 0
M  V30 11547 C 1195.43 -3.24389 1.50022 0
M  V30 11548 C 1195.1 -3.37145 2.99406 0
M  V30 11549 C 1193.76 -3.40334 3.40186 0
M  V30 11550 C 1196.11 -3.39584 3.95389 0
M  V30 11551 C 1193.44 -3.43569 4.75581 0
M  V30 11552 C 1195.79 -3.44356 5.30661 0
M  V30 11553 C 1194.46 -3.45824 5.70931 0
M  V30 11554 H 1193.73 -0.657201 0.342298 0
M  V30 11555 H 1196.37 -1.25784 1.44397 0
M  V30 11556 H 1194.68 -3.81015 0.91297 0
M  V30 11557 H 1196.38 -3.79209 1.30389 0
M  V30 11558 H 1192.97 -3.35365 2.66887 0
M  V30 11559 H 1197.15 -3.36337 3.64954 0
M  V30 11560 H 1192.41 -3.43006 5.06119 0
M  V30 11561 H 1196.58 -3.4519 6.04828 0
M  V30 11562 H 1194.21 -3.48084 6.75826 0
M  V30 11563 N 1195.78 -0.955326 -1.25345 0
M  V30 11564 C 1197.03 -0.609278 -1.92697 0
M  V30 11565 C 1197.35 0.856535 -1.75181 0
M  V30 11566 O 1196.62 1.61013 -1.11587 0
M  V30 11567 H 1195.2 -0.22235 -0.713141 0
M  V30 11568 H 1197.86 -1.21372 -1.52496 0
M  V30 11569 H 1196.96 -0.839198 -3.00606 0
M  V30 11570 N 1197.26 1.39987 -0.723979 0
M  V30 11571 C 1198.68 1.54547 -0.398403 0
M  V30 11572 C 1198.88 1.69348 1.09194 0
M  V30 11573 O 1197.93 1.68778 1.87804 0
M  V30 11574 C 1199.25 2.76929 -1.1718 0
M  V30 11575 C 1200.79 2.90754 -1.15893 0
M  V30 11576 C 1201.27 4.16059 -1.91465 0
M  V30 11577 N 1202.76 4.23076 -1.88576 0
M  V30 11578 C 1203.5 5.18957 -2.43867 0
M  V30 11579 N 1202.99 6.20695 -3.0775 0
M  V30 11580 N 1204.78 5.11095 -2.33962 0
M  V30 11581 H 1196.94 1.28626 -1.69024 0
M  V30 11582 H 1199.2 0.6226 -0.714894 0
M  V30 11583 H 1198.9 2.72298 -2.22591 0
M  V30 11584 H 1198.78 3.69279 -0.768941 0
M  V30 11585 H 1201.17 2.94884 -0.112978 0
M  V30 11586 H 1201.25 1.99498 -1.60107 0
M  V30 11587 H 1200.89 4.12691 -2.96055 0
M  V30 11588 H 1200.82 5.06339 -1.44665 0
M  V30 11589 H 1203.31 3.50195 -1.42027 0
M  V30 11590 H 1203.62 6.90296 -3.47435 0
M  V30 11591 H 1201.97 6.21114 -3.11837 0
M  V30 11592 H 1205.16 4.30546 -1.83706 0
M  V30 11593 H 1205.33 5.85644 -2.77353 0
M  V30 11594 N 1198.74 0.470782 1.50404 0
M  V30 11595 C 1199.69 -0.337584 2.30137 0
M  V30 11596 C 1200.68 -0.990673 1.37412 0
M  V30 11597 O 1201.89 -0.921813 1.54605 0
M  V30 11598 H 1198.26 -0.127707 0.741077 0
M  V30 11599 H 1200.23 0.355297 2.96277 0
M  V30 11600 C 1198.98 -1.40714 3.17954 0
M  V30 11601 H 1198.31 -0.913982 3.89213 0
M  V30 11602 H 1199.75 -1.94533 3.7674 0
M  V30 11603 C 1198.2 -2.40889 2.35529 0
M  V30 11604 O 1198.73 -3.46153 2.03816 0
M  V30 11605 N 1196.94 -2.126 1.98115 0
M  V30 11606 H 1196.49 -1.27023 2.24105 0
M  V30 11607 H 1196.45 -2.7986 1.43269 0
M  V30 11608 N 1200.22 -1.56282 0.203376 0
M  V30 11609 C 1201.18 -2.18233 -0.700489 0
M  V30 11610 C 1202.18 -1.13908 -1.13497 0
M  V30 11611 O 1203.37 -1.39246 -1.04672 0
M  V30 11612 C 1200.5 -2.79107 -1.95735 0
M  V30 11613 H 1201.7 -2.99469 -0.160649 0
M  V30 11614 H 1199.25 -1.56232 -0.0462475 0
M  V30 11615 H 1199.98 -2.01691 -2.53951 0
M  V30 11616 H 1199.77 -3.55486 -1.65446 0
M  V30 11617 H 1201.26 -3.2665 -2.60172 0
M  V30 11618 N 1201.7 0.070167 -1.57444 0
M  V30 11619 C 1202.63 1.08351 -2.06839 0
M  V30 11620 C 1203.61 1.40269 -0.962224 0
M  V30 11621 O 1204.79 1.49867 -1.23505 0
M  V30 11622 C 1201.92 2.39649 -2.51368 0
M  V30 11623 C 1200.88 2.22079 -3.65875 0
M  V30 11624 C 1200.2 3.58776 -3.96464 0
M  V30 11625 C 1201.5 1.64069 -4.95862 0
M  V30 11626 H 1203.2 0.672465 -2.9175 0
M  V30 11627 H 1200.74 0.322027 -1.40353 0
M  V30 11628 H 1202.69 3.10833 -2.84537 0
M  V30 11629 H 1201.42 2.82736 -1.63487 0
M  V30 11630 H 1200.08 1.53337 -3.32992 0
M  V30 11631 H 1199.73 3.99436 -3.05712 0
M  V30 11632 H 1199.43 3.47859 -4.7357 0
M  V30 11633 H 1200.95 4.31387 -4.32131 0
M  V30 11634 H 1202.36 2.2512 -5.27251 0
M  V30 11635 H 1200.76 1.63843 -5.773 0
M  V30 11636 H 1201.83 0.60232 -4.81145 0
M  V30 11637 N 1203.17 1.53854 0.341593 0
M  V30 11638 C 1204.12 1.8268 1.43982 0
M  V30 11639 C 1205.12 0.697415 1.54378 0
M  V30 11640 O 1206.32 0.880785 1.56978 0
M  V30 11641 H 1202.7 0.578788 0.480113 0
M  V30 11642 H 1204.67 2.74556 1.16884 0
M  V30 11643 C 1203.42 2.05496 2.80476 0
M  V30 11644 H 1202.74 2.91852 2.73244 0
M  V30 11645 H 1204.18 2.2963 3.56435 0
M  V30 11646 C 1202.64 0.841061 3.26233 0
M  V30 11647 O 1203.17 0.0414376 4.01679 0
M  V30 11648 N 1201.37 0.657736 2.83059 0
M  V30 11649 H 1200.92 1.30962 2.21826 0
M  V30 11650 H 1200.88 -0.153003 3.14027 0
M  V30 11651 N 1204.65 -0.602709 1.4562 0
M  V30 11652 C 1205.58 -1.7271 1.50678 0
M  V30 11653 C 1206.6 -1.57884 0.397048 0
M  V30 11654 O 1207.79 -1.65676 0.664367 0
M  V30 11655 C 1204.89 -3.10762 1.35204 0
M  V30 11656 C 1204.06 -3.51782 2.59939 0
M  V30 11657 C 1203.12 -4.68816 2.38952 0
M  V30 11658 O 1202.14 -4.75686 3.12588 0
M  V30 11659 N 1203.35 -5.624 1.43827 0
M  V30 11660 H 1206.11 -1.68833 2.47619 0
M  V30 11661 H 1203.67 -0.788131 1.41422 0
M  V30 11662 H 1205.66 -3.86819 1.18967 0
M  V30 11663 H 1204.23 -3.09119 0.465203 0
M  V30 11664 H 1203.45 -2.65637 2.91257 0
M  V30 11665 H 1204.74 -3.75948 3.42842 0
M  V30 11666 H 1204.14 -5.59568 0.830669 0
M  V30 11667 H 1202.7 -6.37969 1.33561 0
M  V30 11668 N 1206.13 -1.32992 -0.845635 0
M  V30 11669 C 1207.35 -1.27231 -1.6379 0
M  V30 11670 C 1207.78 0.155141 -1.87459 0
M  V30 11671 O 1207.14 1.10953 -1.43384 0
M  V30 11672 C 1207.19 -2.04629 -2.96916 0
M  V30 11673 O 1206.29 -1.40027 -3.879 0
M  V30 11674 H 1205.63 -0.438045 -0.499011 0
M  V30 11675 H 1208.16 -1.75448 -1.05257 0
M  V30 11676 H 1208.17 -2.15141 -3.46667 0
M  V30 11677 H 1206.85 -3.08425 -2.79011 0
M  V30 11678 H 1205.42 -1.38118 -3.46378 0
M  V30 11679 N 1207.61 1.06304 -1.1635 0
M  V30 11680 C 1208.84 1.82534 -0.967725 0
M  V30 11681 C 1209.25 1.82816 0.487338 0
M  V30 11682 O 1208.59 1.24581 1.35001 0
M  V30 11683 C 1208.65 3.30349 -1.4181 0
M  V30 11684 C 1208.31 3.53769 -2.89303 0
M  V30 11685 C 1209.31 3.46826 -3.87308 0
M  V30 11686 C 1207 3.81094 -3.2722 0
M  V30 11687 C 1208.99 3.66874 -5.21232 0
M  V30 11688 C 1206.68 4.00792 -4.61313 0
M  V30 11689 C 1207.68 3.93679 -5.58127 0
M  V30 11690 O 1207.36 4.12839 -6.89796 0
M  V30 11691 H 1207.1 0.582407 -0.343189 0
M  V30 11692 H 1209.65 1.35022 -1.54784 0
M  V30 11693 H 1207.88 3.78722 -0.781456 0
M  V30 11694 H 1209.57 3.88072 -1.18976 0
M  V30 11695 H 1210.33 3.25706 -3.59361 0
M  V30 11696 H 1206.21 3.85739 -2.5244 0
M  V30 11697 H 1209.76 3.61238 -5.96786 0
M  V30 11698 H 1205.65 4.214 -4.8897 0
M  V30 11699 H 1206.42 4.30128 -6.96371 0
M  V30 11700 N 1209.09 0.96196 1.24836 0
M  V30 11701 C 1210.33 0.621634 1.93038 0
M  V30 11702 C 1210.66 -0.840257 1.75081 0
M  V30 11703 O 1209.94 -1.60381 1.10038 0
M  V30 11704 C 1210.22 0.990107 3.46221 0
M  V30 11705 C 1210.08 2.50827 3.73371 0
M  V30 11706 C 1211.39 0.520478 4.37011 0
M  V30 11707 H 1208.51 0.227312 0.701069 0
M  V30 11708 H 1211.16 1.19993 1.47315 0
M  V30 11709 H 1209.31 0.498008 3.85295 0
M  V30 11710 H 1210.98 3.07469 3.4389 0
M  V30 11711 H 1209.22 2.94277 3.18722 0
M  V30 11712 H 1209.89 2.71659 4.80526 0
M  V30 11713 H 1212.37 0.942703 4.05281 0
M  V30 11714 H 1211.24 0.806918 5.42937 0
M  V30 11715 H 1211.5 -0.579507 4.38285 0
M  V30 11716 N 1210.56 -1.39601 0.731392 0
M  V30 11717 C 1211.79 -2.04887 0.28789 0
M  V30 11718 C 1212.21 -1.55138 -1.076 0
M  V30 11719 O 1211.56 -0.71471 -1.67923 0
M  V30 11720 C 1211.61 -3.6044 0.276629 0
M  V30 11721 O 1211.34 -4.08358 1.58668 0
M  V30 11722 C 1212.84 -4.4292 -0.183485 0
M  V30 11723 H 1210.06 -0.658976 0.126459 0
M  V30 11724 H 1212.6 -1.78716 0.994031 0
M  V30 11725 H 1210.76 -3.85526 -0.380597 0
M  V30 11726 H 1211.17 -5.02659 1.4978 0
M  V30 11727 H 1212.64 -5.51822 -0.140207 0
M  V30 11728 H 1213.12 -4.2168 -1.22811 0
M  V30 11729 H 1213.73 -4.22976 0.444042 0
M  V30 11730 N 1212.04 -0.478751 -1.50152 0
M  V30 11731 C 1213.29 0.0734397 -2.01967 0
M  V30 11732 C 1213.61 1.39523 -1.36229 0
M  V30 11733 O 1212.88 1.89141 -0.510149 0
M  V30 11734 H 1211.46 0.0301305 -0.746392 0
M  V30 11735 H 1214.12 -0.630921 -1.84406 0
M  V30 11736 H 1213.22 0.21937 -3.11328 0
M  V30 11737 N 1213.52 1.56172 -0.211661 0
M  V30 11738 C 1214.77 1.99087 0.416624 0
M  V30 11739 C 1215.12 1.09668 1.58084 0
M  V30 11740 O 1214.41 0.144533 1.91054 0
M  V30 11741 C 1214.61 3.45636 0.909442 0
M  V30 11742 C 1214.44 4.4923 -0.205486 0
M  V30 11743 C 1213.21 5.00857 -0.668617 0
M  V30 11744 C 1215.41 5.04078 -1.02029 0
M  V30 11745 N 1213.39 5.88141 -1.75964 0
M  V30 11746 C 1214.76 5.88192 -1.96037 0
M  V30 11747 C 1216.81 4.86467 -1.06085 0
M  V30 11748 C 1215.52 6.56576 -2.93768 0
M  V30 11749 C 1217.54 5.55604 -2.02629 0
M  V30 11750 C 1216.9 6.39477 -2.95378 0
M  V30 11751 H 1213 0.77283 0.119404 0
M  V30 11752 H 1215.59 1.92033 -0.321163 0
M  V30 11753 H 1213.76 3.53157 1.61662 0
M  V30 11754 H 1215.49 3.75486 1.50972 0
M  V30 11755 H 1212.25 4.72891 -0.258977 0
M  V30 11756 H 1212.67 6.36485 -2.30685 0
M  V30 11757 H 1217.31 4.21284 -0.357726 0
M  V30 11758 H 1215.03 7.20948 -3.65048 0
M  V30 11759 H 1218.62 5.43947 -2.06428 0
M  V30 11760 H 1217.5 6.92032 -3.68864 0
M  V30 11761 N 1215 -0.0618163 1.57479 0
M  V30 11762 C 1216.25 -0.757569 1.87364 0
M  V30 11763 C 1216.57 -1.77607 0.805025 0
M  V30 11764 O 1215.84 -1.95202 -0.165216 0
M  V30 11765 H 1214.42 -0.28278 0.691408 0
M  V30 11766 H 1217.08 -0.0355354 1.94868 0
M  V30 11767 H 1216.18 -1.26758 2.85199 0
M  V30 11768 N 1216.48 -1.54033 -0.333429 0
M  V30 11769 C 1217.39 -1.85737 -1.43314 0
M  V30 11770 C 1218.4 -0.748398 -1.57083 0
M  V30 11771 O 1219.58 -1.04171 -1.72367 0
M  V30 11772 C 1216.64 -2.06942 -2.78165 0
M  V30 11773 C 1215.7 -3.30774 -2.73655 0
M  V30 11774 C 1214.94 -3.50957 -4.02075 0
M  V30 11775 O 1215.16 -2.74774 -4.99855 0
M  V30 11776 O 1214.09 -4.44412 -4.05933 0
M  V30 11777 H 1217.92 -2.7923 -1.19434 0
M  V30 11778 H 1215.51 -1.39814 -0.526546 0
M  V30 11779 H 1217.39 -2.22276 -3.58011 0
M  V30 11780 H 1216.06 -1.16638 -3.01956 0
M  V30 11781 H 1214.97 -3.20835 -1.92395 0
M  V30 11782 H 1216.3 -4.21103 -2.54819 0
M  V30 11783 N 1217.95 0.594978 -1.45938 0
M  V30 11784 C 1219.2 1.35561 -1.50834 0
M  V30 11785 C 1219.53 1.93584 -0.154566 0
M  V30 11786 O 1218.81 1.75781 0.832541 0
M  V30 11787 C 1219.09 2.49414 -2.5974 0
M  V30 11788 C 1218.94 1.96506 -4.04605 0
M  V30 11789 C 1220.26 3.51505 -2.64825 0
M  V30 11790 H 1217.38 0.491549 -0.549134 0
M  V30 11791 H 1220.02 0.669536 -1.77812 0
M  V30 11792 H 1218.17 3.07939 -2.36866 0
M  V30 11793 H 1219.85 1.42533 -4.38728 0
M  V30 11794 H 1218.09 1.27418 -4.14665 0
M  V30 11795 H 1218.76 2.78636 -4.76515 0
M  V30 11796 H 1221.24 3.02841 -2.85353 0
M  V30 11797 H 1220.11 4.28641 -3.42867 0
M  V30 11798 H 1220.37 4.07942 -1.70399 0
M  V30 11799 N 1219.43 1.33438 0.838571 0
M  V30 11800 C 1220.4 1.23632 1.92997 0
M  V30 11801 C 1221.4 0.155302 1.60048 0
M  V30 11802 O 1222.59 0.406852 1.69382 0
M  V30 11803 C 1219.72 0.90512 3.28665 0
M  V30 11804 H 1220.91 2.20643 2.03117 0
M  V30 11805 H 1218.46 1.17501 1.03069 0
M  V30 11806 H 1219.2 -0.0624833 3.2424 0
M  V30 11807 H 1218.98 1.68688 3.53959 0
M  V30 11808 H 1220.47 0.861262 4.08622 0
M  V30 11809 N 1220.91 -1.05686 1.16912 0
M  V30 11810 C 1222.14 -1.82821 0.979348 0
M  V30 11811 C 1222.56 -1.82196 -0.467575 0
M  V30 11812 O 1221.92 -1.22727 -1.33445 0
M  V30 11813 C 1221.97 -3.2705 1.51891 0
M  V30 11814 O 1221.07 -4.05899 0.729341 0
M  V30 11815 H 1220.41 -0.565455 0.348076 0
M  V30 11816 H 1222.94 -1.33211 1.55293 0
M  V30 11817 H 1222.95 -3.77859 1.53904 0
M  V30 11818 H 1221.63 -3.26819 2.5722 0
M  V30 11819 H 1220.2 -3.64646 0.780221 0
M  V30 11820 N 1222.39 -0.968567 -1.24324 0
M  V30 11821 C 1223.34 -0.470481 -2.23093 0
M  V30 11822 C 1224.32 0.447989 -1.54538 0
M  V30 11823 O 1225.51 0.27877 -1.74791 0
M  V30 11824 C 1222.64 0.237222 -3.42479 0
M  V30 11825 C 1221.73 -0.700126 -4.18281 0
M  V30 11826 N 1222.12 -1.83775 -4.71233 0
M  V30 11827 C 1220.42 -0.51108 -4.43062 0
M  V30 11828 C 1221.12 -2.42411 -5.28783 0
M  V30 11829 N 1220.1 -1.70918 -5.16031 0
M  V30 11830 H 1223.9 -1.33848 -2.61652 0
M  V30 11831 H 1221.41 -0.827764 -1.39721 0
M  V30 11832 H 1223.41 0.61128 -4.12394 0
M  V30 11833 H 1222.07 1.10166 -3.0544 0
M  V30 11834 H 1223.08 -2.21926 -4.67942 0
M  V30 11835 H 1219.76 0.309316 -4.16353 0
M  V30 11836 H 1221.15 -3.38417 -5.80451 0
M  V30 11837 N 1223.87 1.39211 -0.738786 0
M  V30 11838 C 1224.8 2.29117 -0.0616489 0
M  V30 11839 C 1225.81 1.47008 0.699462 0
M  V30 11840 O 1227 1.70041 0.542998 0
M  V30 11841 C 1224.1 3.25692 0.936893 0
M  V30 11842 C 1223.27 4.3676 0.236515 0
M  V30 11843 C 1222.33 5.1362 1.1437 0
M  V30 11844 O 1221.36 5.65816 0.619762 0
M  V30 11845 N 1222.56 5.25184 2.4731 0
M  V30 11846 H 1225.33 2.8787 -0.833711 0
M  V30 11847 H 1222.89 1.50832 -0.588323 0
M  V30 11848 H 1224.88 3.73987 1.54648 0
M  V30 11849 H 1223.45 2.67943 1.61014 0
M  V30 11850 H 1222.67 3.90293 -0.553594 0
M  V30 11851 H 1223.96 5.08192 -0.248707 0
M  V30 11852 H 1223.35 4.84302 2.92349 0
M  V30 11853 H 1221.91 5.76905 3.03355 0
M  V30 11854 N 1225.34 0.486708 1.49896 0
M  V30 11855 C 1226.28 -0.335809 2.26727 0
M  V30 11856 C 1227.29 -0.94333 1.32684 0
M  V30 11857 O 1228.48 -0.82909 1.58077 0
M  V30 11858 C 1225.58 -1.48642 3.04563 0
M  V30 11859 C 1224.75 -0.988837 4.26076 0
M  V30 11860 C 1223.81 -2.01535 4.86076 0
M  V30 11861 O 1222.84 -1.58966 5.46552 0
M  V30 11862 N 1224.04 -3.34471 4.74457 0
M  V30 11863 H 1226.8 0.322919 2.97955 0
M  V30 11864 H 1224.36 0.318403 1.58738 0
M  V30 11865 H 1226.36 -2.17039 3.41579 0
M  V30 11866 H 1224.93 -2.04956 2.36033 0
M  V30 11867 H 1224.15 -0.130232 3.93985 0
M  V30 11868 H 1225.43 -0.634562 5.04827 0
M  V30 11869 H 1224.83 -3.71755 4.26398 0
M  V30 11870 H 1223.39 -3.98621 5.15698 0
M  V30 11871 N 1226.82 -1.56058 0.219941 0
M  V30 11872 C 1227.77 -2.16853 -0.704185 0
M  V30 11873 C 1228.76 -1.11639 -1.15869 0
M  V30 11874 O 1229.95 -1.37632 -1.11295 0
M  V30 11875 C 1227.08 -2.85073 -1.9128 0
M  V30 11876 C 1226.16 -3.9751 -1.47805 0
M  V30 11877 N 1226.56 -5.00121 -0.755792 0
M  V30 11878 C 1224.85 -4.0957 -1.76546 0
M  V30 11879 C 1225.55 -5.79241 -0.534332 0
M  V30 11880 N 1224.53 -5.32549 -1.09055 0
M  V30 11881 H 1228.33 -2.93547 -0.143914 0
M  V30 11882 H 1225.85 -1.62386 0.021133 0
M  V30 11883 H 1227.84 -3.27037 -2.58558 0
M  V30 11884 H 1226.5 -2.09874 -2.47756 0
M  V30 11885 H 1227.51 -5.16285 -0.408647 0
M  V30 11886 H 1224.19 -3.45521 -2.34353 0
M  V30 11887 H 1225.58 -6.71888 0.0404032 0
M  V30 11888 N 1228.3 0.053464 -1.57509 0
M  V30 11889 C 1229.53 0.765301 -1.92764 0
M  V30 11890 C 1229.95 1.69385 -0.817943 0
M  V30 11891 O 1229.31 1.7986 0.228075 0
M  V30 11892 C 1229.36 1.51938 -3.27028 0
M  V30 11893 O 1228.46 2.63121 -3.17555 0
M  V30 11894 H 1227.8 0.207567 -0.630723 0
M  V30 11895 H 1230.33 0.0162254 -2.04594 0
M  V30 11896 H 1230.34 1.89466 -3.6134 0
M  V30 11897 H 1229.02 0.838207 -4.07366 0
M  V30 11898 H 1227.59 2.28316 -2.94832 0
M  V30 11899 N 1229.78 1.54207 0.325255 0
M  V30 11900 C 1231.2 1.44879 0.669492 0
M  V30 11901 C 1231.4 0.620298 1.91715 0
M  V30 11902 O 1230.45 0.118435 2.52222 0
M  V30 11903 C 1231.76 2.88581 0.845077 0
M  V30 11904 C 1233.31 2.98472 0.942527 0
M  V30 11905 C 1233.79 4.4332 1.15029 0
M  V30 11906 N 1235.28 4.46925 1.21707 0
M  V30 11907 C 1236.01 5.56155 1.39568 0
M  V30 11908 N 1235.51 6.75357 1.54483 0
M  V30 11909 N 1237.3 5.43799 1.42263 0
M  V30 11910 H 1229.45 2.06556 -0.494819 0
M  V30 11911 H 1231.72 0.934474 -0.159568 0
M  V30 11912 H 1231.42 3.517 -0.000442996 0
M  V30 11913 H 1231.3 3.34596 1.74141 0
M  V30 11914 H 1233.68 2.35481 1.77855 0
M  V30 11915 H 1233.76 2.5579 0.0226995 0
M  V30 11916 H 1233.41 5.06896 0.319127 0
M  V30 11917 H 1233.34 4.8361 2.08397 0
M  V30 11918 H 1235.83 3.61036 1.11632 0
M  V30 11919 H 1236.14 7.54363 1.67799 0
M  V30 11920 H 1234.49 6.78268 1.51584 0
M  V30 11921 H 1237.68 4.49627 1.30205 0
M  V30 11922 H 1237.85 6.28982 1.5584 0
M  V30 11923 N 1231.26 -0.58723 1.46251 0
M  V30 11924 C 1232.5 -1.34549 1.52539 0
M  V30 11925 C 1232.86 -1.91622 0.172885 0
M  V30 11926 O 1232.15 -1.73267 -0.81787 0
M  V30 11927 C 1232.35 -2.49776 2.5563 0
M  V30 11928 C 1232.17 -2.03991 4.00772 0
M  V30 11929 C 1230.94 -1.89216 4.68535 0
M  V30 11930 C 1233.14 -1.60227 4.88704 0
M  V30 11931 N 1231.12 -1.37454 5.98314 0
M  V30 11932 C 1232.5 -1.20024 6.08271 0
M  V30 11933 C 1234.55 -1.48004 4.75394 0
M  V30 11934 C 1233.25 -0.688163 7.16001 0
M  V30 11935 C 1235.28 -0.981991 5.8319 0
M  V30 11936 C 1234.64 -0.589721 7.01927 0
M  V30 11937 H 1230.74 -0.485499 0.613037 0
M  V30 11938 H 1233.32 -0.669117 1.82841 0
M  V30 11939 H 1231.5 -3.14983 2.27245 0
M  V30 11940 H 1233.23 -3.16715 2.5194 0
M  V30 11941 H 1229.98 -2.11025 4.23988 0
M  V30 11942 H 1230.41 -1.13748 6.67376 0
M  V30 11943 H 1235.05 -1.76951 3.8399 0
M  V30 11944 H 1232.77 -0.386268 8.07176 0
M  V30 11945 H 1236.35 -0.891387 5.74931 0
M  V30 11946 H 1235.23 -0.210279 7.83918 0
M  V30 11947 N 1232.74 -1.33881 -0.831482 0
M  V30 11948 C 1233.98 -1.25755 -1.58719 0
M  V30 11949 C 1234.31 0.174746 -1.93713 0
M  V30 11950 O 1233.57 1.13384 -1.59507 0
M  V30 11951 C 1233.86 -2.08544 -2.90249 0
M  V30 11952 C 1233.53 -3.57651 -2.74585 0
M  V30 11953 C 1232.19 -3.983 -2.7002 0
M  V30 11954 C 1234.54 -4.52369 -2.58866 0
M  V30 11955 C 1231.87 -5.31872 -2.47647 0
M  V30 11956 C 1234.22 -5.86112 -2.38025 0
M  V30 11957 C 1232.89 -6.25934 -2.31867 0
M  V30 11958 H 1232.16 -0.460171 -0.580796 0
M  V30 11959 H 1234.81 -1.6554 -0.96274 0
M  V30 11960 H 1233.11 -1.6156 -3.56939 0
M  V30 11961 H 1234.81 -1.99609 -3.47789 0
M  V30 11962 H 1231.4 -3.2538 -2.78973 0
M  V30 11963 H 1235.58 -4.21868 -2.61421 0
M  V30 11964 H 1230.84 -5.61756 -2.41331 0
M  V30 11965 H 1235.01 -6.59103 -2.24847 0
M  V30 11966 H 1232.64 -7.29372 -2.14291 0
M  V30 11967 N 1234.21 1.05064 -1.1747 0
M  V30 11968 C 1235.18 2.1101 -0.89485 0
M  V30 11969 C 1236.18 1.60384 0.11553 0
M  V30 11970 O 1237.37 1.73808 -0.116785 0
M  V30 11971 C 1234.5 3.39194 -0.340642 0
M  V30 11972 H 1235.69 2.37269 -1.83421 0
M  V30 11973 H 1233.24 1.21329 -0.985343 0
M  V30 11974 H 1233.98 3.18591 0.605808 0
M  V30 11975 H 1233.76 3.77251 -1.06885 0
M  V30 11976 H 1235.25 4.17281 -0.163204 0
M  V30 11977 N 1235.69 0.975146 1.23809 0
M  V30 11978 C 1236.64 0.482305 2.2284 0
M  V30 11979 C 1237.63 -0.439787 1.54773 0
M  V30 11980 O 1238.82 -0.269496 1.74936 0
M  V30 11981 C 1235.95 -0.219056 3.426 0
M  V30 11982 C 1235.03 0.722299 4.17904 0
M  V30 11983 N 1235.42 1.86271 4.70252 0
M  V30 11984 C 1233.72 0.53457 4.42785 0
M  V30 11985 C 1234.42 2.45212 5.2749 0
M  V30 11986 N 1233.4 1.73652 5.15117 0
M  V30 11987 H 1237.2 1.35234 2.60939 0
M  V30 11988 H 1234.71 0.835162 1.3928 0
M  V30 11989 H 1236.71 -0.589401 4.12713 0
M  V30 11990 H 1235.37 -1.08544 3.0602 0
M  V30 11991 H 1236.38 2.24404 4.66758 0
M  V30 11992 H 1233.06 -0.287232 4.16511 0
M  V30 11993 H 1234.45 3.41491 5.78648 0
M  V30 11994 N 1237.17 -1.38817 0.746158 0
M  V30 11995 C 1238.1 -2.29081 0.0737986 0
M  V30 11996 C 1239.11 -1.47377 -0.691656 0
M  V30 11997 O 1240.3 -1.70326 -0.533973 0
M  V30 11998 C 1237.4 -3.26185 -0.919607 0
M  V30 11999 C 1236.58 -4.36879 -0.213349 0
M  V30 12000 C 1235.64 -5.1422 -1.11644 0
M  V30 12001 O 1234.66 -5.66137 -0.589747 0
M  V30 12002 N 1235.86 -5.26488 -2.44521 0
M  V30 12003 H 1238.63 -2.87424 0.848966 0
M  V30 12004 H 1236.19 -1.50518 0.596314 0
M  V30 12005 H 1238.18 -3.74802 -1.52662 0
M  V30 12006 H 1236.75 -2.68793 -1.5959 0
M  V30 12007 H 1235.97 -3.89994 0.574285 0
M  V30 12008 H 1237.26 -5.08053 0.275655 0
M  V30 12009 H 1236.66 -4.85846 -2.89777 0
M  V30 12010 H 1235.21 -5.78505 -3.00291 0
M  V30 12011 N 1238.65 -0.49465 -1.49636 0
M  V30 12012 C 1239.58 0.276606 -2.31856 0
M  V30 12013 C 1240.56 0.968499 -1.39836 0
M  V30 12014 O 1241.74 0.96113 -1.68748 0
M  V30 12015 C 1238.87 1.34522 -3.20189 0
M  V30 12016 C 1237.83 0.773571 -4.20951 0
M  V30 12017 C 1237.15 1.94223 -4.98178 0
M  V30 12018 C 1238.45 -0.231096 -5.21788 0
M  V30 12019 H 1240.15 -0.409668 -2.96584 0
M  V30 12020 H 1237.69 -0.198461 -1.42626 0
M  V30 12021 H 1239.65 1.89244 -3.76517 0
M  V30 12022 H 1238.37 2.06059 -2.53392 0
M  V30 12023 H 1237.03 0.248144 -3.65759 0
M  V30 12024 H 1236.68 2.64514 -4.27834 0
M  V30 12025 H 1236.38 1.56584 -5.66353 0
M  V30 12026 H 1237.9 2.49391 -5.57348 0
M  V30 12027 H 1239.32 0.227768 -5.72847 0
M  V30 12028 H 1237.71 -0.522984 -5.97817 0
M  V30 12029 H 1238.78 -1.14914 -4.71087 0
M  V30 12030 N 1240.13 1.55939 -0.228214 0
M  V30 12031 C 1241.4 1.90329 0.451033 0
M  V30 12032 C 1241.78 1.14646 1.77255 0
M  V30 12033 O 1241.13 0.257912 2.2704 0
M  V30 12034 C 1241.34 3.43129 0.637456 0
M  V30 12035 C 1242.69 4.14022 0.94186 0
M  V30 12036 O 1243.71 3.48764 0.724002 0
M  V30 12037 O 1242.57 5.29418 1.35568 0
M  V30 12038 H 1239.67 0.791591 0.2394 0
M  V30 12039 H 1242.21 1.67524 -0.270893 0
M  V30 12040 H 1240.98 3.90191 -0.294435 0
M  V30 12041 H 1240.61 3.71735 1.41062 0
M  V30 12042 N 1241.6 -0.0451101 1.57535 0
M  V30 12043 C 1243.02 -0.59372 1.77008 0
M  V30 12044 C 1243.37 -1.76482 0.857233 0
M  V30 12045 O 1242.49 -2.16347 0.0479703 0
M  V30 12046 C 1243.09 -1.08383 3.20996 0
M  V30 12047 C 1241.65 -1.57808 3.41721 0
M  V30 12048 C 1240.79 -0.509067 2.72587 0
M  V30 12049 H 1243.74 0.181114 1.57663 0
M  V30 12050 H 1243.76 -1.95181 3.26626 0
M  V30 12051 H 1243.28 -0.231276 3.8741 0
M  V30 12052 H 1241.38 -2.45302 2.8046 0
M  V30 12053 H 1241.49 -1.63664 4.50279 0
M  V30 12054 H 1239.85 -0.960389 2.359 0
M  V30 12055 H 1240.64 0.333753 3.41674 0
M  V30 12056 N 1243.08 -1.54377 -0.317073 0
M  V30 12057 C 1244.31 -1.77184 -1.07798 0
M  V30 12058 C 1244.73 -0.52204 -1.80711 0
M  V30 12059 O 1244.09 0.52672 -1.7348 0
M  V30 12060 C 1244.14 -2.96887 -2.04671 0
M  V30 12061 O 1243.24 -2.68887 -3.12688 0
M  V30 12062 H 1242.58 -0.586937 -0.310485 0
M  V30 12063 H 1245.11 -2.01419 -0.35939 0
M  V30 12064 H 1245.12 -3.24414 -2.47426 0
M  V30 12065 H 1243.8 -3.87518 -1.51005 0
M  V30 12066 H 1242.38 -2.52329 -2.74562 0
M  V30 12067 N 1244.56 0.579466 -1.4656 0
M  V30 12068 C 1245.49 1.69846 -1.60233 0
M  V30 12069 C 1246.47 1.6397 -0.452533 0
M  V30 12070 O 1247.66 1.81936 -0.679174 0
M  V30 12071 C 1244.79 3.08488 -1.59538 0
M  V30 12072 C 1243.74 3.29197 -2.7352 0
M  V30 12073 C 1243.07 4.684 -2.57887 0
M  V30 12074 C 1244.37 3.16718 -4.15315 0
M  V30 12075 H 1246.06 1.5866 -2.53904 0
M  V30 12076 H 1243.61 0.761873 -1.22194 0
M  V30 12077 H 1245.56 3.86595 -1.67696 0
M  V30 12078 H 1244.28 3.20581 -0.62413 0
M  V30 12079 H 1242.94 2.53491 -2.64836 0
M  V30 12080 H 1242.59 4.77262 -1.58839 0
M  V30 12081 H 1242.29 4.83208 -3.34341 0
M  V30 12082 H 1243.81 5.48671 -2.67942 0
M  V30 12083 H 1245.23 3.84666 -4.25094 0
M  V30 12084 H 1243.63 3.43047 -4.92381 0
M  V30 12085 H 1244.7 2.13755 -4.35244 0
M  V30 12086 N 1246.04 1.3432 0.824371 0
M  V30 12087 C 1247.45 1.23855 1.39703 0
M  V30 12088 C 1247.8 -0.136566 1.95724 0
M  V30 12089 O 1246.93 -1.03683 1.89944 0
M  V30 12090 C 1247.52 2.24249 2.53965 0
M  V30 12091 C 1246.08 2.17578 3.07143 0
M  V30 12092 C 1245.23 2.10933 1.80008 0
M  V30 12093 H 1248.18 1.45707 0.628891 0
M  V30 12094 H 1248.2 1.85864 3.32016 0
M  V30 12095 H 1247.71 3.24321 2.13161 0
M  V30 12096 H 1245.81 1.20858 3.52455 0
M  V30 12097 H 1245.92 3.08769 3.66331 0
M  V30 12098 H 1244.29 1.56631 2.00845 0
M  V30 12099 H 1245.07 3.12836 1.4138 0
M  V30 12100 N 1247.52 -1.0444 1.18026 0
M  V30 12101 C 1248.74 -1.81772 0.998684 0
M  V30 12102 C 1249.17 -1.82682 -0.448225 0
M  V30 12103 O 1248.52 -1.24136 -1.32136 0
M  V30 12104 C 1248.57 -3.2542 1.55352 0
M  V30 12105 O 1247.68 -4.05103 0.772351 0
M  V30 12106 H 1247.02 -0.561731 0.354054 0
M  V30 12107 H 1249.55 -1.31557 1.56697 0
M  V30 12108 H 1249.56 -3.76206 1.57903 0
M  V30 12109 H 1248.23 -3.24073 2.60672 0
M  V30 12110 H 1246.81 -3.63798 0.818852 0
M  V30 12111 N 1248.99 -0.981699 -1.2329 0
M  V30 12112 C 1250.41 -0.688087 -1.73558 0
M  V30 12113 C 1250.76 0.795633 -1.79344 0
M  V30 12114 O 1249.88 1.62227 -1.43218 0
M  V30 12115 C 1250.48 -1.24235 -3.152 0
M  V30 12116 C 1249.04 -0.998356 -3.62918 0
M  V30 12117 C 1248.18 -1.3693 -2.41134 0
M  V30 12118 H 1251.13 -1.15539 -1.08795 0
M  V30 12119 H 1251.15 -0.61541 -3.7549 0
M  V30 12120 H 1250.67 -2.32223 -3.10957 0
M  V30 12121 H 1248.77 0.0653847 -3.72543 0
M  V30 12122 H 1248.88 -1.65385 -4.49649 0
M  V30 12123 H 1247.24 -0.787773 -2.42211 0
M  V30 12124 H 1248.03 -2.45898 -2.39561 0
M  V30 12125 N 1250.47 1.3842 -0.753509 0
M  V30 12126 C 1251.88 1.82847 -0.377331 0
M  V30 12127 C 1252.23 1.62867 1.09401 0
M  V30 12128 O 1251.36 1.12981 1.84565 0
M  V30 12129 C 1251.95 3.31945 -0.678095 0
M  V30 12130 C 1250.51 3.7472 -0.355196 0
M  V30 12131 C 1249.66 2.61193 -0.931311 0
M  V30 12132 H 1252.61 1.2715 -0.949667 0
M  V30 12133 H 1252.63 3.80475 0.0437292 0
M  V30 12134 H 1252.14 3.46455 -1.74902 0
M  V30 12135 H 1250.25 3.65789 0.70915 0
M  V30 12136 H 1250.36 4.71487 -0.850693 0
M  V30 12137 H 1248.72 2.5219 -0.356695 0
M  V30 12138 H 1249.51 2.78503 -2.00727 0
M  V30 12139 N 1251.95 0.502579 1.49372 0
M  V30 12140 C 1253.36 0.055187 1.86618 0
M  V30 12141 C 1253.71 -1.35938 1.41476 0
M  V30 12142 O 1252.84 -2.01333 0.793338 0
M  V30 12143 C 1253.43 0.0933734 3.38671 0
M  V30 12144 C 1251.99 -0.298685 3.75213 0
M  V30 12145 C 1251.14 0.465216 2.7337 0
M  V30 12146 H 1254.09 0.715281 1.41667 0
M  V30 12147 H 1254.11 -0.701549 3.73977 0
M  V30 12148 H 1253.62 1.12303 3.71497 0
M  V30 12149 H 1251.72 -1.33151 3.47996 0
M  V30 12150 H 1251.84 0.0218637 4.79095 0
M  V30 12151 H 1250.2 -0.0851469 2.54558 0
M  V30 12152 H 1250.98 1.49498 3.09039 0
M  V30 12153 N 1253.43 -1.55816 0.23648 0
M  V30 12154 C 1254.68 -1.98294 -0.390373 0
M  V30 12155 C 1255 -1.12573 -1.59224 0
M  V30 12156 O 1254.27 -0.206128 -1.94813 0
M  V30 12157 H 1252.85 -0.732349 -0.14722 0
M  V30 12158 H 1255.51 -1.92037 0.332848 0
M  V30 12159 H 1254.61 -3.03996 -0.706595 0
M  V30 12160 N 1254.91 0.036755 -1.57557 0
M  V30 12161 C 1256.13 0.744813 -1.93565 0
M  V30 12162 C 1256.56 1.68508 -0.835863 0
M  V30 12163 O 1255.91 1.80091 0.208986 0
M  V30 12164 C 1255.96 1.48461 -3.28621 0
M  V30 12165 O 1255.07 2.59739 -3.20327 0
M  V30 12166 H 1254.41 0.200866 -0.632889 0
M  V30 12167 H 1256.94 -0.00547543 -2.04599 0
M  V30 12168 H 1256.95 1.85622 -3.63329 0
M  V30 12169 H 1255.62 0.794953 -4.08232 0
M  V30 12170 H 1254.2 2.25176 -2.97237 0
M  V30 12171 N 1256.39 1.54543 0.308881 0
M  V30 12172 C 1257.32 1.87947 1.38557 0
M  V30 12173 C 1258.3 0.737622 1.53275 0
M  V30 12174 O 1259.48 0.992664 1.66913 0
M  V30 12175 C 1256.61 2.11982 2.75102 0
M  V30 12176 C 1255.57 3.2783 2.75158 0
M  V30 12177 C 1254.89 3.37266 4.14917 0
M  V30 12178 C 1256.19 4.65129 2.37598 0
M  V30 12179 H 1257.89 2.78123 1.1085 0
M  V30 12180 H 1255.43 1.3382 0.531808 0
M  V30 12181 H 1257.38 2.33935 3.50503 0
M  V30 12182 H 1256.11 1.18569 3.04317 0
M  V30 12183 H 1254.77 3.05787 2.02212 0
M  V30 12184 H 1254.42 2.41384 4.41296 0
M  V30 12185 H 1254.12 4.15135 4.15857 0
M  V30 12186 H 1255.64 3.61471 4.92109 0
M  V30 12187 H 1257.05 4.86865 3.02714 0
M  V30 12188 H 1255.45 5.45653 2.49765 0
M  V30 12189 H 1256.52 4.6638 1.32731 0
M  V30 12190 N 1257.86 -0.571685 1.46866 0
M  V30 12191 C 1258.83 -1.66198 1.57832 0
M  V30 12192 C 1259.83 -1.54242 0.454547 0
M  V30 12193 O 1261.02 -1.58661 0.719191 0
M  V30 12194 C 1258.15 -3.05678 1.5091 0
M  V30 12195 H 1259.34 -1.57829 2.5501 0
M  V30 12196 H 1256.89 -0.790433 1.3484 0
M  V30 12197 H 1257.63 -3.19593 0.550529 0
M  V30 12198 H 1257.41 -3.15765 2.32454 0
M  V30 12199 H 1258.9 -3.85027 1.61692 0
M  V30 12200 N 1259.34 -1.34755 -0.817236 0
M  V30 12201 C 1260.59 -1.2718 -1.57066 0
M  V30 12202 C 1260.91 0.156531 -1.94371 0
M  V30 12203 O 1260.18 1.09049 -1.62742 0
M  V30 12204 H 1258.76 -0.467755 -0.582421 0
M  V30 12205 H 1261.42 -1.68734 -0.975438 0
M  V30 12206 H 1260.52 -1.88043 -2.49091 0
M  V30 12207 N 1260.82 1.03812 -1.18578 0
M  V30 12208 C 1262.07 1.76706 -0.980776 0
M  V30 12209 C 1262.39 1.88729 0.490562 0
M  V30 12210 O 1261.66 1.41413 1.35569 0
M  V30 12211 H 1260.24 0.654586 -0.359898 0
M  V30 12212 H 1262.9 1.25274 -1.49306 0
M  V30 12213 H 1262 2.77876 -1.42096 0
M  V30 12214 N 1262.3 0.988223 1.22768 0
M  V30 12215 C 1263.71 0.697281 1.7319 0
M  V30 12216 C 1264.06 -0.786111 1.79763 0
M  V30 12217 O 1263.18 -1.61465 1.44077 0
M  V30 12218 C 1263.78 1.25905 3.14537 0
M  V30 12219 C 1262.34 1.01759 3.62384 0
M  V30 12220 C 1261.49 1.38207 2.40404 0
M  V30 12221 H 1264.44 1.16114 1.08181 0
M  V30 12222 H 1264.46 0.635315 3.75159 0
M  V30 12223 H 1263.97 2.33869 3.09721 0
M  V30 12224 H 1262.07 -0.045627 3.72572 0
M  V30 12225 H 1262.18 1.67767 4.48766 0
M  V30 12226 H 1260.55 0.800607 2.4179 0
M  V30 12227 H 1261.33 2.47165 2.38253 0
M  V30 12228 N 1263.78 -1.38018 0.760839 0
M  V30 12229 C 1264.72 -2.32251 0.127425 0
M  V30 12230 C 1265.72 -1.54387 -0.69722 0
M  V30 12231 O 1266.92 -1.69864 -0.595505 0
M  V30 12232 H 1263.3 -0.751666 0.0224141 0
M  V30 12233 H 1265.27 -2.8327 0.93813 0
M  V30 12234 C 1264.02 -3.39606 -0.745849 0
M  V30 12235 H 1263.34 -3.99618 -0.120679 0
M  V30 12236 H 1264.78 -4.07931 -1.15621 0
M  V30 12237 C 1263.24 -2.78778 -1.89167 0
M  V30 12238 O 1263.77 -2.68661 -2.98637 0
M  V30 12239 N 1261.98 -2.36481 -1.68894 0
M  V30 12240 H 1261.52 -2.4491 -0.798551 0
M  V30 12241 H 1261.48 -1.96126 -2.45728 0
M  V30 12242 N 1265.25 -0.510493 -1.49103 0
M  V30 12243 C 1266.48 0.0293113 -2.07379 0
M  V30 12244 C 1266.9 1.29195 -1.36713 0
M  V30 12245 O 1266.26 1.76204 -0.426838 0
M  V30 12246 C 1266.31 0.25629 -3.59688 0
M  V30 12247 O 1265.41 1.32907 -3.90397 0
M  V30 12248 H 1264.75 -0.0304449 -0.663302 0
M  V30 12249 H 1267.28 -0.712832 -1.91781 0
M  V30 12250 H 1267.29 0.484915 -4.05108 0
M  V30 12251 H 1265.97 -0.666163 -4.1053 0
M  V30 12252 H 1264.55 1.08464 -3.56777 0
M  V30 12253 N 1266.73 1.55688 -0.24474 0
M  V30 12254 C 1267.66 2.18616 0.68844 0
M  V30 12255 C 1268.68 1.16185 1.14039 0
M  V30 12256 O 1269.87 1.43059 1.06754 0
M  V30 12257 C 1266.97 2.77375 1.94721 0
M  V30 12258 C 1266.14 4.05204 1.64706 0
M  V30 12259 C 1265.2 4.48302 2.75521 0
M  V30 12260 O 1264.22 5.14723 2.42999 0
M  V30 12261 N 1265.43 4.15907 4.04971 0
M  V30 12262 H 1268.19 2.99324 0.150018 0
M  V30 12263 H 1265.75 1.61771 -0.0646183 0
M  V30 12264 H 1267.74 3.03165 2.68091 0
M  V30 12265 H 1266.31 2.00837 2.39548 0
M  V30 12266 H 1265.53 3.87026 0.74865 0
M  V30 12267 H 1266.82 4.8855 1.42114 0
M  V30 12268 H 1266.22 3.62579 4.34227 0
M  V30 12269 H 1264.78 4.46538 4.74813 0
M  V30 12270 N 1268.21 -0.0283989 1.57574 0
M  V30 12271 C 1269.17 -1.01346 2.05576 0
M  V30 12272 C 1270.17 -1.28999 0.960001 0
M  V30 12273 O 1271.36 -1.23991 1.2236 0
M  V30 12274 C 1268.49 -2.34611 2.47327 0
M  V30 12275 H 1269.69 -0.598809 2.93861 0
M  V30 12276 H 1267.24 -0.27524 1.53857 0
M  V30 12277 H 1267.98 -2.80823 1.622 0
M  V30 12278 H 1267.76 -2.1587 3.27326 0
M  V30 12279 H 1269.25 -3.05332 2.84889 0
M  V30 12280 N 1269.69 -1.54705 -0.300681 0
M  V30 12281 C 1270.65 -1.84934 -1.35395 0
M  V30 12282 C 1271.65 -0.72226 -1.43666 0
M  V30 12283 O 1272.84 -0.990543 -1.43296 0
M  V30 12284 C 1269.97 -2.02991 -2.73875 0
M  V30 12285 H 1271.17 -2.79063 -1.09835 0
M  V30 12286 H 1268.72 -1.46772 -0.537365 0
M  V30 12287 H 1269.45 -1.11151 -3.04657 0
M  V30 12288 H 1269.24 -2.85027 -2.69262 0
M  V30 12289 H 1270.73 -2.27747 -3.5003 0
M  V30 12290 N 1271.17 0.563888 -1.47167 0
M  V30 12291 C 1272.39 1.34693 -1.57052 0
M  V30 12292 C 1272.81 1.87534 -0.218308 0
M  V30 12293 O 1272.17 1.64639 0.787416 0
M  V30 12294 C 1272.22 2.52148 -2.59044 0
M  V30 12295 O 1271.94 2.01492 -3.89015 0
M  V30 12296 C 1273.44 3.4445 -2.7905 0
M  V30 12297 H 1270.66 0.410822 -0.530534 0
M  V30 12298 H 1273.2 0.683731 -1.92731 0
M  V30 12299 H 1271.36 3.14419 -2.26317 0
M  V30 12300 H 1271.77 2.78122 -4.44689 0
M  V30 12301 H 1273.25 4.23297 -3.54293 0
M  V30 12302 H 1273.72 3.97575 -1.86631 0
M  V30 12303 H 1274.33 2.88 -3.12948 0
M  V30 12304 N 1272.64 1.35187 0.810078 0
M  V30 12305 C 1273.89 1.29463 1.56879 0
M  V30 12306 C 1274.25 -0.130837 1.91955 0
M  V30 12307 O 1273.54 -1.08036 1.58236 0
M  V30 12308 C 1273.73 2.13135 2.86894 0
M  V30 12309 C 1273.56 3.63674 2.64521 0
M  V30 12310 C 1272.33 4.32918 2.60595 0
M  V30 12311 C 1274.53 4.57398 2.35141 0
M  V30 12312 N 1272.51 5.69226 2.29902 0
M  V30 12313 C 1273.88 5.81802 2.14257 0
M  V30 12314 C 1275.94 4.46177 2.20976 0
M  V30 12315 C 1274.64 6.96248 1.80641 0
M  V30 12316 C 1276.67 5.60469 1.88756 0
M  V30 12317 C 1276.03 6.83899 1.68704 0
M  V30 12318 H 1272.13 0.528991 0.575927 0
M  V30 12319 H 1274.71 1.70032 0.948529 0
M  V30 12320 H 1272.88 1.74842 3.46821 0
M  V30 12321 H 1274.61 1.98957 3.52418 0
M  V30 12322 H 1271.37 3.85494 2.75121 0
M  V30 12323 H 1271.79 6.41158 2.1736 0
M  V30 12324 H 1276.44 3.51357 2.35177 0
M  V30 12325 H 1274.15 7.91039 1.65176 0
M  V30 12326 H 1277.74 5.53738 1.78509 0
M  V30 12327 H 1276.62 7.7084 1.44136 0
M  V30 12328 N 1274.12 -1.03182 1.19127 0
M  V30 12329 C 1275.4 -1.73586 0.901507 0
M  V30 12330 C 1275.78 -2.02585 -0.593521 0
M  V30 12331 O 1275.13 -1.67813 -1.55084 0
M  V30 12332 C 1275.34 -3.01472 1.75829 0
M  V30 12333 C 1276.69 -3.75037 1.99078 0
M  V30 12334 O 1277.71 -3.11392 1.72956 0
M  V30 12335 O 1276.57 -4.8945 2.43108 0
M  V30 12336 H 1273.66 -0.755797 0.335708 0
M  V30 12337 H 1276.21 -1.09167 1.29925 0
M  V30 12338 H 1274.98 -2.76247 2.77134 0
M  V30 12339 H 1274.6 -3.73631 1.35963 0
M  V30 12340 N 1275.6 -0.99472 -1.22242 0
M  V30 12341 C 1277.01 -0.706456 -1.72818 0
M  V30 12342 C 1277.36 0.776566 -1.80177 0
M  V30 12343 O 1276.49 1.60698 -1.44931 0
M  V30 12344 C 1277.08 -1.27571 -3.13865 0
M  V30 12345 C 1275.64 -1.03679 -3.61839 0
M  V30 12346 C 1274.79 -1.3948 -2.39668 0
M  V30 12347 H 1277.74 -1.16687 -1.07564 0
M  V30 12348 H 1277.76 -0.655202 -3.74816 0
M  V30 12349 H 1277.27 -2.35508 -3.08476 0
M  V30 12350 H 1275.37 0.0258679 -3.72591 0
M  V30 12351 H 1275.49 -1.70145 -4.4787 0
M  V30 12352 H 1273.85 -0.813418 -2.41362 0
M  V30 12353 H 1274.63 -2.48425 -2.36939 0
M  V30 12354 N 1277.08 1.37613 -0.768148 0
M  V30 12355 C 1278.31 2.04052 -0.342111 0
M  V30 12356 C 1278.72 1.57936 1.03449 0
M  V30 12357 O 1278.08 0.758981 1.65969 0
M  V30 12358 C 1278.13 3.5958 -0.372096 0
M  V30 12359 O 1277.85 4.04008 -1.69439 0
M  V30 12360 C 1279.35 4.43251 0.0659884 0
M  V30 12361 H 1276.57 0.655391 -0.143886 0
M  V30 12362 H 1279.12 1.76017 -1.04107 0
M  V30 12363 H 1277.27 3.86399 0.278248 0
M  V30 12364 H 1277.68 4.98511 -1.63054 0
M  V30 12365 H 1279.16 5.52 -0.00614775 0
M  V30 12366 H 1279.64 4.24788 1.11588 0
M  V30 12367 H 1280.24 4.2165 -0.55603 0
M  V30 12368 N 1278.56 0.518393 1.4883 0
M  V30 12369 C 1279.78 -0.0162 2.06894 0
M  V30 12370 C 1280.2 -1.29222 1.37649 0
M  V30 12371 O 1279.56 -1.766 0.460288 0
M  V30 12372 C 1279.61 -0.255836 3.60594 0
M  V30 12373 O 1279.33 0.969612 4.27235 0
M  V30 12374 C 1280.83 -0.832117 4.3542 0
M  V30 12375 H 1278.05 0.0282877 0.670403 0
M  V30 12376 H 1280.59 0.720726 1.91379 0
M  V30 12377 H 1278.75 -0.942782 3.75753 0
M  V30 12378 H 1279.16 0.743172 5.19208 0
M  V30 12379 H 1280.64 -0.949279 5.43776 0
M  V30 12380 H 1281.11 -1.83421 3.99066 0
M  V30 12381 H 1281.72 -0.1821 4.2491 0
M  V30 12382 N 1280.03 -1.55556 0.252993 0
M  V30 12383 C 1280.98 -2.21634 -0.643979 0
M  V30 12384 C 1281.95 -1.18226 -1.1667 0
M  V30 12385 O 1283.14 -1.46694 -1.22006 0
M  V30 12386 C 1280.28 -2.92429 -1.83246 0
M  V30 12387 C 1279.39 -4.10506 -1.34569 0
M  V30 12388 C 1278.52 -4.69001 -2.49421 0
M  V30 12389 C 1277.56 -5.79315 -1.97636 0
M  V30 12390 N 1276.7 -6.31967 -3.05878 0
M  V30 12391 H 1281.54 -2.97909 -0.0738178 0
M  V30 12392 H 1279.08 -1.47079 -0.0246728 0
M  V30 12393 H 1281.04 -3.31678 -2.53072 0
M  V30 12394 H 1279.67 -2.18617 -2.375 0
M  V30 12395 H 1278.72 -3.76529 -0.541268 0
M  V30 12396 H 1280.03 -4.90125 -0.92622 0
M  V30 12397 H 1279.18 -5.10855 -3.27279 0
M  V30 12398 H 1277.92 -3.88612 -2.94673 0
M  V30 12399 H 1276.93 -5.36933 -1.18251 0
M  V30 12400 H 1278.15 -6.6156 -1.53347 0
M  V30 12401 H 1276.1 -5.5448 -3.50553 0
M  V30 12402 H 1276.02 -7.06797 -2.68281 0
M  V30 12403 H 1277.28 -6.7848 -3.83777 0
M  V30 12404 N 1281.51 0.0200419 -1.57587 0
M  V30 12405 C 1282.48 1.00255 -2.06111 0
M  V30 12406 C 1283.48 1.28488 -0.966829 0
M  V30 12407 O 1284.67 1.2334 -1.23015 0
M  V30 12408 C 1281.8 2.33296 -2.48567 0
M  V30 12409 H 1282.99 0.583216 -2.94174 0
M  V30 12410 H 1280.54 0.267077 -1.54001 0
M  V30 12411 H 1281.28 2.79959 -1.63687 0
M  V30 12412 H 1281.06 2.14131 -3.28467 0
M  V30 12413 H 1282.55 3.03817 -2.86505 0
M  V30 12414 N 1282.99 1.54862 0.292472 0
M  V30 12415 C 1283.95 1.8565 1.34413 0
M  V30 12416 C 1284.95 0.729868 1.43281 0
M  V30 12417 O 1286.14 0.998128 1.42769 0
M  V30 12418 C 1283.28 2.0444 2.72795 0
M  V30 12419 H 1284.47 2.79642 1.08354 0
M  V30 12420 H 1282.02 1.47055 0.529574 0
M  V30 12421 H 1282.76 1.12765 3.04063 0
M  V30 12422 H 1282.54 2.86451 2.67747 0
M  V30 12423 H 1284.03 2.296 3.48817 0
M  V30 12424 N 1284.47 -0.556076 1.47464 0
M  V30 12425 C 1285.72 -1.3132 1.54147 0
M  V30 12426 C 1286.04 -1.93425 0.204221 0
M  V30 12427 O 1285.3 -1.78467 -0.803002 0
M  V30 12428 C 1285.6 -2.44298 2.6087 0
M  V30 12429 C 1285.26 -2.00016 4.04109 0
M  V30 12430 C 1283.93 -1.87656 4.43101 0
M  V30 12431 C 1286.28 -1.66228 4.93981 0
M  V30 12432 C 1283.61 -1.39805 5.698 0
M  V30 12433 C 1285.96 -1.19848 6.21144 0
M  V30 12434 C 1284.62 -1.06084 6.59016 0
M  V30 12435 H 1283.89 -0.480534 0.564064 0
M  V30 12436 H 1286.54 -0.623449 1.81067 0
M  V30 12437 H 1284.84 -3.18834 2.27711 0
M  V30 12438 H 1286.54 -3.02479 2.63263 0
M  V30 12439 H 1283.13 -2.1058 3.73302 0
M  V30 12440 H 1287.31 -1.7465 4.64555 0
M  V30 12441 H 1282.57 -1.27814 5.97891 0
M  V30 12442 H 1286.74 -0.927657 6.90194 0
M  V30 12443 H 1284.37 -0.687834 7.57082 0
M  V30 12444 N 1285.95 -1.35615 -0.802897 0
M  V30 12445 C 1287.36 -1.26062 -1.37715 0
M  V30 12446 C 1287.71 0.105411 -1.95917 0
M  V30 12447 O 1286.83 1.00648 -1.91569 0
M  V30 12448 C 1287.43 -2.28261 -2.50365 0
M  V30 12449 C 1285.99 -2.22437 -3.03642 0
M  V30 12450 C 1285.14 -2.1377 -1.76629 0
M  V30 12451 H 1288.09 -1.46689 -0.605631 0
M  V30 12452 H 1288.11 -1.91122 -3.29017 0
M  V30 12453 H 1287.62 -3.27671 -2.07975 0
M  V30 12454 H 1285.72 -1.2645 -3.50487 0
M  V30 12455 H 1285.83 -3.14558 -3.61373 0
M  V30 12456 H 1284.2 -1.59806 -1.98328 0
M  V30 12457 H 1284.98 -3.15046 -1.36385 0
M  V30 12458 N 1287.43 1.02549 -1.19673 0
M  V30 12459 C 1288.7 1.73106 -0.9107 0
M  V30 12460 C 1289.08 2.02897 0.582769 0
M  V30 12461 O 1288.43 1.68633 1.54192 0
M  V30 12462 C 1288.64 3.00535 -1.77425 0
M  V30 12463 C 1289.99 3.73976 -2.01065 0
M  V30 12464 O 1291.01 3.1047 -1.74605 0
M  V30 12465 O 1289.87 4.88153 -2.457 0
M  V30 12466 H 1286.97 0.754006 -0.339711 0
M  V30 12467 H 1289.51 1.08477 -1.30502 0
M  V30 12468 H 1288.28 2.74773 -2.78595 0
M  V30 12469 H 1287.91 3.72904 -1.37943 0
M  V30 12470 N 1288.9 1.00119 1.21713 0
M  V30 12471 C 1290.15 0.680377 1.90303 0
M  V30 12472 C 1290.47 -0.790927 1.7824 0
M  V30 12473 O 1289.74 -1.5676 1.17486 0
M  V30 12474 H 1288.32 0.248665 0.704397 0
M  V30 12475 H 1290.98 1.26948 1.47886 0
M  V30 12476 H 1290.08 0.950188 2.97284 0
M  V30 12477 N 1290.38 -1.37203 0.775435 0
M  V30 12478 C 1291.62 -2.01439 0.346649 0
M  V30 12479 C 1291.99 -1.60223 -1.05795 0
M  V30 12480 O 1293.19 -2.16947 -1.58706 0
M  V30 12481 C 1291.46 -3.54031 0.489584 0
M  V30 12482 S 1293.02 -4.38555 0.146606 0
M  V30 12483 H 1289.83 -0.698417 0.133173 0
M  V30 12484 H 1292.44 -1.67338 1.01086 0
M  V30 12485 H 1291.14 -3.81516 1.51241 0
M  V30 12486 H 1290.67 -3.92936 -0.19105 0
M  V30 12487 H 1292.69 -4.8482 -1.05661 0
M  V30 12488 N 1291.86 -0.526279 -1.48553 0
M  V30 12489 C 1292.82 0.227739 -2.28066 0
M  V30 12490 C 1293.82 0.871146 -1.35158 0
M  V30 12491 O 1295.01 0.731769 -1.58085 0
M  V30 12492 C 1292.14 1.32918 -3.1392 0
M  V30 12493 H 1293.34 -0.470313 -2.96189 0
M  V30 12494 H 1290.89 -0.282089 -1.53733 0
M  V30 12495 H 1291.63 2.0606 -2.50419 0
M  V30 12496 H 1291.41 0.872991 -3.82258 0
M  V30 12497 H 1292.9 1.85964 -3.73908 0
M  V30 12498 N 1293.34 1.5542 -0.261239 0
M  V30 12499 C 1294.75 1.85161 0.239195 0
M  V30 12500 C 1295.1 1.18319 1.56509 0
M  V30 12501 O 1294.22 0.4666 2.1131 0
M  V30 12502 C 1294.82 3.3592 0.440781 0
M  V30 12503 C 1293.38 3.65837 0.885461 0
M  V30 12504 C 1292.53 2.77285 -0.0291982 0
M  V30 12505 H 1295.48 1.51158 -0.483417 0
M  V30 12506 H 1295.5 3.58276 1.28136 0
M  V30 12507 H 1295.01 3.84541 -0.524382 0
M  V30 12508 H 1293.11 3.22705 1.86259 0
M  V30 12509 H 1293.22 4.73469 0.732394 0
M  V30 12510 H 1291.59 2.50045 0.484701 0
M  V30 12511 H 1292.37 3.28716 -0.989992 0
M  V30 12512 N 1294.82 -0.0116844 1.57596 0
M  V30 12513 C 1296.04 -0.713924 1.94725 0
M  V30 12514 C 1296.47 -1.67157 0.862565 0
M  V30 12515 O 1295.82 -1.80401 -0.180308 0
M  V30 12516 C 1295.87 -1.43214 3.30941 0
M  V30 12517 O 1294.98 -2.5461 3.24419 0
M  V30 12518 H 1294.32 -0.190772 0.636005 0
M  V30 12519 H 1296.85 0.0380247 2.04565 0
M  V30 12520 H 1296.86 -1.79819 3.66237 0
M  V30 12521 H 1295.53 -0.729906 4.09445 0
M  V30 12522 H 1294.11 -2.20419 3.00782 0
M  V30 12523 N 1296.29 -1.55015 -0.284256 0
M  V30 12524 C 1297.26 -1.8636 -1.33426 0
M  V30 12525 C 1298.26 -0.737457 -1.42892 0
M  V30 12526 O 1299.45 -1.00569 -1.42238 0
M  V30 12527 C 1296.58 -2.05884 -2.71707 0
M  V30 12528 H 1297.77 -2.80212 -1.06869 0
M  V30 12529 H 1295.32 -1.47334 -0.521767 0
M  V30 12530 H 1296.06 -1.14376 -3.03461 0
M  V30 12531 H 1295.84 -2.87867 -2.66224 0
M  V30 12532 H 1297.33 -2.31447 -3.47595 0
M  V30 12533 N 1297.77 0.548248 -1.47757 0
M  V30 12534 C 1299.01 1.31569 -1.56426 0
M  V30 12535 C 1299.38 1.90676 -0.225072 0
M  V30 12536 O 1300.58 2.68151 -0.186652 0
M  V30 12537 C 1298.85 2.38951 -2.65776 0
M  V30 12538 S 1300.41 3.25664 -2.94089 0
M  V30 12539 H 1297.22 0.447791 -0.552272 0
M  V30 12540 H 1299.83 0.626659 -1.85184 0
M  V30 12541 H 1298.53 1.93978 -3.61664 0
M  V30 12542 H 1298.06 3.12584 -2.38861 0
M  V30 12543 H 1300.08 4.38629 -2.31989 0
M  V30 12544 N 1299.25 1.36039 0.795694 0
M  V30 12545 C 1300.48 1.32866 1.58209 0
M  V30 12546 C 1300.89 -0.0935189 1.88969 0
M  V30 12547 O 1300.23 -1.05905 1.501 0
M  V30 12548 C 1300.29 2.07872 2.93308 0
M  V30 12549 C 1299.96 3.56999 2.85309 0
M  V30 12550 C 1300.95 4.51374 2.57987 0
M  V30 12551 C 1298.64 3.99798 3.04083 0
M  V30 12552 C 1300.63 5.86526 2.49533 0
M  V30 12553 C 1298.32 5.35042 2.95251 0
M  V30 12554 C 1299.32 6.28218 2.68013 0
M  V30 12555 O 1299.01 7.60979 2.59163 0
M  V30 12556 H 1298.74 0.457589 0.497583 0
M  V30 12557 H 1301.29 1.79637 0.995978 0
M  V30 12558 H 1299.52 1.55755 3.53945 0
M  V30 12559 H 1301.21 1.97638 3.54534 0
M  V30 12560 H 1301.98 4.19623 2.43191 0
M  V30 12561 H 1297.86 3.27652 3.24292 0
M  V30 12562 H 1301.4 6.59222 2.28193 0
M  V30 12563 H 1297.3 5.66404 3.09608 0
M  V30 12564 H 1298.06 7.7103 2.74691 0
M  V30 12565 N 1300.73 -1.01913 1.20215 0
M  V30 12566 C 1301.97 -1.7573 1.01226 0
M  V30 12567 C 1302.31 -1.88799 -0.45481 0
M  V30 12568 O 1301.58 -1.41196 -1.33768 0
M  V30 12569 C 1301.87 -3.17795 1.69348 0
M  V30 12570 C 1301.72 -3.12536 3.23483 0
M  V30 12571 C 1303.04 -4.16409 1.42448 0
M  V30 12572 H 1300.16 -0.637889 0.369144 0
M  V30 12573 H 1302.8 -1.18907 1.48193 0
M  V30 12574 H 1300.95 -3.66311 1.29416 0
M  V30 12575 H 1302.62 -2.71843 3.72692 0
M  V30 12576 H 1300.86 -2.49997 3.54519 0
M  V30 12577 H 1301.53 -4.12949 3.66302 0
M  V30 12578 H 1304.01 -3.76537 1.77086 0
M  V30 12579 H 1302.89 -5.13983 1.92648 0
M  V30 12580 H 1303.15 -4.407 0.351574 0
M  V30 12581 N 1302.21 -1.00763 -1.2118 0
M  V30 12582 C 1303.48 -0.607236 -1.85935 0
M  V30 12583 C 1303.86 0.915048 -1.90237 0
M  V30 12584 O 1303.21 1.80308 -1.40361 0
M  V30 12585 C 1303.42 -1.24466 -3.26051 0
M  V30 12586 C 1304.77 -1.35443 -4.02418 0
M  V30 12587 O 1305.79 -1.20018 -3.35372 0
M  V30 12588 O 1304.65 -1.60282 -5.22467 0
M  V30 12589 H 1301.75 -0.208338 -0.800328 0
M  V30 12590 H 1304.29 -1.10444 -1.28842 0
M  V30 12591 H 1303.06 -2.28524 -3.17635 0
M  V30 12592 H 1302.69 -0.733966 -3.90767 0
M  V30 12593 N 1303.68 1.3679 -0.7827 0
M  V30 12594 C 1304.59 2.33928 -0.17747 0
M  V30 12595 C 1305.61 1.60716 0.666802 0
M  V30 12596 O 1306.79 1.92742 0.584162 0
M  V30 12597 C 1303.85 3.39907 0.68294 0
M  V30 12598 C 1302.91 4.28926 -0.179053 0
M  V30 12599 C 1302.15 5.29844 0.640386 0
M  V30 12600 O 1302.37 5.38639 1.87681 0
M  V30 12601 O 1301.3 6.01884 0.0438164 0
M  V30 12602 H 1305.13 2.87439 -0.980441 0
M  V30 12603 H 1302.71 1.39142 -0.54404 0
M  V30 12604 H 1304.6 4.04722 1.17379 0
M  V30 12605 H 1303.27 2.88706 1.46391 0
M  V30 12606 H 1302.18 3.67174 -0.716512 0
M  V30 12607 H 1303.51 4.83461 -0.923377 0
M  V30 12608 N 1305.16 0.53415 1.48272 0
M  V30 12609 C 1306.41 -0.000450626 2.017 0
M  V30 12610 C 1306.72 -1.34926 1.41613 0
M  V30 12611 O 1307.93 -1.97246 1.86564 0
M  V30 12612 C 1306.39 -0.0511883 3.59864 0
M  V30 12613 C 1305.99 1.29298 4.28936 0
M  V30 12614 C 1307.74 -0.534397 4.21123 0
M  V30 12615 C 1305.65 1.2026 5.79044 0
M  V30 12616 H 1304.58 -0.00393844 0.75399 0
M  V30 12617 H 1307.23 0.678554 1.70493 0
M  V30 12618 H 1305.61 -0.795358 3.8793 0
M  V30 12619 H 1306.78 2.05305 4.12537 0
M  V30 12620 H 1305.1 1.71226 3.79566 0
M  V30 12621 H 1307.69 -0.620048 5.31093 0
M  V30 12622 H 1308.04 -1.54114 3.86723 0
M  V30 12623 H 1308.57 0.154215 3.97501 0
M  V30 12624 H 1305.31 2.18463 6.18025 0
M  V30 12625 H 1304.83 0.483971 5.97844 0
M  V30 12626 H 1306.51 0.895005 6.4078 0
M  V30 12627 N 1306.64 -1.55279 0.269478 0
M  V30 12628 C 1307.57 -2.19684 -0.653573 0
M  V30 12629 C 1308.59 -1.17985 -1.12176 0
M  V30 12630 O 1309.77 -1.44739 -1.04464 0
M  V30 12631 C 1306.87 -2.80438 -1.90284 0
M  V30 12632 C 1306.05 -4.07774 -1.58239 0
M  V30 12633 C 1305.11 -4.52629 -2.68354 0
M  V30 12634 O 1304.13 -5.18524 -2.3478 0
M  V30 12635 N 1305.33 -4.22297 -3.98303 0
M  V30 12636 H 1308.1 -2.99525 -0.102379 0
M  V30 12637 H 1305.66 -1.61648 0.0903465 0
M  V30 12638 H 1307.65 -3.07392 -2.63234 0
M  V30 12639 H 1306.22 -2.04622 -2.36323 0
M  V30 12640 H 1305.44 -3.88168 -0.686983 0
M  V30 12641 H 1306.73 -4.90749 -1.34323 0
M  V30 12642 H 1306.13 -3.69441 -4.28404 0
M  V30 12643 H 1304.69 -4.54035 -4.67649 0
M  V30 12644 N 1308.12 0.00332656 -1.576 0
M  V30 12645 C 1309.08 0.980628 -2.07163 0
M  V30 12646 C 1310.08 1.27455 -0.980402 0
M  V30 12647 O 1311.27 1.22029 -1.24317 0
M  V30 12648 C 1308.4 2.30647 -2.51028 0
M  V30 12649 H 1309.6 0.551982 -2.94776 0
M  V30 12650 H 1307.15 0.250728 -1.54276 0
M  V30 12651 H 1307.88 2.78207 -1.66647 0
M  V30 12652 H 1307.67 2.10635 -3.30719 0
M  V30 12653 H 1309.16 3.00761 -2.89711 0
M  V30 12654 N 1309.6 1.55164 0.276031 0
M  V30 12655 C 1310.84 1.76811 1.00545 0
M  V30 12656 C 1311.2 0.560749 1.84047 0
M  V30 12657 O 1310.49 -0.446608 1.86322 0
M  V30 12658 C 1310.68 3.0127 1.92279 0
M  V30 12659 C 1310.51 4.33996 1.17804 0
M  V30 12660 C 1309.28 4.97311 0.894963 0
M  V30 12661 C 1311.48 5.11132 0.56998 0
M  V30 12662 N 1309.46 6.13777 0.123106 0
M  V30 12663 C 1310.83 6.19963 -0.0678612 0
M  V30 12664 C 1312.89 4.95605 0.47752 0
M  V30 12665 C 1311.59 7.14957 -0.789246 0
M  V30 12666 C 1313.62 5.90952 -0.230266 0
M  V30 12667 C 1312.98 6.99169 -0.856857 0
M  V30 12668 H 1309.08 0.6993 0.350006 0
M  V30 12669 H 1311.66 1.92655 0.281432 0
M  V30 12670 H 1309.83 2.86807 2.61909 0
M  V30 12671 H 1311.57 3.11335 2.58559 0
M  V30 12672 H 1308.32 4.58159 1.19947 0
M  V30 12673 H 1308.75 6.76538 -0.250065 0
M  V30 12674 H 1313.39 4.12043 0.947639 0
M  V30 12675 H 1311.11 7.98041 -1.27106 0
M  V30 12676 H 1314.69 5.81015 -0.302083 0
M  V30 12677 H 1313.57 7.71678 -1.39581 0
M  V30 12678 N 1311.07 -0.540404 1.48045 0
M  V30 12679 C 1312.3 -1.32656 1.59427 0
M  V30 12680 C 1312.72 -1.86419 0.250924 0
M  V30 12681 O 1312.08 -1.63861 -0.775838 0
M  V30 12682 C 1312.13 -2.46062 2.63602 0
M  V30 12683 O 1311.23 -3.48794 2.20038 0
M  V30 12684 H 1310.58 -0.393334 0.534962 0
M  V30 12685 H 1313.11 -0.651363 1.93955 0
M  V30 12686 H 1313.12 -2.92396 2.84549 0
M  V30 12687 H 1311.79 -2.06291 3.61133 0
M  V30 12688 H 1310.37 -3.0865 2.0926 0
M  V30 12689 N 1312.55 -1.36459 -0.788468 0
M  V30 12690 C 1313.78 -1.33898 -1.57731 0
M  V30 12691 C 1314.2 0.0795471 -1.88632 0
M  V30 12692 O 1313.55 1.03671 -1.50195 0
M  V30 12693 C 1313.6 -2.16134 -2.89773 0
M  V30 12694 O 1313.32 -3.52457 -2.60203 0
M  V30 12695 C 1314.83 -2.21364 -3.84074 0
M  V30 12696 H 1312.05 -0.459269 -0.489197 0
M  V30 12697 H 1314.59 -1.79569 -0.978526 0
M  V30 12698 H 1312.74 -1.74015 -3.46118 0
M  V30 12699 H 1313.16 -3.95378 -3.4464 0
M  V30 12700 H 1314.63 -2.83261 -4.7378 0
M  V30 12701 H 1315.11 -1.21736 -4.21992 0
M  V30 12702 H 1315.72 -2.63723 -3.33662 0
M  V30 12703 N 1314.03 1.01274 -1.20754 0
M  V30 12704 C 1314.98 2.12012 -0.95675 0
M  V30 12705 C 1315.97 1.69143 0.0932738 0
M  V30 12706 O 1317.18 1.79908 -0.0574298 0
M  V30 12707 H 1313.55 0.692956 -0.292088 0
M  V30 12708 H 1315.52 2.30347 -1.89692 0
M  V30 12709 C 1314.27 3.43643 -0.529602 0
M  V30 12710 H 1313.6 3.77058 -1.32918 0
M  V30 12711 H 1315.04 4.22171 -0.393376 0
M  V30 12712 C 1313.5 3.2825 0.758505 0
M  V30 12713 O 1314.03 3.58309 1.81598 0
M  V30 12714 N 1312.23 2.81487 0.722022 0
M  V30 12715 H 1311.78 2.57226 -0.138807 0
M  V30 12716 H 1311.74 2.7157 1.58421 0
M  V30 12717 N 1315.51 1.01404 1.20644 0
M  V30 12718 C 1316.42 0.591693 2.27016 0
M  V30 12719 C 1317.44 -0.36958 1.7003 0
M  V30 12720 O 1318.61 -0.231165 2.00069 0
M  V30 12721 C 1315.68 -0.0659827 3.46637 0
M  V30 12722 C 1314.74 0.940911 4.18862 0
M  V30 12723 C 1313.97 0.314526 5.32772 0
M  V30 12724 O 1314.19 -0.886404 5.63471 0
M  V30 12725 O 1313.13 1.02998 5.93022 0
M  V30 12726 H 1316.95 1.4772 2.65353 0
M  V30 12727 H 1314.54 0.783399 1.27213 0
M  V30 12728 H 1316.42 -0.433412 4.19165 0
M  V30 12729 H 1315.1 -0.925729 3.10181 0
M  V30 12730 H 1314 1.35966 3.48517 0
M  V30 12731 H 1315.34 1.77054 4.59252 0
M  V30 12732 N 1316.99 -1.36373 0.789944 0
M  V30 12733 C 1317.92 -2.32616 0.202944 0
M  V30 12734 C 1318.9 -1.56674 -0.662364 0
M  V30 12735 O 1320.08 -1.84826 -0.596078 0
M  V30 12736 C 1317.21 -3.4092 -0.662646 0
M  V30 12737 C 1316.17 -4.27877 0.102811 0
M  V30 12738 C 1315.49 -5.27352 -0.883407 0
M  V30 12739 C 1316.79 -5.0606 1.29231 0
M  V30 12740 H 1318.49 -2.81958 1.00699 0
M  V30 12741 H 1316.03 -1.35562 0.48568 0
M  V30 12742 H 1317.99 -4.07239 -1.08324 0
M  V30 12743 H 1316.71 -2.90147 -1.4994 0
M  V30 12744 H 1315.37 -3.63114 0.504389 0
M  V30 12745 H 1315.02 -4.72853 -1.71521 0
M  V30 12746 H 1314.72 -5.86398 -0.375669 0
M  V30 12747 H 1316.24 -5.96545 -1.30256 0
M  V30 12748 H 1317.66 -5.65417 0.947446 0
M  V30 12749 H 1316.05 -5.74521 1.73338 0
M  V30 12750 H 1317.12 -4.37671 2.08739 0
M  V30 12751 N 1318.47 -0.542005 -1.47987 0
M  V30 12752 C 1319.69 -0.016717 -2.06893 0
M  V30 12753 C 1320.11 1.27015 -1.39687 0
M  V30 12754 O 1319.47 1.75845 -0.488326 0
M  V30 12755 C 1319.52 0.198437 -3.60955 0
M  V30 12756 O 1319.24 -1.03746 -4.25639 0
M  V30 12757 C 1320.74 0.762741 -4.36689 0
M  V30 12758 H 1317.96 -0.0389497 -0.669869 0
M  V30 12759 H 1320.5 -0.751082 -1.90208 0
M  V30 12760 H 1318.66 0.882884 -3.77205 0
M  V30 12761 H 1319.07 -0.82568 -5.1796 0
M  V30 12762 H 1320.55 0.862649 -5.45218 0
M  V30 12763 H 1321.02 1.77049 -4.01933 0
M  V30 12764 H 1321.63 0.114478 -4.25146 0
M  V30 12765 N 1319.94 1.55134 -0.277709 0
M  V30 12766 C 1321.19 1.99949 0.338831 0
M  V30 12767 C 1321.52 1.16587 1.5531 0
M  V30 12768 O 1320.8 0.236572 1.93056 0
M  V30 12769 C 1321.08 3.5286 0.718457 0
M  V30 12770 C 1320.93 4.46975 -0.503332 0
M  V30 12771 C 1322.25 4.11754 1.55392 0
M  V30 12772 H 1319.37 0.726885 0.121682 0
M  V30 12773 H 1322.01 1.86055 -0.385171 0
M  V30 12774 H 1320.16 3.64831 1.33531 0
M  V30 12775 H 1321.84 4.46944 -1.14188 0
M  V30 12776 H 1320.08 4.18528 -1.14092 0
M  V30 12777 H 1320.75 5.51659 -0.193912 0
M  V30 12778 H 1323.23 4.03075 1.03293 0
M  V30 12779 H 1322.1 5.1895 1.78835 0
M  V30 12780 H 1322.36 3.62147 2.53578 0
M  V30 12781 N 1321.42 0.00503138 1.57599 0
M  V30 12782 C 1322.37 -1.00294 2.09866 0
M  V30 12783 C 1323.36 -1.35267 1.01977 0
M  V30 12784 O 1324.57 -1.33772 1.20437 0
M  V30 12785 H 1320.94 -0.341112 0.670184 0
M  V30 12786 H 1322.92 -0.536595 2.93536 0
M  V30 12787 C 1321.66 -2.28432 2.62133 0
M  V30 12788 H 1320.99 -2.02391 3.44787 0
M  V30 12789 H 1322.43 -2.97227 3.02378 0
M  V30 12790 C 1320.89 -2.99758 1.53774 0
M  V30 12791 O 1321.42 -3.90939 0.923563 0
M  V30 12792 N 1319.62 -2.61671 1.26398 0
M  V30 12793 H 1319.17 -1.87605 1.76528 0
M  V30 12794 H 1319.13 -3.09707 0.541168 0
M  V30 12795 N 1322.9 -1.55308 -0.267798 0
M  V30 12796 C 1324.15 -1.77342 -0.99606 0
M  V30 12797 C 1324.5 -0.570502 -1.83747 0
M  V30 12798 O 1323.79 0.436721 -1.86556 0
M  V30 12799 C 1323.99 -3.02286 -1.90678 0
M  V30 12800 C 1323.82 -4.34614 -1.15501 0
M  V30 12801 C 1322.59 -4.97779 -0.868576 0
M  V30 12802 C 1324.78 -5.11427 -0.542865 0
M  V30 12803 N 1322.77 -6.13833 -0.0905541 0
M  V30 12804 C 1324.14 -6.19918 0.100738 0
M  V30 12805 C 1326.19 -4.95851 -0.45123 0
M  V30 12806 C 1324.9 -7.14528 0.827151 0
M  V30 12807 C 1326.92 -5.90821 0.261602 0
M  V30 12808 C 1326.28 -6.98705 0.893924 0
M  V30 12809 H 1322.38 -0.701146 -0.346292 0
M  V30 12810 H 1324.97 -1.92802 -0.271211 0
M  V30 12811 H 1323.14 -2.88192 -2.60384 0
M  V30 12812 H 1324.87 -3.12702 -2.56904 0
M  V30 12813 H 1321.62 -4.58789 -1.17515 0
M  V30 12814 H 1322.05 -6.76396 0.28594 0
M  V30 12815 H 1326.69 -4.1254 -0.925774 0
M  V30 12816 H 1324.41 -7.97356 1.31336 0
M  V30 12817 H 1327.99 -5.80847 0.332892 0
M  V30 12818 H 1326.87 -7.70927 1.43672 0
M  V30 12819 N 1324.38 0.532545 -1.4833 0
M  V30 12820 C 1325.33 1.65832 -1.63103 0
M  V30 12821 C 1326.32 1.61929 -0.497538 0
M  V30 12822 O 1327.53 1.66817 -0.676176 0
M  V30 12823 H 1323.9 0.549152 -0.513748 0
M  V30 12824 H 1325.87 1.50515 -2.57658 0
M  V30 12825 C 1324.62 3.04113 -1.68555 0
M  V30 12826 H 1323.94 3.07809 -2.55135 0
M  V30 12827 H 1325.38 3.82506 -1.82936 0
M  V30 12828 C 1323.84 3.34225 -0.423711 0
M  V30 12829 O 1324.37 3.99005 0.464523 0
M  V30 12830 N 1322.58 2.89087 -0.296192 0
M  V30 12831 H 1322.13 2.36547 -1.01997 0
M  V30 12832 H 1322.08 3.09604 0.547082 0
M  V30 12833 N 1325.86 1.36875 0.78122 0
M  V30 12834 C 1327.08 1.349 1.57533 0
M  V30 12835 C 1327.51 -0.0655249 1.87986 0
M  V30 12836 O 1326.86 -1.03986 1.48515 0
M  V30 12837 C 1326.91 2.18562 2.86815 0
M  V30 12838 O 1326.02 1.58374 3.80777 0
M  V30 12839 H 1325.36 0.461355 0.477543 0
M  V30 12840 H 1327.89 1.80271 0.96766 0
M  V30 12841 H 1327.9 2.31436 3.36008 0
M  V30 12842 H 1326.57 3.21385 2.63978 0
M  V30 12843 H 1325.15 1.54487 3.39394 0
M  V30 12844 N 1327.33 -1.00632 1.21289 0
M  V30 12845 C 1328.3 -2.07543 0.972548 0
M  V30 12846 C 1329.3 -1.60703 -0.0559244 0
M  V30 12847 O 1330.49 -1.73255 0.181213 0
M  V30 12848 C 1327.62 -3.37696 0.466297 0
M  V30 12849 H 1328.81 -2.30298 1.92101 0
M  V30 12850 H 1326.36 -1.17588 1.02969 0
M  V30 12851 H 1327.1 -3.2062 -0.487148 0
M  V30 12852 H 1326.88 -3.73024 1.20813 0
M  V30 12853 H 1328.37 -4.16388 0.317962 0
M  V30 12854 N 1328.81 -1.02043 -1.20104 0
M  V30 12855 C 1329.74 -0.614421 -2.25271 0
M  V30 12856 C 1330.72 0.37242 -1.65973 0
M  V30 12857 O 1331.91 0.257005 -1.92492 0
M  V30 12858 C 1329.04 0.0442085 -3.47272 0
M  V30 12859 C 1327.99 -0.864019 -4.19188 0
M  V30 12860 C 1327.32 -0.0709551 -5.34653 0
M  V30 12861 C 1328.62 -2.17385 -4.74912 0
M  V30 12862 H 1330.31 -1.49355 -2.59487 0
M  V30 12863 H 1327.86 -0.719591 -1.24731 0
M  V30 12864 H 1329.81 0.339825 -4.20028 0
M  V30 12865 H 1328.53 0.958082 -3.12231 0
M  V30 12866 H 1327.19 -1.1437 -3.48303 0
M  V30 12867 H 1326.84 0.844688 -4.95857 0
M  V30 12868 H 1326.54 -0.67583 -5.83701 0
M  V30 12869 H 1328.07 0.218118 -6.1021 0
M  V30 12870 H 1329.48 -1.94034 -5.39466 0
M  V30 12871 H 1327.88 -2.72991 -5.34412 0
M  V30 12872 H 1328.95 -2.83427 -3.93443 0
M  V30 12873 N 1330.29 1.35952 -0.797165 0
M  V30 12874 C 1331.52 2.0381 -0.38421 0
M  V30 12875 C 1331.94 1.597 0.993854 0
M  V30 12876 O 1331.3 0.769148 1.64176 0
M  V30 12877 C 1331.35 3.57589 -0.465054 0
M  V30 12878 O 1330.45 4.09043 0.525095 0
M  V30 12879 H 1329.79 0.643957 -0.161912 0
M  V30 12880 H 1332.32 1.73746 -1.08043 0
M  V30 12881 H 1332.33 4.06651 -0.331448 0
M  V30 12882 H 1331.01 3.89045 -1.47027 0
M  V30 12883 H 1329.58 3.7123 0.352509 0
M  V30 12884 N 1331.77 0.549846 1.47697 0
M  V30 12885 C 1333.01 0.031288 2.03376 0
M  V30 12886 C 1333.37 -1.30104 1.41741 0
M  V30 12887 O 1332.66 -1.83201 0.561052 0
M  V30 12888 C 1332.86 -0.127268 3.57173 0
M  V30 12889 C 1332.69 1.18815 4.3372 0
M  V30 12890 C 1331.46 1.75345 4.73901 0
M  V30 12891 C 1333.65 2.10361 4.69311 0
M  V30 12892 N 1331.64 3.00968 5.35062 0
M  V30 12893 C 1333.01 3.20562 5.30698 0
M  V30 12894 C 1335.06 2.10445 4.5124 0
M  V30 12895 C 1333.76 4.30936 5.75922 0
M  V30 12896 C 1335.79 3.19827 4.97458 0
M  V30 12897 C 1335.15 4.28747 5.58888 0
M  V30 12898 H 1331.25 0.0534339 0.780172 0
M  V30 12899 H 1333.84 0.735512 1.80273 0
M  V30 12900 H 1332.01 -0.800603 3.80059 0
M  V30 12901 H 1333.74 -0.647225 3.99491 0
M  V30 12902 H 1330.49 1.29235 4.55626 0
M  V30 12903 H 1330.92 3.64979 5.70192 0
M  V30 12904 H 1335.56 1.27522 4.0311 0
M  V30 12905 H 1333.28 5.14624 6.23047 0
M  V30 12906 H 1336.86 3.2097 4.85252 0
M  V30 12907 H 1335.74 5.1199 5.94 0
M  V30 12908 N 1333.25 -1.54984 0.285932 0
M  V30 12909 C 1334.49 -2.00126 -0.328223 0
M  V30 12910 C 1334.83 -1.17409 -1.54689 0
M  V30 12911 O 1334.1 -0.246806 -1.92928 0
M  V30 12912 C 1334.38 -3.53236 -0.699733 0
M  V30 12913 C 1334.24 -4.46702 0.527029 0
M  V30 12914 C 1335.56 -4.12572 -1.53206 0
M  V30 12915 H 1332.67 -0.727521 -0.117825 0
M  V30 12916 H 1335.32 -1.85848 0.395032 0
M  V30 12917 H 1333.47 -3.65534 -1.31594 0
M  V30 12918 H 1335.14 -4.46332 1.16557 0
M  V30 12919 H 1333.38 -4.17917 1.1631 0
M  V30 12920 H 1334.05 -5.51549 0.223165 0
M  V30 12921 H 1336.53 -4.03618 -1.01154 0
M  V30 12922 H 1335.4 -5.19891 -1.7608 0
M  V30 12923 H 1335.67 -3.63487 -2.51654 0
M  V30 12924 N 1334.72 -0.0133892 -1.57594 0
M  V30 12925 C 1335.69 0.958601 -2.08191 0
M  V30 12926 C 1336.69 1.26408 -0.993865 0
M  V30 12927 O 1337.88 1.20703 -1.25604 0
M  V30 12928 C 1335.01 2.27971 -2.5346 0
M  V30 12929 H 1336.2 0.520686 -2.95345 0
M  V30 12930 H 1333.76 0.234351 -1.54533 0
M  V30 12931 H 1334.49 2.76424 -1.69588 0
M  V30 12932 H 1334.28 2.07116 -3.32935 0
M  V30 12933 H 1335.77 2.97672 -2.92884 0
M  V30 12934 N 1336.2 1.55448 0.259558 0
M  V30 12935 C 1337.43 1.81063 1.01148 0
M  V30 12936 C 1337.85 0.58875 1.78649 0
M  V30 12937 O 1337.21 -0.461971 1.75315 0
M  V30 12938 C 1337.26 3.04279 1.93512 0
M  V30 12939 O 1336.36 2.80307 3.02493 0
M  V30 12940 H 1335.7 0.598056 0.288487 0
M  V30 12941 H 1338.23 2.02614 0.284387 0
M  V30 12942 H 1338.24 3.33373 2.35215 0
M  V30 12943 H 1336.92 3.92856 1.36518 0
M  V30 12944 H 1335.5 2.62345 2.65008 0
M  V30 12945 N 1337.68 -0.524672 1.4861 0
M  V30 12946 C 1338.93 -1.27958 1.58108 0
M  V30 12947 C 1339.28 -1.90716 0.254003 0
M  V30 12948 O 1338.57 -1.7658 -0.743646 0
M  V30 12949 C 1338.77 -2.3871 2.65993 0
M  V30 12950 C 1338.6 -1.86809 4.09063 0
M  V30 12951 C 1337.37 -1.69174 4.76139 0
M  V30 12952 C 1339.57 -1.39355 4.9506 0
M  V30 12953 N 1337.55 -1.11954 6.03605 0
M  V30 12954 C 1338.92 -0.941175 6.12815 0
M  V30 12955 C 1340.97 -1.27708 4.81243 0
M  V30 12956 C 1339.68 -0.383863 7.18275 0
M  V30 12957 C 1341.7 -0.733756 5.8683 0
M  V30 12958 C 1341.06 -0.291479 7.03797 0
M  V30 12959 H 1337.16 -0.459061 0.633077 0
M  V30 12960 H 1339.75 -0.590966 1.85515 0
M  V30 12961 H 1337.92 -3.05061 2.404 0
M  V30 12962 H 1339.65 -3.05744 2.65146 0
M  V30 12963 H 1336.41 -1.92852 4.32556 0
M  V30 12964 H 1336.83 -0.853395 6.716 0
M  V30 12965 H 1341.47 -1.60506 3.91149 0
M  V30 12966 H 1339.19 -0.0435691 8.08088 0
M  V30 12967 H 1342.78 -0.646737 5.78194 0
M  V30 12968 H 1341.66 0.122396 7.84104 0
M  V30 12969 N 1339.16 -1.37287 -0.77395 0
M  V30 12970 C 1340.4 -1.3257 -1.5347 0
M  V30 12971 C 1340.74 0.090346 -1.9399 0
M  V30 12972 O 1340.01 1.04719 -1.63903 0
M  V30 12973 C 1340.3 -2.26277 -2.80126 0
M  V30 12974 C 1340.15 -3.76651 -2.45874 0
M  V30 12975 C 1341.47 -2.18471 -3.82045 0
M  V30 12976 H 1338.59 -0.48289 -0.556764 0
M  V30 12977 H 1341.23 -1.6797 -0.888039 0
M  V30 12978 H 1339.38 -1.96219 -3.35306 0
M  V30 12979 H 1341.05 -4.17296 -1.96626 0
M  V30 12980 H 1339.29 -3.95327 -1.78602 0
M  V30 12981 H 1339.96 -4.3765 -3.36403 0
M  V30 12982 H 1342.44 -2.44962 -3.36352 0
M  V30 12983 H 1341.32 -2.86183 -4.68392 0
M  V30 12984 H 1341.58 -1.17692 -4.26147 0
M  V30 12985 N 1340.64 0.999871 -1.21821 0
M  V30 12986 C 1341.6 2.07024 -0.983541 0
M  V30 12987 C 1342.6 1.6073 0.0474011 0
M  V30 12988 O 1343.79 1.73156 -0.190398 0
M  V30 12989 C 1340.92 3.37444 -0.484199 0
M  V30 12990 H 1342.11 2.29276 -1.9332 0
M  V30 12991 H 1339.67 1.1704 -1.03592 0
M  V30 12992 H 1340.4 3.20874 0.470138 0
M  V30 12993 H 1340.19 3.72378 -1.2279 0
M  V30 12994 H 1341.68 4.16213 -0.34004 0
M  V30 12995 N 1342.11 1.02678 1.19562 0
M  V30 12996 C 1343.39 0.63674 1.84946 0
M  V30 12997 C 1343.77 -0.884667 1.91669 0
M  V30 12998 O 1343.12 -1.78053 1.43211 0
M  V30 12999 C 1343.33 1.29637 3.2403 0
M  V30 13000 C 1344.68 1.41828 4.00212 0
M  V30 13001 O 1345.7 1.25338 3.3342 0
M  V30 13002 O 1344.56 1.68573 5.19851 0
M  V30 13003 H 1341.65 0.221044 0.796912 0
M  V30 13004 H 1344.2 1.1248 1.27068 0
M  V30 13005 H 1342.97 2.33549 3.1396 0
M  V30 13006 H 1342.6 0.796041 3.8955 0
M  V30 13007 N 1343.59 -1.35528 0.804364 0
M  V30 13008 C 1344.52 -2.28562 0.170893 0
M  V30 13009 C 1345.54 -1.50178 -0.628526 0
M  V30 13010 O 1346.73 -1.72438 -0.461252 0
M  V30 13011 C 1343.83 -3.29792 -0.780434 0
M  V30 13012 C 1343 -4.37391 -0.0278619 0
M  V30 13013 C 1342.06 -5.18492 -0.897341 0
M  V30 13014 O 1341.08 -5.68128 -0.349098 0
M  V30 13015 N 1342.29 -5.36385 -2.21971 0
M  V30 13016 H 1345.05 -2.83565 0.970108 0
M  V30 13017 H 1342.61 -1.47854 0.659617 0
M  V30 13018 H 1344.6 -3.80939 -1.36628 0
M  V30 13019 H 1343.17 -2.7532 -1.48046 0
M  V30 13020 H 1342.39 -3.87208 0.739178 0
M  V30 13021 H 1343.68 -5.06426 0.490889 0
M  V30 13022 H 1343.08 -4.97699 -2.6891 0
M  V30 13023 H 1341.64 -5.90721 -2.75485 0
M  V30 13024 N 1345.07 -0.557671 -1.47404 0
M  V30 13025 C 1346.32 -0.0337216 -2.02072 0
M  V30 13026 C 1346.64 1.32106 -1.43433 0
M  V30 13027 O 1345.91 1.86171 -0.609692 0
M  V30 13028 H 1344.49 -0.00947648 -0.74694 0
M  V30 13029 H 1347.15 -0.727784 -1.80802 0
M  V30 13030 H 1346.25 0.0540331 -3.12053 0
M  V30 13031 N 1346.55 1.54831 -0.294147 0
M  V30 13032 C 1347.77 2.04873 0.32276 0
M  V30 13033 C 1348.2 1.17034 1.47257 0
M  V30 13034 O 1347.56 0.172949 1.80473 0
M  V30 13035 C 1347.61 3.52431 0.76319 0
M  V30 13036 O 1346.71 3.67635 1.86865 0
M  V30 13037 H 1346.05 0.660926 0.0638162 0
M  V30 13038 H 1348.58 1.99944 -0.433995 0
M  V30 13039 H 1348.59 3.94155 1.05385 0
M  V30 13040 H 1347.27 4.15827 -0.0779464 0
M  V30 13041 H 1345.84 3.37816 1.57907 0
M  V30 13042 N 1348.03 0.0217466 1.57585 0
M  V30 13043 C 1348.99 -0.947546 2.08696 0
M  V30 13044 C 1349.99 -1.25879 1.00055 0
M  V30 13045 O 1351.18 -1.20035 1.26242 0
M  V30 13046 C 1348.31 -2.26624 2.54665 0
M  V30 13047 H 1349.51 -0.505016 2.95617 0
M  V30 13048 H 1347.06 -0.226152 1.54655 0
M  V30 13049 H 1347.79 -2.75521 1.71052 0
M  V30 13050 H 1347.58 -2.05347 3.34028 0
M  V30 13051 H 1349.07 -2.96114 2.94459 0
M  V30 13052 N 1349.51 -1.55583 -0.251311 0
M  V30 13053 C 1350.42 -1.93073 -1.33266 0
M  V30 13054 C 1351.43 -0.830612 -1.52895 0
M  V30 13055 O 1352.61 -1.13162 -1.66602 0
M  V30 13056 C 1349.67 -2.21396 -2.66805 0
M  V30 13057 C 1348.73 -3.44815 -2.55737 0
M  V30 13058 C 1347.97 -3.71777 -3.82907 0
M  V30 13059 O 1348.19 -3.00884 -4.84587 0
M  V30 13060 O 1347.12 -4.65305 -3.81805 0
M  V30 13061 H 1350.95 -2.85168 -1.04465 0
M  V30 13062 H 1348.53 -1.42408 -0.451693 0
M  V30 13063 H 1350.42 -2.4094 -3.45725 0
M  V30 13064 H 1349.09 -1.3248 -2.95348 0
M  V30 13065 H 1348 -3.30582 -1.75118 0
M  V30 13066 H 1349.33 -4.34019 -2.32139 0
M  V30 13067 N 1350.98 0.516783 -1.48886 0
M  V30 13068 C 1352.39 1.09856 -1.50959 0
M  V30 13069 C 1352.75 1.94092 -0.28681 0
M  V30 13070 O 1351.87 2.07774 0.604877 0
M  V30 13071 C 1352.47 1.999 -2.73542 0
M  V30 13072 C 1351.02 2.5327 -2.78444 0
M  V30 13073 C 1350.17 1.30526 -2.44659 0
M  V30 13074 H 1353.12 0.301415 -1.55811 0
M  V30 13075 H 1353.14 2.84373 -2.52809 0
M  V30 13076 H 1352.66 1.38564 -3.62521 0
M  V30 13077 H 1350.76 3.1829 -1.93707 0
M  V30 13078 H 1350.87 2.91502 -3.80215 0
M  V30 13079 H 1349.23 1.62536 -1.96097 0
M  V30 13080 H 1350.02 0.709223 -3.35894 0
M  V30 13081 N 1352.46 1.37696 0.766659 0
M  V30 13082 C 1353.71 1.33382 1.52765 0
M  V30 13083 C 1354.04 -0.0800569 1.94035 0
M  V30 13084 O 1353.32 -1.03848 1.64456 0
M  V30 13085 C 1353.6 2.2776 2.78922 0
M  V30 13086 C 1353.45 3.77949 2.43874 0
M  V30 13087 C 1354.77 2.20494 3.80881 0
M  V30 13088 H 1351.89 0.485836 0.554195 0
M  V30 13089 H 1354.53 1.68438 0.879119 0
M  V30 13090 H 1352.68 1.97994 3.34261 0
M  V30 13091 H 1354.35 4.18333 1.9441 0
M  V30 13092 H 1352.6 3.96269 1.76503 0
M  V30 13093 H 1353.27 4.39428 3.34077 0
M  V30 13094 H 1355.74 2.46742 3.35048 0
M  V30 13095 H 1354.62 2.88663 4.66867 0
M  V30 13096 H 1354.88 1.19951 4.25516 0
M  V30 13097 N 1353.94 -0.993397 1.22349 0
M  V30 13098 C 1355.35 -1.54739 1.04465 0
M  V30 13099 C 1355.7 -1.92243 -0.392057 0
M  V30 13100 O 1354.83 -1.74707 -1.27697 0
M  V30 13101 C 1355.42 -2.81179 1.89007 0
M  V30 13102 C 1353.98 -3.33023 1.75421 0
M  V30 13103 C 1353.13 -2.06114 1.85505 0
M  V30 13104 H 1356.08 -0.814539 1.36202 0
M  V30 13105 H 1356.1 -3.53523 1.40718 0
M  V30 13106 H 1355.61 -2.53851 2.93566 0
M  V30 13107 H 1353.71 -3.6526 0.735935 0
M  V30 13108 H 1353.83 -4.03659 2.58062 0
M  V30 13109 H 1352.19 -2.19651 1.2894 0
M  V30 13110 H 1352.97 -1.81184 2.91594 0
M  V30 13111 N 1355.42 -1.03311 -1.19015 0
M  V30 13112 C 1356.65 -0.751802 -1.92758 0
M  V30 13113 C 1357.06 0.689982 -1.7574 0
M  V30 13114 O 1356.42 1.46961 -1.08207 0
M  V30 13115 C 1356.47 -1.09892 -3.44392 0
M  V30 13116 O 1356.19 -2.48409 -3.60866 0
M  V30 13117 C 1357.69 -0.841029 -4.35249 0
M  V30 13118 H 1354.91 -0.274757 -0.612168 0
M  V30 13119 H 1357.45 -1.37873 -1.51034 0
M  V30 13120 H 1355.61 -0.517092 -3.83933 0
M  V30 13121 H 1356.02 -2.61468 -4.54681 0
M  V30 13122 H 1357.5 -1.13383 -5.4023 0
M  V30 13123 H 1357.97 0.224434 -4.38626 0
M  V30 13124 H 1358.58 -1.40579 -4.01395 0
M  V30 13125 N 1356.9 1.35099 -0.81154 0
M  V30 13126 C 1357.86 2.28033 -0.230947 0
M  V30 13127 C 1358.86 1.49798 0.584575 0
M  V30 13128 O 1360.05 1.6949 0.402336 0
M  V30 13129 C 1357.18 3.341 0.677486 0
M  V30 13130 H 1358.37 2.80893 -1.05067 0
M  V30 13131 H 1355.93 1.45038 -0.582554 0
M  V30 13132 H 1356.66 2.86435 1.5207 0
M  V30 13133 H 1356.45 3.91986 0.0943563 0
M  V30 13134 H 1357.94 4.0345 1.07787 0
M  V30 13135 N 1358.37 0.56548 1.47106 0
M  V30 13136 C 1359.78 0.134289 1.86216 0
M  V30 13137 C 1360.14 -1.29815 1.47114 0
M  V30 13138 O 1359.26 -1.97787 0.878017 0
M  V30 13139 C 1359.86 0.236931 3.37971 0
M  V30 13140 C 1358.41 -0.139275 3.76142 0
M  V30 13141 C 1357.56 0.580743 2.71151 0
M  V30 13142 H 1360.51 0.774723 1.38505 0
M  V30 13143 H 1360.53 -0.542301 3.76616 0
M  V30 13144 H 1360.05 1.27958 3.66399 0
M  V30 13145 H 1358.15 -1.18272 3.53331 0
M  V30 13146 H 1358.26 0.225045 4.78571 0
M  V30 13147 H 1356.62 0.0228963 2.5469 0
M  V30 13148 H 1357.41 1.62471 3.0242 0
M  V30 13149 N 1359.85 -1.54672 0.302354 0
M  V30 13150 C 1361.1 -2.00463 -0.306978 0
M  V30 13151 C 1361.43 -1.19043 -1.53435 0
M  V30 13152 O 1360.71 -0.267255 -1.92655 0
M  V30 13153 C 1360.99 -3.53958 -0.662229 0
M  V30 13154 C 1360.84 -4.46118 0.574378 0
M  V30 13155 C 1362.16 -4.14174 -1.48821 0
M  V30 13156 H 1359.28 -0.728729 -0.110102 0
M  V30 13157 H 1361.92 -1.85419 0.414722 0
M  V30 13158 H 1360.07 -3.66909 -1.2771 0
M  V30 13159 H 1361.74 -4.45071 1.21284 0
M  V30 13160 H 1359.99 -4.1666 1.20736 0
M  V30 13161 H 1360.66 -5.51281 0.281651 0
M  V30 13162 H 1363.13 -4.04668 -0.968674 0
M  V30 13163 H 1362.01 -5.2173 -1.70556 0
M  V30 13164 H 1362.27 -3.66136 -2.47784 0
M  V30 13165 N 1361.33 -0.0301034 -1.57571 0
M  V30 13166 C 1362.58 0.649283 -1.92125 0
M  V30 13167 C 1362.91 1.71722 -0.90692 0
M  V30 13168 O 1362.18 1.94373 0.0702019 0
M  V30 13169 C 1362.47 1.26482 -3.37156 0
M  V30 13170 C 1362.32 0.206375 -4.49326 0
M  V30 13171 C 1363.64 2.18256 -3.82168 0
M  V30 13172 H 1360.76 0.234561 -0.698678 0
M  V30 13173 H 1363.4 -0.0875634 -1.89798 0
M  V30 13174 H 1361.55 1.89283 -3.3927 0
M  V30 13175 H 1363.22 -0.424268 -4.59345 0
M  V30 13176 H 1361.47 -0.468035 -4.31268 0
M  V30 13177 H 1362.14 0.676689 -5.47837 0
M  V30 13178 H 1364.61 1.65441 -3.81797 0
M  V30 13179 H 1363.49 2.58277 -4.84339 0
M  V30 13180 H 1363.75 3.07411 -3.17727 0
M  V30 13181 N 1362.81 1.55714 0.243056 0
M  V30 13182 C 1364.04 1.81786 0.98801 0
M  V30 13183 C 1364.45 0.606352 1.78798 0
M  V30 13184 O 1363.81 -0.425018 1.77482 0
M  V30 13185 C 1363.86 3.06121 1.92281 0
M  V30 13186 O 1363.58 4.22595 1.15521 0
M  V30 13187 C 1365.08 3.45021 2.78344 0
M  V30 13188 H 1362.3 0.604829 0.290557 0
M  V30 13189 H 1364.85 2.02779 0.26478 0
M  V30 13190 H 1363 2.87167 2.60027 0
M  V30 13191 H 1363.41 4.93088 1.78786 0
M  V30 13192 H 1364.89 4.35112 3.39678 0
M  V30 13193 H 1365.37 2.65782 3.49652 0
M  V30 13194 H 1365.97 3.66339 2.16045 0
M  V30 13195 N 1364.29 -0.50888 1.49158 0
M  V30 13196 C 1365.7 -0.839353 1.35746 0
M  V30 13197 C 1365.9 -1.97797 0.38453 0
M  V30 13198 O 1364.96 -2.51809 -0.186651 0
M  V30 13199 C 1366.27 -1.18698 2.76281 0
M  V30 13200 C 1367.82 -1.29565 2.84924 0
M  V30 13201 C 1368.29 -1.67661 4.26209 0
M  V30 13202 N 1369.79 -1.74725 4.28982 0
M  V30 13203 C 1370.52 -2.05631 5.3526 0
M  V30 13204 N 1370.02 -2.34814 6.51793 0
M  V30 13205 N 1371.81 -2.06815 5.2267 0
M  V30 13206 H 1363.96 0.242065 2.11016 0
M  V30 13207 H 1366.22 0.0456901 0.946898 0
M  V30 13208 H 1365.93 -0.423769 3.49138 0
M  V30 13209 H 1365.8 -2.13227 3.11149 0
M  V30 13210 H 1368.19 -2.0496 2.1231 0
M  V30 13211 H 1368.27 -0.331059 2.53649 0
M  V30 13212 H 1367.92 -0.928198 4.99346 0
M  V30 13213 H 1367.85 -2.65207 4.54943 0
M  V30 13214 H 1370.34 -1.54364 3.44935 0
M  V30 13215 H 1370.65 -2.57562 7.28616 0
M  V30 13216 H 1368.99 -2.32288 6.55032 0
M  V30 13217 H 1372.19 -1.83487 4.30639 0
M  V30 13218 H 1372.36 -2.30568 6.05593 0
M  V30 13219 N 1365.76 -1.381 -0.759346 0
M  V30 13220 C 1366.7 -1.3075 -1.88248 0
M  V30 13221 C 1367.71 -0.220835 -1.61295 0
M  V30 13222 O 1368.9 -0.477952 -1.71982 0
M  V30 13223 C 1366 -1.00174 -3.23757 0
M  V30 13224 C 1365.17 -2.19635 -3.78258 0
M  V30 13225 C 1364.23 -1.85892 -4.92271 0
M  V30 13226 O 1363.26 -2.58325 -5.07205 0
M  V30 13227 N 1364.46 -0.810436 -5.74815 0
M  V30 13228 H 1367.22 -2.27529 -1.95065 0
M  V30 13229 H 1364.78 -1.31886 -0.93902 0
M  V30 13230 H 1366.78 -0.756631 -3.97564 0
M  V30 13231 H 1365.35 -0.122094 -3.12361 0
M  V30 13232 H 1364.57 -2.60246 -2.96084 0
M  V30 13233 H 1365.85 -2.99373 -4.11404 0
M  V30 13234 H 1365.25 -0.209644 -5.65311 0
M  V30 13235 H 1363.81 -0.625206 -6.48795 0
M  V30 13236 N 1367.24 0.986894 -1.22875 0
M  V30 13237 C 1368.65 1.54182 -1.05284 0
M  V30 13238 C 1369 1.92448 0.381856 0
M  V30 13239 O 1368.13 1.75381 1.26769 0
M  V30 13240 C 1368.72 2.80173 -1.90496 0
M  V30 13241 C 1367.28 3.32088 -1.77185 0
M  V30 13242 C 1366.43 2.05128 -1.86596 0
M  V30 13243 H 1369.38 0.807304 -1.36632 0
M  V30 13244 H 1369.4 3.52772 -1.42591 0
M  V30 13245 H 1368.91 2.52291 -2.94908 0
M  V30 13246 H 1367.02 3.64864 -0.755295 0
M  V30 13247 H 1367.13 4.02285 -2.60199 0
M  V30 13248 H 1365.49 2.18964 -1.30103 0
M  V30 13249 H 1366.28 1.79635 -2.92551 0
M  V30 13250 N 1368.72 1.0394 1.18466 0
M  V30 13251 C 1369.97 0.743141 1.88694 0
M  V30 13252 C 1370.3 -0.727211 1.8007 0
M  V30 13253 O 1369.57 -1.53058 1.20014 0
M  V30 13254 C 1369.86 1.20829 3.39223 0
M  V30 13255 C 1369.71 2.74064 3.56664 0
M  V30 13256 C 1371.03 0.797348 4.32817 0
M  V30 13257 H 1368.15 0.271437 0.685194 0
M  V30 13258 H 1370.79 1.29119 1.39386 0
M  V30 13259 H 1368.94 0.742033 3.81348 0
M  V30 13260 H 1370.61 3.28717 3.2364 0
M  V30 13261 H 1368.86 3.1395 2.99362 0
M  V30 13262 H 1369.53 3.01668 4.62277 0
M  V30 13263 H 1372 1.19854 3.98465 0
M  V30 13264 H 1370.88 1.15057 5.36706 0
M  V30 13265 H 1371.14 -0.299601 4.41084 0
M  V30 13266 N 1370.2 -1.34667 0.818693 0
M  V30 13267 C 1371.48 -1.92838 0.327521 0
M  V30 13268 C 1371.86 -1.74732 -1.18457 0
M  V30 13269 O 1371.2 -1.12352 -1.98971 0
M  V30 13270 C 1371.41 -3.40797 0.752207 0
M  V30 13271 C 1372.76 -4.17948 0.748613 0
M  V30 13272 O 1373.79 -3.49364 0.694517 0
M  V30 13273 O 1372.64 -5.40344 0.817958 0
M  V30 13274 H 1369.74 -0.822249 0.0885148 0
M  V30 13275 H 1372.28 -1.43668 0.9032 0
M  V30 13276 H 1371.06 -3.47759 1.79387 0
M  V30 13277 H 1370.68 -3.97309 0.151992 0
M  V30 13278 N 1371.68 -0.573274 -1.46804 0
M  V30 13279 C 1372.64 0.155066 -2.28675 0
M  V30 13280 C 1373.64 0.827706 -1.37861 0
M  V30 13281 O 1374.83 0.681105 -1.60333 0
M  V30 13282 C 1371.96 1.22864 -3.1799 0
M  V30 13283 H 1373.15 -0.564305 -2.94543 0
M  V30 13284 H 1370.71 -0.330855 -1.52758 0
M  V30 13285 H 1371.44 1.97989 -2.56848 0
M  V30 13286 H 1371.23 0.750936 -3.84842 0
M  V30 13287 H 1372.72 1.73974 -3.79635 0
M  V30 13288 N 1373.15 1.5451 -0.310553 0
M  V30 13289 C 1374.38 2.04739 0.29824 0
M  V30 13290 C 1374.8 1.18737 1.46788 0
M  V30 13291 O 1374.15 0.215114 1.81228 0
M  V30 13292 C 1374.21 3.53734 0.745274 0
M  V30 13293 O 1373.93 4.36468 -0.377826 0
M  V30 13294 C 1375.43 4.20001 1.41823 0
M  V30 13295 H 1372.65 0.667997 0.0634159 0
M  V30 13296 H 1375.19 1.9942 -0.452961 0
M  V30 13297 H 1373.35 3.59383 1.44648 0
M  V30 13298 H 1373.76 5.24492 -0.0280567 0
M  V30 13299 H 1375.23 5.25747 1.68209 0
M  V30 13300 H 1375.71 3.70319 2.36137 0
M  V30 13301 H 1376.32 4.18455 0.759951 0
M  V30 13302 N 1374.63 0.0384594 1.57553 0
M  V30 13303 C 1375.88 -0.639085 1.92467 0
M  V30 13304 C 1376.21 -1.71239 0.916014 0
M  V30 13305 O 1375.49 -1.94408 -0.0598928 0
M  V30 13306 C 1375.77 -1.24693 3.37822 0
M  V30 13307 C 1375.62 -0.182544 4.49429 0
M  V30 13308 C 1376.94 -2.16226 3.8332 0
M  V30 13309 H 1374.06 -0.230852 0.699912 0
M  V30 13310 H 1376.7 0.0976276 1.89749 0
M  V30 13311 H 1374.85 -1.87481 3.40269 0
M  V30 13312 H 1376.53 0.448622 4.59113 0
M  V30 13313 H 1374.77 0.4909 4.31013 0
M  V30 13314 H 1375.44 -0.647626 5.48188 0
M  V30 13315 H 1377.92 -1.63413 3.82669 0
M  V30 13316 H 1376.79 -2.55705 4.85702 0
M  V30 13317 H 1377.05 -3.05722 3.19353 0
M  V30 13318 N 1376.11 -1.55841 -0.234795 0
M  V30 13319 C 1377.07 -1.9051 -1.2743 0
M  V30 13320 C 1378.07 -0.782543 -1.40474 0
M  V30 13321 O 1379.26 -1.05043 -1.38966 0
M  V30 13322 C 1376.4 -2.14424 -2.65019 0
M  V30 13323 H 1377.59 -2.83471 -0.979003 0
M  V30 13324 H 1375.14 -1.48919 -0.47463 0
M  V30 13325 H 1375.88 -1.23972 -2.99669 0
M  V30 13326 H 1375.66 -2.96191 -2.56931 0
M  V30 13327 H 1377.15 -2.42388 -3.40056 0
M  V30 13328 N 1377.59 0.500963 -1.49426 0
M  V30 13329 C 1378.52 1.61114 -1.69011 0
M  V30 13330 C 1379.5 1.61341 -0.538813 0
M  V30 13331 O 1380.69 1.78081 -0.77466 0
M  V30 13332 C 1377.82 2.99598 -1.75666 0
M  V30 13333 C 1376.77 3.14236 -2.90585 0
M  V30 13334 C 1376.1 4.54071 -2.82354 0
M  V30 13335 C 1377.4 2.94258 -4.3152 0
M  V30 13336 H 1379.09 1.44978 -2.61957 0
M  V30 13337 H 1376.64 0.69603 -1.26061 0
M  V30 13338 H 1378.59 3.77163 -1.87953 0
M  V30 13339 H 1377.31 3.16822 -0.793186 0
M  V30 13340 H 1375.97 2.39096 -2.779 0
M  V30 13341 H 1375.62 4.68172 -1.83914 0
M  V30 13342 H 1375.32 4.64806 -3.59485 0
M  V30 13343 H 1376.84 5.33696 -2.96649 0
M  V30 13344 H 1378.26 3.61592 -4.44886 0
M  V30 13345 H 1376.65 3.16464 -5.09873 0
M  V30 13346 H 1377.72 1.90383 -4.45962 0
M  V30 13347 N 1379.07 1.38501 0.752011 0
M  V30 13348 C 1380.32 1.34529 1.50819 0
M  V30 13349 C 1380.64 -0.0636155 1.94896 0
M  V30 13350 O 1379.91 -1.01161 1.6776 0
M  V30 13351 H 1378.49 0.49501 0.559441 0
M  V30 13352 H 1381.15 1.73196 0.893822 0
M  V30 13353 H 1380.24 1.99713 2.39835 0
M  V30 13354 N 1380.55 -0.980364 1.23396 0
M  V30 13355 C 1381.51 -2.05433 1.01635 0
M  V30 13356 C 1382.51 -1.60785 -0.0218244 0
M  V30 13357 O 1383.7 -1.72832 0.217922 0
M  V30 13358 C 1380.83 -3.36631 0.537822 0
M  V30 13359 H 1382.02 -2.26172 1.96943 0
M  V30 13360 H 1379.58 -1.15378 1.05441 0
M  V30 13361 H 1380.31 -3.21581 -0.41903 0
M  V30 13362 H 1380.1 -3.70377 1.28698 0
M  V30 13363 H 1381.59 -4.1562 0.406213 0
M  V30 13364 N 1382.02 -1.04567 -1.17913 0
M  V30 13365 C 1383.3 -0.666082 -1.8391 0
M  V30 13366 C 1383.68 0.854062 -1.93052 0
M  V30 13367 O 1383.03 1.75752 -1.46026 0
M  V30 13368 C 1383.24 -1.34776 -3.21926 0
M  V30 13369 C 1384.59 -1.48177 -3.97905 0
M  V30 13370 O 1385.61 -1.30627 -3.31384 0
M  V30 13371 O 1384.47 -1.76822 -5.17104 0
M  V30 13372 H 1381.56 -0.233694 -0.793294 0
M  V30 13373 H 1384.11 -1.14487 -1.25263 0
M  V30 13374 H 1382.88 -2.38514 -3.10204 0
M  V30 13375 H 1382.5 -0.857914 -3.88234 0
M  V30 13376 N 1383.5 1.34231 -0.825823 0
M  V30 13377 C 1384.46 2.27776 -0.25512 0
M  V30 13378 C 1385.46 1.50409 0.568654 0
M  V30 13379 O 1386.65 1.69907 0.384337 0
M  V30 13380 C 1383.79 3.348 0.642013 0
M  V30 13381 H 1384.98 2.79763 -1.0804 0
M  V30 13382 H 1382.53 1.44412 -0.597904 0
M  V30 13383 H 1383.27 2.88032 1.49024 0
M  V30 13384 H 1383.05 3.92064 0.0527756 0
M  V30 13385 H 1384.54 4.0457 1.03502 0
M  V30 13386 N 1384.98 0.581051 1.46498 0
M  V30 13387 C 1386.21 0.0715652 2.06776 0
M  V30 13388 C 1386.62 -1.23267 1.43006 0
M  V30 13389 O 1385.98 -1.74489 0.534776 0
M  V30 13390 C 1386.03 -0.102666 3.61354 0
M  V30 13391 O 1385.75 1.14995 4.22739 0
M  V30 13392 C 1387.25 -0.646692 4.38558 0
M  V30 13393 H 1384.47 0.0566964 0.6686 0
M  V30 13394 H 1387.02 0.801248 1.8815 0
M  V30 13395 H 1385.17 -0.782564 3.79414 0
M  V30 13396 H 1385.59 0.962718 5.15589 0
M  V30 13397 H 1387.06 -0.717791 5.47313 0
M  V30 13398 H 1387.54 -1.6633 4.06486 0
M  V30 13399 H 1388.14 -0.00171739 4.253 0
M  V30 13400 N 1386.46 -1.54343 0.318742 0
M  V30 13401 C 1387.7 -2.0048 -0.285276 0
M  V30 13402 C 1388.03 -1.20698 -1.5252 0
M  V30 13403 O 1387.29 -0.275893 -1.93746 0
M  V30 13404 C 1387.59 -3.51079 -0.669181 0
M  V30 13405 C 1387.25 -4.48433 0.471017 0
M  V30 13406 C 1385.91 -4.74771 0.783985 0
M  V30 13407 C 1388.27 -5.06304 1.23715 0
M  V30 13408 C 1385.59 -5.56239 1.86589 0
M  V30 13409 C 1387.95 -5.88951 2.30911 0
M  V30 13410 C 1386.61 -6.13592 2.62794 0
M  V30 13411 H 1385.88 -0.73361 -0.10439 0
M  V30 13412 H 1388.53 -1.86341 0.441521 0
M  V30 13413 H 1386.83 -3.62921 -1.47633 0
M  V30 13414 H 1388.53 -3.84216 -1.148 0
M  V30 13415 H 1385.12 -4.2805 0.217004 0
M  V30 13416 H 1389.3 -4.85943 1.00862 0
M  V30 13417 H 1384.56 -5.73563 2.11744 0
M  V30 13418 H 1388.73 -6.32814 2.90722 0
M  V30 13419 H 1386.36 -6.76508 3.46757 0
M  V30 13420 N 1387.94 -0.0468143 -1.5753 0
M  V30 13421 C 1389.16 0.637648 -1.96829 0
M  V30 13422 C 1389.58 1.64635 -0.924158 0
M  V30 13423 O 1388.94 1.82267 0.0921139 0
M  V30 13424 C 1388.99 1.32842 -3.36207 0
M  V30 13425 O 1388.71 0.360111 -4.36617 0
M  V30 13426 C 1390.21 2.10305 -3.90239 0
M  V30 13427 H 1387.43 0.174634 -0.647876 0
M  V30 13428 H 1389.97 -0.111824 -2.04194 0
M  V30 13429 H 1388.13 2.02915 -3.30006 0
M  V30 13430 H 1388.54 0.852661 -5.17523 0
M  V30 13431 H 1390.02 2.54065 -4.90056 0
M  V30 13432 H 1390.49 2.94942 -3.25432 0
M  V30 13433 H 1391.1 1.45152 -3.99764 0
M  V30 13434 N 1389.41 1.55964 0.226527 0
M  V30 13435 C 1390.38 1.91184 1.26418 0
M  V30 13436 C 1391.38 0.789982 1.40057 0
M  V30 13437 O 1392.57 1.05778 1.38407 0
M  V30 13438 C 1389.7 2.15826 2.63878 0
M  V30 13439 H 1390.89 2.83986 0.963956 0
M  V30 13440 H 1388.45 1.49169 0.466726 0
M  V30 13441 H 1389.18 1.2556 2.99007 0
M  V30 13442 H 1388.97 2.97549 2.55356 0
M  V30 13443 H 1390.46 2.44188 3.38765 0
M  V30 13444 N 1390.89 -0.493031 1.4969 0
M  V30 13445 C 1391.8 -1.61991 1.69694 0
M  V30 13446 C 1392.82 -1.64061 0.579641 0
M  V30 13447 O 1393.99 -1.82335 0.855323 0
M  V30 13448 C 1391.06 -2.98323 1.76648 0
M  V30 13449 C 1390.12 -3.06816 3.00271 0
M  V30 13450 C 1389.35 -4.36644 3.06883 0
M  V30 13451 O 1389.58 -5.25901 2.20872 0
M  V30 13452 O 1388.51 -4.50275 3.99419 0
M  V30 13453 H 1392.34 -1.48042 2.65174 0
M  V30 13454 H 1389.92 -0.670182 1.33525 0
M  V30 13455 H 1391.8 -3.79335 1.83529 0
M  V30 13456 H 1390.48 -3.12517 0.843482 0
M  V30 13457 H 1389.39 -2.24962 2.98903 0
M  V30 13458 H 1390.72 -2.97551 3.92077 0
M  V30 13459 N 1392.37 -1.38898 -0.744656 0
M  V30 13460 C 1393.33 -1.36633 -1.84022 0
M  V30 13461 C 1394.33 -0.265187 -1.58598 0
M  V30 13462 O 1395.52 -0.522569 -1.66177 0
M  V30 13463 C 1392.66 -1.12938 -3.21649 0
M  V30 13464 H 1393.85 -2.34111 -1.87435 0
M  V30 13465 H 1391.4 -1.24322 -0.947302 0
M  V30 13466 H 1392.14 -0.161027 -3.239 0
M  V30 13467 H 1391.92 -1.9267 -3.41498 0
M  V30 13468 H 1393.41 -1.14071 -4.01718 0
M  V30 13469 N 1393.85 0.973806 -1.23914 0
M  V30 13470 C 1395.07 1.7564 -1.10296 0
M  V30 13471 C 1395.5 1.84984 0.340954 0
M  V30 13472 O 1394.86 1.31629 1.24674 0
M  V30 13473 C 1394.9 3.15809 -1.7406 0
M  V30 13474 O 1394.01 3.99911 -1.00722 0
M  V30 13475 H 1393.35 0.540133 -0.386202 0
M  V30 13476 H 1395.88 1.22197 -1.64101 0
M  V30 13477 H 1395.89 3.66359 -1.79568 0
M  V30 13478 H 1394.56 3.08324 -2.79122 0
M  V30 13479 H 1393.14 3.58405 -1.02956 0
M  V30 13480 N 1395.33 1.05191 1.17357 0
M  V30 13481 C 1396.57 0.760479 1.87246 0
M  V30 13482 C 1396.9 -0.714618 1.81434 0
M  V30 13483 O 1396.17 -1.51636 1.24029 0
M  V30 13484 H 1394.75 0.278317 0.693216 0
M  V30 13485 H 1397.41 1.33106 1.42369 0
M  V30 13486 H 1396.5 1.07542 2.92987 0
M  V30 13487 N 1396.8 -1.33791 0.83293 0
M  V30 13488 C 1398.05 -1.98266 0.426412 0
M  V30 13489 C 1398.38 -1.65848 -1.01035 0
M  V30 13490 O 1397.66 -0.93528 -1.70537 0
M  V30 13491 C 1397.94 -3.54356 0.640586 0
M  V30 13492 C 1397.79 -3.96482 2.12419 0
M  V30 13493 C 1399.11 -4.40022 0.0829237 0
M  V30 13494 H 1396.23 -0.720213 0.156404 0
M  V30 13495 H 1398.87 -1.58527 1.04735 0
M  V30 13496 H 1397.02 -3.88338 0.11204 0
M  V30 13497 H 1398.7 -3.72786 2.71714 0
M  V30 13498 H 1396.94 -3.46429 2.61092 0
M  V30 13499 H 1397.61 -5.05179 2.22482 0
M  V30 13500 H 1400.09 -4.12651 0.534634 0
M  V30 13501 H 1398.96 -5.48272 0.262511 0
M  V30 13502 H 1399.22 -4.30341 -1.01287 0
M  V30 13503 N 1398.28 -0.588812 -1.46187 0
M  V30 13504 C 1399.69 -0.163897 -1.85979 0
M  V30 13505 C 1400.04 1.27458 -1.49161 0
M  V30 13506 O 1399.17 1.96365 -0.909372 0
M  V30 13507 C 1399.76 -0.29067 -3.37551 0
M  V30 13508 C 1398.32 0.0794165 -3.76316 0
M  V30 13509 C 1397.47 -0.623807 -2.70192 0
M  V30 13510 H 1400.42 -0.79666 -1.37255 0
M  V30 13511 H 1400.44 0.482316 -3.77431 0
M  V30 13512 H 1399.95 -1.33771 -3.64317 0
M  V30 13513 H 1398.06 1.12636 -3.55168 0
M  V30 13514 H 1398.17 -0.301153 -4.78153 0
M  V30 13515 H 1396.53 -0.0634124 -2.54621 0
M  V30 13516 H 1397.32 -1.67261 -2.99797 0
M  V30 13517 N 1399.76 1.54172 -0.326923 0
M  V30 13518 C 1400.72 2.2311 0.524855 0
M  V30 13519 C 1401.72 1.22567 1.04087 0
M  V30 13520 O 1402.91 1.47123 0.932759 0
M  V30 13521 C 1400.05 2.93778 1.72937 0
M  V30 13522 H 1401.24 2.99799 -0.0778327 0
M  V30 13523 H 1398.79 1.56105 -0.0780484 0
M  V30 13524 H 1399.53 2.21234 2.3712 0
M  V30 13525 H 1399.31 3.67509 1.36674 0
M  V30 13526 H 1400.8 3.46292 2.33392 0
M  V30 13527 N 1401.24 0.0551678 1.57503 0
M  V30 13528 C 1402.65 -0.479948 1.80426 0
M  V30 13529 C 1403 -1.70673 0.967733 0
M  V30 13530 O 1402.13 -2.15604 0.185462 0
M  V30 13531 C 1402.72 -0.877496 3.27239 0
M  V30 13532 C 1401.28 -1.35757 3.51066 0
M  V30 13533 C 1400.43 -0.334681 2.75273 0
M  V30 13534 H 1403.38 0.281016 1.56192 0
M  V30 13535 H 1403.4 -1.74013 3.38378 0
M  V30 13536 H 1402.91 0.015571 3.88097 0
M  V30 13537 H 1401.01 -2.26969 2.95492 0
M  V30 13538 H 1401.12 -1.34697 4.59776 0
M  V30 13539 H 1399.49 -0.808421 2.4153 0
M  V30 13540 H 1400.27 0.550369 3.3886 0
M  V30 13541 N 1402.72 -1.56081 -0.218252 0
M  V30 13542 C 1403.94 -1.83334 -0.958964 0
M  V30 13543 C 1404.36 -0.63472 -1.77811 0
M  V30 13544 O 1403.72 0.396729 -1.78136 0
M  V30 13545 C 1403.77 -3.09141 -1.87387 0
M  V30 13546 O 1403.49 -4.24379 -1.08783 0
M  V30 13547 C 1404.99 -3.49405 -2.7282 0
M  V30 13548 H 1402.21 -0.609375 -0.280898 0
M  V30 13549 H 1404.75 -2.03174 -0.232486 0
M  V30 13550 H 1402.91 -2.91267 -2.55426 0
M  V30 13551 H 1403.32 -4.9587 -1.70919 0
M  V30 13552 H 1404.8 -4.40461 -3.32713 0
M  V30 13553 H 1405.27 -2.71311 -3.45379 0
M  V30 13554 H 1405.88 -3.6973 -2.1019 0
M  V30 13555 N 1404.2 0.485086 -1.49949 0
M  V30 13556 C 1405.44 1.23999 -1.60474 0
M  V30 13557 C 1405.77 1.91904 -0.297736 0
M  V30 13558 O 1405.05 1.81472 0.699857 0
M  V30 13559 C 1405.33 2.2946 -2.77525 0
M  V30 13560 C 1405.19 1.65952 -4.18067 0
M  V30 13561 C 1406.5 3.30893 -2.90169 0
M  V30 13562 H 1403.62 0.449462 -0.584083 0
M  V30 13563 H 1406.27 0.535795 -1.82289 0
M  V30 13564 H 1404.42 2.89521 -2.59056 0
M  V30 13565 H 1406.09 1.09596 -4.48092 0
M  V30 13566 H 1404.33 0.963079 -4.22974 0
M  V30 13567 H 1405 2.42521 -4.9587 0
M  V30 13568 H 1407.48 2.8084 -3.07031 0
M  V30 13569 H 1406.35 4.02027 -3.73718 0
M  V30 13570 H 1406.61 3.94178 -2.0019 0
M  V30 13571 N 1405.67 1.39291 0.737279 0
M  V30 13572 C 1407.09 1.20845 1.04253 0
M  V30 13573 C 1407.29 0.0684513 2.01384 0
M  V30 13574 O 1406.35 -0.580615 2.45734 0
M  V30 13575 C 1407.66 2.54158 1.60699 0
M  V30 13576 C 1409.21 2.60983 1.72791 0
M  V30 13577 C 1409.68 3.94511 2.32647 0
M  V30 13578 N 1411.17 3.96138 2.4006 0
M  V30 13579 C 1411.91 4.96229 2.87306 0
M  V30 13580 N 1411.4 6.06716 3.34465 0
M  V30 13581 N 1413.2 4.83609 2.86494 0
M  V30 13582 H 1405.35 2.12196 0.0930416 0
M  V30 13583 H 1407.61 0.942289 0.103899 0
M  V30 13584 H 1407.32 3.38118 0.96795 0
M  V30 13585 H 1407.19 2.73715 2.59538 0
M  V30 13586 H 1409.58 1.77408 2.35818 0
M  V30 13587 H 1409.66 2.45278 0.726118 0
M  V30 13588 H 1409.3 4.78516 1.70249 0
M  V30 13589 H 1409.23 4.07536 3.33499 0
M  V30 13590 H 1411.72 3.16344 2.06725 0
M  V30 13591 H 1412.04 6.79002 3.6902 0
M  V30 13592 H 1410.38 6.10313 3.3248 0
M  V30 13593 H 1413.57 3.96396 2.48973 0
M  V30 13594 H 1413.75 5.6176 3.23001 0
M  V30 13595 N 1407.15 -0.967221 1.24429 0
M  V30 13596 C 1408.4 -1.71349 1.09596 0
M  V30 13597 C 1408.75 -1.88975 -0.361411 0
M  V30 13598 O 1408.05 -1.4405 -1.26333 0
M  V30 13599 C 1408.24 -3.10507 1.76975 0
M  V30 13600 C 1408.07 -3.06455 3.29113 0
M  V30 13601 C 1406.84 -3.1091 3.98326 0
M  V30 13602 C 1409.04 -2.88594 4.25697 0
M  V30 13603 N 1407.02 -2.96882 5.3734 0
M  V30 13604 C 1408.39 -2.82867 5.51712 0
M  V30 13605 C 1410.44 -2.73179 4.16267 0
M  V30 13606 C 1409.15 -2.63301 6.69377 0
M  V30 13607 C 1411.17 -2.5498 5.3361 0
M  V30 13608 C 1410.54 -2.49962 6.58558 0
M  V30 13609 H 1406.63 -0.635528 0.455663 0
M  V30 13610 H 1409.22 -1.14669 1.5735 0
M  V30 13611 H 1407.39 -3.65378 1.31733 0
M  V30 13612 H 1409.12 -3.73842 1.54997 0
M  V30 13613 H 1405.88 -3.19609 3.49495 0
M  V30 13614 H 1406.3 -2.93107 6.1026 0
M  V30 13615 H 1410.94 -2.7584 3.20425 0
M  V30 13616 H 1408.66 -2.59383 7.65341 0
M  V30 13617 H 1412.25 -2.43995 5.28164 0
M  V30 13618 H 1411.13 -2.3606 7.47827 0
M  V30 13619 N 1408.63 -1.05812 -1.16797 0
M  V30 13620 C 1409.56 -0.622584 -2.20582 0
M  V30 13621 C 1410.57 0.316905 -1.59686 0
M  V30 13622 O 1411.76 0.108657 -1.78169 0
M  V30 13623 C 1408.86 0.108124 -3.38727 0
M  V30 13624 C 1408.04 -0.84363 -4.29187 0
M  V30 13625 C 1407.1 -0.15305 -5.25977 0
M  V30 13626 O 1406.12 -0.78915 -5.63703 0
M  V30 13627 N 1407.32 1.10721 -5.69843 0
M  V30 13628 H 1410.09 -1.51532 -2.5857 0
M  V30 13629 H 1407.65 -0.940815 -1.31758 0
M  V30 13630 H 1409.64 0.580395 -4.00517 0
M  V30 13631 H 1408.21 0.902599 -2.99286 0
M  V30 13632 H 1407.43 -1.49538 -3.64735 0
M  V30 13633 H 1408.72 -1.48946 -4.86511 0
M  V30 13634 H 1408.12 1.64423 -5.41278 0
M  V30 13635 H 1406.67 1.52344 -6.33746 0
M  V30 13636 N 1410.11 1.33347 -0.840014 0
M  V30 13637 C 1411.35 1.98037 -0.43692 0
M  V30 13638 C 1411.69 1.66382 1.00154 0
M  V30 13639 O 1410.96 0.944311 1.70038 0
M  V30 13640 C 1411.24 3.54012 -0.65937 0
M  V30 13641 C 1411.1 3.9535 -2.14518 0
M  V30 13642 C 1412.42 4.39972 -0.106258 0
M  V30 13643 H 1409.54 0.719373 -0.160221 0
M  V30 13644 H 1412.18 1.57969 -1.05574 0
M  V30 13645 H 1410.33 3.88274 -0.132633 0
M  V30 13646 H 1412 3.7134 -2.73687 0
M  V30 13647 H 1410.24 3.4504 -2.62926 0
M  V30 13648 H 1410.91 5.03992 -2.25158 0
M  V30 13649 H 1413.39 4.12362 -0.556511 0
M  V30 13650 H 1412.27 5.48125 -0.291583 0
M  V30 13651 H 1412.53 4.30872 0.990032 0
M  V30 13652 N 1411.59 0.596556 1.45873 0
M  V30 13653 C 1413 0.259317 1.57479 0
M  V30 13654 C 1413.2 -1.23829 1.58961 0
M  V30 13655 O 1412.26 -2.02076 1.51399 0
M  V30 13656 C 1413.57 0.920755 2.86256 0
M  V30 13657 C 1415.12 0.895638 2.99912 0
M  V30 13658 C 1415.59 1.53688 4.31444 0
M  V30 13659 N 1417.08 1.50186 4.38176 0
M  V30 13660 C 1417.82 1.96727 5.38596 0
M  V30 13661 N 1417.32 2.51304 6.45615 0
M  V30 13662 N 1419.11 1.87561 5.29884 0
M  V30 13663 H 1411.26 1.56909 1.43155 0
M  V30 13664 H 1413.52 0.656664 0.683737 0
M  V30 13665 H 1413.23 1.97481 2.91023 0
M  V30 13666 H 1413.1 0.437331 3.74656 0
M  V30 13667 H 1415.49 -0.149838 2.94719 0
M  V30 13668 H 1415.57 1.41722 2.12952 0
M  V30 13669 H 1415.21 2.58163 4.37395 0
M  V30 13670 H 1415.14 0.990408 5.17203 0
M  V30 13671 H 1417.64 1.10305 3.61443 0
M  V30 13672 H 1417.95 2.84639 7.18471 0
M  V30 13673 H 1416.29 2.55337 6.46396 0
M  V30 13674 H 1419.48 1.4467 4.45183 0
M  V30 13675 H 1419.66 2.24146 6.07999 0
M  V30 13676 N 1413.06 -1.53996 0.335095 0
M  V30 13677 C 1414.03 -2.23385 -0.513015 0
M  V30 13678 C 1415.03 -1.23117 -1.03435 0
M  V30 13679 O 1416.22 -1.47616 -0.924944 0
M  V30 13680 C 1413.35 -2.94691 -1.71377 0
M  V30 13681 H 1414.54 -2.99753 0.0937306 0
M  V30 13682 H 1412.09 -1.56061 0.086326 0
M  V30 13683 H 1412.83 -2.22488 -2.35944 0
M  V30 13684 H 1412.61 -3.68228 -1.34723 0
M  V30 13685 H 1414.1 -3.47525 -2.31552 0
M  V30 13686 N 1414.54 -0.0635198 -1.57472 0
M  V30 13687 C 1415.79 0.606285 -1.92792 0
M  V30 13688 C 1416.11 1.70648 -0.943615 0
M  V30 13689 O 1415.38 1.95898 0.00957612 0
M  V30 13690 H 1413.96 0.226943 -0.711692 0
M  V30 13691 H 1416.62 -0.119429 -1.94534 0
M  V30 13692 H 1415.72 1.03694 -2.9437 0
M  V30 13693 N 1416.02 1.56195 0.209972 0
M  V30 13694 C 1417.44 1.49446 0.56018 0
M  V30 13695 C 1417.64 0.760799 1.86585 0
M  V30 13696 O 1416.69 0.305201 2.50649 0
M  V30 13697 C 1418 2.94054 0.628687 0
M  V30 13698 C 1419.55 3.04641 0.718531 0
M  V30 13699 C 1420.03 4.50631 0.81828 0
M  V30 13700 N 1421.52 4.54721 0.8822 0
M  V30 13701 C 1422.25 5.64976 0.979292 0
M  V30 13702 N 1421.75 6.84955 1.03961 0
M  V30 13703 N 1423.54 5.52854 1.01533 0
M  V30 13704 H 1415.69 2.02316 -0.646674 0
M  V30 13705 H 1417.96 0.920063 -0.228446 0
M  V30 13706 H 1417.66 3.50728 -0.261324 0
M  V30 13707 H 1417.54 3.46592 1.48842 0
M  V30 13708 H 1419.92 2.48026 1.59898 0
M  V30 13709 H 1420 2.55254 -0.167102 0
M  V30 13710 H 1419.65 5.07867 -0.0577557 0
M  V30 13711 H 1419.58 4.97736 1.7195 0
M  V30 13712 H 1422.07 3.68322 0.845433 0
M  V30 13713 H 1422.38 7.64732 1.11379 0
M  V30 13714 H 1420.73 6.87643 1.00854 0
M  V30 13715 H 1423.92 4.58046 0.96494 0
M  V30 13716 H 1424.09 6.38809 1.08754 0
M  V30 13717 N 1417.5 -0.477127 1.50204 0
M  V30 13718 C 1418.75 -1.22722 1.60573 0
M  V30 13719 C 1419.07 -1.92595 0.305326 0
M  V30 13720 O 1418.34 -1.83836 -0.676842 0
M  V30 13721 H 1416.92 -0.455973 0.591691 0
M  V30 13722 H 1419.58 -0.550915 1.86952 0
M  V30 13723 H 1418.67 -1.97837 2.41385 0
M  V30 13724 N 1418.98 -1.3968 -0.729882 0
M  V30 13725 C 1420.22 -1.38389 -1.49064 0
M  V30 13726 C 1420.58 0.0186997 -1.92391 0
M  V30 13727 O 1419.87 0.986266 -1.64266 0
M  V30 13728 C 1420.06 -2.29499 -2.7398 0
M  V30 13729 C 1419.89 -3.78478 -2.42868 0
M  V30 13730 C 1418.66 -4.47375 -2.34911 0
M  V30 13731 C 1420.86 -4.70329 -2.08074 0
M  V30 13732 N 1418.84 -5.81662 -1.96324 0
M  V30 13733 C 1420.21 -5.93305 -1.79971 0
M  V30 13734 C 1422.27 -4.58302 -1.94586 0
M  V30 13735 C 1420.97 -7.05596 -1.3974 0
M  V30 13736 C 1423 -5.7052 -1.55758 0
M  V30 13737 C 1422.36 -6.92572 -1.28544 0
M  V30 13738 H 1418.46 -0.56167 -0.544106 0
M  V30 13739 H 1421.04 -1.75273 -0.847782 0
M  V30 13740 H 1419.21 -1.94765 -3.36037 0
M  V30 13741 H 1420.95 -2.19166 -3.40218 0
M  V30 13742 H 1417.7 -4.00878 -2.52178 0
M  V30 13743 H 1418.13 -6.5274 -1.79608 0
M  V30 13744 H 1422.77 -3.6447 -2.14292 0
M  V30 13745 H 1420.49 -7.99323 -1.18776 0
M  V30 13746 H 1424.07 -5.63204 -1.45921 0
M  V30 13747 H 1422.95 -7.77932 -0.989491 0
M  V30 13748 N 1420.45 0.960609 -1.2494 0
M  V30 13749 C 1421.4 2.05634 -1.04801 0
M  V30 13750 C 1422.37 1.66049 0.0409611 0
M  V30 13751 O 1423.56 1.90453 -0.115053 0
M  V30 13752 C 1420.7 3.38604 -0.666444 0
M  V30 13753 C 1419.81 3.91341 -1.82964 0
M  V30 13754 C 1418.94 5.1261 -1.39299 0
M  V30 13755 C 1417.98 5.57562 -2.52569 0
M  V30 13756 N 1417.12 6.70046 -2.09722 0
M  V30 13757 H 1421.96 2.22194 -1.9858 0
M  V30 13758 H 1419.5 1.08892 -0.988981 0
M  V30 13759 H 1421.46 4.15017 -0.426205 0
M  V30 13760 H 1420.09 3.21948 0.23435 0
M  V30 13761 H 1419.14 3.11502 -2.18335 0
M  V30 13762 H 1420.45 4.20656 -2.68049 0
M  V30 13763 H 1419.6 5.96421 -1.11205 0
M  V30 13764 H 1418.34 4.84997 -0.512779 0
M  V30 13765 H 1417.35 4.72319 -2.81415 0
M  V30 13766 H 1418.57 5.87186 -3.41159 0
M  V30 13767 H 1416.52 6.44153 -1.24109 0
M  V30 13768 H 1416.44 6.98846 -2.88357 0
M  V30 13769 H 1417.7 7.57281 -1.84787 0
M  V30 13770 N 1421.93 1.0643 1.16234 0
M  V30 13771 C 1423.21 0.695256 1.82827 0
M  V30 13772 C 1423.59 -0.823242 1.94386 0
M  V30 13773 O 1422.94 -1.73406 1.48804 0
M  V30 13774 C 1423.15 1.3988 3.19741 0
M  V30 13775 C 1424.5 1.54489 3.95498 0
M  V30 13776 O 1425.52 1.35882 3.29264 0
M  V30 13777 O 1424.38 1.85027 5.14225 0
M  V30 13778 H 1421.47 0.246285 0.789476 0
M  V30 13779 H 1424.02 1.16466 1.23426 0
M  V30 13780 H 1422.79 2.43419 3.06371 0
M  V30 13781 H 1422.41 0.91957 3.8682 0
M  V30 13782 N 1423.41 -1.329 0.847073 0
M  V30 13783 C 1424.66 -1.97803 0.447417 0
M  V30 13784 C 1424.99 -1.6691 -0.9927 0
M  V30 13785 O 1424.26 -0.953315 -1.69535 0
M  V30 13786 C 1424.55 -3.53657 0.678135 0
M  V30 13787 C 1424.4 -3.94207 2.16612 0
M  V30 13788 C 1425.72 -4.39909 0.129589 0
M  V30 13789 H 1422.84 -0.718514 0.164034 0
M  V30 13790 H 1425.48 -1.57407 1.0641 0
M  V30 13791 H 1423.63 -3.88198 0.153222 0
M  V30 13792 H 1425.3 -3.69883 2.75653 0
M  V30 13793 H 1423.55 -3.43641 2.64752 0
M  V30 13794 H 1424.22 -5.02791 2.27827 0
M  V30 13795 H 1426.69 -4.12061 0.578371 0
M  V30 13796 H 1425.57 -5.47963 0.320648 0
M  V30 13797 H 1425.83 -4.31391 -0.967167 0
M  V30 13798 N 1424.89 -0.604284 -1.45555 0
M  V30 13799 C 1425.85 0.106526 -2.28952 0
M  V30 13800 C 1426.85 0.798277 -1.39586 0
M  V30 13801 O 1428.04 0.646943 -1.61741 0
M  V30 13802 C 1425.17 1.16091 -3.20524 0
M  V30 13803 H 1426.37 -0.626655 -2.9328 0
M  V30 13804 H 1423.92 -0.363183 -1.52022 0
M  V30 13805 H 1424.65 1.92496 -2.6099 0
M  V30 13806 H 1424.44 0.669137 -3.86348 0
M  V30 13807 H 1425.93 1.65882 -3.8324 0
M  V30 13808 N 1426.37 1.53816 -0.343257 0
M  V30 13809 C 1427.61 2.00512 0.252845 0
M  V30 13810 C 1427.94 1.23274 1.51091 0
M  V30 13811 O 1427.21 0.339841 1.9293 0
M  V30 13812 H 1425.79 0.740751 0.0964202 0
M  V30 13813 H 1428.45 1.89288 -0.464347 0
M  V30 13814 H 1427.54 3.08142 0.495499 0
M  V30 13815 N 1427.84 0.0718701 1.57436 0
M  V30 13816 C 1428.81 -0.880671 2.11605 0
M  V30 13817 C 1429.81 -1.22632 1.0401 0
M  V30 13818 O 1431 -1.15958 1.29997 0
M  V30 13819 C 1428.13 -2.18407 2.61746 0
M  V30 13820 H 1429.32 -0.410712 2.97074 0
M  V30 13821 H 1426.88 -0.176836 1.55296 0
M  V30 13822 H 1427.61 -2.6994 1.79731 0
M  V30 13823 H 1427.4 -1.94616 3.40392 0
M  V30 13824 H 1428.89 -2.86596 3.03731 0
M  V30 13825 N 1429.32 -1.56304 -0.201686 0
M  V30 13826 C 1430.55 -1.84341 -0.939465 0
M  V30 13827 C 1430.97 -0.653544 -1.77128 0
M  V30 13828 O 1430.32 0.377813 -1.78546 0
M  V30 13829 C 1430.37 -3.11111 -1.84098 0
M  V30 13830 O 1430.09 -4.25509 -1.04276 0
M  V30 13831 C 1431.6 -3.52279 -2.69099 0
M  V30 13832 H 1428.82 -0.61232 -0.274419 0
M  V30 13833 H 1431.36 -2.03409 -0.210924 0
M  V30 13834 H 1429.51 -2.9396 -2.52322 0
M  V30 13835 H 1429.93 -4.97655 -1.6565 0
M  V30 13836 H 1431.4 -4.43965 -3.28023 0
M  V30 13837 H 1431.88 -2.74959 -3.42482 0
M  V30 13838 H 1432.49 -3.71939 -2.06256 0
M  V30 13839 N 1430.8 0.469154 -1.50455 0
M  V30 13840 C 1432.05 1.21868 -1.61222 0
M  V30 13841 C 1432.37 1.9243 -0.315535 0
M  V30 13842 O 1431.64 1.84192 0.667083 0
M  V30 13843 H 1430.22 0.452828 -0.594101 0
M  V30 13844 H 1432.88 0.540993 -1.87241 0
M  V30 13845 H 1431.98 1.96554 -2.42431 0
M  V30 13846 N 1432.28 1.40065 0.722464 0
M  V30 13847 C 1433.51 1.41271 1.51163 0
M  V30 13848 C 1433.92 0.0105425 1.88797 0
M  V30 13849 O 1433.28 -0.963867 1.5497 0
M  V30 13850 C 1433.33 2.29713 2.79131 0
M  V30 13851 O 1433.05 3.6447 2.43091 0
M  V30 13852 C 1434.55 2.39437 3.73075 0
M  V30 13853 H 1431.77 0.482086 0.466727 0
M  V30 13854 H 1434.32 1.84033 0.891736 0
M  V30 13855 H 1432.47 1.9033 3.37421 0
M  V30 13856 H 1432.88 4.11371 3.25383 0
M  V30 13857 H 1434.36 3.05543 4.59726 0
M  V30 13858 H 1434.84 1.41731 4.15703 0
M  V30 13859 H 1435.44 2.79342 3.20699 0
M  V30 13860 N 1433.76 -0.95397 1.25448 0
M  V30 13861 C 1434.99 -1.73331 1.12977 0
M  V30 13862 C 1435.4 -1.86131 -0.316364 0
M  V30 13863 O 1434.76 -1.35951 -1.21753 0
M  V30 13864 C 1434.81 -3.14675 1.77938 0
M  V30 13865 O 1434.53 -3.025 3.16899 0
M  V30 13866 C 1436.03 -4.08884 1.71256 0
M  V30 13867 H 1433.25 -0.543118 0.394036 0
M  V30 13868 H 1435.79 -1.19678 1.65823 0
M  V30 13869 H 1433.95 -3.6527 1.29062 0
M  V30 13870 H 1434.36 -3.91668 3.4885 0
M  V30 13871 H 1435.84 -5.05668 2.21368 0
M  V30 13872 H 1436.31 -4.33959 0.676476 0
M  V30 13873 H 1436.92 -3.64205 2.19624 0
M  V30 13874 N 1435.24 -1.07045 -1.15668 0
M  V30 13875 C 1436.17 -0.709413 -2.22463 0
M  V30 13876 C 1437.15 0.30169 -1.67403 0
M  V30 13877 O 1438.33 0.175131 -1.93409 0
M  V30 13878 C 1435.46 -0.103121 -3.47147 0
M  V30 13879 C 1434.42 -1.04103 -4.15146 0
M  V30 13880 C 1433.74 -0.297656 -5.33871 0
M  V30 13881 C 1435.04 -2.37332 -4.65264 0
M  V30 13882 H 1436.74 -1.60227 -2.52918 0
M  V30 13883 H 1434.28 -0.771846 -1.21567 0
M  V30 13884 H 1436.23 0.161371 -4.21091 0
M  V30 13885 H 1434.96 0.824792 -3.16014 0
M  V30 13886 H 1433.62 -1.2904 -3.43139 0
M  V30 13887 H 1433.27 0.633618 -4.98993 0
M  V30 13888 H 1432.97 -0.922789 -5.80309 0
M  V30 13889 H 1434.49 -0.0408892 -6.10586 0
M  V30 13890 H 1435.9 -2.1674 -5.30751 0
M  V30 13891 H 1434.3 -2.95412 -5.22352 0
M  V30 13892 H 1435.37 -2.99859 -3.81068 0
M  V30 13893 N 1436.71 1.32449 -0.85411 0
M  V30 13894 C 1437.94 2.01463 -0.471188 0
M  V30 13895 C 1438.36 1.64195 0.931954 0
M  V30 13896 O 1437.71 0.862994 1.60806 0
M  V30 13897 C 1437.76 3.56486 -0.600022 0
M  V30 13898 O 1437.49 3.92414 -1.94789 0
M  V30 13899 C 1438.99 4.42773 -0.216036 0
M  V30 13900 H 1436.21 0.644914 -0.185275 0
M  V30 13901 H 1438.75 1.6904 -1.1509 0
M  V30 13902 H 1436.91 3.87387 0.0319488 0
M  V30 13903 H 1437.32 4.87133 -1.94427 0
M  V30 13904 H 1438.79 5.50843 -0.357186 0
M  V30 13905 H 1439.27 4.31025 0.843468 0
M  V30 13906 H 1439.88 4.1726 -0.823058 0
M  V30 13907 N 1438.19 0.611994 1.45232 0
M  V30 13908 C 1439.44 0.109073 2.02506 0
M  V30 13909 C 1439.77 -1.25876 1.47881 0
M  V30 13910 O 1439.05 -1.83131 0.65524 0
M  V30 13911 C 1439.33 0.0749288 3.60022 0
M  V30 13912 C 1439.18 1.47374 4.24972 0
M  V30 13913 C 1440.5 -0.610602 4.35844 0
M  V30 13914 H 1437.62 0.0411101 0.735853 0
M  V30 13915 H 1440.26 0.78481 1.73034 0
M  V30 13916 H 1438.41 -0.500511 3.85262 0
M  V30 13917 H 1440.08 2.0966 4.10902 0
M  V30 13918 H 1438.33 2.03319 3.83202 0
M  V30 13919 H 1439 1.40206 5.33897 0
M  V30 13920 H 1441.47 -0.121445 4.15923 0
M  V30 13921 H 1440.35 -0.603614 5.45571 0
M  V30 13922 H 1440.61 -1.6775 4.09038 0
M  V30 13923 N 1439.67 -1.53632 0.351409 0
M  V30 13924 C 1441.09 -1.596 -0.000214515 0
M  V30 13925 C 1441.29 -1.36709 -1.4803 0
M  V30 13926 O 1440.34 -1.16524 -2.24006 0
M  V30 13927 C 1441.65 -2.97419 0.443013 0
M  V30 13928 C 1443.2 -3.10485 0.396025 0
M  V30 13929 C 1443.68 -4.50693 0.814843 0
M  V30 13930 N 1445.17 -4.56766 0.76934 0
M  V30 13931 C 1445.9 -5.63418 1.06526 0
M  V30 13932 N 1445.4 -6.77887 1.42974 0
M  V30 13933 N 1447.19 -5.53331 0.988986 0
M  V30 13934 H 1439.34 -1.66765 1.31542 0
M  V30 13935 H 1441.61 -0.781418 0.53674 0
M  V30 13936 H 1441.31 -3.19262 1.47529 0
M  V30 13937 H 1441.19 -3.76781 -0.177725 0
M  V30 13938 H 1443.57 -2.8836 -0.627092 0
M  V30 13939 H 1443.65 -2.33163 1.05207 0
M  V30 13940 H 1443.3 -4.73554 1.83601 0
M  V30 13941 H 1443.23 -5.26424 0.136193 0
M  V30 13942 H 1445.72 -3.74569 0.500623 0
M  V30 13943 H 1446.03 -7.55194 1.64018 0
M  V30 13944 H 1444.38 -6.79314 1.46827 0
M  V30 13945 H 1447.57 -4.62783 0.703526 0
M  V30 13946 H 1447.74 -6.36355 1.22295 0
M  V30 13947 N 1441.15 -0.0802183 -1.57396 0
M  V30 13948 C 1442.11 0.869437 -2.12069 0
M  V30 13949 C 1443.11 1.22079 -1.04658 0
M  V30 13950 O 1444.3 1.15267 -1.3061 0
M  V30 13951 C 1441.43 2.17016 -2.62901 0
M  V30 13952 H 1442.63 0.394952 -2.97288 0
M  V30 13953 H 1440.18 0.168597 -1.55388 0
M  V30 13954 H 1440.91 2.68983 -1.8116 0
M  V30 13955 H 1440.7 1.92808 -3.4142 0
M  V30 13956 H 1442.19 2.84982 -3.05246 0
M  V30 13957 N 1442.63 1.56409 0.193394 0
M  V30 13958 C 1443.85 1.84837 0.929676 0
M  V30 13959 C 1444.27 0.662928 1.76779 0
M  V30 13960 O 1443.63 -0.368339 1.78744 0
M  V30 13961 C 1443.68 3.12083 1.82445 0
M  V30 13962 O 1443.4 4.26056 1.02018 0
M  V30 13963 C 1444.9 3.53701 2.67227 0
M  V30 13964 H 1442.12 0.613766 0.271168 0
M  V30 13965 H 1444.66 2.03518 0.200134 0
M  V30 13966 H 1442.82 2.95294 2.5076 0
M  V30 13967 H 1443.23 4.98526 1.63008 0
M  V30 13968 H 1444.71 4.45699 3.25663 0
M  V30 13969 H 1445.18 2.76771 3.41019 0
M  V30 13970 H 1445.79 3.73027 2.04281 0
M  V30 13971 N 1444.1 -0.461169 1.50702 0
M  V30 13972 C 1445.07 -1.54032 1.69725 0
M  V30 13973 C 1446.07 -1.50445 0.567707 0
M  V30 13974 O 1447.26 -1.52889 0.834901 0
M  V30 13975 C 1444.39 -2.93642 1.73168 0
M  V30 13976 H 1445.58 -1.38478 2.66015 0
M  V30 13977 H 1443.13 -0.688235 1.40332 0
M  V30 13978 H 1443.87 -3.14629 0.786078 0
M  V30 13979 H 1443.65 -2.97652 2.55236 0
M  V30 13980 H 1445.14 -3.71972 1.89807 0
M  V30 13981 N 1445.58 -1.40446 -0.715026 0
M  V30 13982 C 1447 -1.22488 -1.02317 0
M  V30 13983 C 1447.2 -0.100481 -2.01249 0
M  V30 13984 O 1446.25 0.541447 -2.46626 0
M  V30 13985 C 1447.57 -2.56682 -1.56636 0
M  V30 13986 C 1449.11 -2.63699 -1.68617 0
M  V30 13987 C 1449.59 -3.98163 -2.26342 0
M  V30 13988 N 1451.08 -3.99907 -2.33727 0
M  V30 13989 C 1451.82 -5.00737 -2.79375 0
M  V30 13990 N 1451.31 -6.11961 -3.24771 0
M  V30 13991 N 1453.1 -4.88106 -2.78764 0
M  V30 13992 H 1445.26 -2.12317 -0.0592712 0
M  V30 13993 H 1447.52 -0.943823 -0.088895 0
M  V30 13994 H 1447.22 -3.39615 -0.914036 0
M  V30 13995 H 1447.1 -2.77809 -2.55151 0
M  V30 13996 H 1449.49 -1.81138 -2.32966 0
M  V30 13997 H 1449.57 -2.46402 -0.687004 0
M  V30 13998 H 1449.21 -4.81164 -1.62614 0
M  V30 13999 H 1449.14 -4.1279 -3.26974 0
M  V30 14000 H 1451.63 -3.19592 -2.01666 0
M  V30 14001 H 1451.94 -6.84787 -3.58171 0
M  V30 14002 H 1450.29 -6.15525 -3.22729 0
M  V30 14003 H 1453.48 -4.00307 -2.42635 0
M  V30 14004 H 1453.65 -5.66828 -3.14023 0
M  V30 14005 N 1447.06 0.947303 -1.25952 0
M  V30 14006 C 1448.29 1.7273 -1.13895 0
M  V30 14007 C 1448.7 1.86296 0.306488 0
M  V30 14008 O 1448.06 1.36594 1.2103 0
M  V30 14009 C 1448.11 3.13727 -1.79604 0
M  V30 14010 O 1447.83 3.00816 -3.18499 0
M  V30 14011 C 1449.33 4.0797 -1.73422 0
M  V30 14012 H 1446.55 0.54102 -0.39691 0
M  V30 14013 H 1449.1 1.18797 -1.66456 0
M  V30 14014 H 1447.25 3.6458 -1.30997 0
M  V30 14015 H 1447.67 3.89813 -3.50922 0
M  V30 14016 H 1449.14 5.04487 -2.24047 0
M  V30 14017 H 1449.62 4.33594 -0.699481 0
M  V30 14018 H 1450.22 3.63035 -2.21553 0
M  V30 14019 N 1448.54 1.07657 1.15099 0
M  V30 14020 C 1449.82 0.714608 1.82079 0
M  V30 14021 C 1450.2 -0.802578 1.95248 0
M  V30 14022 O 1449.54 -1.71818 1.50634 0
M  V30 14023 C 1449.75 1.43264 3.1824 0
M  V30 14024 C 1451.1 1.58675 3.93837 0
M  V30 14025 O 1452.13 1.39367 3.27804 0
M  V30 14026 O 1450.98 1.9047 5.12234 0
M  V30 14027 H 1448.08 0.254645 0.786819 0
M  V30 14028 H 1450.62 1.17768 1.22183 0
M  V30 14029 H 1449.4 2.46655 3.03772 0
M  V30 14030 H 1449.02 0.960546 3.85823 0
M  V30 14031 N 1450.02 -1.31994 0.861122 0
M  V30 14032 C 1451.26 -1.96636 0.466754 0
M  V30 14033 C 1451.59 -1.6845 -0.982328 0
M  V30 14034 O 1450.86 -0.995157 -1.68741 0
M  V30 14035 H 1449.44 -0.727489 0.169613 0
M  V30 14036 H 1452.1 -1.60962 1.09897 0
M  V30 14037 H 1451.19 -3.05937 0.61716 0
M  V30 14038 N 1451.49 -0.619688 -1.44906 0
M  V30 14039 C 1452.72 -0.126363 -2.06514 0
M  V30 14040 C 1453.14 1.19432 -1.46224 0
M  V30 14041 O 1452.49 1.7301 -0.580851 0
M  V30 14042 C 1452.55 0.00682319 -3.61499 0
M  V30 14043 O 1452.27 -1.26162 -4.19541 0
M  V30 14044 C 1453.77 0.530189 -4.40118 0
M  V30 14045 H 1450.99 -0.0744032 -0.666862 0
M  V30 14046 H 1453.53 -0.850851 -1.85959 0
M  V30 14047 H 1451.69 0.681694 -3.81355 0
M  V30 14048 H 1452.1 -1.09908 -5.12855 0
M  V30 14049 H 1453.57 0.572428 -5.49024 0
M  V30 14050 H 1454.05 1.55494 -4.10753 0
M  V30 14051 H 1454.66 -0.111044 -4.25155 0
M  V30 14052 N 1452.97 1.53444 -0.359552 0
M  V30 14053 C 1454.39 1.59598 -0.00824946 0
M  V30 14054 C 1454.59 1.37492 1.47303 0
M  V30 14055 O 1453.64 1.1771 2.23385 0
M  V30 14056 C 1454.96 2.9718 -0.45878 0
M  V30 14057 C 1456.51 3.1027 -0.412485 0
M  V30 14058 C 1456.98 4.50255 -0.838733 0
M  V30 14059 N 1458.47 4.56352 -0.793552 0
M  V30 14060 C 1459.21 5.62845 -1.09513 0
M  V30 14061 N 1458.7 6.77119 -1.46567 0
M  V30 14062 N 1460.5 5.52799 -1.01832 0
M  V30 14063 H 1452.65 1.66065 -1.32424 0
M  V30 14064 H 1454.91 0.778561 -0.540876 0
M  V30 14065 H 1454.62 3.18475 -1.4922 0
M  V30 14066 H 1454.49 3.7687 0.157741 0
M  V30 14067 H 1456.88 2.88689 0.611791 0
M  V30 14068 H 1456.96 2.32602 -1.06442 0
M  V30 14069 H 1456.6 4.72573 -1.8611 0
M  V30 14070 H 1456.53 5.26344 -0.164109 0
M  V30 14071 H 1459.02 3.74299 -0.52048 0
M  V30 14072 H 1459.34 7.54313 -1.68021 0
M  V30 14073 H 1457.68 6.78525 -1.50427 0
M  V30 14074 H 1460.87 4.62403 -0.728059 0
M  V30 14075 H 1461.04 6.35698 -1.25668 0
M  V30 14076 N 1454.45 0.0885642 1.57351 0
M  V30 14077 C 1455.68 -0.584389 1.98163 0
M  V30 14078 C 1456.09 -1.62664 0.966281 0
M  V30 14079 O 1455.43 -1.83623 -0.053226 0
M  V30 14080 C 1455.49 -1.2959 3.35331 0
M  V30 14081 C 1455.16 -0.405168 4.552 0
M  V30 14082 C 1456.15 0.344053 5.1876 0
M  V30 14083 C 1453.84 -0.325136 5.01247 0
M  V30 14084 C 1455.83 1.16135 6.26731 0
M  V30 14085 C 1453.52 0.495821 6.09085 0
M  V30 14086 C 1454.52 1.23772 6.71691 0
M  V30 14087 O 1454.21 2.04511 7.77451 0
M  V30 14088 H 1453.94 -0.161852 0.656338 0
M  V30 14089 H 1456.49 0.162558 2.04756 0
M  V30 14090 H 1454.72 -2.08928 3.25401 0
M  V30 14091 H 1456.41 -1.86274 3.60634 0
M  V30 14092 H 1457.18 0.291916 4.84121 0
M  V30 14093 H 1453.06 -0.892245 4.52283 0
M  V30 14094 H 1456.6 1.74093 6.75528 0
M  V30 14095 H 1452.5 0.549463 6.43157 0
M  V30 14096 H 1453.27 1.97123 7.94409 0
M  V30 14097 N 1455.93 -1.56509 -0.185096 0
M  V30 14098 C 1457.34 -1.50318 -0.536334 0
M  V30 14099 C 1457.54 -0.790387 -1.85351 0
M  V30 14100 O 1456.6 -0.345039 -2.50131 0
M  V30 14101 C 1457.91 -2.95017 -0.581825 0
M  V30 14102 C 1459.46 -3.05746 -0.669974 0
M  V30 14103 C 1459.94 -4.51876 -0.746485 0
M  V30 14104 N 1461.43 -4.56067 -0.809746 0
M  V30 14105 C 1462.16 -5.66462 -0.889286 0
M  V30 14106 N 1461.66 -6.86523 -0.930509 0
M  V30 14107 N 1463.45 -5.54399 -0.927246 0
M  V30 14108 H 1455.6 -2.01262 0.678778 0
M  V30 14109 H 1457.87 -0.916313 0.243054 0
M  V30 14110 H 1457.57 -3.50268 0.317089 0
M  V30 14111 H 1457.45 -3.48916 -1.43309 0
M  V30 14112 H 1459.83 -2.50538 -1.55932 0
M  V30 14113 H 1459.91 -2.54955 0.207689 0
M  V30 14114 H 1459.56 -5.07711 0.138546 0
M  V30 14115 H 1459.49 -5.00408 -1.6401 0
M  V30 14116 H 1461.98 -3.6962 -0.786729 0
M  V30 14117 H 1462.29 -7.66407 -0.991992 0
M  V30 14118 H 1460.64 -6.89161 -0.899017 0
M  V30 14119 H 1463.83 -4.59524 -0.891947 0
M  V30 14120 H 1464 -6.40458 -0.985773 0
M  V30 14121 N 1457.41 0.45317 -1.50944 0
M  V30 14122 C 1458.37 1.5313 -1.7054 0
M  V30 14123 C 1459.37 1.50142 -0.575678 0
M  V30 14124 O 1460.56 1.52444 -0.842997 0
M  V30 14125 C 1457.69 2.92719 -1.74723 0
M  V30 14126 H 1458.88 1.37066 -2.66745 0
M  V30 14127 H 1456.44 0.680783 -1.40695 0
M  V30 14128 H 1457.17 3.14208 -0.802753 0
M  V30 14129 H 1456.96 2.96295 -2.56811 0
M  V30 14130 H 1458.45 3.7096 -1.91777 0
M  V30 14131 N 1458.88 1.40823 0.707568 0
M  V30 14132 C 1460.13 1.39741 1.4697 0
M  V30 14133 C 1460.46 0.00231194 1.942 0
M  V30 14134 O 1459.74 -0.967798 1.68713 0
M  V30 14135 C 1460.02 2.39385 2.69011 0
M  V30 14136 C 1459.87 3.87953 2.27624 0
M  V30 14137 C 1461.19 2.3645 3.71186 0
M  V30 14138 H 1458.31 0.508904 0.533091 0
M  V30 14139 H 1460.95 1.72015 0.806888 0
M  V30 14140 H 1459.1 2.11993 3.25563 0
M  V30 14141 H 1460.78 4.26202 1.76492 0
M  V30 14142 H 1459.02 4.03399 1.59537 0
M  V30 14143 H 1459.69 4.53201 3.15139 0
M  V30 14144 H 1462.17 2.60731 3.24282 0
M  V30 14145 H 1461.04 3.08204 4.54204 0
M  V30 14146 H 1461.3 1.3789 4.20046 0
M  V30 14147 N 1460.36 -0.94061 1.26453 0
M  V30 14148 C 1461.61 -1.68687 1.12031 0
M  V30 14149 C 1461.94 -1.91571 -0.336252 0
M  V30 14150 O 1461.19 -1.49458 -1.26336 0
M  V30 14151 C 1461.49 -3.06683 1.83521 0
M  V30 14152 C 1461.16 -3.03553 3.33416 0
M  V30 14153 C 1459.82 -3.02407 3.74304 0
M  V30 14154 C 1462.17 -2.95817 4.29118 0
M  V30 14155 C 1459.5 -2.9129 5.09281 0
M  V30 14156 C 1461.85 -2.86242 5.64135 0
M  V30 14157 C 1460.52 -2.83438 6.04333 0
M  V30 14158 H 1459.79 -0.61727 0.40995 0
M  V30 14159 H 1462.43 -1.0979 1.56902 0
M  V30 14160 H 1460.74 -3.69208 1.31121 0
M  V30 14161 H 1462.43 -3.63274 1.69802 0
M  V30 14162 H 1459.02 -3.05226 3.00891 0
M  V30 14163 H 1463.21 -2.9581 3.9851 0
M  V30 14164 H 1458.46 -2.87498 5.39588 0
M  V30 14165 H 1462.64 -2.79219 6.37973 0
M  V30 14166 H 1460.27 -2.74581 7.08879 0
M  V30 14167 N 1461.84 -1.08266 -1.14527 0
M  V30 14168 C 1463.07 -0.83288 -1.89396 0
M  V30 14169 C 1463.48 0.614823 -1.78509 0
M  V30 14170 O 1462.84 1.42239 -1.14343 0
M  V30 14171 C 1462.89 -1.244 -3.39421 0
M  V30 14172 O 1462.61 -2.63491 -3.50006 0
M  V30 14173 C 1464.11 -1.02488 -4.3129 0
M  V30 14174 H 1461.33 -0.300474 -0.599964 0
M  V30 14175 H 1463.88 -1.44155 -1.4505 0
M  V30 14176 H 1462.03 -0.679466 -3.81395 0
M  V30 14177 H 1462.45 -2.80517 -4.43182 0
M  V30 14178 H 1463.92 -1.36194 -5.34935 0
M  V30 14179 H 1464.4 0.0381961 -4.39183 0
M  V30 14180 H 1465 -1.57477 -3.95071 0
M  V30 14181 N 1463.32 1.31536 -0.86811 0
M  V30 14182 C 1464.27 2.30504 -0.311581 0
M  V30 14183 C 1465.26 1.59439 0.572332 0
M  V30 14184 O 1466.47 1.74059 0.458639 0
M  V30 14185 H 1462.84 0.747508 -0.0820745 0
M  V30 14186 H 1464.81 2.74919 -1.16026 0
M  V30 14187 C 1463.56 3.44459 0.473622 0
M  V30 14188 H 1462.89 3.99313 -0.197259 0
M  V30 14189 H 1464.33 4.15829 0.828393 0
M  V30 14190 C 1462.78 2.92929 1.66416 0
M  V30 14191 O 1463.31 2.91543 2.76344 0
M  V30 14192 N 1461.52 2.49154 1.49568 0
M  V30 14193 H 1461.07 2.50481 0.601408 0
M  V30 14194 H 1461.03 2.15032 2.29366 0
M  V30 14195 N 1464.8 0.627364 1.44575 0
M  V30 14196 C 1465.76 -0.0700881 2.29093 0
M  V30 14197 C 1466.76 -0.775969 1.40838 0
M  V30 14198 O 1467.95 -0.621129 1.6275 0
M  V30 14199 C 1465.08 -1.10977 3.2233 0
M  V30 14200 H 1466.28 0.673234 2.92246 0
M  V30 14201 H 1463.83 0.387322 1.51425 0
M  V30 14202 H 1464.56 -1.8832 2.64019 0
M  V30 14203 H 1464.35 -0.607587 3.87364 0
M  V30 14204 H 1465.84 -1.59764 3.8583 0
M  V30 14205 N 1466.28 -1.53251 0.367684 0
M  V30 14206 C 1467.24 -2.24423 -0.465516 0
M  V30 14207 C 1468.24 -1.25283 -1.00801 0
M  V30 14208 O 1469.43 -1.49545 -0.893424 0
M  V30 14209 C 1466.56 -2.9826 -1.65087 0
M  V30 14210 H 1467.75 -2.99487 0.157292 0
M  V30 14211 H 1465.31 -1.55843 0.119409 0
M  V30 14212 H 1466.04 -2.27443 -2.31171 0
M  V30 14213 H 1465.83 -3.71003 -1.26882 0
M  V30 14214 H 1467.32 -3.52358 -2.24128 0
M  V30 14215 N 1467.75 -0.0969077 -1.57302 0
M  V30 14216 C 1469 0.565254 -1.94034 0
M  V30 14217 C 1469.32 1.68609 -0.9796 0
M  V30 14218 O 1468.59 1.95874 -0.0319788 0
M  V30 14219 H 1467.17 0.211796 -0.716346 0
M  V30 14220 H 1469.83 -0.160665 -1.94237 0
M  V30 14221 H 1468.93 0.974268 -2.96504 0
M  V30 14222 N 1469.23 1.56605 0.176793 0
M  V30 14223 C 1470.46 1.8617 0.91408 0
M  V30 14224 C 1470.88 0.68262 1.75277 0
M  V30 14225 O 1470.24 -0.368391 1.77518 0
M  V30 14226 C 1470.29 3.14109 1.7711 0
M  V30 14227 O 1469.39 2.95947 2.87209 0
M  V30 14228 H 1468.73 0.612507 0.25638 0
M  V30 14229 H 1471.26 2.03837 0.176586 0
M  V30 14230 H 1471.27 3.45373 2.17213 0
M  V30 14231 H 1469.95 3.9954 1.15502 0
M  V30 14232 H 1468.52 2.76024 2.50729 0
M  V30 14233 N 1470.71 -0.445159 1.51182 0
M  V30 14234 C 1471.96 -1.19701 1.63705 0
M  V30 14235 C 1472.29 -1.91047 0.348511 0
M  V30 14236 O 1471.56 -1.83264 -0.651497 0
M  V30 14237 C 1471.85 -2.22021 2.83511 0
M  V30 14238 C 1471.7 -1.54809 4.2232 0
M  V30 14239 C 1473.02 -3.23083 2.9884 0
M  V30 14240 H 1470.14 -0.433818 0.595795 0
M  V30 14241 H 1472.78 -0.487276 1.83645 0
M  V30 14242 H 1470.93 -2.82551 2.66641 0
M  V30 14243 H 1472.6 -0.976774 4.5084 0
M  V30 14244 H 1470.84 -0.850596 4.25379 0
M  V30 14245 H 1471.52 -2.29289 5.02126 0
M  V30 14246 H 1473.99 -2.72601 3.14369 0
M  V30 14247 H 1472.87 -3.91978 3.84246 0
M  V30 14248 H 1473.13 -3.88732 2.1057 0
M  V30 14249 N 1472.19 -1.41197 -0.700089 0
M  V30 14250 C 1473.1 -1.45038 -1.84394 0
M  V30 14251 C 1474.11 -0.34141 -1.70618 0
M  V30 14252 O 1475.29 -0.588428 -1.92612 0
M  V30 14253 C 1472.35 -1.32611 -3.20336 0
M  V30 14254 C 1471.42 -2.53784 -3.46254 0
M  V30 14255 C 1470.65 -2.4194 -4.75711 0
M  V30 14256 O 1470.87 -1.44153 -5.51884 0
M  V30 14257 O 1469.81 -3.31613 -5.02311 0
M  V30 14258 H 1473.63 -2.41531 -1.8411 0
M  V30 14259 H 1471.22 -1.22686 -0.852558 0
M  V30 14260 H 1473.1 -1.27947 -4.01507 0
M  V30 14261 H 1471.77 -0.392309 -3.21314 0
M  V30 14262 H 1470.68 -2.64024 -2.65032 0
M  V30 14263 H 1472.01 -3.45977 -3.50087 0
M  V30 14264 N 1473.67 0.933891 -1.2695 0
M  V30 14265 C 1474.89 1.72042 -1.15828 0
M  V30 14266 C 1475.32 1.85975 0.28193 0
M  V30 14267 O 1474.67 1.35528 1.20423 0
M  V30 14268 C 1474.72 3.10112 -1.84019 0
M  V30 14269 O 1473.83 3.96504 -1.13394 0
M  V30 14270 H 1473.17 0.527573 -0.40319 0
M  V30 14271 H 1475.7 1.16914 -1.67905 0
M  V30 14272 H 1475.71 3.60461 -1.91133 0
M  V30 14273 H 1474.38 2.99287 -2.8879 0
M  V30 14274 H 1472.96 3.54948 -1.14307 0
M  V30 14275 N 1475.14 1.08871 1.13951 0
M  V30 14276 C 1476.11 0.726655 2.17376 0
M  V30 14277 C 1477.11 -0.240922 1.58985 0
M  V30 14278 O 1478.3 -0.0198472 1.74189 0
M  V30 14279 C 1475.43 0.0736505 3.4082 0
M  V30 14280 H 1476.62 1.64254 2.5092 0
M  V30 14281 H 1474.17 0.887183 1.28681 0
M  V30 14282 H 1474.91 -0.853733 3.12861 0
M  V30 14283 H 1474.69 0.769782 3.84469 0
M  V30 14284 H 1476.18 -0.164465 4.17276 0
M  V30 14285 N 1476.62 -1.31073 0.875073 0
M  V30 14286 C 1477.87 -1.96809 0.489273 0
M  V30 14287 C 1478.2 -1.68979 -0.957073 0
M  V30 14288 O 1477.48 -0.989061 -1.67475 0
M  V30 14289 C 1477.76 -3.52139 0.752998 0
M  V30 14290 C 1477.61 -3.89524 2.24925 0
M  V30 14291 C 1478.93 -4.39535 0.222871 0
M  V30 14292 H 1476.05 -0.714873 0.179238 0
M  V30 14293 H 1478.69 -1.55114 1.09725 0
M  V30 14294 H 1476.84 -3.87785 0.23553 0
M  V30 14295 H 1478.51 -3.63953 2.83436 0
M  V30 14296 H 1476.76 -3.37948 2.71981 0
M  V30 14297 H 1477.43 -4.97845 2.38441 0
M  V30 14298 H 1479.9 -4.10741 0.665645 0
M  V30 14299 H 1478.78 -5.47159 0.436806 0
M  V30 14300 H 1479.04 -4.33346 -0.875445 0
M  V30 14301 N 1478.1 -0.635022 -1.4424 0
M  V30 14302 C 1479.35 -0.141276 -2.02307 0
M  V30 14303 C 1479.68 1.23508 -1.49865 0
M  V30 14304 O 1478.95 1.82065 -0.684291 0
M  V30 14305 C 1479.24 -0.132196 -3.59857 0
M  V30 14306 C 1479.09 -1.54117 -4.22573 0
M  V30 14307 C 1480.41 0.541186 -4.3676 0
M  V30 14308 H 1477.53 -0.0528117 -0.735105 0
M  V30 14309 H 1480.17 -0.812239 -1.71763 0
M  V30 14310 H 1478.32 0.439156 -3.8601 0
M  V30 14311 H 1479.99 -2.16171 -4.07514 0
M  V30 14312 H 1478.24 -2.09389 -3.79919 0
M  V30 14313 H 1478.91 -1.48682 -5.31599 0
M  V30 14314 H 1481.38 0.0552603 -4.16063 0
M  V30 14315 H 1480.26 0.516742 -5.46462 0
M  V30 14316 H 1480.52 1.61222 -4.11655 0
M  V30 14317 N 1479.58 1.53054 -0.375806 0
M  V30 14318 C 1480.99 1.5958 -0.0251765 0
M  V30 14319 C 1481.19 1.39047 1.45836 0
M  V30 14320 O 1480.25 1.20073 2.22123 0
M  V30 14321 C 1481.56 2.96676 -0.490274 0
M  V30 14322 C 1483.11 3.09815 -0.44537 0
M  V30 14323 C 1483.59 4.4934 -0.886442 0
M  V30 14324 N 1485.08 4.55484 -0.84191 0
M  V30 14325 C 1485.81 5.61652 -1.15476 0
M  V30 14326 N 1485.31 6.75526 -1.53741 0
M  V30 14327 N 1487.1 5.51688 -1.07689 0
M  V30 14328 H 1479.25 1.64651 -1.34178 0
M  V30 14329 H 1481.52 0.77278 -0.549104 0
M  V30 14330 H 1481.22 3.16874 -1.52589 0
M  V30 14331 H 1481.1 3.77016 0.11776 0
M  V30 14332 H 1483.48 2.89321 0.581138 0
M  V30 14333 H 1483.56 2.3146 -1.08903 0
M  V30 14334 H 1483.21 4.70573 -1.91111 0
M  V30 14335 H 1483.14 5.26141 -0.219925 0
M  V30 14336 H 1485.63 3.73725 -0.56015 0
M  V30 14337 H 1485.94 7.52489 -1.76012 0
M  V30 14338 H 1484.29 6.76892 -1.57616 0
M  V30 14339 H 1487.48 4.61605 -0.777062 0
M  V30 14340 H 1487.65 6.34329 -1.32403 0
M  V30 14341 N 1481.06 0.105248 1.57248 0
M  V30 14342 C 1481.99 -0.846915 2.176 0
M  V30 14343 C 1482.97 -1.28706 1.11216 0
M  V30 14344 O 1484.15 -1.35213 1.39396 0
M  V30 14345 C 1481.28 -2.10228 2.76445 0
M  V30 14346 C 1480.24 -1.80041 3.8829 0
M  V30 14347 C 1479.56 -3.12491 4.33882 0
M  V30 14348 C 1480.86 -1.07943 5.11024 0
M  V30 14349 H 1482.56 -0.344052 2.97417 0
M  V30 14350 H 1480.1 -0.164045 1.43063 0
M  V30 14351 H 1482.06 -2.77284 3.17319 0
M  V30 14352 H 1480.78 -2.62815 1.93897 0
M  V30 14353 H 1479.44 -1.15379 3.4797 0
M  V30 14354 H 1479.09 -3.62985 3.48211 0
M  V30 14355 H 1478.79 -2.93072 5.09296 0
M  V30 14356 H 1480.31 -3.80688 4.77398 0
M  V30 14357 H 1481.72 -1.65127 5.49004 0
M  V30 14358 H 1480.12 -0.986674 5.91933 0
M  V30 14359 H 1481.19 -0.0638511 4.84858 0
M  V30 14360 N 1482.53 -1.56697 -0.168486 0
M  V30 14361 C 1483.76 -1.86292 -0.900152 0
M  V30 14362 C 1484.18 -0.690968 -1.75702 0
M  V30 14363 O 1483.53 0.339855 -1.79308 0
M  V30 14364 C 1483.59 -3.14946 -1.77457 0
M  V30 14365 O 1483.31 -4.27625 -0.952267 0
M  V30 14366 C 1484.81 -3.57908 -2.61566 0
M  V30 14367 H 1482.03 -0.618003 -0.261369 0
M  V30 14368 H 1484.57 -2.03811 -0.16773 0
M  V30 14369 H 1482.73 -2.99246 -2.4603 0
M  V30 14370 H 1483.14 -5.01057 -1.55056 0
M  V30 14371 H 1484.61 -4.50823 -3.18532 0
M  V30 14372 H 1485.09 -2.82162 -3.36573 0
M  V30 14373 H 1485.7 -3.7623 -1.98321 0
M  V30 14374 N 1484.01 0.437135 -1.51416 0
M  V30 14375 C 1485.26 1.18831 -1.64338 0
M  V30 14376 C 1485.59 1.9086 -0.358638 0
M  V30 14377 O 1484.87 1.83607 0.641769 0
M  V30 14378 C 1485.15 2.20515 -2.84685 0
M  V30 14379 C 1485 1.52568 -4.23135 0
M  V30 14380 C 1486.32 3.21494 -3.00549 0
M  V30 14381 H 1483.44 0.430652 -0.598087 0
M  V30 14382 H 1486.08 0.47753 -1.83901 0
M  V30 14383 H 1484.23 2.81132 -2.68136 0
M  V30 14384 H 1485.9 0.952851 -4.51352 0
M  V30 14385 H 1484.15 0.828025 -4.25824 0
M  V30 14386 H 1484.82 2.26623 -5.03335 0
M  V30 14387 H 1487.29 2.7093 -3.1581 0
M  V30 14388 H 1486.17 3.89934 -3.86319 0
M  V30 14389 H 1486.43 3.8761 -2.12629 0
M  V30 14390 N 1485.49 1.41566 0.692592 0
M  V30 14391 C 1486.4 1.46014 1.83622 0
M  V30 14392 C 1487.42 0.350453 1.70434 0
M  V30 14393 O 1488.59 0.598634 1.92298 0
M  V30 14394 C 1485.66 1.34308 3.19628 0
M  V30 14395 C 1484.72 2.55617 3.44904 0
M  V30 14396 C 1483.95 2.4446 4.74421 0
M  V30 14397 O 1484.17 1.47078 5.51112 0
M  V30 14398 O 1483.11 3.34272 5.00546 0
M  V30 14399 H 1486.93 2.42504 1.82826 0
M  V30 14400 H 1484.52 1.23136 0.846039 0
M  V30 14401 H 1486.4 1.30075 4.00822 0
M  V30 14402 H 1485.08 0.409343 3.21101 0
M  V30 14403 H 1483.98 2.65426 2.63628 0
M  V30 14404 H 1485.32 3.47829 3.48247 0
M  V30 14405 N 1486.97 -0.927146 1.27443 0
M  V30 14406 C 1488.38 -1.20319 1.0486 0
M  V30 14407 C 1488.58 -2.00323 -0.217491 0
M  V30 14408 O 1487.64 -2.35032 -0.922833 0
M  V30 14409 C 1488.95 -1.9508 2.28833 0
M  V30 14410 C 1490.5 -2.08016 2.33877 0
M  V30 14411 C 1490.98 -2.86183 3.5758 0
M  V30 14412 N 1492.47 -2.93751 3.58141 0
M  V30 14413 C 1493.2 -3.54698 4.5053 0
M  V30 14414 N 1492.7 -4.17032 5.53223 0
M  V30 14415 N 1494.49 -3.52107 4.38152 0
M  V30 14416 H 1486.64 -0.392671 2.08739 0
M  V30 14417 H 1488.91 -0.236323 0.918072 0
M  V30 14418 H 1488.61 -1.43712 3.20998 0
M  V30 14419 H 1488.49 -2.95692 2.34193 0
M  V30 14420 H 1490.87 -2.5857 1.42217 0
M  V30 14421 H 1490.95 -1.06622 2.3252 0
M  V30 14422 H 1490.6 -2.36312 4.49576 0
M  V30 14423 H 1490.53 -3.87863 3.56188 0
M  V30 14424 H 1493.02 -2.49449 2.83872 0
M  V30 14425 H 1493.33 -4.61477 6.19886 0
M  V30 14426 H 1491.68 -4.15576 5.57065 0
M  V30 14427 H 1494.87 -3.02611 3.57134 0
M  V30 14428 H 1495.04 -3.99315 5.10344 0
M  V30 14429 N 1488.45 -1.09474 -1.13372 0
M  V30 14430 C 1489.41 -0.738173 -2.16988 0
M  V30 14431 C 1490.41 0.232488 -1.5911 0
M  V30 14432 O 1491.6 0.0106093 -1.74197 0
M  V30 14433 C 1488.73 -0.091724 -3.40777 0
M  V30 14434 H 1489.92 -1.65582 -2.50045 0
M  V30 14435 H 1487.48 -0.893994 -1.28209 0
M  V30 14436 H 1488.21 0.837129 -3.13309 0
M  V30 14437 H 1488 -0.790161 -3.84056 0
M  V30 14438 H 1489.49 0.142334 -4.17357 0
M  V30 14439 N 1489.92 1.30607 -0.882012 0
M  V30 14440 C 1490.89 2.26489 -0.351498 0
M  V30 14441 C 1491.89 1.52686 0.504348 0
M  V30 14442 O 1493.08 1.71385 0.311928 0
M  V30 14443 C 1490.21 3.37222 0.499435 0
M  V30 14444 H 1491.4 2.74929 -1.19809 0
M  V30 14445 H 1488.96 1.41746 -0.658616 0
M  V30 14446 H 1489.69 2.94093 1.36673 0
M  V30 14447 H 1489.48 3.91936 -0.11356 0
M  V30 14448 H 1490.97 4.08596 0.862497 0
M  V30 14449 N 1491.4 0.642663 1.43901 0
M  V30 14450 C 1492.81 0.232809 1.85243 0
M  V30 14451 C 1493.16 -1.21834 1.53789 0
M  V30 14452 O 1492.29 -1.92855 0.981625 0
M  V30 14453 C 1492.88 0.415749 3.36239 0
M  V30 14454 C 1491.44 0.0603055 3.76352 0
M  V30 14455 C 1490.59 0.723658 2.67691 0
M  V30 14456 H 1493.54 0.847052 1.34204 0
M  V30 14457 H 1493.56 -0.341903 3.78961 0
M  V30 14458 H 1493.07 1.472 3.59101 0
M  V30 14459 H 1491.18 -0.993761 3.59103 0
M  V30 14460 H 1491.29 0.478408 4.76705 0
M  V30 14461 H 1489.65 0.15787 2.5421 0
M  V30 14462 H 1490.44 1.78273 2.93383 0
M  V30 14463 N 1492.88 -1.52852 0.383918 0
M  V30 14464 C 1494.13 -2.01809 -0.200285 0
M  V30 14465 C 1494.46 -1.27009 -1.46909 0
M  V30 14466 O 1493.74 -0.369002 -1.90968 0
M  V30 14467 C 1494.02 -3.56971 -0.473672 0
M  V30 14468 C 1493.87 -4.42446 0.810048 0
M  V30 14469 C 1495.19 -4.21481 -1.26658 0
M  V30 14470 H 1492.31 -0.733541 -0.0713192 0
M  V30 14471 H 1494.95 -1.8296 0.512425 0
M  V30 14472 H 1493.1 -3.73163 -1.08081 0
M  V30 14473 H 1494.77 -4.38016 1.44706 0
M  V30 14474 H 1493.02 -4.09674 1.42652 0
M  V30 14475 H 1493.69 -5.49013 0.573478 0
M  V30 14476 H 1496.16 -4.09233 -0.752806 0
M  V30 14477 H 1495.04 -5.30037 -1.42661 0
M  V30 14478 H 1495.3 -3.78756 -2.28028 0
M  V30 14479 N 1494.36 -0.113586 -1.5719 0
M  V30 14480 C 1495.61 0.546529 -1.95297 0
M  V30 14481 C 1495.94 1.66674 -0.996671 0
M  V30 14482 O 1495.21 1.94472 -0.0329298 0
M  V30 14483 C 1495.5 1.08433 -3.43387 0
M  V30 14484 C 1495.35 -0.0320929 -4.49789 0
M  V30 14485 C 1496.67 1.97691 -3.932 0
M  V30 14486 H 1493.79 0.197195 -0.710129 0
M  V30 14487 H 1496.43 -0.188048 -1.89067 0
M  V30 14488 H 1494.58 1.71033 -3.48827 0
M  V30 14489 H 1496.25 -0.66716 -4.5645 0
M  V30 14490 H 1494.49 -0.695983 -4.2818 0
M  V30 14491 H 1495.17 0.385341 -5.50653 0
M  V30 14492 H 1497.64 1.4497 -3.90029 0
M  V30 14493 H 1496.52 2.3224 -4.97349 0
M  V30 14494 H 1496.78 2.90137 -3.33576 0
M  V30 14495 N 1495.84 1.56784 0.160173 0
M  V30 14496 C 1497.07 1.86767 0.89026 0
M  V30 14497 C 1497.48 0.700276 1.75333 0
M  V30 14498 O 1496.84 -0.330342 1.79485 0
M  V30 14499 C 1496.89 3.15883 1.75784 0
M  V30 14500 O 1496.61 4.28124 0.929575 0
M  V30 14501 C 1498.11 3.5929 2.59664 0
M  V30 14502 H 1495.33 0.61938 0.258088 0
M  V30 14503 H 1497.87 2.03897 0.156919 0
M  V30 14504 H 1496.03 3.00546 2.4444 0
M  V30 14505 H 1496.44 5.01872 1.52397 0
M  V30 14506 H 1497.92 4.52506 3.16136 0
M  V30 14507 H 1498.39 2.83943 3.35072 0
M  V30 14508 H 1499 3.77277 1.96323 0
M  V30 14509 N 1497.32 -0.429099 1.51646 0
M  V30 14510 C 1498.25 -1.53996 1.69758 0
M  V30 14511 C 1499.26 -1.52189 0.578138 0
M  V30 14512 O 1500.45 -1.56816 0.852709 0
M  V30 14513 C 1497.55 -2.9291 1.7046 0
M  V30 14514 C 1496.72 -3.19132 2.99122 0
M  V30 14515 C 1495.78 -4.37813 2.91901 0
M  V30 14516 O 1494.81 -4.36065 3.65836 0
M  V30 14517 N 1496.01 -5.41834 2.08317 0
M  V30 14518 H 1498.77 -1.38861 2.65589 0
M  V30 14519 H 1496.34 -0.618148 1.49635 0
M  V30 14520 H 1498.33 -3.7034 1.63187 0
M  V30 14521 H 1496.9 -3.01602 0.821877 0
M  V30 14522 H 1496.12 -2.29926 3.20199 0
M  V30 14523 H 1497.41 -3.33483 3.84274 0
M  V30 14524 H 1496.8 -5.46094 1.4764 0
M  V30 14525 H 1495.36 -6.18085 2.06917 0
M  V30 14526 N 1498.79 -1.41931 -0.685074 0
M  V30 14527 C 1499.74 -1.41066 -1.79121 0
M  V30 14528 C 1500.73 -0.283467 -1.58383 0
M  V30 14529 O 1501.92 -0.524931 -1.69037 0
M  V30 14530 C 1499.05 -1.30551 -3.17508 0
M  V30 14531 C 1498.13 -2.48174 -3.43905 0
M  V30 14532 N 1498.53 -3.73621 -3.40941 0
M  V30 14533 C 1496.82 -2.42213 -3.74498 0
M  V30 14534 C 1497.52 -4.51693 -3.66536 0
M  V30 14535 N 1496.5 -3.81955 -3.86796 0
M  V30 14536 H 1500.3 -2.35965 -1.75208 0
M  V30 14537 H 1497.82 -1.36135 -0.885498 0
M  V30 14538 H 1499.81 -1.28013 -3.9676 0
M  V30 14539 H 1498.47 -0.366454 -3.22625 0
M  V30 14540 H 1499.48 -4.0636 -3.21079 0
M  V30 14541 H 1496.16 -1.56835 -3.86923 0
M  V30 14542 H 1497.55 -5.60654 -3.70292 0
M  V30 14543 N 1500.27 0.920374 -1.27933 0
M  V30 14544 C 1501.68 1.48385 -1.13309 0
M  V30 14545 C 1502.03 1.94202 0.279307 0
M  V30 14546 O 1501.16 1.81855 1.17294 0
M  V30 14547 C 1501.75 2.69681 -2.05079 0
M  V30 14548 C 1500.31 3.22229 -1.94539 0
M  V30 14549 C 1499.46 1.94948 -1.97207 0
M  V30 14550 H 1502.41 0.733744 -1.40719 0
M  V30 14551 H 1502.43 3.44717 -1.6109 0
M  V30 14552 H 1501.94 2.36304 -3.07867 0
M  V30 14553 H 1500.04 3.60348 -0.94764 0
M  V30 14554 H 1500.16 3.87927 -2.81157 0
M  V30 14555 H 1498.52 2.1176 -1.41527 0
M  V30 14556 H 1499.3 1.63875 -3.01662 0
M  V30 14557 N 1501.75 1.10074 1.1279 0
M  V30 14558 C 1502.71 0.74967 2.16593 0
M  V30 14559 C 1503.71 -0.224046 1.59232 0
M  V30 14560 O 1504.9 -0.00137104 1.742 0
M  V30 14561 C 1502.03 0.109795 3.40723 0
M  V30 14562 H 1503.23 1.66906 2.49164 0
M  V30 14563 H 1500.78 0.900781 1.27733 0
M  V30 14564 H 1501.52 -0.820501 3.13749 0
M  V30 14565 H 1501.3 0.810517 3.83631 0
M  V30 14566 H 1502.79 -0.120198 4.17427 0
M  V30 14567 N 1503.23 -1.30138 0.888926 0
M  V30 14568 C 1504.5 -1.90831 0.42928 0
M  V30 14569 C 1504.88 -1.80765 -1.09028 0
M  V30 14570 O 1504.23 -1.22741 -1.92735 0
M  V30 14571 C 1504.44 -3.36331 0.931798 0
M  V30 14572 C 1505.79 -4.13393 0.969106 0
M  V30 14573 O 1506.81 -3.45191 0.878731 0
M  V30 14574 O 1505.67 -5.35249 1.10323 0
M  V30 14575 H 1502.77 -0.816401 0.131976 0
M  V30 14576 H 1505.31 -1.38678 0.978086 0
M  V30 14577 H 1504.09 -3.37761 1.97568 0
M  V30 14578 H 1503.71 -3.95945 0.362383 0
M  V30 14579 N 1504.71 -0.650285 -1.43559 0
M  V30 14580 C 1505.95 -0.162725 -2.02146 0
M  V30 14581 C 1506.28 1.21911 -1.51166 0
M  V30 14582 O 1505.56 1.81329 -0.703563 0
M  V30 14583 C 1505.84 -0.170356 -3.59697 0
M  V30 14584 C 1505.7 -1.5859 -4.20915 0
M  V30 14585 C 1507.01 0.494831 -4.37309 0
M  V30 14586 H 1504.13 -0.0606055 -0.734504 0
M  V30 14587 H 1506.78 -0.830411 -1.70892 0
M  V30 14588 H 1504.93 0.39819 -3.86454 0
M  V30 14589 H 1506.6 -2.20481 -4.05199 0
M  V30 14590 H 1504.84 -2.13407 -3.77677 0
M  V30 14591 H 1505.51 -1.54312 -5.29992 0
M  V30 14592 H 1507.99 0.0111281 -4.16099 0
M  V30 14593 H 1506.86 0.458753 -5.4698 0
M  V30 14594 H 1507.12 1.56846 -4.13342 0
M  V30 14595 N 1506.18 1.52647 -0.392018 0
M  V30 14596 C 1507.6 1.59544 -0.0421007 0
M  V30 14597 C 1507.8 1.40586 1.44353 0
M  V30 14598 O 1506.86 1.22422 2.20837 0
M  V30 14599 C 1508.17 2.9614 -0.521713 0
M  V30 14600 C 1509.72 3.09325 -0.478205 0
M  V30 14601 C 1510.19 4.48374 -0.93405 0
M  V30 14602 N 1511.68 4.54566 -0.890173 0
M  V30 14603 C 1512.42 5.60395 -1.21427 0
M  V30 14604 N 1511.91 6.73858 -1.60897 0
M  V30 14605 N 1513.71 5.50515 -1.13534 0
M  V30 14606 H 1505.86 1.63219 -1.35917 0
M  V30 14607 H 1508.12 0.766913 -0.557269 0
M  V30 14608 H 1507.83 3.15238 -1.55942 0
M  V30 14609 H 1507.7 3.7712 0.0777658 0
M  V30 14610 H 1510.09 2.89921 0.550418 0
M  V30 14611 H 1510.17 2.30292 -1.11352 0
M  V30 14612 H 1509.81 4.68519 -1.96092 0
M  V30 14613 H 1509.74 5.25878 -0.275717 0
M  V30 14614 H 1512.23 3.7311 -0.599758 0
M  V30 14615 H 1512.55 7.5058 -1.83983 0
M  V30 14616 H 1510.89 6.75182 -1.64786 0
M  V30 14617 H 1514.08 4.60755 -0.825977 0
M  V30 14618 H 1514.26 6.32889 -1.39124 0
M  V30 14619 N 1507.66 0.121921 1.57128 0
M  V30 14620 C 1508.63 -0.812905 2.143 0
M  V30 14621 C 1509.63 -1.19261 1.07858 0
M  V30 14622 O 1510.82 -1.11764 1.33621 0
M  V30 14623 C 1507.95 -2.09969 2.68562 0
M  V30 14624 H 1509.14 -0.315992 2.98231 0
M  V30 14625 H 1506.69 -0.12734 1.5578 0
M  V30 14626 H 1507.43 -2.64085 1.88228 0
M  V30 14627 H 1507.21 -1.83688 3.46412 0
M  V30 14628 H 1508.7 -2.76788 3.12695 0
M  V30 14629 N 1509.14 -1.56867 -0.151857 0
M  V30 14630 C 1510.56 -1.51422 -0.504328 0
M  V30 14631 C 1510.76 -0.829524 -1.83633 0
M  V30 14632 O 1509.81 -0.398018 -2.49343 0
M  V30 14633 C 1511.13 -2.96185 -0.519117 0
M  V30 14634 C 1512.67 -3.07098 -0.60497 0
M  V30 14635 C 1513.15 -4.53357 -0.650468 0
M  V30 14636 N 1514.64 -4.57682 -0.712825 0
M  V30 14637 C 1515.37 -5.68221 -0.768931 0
M  V30 14638 N 1514.87 -6.88342 -0.784678 0
M  V30 14639 N 1516.66 -5.56241 -0.809441 0
M  V30 14640 H 1508.81 -1.99777 0.721316 0
M  V30 14641 H 1511.08 -0.910951 0.262436 0
M  V30 14642 H 1510.78 -3.49516 0.391315 0
M  V30 14643 H 1510.66 -3.51877 -1.35876 0
M  V30 14644 H 1513.04 -2.53789 -1.50582 0
M  V30 14645 H 1513.13 -2.54458 0.261722 0
M  V30 14646 H 1512.77 -5.07303 0.246207 0
M  V30 14647 H 1512.7 -5.03775 -1.53358 0
M  V30 14648 H 1515.19 -3.71206 -0.708151 0
M  V30 14649 H 1515.5 -7.68339 -0.829202 0
M  V30 14650 H 1513.85 -6.90913 -0.752634 0
M  V30 14651 H 1517.04 -4.61312 -0.794274 0
M  V30 14652 H 1517.21 -6.42405 -0.849701 0
M  V30 14653 N 1510.62 0.421051 -1.51871 0
M  V30 14654 C 1511.86 1.17082 -1.65589 0
M  V30 14655 C 1512.2 1.90469 -0.378861 0
M  V30 14656 O 1511.47 1.84277 0.622259 0
M  V30 14657 C 1511.76 2.17483 -2.87007 0
M  V30 14658 C 1511.61 1.48071 -4.24729 0
M  V30 14659 C 1512.93 3.18288 -3.03942 0
M  V30 14660 H 1510.05 0.424284 -0.602621 0
M  V30 14661 H 1512.69 0.457998 -1.84397 0
M  V30 14662 H 1510.84 2.78273 -2.71102 0
M  V30 14663 H 1512.51 0.904926 -4.52337 0
M  V30 14664 H 1510.75 0.782814 -4.26678 0
M  V30 14665 H 1511.42 2.21272 -5.0571 0
M  V30 14666 H 1513.9 2.67565 -3.18666 0
M  V30 14667 H 1512.78 3.85815 -3.90433 0
M  V30 14668 H 1513.04 3.85333 -2.16728 0
M  V30 14669 N 1512.1 1.42293 0.677538 0
M  V30 14670 C 1513.34 1.42334 1.43476 0
M  V30 14671 C 1513.67 0.0397842 1.94959 0
M  V30 14672 O 1512.94 -0.921258 1.72886 0
M  V30 14673 H 1511.52 0.523969 0.532415 0
M  V30 14674 H 1514.18 1.7769 0.800758 0
M  V30 14675 H 1513.27 2.12146 2.28912 0
M  V30 14676 N 1513.57 -0.913576 1.28419 0
M  V30 14677 C 1514.8 -1.69649 1.18435 0
M  V30 14678 C 1515.22 -1.87043 -0.256987 0
M  V30 14679 O 1514.57 -1.39755 -1.17366 0
M  V30 14680 C 1514.63 -3.08855 1.87859 0
M  V30 14681 O 1514.35 -2.92265 3.26363 0
M  V30 14682 C 1515.85 -4.03229 1.84178 0
M  V30 14683 H 1513.07 -0.530307 0.411115 0
M  V30 14684 H 1515.61 -1.14342 1.69547 0
M  V30 14685 H 1513.77 -3.60979 1.40617 0
M  V30 14686 H 1514.18 -3.80372 3.61134 0
M  V30 14687 H 1515.65 -4.98369 2.37344 0
M  V30 14688 H 1516.13 -4.31587 0.814195 0
M  V30 14689 H 1516.74 -3.57033 2.311 0
M  V30 14690 N 1515.05 -1.1067 -1.12204 0
M  V30 14691 C 1516.47 -0.838988 -1.35769 0
M  V30 14692 C 1516.67 0.540345 -1.9412 0
M  V30 14693 O 1515.72 1.29274 -2.16897 0
M  V30 14694 C 1517.04 -1.94065 -2.29694 0
M  V30 14695 C 1518.59 -1.96938 -2.43279 0
M  V30 14696 C 1519.06 -3.06284 -3.4052 0
M  V30 14697 N 1520.55 -3.05607 -3.48079 0
M  V30 14698 C 1521.29 -3.86855 -4.23238 0
M  V30 14699 N 1520.78 -4.78046 -5.01442 0
M  V30 14700 N 1522.58 -3.75064 -4.18669 0
M  V30 14701 H 1514.73 -1.99575 -0.726878 0
M  V30 14702 H 1516.99 -0.867423 -0.382467 0
M  V30 14703 H 1516.7 -2.93356 -1.93997 0
M  V30 14704 H 1516.57 -1.82992 -3.29839 0
M  V30 14705 H 1518.96 -0.982774 -2.78254 0
M  V30 14706 H 1519.04 -2.12087 -1.43014 0
M  V30 14707 H 1518.68 -4.05165 -3.06273 0
M  V30 14708 H 1518.61 -2.88376 -4.40621 0
M  V30 14709 H 1521.1 -2.39531 -2.9229 0
M  V30 14710 H 1521.42 -5.36594 -5.56136 0
M  V30 14711 H 1519.76 -4.82073 -5.0063 0
M  V30 14712 H 1522.95 -3.03172 -3.56657 0
M  V30 14713 H 1523.12 -4.38618 -4.76988 0
M  V30 14714 N 1516.53 1.29665 -0.895815 0
M  V30 14715 C 1517.49 2.26103 -0.3755 0
M  V30 14716 C 1518.49 1.53212 0.488126 0
M  V30 14717 O 1519.68 1.71706 0.293733 0
M  V30 14718 C 1516.82 3.37732 0.46364 0
M  V30 14719 H 1518.01 2.73643 -1.22718 0
M  V30 14720 H 1515.56 1.4104 -0.673613 0
M  V30 14721 H 1516.3 2.95526 1.33546 0
M  V30 14722 H 1516.08 3.91793 -0.155123 0
M  V30 14723 H 1517.57 4.09488 0.819112 0
M  V30 14724 N 1518.01 0.657889 1.43212 0
M  V30 14725 C 1519.25 0.173443 2.02057 0
M  V30 14726 C 1519.59 -1.21108 1.51811 0
M  V30 14727 O 1518.86 -1.80953 0.71317 0
M  V30 14728 C 1519.15 0.189429 3.59601 0
M  V30 14729 C 1519 1.6082 4.20068 0
M  V30 14730 C 1520.32 -0.471633 4.37566 0
M  V30 14731 H 1517.44 0.0644999 0.734172 0
M  V30 14732 H 1520.08 0.839462 1.7045 0
M  V30 14733 H 1518.23 -0.377689 3.8666 0
M  V30 14734 H 1519.9 2.22627 4.04024 0
M  V30 14735 H 1518.14 2.15407 3.7654 0
M  V30 14736 H 1518.81 1.5712 5.29167 0
M  V30 14737 H 1521.29 0.0109387 4.16099 0
M  V30 14738 H 1520.17 -0.429739 5.47215 0
M  V30 14739 H 1520.43 -1.54652 4.14168 0
M  V30 14740 N 1519.49 -1.52437 0.400108 0
M  V30 14741 C 1520.73 -2.01711 -0.178605 0
M  V30 14742 C 1521.06 -1.28613 -1.45908 0
M  V30 14743 O 1520.32 -0.378206 -1.92011 0
M  V30 14744 C 1520.62 -3.54133 -0.482141 0
M  V30 14745 C 1520.28 -4.45306 0.70806 0
M  V30 14746 C 1518.94 -4.69947 1.03455 0
M  V30 14747 C 1521.3 -4.99035 1.50379 0
M  V30 14748 C 1518.62 -5.45566 2.15812 0
M  V30 14749 C 1520.98 -5.75883 2.61805 0
M  V30 14750 C 1519.64 -5.98799 2.9495 0
M  V30 14751 H 1518.91 -0.738112 -0.0653562 0
M  V30 14752 H 1521.56 -1.83738 0.539676 0
M  V30 14753 H 1519.86 -3.70237 -1.28188 0
M  V30 14754 H 1521.56 -3.89761 -0.942725 0
M  V30 14755 H 1518.15 -4.26298 0.443599 0
M  V30 14756 H 1522.33 -4.79913 1.26479 0
M  V30 14757 H 1517.59 -5.61532 2.4185 0
M  V30 14758 H 1521.76 -6.16514 3.23857 0
M  V30 14759 H 1519.39 -6.57176 3.8213 0
M  V30 14760 N 1520.96 -0.130252 -1.57061 0
M  V30 14761 C 1522.38 0.226279 -1.57988 0
M  V30 14762 C 1522.58 1.65902 -1.14363 0
M  V30 14763 O 1521.64 2.38252 -0.836191 0
M  V30 14764 C 1522.95 -0.0172647 -3.00695 0
M  V30 14765 C 1524.5 0.0477572 -3.12964 0
M  V30 14766 C 1524.97 -0.168238 -4.57691 0
M  V30 14767 N 1526.46 -0.114591 -4.63058 0
M  V30 14768 C 1527.2 -0.256462 -5.72826 0
M  V30 14769 N 1526.69 -0.455129 -6.91303 0
M  V30 14770 N 1528.49 -0.195243 -5.61761 0
M  V30 14771 H 1520.64 -1.06594 -1.83716 0
M  V30 14772 H 1522.9 -0.420643 -0.849567 0
M  V30 14773 H 1522.61 -1.00819 -3.3694 0
M  V30 14774 H 1522.48 0.709629 -3.70465 0
M  V30 14775 H 1524.87 1.02922 -2.7657 0
M  V30 14776 H 1524.95 -0.711198 -2.45714 0
M  V30 14777 H 1524.59 -1.14673 -4.94785 0
M  V30 14778 H 1524.52 0.610839 -5.23045 0
M  V30 14779 H 1527.01 0.0349873 -3.77884 0
M  V30 14780 H 1527.33 -0.553943 -7.70812 0
M  V30 14781 H 1525.67 -0.491244 -6.93262 0
M  V30 14782 H 1528.86 -0.0409186 -4.68082 0
M  V30 14783 H 1529.04 -0.309248 -6.47262 0
M  V30 14784 N 1522.44 1.56945 0.143535 0
M  V30 14785 C 1523.41 1.97616 1.16106 0
M  V30 14786 C 1524.41 0.863113 1.35672 0
M  V30 14787 O 1525.6 1.12966 1.32606 0
M  V30 14788 C 1522.73 2.29511 2.52067 0
M  V30 14789 H 1523.92 2.88696 0.812066 0
M  V30 14790 H 1521.47 1.51433 0.386999 0
M  V30 14791 H 1522.21 1.41233 2.91931 0
M  V30 14792 H 1521.99 3.10667 2.39225 0
M  V30 14793 H 1523.48 2.61802 3.25345 0
M  V30 14794 N 1523.92 -0.412991 1.52093 0
M  V30 14795 C 1524.88 -1.48555 1.7454 0
M  V30 14796 C 1525.88 -1.48563 0.615283 0
M  V30 14797 O 1527.07 -1.50155 0.883119 0
M  V30 14798 C 1524.21 -2.87984 1.82423 0
M  V30 14799 H 1525.4 -1.29945 2.70285 0
M  V30 14800 H 1522.95 -0.643241 1.4245 0
M  V30 14801 H 1523.69 -3.11969 0.885777 0
M  V30 14802 H 1523.47 -2.89381 2.64577 0
M  V30 14803 H 1524.96 -3.65745 2.01545 0
M  V30 14804 N 1525.4 -1.4265 -0.669982 0
M  V30 14805 C 1526.36 -1.46196 -1.7652 0
M  V30 14806 C 1527.36 -0.348884 -1.5697 0
M  V30 14807 O 1528.55 -0.609921 -1.63174 0
M  V30 14808 C 1525.68 -1.29829 -3.1521 0
M  V30 14809 H 1526.88 -2.43718 -1.74762 0
M  V30 14810 H 1524.43 -1.29168 -0.88007 0
M  V30 14811 H 1525.17 -0.332493 -3.22591 0
M  V30 14812 H 1524.95 -2.10501 -3.30804 0
M  V30 14813 H 1526.44 -1.35205 -3.95107 0
M  V30 14814 N 1526.88 0.906753 -1.28902 0
M  V30 14815 C 1528.15 1.63637 -1.07155 0
M  V30 14816 C 1528.53 2.07527 0.386727 0
M  V30 14817 O 1527.88 1.82562 1.37417 0
M  V30 14818 C 1528.09 2.82256 -2.05263 0
M  V30 14819 C 1529.44 3.53109 -2.35794 0
M  V30 14820 O 1530.46 2.92414 -2.03402 0
M  V30 14821 O 1529.32 4.62512 -2.91109 0
M  V30 14822 H 1526.42 0.718194 -0.410032 0
M  V30 14823 H 1528.96 0.955442 -1.40248 0
M  V30 14824 H 1527.74 2.46968 -3.03517 0
M  V30 14825 H 1527.36 3.58059 -1.72857 0
M  V30 14826 N 1528.36 1.11264 1.11616 0
M  V30 14827 C 1529.6 0.858664 1.82952 0
M  V30 14828 C 1529.92 -0.617439 1.84967 0
M  V30 14829 O 1529.19 -1.44849 1.31893 0
M  V30 14830 H 1527.77 0.314671 0.677489 0
M  V30 14831 H 1530.44 1.40466 1.35113 0
M  V30 14832 H 1529.53 1.22921 2.86874 0
M  V30 14833 N 1529.83 -1.29188 0.902679 0
M  V30 14834 C 1531.06 -1.99286 0.544844 0
M  V30 14835 C 1531.47 -1.67721 -0.875572 0
M  V30 14836 O 1530.81 -0.920207 -1.5899 0
M  V30 14837 C 1530.88 -3.53374 0.660849 0
M  V30 14838 C 1530.54 -4.08502 2.04878 0
M  V30 14839 C 1531.54 -4.23173 3.02028 0
M  V30 14840 C 1529.22 -4.43461 2.35897 0
M  V30 14841 C 1531.22 -4.7204 4.28318 0
M  V30 14842 C 1528.9 -4.92024 3.6243 0
M  V30 14843 C 1529.9 -5.06269 4.58455 0
M  V30 14844 O 1529.59 -5.53778 5.8274 0
M  V30 14845 H 1529.32 -0.64339 0.207427 0
M  V30 14846 H 1531.88 -1.6562 1.21487 0
M  V30 14847 H 1530.11 -3.86643 -0.066216 0
M  V30 14848 H 1531.79 -4.04701 0.311732 0
M  V30 14849 H 1532.56 -3.96449 2.79379 0
M  V30 14850 H 1528.44 -4.31631 1.61913 0
M  V30 14851 H 1531.98 -4.83074 5.03275 0
M  V30 14852 H 1527.88 -5.18186 3.84907 0
M  V30 14853 H 1528.65 -5.72086 5.85372 0
M  V30 14854 N 1531.31 -0.665475 -1.42861 0
M  V30 14855 C 1532.72 -0.26225 -1.84849 0
M  V30 14856 C 1533.07 1.19372 -1.55707 0
M  V30 14857 O 1532.2 1.91269 -1.01218 0
M  V30 14858 C 1532.79 -0.469189 -3.35535 0
M  V30 14859 C 1531.35 -0.120172 -3.76208 0
M  V30 14860 C 1530.5 -0.766153 -2.66506 0
M  V30 14861 H 1533.45 -0.868296 -1.32839 0
M  V30 14862 H 1533.47 0.281571 -3.79457 0
M  V30 14863 H 1532.98 -1.52894 -3.56714 0
M  V30 14864 H 1531.08 0.936505 -3.60639 0
M  V30 14865 H 1531.2 -0.554188 -4.75884 0
M  V30 14866 H 1529.56 -0.198292 -2.53927 0
M  V30 14867 H 1530.34 -1.82918 -2.9051 0
M  V30 14868 N 1532.79 1.52222 -0.408187 0
M  V30 14869 C 1534.02 2.06221 0.16743 0
M  V30 14870 C 1534.43 1.27832 1.3894 0
M  V30 14871 O 1533.79 0.329933 1.79493 0
M  V30 14872 C 1533.84 3.57758 0.518804 0
M  V30 14873 O 1533.56 4.33181 -0.654639 0
M  V30 14874 C 1535.06 4.28171 1.14825 0
M  V30 14875 H 1532.28 0.670677 0.0208054 0
M  V30 14876 H 1534.83 1.96136 -0.578868 0
M  V30 14877 H 1532.98 3.67854 1.215 0
M  V30 14878 H 1533.4 5.23252 -0.361558 0
M  V30 14879 H 1534.87 5.3538 1.34433 0
M  V30 14880 H 1535.35 3.84586 2.12108 0
M  V30 14881 H 1535.95 4.22441 0.492291 0
M  V30 14882 N 1534.27 0.138579 1.5699 0
M  V30 14883 C 1535.68 -0.383633 1.82716 0
M  V30 14884 C 1536.03 -1.65304 1.05684 0
M  V30 14885 O 1535.15 -2.14318 0.299488 0
M  V30 14886 C 1535.75 -0.7028 3.3143 0
M  V30 14887 C 1534.31 -1.16957 3.57768 0
M  V30 14888 C 1533.46 -0.188295 2.7666 0
M  V30 14889 H 1536.41 0.363415 1.54483 0
M  V30 14890 H 1536.43 -1.55832 3.47126 0
M  V30 14891 H 1535.94 0.221271 3.87469 0
M  V30 14892 H 1534.04 -2.10987 3.07108 0
M  V30 14893 H 1534.15 -1.10136 4.66269 0
M  V30 14894 H 1532.52 -0.679255 2.45475 0
M  V30 14895 H 1533.3 0.729218 3.35466 0
M  V30 14896 N 1535.75 -1.57019 -0.13521 0
M  V30 14897 C 1536.99 -1.85801 -0.851896 0
M  V30 14898 C 1537.35 -0.724449 -1.77808 0
M  V30 14899 O 1538.55 -0.893619 -2.53511 0
M  V30 14900 C 1536.82 -3.19788 -1.59595 0
M  V30 14901 S 1538.38 -3.70159 -2.35644 0
M  V30 14902 H 1535.2 -0.651534 -0.284649 0
M  V30 14903 H 1537.8 -1.95184 -0.111177 0
M  V30 14904 H 1536.5 -4.00247 -0.907221 0
M  V30 14905 H 1536.04 -3.13441 -2.37735 0
M  V30 14906 H 1538.05 -3.40364 -3.61063 0
M  V30 14907 N 1537.22 0.404919 -1.52309 0
M  V30 14908 C 1538.47 1.15319 -1.66822 0
M  V30 14909 C 1538.8 1.90056 -0.399041 0
M  V30 14910 O 1538.08 1.84927 0.602679 0
M  V30 14911 C 1538.36 2.14426 -2.89298 0
M  V30 14912 C 1538.21 1.43558 -4.26276 0
M  V30 14913 C 1539.53 3.15046 -3.07301 0
M  V30 14914 H 1536.65 0.417869 -0.607087 0
M  V30 14915 H 1539.29 0.438414 -1.84873 0
M  V30 14916 H 1537.44 2.75382 -2.74039 0
M  V30 14917 H 1539.12 0.856899 -4.53271 0
M  V30 14918 H 1537.36 0.737515 -4.27485 0
M  V30 14919 H 1538.03 2.15895 -5.08029 0
M  V30 14920 H 1540.51 2.6417 -3.21486 0
M  V30 14921 H 1539.38 3.81652 -3.94503 0
M  V30 14922 H 1539.64 3.83012 -2.20803 0
M  V30 14923 N 1538.7 1.43003 0.662408 0
M  V30 14924 C 1539.95 1.44346 1.4245 0
M  V30 14925 C 1540.28 0.064094 1.94094 0
M  V30 14926 O 1539.56 -0.913633 1.71706 0
M  V30 14927 C 1539.84 2.47822 2.61259 0
M  V30 14928 C 1539.69 3.94998 2.15166 0
M  V30 14929 C 1541.01 2.48139 3.63476 0
M  V30 14930 H 1538.13 0.525606 0.51663 0
M  V30 14931 H 1540.77 1.74495 0.751754 0
M  V30 14932 H 1538.92 2.22244 3.18653 0
M  V30 14933 H 1540.59 4.31601 1.62843 0
M  V30 14934 H 1538.84 4.0827 1.46622 0
M  V30 14935 H 1539.51 4.62998 3.00561 0
M  V30 14936 H 1541.98 2.70916 3.15823 0
M  V30 14937 H 1540.86 3.22498 4.44169 0
M  V30 14938 H 1541.12 1.51184 4.15447 0
M  V30 14939 N 1540.18 -0.899904 1.29381 0
M  V30 14940 C 1541.43 -1.65298 1.18524 0
M  V30 14941 C 1541.78 -1.90625 -0.260731 0
M  V30 14942 O 1541.07 -1.50544 -1.1852 0
M  V30 14943 C 1541.27 -3.0069 1.93185 0
M  V30 14944 C 1541.1 -2.88578 3.44895 0
M  V30 14945 C 1539.87 -2.89358 4.14246 0
M  V30 14946 C 1542.07 -2.65623 4.40396 0
M  V30 14947 N 1540.05 -2.67981 5.52322 0
M  V30 14948 C 1541.42 -2.53225 5.6593 0
M  V30 14949 C 1543.47 -2.50729 4.30162 0
M  V30 14950 C 1542.18 -2.27449 6.82393 0
M  V30 14951 C 1544.2 -2.26336 5.46375 0
M  V30 14952 C 1543.56 -2.14702 6.70882 0
M  V30 14953 H 1539.66 -0.61048 0.48871 0
M  V30 14954 H 1542.25 -1.06167 1.63207 0
M  V30 14955 H 1540.42 -3.57881 1.50916 0
M  V30 14956 H 1542.15 -3.65101 1.74596 0
M  V30 14957 H 1538.91 -3.00634 3.65946 0
M  V30 14958 H 1539.33 -2.60346 6.24939 0
M  V30 14959 H 1543.97 -2.58467 3.34596 0
M  V30 14960 H 1541.69 -2.18449 7.78014 0
M  V30 14961 H 1545.28 -2.15656 5.40355 0
M  V30 14962 H 1544.16 -1.96088 7.59289 0
M  V30 14963 N 1541.66 -1.11854 -1.11024 0
M  V30 14964 C 1542.59 -0.738635 -2.16972 0
M  V30 14965 C 1543.6 0.231814 -1.61141 0
M  V30 14966 O 1544.79 0.0140607 -1.78494 0
M  V30 14967 C 1541.89 -0.0715797 -3.38824 0
M  V30 14968 C 1541.07 -1.06995 -4.24112 0
M  V30 14969 C 1540.12 -0.431644 -5.24427 0
M  V30 14970 O 1539.15 -1.08685 -5.58727 0
M  V30 14971 N 1540.35 0.803593 -5.74911 0
M  V30 14972 H 1543.12 -1.65025 -2.50174 0
M  V30 14973 H 1540.68 -1.00933 -1.26586 0
M  V30 14974 H 1542.67 0.367274 -4.0303 0
M  V30 14975 H 1541.24 0.742686 -3.03649 0
M  V30 14976 H 1540.46 -1.68662 -3.56296 0
M  V30 14977 H 1541.75 -1.74525 -4.77931 0
M  V30 14978 H 1541.15 1.355 -5.49232 0
M  V30 14979 H 1539.7 1.18536 -6.40931 0
M  V30 14980 N 1543.14 1.28707 -0.909517 0
M  V30 14981 C 1544.38 1.95443 -0.541281 0
M  V30 14982 C 1544.72 1.71457 0.911934 0
M  V30 14983 O 1543.99 1.03312 1.64794 0
M  V30 14984 C 1544.27 3.50019 -0.846097 0
M  V30 14985 C 1544.13 3.83423 -2.35173 0
M  V30 14986 C 1545.45 4.3879 -0.339328 0
M  V30 14987 H 1542.56 0.709869 -0.198128 0
M  V30 14988 H 1545.21 1.52151 -1.13799 0
M  V30 14989 H 1543.36 3.87025 -0.338262 0
M  V30 14990 H 1545.03 3.5631 -2.92986 0
M  V30 14991 H 1543.27 3.30618 -2.80846 0
M  V30 14992 H 1543.94 4.91348 -2.51557 0
M  V30 14993 H 1546.42 4.08832 -0.774312 0
M  V30 14994 H 1545.29 5.45809 -0.581722 0
M  V30 14995 H 1545.56 4.35514 0.760244 0
M  V30 14996 N 1544.61 0.673042 1.42506 0
M  V30 14997 C 1546.03 0.342429 1.55883 0
M  V30 14998 C 1546.23 -1.15229 1.65302 0
M  V30 14999 O 1545.29 -1.93767 1.61897 0
M  V30 15000 C 1546.6 1.0712 2.80973 0
M  V30 15001 C 1548.15 1.05336 2.94743 0
M  V30 15002 C 1548.62 1.76342 4.22691 0
M  V30 15003 N 1550.11 1.73201 4.29599 0
M  V30 15004 C 1550.85 2.25 5.27411 0
M  V30 15005 N 1550.34 2.85173 6.31386 0
M  V30 15006 N 1552.14 2.15385 5.19197 0
M  V30 15007 H 1544.29 1.64277 1.34636 0
M  V30 15008 H 1546.55 0.691984 0.647968 0
M  V30 15009 H 1546.26 2.1263 2.80145 0
M  V30 15010 H 1546.13 0.635313 3.71811 0
M  V30 15011 H 1548.52 0.00659669 2.95099 0
M  V30 15012 H 1548.6 1.52811 2.0514 0
M  V30 15013 H 1548.24 2.80985 4.23096 0
M  V30 15014 H 1548.17 1.26317 5.11225 0
M  V30 15015 H 1550.66 1.2931 3.55088 0
M  V30 15016 H 1550.98 3.22323 7.02373 0
M  V30 15017 H 1549.32 2.89242 6.31953 0
M  V30 15018 H 1552.51 1.68065 4.36889 0
M  V30 15019 H 1552.69 2.5606 5.95262 0
M  V30 15020 N 1546.09 -1.52004 0.416254 0
M  V30 15021 C 1547.34 -2.02848 -0.149787 0
M  V30 15022 C 1547.69 -1.29603 -1.422 0
M  V30 15023 O 1546.99 -0.395826 -1.87467 0
M  V30 15024 C 1547.18 -3.54624 -0.444553 0
M  V30 15025 C 1547.01 -4.42571 0.797537 0
M  V30 15026 C 1545.78 -4.87623 1.32485 0
M  V30 15027 C 1547.98 -4.86166 1.6777 0
M  V30 15028 N 1545.96 -5.59718 2.52168 0
M  V30 15029 C 1547.33 -5.57115 2.72072 0
M  V30 15030 C 1549.39 -4.68174 1.69462 0
M  V30 15031 C 1548.09 -6.1198 3.77985 0
M  V30 15032 C 1550.11 -5.23942 2.74298 0
M  V30 15033 C 1549.48 -5.94818 3.7732 0
M  V30 15034 H 1545.58 -0.781832 -0.0161927 0
M  V30 15035 H 1548.16 -1.86102 0.5722 0
M  V30 15036 H 1546.33 -3.71429 -1.13558 0
M  V30 15037 H 1548.06 -3.92148 -1.0001 0
M  V30 15038 H 1544.82 -4.65318 0.881837 0
M  V30 15039 H 1545.24 -6.00404 3.128 0
M  V30 15040 H 1549.88 -4.12858 0.911497 0
M  V30 15041 H 1547.6 -6.66364 4.57149 0
M  V30 15042 H 1551.19 -5.11885 2.76523 0
M  V30 15043 H 1550.07 -6.37198 4.57109 0
M  V30 15044 N 1547.57 -0.146903 -1.56914 0
M  V30 15045 C 1548.82 0.503237 -1.95734 0
M  V30 15046 C 1549.14 1.65407 -1.03275 0
M  V30 15047 O 1548.41 1.95673 -0.0942784 0
M  V30 15048 H 1546.99 0.188899 -0.722721 0
M  V30 15049 H 1549.65 -0.222379 -1.93627 0
M  V30 15050 H 1548.75 0.879445 -2.99453 0
M  V30 15051 N 1549.05 1.57088 0.126881 0
M  V30 15052 C 1550.3 1.84071 0.834397 0
M  V30 15053 C 1550.62 0.730896 1.80784 0
M  V30 15054 O 1549.89 -0.245791 1.94352 0
M  V30 15055 H 1548.47 0.679123 0.311128 0
M  V30 15056 H 1551.13 1.94554 0.116083 0
M  V30 15057 H 1550.23 2.79714 1.38443 0
M  V30 15058 N 1550.53 -0.396836 1.52522 0
M  V30 15059 C 1551.77 -1.14037 1.66853 0
M  V30 15060 C 1552.1 -1.90706 0.406987 0
M  V30 15061 O 1551.37 -1.87165 -0.578443 0
M  V30 15062 H 1549.95 -0.423967 0.615029 0
M  V30 15063 H 1552.61 -0.451042 1.89609 0
M  V30 15064 H 1551.7 -1.84763 2.51533 0
M  V30 15065 N 1552.01 -1.43353 -0.654814 0
M  V30 15066 C 1553.23 -1.48536 -1.44748 0
M  V30 15067 C 1553.66 -0.103991 -1.87812 0
M  V30 15068 O 1553.01 0.901924 -1.57274 0
M  V30 15069 C 1553.06 -2.43498 -2.65972 0
M  V30 15070 O 1552.17 -1.92014 -3.64972 0
M  V30 15071 H 1551.51 -0.502476 -0.434067 0
M  V30 15072 H 1554.04 -1.88251 -0.801427 0
M  V30 15073 H 1554.05 -2.60748 -3.13806 0
M  V30 15074 H 1552.72 -3.43847 -2.3397 0
M  V30 15075 H 1551.3 -1.84417 -3.24106 0
M  V30 15076 N 1553.48 0.89303 -1.29857 0
M  V30 15077 C 1554.73 1.64667 -1.19399 0
M  V30 15078 C 1555.08 1.90761 0.250619 0
M  V30 15079 O 1554.38 1.51171 1.1772 0
M  V30 15080 C 1554.57 2.99661 -1.94777 0
M  V30 15081 C 1554.4 2.86745 -3.46421 0
M  V30 15082 C 1553.17 2.87157 -4.15775 0
M  V30 15083 C 1555.37 2.63284 -4.41799 0
M  V30 15084 N 1553.35 2.65048 -5.53735 0
M  V30 15085 C 1554.72 2.5022 -5.67265 0
M  V30 15086 C 1556.78 2.48444 -4.31486 0
M  V30 15087 C 1555.48 2.23826 -6.83589 0
M  V30 15088 C 1557.51 2.23435 -5.47568 0
M  V30 15089 C 1556.87 2.11141 -6.72011 0
M  V30 15090 H 1552.97 0.60788 -0.491941 0
M  V30 15091 H 1555.55 1.053 -1.63768 0
M  V30 15092 H 1553.72 3.57076 -1.52812 0
M  V30 15093 H 1555.45 3.64169 -1.7653 0
M  V30 15094 H 1552.21 2.98689 -3.67535 0
M  V30 15095 H 1552.63 2.57028 -6.26311 0
M  V30 15096 H 1557.27 2.56689 -3.35962 0
M  V30 15097 H 1554.99 2.1432 -7.79161 0
M  V30 15098 H 1558.58 2.12787 -5.41491 0
M  V30 15099 H 1557.46 1.92058 -7.60318 0
M  V30 15100 N 1554.96 1.12442 1.10429 0
M  V30 15101 C 1556.38 0.860481 1.34417 0
M  V30 15102 C 1556.58 -0.509394 1.94955 0
M  V30 15103 O 1555.63 -1.25807 2.18927 0
M  V30 15104 C 1556.95 1.97694 2.26578 0
M  V30 15105 C 1558.49 2.00783 2.40115 0
M  V30 15106 C 1558.97 3.11663 3.35604 0
M  V30 15107 N 1560.46 3.11106 3.43173 0
M  V30 15108 C 1561.2 3.9354 4.1703 0
M  V30 15109 N 1560.69 4.85963 4.93773 0
M  V30 15110 N 1562.48 3.81677 4.12649 0
M  V30 15111 H 1554.64 2.00706 0.695036 0
M  V30 15112 H 1556.9 0.873398 0.368619 0
M  V30 15113 H 1556.6 2.96405 1.89306 0
M  V30 15114 H 1556.48 1.88217 3.26886 0
M  V30 15115 H 1558.87 1.02692 2.76656 0
M  V30 15116 H 1558.95 2.14335 1.39621 0
M  V30 15117 H 1558.59 4.09987 2.99789 0
M  V30 15118 H 1558.52 2.9535 4.35977 0
M  V30 15119 H 1561.01 2.4415 2.88442 0
M  V30 15120 H 1561.32 5.45373 5.47529 0
M  V30 15121 H 1559.67 4.89976 4.92898 0
M  V30 15122 H 1562.86 3.08808 3.51789 0
M  V30 15123 H 1563.03 4.46151 4.6995 0
M  V30 15124 N 1556.44 -1.28223 0.91633 0
M  V30 15125 C 1557.85 -1.76898 0.597003 0
M  V30 15126 C 1558.2 -1.74969 -0.887719 0
M  V30 15127 O 1557.33 -1.34598 -1.69447 0
M  V30 15128 C 1557.92 -3.21228 1.07694 0
M  V30 15129 C 1556.48 -3.67614 0.80849 0
M  V30 15130 C 1555.63 -2.47921 1.24219 0
M  V30 15131 H 1558.58 -1.1465 1.09732 0
M  V30 15132 H 1558.6 -3.7818 0.419531 0
M  V30 15133 H 1558.11 -3.226 2.15757 0
M  V30 15134 H 1556.21 -3.717 -0.258814 0
M  V30 15135 H 1556.33 -4.57633 1.41804 0
M  V30 15136 H 1554.69 -2.45976 0.660892 0
M  V30 15137 H 1555.47 -2.5201 2.33122 0
M  V30 15138 N 1557.92 -0.68059 -1.42147 0
M  V30 15139 C 1559.17 -0.202445 -2.00681 0
M  V30 15140 C 1559.48 1.19997 -1.54467 0
M  V30 15141 O 1560.69 1.77479 -2.05459 0
M  V30 15142 C 1559.14 -0.311064 -3.58553 0
M  V30 15143 C 1558.75 -1.7179 -4.13754 0
M  V30 15144 C 1560.49 0.108072 -4.24362 0
M  V30 15145 C 1558.4 -1.77897 -5.64009 0
M  V30 15146 H 1557.33 -0.0719266 -0.750561 0
M  V30 15147 H 1559.98 -0.846614 -1.62803 0
M  V30 15148 H 1558.36 0.401098 -3.93963 0
M  V30 15149 H 1559.54 -2.45761 -3.89793 0
M  V30 15150 H 1557.85 -2.08539 -3.60417 0
M  V30 15151 H 1560.45 0.0826684 -5.34636 0
M  V30 15152 H 1560.79 1.14431 -4.00264 0
M  V30 15153 H 1561.33 -0.553285 -3.93933 0
M  V30 15154 H 1558.06 -2.79523 -5.92914 0
M  V30 15155 H 1557.58 -1.0829 -5.89944 0
M  V30 15156 H 1559.26 -1.53504 -6.28527 0
M  V30 15157 N 1559.4 1.51781 -0.424309 0
M  V30 15158 C 1560.81 1.86653 0.0418266 0
M  V30 15159 C 1561.16 1.34224 1.43103 0
M  V30 15160 O 1560.28 0.687684 2.05183 0
M  V30 15161 C 1560.88 3.38699 0.0826759 0
M  V30 15162 C 1559.44 3.73155 0.493186 0
M  V30 15163 C 1558.58 2.75417 -0.322586 0
M  V30 15164 H 1561.53 1.45191 -0.640726 0
M  V30 15165 H 1561.56 3.69828 0.894864 0
M  V30 15166 H 1561.07 3.76829 -0.928536 0
M  V30 15167 H 1559.17 3.4061 1.51048 0
M  V30 15168 H 1559.28 4.78562 0.227032 0
M  V30 15169 H 1557.65 2.53772 0.217262 0
M  V30 15170 H 1558.43 3.16388 -1.33243 0
M  V30 15171 N 1560.87 0.155222 1.56834 0
M  V30 15172 C 1562.12 -0.488126 1.97456 0
M  V30 15173 C 1562.47 -1.61935 1.03898 0
M  V30 15174 O 1561.77 -1.91451 0.0755621 0
M  V30 15175 C 1561.96 -1.03346 3.42132 0
M  V30 15176 C 1561.79 0.0434014 4.49679 0
M  V30 15177 C 1560.56 0.487619 5.02942 0
M  V30 15178 C 1562.76 0.837907 5.07428 0
M  V30 15179 N 1560.74 1.54646 5.94102 0
M  V30 15180 C 1562.11 1.74705 5.94877 0
M  V30 15181 C 1564.17 0.884781 4.89976 0
M  V30 15182 C 1562.87 2.69907 6.6674 0
M  V30 15183 C 1564.9 1.82467 5.62548 0
M  V30 15184 C 1564.26 2.72132 6.4971 0
M  V30 15185 H 1560.36 -0.147187 0.768023 0
M  V30 15186 H 1562.94 0.251725 1.93066 0
M  V30 15187 H 1561.11 -1.74288 3.471 0
M  V30 15188 H 1562.84 -1.6441 3.69799 0
M  V30 15189 H 1559.6 0.0883276 4.73518 0
M  V30 15190 H 1560.02 2.07589 6.44388 0
M  V30 15191 H 1564.66 0.205617 4.223 0
M  V30 15192 H 1562.38 3.3882 7.33639 0
M  V30 15193 H 1565.97 1.86684 5.51036 0
M  V30 15194 H 1564.85 3.43676 7.0488 0
M  V30 15195 N 1562.35 -1.57153 -0.118549 0
M  V30 15196 C 1563.31 -1.99438 -1.12947 0
M  V30 15197 C 1564.31 -0.884588 -1.34282 0
M  V30 15198 O 1565.5 -1.15062 -1.30792 0
M  V30 15199 C 1562.64 -2.33492 -2.48384 0
M  V30 15200 H 1563.83 -2.89952 -0.766034 0
M  V30 15201 H 1561.38 -1.5203 -0.362858 0
M  V30 15202 H 1562.12 -1.45859 -2.89647 0
M  V30 15203 H 1561.9 -3.14433 -2.34252 0
M  V30 15204 H 1563.39 -2.66945 -3.21139 0
M  V30 15205 N 1563.83 0.388742 -1.5273 0
M  V30 15206 C 1565.06 1.15495 -1.71664 0
M  V30 15207 C 1565.47 1.83717 -0.435127 0
M  V30 15208 O 1564.83 1.72686 0.590411 0
M  V30 15209 C 1564.88 2.20279 -2.86635 0
M  V30 15210 O 1564.6 1.54838 -4.09825 0
M  V30 15211 C 1566.1 3.09625 -3.1725 0
M  V30 15212 H 1563.32 0.346271 -0.57475 0
M  V30 15213 H 1565.87 0.454729 -1.9938 0
M  V30 15214 H 1564.02 2.85936 -2.61379 0
M  V30 15215 H 1564.44 2.24466 -4.74042 0
M  V30 15216 H 1565.91 3.79177 -4.01159 0
M  V30 15217 H 1566.39 3.73147 -2.31643 0
M  V30 15218 H 1566.99 2.49612 -3.44345 0
M  V30 15219 N 1565.31 1.43698 0.647203 0
M  V30 15220 C 1566.53 1.49301 1.43958 0
M  V30 15221 C 1566.96 0.11395 1.87755 0
M  V30 15222 O 1566.32 -0.893571 1.5775 0
M  V30 15223 C 1566.36 2.44905 2.64677 0
M  V30 15224 O 1565.47 1.93947 3.63948 0
M  V30 15225 H 1564.81 0.504771 0.431396 0
M  V30 15226 H 1567.34 1.88673 0.791432 0
M  V30 15227 H 1567.35 2.62409 3.12419 0
M  V30 15228 H 1566.02 3.45083 2.32143 0
M  V30 15229 H 1564.6 1.86133 3.23124 0
M  V30 15230 N 1566.79 -0.886131 1.30328 0
M  V30 15231 C 1568.01 -1.67099 1.22007 0
M  V30 15232 C 1568.43 -1.87546 -0.217255 0
M  V30 15233 O 1567.79 -1.42213 -1.14375 0
M  V30 15234 C 1567.84 -3.048 1.94368 0
M  V30 15235 O 1567.56 -2.85277 3.32489 0
M  V30 15236 C 1569.06 -3.99231 1.9269 0
M  V30 15237 H 1566.28 -0.521467 0.422271 0
M  V30 15238 H 1568.82 -1.1072 1.71934 0
M  V30 15239 H 1566.98 -3.57915 1.48242 0
M  V30 15240 H 1567.39 -3.72626 3.69121 0
M  V30 15241 H 1568.87 -4.93223 2.47861 0
M  V30 15242 H 1569.34 -4.29763 0.905558 0
M  V30 15243 H 1569.95 -3.52051 2.38621 0
M  V30 15244 N 1568.26 -1.13026 -1.09832 0
M  V30 15245 C 1569.49 -0.91246 -1.85693 0
M  V30 15246 C 1569.91 0.538558 -1.80956 0
M  V30 15247 O 1569.26 1.37262 -1.20273 0
M  V30 15248 C 1569.32 -1.38684 -3.3384 0
M  V30 15249 O 1569.04 -2.78099 -3.38515 0
M  V30 15250 C 1570.54 -1.20688 -4.26555 0
M  V30 15251 H 1567.76 -0.32565 -0.58668 0
M  V30 15252 H 1570.3 -1.50177 -1.38806 0
M  V30 15253 H 1568.46 -0.840617 -3.7817 0
M  V30 15254 H 1568.87 -2.99061 -4.30886 0
M  V30 15255 H 1570.34 -1.5876 -5.28677 0
M  V30 15256 H 1570.82 -0.148111 -4.3895 0
M  V30 15257 H 1571.43 -1.74092 -3.88036 0
M  V30 15258 N 1569.74 1.27735 -0.923117 0
M  V30 15259 C 1570.67 2.29395 -0.435907 0
M  V30 15260 C 1571.65 1.62542 0.501403 0
M  V30 15261 O 1572.84 1.89884 0.407135 0
M  V30 15262 C 1569.97 3.45856 0.316348 0
M  V30 15263 C 1568.92 4.24672 -0.532697 0
M  V30 15264 C 1568.25 5.33563 0.348454 0
M  V30 15265 C 1569.55 4.90494 -1.79481 0
M  V30 15266 H 1571.24 2.70398 -1.28551 0
M  V30 15267 H 1568.79 1.29989 -0.619581 0
M  V30 15268 H 1570.74 4.1607 0.668098 0
M  V30 15269 H 1569.47 3.03758 1.19994 0
M  V30 15270 H 1568.12 3.56198 -0.867093 0
M  V30 15271 H 1567.77 4.87708 1.23086 0
M  V30 15272 H 1567.47 5.87202 -0.216104 0
M  V30 15273 H 1569 6.06622 0.695878 0
M  V30 15274 H 1570.41 5.53019 -1.5114 0
M  V30 15275 H 1568.81 5.5417 -2.30251 0
M  V30 15276 H 1569.88 4.14454 -2.51707 0
M  V30 15277 N 1571.22 0.688118 1.41784 0
M  V30 15278 C 1572.45 0.223231 2.06195 0
M  V30 15279 C 1572.87 -1.11601 1.51416 0
M  V30 15280 O 1572.23 -1.69701 0.638059 0
M  V30 15281 C 1572.28 0.183257 3.60134 0
M  V30 15282 O 1571.38 -0.844186 4.03667 0
M  V30 15283 H 1570.72 0.110925 0.654669 0
M  V30 15284 H 1573.25 0.940882 1.81683 0
M  V30 15285 H 1573.26 0.0115951 4.07998 0
M  V30 15286 H 1571.94 1.16072 3.99375 0
M  V30 15287 H 1570.51 -0.642484 3.67323 0
M  V30 15288 N 1572.7 -1.51554 0.432352 0
M  V30 15289 C 1573.94 -2.02344 -0.13598 0
M  V30 15290 C 1574.28 -1.31619 -1.42794 0
M  V30 15291 O 1573.55 -0.42957 -1.89697 0
M  V30 15292 C 1573.84 -3.58297 -0.359865 0
M  V30 15293 C 1573.69 -4.39645 0.950399 0
M  V30 15294 C 1575.01 -4.25297 -1.13184 0
M  V30 15295 H 1572.13 -0.735439 -0.0479461 0
M  V30 15296 H 1574.77 -1.81237 0.570373 0
M  V30 15297 H 1572.92 -3.76413 -0.961547 0
M  V30 15298 H 1574.59 -4.3319 1.58568 0
M  V30 15299 H 1572.83 -4.04928 1.55614 0
M  V30 15300 H 1573.5 -5.46911 0.747852 0
M  V30 15301 H 1575.98 -4.11421 -0.622231 0
M  V30 15302 H 1574.86 -5.34307 -1.25726 0
M  V30 15303 H 1575.12 -3.85818 -2.15862 0
M  V30 15304 N 1574.18 -0.163538 -1.56749 0
M  V30 15305 C 1575.59 0.354516 -1.83303 0
M  V30 15306 C 1575.94 1.63601 -1.08301 0
M  V30 15307 O 1575.06 2.13814 -0.333546 0
M  V30 15308 C 1575.66 0.649983 -3.32507 0
M  V30 15309 C 1574.22 1.1125 -3.59584 0
M  V30 15310 C 1573.36 0.144257 -2.76925 0
M  V30 15311 H 1576.32 -0.387945 -1.53885 0
M  V30 15312 H 1576.34 1.5029 -3.49562 0
M  V30 15313 H 1575.85 -0.282886 -3.87068 0
M  V30 15314 H 1573.95 2.06074 -3.10426 0
M  V30 15315 H 1574.06 1.02704 -4.67962 0
M  V30 15316 H 1572.43 0.640116 -2.46525 0
M  V30 15317 H 1573.21 -0.782495 -3.34263 0
M  V30 15318 N 1575.65 1.57214 0.110213 0
M  V30 15319 C 1576.9 1.85586 0.817649 0
M  V30 15320 C 1577.23 0.750536 1.79111 0
M  V30 15321 O 1576.51 -0.242864 1.92978 0
M  V30 15322 C 1576.79 3.24565 1.55979 0
M  V30 15323 C 1576.64 4.45708 0.605339 0
M  V30 15324 C 1577.96 3.61233 2.51393 0
M  V30 15325 H 1575.08 0.675037 0.295794 0
M  V30 15326 H 1577.72 1.89824 0.0816541 0
M  V30 15327 H 1575.87 3.21083 2.18718 0
M  V30 15328 H 1577.55 4.61298 -0.0138894 0
M  V30 15329 H 1575.79 4.33722 -0.0824644 0
M  V30 15330 H 1576.46 5.39643 1.16143 0
M  V30 15331 H 1578.94 3.65563 1.98754 0
M  V30 15332 H 1577.81 4.59438 3.00346 0
M  V30 15333 H 1578.07 2.89116 3.34461 0
M  V30 15334 N 1577.13 -0.380637 1.52934 0
M  V30 15335 C 1578.36 -1.14583 1.72274 0
M  V30 15336 C 1578.78 -1.83484 0.444864 0
M  V30 15337 O 1578.13 -1.72997 -0.581245 0
M  V30 15338 C 1578.18 -2.18756 2.87799 0
M  V30 15339 O 1577.9 -1.52662 4.10641 0
M  V30 15340 C 1579.41 -3.07938 3.18887 0
M  V30 15341 H 1576.63 -0.343218 0.576578 0
M  V30 15342 H 1579.17 -0.444149 1.99619 0
M  V30 15343 H 1577.32 -2.84546 2.62892 0
M  V30 15344 H 1577.74 -2.21949 4.75225 0
M  V30 15345 H 1579.21 -3.77045 4.03164 0
M  V30 15346 H 1579.69 -3.71913 2.33618 0
M  V30 15347 H 1580.3 -2.47783 3.45664 0
M  V30 15348 N 1578.61 -1.44039 -0.639573 0
M  V30 15349 C 1579.86 -1.46594 -1.40136 0
M  V30 15350 C 1580.19 -0.0949646 -1.93968 0
M  V30 15351 O 1579.46 0.886201 -1.73138 0
M  V30 15352 C 1579.75 -2.51947 -2.57283 0
M  V30 15353 C 1579.6 -3.98371 -2.08855 0
M  V30 15354 C 1580.92 -2.53891 -3.59482 0
M  V30 15355 H 1578.04 -0.533759 -0.508203 0
M  V30 15356 H 1580.68 -1.75669 -0.723898 0
M  V30 15357 H 1578.83 -2.27285 -3.15077 0
M  V30 15358 H 1580.5 -4.34137 -1.55956 0
M  V30 15359 H 1578.75 -4.10551 -1.40109 0
M  V30 15360 H 1579.42 -4.67721 -2.93157 0
M  V30 15361 H 1581.89 -2.75906 -3.11473 0
M  V30 15362 H 1580.77 -3.29524 -4.38982 0
M  V30 15363 H 1581.03 -1.57774 -4.12989 0
M  V30 15364 N 1580.09 0.879207 -1.30796 0
M  V30 15365 C 1581.02 2.00158 -1.20246 0
M  V30 15366 C 1582 1.69852 -0.091769 0
M  V30 15367 O 1583.18 1.92246 -0.274792 0
M  V30 15368 C 1580.31 3.3545 -0.899472 0
M  V30 15369 C 1579.27 3.80033 -1.96873 0
M  V30 15370 C 1578.59 5.12681 -1.51861 0
M  V30 15371 C 1579.89 3.98136 -3.38061 0
M  V30 15372 H 1581.59 2.09242 -2.14145 0
M  V30 15373 H 1579.13 1.00535 -1.03096 0
M  V30 15374 H 1581.09 4.13497 -0.812299 0
M  V30 15375 H 1579.81 3.26513 0.075189 0
M  V30 15376 H 1578.47 3.04219 -2.04564 0
M  V30 15377 H 1578.12 5.00178 -0.532063 0
M  V30 15378 H 1577.82 5.43482 -2.23386 0
M  V30 15379 H 1579.34 5.93247 -1.44534 0
M  V30 15380 H 1580.76 4.66604 -3.33096 0
M  V30 15381 H 1579.15 4.40321 -4.07722 0
M  V30 15382 H 1580.22 3.01807 -3.79526 0
M  V30 15383 N 1581.57 1.13606 1.09231 0
M  V30 15384 C 1582.53 0.818197 2.14099 0
M  V30 15385 C 1583.53 -0.173275 1.59864 0
M  V30 15386 O 1584.72 0.05405 1.74116 0
M  V30 15387 C 1581.85 0.218138 3.40201 0
M  V30 15388 H 1583.05 1.74748 2.43727 0
M  V30 15389 H 1580.6 0.940962 1.24802 0
M  V30 15390 H 1581.33 -0.720269 3.162 0
M  V30 15391 H 1581.12 0.932156 3.80859 0
M  V30 15392 H 1582.61 0.0126639 4.17598 0
M  V30 15393 N 1583.05 -1.27244 0.929878 0
M  V30 15394 C 1584.01 -2.25028 0.435315 0
M  V30 15395 C 1585.01 -1.54453 -0.447332 0
M  V30 15396 O 1586.2 -1.72424 -0.248105 0
M  V30 15397 C 1583.33 -3.38843 -0.373933 0
M  V30 15398 H 1584.52 -2.70293 1.2993 0
M  V30 15399 H 1582.08 -1.39204 0.710771 0
M  V30 15400 H 1582.81 -2.98963 -1.25664 0
M  V30 15401 H 1582.6 -3.91244 0.258946 0
M  V30 15402 H 1584.09 -4.11516 -0.710255 0
M  V30 15403 N 1584.52 -0.695628 -1.41417 0
M  V30 15404 C 1585.77 -0.226171 -2.0083 0
M  V30 15405 C 1586.09 1.17833 -1.55371 0
M  V30 15406 O 1585.36 1.79512 -0.784362 0
M  V30 15407 H 1583.94 -0.0806271 -0.742636 0
M  V30 15408 H 1586.6 -0.8968 -1.73042 0
M  V30 15409 H 1585.7 -0.243643 -3.11148 0
M  V30 15410 N 1586 1.51322 -0.440383 0
M  V30 15411 C 1587.23 2.0653 0.123649 0
M  V30 15412 C 1587.64 1.30751 1.36197 0
M  V30 15413 O 1587 0.367932 1.78753 0
M  V30 15414 C 1587.05 3.58778 0.442802 0
M  V30 15415 O 1586.77 4.31695 -0.746375 0
M  V30 15416 C 1588.27 4.3051 1.05717 0
M  V30 15417 H 1585.49 0.670968 0.00657466 0
M  V30 15418 H 1588.04 1.94864 -0.620341 0
M  V30 15419 H 1586.19 3.70349 1.13669 0
M  V30 15420 H 1586.61 5.22368 -0.472466 0
M  V30 15421 H 1588.08 5.38111 1.23046 0
M  V30 15422 H 1588.56 3.88999 2.03903 0
M  V30 15423 H 1589.16 4.2339 0.402574 0
M  V30 15424 N 1587.48 0.171848 1.5666 0
M  V30 15425 C 1588.39 -0.770721 2.21579 0
M  V30 15426 C 1589.41 -1.25273 1.20759 0
M  V30 15427 O 1590.58 -1.30474 1.53422 0
M  V30 15428 C 1587.65 -1.98256 2.84422 0
M  V30 15429 C 1586.71 -1.54738 4.00443 0
M  V30 15430 C 1585.94 -2.70145 4.6028 0
M  V30 15431 O 1586.16 -3.87026 4.19007 0
M  V30 15432 O 1585.1 -2.44189 5.50141 0
M  V30 15433 H 1588.92 -0.247974 3.02686 0
M  V30 15434 H 1586.51 -0.0563734 1.49294 0
M  V30 15435 H 1588.39 -2.69127 3.24266 0
M  V30 15436 H 1587.07 -2.49435 2.0631 0
M  V30 15437 H 1585.97 -0.808152 3.65267 0
M  V30 15438 H 1587.31 -1.08249 4.80149 0
M  V30 15439 N 1588.96 -1.5727 -0.101874 0
M  V30 15440 C 1590.19 -1.89667 -0.81914 0
M  V30 15441 C 1590.6 -0.763027 -1.73132 0
M  V30 15442 O 1589.94 0.274317 -1.8164 0
M  V30 15443 C 1590 -3.17252 -1.6909 0
M  V30 15444 C 1589.66 -4.4699 -0.951257 0
M  V30 15445 C 1590.66 -5.19123 -0.28417 0
M  V30 15446 C 1588.35 -4.93665 -0.927349 0
M  V30 15447 C 1590.34 -6.36163 0.396934 0
M  V30 15448 C 1588.03 -6.10619 -0.242456 0
M  V30 15449 C 1589.03 -6.81717 0.418514 0
M  V30 15450 O 1588.71 -7.96443 1.09244 0
M  V30 15451 H 1588.45 -0.632024 -0.239836 0
M  V30 15452 H 1591 -2.05222 -0.0855979 0
M  V30 15453 H 1589.23 -2.97825 -2.46651 0
M  V30 15454 H 1590.92 -3.35533 -2.28413 0
M  V30 15455 H 1591.68 -4.84107 -0.294146 0
M  V30 15456 H 1587.56 -4.38219 -1.43126 0
M  V30 15457 H 1591.11 -6.91594 0.913417 0
M  V30 15458 H 1587 -6.45089 -0.230303 0
M  V30 15459 H 1587.77 -8.12385 0.998647 0
M  V30 15460 N 1590.44 0.372521 -1.53134 0
M  V30 15461 C 1591.85 0.713727 -1.42752 0
M  V30 15462 C 1592.05 1.93532 -0.561051 0
M  V30 15463 O 1591.11 2.52467 -0.0408195 0
M  V30 15464 C 1592.42 0.933418 -2.85846 0
M  V30 15465 C 1593.97 1.03386 -2.95432 0
M  V30 15466 C 1594.44 1.28607 -4.39573 0
M  V30 15467 N 1595.93 1.35393 -4.42971 0
M  V30 15468 C 1596.67 1.56604 -5.516 0
M  V30 15469 N 1596.17 1.75178 -6.70287 0
M  V30 15470 N 1597.96 1.58917 -5.39168 0
M  V30 15471 H 1590.11 -0.431068 -2.0798 0
M  V30 15472 H 1592.37 -0.130757 -0.938939 0
M  V30 15473 H 1592.08 0.107707 -3.51535 0
M  V30 15474 H 1591.95 1.84348 -3.29083 0
M  V30 15475 H 1594.34 1.85012 -2.29901 0
M  V30 15476 H 1594.42 0.101346 -2.55599 0
M  V30 15477 H 1594.06 0.47485 -5.05675 0
M  V30 15478 H 1593.99 2.2317 -4.76973 0
M  V30 15479 H 1596.49 1.22681 -3.57432 0
M  V30 15480 H 1596.8 1.90916 -7.48846 0
M  V30 15481 H 1595.14 1.7237 -6.73286 0
M  V30 15482 H 1598.33 1.4397 -4.4541 0
M  V30 15483 H 1598.51 1.75108 -6.23892 0
M  V30 15484 N 1591.91 1.44376 0.631925 0
M  V30 15485 C 1592.88 1.50825 1.72582 0
M  V30 15486 C 1593.88 0.390379 1.55989 0
M  V30 15487 O 1595.07 0.65297 1.61499 0
M  V30 15488 C 1592.2 1.38141 3.11657 0
M  V30 15489 H 1593.39 2.48265 1.68239 0
M  V30 15490 H 1590.94 1.31456 0.845514 0
M  V30 15491 H 1591.68 0.417905 3.21596 0
M  V30 15492 H 1591.46 2.19198 3.25107 0
M  V30 15493 H 1592.95 1.45633 3.91383 0
M  V30 15494 N 1593.39 -0.872258 1.31261 0
M  V30 15495 C 1594.64 -1.62752 1.20994 0
M  V30 15496 C 1594.97 -1.9281 -0.231942 0
M  V30 15497 O 1594.25 -1.55808 -1.16423 0
M  V30 15498 C 1594.53 -2.95921 2.0519 0
M  V30 15499 C 1594.38 -2.72756 3.57665 0
M  V30 15500 C 1595.7 -3.96996 1.89953 0
M  V30 15501 H 1592.82 -0.590581 0.440889 0
M  V30 15502 H 1595.46 -1.00848 1.61027 0
M  V30 15503 H 1593.61 -3.48756 1.71177 0
M  V30 15504 H 1595.28 -2.26611 4.01803 0
M  V30 15505 H 1593.53 -2.07029 3.81211 0
M  V30 15506 H 1594.2 -3.67502 4.11882 0
M  V30 15507 H 1596.67 -3.53363 2.19713 0
M  V30 15508 H 1595.55 -4.88063 2.51169 0
M  V30 15509 H 1595.81 -4.33611 0.862191 0
M  V30 15510 N 1594.87 -1.14184 -1.08627 0
M  V30 15511 C 1596.12 -0.908664 -1.80968 0
M  V30 15512 C 1596.44 0.564864 -1.86117 0
M  V30 15513 O 1595.7 1.4344 -1.33129 0
M  V30 15514 C 1596 -1.4519 -3.2658 0
M  V30 15515 C 1595.66 -2.94368 -3.41552 0
M  V30 15516 C 1594.33 -3.35096 -3.45346 0
M  V30 15517 C 1596.68 -3.90304 -3.45416 0
M  V30 15518 C 1594.01 -4.70428 -3.50591 0
M  V30 15519 C 1596.36 -5.25491 -3.52196 0
M  V30 15520 C 1595.02 -5.65734 -3.54262 0
M  V30 15521 H 1594.29 -0.332504 -0.66221 0
M  V30 15522 H 1596.94 -1.42514 -1.27914 0
M  V30 15523 H 1595.24 -0.856308 -3.82328 0
M  V30 15524 H 1596.94 -1.24746 -3.81103 0
M  V30 15525 H 1593.53 -2.61879 -3.3929 0
M  V30 15526 H 1597.72 -3.59921 -3.41718 0
M  V30 15527 H 1592.97 -5.00971 -3.50482 0
M  V30 15528 H 1597.15 -5.99637 -3.54131 0
M  V30 15529 H 1594.77 -6.70585 -3.58079 0
M  V30 15530 N 1596.35 1.26749 -0.936613 0
M  V30 15531 C 1597.58 1.98059 -0.598357 0
M  V30 15532 C 1597.99 1.6979 0.825646 0
M  V30 15533 O 1597.35 0.963514 1.54992 0
M  V30 15534 C 1597.4 3.51948 -0.825519 0
M  V30 15535 O 1597.12 3.79232 -2.19351 0
M  V30 15536 C 1598.62 4.40503 -0.497186 0
M  V30 15537 H 1595.84 0.631826 -0.225914 0
M  V30 15538 H 1598.39 1.61379 -1.25607 0
M  V30 15539 H 1596.54 3.86806 -0.214479 0
M  V30 15540 H 1596.95 4.73782 -2.25014 0
M  V30 15541 H 1598.43 5.47457 -0.706779 0
M  V30 15542 H 1598.91 4.35516 0.567645 0
M  V30 15543 H 1599.51 4.11181 -1.08675 0
M  V30 15544 N 1597.83 0.703118 1.41046 0
M  V30 15545 C 1598.77 0.0312802 2.32579 0
M  V30 15546 C 1599.77 -0.760463 1.51371 0
M  V30 15547 O 1600.97 -0.665235 1.67256 0
M  V30 15548 H 1597.35 -0.00868655 0.75195 0
M  V30 15549 H 1599.32 0.820195 2.86907 0
M  V30 15550 C 1598.07 -0.885639 3.36232 0
M  V30 15551 H 1597.39 -0.285819 3.98777 0
M  V30 15552 H 1598.83 -1.3239 4.02801 0
M  V30 15553 C 1597.29 -2.00533 2.70718 0
M  V30 15554 O 1597.82 -3.09491 2.56082 0
M  V30 15555 N 1596.03 -1.78528 2.29295 0
M  V30 15556 H 1595.57 -0.899139 2.41399 0
M  V30 15557 H 1595.53 -2.53627 1.85797 0
M  V30 15558 N 1599.3 -1.51086 0.448402 0
M  V30 15559 C 1600.27 -2.26575 -0.3459 0
M  V30 15560 C 1601.27 -1.3045 -0.940178 0
M  V30 15561 O 1602.46 -1.5407 -0.812898 0
M  V30 15562 C 1599.59 -3.06591 -1.49045 0
M  V30 15563 H 1600.78 -2.98232 0.315822 0
M  V30 15564 H 1598.34 -1.54991 0.201851 0
M  V30 15565 H 1599.07 -2.39377 -2.1879 0
M  V30 15566 H 1598.86 -3.77207 -1.07038 0
M  V30 15567 H 1600.35 -3.63743 -2.05135 0
M  V30 15568 N 1600.78 -0.180154 -1.56567 0
M  V30 15569 C 1602.03 0.463205 -1.97439 0
M  V30 15570 C 1602.36 1.62296 -1.06647 0
M  V30 15571 O 1601.64 1.94157 -0.115382 0
M  V30 15572 C 1601.92 0.937709 -3.47677 0
M  V30 15573 C 1601.77 -0.222835 -4.49248 0
M  V30 15574 C 1603.09 1.80836 -4.01231 0
M  V30 15575 H 1600.21 0.166899 -0.717854 0
M  V30 15576 H 1602.85 -0.268069 -1.88099 0
M  V30 15577 H 1601 1.56084 -3.55767 0
M  V30 15578 H 1602.67 -0.860155 -4.5321 0
M  V30 15579 H 1600.92 -0.876962 -4.24843 0
M  V30 15580 H 1601.59 0.151444 -5.51792 0
M  V30 15581 H 1604.06 1.28297 -3.95827 0
M  V30 15582 H 1602.94 2.10937 -5.06751 0
M  V30 15583 H 1603.2 2.75728 -3.45581 0
M  V30 15584 N 1602.26 1.57322 0.0935319 0
M  V30 15585 C 1603.51 1.858 0.795165 0
M  V30 15586 C 1603.83 0.769078 1.79193 0
M  V30 15587 O 1603.1 -0.204511 1.9483 0
M  V30 15588 H 1601.68 0.68557 0.296653 0
M  V30 15589 H 1604.34 1.94756 0.0747892 0
M  V30 15590 H 1603.44 2.82588 1.32479 0
M  V30 15591 N 1603.74 -0.364395 1.53329 0
M  V30 15592 C 1604.97 -1.1275 1.7348 0
M  V30 15593 C 1605.38 -1.83002 0.4643 0
M  V30 15594 O 1604.74 -1.73603 -0.562864 0
M  V30 15595 C 1604.79 -2.15691 2.90103 0
M  V30 15596 O 1604.51 -1.48298 4.12237 0
M  V30 15597 C 1606.01 -3.04539 3.22135 0
M  V30 15598 H 1603.23 -0.337084 0.580186 0
M  V30 15599 H 1605.78 -0.422952 2.00078 0
M  V30 15600 H 1603.93 -2.81742 2.65895 0
M  V30 15601 H 1604.34 -2.16896 4.77553 0
M  V30 15602 H 1605.82 -3.72747 4.07141 0
M  V30 15603 H 1606.3 -3.69414 2.3755 0
M  V30 15604 H 1606.9 -2.44103 3.48273 0
M  V30 15605 N 1605.22 -1.44709 -0.62426 0
M  V30 15606 C 1606.18 -1.51738 -1.7178 0
M  V30 15607 C 1607.18 -0.398646 -1.5578 0
M  V30 15608 O 1608.37 -0.661525 -1.61151 0
M  V30 15609 C 1605.5 -1.39792 -3.1092 0
M  V30 15610 H 1606.69 -2.49154 -1.6692 0
M  V30 15611 H 1604.25 -1.31903 -0.838531 0
M  V30 15612 H 1604.98 -0.434955 -3.2137 0
M  V30 15613 H 1604.77 -2.20919 -3.2394 0
M  V30 15614 H 1606.26 -1.47706 -3.90606 0
M  V30 15615 N 1606.69 0.865285 -1.31722 0
M  V30 15616 C 1607.66 1.95449 -1.19718 0
M  V30 15617 C 1608.66 1.60329 -0.123025 0
M  V30 15618 O 1609.85 1.70168 -0.372643 0
M  V30 15619 C 1606.98 3.30421 -0.838718 0
M  V30 15620 H 1608.17 2.07522 -2.16506 0
M  V30 15621 H 1605.73 1.05416 -1.154 0
M  V30 15622 H 1606.46 3.24048 0.127797 0
M  V30 15623 H 1606.25 3.57286 -1.61522 0
M  V30 15624 H 1607.74 4.10274 -0.77876 0
M  V30 15625 N 1608.17 1.14759 1.0802 0
M  V30 15626 C 1609.4 0.941887 1.84218 0
M  V30 15627 C 1609.82 -0.509702 1.8179 0
M  V30 15628 O 1609.17 -1.35331 1.22441 0
M  V30 15629 C 1609.22 1.43978 3.31591 0
M  V30 15630 O 1608.94 2.83449 3.34048 0
M  V30 15631 C 1610.45 1.27459 4.24581 0
M  V30 15632 H 1607.67 0.334942 0.581425 0
M  V30 15633 H 1610.21 1.52367 1.36399 0
M  V30 15634 H 1608.36 0.900674 3.76785 0
M  V30 15635 H 1608.78 3.05878 4.26073 0
M  V30 15636 H 1610.25 1.67151 5.26084 0
M  V30 15637 H 1610.73 0.217925 4.38659 0
M  V30 15638 H 1611.34 1.80243 3.85217 0
M  V30 15639 N 1609.65 -1.26251 0.943322 0
M  V30 15640 C 1610.56 -2.3003 0.460778 0
M  V30 15641 C 1611.58 -1.67635 -0.4663 0
M  V30 15642 O 1612.75 -1.98418 -0.345307 0
M  V30 15643 C 1609.82 -3.45691 -0.264291 0
M  V30 15644 C 1608.88 -4.23561 0.69961 0
M  V30 15645 C 1608.11 -5.33699 0.00904846 0
M  V30 15646 O 1608.33 -5.57473 -1.20748 0
M  V30 15647 O 1607.27 -5.97945 0.688839 0
M  V30 15648 H 1611.09 -2.73374 1.32289 0
M  V30 15649 H 1608.68 -1.31489 0.709297 0
M  V30 15650 H 1610.56 -4.15997 -0.672634 0
M  V30 15651 H 1609.24 -3.04373 -1.10176 0
M  V30 15652 H 1608.14 -3.55728 1.15794 0
M  V30 15653 H 1609.48 -4.68634 1.50476 0
M  V30 15654 N 1611.13 -0.710588 -1.40671 0
M  V30 15655 C 1612.54 -0.320926 -1.83921 0
M  V30 15656 C 1612.89 1.14358 -1.59426 0
M  V30 15657 O 1612.02 1.87952 -1.07252 0
M  V30 15658 C 1612.61 -0.5757 -3.33873 0
M  V30 15659 C 1611.17 -0.239799 -3.75635 0
M  V30 15660 C 1610.32 -0.850552 -2.63934 0
M  V30 15661 H 1613.27 -0.910118 -1.3001 0
M  V30 15662 H 1613.29 0.160707 -3.8016 0
M  V30 15663 H 1612.8 -1.64166 -3.51669 0
M  V30 15664 H 1610.9 0.821297 -3.63436 0
M  V30 15665 H 1611.02 -0.705306 -4.7388 0
M  V30 15666 H 1609.38 -0.278977 -2.53168 0
M  V30 15667 H 1610.16 -1.92068 -2.84543 0
M  V30 15668 N 1612.61 1.50847 -0.456408 0
M  V30 15669 C 1613.57 2.26755 0.33388 0
M  V30 15670 C 1614.57 1.30947 0.933247 0
M  V30 15671 O 1615.76 1.54499 0.804716 0
M  V30 15672 C 1612.89 3.07378 1.47417 0
M  V30 15673 H 1614.09 2.98061 -0.331634 0
M  V30 15674 H 1611.64 1.54882 -0.210067 0
M  V30 15675 H 1612.37 2.40534 2.17518 0
M  V30 15676 H 1612.16 3.7777 1.05036 0
M  V30 15677 H 1613.65 3.64826 2.03204 0
M  V30 15678 N 1614.09 0.188454 1.56469 0
M  V30 15679 C 1615 -0.747176 2.22384 0
M  V30 15680 C 1616.01 -1.23985 1.22081 0
M  V30 15681 O 1617.19 -1.2884 1.54797 0
M  V30 15682 C 1614.25 -1.95228 2.86508 0
M  V30 15683 C 1613.31 -1.50482 4.02062 0
M  V30 15684 C 1612.55 -2.65248 4.63119 0
M  V30 15685 O 1612.77 -3.8256 4.23088 0
M  V30 15686 O 1611.7 -2.38341 5.527 0
M  V30 15687 H 1615.53 -0.215857 3.02932 0
M  V30 15688 H 1613.11 -0.0405356 1.49345 0
M  V30 15689 H 1615 -2.65673 3.27103 0
M  V30 15690 H 1613.67 -2.47233 2.08944 0
M  V30 15691 H 1612.58 -0.769365 3.66103 0
M  V30 15692 H 1613.91 -1.03151 4.8127 0
M  V30 15693 N 1615.56 -1.5737 -0.0851874 0
M  V30 15694 C 1616.49 -2.05796 -1.10319 0
M  V30 15695 C 1617.47 -0.948796 -1.4118 0
M  V30 15696 O 1618.66 -1.22069 -1.51039 0
M  V30 15697 C 1615.79 -2.49069 -2.42037 0
M  V30 15698 C 1614.74 -3.6374 -2.25561 0
M  V30 15699 C 1614.07 -3.93023 -3.62543 0
M  V30 15700 C 1615.37 -4.94274 -1.68793 0
M  V30 15701 H 1617.06 -2.91095 -0.700274 0
M  V30 15702 H 1614.61 -1.40039 -0.335405 0
M  V30 15703 H 1616.56 -2.81558 -3.13534 0
M  V30 15704 H 1615.29 -1.60781 -2.84283 0
M  V30 15705 H 1613.95 -3.31513 -1.56507 0
M  V30 15706 H 1613.59 -3.01887 -4.02335 0
M  V30 15707 H 1613.29 -4.70229 -3.52362 0
M  V30 15708 H 1614.82 -4.27995 -4.35491 0
M  V30 15709 H 1616.23 -5.25079 -2.30141 0
M  V30 15710 H 1614.63 -5.75711 -1.69344 0
M  V30 15711 H 1615.7 -4.80548 -0.648204 0
M  V30 15712 N 1617.04 0.356258 -1.53521 0
M  V30 15713 C 1618 1.41975 -1.79933 0
M  V30 15714 C 1619 1.46177 -0.669997 0
M  V30 15715 O 1620.19 1.46774 -0.938239 0
M  V30 15716 C 1617.33 2.81015 -1.92985 0
M  V30 15717 H 1618.52 1.19824 -2.74922 0
M  V30 15718 H 1616.07 0.589928 -1.4474 0
M  V30 15719 H 1616.81 3.08466 -1.00095 0
M  V30 15720 H 1616.59 2.79363 -2.75135 0
M  V30 15721 H 1618.08 3.58013 -2.1498 0
M  V30 15722 N 1618.52 1.45038 0.616577 0
M  V30 15723 C 1619.77 1.48805 1.37786 0
M  V30 15724 C 1620.1 0.125811 1.93792 0
M  V30 15725 O 1619.37 -0.858544 1.74526 0
M  V30 15726 C 1619.66 2.56008 2.53242 0
M  V30 15727 C 1619.51 4.01643 2.02491 0
M  V30 15728 C 1620.83 2.59578 3.55398 0
M  V30 15729 H 1617.95 0.541776 0.499647 0
M  V30 15730 H 1620.59 1.76799 0.695859 0
M  V30 15731 H 1618.74 2.32269 3.11422 0
M  V30 15732 H 1620.41 4.36564 1.4903 0
M  V30 15733 H 1618.65 4.12728 1.33559 0
M  V30 15734 H 1619.33 4.72326 2.85679 0
M  V30 15735 H 1621.8 2.80826 3.07044 0
M  V30 15736 H 1620.68 3.36466 4.33684 0
M  V30 15737 H 1620.94 1.64325 4.10426 0
M  V30 15738 N 1620 -0.858287 1.32179 0
M  V30 15739 C 1620.93 -1.97304 1.16636 0
M  V30 15740 C 1621.94 -1.62478 0.102311 0
M  V30 15741 O 1623.13 -1.75016 0.350926 0
M  V30 15742 C 1620.23 -3.30215 0.762337 0
M  V30 15743 C 1619.4 -3.93305 1.9139 0
M  V30 15744 C 1618.46 -5.04545 1.49402 0
M  V30 15745 O 1617.49 -5.24735 2.20548 0
M  V30 15746 N 1618.69 -5.79202 0.387984 0
M  V30 15747 H 1621.46 -2.11179 2.12658 0
M  V30 15748 H 1619.02 -1.03294 1.24668 0
M  V30 15749 H 1621.01 -4.02032 0.463922 0
M  V30 15750 H 1619.58 -3.12418 -0.10662 0
M  V30 15751 H 1618.8 -3.1432 2.37901 0
M  V30 15752 H 1620.09 -4.32192 2.68492 0
M  V30 15753 H 1619.49 -5.65331 -0.204252 0
M  V30 15754 H 1618.04 -6.51629 0.149158 0
M  V30 15755 N 1621.48 -1.1533 -1.07409 0
M  V30 15756 C 1622.89 -0.895817 -1.32088 0
M  V30 15757 C 1623.09 0.457526 -1.96237 0
M  V30 15758 O 1622.15 1.19958 -2.22185 0
M  V30 15759 C 1623.46 -2.03632 -2.21256 0
M  V30 15760 C 1625.01 -2.07079 -2.34707 0
M  V30 15761 C 1625.48 -3.20451 -3.27223 0
M  V30 15762 N 1626.97 -3.20095 -3.34804 0
M  V30 15763 C 1627.71 -4.04458 -4.0645 0
M  V30 15764 N 1627.21 -4.98883 -4.80715 0
M  V30 15765 N 1629 -3.92483 -4.02385 0
M  V30 15766 H 1621.15 -2.02478 -0.641578 0
M  V30 15767 H 1623.41 -0.882864 -0.345332 0
M  V30 15768 H 1623.12 -3.0132 -1.81381 0
M  V30 15769 H 1622.99 -1.96817 -3.21781 0
M  V30 15770 H 1625.38 -1.09991 -2.73836 0
M  V30 15771 H 1625.46 -2.17962 -1.3389 0
M  V30 15772 H 1625.1 -4.17791 -2.88813 0
M  V30 15773 H 1625.03 -3.06805 -4.27993 0
M  V30 15774 H 1627.53 -2.51712 -2.81868 0
M  V30 15775 H 1627.84 -5.59698 -5.32877 0
M  V30 15776 H 1626.18 -5.02872 -4.79734 0
M  V30 15777 H 1629.37 -3.18026 -3.43478 0
M  V30 15778 H 1629.55 -4.58454 -4.57956 0
M  V30 15779 N 1622.95 1.25748 -0.950004 0
M  V30 15780 C 1624.36 1.75253 -0.643694 0
M  V30 15781 C 1624.72 1.77261 0.841017 0
M  V30 15782 O 1623.84 1.39043 1.65819 0
M  V30 15783 C 1624.44 3.1826 -1.16173 0
M  V30 15784 C 1622.99 3.65342 -0.905672 0
M  V30 15785 C 1622.14 2.4454 -1.30749 0
M  V30 15786 H 1625.09 1.117 -1.12733 0
M  V30 15787 H 1625.11 3.76935 -0.519651 0
M  V30 15788 H 1624.63 3.16766 -2.24234 0
M  V30 15789 H 1622.73 3.72256 0.160174 0
M  V30 15790 H 1622.84 4.53713 -1.53888 0
M  V30 15791 H 1621.2 2.44138 -0.725876 0
M  V30 15792 H 1621.99 2.45741 -2.39721 0
M  V30 15793 N 1624.43 0.718038 1.40292 0
M  V30 15794 C 1625.85 0.391848 1.54715 0
M  V30 15795 C 1626.05 -1.09911 1.68884 0
M  V30 15796 O 1625.1 -1.88518 1.6798 0
M  V30 15797 C 1626.42 1.16005 2.77423 0
M  V30 15798 C 1627.96 1.14659 2.91243 0
M  V30 15799 C 1628.44 1.897 4.16867 0
M  V30 15800 N 1629.93 1.86781 4.23872 0
M  V30 15801 C 1630.67 2.41665 5.19986 0
M  V30 15802 N 1630.16 3.05116 6.21994 0
M  V30 15803 N 1631.95 2.31794 5.12082 0
M  V30 15804 H 1624.11 1.68477 1.29342 0
M  V30 15805 H 1626.37 0.712248 0.625625 0
M  V30 15806 H 1626.07 2.21435 2.73239 0
M  V30 15807 H 1625.95 0.75328 3.69602 0
M  V30 15808 H 1628.34 0.100477 2.94929 0
M  V30 15809 H 1628.42 1.5926 2.00175 0
M  V30 15810 H 1628.06 2.94303 4.13942 0
M  V30 15811 H 1627.99 1.42518 5.06948 0
M  V30 15812 H 1630.48 1.40541 3.50794 0
M  V30 15813 H 1630.79 3.44505 6.91763 0
M  V30 15814 H 1629.14 3.09201 6.22431 0
M  V30 15815 H 1632.33 1.81879 4.31321 0
M  V30 15816 H 1632.5 2.74868 5.86815 0
M  V30 15817 N 1625.91 -1.50602 0.464402 0
M  V30 15818 C 1627.14 -2.07191 -0.0930678 0
M  V30 15819 C 1627.56 -1.32675 -1.33338 0
M  V30 15820 O 1626.92 -0.372453 -1.77433 0
M  V30 15821 C 1626.97 -3.5873 -0.366775 0
M  V30 15822 O 1626.07 -3.86125 -1.44849 0
M  V30 15823 H 1625.41 -0.663924 0.0100336 0
M  V30 15824 H 1627.94 -1.93882 0.653522 0
M  V30 15825 H 1627.95 -4.03425 -0.609258 0
M  V30 15826 H 1626.63 -4.12385 0.539608 0
M  V30 15827 H 1625.2 -3.53273 -1.19384 0
M  V30 15828 O 1627.43 -0.338096 -1.57921 0
M  V30 15829 H 1628.12 0.218593 -1.92463 0
M  V30 END ATOM
M  V30 BEGIN BOND
M  V30 END BOND
M  V30 END CTAB
M  END
$$$$
