drugbank_target|P14169 CDP-paratose 2-epimerase (DB04555)
 OpenBabel12092119573D

  0  0  0     0  0            999 V3000
M  V30 BEGIN CTAB
M  V30 COUNTS 5266 5322 0 0 0
M  V30 BEGIN ATOM
M  V30 1 H -0.908 1.98254 -0.117106 0
M  V30 2 N 0 1.576 0 0
M  V30 3 C 0.933 2.03868 1.02534 0
M  V30 4 C 1.911 0.928543 1.3348 0
M  V30 5 O 3.095 1.19667 1.45644 0
M  V30 6 C 0.222 2.43627 2.35294 0
M  V30 7 C -0.732 3.65373 2.2001 0
M  V30 8 S 0.101 5.13292 1.52614 0
M  V30 9 C 1.257 5.56322 2.86805 0
M  V30 10 H 1.49 2.90518 0.631377 0
M  V30 11 H -0.977 1.52953 0.210867 0
M  V30 12 H 0.981 2.67203 3.11629 0
M  V30 13 H -0.358 1.57376 2.7183 0
M  V30 14 H -1.165 3.90944 3.18086 0
M  V30 15 H -1.563 3.418 1.51819 0
M  V30 16 H 0.729 5.58782 3.83104 0
M  V30 17 H 1.672 6.56266 2.65933 0
M  V30 18 H 2.08 4.83886 2.90714 0
M  V30 19 N 1.4781 -0.272755 1.55222 0
M  V30 20 C 2.4251 -1.33716 1.88119 0
M  V30 21 C 3.3951 -1.49066 0.73271 0
M  V30 22 O 4.5801 -1.63469 0.984002 0
M  V30 23 C 1.7201 -2.69238 2.15882 0
M  V30 24 C 0.8331 -2.62108 3.43399 0
M  V30 25 C -0.0319 -3.89811 3.60861 0
M  V30 26 C -0.9929 -3.77193 4.8207 0
M  V30 27 N -1.8559 -4.9673 4.96189 0
M  V30 28 H 2.9841 -1.04962 2.78903 0
M  V30 29 H 0.5211 -0.507088 1.38083 0
M  V30 30 H 2.4791 -3.48089 2.29978 0
M  V30 31 H 1.1091 -2.96194 1.28331 0
M  V30 32 H 0.1611 -1.74967 3.37773 0
M  V30 33 H 1.4731 -2.48685 4.32386 0
M  V30 34 H 0.6271 -4.77103 3.74777 0
M  V30 35 H -0.6339 -4.06102 2.7006 0
M  V30 36 H -1.6289 -2.88284 4.68159 0
M  V30 37 H -0.4039 -3.62421 5.74307 0
M  V30 38 H -2.4579 -5.13431 4.08319 0
M  V30 39 H -2.5409 -4.85839 5.79221 0
M  V30 40 H -1.2729 -5.85594 5.1449 0
M  V30 41 N 2.9562 -1.48159 -0.537278 0
M  V30 42 C 3.8862 -1.65029 -1.6519 0
M  V30 43 C 4.8672 -0.499281 -1.62607 0
M  V30 44 O 6.0522 -0.730972 -1.79918 0
M  V30 45 C 3.1822 -1.68303 -3.03795 0
M  V30 46 C 2.1362 -2.8283 -3.21234 0
M  V30 47 C 1.4622 -2.71189 -4.60826 0
M  V30 48 C 2.7622 -4.24211 -3.04701 0
M  V30 49 H 4.4562 -2.58341 -1.51328 0
M  V30 50 H 2.0022 -1.24325 -0.726585 0
M  V30 51 H 3.9552 -1.78693 -3.81637 0
M  V30 52 H 2.6792 -0.715635 -3.18663 0
M  V30 53 H 1.3382 -2.71983 -2.45807 0
M  V30 54 H 0.9862 -1.72435 -4.7252 0
M  V30 55 H 0.6862 -3.48035 -4.7344 0
M  V30 56 H 2.2102 -2.83537 -5.40777 0
M  V30 57 H 3.6242 -4.3593 -3.72341 0
M  V30 58 H 2.0212 -5.01998 -3.28813 0
M  V30 59 H 3.0912 -4.41184 -2.01209 0
M  V30 60 N 4.4343 0.785586 -1.36625 0
M  V30 61 C 5.3643 1.91259 -1.33949 0
M  V30 62 C 6.3453 1.68795 -0.210325 0
M  V30 63 O 7.5303 1.89854 -0.408561 0
M  V30 64 C 4.6603 3.28339 -1.13186 0
M  V30 65 C 3.6143 3.65335 -2.22967 0
M  V30 66 C 2.9403 5.00806 -1.87342 0
M  V30 67 C 4.2403 3.7352 -3.65075 0
M  V30 68 H 5.9343 1.93755 -2.28253 0
M  V30 69 H 3.4803 0.930788 -1.09874 0
M  V30 70 H 5.4333 4.06804 -1.09948 0
M  V30 71 H 4.1573 3.2624 -0.153332 0
M  V30 72 H 2.8163 2.89169 -2.25337 0
M  V30 73 H 2.4643 4.95233 -0.880545 0
M  V30 74 H 2.1643 5.26529 -2.60846 0
M  V30 75 H 3.6883 5.81687 -1.85667 0
M  V30 76 H 5.1023 4.42168 -3.64911 0
M  V30 77 H 3.4993 4.10731 -4.37516 0
M  V30 78 H 4.5693 2.74527 -3.99703 0
M  V30 79 N 5.9124 1.20967 1.01018 0
M  V30 80 C 7.1614 1.01796 1.74128 0
M  V30 81 C 7.4744 -0.449691 1.90361 0
M  V30 82 O 8.6804 -0.76068 2.60626 0
M  V30 83 C 7.1364 1.7727 3.13215 0
M  V30 84 C 6.7444 3.28171 3.04972 0
M  V30 85 C 8.4884 1.66489 3.90489 0
M  V30 86 C 6.3954 3.96156 4.39107 0
M  V30 87 H 5.3254 0.377276 0.652824 0
M  V30 88 H 7.9764 1.44651 1.12909 0
M  V30 89 H 6.3584 1.27205 3.75013 0
M  V30 90 H 7.5324 3.85499 2.52443 0
M  V30 91 H 5.8474 3.39437 2.41188 0
M  V30 92 H 8.4444 2.14617 4.89738 0
M  V30 93 H 8.7874 0.6222 4.11624 0
M  V30 94 H 9.3204 2.14003 3.35332 0
M  V30 95 H 6.0594 5.00604 4.23174 0
M  V30 96 H 5.5794 3.43617 4.91617 0
M  V30 97 H 7.2584 4.00774 5.07926 0
M  V30 98 N 7.3905 -1.2043 1.01659 0
M  V30 99 C 8.6185 -1.93777 0.725132 0
M  V30 100 C 9.0335 -1.74772 -0.714166 0
M  V30 101 O 8.3905 -1.06169 -1.4844 0
M  V30 102 C 8.4415 -3.45876 1.05129 0
M  V30 103 O 8.1625 -3.6426 2.43406 0
M  V30 104 C 9.6635 -4.36368 0.780891 0
M  V30 105 H 6.8835 -0.615901 0.266284 0
M  V30 106 H 9.4275 -1.52922 1.35776 0
M  V30 107 H 7.5825 -3.8461 0.464065 0
M  V30 108 H 7.9965 -4.58246 2.55169 0
M  V30 109 H 9.4705 -5.41743 1.05918 0
M  V30 110 H 9.9475 -4.38275 -0.284937 0
M  V30 111 H 10.5535 -4.03296 1.35027 0
M  V30 112 N 8.8686 -0.792821 -1.36206 0
M  V30 113 C 10.1166 -0.366062 -1.98757 0
M  V30 114 C 10.4376 1.0668 -1.63231 0
M  V30 115 O 9.7076 1.73587 -0.907978 0
M  V30 116 H 8.2876 -0.132364 -0.735179 0
M  V30 117 H 10.9496 -1.01562 -1.66347 0
M  V30 118 H 10.0456 -0.460638 -3.08682 0
M  V30 119 N 10.3467 1.47872 -0.545128 0
M  V30 120 C 11.5947 2.02093 -0.016553 0
M  V30 121 C 11.9157 1.42305 1.3332 0
M  V30 122 O 11.1857 0.593853 1.86682 0
M  V30 123 H 9.7657 0.746993 -0.00313038 0
M  V30 124 H 12.4277 1.81414 -0.712397 0
M  V30 125 H 11.5237 3.11996 0.0805422 0
M  V30 126 N 11.8248 0.280983 1.55075 0
M  V30 127 C 13.0648 -0.335234 2.01632 0
M  V30 128 C 13.4288 -1.5261 1.16508 0
M  V30 129 O 14.6298 -2.21235 1.52672 0
M  V30 130 C 12.9008 -0.702172 3.50434 0
M  V30 131 S 14.4598 -1.30409 4.18974 0
M  V30 132 H 11.2778 -0.103967 0.703358 0
M  V30 133 H 13.8798 0.404187 1.91276 0
M  V30 134 H 12.5838 0.17333 4.10034 0
M  V30 135 H 12.1148 -1.4729 3.64786 0
M  V30 136 H 14.1298 -2.59253 4.23087 0
M  V30 137 N 13.3029 -1.57598 0.00835791 0
M  V30 138 C 14.5509 -1.90551 -0.6734 0
M  V30 139 C 14.8719 -0.883301 -1.73847 0
M  V30 140 O 14.1419 0.0781442 -1.95744 0
M  V30 141 H 12.7219 -0.703312 -0.251717 0
M  V30 142 H 15.3839 -1.94833 0.0512592 0
M  V30 143 H 14.4799 -2.9056 -1.13935 0
M  V30 144 N 14.781 0.264519 -1.55364 0
M  V30 145 C 16.028 0.994986 -1.7637 0
M  V30 146 C 16.356 1.85976 -0.5695 0
M  V30 147 O 15.611 1.90509 0.44776 0
M  V30 148 C 15.91 1.9004 -3.02687 0
M  V30 149 C 15.576 1.19243 -4.34847 0
M  V30 150 C 14.238 0.996709 -4.70764 0
M  V30 151 C 16.59 0.689296 -5.16622 0
M  V30 152 C 13.918 0.285261 -5.86006 0
M  V30 153 C 16.27 -0.00860079 -6.32599 0
M  V30 154 C 14.934 -0.215963 -6.67151 0
M  V30 155 H 14.204 0.364091 -0.645383 0
M  V30 156 H 16.851 0.266543 -1.89636 0
M  V30 157 H 15.156 2.69533 -2.84357 0
M  V30 158 H 16.853 2.46695 -3.16137 0
M  V30 159 H 13.443 1.3549 -4.06621 0
M  V30 160 H 17.627 0.828108 -4.89342 0
M  V30 161 H 12.883 0.113961 -6.11294 0
M  V30 162 H 17.057 -0.406186 -6.95214 0
M  V30 163 H 14.684 -0.769217 -7.56298 0
M  V30 164 N 16.2591 1.48442 0.529413 0
M  V30 165 C 17.1891 1.65902 1.64313 0
M  V30 166 C 18.1701 0.507897 1.6234 0
M  V30 167 O 19.3551 0.740503 1.79528 0
M  V30 168 C 16.4851 1.69911 3.02898 0
M  V30 169 C 15.4391 2.8453 3.19729 0
M  V30 170 C 14.7651 2.73629 4.59381 0
M  V30 171 C 16.0651 4.25821 3.02447 0
M  V30 172 H 17.7591 2.5914 1.49955 0
M  V30 173 H 15.3051 1.24709 0.719982 0
M  V30 174 H 17.2581 1.80715 3.80684 0
M  V30 175 H 15.9821 0.732524 3.18279 0
M  V30 176 H 14.6411 2.73283 2.44361 0
M  V30 177 H 14.2891 1.74938 4.71599 0
M  V30 178 H 13.9891 3.50541 4.71588 0
M  V30 179 H 15.5131 2.86401 5.39265 0
M  V30 180 H 16.9271 4.37898 3.70024 0
M  V30 181 H 15.3241 5.03735 3.26146 0
M  V30 182 H 16.3941 4.42244 1.98867 0
M  V30 183 N 17.7372 -0.778329 1.37039 0
M  V30 184 C 18.9852 -1.53361 1.31623 0
M  V30 185 C 19.3062 -1.94739 -0.100831 0
M  V30 186 O 18.5762 -1.65797 -1.04347 0
M  V30 187 H 17.1562 -0.568794 0.484234 0
M  V30 188 H 19.8182 -0.926742 1.71457 0
M  V30 189 H 18.9142 -2.43606 1.95096 0
M  V30 190 N 19.2153 -1.21501 -1.00376 0
M  V30 191 C 20.4403 -1.05977 -1.78279 0
M  V30 192 C 20.8653 0.385994 -1.84097 0
M  V30 193 O 20.2233 1.27849 -1.28547 0
M  V30 194 C 20.2713 -1.66302 -3.19963 0
M  V30 195 O 19.3753 -0.909333 -4.0225 0
M  V30 196 H 18.7163 -0.372906 -0.549397 0
M  V30 197 H 21.2463 -1.6107 -1.26165 0
M  V30 198 H 21.2563 -1.70574 -3.70632 0
M  V30 199 H 19.9313 -2.71515 -3.15043 0
M  V30 200 H 18.5083 -0.941795 -3.60811 0
M  V30 201 N 20.6934 1.19889 -1.02296 0
M  V30 202 C 21.6414 2.24938 -0.592081 0
M  V30 203 C 22.6354 1.65257 0.372357 0
M  V30 204 O 23.8414 1.78371 0.241583 0
M  V30 205 H 20.2164 0.731787 -0.173182 0
M  V30 206 H 22.1874 2.58603 -1.48885 0
M  V30 207 C 20.9364 3.47668 0.047351 0
M  V30 208 H 20.2594 3.93875 -0.685772 0
M  V30 209 H 21.6994 4.22852 0.311862 0
M  V30 210 C 20.1584 3.11136 1.29212 0
M  V30 211 O 20.6884 3.2325 2.38479 0
M  V30 212 N 18.8944 2.65625 1.17863 0
M  V30 213 H 18.4414 2.55968 0.289493 0
M  V30 214 H 18.3994 2.41553 2.01245 0
M  V30 215 N 22.1715 0.800033 1.35784 0
M  V30 216 C 23.1015 0.220184 2.3246 0
M  V30 217 C 24.0825 -0.65073 1.57161 0
M  V30 218 O 25.2675 -0.582359 1.85263 0
M  V30 219 C 22.3975 -0.637353 3.41402 0
M  V30 220 C 21.3515 0.134531 4.27789 0
M  V30 221 C 20.6775 -0.844285 5.27992 0
M  V30 222 C 21.9775 1.32979 5.05088 0
M  V30 223 H 23.6715 1.02787 2.81203 0
M  V30 224 H 21.2175 0.495717 1.35199 0
M  V30 225 H 23.1705 -1.05302 4.08031 0
M  V30 226 H 21.8945 -1.47785 2.91251 0
M  V30 227 H 20.5535 0.531296 3.6273 0
M  V30 228 H 20.2015 -1.68011 4.74111 0
M  V30 229 H 19.9015 -0.332184 5.8666 0
M  V30 230 H 21.4255 -1.2583 5.97494 0
M  V30 231 H 22.8395 0.98934 5.64699 0
M  V30 232 H 21.2365 1.77593 5.7322 0
M  V30 233 H 22.3065 2.11978 4.36111 0
M  V30 234 N 23.6496 -1.47581 0.552962 0
M  V30 235 C 24.6126 -2.28439 -0.186605 0
M  V30 236 C 25.6126 -1.36706 -0.84665 0
M  V30 237 O 26.8026 -1.59378 -0.703164 0
M  V30 238 C 23.9346 -3.16264 -1.2724 0
M  V30 239 H 25.1276 -2.95294 0.523609 0
M  V30 240 H 22.6806 -1.532 0.309745 0
M  V30 241 H 23.4156 -2.54091 -2.01514 0
M  V30 242 H 23.2006 -3.83769 -0.803968 0
M  V30 243 H 24.6906 -3.77198 -1.79196 0
M  V30 244 N 25.1277 -0.289203 -1.54924 0
M  V30 245 C 26.3527 0.329299 -2.04769 0
M  V30 246 C 26.7777 1.4763 -1.16564 0
M  V30 247 O 26.1357 1.80527 -0.167186 0
M  V30 248 C 26.1837 0.774438 -3.52186 0
M  V30 249 O 25.2877 1.88038 -3.67036 0
M  V30 250 H 24.6287 0.0659259 -0.660719 0
M  V30 251 H 27.1587 -0.42761 -2.00082 0
M  V30 252 H 27.1687 1.06642 -3.93816 0
M  V30 253 H 25.8437 -0.0646707 -4.1585 0
M  V30 254 H 24.4207 1.58985 -3.3731 0
M  V30 255 N 26.6058 1.57591 -0.0167156 0
M  V30 256 C 27.8528 1.91283 0.664597 0
M  V30 257 C 28.1808 0.891949 1.72842 0
M  V30 258 O 27.4358 -0.100931 1.9544 0
M  V30 259 C 27.7348 3.3172 1.33029 0
M  V30 260 C 27.4008 4.4914 0.398047 0
M  V30 261 C 26.0628 4.80992 0.141421 0
M  V30 262 C 28.4148 5.20634 -0.242825 0
M  V30 263 C 25.7428 5.81703 -0.764092 0
M  V30 264 C 28.0948 6.22311 -1.13632 0
M  V30 265 C 26.7588 6.52611 -1.40196 0
M  V30 266 H 26.0288 0.699956 0.243193 0
M  V30 267 H 28.6758 1.9135 -0.0758267 0
M  V30 268 H 26.9808 3.27856 2.14517 0
M  V30 269 H 28.6778 3.55055 1.86379 0
M  V30 270 H 25.2678 4.24262 0.608238 0
M  V30 271 H 29.4518 4.96267 -0.0576019 0
M  V30 272 H 24.7078 6.03532 -0.977732 0
M  V30 273 H 28.8818 6.76834 -1.63917 0
M  V30 274 H 26.5088 7.30467 -2.10529 0
M  V30 275 N 28.0839 -0.256276 1.55502 0
M  V30 276 C 29.0469 -1.30047 1.88734 0
M  V30 277 C 30.0469 -1.4154 0.763086 0
M  V30 278 O 31.2369 -1.40403 1.03115 0
M  V30 279 C 28.3689 -2.67953 2.10747 0
M  V30 280 H 29.5619 -1.01802 2.82093 0
M  V30 281 H 27.1149 -0.495134 1.4825 0
M  V30 282 H 27.8499 -3.01351 1.19825 0
M  V30 283 H 27.6349 -2.60993 2.92617 0
M  V30 284 H 29.1249 -3.43368 2.37673 0
M  V30 285 N 29.562 -1.4872 -0.521534 0
M  V30 286 C 30.492 -1.66771 -1.63431 0
M  V30 287 C 31.473 -0.516499 -1.62069 0
M  V30 288 O 32.658 -0.750013 -1.79132 0
M  V30 289 C 29.788 -1.71515 -3.01993 0
M  V30 290 C 28.742 -2.86222 -3.18216 0
M  V30 291 C 28.068 -2.76061 -4.57924 0
M  V30 292 C 29.368 -4.27419 -3.00184 0
M  V30 293 H 31.062 -2.59932 -1.48579 0
M  V30 294 H 28.608 -1.25089 -0.713358 0
M  V30 295 H 30.561 -1.82731 -3.7972 0
M  V30 296 H 29.285 -0.749393 -3.17886 0
M  V30 297 H 27.944 -2.74575 -2.42908 0
M  V30 298 H 27.592 -1.77437 -4.70665 0
M  V30 299 H 27.292 -3.53037 -4.69722 0
M  V30 300 H 28.816 -2.89256 -5.37739 0
M  V30 301 H 30.23 -4.39855 -3.67697 0
M  V30 302 H 28.627 -5.05458 -3.2347 0
M  V30 303 H 29.697 -4.43293 -1.96518 0
M  V30 304 N 31.0401 0.771051 -1.3745 0
M  V30 305 C 32.2651 1.56529 -1.36065 0
M  V30 306 C 32.6901 1.88029 0.0515859 0
M  V30 307 O 32.0481 1.49282 1.02882 0
M  V30 308 C 32.0961 2.85187 -2.20683 0
M  V30 309 O 31.2001 3.79593 -1.61193 0
M  V30 310 H 30.5411 0.47411 -0.464883 0
M  V30 311 H 33.0711 0.954269 -1.80983 0
M  V30 312 H 33.0811 3.34283 -2.33921 0
M  V30 313 H 31.7561 2.61588 -3.23334 0
M  V30 314 H 30.3331 3.38239 -1.56999 0
M  V30 315 N 32.5182 1.22032 0.997298 0
M  V30 316 C 33.4502 0.944263 2.08845 0
M  V30 317 C 34.4632 -0.0754663 1.62625 0
M  V30 318 O 35.6522 0.157994 1.77799 0
M  V30 319 C 32.7522 0.397723 3.36558 0
M  V30 320 C 31.9252 1.47362 4.11829 0
M  V30 321 C 30.9842 0.934951 5.17827 0
M  V30 322 O 30.0102 1.62016 5.45655 0
M  V30 323 N 31.2122 -0.245895 5.79979 0
M  V30 324 H 33.9772 1.88363 2.33109 0
M  V30 325 H 31.5382 1.12661 1.16272 0
M  V30 326 H 33.5302 0.0227771 4.04694 0
M  V30 327 H 32.1002 -0.446646 3.09393 0
M  V30 328 H 31.3202 2.02208 3.38386 0
M  V30 329 H 32.6082 2.19764 4.58891 0
M  V30 330 H 32.0062 -0.819475 5.59733 0
M  V30 331 H 30.5632 -0.562272 6.4937 0
M  V30 332 N 33.9963 -1.19345 1.0293 0
M  V30 333 C 35.2443 -1.88665 0.724574 0
M  V30 334 C 35.5653 -1.80036 -0.749144 0
M  V30 335 O 34.8353 -1.2111 -1.53978 0
M  V30 336 H 33.4153 -0.698406 0.265025 0
M  V30 337 H 36.0773 -1.44885 1.30362 0
M  V30 338 H 35.1733 -2.94987 1.01926 0
M  V30 339 N 35.4744 -0.807222 -1.35358 0
M  V30 340 C 36.7234 -0.384376 -1.98004 0
M  V30 341 C 37.0364 1.0543 -1.64754 0
M  V30 342 O 38.2424 1.58029 -2.20769 0
M  V30 343 C 36.6984 -0.636326 -3.5423 0
M  V30 344 C 36.3064 -2.08759 -3.96388 0
M  V30 345 C 38.0504 -0.278869 -4.23583 0
M  V30 346 C 35.9574 -2.28525 -5.45463 0
M  V30 347 H 34.8874 -0.139986 -0.740891 0
M  V30 348 H 37.5384 -0.991369 -1.54415 0
M  V30 349 H 35.9204 0.0406256 -3.95979 0
M  V30 350 H 37.0944 -2.8024 -3.6579 0
M  V30 351 H 35.4094 -2.40497 -3.39926 0
M  V30 352 H 38.0064 -0.404599 -5.33167 0
M  V30 353 H 38.3494 0.775012 -4.09022 0
M  V30 354 H 38.8824 -0.909764 -3.87257 0
M  V30 355 H 35.6214 -3.32361 -5.64992 0
M  V30 356 H 35.1414 -1.61569 -5.77629 0
M  V30 357 H 36.8204 -2.10109 -6.11934 0
M  V30 358 N 36.9525 1.47285 -0.560781 0
M  V30 359 C 38.2295 1.9558 0.0277798 0
M  V30 360 C 38.6095 1.5034 1.48192 0
M  V30 361 O 37.9575 0.743882 2.16052 0
M  V30 362 C 38.1675 3.48789 -0.121418 0
M  V30 363 C 39.5155 4.24594 0.0220912 0
M  V30 364 O 40.5395 3.56166 -0.0491439 0
M  V30 365 O 39.3985 5.46217 0.175958 0
M  V30 366 H 36.4925 0.824663 0.0621342 0
M  V30 367 H 39.0385 1.5767 -0.627556 0
M  V30 368 H 37.8105 3.74533 -1.13316 0
M  V30 369 H 37.4335 3.93473 0.571366 0
M  V30 370 N 38.4306 0.297415 1.54768 0
M  V30 371 C 39.3606 -0.573494 2.26348 0
M  V30 372 C 40.3416 -1.14085 1.26169 0
M  V30 373 O 41.5266 -1.17086 1.54934 0
M  V30 374 C 38.6566 -1.74716 3.00153 0
M  V30 375 C 37.6106 -1.31032 4.07449 0
M  V30 376 C 36.9366 -2.56887 4.68949 0
M  V30 377 C 38.2366 -0.444183 5.20408 0
M  V30 378 H 39.9306 0.0235131 2.99391 0
M  V30 379 H 37.4766 0.0127488 1.43994 0
M  V30 380 H 39.4296 -2.3625 3.48947 0
M  V30 381 H 38.1536 -2.37035 2.24682 0
M  V30 382 H 36.8126 -0.718066 3.59499 0
M  V30 383 H 36.4606 -3.17512 3.90122 0
M  V30 384 H 36.1606 -2.2836 5.41411 0
M  V30 385 H 37.6846 -3.19229 5.20505 0
M  V30 386 H 39.0986 -0.9651 5.65118 0
M  V30 387 H 37.4956 -0.252846 5.99567 0
M  V30 388 H 38.5656 0.531609 4.81977 0
M  V30 389 N 39.9087 -1.5758 0.0250728 0
M  V30 390 C 41.1577 -1.90811 -0.653767 0
M  V30 391 C 41.4707 -0.90273 -1.73523 0
M  V30 392 O 42.6767 -1.12614 -2.47043 0
M  V30 393 C 41.1327 -3.38804 -1.21409 0
M  V30 394 C 40.7407 -4.47692 -0.166126 0
M  V30 395 C 42.4847 -3.81108 -1.86967 0
M  V30 396 C 40.3917 -5.86779 -0.737856 0
M  V30 397 H 39.3217 -0.712063 -0.247956 0
M  V30 398 H 41.9727 -1.83281 0.0897137 0
M  V30 399 H 40.3547 -3.41252 -2.00905 0
M  V30 400 H 41.5287 -4.56797 0.606079 0
M  V30 401 H 39.8437 -4.14565 0.390466 0
M  V30 402 H 42.4407 -4.82375 -2.30692 0
M  V30 403 H 42.7837 -3.15953 -2.71071 0
M  V30 404 H 43.3167 -3.81065 -1.14167 0
M  V30 405 H 40.0557 -6.55468 0.0649577 0
M  V30 406 H 39.5757 -5.81288 -1.47864 0
M  V30 407 H 41.2547 -6.35223 -1.22884 0
M  V30 408 N 41.3868 0.248026 -1.55636 0
M  V30 409 C 42.6328 0.97767 -1.77678 0
M  V30 410 C 42.9658 1.85016 -0.590135 0
M  V30 411 O 42.2408 1.90095 0.411611 0
M  V30 412 C 42.5238 1.83914 -3.09593 0
M  V30 413 C 42.3768 0.99491 -4.38659 0
M  V30 414 C 43.6958 2.82183 -3.37729 0
M  V30 415 H 40.8148 0.354005 -0.646413 0
M  V30 416 H 43.4568 0.248253 -1.88371 0
M  V30 417 H 41.6068 2.46104 -3.00608 0
M  V30 418 H 43.2788 0.391789 -4.59633 0
M  V30 419 H 41.5218 0.299231 -4.32767 0
M  V30 420 H 42.1928 1.63145 -5.2734 0
M  V30 421 H 44.6688 2.30129 -3.4667 0
M  V30 422 H 43.5448 3.39582 -4.31249 0
M  V30 423 H 43.8058 3.58588 -2.58586 0
M  V30 424 N 42.8649 1.48995 0.513639 0
M  V30 425 C 44.1119 1.57843 1.26854 0
M  V30 426 C 44.4399 0.259501 1.92761 0
M  V30 427 O 43.6949 -0.75159 1.80692 0
M  V30 428 C 43.9939 2.67756 2.36731 0
M  V30 429 C 43.6599 4.09669 1.88368 0
M  V30 430 C 42.3219 4.48291 1.74896 0
M  V30 431 C 44.6739 4.98537 1.52021 0
M  V30 432 C 42.0019 5.73568 1.23438 0
M  V30 433 C 44.3539 6.24319 1.0202 0
M  V30 434 C 43.0179 6.61783 0.871778 0
M  V30 435 H 42.2879 0.577587 0.464192 0
M  V30 436 H 44.9349 1.82778 0.571366 0
M  V30 437 H 43.2399 2.36743 3.12185 0
M  V30 438 H 44.9369 2.71813 2.9482 0
M  V30 439 H 41.5269 3.79176 1.99808 0
M  V30 440 H 45.7109 4.69363 1.61281 0
M  V30 441 H 40.9669 6.01304 1.10648 0
M  V30 442 H 45.1409 6.92566 0.729722 0
M  V30 443 H 42.7679 7.5874 0.470852 0
M  V30 444 N 44.343 -0.763751 1.37857 0
M  V30 445 C 45.62 -1.51244 1.24035 0
M  V30 446 C 46 -2.10472 -0.162649 0
M  V30 447 O 45.348 -1.96206 -1.17112 0
M  V30 448 C 45.558 -2.58694 2.34261 0
M  V30 449 C 46.906 -3.25878 2.72193 0
M  V30 450 O 47.93 -2.68993 2.33497 0
M  V30 451 O 46.789 -4.2874 3.38887 0
M  V30 452 H 43.883 -0.670243 0.484462 0
M  V30 453 H 46.429 -0.800031 1.49658 0
M  V30 454 H 45.201 -2.13105 3.2818 0
M  V30 455 H 44.824 -3.37527 2.10146 0
M  V30 456 N 45.8211 -1.22559 -0.990812 0
M  V30 457 C 46.7691 -0.994798 -2.10253 0
M  V30 458 C 47.7631 0.0627798 -1.69284 0
M  V30 459 O 48.9691 -0.0898392 -1.79776 0
M  V30 460 H 45.3441 -0.304527 -0.687581 0
M  V30 461 H 47.3151 -1.93812 -2.26891 0
M  V30 462 C 46.0641 -0.591439 -3.42633 0
M  V30 463 H 45.3871 -1.3969 -3.74602 0
M  V30 464 H 46.8271 -0.469385 -4.21394 0
M  V30 465 C 45.2861 0.699232 -3.29564 0
M  V30 466 O 45.8161 1.75112 -3.61523 0
M  V30 467 N 44.0221 0.671182 -2.82743 0
M  V30 468 H 43.5691 -0.185136 -2.56934 0
M  V30 469 H 43.5271 1.53502 -2.7438 0
M  V30 470 N 47.2992 1.18797 -1.03562 0
M  V30 471 C 48.2292 2.24472 -0.643019 0
M  V30 472 C 49.2102 1.66433 0.351283 0
M  V30 473 O 50.3952 1.92803 0.232505 0
M  V30 474 C 47.5252 3.473 4.24935e-05 0
M  V30 475 C 46.4792 4.18055 -0.917257 0
M  V30 476 C 45.8052 5.34519 -0.138941 0
M  V30 477 C 47.1052 4.72109 -2.23407 0
M  V30 478 H 48.7992 2.57566 -1.52643 0
M  V30 479 H 46.3452 1.23806 -0.735394 0
M  V30 480 H 48.2982 4.20426 0.286383 0
M  V30 481 H 47.0222 3.13424 0.918299 0
M  V30 482 H 45.6812 3.46821 -1.1879 0
M  V30 483 H 45.3292 4.96891 0.781562 0
M  V30 484 H 45.0292 5.82794 -0.750005 0
M  V30 485 H 46.5532 6.10438 0.1405 0
M  V30 486 H 47.9672 5.36955 -2.00879 0
M  V30 487 H 46.3642 5.30897 -2.79765 0
M  V30 488 H 47.4342 3.89807 -2.88407 0
M  V30 489 N 48.7773 0.814389 1.34928 0
M  V30 490 C 50.0023 0.410097 2.03305 0
M  V30 491 C 50.4273 -0.973464 1.60951 0
M  V30 492 O 49.7853 -1.63185 0.789964 0
M  V30 493 C 49.8333 0.51049 3.56968 0
M  V30 494 O 48.9373 -0.473035 4.09678 0
M  V30 495 H 48.2783 0.170088 0.641846 0
M  V30 496 H 50.8083 1.10244 1.72358 0
M  V30 497 H 50.8183 0.383135 4.06197 0
M  V30 498 H 49.4933 1.51963 3.87144 0
M  V30 499 H 48.0703 -0.305272 3.71648 0
M  V30 500 N 50.2554 -1.46986 0.568584 0
M  V30 501 C 51.6714 -1.57946 0.229189 0
M  V30 502 C 51.8714 -1.56567 -1.26843 0
M  V30 503 O 50.9274 -1.47511 -2.04931 0
M  V30 504 C 52.2404 -2.87963 0.865909 0
M  V30 505 C 53.7884 -3.01568 0.838188 0
M  V30 506 C 54.2634 -4.34301 1.45419 0
M  V30 507 N 55.7544 -4.40965 1.41788 0
M  V30 508 C 56.4894 -5.42256 1.86403 0
M  V30 509 N 55.9854 -6.50297 2.38926 0
M  V30 510 N 57.7784 -5.3337 1.77405 0
M  V30 511 H 49.9294 -1.46126 1.54146 0
M  V30 512 H 52.1924 -0.696156 0.643484 0
M  V30 513 H 51.8984 -2.94742 1.91886 0
M  V30 514 H 51.7724 -3.75423 0.365687 0
M  V30 515 H 54.1594 -2.94379 -0.206106 0
M  V30 516 H 54.2404 -2.1562 1.37629 0
M  V30 517 H 53.8844 -4.42247 2.49761 0
M  V30 518 H 53.8144 -5.19 0.891435 0
M  V30 519 H 56.3054 -3.63484 1.03381 0
M  V30 520 H 56.6184 -7.23777 2.70863 0
M  V30 521 H 54.9634 -6.51155 2.42944 0
M  V30 522 H 58.1544 -4.47865 1.3614 0
M  V30 523 H 58.3274 -6.12169 2.12492 0
M  V30 524 N 51.7335 -0.305618 -1.54608 0
M  V30 525 C 52.6805 0.568421 -2.23691 0
M  V30 526 C 53.6505 1.12592 -1.22116 0
M  V30 527 O 54.8355 1.16959 -1.50749 0
M  V30 528 C 51.9755 1.7322 -2.98477 0
M  V30 529 C 51.0885 1.20566 -4.14835 0
M  V30 530 C 50.2235 2.33368 -4.77193 0
M  V30 531 C 49.2625 1.7787 -5.85686 0
M  V30 532 N 48.3995 2.84263 -6.4198 0
M  V30 533 H 53.2395 -0.0272867 -2.97988 0
M  V30 534 H 50.7765 -0.0252363 -1.47078 0
M  V30 535 H 52.7345 2.41675 -3.40072 0
M  V30 536 H 51.3645 2.29947 -2.26548 0
M  V30 537 H 50.4165 0.413223 -3.78149 0
M  V30 538 H 51.7285 0.759417 -4.92985 0
M  V30 539 H 50.8825 3.09761 -5.21664 0
M  V30 540 H 49.6215 2.8132 -3.98385 0
M  V30 541 H 48.6265 0.99968 -5.40635 0
M  V30 542 H 49.8515 1.30816 -6.66381 0
M  V30 543 H 47.7975 3.31541 -5.66053 0
M  V30 544 H 47.7145 2.44149 -7.15491 0
M  V30 545 H 48.9825 3.6054 -6.91109 0
M  V30 546 N 53.2116 1.57565 -0.0334293 0
M  V30 547 C 54.4596 1.91598 0.642999 0
M  V30 548 C 54.7806 0.910847 1.7242 0
M  V30 549 O 54.0506 -0.0469931 1.95844 0
M  V30 550 H 52.6306 0.707228 0.240496 0
M  V30 551 H 55.2926 1.94726 -0.0822488 0
M  V30 552 H 54.3886 2.92336 1.09298 0
M  V30 553 N 54.6897 -0.239769 1.55765 0
M  V30 554 C 55.6527 -1.28038 1.90103 0
M  V30 555 C 56.6527 -1.40723 0.778055 0
M  V30 556 O 57.8427 -1.39301 1.04599 0
M  V30 557 C 54.9747 -2.65702 2.13577 0
M  V30 558 H 56.1677 -0.988048 2.83157 0
M  V30 559 H 53.7207 -0.479382 1.48767 0
M  V30 560 H 54.4557 -3.00063 1.23015 0
M  V30 561 H 54.2407 -2.57875 2.95369 0
M  V30 562 H 55.7307 -3.40828 2.41301 0
M  V30 563 N 56.1678 -1.49265 -0.50573 0
M  V30 564 C 57.3958 -1.62215 -1.28429 0
M  V30 565 C 57.8108 -0.291697 -1.86533 0
M  V30 566 O 57.1678 0.722233 -1.67601 0
M  V30 567 C 57.2188 -2.68735 -2.41793 0
M  V30 568 O 56.9398 -3.96619 -1.86078 0
M  V30 569 C 58.4408 -2.92346 -3.3324 0
M  V30 570 H 55.6608 -0.546239 -0.389697 0
M  V30 571 H 58.2048 -1.95265 -0.607609 0
M  V30 572 H 56.3598 -2.38476 -3.053 0
M  V30 573 H 56.7738 -4.55256 -2.60465 0
M  V30 574 H 58.2478 -3.70623 -4.09075 0
M  V30 575 H 58.7248 -2.02081 -3.89948 0
M  V30 576 H 59.3308 -3.24003 -2.75503 0
M  V30 577 N 57.6459 0.756429 -1.3826 0
M  V30 578 C 58.9229 1.50584 -1.24835 0
M  V30 579 C 59.3029 2.10556 0.151485 0
M  V30 580 O 58.6509 1.96825 1.1607 0
M  V30 581 C 58.8609 2.57448 -2.3563 0
M  V30 582 C 60.2089 3.24429 -2.73917 0
M  V30 583 O 61.2329 2.67751 -2.34921 0
M  V30 584 O 60.0919 4.26937 -3.41156 0
M  V30 585 H 57.1859 0.667664 -0.48801 0
M  V30 586 H 59.7319 0.792083 -1.5008 0
M  V30 587 H 58.5039 2.11362 -3.29305 0
M  V30 588 H 58.1269 3.36408 -2.11933 0
M  V30 589 N 59.124 1.23083 0.984299 0
M  V30 590 C 60.072 1.00593 2.09723 0
M  V30 591 C 61.066 -0.0538014 1.69315 0
M  V30 592 O 62.272 0.0993719 1.79725 0
M  V30 593 H 58.647 0.30817 0.685956 0
M  V30 594 H 60.618 1.95012 2.2586 0
M  V30 595 C 59.367 0.609601 3.42314 0
M  V30 596 H 58.69 1.41675 3.73856 0
M  V30 597 H 60.13 0.491726 4.21139 0
M  V30 598 C 58.589 -0.681745 3.2993 0
M  V30 599 O 59.119 -1.73192 3.62446 0
M  V30 600 N 57.325 -0.656178 2.83095 0
M  V30 601 H 56.872 0.198759 2.56832 0
M  V30 602 H 56.83 -1.52044 2.75191 0
M  V30 603 N 60.6021 -1.18246 1.0419 0
M  V30 604 C 61.5321 -2.24127 0.654914 0
M  V30 605 C 62.5131 -1.66617 -0.342451 0
M  V30 606 O 63.6981 -1.92924 -0.222277 0
M  V30 607 C 60.8281 -3.47295 0.0183757 0
M  V30 608 C 59.7821 -4.17563 0.939414 0
M  V30 609 C 59.1081 -5.34438 0.167286 0
M  V30 610 C 60.4081 -4.70917 2.25908 0
M  V30 611 H 62.1021 -2.56753 1.54007 0
M  V30 612 H 59.6481 -1.23414 0.74195 0
M  V30 613 H 61.6011 -4.20572 -0.264082 0
M  V30 614 H 60.3251 -3.13907 -0.901664 0
M  V30 615 H 58.9841 -3.46186 1.20628 0
M  V30 616 H 58.6321 -4.97298 -0.7552 0
M  V30 617 H 58.3321 -5.82388 0.780901 0
M  V30 618 H 59.8561 -6.10504 -0.108125 0
M  V30 619 H 61.2701 -5.35882 2.03724 0
M  V30 620 H 59.6671 -5.29406 2.82577 0
M  V30 621 H 60.7371 -3.88272 2.9047 0
M  V30 622 N 62.0802 -0.821533 -1.34494 0
M  V30 623 C 63.0302 -0.214793 -2.26986 0
M  V30 624 C 64.0142 0.620125 -1.4847 0
M  V30 625 O 65.2062 0.474933 -1.70509 0
M  V30 626 C 62.3352 0.623566 -3.37589 0
M  V30 627 C 61.4212 -0.221904 -4.23519 0
M  V30 628 N 61.8122 -1.29223 -4.89014 0
M  V30 629 C 60.1102 -0.00600922 -4.46 0
M  V30 630 C 60.8112 -1.80965 -5.52835 0
M  V30 631 N 59.7872 -1.11376 -5.32068 0
M  V30 632 H 63.5892 -1.03354 -2.75128 0
M  V30 633 H 61.1032 -0.6642 -1.48196 0
M  V30 634 H 63.1002 1.0744 -4.02818 0
M  V30 635 H 61.7602 1.44049 -2.90998 0
M  V30 636 H 62.7712 -1.67502 -4.90065 0
M  V30 637 H 59.4482 0.77886 -4.10171 0
M  V30 638 H 60.8382 -2.70502 -6.15043 0
M  V30 639 N 63.5583 1.46682 -0.576371 0
M  V30 640 C 64.8043 2.03287 -0.0679305 0
M  V30 641 C 65.1593 1.44063 1.27529 0
M  V30 642 O 64.4523 0.593973 1.82161 0
M  V30 643 C 64.6463 3.57345 0.062886 0
M  V30 644 C 64.4753 4.31509 -1.26611 0
M  V30 645 C 63.2453 4.70664 -1.83856 0
M  V30 646 C 65.4433 4.65444 -2.18783 0
M  V30 647 N 63.4253 5.29552 -3.10561 0
M  V30 648 C 64.7963 5.24835 -3.30072 0
M  V30 649 C 66.8513 4.47375 -2.18542 0
M  V30 650 C 65.5543 5.68063 -4.41244 0
M  V30 651 C 67.5803 4.91614 -3.28739 0
M  V30 652 C 66.9423 5.51071 -4.38748 0
M  V30 653 H 63.0413 0.779083 -0.0674836 0
M  V30 654 H 65.6253 1.78918 -0.767877 0
M  V30 655 H 63.7963 3.8144 0.731988 0
M  V30 656 H 65.5283 4.00592 0.575134 0
M  V30 657 H 62.2833 4.53224 -1.37424 0
M  V30 658 H 62.7073 5.63523 -3.75195 0
M  V30 659 H 67.3493 4.00747 -1.34765 0
M  V30 660 H 65.0673 6.13672 -5.25768 0
M  V30 661 H 68.6533 4.79389 -3.29662 0
M  V30 662 H 67.5333 5.84678 -5.22611 0
M  V30 663 N 65.0364 0.313813 1.54444 0
M  V30 664 C 65.9664 -0.549454 2.26943 0
M  V30 665 C 66.9474 -1.12741 1.27372 0
M  V30 666 O 68.1324 -1.15436 1.56167 0
M  V30 667 C 65.2624 -1.71523 3.01989 0
M  V30 668 C 64.2164 -1.26703 4.08816 0
M  V30 669 C 63.5424 -2.51898 4.71647 0
M  V30 670 C 64.8424 -0.388962 5.2085 0
M  V30 671 H 66.5364 0.0552661 2.99349 0
M  V30 672 H 64.0824 0.0280207 1.43973 0
M  V30 673 H 66.0354 -2.32535 3.51433 0
M  V30 674 H 64.7594 -2.34639 2.27183 0
M  V30 675 H 63.4184 -0.679896 3.6024 0
M  V30 676 H 63.0664 -3.13356 3.93468 0
M  V30 677 H 62.7664 -2.22605 5.43802 0
M  V30 678 H 64.2904 -3.1369 5.23861 0
M  V30 679 H 65.7044 -0.905107 5.6611 0
M  V30 680 H 64.1014 -0.18924 5.99802 0
M  V30 681 H 65.1714 0.582699 4.81386 0
M  V30 682 N 66.5145 -1.57545 0.0417849 0
M  V30 683 C 67.7395 -1.97035 -0.647455 0
M  V30 684 C 68.1645 -0.918775 -1.64135 0
M  V30 685 O 67.5225 0.119006 -1.80909 0
M  V30 686 C 67.5705 -3.35609 -1.31905 0
M  V30 687 O 66.6745 -3.3287 -2.43457 0
M  V30 688 H 66.0155 -0.64211 -0.169086 0
M  V30 689 H 68.5455 -2.04318 0.107399 0
M  V30 690 H 68.5555 -3.72126 -1.67291 0
M  V30 691 H 67.2305 -4.11685 -0.590586 0
M  V30 692 H 65.8075 -3.08087 -2.10088 0
M  V30 693 N 67.9926 0.231505 -1.5589 0
M  V30 694 C 69.2176 0.978689 -1.82856 0
M  V30 695 C 69.6426 1.77559 -0.620846 0
M  V30 696 O 69.0006 1.76119 0.430305 0
M  V30 697 C 69.0486 1.87997 -3.07716 0
M  V30 698 O 68.1526 2.97393 -2.85712 0
M  V30 699 H 67.4936 0.277663 -0.603158 0
M  V30 700 H 70.0236 0.24783 -2.03093 0
M  V30 701 H 70.0336 2.2917 -3.37558 0
M  V30 702 H 68.7086 1.29417 -3.95252 0
M  V30 703 H 67.2856 2.60238 -2.67078 0
M  V30 704 N 69.4707 1.49531 0.497807 0
M  V30 705 C 70.4007 1.6935 1.60757 0
M  V30 706 C 71.3817 0.542218 1.61227 0
M  V30 707 O 72.5667 0.778417 1.77917 0
M  V30 708 C 69.6967 1.76298 2.99226 0
M  V30 709 C 68.6507 2.91248 3.13622 0
M  V30 710 C 67.9767 2.83312 4.53474 0
M  V30 711 C 69.2767 4.3214 2.93346 0
M  V30 712 H 70.9707 2.62263 1.44425 0
M  V30 713 H 68.5167 1.26208 0.693367 0
M  V30 714 H 70.4697 1.88749 3.76765 0
M  V30 715 H 69.1937 0.799871 3.16654 0
M  V30 716 H 67.8527 2.78404 2.38509 0
M  V30 717 H 67.5007 1.84902 4.67782 0
M  V30 718 H 67.2007 3.60465 4.64046 0
M  V30 719 H 68.7247 2.97775 5.33069 0
M  V30 720 H 70.1387 4.45649 3.60652 0
M  V30 721 H 68.5357 5.1054 3.15387 0
M  V30 722 H 69.6057 4.46363 1.89441 0
M  V30 723 N 70.9488 -0.749086 1.3866 0
M  V30 724 C 72.1968 -1.50535 1.34847 0
M  V30 725 C 72.5178 -1.94909 -0.0595016 0
M  V30 726 O 71.7878 -1.67973 -1.00806 0
M  V30 727 H 70.3678 -0.558395 0.49619 0
M  V30 728 H 73.0298 -0.890165 1.73384 0
M  V30 729 H 72.1258 -2.39413 2.00219 0
M  V30 730 N 72.4269 -1.23603 -0.977757 0
M  V30 731 C 73.3749 -1.01704 -2.09187 0
M  V30 732 C 74.3689 0.0448214 -1.69341 0
M  V30 733 O 75.5749 -0.108902 -1.7967 0
M  V30 734 H 71.9499 -0.311803 -0.684312 0
M  V30 735 H 73.9209 -1.96207 -2.24823 0
M  V30 736 C 72.6699 -0.627746 -3.41986 0
M  V30 737 H 71.9929 -1.43656 -3.73099 0
M  V30 738 H 73.4329 -0.514053 -4.20872 0
M  V30 739 C 71.8919 0.664238 -3.30287 0
M  V30 740 O 72.4219 1.71268 -3.6336 0
M  V30 741 N 70.6279 0.641156 -2.83439 0
M  V30 742 H 70.1749 -0.212376 -2.56723 0
M  V30 743 H 70.1329 1.50583 -2.75993 0
M  V30 744 N 73.905 1.17692 -1.04816 0
M  V30 745 C 75.152 1.87859 -0.75599 0
M  V30 746 C 75.48 1.80812 0.716752 0
M  V30 747 O 74.735 1.20819 1.53952 0
M  V30 748 C 75.034 3.37462 -1.17703 0
M  V30 749 C 74.7 3.64713 -2.65133 0
M  V30 750 C 73.362 3.71859 -3.05408 0
M  V30 751 C 75.714 3.76492 -3.60421 0
M  V30 752 C 73.042 3.88271 -4.39843 0
M  V30 753 C 75.394 3.94421 -4.94585 0
M  V30 754 C 74.058 3.99806 -5.3452 0
M  V30 755 H 73.328 0.687425 -0.276636 0
M  V30 756 H 75.975 1.39255 -1.31455 0
M  V30 757 H 74.28 3.88097 -0.537395 0
M  V30 758 H 75.977 3.90109 -0.928218 0
M  V30 759 H 72.567 3.59772 -2.32942 0
M  V30 760 H 76.751 3.70295 -3.30447 0
M  V30 761 H 72.007 3.90687 -4.70291 0
M  V30 762 H 76.181 4.02477 -5.68318 0
M  V30 763 H 73.808 4.12276 -6.38696 0
M  V30 764 N 75.3831 0.828654 1.34056 0
M  V30 765 C 76.2931 0.256725 2.33191 0
M  V30 766 C 77.3091 -0.611898 1.62886 0
M  V30 767 O 78.4851 -0.51844 1.94613 0
M  V30 768 C 75.5501 -0.567238 3.42028 0
M  V30 769 C 74.6111 0.324458 4.28072 0
M  V30 770 C 73.8441 -0.460274 5.31712 0
M  V30 771 O 74.0671 -1.693 5.44696 0
M  V30 772 O 73.0011 0.160391 6.01686 0
M  V30 773 H 76.8271 1.07739 2.83947 0
M  V30 774 H 74.4121 0.59093 1.37217 0
M  V30 775 H 76.2941 -1.03582 4.08471 0
M  V30 776 H 74.9691 -1.36513 2.93506 0
M  V30 777 H 73.8761 0.840659 3.64532 0
M  V30 778 H 75.2091 1.08685 4.8005 0
M  V30 779 N 76.8612 -1.46375 0.584142 0
M  V30 780 C 78.1082 -2.02378 0.0702675 0
M  V30 781 C 78.4362 -1.45545 -1.29023 0
M  V30 782 O 77.6912 -0.610967 -1.85918 0
M  V30 783 C 77.9902 -3.57373 -0.0439342 0
M  V30 784 C 77.6562 -4.33252 1.24915 0
M  V30 785 C 76.3182 -4.53701 1.60341 0
M  V30 786 C 78.6702 -4.7681 2.1048 0
M  V30 787 C 75.9982 -5.1496 2.81128 0
M  V30 788 C 78.3502 -5.39404 3.30494 0
M  V30 789 C 77.0142 -5.5808 3.66201 0
M  V30 790 H 76.2842 -0.740554 0.0257127 0
M  V30 791 H 78.9312 -1.75727 0.761065 0
M  V30 792 H 77.2362 -3.83169 -0.817869 0
M  V30 793 H 78.9332 -3.98384 -0.457318 0
M  V30 794 H 75.5232 -4.17633 0.963364 0
M  V30 795 H 79.7072 -4.60766 1.84414 0
M  V30 796 H 74.9632 -5.27611 3.08928 0
M  V30 797 H 79.1372 -5.72114 3.97063 0
M  V30 798 H 76.7642 -6.05318 4.59885 0
M  V30 799 N 78.3393 -0.321999 -1.54275 0
M  V30 800 C 79.5853 0.281461 -2.00837 0
M  V30 801 C 79.9183 1.51909 -1.20985 0
M  V30 802 O 79.1933 1.923 -0.291733 0
M  V30 803 C 79.4763 0.617162 -3.54772 0
M  V30 804 C 79.3293 -0.631064 -4.45351 0
M  V30 805 C 80.6483 1.43542 -4.16033 0
M  V30 806 H 77.7673 0.100826 -0.730071 0
M  V30 807 H 80.4093 -0.438268 -1.84876 0
M  V30 808 H 78.5593 1.23034 -3.68504 0
M  V30 809 H 80.2313 -1.26934 -4.43492 0
M  V30 810 H 78.4743 -1.26025 -4.15091 0
M  V30 811 H 79.1453 -0.351735 -5.50878 0
M  V30 812 H 81.6213 0.917134 -4.05867 0
M  V30 813 H 80.4973 1.63907 -5.23856 0
M  V30 814 H 80.7583 2.43108 -3.69257 0
M  V30 815 N 79.8174 1.5752 -0.0501392 0
M  V30 816 C 80.7674 2.07981 0.934231 0
M  V30 817 C 81.7514 0.984745 1.27246 0
M  V30 818 O 82.9434 1.24809 1.25506 0
M  V30 819 C 80.0724 2.62751 2.20945 0
M  V30 820 C 79.1584 3.79225 1.89865 0
M  V30 821 N 79.5494 4.89036 1.29142 0
M  V30 822 C 77.8474 3.88111 2.19741 0
M  V30 823 C 78.5484 5.70084 1.15669 0
M  V30 824 N 77.5244 5.17659 1.65923 0
M  V30 825 H 81.3264 2.90277 0.460053 0
M  V30 826 H 78.8404 1.61665 0.15434 0
M  V30 827 H 80.8374 2.97205 2.9236 0
M  V30 828 H 79.4974 1.81894 2.6897 0
M  V30 829 H 80.5084 5.08854 0.963756 0
M  V30 830 H 77.1854 3.18194 2.70293 0
M  V30 831 H 78.5754 6.68395 0.685356 0
M  V30 832 N 81.2955 -0.223234 1.56011 0
M  V30 833 C 82.5435 -0.946003 1.78592 0
M  V30 834 C 82.8645 -1.84936 0.618349 0
M  V30 835 O 82.1345 -1.92473 -0.364833 0
M  V30 836 H 80.7145 -0.352298 0.658707 0
M  V30 837 H 83.3765 -0.235494 1.93472 0
M  V30 838 H 82.4725 -1.55381 2.70672 0
M  V30 839 N 82.7736 -1.49793 -0.48987 0
M  V30 840 C 84.0506 -1.50348 -1.25119 0
M  V30 841 C 84.4306 -0.237466 -2.0976 0
M  V30 842 O 83.7786 0.77981 -2.14782 0
M  V30 843 C 83.9886 -2.78872 -2.09837 0
M  V30 844 C 85.3366 -3.288 -2.68655 0
M  V30 845 O 86.3606 -2.80065 -2.20096 0
M  V30 846 O 85.2196 -4.13707 -3.57083 0
M  V30 847 H 82.3136 -0.602242 -0.566775 0
M  V30 848 H 84.8596 -1.62067 -0.503229 0
M  V30 849 H 83.6316 -3.62499 -1.47343 0
M  V30 850 H 83.2546 -2.70066 -2.91805 0
M  V30 851 N 84.2517 0.741722 -1.39055 0
M  V30 852 C 85.5007 1.49656 -1.35225 0
M  V30 853 C 85.8137 1.95533 0.0512708 0
M  V30 854 O 87.0197 2.7067 0.212138 0
M  V30 855 C 85.4757 2.70389 -2.37525 0
M  V30 856 C 85.0837 2.31489 -3.83558 0
M  V30 857 C 86.8277 3.48236 -2.42759 0
M  V30 858 C 84.7347 3.48903 -4.77515 0
M  V30 859 H 83.6647 0.56197 -0.502699 0
M  V30 860 H 86.3157 0.809727 -1.64668 0
M  V30 861 H 84.6977 3.41113 -2.01142 0
M  V30 862 H 85.8717 1.68354 -4.28945 0
M  V30 863 H 84.1867 1.66749 -3.81554 0
M  V30 864 H 86.7837 4.35558 -3.1015 0
M  V30 865 H 87.1267 3.90229 -1.45008 0
M  V30 866 H 87.6597 2.84535 -2.78002 0
M  V30 867 H 84.3987 3.11966 -5.76504 0
M  V30 868 H 83.9187 4.11041 -4.36813 0
M  V30 869 H 85.5977 4.15328 -4.96096 0
M  V30 870 N 85.7298 1.2412 0.971189 0
M  V30 871 C 87.1458 1.00584 1.23916 0
M  V30 872 C 87.3458 -0.287481 1.99439 0
M  V30 873 O 86.4018 -1.00454 2.31658 0
M  V30 874 C 87.7148 2.21864 2.0297 0
M  V30 875 C 89.2628 2.26452 2.16076 0
M  V30 876 C 89.7378 3.47343 2.98524 0
M  V30 877 N 91.2288 3.47639 3.06107 0
M  V30 878 C 91.9638 4.37837 3.70251 0
M  V30 879 N 91.4598 5.38286 4.36142 0
M  V30 880 N 93.2528 4.25558 3.67228 0
M  V30 881 H 85.4038 2.07236 0.465499 0
M  V30 882 H 87.6668 0.909236 0.268315 0
M  V30 883 H 87.3728 3.15771 1.54861 0
M  V30 884 H 87.2468 2.23698 3.03709 0
M  V30 885 H 89.6338 1.33078 2.6339 0
M  V30 886 H 89.7148 2.28645 1.14696 0
M  V30 887 H 89.3588 4.41029 2.51905 0
M  V30 888 H 89.2888 3.42393 4.00093 0
M  V30 889 H 91.7798 2.74966 2.59233 0
M  V30 890 H 92.0928 6.03352 4.82894 0
M  V30 891 H 90.4378 5.42176 4.34822 0
M  V30 892 H 93.6288 3.46322 3.14927 0
M  V30 893 H 93.8018 4.96054 4.16935 0
M  V30 894 N 87.2079 -1.17134 1.05439 0
M  V30 895 C 88.1559 -2.23289 0.651511 0
M  V30 896 C 89.1499 -1.66186 -0.328411 0
M  V30 897 O 90.3559 -1.78949 -0.194206 0
M  V30 898 H 86.7309 -0.726938 0.192523 0
M  V30 899 H 88.7019 -2.54565 1.55689 0
M  V30 900 C 87.4509 -3.47671 0.0448436 0
M  V30 901 H 86.7739 -3.91918 0.78996 0
M  V30 902 H 88.2139 -4.2353 -0.19964 0
M  V30 903 C 86.6729 -3.14453 -1.20918 0
M  V30 904 O 87.2029 -3.29459 -2.29825 0
M  V30 905 N 85.4089 -2.68657 -1.10779 0
M  V30 906 H 84.9559 -2.56646 -0.221526 0
M  V30 907 H 84.9139 -2.46804 -1.9477 0
M  V30 908 N 88.686 -0.835752 -1.33615 0
M  V30 909 C 89.633 -0.26473 -2.29277 0
M  V30 910 C 90.603 0.617712 -1.54187 0
M  V30 911 O 91.788 0.556641 -1.825 0
M  V30 912 C 88.928 0.556777 -3.40579 0
M  V30 913 C 88.041 -0.349339 -4.30585 0
M  V30 914 C 87.176 0.482969 -5.29 0
M  V30 915 C 86.215 -0.421732 -6.10645 0
M  V30 916 N 85.352 0.372262 -7.01112 0
M  V30 917 H 90.192 -1.08582 -2.77514 0
M  V30 918 H 87.729 -0.546927 -1.36554 0
M  V30 919 H 89.687 1.04852 -4.03809 0
M  V30 920 H 88.317 1.34286 -2.93542 0
M  V30 921 H 87.369 -0.959372 -3.68104 0
M  V30 922 H 88.681 -1.04445 -4.87742 0
M  V30 923 H 87.835 1.03866 -5.97743 0
M  V30 924 H 86.574 1.21153 -4.72412 0
M  V30 925 H 85.579 -0.989464 -5.40823 0
M  V30 926 H 86.804 -1.14861 -6.69316 0
M  V30 927 H 84.75 1.08426 -6.46977 0
M  V30 928 H 84.667 -0.264198 -7.55538 0
M  V30 929 H 85.935 0.910293 -7.74167 0
M  V30 930 N 90.1641 1.46063 -0.591896 0
M  V30 931 C 91.1121 2.32124 0.148739 0
M  V30 932 C 92.1061 1.45035 0.875286 0
M  V30 933 O 93.3121 1.61609 0.792632 0
M  V30 934 H 89.6871 0.749024 0.066832 0
M  V30 935 H 91.6581 2.92392 -0.595783 0
M  V30 936 C 90.4071 3.28373 1.1431 0
M  V30 937 H 89.7301 3.95371 0.59346 0
M  V30 938 H 91.1701 3.91352 1.63155 0
M  V30 939 C 89.6291 2.54393 2.20875 0
M  V30 940 O 90.1591 2.31373 3.28374 0
M  V30 941 N 88.3651 2.14797 1.95731 0
M  V30 942 H 87.9121 2.33719 1.08319 0
M  V30 943 H 87.8701 1.65619 2.67241 0
M  V30 944 N 91.6422 0.330177 1.54103 0
M  V30 945 C 92.9192 -0.325007 1.92881 0
M  V30 946 C 93.2992 -1.6934 1.26045 0
M  V30 947 O 92.6472 -2.24855 0.406526 0
M  V30 948 C 92.8572 -0.410634 3.46576 0
M  V30 949 C 94.2052 -0.667801 4.19316 0
M  V30 950 O 95.2292 -0.49329 3.52768 0
M  V30 951 O 94.0882 -1.00491 5.37181 0
M  V30 952 H 91.1822 -0.186873 0.80561 0
M  V30 953 H 93.7282 0.380376 1.65382 0
M  V30 954 H 92.5002 0.550164 3.87413 0
M  V30 955 H 92.1232 -1.16333 3.802 0
M  V30 956 N 93.1203 -1.57491 0.0584922 0
M  V30 957 C 94.3663 -1.93264 -0.614558 0
M  V30 958 C 94.6993 -0.937717 -1.7006 0
M  V30 959 O 93.9743 0.0351652 -1.94468 0
M  V30 960 C 94.2573 -3.3938 -1.20386 0
M  V30 961 C 94.1103 -4.49625 -0.125375 0
M  V30 962 C 95.4293 -3.86039 -2.11334 0
M  V30 963 H 92.5483 -0.702791 -0.221933 0
M  V30 964 H 95.1903 -1.8961 0.12175 0
M  V30 965 H 93.3403 -3.42626 -1.83139 0
M  V30 966 H 95.0123 -4.58506 0.506971 0
M  V30 967 H 93.2553 -4.30354 0.545672 0
M  V30 968 H 93.9263 -5.48967 -0.577861 0
M  V30 969 H 96.4023 -3.84716 -1.58534 0
M  V30 970 H 95.2783 -4.88914 -2.49507 0
M  V30 971 H 95.5393 -3.23215 -3.01636 0
M  V30 972 N 94.5984 0.214957 -1.56127 0
M  V30 973 C 95.8264 0.955092 -1.83536 0
M  V30 974 C 96.2414 1.77677 -0.638472 0
M  V30 975 O 95.5984 1.78219 0.392968 0
M  V30 976 C 95.6494 1.86734 -3.09536 0
M  V30 977 O 95.3704 1.07887 -4.24608 0
M  V30 978 C 96.8714 2.72082 -3.4998 0
M  V30 979 H 94.0914 0.279611 -0.609966 0
M  V30 980 H 96.6354 0.228197 -2.03223 0
M  V30 981 H 94.7904 2.5481 -2.91806 0
M  V30 982 H 95.2044 1.69872 -4.9623 0
M  V30 983 H 96.6784 3.31782 -4.41163 0
M  V30 984 H 97.1554 3.44806 -2.7204 0
M  V30 985 H 97.7614 2.09409 -3.70173 0
M  V30 986 N 96.0765 1.50051 0.48192 0
M  V30 987 C 97.4925 1.37237 0.814756 0
M  V30 988 C 97.6925 0.420109 1.97072 0
M  V30 989 O 96.7485 -0.141246 2.52105 0
M  V30 990 C 98.0615 2.78375 1.13701 0
M  V30 991 C 99.6095 2.87213 1.2441 0
M  V30 992 C 100.084 4.29161 1.59954 0
M  V30 993 N 101.575 4.32061 1.66967 0
M  V30 994 C 102.31 5.38879 1.95952 0
M  V30 995 N 101.806 6.55918 2.23031 0
M  V30 996 N 103.599 5.26312 1.97363 0
M  V30 997 H 95.7505 2.10546 -0.28005 0
M  V30 998 H 98.0135 0.945921 -0.0627454 0
M  V30 999 H 97.7195 3.49845 0.360787 0
M  V30 1000 H 97.5935 3.14941 2.07586 0
M  V30 1001 H 99.9805 2.15969 2.01101 0
M  V30 1002 H 100.061 2.54204 0.285299 0
M  V30 1003 H 99.7055 5.00938 0.838067 0
M  V30 1004 H 99.6355 4.59648 2.56966 0
M  V30 1005 H 102.126 3.47661 1.48123 0
M  V30 1006 H 102.439 7.33139 2.44391 0
M  V30 1007 H 100.784 6.59112 2.20447 0
M  V30 1008 H 103.975 4.33876 1.75697 0
M  V30 1009 H 104.148 6.09649 2.19618 0
M  V30 1010 N 97.5546 -0.734337 1.39446 0
M  V30 1011 C 98.4846 -1.86155 1.40955 0
M  V30 1012 C 99.4656 -1.67898 0.272827 0
M  V30 1013 O 100.651 -1.88207 0.478743 0
M  V30 1014 C 97.7806 -3.23912 1.25294 0
M  V30 1015 C 96.7346 -3.56808 2.36373 0
M  V30 1016 C 96.0606 -4.93508 2.058 0
M  V30 1017 C 97.3606 -3.59713 3.78687 0
M  V30 1018 H 99.0546 -1.8515 2.35287 0
M  V30 1019 H 96.6006 -0.889367 1.13253 0
M  V30 1020 H 98.5536 -4.02443 1.2497 0
M  V30 1021 H 97.2776 -3.25446 0.274308 0
M  V30 1022 H 95.9366 -2.80606 2.35914 0
M  V30 1023 H 95.5846 -4.91623 1.06374 0
M  V30 1024 H 95.2846 -5.16486 2.80208 0
M  V30 1025 H 96.8086 -5.74396 2.07128 0
M  V30 1026 H 98.2226 -4.2832 3.81071 0
M  V30 1027 H 96.6196 -3.94209 4.52459 0
M  V30 1028 H 97.6896 -2.59504 4.09617 0
M  V30 1029 N 99.0327 -1.24633 -0.964593 0
M  V30 1030 C 100.282 -1.08188 -1.7023 0
M  V30 1031 C 100.595 0.37873 -1.91898 0
M  V30 1032 O 101.801 0.663427 -2.6327 0
M  V30 1033 C 100.257 -1.88773 -3.06419 0
M  V30 1034 C 99.8647 -3.39263 -2.92582 0
M  V30 1035 C 101.609 -1.80867 -3.84041 0
M  V30 1036 C 99.5157 -4.1218 -4.24101 0
M  V30 1037 H 98.4457 -0.401245 -0.638372 0
M  V30 1038 H 101.097 -1.48742 -1.07462 0
M  V30 1039 H 99.4787 -1.41035 -3.70034 0
M  V30 1040 H 100.653 -3.94603 -2.37961 0
M  V30 1041 H 98.9677 -3.48154 -2.28424 0
M  V30 1042 H 101.565 -2.32646 -4.81435 0
M  V30 1043 H 101.908 -0.774543 -4.09031 0
M  V30 1044 H 102.441 -2.26301 -3.27159 0
M  V30 1045 H 99.1797 -5.15965 -4.04303 0
M  V30 1046 H 98.6997 -3.61626 -4.78526 0
M  V30 1047 H 100.379 -4.19349 -4.92702 0
M  V30 1048 N 100.511 1.16574 -1.06058 0
M  V30 1049 C 101.739 1.90952 -0.796552 0
M  V30 1050 C 102.154 1.77302 0.648808 0
M  V30 1051 O 101.511 1.11605 1.44397 0
M  V30 1052 C 101.562 3.41736 -1.17894 0
M  V30 1053 O 101.283 3.54975 -2.56758 0
M  V30 1054 C 102.784 4.33169 -0.942308 0
M  V30 1055 H 100.004 0.605594 -0.288959 0
M  V30 1056 H 102.548 1.47777 -1.41358 0
M  V30 1057 H 100.703 3.82623 -0.606491 0
M  V30 1058 H 101.117 4.4846 -2.72 0
M  V30 1059 H 102.591 5.37439 -1.25952 0
M  V30 1060 H 103.068 4.3903 0.122078 0
M  V30 1061 H 103.674 3.98007 -1.49902 0
M  V30 1062 N 101.989 0.842826 1.3317 0
M  V30 1063 C 102.936 0.276885 2.29133 0
M  V30 1064 C 103.906 -0.609527 1.54512 0
M  V30 1065 O 105.091 -0.546955 1.82792 0
M  V30 1066 C 102.231 -0.538707 3.40869 0
M  V30 1067 C 101.344 0.372169 4.30394 0
M  V30 1068 C 100.479 -0.454908 5.29249 0
M  V30 1069 C 99.5179 0.45411 6.10413 0
M  V30 1070 N 98.6549 -0.335075 7.013 0
M  V30 1071 H 103.495 1.10052 2.76934 0
M  V30 1072 H 101.032 0.554161 1.36262 0
M  V30 1073 H 102.99 -1.02709 4.0436 0
M  V30 1074 H 101.62 -1.32727 2.9425 0
M  V30 1075 H 100.672 0.97888 3.6759 0
M  V30 1076 H 101.984 1.0703 4.87182 0
M  V30 1077 H 101.138 -1.00695 5.98285 0
M  V30 1078 H 99.8769 -1.18646 4.73048 0
M  V30 1079 H 98.8819 1.01813 5.40291 0
M  V30 1080 H 100.107 1.18409 6.68697 0
M  V30 1081 H 98.0529 -1.04994 6.47543 0
M  V30 1082 H 97.9699 0.304262 7.55387 0
M  V30 1083 H 99.2379 -0.869224 7.74638 0
M  V30 1084 N 103.467 -1.45747 0.599634 0
M  V30 1085 C 104.697 -2.06369 0.0977132 0
M  V30 1086 C 105.105 -1.44624 -1.21985 0
M  V30 1087 O 104.448 -0.551831 -1.75216 0
M  V30 1088 C 104.51 -3.59284 -0.124673 0
M  V30 1089 C 104.174 -4.43318 1.10987 0
M  V30 1090 C 105.171 -4.78796 2.02609 0
M  V30 1091 C 102.856 -4.84194 1.33647 0
M  V30 1092 C 104.85 -5.53997 3.15224 0
M  V30 1093 C 102.537 -5.5915 2.46565 0
M  V30 1094 C 103.535 -5.93968 3.37182 0
M  V30 1095 O 103.223 -6.67405 4.48136 0
M  V30 1096 H 102.955 -0.673122 0.0623153 0
M  V30 1097 H 105.509 -1.88104 0.824981 0
M  V30 1098 H 103.739 -3.75919 -0.906745 0
M  V30 1099 H 105.428 -4.01775 -0.577201 0
M  V30 1100 H 106.194 -4.47781 1.86325 0
M  V30 1101 H 102.073 -4.56534 0.64016 0
M  V30 1102 H 105.617 -5.81091 3.85978 0
M  V30 1103 H 101.514 -5.89579 2.62805 0
M  V30 1104 H 102.282 -6.85847 4.46717 0
M  V30 1105 N 104.945 -0.338344 -1.53925 0
M  V30 1106 C 105.878 0.563758 -2.21127 0
M  V30 1107 C 106.856 1.10433 -1.19345 0
M  V30 1108 O 108.04 1.16557 -1.48144 0
M  V30 1109 C 105.167 1.77505 -2.88461 0
M  V30 1110 C 104.213 1.3644 -4.04087 0
M  V30 1111 S 105.046 0.388593 -5.34088 0
M  V30 1112 C 106.202 1.60683 -6.04923 0
M  V30 1113 H 106.435 -0.00704546 -2.97299 0
M  V30 1114 H 103.968 -0.122418 -1.53914 0
M  V30 1115 H 105.926 2.46999 -3.27875 0
M  V30 1116 H 104.587 2.31706 -2.12064 0
M  V30 1117 H 103.78 2.26739 -4.50117 0
M  V30 1118 H 103.382 0.748998 -3.66423 0
M  V30 1119 H 105.674 2.54209 -6.28 0
M  V30 1120 H 106.617 1.18842 -6.98056 0
M  V30 1121 H 107.025 1.80052 -5.35015 0
M  V30 1122 N 106.423 1.57458 -0.0668435 0
M  V30 1123 C 107.834 1.80776 0.466558 0
M  V30 1124 C 108.185 0.980361 1.69951 0
M  V30 1125 O 107.31 0.201441 2.1546 0
M  V30 1126 C 107.905 3.27881 0.85321 0
M  V30 1127 C 106.464 3.52062 1.3315 0
M  V30 1128 C 105.611 2.75513 0.314264 0
M  V30 1129 H 108.562 1.5598 -0.292588 0
M  V30 1130 H 108.583 3.39659 1.715 0
M  V30 1131 H 108.095 3.88075 -0.0443439 0
M  V30 1132 H 106.196 2.97167 2.24772 0
M  V30 1133 H 106.309 4.60762 1.31285 0
M  V30 1134 H 104.673 2.42123 0.790492 0
M  V30 1135 H 105.456 3.38442 -0.575477 0
M  V30 1136 N 107.901 -0.206675 1.56239 0
M  V30 1137 C 109.178 -0.954051 1.70755 0
M  V30 1138 C 109.558 -2.01841 0.618353 0
M  V30 1139 O 108.906 -2.25444 -0.372434 0
M  V30 1140 C 109.116 -1.551 3.12642 0
M  V30 1141 C 110.464 -2.03757 3.72516 0
M  V30 1142 O 111.488 -1.64965 3.15698 0
M  V30 1143 O 110.347 -2.75103 4.72208 0
M  V30 1144 H 107.441 -0.446636 0.696021 0
M  V30 1145 H 109.987 -0.197283 1.68549 0
M  V30 1146 H 108.759 -0.783212 3.83382 0
M  V30 1147 H 108.382 -2.37291 3.19028 0
M  V30 1148 N 109.379 -1.50304 -0.473955 0
M  V30 1149 C 110.604 -1.65175 -1.25427 0
M  V30 1150 C 111.029 -0.333673 -1.85117 0
M  V30 1151 O 110.387 0.702114 -1.67153 0
M  V30 1152 C 110.435 -2.74295 -2.34082 0
M  V30 1153 O 109.539 -2.35349 -3.38651 0
M  V30 1154 H 108.88 -0.551944 -0.369126 0
M  V30 1155 H 111.41 -1.96662 -0.564364 0
M  V30 1156 H 111.42 -2.97285 -2.79438 0
M  V30 1157 H 110.095 -3.69959 -1.90008 0
M  V30 1158 H 108.672 -2.22794 -2.99027 0
M  V30 1159 N 110.857 0.726932 -1.39834 0
M  V30 1160 C 112.097 1.4992 -1.38936 0
M  V30 1161 C 112.461 1.91996 0.0126883 0
M  V30 1162 O 113.662 2.68399 0.146715 0
M  V30 1163 C 111.933 2.70013 -2.34153 0
M  V30 1164 S 113.492 3.59563 -2.51515 0
M  V30 1165 H 110.31 0.51271 -0.492595 0
M  V30 1166 H 112.912 0.85107 -1.76003 0
M  V30 1167 H 111.616 2.37254 -3.34871 0
M  V30 1168 H 111.147 3.39748 -1.98331 0
M  V30 1169 H 113.162 4.63973 -1.75909 0
M  V30 1170 N 112.336 1.25143 0.95797 0
M  V30 1171 C 113.583 1.09692 1.70217 0
M  V30 1172 C 113.911 -0.362654 1.91089 0
M  V30 1173 O 113.166 -1.28386 1.47701 0
M  V30 1174 C 113.465 1.79272 3.09187 0
M  V30 1175 C 113.131 3.29196 3.08125 0
M  V30 1176 C 111.793 3.70096 3.07543 0
M  V30 1177 C 114.145 4.24995 3.0171 0
M  V30 1178 C 111.473 5.05213 2.9829 0
M  V30 1179 C 113.825 5.60132 2.93999 0
M  V30 1180 C 112.489 6.00365 2.9175 0
M  V30 1181 H 111.759 0.401393 0.622868 0
M  V30 1182 H 114.406 1.55372 1.11945 0
M  V30 1183 H 112.711 1.26014 3.70982 0
M  V30 1184 H 114.408 1.64773 3.65583 0
M  V30 1185 H 110.998 2.96651 3.09348 0
M  V30 1186 H 115.182 3.9439 3.01281 0
M  V30 1187 H 110.438 5.35569 2.94916 0
M  V30 1188 H 114.612 6.3406 2.87996 0
M  V30 1189 H 112.239 7.05023 2.84336 0
M  V30 1190 N 113.814 -1.1601 1.06675 0
M  V30 1191 C 114.764 -2.18512 0.650888 0
M  V30 1192 C 115.748 -1.57677 -0.320441 0
M  V30 1193 O 116.94 -1.76482 -0.135266 0
M  V30 1194 C 114.069 -3.43273 0.0429255 0
M  V30 1195 C 113.155 -4.11176 1.03898 0
M  V30 1196 N 113.546 -4.54672 2.216 0
M  V30 1197 C 111.844 -4.37417 0.870779 0
M  V30 1198 C 112.545 -5.07248 2.84736 0
M  V30 1199 N 111.521 -5.0037 2.12441 0
M  V30 1200 H 115.323 -2.49863 1.54745 0
M  V30 1201 H 112.837 -1.32503 0.938975 0
M  V30 1202 H 114.834 -4.16006 -0.272857 0
M  V30 1203 H 113.494 -3.13408 -0.84884 0
M  V30 1204 H 114.505 -4.4828 2.59356 0
M  V30 1205 H 111.182 -4.17488 0.0313293 0
M  V30 1206 H 112.572 -5.50912 3.84636 0
M  V30 1207 N 115.292 -0.849877 -1.32721 0
M  V30 1208 C 116.222 -0.306308 -2.31482 0
M  V30 1209 C 117.203 0.591952 -1.59468 0
M  V30 1210 O 118.388 0.513199 -1.87296 0
M  V30 1211 C 115.518 0.510204 -3.43532 0
M  V30 1212 C 114.472 -0.293209 -4.26994 0
M  V30 1213 C 113.798 0.647743 -5.30762 0
M  V30 1214 C 115.098 -1.51634 -4.99804 0
M  V30 1215 H 116.792 -1.13153 -2.77195 0
M  V30 1216 H 114.338 -0.545553 -1.33266 0
M  V30 1217 H 116.291 0.900856 -4.11658 0
M  V30 1218 H 115.015 1.36874 -2.96535 0
M  V30 1219 H 113.674 -0.665555 -3.60508 0
M  V30 1220 H 113.322 1.50299 -4.8002 0
M  V30 1221 H 113.022 0.11422 -5.87489 0
M  V30 1222 H 114.546 1.03567 -6.01753 0
M  V30 1223 H 115.96 -1.19824 -5.60638 0
M  V30 1224 H 114.357 -1.98745 -5.66234 0
M  V30 1225 H 115.427 -2.28018 -4.27943 0
M  V30 1226 N 116.77 1.45427 -0.607355 0
M  V30 1227 C 117.733 2.28974 0.101693 0
M  V30 1228 C 118.733 1.39754 0.795329 0
M  V30 1229 O 119.923 1.61878 0.643527 0
M  V30 1230 C 117.055 3.20768 1.15414 0
M  V30 1231 H 118.248 2.93147 -0.632844 0
M  V30 1232 H 115.801 1.51945 -0.366391 0
M  V30 1233 H 116.536 2.61395 1.91945 0
M  V30 1234 H 116.321 3.86489 0.66098 0
M  V30 1235 H 117.811 3.83589 1.65073 0
M  V30 1236 N 118.248 0.346503 1.53744 0
M  V30 1237 C 119.496 -0.248612 2.00565 0
M  V30 1238 C 119.817 -1.5083 1.23593 0
M  V30 1239 O 119.087 -1.92858 0.343912 0
M  V30 1240 H 117.667 -0.0948564 0.740953 0
M  V30 1241 H 120.329 0.468341 1.89189 0
M  V30 1242 H 119.425 -0.488994 3.08245 0
M  V30 1243 N 119.726 -1.57421 0.075193 0
M  V30 1244 C 120.658 -2.09904 -0.920483 0
M  V30 1245 C 121.671 -1.03191 -1.25918 0
M  V30 1246 O 122.86 -1.30695 -1.21577 0
M  V30 1247 C 119.96 -2.54726 -2.23534 0
M  V30 1248 C 119.133 -3.8505 -2.07498 0
M  V30 1249 C 118.192 -4.15929 -3.22319 0
M  V30 1250 O 117.218 -4.85474 -2.9716 0
M  V30 1251 N 118.42 -3.69745 -4.47514 0
M  V30 1252 H 121.185 -2.95954 -0.472359 0
M  V30 1253 H 118.746 -1.61523 -0.110444 0
M  V30 1254 H 120.738 -2.72443 -2.9926 0
M  V30 1255 H 119.308 -1.73795 -2.59835 0
M  V30 1256 H 118.528 -3.76679 -1.16219 0
M  V30 1257 H 119.816 -4.70348 -1.94038 0
M  V30 1258 H 119.214 -3.13569 -4.7084 0
M  V30 1259 H 117.771 -3.92655 -5.20255 0
M  V30 1260 N 121.204 0.198386 -1.56346 0
M  V30 1261 C 122.45 0.920648 -1.80698 0
M  V30 1262 C 122.783 1.83045 -0.648697 0
M  V30 1263 O 122.058 1.91308 0.350925 0
M  V30 1264 C 122.341 1.73971 -3.15287 0
M  V30 1265 C 122.194 0.85485 -4.41602 0
M  V30 1266 C 123.513 2.71296 -3.46535 0
M  V30 1267 H 120.632 0.333261 -0.657348 0
M  V30 1268 H 123.274 0.188198 -1.89066 0
M  V30 1269 H 121.424 2.36416 -3.08285 0
M  V30 1270 H 123.096 0.245362 -4.60647 0
M  V30 1271 H 121.339 0.161398 -4.335 0
M  V30 1272 H 122.01 1.46286 -5.32264 0
M  V30 1273 H 124.486 2.18983 -3.53816 0
M  V30 1274 H 123.362 3.2569 -4.41834 0
M  V30 1275 H 123.623 3.5018 -2.69864 0
M  V30 1276 N 122.682 1.50554 0.465978 0
M  V30 1277 C 123.645 1.69233 1.54574 0
M  V30 1278 C 124.645 0.562901 1.50626 0
M  V30 1279 O 125.835 0.830016 1.53155 0
M  V30 1280 C 122.967 1.7223 2.94193 0
M  V30 1281 H 124.16 2.65571 1.39327 0
M  V30 1282 H 121.713 1.40111 0.692711 0
M  V30 1283 H 122.448 0.77603 3.14878 0
M  V30 1284 H 122.233 2.54285 2.98466 0
M  V30 1285 H 123.723 1.88618 3.72576 0
M  V30 1286 N 124.16 -0.719506 1.40217 0
M  V30 1287 C 125.093 -1.84298 1.34571 0
M  V30 1288 C 126.071 -1.61149 0.216741 0
M  V30 1289 O 127.255 -1.84212 0.399756 0
M  V30 1290 C 124.382 -3.20568 1.09335 0
M  V30 1291 C 123.428 -3.62551 2.24631 0
M  V30 1292 S 124.261 -3.7012 3.87004 0
M  V30 1293 C 125.417 -5.09154 3.64024 0
M  V30 1294 H 125.65 -1.88807 2.2965 0
M  V30 1295 H 123.183 -0.885901 1.26456 0
M  V30 1296 H 125.141 -3.99246 0.954602 0
M  V30 1297 H 123.802 -3.13696 0.159164 0
M  V30 1298 H 122.995 -4.61483 2.02606 0
M  V30 1299 H 122.597 -2.91119 2.34789 0
M  V30 1300 H 124.889 -5.95955 3.22248 0
M  V30 1301 H 125.832 -5.36213 4.62473 0
M  V30 1302 H 126.24 -4.79562 2.97793 0
M  V30 1303 N 125.638 -1.25649 -0.95132 0
M  V30 1304 C 126.866 -1.13343 -1.73092 0
M  V30 1305 C 127.281 0.312434 -1.86197 0
M  V30 1306 O 126.638 1.21465 -1.36207 0
M  V30 1307 C 126.689 -1.78602 -3.14299 0
M  V30 1308 O 126.41 -3.17537 -3.01831 0
M  V30 1309 C 127.911 -1.72119 -4.08522 0
M  V30 1310 H 125.131 -0.395181 -0.542285 0
M  V30 1311 H 127.675 -1.66076 -1.19328 0
M  V30 1312 H 125.83 -1.29832 -3.64996 0
M  V30 1313 H 126.244 -3.49676 -3.90931 0
M  V30 1314 H 127.718 -2.22435 -5.052 0
M  V30 1315 H 128.195 -0.685635 -4.33815 0
M  V30 1316 H 128.801 -2.20393 -3.63741 0
M  V30 1317 N 127.117 1.15442 -1.07289 0
M  V30 1318 C 128.345 1.90096 -0.81676 0
M  V30 1319 C 128.76 1.7798 0.629966 0
M  V30 1320 O 128.117 1.1313 1.43206 0
M  V30 1321 C 128.168 3.40466 -1.21512 0
M  V30 1322 O 127.889 3.52232 -2.60508 0
M  V30 1323 C 129.39 4.32145 -0.988198 0
M  V30 1324 H 126.61 0.602495 -0.295366 0
M  V30 1325 H 129.154 1.4627 -1.42918 0
M  V30 1326 H 127.309 3.81958 -0.647039 0
M  V30 1327 H 127.723 4.45549 -2.76742 0
M  V30 1328 H 129.197 5.36072 -1.31645 0
M  V30 1329 H 129.674 4.39135 0.0755063 0
M  V30 1330 H 130.28 3.96395 -1.54115 0
M  V30 1331 N 128.595 0.856903 1.32268 0
M  V30 1332 C 129.82 0.474569 2.01897 0
M  V30 1333 C 130.245 -0.921766 1.63967 0
M  V30 1334 O 129.603 -1.60589 0.84148 0
M  V30 1335 C 129.651 0.623799 3.55164 0
M  V30 1336 O 128.755 -0.342459 4.10976 0
M  V30 1337 H 128.096 0.190422 0.63611 0
M  V30 1338 H 130.626 1.15672 1.68764 0
M  V30 1339 H 130.636 0.512169 4.04773 0
M  V30 1340 H 129.311 1.64202 3.82113 0
M  V30 1341 H 127.888 -0.18688 3.72431 0
M  V30 1342 N 130.073 -1.45103 0.615059 0
M  V30 1343 C 131.322 -2.01396 0.110718 0
M  V30 1344 C 131.635 -1.48834 -1.26916 0
M  V30 1345 O 132.841 -1.97152 -1.86664 0
M  V30 1346 C 131.297 -3.59599 0.14723 0
M  V30 1347 C 130.905 -4.21158 1.52743 0
M  V30 1348 C 132.649 -4.23428 -0.30148 0
M  V30 1349 C 130.556 -5.71535 1.51992 0
M  V30 1350 H 129.486 -0.753061 0.0376241 0
M  V30 1351 H 132.137 -1.66494 0.77149 0
M  V30 1352 H 130.519 -3.91724 -0.580339 0
M  V30 1353 H 131.693 -4.00594 2.2773 0
M  V30 1354 H 130.008 -3.69552 1.91886 0
M  V30 1355 H 132.605 -5.33703 -0.326392 0
M  V30 1356 H 132.948 -3.94629 -1.32565 0
M  V30 1357 H 133.481 -3.96047 0.373065 0
M  V30 1358 H 130.22 -6.05044 2.52193 0
M  V30 1359 H 129.74 -5.94268 0.81274 0
M  V30 1360 H 131.419 -6.34873 1.24681 0
M  V30 1361 N 131.551 -0.354651 -1.53558 0
M  V30 1362 C 132.828 0.294281 -1.93374 0
M  V30 1363 C 133.208 1.67313 -1.28723 0
M  V30 1364 O 132.556 2.24179 -0.442247 0
M  V30 1365 C 132.766 0.355445 -3.47185 0
M  V30 1366 C 134.114 0.601007 -4.20325 0
M  V30 1367 O 135.138 0.437106 -3.53508 0
M  V30 1368 O 133.997 0.919322 -5.38712 0
M  V30 1369 H 131.091 0.174033 -0.808481 0
M  V30 1370 H 133.637 -0.406638 -1.64756 0
M  V30 1371 H 132.409 -0.611729 -3.86489 0
M  V30 1372 H 132.032 1.1027 -3.82003 0
M  V30 1373 N 133.029 1.57378 -0.0835403 0
M  V30 1374 C 133.977 2.14602 0.89714 0
M  V30 1375 C 134.971 1.08589 1.30018 0
M  V30 1376 O 136.177 1.26952 1.27606 0
M  V30 1377 H 132.552 0.686346 0.3073 0
M  V30 1378 H 134.523 2.95845 0.38969 0
M  V30 1379 C 133.272 2.73188 2.15089 0
M  V30 1380 H 132.595 3.54442 1.84962 0
M  V30 1381 H 134.035 3.1681 2.81793 0
M  V30 1382 C 132.494 1.68517 2.91725 0
M  V30 1383 O 133.024 1.11718 3.85852 0
M  V30 1384 N 131.23 1.39277 2.55049 0
M  V30 1385 H 130.777 1.85655 1.78577 0
M  V30 1386 H 130.735 0.694791 3.06627 0
M  V30 1387 N 134.507 -0.190092 1.56449 0
M  V30 1388 C 135.918 -0.754312 1.70784 0
M  V30 1389 C 136.269 -1.83631 0.690951 0
M  V30 1390 O 135.394 -2.15868 -0.151604 0
M  V30 1391 C 135.989 -1.37503 3.09642 0
M  V30 1392 C 134.548 -1.88628 3.25725 0
M  V30 1393 C 133.695 -0.758098 2.66736 0
M  V30 1394 H 136.646 0.0350524 1.58661 0
M  V30 1395 H 136.667 -2.2445 3.0725 0
M  V30 1396 H 136.179 -0.587302 3.83631 0
M  V30 1397 H 134.28 -2.70103 2.56661 0
M  V30 1398 H 134.393 -2.04462 4.3328 0
M  V30 1399 H 132.757 -1.17369 2.26046 0
M  V30 1400 H 133.54 0.0174705 3.43296 0
M  V30 1401 N 135.985 -1.50799 -0.457987 0
M  V30 1402 C 137.225 -1.64088 -1.21879 0
M  V30 1403 C 137.589 -0.339848 -1.88968 0
M  V30 1404 O 138.79 -0.348301 -2.66534 0
M  V30 1405 C 137.061 -2.79726 -2.2246 0
M  V30 1406 S 138.62 -3.13225 -3.07303 0
M  V30 1407 H 135.438 -0.578314 -0.41361 0
M  V30 1408 H 138.04 -1.88632 -0.513645 0
M  V30 1409 H 136.744 -3.72722 -1.71775 0
M  V30 1410 H 136.275 -2.57308 -2.97584 0
M  V30 1411 H 138.29 -2.58062 -4.23814 0
M  V30 1412 N 137.463 0.71206 -1.40597 0
M  V30 1413 C 138.396 1.83582 -1.35546 0
M  V30 1414 C 139.374 1.61032 -0.225284 0
M  V30 1415 O 140.558 1.83998 -0.409519 0
M  V30 1416 C 137.685 3.19983 -1.11034 0
M  V30 1417 C 136.731 3.61355 -2.2655 0
M  V30 1418 S 137.564 3.68062 -3.88961 0
M  V30 1419 C 138.72 5.07216 -3.66719 0
M  V30 1420 H 138.953 1.87586 -2.30648 0
M  V30 1421 H 136.486 0.879182 -1.26924 0
M  V30 1422 H 138.444 3.98734 -0.975761 0
M  V30 1423 H 137.105 3.13608 -0.175798 0
M  V30 1424 H 136.298 4.60403 -2.0505 0
M  V30 1425 H 135.9 2.8987 -2.36329 0
M  V30 1426 H 138.192 5.94238 -3.25404 0
M  V30 1427 H 139.135 5.33753 -4.6531 0
M  V30 1428 H 139.543 4.77976 -3.00332 0
M  V30 1429 N 138.941 1.26152 0.944643 0
M  V30 1430 C 140.218 1.02247 1.66748 0
M  V30 1431 C 140.598 -0.448202 2.06287 0
M  V30 1432 O 139.946 -1.42779 1.78399 0
M  V30 1433 C 140.156 1.96788 2.88228 0
M  V30 1434 C 141.504 2.25201 3.59958 0
M  V30 1435 O 142.528 1.94626 2.98327 0
M  V30 1436 O 141.387 2.77242 4.70956 0
M  V30 1437 H 138.481 0.388517 0.730057 0
M  V30 1438 H 141.027 1.37348 0.99668 0
M  V30 1439 H 139.799 2.96047 2.55875 0
M  V30 1440 H 139.422 1.62145 3.63035 0
M  V30 1441 N 140.419 -1.14872 1.07899 0
M  V30 1442 C 141.666 -1.85789 0.805532 0
M  V30 1443 C 141.994 -1.82649 -0.668561 0
M  V30 1444 O 141.249 -1.24858 -1.50695 0
M  V30 1445 C 141.548 -3.34223 1.26609 0
M  V30 1446 C 141.214 -3.57555 2.74709 0
M  V30 1447 C 139.876 -3.63631 3.1516 0
M  V30 1448 C 142.228 -3.66803 3.70277 0
M  V30 1449 C 139.556 -3.76473 4.49983 0
M  V30 1450 C 141.908 -3.8117 5.04869 0
M  V30 1451 C 140.572 -3.85494 5.44932 0
M  V30 1452 H 139.842 -0.679849 0.294765 0
M  V30 1453 H 142.489 -1.3572 1.35101 0
M  V30 1454 H 140.794 -3.86536 0.640103 0
M  V30 1455 H 142.491 -3.87511 1.03132 0
M  V30 1456 H 139.081 -3.5347 2.42398 0
M  V30 1457 H 143.265 -3.61404 3.40149 0
M  V30 1458 H 138.521 -3.7808 4.80484 0
M  V30 1459 H 142.695 -3.87268 5.78789 0
M  V30 1460 H 140.322 -3.95197 6.49403 0
M  V30 1461 N 141.898 -0.863906 -1.31812 0
M  V30 1462 C 142.808 -0.318461 -2.32428 0
M  V30 1463 C 143.824 0.568496 -1.64451 0
M  V30 1464 O 145 0.46666 -1.95919 0
M  V30 1465 C 142.065 0.476355 -3.43412 0
M  V30 1466 C 141.126 -0.43784 -4.27061 0
M  V30 1467 C 140.359 0.319138 -5.32745 0
M  V30 1468 O 140.582 1.54799 -5.48993 0
M  V30 1469 O 139.516 -0.319861 -6.01049 0
M  V30 1470 H 143.342 -1.15229 -2.80991 0
M  V30 1471 H 140.927 -0.627103 -1.35602 0
M  V30 1472 H 142.809 0.927156 -4.11074 0
M  V30 1473 H 141.484 1.28683 -2.97022 0
M  V30 1474 H 140.391 -0.937013 -3.62175 0
M  V30 1475 H 141.724 -1.21375 -4.77 0
M  V30 1476 N 143.376 1.44774 -0.622745 0
M  V30 1477 C 144.625 2.01334 -0.121397 0
M  V30 1478 C 144.938 1.49505 1.26125 0
M  V30 1479 O 146.144 1.98139 1.85616 0
M  V30 1480 C 144.6 3.59516 -0.166298 0
M  V30 1481 C 144.208 4.20342 -1.54974 0
M  V30 1482 C 145.952 4.23582 0.279021 0
M  V30 1483 C 143.859 5.70721 -1.55021 0
M  V30 1484 H 142.789 0.752851 -0.0416172 0
M  V30 1485 H 145.44 1.66083 -0.780309 0
M  V30 1486 H 143.822 3.92027 0.559557 0
M  V30 1487 H 144.996 3.99381 -2.29851 0
M  V30 1488 H 143.311 3.68529 -1.93843 0
M  V30 1489 H 145.908 5.33868 0.298083 0
M  V30 1490 H 146.251 3.95327 1.30471 0
M  V30 1491 H 146.784 3.95843 -0.394063 0
M  V30 1492 H 143.523 6.03698 -2.55399 0
M  V30 1493 H 143.043 5.93829 -0.844245 0
M  V30 1494 H 144.722 6.34203 -1.28047 0
M  V30 1495 N 144.854 0.36279 1.53368 0
M  V30 1496 C 145.802 -0.500155 2.27159 0
M  V30 1497 C 146.796 -1.08575 1.3003 0
M  V30 1498 O 148.002 -1.02927 1.47668 0
M  V30 1499 H 144.377 -0.180009 0.730138 0
M  V30 1500 H 146.348 0.14401 2.98052 0
M  V30 1501 C 145.097 -1.62937 3.07159 0
M  V30 1502 H 144.42 -1.18806 3.8174 0
M  V30 1503 H 145.86 -2.20795 3.61975 0
M  V30 1504 C 144.319 -2.57007 2.17829 0
M  V30 1505 O 144.849 -3.59752 1.78721 0
M  V30 1506 N 143.055 -2.26131 1.82518 0
M  V30 1507 H 142.602 -1.42616 2.14519 0
M  V30 1508 H 142.56 -2.89327 1.23034 0
M  V30 1509 N 146.332 -1.57332 0.0918853 0
M  V30 1510 C 147.578 -1.94524 -0.573425 0
M  V30 1511 C 147.911 -0.973578 -1.68033 0
M  V30 1512 O 147.186 -0.00609226 -1.94499 0
M  V30 1513 C 147.469 -3.41858 -1.13161 0
M  V30 1514 C 147.322 -4.4979 -0.0299747 0
M  V30 1515 C 148.641 -3.90435 -2.03098 0
M  V30 1516 H 145.76 -0.70734 -0.206975 0
M  V30 1517 H 148.402 -1.89309 0.161942 0
M  V30 1518 H 146.552 -3.46433 -1.7583 0
M  V30 1519 H 148.224 -4.57327 0.604112 0
M  V30 1520 H 146.467 -4.291 0.636833 0
M  V30 1521 H 147.138 -5.50069 -0.461287 0
M  V30 1522 H 149.614 -3.87992 -1.50338 0
M  V30 1523 H 148.49 -4.94097 -2.39081 0
M  V30 1524 H 148.751 -3.29541 -2.94712 0
M  V30 1525 N 147.81 0.181792 -1.56548 0
M  V30 1526 C 149.058 0.89832 -1.81038 0
M  V30 1527 C 149.379 1.83232 -0.667164 0
M  V30 1528 O 148.649 1.93372 0.313673 0
M  V30 1529 H 147.229 0.33471 -0.667816 0
M  V30 1530 H 149.891 0.184116 -1.94028 0
M  V30 1531 H 148.987 1.4815 -2.74696 0
M  V30 1532 N 149.288 1.51039 0.449983 0
M  V30 1533 C 150.536 1.62759 1.19808 0
M  V30 1534 C 150.857 0.339981 1.92013 0
M  V30 1535 O 150.127 -0.643606 1.85026 0
M  V30 1536 H 148.707 0.599811 0.445237 0
M  V30 1537 H 151.369 1.87914 0.517138 0
M  V30 1538 H 150.465 2.44911 1.93455 0
M  V30 1539 N 150.766 -0.704594 1.40972 0
M  V30 1540 C 151.994 -1.49354 1.43182 0
M  V30 1541 C 152.409 -1.88768 0.0345508 0
M  V30 1542 O 151.766 -1.56184 -0.944081 0
M  V30 1543 C 151.817 -2.76187 2.33244 0
M  V30 1544 O 151.538 -2.38436 3.67532 0
M  V30 1545 C 153.039 -3.7 2.44162 0
M  V30 1546 H 150.259 -0.460559 0.487982 0
M  V30 1547 H 152.803 -0.868261 1.85153 0
M  V30 1548 H 150.958 -3.34974 1.94606 0
M  V30 1549 H 151.372 -3.20126 4.15475 0
M  V30 1550 H 152.846 -4.55803 3.11364 0
M  V30 1551 H 153.323 -4.13867 1.47006 0
M  V30 1552 H 153.929 -3.17121 2.83398 0
M  V30 1553 N 152.244 -1.26651 -0.937939 0
M  V30 1554 C 153.174 -1.10993 -2.05433 0
M  V30 1555 C 154.155 -0.0142161 -1.70094 0
M  V30 1556 O 155.34 -0.186837 -1.93299 0
M  V30 1557 C 152.47 -0.745561 -3.39203 0
M  V30 1558 C 151.424 -1.79337 -3.88616 0
M  V30 1559 C 150.75 -1.28324 -5.19073 0
M  V30 1560 C 152.05 -3.19553 -4.13138 0
M  V30 1561 H 153.744 -2.0438 -2.1879 0
M  V30 1562 H 151.29 -0.984041 -1.05131 0
M  V30 1563 H 153.243 -0.622888 -4.16771 0
M  V30 1564 H 151.967 0.22401 -3.25831 0
M  V30 1565 H 150.626 -1.90477 -3.13231 0
M  V30 1566 H 150.274 -0.303414 -5.02084 0
M  V30 1567 H 149.974 -1.98369 -5.53103 0
M  V30 1568 H 151.498 -1.1733 -5.99221 0
M  V30 1569 H 152.912 -3.11471 -4.81309 0
M  V30 1570 H 151.309 -3.87218 -4.58457 0
M  V30 1571 H 152.379 -3.65368 -3.18801 0
M  V30 1572 N 153.722 1.14298 -1.08507 0
M  V30 1573 C 154.67 2.21483 -0.710483 0
M  V30 1574 C 155.664 1.66998 0.284234 0
M  V30 1575 O 156.87 1.79401 0.146692 0
M  V30 1576 H 153.245 0.721578 -0.211729 0
M  V30 1577 H 155.216 2.50348 -1.62384 0
M  V30 1578 C 153.965 3.4743 -0.137007 0
M  V30 1579 H 153.288 3.89686 -0.893592 0
M  V30 1580 H 154.728 4.2391 0.0872789 0
M  V30 1581 C 153.187 3.17548 1.12538 0
M  V30 1582 O 153.717 3.35437 2.21009 0
M  V30 1583 N 151.923 2.71499 1.03617 0
M  V30 1584 H 151.47 2.57143 0.153403 0
M  V30 1585 H 151.428 2.51881 1.88158 0
M  V30 1586 N 155.201 0.870884 1.31352 0
M  V30 1587 C 156.131 0.343096 2.30966 0
M  V30 1588 C 157.112 -0.566507 1.60389 0
M  V30 1589 O 158.297 -0.483336 1.88089 0
M  V30 1590 C 155.427 -0.455487 3.443 0
M  V30 1591 C 154.381 0.361103 4.26474 0
M  V30 1592 C 153.707 -0.563221 5.31725 0
M  V30 1593 C 155.007 1.59566 4.97329 0
M  V30 1594 H 156.701 1.17548 2.75359 0
M  V30 1595 H 154.247 0.566686 1.32381 0
M  V30 1596 H 156.2 -0.83525 4.13039 0
M  V30 1597 H 154.924 -1.32139 2.98675 0
M  V30 1598 H 153.583 0.722825 3.59403 0
M  V30 1599 H 153.231 -1.42643 4.82351 0
M  V30 1600 H 152.931 -0.0207409 5.87596 0
M  V30 1601 H 154.455 -0.939808 6.03324 0
M  V30 1602 H 155.869 1.28728 5.58661 0
M  V30 1603 H 154.266 2.07728 5.63 0
M  V30 1604 H 155.336 2.34798 4.24262 0
M  V30 1605 N 156.679 -1.44442 0.630414 0
M  V30 1606 C 157.609 -2.33418 -0.0618083 0
M  V30 1607 C 158.59 -1.48165 -0.835541 0
M  V30 1608 O 159.775 -1.76886 -0.801564 0
M  V30 1609 C 156.905 -3.31222 -1.04449 0
M  V30 1610 C 155.859 -4.26288 -0.382436 0
M  V30 1611 C 155.185 -5.13954 -1.47497 0
M  V30 1612 C 156.485 -5.1744 0.710865 0
M  V30 1613 H 158.179 -2.91548 0.681184 0
M  V30 1614 H 155.725 -1.40191 0.329026 0
M  V30 1615 H 157.678 -3.92351 -1.53748 0
M  V30 1616 H 156.402 -2.71299 -1.81836 0
M  V30 1617 H 155.061 -3.6649 0.0899054 0
M  V30 1618 H 154.709 -4.50385 -2.2397 0
M  V30 1619 H 154.409 -5.7837 -1.03737 0
M  V30 1620 H 155.933 -5.77955 -1.96979 0
M  V30 1621 H 157.347 -5.72509 0.300996 0
M  V30 1622 H 155.744 -5.90455 1.07156 0
M  V30 1623 H 156.814 -4.58496 1.57829 0
M  V30 1624 N 158.157 -0.370918 -1.53173 0
M  V30 1625 C 159.067 0.480823 -2.2962 0
M  V30 1626 C 160.083 1.08789 -1.35798 0
M  V30 1627 O 161.259 1.09768 -1.68858 0
M  V30 1628 C 158.324 1.60227 -3.07454 0
M  V30 1629 C 157.385 1.0222 -4.16953 0
M  V30 1630 C 156.618 2.0902 -4.91066 0
M  V30 1631 O 156.841 3.30222 -4.65091 0
M  V30 1632 O 155.775 1.71778 -5.76867 0
M  V30 1633 H 159.601 -0.141421 -3.03371 0
M  V30 1634 H 157.186 -0.135146 -1.48787 0
M  V30 1635 H 159.068 2.25417 -3.56041 0
M  V30 1636 H 157.743 2.20982 -2.36535 0
M  V30 1637 H 156.65 0.334064 -3.72605 0
M  V30 1638 H 157.983 0.459131 -4.90054 0
M  V30 1639 N 159.635 1.57281 -0.100228 0
M  V30 1640 C 160.598 2.13158 0.842398 0
M  V30 1641 C 161.598 1.06202 1.20738 0
M  V30 1642 O 162.788 1.32066 1.13597 0
M  V30 1643 C 159.92 2.65639 2.13655 0
M  V30 1644 H 161.113 2.97766 0.357114 0
M  V30 1645 H 158.666 1.5559 0.148823 0
M  V30 1646 H 159.401 1.84566 2.66657 0
M  V30 1647 H 159.186 3.43844 1.88451 0
M  V30 1648 H 160.676 3.08846 2.81077 0
M  V30 1649 N 161.113 -0.173488 1.56642 0
M  V30 1650 C 162.359 -0.891784 1.8214 0
M  V30 1651 C 162.692 -1.8199 0.677736 0
M  V30 1652 O 161.967 -1.91842 -0.320446 0
M  V30 1653 C 162.25 -1.68933 3.18015 0
M  V30 1654 C 162.103 -0.784487 4.42906 0
M  V30 1655 C 163.422 -2.65748 3.50808 0
M  V30 1656 H 160.541 -0.322761 0.662567 0
M  V30 1657 H 163.183 -0.158095 1.89341 0
M  V30 1658 H 161.333 -2.31482 3.12007 0
M  V30 1659 H 163.005 -0.172046 4.60979 0
M  V30 1660 H 161.248 -0.0924117 4.33702 0
M  V30 1661 H 161.919 -1.37799 5.34524 0
M  V30 1662 H 164.395 -2.13327 3.57255 0
M  V30 1663 H 163.271 -3.18619 4.4696 0
M  V30 1664 H 163.532 -3.45842 2.75401 0
M  V30 1665 N 162.591 -1.51276 -0.441967 0
M  V30 1666 C 164.007 -1.39349 -0.778083 0
M  V30 1667 C 164.207 -0.472212 -1.95889 0
M  V30 1668 O 163.263 0.0743551 -2.5239 0
M  V30 1669 C 164.576 -2.81292 -1.0628 0
M  V30 1670 C 166.124 -2.9041 -1.16751 0
M  V30 1671 C 166.599 -4.33251 -1.48519 0
M  V30 1672 N 168.09 -4.36336 -1.55453 0
M  V30 1673 C 168.825 -5.43885 -1.81596 0
M  V30 1674 N 168.321 -6.61601 -2.05562 0
M  V30 1675 N 170.114 -5.3136 -1.8334 0
M  V30 1676 H 162.265 -2.09729 0.335774 0
M  V30 1677 H 164.528 -0.943925 0.0878028 0
M  V30 1678 H 164.234 -3.50678 -0.267905 0
M  V30 1679 H 164.108 -3.20334 -1.99163 0
M  V30 1680 H 166.495 -2.21225 -1.95304 0
M  V30 1681 H 166.576 -2.54871 -0.217801 0
M  V30 1682 H 166.22 -5.02984 -0.704958 0
M  V30 1683 H 166.15 -4.66299 -2.44689 0
M  V30 1684 H 168.641 -3.51466 -1.38853 0
M  V30 1685 H 168.954 -7.39361 -2.24867 0
M  V30 1686 H 167.299 -6.64725 -2.02894 0
M  V30 1687 H 170.49 -4.38382 -1.64132 0
M  V30 1688 H 170.663 -6.15258 -2.03377 0
M  V30 1689 N 164.069 0.697108 -1.41344 0
M  V30 1690 C 165.001 1.8224 -1.39001 0
M  V30 1691 C 166.014 1.60152 -0.292428 0
M  V30 1692 O 167.203 1.69684 -0.554048 0
M  V30 1693 C 164.303 3.18976 -1.14489 0
M  V30 1694 C 163.476 3.68105 -2.36258 0
M  V30 1695 C 162.535 4.83506 -2.07625 0
M  V30 1696 O 161.561 4.95201 -2.8065 0
M  V30 1697 N 162.763 5.70637 -1.06555 0
M  V30 1698 H 165.528 1.84742 -2.35988 0
M  V30 1699 H 163.089 0.87937 -1.35936 0
M  V30 1700 H 165.081 3.93801 -0.932885 0
M  V30 1701 H 163.651 3.11508 -0.261043 0
M  V30 1702 H 162.871 2.84204 -2.7317 0
M  V30 1703 H 164.159 3.97667 -3.17393 0
M  V30 1704 H 163.557 5.63817 -0.461125 0
M  V30 1705 H 162.114 6.45368 -0.913444 0
M  V30 1706 N 165.547 1.27147 0.931209 0
M  V30 1707 C 166.777 1.15914 1.71019 0
M  V30 1708 C 167.185 -0.287112 1.87009 0
M  V30 1709 O 166.528 -1.20761 1.38429 0
M  V30 1710 C 166.59 1.76647 3.13107 0
M  V30 1711 C 166.254 3.25807 3.20467 0
M  V30 1712 C 167.251 4.22489 3.02983 0
M  V30 1713 C 164.936 3.66452 3.43538 0
M  V30 1714 C 166.93 5.57794 3.08454 0
M  V30 1715 C 164.617 5.01888 3.48643 0
M  V30 1716 C 165.615 5.97369 3.31119 0
M  V30 1717 O 165.303 7.30337 3.35952 0
M  V30 1718 H 165.035 0.404062 0.54195 0
M  V30 1719 H 167.589 1.68457 1.17521 0
M  V30 1720 H 165.819 1.18578 3.68071 0
M  V30 1721 H 167.508 1.60179 3.72958 0
M  V30 1722 H 168.274 3.92425 2.85004 0
M  V30 1723 H 164.153 2.92611 3.5623 0
M  V30 1724 H 167.697 6.32298 2.94694 0
M  V30 1725 H 163.594 5.31609 3.66145 0
M  V30 1726 H 164.362 7.38739 3.5243 0
M  V30 1727 N 167.025 -1.13721 1.09112 0
M  V30 1728 C 167.973 -2.21103 0.722219 0
M  V30 1729 C 168.967 -1.67147 -0.275374 0
M  V30 1730 O 170.173 -1.79477 -0.137176 0
M  V30 1731 H 166.548 -0.720445 0.215553 0
M  V30 1732 H 168.519 -2.49483 1.63709 0
M  V30 1733 C 167.268 -3.47352 0.15543 0
M  V30 1734 H 166.591 -3.89206 0.914246 0
M  V30 1735 H 168.031 -4.2395 -0.0647967 0
M  V30 1736 C 166.49 -3.1814 -1.10852 0
M  V30 1737 O 167.02 -3.36604 -2.19227 0
M  V30 1738 N 165.226 -2.72045 -1.02176 0
M  V30 1739 H 164.773 -2.57221 -0.139764 0
M  V30 1740 H 164.731 -2.52875 -1.8682 0
M  V30 1741 N 168.503 -0.877838 -1.30888 0
M  V30 1742 C 169.728 -0.506629 -2.01117 0
M  V30 1743 C 170.153 0.895564 -1.65412 0
M  V30 1744 O 169.511 1.5923 -0.866922 0
M  V30 1745 C 169.559 -0.680223 -3.54126 0
M  V30 1746 O 168.663 0.277033 -4.11468 0
M  V30 1747 H 168.004 -0.200518 -0.633 0
M  V30 1748 H 170.534 -1.18342 -1.66902 0
M  V30 1749 H 170.544 -0.5765 -4.03907 0
M  V30 1750 H 169.219 -1.70261 -3.79452 0
M  V30 1751 H 167.796 0.127606 -3.72682 0
M  V30 1752 N 169.982 1.44106 -0.638065 0
M  V30 1753 C 170.93 2.3248 0.0748149 0
M  V30 1754 C 171.924 1.47746 0.828702 0
M  V30 1755 O 173.13 1.64049 0.740816 0
M  V30 1756 H 169.505 0.750771 0.0429686 0
M  V30 1757 H 171.476 2.90348 -0.688504 0
M  V30 1758 C 170.225 3.31843 1.03805 0
M  V30 1759 H 169.548 3.97059 0.467375 0
M  V30 1760 H 170.988 3.96345 1.50622 0
M  V30 1761 C 169.447 2.61291 2.1267 0
M  V30 1762 O 169.977 2.41702 3.20847 0
M  V30 1763 N 168.183 2.20915 1.88798 0
M  V30 1764 H 167.73 2.37047 1.00829 0
M  V30 1765 H 167.688 1.74038 2.61836 0
M  V30 1766 N 171.46 0.379036 1.52974 0
M  V30 1767 C 172.7 -0.206325 2.03356 0
M  V30 1768 C 173.064 -1.44892 1.25977 0
M  V30 1769 O 174.265 -2.11078 1.66432 0
M  V30 1770 C 172.536 -0.477887 3.54191 0
M  V30 1771 S 174.095 -1.035 4.26419 0
M  V30 1772 H 170.913 -0.0590259 0.708546 0
M  V30 1773 H 173.515 0.525013 1.88319 0
M  V30 1774 H 172.219 0.433745 4.08101 0
M  V30 1775 H 171.75 -1.23793 3.73415 0
M  V30 1776 H 173.765 -2.31821 4.38718 0
M  V30 1777 N 172.938 -1.57226 0.108567 0
M  V30 1778 C 173.886 -2.16002 -0.862885 0
M  V30 1779 C 174.88 -1.10644 -1.28274 0
M  V30 1780 O 176.086 -1.28966 -1.2557 0
M  V30 1781 H 172.461 -0.691148 -0.296342 0
M  V30 1782 H 174.432 -2.96427 -0.342575 0
M  V30 1783 C 173.181 -2.76576 -2.10716 0
M  V30 1784 H 172.504 -3.5734 -1.793 0
M  V30 1785 H 173.944 -3.21253 -2.76717 0
M  V30 1786 C 172.403 -1.73137 -2.89007 0
M  V30 1787 O 172.933 -1.17842 -3.84026 0
M  V30 1788 N 171.139 -1.43317 -2.52801 0
M  V30 1789 H 170.686 -1.88473 -1.75601 0
M  V30 1790 H 170.644 -0.743485 -3.05483 0
M  V30 1791 N 174.416 0.165178 -1.56732 0
M  V30 1792 C 175.665 0.879143 -1.81532 0
M  V30 1793 C 175.978 1.83144 -0.686842 0
M  V30 1794 O 177.184 2.58823 -0.819944 0
M  V30 1795 C 175.64 1.61388 -3.21686 0
M  V30 1796 C 175.248 0.704904 -4.4242 0
M  V30 1797 C 176.992 2.3157 -3.55774 0
M  V30 1798 C 174.899 1.44022 -5.73595 0
M  V30 1799 H 173.829 0.332033 -0.676957 0
M  V30 1800 H 176.48 0.132008 -1.83025 0
M  V30 1801 H 174.862 2.40599 -3.14529 0
M  V30 1802 H 176.036 -0.0506815 -4.60772 0
M  V30 1803 H 174.351 0.112419 -4.16248 0
M  V30 1804 H 176.948 2.8719 -4.51028 0
M  V30 1805 H 177.291 3.07201 -2.8095 0
M  V30 1806 H 177.824 1.59297 -3.64513 0
M  V30 1807 H 174.563 0.72612 -6.51466 0
M  V30 1808 H 174.083 2.16898 -5.5921 0
M  V30 1809 H 175.762 1.98606 -6.15764 0
M  V30 1810 N 175.894 1.51508 0.433938 0
M  V30 1811 C 177.143 1.63578 1.18005 0
M  V30 1812 C 177.456 0.359514 1.92268 0
M  V30 1813 O 178.662 0.359632 2.69108 0
M  V30 1814 C 177.118 2.88901 2.14626 0
M  V30 1815 C 176.726 4.23544 1.45995 0
M  V30 1816 C 178.47 3.10328 2.89649 0
M  V30 1817 C 176.377 5.40014 2.4112 0
M  V30 1818 H 175.307 0.609277 0.444182 0
M  V30 1819 H 177.958 1.77978 0.446773 0
M  V30 1820 H 176.34 2.68142 2.91403 0
M  V30 1821 H 177.514 4.54696 0.747532 0
M  V30 1822 H 175.829 4.08021 0.831115 0
M  V30 1823 H 178.426 3.94518 3.60915 0
M  V30 1824 H 178.769 2.23544 3.51189 0
M  V30 1825 H 179.302 3.31443 2.19978 0
M  V30 1826 H 176.041 6.29068 1.84264 0
M  V30 1827 H 175.561 5.13233 3.10406 0
M  V30 1828 H 177.24 5.72099 3.02177 0
M  V30 1829 N 177.372 -0.689602 1.41712 0
M  V30 1830 C 178.602 -1.47613 1.44548 0
M  V30 1831 C 179.01 -1.89132 0.0509034 0
M  V30 1832 O 178.353 -1.57741 -0.94146 0
M  V30 1833 C 178.415 -2.76596 2.2964 0
M  V30 1834 C 178.079 -2.57245 3.77722 0
M  V30 1835 C 179.076 -2.22804 4.69739 0
M  V30 1836 C 176.761 -2.727 4.2183 0
M  V30 1837 C 178.755 -2.04064 6.03851 0
M  V30 1838 C 176.442 -2.53576 5.56006 0
M  V30 1839 C 177.44 -2.1931 6.46832 0
M  V30 1840 O 177.128 -2.00359 7.78532 0
M  V30 1841 H 176.86 -0.461227 0.494212 0
M  V30 1842 H 179.414 -0.856045 1.86711 0
M  V30 1843 H 177.644 -3.41033 1.82301 0
M  V30 1844 H 179.333 -3.38424 2.24107 0
M  V30 1845 H 180.099 -2.10473 4.36951 0
M  V30 1846 H 175.978 -2.98353 3.51435 0
M  V30 1847 H 179.522 -1.77241 6.74708 0
M  V30 1848 H 175.419 -2.65499 5.88371 0
M  V30 1849 H 176.187 -2.15075 7.89737 0
M  V30 1850 N 178.85 -1.27639 -0.924453 0
M  V30 1851 C 180.075 -1.17101 -1.71179 0
M  V30 1852 C 180.5 0.268134 -1.86179 0
M  V30 1853 O 179.858 1.19415 -1.36418 0
M  V30 1854 C 179.906 -1.86313 -3.08739 0
M  V30 1855 O 179.01 -1.16331 -3.95652 0
M  V30 1856 H 178.351 -0.407091 -0.524569 0
M  V30 1857 H 180.881 -1.68767 -1.15666 0
M  V30 1858 H 180.891 -1.938 -3.59034 0
M  V30 1859 H 179.566 -2.91001 -2.97138 0
M  V30 1860 H 178.143 -1.16935 -3.54091 0
M  V30 1861 N 180.328 1.1314 -1.09713 0
M  V30 1862 C 181.553 1.88862 -0.857081 0
M  V30 1863 C 181.978 1.78729 0.586304 0
M  V30 1864 O 181.336 1.13692 1.41222 0
M  V30 1865 C 181.384 3.36325 -1.30069 0
M  V30 1866 O 180.488 4.09815 -0.461007 0
M  V30 1867 H 179.829 0.587108 -0.310162 0
M  V30 1868 H 182.359 1.43129 -1.46203 0
M  V30 1869 H 182.369 3.87157 -1.28738 0
M  V30 1870 H 181.044 3.43017 -2.35185 0
M  V30 1871 H 179.621 3.68986 -0.538888 0
M  V30 1872 N 181.806 0.884767 1.30421 0
M  V30 1873 C 183.034 0.518044 2.0031 0
M  V30 1874 C 183.449 -0.893408 1.66324 0
M  V30 1875 O 182.806 -1.5875 0.900262 0
M  V30 1876 C 182.857 0.682997 3.54989 0
M  V30 1877 O 182.578 2.03888 3.87764 0
M  V30 1878 C 184.079 0.31924 4.42149 0
M  V30 1879 H 181.299 0.200265 0.640418 0
M  V30 1880 H 183.843 1.19001 1.6631 0
M  V30 1881 H 181.998 0.0584052 3.87356 0
M  V30 1882 H 182.412 2.05735 4.82466 0
M  V30 1883 H 183.886 0.485555 5.4986 0
M  V30 1884 H 184.363 -0.742717 4.32875 0
M  V30 1885 H 184.969 0.920147 4.15227 0
M  V30 1886 N 183.284 -1.43765 0.645699 0
M  V30 1887 C 184.232 -2.32516 -0.0624849 0
M  V30 1888 C 185.226 -1.48183 -0.820855 0
M  V30 1889 O 186.432 -1.64439 -0.732106 0
M  V30 1890 H 182.807 -0.750989 -0.0389864 0
M  V30 1891 H 184.778 -2.89979 0.703892 0
M  V30 1892 C 183.527 -3.32389 -1.02044 0
M  V30 1893 H 182.85 -3.97301 -0.446312 0
M  V30 1894 H 184.29 -3.97138 -1.48517 0
M  V30 1895 C 182.749 -2.62416 -2.11281 0
M  V30 1896 O 183.279 -2.434 -3.19561 0
M  V30 1897 N 181.485 -2.21913 -1.87624 0
M  V30 1898 H 181.032 -2.37578 -0.995703 0
M  V30 1899 H 180.99 -1.75424 -2.6091 0
M  V30 1900 N 184.763 -0.387143 -1.52771 0
M  V30 1901 C 185.71 0.449048 -2.26389 0
M  V30 1902 C 186.68 1.05961 -1.27912 0
M  V30 1903 O 187.865 1.08804 -1.56737 0
M  V30 1904 C 185.005 1.57155 -3.0724 0
M  V30 1905 C 184.118 0.984066 -4.20643 0
M  V30 1906 C 183.253 2.07745 -4.88892 0
M  V30 1907 C 182.292 1.46574 -5.94292 0
M  V30 1908 N 181.429 2.49834 -6.56146 0
M  V30 1909 H 186.269 -0.185205 -2.97424 0
M  V30 1910 H 183.806 -0.103164 -1.46738 0
M  V30 1911 H 185.764 2.23309 -3.52405 0
M  V30 1912 H 184.394 2.17615 -2.38419 0
M  V30 1913 H 183.446 0.212193 -3.79808 0
M  V30 1914 H 184.758 0.497029 -4.96318 0
M  V30 1915 H 183.912 2.81673 -5.3735 0
M  V30 1916 H 182.651 2.59807 -4.12737 0
M  V30 1917 H 181.656 0.711696 -5.45174 0
M  V30 1918 H 182.881 0.953088 -6.72379 0
M  V30 1919 H 180.827 3.0107 -5.82832 0
M  V30 1920 H 180.744 2.05879 -7.27427 0
M  V30 1921 H 182.012 3.23399 -7.09249 0
M  V30 1922 N 186.241 1.57166 -0.116904 0
M  V30 1923 C 187.487 1.95412 0.542405 0
M  V30 1924 C 187.82 1.00019 1.66463 0
M  V30 1925 O 187.095 0.0370346 1.94465 0
M  V30 1926 C 187.378 3.43615 1.07708 0
M  V30 1927 C 187.231 4.49781 -0.0415868 0
M  V30 1928 C 188.55 3.93616 1.96861 0
M  V30 1929 H 185.669 0.710543 0.195696 0
M  V30 1930 H 188.311 1.89027 -0.192038 0
M  V30 1931 H 186.461 3.49187 1.70296 0
M  V30 1932 H 188.133 4.56308 -0.676793 0
M  V30 1933 H 186.376 4.28033 -0.705019 0
M  V30 1934 H 187.047 5.50733 0.373717 0
M  V30 1935 H 189.523 3.90335 1.44146 0
M  V30 1936 H 188.399 4.97838 2.3119 0
M  V30 1937 H 188.66 3.34188 2.89432 0
M  V30 1938 N 187.719 -0.156864 1.56817 0
M  V30 1939 C 188.949 -0.885031 1.86684 0
M  V30 1940 C 189.357 -1.75696 0.701954 0
M  V30 1941 O 188.7 -1.80569 -0.337732 0
M  V30 1942 C 188.762 -1.80092 3.11138 0
M  V30 1943 C 188.426 -1.10714 4.43386 0
M  V30 1944 C 189.423 -0.465714 5.1781 0
M  V30 1945 C 187.108 -1.09959 4.90117 0
M  V30 1946 C 189.102 0.174002 6.37162 0
M  V30 1947 C 186.789 -0.456055 6.09396 0
M  V30 1948 C 187.787 0.179622 6.82764 0
M  V30 1949 O 187.475 0.812975 7.99779 0
M  V30 1950 H 187.207 -0.261813 0.623242 0
M  V30 1951 H 189.761 -0.157383 2.04796 0
M  V30 1952 H 187.991 -2.56926 2.89009 0
M  V30 1953 H 189.68 -2.40018 3.27332 0
M  V30 1954 H 190.446 -0.463427 4.82781 0
M  V30 1955 H 186.325 -1.58378 4.3294 0
M  V30 1956 H 189.869 0.670765 6.94368 0
M  V30 1957 H 185.766 -0.455975 6.43888 0
M  V30 1958 H 186.534 0.71366 8.15383 0
M  V30 1959 N 189.197 -1.51736 -0.425897 0
M  V30 1960 C 190.445 -1.64644 -1.17204 0
M  V30 1961 C 190.766 -0.370486 -1.91448 0
M  V30 1962 O 190.036 0.614088 -1.86026 0
M  V30 1963 H 188.616 -0.606819 -0.435638 0
M  V30 1964 H 191.278 -1.88713 -0.487177 0
M  V30 1965 H 190.374 -2.47958 -1.89534 0
M  V30 1966 N 190.675 0.682077 -1.42076 0
M  V30 1967 C 191.952 1.43755 -1.32642 0
M  V30 1968 C 192.332 2.11063 0.0396611 0
M  V30 1969 O 191.68 2.02701 1.05474 0
M  V30 1970 C 191.89 2.44596 -2.48946 0
M  V30 1971 C 193.238 3.09454 -2.9073 0
M  V30 1972 O 194.262 2.54922 -2.48783 0
M  V30 1973 O 193.121 4.08253 -3.63307 0
M  V30 1974 H 190.215 0.640857 -0.522715 0
M  V30 1975 H 192.761 0.711415 -1.54068 0
M  V30 1976 H 191.533 1.93609 -3.40046 0
M  V30 1977 H 191.156 3.24701 -2.29467 0
M  V30 1978 N 192.153 1.28127 0.917671 0
M  V30 1979 C 193.083 1.14248 2.03641 0
M  V30 1980 C 194.064 0.0412748 1.7005 0
M  V30 1981 O 195.249 0.217566 1.92977 0
M  V30 1982 C 192.379 0.799431 3.37974 0
M  V30 1983 C 191.333 1.85497 3.85713 0
M  V30 1984 C 190.659 1.36565 5.16966 0
M  V30 1985 C 191.959 3.26085 4.08002 0
M  V30 1986 H 193.653 2.07835 2.15511 0
M  V30 1987 H 191.199 1.00064 1.03553 0
M  V30 1988 H 193.152 0.689114 4.15727 0
M  V30 1989 H 191.876 -0.172145 3.26146 0
M  V30 1990 H 190.535 1.95437 3.10161 0
M  V30 1991 H 190.183 0.383253 5.01538 0
M  V30 1992 H 189.883 2.07143 5.49878 0
M  V30 1993 H 191.407 1.26848 5.97279 0
M  V30 1994 H 192.821 3.19089 4.76293 0
M  V30 1995 H 191.218 3.94462 4.52238 0
M  V30 1996 H 192.288 3.70394 3.12948 0
M  V30 1997 N 193.631 -1.12557 1.10312 0
M  V30 1998 C 194.541 -2.21841 0.763142 0
M  V30 1999 C 195.557 -1.72354 -0.238801 0
M  V30 2000 O 196.733 -2.01249 -0.0778746 0
M  V30 2001 C 193.798 -3.46131 0.198632 0
M  V30 2002 C 192.859 -4.10464 1.25769 0
M  V30 2003 C 192.092 -5.28821 0.72002 0
M  V30 2004 O 192.315 -5.6859 -0.453993 0
M  V30 2005 O 191.249 -5.83437 1.47935 0
M  V30 2006 H 195.075 -2.53312 1.67532 0
M  V30 2007 H 192.66 -1.20867 0.878157 0
M  V30 2008 H 194.542 -4.2125 -0.112401 0
M  V30 2009 H 193.217 -3.16338 -0.686419 0
M  V30 2010 H 192.124 -3.3713 1.62156 0
M  V30 2011 H 193.457 -4.44408 2.11571 0
M  V30 2012 N 195.109 -0.891671 -1.2995 0
M  V30 2013 C 196.041 -0.320695 -2.26945 0
M  V30 2014 C 197.054 0.528497 -1.53983 0
M  V30 2015 O 198.243 0.346959 -1.75096 0
M  V30 2016 C 195.343 0.562066 -3.34207 0
M  V30 2017 C 194.516 -0.259576 -4.36629 0
M  V30 2018 C 193.575 0.554739 -5.23268 0
M  V30 2019 O 192.601 -0.0249311 -5.69195 0
M  V30 2020 N 193.803 1.8625 -5.4981 0
M  V30 2021 H 196.568 -1.15432 -2.76578 0
M  V30 2022 H 194.129 -0.755336 -1.432 0
M  V30 2023 H 196.121 1.11304 -3.89093 0
M  V30 2024 H 194.691 1.29637 -2.84452 0
M  V30 2025 H 193.911 -0.991986 -3.81514 0
M  V30 2026 H 195.199 -0.822564 -5.02107 0
M  V30 2027 H 194.597 2.35628 -5.14292 0
M  V30 2028 H 193.154 2.36078 -6.07545 0
M  V30 2029 N 196.587 1.43421 -0.653314 0
M  V30 2030 C 197.817 2.05864 -0.174238 0
M  V30 2031 C 198.225 1.49052 1.16534 0
M  V30 2032 O 197.568 0.616481 1.73047 0
M  V30 2033 C 197.63 3.59499 -0.00875873 0
M  V30 2034 C 197.294 4.38893 -1.27364 0
M  V30 2035 C 198.291 4.70947 -2.20239 0
M  V30 2036 C 195.976 4.789 -1.51525 0
M  V30 2037 C 197.97 5.41916 -3.35568 0
M  V30 2038 C 195.657 5.49614 -2.67147 0
M  V30 2039 C 196.655 5.81044 -3.58994 0
M  V30 2040 O 196.343 6.50313 -4.72597 0
M  V30 2041 H 196.075 0.670345 -0.0872549 0
M  V30 2042 H 198.629 1.84913 -0.894226 0
M  V30 2043 H 196.859 3.79025 0.7666 0
M  V30 2044 H 198.548 4.0364 0.427687 0
M  V30 2045 H 199.314 4.40558 -2.02815 0
M  V30 2046 H 195.193 4.53843 -0.809158 0
M  V30 2047 H 198.737 5.66365 -4.07279 0
M  V30 2048 H 194.634 5.79419 -2.84505 0
M  V30 2049 H 195.402 6.68795 -4.71864 0
M  V30 2050 N 198.065 0.39524 1.52563 0
M  V30 2051 C 199.012 -0.437036 2.26624 0
M  V30 2052 C 199.982 -1.05281 1.28472 0
M  V30 2053 O 201.167 -1.07971 1.57311 0
M  V30 2054 C 198.307 -1.55524 3.08069 0
M  V30 2055 C 197.42 -0.961745 4.21158 0
M  V30 2056 C 196.555 -2.05149 4.89987 0
M  V30 2057 C 195.594 -1.4342 5.95061 0
M  V30 2058 N 194.731 -2.46351 6.57462 0
M  V30 2059 H 199.571 0.200976 2.97322 0
M  V30 2060 H 197.108 0.110944 1.46681 0
M  V30 2061 H 199.066 -2.21437 3.53584 0
M  V30 2062 H 197.696 -2.16348 2.3957 0
M  V30 2063 H 196.748 -0.192048 3.79915 0
M  V30 2064 H 198.06 -0.470701 4.96574 0
M  V30 2065 H 197.214 -2.78819 5.38837 0
M  V30 2066 H 195.953 -2.57615 4.14109 0
M  V30 2067 H 194.958 -0.682774 5.45544 0
M  V30 2068 H 196.183 -0.917416 6.72875 0
M  V30 2069 H 194.129 -2.97975 5.8442 0
M  V30 2070 H 194.046 -2.02019 7.28508 0
M  V30 2071 H 195.314 -3.19633 7.10954 0
M  V30 2072 N 199.544 -1.57102 0.125237 0
M  V30 2073 C 200.774 -1.99472 -0.538015 0
M  V30 2074 C 201.182 -1.00395 -1.60366 0
M  V30 2075 O 200.525 0.0103875 -1.83697 0
M  V30 2076 C 200.587 -3.38262 -1.21734 0
M  V30 2077 C 200.251 -4.56021 -0.298897 0
M  V30 2078 C 201.248 -5.17817 0.464943 0
M  V30 2079 C 198.933 -5.01869 -0.208149 0
M  V30 2080 C 200.927 -6.23852 1.3072 0
M  V30 2081 C 198.614 -6.07763 0.637736 0
M  V30 2082 C 199.612 -6.68622 1.39403 0
M  V30 2083 O 199.3 -7.7247 2.22586 0
M  V30 2084 H 199.032 -0.659934 -0.146501 0
M  V30 2085 H 201.586 -2.04321 0.210267 0
M  V30 2086 H 199.816 -3.30185 -2.01282 0
M  V30 2087 H 201.505 -3.6488 -1.77813 0
M  V30 2088 H 202.271 -4.83308 0.404741 0
M  V30 2089 H 198.15 -4.54241 -0.786522 0
M  V30 2090 H 201.694 -6.71284 1.898 0
M  V30 2091 H 197.591 -6.41701 0.699309 0
M  V30 2092 H 198.359 -7.89595 2.15596 0
M  V30 2093 N 201.022 0.148545 -1.56898 0
M  V30 2094 C 201.97 1.20265 -1.99096 0
M  V30 2095 C 202.964 1.44559 -0.883123 0
M  V30 2096 O 204.17 1.4487 -1.0683 0
M  V30 2097 H 200.545 0.404786 -0.63376 0
M  V30 2098 H 202.516 0.82004 -2.86911 0
M  V30 2099 C 201.265 2.52886 -2.3863 0
M  V30 2100 H 200.588 2.35021 -3.23427 0
M  V30 2101 H 202.028 3.25274 -2.7198 0
M  V30 2102 C 200.487 3.13315 -1.23837 0
M  V30 2103 O 201.017 3.98077 -0.538268 0
M  V30 2104 N 199.223 2.72742 -1.00301 0
M  V30 2105 H 198.77 2.03912 -1.5741 0
M  V30 2106 H 198.728 3.13507 -0.236838 0
M  V30 2107 N 202.5 1.5196 0.417844 0
M  V30 2108 C 203.41 1.77554 1.53336 0
M  V30 2109 C 204.426 0.660655 1.6097 0
M  V30 2110 O 205.602 0.945099 1.77848 0
M  V30 2111 C 202.667 1.91291 2.89152 0
M  V30 2112 C 201.728 3.15183 2.91475 0
M  V30 2113 C 200.961 3.28256 4.20813 0
M  V30 2114 O 201.184 2.46798 5.14244 0
M  V30 2115 O 200.118 4.21356 4.29817 0
M  V30 2116 H 203.944 2.7222 1.34647 0
M  V30 2117 H 201.529 1.36698 0.602828 0
M  V30 2118 H 203.411 2.02199 3.69721 0
M  V30 2119 H 202.086 0.998129 3.07927 0
M  V30 2120 H 200.993 3.09739 2.09791 0
M  V30 2121 H 202.326 4.06414 2.77648 0
M  V30 2122 N 203.978 -0.674533 1.42435 0
M  V30 2123 C 205.206 -1.46283 1.46317 0
M  V30 2124 C 205.621 -1.88653 0.0745836 0
M  V30 2125 O 204.978 -1.58151 -0.91074 0
M  V30 2126 C 205.029 -2.71178 2.3905 0
M  V30 2127 O 204.75 -2.30586 3.72507 0
M  V30 2128 C 206.251 -3.64738 2.51955 0
M  V30 2129 H 203.471 -0.450104 0.497642 0
M  V30 2130 H 206.015 -0.828792 1.86953 0
M  V30 2131 H 204.17 -3.3077 2.01667 0
M  V30 2132 H 204.584 -3.11241 4.22172 0
M  V30 2133 H 206.058 -4.49096 3.20962 0
M  V30 2134 H 206.535 -4.10656 1.55752 0
M  V30 2135 H 207.141 -3.11038 2.90061 0
M  V30 2136 N 205.456 -1.28612 -0.910864 0
M  V30 2137 C 206.366 -1.14643 -2.0468 0
M  V30 2138 C 207.382 -0.0723121 -1.7385 0
M  V30 2139 O 208.558 -0.282178 -1.99413 0
M  V30 2140 C 205.623 -0.812561 -3.37044 0
M  V30 2141 C 204.684 -1.96935 -3.81465 0
M  V30 2142 C 203.917 -1.65131 -5.07511 0
M  V30 2143 O 204.14 -0.567013 -5.67575 0
M  V30 2144 O 203.074 -2.49585 -5.47714 0
M  V30 2145 H 206.9 -2.1001 -2.19384 0
M  V30 2146 H 204.485 -1.07958 -1.03274 0
M  V30 2147 H 206.367 -0.640441 -4.16505 0
M  V30 2148 H 205.042 0.111426 -3.23508 0
M  V30 2149 H 203.949 -2.19664 -3.02818 0
M  V30 2150 H 205.282 -2.87414 -3.99567 0
M  V30 2151 N 206.934 1.1197 -1.10907 0
M  V30 2152 C 208.162 1.87402 -0.876824 0
M  V30 2153 C 208.577 1.79894 0.573025 0
M  V30 2154 O 207.934 1.17629 1.39534 0
M  V30 2155 C 207.985 3.36428 -1.32282 0
M  V30 2156 O 207.706 3.43765 -2.71582 0
M  V30 2157 C 209.207 4.28783 -1.12518 0
M  V30 2158 H 206.427 0.592793 -0.314384 0
M  V30 2159 H 208.971 1.41649 -1.47499 0
M  V30 2160 H 207.126 3.79706 -0.768229 0
M  V30 2161 H 207.54 4.3652 -2.90776 0
M  V30 2162 H 209.014 5.31613 -1.48633 0
M  V30 2163 H 209.491 4.39153 -0.0642394 0
M  V30 2164 H 210.097 3.91291 -1.66648 0
M  V30 2165 N 208.412 0.89855 1.29475 0
M  V30 2166 C 209.828 0.594483 1.48115 0
M  V30 2167 C 210.028 -0.86431 1.82022 0
M  V30 2168 O 209.084 -1.64457 1.91599 0
M  V30 2169 C 210.397 1.51932 2.59494 0
M  V30 2170 C 211.945 1.5244 2.7337 0
M  V30 2171 C 212.42 2.43548 3.87877 0
M  V30 2172 N 213.911 2.41589 3.95208 0
M  V30 2173 C 214.646 3.08789 4.83153 0
M  V30 2174 N 214.142 3.85265 5.75798 0
M  V30 2175 N 215.935 2.97952 4.76635 0
M  V30 2176 H 208.086 1.84207 1.05742 0
M  V30 2177 H 210.349 0.789251 0.525154 0
M  V30 2178 H 210.055 2.55865 2.41301 0
M  V30 2179 H 209.929 1.23899 3.56271 0
M  V30 2180 H 212.316 0.492518 2.90961 0
M  V30 2181 H 212.397 1.8451 1.77172 0
M  V30 2182 H 212.041 3.46829 3.71041 0
M  V30 2183 H 211.971 2.08788 4.83441 0
M  V30 2184 H 214.462 1.86025 3.28943 0
M  V30 2185 H 214.775 4.33598 6.39697 0
M  V30 2186 H 213.12 3.89371 5.75687 0
M  V30 2187 H 216.311 2.37723 4.03244 0
M  V30 2188 H 216.484 3.50599 5.44962 0
M  V30 2189 N 209.89 -1.43072 0.660911 0
M  V30 2190 C 211.12 -2.05769 0.185153 0
M  V30 2191 C 211.528 -1.49668 -1.15742 0
M  V30 2192 O 210.871 -0.625649 -1.72717 0
M  V30 2193 C 210.933 -3.59489 0.0278237 0
M  V30 2194 C 210.597 -4.38212 1.2969 0
M  V30 2195 C 211.594 -4.69772 2.22734 0
M  V30 2196 C 209.279 -4.7809 1.54063 0
M  V30 2197 C 211.273 -5.40129 3.38437 0
M  V30 2198 C 208.96 -5.4819 2.70058 0
M  V30 2199 C 209.958 -5.79132 3.62071 0
M  V30 2200 O 209.646 -6.47798 4.76039 0
M  V30 2201 H 209.378 -0.669873 0.0908086 0
M  V30 2202 H 211.932 -1.84436 0.90402 0
M  V30 2203 H 210.162 -3.79426 -0.746489 0
M  V30 2204 H 211.851 -4.03862 -0.406275 0
M  V30 2205 H 212.617 -4.39476 2.05149 0
M  V30 2206 H 208.496 -4.53408 0.833215 0
M  V30 2207 H 212.04 -5.64198 4.10277 0
M  V30 2208 H 207.937 -5.77902 2.87574 0
M  V30 2209 H 208.705 -6.66283 4.75404 0
M  V30 2210 N 211.368 -0.403325 -1.52352 0
M  V30 2211 C 212.596 0.174012 -2.06167 0
M  V30 2212 C 213.011 1.39347 -1.27388 0
M  V30 2213 O 212.368 1.79597 -0.324201 0
M  V30 2214 C 212.419 0.530223 -3.5759 0
M  V30 2215 O 212.14 -0.640806 -4.33388 0
M  V30 2216 C 213.641 1.16192 -4.27802 0
M  V30 2217 H 210.861 0.0229464 -0.670608 0
M  V30 2218 H 213.405 -0.572604 -1.9632 0
M  V30 2219 H 211.56 1.22673 -3.67464 0
M  V30 2220 H 211.974 -0.344851 -5.23365 0
M  V30 2221 H 213.448 1.36141 -5.34948 0
M  V30 2222 H 213.925 2.13335 -3.83907 0
M  V30 2223 H 214.531 0.505775 -4.22282 0
M  V30 2224 N 212.846 1.57033 -0.133567 0
M  V30 2225 C 214.086 1.97575 0.523789 0
M  V30 2226 C 214.45 1.01605 1.62912 0
M  V30 2227 O 215.651 1.3114 2.3464 0
M  V30 2228 C 213.922 3.42256 1.02935 0
M  V30 2229 S 215.481 4.04817 1.69319 0
M  V30 2230 H 212.299 0.690427 0.169799 0
M  V30 2231 H 214.901 1.94234 -0.222101 0
M  V30 2232 H 213.605 4.09842 0.213917 0
M  V30 2233 H 213.136 3.4928 1.81017 0
M  V30 2234 H 215.151 3.96767 2.97977 0
M  V30 2235 N 214.325 -0.140222 1.56975 0
M  V30 2236 C 215.571 -0.852949 1.83991 0
M  V30 2237 C 215.904 -1.80512 0.716187 0
M  V30 2238 O 215.179 -1.92479 -0.279681 0
M  V30 2239 C 215.462 -1.6215 3.21527 0
M  V30 2240 C 215.315 -0.690363 4.4447 0
M  V30 2241 C 216.634 -2.58247 3.56366 0
M  V30 2242 H 213.753 -0.308634 0.669264 0
M  V30 2243 H 216.395 -0.117898 1.89634 0
M  V30 2244 H 214.545 -2.24812 3.16847 0
M  V30 2245 H 216.217 -0.0742264 4.6124 0
M  V30 2246 H 214.46 -0.000396433 4.338 0
M  V30 2247 H 215.131 -1.2643 5.37326 0
M  V30 2248 H 217.607 -2.05701 3.61699 0
M  V30 2249 H 216.483 -3.09067 4.53617 0
M  V30 2250 H 216.744 -3.39923 2.82674 0
M  V30 2251 N 215.803 -1.52179 -0.40978 0
M  V30 2252 C 217.08 -1.56769 -1.16974 0
M  V30 2253 C 217.46 -0.348322 -2.08206 0
M  V30 2254 O 216.808 0.664862 -2.18613 0
M  V30 2255 C 217.018 -2.89603 -1.9476 0
M  V30 2256 C 218.366 -3.42579 -2.50849 0
M  V30 2257 O 219.39 -2.91338 -2.04941 0
M  V30 2258 O 218.249 -4.32054 -3.34652 0
M  V30 2259 H 215.343 -0.631439 -0.534054 0
M  V30 2260 H 217.889 -1.64507 -0.416613 0
M  V30 2261 H 216.661 -3.698 -1.27921 0
M  V30 2262 H 216.284 -2.85155 -2.77079 0
M  V30 2263 N 217.281 0.66697 -1.42791 0
M  V30 2264 C 218.228 1.7803 -1.4688 0
M  V30 2265 C 219.198 1.6299 -0.319919 0
M  V30 2266 O 220.383 1.83432 -0.525118 0
M  V30 2267 C 217.523 3.1611 -1.38451 0
M  V30 2268 C 216.636 3.42381 -2.63437 0
M  V30 2269 C 215.771 4.70232 -2.47094 0
M  V30 2270 C 214.81 4.89564 -3.67415 0
M  V30 2271 N 213.947 6.08661 -3.49966 0
M  V30 2272 H 218.787 1.7387 -2.42019 0
M  V30 2273 H 216.324 0.84868 -1.20149 0
M  V30 2274 H 218.282 3.95914 -1.31561 0
M  V30 2275 H 216.912 3.19374 -0.469033 0
M  V30 2276 H 215.964 2.56774 -2.80662 0
M  V30 2277 H 217.276 3.52557 -3.52853 0
M  V30 2278 H 216.43 5.5814 -2.37834 0
M  V30 2279 H 215.169 4.62353 -1.5518 0
M  V30 2280 H 214.174 4.00096 -3.77099 0
M  V30 2281 H 215.399 4.99282 -4.6032 0
M  V30 2282 H 213.345 6.0194 -2.60776 0
M  V30 2283 H 213.262 6.19733 -4.32975 0
M  V30 2284 H 214.53 6.99226 -3.44532 0
M  V30 2285 N 218.759 1.29093 0.90403 0
M  V30 2286 C 220.17 1.15186 1.46932 0
M  V30 2287 C 220.521 -0.254587 1.94541 0
M  V30 2288 O 219.646 -1.14972 1.83332 0
M  V30 2289 C 220.241 2.08492 2.67051 0
M  V30 2290 C 218.8 1.98621 3.19729 0
M  V30 2291 C 217.947 1.9967 1.92425 0
M  V30 2292 H 220.898 1.41641 0.715789 0
M  V30 2293 H 220.919 1.65461 3.42641 0
M  V30 2294 H 220.431 3.10847 2.3237 0
M  V30 2295 H 218.532 0.993389 3.59114 0
M  V30 2296 H 218.645 2.86068 3.8432 0
M  V30 2297 H 217.009 1.44208 2.09943 0
M  V30 2298 H 217.792 3.03721 1.60026 0
M  V30 2299 N 220.237 -1.11381 1.11499 0
M  V30 2300 C 221.185 -2.19522 0.768956 0
M  V30 2301 C 222.179 -1.67693 -0.239857 0
M  V30 2302 O 223.385 -1.79727 -0.0990755 0
M  V30 2303 H 219.76 -0.715711 0.230786 0
M  V30 2304 H 221.731 -2.45954 1.68964 0
M  V30 2305 C 220.48 -3.46945 0.229073 0
M  V30 2306 H 219.803 -3.8718 0.996596 0
M  V30 2307 H 221.243 -4.23993 0.0251441 0
M  V30 2308 C 219.702 -3.2042 -1.04079 0
M  V30 2309 O 220.232 -3.41178 -2.12038 0
M  V30 2310 N 218.438 -2.74151 -0.963823 0
M  V30 2311 H 217.985 -2.57459 -0.0851722 0
M  V30 2312 H 217.943 -2.56781 -1.81414 0
M  V30 2313 N 221.715 -0.905404 -1.28997 0
M  V30 2314 C 222.963 -0.533192 -1.9494 0
M  V30 2315 C 223.284 0.924618 -1.71685 0
M  V30 2316 O 222.554 1.65268 -1.05183 0
M  V30 2317 H 221.134 -0.194194 -0.721317 0
M  V30 2318 H 223.796 -1.15294 -1.57141 0
M  V30 2319 H 222.892 -0.72059 -3.03667 0
M  V30 2320 N 223.193 1.4272 -0.668489 0
M  V30 2321 C 224.423 2.05668 -0.196063 0
M  V30 2322 C 224.831 1.5028 1.14946 0
M  V30 2323 O 224.174 0.6348 1.72383 0
M  V30 2324 C 224.236 3.59469 -0.0468879 0
M  V30 2325 C 223.9 4.37518 -1.32012 0
M  V30 2326 C 224.897 4.68584 -2.25222 0
M  V30 2327 C 222.582 4.77266 -1.56596 0
M  V30 2328 C 224.576 5.38326 -3.41297 0
M  V30 2329 C 222.263 5.4675 -2.72962 0
M  V30 2330 C 223.261 5.77204 -3.65137 0
M  V30 2331 O 222.949 6.45264 -4.79468 0
M  V30 2332 H 222.681 0.669382 -0.0943599 0
M  V30 2333 H 225.235 1.83954 -0.913788 0
M  V30 2334 H 223.465 3.79817 0.726357 0
M  V30 2335 H 225.154 4.04071 0.384852 0
M  V30 2336 H 225.92 4.38382 -2.07477 0
M  V30 2337 H 221.799 4.52959 -0.857249 0
M  V30 2338 H 225.343 5.62014 -4.13263 0
M  V30 2339 H 221.24 5.76369 -2.90635 0
M  V30 2340 H 222.008 6.63753 -4.78931 0
M  V30 2341 N 224.671 0.411399 1.52136 0
M  V30 2342 C 225.948 -0.222308 1.94333 0
M  V30 2343 C 226.328 -1.6242 1.34844 0
M  V30 2344 O 225.676 -2.22384 0.525145 0
M  V30 2345 C 225.886 -0.226345 3.48265 0
M  V30 2346 C 227.234 -0.444592 4.22266 0
M  V30 2347 O 228.258 -0.305602 3.54887 0
M  V30 2348 O 227.117 -0.718749 5.41753 0
M  V30 2349 H 224.211 -0.143907 0.814383 0
M  V30 2350 H 226.757 0.467506 1.63133 0
M  V30 2351 H 225.529 0.75475 3.83952 0
M  V30 2352 H 225.152 -0.960163 3.85832 0
M  V30 2353 N 226.149 -1.5696 0.141893 0
M  V30 2354 C 227.059 -2.20066 -0.812905 0
M  V30 2355 C 228.075 -1.18344 -1.27557 0
M  V30 2356 O 229.251 -1.50902 -1.33381 0
M  V30 2357 C 226.316 -2.80583 -2.03652 0
M  V30 2358 C 225.377 -3.97414 -1.62359 0
M  V30 2359 C 224.61 -4.55036 -2.78887 0
M  V30 2360 O 224.833 -4.11538 -3.94959 0
M  V30 2361 O 223.767 -5.45376 -2.54653 0
M  V30 2362 H 227.593 -3.02157 -0.305746 0
M  V30 2363 H 225.178 -1.49159 -0.0848799 0
M  V30 2364 H 227.06 -3.19067 -2.75272 0
M  V30 2365 H 225.735 -2.01508 -2.5333 0
M  V30 2366 H 224.642 -3.63656 -0.877775 0
M  V30 2367 H 225.975 -4.77994 -1.17401 0
M  V30 2368 N 227.627 0.131896 -1.57047 0
M  V30 2369 C 228.852 0.860418 -1.8871 0
M  V30 2370 C 229.277 1.73251 -0.73251 0
M  V30 2371 O 228.635 1.785 0.317429 0
M  V30 2372 C 228.683 1.68047 -3.19049 0
M  V30 2373 O 227.787 2.7862 -3.04047 0
M  V30 2374 H 227.128 0.238743 -0.619595 0
M  V30 2375 H 229.658 0.118169 -2.04258 0
M  V30 2376 H 229.668 2.07238 -3.51449 0
M  V30 2377 H 228.343 1.04018 -4.02682 0
M  V30 2378 H 226.92 2.42726 -2.83088 0
M  V30 2379 N 229.106 1.52395 0.401703 0
M  V30 2380 C 230.334 1.70676 1.16949 0
M  V30 2381 C 230.749 0.419503 1.8408 0
M  V30 2382 O 230.106 -0.605061 1.72178 0
M  V30 2383 C 230.157 2.84753 2.22706 0
M  V30 2384 O 229.878 4.08495 1.58314 0
M  V30 2385 C 231.379 3.14608 3.12309 0
M  V30 2386 H 228.599 0.571787 0.351142 0
M  V30 2387 H 231.143 1.98987 0.471652 0
M  V30 2388 H 229.298 2.58941 2.88147 0
M  V30 2389 H 229.712 4.72117 2.28485 0
M  V30 2390 H 231.186 3.97923 3.82572 0
M  V30 2391 H 231.663 2.28464 3.75101 0
M  V30 2392 H 232.269 3.42212 2.52529 0
M  V30 2393 N 230.584 -0.659388 1.43143 0
M  V30 2394 C 231.516 -1.7849 1.43784 0
M  V30 2395 C 232.529 -1.5932 0.334787 0
M  V30 2396 O 233.718 -1.68155 0.598842 0
M  V30 2397 C 230.818 -3.15828 1.22906 0
M  V30 2398 C 229.991 -3.61711 2.45934 0
M  V30 2399 C 229.05 -4.77831 2.20371 0
M  V30 2400 O 228.076 -4.87586 2.93681 0
M  V30 2401 N 229.278 -5.67611 1.21647 0
M  V30 2402 H 232.043 -1.7842 2.40803 0
M  V30 2403 H 229.604 -0.84302 1.3822 0
M  V30 2404 H 231.596 -3.91189 1.03697 0
M  V30 2405 H 230.166 -3.10707 0.343542 0
M  V30 2406 H 229.386 -2.76861 2.80609 0
M  V30 2407 H 230.674 -3.89112 3.27825 0
M  V30 2408 H 230.072 -5.62397 0.610449 0
M  V30 2409 H 228.629 -6.42719 1.08423 0
M  V30 2410 N 232.062 -1.29571 -0.897171 0
M  V30 2411 C 232.992 -1.17473 -2.01798 0
M  V30 2412 C 233.973 -0.068323 -1.69963 0
M  V30 2413 O 235.158 -0.248239 -1.92607 0
M  V30 2414 C 232.288 -0.853099 -3.36659 0
M  V30 2415 C 231.242 -1.9161 -3.82713 0
M  V30 2416 C 230.568 -1.44773 -5.14728 0
M  V30 2417 C 231.868 -3.32535 -4.02763 0
M  V30 2418 H 233.562 -2.11237 -2.12177 0
M  V30 2419 H 231.108 -1.01699 -1.01948 0
M  V30 2420 H 233.061 -0.755165 -4.14578 0
M  V30 2421 H 231.785 0.120236 -3.26379 0
M  V30 2422 H 230.444 -2.00346 -3.07013 0
M  V30 2423 H 230.092 -0.462995 -5.00865 0
M  V30 2424 H 229.792 -2.15865 -5.46513 0
M  V30 2425 H 231.316 -1.36334 -5.95185 0
M  V30 2426 H 232.73 -3.26626 -4.71156 0
M  V30 2427 H 231.127 -4.01607 -4.45905 0
M  V30 2428 H 232.197 -3.75326 -3.07016 0
M  V30 2429 N 233.54 1.10788 -1.12088 0
M  V30 2430 C 234.817 1.79136 -0.785476 0
M  V30 2431 C 235.197 1.98246 0.725377 0
M  V30 2432 O 234.545 1.57258 1.65778 0
M  V30 2433 C 234.755 3.12375 -1.55636 0
M  V30 2434 C 236.103 3.8731 -1.74001 0
M  V30 2435 O 237.127 3.22085 -1.52117 0
M  V30 2436 O 235.986 5.04369 -2.10415 0
M  V30 2437 H 233.08 0.776226 -0.285311 0
M  V30 2438 H 235.626 1.1747 -1.2247 0
M  V30 2439 H 234.398 2.93863 -2.5838 0
M  V30 2440 H 234.021 3.81758 -1.11114 0
M  V30 2441 N 235.018 0.912232 1.28515 0
M  V30 2442 C 236.265 0.544599 1.95039 0
M  V30 2443 C 236.593 -0.911435 1.71823 0
M  V30 2444 O 235.848 -1.66317 1.03137 0
M  V30 2445 C 236.147 0.798392 3.48368 0
M  V30 2446 C 235.813 2.23374 3.91682 0
M  V30 2447 C 234.475 2.62617 4.03219 0
M  V30 2448 C 236.827 3.16786 4.13879 0
M  V30 2449 C 234.155 3.94429 4.3433 0
M  V30 2450 C 236.507 4.48161 4.46469 0
M  V30 2451 C 235.171 4.8726 4.56217 0
M  V30 2452 H 234.441 0.199283 0.7137 0
M  V30 2453 H 237.088 1.15327 1.52879 0
M  V30 2454 H 235.393 0.106908 3.91654 0
M  V30 2455 H 237.09 0.493141 3.97956 0
M  V30 2456 H 233.68 1.91922 3.83228 0
M  V30 2457 H 237.864 2.87677 4.0442 0
M  V30 2458 H 233.12 4.24426 4.40082 0
M  V30 2459 H 237.294 5.20559 4.62592 0
M  V30 2460 H 234.921 5.89431 4.80078 0
M  V30 2461 N 236.496 -1.42363 0.676048 0
M  V30 2462 C 237.446 -2.27987 -0.0242903 0
M  V30 2463 C 238.43 -1.41153 -0.772319 0
M  V30 2464 O 239.622 -1.64592 -0.651025 0
M  V30 2465 C 236.751 -3.29195 -0.973953 0
M  V30 2466 C 235.837 -4.23512 -0.223202 0
M  V30 2467 N 236.228 -4.99865 0.772589 0
M  V30 2468 C 234.526 -4.43606 -0.461469 0
M  V30 2469 C 235.227 -5.68757 1.22027 0
M  V30 2470 N 234.203 -5.40811 0.549975 0
M  V30 2471 H 238.005 -2.84445 0.73949 0
M  V30 2472 H 235.519 -1.54341 0.50522 0
M  V30 2473 H 237.516 -3.89339 -1.49067 0
M  V30 2474 H 236.176 -2.74298 -1.73755 0
M  V30 2475 H 237.187 -5.04921 1.15217 0
M  V30 2476 H 233.864 -3.99749 -1.20446 0
M  V30 2477 H 235.254 -6.40007 2.0455 0
M  V30 2478 N 237.974 -0.419461 -1.51915 0
M  V30 2479 C 239.199 0.154572 -2.06823 0
M  V30 2480 C 239.624 1.3722 -1.28656 0
M  V30 2481 O 238.982 1.78461 -0.319583 0
M  V30 2482 C 239.03 0.473172 -3.57482 0
M  V30 2483 O 238.134 1.56255 -3.81652 0
M  V30 2484 H 237.475 0.0096924 -0.663929 0
M  V30 2485 H 240.005 -0.595642 -1.95738 0
M  V30 2486 H 240.015 0.728825 -4.01438 0
M  V30 2487 H 238.69 -0.416873 -4.13805 0
M  V30 2488 H 237.267 1.29825 -3.49571 0
M  V30 2489 N 239.452 1.56882 -0.150215 0
M  V30 2490 C 240.863 1.82995 0.370076 0
M  V30 2491 C 241.214 1.06907 1.64515 0
M  V30 2492 O 240.339 0.315369 2.1409 0
M  V30 2493 C 240.934 3.31942 0.678208 0
M  V30 2494 C 239.493 3.58625 1.14301 0
M  V30 2495 C 238.64 2.76792 0.167778 0
M  V30 2496 H 241.591 1.54209 -0.374858 0
M  V30 2497 H 241.612 3.48272 1.53254 0
M  V30 2498 H 241.124 3.87294 -0.249991 0
M  V30 2499 H 239.225 3.08664 2.08704 0
M  V30 2500 H 239.338 4.67073 1.06676 0
M  V30 2501 H 237.702 2.45972 0.661037 0
M  V30 2502 H 238.485 3.34916 -0.754069 0
M  V30 2503 N 240.93 -0.123565 1.57115 0
M  V30 2504 C 242.16 -0.845233 1.88519 0
M  V30 2505 C 242.568 -1.74168 0.739064 0
M  V30 2506 O 241.911 -1.81244 -0.299355 0
M  V30 2507 C 241.973 -1.73452 3.14888 0
M  V30 2508 C 241.637 -1.01285 4.45635 0
M  V30 2509 C 242.634 -0.355774 5.18681 0
M  V30 2510 C 240.319 -0.99538 4.92339 0
M  V30 2511 C 242.313 0.309114 6.3665 0
M  V30 2512 C 240 -0.32669 6.10226 0
M  V30 2513 C 240.998 0.324406 6.82229 0
M  V30 2514 O 240.686 0.982437 7.97874 0
M  V30 2515 H 240.418 -0.248534 0.628655 0
M  V30 2516 H 242.972 -0.113907 2.05084 0
M  V30 2517 H 241.202 -2.50737 2.94394 0
M  V30 2518 H 242.891 -2.33021 3.32349 0
M  V30 2519 H 243.657 -0.360918 4.83655 0
M  V30 2520 H 239.536 -1.49159 4.36202 0
M  V30 2521 H 243.08 0.8179 6.92789 0
M  V30 2522 H 238.977 -0.319294 6.4471 0
M  V30 2523 H 239.745 0.886454 8.13686 0
M  V30 2524 N 242.408 -1.52605 -0.393616 0
M  V30 2525 C 243.656 -1.67093 -1.13685 0
M  V30 2526 C 243.977 -0.411011 -1.90619 0
M  V30 2527 O 243.247 0.574491 -1.87287 0
M  V30 2528 H 241.827 -0.615923 -0.422668 0
M  V30 2529 H 244.489 -1.89704 -0.447039 0
M  V30 2530 H 243.585 -2.51922 -1.84232 0
M  V30 2531 N 243.887 0.651787 -1.4349 0
M  V30 2532 C 245.127 1.42345 -1.46688 0
M  V30 2533 C 245.491 1.91793 -0.0891023 0
M  V30 2534 O 246.692 2.688 0.00423594 0
M  V30 2535 C 244.963 2.57221 -2.48137 0
M  V30 2536 S 246.522 3.45725 -2.70221 0
M  V30 2537 H 243.34 0.485878 -0.51908 0
M  V30 2538 H 245.942 0.756578 -1.80267 0
M  V30 2539 H 244.646 2.1917 -3.46976 0
M  V30 2540 H 244.177 3.28757 -2.16061 0
M  V30 2541 H 246.192 4.53996 -2.00255 0
M  V30 2542 N 245.365 1.30045 0.890287 0
M  V30 2543 C 246.59 1.21598 1.68014 0
M  V30 2544 C 247.015 -0.218678 1.86825 0
M  V30 2545 O 246.373 -1.15756 1.39536 0
M  V30 2546 C 246.421 1.94434 3.03691 0
M  V30 2547 O 245.525 1.2678 3.92429 0
M  V30 2548 H 244.866 0.420856 0.513592 0
M  V30 2549 H 247.396 1.71775 1.11151 0
M  V30 2550 H 247.406 2.03251 3.5377 0
M  V30 2551 H 246.081 2.98777 2.89318 0
M  V30 2552 H 244.658 1.26282 3.50866 0
M  V30 2553 N 246.843 -1.10192 1.12674 0
M  V30 2554 C 247.79 -2.16606 0.796906 0
M  V30 2555 C 248.76 -1.64394 -0.237476 0
M  V30 2556 O 249.945 -1.90474 -0.111484 0
M  V30 2557 C 247.085 -3.44116 0.26043 0
M  V30 2558 C 246.198 -4.10268 1.35293 0
M  V30 2559 C 245.333 -5.25507 0.775621 0
M  V30 2560 C 244.372 -5.83567 1.84706 0
M  V30 2561 N 243.509 -6.90179 1.28829 0
M  V30 2562 H 248.349 -2.44163 1.70846 0
M  V30 2563 H 245.886 -1.19846 0.85295 0
M  V30 2564 H 247.844 -4.17143 -0.0686814 0
M  V30 2565 H 246.474 -3.16901 -0.614274 0
M  V30 2566 H 245.526 -3.35184 1.79877 0
M  V30 2567 H 246.838 -4.4946 2.16303 0
M  V30 2568 H 245.992 -6.05398 0.397327 0
M  V30 2569 H 244.731 -4.87656 -0.0656581 0
M  V30 2570 H 243.736 -5.02344 2.23452 0
M  V30 2571 H 244.961 -6.23482 2.69161 0
M  V30 2572 H 242.907 -6.54322 0.468881 0
M  V30 2573 H 242.824 -7.28097 2.03497 0
M  V30 2574 H 244.092 -7.73844 0.937311 0
M  V30 2575 N 248.321 -0.919034 -1.28029 0
M  V30 2576 C 249.569 -0.553838 -1.94363 0
M  V30 2577 C 249.89 0.906357 -1.72656 0
M  V30 2578 O 249.16 1.64143 -1.0693 0
M  V30 2579 H 247.74 -0.201834 -0.719216 0
M  V30 2580 H 250.402 -1.16954 -1.55909 0
M  V30 2581 H 249.498 -0.752758 -3.02886 0
M  V30 2582 N 249.799 1.42003 -0.683588 0
M  V30 2583 C 250.762 2.29191 -0.0198243 0
M  V30 2584 C 251.762 1.43773 0.72013 0
M  V30 2585 O 252.952 1.65061 0.556815 0
M  V30 2586 C 250.084 3.26435 0.982487 0
M  V30 2587 H 251.277 2.8938 -0.787345 0
M  V30 2588 H 248.83 1.49789 -0.446418 0
M  V30 2589 H 249.565 2.71203 1.77819 0
M  V30 2590 H 249.35 3.89449 0.455182 0
M  V30 2591 H 250.84 3.918 1.44508 0
M  V30 2592 N 251.277 0.427512 1.51691 0
M  V30 2593 C 252.24 -0.377132 2.26076 0
M  V30 2594 C 253.24 -0.958089 1.29141 0
M  V30 2595 O 254.43 -0.83408 1.52934 0
M  V30 2596 C 251.562 -1.53262 3.04506 0
M  V30 2597 H 252.755 0.27464 2.9864 0
M  V30 2598 H 250.308 0.180445 1.55255 0
M  V30 2599 H 251.043 -2.22072 2.36335 0
M  V30 2600 H 250.828 -1.12232 3.75694 0
M  V30 2601 H 252.318 -2.10135 3.60878 0
M  V30 2602 N 252.755 -1.56801 0.158532 0
M  V30 2603 C 254.032 -1.88131 -0.535357 0
M  V30 2604 C 254.412 -1.06638 -1.82186 0
M  V30 2605 O 253.76 -0.156533 -2.27963 0
M  V30 2606 C 253.97 -3.39949 -0.789653 0
M  V30 2607 C 255.318 -4.09416 -1.12533 0
M  V30 2608 O 256.342 -3.45194 -0.878622 0
M  V30 2609 O 255.201 -5.22855 -1.59014 0
M  V30 2610 H 252.295 -0.780143 -0.27442 0
M  V30 2611 H 254.841 -1.68564 0.19601 0
M  V30 2612 H 253.613 -3.91115 0.120353 0
M  V30 2613 H 253.236 -3.65084 -1.57479 0
M  V30 2614 N 254.233 0.115231 -1.57178 0
M  V30 2615 C 255.165 1.16694 -1.97269 0
M  V30 2616 C 256.178 1.37445 -0.872502 0
M  V30 2617 O 257.367 1.36454 -1.15077 0
M  V30 2618 C 254.467 2.52627 -2.25905 0
M  V30 2619 C 253.64 2.52427 -3.57211 0
M  V30 2620 C 252.699 3.70134 -3.74016 0
M  V30 2621 O 251.725 3.53546 -4.46087 0
M  V30 2622 N 252.927 4.88844 -3.13068 0
M  V30 2623 H 255.692 0.82588 -2.88096 0
M  V30 2624 H 253.253 0.304461 -1.59011 0
M  V30 2625 H 255.245 3.29937 -2.34359 0
M  V30 2626 H 253.815 2.789 -1.41186 0
M  V30 2627 H 253.035 1.60805 -3.5991 0
M  V30 2628 H 254.323 2.49353 -4.43509 0
M  V30 2629 H 253.721 5.05225 -2.54489 0
M  V30 2630 H 252.278 5.63817 -3.27037 0
M  V30 2631 N 255.711 1.52812 0.385517 0
M  V30 2632 C 256.941 1.71658 1.14966 0
M  V30 2633 C 257.349 0.436253 1.84102 0
M  V30 2634 O 256.692 -0.599313 1.73649 0
M  V30 2635 C 256.754 2.81309 2.23843 0
M  V30 2636 C 256.418 4.22313 1.74644 0
M  V30 2637 C 257.415 5.05352 1.22129 0
M  V30 2638 C 255.1 4.68648 1.80761 0
M  V30 2639 C 257.094 6.32807 0.763838 0
M  V30 2640 C 254.781 5.96086 1.34627 0
M  V30 2641 C 255.779 6.77996 0.825264 0
M  V30 2642 O 255.467 8.03045 0.370669 0
M  V30 2643 H 255.199 0.578022 0.350523 0
M  V30 2644 H 257.753 2.00263 0.456509 0
M  V30 2645 H 255.983 2.48133 2.96592 0
M  V30 2646 H 257.672 2.88524 2.85497 0
M  V30 2647 H 258.438 4.70736 1.16758 0
M  V30 2648 H 254.317 4.04979 2.20256 0
M  V30 2649 H 257.861 6.96689 0.356494 0
M  V30 2650 H 253.758 6.30205 1.39686 0
M  V30 2651 H 254.526 8.17021 0.491829 0
M  V30 2652 N 257.189 -0.644168 1.43834 0
M  V30 2653 C 258.122 -1.76906 1.44151 0
M  V30 2654 C 259.1 -1.59774 0.301857 0
M  V30 2655 O 260.284 -1.81834 0.496841 0
M  V30 2656 C 257.411 -3.14321 1.26174 0
M  V30 2657 C 256.457 -3.50134 2.43533 0
M  V30 2658 S 257.29 -3.49085 4.06079 0
M  V30 2659 C 258.446 -4.89142 3.90501 0
M  V30 2660 H 258.679 -1.76368 2.39336 0
M  V30 2661 H 256.212 -0.817624 1.30974 0
M  V30 2662 H 258.17 -3.93625 1.16489 0
M  V30 2663 H 256.831 -3.12412 0.325224 0
M  V30 2664 H 256.024 -4.50095 2.26783 0
M  V30 2665 H 255.626 -2.78264 2.4989 0
M  V30 2666 H 257.918 -5.78036 3.53385 0
M  V30 2667 H 258.861 -5.10945 4.90246 0
M  V30 2668 H 259.269 -4.63102 3.22795 0
M  V30 2669 N 258.668 -1.30515 -0.883378 0
M  V30 2670 C 259.598 -1.19607 -2.00541 0
M  V30 2671 C 260.579 -0.086346 -1.69881 0
M  V30 2672 O 261.764 -0.268654 -1.92333 0
M  V30 2673 C 258.894 -0.888758 -3.35736 0
M  V30 2674 C 257.848 -1.95659 -3.8066 0
M  V30 2675 C 257.174 -1.50224 -5.13164 0
M  V30 2676 C 258.474 -3.36788 -3.99213 0
M  V30 2677 H 260.168 -2.13476 -2.09925 0
M  V30 2678 H 257.714 -1.02775 -1.00863 0
M  V30 2679 H 259.667 -0.799094 -4.13754 0
M  V30 2680 H 258.391 0.0856125 -3.26488 0
M  V30 2681 H 257.05 -2.03591 -3.04871 0
M  V30 2682 H 256.698 -0.516092 -5.00345 0
M  V30 2683 H 256.398 -2.2165 -5.44192 0
M  V30 2684 H 257.922 -1.42639 -5.93706 0
M  V30 2685 H 259.336 -3.31605 -4.67665 0
M  V30 2686 H 257.733 -4.06314 -4.41621 0
M  V30 2687 H 258.803 -3.78561 -3.03017 0
M  V30 2688 N 260.146 1.09593 -1.13257 0
M  V30 2689 C 261.423 1.78293 -0.804432 0
M  V30 2690 C 261.803 1.99004 0.70431 0
M  V30 2691 O 261.151 1.59007 1.641 0
M  V30 2692 C 261.361 3.10707 -1.5894 0
M  V30 2693 C 262.709 3.85443 -1.78099 0
M  V30 2694 O 263.733 3.20454 -1.55525 0
M  V30 2695 O 262.592 5.02108 -2.15753 0
M  V30 2696 H 259.686 0.773156 -0.293528 0
M  V30 2697 H 262.232 1.16164 -1.23709 0
M  V30 2698 H 261.004 2.91106 -2.61482 0
M  V30 2699 H 260.627 3.80558 -1.15157 0
M  V30 2700 N 261.624 0.925811 1.2754 0
M  V30 2701 C 262.854 0.580666 1.98272 0
M  V30 2702 C 263.262 -0.845207 1.69272 0
M  V30 2703 O 262.605 -1.57306 0.948707 0
M  V30 2704 C 262.667 0.724418 3.52126 0
M  V30 2705 C 262.331 2.12206 4.04744 0
M  V30 2706 C 263.328 3.09604 4.17662 0
M  V30 2707 C 261.013 2.4385 4.39138 0
M  V30 2708 C 263.007 4.36755 4.64246 0
M  V30 2709 C 260.694 3.71237 4.85414 0
M  V30 2710 C 261.692 4.67503 4.97926 0
M  V30 2711 O 261.38 5.92624 5.43187 0
M  V30 2712 H 261.112 0.218987 0.639547 0
M  V30 2713 H 263.666 1.24452 1.63404 0
M  V30 2714 H 261.896 0.0034663 3.867 0
M  V30 2715 H 263.585 0.384607 4.04074 0
M  V30 2716 H 264.351 2.86478 3.91351 0
M  V30 2717 H 260.23 1.69665 4.28643 0
M  V30 2718 H 263.774 5.11898 4.73927 0
M  V30 2719 H 259.671 3.94182 5.11166 0
M  V30 2720 H 260.439 5.95585 5.61445 0
M  V30 2721 N 263.102 -1.41638 0.69111 0
M  V30 2722 C 264.065 -2.29178 0.0319786 0
M  V30 2723 C 265.065 -1.44153 -0.712496 0
M  V30 2724 O 266.255 -1.65354 -0.548053 0
M  V30 2725 C 263.387 -3.26952 -0.965161 0
M  V30 2726 H 264.58 -2.88959 0.802681 0
M  V30 2727 H 262.133 -1.4955 0.454356 0
M  V30 2728 H 262.868 -2.72142 -1.76378 0
M  V30 2729 H 262.653 -3.89685 -0.434522 0
M  V30 2730 H 264.143 -3.92561 -1.42428 0
M  V30 2731 N 264.58 -0.43555 -1.51462 0
M  V30 2732 C 265.996 -0.0877501 -1.59359 0
M  V30 2733 C 266.196 1.4027 -1.4466 0
M  V30 2734 O 265.252 2.17243 -1.28693 0
M  V30 2735 C 266.565 -0.606264 -2.94525 0
M  V30 2736 C 268.113 -0.566548 -3.0783 0
M  V30 2737 C 268.588 -1.06201 -4.45517 0
M  V30 2738 N 270.079 -1.01992 -4.51832 0
M  V30 2739 C 270.814 -1.37417 -5.5669 0
M  V30 2740 N 270.31 -1.80119 -6.68976 0
M  V30 2741 N 272.103 -1.29245 -5.47039 0
M  V30 2742 H 264.254 -1.40533 -1.59261 0
M  V30 2743 H 266.517 -0.578992 -0.750648 0
M  V30 2744 H 266.223 -1.64901 -3.10645 0
M  V30 2745 H 266.097 -0.0302097 -3.77188 0
M  V30 2746 H 268.484 0.467208 -2.91378 0
M  V30 2747 H 268.565 -1.17898 -2.2701 0
M  V30 2748 H 268.209 -2.09422 -4.62715 0
M  V30 2749 H 268.139 -0.426127 -5.24873 0
M  V30 2750 H 270.63 -0.706308 -3.71241 0
M  V30 2751 H 270.943 -2.05392 -7.45006 0
M  V30 2752 H 269.288 -1.84044 -6.70189 0
M  V30 2753 H 272.479 -0.957522 -4.58202 0
M  V30 2754 H 272.652 -1.57182 -6.28648 0
M  V30 2755 N 266.058 1.56714 -0.166846 0
M  V30 2756 C 267.307 1.95922 0.479318 0
M  V30 2757 C 267.62 1.05529 1.6469 0
M  V30 2758 O 268.826 1.34399 2.35901 0
M  V30 2759 C 267.282 3.48359 0.90412 0
M  V30 2760 C 266.89 4.47369 -0.237621 0
M  V30 2761 C 268.634 3.96394 1.51896 0
M  V30 2762 C 266.541 5.91039 0.206561 0
M  V30 2763 H 265.471 0.731495 0.18284 0
M  V30 2764 H 268.122 1.81728 -0.254363 0
M  V30 2765 H 266.504 3.57955 1.69365 0
M  V30 2766 H 267.678 4.49485 -1.01489 0
M  V30 2767 H 265.993 4.09366 -0.762128 0
M  V30 2768 H 268.59 5.01186 1.86325 0
M  V30 2769 H 268.933 3.39075 2.41524 0
M  V30 2770 H 269.466 3.89796 0.79395 0
M  V30 2771 H 266.205 6.52221 -0.654834 0
M  V30 2772 H 265.725 5.9224 0.949282 0
M  V30 2773 H 267.404 6.43707 0.651939 0
M  V30 2774 N 267.536 -0.106894 1.57237 0
M  V30 2775 C 268.783 -0.812526 1.85484 0
M  V30 2776 C 269.111 -1.79304 0.753687 0
M  V30 2777 O 268.366 -1.94047 -0.253853 0
M  V30 2778 C 268.665 -1.58628 3.20268 0
M  V30 2779 C 268.331 -0.748967 4.44636 0
M  V30 2780 C 266.993 -0.518104 4.78403 0
M  V30 2781 C 269.345 -0.166122 5.20935 0
M  V30 2782 C 266.673 0.305659 5.85903 0
M  V30 2783 C 269.025 0.644899 6.29304 0
M  V30 2784 C 267.689 0.885965 6.61594 0
M  V30 2785 H 266.959 -0.297324 0.678734 0
M  V30 2786 H 269.606 -0.0744332 1.91355 0
M  V30 2787 H 267.911 -2.39562 3.10028 0
M  V30 2788 H 269.608 -2.13643 3.39349 0
M  V30 2789 H 266.198 -0.939006 4.18187 0
M  V30 2790 H 270.382 -0.33167 4.95191 0
M  V30 2791 H 265.638 0.501528 6.0934 0
M  V30 2792 H 269.812 1.10345 6.87602 0
M  V30 2793 H 267.439 1.52609 7.44725 0
M  V30 2794 N 269.014 -1.53014 -0.377408 0
M  V30 2795 C 270.262 -1.6829 -1.11906 0
M  V30 2796 C 270.583 -0.431206 -1.90173 0
M  V30 2797 O 269.853 0.554595 -1.87886 0
M  V30 2798 H 268.433 -0.620371 -0.416112 0
M  V30 2799 H 271.095 -1.90167 -0.426893 0
M  V30 2800 H 270.191 -2.53862 -1.8155 0
M  V30 2801 N 270.492 0.636531 -1.44174 0
M  V30 2802 C 271.422 1.76003 -1.53444 0
M  V30 2803 C 272.403 1.65619 -0.387841 0
M  V30 2804 O 273.588 1.84461 -0.607257 0
M  V30 2805 C 270.718 3.14511 -1.4731 0
M  V30 2806 C 269.672 3.39677 -2.60391 0
M  V30 2807 C 268.998 4.78159 -2.39308 0
M  V30 2808 C 270.298 3.32772 -4.02567 0
M  V30 2809 H 271.992 1.68501 -2.47483 0
M  V30 2810 H 269.538 0.809237 -1.19111 0
M  V30 2811 H 271.491 3.92878 -1.52397 0
M  V30 2812 H 270.215 3.22783 -0.49785 0
M  V30 2813 H 268.874 2.63688 -2.54684 0
M  V30 2814 H 268.522 4.83128 -1.39988 0
M  V30 2815 H 268.222 4.95956 -3.15122 0
M  V30 2816 H 269.746 5.58762 -2.46205 0
M  V30 2817 H 271.16 4.01051 -4.09672 0
M  V30 2818 H 269.557 3.62104 -4.7854 0
M  V30 2819 H 270.627 2.30669 -4.2652 0
M  V30 2820 N 271.97 1.30982 0.876444 0
M  V30 2821 C 272.918 1.18006 2.00443 0
M  V30 2822 C 273.912 0.0898871 1.69161 0
M  V30 2823 O 275.118 0.251333 1.78237 0
M  V30 2824 H 271.493 0.365196 0.65737 0
M  V30 2825 H 273.464 2.13453 2.0852 0
M  V30 2826 C 272.213 0.897521 3.35916 0
M  V30 2827 H 271.536 1.7285 3.60504 0
M  V30 2828 H 272.976 0.846874 4.15456 0
M  V30 2829 C 271.435 -0.399674 3.34521 0
M  V30 2830 O 271.965 -1.41852 3.7582 0
M  V30 2831 N 270.171 -0.413893 2.87637 0
M  V30 2832 H 269.718 0.41571 2.54224 0
M  V30 2833 H 269.676 -1.28175 2.87086 0
M  V30 2834 N 273.449 -1.08991 1.13837 0
M  V30 2835 C 274.677 -1.85011 0.926202 0
M  V30 2836 C 275.092 -1.8135 -0.525127 0
M  V30 2837 O 274.449 -1.21287 -1.36366 0
M  V30 2838 C 274.5 -3.32802 1.41155 0
M  V30 2839 O 274.221 -3.36444 2.80601 0
M  V30 2840 C 275.722 -4.25649 1.23847 0
M  V30 2841 H 272.942 -0.584249 0.32999 0
M  V30 2842 H 275.486 -1.37688 1.51202 0
M  V30 2843 H 273.641 -3.77536 0.868631 0
M  V30 2844 H 274.055 -4.28657 3.02248 0
M  V30 2845 H 275.529 -5.27485 1.62675 0
M  V30 2846 H 276.006 -4.38828 0.18065 0
M  V30 2847 H 276.612 -3.86735 1.76964 0
M  V30 2848 N 274.927 -0.932562 -1.27047 0
M  V30 2849 C 276.173 -0.576412 -1.94436 0
M  V30 2850 C 276.506 0.880891 -1.73072 0
M  V30 2851 O 275.781 1.62905 -1.06264 0
M  V30 2852 C 276.064 -0.909031 -3.48437 0
M  V30 2853 C 275.917 -2.42044 -3.79123 0
M  V30 2854 C 277.236 -0.418341 -4.38107 0
M  V30 2855 H 274.355 -0.210888 -0.706184 0
M  V30 2856 H 276.997 -1.16522 -1.50075 0
M  V30 2857 H 275.147 -0.407947 -3.86352 0
M  V30 2858 H 276.819 -2.99359 -3.50973 0
M  V30 2859 H 275.062 -2.86758 -3.25503 0
M  V30 2860 H 275.733 -2.6037 -4.86736 0
M  V30 2861 H 278.209 -0.847856 -4.0737 0
M  V30 2862 H 277.085 -0.679981 -5.44672 0
M  V30 2863 H 277.346 0.681642 -4.36814 0
M  V30 2864 N 276.405 1.4127 -0.698611 0
M  V30 2865 C 277.651 2.01478 -0.231207 0
M  V30 2866 C 277.984 1.55215 1.16713 0
M  V30 2867 O 277.259 0.764672 1.78838 0
M  V30 2868 C 277.542 3.58912 -0.292281 0
M  V30 2869 C 277.395 4.15293 -1.72778 0
M  V30 2870 C 278.714 4.38736 0.346194 0
M  V30 2871 H 275.833 0.732025 -0.0854878 0
M  V30 2872 H 278.475 1.67977 -0.887906 0
M  V30 2873 H 276.625 3.87582 0.26686 0
M  V30 2874 H 278.297 3.97486 -2.341 0
M  V30 2875 H 276.54 3.7022 -2.26096 0
M  V30 2876 H 277.211 5.24452 -1.72202 0
M  V30 2877 H 279.687 4.15897 -0.130035 0
M  V30 2878 H 278.563 5.48221 0.272932 0
M  V30 2879 H 278.824 4.18425 1.42734 0
M  V30 2880 N 277.883 0.443576 1.51229 0
M  V30 2881 C 279.13 -0.120796 2.02139 0
M  V30 2882 C 279.458 -1.42166 1.32736 0
M  V30 2883 O 278.713 -1.90849 0.43301 0
M  V30 2884 C 279.012 -0.380579 3.55368 0
M  V30 2885 C 278.678 0.83523 4.43097 0
M  V30 2886 C 277.34 1.16864 4.66794 0
M  V30 2887 C 279.692 1.64601 4.94526 0
M  V30 2888 C 277.02 2.31339 5.39165 0
M  V30 2889 C 279.372 2.78181 5.68153 0
M  V30 2890 C 278.036 3.11969 5.90112 0
M  V30 2891 H 277.306 -0.0442023 0.73968 0
M  V30 2892 H 279.953 0.592046 1.82118 0
M  V30 2893 H 278.258 -1.17538 3.73754 0
M  V30 2894 H 279.955 -0.830777 3.923 0
M  V30 2895 H 276.545 0.565437 4.24854 0
M  V30 2896 H 280.729 1.40163 4.76097 0
M  V30 2897 H 275.985 2.57823 5.5438 0
M  V30 2898 H 280.159 3.41371 6.06992 0
M  V30 2899 H 277.786 4.00784 6.45969 0
M  V30 2900 N 279.361 -1.56624 0.175154 0
M  V30 2901 C 280.777 -1.58571 -0.180966 0
M  V30 2902 C 280.977 -1.19065 -1.6256 0
M  V30 2903 O 280.033 -0.904044 -2.35761 0
M  V30 2904 C 281.346 -3.00522 0.103326 0
M  V30 2905 C 282.894 -3.12972 0.0418426 0
M  V30 2906 C 283.369 -4.57022 0.299175 0
M  V30 2907 N 284.86 -4.62541 0.247086 0
M  V30 2908 C 285.595 -5.71857 0.420318 0
M  V30 2909 N 285.091 -6.89717 0.652816 0
M  V30 2910 N 286.884 -5.60972 0.355957 0
M  V30 2911 H 279.035 -1.80589 1.11809 0
M  V30 2912 H 281.298 -0.837178 0.444788 0
M  V30 2913 H 281.004 -3.33916 1.10422 0
M  V30 2914 H 280.878 -3.72344 -0.603299 0
M  V30 2915 H 283.265 -2.79403 -0.949636 0
M  V30 2916 H 283.346 -2.43578 0.781238 0
M  V30 2917 H 282.99 -4.913 1.28788 0
M  V30 2918 H 282.92 -5.24579 -0.460876 0
M  V30 2919 H 285.411 -3.77829 0.0731895 0
M  V30 2920 H 285.724 -7.68911 0.774347 0
M  V30 2921 H 284.069 -6.91572 0.689476 0
M  V30 2922 H 287.26 -4.67773 0.174882 0
M  V30 2923 H 287.433 -6.46111 0.494388 0
M  V30 2924 N 280.839 0.0985539 -1.57292 0
M  V30 2925 C 281.789 1.1261 -1.9825 0
M  V30 2926 C 282.773 1.35961 -0.860426 0
M  V30 2927 O 283.965 1.36711 -1.12424 0
M  V30 2928 C 281.094 2.44727 -2.40757 0
M  V30 2929 C 280.18 2.24764 -3.59642 0
M  V30 2930 N 280.571 1.74661 -4.74687 0
M  V30 2931 C 278.869 2.55344 -3.65672 0
M  V30 2932 C 279.57 1.68887 -5.56644 0
M  V30 2933 N 278.546 2.13976 -4.99715 0
M  V30 2934 H 282.348 0.731604 -2.84648 0
M  V30 2935 H 279.862 0.306029 -1.59491 0
M  V30 2936 H 281.859 3.19072 -2.68326 0
M  V30 2937 H 280.519 2.84917 -1.55733 0
M  V30 2938 H 281.53 1.43908 -4.97505 0
M  V30 2939 H 278.207 2.99081 -2.91302 0
M  V30 2940 H 279.597 1.3123 -6.5896 0
M  V30 2941 N 282.317 1.53212 0.369288 0
M  V30 2942 C 283.542 1.73423 1.1375 0
M  V30 2943 C 283.967 0.460404 1.82378 0
M  V30 2944 O 283.325 -0.585298 1.71592 0
M  V30 2945 C 283.373 2.89769 2.1463 0
M  V30 2946 O 282.477 2.58119 3.21634 0
M  V30 2947 H 281.818 0.576061 0.330227 0
M  V30 2948 H 284.348 2.00083 0.427547 0
M  V30 2949 H 284.358 3.15829 2.58294 0
M  V30 2950 H 283.033 3.8217 1.64071 0
M  V30 2951 H 281.61 2.42864 2.82969 0
M  V30 2952 N 283.795 -0.628877 1.44509 0
M  V30 2953 C 285.02 -1.42048 1.5112 0
M  V30 2954 C 285.445 -1.87594 0.137818 0
M  V30 2955 O 284.803 -1.58873 -0.873437 0
M  V30 2956 C 284.851 -2.61541 2.48251 0
M  V30 2957 O 283.955 -3.61453 1.98559 0
M  V30 2958 H 283.296 -0.424942 0.510216 0
M  V30 2959 H 285.826 -0.767374 1.89664 0
M  V30 2960 H 285.836 -3.09057 2.66361 0
M  V30 2961 H 284.511 -2.27736 3.48007 0
M  V30 2962 H 283.088 -3.20731 1.90227 0
M  V30 2963 N 285.273 -1.31445 -0.869486 0
M  V30 2964 C 286.206 -1.13465 -1.97992 0
M  V30 2965 C 287.184 -0.0380291 -1.62556 0
M  V30 2966 O 288.368 -0.194544 -1.87493 0
M  V30 2967 C 285.495 -0.733822 -3.30655 0
M  V30 2968 C 284.541 -1.83356 -3.85075 0
M  V30 2969 S 285.374 -3.43909 -4.10472 0
M  V30 2970 C 286.53 -3.05763 -5.46132 0
M  V30 2971 H 286.763 -2.07471 -2.1294 0
M  V30 2972 H 284.296 -1.15936 -1.01972 0
M  V30 2973 H 286.254 -0.509306 -4.07328 0
M  V30 2974 H 284.915 0.187123 -3.13542 0
M  V30 2975 H 284.108 -1.50574 -4.80982 0
M  V30 2976 H 283.71 -2.01315 -3.15195 0
M  V30 2977 H 286.002 -2.54686 -6.27807 0
M  V30 2978 H 286.945 -4.00635 -5.83864 0
M  V30 2979 H 287.353 -2.43192 -5.09429 0
M  V30 2980 N 286.751 1.08385 -1.14413 0
M  V30 2981 C 287.981 1.8425 -0.934644 0
M  V30 2982 C 288.389 1.81907 0.520234 0
M  V30 2983 O 287.732 1.22126 1.37226 0
M  V30 2984 C 287.794 3.32853 -1.35828 0
M  V30 2985 C 287.458 3.5893 -2.82875 0
M  V30 2986 C 288.455 3.53756 -3.80989 0
M  V30 2987 C 286.14 3.86934 -3.20293 0
M  V30 2988 C 288.134 3.76216 -5.14529 0
M  V30 2989 C 285.821 4.09047 -4.54008 0
M  V30 2990 C 286.819 4.03682 -5.50936 0
M  V30 2991 O 286.507 4.25214 -6.82238 0
M  V30 2992 H 286.239 0.588502 -0.332628 0
M  V30 2993 H 288.793 1.37792 -1.52324 0
M  V30 2994 H 287.023 3.8007 -0.713019 0
M  V30 2995 H 288.712 3.90154 -1.11957 0
M  V30 2996 H 289.478 3.32135 -3.53428 0
M  V30 2997 H 285.357 3.9023 -2.45442 0
M  V30 2998 H 288.901 3.71943 -5.90173 0
M  V30 2999 H 284.798 4.30151 -4.8129 0
M  V30 3000 H 285.566 4.42619 -6.88499 0
M  V30 3001 N 288.23 0.939286 1.26551 0
M  V30 3002 C 289.478 0.58469 1.93457 0
M  V30 3003 C 289.799 -0.878774 1.74076 0
M  V30 3004 O 289.069 -1.62421 1.09528 0
M  V30 3005 H 287.649 0.21325 0.715914 0
M  V30 3006 H 290.311 1.1942 1.54029 0
M  V30 3007 H 289.407 0.800849 3.0165 0
M  V30 3008 N 289.708 -1.40897 0.706093 0
M  V30 3009 C 290.956 -2.00657 0.241054 0
M  V30 3010 C 291.277 -1.56241 -1.16678 0
M  V30 3011 O 290.547 -0.79765 -1.78926 0
M  V30 3012 H 289.127 -0.742018 0.0861308 0
M  V30 3013 H 291.789 -1.72372 0.909604 0
M  V30 3014 H 290.885 -3.10958 0.266705 0
M  V30 3015 N 291.186 -0.45159 -1.50991 0
M  V30 3016 C 292.602 -0.104647 -1.59257 0
M  V30 3017 C 292.802 1.38728 -1.4614 0
M  V30 3018 O 291.858 2.15866 -1.30989 0
M  V30 3019 C 293.171 -0.637468 -2.93865 0
M  V30 3020 C 294.719 -0.599166 -3.07212 0
M  V30 3021 C 295.194 -1.1092 -4.44366 0
M  V30 3022 N 296.685 -1.06778 -4.50725 0
M  V30 3023 C 297.42 -1.43314 -5.55201 0
M  V30 3024 N 296.916 -1.87204 -6.67028 0
M  V30 3025 N 298.709 -1.3504 -5.45638 0
M  V30 3026 H 290.86 -1.42214 -1.57762 0
M  V30 3027 H 293.123 -0.586921 -0.744465 0
M  V30 3028 H 292.829 -1.68187 -3.08879 0
M  V30 3029 H 292.703 -0.0702139 -3.77135 0
M  V30 3030 H 295.09 0.436277 -2.91857 0
M  V30 3031 H 295.171 -1.20299 -2.25747 0
M  V30 3032 H 294.815 -2.14318 -4.60467 0
M  V30 3033 H 294.745 -0.481773 -5.24392 0
M  V30 3034 H 297.236 -0.745643 -3.70471 0
M  V30 3035 H 297.549 -2.13282 -7.42786 0
M  V30 3036 H 295.894 -1.91142 -6.68199 0
M  V30 3037 H 299.085 -1.00607 -4.57161 0
M  V30 3038 H 299.258 -1.63841 -6.26945 0
M  V30 3039 N 292.664 1.56529 -0.183458 0
M  V30 3040 C 293.596 2.15747 0.773697 0
M  V30 3041 C 294.609 1.1162 1.1851 0
M  V30 3042 O 295.798 1.3876 1.12285 0
M  V30 3043 C 292.898 2.6952 2.05456 0
M  V30 3044 C 292.071 3.98429 1.8048 0
M  V30 3045 C 291.13 4.37145 2.92901 0
M  V30 3046 O 290.156 5.04791 2.6301 0
M  V30 3047 N 291.358 3.99695 4.2098 0
M  V30 3048 H 294.123 2.98505 0.26736 0
M  V30 3049 H 291.684 1.619 -0.0010878 0
M  V30 3050 H 293.676 2.92412 2.79781 0
M  V30 3051 H 292.246 1.91282 2.47245 0
M  V30 3052 H 291.466 3.8379 0.899947 0
M  V30 3053 H 292.754 4.82597 1.61175 0
M  V30 3054 H 292.152 3.4526 4.48121 0
M  V30 3055 H 290.709 4.27562 4.9197 0
M  V30 3056 N 294.142 -0.090211 1.57342 0
M  V30 3057 C 295.389 -0.792807 1.86335 0
M  V30 3058 C 295.717 -1.78494 0.772662 0
M  V30 3059 O 294.972 -1.94305 -0.233258 0
M  V30 3060 C 295.271 -1.55222 3.21933 0
M  V30 3061 C 294.937 -0.701765 4.45406 0
M  V30 3062 C 293.599 -0.467334 4.78925 0
M  V30 3063 C 295.951 -0.11086 5.21082 0
M  V30 3064 C 293.279 0.367785 5.85546 0
M  V30 3065 C 295.631 0.711609 6.28585 0
M  V30 3066 C 294.295 0.956086 6.60617 0
M  V30 3067 H 293.565 -0.290109 0.681849 0
M  V30 3068 H 296.212 -0.0541332 1.91423 0
M  V30 3069 H 294.517 -2.3626 3.12551 0
M  V30 3070 H 296.214 -2.10032 3.41595 0
M  V30 3071 H 292.804 -0.894598 4.1916 0
M  V30 3072 H 296.988 -0.279129 4.95514 0
M  V30 3073 H 292.244 0.566128 6.08773 0
M  V30 3074 H 296.418 1.17632 6.86393 0
M  V30 3075 H 294.045 1.60499 7.43064 0
M  V30 3076 N 295.62 -1.53406 -0.361157 0
M  V30 3077 C 296.583 -1.79479 -1.42548 0
M  V30 3078 C 297.583 -0.665327 -1.4639 0
M  V30 3079 O 298.773 -0.933549 -1.47073 0
M  V30 3080 C 295.905 -1.92087 -2.8163 0
M  V30 3081 H 297.098 -2.74538 -1.20701 0
M  V30 3082 H 294.651 -1.4455 -0.594546 0
M  V30 3083 H 295.386 -0.991099 -3.08784 0
M  V30 3084 H 295.171 -2.74241 -2.80239 0
M  V30 3085 H 296.661 -2.13836 -3.58697 0
M  V30 3086 N 297.098 0.621204 -1.44841 0
M  V30 3087 C 298.326 1.40752 -1.51646 0
M  V30 3088 C 298.741 1.88246 -0.144549 0
M  V30 3089 O 298.098 1.61422 0.851416 0
M  V30 3090 C 298.149 2.62119 -2.4895 0
M  V30 3091 O 297.87 2.16602 -3.80808 0
M  V30 3092 C 299.371 3.55135 -2.65319 0
M  V30 3093 H 296.591 0.431325 -0.514004 0
M  V30 3094 H 299.135 0.758835 -1.899 0
M  V30 3095 H 297.29 3.23058 -2.13805 0
M  V30 3096 H 297.704 2.95358 -4.33433 0
M  V30 3097 H 299.178 4.36874 -3.37409 0
M  V30 3098 H 299.655 4.04592 -1.70886 0
M  V30 3099 H 300.261 3.00058 -3.01405 0
M  V30 3100 N 298.576 1.31904 0.862503 0
M  V30 3101 C 299.806 1.24817 1.64634 0
M  V30 3102 C 300.214 -0.187579 1.88268 0
M  V30 3103 O 299.557 -1.13253 1.44635 0
M  V30 3104 C 299.619 1.92996 3.03303 0
M  V30 3105 C 299.283 3.42336 3.02746 0
M  V30 3106 C 300.28 4.37956 2.80162 0
M  V30 3107 C 297.965 3.84147 3.2363 0
M  V30 3108 C 299.959 5.73361 2.78453 0
M  V30 3109 C 297.646 5.19663 3.21549 0
M  V30 3110 C 298.644 6.14081 2.98988 0
M  V30 3111 O 298.332 7.47118 2.96766 0
M  V30 3112 H 298.064 0.432222 0.519769 0
M  V30 3113 H 300.618 1.7445 1.08427 0
M  V30 3114 H 298.848 1.37922 3.61268 0
M  V30 3115 H 300.537 1.79723 3.63943 0
M  V30 3116 H 301.303 4.06981 2.63802 0
M  V30 3117 H 297.182 3.11083 3.40218 0
M  V30 3118 H 300.726 6.4703 2.60763 0
M  V30 3119 H 296.623 5.5027 3.37451 0
M  V30 3120 H 297.391 7.56382 3.12775 0
M  V30 3121 N 300.054 -1.07777 1.14986 0
M  V30 3122 C 301.331 -1.7699 0.832695 0
M  V30 3123 C 301.711 -2.001 -0.672561 0
M  V30 3124 O 301.059 -1.61598 -1.6155 0
M  V30 3125 C 301.269 -3.08139 1.63863 0
M  V30 3126 C 302.617 -3.8256 1.84208 0
M  V30 3127 O 303.641 -3.17939 1.60603 0
M  V30 3128 O 302.5 -4.98612 2.23714 0
M  V30 3129 H 299.594 -0.768389 0.305791 0
M  V30 3130 H 302.14 -1.14182 1.25541 0
M  V30 3131 H 300.912 -2.86909 2.6608 0
M  V30 3132 H 300.535 -3.78678 1.21197 0
M  V30 3133 N 301.532 -0.945985 -1.26051 0
M  V30 3134 C 302.464 -0.416662 -2.25381 0
M  V30 3135 C 303.477 0.462712 -1.56086 0
M  V30 3136 O 304.666 0.272383 -1.7641 0
M  V30 3137 C 301.766 0.419812 -3.3629 0
M  V30 3138 C 300.939 -0.444531 -4.35135 0
M  V30 3139 C 299.998 0.332305 -5.2515 0
M  V30 3140 O 299.024 -0.266324 -5.68577 0
M  V30 3141 N 300.226 1.62763 -5.57215 0
M  V30 3142 H 302.991 -1.27059 -2.71433 0
M  V30 3143 H 300.552 -0.815392 -1.39868 0
M  V30 3144 H 302.544 0.947013 -3.93464 0
M  V30 3145 H 301.114 1.17456 -2.89694 0
M  V30 3146 H 300.334 -1.15291 -3.76964 0
M  V30 3147 H 301.622 -1.03478 -4.98166 0
M  V30 3148 H 301.02 2.13603 -5.23823 0
M  V30 3149 H 299.577 2.10097 -6.17011 0
M  V30 3150 N 303.011 1.40521 -0.713556 0
M  V30 3151 C 304.259 2.00527 -0.251692 0
M  V30 3152 C 304.58 1.56857 1.15848 0
M  V30 3153 O 303.85 0.807127 1.785 0
M  V30 3154 H 302.43 0.741551 -0.0900646 0
M  V30 3155 H 305.092 1.71887 -0.918733 0
M  V30 3156 H 304.188 3.10813 -0.283192 0
M  V30 3157 N 304.489 0.459591 1.5075 0
M  V30 3158 C 305.735 -0.091664 2.03193 0
M  V30 3159 C 306.09 -1.38432 1.3362 0
M  V30 3160 O 305.383 -1.86257 0.449322 0
M  V30 3161 C 305.577 -0.342866 3.55752 0
M  V30 3162 C 305.406 0.923888 4.40107 0
M  V30 3163 C 304.176 1.46388 4.83631 0
M  V30 3164 C 306.374 1.81617 4.81165 0
M  V30 3165 N 304.356 2.68086 5.52271 0
M  V30 3166 C 305.727 2.87907 5.49099 0
M  V30 3167 C 307.782 1.82793 4.63132 0
M  V30 3168 C 306.485 3.95347 6.0091 0
M  V30 3169 C 308.511 2.89182 5.15876 0
M  V30 3170 C 307.873 3.94191 5.83774 0
M  V30 3171 H 303.972 0.00619247 0.781975 0
M  V30 3172 H 306.556 0.625233 1.84388 0
M  V30 3173 H 304.727 -1.0288 3.74527 0
M  V30 3174 H 306.459 -0.887445 3.9485 0
M  V30 3175 H 303.214 1.01466 4.62603 0
M  V30 3176 H 303.638 3.29857 5.91205 0
M  V30 3177 H 308.28 1.0293 4.1008 0
M  V30 3178 H 305.998 4.76035 6.53006 0
M  V30 3179 H 309.584 2.91061 5.0376 0
M  V30 3180 H 308.464 4.75161 6.23853 0
M  V30 3181 N 305.967 -1.56429 0.191757 0
M  V30 3182 C 307.213 -1.97777 -0.448554 0
M  V30 3183 C 307.546 -1.07847 -1.61501 0
M  V30 3184 O 306.821 -0.129774 -1.94067 0
M  V30 3185 C 307.104 -3.48362 -0.911906 0
M  V30 3186 C 306.957 -4.4907 0.256136 0
M  V30 3187 C 308.276 -4.02561 -1.77857 0
M  V30 3188 H 305.395 -0.719071 -0.161572 0
M  V30 3189 H 308.037 -1.87896 0.282007 0
M  V30 3190 H 306.187 -3.56914 -1.53442 0
M  V30 3191 H 307.859 -4.5256 0.893733 0
M  V30 3192 H 306.102 -4.24181 0.908436 0
M  V30 3193 H 306.773 -5.51889 -0.11053 0
M  V30 3194 H 309.249 -3.96767 -1.25359 0
M  V30 3195 H 308.125 -5.08301 -2.07174 0
M  V30 3196 H 308.386 -3.47616 -2.73158 0
M  V30 3197 N 307.445 0.0818655 -1.57387 0
M  V30 3198 C 308.693 0.781368 -1.86384 0
M  V30 3199 C 309.014 1.78618 -0.782342 0
M  V30 3200 O 308.284 1.94976 0.190061 0
M  V30 3201 H 306.864 0.291562 -0.687751 0
M  V30 3202 H 309.526 0.060348 -1.94807 0
M  V30 3203 H 308.622 1.3038 -2.83562 0
M  V30 3204 N 308.923 1.53595 0.353017 0
M  V30 3205 C 310.169 1.71581 1.09232 0
M  V30 3206 C 310.524 0.468328 1.86613 0
M  V30 3207 O 309.817 -0.538911 1.83865 0
M  V30 3208 C 310.011 2.91313 2.07054 0
M  V30 3209 C 309.84 4.27585 1.39287 0
M  V30 3210 C 308.61 4.92233 1.1417 0
M  V30 3211 C 310.808 5.07656 0.824005 0
M  V30 3212 N 308.79 6.124 0.428841 0
M  V30 3213 C 310.161 6.19531 0.241195 0
M  V30 3214 C 312.216 4.92609 0.723922 0
M  V30 3215 C 310.919 7.18002 -0.431952 0
M  V30 3216 C 312.945 5.91365 0.0645334 0
M  V30 3217 C 312.307 7.02571 -0.507347 0
M  V30 3218 H 308.406 0.680987 0.384422 0
M  V30 3219 H 310.99 1.91013 0.377096 0
M  V30 3220 H 309.161 2.73398 2.75877 0
M  V30 3221 H 310.893 2.98062 2.73753 0
M  V30 3222 H 307.648 4.51612 1.42631 0
M  V30 3223 H 308.072 6.76944 0.0874131 0
M  V30 3224 H 312.714 4.06808 1.15181 0
M  V30 3225 H 310.432 8.03384 -0.871758 0
M  V30 3226 H 314.018 5.81799 -0.0121469 0
M  V30 3227 H 312.898 7.77675 -1.0095 0
M  V30 3228 N 310.401 -0.613514 1.45168 0
M  V30 3229 C 311.648 -1.37268 1.48875 0
M  V30 3230 C 311.976 -1.94077 0.128161 0
M  V30 3231 O 311.231 -1.75178 -0.872416 0
M  V30 3232 C 311.53 -2.54347 2.51083 0
M  V30 3233 C 311.196 -2.1572 3.95949 0
M  V30 3234 C 309.858 -2.04899 4.35396 0
M  V30 3235 C 312.21 -1.85485 4.87078 0
M  V30 3236 C 309.538 -1.62057 5.63875 0
M  V30 3237 C 311.89 -1.4413 6.15962 0
M  V30 3238 C 310.554 -1.31863 6.54346 0
M  V30 3239 H 309.824 -0.502299 0.544773 0
M  V30 3240 H 312.471 -0.694021 1.78481 0
M  V30 3241 H 310.776 -3.27524 2.15024 0
M  V30 3242 H 312.473 -3.12577 2.51191 0
M  V30 3243 H 309.063 -2.25066 3.64751 0
M  V30 3244 H 313.247 -1.92745 4.57343 0
M  V30 3245 H 308.503 -1.51177 5.92415 0
M  V30 3246 H 312.677 -1.19778 6.86022 0
M  V30 3247 H 310.304 -0.984392 7.538 0
M  V30 3248 N 311.879 -1.3236 -0.855495 0
M  V30 3249 C 313.119 -1.24187 -1.62348 0
M  V30 3250 C 313.483 0.193597 -1.91021 0
M  V30 3251 O 314.684 0.39904 -2.65822 0
M  V30 3252 C 312.955 -2.07661 -2.90881 0
M  V30 3253 S 314.514 -2.16505 -3.81669 0
M  V30 3254 H 311.332 -0.442076 -0.556857 0
M  V30 3255 H 313.934 -1.67198 -1.01317 0
M  V30 3256 H 312.638 -3.11018 -2.67761 0
M  V30 3257 H 312.169 -1.65425 -3.56929 0
M  V30 3258 H 314.184 -1.31394 -4.78487 0
M  V30 3259 N 313.357 1.07166 -1.15556 0
M  V30 3260 C 314.289 2.14341 -0.811815 0
M  V30 3261 C 315.302 1.61835 0.177015 0
M  V30 3262 O 316.491 1.78439 -0.0464996 0
M  V30 3263 C 313.591 3.38387 -0.186481 0
M  V30 3264 C 312.764 4.20238 -1.21321 0
M  V30 3265 C 311.823 5.2266 -0.609302 0
M  V30 3266 O 310.849 5.54719 -1.27576 0
M  V30 3267 N 312.051 5.77306 0.608099 0
M  V30 3268 H 314.816 2.44431 -1.73417 0
M  V30 3269 H 312.377 1.23089 -1.0517 0
M  V30 3270 H 314.369 4.04044 0.230339 0
M  V30 3271 H 312.939 3.05994 0.639249 0
M  V30 3272 H 312.159 3.50369 -1.80652 0
M  V30 3273 H 313.447 4.71736 -1.90638 0
M  V30 3274 H 312.845 5.53513 1.1679 0
M  V30 3275 H 311.402 6.44583 0.96725 0
M  V30 3276 N 314.835 0.952656 1.25548 0
M  V30 3277 C 315.782 0.47008 2.25962 0
M  V30 3278 C 316.752 -0.476384 1.59122 0
M  V30 3279 O 317.937 -0.39007 1.8677 0
M  V30 3280 C 315.077 -0.247881 3.44209 0
M  V30 3281 C 314.19 0.735591 4.25691 0
M  V30 3282 C 313.325 -0.0047306 5.312 0
M  V30 3283 C 312.364 0.969805 6.04368 0
M  V30 3284 N 311.501 0.260486 7.01617 0
M  V30 3285 H 316.341 1.33126 2.66611 0
M  V30 3286 H 313.878 0.66765 1.31076 0
M  V30 3287 H 315.836 -0.680695 4.1161 0
M  V30 3288 H 314.466 -1.07312 3.0444 0
M  V30 3289 H 313.518 1.28689 3.57971 0
M  V30 3290 H 314.83 1.47934 4.76358 0
M  V30 3291 H 313.984 -0.496275 6.04667 0
M  V30 3292 H 312.723 -0.781282 4.81401 0
M  V30 3293 H 311.728 1.47237 5.29718 0
M  V30 3294 H 312.953 1.74655 6.56256 0
M  V30 3295 H 310.899 -0.497364 6.54112 0
M  V30 3296 H 310.816 0.943362 7.50091 0
M  V30 3297 H 312.084 -0.209587 7.79218 0
M  V30 3298 N 316.313 -1.40141 0.720998 0
M  V30 3299 C 317.276 -2.29058 0.0805834 0
M  V30 3300 C 318.276 -1.45632 -0.681758 0
M  V30 3301 O 319.466 -1.6648 -0.512856 0
M  V30 3302 C 316.598 -3.28925 -0.895593 0
M  V30 3303 H 317.791 -2.87191 0.863793 0
M  V30 3304 H 315.344 -1.48553 0.485975 0
M  V30 3305 H 316.079 -2.75822 -1.70566 0
M  V30 3306 H 315.864 -3.90519 -0.351766 0
M  V30 3307 H 317.354 -3.95494 -1.34069 0
M  V30 3308 N 317.792 -0.46758 -1.50504 0
M  V30 3309 C 319.038 0.0887532 -2.02606 0
M  V30 3310 C 319.371 1.39686 -1.34913 0
M  V30 3311 O 318.646 1.88644 -0.473694 0
M  V30 3312 C 318.929 0.276206 -3.59039 0
M  V30 3313 C 318.782 -1.05267 -4.37309 0
M  V30 3314 C 320.101 1.03235 -4.27821 0
M  V30 3315 H 317.22 0.0307814 -0.736357 0
M  V30 3316 H 319.862 -0.612485 -1.79857 0
M  V30 3317 H 318.012 0.8735 -3.78553 0
M  V30 3318 H 319.684 -1.68628 -4.29374 0
M  V30 3319 H 317.927 -1.65015 -4.01189 0
M  V30 3320 H 318.598 -0.875197 -5.45018 0
M  V30 3321 H 321.074 0.526111 -4.12761 0
M  V30 3322 H 319.95 1.1323 -5.37094 0
M  V30 3323 H 320.211 2.06806 -3.90748 0
M  V30 3324 N 319.27 1.56325 -0.20005 0
M  V30 3325 C 320.18 2.22931 0.730668 0
M  V30 3326 C 321.196 1.22997 1.23076 0
M  V30 3327 O 322.372 1.55748 1.27689 0
M  V30 3328 C 319.437 2.87948 1.93098 0
M  V30 3329 C 318.498 4.03166 1.47497 0
M  V30 3330 C 317.731 4.65073 2.61807 0
M  V30 3331 O 317.954 4.25913 3.79413 0
M  V30 3332 O 316.888 5.54452 2.34237 0
M  V30 3333 H 320.714 3.03084 0.193391 0
M  V30 3334 H 318.299 1.49371 0.0294621 0
M  V30 3335 H 320.181 3.29063 2.6324 0
M  V30 3336 H 318.856 2.10771 2.45677 0
M  V30 3337 H 317.763 3.66664 0.742201 0
M  V30 3338 H 319.096 4.82022 0.995796 0
M  V30 3339 N 320.748 -0.0735177 1.57428 0
M  V30 3340 C 321.997 -0.771809 1.86349 0
M  V30 3341 C 322.31 -1.78828 0.792452 0
M  V30 3342 O 323.516 -2.53602 0.96945 0
M  V30 3343 C 321.972 -1.42358 3.30548 0
M  V30 3344 C 321.58 -0.445761 4.45777 0
M  V30 3345 C 323.324 -2.10434 3.6867 0
M  V30 3346 C 321.231 -1.10335 5.81016 0
M  V30 3347 H 320.161 -0.291999 0.695164 0
M  V30 3348 H 322.812 -0.0250749 1.83483 0
M  V30 3349 H 321.194 -2.21852 3.28021 0
M  V30 3350 H 322.368 0.319239 4.59693 0
M  V30 3351 H 320.683 0.130457 4.16196 0
M  V30 3352 H 323.28 -2.60405 4.67004 0
M  V30 3353 H 323.623 -2.90298 2.98383 0
M  V30 3354 H 324.156 -1.37773 3.7318 0
M  V30 3355 H 320.895 -0.345061 6.54591 0
M  V30 3356 H 320.415 -1.83925 5.70904 0
M  V30 3357 H 322.094 -1.62367 6.26295 0
M  V30 3358 N 322.226 -1.5378 -0.344866 0
M  V30 3359 C 323.173 -1.81676 -1.42346 0
M  V30 3360 C 324.143 -0.662376 -1.52321 0
M  V30 3361 O 325.328 -0.906675 -1.67881 0
M  V30 3362 C 322.468 -2.03087 -2.79015 0
M  V30 3363 C 321.581 -3.30799 -2.77842 0
M  V30 3364 C 320.716 -3.42285 -4.0622 0
M  V30 3365 C 319.755 -4.6395 -3.9927 0
M  V30 3366 N 318.892 -4.72477 -5.19336 0
M  V30 3367 H 323.732 -2.73703 -1.17858 0
M  V30 3368 H 321.269 -1.35568 -0.570949 0
M  V30 3369 H 323.227 -2.1349 -3.58438 0
M  V30 3370 H 321.857 -1.14375 -3.01858 0
M  V30 3371 H 320.909 -3.29244 -1.90533 0
M  V30 3372 H 322.221 -4.20314 -2.68584 0
M  V30 3373 H 321.375 -3.52113 -4.94066 0
M  V30 3374 H 320.114 -2.50823 -4.18258 0
M  V30 3375 H 319.119 -4.54201 -3.09809 0
M  V30 3376 H 320.344 -5.56775 -3.88817 0
M  V30 3377 H 318.29 -3.83924 -5.3192 0
M  V30 3378 H 318.207 -5.55927 -5.12329 0
M  V30 3379 H 319.475 -4.86613 -6.08957 0
M  V30 3380 N 323.704 0.605807 -1.45491 0
M  V30 3381 C 324.652 1.73754 -1.54636 0
M  V30 3382 C 325.646 1.64207 -0.416219 0
M  V30 3383 O 326.852 1.69979 -0.592199 0
M  V30 3384 H 323.227 0.574073 -0.485741 0
M  V30 3385 H 325.198 1.63169 -2.49837 0
M  V30 3386 C 323.947 3.12135 -1.53189 0
M  V30 3387 H 323.27 3.20141 -2.39478 0
M  V30 3388 H 324.71 3.91147 -1.63645 0
M  V30 3389 C 323.169 3.35921 -0.256616 0
M  V30 3390 O 323.699 3.96194 0.662798 0
M  V30 3391 N 321.905 2.90204 -0.151751 0
M  V30 3392 H 321.452 2.41336 -0.90081 0
M  V30 3393 H 321.41 3.06492 0.700699 0
M  V30 3394 N 325.182 1.32811 0.848464 0
M  V30 3395 C 326.43 1.23479 1.59991 0
M  V30 3396 C 326.751 -0.201853 1.93952 0
M  V30 3397 O 326.021 -1.12818 1.60153 0
M  V30 3398 H 324.601 0.454034 0.593179 0
M  V30 3399 H 327.263 1.66412 1.01455 0
M  V30 3400 H 326.359 1.82178 2.53412 0
M  V30 3401 N 326.66 -1.06551 1.16123 0
M  V30 3402 C 327.909 -1.78687 0.935622 0
M  V30 3403 C 328.222 -1.88056 -0.538001 0
M  V30 3404 O 329.428 -2.56794 -0.88143 0
M  V30 3405 C 327.884 -3.21143 1.62466 0
M  V30 3406 C 327.492 -3.19949 3.13587 0
M  V30 3407 C 329.236 -3.9783 1.48092 0
M  V30 3408 C 327.143 -4.57108 3.75241 0
M  V30 3409 H 326.073 -0.669712 0.346412 0
M  V30 3410 H 328.724 -1.19534 1.39226 0
M  V30 3411 H 327.106 -3.80539 1.09572 0
M  V30 3412 H 328.28 -2.70151 3.73303 0
M  V30 3413 H 326.595 -2.5676 3.27816 0
M  V30 3414 H 329.192 -4.99217 1.91538 0
M  V30 3415 H 329.535 -4.14078 0.429507 0
M  V30 3416 H 330.068 -3.4495 1.98127 0
M  V30 3417 H 326.807 -4.46065 4.80319 0
M  V30 3418 H 326.327 -5.07111 3.20309 0
M  V30 3419 H 328.006 -5.26069 3.76644 0
M  V30 3420 N 328.138 -0.959301 -1.25041 0
M  V30 3421 C 329.086 -0.474437 -2.2771 0
M  V30 3422 C 330.08 0.457697 -1.631 0
M  V30 3423 O 331.286 0.333912 -1.76876 0
M  V30 3424 H 327.661 -0.134936 -0.739795 0
M  V30 3425 H 329.632 -1.35251 -2.65988 0
M  V30 3426 C 328.381 0.227884 -3.46952 0
M  V30 3427 H 327.704 -0.480248 -3.96905 0
M  V30 3428 H 329.144 0.531091 -4.20661 0
M  V30 3429 C 327.603 1.452 -3.04004 0
M  V30 3430 O 328.133 2.54949 -3.10426 0
M  V30 3431 N 326.339 1.31502 -2.59144 0
M  V30 3432 H 325.886 0.422065 -2.54119 0
M  V30 3433 H 325.844 2.13521 -2.30773 0
M  V30 3434 N 329.616 1.39756 -0.72842 0
M  V30 3435 C 330.563 2.30647 -0.0841519 0
M  V30 3436 C 331.533 1.48869 0.7367 0
M  V30 3437 O 332.718 1.77574 0.698015 0
M  V30 3438 C 329.858 3.35165 0.822091 0
M  V30 3439 C 328.971 4.31999 -0.0106663 0
M  V30 3440 C 328.106 5.23585 0.896241 0
M  V30 3441 C 327.145 6.12072 0.0583381 0
M  V30 3442 N 326.282 6.96035 0.920818 0
M  V30 3443 H 331.122 2.85173 -0.864891 0
M  V30 3444 H 328.659 1.40422 -0.438179 0
M  V30 3445 H 330.617 3.94345 1.36189 0
M  V30 3446 H 329.247 2.8211 1.56888 0
M  V30 3447 H 328.299 3.74492 -0.66781 0
M  V30 3448 H 329.611 4.9443 -0.658825 0
M  V30 3449 H 328.765 5.87759 1.50412 0
M  V30 3450 H 327.504 4.61459 1.57819 0
M  V30 3451 H 326.509 5.46916 -0.562389 0
M  V30 3452 H 327.734 6.76261 -0.6203 0
M  V30 3453 H 325.68 6.36485 1.58818 0
M  V30 3454 H 325.597 7.55284 0.32899 0
M  V30 3455 H 326.865 7.64646 1.51447 0
M  V30 3456 N 331.094 0.475555 1.50254 0
M  V30 3457 C 332.505 0.0215174 1.86688 0
M  V30 3458 C 332.856 -1.38467 1.39001 0
M  V30 3459 O 331.981 -2.02732 0.756894 0
M  V30 3460 C 332.576 0.0322715 3.38785 0
M  V30 3461 C 331.135 -0.366314 3.74613 0
M  V30 3462 C 330.282 0.415832 2.74164 0
M  V30 3463 H 333.233 0.689612 1.42934 0
M  V30 3464 H 333.254 -0.76889 3.7265 0
M  V30 3465 H 332.766 1.05584 3.73462 0
M  V30 3466 H 330.867 -1.39406 3.45538 0
M  V30 3467 H 330.98 -0.064555 4.79057 0
M  V30 3468 H 329.344 -0.131048 2.54363 0
M  V30 3469 H 330.127 1.43899 3.11686 0
M  V30 3470 N 332.573 -1.56217 0.208337 0
M  V30 3471 C 333.82 -1.97949 -0.42692 0
M  V30 3472 C 334.148 -1.09562 -1.60706 0
M  V30 3473 O 333.403 -0.137616 -1.95216 0
M  V30 3474 C 333.702 -3.45441 -0.916797 0
M  V30 3475 C 333.368 -4.50646 0.151391 0
M  V30 3476 C 332.03 -4.79139 0.444867 0
M  V30 3477 C 334.382 -5.13811 0.874492 0
M  V30 3478 C 331.71 -5.68084 1.46619 0
M  V30 3479 C 334.062 -6.03861 1.88506 0
M  V30 3480 C 332.726 -6.30704 2.18559 0
M  V30 3481 H 331.996 -0.724345 -0.156221 0
M  V30 3482 H 334.643 -1.89006 0.308084 0
M  V30 3483 H 332.948 -3.51521 -1.73032 0
M  V30 3484 H 334.645 -3.75094 -1.41794 0
M  V30 3485 H 331.235 -4.28511 -0.0875068 0
M  V30 3486 H 335.419 -4.91879 0.660996 0
M  V30 3487 H 330.675 -5.87151 1.7048 0
M  V30 3488 H 334.849 -6.51861 2.45051 0
M  V30 3489 H 332.476 -6.99424 2.97843 0
M  V30 3490 N 334.051 0.0651679 -1.57465 0
M  V30 3491 C 335.279 0.775808 -1.91804 0
M  V30 3492 C 335.694 1.70782 -0.804916 0
M  V30 3493 O 335.051 1.81153 0.221311 0
M  V30 3494 C 335.102 1.56381 -3.25925 0
M  V30 3495 O 334.823 0.669248 -4.32958 0
M  V30 3496 C 336.324 2.37485 -3.7432 0
M  V30 3497 H 333.544 0.2202 -0.63384 0
M  V30 3498 H 336.088 0.0334587 -2.04473 0
M  V30 3499 H 334.243 2.25837 -3.14764 0
M  V30 3500 H 334.657 1.21801 -5.10162 0
M  V30 3501 H 336.131 2.88223 -4.70778 0
M  V30 3502 H 336.608 3.17307 -3.03666 0
M  V30 3503 H 337.214 1.73173 -3.88447 0
M  V30 3504 N 335.529 1.53961 0.336706 0
M  V30 3505 C 336.778 1.70751 1.07363 0
M  V30 3506 C 337.091 0.481061 1.89592 0
M  V30 3507 O 338.297 0.530046 2.66276 0
M  V30 3508 C 336.753 3.01965 1.95818 0
M  V30 3509 C 336.361 4.31971 1.18764 0
M  V30 3510 C 338.105 3.28121 2.69327 0
M  V30 3511 C 336.012 5.54255 2.06289 0
M  V30 3512 H 334.942 0.636292 0.404535 0
M  V30 3513 H 337.593 1.80459 0.332681 0
M  V30 3514 H 335.975 2.86132 2.7376 0
M  V30 3515 H 337.149 4.5853 0.456849 0
M  V30 3516 H 335.464 4.12481 0.569946 0
M  V30 3517 H 338.061 4.16673 3.35094 0
M  V30 3518 H 338.404 2.45426 3.36261 0
M  V30 3519 H 338.937 3.44762 1.98454 0
M  V30 3520 H 335.676 6.39513 1.43885 0
M  V30 3521 H 335.196 5.31935 2.77138 0
M  V30 3522 H 336.875 5.90159 2.65182 0
M  V30 3523 N 337.007 -0.598083 1.45811 0
M  V30 3524 C 338.232 -1.3881 1.54099 0
M  V30 3525 C 338.657 -1.8726 0.177578 0
M  V30 3526 O 338.015 -1.6069 -0.839541 0
M  V30 3527 C 338.063 -2.56217 2.53743 0
M  V30 3528 O 337.167 -3.5716 2.06182 0
M  V30 3529 H 336.508 -0.414024 0.519115 0
M  V30 3530 H 339.038 -0.726971 1.91249 0
M  V30 3531 H 339.048 -3.03337 2.72856 0
M  V30 3532 H 337.723 -2.20303 3.5276 0
M  V30 3533 H 336.3 -3.16624 1.96987 0
M  V30 3534 N 338.485 -1.33259 -0.841409 0
M  V30 3535 C 339.733 -1.24326 -1.59334 0
M  V30 3536 C 340.054 0.191564 -1.94057 0
M  V30 3537 O 339.324 1.11967 -1.60749 0
M  V30 3538 H 337.904 -0.457174 -0.590763 0
M  V30 3539 H 340.566 -1.66947 -1.00571 0
M  V30 3540 H 339.662 -1.8352 -2.52442 0
M  V30 3541 N 339.963 1.05934 -1.16686 0
M  V30 3542 C 340.911 2.15603 -0.872817 0
M  V30 3543 C 341.905 1.68647 0.159576 0
M  V30 3544 O 343.111 1.79995 0.0132125 0
M  V30 3545 H 339.486 0.703885 -0.264671 0
M  V30 3546 H 341.457 2.37613 -1.80507 0
M  V30 3547 C 340.206 3.45457 -0.394344 0
M  V30 3548 H 339.529 3.81984 -1.18019 0
M  V30 3549 H 340.969 4.2339 -0.227408 0
M  V30 3550 C 339.428 3.25021 0.88673 0
M  V30 3551 O 339.958 3.50906 1.95519 0
M  V30 3552 N 338.164 2.78437 0.831925 0
M  V30 3553 H 337.711 2.57572 -0.0377619 0
M  V30 3554 H 337.669 2.65144 1.68956 0
M  V30 3555 N 341.441 0.965919 1.2453 0
M  V30 3556 C 342.689 0.625593 1.92174 0
M  V30 3557 C 343.01 -0.841652 1.75901 0
M  V30 3558 O 342.28 -1.60061 1.12948 0
M  V30 3559 H 340.86 0.228388 0.71123 0
M  V30 3560 H 343.522 1.2266 1.51461 0
M  V30 3561 H 342.618 0.864653 2.99884 0
M  V30 3562 N 342.919 -1.39368 0.735821 0
M  V30 3563 C 343.866 -2.30599 0.0963825 0
M  V30 3564 C 344.836 -1.49257 -0.728794 0
M  V30 3565 O 346.021 -1.77941 -0.688588 0
M  V30 3566 C 343.161 -3.35596 -0.804305 0
M  V30 3567 C 342.274 -4.31987 0.0335761 0
M  V30 3568 C 341.409 -5.24053 -0.868461 0
M  V30 3569 C 340.448 -6.12095 -0.0258776 0
M  V30 3570 N 339.585 -6.96514 -0.883893 0
M  V30 3571 H 344.425 -2.8471 0.880002 0
M  V30 3572 H 341.962 -1.40188 0.445619 0
M  V30 3573 H 343.92 -3.95062 -1.34096 0
M  V30 3574 H 342.55 -2.82938 -1.55389 0
M  V30 3575 H 341.602 -3.74133 0.68766 0
M  V30 3576 H 342.914 -4.94074 0.685036 0
M  V30 3577 H 342.068 -5.88549 -1.47293 0
M  V30 3578 H 340.807 -4.62289 -1.5537 0
M  V30 3579 H 339.812 -5.4661 0.591386 0
M  V30 3580 H 341.037 -6.75923 0.656156 0
M  V30 3581 H 338.983 -6.37318 -1.55441 0
M  V30 3582 H 338.9 -7.55448 -0.288931 0
M  V30 3583 H 340.168 -7.65439 -1.4739 0
M  V30 3584 N 344.397 -0.483516 -1.5 0
M  V30 3585 C 345.329 0.340634 -2.26655 0
M  V30 3586 C 346.342 0.946152 -1.32483 0
M  V30 3587 O 347.531 0.832453 -1.579 0
M  V30 3588 C 344.631 1.4929 -3.04246 0
M  V30 3589 C 343.804 0.997903 -4.25865 0
M  V30 3590 C 342.863 2.02569 -4.85646 0
M  V30 3591 O 341.889 1.60128 -5.46212 0
M  V30 3592 N 343.091 3.3548 -4.73744 0
M  V30 3593 H 345.856 -0.316577 -2.98023 0
M  V30 3594 H 343.417 -0.315024 -1.58806 0
M  V30 3595 H 345.409 2.17766 -3.41116 0
M  V30 3596 H 343.979 2.05458 -2.35597 0
M  V30 3597 H 343.199 0.138617 -3.93956 0
M  V30 3598 H 344.487 0.645305 -5.04691 0
M  V30 3599 H 343.885 3.72661 -4.25605 0
M  V30 3600 H 342.442 3.99718 -5.14848 0
M  V30 3601 N 345.875 1.56104 -0.216619 0
M  V30 3602 C 347.121 1.98466 0.417033 0
M  V30 3603 C 347.454 1.10403 1.59765 0
M  V30 3604 O 346.729 0.160632 1.93836 0
M  V30 3605 C 347.012 3.49769 0.85637 0
M  V30 3606 C 346.865 4.48606 -0.327546 0
M  V30 3607 C 348.184 4.05339 1.7143 0
M  V30 3608 H 345.303 0.721551 0.150112 0
M  V30 3609 H 347.945 1.87423 -0.311864 0
M  V30 3610 H 346.095 3.5931 1.47745 0
M  V30 3611 H 347.767 4.5108 -0.965618 0
M  V30 3612 H 346.01 4.22682 -0.975805 0
M  V30 3613 H 346.681 5.51995 0.0227149 0
M  V30 3614 H 349.157 3.98712 1.19031 0
M  V30 3615 H 348.033 5.11533 1.99061 0
M  V30 3616 H 348.294 3.51918 2.67593 0
M  V30 3617 N 347.353 -0.0568162 1.57498 0
M  V30 3618 C 348.769 -0.411933 1.54192 0
M  V30 3619 C 348.969 -1.78287 0.938942 0
M  V30 3620 O 348.025 -2.46483 0.547919 0
M  V30 3621 C 349.338 -0.339244 2.9878 0
M  V30 3622 C 350.886 -0.418348 3.10192 0
M  V30 3623 C 351.361 -0.375407 4.56459 0
M  V30 3624 N 352.852 -0.435038 4.61153 0
M  V30 3625 C 353.587 -0.424265 5.71828 0
M  V30 3626 N 353.083 -0.367418 6.91825 0
M  V30 3627 N 354.876 -0.471938 5.60115 0
M  V30 3628 H 347.027 0.840684 1.95055 0
M  V30 3629 H 349.29 0.316987 0.893433 0
M  V30 3630 H 348.996 0.601742 3.46514 0
M  V30 3631 H 348.87 -1.14371 3.59443 0
M  V30 3632 H 351.257 -1.34976 2.62422 0
M  V30 3633 H 351.338 0.414962 2.52412 0
M  V30 3634 H 350.982 0.552219 5.04889 0
M  V30 3635 H 350.912 -1.22645 5.12119 0
M  V30 3636 H 353.403 -0.482612 3.74806 0
M  V30 3637 H 353.716 -0.363535 7.71944 0
M  V30 3638 H 352.061 -0.333879 6.94198 0
M  V30 3639 H 355.252 -0.514145 4.65268 0
M  V30 3640 H 355.425 -0.460073 6.46365 0
M  V30 3641 N 348.832 -1.54138 -0.328536 0
M  V30 3642 C 350.109 -1.62749 -1.08499 0
M  V30 3643 C 350.489 -0.458198 -2.06067 0
M  V30 3644 O 349.837 0.548046 -2.2183 0
M  V30 3645 C 350.047 -2.99519 -1.79135 0
M  V30 3646 C 351.395 -3.55394 -2.32337 0
M  V30 3647 O 352.419 -3.01792 -1.89209 0
M  V30 3648 O 351.278 -4.49186 -3.11279 0
M  V30 3649 H 348.372 -0.65886 -0.499832 0
M  V30 3650 H 350.918 -1.66484 -0.328826 0
M  V30 3651 H 349.69 -3.76061 -1.08139 0
M  V30 3652 H 349.313 -2.99441 -2.61574 0
M  V30 3653 N 350.31 0.590341 -1.46126 0
M  V30 3654 C 351.556 1.35082 -1.51264 0
M  V30 3655 C 351.889 1.93534 -0.160711 0
M  V30 3656 O 351.164 1.76045 0.826956 0
M  V30 3657 C 351.447 2.48588 -2.6053 0
M  V30 3658 C 351.3 1.95221 -4.05227 0
M  V30 3659 C 352.619 3.50662 -2.6594 0
M  V30 3660 H 349.738 0.489803 -0.550692 0
M  V30 3661 H 352.38 0.663887 -1.78024 0
M  V30 3662 H 350.53 3.07186 -2.37843 0
M  V30 3663 H 352.202 1.41139 -4.39178 0
M  V30 3664 H 350.445 1.26101 -4.15068 0
M  V30 3665 H 351.116 2.77121 -4.77397 0
M  V30 3666 H 353.592 3.01934 -2.86313 0
M  V30 3667 H 352.468 4.27551 -3.44226 0
M  V30 3668 H 352.729 4.07399 -1.71694 0
M  V30 3669 N 351.788 1.33704 0.83433 0
M  V30 3670 C 352.718 1.26967 1.95963 0
M  V30 3671 C 353.699 0.149337 1.69443 0
M  V30 3672 O 354.884 0.339852 1.91203 0
M  V30 3673 C 352.014 1.01275 3.32206 0
M  V30 3674 C 350.968 2.09652 3.73136 0
M  V30 3675 C 350.294 1.69166 5.07235 0
M  V30 3676 C 351.594 3.51372 3.86439 0
M  V30 3677 H 353.288 2.2112 2.01857 0
M  V30 3678 H 350.834 1.06447 0.969793 0
M  V30 3679 H 352.787 0.952106 4.10503 0
M  V30 3680 H 351.511 0.0356203 3.26581 0
M  V30 3681 H 350.17 2.14766 2.97104 0
M  V30 3682 H 349.818 0.701437 4.98085 0
M  V30 3683 H 349.518 2.41694 5.35591 0
M  V30 3684 H 351.042 1.64576 5.88003 0
M  V30 3685 H 352.456 3.48734 4.55036 0
M  V30 3686 H 350.853 4.22425 4.26236 0
M  V30 3687 H 351.923 3.89546 2.88759 0
M  V30 3688 N 353.266 -1.05314 1.17247 0
M  V30 3689 C 354.216 -2.11313 0.856196 0
M  V30 3690 C 355.2 -1.60013 -0.168694 0
M  V30 3691 O 356.392 -1.76968 0.0335624 0
M  V30 3692 C 353.521 -3.41301 0.369917 0
M  V30 3693 C 352.607 -3.99401 1.42616 0
M  V30 3694 N 352.998 -4.31481 2.63928 0
M  V30 3695 C 351.296 -4.27126 1.28373 0
M  V30 3696 C 351.997 -4.77799 3.31787 0
M  V30 3697 N 350.973 -4.77843 2.59166 0
M  V30 3698 H 354.775 -2.33976 1.77856 0
M  V30 3699 H 352.289 -1.2295 1.06099 0
M  V30 3700 H 354.286 -4.16713 0.124897 0
M  V30 3701 H 352.946 -3.20072 -0.546253 0
M  V30 3702 H 353.957 -4.21519 3.00902 0
M  V30 3703 H 350.634 -4.15289 0.429111 0
M  V30 3704 H 352.024 -5.11743 4.35395 0
M  V30 3705 N 354.744 -0.972509 -1.24016 0
M  V30 3706 C 355.707 -0.511403 -2.23422 0
M  V30 3707 C 356.707 0.394679 -1.55881 0
M  V30 3708 O 357.897 0.189469 -1.73167 0
M  V30 3709 C 355.029 0.258769 -3.39916 0
M  V30 3710 H 356.222 -1.39024 -2.6573 0
M  V30 3711 H 353.775 -0.757585 -1.36713 0
M  V30 3712 H 354.51 1.1545 -3.03054 0
M  V30 3713 H 354.295 -0.391522 -3.9014 0
M  V30 3714 H 355.785 0.570244 -4.13688 0
M  V30 3715 N 356.222 1.38976 -0.743202 0
M  V30 3716 C 357.132 2.3434 -0.110399 0
M  V30 3717 C 358.148 1.58741 0.712559 0
M  V30 3718 O 359.324 1.9099 0.639125 0
M  V30 3719 C 356.389 3.37812 0.780012 0
M  V30 3720 C 355.45 4.29263 -0.0561319 0
M  V30 3721 C 354.683 5.27793 0.791875 0
M  V30 3722 O 354.906 5.33043 2.03031 0
M  V30 3723 O 353.84 6.01512 0.216183 0
M  V30 3724 H 357.666 2.90129 -0.897714 0
M  V30 3725 H 355.251 1.40643 -0.503966 0
M  V30 3726 H 357.133 4.01194 1.28923 0
M  V30 3727 H 355.808 2.84395 1.546 0
M  V30 3728 H 354.715 3.69076 -0.611056 0
M  V30 3729 H 356.048 4.85907 -0.784531 0
M  V30 3730 N 357.7 0.491464 1.49741 0
M  V30 3731 C 358.977 -0.118984 1.95238 0
M  V30 3732 C 359.357 -1.55044 1.43264 0
M  V30 3733 O 358.705 -2.19287 0.642287 0
M  V30 3734 C 358.915 -0.0414187 3.48975 0
M  V30 3735 C 360.263 -0.220133 4.24029 0
M  V30 3736 O 361.287 -0.117055 3.56008 0
M  V30 3737 O 360.146 -0.430567 5.44801 0
M  V30 3738 H 357.24 -0.100536 0.820866 0
M  V30 3739 H 359.786 0.553322 1.60426 0
M  V30 3740 H 358.558 0.957214 3.79412 0
M  V30 3741 H 358.181 -0.754292 3.9038 0
M  V30 3742 N 359.178 -1.55987 0.224894 0
M  V30 3743 C 360.111 -2.16413 -0.723929 0
M  V30 3744 C 361.089 -1.10952 -1.18863 0
M  V30 3745 O 362.273 -1.39225 -1.27077 0
M  V30 3746 C 359.4 -2.74711 -1.98121 0
M  V30 3747 C 358.446 -3.9303 -1.6562 0
M  V30 3748 S 359.279 -5.29817 -0.778058 0
M  V30 3749 C 360.435 -5.91555 -2.04483 0
M  V30 3750 H 360.668 -2.96555 -0.210347 0
M  V30 3751 H 358.201 -1.54397 0.00955457 0
M  V30 3752 H 360.159 -3.08938 -2.70311 0
M  V30 3753 H 358.82 -1.94555 -2.46591 0
M  V30 3754 H 358.013 -4.32334 -2.59043 0
M  V30 3755 H 357.615 -3.59966 -1.01491 0
M  V30 3756 H 359.907 -6.07732 -2.99446 0
M  V30 3757 H 360.85 -6.87498 -1.69563 0
M  V30 3758 H 361.258 -5.20419 -2.18688 0
M  V30 3759 N 360.656 0.0484629 -1.57525 0
M  V30 3760 C 361.905 0.742065 -1.87553 0
M  V30 3761 C 362.218 1.77545 -0.820802 0
M  V30 3762 O 363.424 2.52027 -1.00967 0
M  V30 3763 C 361.88 1.37081 -3.32771 0
M  V30 3764 C 361.488 0.374786 -4.4643 0
M  V30 3765 C 363.232 2.04542 -3.71972 0
M  V30 3766 C 361.139 1.01077 -5.82698 0
M  V30 3767 H 360.069 0.280903 -0.699721 0
M  V30 3768 H 362.72 -0.00411877 -1.835 0
M  V30 3769 H 361.102 2.16605 -3.31509 0
M  V30 3770 H 362.276 -0.392331 -4.59127 0
M  V30 3771 H 360.591 -0.196653 -4.15935 0
M  V30 3772 H 363.188 2.52943 -4.71088 0
M  V30 3773 H 363.531 2.85515 -3.02964 0
M  V30 3774 H 364.064 1.31819 -3.75325 0
M  V30 3775 H 360.803 0.240878 -6.55057 0
M  V30 3776 H 360.323 1.74819 -5.73758 0
M  V30 3777 H 362.002 1.52383 -6.28799 0
M  V30 3778 N 362.134 1.5431 0.320358 0
M  V30 3779 C 363.359 1.76954 1.08175 0
M  V30 3780 C 363.784 0.518193 1.80821 0
M  V30 3781 O 363.142 -0.530411 1.73368 0
M  V30 3782 C 363.19 2.96451 2.05303 0
M  V30 3783 O 362.294 2.68221 3.13259 0
M  V30 3784 H 361.635 0.586275 0.311733 0
M  V30 3785 H 364.165 2.01342 0.363676 0
M  V30 3786 H 364.175 3.23887 2.48116 0
M  V30 3787 H 362.85 3.87196 1.51829 0
M  V30 3788 H 361.427 2.51744 2.75099 0
M  V30 3789 N 363.613 -0.582584 1.46437 0
M  V30 3790 C 364.543 -1.70187 1.59871 0
M  V30 3791 C 365.524 -1.64066 0.449042 0
M  V30 3792 O 366.709 -1.82081 0.6753 0
M  V30 3793 C 363.839 -3.08827 1.58881 0
M  V30 3794 C 362.793 -3.29779 2.72819 0
M  V30 3795 C 362.119 -4.68947 2.5689 0
M  V30 3796 C 363.419 -3.17601 4.1464 0
M  V30 3797 H 365.113 -1.592 2.53566 0
M  V30 3798 H 362.659 -0.764472 1.22032 0
M  V30 3799 H 364.612 -3.86951 1.66873 0
M  V30 3800 H 363.336 -3.20713 0.617306 0
M  V30 3801 H 361.995 -2.54054 2.64296 0
M  V30 3802 H 361.643 -4.77599 1.57823 0
M  V30 3803 H 361.343 -4.83919 3.33312 0
M  V30 3804 H 362.867 -5.4924 2.66773 0
M  V30 3805 H 364.281 -3.8557 4.24274 0
M  V30 3806 H 362.678 -3.44094 4.9165 0
M  V30 3807 H 363.748 -2.14681 4.34788 0
M  V30 3808 N 365.091 -1.34144 -0.827227 0
M  V30 3809 C 366.321 -1.29138 -1.61267 0
M  V30 3810 C 366.729 0.137597 -1.88699 0
M  V30 3811 O 366.072 1.09379 -1.47587 0
M  V30 3812 C 366.134 -2.0097 -2.9808 0
M  V30 3813 C 365.798 -3.50242 -2.93563 0
M  V30 3814 C 366.795 -4.4523 -2.68452 0
M  V30 3815 C 364.48 -3.92592 -3.13331 0
M  V30 3816 C 366.474 -5.80542 -2.63154 0
M  V30 3817 C 364.161 -5.28005 -3.07658 0
M  V30 3818 C 365.159 -6.21792 -2.82602 0
M  V30 3819 O 364.847 -7.54723 -2.76853 0
M  V30 3820 H 364.579 -0.445851 -0.508127 0
M  V30 3821 H 367.133 -1.77263 -1.03763 0
M  V30 3822 H 365.363 -1.47451 -3.57484 0
M  V30 3823 H 367.052 -1.89309 -3.5905 0
M  V30 3824 H 367.818 -4.13832 -2.52919 0
M  V30 3825 H 363.697 -3.19994 -3.31851 0
M  V30 3826 H 367.241 -6.53717 -2.43516 0
M  V30 3827 H 363.138 -5.59023 -3.22743 0
M  V30 3828 H 363.906 -7.64409 -2.92611 0
M  V30 3829 N 366.569 1.04691 -1.17803 0
M  V30 3830 C 367.816 1.77782 -0.969532 0
M  V30 3831 C 368.144 1.87926 0.501401 0
M  V30 3832 O 367.399 1.37918 1.38842 0
M  V30 3833 C 367.698 3.21467 -1.56186 0
M  V30 3834 C 367.364 3.3137 -3.05786 0
M  V30 3835 C 366.026 3.3378 -3.46619 0
M  V30 3836 C 368.378 3.31976 -4.01797 0
M  V30 3837 C 365.706 3.34431 -4.82051 0
M  V30 3838 C 368.058 3.34167 -5.37136 0
M  V30 3839 C 366.722 3.34866 -5.77426 0
M  V30 3840 H 365.992 0.650549 -0.354777 0
M  V30 3841 H 368.639 1.23006 -1.46772 0
M  V30 3842 H 366.944 3.79203 -0.985515 0
M  V30 3843 H 368.641 3.76652 -1.37602 0
M  V30 3844 H 365.231 3.3021 -2.73238 0
M  V30 3845 H 369.415 3.29311 -3.71306 0
M  V30 3846 H 364.671 3.33285 -5.12573 0
M  V30 3847 H 368.845 3.33585 -6.11305 0
M  V30 3848 H 366.472 3.35124 -6.82346 0
M  V30 3849 N 368.047 0.979072 1.23499 0
M  V30 3850 C 369.275 0.665202 1.95915 0
M  V30 3851 C 369.69 -0.767571 1.72493 0
M  V30 3852 O 369.047 -1.51635 1.01554 0
M  V30 3853 C 369.098 0.944438 3.48945 0
M  V30 3854 O 368.819 2.3209 3.71572 0
M  V30 3855 C 370.32 0.646336 4.38563 0
M  V30 3856 H 367.54 0.247218 0.623798 0
M  V30 3857 H 370.084 1.31009 1.57025 0
M  V30 3858 H 368.239 0.345575 3.85856 0
M  V30 3859 H 368.653 2.40957 4.65876 0
M  V30 3860 H 370.127 0.892091 5.44744 0
M  V30 3861 H 370.604 -0.419575 4.37191 0
M  V30 3862 H 371.21 1.22562 4.07258 0
M  V30 3863 N 369.525 -1.3858 0.750561 0
M  V30 3864 C 370.488 -2.28836 0.129152 0
M  V30 3865 C 371.488 -1.47045 -0.650714 0
M  V30 3866 O 372.678 -1.6753 -0.477428 0
M  V30 3867 C 369.81 -3.30751 -0.825622 0
M  V30 3868 H 371.003 -2.85294 0.924516 0
M  V30 3869 H 368.556 -1.47489 0.517376 0
M  V30 3870 H 369.291 -2.79378 -1.64677 0
M  V30 3871 H 369.076 -3.91177 -0.268852 0
M  V30 3872 H 370.566 -3.98249 -1.2565 0
M  V30 3873 N 371.003 -0.499398 -1.49478 0
M  V30 3874 C 371.933 0.269244 -2.31943 0
M  V30 3875 C 372.914 0.964054 -1.40143 0
M  V30 3876 O 374.099 0.955767 -1.69052 0
M  V30 3877 C 371.229 1.33504 -3.20615 0
M  V30 3878 C 370.183 0.760202 -4.21195 0
M  V30 3879 C 369.509 1.9264 -4.98792 0
M  V30 3880 C 370.809 -0.247661 -5.21712 0
M  V30 3881 H 372.503 -0.419082 -2.96452 0
M  V30 3882 H 370.049 -0.202988 -1.42562 0
M  V30 3883 H 372.002 1.88048 -3.77115 0
M  V30 3884 H 370.726 2.05253 -2.54045 0
M  V30 3885 H 369.385 0.23653 -3.65836 0
M  V30 3886 H 369.033 2.63154 -4.28671 0
M  V30 3887 H 368.733 1.54785 -5.66847 0
M  V30 3888 H 370.257 2.4762 -5.58137 0
M  V30 3889 H 371.671 0.209579 -5.72917 0
M  V30 3890 H 370.068 -0.541962 -5.97648 0
M  V30 3891 H 371.138 -1.16409 -4.7072 0
M  V30 3892 N 372.481 1.55866 -0.233164 0
M  V30 3893 C 373.444 2.1953 0.658715 0
M  V30 3894 C 374.444 1.16053 1.11303 0
M  V30 3895 O 375.634 1.41218 1.01996 0
M  V30 3896 C 372.766 2.82791 1.90373 0
M  V30 3897 H 373.959 2.99721 0.10347 0
M  V30 3898 H 371.512 1.56291 0.0164245 0
M  V30 3899 H 372.247 2.06501 2.50056 0
M  V30 3900 H 372.032 3.58578 1.58632 0
M  V30 3901 H 373.522 3.31556 2.53891 0
M  V30 3902 N 373.959 -0.0401083 1.57549 0
M  V30 3903 C 374.907 -1.06264 2.06908 0
M  V30 3904 C 375.901 -1.38132 0.980608 0
M  V30 3905 O 377.107 -1.37167 1.16556 0
M  V30 3906 H 373.482 -0.360166 0.660139 0
M  V30 3907 H 375.453 -0.620445 2.91878 0
M  V30 3908 C 374.202 -2.35846 2.55483 0
M  V30 3909 H 373.525 -2.12183 3.38849 0
M  V30 3910 H 374.965 -3.05765 2.93741 0
M  V30 3911 C 373.424 -3.0404 1.45126 0
M  V30 3912 O 373.954 -3.93424 0.811216 0
M  V30 3913 N 372.16 -2.65184 1.18852 0
M  V30 3914 H 371.707 -1.92584 1.71083 0
M  V30 3915 H 371.665 -3.1113 0.452244 0
M  V30 3916 N 375.437 -1.54477 -0.31217 0
M  V30 3917 C 376.683 -1.73483 -1.0503 0
M  V30 3918 C 377.016 -0.513125 -1.87298 0
M  V30 3919 O 376.291 0.489864 -1.8823 0
M  V30 3920 C 376.574 -3.01723 -1.96558 0
M  V30 3921 C 376.427 -4.3417 -1.17545 0
M  V30 3922 C 377.746 -3.25772 -2.95907 0
M  V30 3923 H 374.865 -0.631222 -0.380432 0
M  V30 3924 H 377.507 -1.87184 -0.325932 0
M  V30 3925 H 375.657 -2.90174 -2.58324 0
M  V30 3926 H 377.329 -4.5762 -0.581513 0
M  V30 3927 H 375.572 -4.31159 -0.477925 0
M  V30 3928 H 376.243 -5.20143 -1.84811 0
M  V30 3929 H 378.719 -3.36857 -2.44267 0
M  V30 3930 H 377.595 -4.16838 -3.57123 0
M  V30 3931 H 377.856 -2.43537 -3.68974 0
M  V30 3932 N 376.915 0.57481 -1.46744 0
M  V30 3933 C 378.14 1.36341 -1.56288 0
M  V30 3934 C 378.565 1.86954 -0.207347 0
M  V30 3935 O 377.923 1.62006 0.813871 0
M  V30 3936 C 377.971 2.52147 -2.57787 0
M  V30 3937 O 377.075 3.53834 -2.11838 0
M  V30 3938 H 376.416 0.405713 -0.525636 0
M  V30 3939 H 378.946 0.696453 -1.92382 0
M  V30 3940 H 378.956 2.98958 -2.77648 0
M  V30 3941 H 377.631 2.14663 -3.5622 0
M  V30 3942 H 376.208 3.1345 -2.01999 0
M  V30 3943 N 378.394 1.34581 0.820102 0
M  V30 3944 C 379.341 1.2639 1.93117 0
M  V30 3945 C 380.311 0.138554 1.65521 0
M  V30 3946 O 381.496 0.320004 1.88097 0
M  V30 3947 C 378.636 1.02812 3.29429 0
M  V30 3948 C 377.749 2.24146 3.693 0
M  V30 3949 C 376.884 1.93829 4.94574 0
M  V30 3950 C 375.923 3.1129 5.27034 0
M  V30 3951 N 375.06 2.80838 6.43486 0
M  V30 3952 H 379.9 2.21408 1.99455 0
M  V30 3953 H 377.437 1.10077 0.975784 0
M  V30 3954 H 379.395 0.871788 4.0799 0
M  V30 3955 H 378.025 0.114612 3.22596 0
M  V30 3956 H 377.077 2.50691 2.86109 0
M  V30 3957 H 378.389 3.11899 3.89257 0
M  V30 3958 H 377.543 1.74948 5.80929 0
M  V30 3959 H 376.282 1.03341 4.76626 0
M  V30 3960 H 375.287 3.30764 4.39175 0
M  V30 3961 H 376.512 4.02561 5.4692 0
M  V30 3962 H 374.458 1.92929 6.26988 0
M  V30 3963 H 374.375 3.62123 6.63629 0
M  V30 3964 H 375.643 2.65467 7.32903 0
M  V30 3965 N 379.872 -1.04064 1.18357 0
M  V30 3966 C 381.121 -1.76662 0.973313 0
M  V30 3967 C 381.434 -1.89154 -0.497991 0
M  V30 3968 O 382.64 -2.58606 -0.826762 0
M  V30 3969 C 381.096 -3.17624 1.69242 0
M  V30 3970 C 380.704 -3.13225 3.20303 0
M  V30 3971 C 382.448 -3.946 1.56497 0
M  V30 3972 C 380.355 -4.49046 3.84853 0
M  V30 3973 H 379.285 -0.662214 0.36054 0
M  V30 3974 H 381.936 -1.16553 1.41731 0
M  V30 3975 H 380.318 -3.78129 1.1762 0
M  V30 3976 H 381.492 -2.62172 3.78949 0
M  V30 3977 H 379.807 -2.49749 3.33189 0
M  V30 3978 H 382.404 -4.95042 2.02084 0
M  V30 3979 H 382.747 -4.13074 0.517243 0
M  V30 3980 H 383.28 -3.4067 2.05399 0
M  V30 3981 H 380.019 -4.35777 4.89672 0
M  V30 3982 H 379.539 -5.00203 3.30994 0
M  V30 3983 H 381.218 -5.17961 3.87718 0
M  V30 3984 N 381.35 -0.985608 -1.22978 0
M  V30 3985 C 382.766 -0.695104 -1.43668 0
M  V30 3986 C 382.966 0.736866 -1.87543 0
M  V30 3987 O 382.022 1.50868 -2.02473 0
M  V30 3988 C 383.335 -1.69447 -2.48412 0
M  V30 3989 C 384.883 -1.70909 -2.62219 0
M  V30 3990 C 385.358 -2.6969 -3.70178 0
M  V30 3991 N 386.849 -2.6824 -3.77626 0
M  V30 3992 C 387.584 -3.41339 -4.60733 0
M  V30 3993 N 387.08 -4.24015 -5.4789 0
M  V30 3994 N 388.873 -3.30079 -4.54977 0
M  V30 3995 H 381.024 -1.91054 -0.928016 0
M  V30 3996 H 383.287 -0.823553 -0.469536 0
M  V30 3997 H 382.993 -2.7188 -2.23102 0
M  V30 3998 H 382.867 -1.48147 -3.46889 0
M  V30 3999 H 385.254 -0.691785 -2.86877 0
M  V30 4000 H 385.335 -1.96276 -1.6404 0
M  V30 4001 H 384.979 -3.71566 -3.46268 0
M  V30 4002 H 384.909 -2.41595 -4.67909 0
M  V30 4003 H 387.4 -2.08243 -3.15346 0
M  V30 4004 H 387.713 -4.76636 -6.08308 0
M  V30 4005 H 386.058 -4.28104 -5.47496 0
M  V30 4006 H 389.249 -2.64937 -3.85909 0
M  V30 4007 H 389.422 -3.87308 -5.19516 0
M  V30 4008 N 382.828 1.3818 -0.7579 0
M  V30 4009 C 384.076 1.99624 -0.315361 0
M  V30 4010 C 384.397 1.60464 1.10799 0
M  V30 4011 O 383.667 0.863507 1.75842 0
M  V30 4012 H 382.247 0.73831 -0.113611 0
M  V30 4013 H 384.909 1.68878 -0.972952 0
M  V30 4014 H 384.005 3.09754 -0.381931 0
M  V30 4015 N 384.306 0.507319 1.49211 0
M  V30 4016 C 385.254 -0.281364 2.30892 0
M  V30 4017 C 386.248 -0.95687 1.39787 0
M  V30 4018 O 387.454 -0.883838 1.56807 0
M  V30 4019 H 383.829 -0.109597 0.743971 0
M  V30 4020 H 385.8 0.42744 2.95323 0
M  V30 4021 C 384.549 -1.32918 3.21291 0
M  V30 4022 H 383.872 -0.818799 3.91326 0
M  V30 4023 H 385.312 -1.85288 3.81372 0
M  V30 4024 C 383.771 -2.35074 2.41333 0
M  V30 4025 O 384.301 -3.4108 2.12197 0
M  V30 4026 N 382.507 -2.07705 2.03241 0
M  V30 4027 H 382.054 -1.2152 2.27136 0
M  V30 4028 H 382.012 -2.76283 1.50051 0
M  V30 4029 N 385.784 -1.5574 0.241426 0
M  V30 4030 C 386.747 -2.19877 -0.647063 0
M  V30 4031 C 387.747 -1.16642 -1.10686 0
M  V30 4032 O 388.937 -1.41757 -1.01245 0
M  V30 4033 C 386.069 -2.83797 -1.88871 0
M  V30 4034 H 387.262 -2.99772 -0.087574 0
M  V30 4035 H 384.815 -1.56298 -0.00813574 0
M  V30 4036 H 385.55 -2.07824 -2.48957 0
M  V30 4037 H 385.335 -3.59414 -1.56728 0
M  V30 4038 H 386.825 -3.32898 -2.52129 0
M  V30 4039 N 387.262 0.0317525 -1.57568 0
M  V30 4040 C 388.509 0.723104 -1.89149 0
M  V30 4041 C 388.837 1.75504 -0.838377 0
M  V30 4042 O 388.092 1.95037 0.160982 0
M  V30 4043 C 388.391 1.43167 -3.27472 0
M  V30 4044 C 388.057 0.535972 -4.47703 0
M  V30 4045 C 386.719 0.289262 -4.8033 0
M  V30 4046 C 389.071 -0.0826125 -5.21135 0
M  V30 4047 C 386.399 -0.584853 -5.83778 0
M  V30 4048 C 388.751 -0.944414 -6.25511 0
M  V30 4049 C 387.415 -1.20061 -6.56614 0
M  V30 4050 H 386.685 0.264602 -0.692146 0
M  V30 4051 H 389.332 -0.0169496 -1.91492 0
M  V30 4052 H 387.637 2.24497 -3.21105 0
M  V30 4053 H 389.334 1.97209 -3.49155 0
M  V30 4054 H 385.924 0.738414 -4.22191 0
M  V30 4055 H 390.108 0.0950302 -4.96209 0
M  V30 4056 H 385.364 -0.79168 -6.06253 0
M  V30 4057 H 389.538 -1.43026 -6.81554 0
M  V30 4058 H 387.165 -1.87967 -7.36595 0
M  V30 4059 N 388.74 1.54641 0.303973 0
M  V30 4060 C 389.688 1.86137 1.39484 0
M  V30 4061 C 390.682 0.734854 1.52631 0
M  V30 4062 O 391.888 0.918803 1.54784 0
M  V30 4063 H 388.263 0.590324 0.465856 0
M  V30 4064 H 390.234 2.77324 1.10154 0
M  V30 4065 C 388.983 2.12274 2.75382 0
M  V30 4066 H 388.306 2.98429 2.66046 0
M  V30 4067 H 389.746 2.38254 3.5073 0
M  V30 4068 C 388.205 0.920365 3.24085 0
M  V30 4069 O 388.735 0.139377 4.01458 0
M  V30 4070 N 386.941 0.726566 2.81371 0
M  V30 4071 H 386.488 1.36332 2.18567 0
M  V30 4072 H 386.446 -0.0763799 3.14307 0
M  V30 4073 N 390.218 -0.567019 1.47046 0
M  V30 4074 C 391.467 -1.32091 1.5243 0
M  V30 4075 C 391.78 -1.94704 0.187021 0
M  V30 4076 O 392.986 -2.7124 0.118771 0
M  V30 4077 C 391.442 -2.39479 2.68659 0
M  V30 4078 C 391.05 -1.831 4.08874 0
M  V30 4079 C 392.794 -3.16111 2.83327 0
M  V30 4080 C 390.701 -2.8821 5.16419 0
M  V30 4081 H 389.631 -0.496629 0.56734 0
M  V30 4082 H 392.282 -0.603354 1.73297 0
M  V30 4083 H 390.664 -3.14105 2.41152 0
M  V30 4084 H 391.838 -1.14913 4.46242 0
M  V30 4085 H 390.153 -1.19085 3.99008 0
M  V30 4086 H 392.75 -3.94585 3.60842 0
M  V30 4087 H 393.093 -3.69686 1.91411 0
M  V30 4088 H 393.626 -2.48595 3.10556 0
M  V30 4089 H 390.365 -2.39504 6.10179 0
M  V30 4090 H 389.885 -3.54839 4.8358 0
M  V30 4091 H 391.564 -3.51881 5.42945 0
M  V30 4092 N 391.696 -1.35014 -0.812953 0
M  V30 4093 C 392.944 -1.27678 -1.56661 0
M  V30 4094 C 393.265 0.150359 -1.94419 0
M  V30 4095 O 392.535 1.08532 -1.63088 0
M  V30 4096 H 391.115 -0.469602 -0.580933 0
M  V30 4097 H 393.777 -1.69043 -0.970076 0
M  V30 4098 H 392.873 -1.88833 -2.48492 0
M  V30 4099 N 393.175 1.03435 -1.18907 0
M  V30 4100 C 394.423 1.76394 -0.986382 0
M  V30 4101 C 394.744 1.88883 0.484567 0
M  V30 4102 O 394.014 1.41843 1.3512 0
M  V30 4103 H 392.594 0.65344 -0.361975 0
M  V30 4104 H 395.256 1.248 -1.49703 0
M  V30 4105 H 394.352 2.77424 -1.42978 0
M  V30 4106 N 394.653 0.992116 1.22453 0
M  V30 4107 C 395.881 0.685944 1.95198 0
M  V30 4108 C 396.296 -0.749233 1.73297 0
M  V30 4109 O 395.653 -1.50549 1.03156 0
M  V30 4110 C 395.704 0.981395 3.47924 0
M  V30 4111 O 395.425 2.36018 3.6909 0
M  V30 4112 C 396.926 0.692815 4.37853 0
M  V30 4113 H 394.146 0.253821 0.621141 0
M  V30 4114 H 396.69 1.32668 1.55626 0
M  V30 4115 H 394.845 0.386481 3.85467 0
M  V30 4116 H 395.259 2.45884 4.63294 0
M  V30 4117 H 396.733 0.949818 5.43767 0
M  V30 4118 H 397.21 -0.373181 4.37612 0
M  V30 4119 H 397.816 1.26874 4.05935 0
M  V30 4120 N 396.131 -1.37776 0.765217 0
M  V30 4121 C 397.38 -1.99092 0.323307 0
M  V30 4122 C 397.693 -1.61434 -1.10446 0
M  V30 4123 O 398.899 -2.15805 -1.64743 0
M  V30 4124 C 397.355 -3.56019 0.527098 0
M  V30 4125 C 396.963 -4.0262 1.96471 0
M  V30 4126 C 398.707 -4.2424 0.148483 0
M  V30 4127 C 396.614 -5.52233 2.11644 0
M  V30 4128 H 395.544 -0.744846 0.117137 0
M  V30 4129 H 398.195 -1.57391 0.943417 0
M  V30 4130 H 396.577 -3.95667 -0.162372 0
M  V30 4131 H 397.751 -3.74234 2.68859 0
M  V30 4132 H 396.066 -3.47161 2.29931 0
M  V30 4133 H 398.663 -5.34159 0.240456 0
M  V30 4134 H 399.006 -4.06446 -0.900422 0
M  V30 4135 H 399.539 -3.89872 0.79025 0
M  V30 4136 H 396.278 -5.74945 3.1483 0
M  V30 4137 H 395.798 -5.82324 1.4373 0
M  V30 4138 H 397.477 -6.18106 1.91193 0
M  V30 4139 N 397.609 -0.515225 -1.4894 0
M  V30 4140 C 398.855 0.0242508 -2.02785 0
M  V30 4141 C 399.188 1.35323 -1.39289 0
M  V30 4142 O 398.463 1.87041 -0.533469 0
M  V30 4143 C 398.746 0.16184 -3.59736 0
M  V30 4144 C 398.599 -1.19127 -4.33738 0
M  V30 4145 C 399.918 0.895719 -4.30888 0
M  V30 4146 H 397.037 0.00733914 -0.736963 0
M  V30 4147 H 399.679 -0.669395 -1.77818 0
M  V30 4148 H 397.829 0.752624 -3.8114 0
M  V30 4149 H 399.501 -1.82202 -4.23792 0
M  V30 4150 H 397.744 -1.77695 -3.95736 0
M  V30 4151 H 398.415 -1.04815 -5.41957 0
M  V30 4152 H 400.891 0.394528 -4.14225 0
M  V30 4153 H 399.767 0.960859 -5.40425 0
M  V30 4154 H 400.028 1.9427 -3.97129 0
M  V30 4155 N 399.087 1.5561 -0.249682 0
M  V30 4156 C 400.035 2.22894 0.664906 0
M  V30 4157 C 401.029 1.21743 1.17792 0
M  V30 4158 O 402.235 1.39748 1.13449 0
M  V30 4159 H 398.61 0.715022 0.232912 0
M  V30 4160 H 400.581 2.98307 0.0742998 0
M  V30 4161 C 399.33 2.94424 1.84959 0
M  V30 4162 H 398.653 3.72031 1.46399 0
M  V30 4163 H 400.093 3.44862 2.4667 0
M  V30 4164 C 398.552 1.98454 2.72245 0
M  V30 4165 O 399.082 1.51939 3.71857 0
M  V30 4166 N 397.288 1.65496 2.38871 0
M  V30 4167 H 396.835 2.03517 1.57919 0
M  V30 4168 H 396.793 1.0155 2.97548 0
M  V30 4169 N 400.565 -0.0233959 1.57583 0
M  V30 4170 C 401.79 -0.728376 1.94189 0
M  V30 4171 C 402.215 -1.67793 0.850119 0
M  V30 4172 O 401.573 -1.80262 -0.19371 0
M  V30 4173 C 401.621 -1.45669 3.29868 0
M  V30 4174 O 400.725 -2.57013 3.22518 0
M  V30 4175 H 400.066 -0.195493 0.63457 0
M  V30 4176 H 402.596 0.0228214 2.04587 0
M  V30 4177 H 402.606 -1.82535 3.6489 0
M  V30 4178 H 401.281 -0.760314 4.08891 0
M  V30 4179 H 399.858 -2.22648 2.99136 0
M  V30 4180 N 402.043 -1.548 -0.295768 0
M  V30 4181 C 402.973 -1.89115 -1.36959 0
M  V30 4182 C 403.954 -0.75059 -1.52644 0
M  V30 4183 O 405.139 -1.00678 -1.66065 0
M  V30 4184 C 402.269 -2.14307 -2.73295 0
M  V30 4185 C 401.223 -3.30151 -2.72368 0
M  V30 4186 C 400.549 -3.40772 -4.12042 0
M  V30 4187 C 401.849 -4.67126 -2.33646 0
M  V30 4188 H 403.543 -2.79053 -1.08488 0
M  V30 4189 H 401.089 -1.34266 -0.520443 0
M  V30 4190 H 403.042 -2.36898 -3.48507 0
M  V30 4191 H 401.766 -1.21145 -3.03301 0
M  V30 4192 H 400.425 -3.0749 -1.99613 0
M  V30 4193 H 400.073 -2.45117 -4.39234 0
M  V30 4194 H 399.773 -4.18645 -4.12322 0
M  V30 4195 H 401.297 -3.6563 -4.89027 0
M  V30 4196 H 402.711 -4.89414 -2.98575 0
M  V30 4197 H 401.108 -5.47751 -2.45129 0
M  V30 4198 H 402.178 -4.67489 -1.28772 0
M  V30 4199 N 403.521 0.559213 -1.47345 0
M  V30 4200 C 404.746 1.34676 -1.57725 0
M  V30 4201 C 405.171 1.86723 -0.227164 0
M  V30 4202 O 404.529 1.6286 0.796642 0
M  V30 4203 C 404.577 2.49399 -2.60447 0
M  V30 4204 O 403.681 3.51567 -2.15578 0
M  V30 4205 H 403.022 0.400115 -0.52991 0
M  V30 4206 H 405.552 0.676009 -1.93109 0
M  V30 4207 H 405.562 2.95996 -2.80803 0
M  V30 4208 H 404.237 2.10873 -3.58477 0
M  V30 4209 H 402.814 3.11289 -2.05313 0
M  V30 4210 N 404.999 1.35443 0.805782 0
M  V30 4211 C 405.929 1.31095 1.93226 0
M  V30 4212 C 406.91 0.185244 1.69088 0
M  V30 4213 O 408.095 0.380332 1.90439 0
M  V30 4214 C 405.225 1.08299 3.29983 0
M  V30 4215 C 404.179 2.17519 3.68605 0
M  V30 4216 C 403.505 1.79887 5.03532 0
M  V30 4217 C 404.805 3.5949 3.78898 0
M  V30 4218 H 406.499 2.25352 1.97122 0
M  V30 4219 H 404.045 1.0848 0.946996 0
M  V30 4220 H 405.998 1.03897 4.08391 0
M  V30 4221 H 404.722 0.104885 3.26432 0
M  V30 4222 H 403.381 2.2102 2.92482 0
M  V30 4223 H 403.029 0.80693 4.96485 0
M  V30 4224 H 402.729 2.53001 5.30344 0
M  V30 4225 H 404.253 1.77011 5.84379 0
M  V30 4226 H 405.667 3.58307 4.47536 0
M  V30 4227 H 404.064 4.31371 4.1718 0
M  V30 4228 H 405.134 3.95584 2.80431 0
M  V30 4229 N 406.477 -1.02803 1.19454 0
M  V30 4230 C 407.407 -2.12999 0.956758 0
M  V30 4231 C 408.388 -1.69743 -0.110188 0
M  V30 4232 O 409.573 -1.94148 0.0450038 0
M  V30 4233 C 406.703 -3.43746 0.495553 0
M  V30 4234 C 405.657 -4.00688 1.50443 0
M  V30 4235 C 404.983 -5.27067 0.900275 0
M  V30 4236 C 406.283 -4.35397 2.8849 0
M  V30 4237 H 407.977 -2.33148 1.87836 0
M  V30 4238 H 405.523 -1.12045 0.904539 0
M  V30 4239 H 407.476 -4.2021 0.316493 0
M  V30 4240 H 406.2 -3.23321 -0.461646 0
M  V30 4241 H 404.859 -3.2632 1.67065 0
M  V30 4242 H 404.507 -5.02959 -0.064503 0
M  V30 4243 H 404.207 -5.66127 1.57397 0
M  V30 4244 H 405.731 -6.06196 0.73203 0
M  V30 4245 H 407.145 -5.02795 2.75446 0
M  V30 4246 H 405.542 -4.85541 3.52661 0
M  V30 4247 H 406.612 -3.44662 3.41081 0
M  V30 4248 N 407.956 -0.998596 -1.21925 0
M  V30 4249 C 408.866 -0.562736 -2.27751 0
M  V30 4250 C 409.882 0.391203 -1.69545 0
M  V30 4251 O 411.058 0.256625 -1.99758 0
M  V30 4252 C 408.123 0.11012 -3.46525 0
M  V30 4253 C 407.184 -0.887495 -4.20026 0
M  V30 4254 C 406.417 -0.246654 -5.3313 0
M  V30 4255 O 406.64 0.958088 -5.62296 0
M  V30 4256 O 405.574 -0.954374 -5.94286 0
M  V30 4257 H 409.4 -1.44329 -2.67213 0
M  V30 4258 H 406.985 -0.767135 -1.28201 0
M  V30 4259 H 408.867 0.486756 -4.18579 0
M  V30 4260 H 407.542 0.965154 -3.08976 0
M  V30 4261 H 406.449 -1.31517 -3.5022 0
M  V30 4262 H 407.782 -1.71191 -4.6147 0
M  V30 4263 N 409.434 1.37368 -0.772513 0
M  V30 4264 C 410.364 2.32856 -0.173304 0
M  V30 4265 C 411.345 1.55818 0.682262 0
M  V30 4266 O 412.53 1.84052 0.619566 0
M  V30 4267 C 409.66 3.40048 0.706007 0
M  V30 4268 C 408.614 4.27973 -0.0483144 0
M  V30 4269 C 407.94 5.26184 0.950491 0
M  V30 4270 C 409.24 5.07665 -1.22776 0
M  V30 4271 H 410.934 2.83217 -0.971002 0
M  V30 4272 H 408.48 1.3617 -0.468377 0
M  V30 4273 H 410.433 4.05827 1.13501 0
M  V30 4274 H 409.157 2.88214 1.53623 0
M  V30 4275 H 407.816 3.63726 -0.458107 0
M  V30 4276 H 407.464 4.7063 1.77529 0
M  V30 4277 H 407.164 5.85872 0.450314 0
M  V30 4278 H 408.688 5.94838 1.37842 0
M  V30 4279 H 410.102 5.66578 -0.875366 0
M  V30 4280 H 408.499 5.76681 -1.66007 0
M  V30 4281 H 409.569 4.40294 -2.03149 0
M  V30 4282 N 410.912 0.523116 1.48665 0
M  V30 4283 C 412.159 -0.0134763 2.02496 0
M  V30 4284 C 412.487 -1.3493 1.40086 0
M  V30 4285 O 411.742 -1.88286 0.533567 0
M  V30 4286 C 412.041 -0.191671 3.56886 0
M  V30 4287 C 411.707 1.06893 4.38046 0
M  V30 4288 C 410.369 1.41443 4.59943 0
M  V30 4289 C 412.721 1.90584 4.85106 0
M  V30 4290 C 410.049 2.59594 5.26144 0
M  V30 4291 C 412.401 3.07907 5.52609 0
M  V30 4292 C 411.065 3.42811 5.72745 0
M  V30 4293 H 410.335 -0.00493133 0.740984 0
M  V30 4294 H 412.982 0.687751 1.78724 0
M  V30 4295 H 411.287 -0.97561 3.79459 0
M  V30 4296 H 412.984 -0.621659 3.96152 0
M  V30 4297 H 409.574 0.789848 4.21259 0
M  V30 4298 H 413.758 1.65203 4.67997 0
M  V30 4299 H 409.014 2.86847 5.39934 0
M  V30 4300 H 413.188 3.73066 5.88043 0
M  V30 4301 H 410.815 4.34462 6.23816 0
M  V30 4302 N 412.39 -1.55475 0.257931 0
M  V30 4303 C 413.337 -2.21837 -0.636939 0
M  V30 4304 C 414.307 -1.18596 -1.16294 0
M  V30 4305 O 415.492 -1.47081 -1.21539 0
M  V30 4306 C 412.632 -2.9301 -1.82317 0
M  V30 4307 C 411.745 -4.10931 -1.33265 0
M  V30 4308 C 410.88 -4.69791 -2.47931 0
M  V30 4309 C 409.919 -5.7994 -1.95796 0
M  V30 4310 N 409.056 -6.32935 -3.0387 0
M  V30 4311 H 413.896 -2.9793 -0.0643591 0
M  V30 4312 H 411.433 -1.47086 -0.0200031 0
M  V30 4313 H 413.391 -3.3248 -2.52018 0
M  V30 4314 H 412.021 -2.1937 -2.36805 0
M  V30 4315 H 411.073 -3.76699 -0.52931 0
M  V30 4316 H 412.385 -4.90417 -0.910654 0
M  V30 4317 H 411.539 -5.11892 -3.25656 0
M  V30 4318 H 410.278 -3.89545 -2.93438 0
M  V30 4319 H 409.283 -5.37305 -1.16546 0
M  V30 4320 H 410.508 -6.62043 -1.51246 0
M  V30 4321 H 408.454 -5.55591 -3.48791 0
M  V30 4322 H 408.371 -7.07645 -2.66035 0
M  V30 4323 H 409.639 -6.79695 -3.81621 0
M  V30 4324 N 413.868 0.0150385 -1.57593 0
M  V30 4325 C 414.798 1.01047 -2.10503 0
M  V30 4326 C 415.779 1.36816 -1.01071 0
M  V30 4327 O 416.964 1.45455 -1.28672 0
M  V30 4328 C 414.094 2.30708 -2.59598 0
M  V30 4329 C 413.048 2.09142 -3.73421 0
M  V30 4330 C 412.374 3.44685 -4.08774 0
M  V30 4331 C 413.674 1.46619 -5.01298 0
M  V30 4332 H 415.368 0.569978 -2.93925 0
M  V30 4333 H 412.914 0.272724 -1.41394 0
M  V30 4334 H 414.867 3.00687 -2.95238 0
M  V30 4335 H 413.591 2.76843 -1.73279 0
M  V30 4336 H 412.25 1.41592 -3.38153 0
M  V30 4337 H 411.898 3.88495 -3.195 0
M  V30 4338 H 411.598 3.31077 -4.8545 0
M  V30 4339 H 413.122 4.16004 -4.4696 0
M  V30 4340 H 414.536 2.06535 -5.34805 0
M  V30 4341 H 412.933 1.43544 -5.82679 0
M  V30 4342 H 414.003 0.433611 -4.82957 0
M  V30 4343 N 415.346 1.54954 0.287554 0
M  V30 4344 C 416.276 1.89839 1.35954 0
M  V30 4345 C 417.257 0.758675 1.52244 0
M  V30 4346 O 418.442 1.01557 1.65529 0
M  V30 4347 C 415.572 2.15753 2.72154 0
M  V30 4348 C 414.526 3.3159 2.70614 0
M  V30 4349 C 413.852 3.42952 4.10229 0
M  V30 4350 C 415.152 4.68359 2.31165 0
M  V30 4351 H 416.846 2.79625 1.07007 0
M  V30 4352 H 414.392 1.3454 0.513316 0
M  V30 4353 H 416.345 2.38743 3.47246 0
M  V30 4354 H 415.069 1.22752 3.02654 0
M  V30 4355 H 413.728 3.08545 1.97979 0
M  V30 4356 H 413.376 2.47443 4.37928 0
M  V30 4357 H 413.076 4.20826 4.10097 0
M  V30 4358 H 414.6 3.68218 4.87081 0
M  V30 4359 H 416.014 4.9099 2.95976 0
M  V30 4360 H 414.411 5.49044 2.42221 0
M  V30 4361 H 415.481 4.68165 1.26291 0
M  V30 4362 N 416.824 -0.551391 1.4764 0
M  V30 4363 C 417.734 -1.68525 1.63207 0
M  V30 4364 C 418.75 -1.6621 0.514815 0
M  V30 4365 O 419.926 -1.85551 0.783113 0
M  V30 4366 C 416.991 -3.05025 1.64805 0
M  V30 4367 C 416.052 -3.18362 2.88 0
M  V30 4368 C 415.285 -4.4835 2.89513 0
M  V30 4369 O 415.508 -5.34163 2.00065 0
M  V30 4370 O 414.442 -4.65602 3.81443 0
M  V30 4371 H 418.268 -1.58333 2.59161 0
M  V30 4372 H 415.853 -0.722063 1.30792 0
M  V30 4373 H 417.735 -3.86245 1.68502 0
M  V30 4374 H 416.41 -3.15587 0.720197 0
M  V30 4375 H 415.317 -2.36518 2.89845 0
M  V30 4376 H 416.65 -3.12707 3.80099 0
M  V30 4377 N 418.302 -1.35869 -0.798587 0
M  V30 4378 C 419.579 -1.20145 -1.54352 0
M  V30 4379 C 419.959 0.216161 -2.0999 0
M  V30 4380 O 419.307 1.22068 -1.93162 0
M  V30 4381 C 419.517 -2.27602 -2.64572 0
M  V30 4382 C 420.865 -2.63811 -3.32699 0
M  V30 4383 O 421.889 -2.26576 -2.74849 0
M  V30 4384 O 420.748 -3.27866 -4.37226 0
M  V30 4385 H 417.842 -0.467248 -0.682355 0
M  V30 4386 H 420.388 -1.47574 -0.837859 0
M  V30 4387 H 419.16 -3.2265 -2.21388 0
M  V30 4388 H 418.783 -2.01488 -3.42766 0
M  V30 4389 N 419.78 1.02168 -1.19998 0
M  V30 4390 C 421.01 1.79036 -1.031 0
M  V30 4391 C 421.418 1.84409 0.423078 0
M  V30 4392 O 420.761 1.29228 1.30559 0
M  V30 4393 C 420.823 3.25185 -1.53281 0
M  V30 4394 C 420.487 3.43431 -3.01503 0
M  V30 4395 C 421.484 3.33063 -3.99206 0
M  V30 4396 C 419.169 3.69412 -3.40353 0
M  V30 4397 C 421.163 3.48413 -5.33748 0
M  V30 4398 C 418.85 3.84406 -4.75053 0
M  V30 4399 C 419.848 3.7391 -5.71559 0
M  V30 4400 O 419.536 3.88452 -7.03818 0
M  V30 4401 H 419.268 0.570043 -0.363355 0
M  V30 4402 H 421.822 1.29524 -1.59414 0
M  V30 4403 H 420.052 3.75756 -0.913483 0
M  V30 4404 H 421.741 3.83671 -1.32481 0
M  V30 4405 H 422.507 3.12934 -3.70537 0
M  V30 4406 H 418.386 3.76671 -2.65782 0
M  V30 4407 H 421.93 3.40137 -6.09059 0
M  V30 4408 H 417.827 4.04035 -5.03415 0
M  V30 4409 H 418.595 4.055 -7.10993 0
M  V30 4410 N 421.258 1.00505 1.21394 0
M  V30 4411 C 422.498 0.696149 1.9218 0
M  V30 4412 C 422.862 -0.759099 1.76357 0
M  V30 4413 O 424.063 -1.17998 2.41516 0
M  V30 4414 C 422.334 1.10571 3.39866 0
M  V30 4415 S 423.893 0.91702 4.29111 0
M  V30 4416 H 420.711 0.254147 0.664026 0
M  V30 4417 H 423.313 1.28988 1.46909 0
M  V30 4418 H 422.017 2.16096 3.489 0
M  V30 4419 H 421.548 0.504268 3.90155 0
M  V30 4420 H 423.563 -0.185855 4.95852 0
M  V30 4421 N 422.737 -1.36956 0.779787 0
M  V30 4422 C 423.685 -2.32053 0.15942 0
M  V30 4423 C 424.679 -1.55333 -0.675878 0
M  V30 4424 O 425.885 -1.70668 -0.57204 0
M  V30 4425 H 422.26 -0.751286 0.0327707 0
M  V30 4426 H 424.231 -2.8195 0.977078 0
M  V30 4427 C 422.98 -3.40602 -0.698977 0
M  V30 4428 H 422.303 -3.99746 -0.0655966 0
M  V30 4429 H 423.743 -4.09486 -1.09989 0
M  V30 4430 C 422.202 -2.81359 -1.85307 0
M  V30 4431 O 422.732 -2.72751 -2.94906 0
M  V30 4432 N 420.938 -2.38786 -1.65619 0
M  V30 4433 H 420.485 -2.45987 -0.764725 0
M  V30 4434 H 420.443 -1.99493 -2.43002 0
M  V30 4435 N 424.215 -0.530993 -1.48385 0
M  V30 4436 C 425.464 0.00474348 -2.01699 0
M  V30 4437 C 425.777 1.35227 -1.41325 0
M  V30 4438 O 426.983 1.97643 -1.86144 0
M  V30 4439 C 425.439 0.0588473 -3.59852 0
M  V30 4440 C 425.047 -1.28385 -4.2921 0
M  V30 4441 C 426.791 0.543358 -4.21008 0
M  V30 4442 C 424.698 -1.19028 -5.79298 0
M  V30 4443 H 423.628 0.00554317 -0.75398 0
M  V30 4444 H 426.279 -0.674924 -1.70637 0
M  V30 4445 H 424.661 0.803612 -3.8776 0
M  V30 4446 H 425.835 -2.04426 -4.12973 0
M  V30 4447 H 424.15 -1.70418 -3.7993 0
M  V30 4448 H 426.747 0.631351 -5.3096 0
M  V30 4449 H 427.09 1.54937 -3.86394 0
M  V30 4450 H 427.623 -0.145754 -3.97533 0
M  V30 4451 H 424.362 -2.17147 -6.18488 0
M  V30 4452 H 423.882 -0.471246 -5.97946 0
M  V30 4453 H 425.561 -0.881365 -6.40969 0
M  V30 4454 N 425.693 1.55336 -0.266172 0
M  V30 4455 C 426.97 1.91372 0.404486 0
M  V30 4456 C 427.35 1.18935 1.74407 0
M  V30 4457 O 426.698 0.3132 2.26343 0
M  V30 4458 C 426.908 3.44581 0.553593 0
M  V30 4459 C 428.256 4.16196 0.840618 0
M  V30 4460 O 429.28 3.50426 0.638739 0
M  V30 4461 O 428.139 5.32567 1.22618 0
M  V30 4462 H 425.233 0.797194 0.220025 0
M  V30 4463 H 427.779 1.66813 -0.311664 0
M  V30 4464 H 426.551 3.89357 -0.389498 0
M  V30 4465 H 426.174 3.75065 1.31955 0
M  V30 4466 N 427.171 -0.0066808 1.57599 0
M  V30 4467 C 428.104 -1.03397 2.03431 0
M  V30 4468 C 429.082 -1.33872 0.922877 0
M  V30 4469 O 430.266 -1.4615 1.19048 0
M  V30 4470 C 427.393 -2.36325 2.42628 0
M  V30 4471 C 426.439 -2.21557 3.64438 0
M  V30 4472 S 427.272 -1.54789 5.12641 0
M  V30 4473 C 428.428 -2.8916 5.55101 0
M  V30 4474 H 428.661 -0.643687 2.90248 0
M  V30 4475 H 426.194 -0.217349 1.52863 0
M  V30 4476 H 428.152 -3.12759 2.65879 0
M  V30 4477 H 426.813 -2.72495 1.56222 0
M  V30 4478 H 426.006 -3.1974 3.89592 0
M  V30 4479 H 425.608 -1.53267 3.41153 0
M  V30 4480 H 427.9 -3.8547 5.57153 0
M  V30 4481 H 428.843 -2.68713 6.55133 0
M  V30 4482 H 429.251 -2.92762 4.82649 0
M  V30 4483 N 428.649 -1.55105 -0.279332 0
M  V30 4484 C 430.065 -1.46803 -0.626187 0
M  V30 4485 C 430.265 -0.676939 -1.89789 0
M  V30 4486 O 429.321 -0.19326 -2.51759 0
M  V30 4487 C 430.634 -2.90962 -0.759034 0
M  V30 4488 C 432.182 -3.01138 -0.853504 0
M  V30 4489 C 432.657 -4.46539 -1.01818 0
M  V30 4490 N 434.148 -4.50341 -1.08386 0
M  V30 4491 C 434.883 -5.60053 -1.22996 0
M  V30 4492 N 434.379 -6.79645 -1.34366 0
M  V30 4493 N 436.172 -5.47783 -1.26056 0
M  V30 4494 H 428.323 -2.04996 0.555921 0
M  V30 4495 H 430.586 -0.929325 0.187239 0
M  V30 4496 H 430.292 -3.51544 0.104852 0
M  V30 4497 H 430.166 -3.39619 -1.64131 0
M  V30 4498 H 432.553 -2.40658 -1.70786 0
M  V30 4499 H 432.634 -2.55745 0.0532466 0
M  V30 4500 H 432.278 -5.0762 -0.168504 0
M  V30 4501 H 432.208 -4.89583 -1.93948 0
M  V30 4502 H 434.699 -3.64191 -1.00864 0
M  V30 4503 H 435.012 -7.59012 -1.4533 0
M  V30 4504 H 433.357 -6.82469 -1.31382 0
M  V30 4505 H 436.548 -4.53294 -1.168 0
M  V30 4506 H 436.721 -6.33331 -1.37098 0
M  V30 4507 N 430.127 0.543554 -1.4793 0
M  V30 4508 C 431.374 1.30008 -1.55255 0
M  V30 4509 C 431.702 1.93245 -0.220612 0
M  V30 4510 O 430.957 1.79141 0.787843 0
M  V30 4511 C 431.256 2.42078 -2.62932 0
M  V30 4512 C 430.922 1.96583 -4.0579 0
M  V30 4513 C 429.584 1.83893 -4.44676 0
M  V30 4514 C 431.936 1.62034 -4.95373 0
M  V30 4515 C 429.264 1.34969 -5.70964 0
M  V30 4516 C 431.616 1.14577 -6.22137 0
M  V30 4517 C 430.28 1.00493 -6.59892 0
M  V30 4518 H 429.55 0.475735 -0.568117 0
M  V30 4519 H 432.197 0.608075 -1.81589 0
M  V30 4520 H 430.502 3.16892 -2.30406 0
M  V30 4521 H 432.199 3.00236 -2.65818 0
M  V30 4522 H 428.789 2.07407 -3.75074 0
M  V30 4523 H 432.973 1.70705 -4.66019 0
M  V30 4524 H 428.229 1.2274 -5.98953 0
M  V30 4525 H 432.403 0.869109 -6.90955 0
M  V30 4526 H 430.03 0.623624 -7.57638 0
M  V30 4527 N 431.605 1.3629 0.791371 0
M  V30 4528 C 432.833 1.33562 1.58016 0
M  V30 4529 C 433.248 -0.0835616 1.88615 0
M  V30 4530 O 432.605 -1.0399 1.49974 0
M  V30 4531 C 432.656 2.15517 2.90232 0
M  V30 4532 O 432.377 3.51902 2.60953 0
M  V30 4533 C 433.878 2.20546 3.84544 0
M  V30 4534 H 431.098 0.458226 0.490173 0
M  V30 4535 H 433.642 1.79361 0.982345 0
M  V30 4536 H 431.797 1.73278 3.46487 0
M  V30 4537 H 432.211 3.94644 3.4548 0
M  V30 4538 H 433.685 2.82252 4.74382 0
M  V30 4539 H 434.162 1.20838 4.2225 0
M  V30 4540 H 434.768 2.63013 3.34222 0
M  V30 4541 N 433.083 -1.0153 1.20538 0
M  V30 4542 C 434.031 -2.12215 0.952235 0
M  V30 4543 C 435.025 -1.69123 -0.0968735 0
M  V30 4544 O 436.231 -1.7992 0.0536006 0
M  V30 4545 H 432.606 -0.693576 0.290613 0
M  V30 4546 H 434.577 -2.3075 1.89201 0
M  V30 4547 C 433.326 -3.43755 0.522287 0
M  V30 4548 H 432.649 -3.7734 1.32115 0
M  V30 4549 H 434.089 -4.22254 0.384389 0
M  V30 4550 C 432.548 -3.28088 -0.765489 0
M  V30 4551 O 433.078 -3.57921 -1.8236 0
M  V30 4552 N 431.284 -2.81333 -0.728011 0
M  V30 4553 H 430.831 -2.57255 0.133332 0
M  V30 4554 H 430.789 -2.71232 -1.58999 0
M  V30 4555 N 434.561 -1.01147 -1.20859 0
M  V30 4556 C 435.491 -0.597663 -2.25722 0
M  V30 4557 C 436.472 0.384744 -1.65692 0
M  V30 4558 O 437.657 0.271303 -1.92296 0
M  V30 4559 C 434.787 0.0700149 -3.47229 0
M  V30 4560 C 433.741 -0.832843 -4.19819 0
M  V30 4561 C 433.067 -0.0312202 -5.34691 0
M  V30 4562 C 434.367 -2.1385 -4.76514 0
M  V30 4563 H 436.061 -1.47423 -2.60589 0
M  V30 4564 H 433.607 -0.710301 -1.25263 0
M  V30 4565 H 435.56 0.37103 -4.19763 0
M  V30 4566 H 434.284 0.981259 -3.11511 0
M  V30 4567 H 432.943 -1.11778 -3.49144 0
M  V30 4568 H 432.591 0.881515 -4.95215 0
M  V30 4569 H 432.291 -0.632434 -5.84187 0
M  V30 4570 H 433.815 0.26346 -6.10031 0
M  V30 4571 H 435.229 -1.9002 -5.40893 0
M  V30 4572 H 433.626 -2.69012 -5.36426 0
M  V30 4573 H 434.696 -2.80495 -3.95538 0
M  V30 4574 N 436.039 1.36541 -0.78704 0
M  V30 4575 C 437.45 1.81873 -0.421807 0
M  V30 4576 C 437.801 1.65487 1.05397 0
M  V30 4577 O 436.926 1.17448 1.81755 0
M  V30 4578 C 437.521 3.30192 -0.758841 0
M  V30 4579 C 436.08 3.73743 -0.446468 0
M  V30 4580 C 435.227 2.58844 -0.994728 0
M  V30 4581 H 438.178 1.24796 -0.98039 0
M  V30 4582 H 438.199 3.80468 -0.0490648 0
M  V30 4583 H 437.711 3.42087 -1.83299 0
M  V30 4584 H 435.812 3.6741 0.619739 0
M  V30 4585 H 435.925 4.69272 -0.965415 0
M  V30 4586 H 434.289 2.51245 -0.418087 0
M  V30 4587 H 435.072 2.73525 -2.07458 0
M  V30 4588 N 437.518 0.538854 1.48102 0
M  V30 4589 C 438.764 0.00801365 2.02798 0
M  V30 4590 C 439.097 -1.3309 1.41424 0
M  V30 4591 O 438.372 -1.86169 0.563158 0
M  V30 4592 C 438.655 -0.104589 3.59948 0
M  V30 4593 C 438.508 1.26012 4.31788 0
M  V30 4594 C 439.827 -0.827055 4.32259 0
M  V30 4595 H 436.946 0.00438624 0.736987 0
M  V30 4596 H 439.588 0.6976 1.7673 0
M  V30 4597 H 437.738 -0.691893 3.82289 0
M  V30 4598 H 439.41 1.88922 4.2084 0
M  V30 4599 H 437.653 1.83968 3.92859 0
M  V30 4600 H 438.324 1.13424 5.40221 0
M  V30 4601 H 440.8 -0.328578 4.14801 0
M  V30 4602 H 439.676 -0.87476 5.41885 0
M  V30 4603 H 439.937 -1.87927 4.0017 0
M  V30 4604 N 438.996 -1.55193 0.274407 0
M  V30 4605 C 440.412 -1.59401 -0.0797543 0
M  V30 4606 C 440.612 -1.29162 -1.54659 0
M  V30 4607 O 439.668 -1.05215 -2.29534 0
M  V30 4608 C 440.981 -2.99257 0.294238 0
M  V30 4609 C 442.529 -3.12072 0.240796 0
M  V30 4610 C 443.004 -4.54194 0.589218 0
M  V30 4611 N 444.495 -4.60033 0.540744 0
M  V30 4612 C 445.23 -5.68027 0.783147 0
M  V30 4613 N 444.726 -6.8417 1.09013 0
M  V30 4614 N 446.519 -5.57572 0.711993 0
M  V30 4615 H 438.67 -1.73113 1.23067 0
M  V30 4616 H 440.933 -0.807197 0.497129 0
M  V30 4617 H 440.639 -3.26217 1.31435 0
M  V30 4618 H 440.513 -3.75427 -0.365281 0
M  V30 4619 H 442.9 -2.84877 -0.770024 0
M  V30 4620 H 442.981 -2.38117 0.934563 0
M  V30 4621 H 442.625 -4.82115 1.59772 0
M  V30 4622 H 442.555 -5.26448 -0.126331 0
M  V30 4623 H 445.046 -3.76599 0.313327 0
M  V30 4624 H 445.359 -7.6243 1.26178 0
M  V30 4625 H 443.704 -6.85787 1.12789 0
M  V30 4626 H 446.895 -4.65714 0.472014 0
M  V30 4627 H 447.068 -6.41659 0.90429 0
M  V30 4628 N 440.474 -0.00167713 -1.576 0
M  V30 4629 C 441.384 1.00548 -2.1196 0
M  V30 4630 C 442.4 1.3758 -1.06526 0
M  V30 4631 O 443.576 1.46278 -1.38436 0
M  V30 4632 C 440.641 2.27809 -2.6135 0
M  V30 4633 C 439.702 1.97074 -3.81393 0
M  V30 4634 C 438.935 3.18267 -4.28417 0
M  V30 4635 O 439.158 4.30009 -3.74765 0
M  V30 4636 O 438.092 3.02167 -5.20556 0
M  V30 4637 H 441.918 0.573373 -2.98238 0
M  V30 4638 H 439.503 0.217255 -1.47812 0
M  V30 4639 H 441.385 3.02568 -2.93309 0
M  V30 4640 H 440.06 2.70254 -1.78169 0
M  V30 4641 H 438.967 1.19785 -3.54404 0
M  V30 4642 H 440.3 1.59464 -4.65652 0
M  V30 4643 N 441.952 1.55251 0.271103 0
M  V30 4644 C 443.177 1.80306 1.02491 0
M  V30 4645 C 443.602 0.575457 1.79081 0
M  V30 4646 O 442.96 -0.474987 1.74967 0
M  V30 4647 C 443.008 3.02832 1.95768 0
M  V30 4648 O 442.112 2.78051 3.04568 0
M  V30 4649 H 441.453 0.595896 0.292923 0
M  V30 4650 H 443.983 2.02397 0.299436 0
M  V30 4651 H 443.993 3.31616 2.37686 0
M  V30 4652 H 442.668 3.9183 1.39434 0
M  V30 4653 H 441.245 2.60369 2.66951 0
M  V30 4654 N 443.43 -0.535701 1.48216 0
M  V30 4655 C 444.707 -1.29683 1.46429 0
M  V30 4656 C 445.087 -2.10391 0.172852 0
M  V30 4657 O 444.435 -2.12282 -0.845488 0
M  V30 4658 C 444.645 -2.18313 2.72287 0
M  V30 4659 C 445.993 -2.78639 3.20383 0
M  V30 4660 O 447.017 -2.28604 2.73164 0
M  V30 4661 O 445.876 -3.69636 4.02531 0
M  V30 4662 H 442.97 -0.585026 0.584529 0
M  V30 4663 H 445.516 -0.552827 1.60443 0
M  V30 4664 H 444.288 -1.58421 3.57797 0
M  V30 4665 H 443.911 -2.99971 2.60966 0
M  V30 4666 N 444.908 -1.36708 -0.784132 0
M  V30 4667 C 445.84 -1.27333 -1.90575 0
M  V30 4668 C 446.853 -0.191706 -1.61667 0
M  V30 4669 O 448.042 -0.446854 -1.72816 0
M  V30 4670 C 445.142 -0.943177 -3.25511 0
M  V30 4671 C 444.315 -2.12776 -3.82158 0
M  V30 4672 C 443.374 -1.76983 -4.95544 0
M  V30 4673 O 442.4 -2.49134 -5.11782 0
M  V30 4674 N 443.602 -0.706624 -5.76183 0
M  V30 4675 H 446.367 -2.23974 -1.99138 0
M  V30 4676 H 443.928 -1.30171 -0.962656 0
M  V30 4677 H 445.92 -0.684799 -3.98864 0
M  V30 4678 H 444.49 -0.0657333 -3.12531 0
M  V30 4679 H 443.71 -2.54863 -3.0073 0
M  V30 4680 H 444.998 -2.91904 -4.16737 0
M  V30 4681 H 444.396 -0.107643 -5.65598 0
M  V30 4682 H 442.953 -0.50808 -6.49817 0
M  V30 4683 N 446.386 1.0089 -1.21074 0
M  V30 4684 C 447.802 1.2695 -0.967257 0
M  V30 4685 C 448.002 1.9846 0.348673 0
M  V30 4686 O 447.058 2.28459 1.0753 0
M  V30 4687 C 448.371 2.09697 -2.15517 0
M  V30 4688 C 449.919 2.22937 -2.197 0
M  V30 4689 C 450.394 3.09064 -3.37999 0
M  V30 4690 N 451.885 3.16653 -3.38061 0
M  V30 4691 C 452.62 3.8354 -4.26245 0
M  V30 4692 N 452.116 4.52488 -5.2462 0
M  V30 4693 N 453.909 3.80141 -4.14064 0
M  V30 4694 H 446.06 0.529005 -2.05707 0
M  V30 4695 H 448.323 0.296148 -0.900556 0
M  V30 4696 H 448.029 1.64497 -3.10859 0
M  V30 4697 H 447.903 3.10444 -2.14253 0
M  V30 4698 H 450.29 2.67357 -1.24916 0
M  V30 4699 H 450.371 1.21673 -2.2501 0
M  V30 4700 H 450.015 2.65347 -4.33074 0
M  V30 4701 H 449.945 4.10433 -3.29928 0
M  V30 4702 H 452.436 2.67566 -2.66865 0
M  V30 4703 H 452.749 5.01219 -5.88217 0
M  V30 4704 H 451.094 4.51288 -5.28549 0
M  V30 4705 H 454.285 3.25427 -3.36474 0
M  V30 4706 H 454.458 4.31992 -4.82998 0
M  V30 4707 N 447.864 1.01787 1.20321 0
M  V30 4708 C 449.11 0.708985 1.90003 0
M  V30 4709 C 449.443 -0.759572 1.78729 0
M  V30 4710 O 448.718 -1.55198 1.17234 0
M  V30 4711 C 449.001 1.1469 3.41348 0
M  V30 4712 C 448.854 2.67586 3.61549 0
M  V30 4713 C 450.173 0.71915 4.34185 0
M  V30 4714 H 447.292 0.259034 0.689978 0
M  V30 4715 H 449.934 1.26584 1.41692 0
M  V30 4716 H 448.084 0.673128 3.82624 0
M  V30 4717 H 449.756 3.22826 3.29517 0
M  V30 4718 H 447.999 3.085 3.04976 0
M  V30 4719 H 448.67 2.93281 4.67643 0
M  V30 4720 H 451.146 1.12647 4.00562 0
M  V30 4721 H 450.022 1.05358 5.38694 0
M  V30 4722 H 450.283 -0.379111 4.40472 0
M  V30 4723 N 449.342 -1.36122 0.79427 0
M  V30 4724 C 450.589 -1.99111 0.368905 0
M  V30 4725 C 450.917 -1.63032 -1.0607 0
M  V30 4726 O 450.172 -0.879303 -1.74833 0
M  V30 4727 C 450.471 -3.5409 0.48527 0
M  V30 4728 C 450.137 -4.10003 1.87638 0
M  V30 4729 C 448.799 -4.24986 2.257 0
M  V30 4730 C 451.151 -4.40423 2.78706 0
M  V30 4731 C 448.479 -4.67701 3.54221 0
M  V30 4732 C 450.831 -4.84573 4.0666 0
M  V30 4733 C 449.495 -4.97761 4.44737 0
M  V30 4734 H 448.765 -0.7286 0.134992 0
M  V30 4735 H 451.412 -1.62534 1.01267 0
M  V30 4736 H 449.717 -3.91052 -0.241984 0
M  V30 4737 H 451.414 -4.00766 0.137109 0
M  V30 4738 H 448.004 -3.98784 1.57064 0
M  V30 4739 H 452.188 -4.28412 2.50553 0
M  V30 4740 H 447.444 -4.761 3.83587 0
M  V30 4741 H 451.618 -5.07074 4.77336 0
M  V30 4742 H 449.245 -5.30618 5.44379 0
M  V30 4743 N 450.82 -0.546701 -1.47814 0
M  V30 4744 C 452.066 -0.0187684 -2.02791 0
M  V30 4745 C 452.399 1.32338 -1.42128 0
M  V30 4746 O 451.674 1.85867 -0.573023 0
M  V30 4747 C 451.957 0.0854985 -3.59998 0
M  V30 4748 C 451.81 -1.283 -4.31114 0
M  V30 4749 C 453.129 0.80412 -4.32691 0
M  V30 4750 H 450.248 -0.0082946 -0.736953 0
M  V30 4751 H 452.89 -0.706962 -1.76358 0
M  V30 4752 H 451.04 0.671609 -3.82651 0
M  V30 4753 H 452.712 -1.91151 -4.19832 0
M  V30 4754 H 450.955 -1.86049 -3.91878 0
M  V30 4755 H 451.626 -1.16287 -5.39612 0
M  V30 4756 H 454.102 0.306576 -4.14969 0
M  V30 4757 H 452.978 0.846011 -5.42341 0
M  V30 4758 H 453.239 1.85802 -4.01161 0
M  V30 4759 N 452.299 1.55045 -0.282633 0
M  V30 4760 C 453.262 2.21515 0.588539 0
M  V30 4761 C 454.262 1.19535 1.07554 0
M  V30 4762 O 455.452 1.44391 0.974514 0
M  V30 4763 C 452.584 2.88704 1.8128 0
M  V30 4764 H 453.777 2.99899 0.00806397 0
M  V30 4765 H 451.33 1.56265 -0.0333067 0
M  V30 4766 H 452.065 2.14352 2.43359 0
M  V30 4767 H 451.85 3.63443 1.47144 0
M  V30 4768 H 453.34 3.39465 2.43214 0
M  V30 4769 N 453.777 0.010035 1.57597 0
M  V30 4770 C 455.054 -0.710296 1.82248 0
M  V30 4771 C 455.434 -1.91426 0.889911 0
M  V30 4772 O 454.782 -2.28424 -0.0590292 0
M  V30 4773 C 454.992 -1.10655 3.30993 0
M  V30 4774 C 456.34 -1.50621 3.96987 0
M  V30 4775 O 457.364 -1.20007 3.35375 0
M  V30 4776 O 456.223 -2.07587 5.05539 0
M  V30 4777 H 453.317 -0.34673 0.750804 0
M  V30 4778 H 455.863 0.0362578 1.69661 0
M  V30 4779 H 454.635 -0.248826 3.90508 0
M  V30 4780 H 454.258 -1.91189 3.48615 0
M  V30 4781 N 455.255 -1.55392 -0.262866 0
M  V30 4782 C 456.504 -1.75679 -0.990943 0
M  V30 4783 C 456.817 -0.57097 -1.87081 0
M  V30 4784 O 458.023 -0.656486 -2.63444 0
M  V30 4785 C 456.479 -3.10964 -1.81188 0
M  V30 4786 C 456.087 -4.37146 -0.980188 0
M  V30 4787 C 457.831 -3.40597 -2.53365 0
M  V30 4788 C 455.738 -5.63466 -1.7961 0
M  V30 4789 H 454.668 -0.654868 -0.373716 0
M  V30 4790 H 457.319 -1.81841 -0.246203 0
M  V30 4791 H 455.701 -2.98867 -2.59797 0
M  V30 4792 H 456.875 -4.60187 -0.237558 0
M  V30 4793 H 455.19 -4.14731 -0.372497 0
M  V30 4794 H 457.787 -4.32186 -3.14833 0
M  V30 4795 H 458.13 -2.6119 -3.24169 0
M  V30 4796 H 458.663 -3.53838 -1.81779 0
M  V30 4797 H 455.402 -6.4565 -1.13209 0
M  V30 4798 H 454.922 -5.44552 -2.51443 0
M  V30 4799 H 456.601 -6.02139 -2.36723 0
M  V30 4800 N 456.733 0.527833 -1.48498 0
M  V30 4801 C 457.68 1.6322 -1.6318 0
M  V30 4802 C 458.65 1.59199 -0.473815 0
M  V30 4803 O 459.835 1.77591 -0.697563 0
M  V30 4804 C 456.975 3.01474 -1.67951 0
M  V30 4805 C 456.088 3.15713 -2.94871 0
M  V30 4806 C 455.223 4.44539 -2.90789 0
M  V30 4807 C 454.262 4.52315 -4.12404 0
M  V30 4808 N 453.399 5.72533 -4.06387 0
M  V30 4809 H 458.239 1.50011 -2.57489 0
M  V30 4810 H 455.776 0.730298 -1.27691 0
M  V30 4811 H 457.734 3.81572 -1.68698 0
M  V30 4812 H 456.364 3.1345 -0.771306 0
M  V30 4813 H 455.416 2.28854 -3.03859 0
M  V30 4814 H 456.728 3.1732 -3.8485 0
M  V30 4815 H 455.882 5.3293 -2.89949 0
M  V30 4816 H 454.621 4.45457 -1.98542 0
M  V30 4817 H 453.626 3.62331 -4.13517 0
M  V30 4818 H 454.851 4.53134 -5.05812 0
M  V30 4819 H 452.797 5.74344 -3.16962 0
M  V30 4820 H 452.714 5.75643 -4.90073 0
M  V30 4821 H 453.982 6.63204 -4.0961 0
M  V30 4822 N 458.211 1.37122 0.776871 0
M  V30 4823 C 459.158 1.3247 1.88998 0
M  V30 4824 C 460.128 0.191143 1.64997 0
M  V30 4825 O 461.313 0.379683 1.86984 0
M  V30 4826 C 458.453 1.13241 3.25992 0
M  V30 4827 C 457.566 2.35782 3.61982 0
M  V30 4828 C 456.701 2.09465 4.88158 0
M  V30 4829 C 455.74 3.279 5.16864 0
M  V30 4830 N 454.877 3.01167 6.34226 0
M  V30 4831 H 459.717 2.27642 1.9231 0
M  V30 4832 H 457.254 1.13125 0.94027 0
M  V30 4833 H 459.212 1.00115 4.0501 0
M  V30 4834 H 457.842 0.217186 3.22069 0
M  V30 4835 H 456.894 2.59666 2.77989 0
M  V30 4836 H 458.206 3.24125 3.79137 0
M  V30 4837 H 457.36 1.93341 5.75069 0
M  V30 4838 H 456.099 1.18452 4.73097 0
M  V30 4839 H 455.104 3.44569 4.2843 0
M  V30 4840 H 456.329 4.19757 5.33836 0
M  V30 4841 H 454.275 2.12779 6.20533 0
M  V30 4842 H 454.192 3.83052 6.51772 0
M  V30 4843 H 455.46 2.88649 7.24087 0
M  V30 4844 N 459.689 -1.00246 1.21608 0
M  V30 4845 C 460.938 -1.73476 1.02902 0
M  V30 4846 C 461.251 -1.90643 -0.437561 0
M  V30 4847 O 462.457 -2.61105 -0.74407 0
M  V30 4848 C 460.913 -3.12079 1.79261 0
M  V30 4849 C 460.521 -3.02877 3.30106 0
M  V30 4850 C 462.265 -3.89421 1.68972 0
M  V30 4851 C 460.172 -4.36575 3.98944 0
M  V30 4852 H 459.102 -0.650408 0.381425 0
M  V30 4853 H 461.753 -1.11985 1.45367 0
M  V30 4854 H 460.135 -3.74196 1.2959 0
M  V30 4855 H 461.309 -2.49983 3.87098 0
M  V30 4856 H 459.624 -2.39022 3.40965 0
M  V30 4857 H 462.221 -4.88362 2.17731 0
M  V30 4858 H 462.564 -4.1122 0.648397 0
M  V30 4859 H 463.097 -3.33963 2.16133 0
M  V30 4860 H 459.836 -4.19978 5.03288 0
M  V30 4861 H 459.356 -4.8942 3.4674 0
M  V30 4862 H 461.035 -5.05364 4.04 0
M  V30 4863 N 461.167 -1.02423 -1.1978 0
M  V30 4864 C 462.395 -0.737456 -1.93311 0
M  V30 4865 C 462.81 0.703023 -1.75223 0
M  V30 4866 O 462.167 1.47761 -1.07112 0
M  V30 4867 C 462.218 -1.0733 -3.45199 0
M  V30 4868 O 461.939 -2.4572 -3.62702 0
M  V30 4869 C 463.44 -0.80866 -4.35862 0
M  V30 4870 H 460.66 -0.2702 -0.614193 0
M  V30 4871 H 463.204 -1.36747 -1.52054 0
M  V30 4872 H 461.359 -0.488545 -3.84307 0
M  V30 4873 H 461.773 -2.58081 -4.56612 0
M  V30 4874 H 463.247 -1.09365 -5.41057 0
M  V30 4875 H 463.724 0.257025 -4.38447 0
M  V30 4876 H 464.33 -1.37592 -4.02428 0
M  V30 4877 N 462.645 1.35699 -0.801477 0
M  V30 4878 C 463.593 2.3177 -0.196317 0
M  V30 4879 C 464.587 1.56388 0.651081 0
M  V30 4880 O 465.793 1.71557 0.544815 0
M  V30 4881 H 462.168 0.750669 -0.0447189 0
M  V30 4882 H 464.139 2.8036 -1.02181 0
M  V30 4883 C 462.888 3.41671 0.644702 0
M  V30 4884 H 462.211 3.998 0.0019921 0
M  V30 4885 H 463.651 4.11184 1.0346 0
M  V30 4886 C 462.11 2.84271 1.80808 0
M  V30 4887 O 462.64 2.77408 2.9053 0
M  V30 4888 N 460.846 2.41391 1.61799 0
M  V30 4889 H 460.393 2.47173 0.725493 0
M  V30 4890 H 460.351 2.03334 2.39797 0
M  V30 4891 N 464.123 0.554532 1.47522 0
M  V30 4892 C 465.086 -0.184174 2.28459 0
M  V30 4893 C 466.086 -0.845195 1.36796 0
M  V30 4894 O 467.276 -0.701467 1.59452 0
M  V30 4895 C 464.408 -1.26903 3.16399 0
M  V30 4896 H 465.601 0.526751 2.95238 0
M  V30 4897 H 463.154 0.311375 1.53167 0
M  V30 4898 H 463.889 -2.01244 2.54306 0
M  V30 4899 H 463.674 -0.799883 3.83854 0
M  V30 4900 H 465.164 -1.78794 3.77389 0
M  V30 4901 N 465.601 -1.54893 0.290851 0
M  V30 4902 C 466.85 -1.99111 -0.322113 0
M  V30 4903 C 467.163 -1.18283 -1.55784 0
M  V30 4904 O 468.369 -1.5272 -2.24475 0
M  V30 4905 C 466.825 -3.54442 -0.624438 0
M  V30 4906 C 466.433 -4.44066 0.592373 0
M  V30 4907 C 468.177 -4.07211 -1.19916 0
M  V30 4908 C 466.084 -5.90812 0.263762 0
M  V30 4909 H 465.014 -0.743712 -0.124133 0
M  V30 4910 H 467.665 -1.79132 0.39797 0
M  V30 4911 H 466.047 -3.70281 -1.40384 0
M  V30 4912 H 467.221 -4.39999 1.36886 0
M  V30 4913 H 465.536 -4.02015 1.08502 0
M  V30 4914 H 468.133 -5.14407 -1.45909 0
M  V30 4915 H 468.476 -3.57196 -2.13815 0
M  V30 4916 H 469.009 -3.94873 -0.481687 0
M  V30 4917 H 465.748 -6.44955 1.17105 0
M  V30 4918 H 465.268 -5.97911 -0.475655 0
M  V30 4919 H 466.947 -6.46852 -0.138354 0
M  V30 4920 N 467.08 -0.0183926 -1.57589 0
M  V30 4921 C 468.357 0.700621 -1.82622 0
M  V30 4922 C 468.737 1.90951 -0.90005 0
M  V30 4923 O 468.085 2.28452 0.0469145 0
M  V30 4924 C 468.295 1.08899 -3.31575 0
M  V30 4925 C 469.643 1.48514 -3.9778 0
M  V30 4926 O 470.667 1.18227 -3.36007 0
M  V30 4927 O 469.526 2.04903 -5.06633 0
M  V30 4928 H 466.62 0.342743 -0.752633 0
M  V30 4929 H 469.166 -0.0452548 -1.6964 0
M  V30 4930 H 467.938 0.228113 -3.90635 0
M  V30 4931 H 467.561 1.89338 -3.49624 0
M  V30 4932 N 468.558 1.5553 0.254621 0
M  V30 4933 C 469.804 1.7818 0.980989 0
M  V30 4934 C 470.159 0.586059 1.83257 0
M  V30 4935 O 469.452 -0.420889 1.8692 0
M  V30 4936 C 469.646 3.03891 1.88109 0
M  V30 4937 C 469.475 4.35578 1.11812 0
M  V30 4938 C 468.245 4.98497 0.826343 0
M  V30 4939 C 470.443 5.11869 0.499486 0
M  V30 4940 N 468.425 6.13888 0.0385095 0
M  V30 4941 C 469.796 6.1981 -0.153292 0
M  V30 4942 C 471.851 4.96216 0.409175 0
M  V30 4943 C 470.554 7.13801 -0.8877 0
M  V30 4944 C 472.58 5.90578 -0.311683 0
M  V30 4945 C 471.942 6.97922 -0.953129 0
M  V30 4946 H 468.041 0.704057 0.340335 0
M  V30 4947 H 470.625 1.93025 0.254855 0
M  V30 4948 H 468.796 2.90389 2.57932 0
M  V30 4949 H 470.528 3.14869 2.54244 0
M  V30 4950 H 467.283 4.59769 1.13621 0
M  V30 4951 H 467.707 6.76129 -0.343275 0
M  V30 4952 H 472.349 4.1331 0.890765 0
M  V30 4953 H 470.067 7.96214 -1.38092 0
M  V30 4954 H 473.653 5.80544 -0.382125 0
M  V30 4955 H 472.533 7.69681 -1.50203 0
M  V30 4956 N 470.036 -0.519951 1.48776 0
M  V30 4957 C 471.261 -1.30447 1.6124 0
M  V30 4958 C 471.686 -1.86055 0.276591 0
M  V30 4959 O 471.044 -1.64915 -0.753183 0
M  V30 4960 C 471.092 -2.42406 2.66967 0
M  V30 4961 O 470.196 -3.45728 2.24824 0
M  V30 4962 H 469.537 -0.385924 0.540332 0
M  V30 4963 H 472.067 -0.624572 1.94834 0
M  V30 4964 H 472.077 -2.88447 2.88552 0
M  V30 4965 H 470.752 -2.01294 3.63941 0
M  V30 4966 H 469.329 -3.05737 2.13494 0
M  V30 4967 N 471.514 -1.37532 -0.769588 0
M  V30 4968 C 472.925 -1.29382 -1.346 0
M  V30 4969 C 473.276 0.0576039 -1.96115 0
M  V30 4970 O 472.401 0.95947 -1.93967 0
M  V30 4971 C 472.996 -2.34298 -2.44724 0
M  V30 4972 C 471.555 -2.29776 -2.98128 0
M  V30 4973 C 470.702 -2.18013 -1.71364 0
M  V30 4974 H 473.653 -1.48123 -0.56968 0
M  V30 4975 H 473.674 -1.99089 -3.24259 0
M  V30 4976 H 473.186 -3.32645 -1.99922 0
M  V30 4977 H 471.287 -1.34959 -3.47299 0
M  V30 4978 H 471.4 -3.23276 -3.53595 0
M  V30 4979 H 469.764 -1.64595 -1.94372 0
M  V30 4980 H 470.547 -3.18278 -1.28662 0
M  V30 4981 N 472.992 0.995999 -1.22138 0
M  V30 4982 C 473.939 2.08551 -0.988687 0
M  V30 4983 C 474.909 1.65864 0.0885021 0
M  V30 4984 O 476.094 1.90704 -0.0604589 0
M  V30 4985 C 473.234 3.40374 -0.569191 0
M  V30 4986 C 472.347 3.96421 -1.71681 0
M  V30 4987 C 471.482 5.1639 -1.2456 0
M  V30 4988 C 470.521 5.64567 -2.36497 0
M  V30 4989 N 469.658 6.75777 -1.90445 0
M  V30 4990 H 474.498 2.2779 -1.92135 0
M  V30 4991 H 472.035 1.1168 -0.957388 0
M  V30 4992 H 473.993 4.16068 -0.307166 0
M  V30 4993 H 472.623 3.21145 0.326462 0
M  V30 4994 H 471.675 3.17628 -2.09324 0
M  V30 4995 H 472.987 4.2816 -2.55891 0
M  V30 4996 H 472.141 5.99362 -0.940774 0
M  V30 4997 H 470.88 4.86266 -0.373662 0
M  V30 4998 H 469.885 4.80185 -2.67772 0
M  V30 4999 H 471.11 5.96716 -3.24202 0
M  V30 5000 H 469.056 6.47443 -1.05609 0
M  V30 5001 H 468.973 7.06818 -2.68223 0
M  V30 5002 H 470.241 7.62262 -1.63022 0
M  V30 5003 N 474.47 1.03057 1.19235 0
M  V30 5004 C 475.716 0.729098 1.89241 0
M  V30 5005 C 476.049 -0.740573 1.79525 0
M  V30 5006 O 475.324 -1.53946 1.18874 0
M  V30 5007 C 475.607 1.18304 3.40112 0
M  V30 5008 C 475.46 2.71406 3.5869 0
M  V30 5009 C 476.779 0.765161 4.33397 0
M  V30 5010 H 473.898 0.266338 0.687192 0
M  V30 5011 H 476.54 1.28079 1.40341 0
M  V30 5012 H 474.69 0.713672 3.81889 0
M  V30 5013 H 476.362 3.26303 3.26074 0
M  V30 5014 H 474.605 3.11717 3.01687 0
M  V30 5015 H 475.276 2.98225 4.64506 0
M  V30 5016 H 477.752 1.16889 3.99345 0
M  V30 5017 H 476.628 1.11065 5.37546 0
M  V30 5018 H 476.889 -0.332372 4.40849 0
M  V30 5019 N 475.948 -1.35272 0.808662 0
M  V30 5020 C 477.173 -2.03477 0.401475 0
M  V30 5021 C 477.598 -1.60537 -0.980279 0
M  V30 5022 O 476.956 -0.78304 -1.63518 0
M  V30 5023 C 477.004 -3.57181 0.495354 0
M  V30 5024 O 476.108 -4.09474 -0.490397 0
M  V30 5025 H 475.449 -0.642561 0.167366 0
M  V30 5026 H 477.979 -1.72824 1.09512 0
M  V30 5027 H 477.989 -4.06356 0.365912 0
M  V30 5028 H 476.664 -3.87784 1.5032 0
M  V30 5029 H 475.241 -3.71516 -0.321023 0
M  V30 5030 N 477.426 -0.562348 -1.47226 0
M  V30 5031 C 478.389 0.172056 -2.28553 0
M  V30 5032 C 479.389 0.837928 -1.37242 0
M  V30 5033 O 480.579 0.693001 -1.59822 0
M  V30 5034 C 477.711 1.25223 -3.17068 0
M  V30 5035 H 478.904 -0.542401 -2.94954 0
M  V30 5036 H 476.457 -0.319493 -1.53 0
M  V30 5037 H 477.192 1.99892 -2.55369 0
M  V30 5038 H 476.977 0.779515 -3.84273 0
M  V30 5039 H 478.467 1.76791 -3.78332 0
M  V30 5040 N 478.904 1.54736 -0.299062 0
M  V30 5041 C 479.851 2.23448 0.577899 0
M  V30 5042 C 480.821 1.21637 1.13109 0
M  V30 5043 O 482.006 1.50252 1.17597 0
M  V30 5044 C 479.146 2.9774 1.74484 0
M  V30 5045 C 478.259 4.1432 1.22323 0
M  V30 5046 C 477.394 4.76199 2.35388 0
M  V30 5047 C 476.433 5.84927 1.80351 0
M  V30 5048 N 475.57 6.4077 2.86982 0
M  V30 5049 H 480.41 2.97996 -0.0146545 0
M  V30 5050 H 477.947 1.47088 -0.0190013 0
M  V30 5051 H 479.905 3.39045 2.43114 0
M  V30 5052 H 478.535 2.25572 2.30905 0
M  V30 5053 H 477.587 3.7797 0.429249 0
M  V30 5054 H 478.899 4.92659 0.780309 0
M  V30 5055 H 478.053 5.20346 3.11969 0
M  V30 5056 H 476.792 3.97188 2.83006 0
M  V30 5057 H 475.797 5.40207 1.02259 0
M  V30 5058 H 477.022 6.65821 1.3364 0
M  V30 5059 H 474.968 5.64643 3.33938 0
M  V30 5060 H 474.885 7.1445 2.4718 0
M  V30 5061 H 476.153 6.89574 3.63466 0
M  V30 5062 N 480.382 0.0267497 1.57577 0
M  V30 5063 C 481.659 -0.690926 1.82991 0
M  V30 5064 C 482.039 -1.90471 0.910164 0
M  V30 5065 O 481.387 -2.28474 -0.0347985 0
M  V30 5066 C 481.597 -1.07139 3.32148 0
M  V30 5067 C 482.945 -1.46402 3.98562 0
M  V30 5068 O 483.969 -1.16443 3.36629 0
M  V30 5069 O 482.828 -2.02214 5.07712 0
M  V30 5070 H 479.922 -0.338747 0.75444 0
M  V30 5071 H 482.468 0.0542506 1.69613 0
M  V30 5072 H 481.24 -0.207394 3.9075 0
M  V30 5073 H 480.863 -1.87481 3.50623 0
M  V30 5074 N 481.861 -1.55662 -0.24637 0
M  V30 5075 C 483.109 -1.77168 -0.972411 0
M  V30 5076 C 483.43 -0.590827 -1.85834 0
M  V30 5077 O 482.7 0.393365 -1.9191 0
M  V30 5078 H 481.28 -0.653405 -0.362038 0
M  V30 5079 H 483.942 -1.93101 -0.264189 0
M  V30 5080 H 483.038 -2.68335 -1.59382 0
M  V30 5081 N 483.339 0.512053 -1.4905 0
M  V30 5082 C 484.585 1.26874 -1.58212 0
M  V30 5083 C 484.918 1.9241 -0.263073 0
M  V30 5084 O 484.193 1.80181 0.732476 0
M  V30 5085 C 484.476 2.34428 -2.73341 0
M  V30 5086 C 484.329 1.73466 -4.15006 0
M  V30 5087 C 485.648 3.36073 -2.84154 0
M  V30 5088 H 482.767 0.459924 -0.575881 0
M  V30 5089 H 485.409 0.568587 -1.81293 0
M  V30 5090 H 483.559 2.94146 -2.53792 0
M  V30 5091 H 485.231 1.17661 -4.46042 0
M  V30 5092 H 483.474 1.03921 -4.21168 0
M  V30 5093 H 484.145 2.51426 -4.91415 0
M  V30 5094 H 486.621 2.86332 -3.01916 0
M  V30 5095 H 485.497 4.08703 -3.66406 0
M  V30 5096 H 485.758 3.97725 -1.93048 0
M  V30 5097 N 484.817 1.37938 0.762283 0
M  V30 5098 C 485.749 1.30349 1.88525 0
M  V30 5099 C 486.762 0.217402 1.61342 0
M  V30 5100 O 487.951 0.474291 1.72084 0
M  V30 5101 C 485.051 0.994844 3.23969 0
M  V30 5102 C 484.224 2.18829 3.78725 0
M  V30 5103 C 483.283 1.84844 4.92665 0
M  V30 5104 O 482.309 2.57244 5.07754 0
M  V30 5105 N 483.511 0.798201 5.74986 0
M  V30 5106 H 486.276 2.27114 1.95549 0
M  V30 5107 H 483.837 1.31686 0.941825 0
M  V30 5108 H 485.829 0.748168 3.97724 0
M  V30 5109 H 484.399 0.115446 3.12387 0
M  V30 5110 H 483.619 2.59615 2.96637 0
M  V30 5111 H 484.907 2.98497 4.1204 0
M  V30 5112 H 484.305 0.197611 5.65355 0
M  V30 5113 H 482.862 0.611396 6.48926 0
M  V30 5114 N 486.295 -0.989507 1.22664 0
M  V30 5115 C 487.242 -2.08024 0.999733 0
M  V30 5116 C 488.212 -1.65909 -0.0797047 0
M  V30 5117 O 489.397 -1.90669 0.0705715 0
M  V30 5118 C 486.537 -3.40067 0.587234 0
M  V30 5119 C 485.65 -3.95505 1.73781 0
M  V30 5120 C 484.785 -5.15722 1.27297 0
M  V30 5121 C 483.824 -5.63305 2.39488 0
M  V30 5122 N 482.961 -6.74758 1.94026 0
M  V30 5123 H 487.801 -2.26768 1.9334 0
M  V30 5124 H 485.338 -1.11171 0.963297 0
M  V30 5125 H 487.296 -4.15899 0.329227 0
M  V30 5126 H 485.926 -3.21314 -0.309426 0
M  V30 5127 H 484.978 -3.16513 2.11006 0
M  V30 5128 H 486.29 -4.26797 2.58158 0
M  V30 5129 H 485.444 -5.98854 0.972546 0
M  V30 5130 H 484.183 -4.86061 0.399445 0
M  V30 5131 H 483.188 -4.78759 2.70315 0
M  V30 5132 H 484.413 -5.94988 3.27362 0
M  V30 5133 H 482.359 -6.46874 1.09041 0
M  V30 5134 H 482.276 -7.05386 2.71968 0
M  V30 5135 H 483.544 -7.61387 1.67062 0
M  V30 5136 N 487.773 -1.03688 -1.18687 0
M  V30 5137 C 488.706 -0.569112 -2.2099 0
M  V30 5138 C 489.684 0.394315 -1.57746 0
M  V30 5139 O 490.868 0.309519 -1.85941 0
M  V30 5140 C 487.995 0.169104 -3.38278 0
M  V30 5141 C 487.041 -0.746989 -4.19908 0
M  V30 5142 S 487.874 -2.22773 -4.86963 0
M  V30 5143 C 489.03 -1.50025 -6.07654 0
M  V30 5144 H 489.263 -1.43589 -2.60326 0
M  V30 5145 H 486.796 -0.847507 -1.29061 0
M  V30 5146 H 488.754 0.588868 -4.06254 0
M  V30 5147 H 487.415 1.01172 -2.9736 0
M  V30 5148 H 486.608 -0.176626 -5.0369 0
M  V30 5149 H 486.21 -1.10543 -3.5729 0
M  V30 5150 H 488.502 -0.791217 -6.72864 0
M  V30 5151 H 489.445 -2.31498 -6.69189 0
M  V30 5152 H 489.853 -0.994245 -5.55675 0
M  V30 5153 N 489.251 1.34841 -0.815825 0
M  V30 5154 C 490.481 2.02436 -0.412695 0
M  V30 5155 C 490.889 1.61604 0.983906 0
M  V30 5156 O 490.232 0.813729 1.64694 0
M  V30 5157 C 490.294 3.56953 -0.427182 0
M  V30 5158 C 489.958 4.21083 -1.77589 0
M  V30 5159 C 490.955 4.42107 -2.73564 0
M  V30 5160 C 488.64 4.58006 -2.06243 0
M  V30 5161 C 490.634 4.99169 -3.9637 0
M  V30 5162 C 488.321 5.1478 -3.2931 0
M  V30 5163 C 489.319 5.35304 -4.24191 0
M  V30 5164 O 489.007 5.90878 -5.45086 0
M  V30 5165 H 488.739 0.655631 -0.164695 0
M  V30 5166 H 491.293 1.73246 -1.1034 0
M  V30 5167 H 489.523 3.85372 0.320175 0
M  V30 5168 H 491.212 4.05875 -0.0450875 0
M  V30 5169 H 491.978 4.13953 -2.52721 0
M  V30 5170 H 487.857 4.41339 -1.33196 0
M  V30 5171 H 491.401 5.15105 -4.70439 0
M  V30 5172 H 487.298 5.42362 -3.5002 0
M  V30 5173 H 488.066 6.0932 -5.46508 0
M  V30 5174 N 490.729 0.570148 1.46925 0
M  V30 5175 C 492.006 -0.0153259 1.95594 0
M  V30 5176 C 492.386 -1.47232 1.51281 0
M  V30 5177 O 491.734 -2.15574 0.757624 0
M  V30 5178 C 491.944 0.143624 3.48704 0
M  V30 5179 C 493.292 0.00494484 4.246 0
M  V30 5180 O 494.316 0.0718214 3.56128 0
M  V30 5181 O 493.175 -0.141175 5.46318 0
M  V30 5182 H 490.269 -0.0568819 0.825041 0
M  V30 5183 H 492.815 0.637583 1.57267 0
M  V30 5184 H 491.587 1.15699 3.73804 0
M  V30 5185 H 491.21 -0.5463 3.93829 0
M  V30 5186 N 492.207 -1.54576 0.307264 0
M  V30 5187 C 493.453 -2.01272 -0.293453 0
M  V30 5188 C 493.808 -1.19178 -1.51044 0
M  V30 5189 O 493.101 -0.261704 -1.89804 0
M  V30 5190 C 493.295 -3.50572 -0.695253 0
M  V30 5191 C 493.124 -4.47118 0.481249 0
M  V30 5192 C 491.894 -4.958 0.97524 0
M  V30 5193 C 494.092 -4.96853 1.32823 0
M  V30 5194 N 492.074 -5.76212 2.11785 0
M  V30 5195 C 493.445 -5.75028 2.31824 0
M  V30 5196 C 495.5 -4.79026 1.35788 0
M  V30 5197 C 494.203 -6.37276 3.33574 0
M  V30 5198 C 496.229 -5.42097 2.364 0
M  V30 5199 C 495.591 -6.2011 3.34129 0
M  V30 5200 H 491.69 -0.778709 -0.0716705 0
M  V30 5201 H 494.274 -1.89695 0.438602 0
M  V30 5202 H 492.445 -3.62427 -1.39647 0
M  V30 5203 H 494.177 -3.84056 -1.27604 0
M  V30 5204 H 490.932 -4.70405 0.549184 0
M  V30 5205 H 491.356 -6.21101 2.69375 0
M  V30 5206 H 495.998 -4.18288 0.616021 0
M  V30 5207 H 493.716 -6.97144 4.08676 0
M  V30 5208 H 497.302 -5.30229 2.39475 0
M  V30 5209 H 496.182 -6.68049 4.10707 0
M  V30 5210 N 493.685 -0.035106 -1.57561 0
M  V30 5211 C 494.913 0.652258 -1.9635 0
M  V30 5212 C 495.328 1.65317 -0.911897 0
M  V30 5213 O 494.685 1.82194 0.105657 0
M  V30 5214 C 494.736 1.35337 -3.35211 0
M  V30 5215 O 494.457 0.392548 -4.36338 0
M  V30 5216 C 495.958 2.13199 -3.88666 0
M  V30 5217 H 493.178 0.179444 -0.646561 0
M  V30 5218 H 495.722 -0.0966459 -2.04271 0
M  V30 5219 H 493.877 2.05362 -3.28489 0
M  V30 5220 H 494.291 0.891097 -5.16875 0
M  V30 5221 H 495.765 2.577 -4.88154 0
M  V30 5222 H 496.242 2.97353 -3.23231 0
M  V30 5223 H 496.848 1.48118 -3.98674 0
M  V30 5224 N 495.163 1.55791 0.238111 0
M  V30 5225 C 496.388 1.8244 0.986432 0
M  V30 5226 C 496.813 0.613314 1.7782 0
M  V30 5227 O 496.171 -0.437767 1.75935 0
M  V30 5228 C 496.219 3.06917 1.893 0
M  V30 5229 O 495.323 2.84449 2.98601 0
M  V30 5230 H 494.664 0.601975 0.280218 0
M  V30 5231 H 497.194 2.02987 0.256437 0
M  V30 5232 H 497.204 3.36583 2.30598 0
M  V30 5233 H 495.879 3.947 1.31091 0
M  V30 5234 H 494.456 2.65972 2.61368 0
M  V30 5235 N 496.642 -0.504142 1.49319 0
M  V30 5236 C 497.867 -1.28729 1.62615 0
M  V30 5237 C 498.292 -1.85752 0.296309 0
M  V30 5238 O 497.65 -1.65704 -0.735649 0
M  V30 5239 C 497.698 -2.39561 2.69524 0
M  V30 5240 O 496.802 -3.43324 2.28478 0
M  V30 5241 H 496.143 -0.380172 0.544395 0
M  V30 5242 H 498.673 -0.603872 1.95485 0
M  V30 5243 H 498.683 -2.8537 2.91595 0
M  V30 5244 H 497.358 -1.97423 3.66056 0
M  V30 5245 H 495.935 -3.03455 2.16725 0
M  V30 5246 N 498.12 -1.38341 -0.754957 0
M  V30 5247 C 499.369 -1.33791 -1.5094 0
M  V30 5248 C 499.682 0.0699267 -1.95475 0
M  V30 5249 O 500.888 0.237956 -2.70455 0
M  V30 5250 C 499.344 -2.34934 -2.72643 0
M  V30 5251 C 498.952 -3.81332 -2.35138 0
M  V30 5252 C 500.696 -2.39425 -3.50536 0
M  V30 5253 C 498.603 -4.74164 -3.53444 0
M  V30 5254 H 497.533 -0.497314 -0.566741 0
M  V30 5255 H 500.184 -1.63888 -0.825403 0
M  V30 5256 H 498.566 -1.97878 -3.43017 0
M  V30 5257 H 499.74 -4.27319 -1.7244 0
M  V30 5258 H 498.055 -3.79946 -1.70382 0
M  V30 5259 H 500.652 -3.0598 -4.38498 0
M  V30 5260 H 500.995 -1.41278 -3.91594 0
M  V30 5261 H 501.528 -2.75274 -2.87174 0
M  V30 5262 H 498.267 -5.73501 -3.17453 0
M  V30 5263 H 497.787 -4.3287 -4.15191 0
M  V30 5264 H 499.466 -4.92111 -4.20043 0
M  V30 5265 O 499.637 0.895511 -1.34398 0
M  V30 5266 H 500.328 1.53136 -1.18614 0
M  V30 END ATOM
M  V30 BEGIN BOND
M  V30 END BOND
M  V30 END CTAB
M  END
$$$$
