drugbank_target|P14193 Ribose-phosphate pyrophosphokinase (DB02798; DB03148)
 OpenBabel12092119583D

  0  0  0     0  0            999 V3000
M  V30 BEGIN CTAB
M  V30 COUNTS 4973 5009 0 0 0
M  V30 BEGIN ATOM
M  V30 1 H -0.908 1.98254 -0.117106 0
M  V30 2 N 0 1.576 0 0
M  V30 3 C 0.933 2.03868 1.02534 0
M  V30 4 C 1.911 0.928543 1.3348 0
M  V30 5 O 3.095 1.19667 1.45644 0
M  V30 6 C 0.222 2.43627 2.35294 0
M  V30 7 C -0.732 3.65373 2.2001 0
M  V30 8 S 0.101 5.13292 1.52614 0
M  V30 9 C 1.257 5.56322 2.86805 0
M  V30 10 H 1.49 2.90518 0.631377 0
M  V30 11 H -0.977 1.52953 0.210867 0
M  V30 12 H 0.981 2.67203 3.11629 0
M  V30 13 H -0.358 1.57376 2.7183 0
M  V30 14 H -1.165 3.90944 3.18086 0
M  V30 15 H -1.563 3.418 1.51819 0
M  V30 16 H 0.729 5.58782 3.83104 0
M  V30 17 H 1.672 6.56266 2.65933 0
M  V30 18 H 2.08 4.83886 2.90714 0
M  V30 19 N 1.4781 -0.272755 1.55222 0
M  V30 20 C 2.7031 -1.02683 1.80197 0
M  V30 21 C 3.1281 -1.79142 0.573551 0
M  V30 22 O 2.4861 -1.74917 -0.476849 0
M  V30 23 C 2.5341 -1.9609 3.02624 0
M  V30 24 O 1.6381 -3.04863 2.77727 0
M  V30 25 H 0.9791 -0.293557 0.595584 0
M  V30 26 H 3.5091 -0.30159 2.02365 0
M  V30 27 H 3.5191 -2.38039 3.31363 0
M  V30 28 H 2.1941 -1.39851 3.91682 0
M  V30 29 H 0.7711 -2.67228 2.60084 0
M  V30 30 N 2.9562 -1.48159 -0.537278 0
M  V30 31 C 3.9042 -1.62573 -1.66352 0
M  V30 32 C 4.8982 -0.492366 -1.62087 0
M  V30 33 O 6.1042 -0.670847 -1.67032 0
M  V30 34 H 2.4792 -0.511992 -0.550789 0
M  V30 35 H 4.4502 -2.57176 -1.51337 0
M  V30 36 C 3.1992 -1.67583 -3.04649 0
M  V30 37 H 2.5222 -2.54151 -3.08622 0
M  V30 38 H 3.9622 -1.81713 -3.83088 0
M  V30 39 C 2.4212 -0.413039 -3.34358 0
M  V30 40 O 2.9512 0.477259 -3.98855 0
M  V30 41 N 1.1572 -0.286961 -2.8918 0
M  V30 42 H 0.7042 -1.01241 -2.36871 0
M  V30 43 H 0.6622 0.556963 -3.09427 0
M  V30 44 N 4.4343 0.785586 -1.36625 0
M  V30 45 C 5.3663 1.90711 -1.2713 0
M  V30 46 C 6.3793 1.61688 -0.189986 0
M  V30 47 O 7.5683 1.72864 -0.445014 0
M  V30 48 C 4.6683 3.25611 -0.939713 0
M  V30 49 C 3.8413 3.82385 -2.12369 0
M  V30 50 C 2.9003 4.95732 -1.76456 0
M  V30 51 O 1.9263 5.12047 -2.48589 0
M  V30 52 N 3.1283 5.76258 -0.700492 0
M  V30 53 H 5.8933 1.99376 -2.23762 0
M  V30 54 H 3.4543 0.964041 -1.30069 0
M  V30 55 H 5.4463 3.98937 -0.680554 0
M  V30 56 H 4.0163 3.12538 -0.0624074 0
M  V30 57 H 3.2363 3.01001 -2.54543 0
M  V30 58 H 4.5243 4.17047 -2.9146 0
M  V30 59 H 3.9223 5.65609 -0.101624 0
M  V30 60 H 2.4793 6.4987 -0.501165 0
M  V30 61 N 5.9124 1.20967 1.01018 0
M  V30 62 C 7.1424 1.04803 1.78044 0
M  V30 63 C 7.5504 -0.405462 1.84804 0
M  V30 64 O 6.8934 -1.2932 1.30468 0
M  V30 65 C 6.9554 1.56377 3.23707 0
M  V30 66 C 6.6194 3.04767 3.40538 0
M  V30 67 C 7.6164 4.02366 3.29239 0
M  V30 68 C 5.3014 3.43862 3.66147 0
M  V30 69 C 7.2954 5.37049 3.43304 0
M  V30 70 C 4.9824 4.78699 3.79855 0
M  V30 71 C 5.9804 5.75101 3.68439 0
M  V30 72 O 5.6684 7.07493 3.81719 0
M  V30 73 H 5.4004 0.368778 0.56655 0
M  V30 74 H 7.9544 1.60642 1.27997 0
M  V30 75 H 6.1844 0.949297 3.74867 0
M  V30 76 H 7.8734 1.36136 3.8239 0
M  V30 77 H 8.6394 3.73506 3.09384 0
M  V30 78 H 4.5184 2.69364 3.74118 0
M  V30 79 H 8.0624 6.12277 3.34309 0
M  V30 80 H 3.9594 5.07247 3.99213 0
M  V30 81 H 4.7274 7.1483 3.98697 0
M  V30 82 N 7.3905 -1.2043 1.01659 0
M  V30 83 C 8.6385 -1.89423 0.704522 0
M  V30 84 C 8.9595 -1.79231 -0.768197 0
M  V30 85 O 8.2295 -1.1947 -1.55254 0
M  V30 86 H 6.8095 -0.701178 0.257602 0
M  V30 87 H 9.4715 -1.4626 1.28818 0
M  V30 88 H 8.5675 -2.96052 0.987916 0
M  V30 89 N 8.8686 -0.792821 -1.36206 0
M  V30 90 C 10.1456 -0.290627 -1.93429 0
M  V30 91 C 10.5256 1.21773 -1.72437 0
M  V30 92 O 9.8736 2.0108 -1.08531 0
M  V30 93 C 10.0836 -0.686973 -3.42172 0
M  V30 94 C 11.4316 -0.668643 -4.19302 0
M  V30 95 O 12.4556 -0.627658 -3.50626 0
M  V30 96 O 11.3146 -0.714597 -5.41808 0
M  V30 97 H 8.4086 -0.0727927 -0.82379 0
M  V30 98 H 10.9546 -0.875593 -1.45367 0
M  V30 99 H 9.7266 -1.72711 -3.51122 0
M  V30 100 H 9.3496 -0.0760733 -3.97527 0
M  V30 101 N 10.3467 1.47872 -0.545128 0
M  V30 102 C 11.2937 2.29849 0.2093 0
M  V30 103 C 12.2637 1.38313 0.919707 0
M  V30 104 O 13.4487 1.67277 0.917772 0
M  V30 105 C 10.5887 3.22019 1.24088 0
M  V30 106 C 9.7017 4.2864 0.537778 0
M  V30 107 C 8.8367 5.07973 1.5536 0
M  V30 108 C 7.8757 6.06381 0.8348 0
M  V30 109 N 7.0127 6.78717 1.79688 0
M  V30 110 H 11.8527 2.93845 -0.49591 0
M  V30 111 H 9.3897 1.44848 -0.256389 0
M  V30 112 H 11.3477 3.73868 1.85144 0
M  V30 113 H 9.9777 2.59914 1.91428 0
M  V30 114 H 9.0297 3.7994 -0.187046 0
M  V30 115 H 10.3417 4.98793 -0.0258907 0
M  V30 116 H 9.4957 5.63912 2.23803 0
M  V30 117 H 8.2347 4.37693 2.15118 0
M  V30 118 H 7.2397 5.49631 0.136388 0
M  V30 119 H 8.4647 6.78665 0.24313 0
M  V30 120 H 6.4107 6.11177 2.38326 0
M  V30 121 H 6.3277 7.44998 1.28505 0
M  V30 122 H 7.5957 7.39237 2.47282 0
M  V30 123 N 11.8248 0.280983 1.55075 0
M  V30 124 C 12.7728 -0.619864 2.24188 0
M  V30 125 C 13.7668 -1.15315 1.24092 0
M  V30 126 O 14.9728 -1.1061 1.42005 0
M  V30 127 H 11.3478 -0.218459 0.719569 0
M  V30 128 H 13.3188 -0.0141831 2.98397 0
M  V30 129 C 12.0678 -1.7899 2.98091 0
M  V30 130 H 11.3908 -1.38874 3.74905 0
M  V30 131 H 12.8308 -2.39672 3.49762 0
M  V30 132 C 11.2898 -2.68192 2.03899 0
M  V30 133 O 11.8198 -3.6872 1.594 0
M  V30 134 N 10.0258 -2.35488 1.70275 0
M  V30 135 H 9.5728 -1.53787 2.06658 0
M  V30 136 H 9.5308 -2.95442 1.07524 0
M  V30 137 N 13.3029 -1.57598 0.00835791 0
M  V30 138 C 14.2329 -2.1198 -0.979113 0
M  V30 139 C 15.2139 -1.03091 -1.35301 0
M  V30 140 O 16.3989 -1.30818 -1.43528 0
M  V30 141 C 13.5289 -2.62995 -2.26828 0
M  V30 142 C 12.4829 -3.76485 -2.03576 0
M  V30 143 C 11.8089 -4.13846 -3.38579 0
M  V30 144 C 13.1089 -5.0342 -1.39161 0
M  V30 145 H 14.8029 -2.94738 -0.526281 0
M  V30 146 H 12.3489 -1.41783 -0.251704 0
M  V30 147 H 14.3019 -2.99669 -2.96271 0
M  V30 148 H 13.0259 -1.7737 -2.7424 0
M  V30 149 H 11.6849 -3.40217 -1.36557 0
M  V30 150 H 11.3329 -3.25232 -3.83709 0
M  V30 151 H 11.0329 -4.90312 -3.23834 0
M  V30 152 H 12.5569 -4.53086 -4.09323 0
M  V30 153 H 13.9709 -5.37812 -1.98573 0
M  V30 154 H 12.3679 -5.84746 -1.34878 0
M  V30 155 H 13.4379 -4.83548 -0.361868 0
M  V30 156 N 14.781 0.264519 -1.55364 0
M  V30 157 C 15.728 1.32717 -1.88825 0
M  V30 158 C 16.698 1.48675 -0.740605 0
M  V30 159 O 17.883 1.62945 -0.992657 0
M  V30 160 C 15.023 2.68089 -2.17307 0
M  V30 161 C 14.136 2.60284 -3.44785 0
M  V30 162 C 13.271 3.87892 -3.62924 0
M  V30 163 C 12.31 3.74631 -4.84064 0
M  V30 164 N 11.447 4.94092 -4.98816 0
M  V30 165 H 16.287 1.03481 -2.79456 0
M  V30 166 H 13.824 0.499757 -1.3835 0
M  V30 167 H 15.782 3.46864 -2.31821 0
M  V30 168 H 14.412 2.95509 -1.299 0
M  V30 169 H 13.464 1.73173 -3.38697 0
M  V30 170 H 14.776 2.46388 -4.33698 0
M  V30 171 H 13.93 4.75109 -3.77302 0
M  V30 172 H 12.669 4.04664 -2.7221 0
M  V30 173 H 11.674 2.85797 -4.69681 0
M  V30 174 H 12.899 3.5937 -5.76221 0
M  V30 175 H 10.845 5.11259 -4.11036 0
M  V30 176 H 10.762 4.8276 -5.81789 0
M  V30 177 H 12.03 5.82857 -5.17588 0
M  V30 178 N 16.2591 1.48442 0.529413 0
M  V30 179 C 17.5081 1.55742 1.28169 0
M  V30 180 C 17.8211 0.236511 1.94165 0
M  V30 181 O 19.0271 0.187761 2.7085 0
M  V30 182 C 17.4831 2.74667 2.32564 0
M  V30 183 C 17.0911 4.13402 1.72636 0
M  V30 184 C 18.8351 2.9128 3.08798 0
M  V30 185 C 16.7421 5.23587 2.74975 0
M  V30 186 H 15.6721 0.579796 0.48203 0
M  V30 187 H 18.3231 1.74776 0.559056 0
M  V30 188 H 16.7051 2.49067 3.07866 0
M  V30 189 H 17.8791 4.49022 1.03519 0
M  V30 190 H 16.1941 4.0191 1.08892 0
M  V30 191 H 18.7911 3.70767 3.85274 0
M  V30 192 H 19.1341 2.00757 3.64695 0
M  V30 193 H 19.6671 3.16782 2.40611 0
M  V30 194 H 16.4061 6.16076 2.23897 0
M  V30 195 H 15.9261 4.92454 3.42417 0
M  V30 196 H 17.6051 5.51724 3.37949 0
M  V30 197 N 17.7372 -0.778329 1.37039 0
M  V30 198 C 18.9842 -1.53665 1.31884 0
M  V30 199 C 19.3122 -1.9425 -0.0986303 0
M  V30 200 O 18.5672 -1.63832 -1.07041 0
M  V30 201 C 18.8662 -2.81845 2.19768 0
M  V30 202 C 18.5322 -2.60345 3.68146 0
M  V30 203 C 17.1942 -2.5419 4.08584 0
M  V30 204 C 19.5462 -2.40923 4.62175 0
M  V30 205 C 16.8742 -2.26594 5.41177 0
M  V30 206 C 19.2262 -2.14852 5.94997 0
M  V30 207 C 17.8902 -2.07137 6.34547 0
M  V30 208 H 17.1602 -0.562299 0.482598 0
M  V30 209 H 19.8072 -0.897069 1.69189 0
M  V30 210 H 18.1122 -3.50328 1.75436 0
M  V30 211 H 19.8092 -3.39692 2.13097 0
M  V30 212 H 16.3992 -2.65996 3.36072 0
M  V30 213 H 20.5832 -2.44673 4.31797 0
M  V30 214 H 15.8392 -2.19111 5.70789 0
M  V30 215 H 20.0132 -1.98822 6.67415 0
M  V30 216 H 17.6402 -1.85518 7.37216 0
M  V30 217 N 19.2153 -1.21501 -1.00376 0
M  V30 218 C 20.4403 -1.05977 -1.78279 0
M  V30 219 C 20.8653 0.385994 -1.84097 0
M  V30 220 O 20.2233 1.27849 -1.28547 0
M  V30 221 C 20.2713 -1.66302 -3.19963 0
M  V30 222 O 19.3753 -0.909333 -4.0225 0
M  V30 223 H 18.7163 -0.372906 -0.549397 0
M  V30 224 H 21.2463 -1.6107 -1.26165 0
M  V30 225 H 21.2563 -1.70574 -3.70632 0
M  V30 226 H 19.9313 -2.71515 -3.15043 0
M  V30 227 H 18.5083 -0.941795 -3.60811 0
M  V30 228 N 20.6934 1.19889 -1.02296 0
M  V30 229 C 21.6234 2.25141 -0.619174 0
M  V30 230 C 22.6044 1.66051 0.368915 0
M  V30 231 O 23.7894 1.92546 0.252941 0
M  V30 232 C 20.9194 3.4728 0.0368783 0
M  V30 233 C 19.8734 4.19005 -0.872865 0
M  V30 234 C 19.1994 5.34637 -0.0822402 0
M  V30 235 C 20.4994 4.74452 -2.18387 0
M  V30 236 H 22.1934 2.59171 -1.49903 0
M  V30 237 H 19.7394 1.24579 -0.722222 0
M  V30 238 H 21.6924 4.20098 0.330958 0
M  V30 239 H 20.4164 3.12433 0.95149 0
M  V30 240 H 19.0754 3.48061 -1.15105 0
M  V30 241 H 18.7234 4.96034 0.83422 0
M  V30 242 H 18.4234 5.83557 -0.688149 0
M  V30 243 H 19.9474 6.10255 0.205238 0
M  V30 244 H 21.3614 5.39055 -1.95172 0
M  V30 245 H 19.7584 5.33834 -2.74119 0
M  V30 246 H 20.8284 3.92844 -2.84257 0
M  V30 247 N 22.1715 0.800033 1.35784 0
M  V30 248 C 23.1195 0.193851 2.31791 0
M  V30 249 C 24.1135 -0.652744 1.56319 0
M  V30 250 O 25.3195 -0.546641 1.71499 0
M  V30 251 H 21.6945 0.04392 0.750716 0
M  V30 252 H 23.6655 1.01883 2.80468 0
M  V30 253 C 22.4145 -0.648338 3.41602 0
M  V30 254 H 21.7375 -0.00624665 3.998 0
M  V30 255 H 23.1775 -1.03898 4.11073 0
M  V30 256 C 21.6365 -1.8111 2.84079 0
M  V30 257 O 22.1665 -2.90825 2.77099 0
M  V30 258 N 20.3725 -1.62056 2.41218 0
M  V30 259 H 19.9195 -0.728123 2.47095 0
M  V30 260 H 19.8775 -2.40013 2.03079 0
M  V30 261 N 23.6496 -1.47581 0.552962 0
M  V30 262 C 24.8746 -2.07378 0.0300593 0
M  V30 263 C 25.2996 -1.40355 -1.25229 0
M  V30 264 O 24.6576 -0.477099 -1.7491 0
M  V30 265 C 24.7056 -3.60274 -0.153231 0
M  V30 266 O 23.8096 -3.94041 -1.21678 0
M  V30 267 H 23.1506 -0.662158 0.0494182 0
M  V30 268 H 25.6806 -1.89662 0.767434 0
M  V30 269 H 25.6906 -4.0633 -0.368761 0
M  V30 270 H 24.3656 -4.08455 0.783397 0
M  V30 271 H 22.9426 -3.59735 -0.982079 0
M  V30 272 N 25.1277 -0.289203 -1.54924 0
M  V30 273 C 26.0757 0.607966 -2.24514 0
M  V30 274 C 27.0697 1.14655 -1.24702 0
M  V30 275 O 28.2757 1.09856 -1.4259 0
M  V30 276 H 24.6507 0.21464 -0.720718 0
M  V30 277 H 26.6217 -0.00164182 -2.984 0
M  V30 278 C 25.3707 1.77406 -2.99036 0
M  V30 279 H 24.6937 1.36884 -3.75637 0
M  V30 280 H 26.1337 2.37814 -3.51028 0
M  V30 281 C 24.5927 2.67107 -2.05318 0
M  V30 282 O 25.1227 3.6787 -1.61353 0
M  V30 283 N 23.3287 2.34582 -1.71521 0
M  V30 284 H 22.8757 1.52688 -2.07471 0
M  V30 285 H 22.8337 2.94867 -1.0909 0
M  V30 286 N 26.6058 1.57591 -0.0167156 0
M  V30 287 C 28.0168 1.79201 0.523834 0
M  V30 288 C 28.3678 0.925796 1.72984 0
M  V30 289 O 27.4928 0.132792 2.15992 0
M  V30 290 C 28.0878 3.25 0.957091 0
M  V30 291 C 26.6468 3.47648 1.44283 0
M  V30 292 C 25.7938 2.74374 0.401757 0
M  V30 293 H 28.7448 1.56831 -0.242816 0
M  V30 294 H 28.7658 3.34031 1.82219 0
M  V30 295 H 28.2778 3.88019 0.0791415 0
M  V30 296 H 26.3788 2.89866 2.34113 0
M  V30 297 H 26.4918 4.56352 1.45877 0
M  V30 298 H 24.8558 2.39485 0.867121 0
M  V30 299 H 25.6388 3.40102 -0.467513 0
M  V30 300 N 28.0839 -0.256276 1.55502 0
M  V30 301 C 28.9939 -1.33882 1.92647 0
M  V30 302 C 30.0099 -1.53159 0.825727 0
M  V30 303 O 31.1859 -1.66963 1.12629 0
M  V30 304 C 28.2509 -2.6751 2.20543 0
M  V30 305 C 27.3119 -2.56836 3.43997 0
M  V30 306 C 26.5449 -3.84092 3.70553 0
M  V30 307 O 26.7679 -4.85545 2.99336 0
M  V30 308 O 25.7019 -3.83288 4.64084 0
M  V30 309 H 29.5279 -1.05374 2.84833 0
M  V30 310 H 27.1129 -0.456237 1.42263 0
M  V30 311 H 28.9949 -3.46492 2.39835 0
M  V30 312 H 27.6699 -2.9577 1.31536 0
M  V30 313 H 26.5769 -1.76172 3.30021 0
M  V30 314 H 27.9099 -2.33523 4.33275 0
M  V30 315 N 29.562 -1.4872 -0.521534 0
M  V30 316 C 30.492 -1.66771 -1.63431 0
M  V30 317 C 31.473 -0.516499 -1.62069 0
M  V30 318 O 32.658 -0.750013 -1.79132 0
M  V30 319 C 29.788 -1.71515 -3.01993 0
M  V30 320 C 28.742 -2.86222 -3.18216 0
M  V30 321 C 28.068 -2.76061 -4.57924 0
M  V30 322 C 29.368 -4.27419 -3.00184 0
M  V30 323 H 31.062 -2.59932 -1.48579 0
M  V30 324 H 28.608 -1.25089 -0.713358 0
M  V30 325 H 30.561 -1.82731 -3.7972 0
M  V30 326 H 29.285 -0.749393 -3.17886 0
M  V30 327 H 27.944 -2.74575 -2.42908 0
M  V30 328 H 27.592 -1.77437 -4.70665 0
M  V30 329 H 27.292 -3.53037 -4.69722 0
M  V30 330 H 28.816 -2.89256 -5.37739 0
M  V30 331 H 30.23 -4.39855 -3.67697 0
M  V30 332 H 28.627 -5.05458 -3.2347 0
M  V30 333 H 29.697 -4.43293 -1.96518 0
M  V30 334 N 31.0401 0.771051 -1.3745 0
M  V30 335 C 32.0031 1.86598 -1.33093 0
M  V30 336 C 33.0031 1.59076 -0.234845 0
M  V30 337 O 34.1931 1.67145 -0.490732 0
M  V30 338 C 31.3251 3.23747 -1.06773 0
M  V30 339 H 32.5181 1.91873 -2.30488 0
M  V30 340 H 30.0711 0.970876 -1.2249 0
M  V30 341 H 30.8061 3.24148 -0.099129 0
M  V30 342 H 30.5911 3.45115 -1.86112 0
M  V30 343 H 32.0811 4.03824 -1.06377 0
M  V30 344 N 32.5182 1.22032 0.997298 0
M  V30 345 C 33.4652 0.986467 2.08656 0
M  V30 346 C 34.4352 -0.0902671 1.65855 0
M  V30 347 O 35.6202 0.0584294 1.90711 0
M  V30 348 C 32.7602 0.565569 3.40434 0
M  V30 349 C 31.8732 1.71259 3.96604 0
M  V30 350 C 31.0082 1.24011 5.16522 0
M  V30 351 C 30.0472 2.35896 5.64818 0
M  V30 352 N 29.1842 1.89726 6.7598 0
M  V30 353 H 34.0242 1.91892 2.27994 0
M  V30 354 H 31.5612 0.956199 1.11782 0
M  V30 355 H 33.5192 0.302738 4.161 0
M  V30 356 H 32.1492 -0.329879 3.2111 0
M  V30 357 H 31.2012 2.08986 3.17851 0
M  V30 358 H 32.5132 2.55436 4.28432 0
M  V30 359 H 31.6672 0.934395 5.99461 0
M  V30 360 H 30.4062 0.368487 4.86306 0
M  V30 361 H 29.4112 2.67261 4.8047 0
M  V30 362 H 30.6362 3.23567 5.97061 0
M  V30 363 H 28.5822 1.0492 6.47555 0
M  V30 364 H 28.4992 2.67471 7.07103 0
M  V30 365 H 29.7672 1.62211 7.62435 0
M  V30 366 N 33.9963 -1.19345 1.0293 0
M  V30 367 C 34.9063 -2.26245 0.620515 0
M  V30 368 C 35.9223 -1.70486 -0.347928 0
M  V30 369 O 37.0983 -2.00347 -0.205704 0
M  V30 370 C 34.1633 -3.46693 -0.0218957 0
M  V30 371 C 33.2243 -4.17632 0.994102 0
M  V30 372 C 32.4573 -5.32329 0.382253 0
M  V30 373 O 32.6803 -5.64552 -0.814676 0
M  V30 374 O 31.6143 -5.91664 1.10531 0
M  V30 375 H 35.4403 -2.63453 1.51083 0
M  V30 376 H 33.0253 -1.26207 0.799513 0
M  V30 377 H 34.9073 -4.19683 -0.380072 0
M  V30 378 H 33.5823 -3.11333 -0.886209 0
M  V30 379 H 32.4893 -3.4676 1.40387 0
M  V30 380 H 33.8223 -4.56964 1.8288 0
M  V30 381 N 35.4744 -0.807222 -1.35358 0
M  V30 382 C 36.7234 -0.384376 -1.98004 0
M  V30 383 C 37.0364 1.0543 -1.64754 0
M  V30 384 O 38.2424 1.58029 -2.20769 0
M  V30 385 C 36.6984 -0.636326 -3.5423 0
M  V30 386 C 36.3064 -2.08759 -3.96388 0
M  V30 387 C 38.0504 -0.278869 -4.23583 0
M  V30 388 C 35.9574 -2.28525 -5.45463 0
M  V30 389 H 34.8874 -0.139986 -0.740891 0
M  V30 390 H 37.5384 -0.991369 -1.54415 0
M  V30 391 H 35.9204 0.0406256 -3.95979 0
M  V30 392 H 37.0944 -2.8024 -3.6579 0
M  V30 393 H 35.4094 -2.40497 -3.39926 0
M  V30 394 H 38.0064 -0.404599 -5.33167 0
M  V30 395 H 38.3494 0.775012 -4.09022 0
M  V30 396 H 38.8824 -0.909764 -3.87257 0
M  V30 397 H 35.6214 -3.32361 -5.64992 0
M  V30 398 H 35.1414 -1.61569 -5.77629 0
M  V30 399 H 36.8204 -2.10109 -6.11934 0
M  V30 400 N 36.9525 1.47285 -0.560781 0
M  V30 401 C 37.9155 2.28535 0.174488 0
M  V30 402 C 38.9155 1.37153 0.839388 0
M  V30 403 O 40.1055 1.59748 0.694702 0
M  V30 404 C 37.2375 3.16934 1.25561 0
M  V30 405 H 38.4305 2.95012 -0.539262 0
M  V30 406 H 35.9835 1.53034 -0.317865 0
M  V30 407 H 36.7185 2.55157 2.00164 0
M  V30 408 H 36.5035 3.8419 0.783604 0
M  V30 409 H 37.9935 3.78143 1.77193 0
M  V30 410 N 38.4306 0.297415 1.54768 0
M  V30 411 C 39.7076 -0.365847 1.92148 0
M  V30 412 C 40.0876 -1.71975 1.22424 0
M  V30 413 O 39.4356 -2.25666 0.358739 0
M  V30 414 C 39.6456 -0.484056 3.45627 0
M  V30 415 C 40.9936 -0.756594 4.17805 0
M  V30 416 O 42.0176 -0.568007 3.51642 0
M  V30 417 O 40.8766 -1.11863 5.34929 0
M  V30 418 H 37.9706 -0.203919 0.801465 0
M  V30 419 H 40.5166 0.34521 1.66152 0
M  V30 420 H 39.2886 0.467865 3.88493 0
M  V30 421 H 38.9116 -1.24372 3.77647 0
M  V30 422 N 39.9087 -1.5758 0.0250728 0
M  V30 423 C 41.1577 -1.90811 -0.653767 0
M  V30 424 C 41.4707 -0.90273 -1.73523 0
M  V30 425 O 42.6767 -1.12614 -2.47043 0
M  V30 426 C 41.1327 -3.38804 -1.21409 0
M  V30 427 C 40.7407 -4.47692 -0.166126 0
M  V30 428 C 42.4847 -3.81108 -1.86967 0
M  V30 429 C 40.3917 -5.86779 -0.737856 0
M  V30 430 H 39.3217 -0.712063 -0.247956 0
M  V30 431 H 41.9727 -1.83281 0.0897137 0
M  V30 432 H 40.3547 -3.41252 -2.00905 0
M  V30 433 H 41.5287 -4.56797 0.606079 0
M  V30 434 H 39.8437 -4.14565 0.390466 0
M  V30 435 H 42.4407 -4.82375 -2.30692 0
M  V30 436 H 42.7837 -3.15953 -2.71071 0
M  V30 437 H 43.3167 -3.81065 -1.14167 0
M  V30 438 H 40.0557 -6.55468 0.0649577 0
M  V30 439 H 39.5757 -5.81288 -1.47864 0
M  V30 440 H 41.2547 -6.35223 -1.22884 0
M  V30 441 N 41.3868 0.248026 -1.55636 0
M  V30 442 C 42.6328 0.97767 -1.77678 0
M  V30 443 C 42.9658 1.85016 -0.590135 0
M  V30 444 O 42.2408 1.90095 0.411611 0
M  V30 445 C 42.5238 1.83914 -3.09593 0
M  V30 446 C 42.3768 0.99491 -4.38659 0
M  V30 447 C 43.6958 2.82183 -3.37729 0
M  V30 448 H 40.8148 0.354005 -0.646413 0
M  V30 449 H 43.4568 0.248253 -1.88371 0
M  V30 450 H 41.6068 2.46104 -3.00608 0
M  V30 451 H 43.2788 0.391789 -4.59633 0
M  V30 452 H 41.5218 0.299231 -4.32767 0
M  V30 453 H 42.1928 1.63145 -5.2734 0
M  V30 454 H 44.6688 2.30129 -3.4667 0
M  V30 455 H 43.5448 3.39582 -4.31249 0
M  V30 456 H 43.8058 3.58588 -2.58586 0
M  V30 457 N 42.8649 1.48995 0.513639 0
M  V30 458 C 44.1129 1.57531 1.26604 0
M  V30 459 C 44.4339 0.258236 1.93283 0
M  V30 460 O 43.7039 -0.721502 1.8213 0
M  V30 461 H 42.2839 0.580387 0.470276 0
M  V30 462 H 44.9459 1.85552 0.596373 0
M  V30 463 H 44.0419 2.36486 2.03669 0
M  V30 464 N 44.343 -0.763751 1.37857 0
M  V30 465 C 45.589 -1.52483 1.33704 0
M  V30 466 C 45.922 -1.94051 -0.0759612 0
M  V30 467 O 45.197 -1.64675 -1.03501 0
M  V30 468 C 45.48 -2.78441 2.28348 0
M  V30 469 C 45.333 -2.43075 3.78463 0
M  V30 470 C 46.652 -3.80415 2.21298 0
M  V30 471 H 43.771 -0.553169 0.487005 0
M  V30 472 H 46.413 -0.875562 1.68624 0
M  V30 473 H 44.563 -3.33842 1.987 0
M  V30 474 H 46.235 -1.93527 4.18742 0
M  V30 475 H 44.478 -1.75666 3.96641 0
M  V30 476 H 45.149 -3.33149 4.40132 0
M  V30 477 H 47.625 -3.34527 2.47449 0
M  V30 478 H 46.501 -4.66257 2.89647 0
M  V30 479 H 46.762 -4.25262 1.20849 0
M  V30 480 N 45.8211 -1.22559 -0.990812 0
M  V30 481 C 46.7531 -0.955325 -2.08342 0
M  V30 482 C 47.7661 0.0668408 -1.62663 0
M  V30 483 O 48.9551 -0.167421 -1.77713 0
M  V30 484 C 46.0551 -0.415566 -3.36342 0
M  V30 485 C 45.2281 -1.49544 -4.11042 0
M  V30 486 C 44.2871 -0.962399 -5.17324 0
M  V30 487 O 43.3131 -1.64907 -5.44788 0
M  V30 488 N 44.5151 0.215134 -5.80101 0
M  V30 489 H 47.2801 -1.89596 -2.32106 0
M  V30 490 H 44.8411 -1.13276 -1.15673 0
M  V30 491 H 46.8331 -0.0442386 -4.04676 0
M  V30 492 H 45.4031 0.430232 -3.09625 0
M  V30 493 H 44.6231 -2.04 -3.37309 0
M  V30 494 H 45.9111 -2.22195 -4.57719 0
M  V30 495 H 45.3091 0.789779 -5.6016 0
M  V30 496 H 43.8661 0.527826 -6.49659 0
M  V30 497 N 47.2992 1.18797 -1.03562 0
M  V30 498 C 48.2292 2.24472 -0.643019 0
M  V30 499 C 49.2102 1.66433 0.351283 0
M  V30 500 O 50.3952 1.92803 0.232505 0
M  V30 501 C 47.5252 3.473 4.24935e-05 0
M  V30 502 C 46.4792 4.18055 -0.917257 0
M  V30 503 C 45.8052 5.34519 -0.138941 0
M  V30 504 C 47.1052 4.72109 -2.23407 0
M  V30 505 H 48.7992 2.57566 -1.52643 0
M  V30 506 H 46.3452 1.23806 -0.735394 0
M  V30 507 H 48.2982 4.20426 0.286383 0
M  V30 508 H 47.0222 3.13424 0.918299 0
M  V30 509 H 45.6812 3.46821 -1.1879 0
M  V30 510 H 45.3292 4.96891 0.781562 0
M  V30 511 H 45.0292 5.82794 -0.750005 0
M  V30 512 H 46.5532 6.10438 0.1405 0
M  V30 513 H 47.9672 5.36955 -2.00879 0
M  V30 514 H 46.3642 5.30897 -2.79765 0
M  V30 515 H 47.4342 3.89807 -2.88407 0
M  V30 516 N 48.7773 0.814389 1.34928 0
M  V30 517 C 50.0253 0.397636 1.9815 0
M  V30 518 C 50.3463 -1.04069 1.64908 0
M  V30 519 O 49.6163 -1.72121 0.93548 0
M  V30 520 H 48.1963 0.144043 0.732981 0
M  V30 521 H 50.8583 1.04195 1.6471 0
M  V30 522 H 49.9543 0.509688 3.0791 0
M  V30 523 N 50.2554 -1.46986 0.568584 0
M  V30 524 C 51.2024 -2.30153 -0.172707 0
M  V30 525 C 52.1724 -1.39759 -0.897586 0
M  V30 526 O 53.3574 -1.68716 -0.891044 0
M  V30 527 C 50.4974 -3.23952 -1.1895 0
M  V30 528 C 49.6104 -4.29441 -0.469517 0
M  V30 529 C 48.7454 -5.1038 -1.47259 0
M  V30 530 C 47.7844 -6.07632 -0.738225 0
M  V30 531 N 46.9214 -6.8149 -1.68868 0
M  V30 532 H 51.7614 -2.93019 0.542596 0
M  V30 533 H 49.2984 -1.44422 0.279401 0
M  V30 534 H 51.2564 -3.76767 -1.79173 0
M  V30 535 H 49.8864 -2.62926 -1.87269 0
M  V30 536 H 48.9384 -3.79594 0.247467 0
M  V30 537 H 50.2504 -4.98689 0.105241 0
M  V30 538 H 49.4044 -5.67402 -2.14803 0
M  V30 539 H 48.1434 -4.4106 -2.08128 0
M  V30 540 H 47.1484 -5.49778 -0.0489293 0
M  V30 541 H 48.3734 -6.78966 -0.135129 0
M  V30 542 H 46.3194 -6.14891 -2.28573 0
M  V30 543 H 46.2364 -7.46948 -1.16636 0
M  V30 544 H 47.5044 -7.43078 -2.3549 0
M  V30 545 N 51.7335 -0.305618 -1.54608 0
M  V30 546 C 52.9735 0.303114 -2.0214 0
M  V30 547 C 53.3375 1.50737 -1.18921 0
M  V30 548 O 54.5385 2.18778 -1.56172 0
M  V30 549 C 52.8095 0.646332 -3.51507 0
M  V30 550 S 54.3685 1.23727 -4.20995 0
M  V30 551 H 51.1865 0.0927643 -0.704923 0
M  V30 552 H 53.7885 -0.434566 -1.90609 0
M  V30 553 H 52.4925 -0.238541 -4.09706 0
M  V30 554 H 52.0235 1.41468 -3.67084 0
M  V30 555 H 54.0385 2.52489 -4.27158 0
M  V30 556 N 53.2116 1.57565 -0.0334293 0
M  V30 557 C 54.4366 1.96689 0.657895 0
M  V30 558 C 54.8616 0.910057 1.64619 0
M  V30 559 O 54.2196 -0.128598 1.80843 0
M  V30 560 C 54.2676 3.34905 1.33683 0
M  V30 561 O 53.3716 3.31574 2.45219 0
M  V30 562 H 52.7126 0.641205 0.172489 0
M  V30 563 H 55.2426 2.04372 -0.0965621 0
M  V30 564 H 55.2526 3.71234 1.69262 0
M  V30 565 H 53.9276 4.11366 0.612411 0
M  V30 566 H 52.5046 3.06968 2.11719 0
M  V30 567 N 54.6897 -0.239769 1.55765 0
M  V30 568 C 55.9357 -0.968234 1.78194 0
M  V30 569 C 56.2687 -1.84701 0.599938 0
M  V30 570 O 55.5437 -1.9031 -0.401524 0
M  V30 571 C 55.8267 -1.8227 3.10564 0
M  V30 572 C 55.6797 -0.971633 4.3918 0
M  V30 573 C 56.9987 -2.80388 3.39221 0
M  V30 574 H 54.1177 -0.350572 0.648281 0
M  V30 575 H 56.7597 -0.238259 1.885 0
M  V30 576 H 54.9097 -2.44507 3.01908 0
M  V30 577 H 56.5817 -0.367408 4.59835 0
M  V30 578 H 54.8247 -0.276276 4.32919 0
M  V30 579 H 55.4957 -1.60346 5.28198 0
M  V30 580 H 57.9717 -2.28287 3.47885 0
M  V30 581 H 56.8477 -3.3729 4.33044 0
M  V30 582 H 57.1087 -3.57212 2.60484 0
M  V30 583 N 56.1678 -1.49265 -0.50573 0
M  V30 584 C 57.3958 -1.62215 -1.28429 0
M  V30 585 C 57.8108 -0.291697 -1.86533 0
M  V30 586 O 57.1678 0.722233 -1.67601 0
M  V30 587 C 57.2188 -2.68735 -2.41793 0
M  V30 588 O 56.9398 -3.96619 -1.86078 0
M  V30 589 C 58.4408 -2.92346 -3.3324 0
M  V30 590 H 55.6608 -0.546239 -0.389697 0
M  V30 591 H 58.2048 -1.95265 -0.607609 0
M  V30 592 H 56.3598 -2.38476 -3.053 0
M  V30 593 H 56.7738 -4.55256 -2.60465 0
M  V30 594 H 58.2478 -3.70623 -4.09075 0
M  V30 595 H 58.7248 -2.02081 -3.89948 0
M  V30 596 H 59.3308 -3.24003 -2.75503 0
M  V30 597 N 57.6459 0.756429 -1.3826 0
M  V30 598 C 59.0619 1.0591 -1.19395 0
M  V30 599 C 59.2619 2.01459 -0.0406567 0
M  V30 600 O 58.3179 2.44909 0.614467 0
M  V30 601 C 59.6309 1.64191 -2.51916 0
M  V30 602 C 61.1789 1.76376 -2.58574 0
M  V30 603 C 61.6539 2.38069 -3.91264 0
M  V30 604 N 63.1449 2.45503 -3.92788 0
M  V30 605 C 63.8799 2.94126 -4.92217 0
M  V30 606 N 63.3759 3.42805 -6.02043 0
M  V30 607 N 65.1689 2.9314 -4.7961 0
M  V30 608 H 57.3199 0.122313 -2.12048 0
M  V30 609 H 59.5829 0.116892 -0.940766 0
M  V30 610 H 59.2889 1.01451 -3.3675 0
M  V30 611 H 59.1629 2.6329 -2.70108 0
M  V30 612 H 61.5499 2.38244 -1.74137 0
M  V30 613 H 61.6309 0.759894 -2.44252 0
M  V30 614 H 61.2749 1.76835 -4.76121 0
M  V30 615 H 61.2049 3.39091 -4.02895 0
M  V30 616 H 63.6959 2.1107 -3.13461 0
M  V30 617 H 64.0089 3.78354 -6.73846 0
M  V30 618 H 62.3539 3.4087 -6.05667 0
M  V30 619 H 65.5449 2.54419 -3.92923 0
M  V30 620 H 65.7179 3.30721 -5.5725 0
M  V30 621 N 59.124 1.23083 0.984299 0
M  V30 622 C 60.371 1.06057 1.72505 0
M  V30 623 C 60.699 -0.403105 1.90277 0
M  V30 624 O 59.954 -1.3149 1.44944 0
M  V30 625 C 60.253 1.72673 3.1292 0
M  V30 626 C 59.919 3.22586 3.15038 0
M  V30 627 C 58.581 3.63489 3.15324 0
M  V30 628 C 60.933 4.185 3.10657 0
M  V30 629 C 58.261 4.98772 3.08939 0
M  V30 630 C 60.613 5.53769 3.05814 0
M  V30 631 C 59.277 5.94041 3.04419 0
M  V30 632 H 58.547 0.388091 0.631242 0
M  V30 633 H 61.194 1.52963 1.15215 0
M  V30 634 H 59.499 1.18116 3.73572 0
M  V30 635 H 61.196 1.56982 3.68996 0
M  V30 636 H 57.786 2.90022 3.15571 0
M  V30 637 H 61.97 3.87911 3.09579 0
M  V30 638 H 57.226 5.29193 3.0621 0
M  V30 639 H 61.4 6.27808 3.0138 0
M  V30 640 H 59.027 6.98833 2.99227 0
M  V30 641 N 60.6021 -1.18246 1.0419 0
M  V30 642 C 61.8271 -1.92736 0.765996 0
M  V30 643 C 62.2521 -1.75728 -0.67091 0
M  V30 644 O 61.6101 -1.06825 -1.46486 0
M  V30 645 C 61.6581 -3.42148 1.13875 0
M  V30 646 O 60.7621 -4.11548 0.264954 0
M  V30 647 H 60.1031 -0.601238 0.281797 0
M  V30 648 H 62.6331 -1.49942 1.39207 0
M  V30 649 H 62.6431 -3.92858 1.1012 0
M  V30 650 H 61.3181 -3.53848 2.18551 0
M  V30 651 H 59.8951 -3.71137 0.362226 0
M  V30 652 N 62.0802 -0.821533 -1.34494 0
M  V30 653 C 63.3572 -0.33159 -1.92769 0
M  V30 654 C 63.7372 1.18088 -1.74981 0
M  V30 655 O 63.0852 1.98733 -1.12772 0
M  V30 656 C 63.2952 -0.759398 -3.40638 0
M  V30 657 C 64.6432 -0.757433 -4.1779 0
M  V30 658 O 65.6672 -0.70189 -3.49216 0
M  V30 659 O 64.5262 -0.829361 -5.4017 0
M  V30 660 H 61.6202 -0.0902502 -0.822061 0
M  V30 661 H 64.1662 -0.906231 -1.43477 0
M  V30 662 H 62.9382 -1.8012 -3.47379 0
M  V30 663 H 62.5612 -0.160378 -3.97276 0
M  V30 664 N 63.5583 1.46682 -0.576371 0
M  V30 665 C 64.8063 2.02013 -0.0594163 0
M  V30 666 C 65.1273 1.45101 1.30271 0
M  V30 667 O 64.3973 0.633317 1.8538 0
M  V30 668 H 62.9773 0.746759 -0.0189745 0
M  V30 669 H 65.6393 1.79862 -0.750717 0
M  V30 670 H 64.7353 3.12097 0.014345 0
M  V30 671 N 65.0364 0.313813 1.54444 0
M  V30 672 C 65.9464 -0.565714 2.27677 0
M  V30 673 C 66.9624 -1.13754 1.31666 0
M  V30 674 O 68.1384 -1.15959 1.64668 0
M  V30 675 C 65.2034 -1.71528 3.01296 0
M  V30 676 C 64.2644 -1.17624 4.12872 0
M  V30 677 C 63.4974 -2.27102 4.8297 0
M  V30 678 O 63.7204 -3.47256 4.52514 0
M  V30 679 O 62.6544 -1.9307 5.70094 0
M  V30 680 H 66.4804 0.0287296 3.03686 0
M  V30 681 H 64.0654 0.0798312 1.49187 0
M  V30 682 H 65.9474 -2.38476 3.4743 0
M  V30 683 H 64.6224 -2.29608 2.2817 0
M  V30 684 H 63.5294 -0.472124 3.71109 0
M  V30 685 H 64.8624 -0.640695 4.88012 0
M  V30 686 N 66.5145 -1.57545 0.0417849 0
M  V30 687 C 67.7605 -1.92601 -0.635021 0
M  V30 688 C 68.0935 -0.919627 -1.71045 0
M  V30 689 O 67.3685 0.0557892 -1.9442 0
M  V30 690 C 67.6515 -3.38085 -1.23979 0
M  V30 691 C 67.5045 -4.49467 -0.173057 0
M  V30 692 C 68.8235 -3.83776 -2.15416 0
M  V30 693 H 65.9425 -0.700397 -0.229374 0
M  V30 694 H 68.5845 -1.89728 0.101633 0
M  V30 695 H 66.7345 -3.40664 -1.86762 0
M  V30 696 H 68.4065 -4.59018 0.458312 0
M  V30 697 H 66.6495 -4.30909 0.499996 0
M  V30 698 H 67.3205 -5.48323 -0.636054 0
M  V30 699 H 69.7965 -3.83013 -1.62605 0
M  V30 700 H 68.6725 -4.8624 -2.54679 0
M  V30 701 H 68.9335 -3.19998 -3.05047 0
M  V30 702 N 67.9926 0.231505 -1.5589 0
M  V30 703 C 68.9246 1.31006 -1.8807 0
M  V30 704 C 69.9376 1.43539 -0.768145 0
M  V30 705 O 71.1266 1.44614 -1.04638 0
M  V30 706 C 68.2266 2.68688 -2.06543 0
M  V30 707 C 67.3996 2.78228 -3.37502 0
M  V30 708 C 66.4586 3.96857 -3.4553 0
M  V30 709 O 65.4846 3.85662 -4.18633 0
M  V30 710 N 66.6866 5.1072 -2.75944 0
M  V30 711 H 69.4516 1.03731 -2.81176 0
M  V30 712 H 67.0126 0.421573 -1.56315 0
M  V30 713 H 69.0046 3.46412 -2.09239 0
M  V30 714 H 67.5746 2.88605 -1.20109 0
M  V30 715 H 66.7946 1.87059 -3.46991 0
M  V30 716 H 68.0826 2.81564 -4.23791 0
M  V30 717 H 67.4806 5.2271 -2.16311 0
M  V30 718 H 66.0376 5.86523 -2.84314 0
M  V30 719 N 69.4707 1.49531 0.497807 0
M  V30 720 C 70.7197 1.58426 1.24837 0
M  V30 721 C 71.0327 0.277643 1.93619 0
M  V30 722 O 72.2387 0.24517 2.70391 0
M  V30 723 C 70.6947 2.79538 2.26686 0
M  V30 724 C 70.3027 4.16971 1.63828 0
M  V30 725 C 72.0467 2.97764 3.0255 0
M  V30 726 C 69.9537 5.29301 2.63807 0
M  V30 727 H 68.8837 0.58989 0.469623 0
M  V30 728 H 71.5347 1.75923 0.521857 0
M  V30 729 H 69.9167 2.55542 3.02514 0
M  V30 730 H 71.0907 4.51116 0.939711 0
M  V30 731 H 69.4057 4.04129 1.00342 0
M  V30 732 H 72.0027 3.78856 3.77323 0
M  V30 733 H 72.3457 2.08448 3.60354 0
M  V30 734 H 72.8787 3.21815 2.33838 0
M  V30 735 H 69.6177 6.20687 2.10779 0
M  V30 736 H 69.1377 4.99606 3.31894 0
M  V30 737 H 70.8167 5.58768 3.2617 0
M  V30 738 N 70.9488 -0.749086 1.3866 0
M  V30 739 C 71.8968 -1.88428 1.36373 0
M  V30 740 C 72.8908 -1.67561 0.248929 0
M  V30 741 O 74.0968 -1.75074 0.41821 0
M  V30 742 H 70.4718 -0.620023 0.42553 0
M  V30 743 H 72.4428 -1.87473 2.32156 0
M  V30 744 C 71.1918 -3.25961 1.21014 0
M  V30 745 H 70.5148 -3.42607 2.06059 0
M  V30 746 H 71.9548 -4.05625 1.23469 0
M  V30 747 C 70.4138 -3.36799 -0.0825941 0
M  V30 748 O 70.9438 -3.87517 -1.05797 0
M  V30 749 N 69.1498 -2.90258 -0.140939 0
M  V30 750 H 68.6968 -2.49174 0.653477 0
M  V30 751 H 68.6548 -2.97889 -1.00545 0
M  V30 752 N 72.4269 -1.23603 -0.977757 0
M  V30 753 C 73.6759 -1.06377 -1.71368 0
M  V30 754 C 73.9889 0.399062 -1.91486 0
M  V30 755 O 75.1949 0.691312 -2.62551 0
M  V30 756 C 73.6509 -1.85512 -3.08404 0
M  V30 757 C 73.2589 -3.36141 -2.96164 0
M  V30 758 C 75.0029 -1.76783 -3.85938 0
M  V30 759 C 72.9099 -4.07659 -4.28449 0
M  V30 760 H 71.8399 -0.394452 -0.642591 0
M  V30 761 H 74.4909 -1.47594 -1.09034 0
M  V30 762 H 72.8729 -1.37103 -3.71509 0
M  V30 763 H 74.0469 -3.92056 -2.42133 0
M  V30 764 H 72.3619 -3.45712 -2.32104 0
M  V30 765 H 74.9589 -2.27526 -4.83876 0
M  V30 766 H 75.3019 -0.731116 -4.0983 0
M  V30 767 H 75.8349 -2.22818 -3.2954 0
M  V30 768 H 72.5739 -5.11648 -4.09752 0
M  V30 769 H 72.0939 -3.5653 -4.82334 0
M  V30 770 H 73.7729 -4.141 -4.97122 0
M  V30 771 N 73.905 1.17692 -1.04816 0
M  V30 772 C 74.815 2.25229 -0.65643 0
M  V30 773 C 75.831 1.71018 0.320761 0
M  V30 774 O 77.007 2.00649 0.173805 0
M  V30 775 C 74.072 3.46684 -0.0332629 0
M  V30 776 C 73.133 4.15997 -1.06042 0
M  V30 777 C 72.366 5.31654 -0.466893 0
M  V30 778 O 72.589 5.65777 0.724758 0
M  V30 779 O 71.523 5.89831 -1.1993 0
M  V30 780 H 75.349 2.61016 -1.55255 0
M  V30 781 H 72.934 1.24919 -0.81949 0
M  V30 782 H 74.816 4.20234 0.313256 0
M  V30 783 H 73.491 3.12703 0.836566 0
M  V30 784 H 72.398 3.44482 -1.45886 0
M  V30 785 H 73.731 4.53996 -1.90127 0
M  V30 786 N 75.3831 0.828654 1.34056 0
M  V30 787 C 76.2931 0.256725 2.33191 0
M  V30 788 C 77.3091 -0.611898 1.62886 0
M  V30 789 O 78.4851 -0.51844 1.94613 0
M  V30 790 C 75.5501 -0.567238 3.42028 0
M  V30 791 C 74.6111 0.324458 4.28072 0
M  V30 792 C 73.8441 -0.460274 5.31712 0
M  V30 793 O 74.0671 -1.693 5.44696 0
M  V30 794 O 73.0011 0.160391 6.01686 0
M  V30 795 H 76.8271 1.07739 2.83947 0
M  V30 796 H 74.4121 0.59093 1.37217 0
M  V30 797 H 76.2941 -1.03582 4.08471 0
M  V30 798 H 74.9691 -1.36513 2.93506 0
M  V30 799 H 73.8761 0.840659 3.64532 0
M  V30 800 H 75.2091 1.08685 4.8005 0
M  V30 801 N 76.8612 -1.46375 0.584142 0
M  V30 802 C 78.0862 -2.07268 0.0740405 0
M  V30 803 C 78.5112 -1.42979 -1.22223 0
M  V30 804 O 77.8692 -0.514092 -1.73859 0
M  V30 805 C 77.9172 -3.60518 -0.0767769 0
M  V30 806 O 77.0212 -3.96533 -1.13292 0
M  V30 807 H 76.3622 -0.660961 0.0634524 0
M  V30 808 H 78.8922 -1.87991 0.807492 0
M  V30 809 H 78.9022 -4.07021 -0.282489 0
M  V30 810 H 77.5772 -4.06702 0.86986 0
M  V30 811 H 76.1542 -3.61738 -0.905553 0
M  V30 812 N 78.3393 -0.321999 -1.54275 0
M  V30 813 C 79.5883 0.281931 -1.9972 0
M  V30 814 C 79.9013 1.53369 -1.21397 0
M  V30 815 O 81.1073 2.21352 -1.57211 0
M  V30 816 C 79.5633 0.5529 -3.55628 0
M  V30 817 C 79.1713 -0.681721 -4.42783 0
M  V30 818 C 80.9153 1.11687 -4.09544 0
M  V30 819 C 78.8223 -0.382742 -5.9016 0
M  V30 820 H 77.7523 0.109124 -0.746062 0
M  V30 821 H 80.4033 -0.43398 -1.78294 0
M  V30 822 H 78.7853 1.32896 -3.73035 0
M  V30 823 H 79.9593 -1.45723 -4.37151 0
M  V30 824 H 78.2743 -1.1658 -3.99748 0
M  V30 825 H 80.8713 1.35515 -5.17242 0
M  V30 826 H 81.2143 2.06575 -3.61431 0
M  V30 827 H 81.7473 0.402032 -3.95763 0
M  V30 828 H 78.4863 -1.30076 -6.42464 0
M  V30 829 H 78.0063 0.355094 -5.98748 0
M  V30 830 H 79.6853 0.00800157 -6.47 0
M  V30 831 N 79.8174 1.5752 -0.0501392 0
M  V30 832 C 81.2334 1.56631 0.306402 0
M  V30 833 C 81.4334 1.0577 1.71508 0
M  V30 834 O 80.4894 0.713837 2.422 0
M  V30 835 C 81.8024 3.00393 0.135811 0
M  V30 836 C 83.3504 3.12315 0.206993 0
M  V30 837 C 83.8254 4.57954 0.064944 0
M  V30 838 N 85.3164 4.63041 0.121254 0
M  V30 839 C 86.0514 5.73389 0.0354381 0
M  V30 840 N 85.5474 6.92724 -0.102666 0
M  V30 841 N 87.3404 5.62026 0.090946 0
M  V30 842 H 79.4914 1.88903 -0.971046 0
M  V30 843 H 81.7544 0.869876 -0.376855 0
M  V30 844 H 81.4604 3.41635 -0.835384 0
M  V30 845 H 81.3344 3.66373 0.897275 0
M  V30 846 H 83.7214 2.70973 1.16866 0
M  V30 847 H 83.8024 2.49016 -0.585208 0
M  V30 848 H 83.4464 4.99981 -0.893394 0
M  V30 849 H 83.3764 5.19258 0.876277 0
M  V30 850 H 85.8674 3.77216 0.227284 0
M  V30 851 H 86.1804 7.72633 -0.160882 0
M  V30 852 H 84.5254 6.94864 -0.137737 0
M  V30 853 H 87.7164 4.67684 0.197388 0
M  V30 854 H 87.8894 6.47997 0.0206089 0
M  V30 855 N 81.2955 -0.223234 1.56011 0
M  V30 856 C 82.5435 -0.946003 1.78592 0
M  V30 857 C 82.8645 -1.84936 0.618349 0
M  V30 858 O 82.1345 -1.92473 -0.364833 0
M  V30 859 H 80.7145 -0.352298 0.658707 0
M  V30 860 H 83.3765 -0.235494 1.93472 0
M  V30 861 H 82.4725 -1.55381 2.70672 0
M  V30 862 N 82.7736 -1.49793 -0.48987 0
M  V30 863 C 84.0136 -1.61466 -1.25332 0
M  V30 864 C 84.3776 -0.299688 -1.89647 0
M  V30 865 O 85.5786 -0.291687 -2.67213 0
M  V30 866 C 83.8496 -2.74944 -2.28343 0
M  V30 867 S 85.4086 -3.06637 -3.13878 0
M  V30 868 H 82.2266 -0.569411 -0.425784 0
M  V30 869 H 84.8286 -1.875 -0.553541 0
M  V30 870 H 83.5326 -3.68994 -1.79643 0
M  V30 871 H 83.0636 -2.50938 -3.02975 0
M  V30 872 H 85.0786 -2.49015 -4.29192 0
M  V30 873 N 84.2517 0.741722 -1.39055 0
M  V30 874 C 85.5287 1.49252 -1.26425 0
M  V30 875 C 85.9087 2.10705 0.129144 0
M  V30 876 O 85.2567 1.98045 1.13976 0
M  V30 877 C 85.4667 2.54934 -2.38347 0
M  V30 878 C 86.8147 3.21506 -2.77343 0
M  V30 879 O 87.8387 2.65245 -2.37747 0
M  V30 880 O 86.6977 4.23294 -3.45665 0
M  V30 881 H 83.7917 0.662451 -0.495064 0
M  V30 882 H 86.3377 0.776121 -1.50912 0
M  V30 883 H 85.1097 2.07857 -3.31529 0
M  V30 884 H 84.7327 3.34141 -2.15489 0
M  V30 885 N 85.7298 1.2412 0.971189 0
M  V30 886 C 86.9698 1.09066 1.7287 0
M  V30 887 C 87.3338 -0.364794 1.88503 0
M  V30 888 O 88.5348 -0.636748 2.61149 0
M  V30 889 C 86.8058 1.80629 3.08396 0
M  V30 890 S 88.3648 1.81263 3.99611 0
M  V30 891 H 85.1828 0.390145 0.594397 0
M  V30 892 H 87.7848 1.57397 1.15959 0
M  V30 893 H 86.4888 2.85647 2.94676 0
M  V30 894 H 86.0198 1.32617 3.70373 0
M  V30 895 H 88.0348 0.877804 4.88374 0
M  V30 896 N 87.2079 -1.17134 1.05439 0
M  V30 897 C 88.4379 -1.91094 0.785274 0
M  V30 898 C 88.8459 -1.77198 -0.663142 0
M  V30 899 O 88.1889 -1.10835 -1.46497 0
M  V30 900 C 88.2509 -3.42594 1.08949 0
M  V30 901 C 87.9149 -3.80274 2.53458 0
M  V30 902 C 88.9119 -3.82912 3.51673 0
M  V30 903 C 86.5969 -4.11162 2.88532 0
M  V30 904 C 88.5909 -4.15913 4.83006 0
M  V30 905 C 86.2779 -4.43831 4.20068 0
M  V30 906 C 87.2759 -4.46185 5.17115 0
M  V30 907 O 86.9639 -4.78083 6.46291 0
M  V30 908 H 86.6959 -0.613073 0.284811 0
M  V30 909 H 89.2499 -1.49461 1.40893 0
M  V30 910 H 87.4799 -3.84534 0.408741 0
M  V30 911 H 89.1689 -3.97817 0.805991 0
M  V30 912 H 89.9349 -3.5917 3.25917 0
M  V30 913 H 85.8139 -4.085 2.13656 0
M  V30 914 H 89.3579 -4.17665 5.5875 0
M  V30 915 H 85.2549 -4.67037 4.45586 0
M  V30 916 H 86.0229 -4.9593 6.51149 0
M  V30 917 N 88.686 -0.835752 -1.33615 0
M  V30 918 C 89.935 -0.426289 -1.97144 0
M  V30 919 C 90.248 1.01912 -1.66953 0
M  V30 920 O 91.454 1.53311 -2.24072 0
M  V30 921 C 89.91 -0.711321 -3.52801 0
M  V30 922 C 89.518 -2.1712 -3.91871 0
M  V30 923 C 91.262 -0.368654 -4.22896 0
M  V30 924 C 89.169 -2.40044 -5.40493 0
M  V30 925 H 88.099 -0.15567 -0.737755 0
M  V30 926 H 90.75 -1.0239 -1.52278 0
M  V30 927 H 89.132 -0.0433766 -3.95976 0
M  V30 928 H 90.306 -2.87936 -3.59763 0
M  V30 929 H 88.621 -2.47654 -3.34749 0
M  V30 930 H 91.218 -0.517601 -5.32189 0
M  V30 931 H 91.561 0.688078 -4.10574 0
M  V30 932 H 92.094 -0.991702 -3.8524 0
M  V30 933 H 88.833 -3.44271 -5.57815 0
M  V30 934 H 88.353 -1.73785 -5.74072 0
M  V30 935 H 90.032 -2.23042 -6.0734 0
M  V30 936 N 90.1641 1.46063 -0.591896 0
M  V30 937 C 91.4131 2.01547 -0.0786637 0
M  V30 938 C 91.7261 1.46796 1.29268 0
M  V30 939 O 92.9321 1.94157 1.89777 0
M  V30 940 C 91.3881 3.59787 -0.0900024 0
M  V30 941 C 90.9961 4.23534 -1.46023 0
M  V30 942 C 92.7401 4.22895 0.368806 0
M  V30 943 C 90.6471 5.73881 -1.4288 0
M  V30 944 H 89.5771 0.753564 -0.0256388 0
M  V30 945 H 92.2281 1.677 -0.744905 0
M  V30 946 H 90.6101 3.90752 0.642586 0
M  V30 947 H 91.7841 4.04167 -2.21328 0
M  V30 948 H 90.0991 3.72558 -1.85982 0
M  V30 949 H 92.6961 5.33116 0.411258 0
M  V30 950 H 93.0391 3.9247 1.38827 0
M  V30 951 H 93.5721 3.9659 -0.31001 0
M  V30 952 H 90.3111 6.0898 -2.42536 0
M  V30 953 H 89.8311 5.95486 -0.718095 0
M  V30 954 H 91.5101 6.36776 -1.14565 0
M  V30 955 N 91.6422 0.330177 1.54103 0
M  V30 956 C 92.5742 -0.566902 2.22079 0
M  V30 957 C 93.5872 -1.07462 1.22294 0
M  V30 958 O 94.7762 -0.987065 1.48726 0
M  V30 959 C 91.8762 -1.79138 2.87685 0
M  V30 960 C 91.0492 -1.42123 4.13666 0
M  V30 961 C 90.1082 -2.50394 4.62806 0
M  V30 962 O 89.1342 -2.14261 5.27334 0
M  V30 963 N 90.3362 -3.81433 4.37595 0
M  V30 964 H 93.1012 0.0151844 2.99696 0
M  V30 965 H 90.6622 0.153681 1.61169 0
M  V30 966 H 92.6542 -2.50975 3.1748 0
M  V30 967 H 91.2242 -2.28115 2.13734 0
M  V30 968 H 90.4442 -0.534201 3.90564 0
M  V30 969 H 91.7322 -1.14971 4.9564 0
M  V30 970 H 91.1302 -4.13584 3.8596 0
M  V30 971 H 89.6872 -4.4948 4.72029 0
M  V30 972 N 93.1203 -1.57491 0.0584922 0
M  V30 973 C 94.3453 -1.97711 -0.62652 0
M  V30 974 C 94.7703 -0.936132 -1.63151 0
M  V30 975 O 94.1283 0.099811 -1.81025 0
M  V30 976 C 94.1763 -3.36989 -1.28338 0
M  V30 977 O 93.2803 -3.35433 -2.39913 0
M  V30 978 H 92.6213 -0.643868 -0.162266 0
M  V30 979 H 95.1513 -2.04193 0.129064 0
M  V30 980 H 95.1613 -3.73879 -1.63335 0
M  V30 981 H 93.8363 -4.12289 -0.546889 0
M  V30 982 H 92.4133 -3.10298 -2.06809 0
M  V30 983 N 94.5984 0.214957 -1.56127 0
M  V30 984 C 95.8264 0.955092 -1.83536 0
M  V30 985 C 96.2414 1.77677 -0.638472 0
M  V30 986 O 95.5984 1.78219 0.392968 0
M  V30 987 C 95.6494 1.86734 -3.09536 0
M  V30 988 O 95.3704 1.07887 -4.24608 0
M  V30 989 C 96.8714 2.72082 -3.4998 0
M  V30 990 H 94.0914 0.279611 -0.609966 0
M  V30 991 H 96.6354 0.228197 -2.03223 0
M  V30 992 H 94.7904 2.5481 -2.91806 0
M  V30 993 H 95.2044 1.69872 -4.9623 0
M  V30 994 H 96.6784 3.31782 -4.41163 0
M  V30 995 H 97.1554 3.44806 -2.7204 0
M  V30 996 H 97.7614 2.09409 -3.70173 0
M  V30 997 N 96.0765 1.50051 0.48192 0
M  V30 998 C 97.3015 1.64508 1.26301 0
M  V30 999 C 97.7265 0.323851 1.85291 0
M  V30 1000 O 97.0845 -0.710969 1.66778 0
M  V30 1001 C 97.1325 2.7305 2.35533 0
M  V30 1002 O 96.2365 2.3355 3.39895 0
M  V30 1003 H 95.5775 0.549978 0.372048 0
M  V30 1004 H 98.1075 1.9636 0.574786 0
M  V30 1005 H 98.1175 2.95799 2.8101 0
M  V30 1006 H 96.7925 3.68946 1.91967 0
M  V30 1007 H 95.3695 2.21205 3.00204 0
M  V30 1008 N 97.5546 -0.734337 1.39446 0
M  V30 1009 C 98.8316 -1.48579 1.27215 0
M  V30 1010 C 99.2116 -2.1077 -0.117968 0
M  V30 1011 O 98.5596 -1.98646 -1.12924 0
M  V30 1012 C 98.7696 -2.53667 2.39696 0
M  V30 1013 C 100.118 -3.20031 2.79044 0
M  V30 1014 O 101.142 -2.6398 2.39151 0
M  V30 1015 O 100.001 -4.21455 3.47905 0
M  V30 1016 H 97.0946 -0.659816 0.49857 0
M  V30 1017 H 99.6406 -0.768106 1.51322 0
M  V30 1018 H 98.4126 -2.06096 3.32626 0
M  V30 1019 H 98.0356 -3.32994 2.17258 0
M  V30 1020 N 99.0327 -1.24633 -0.964593 0
M  V30 1021 C 100.444 -1.08045 -1.5226 0
M  V30 1022 C 100.795 0.347116 -1.93105 0
M  V30 1023 O 99.9197 1.23588 -1.77637 0
M  V30 1024 C 100.515 -1.95514 -2.76695 0
M  V30 1025 C 99.0737 -1.8314 -3.28841 0
M  V30 1026 C 98.2207 -1.90262 -2.01732 0
M  V30 1027 H 101.172 -1.38064 -0.782553 0
M  V30 1028 H 101.193 -1.48925 -3.50145 0
M  V30 1029 H 100.705 -2.99407 -2.46936 0
M  V30 1030 H 98.8057 -0.82092 -3.63444 0
M  V30 1031 H 98.9187 -2.67406 -3.97531 0
M  V30 1032 H 97.2827 -1.34027 -2.16584 0
M  V30 1033 H 98.0657 -2.9574 -1.74334 0
M  V30 1034 N 100.511 1.16574 -1.06058 0
M  V30 1035 C 101.757 1.87324 -0.777022 0
M  V30 1036 C 102.09 1.81351 0.694645 0
M  V30 1037 O 101.365 1.22753 1.50871 0
M  V30 1038 C 101.648 3.36991 -1.26922 0
M  V30 1039 C 101.501 3.51667 -2.80447 0
M  V30 1040 C 102.82 4.3131 -0.87521 0
M  V30 1041 H 99.9388 0.680191 -0.28374 0
M  V30 1042 H 102.581 1.37036 -1.3161 0
M  V30 1043 H 100.731 3.79949 -0.81063 0
M  V30 1044 H 102.403 3.17664 -3.34495 0
M  V30 1045 H 100.646 2.93656 -3.19294 0
M  V30 1046 H 101.317 4.56766 -3.0995 0
M  V30 1047 H 103.793 3.9624 -1.27014 0
M  V30 1048 H 102.669 5.34545 -1.2471 0
M  V30 1049 H 102.93 4.41552 0.220071 0
M  V30 1050 N 101.989 0.842826 1.3317 0
M  V30 1051 C 102.937 0.267495 2.31057 0
M  V30 1052 C 103.931 -0.602682 1.58316 0
M  V30 1053 O 105.137 -0.491803 1.73151 0
M  V30 1054 H 101.512 0.0677813 0.748939 0
M  V30 1055 H 103.483 1.10754 2.77085 0
M  V30 1056 C 102.232 -0.539331 3.43492 0
M  V30 1057 H 101.555 0.12095 3.99617 0
M  V30 1058 H 102.995 -0.90767 4.14171 0
M  V30 1059 C 101.454 -1.71981 2.89697 0
M  V30 1060 O 101.984 -2.81862 2.86211 0
M  V30 1061 N 100.19 -1.54299 2.46252 0
M  V30 1062 H 99.7369 -0.649143 2.49287 0
M  V30 1063 H 99.6949 -2.33431 2.10612 0
M  V30 1064 N 103.467 -1.45747 0.599634 0
M  V30 1065 C 104.377 -2.34262 -0.125888 0
M  V30 1066 C 105.393 -1.50768 -0.868625 0
M  V30 1067 O 106.569 -1.83592 -0.828003 0
M  V30 1068 C 103.634 -3.28252 -1.11587 0
M  V30 1069 C 102.695 -4.27651 -0.375956 0
M  V30 1070 C 101.928 -5.1715 -1.31877 0
M  V30 1071 O 102.151 -5.09916 -2.55621 0
M  V30 1072 O 101.085 -5.96286 -0.820157 0
M  V30 1073 H 104.911 -2.97688 0.601315 0
M  V30 1074 H 102.496 -1.44999 0.359934 0
M  V30 1075 H 104.378 -3.86191 -1.68626 0
M  V30 1076 H 103.053 -2.67401 -1.82424 0
M  V30 1077 H 101.96 -3.7335 0.236698 0
M  V30 1078 H 103.293 -4.91334 0.29177 0
M  V30 1079 N 104.945 -0.338344 -1.53925 0
M  V30 1080 C 105.895 0.536712 -2.21593 0
M  V30 1081 C 106.879 1.07015 -1.20153 0
M  V30 1082 O 108.071 1.00471 -1.45721 0
M  V30 1083 C 105.2 1.68977 -2.98834 0
M  V30 1084 C 104.286 1.17052 -4.07627 0
M  V30 1085 N 104.677 0.372085 -5.0443 0
M  V30 1086 C 102.975 1.44789 -4.21844 0
M  V30 1087 C 103.676 0.0909171 -5.81629 0
M  V30 1088 N 102.652 0.681131 -5.39316 0
M  V30 1089 H 106.454 -0.0804298 -2.9379 0
M  V30 1090 H 103.968 -0.144943 -1.61752 0
M  V30 1091 H 105.965 2.32857 -3.45808 0
M  V30 1092 H 104.625 2.31024 -2.28162 0
M  V30 1093 H 105.636 0.0136217 -5.17898 0
M  V30 1094 H 102.313 2.07313 -3.62391 0
M  V30 1095 H 103.703 -0.552817 -6.69622 0
M  V30 1096 N 106.423 1.57458 -0.0668435 0
M  V30 1097 C 107.672 1.92477 0.602947 0
M  V30 1098 C 107.985 0.948419 1.71068 0
M  V30 1099 O 109.191 1.19124 2.43971 0
M  V30 1100 C 107.647 3.41903 1.12383 0
M  V30 1101 C 107.255 4.47975 0.04737 0
M  V30 1102 C 108.999 3.85931 1.76797 0
M  V30 1103 C 106.906 5.88529 0.582022 0
M  V30 1104 H 105.836 0.718387 0.22899 0
M  V30 1105 H 108.487 1.82978 -0.138276 0
M  V30 1106 H 106.869 3.46459 1.91787 0
M  V30 1107 H 108.043 4.55029 -0.726978 0
M  V30 1108 H 106.358 4.13384 -0.500243 0
M  V30 1109 H 108.955 4.88322 2.17821 0
M  V30 1110 H 109.298 3.23029 2.62599 0
M  V30 1111 H 109.831 3.83958 1.04024 0
M  V30 1112 H 106.57 6.55065 -0.238721 0
M  V30 1113 H 106.09 5.85004 1.324 0
M  V30 1114 H 107.769 6.38258 1.05999 0
M  V30 1115 N 107.901 -0.206675 1.56239 0
M  V30 1116 C 108.834 -1.28383 1.88661 0
M  V30 1117 C 109.812 -1.44504 0.745481 0
M  V30 1118 O 110.996 -1.60079 0.995336 0
M  V30 1119 C 108.123 -2.65211 2.10667 0
M  V30 1120 C 107.169 -2.66025 3.33366 0
M  V30 1121 S 108.002 -2.18609 4.88846 0
M  V30 1122 C 109.158 -3.57283 5.13906 0
M  V30 1123 H 109.391 -1.00691 2.7973 0
M  V30 1124 H 106.924 -0.409627 1.48867 0
M  V30 1125 H 108.882 -3.43979 2.24029 0
M  V30 1126 H 107.543 -2.90121 1.20369 0
M  V30 1127 H 106.736 -3.66607 3.45855 0
M  V30 1128 H 106.338 -1.95331 3.18938 0
M  V30 1129 H 108.63 -4.53074 5.03717 0
M  V30 1130 H 109.573 -3.49699 6.15724 0
M  V30 1131 H 109.981 -3.51659 4.41583 0
M  V30 1132 N 109.379 -1.50304 -0.473955 0
M  V30 1133 C 110.289 -1.7174 -1.5982 0
M  V30 1134 C 111.305 -0.600457 -1.63311 0
M  V30 1135 O 112.481 -0.878441 -1.81233 0
M  V30 1136 C 109.546 -1.80427 -2.96052 0
M  V30 1137 C 108.607 -3.04148 -3.02972 0
M  V30 1138 C 107.84 -3.12411 -4.32706 0
M  V30 1139 O 108.063 -2.27542 -5.23049 0
M  V30 1140 O 106.997 -4.05113 -4.45159 0
M  V30 1141 H 110.823 -2.67035 -1.44657 0
M  V30 1142 H 108.408 -1.34366 -0.653148 0
M  V30 1143 H 110.29 -1.88338 -3.7697 0
M  V30 1144 H 108.965 -0.883156 -3.11419 0
M  V30 1145 H 107.872 -3.0174 -2.21142 0
M  V30 1146 H 109.205 -3.95829 -2.92541 0
M  V30 1147 N 110.857 0.726932 -1.39834 0
M  V30 1148 C 111.787 1.85405 -1.41941 0
M  V30 1149 C 112.768 1.67751 -0.281728 0
M  V30 1150 O 113.953 1.8795 -0.488717 0
M  V30 1151 C 111.083 3.23243 -1.2701 0
M  V30 1152 C 110.037 3.55549 -2.38262 0
M  V30 1153 C 109.363 4.9241 -2.08415 0
M  V30 1154 C 110.663 3.577 -3.80589 0
M  V30 1155 H 112.357 1.83899 -2.36266 0
M  V30 1156 H 109.903 0.883349 -1.13723 0
M  V30 1157 H 111.856 4.01775 -1.27103 0
M  V30 1158 H 110.58 3.25296 -0.291564 0
M  V30 1159 H 109.239 2.79351 -2.37399 0
M  V30 1160 H 108.887 4.91052 -1.0898 0
M  V30 1161 H 108.587 5.14992 -2.82943 0
M  V30 1162 H 110.111 5.73289 -2.10171 0
M  V30 1163 H 111.525 4.26293 -3.83337 0
M  V30 1164 H 109.922 3.91804 -4.54543 0
M  V30 1165 H 110.992 2.57328 -4.10987 0
M  V30 1166 N 112.336 1.25143 0.95797 0
M  V30 1167 C 113.266 1.07711 2.07173 0
M  V30 1168 C 114.247 -0.0128462 1.70095 0
M  V30 1169 O 115.432 0.156061 1.93572 0
M  V30 1170 C 112.562 0.691503 3.40346 0
M  V30 1171 C 111.516 1.73132 3.9142 0
M  V30 1172 C 110.842 1.20049 5.21049 0
M  V30 1173 C 112.142 3.1294 4.1817 0
M  V30 1174 H 113.836 2.00873 2.22014 0
M  V30 1175 H 111.382 0.967191 1.06684 0
M  V30 1176 H 113.335 0.556505 4.17709 0
M  V30 1177 H 112.059 -0.275819 3.25433 0
M  V30 1178 H 110.718 1.8547 3.16222 0
M  V30 1179 H 110.366 0.223499 5.02503 0
M  V30 1180 H 110.066 1.89545 5.56189 0
M  V30 1181 H 111.59 1.07782 6.01012 0
M  V30 1182 H 113.004 3.03775 4.86203 0
M  V30 1183 H 111.401 3.79875 4.64559 0
M  V30 1184 H 112.471 3.6025 3.24573 0
M  V30 1185 N 113.814 -1.1601 1.06675 0
M  V30 1186 C 115.063 -1.85973 0.780818 0
M  V30 1187 C 115.376 -1.82819 -0.695444 0
M  V30 1188 O 116.582 -2.484 -1.09589 0
M  V30 1189 C 115.038 -3.33757 1.34665 0
M  V30 1190 C 114.646 -3.45374 2.85343 0
M  V30 1191 C 116.39 -4.0895 1.13843 0
M  V30 1192 C 114.297 -4.87266 3.35151 0
M  V30 1193 H 113.227 -0.696661 0.288407 0
M  V30 1194 H 115.878 -1.30903 1.28595 0
M  V30 1195 H 114.26 -3.88456 0.769274 0
M  V30 1196 H 115.434 -3.00816 3.49065 0
M  V30 1197 H 113.749 -2.83619 3.04876 0
M  V30 1198 H 116.346 -5.13654 1.4854 0
M  V30 1199 H 116.689 -4.16229 0.0770282 0
M  V30 1200 H 117.222 -3.605 1.68179 0
M  V30 1201 H 113.961 -4.85168 4.40786 0
M  V30 1202 H 113.481 -5.32433 2.76179 0
M  V30 1203 H 115.16 -5.56097 3.30704 0
M  V30 1204 N 115.292 -0.849877 -1.32721 0
M  V30 1205 C 116.225 -0.235903 -2.26977 0
M  V30 1206 C 117.203 0.623355 -1.50177 0
M  V30 1207 O 118.387 0.581207 -1.79316 0
M  V30 1208 C 115.514 0.667712 -3.32053 0
M  V30 1209 C 114.56 -0.11753 -4.26338 0
M  V30 1210 S 115.393 -1.48277 -5.14562 0
M  V30 1211 C 116.549 -0.584741 -6.23163 0
M  V30 1212 H 116.782 -1.03495 -2.78704 0
M  V30 1213 H 114.315 -0.64724 -1.40179 0
M  V30 1214 H 116.273 1.18343 -3.93072 0
M  V30 1215 H 114.934 1.44052 -2.7912 0
M  V30 1216 H 114.127 0.57051 -5.00761 0
M  V30 1217 H 113.729 -0.564668 -3.69713 0
M  V30 1218 H 116.021 0.212968 -6.77165 0
M  V30 1219 H 116.964 -1.29947 -6.96074 0
M  V30 1220 H 117.372 -0.161202 -5.6427 0
M  V30 1221 N 116.77 1.45427 -0.607355 0
M  V30 1222 C 118.016 2.0254 -0.102607 0
M  V30 1223 C 118.349 1.47478 1.26348 0
M  V30 1224 O 117.624 0.64939 1.83339 0
M  V30 1225 C 117.907 3.60044 -0.0634347 0
M  V30 1226 C 117.76 4.2544 -1.46017 0
M  V30 1227 C 119.079 4.35646 0.624514 0
M  V30 1228 H 116.198 0.73598 -0.0387607 0
M  V30 1229 H 118.84 1.73284 -0.779282 0
M  V30 1230 H 116.99 3.85101 0.512808 0
M  V30 1231 H 118.662 4.11569 -2.08347 0
M  V30 1232 H 116.905 3.83849 -2.02094 0
M  V30 1233 H 117.576 5.34342 -1.385 0
M  V30 1234 H 120.052 4.15882 0.134723 0
M  V30 1235 H 118.928 5.45376 0.621028 0
M  V30 1236 H 119.189 4.08501 1.69055 0
M  V30 1237 N 118.248 0.346503 1.53744 0
M  V30 1238 C 119.525 -0.304532 1.93215 0
M  V30 1239 C 119.905 -1.67993 1.27834 0
M  V30 1240 O 119.253 -2.24411 0.430352 0
M  V30 1241 C 119.463 -0.373852 3.46992 0
M  V30 1242 C 120.811 -0.62329 4.2 0
M  V30 1243 O 121.835 -0.455847 3.53271 0
M  V30 1244 O 120.694 -0.947879 5.38217 0
M  V30 1245 H 117.788 -0.178318 0.807547 0
M  V30 1246 H 120.334 0.397895 1.64969 0
M  V30 1247 H 119.106 0.591224 3.86808 0
M  V30 1248 H 118.729 -1.12294 3.81413 0
M  V30 1249 N 119.726 -1.57421 0.075193 0
M  V30 1250 C 120.689 -2.11791 -0.876203 0
M  V30 1251 C 121.689 -1.04268 -1.22412 0
M  V30 1252 O 122.879 -1.30242 -1.15684 0
M  V30 1253 C 120.011 -2.62207 -2.17854 0
M  V30 1254 H 121.204 -2.9716 -0.40444 0
M  V30 1255 H 118.757 -1.55333 -0.173557 0
M  V30 1256 H 119.492 -1.803 -2.6956 0
M  V30 1257 H 119.277 -3.40802 -1.93897 0
M  V30 1258 H 120.767 -3.04335 -2.85955 0
M  V30 1259 N 121.204 0.198386 -1.56346 0
M  V30 1260 C 122.134 1.24865 -1.9731 0
M  V30 1261 C 123.115 1.47651 -0.844576 0
M  V30 1262 O 124.3 1.59444 -1.10866 0
M  V30 1263 C 121.43 2.59358 -2.30977 0
M  V30 1264 C 120.384 2.5119 -3.46537 0
M  V30 1265 C 119.71 3.89926 -3.65871 0
M  V30 1266 C 121.01 2.03977 -4.80823 0
M  V30 1267 H 122.704 0.908252 -2.85291 0
M  V30 1268 H 120.25 0.435462 -1.37258 0
M  V30 1269 H 122.203 3.33011 -2.58228 0
M  V30 1270 H 120.927 2.95132 -1.39874 0
M  V30 1271 H 119.586 1.79993 -3.19371 0
M  V30 1272 H 119.234 4.23046 -2.72105 0
M  V30 1273 H 118.934 3.85336 -4.4361 0
M  V30 1274 H 120.458 4.65205 -3.95495 0
M  V30 1275 H 121.872 2.67386 -5.07127 0
M  V30 1276 H 120.269 2.10397 -5.62008 0
M  V30 1277 H 121.339 0.992861 -4.74626 0
M  V30 1278 N 122.682 1.50554 0.465978 0
M  V30 1279 C 123.629 1.6979 1.56333 0
M  V30 1280 C 124.599 0.539239 1.57103 0
M  V30 1281 O 125.784 0.770401 1.74555 0
M  V30 1282 C 122.924 1.80273 2.94271 0
M  V30 1283 C 122.037 3.07674 3.0325 0
M  V30 1284 C 121.172 3.08922 4.32135 0
M  V30 1285 C 120.211 4.30755 4.34875 0
M  V30 1286 N 119.348 4.29714 5.55239 0
M  V30 1287 H 124.188 2.63472 1.39235 0
M  V30 1288 H 121.725 1.30602 0.676873 0
M  V30 1289 H 123.683 1.84332 3.74269 0
M  V30 1290 H 122.313 0.900258 3.09992 0
M  V30 1291 H 121.365 3.13062 2.16094 0
M  V30 1292 H 122.677 3.97642 3.01135 0
M  V30 1293 H 121.831 3.11738 5.20485 0
M  V30 1294 H 120.57 2.16792 4.36866 0
M  V30 1295 H 119.575 4.28146 3.44922 0
M  V30 1296 H 120.8 5.24117 4.31831 0
M  V30 1297 H 118.746 3.4044 5.60746 0
M  V30 1298 H 118.663 5.13456 5.54886 0
M  V30 1299 H 119.931 4.36683 6.457 0
M  V30 1300 N 124.16 -0.719506 1.40217 0
M  V30 1301 C 125.576 -1.02707 1.22161 0
M  V30 1302 C 125.776 -2.0128 0.0940557 0
M  V30 1303 O 124.832 -2.46452 -0.549318 0
M  V30 1304 C 126.145 -1.57454 2.56181 0
M  V30 1305 C 127.693 -1.69458 2.63159 0
M  V30 1306 C 128.168 -2.27611 3.97438 0
M  V30 1307 N 129.659 -2.35002 3.99159 0
M  V30 1308 C 130.394 -2.80972 4.99842 0
M  V30 1309 N 129.89 -3.26723 6.10921 0
M  V30 1310 N 131.683 -2.80321 4.87213 0
M  V30 1311 H 123.834 -0.0660492 2.12297 0
M  V30 1312 H 126.097 -0.0919077 0.943534 0
M  V30 1313 H 125.803 -0.924873 3.39321 0
M  V30 1314 H 125.677 -2.56036 2.76993 0
M  V30 1315 H 128.064 -2.33543 1.80393 0
M  V30 1316 H 128.145 -0.694867 2.46181 0
M  V30 1317 H 127.789 -1.6415 4.80643 0
M  V30 1318 H 127.719 -3.2829 4.11744 0
M  V30 1319 H 130.21 -2.02685 3.18947 0
M  V30 1320 H 130.523 -3.60355 6.8364 0
M  V30 1321 H 128.868 -3.24692 6.14492 0
M  V30 1322 H 132.059 -2.43912 3.9953 0
M  V30 1323 H 132.232 -3.15831 5.65822 0
M  V30 1324 N 125.638 -1.25649 -0.95132 0
M  V30 1325 C 126.601 -1.06399 -2.03007 0
M  V30 1326 C 127.601 -0.0156794 -1.60792 0
M  V30 1327 O 128.791 -0.25817 -1.72276 0
M  V30 1328 C 125.923 -0.616184 -3.35285 0
M  V30 1329 H 127.116 -2.02164 -2.21517 0
M  V30 1330 H 124.669 -1.08103 -1.12887 0
M  V30 1331 H 125.404 0.343917 -3.22471 0
M  V30 1332 H 125.189 -1.37301 -3.67275 0
M  V30 1333 H 126.679 -0.503032 -4.14559 0
M  V30 1334 N 127.117 1.15442 -1.07289 0
M  V30 1335 C 128.342 1.90638 -0.816828 0
M  V30 1336 C 128.767 1.77445 0.624083 0
M  V30 1337 O 128.125 1.10671 1.43602 0
M  V30 1338 C 128.173 3.39008 -1.22906 0
M  V30 1339 O 127.277 4.10701 -0.373975 0
M  V30 1340 H 126.618 0.593555 -0.297638 0
M  V30 1341 H 129.148 1.46198 -1.43134 0
M  V30 1342 H 129.158 3.89801 -1.20497 0
M  V30 1343 H 127.833 3.47929 -2.27856 0
M  V30 1344 H 126.41 3.70046 -0.460499 0
M  V30 1345 N 128.595 0.856903 1.32268 0
M  V30 1346 C 129.558 0.308171 2.27119 0
M  V30 1347 C 130.558 -0.533421 1.51695 0
M  V30 1348 O 131.748 -0.344607 1.70757 0
M  V30 1349 C 128.88 -0.563757 3.36206 0
M  V30 1350 H 130.073 1.14535 2.77167 0
M  V30 1351 H 127.626 0.631421 1.42978 0
M  V30 1352 H 128.361 -1.42266 2.91429 0
M  V30 1353 H 128.146 0.0386749 3.92081 0
M  V30 1354 H 129.636 -0.940386 4.06874 0
M  V30 1355 N 130.073 -1.45103 0.615059 0
M  V30 1356 C 131.02 -2.30586 -0.0993978 0
M  V30 1357 C 131.99 -1.42544 -0.852669 0
M  V30 1358 O 133.175 -1.71465 -0.836917 0
M  V30 1359 C 130.315 -3.27572 -1.08583 0
M  V30 1360 C 129.428 -4.30717 -0.332656 0
M  V30 1361 C 128.563 -5.14807 -1.30947 0
M  V30 1362 C 127.602 -6.09673 -0.544538 0
M  V30 1363 N 126.739 -6.86517 -1.47101 0
M  V30 1364 H 131.579 -2.91144 0.635542 0
M  V30 1365 H 129.116 -1.4346 0.325206 0
M  V30 1366 H 131.074 -3.82276 -1.67095 0
M  V30 1367 H 129.704 -2.68751 -1.78809 0
M  V30 1368 H 128.756 -3.78615 0.368107 0
M  V30 1369 H 130.068 -4.98102 0.263842 0
M  V30 1370 H 129.222 -5.73948 -1.96643 0
M  V30 1371 H 127.961 -4.47458 -1.9399 0
M  V30 1372 H 126.966 -5.49656 0.126003 0
M  V30 1373 H 128.191 -6.79052 0.080947 0
M  V30 1374 H 126.137 -6.21851 -2.08895 0
M  V30 1375 H 126.054 -7.50281 -0.928137 0
M  V30 1376 H 127.322 -7.50194 -2.11731 0
M  V30 1377 N 131.551 -0.354651 -1.53558 0
M  V30 1378 C 132.779 0.239515 -2.05509 0
M  V30 1379 C 133.194 1.4333 -1.2289 0
M  V30 1380 O 132.551 1.80538 -0.266899 0
M  V30 1381 C 132.602 0.643719 -3.55723 0
M  V30 1382 O 132.323 -0.502602 -4.35207 0
M  V30 1383 C 133.824 1.29743 -4.23889 0
M  V30 1384 H 131.044 0.0442697 -0.669538 0
M  V30 1385 H 133.588 -0.509856 -1.98042 0
M  V30 1386 H 131.743 1.34302 -3.63376 0
M  V30 1387 H 132.157 -0.178172 -5.24197 0
M  V30 1388 H 133.631 1.53091 -5.30346 0
M  V30 1389 H 134.108 2.25441 -3.76926 0
M  V30 1390 H 134.714 0.639865 -4.20459 0
M  V30 1391 N 133.029 1.57378 -0.0835403 0
M  V30 1392 C 134.278 1.93106 0.582498 0
M  V30 1393 C 134.591 0.96651 1.70053 0
M  V30 1394 O 135.797 1.21705 2.42693 0
M  V30 1395 C 134.253 3.43076 1.08751 0
M  V30 1396 C 133.861 4.48 -0.000146404 0
M  V30 1397 C 135.605 3.87785 1.72694 0
M  V30 1398 C 133.512 5.89113 0.519568 0
M  V30 1399 H 132.442 0.720775 0.221358 0
M  V30 1400 H 135.093 1.82821 -0.157675 0
M  V30 1401 H 133.475 3.48474 1.88101 0
M  V30 1402 H 134.649 4.54233 -0.775199 0
M  V30 1403 H 132.964 4.1283 -0.54406 0
M  V30 1404 H 135.561 4.90604 2.1263 0
M  V30 1405 H 135.904 3.25796 2.59158 0
M  V30 1406 H 136.437 3.8504 0.999457 0
M  V30 1407 H 133.176 6.54775 -0.308186 0
M  V30 1408 H 132.696 5.86376 1.26188 0
M  V30 1409 H 134.375 6.39346 0.992237 0
M  V30 1410 N 134.507 -0.190092 1.56449 0
M  V30 1411 C 135.455 -1.25501 1.95837 0
M  V30 1412 C 136.449 -1.4685 0.844485 0
M  V30 1413 O 137.655 -1.47651 1.02952 0
M  V30 1414 H 134.03 -0.421447 0.622805 0
M  V30 1415 H 136.001 -0.895821 2.84636 0
M  V30 1416 C 134.75 -2.59124 2.31841 0
M  V30 1417 H 134.073 -2.43514 3.17082 0
M  V30 1418 H 135.513 -3.32371 2.6326 0
M  V30 1419 C 133.972 -3.16488 1.15486 0
M  V30 1420 O 134.502 -3.99365 0.432535 0
M  V30 1421 N 132.708 -2.75305 0.930349 0
M  V30 1422 H 132.255 -2.08013 1.51948 0
M  V30 1423 H 132.213 -3.14024 0.153634 0
M  V30 1424 N 135.985 -1.50799 -0.457987 0
M  V30 1425 C 137.234 -1.6168 -1.20593 0
M  V30 1426 C 137.547 -0.32888 -1.92815 0
M  V30 1427 O 138.753 -0.316773 -2.69646 0
M  V30 1428 C 137.209 -2.8545 -2.19195 0
M  V30 1429 C 136.817 -4.21168 -1.52715 0
M  V30 1430 C 138.561 -3.05681 -2.94549 0
M  V30 1431 C 136.468 -5.3611 -2.4968 0
M  V30 1432 H 135.398 -0.602134 -0.453818 0
M  V30 1433 H 138.049 -1.77245 -0.475031 0
M  V30 1434 H 136.431 -2.63472 -2.95632 0
M  V30 1435 H 137.605 -4.53449 -0.819775 0
M  V30 1436 H 135.92 -4.06648 -0.895922 0
M  V30 1437 H 138.517 -3.88727 -3.67145 0
M  V30 1438 H 138.86 -2.17929 -3.54701 0
M  V30 1439 H 139.393 -3.27901 -2.25223 0
M  V30 1440 H 136.132 -6.26057 -1.94249 0
M  V30 1441 H 135.652 -5.0823 -3.18532 0
M  V30 1442 H 137.331 -5.6722 -3.11241 0
M  V30 1443 N 137.463 0.71206 -1.40597 0
M  V30 1444 C 138.709 1.47416 -1.39271 0
M  V30 1445 C 139.042 1.942 0.00388791 0
M  V30 1446 O 138.317 1.68403 0.973179 0
M  V30 1447 C 138.6 2.69774 -2.38525 0
M  V30 1448 C 138.453 2.28861 -3.87224 0
M  V30 1449 C 139.772 3.71939 -2.35264 0
M  V30 1450 H 136.891 0.534713 -0.5072 0
M  V30 1451 H 139.533 0.812375 -1.71757 0
M  V30 1452 H 137.683 3.26238 -2.10953 0
M  V30 1453 H 139.355 1.77852 -4.25636 0
M  V30 1454 H 137.598 1.60824 -4.02887 0
M  V30 1455 H 138.269 3.16584 -4.52193 0
M  V30 1456 H 140.745 3.25113 -2.59694 0
M  V30 1457 H 139.621 4.55186 -3.06753 0
M  V30 1458 H 139.882 4.20484 -1.36549 0
M  V30 1459 N 138.941 1.26152 0.944643 0
M  V30 1460 C 140.19 1.10883 1.68487 0
M  V30 1461 C 140.503 -0.348153 1.92477 0
M  V30 1462 O 141.709 -0.621459 2.64292 0
M  V30 1463 C 140.165 1.93624 3.03377 0
M  V30 1464 C 139.773 3.43875 2.87148 0
M  V30 1465 C 141.517 1.86954 3.81115 0
M  V30 1466 C 139.424 4.18875 4.1749 0
M  V30 1467 H 138.354 0.41135 0.631907 0
M  V30 1468 H 141.005 1.50433 1.05082 0
M  V30 1469 H 139.387 1.46904 3.67743 0
M  V30 1470 H 140.561 3.98338 2.31653 0
M  V30 1471 H 138.876 3.51744 2.22856 0
M  V30 1472 H 141.473 2.40275 4.77673 0
M  V30 1473 H 141.816 0.839518 4.07747 0
M  V30 1474 H 142.349 2.31477 3.23517 0
M  V30 1475 H 139.088 5.22332 3.96043 0
M  V30 1476 H 138.608 3.69193 4.72712 0
M  V30 1477 H 140.287 4.27134 4.85968 0
M  V30 1478 N 140.419 -1.14872 1.07899 0
M  V30 1479 C 141.83 -1.67367 0.827363 0
M  V30 1480 C 142.181 -1.85236 -0.646693 0
M  V30 1481 O 141.306 -1.55974 -1.50004 0
M  V30 1482 C 141.901 -3.04016 1.49532 0
M  V30 1483 C 140.46 -3.53566 1.29106 0
M  V30 1484 C 139.607 -2.29161 1.56143 0
M  V30 1485 H 142.558 -0.990083 1.24028 0
M  V30 1486 H 142.579 -3.69219 0.919643 0
M  V30 1487 H 142.091 -2.90978 2.56814 0
M  V30 1488 H 140.192 -3.71835 0.238713 0
M  V30 1489 H 140.305 -4.34661 2.01511 0
M  V30 1490 H 138.669 -2.34978 0.982717 0
M  V30 1491 H 139.452 -2.18705 2.64619 0
M  V30 1492 N 141.898 -0.863906 -1.31812 0
M  V30 1493 C 143.128 -0.485406 -2.00817 0
M  V30 1494 C 143.536 0.925007 -1.65046 0
M  V30 1495 O 142.879 1.61653 -0.872574 0
M  V30 1496 C 142.941 -0.555589 -3.55181 0
M  V30 1497 C 142.605 -1.92654 -4.14407 0
M  V30 1498 C 143.602 -2.89324 -4.31958 0
M  V30 1499 C 141.287 -2.2262 -4.50273 0
M  V30 1500 C 143.281 -4.14108 -4.84555 0
M  V30 1501 C 140.968 -3.47654 -5.02573 0
M  V30 1502 C 141.966 -4.43214 -5.19664 0
M  V30 1503 O 141.654 -5.66033 -5.70843 0
M  V30 1504 H 141.386 -0.188224 -0.649267 0
M  V30 1505 H 143.94 -1.16514 -1.69156 0
M  V30 1506 H 142.17 0.181037 -3.86276 0
M  V30 1507 H 143.859 -0.19138 -4.05449 0
M  V30 1508 H 144.625 -2.6748 -4.04573 0
M  V30 1509 H 140.504 -1.4902 -4.3625 0
M  V30 1510 H 144.048 -4.88703 -4.9781 0
M  V30 1511 H 139.945 -3.69345 -5.29391 0
M  V30 1512 H 140.713 -5.6812 -5.89222 0
M  V30 1513 N 143.376 1.44774 -0.622745 0
M  V30 1514 C 144.606 2.06187 -0.130532 0
M  V30 1515 C 145.014 1.46547 1.19669 0
M  V30 1516 O 144.357 0.579636 1.74316 0
M  V30 1517 C 144.419 3.59437 0.0674983 0
M  V30 1518 C 144.083 4.41496 -1.18026 0
M  V30 1519 C 145.08 4.75512 -2.102 0
M  V30 1520 C 142.765 4.82007 -1.41333 0
M  V30 1521 C 144.759 5.48912 -3.23998 0
M  V30 1522 C 142.446 5.55157 -2.55429 0
M  V30 1523 C 143.444 5.88528 -3.46589 0
M  V30 1524 O 143.132 6.60191 -4.58697 0
M  V30 1525 H 142.864 0.672045 -0.0730162 0
M  V30 1526 H 145.418 1.86768 -0.854802 0
M  V30 1527 H 143.648 3.77314 0.846825 0
M  V30 1528 H 145.337 4.02642 0.513209 0
M  V30 1529 H 146.103 4.4476 -1.93425 0
M  V30 1530 H 141.982 4.55457 -0.712709 0
M  V30 1531 H 145.526 5.74877 -3.95174 0
M  V30 1532 H 141.423 5.85324 -2.72151 0
M  V30 1533 H 142.191 6.78654 -4.57571 0
M  V30 1534 N 144.854 0.36279 1.53368 0
M  V30 1535 C 146.102 -0.227326 2.00817 0
M  V30 1536 C 146.423 -1.49511 1.25186 0
M  V30 1537 O 145.693 -1.92482 0.364348 0
M  V30 1538 H 144.273 -0.0869923 0.741917 0
M  V30 1539 H 146.935 0.488381 1.88682 0
M  V30 1540 H 146.031 -0.456273 3.08747 0
M  V30 1541 N 146.332 -1.57332 0.0918853 0
M  V30 1542 C 147.562 -1.98286 -0.580205 0
M  V30 1543 C 147.97 -0.969713 -1.6246 0
M  V30 1544 O 147.313 0.0493501 -1.83634 0
M  V30 1545 C 147.375 -3.35603 -1.28882 0
M  V30 1546 C 147.039 -4.55285 -0.395559 0
M  V30 1547 C 148.036 -5.18687 0.355002 0
M  V30 1548 C 145.721 -5.01314 -0.314556 0
M  V30 1549 C 147.715 -6.26484 1.17458 0
M  V30 1550 C 145.402 -6.08979 0.508677 0
M  V30 1551 C 146.4 -6.71429 1.2519 0
M  V30 1552 O 146.088 -7.77018 2.06151 0
M  V30 1553 H 145.82 -0.656678 -0.160466 0
M  V30 1554 H 148.374 -2.04721 0.16688 0
M  V30 1555 H 146.604 -3.25842 -2.08241 0
M  V30 1556 H 148.293 -3.61026 -1.85512 0
M  V30 1557 H 149.059 -4.84058 0.302134 0
M  V30 1558 H 144.938 -4.5247 -0.882697 0
M  V30 1559 H 148.482 -6.75159 1.75518 0
M  V30 1560 H 144.379 -6.4304 0.563037 0
M  V30 1561 H 145.147 -7.93991 1.98799 0
M  V30 1562 N 147.81 0.181792 -1.56548 0
M  V30 1563 C 148.773 1.20894 -1.94724 0
M  V30 1564 C 149.773 1.37738 -0.829747 0
M  V30 1565 O 150.963 1.35323 -1.09697 0
M  V30 1566 C 148.095 2.57593 -2.23291 0
M  V30 1567 H 149.288 0.882275 -2.86629 0
M  V30 1568 H 146.841 0.423838 -1.50444 0
M  V30 1569 H 147.576 2.95291 -1.34067 0
M  V30 1570 H 147.361 2.46735 -3.04736 0
M  V30 1571 H 148.851 3.31637 -2.53785 0
M  V30 1572 N 149.288 1.51039 0.449983 0
M  V30 1573 C 150.704 1.38934 0.785462 0
M  V30 1574 C 150.904 0.461817 1.96136 0
M  V30 1575 O 149.96 -0.0877389 2.52348 0
M  V30 1576 C 151.273 2.80724 1.0777 0
M  V30 1577 C 152.821 2.89787 1.1829 0
M  V30 1578 C 153.296 4.32457 1.50815 0
M  V30 1579 N 154.787 4.35505 1.57764 0
M  V30 1580 C 155.522 5.42914 1.84477 0
M  V30 1581 N 155.018 6.60502 2.09068 0
M  V30 1582 N 156.811 5.3038 1.86155 0
M  V30 1583 H 148.962 2.09904 -0.324647 0
M  V30 1584 H 151.225 0.944378 -0.0827957 0
M  V30 1585 H 150.931 3.50531 0.286498 0
M  V30 1586 H 150.805 3.19273 2.00859 0
M  V30 1587 H 153.192 2.20186 1.96474 0
M  V30 1588 H 153.273 2.54752 0.231314 0
M  V30 1589 H 152.917 5.02603 0.731622 0
M  V30 1590 H 152.847 4.64995 2.47158 0
M  V30 1591 H 155.338 3.50724 1.40715 0
M  V30 1592 H 155.651 7.38158 2.28785 0
M  V30 1593 H 153.996 6.63639 2.06416 0
M  V30 1594 H 157.187 4.37505 1.66454 0
M  V30 1595 H 157.36 6.1417 2.06637 0
M  V30 1596 N 150.766 -0.704594 1.40972 0
M  V30 1597 C 151.698 -1.82974 1.38033 0
M  V30 1598 C 152.711 -1.60305 0.283931 0
M  V30 1599 O 153.9 -1.69975 0.545042 0
M  V30 1600 C 151 -3.19578 1.12795 0
M  V30 1601 C 150.173 -3.69352 2.34302 0
M  V30 1602 C 149.232 -4.84601 2.05058 0
M  V30 1603 O 148.258 -4.96682 2.7802 0
M  V30 1604 N 149.46 -5.71194 1.03528 0
M  V30 1605 H 152.225 -1.85991 2.35005 0
M  V30 1606 H 149.786 -0.886567 1.35468 0
M  V30 1607 H 151.778 -3.9429 0.911987 0
M  V30 1608 H 150.348 -3.11642 0.24452 0
M  V30 1609 H 149.568 -2.85649 2.71659 0
M  V30 1610 H 150.856 -3.99345 3.1528 0
M  V30 1611 H 150.254 -5.64054 0.431217 0
M  V30 1612 H 148.811 -6.45843 0.879205 0
M  V30 1613 N 152.244 -1.26651 -0.937939 0
M  V30 1614 C 153.521 -1.0313 -1.66204 0
M  V30 1615 C 153.901 0.437256 -2.06522 0
M  V30 1616 O 153.249 1.41831 -1.79154 0
M  V30 1617 C 153.459 -1.98314 -2.87181 0
M  V30 1618 C 154.807 -2.27107 -3.58758 0
M  V30 1619 O 155.831 -1.96205 -2.97291 0
M  V30 1620 O 154.69 -2.79736 -4.69479 0
M  V30 1621 H 151.784 -0.392384 -0.727986 0
M  V30 1622 H 154.33 -1.37874 -0.989382 0
M  V30 1623 H 153.102 -2.97399 -2.54302 0
M  V30 1624 H 152.725 -1.64068 -3.6217 0
M  V30 1625 N 153.722 1.14298 -1.08507 0
M  V30 1626 C 155.138 1.37347 -0.812901 0
M  V30 1627 C 155.338 1.93052 0.577325 0
M  V30 1628 O 154.394 2.14389 1.33393 0
M  V30 1629 C 155.707 2.33359 -1.89642 0
M  V30 1630 C 157.255 2.46996 -1.92255 0
M  V30 1631 C 157.73 3.46309 -2.99724 0
M  V30 1632 N 159.221 3.53853 -2.98902 0
M  V30 1633 C 159.956 4.3055 -3.787 0
M  V30 1634 N 159.452 5.10482 -4.6838 0
M  V30 1635 N 161.245 4.25757 -3.66998 0
M  V30 1636 H 153.396 0.764867 -1.9815 0
M  V30 1637 H 155.659 0.398966 -0.859959 0
M  V30 1638 H 155.365 1.99565 -2.89597 0
M  V30 1639 H 155.239 3.33274 -1.76659 0
M  V30 1640 H 157.626 2.80081 -0.929445 0
M  V30 1641 H 157.707 1.47039 -2.09316 0
M  V30 1642 H 157.351 3.13957 -3.99241 0
M  V30 1643 H 157.281 4.46049 -2.79907 0
M  V30 1644 H 159.772 2.96812 -2.33904 0
M  V30 1645 H 160.085 5.66284 -5.25873 0
M  V30 1646 H 158.43 5.09747 -4.72422 0
M  V30 1647 H 161.621 3.62383 -2.96304 0
M  V30 1648 H 161.794 4.85279 -4.29427 0
M  V30 1649 N 155.201 0.870884 1.31352 0
M  V30 1650 C 156.148 0.325425 2.28494 0
M  V30 1651 C 157.118 -0.576615 1.5577 0
M  V30 1652 O 158.303 -0.508059 1.83911 0
M  V30 1653 C 155.443 -0.466283 3.41935 0
M  V30 1654 C 154.556 0.463378 4.29508 0
M  V30 1655 C 153.691 -0.342544 5.30094 0
M  V30 1656 C 152.73 0.583486 6.09313 0
M  V30 1657 N 151.867 -0.186244 7.01853 0
M  V30 1658 H 156.707 1.15901 2.74538 0
M  V30 1659 H 154.244 0.58294 1.35056 0
M  V30 1660 H 156.202 -0.941085 4.06447 0
M  V30 1661 H 154.832 -1.26456 2.97 0
M  V30 1662 H 153.884 1.05663 3.65431 0
M  V30 1663 H 155.196 1.1734 4.84802 0
M  V30 1664 H 154.35 -0.879816 6.00287 0
M  V30 1665 H 153.089 -1.08585 4.75458 0
M  V30 1666 H 152.094 1.13251 5.3801 0
M  V30 1667 H 153.319 1.32566 6.66035 0
M  V30 1668 H 151.265 -0.912348 6.49625 0
M  V30 1669 H 151.182 0.464422 7.54572 0
M  V30 1670 H 152.45 -0.704716 7.76308 0
M  V30 1671 N 156.679 -1.44442 0.630414 0
M  V30 1672 C 157.642 -2.29107 -0.0652523 0
M  V30 1673 C 158.642 -1.41002 -0.772995 0
M  V30 1674 O 159.832 -1.62881 -0.617692 0
M  V30 1675 C 156.964 -3.22564 -1.10296 0
M  V30 1676 H 158.157 -2.92103 0.679401 0
M  V30 1677 H 155.71 -1.51343 0.390517 0
M  V30 1678 H 156.445 -2.64416 -1.87762 0
M  V30 1679 H 156.23 -3.87491 -0.59941 0
M  V30 1680 H 157.72 -3.86167 -1.5895 0
M  V30 1681 N 158.157 -0.370918 -1.53173 0
M  V30 1682 C 159.573 -0.0200818 -1.59587 0
M  V30 1683 C 159.773 1.46279 -1.38581 0
M  V30 1684 O 158.829 2.22506 -1.19363 0
M  V30 1685 C 160.142 -0.4808 -2.96831 0
M  V30 1686 C 161.69 -0.435477 -3.09956 0
M  V30 1687 C 162.165 -0.872092 -4.4962 0
M  V30 1688 N 163.656 -0.827364 -4.55751 0
M  V30 1689 C 164.391 -1.13683 -5.62018 0
M  V30 1690 N 163.887 -1.51584 -6.76014 0
M  V30 1691 N 165.68 -1.05927 -5.52029 0
M  V30 1692 H 157.831 -1.33652 -1.65079 0
M  V30 1693 H 160.094 -0.546634 -0.774529 0
M  V30 1694 H 159.8 -1.51577 -3.1736 0
M  V30 1695 H 159.674 0.129796 -3.76977 0
M  V30 1696 H 162.061 0.590371 -2.89134 0
M  V30 1697 H 162.142 -1.08164 -2.31806 0
M  V30 1698 H 161.786 -1.89608 -4.71181 0
M  V30 1699 H 161.716 -0.203127 -5.26208 0
M  V30 1700 H 164.207 -0.548216 -3.73902 0
M  V30 1701 H 164.52 -1.73609 -7.53047 0
M  V30 1702 H 162.865 -1.55454 -6.77391 0
M  V30 1703 H 166.056 -0.762321 -4.61851 0
M  V30 1704 H 166.229 -1.30378 -6.34749 0
M  V30 1705 N 159.635 1.57281 -0.100228 0
M  V30 1706 C 160.86 1.99302 0.573881 0
M  V30 1707 C 161.285 0.979059 1.60611 0
M  V30 1708 O 160.643 -0.0517803 1.81226 0
M  V30 1709 C 160.691 3.40274 1.19358 0
M  V30 1710 O 159.795 3.41676 2.30935 0
M  V30 1711 H 159.136 0.647944 0.145138 0
M  V30 1712 H 161.666 2.03779 -0.183156 0
M  V30 1713 H 161.676 3.78078 1.53365 0
M  V30 1714 H 160.351 4.13594 0.437385 0
M  V30 1715 H 158.928 3.15672 1.98509 0
M  V30 1716 N 161.113 -0.173488 1.56642 0
M  V30 1717 C 162.529 -0.525174 1.50712 0
M  V30 1718 C 162.729 -1.8476 0.804107 0
M  V30 1719 O 161.785 -2.49869 0.363574 0
M  V30 1720 C 163.098 -0.559937 2.95441 0
M  V30 1721 C 164.646 -0.647288 3.06234 0
M  V30 1722 C 165.121 -0.712963 4.52417 0
M  V30 1723 N 166.612 -0.775911 4.56655 0
M  V30 1724 C 167.347 -0.847264 5.67106 0
M  V30 1725 N 166.843 -0.879585 6.87194 0
M  V30 1726 N 168.636 -0.886117 5.55071 0
M  V30 1727 H 160.787 0.693681 2.00753 0
M  V30 1728 H 163.05 0.249841 0.914485 0
M  V30 1729 H 162.756 0.343049 3.50023 0
M  V30 1730 H 162.63 -1.40718 3.49969 0
M  V30 1731 H 165.017 -1.5407 2.51687 0
M  V30 1732 H 165.098 0.226586 2.54794 0
M  V30 1733 H 164.742 0.176183 5.07594 0
M  V30 1734 H 164.672 -1.60295 5.0161 0
M  V30 1735 H 167.163 -0.759304 3.70193 0
M  V30 1736 H 167.476 -0.935144 7.67121 0
M  V30 1737 H 165.821 -0.847898 6.89808 0
M  V30 1738 H 169.012 -0.857853 4.60172 0
M  V30 1739 H 169.185 -0.938263 6.41171 0
M  V30 1740 N 162.591 -1.51276 -0.441967 0
M  V30 1741 C 163.501 -1.75092 -1.56141 0
M  V30 1742 C 164.517 -0.634963 -1.62001 0
M  V30 1743 O 165.693 -0.916686 -1.79329 0
M  V30 1744 C 162.758 -1.86666 -2.92158 0
M  V30 1745 C 161.819 -3.10506 -2.96453 0
M  V30 1746 C 161.052 -3.21519 -4.25982 0
M  V30 1747 O 161.275 -2.38586 -5.18105 0
M  V30 1748 O 160.209 -4.14465 -4.36466 0
M  V30 1749 H 164.035 -2.70044 -1.38961 0
M  V30 1750 H 161.62 -1.35722 -0.624499 0
M  V30 1751 H 163.502 -1.96292 -3.72891 0
M  V30 1752 H 162.177 -0.949014 -3.09476 0
M  V30 1753 H 161.084 -3.06363 -2.14692 0
M  V30 1754 H 162.417 -4.01945 -2.84079 0
M  V30 1755 N 164.069 0.697108 -1.41344 0
M  V30 1756 C 165.48 1.27697 -1.36199 0
M  V30 1757 C 165.831 1.9615 -0.0443463 0
M  V30 1758 O 164.956 1.98689 0.857419 0
M  V30 1759 C 165.551 2.32223 -2.46694 0
M  V30 1760 C 164.11 2.8579 -2.44952 0
M  V30 1761 C 163.257 1.59807 -2.26621 0
M  V30 1762 H 166.208 0.491968 -1.50882 0
M  V30 1763 H 166.229 3.1348 -2.15664 0
M  V30 1764 H 165.741 1.82373 -3.42581 0
M  V30 1765 H 163.842 3.3982 -1.52817 0
M  V30 1766 H 163.955 3.36325 -3.41207 0
M  V30 1767 H 162.319 1.8556 -1.7447 0
M  V30 1768 H 163.102 1.11956 -3.24532 0
M  V30 1769 N 165.547 1.27147 0.931209 0
M  V30 1770 C 166.796 1.12664 1.67302 0
M  V30 1771 C 167.109 -0.327718 1.92835 0
M  V30 1772 O 168.315 -0.593392 2.64936 0
M  V30 1773 C 166.771 1.9683 3.01307 0
M  V30 1774 C 166.379 3.46901 2.83485 0
M  V30 1775 C 168.123 1.90985 3.79111 0
M  V30 1776 C 166.03 4.23279 4.13024 0
M  V30 1777 H 164.96 0.41803 0.627509 0
M  V30 1778 H 167.611 1.51539 1.03481 0
M  V30 1779 H 165.993 1.50797 3.66164 0
M  V30 1780 H 167.167 4.00773 2.27415 0
M  V30 1781 H 165.482 3.54088 2.19113 0
M  V30 1782 H 168.079 2.45328 4.75098 0
M  V30 1783 H 168.422 0.882718 4.06834 0
M  V30 1784 H 168.955 2.34895 3.21044 0
M  V30 1785 H 165.694 5.26503 3.90481 0
M  V30 1786 H 165.214 3.74186 4.6877 0
M  V30 1787 H 166.893 4.32265 4.81411 0
M  V30 1788 N 167.025 -1.13721 1.09112 0
M  V30 1789 C 168.253 -1.88773 0.846899 0
M  V30 1790 C 168.668 -1.7896 -0.601572 0
M  V30 1791 O 168.025 -1.15394 -1.41388 0
M  V30 1792 C 168.076 -3.3849 1.26913 0
M  V30 1793 O 167.797 -3.48043 2.66079 0
M  V30 1794 C 169.298 -4.30518 1.05682 0
M  V30 1795 H 166.518 -0.59772 0.304914 0
M  V30 1796 H 169.062 -1.43977 1.45227 0
M  V30 1797 H 167.217 -3.80881 0.707723 0
M  V30 1798 H 167.631 -4.4109 2.83795 0
M  V30 1799 H 169.105 -5.3391 1.40156 0
M  V30 1800 H 169.582 -4.392 -0.00563416 0
M  V30 1801 H 170.188 -3.93893 1.60402 0
M  V30 1802 N 168.503 -0.877838 -1.30888 0
M  V30 1803 C 169.466 -0.344265 -2.266 0
M  V30 1804 C 170.466 0.50922 -1.52524 0
M  V30 1805 O 171.656 0.317398 -1.71284 0
M  V30 1806 C 168.788 0.510198 -3.37061 0
M  V30 1807 H 169.981 -1.1893 -2.7531 0
M  V30 1808 H 167.534 -0.654088 -1.41956 0
M  V30 1809 H 168.269 1.37612 -2.93655 0
M  V30 1810 H 168.054 -0.101047 -3.9197 0
M  V30 1811 H 169.544 0.875537 -4.08319 0
M  V30 1812 N 169.982 1.44106 -0.638065 0
M  V30 1813 C 170.929 2.30715 0.062701 0
M  V30 1814 C 171.899 1.43882 0.829883 0
M  V30 1815 O 173.084 1.72775 0.809532 0
M  V30 1816 C 170.224 3.29258 1.03358 0
M  V30 1817 C 169.337 4.31192 0.26409 0
M  V30 1818 C 168.472 5.16825 1.22741 0
M  V30 1819 C 167.511 6.10462 0.447475 0
M  V30 1820 N 166.648 6.8877 1.36161 0
M  V30 1821 H 171.488 2.90096 -0.681781 0
M  V30 1822 H 169.025 1.42925 -0.347988 0
M  V30 1823 H 170.983 3.84886 1.60992 0
M  V30 1824 H 169.613 2.71562 1.74511 0
M  V30 1825 H 168.665 3.77981 -0.428295 0
M  V30 1826 H 169.977 4.97619 -0.343052 0
M  V30 1827 H 169.131 5.77004 1.87487 0
M  V30 1828 H 167.87 4.50488 1.86847 0
M  V30 1829 H 166.875 5.49386 -0.213433 0
M  V30 1830 H 168.1 6.78837 -0.188968 0
M  V30 1831 H 166.046 6.25096 1.98975 0
M  V30 1832 H 165.963 7.51663 0.808656 0
M  V30 1833 H 167.231 7.53467 1.99769 0
M  V30 1834 N 171.46 0.379036 1.52974 0
M  V30 1835 C 172.39 -0.452706 2.29069 0
M  V30 1836 C 173.371 -1.07237 1.32039 0
M  V30 1837 O 174.556 -1.08708 1.60923 0
M  V30 1838 C 171.686 -1.5856 3.08992 0
M  V30 1839 C 170.64 -1.0925 4.13822 0
M  V30 1840 C 169.966 -2.31668 4.81907 0
M  V30 1841 C 171.266 -0.167702 5.22031 0
M  V30 1842 H 172.96 0.182181 2.98845 0
M  V30 1843 H 170.506 0.0890592 1.43724 0
M  V30 1844 H 172.459 -2.1742 3.6098 0
M  V30 1845 H 171.183 -2.24792 2.36931 0
M  V30 1846 H 169.842 -0.526494 3.628 0
M  V30 1847 H 169.49 -2.96386 4.06404 0
M  V30 1848 H 169.19 -1.9934 5.52754 0
M  V30 1849 H 170.714 -2.91189 5.36695 0
M  V30 1850 H 172.128 -0.664186 5.6944 0
M  V30 1851 H 170.525 0.0653265 6.00064 0
M  V30 1852 H 171.595 0.786347 4.78482 0
M  V30 1853 N 172.938 -1.57226 0.108567 0
M  V30 1854 C 174.185 -1.94833 -0.551943 0
M  V30 1855 C 174.513 -0.991204 -1.67348 0
M  V30 1856 O 173.768 -0.0131878 -1.95696 0
M  V30 1857 C 174.067 -3.38911 -1.13463 0
M  V30 1858 C 173.733 -4.50696 -0.135509 0
M  V30 1859 C 172.395 -4.80998 0.139252 0
M  V30 1860 C 174.747 -5.18333 0.545957 0
M  V30 1861 C 172.075 -5.76259 1.10194 0
M  V30 1862 C 174.427 -6.14627 1.49721 0
M  V30 1863 C 173.091 -6.43327 1.78006 0
M  V30 1864 H 172.361 -0.712944 -0.20197 0
M  V30 1865 H 175.008 -1.90582 0.18726 0
M  V30 1866 H 173.313 -3.39805 -1.95037 0
M  V30 1867 H 175.01 -3.65317 -1.65362 0
M  V30 1868 H 171.6 -4.27087 -0.359846 0
M  V30 1869 H 175.784 -4.95087 0.346842 0
M  V30 1870 H 171.04 -5.96804 1.32795 0
M  V30 1871 H 175.214 -6.66126 2.03099 0
M  V30 1872 H 172.841 -7.1695 2.52759 0
M  V30 1873 N 174.416 0.165178 -1.56732 0
M  V30 1874 C 175.379 1.18822 -1.95995 0
M  V30 1875 C 176.379 1.3685 -0.84431 0
M  V30 1876 O 177.569 1.34152 -1.11126 0
M  V30 1877 C 174.701 2.5521 -2.26011 0
M  V30 1878 H 175.894 0.851825 -2.87548 0
M  V30 1879 H 173.447 0.407857 -1.50885 0
M  V30 1880 H 174.182 2.93852 -1.37191 0
M  V30 1881 H 173.967 2.43489 -3.07336 0
M  V30 1882 H 175.457 3.28927 -2.57288 0
M  V30 1883 N 175.894 1.51508 0.433938 0
M  V30 1884 C 176.842 1.73646 1.54757 0
M  V30 1885 C 177.836 0.602854 1.5831 0
M  V30 1886 O 179.042 0.784318 1.62014 0
M  V30 1887 H 175.417 0.548718 0.51421 0
M  V30 1888 H 177.388 2.66991 1.33261 0
M  V30 1889 C 176.137 1.88172 2.92381 0
M  V30 1890 H 175.46 2.74808 2.90381 0
M  V30 1891 H 176.9 2.07672 3.6966 0
M  V30 1892 C 175.359 0.64239 3.30719 0
M  V30 1893 O 175.889 -0.201362 4.01195 0
M  V30 1894 N 174.095 0.485489 2.86516 0
M  V30 1895 H 173.642 1.17318 2.29334 0
M  V30 1896 H 173.6 -0.342482 3.12529 0
M  V30 1897 N 177.372 -0.689602 1.41712 0
M  V30 1898 C 178.302 -1.81577 1.46806 0
M  V30 1899 C 179.283 -1.66945 0.326105 0
M  V30 1900 O 180.468 -1.86588 0.538377 0
M  V30 1901 C 177.598 -3.19762 1.35535 0
M  V30 1902 C 176.552 -3.49107 2.47605 0
M  V30 1903 C 175.878 -4.86711 2.21397 0
M  V30 1904 C 177.178 -3.47483 3.89939 0
M  V30 1905 H 178.872 -1.7757 2.41058 0
M  V30 1906 H 176.418 -0.852887 1.16025 0
M  V30 1907 H 178.371 -3.98263 1.3771 0
M  V30 1908 H 177.095 -3.24409 0.377708 0
M  V30 1909 H 175.754 -2.72959 2.44722 0
M  V30 1910 H 175.402 -4.8799 1.21961 0
M  V30 1911 H 175.102 -5.0731 2.96497 0
M  V30 1912 H 176.626 -5.67515 2.25297 0
M  V30 1913 H 178.04 -4.1598 3.94505 0
M  V30 1914 H 176.437 -3.79615 4.64771 0
M  V30 1915 H 177.507 -2.46341 4.17665 0
M  V30 1916 N 178.85 -1.27639 -0.924453 0
M  V30 1917 C 179.78 -1.13166 -2.04244 0
M  V30 1918 C 180.761 -0.032256 -1.70069 0
M  V30 1919 O 181.946 -0.207328 -1.9309 0
M  V30 1920 C 179.076 -0.781496 -3.38393 0
M  V30 1921 C 178.03 -1.83449 -3.86692 0
M  V30 1922 C 177.356 -1.33822 -5.17683 0
M  V30 1923 C 178.656 -3.23917 -4.09726 0
M  V30 1924 H 180.35 -2.06689 -2.1661 0
M  V30 1925 H 177.896 -0.995136 -1.04082 0
M  V30 1926 H 179.849 -0.667057 -4.16087 0
M  V30 1927 H 178.573 0.189439 -3.2605 0
M  V30 1928 H 177.232 -1.93789 -3.11193 0
M  V30 1929 H 176.88 -0.35665 -5.01734 0
M  V30 1930 H 176.58 -2.04224 -5.50968 0
M  V30 1931 H 178.104 -1.23679 -5.97943 0
M  V30 1932 H 179.518 -3.16559 -4.77978 0
M  V30 1933 H 177.915 -3.92059 -4.54324 0
M  V30 1934 H 178.985 -3.68729 -3.14908 0
M  V30 1935 N 180.328 1.1314 -1.09713 0
M  V30 1936 C 181.238 2.22242 -0.751367 0
M  V30 1937 C 182.254 1.72224 0.247938 0
M  V30 1938 O 183.43 2.01205 0.0885463 0
M  V30 1939 C 180.495 3.46231 -0.180274 0
M  V30 1940 C 179.556 4.11125 -1.2359 0
M  V30 1941 C 178.789 5.29195 -0.691966 0
M  V30 1942 O 179.012 5.68342 0.48414 0
M  V30 1943 O 177.946 5.84214 -1.44838 0
M  V30 1944 H 181.772 2.54197 -1.66186 0
M  V30 1945 H 179.357 1.21331 -0.871735 0
M  V30 1946 H 181.239 4.21185 0.134739 0
M  V30 1947 H 179.914 3.1597 0.703185 0
M  V30 1948 H 178.821 3.37985 -1.60366 0
M  V30 1949 H 180.154 4.45524 -2.09211 0
M  V30 1950 N 181.806 0.884767 1.30421 0
M  V30 1951 C 183.034 0.518044 2.0031 0
M  V30 1952 C 183.449 -0.893408 1.66324 0
M  V30 1953 O 182.806 -1.5875 0.900262 0
M  V30 1954 C 182.857 0.682997 3.54989 0
M  V30 1955 O 182.578 2.03888 3.87764 0
M  V30 1956 C 184.079 0.31924 4.42149 0
M  V30 1957 H 181.299 0.200265 0.640418 0
M  V30 1958 H 183.843 1.19001 1.6631 0
M  V30 1959 H 181.998 0.0584052 3.87356 0
M  V30 1960 H 182.412 2.05735 4.82466 0
M  V30 1961 H 183.886 0.485555 5.4986 0
M  V30 1962 H 184.363 -0.742717 4.32875 0
M  V30 1963 H 184.969 0.920147 4.15227 0
M  V30 1964 N 183.284 -1.43765 0.645699 0
M  V30 1965 C 184.247 -2.29163 -0.0409488 0
M  V30 1966 C 185.247 -1.41813 -0.757996 0
M  V30 1967 O 186.437 -1.63527 -0.600382 0
M  V30 1968 C 183.569 -3.23716 -1.06869 0
M  V30 1969 H 184.762 -2.91366 0.710345 0
M  V30 1970 H 182.315 -1.5092 0.406547 0
M  V30 1971 H 183.05 -2.66393 -1.84947 0
M  V30 1972 H 182.835 -3.88105 -0.558277 0
M  V30 1973 H 184.325 -3.87831 -1.54845 0
M  V30 1974 N 184.763 -0.387143 -1.52771 0
M  V30 1975 C 186.011 0.195349 -2.01154 0
M  V30 1976 C 186.332 1.475 -1.27549 0
M  V30 1977 O 185.602 1.91878 -0.394924 0
M  V30 1978 H 184.182 0.075178 -0.743207 0
M  V30 1979 H 186.844 -0.518337 -1.87881 0
M  V30 1980 H 185.94 0.407096 -3.09434 0
M  V30 1981 N 186.241 1.57166 -0.116904 0
M  V30 1982 C 187.204 2.14039 0.819742 0
M  V30 1983 C 188.204 1.07477 1.19605 0
M  V30 1984 O 189.394 1.33263 1.1219 0
M  V30 1985 C 186.526 2.67891 2.10826 0
M  V30 1986 H 187.719 2.98128 0.325511 0
M  V30 1987 H 185.272 1.55739 0.132312 0
M  V30 1988 H 186.007 1.87384 2.64685 0
M  V30 1989 H 185.792 3.45823 1.84793 0
M  V30 1990 H 187.282 3.11809 2.77785 0
M  V30 1991 N 187.719 -0.156864 1.56817 0
M  V30 1992 C 188.947 -0.886316 1.86955 0
M  V30 1993 C 189.362 -1.75185 0.703975 0
M  V30 1994 O 188.719 -1.79555 -0.326552 0
M  V30 1995 C 188.77 -1.75117 3.16253 0
M  V30 1996 O 188.491 -0.920537 4.2832 0
M  V30 1997 C 189.992 -2.58905 3.59837 0
M  V30 1998 H 187.212 -0.25678 0.619923 0
M  V30 1999 H 189.756 -0.152615 2.0393 0
M  V30 2000 H 187.911 -2.43805 3.01062 0
M  V30 2001 H 188.325 -1.51337 5.02192 0
M  V30 2002 H 189.799 -3.1518 4.53172 0
M  V30 2003 H 190.276 -3.34472 2.84649 0
M  V30 2004 H 190.882 -1.95526 3.7769 0
M  V30 2005 N 189.197 -1.51736 -0.425897 0
M  V30 2006 C 190.613 -1.40166 -0.76326 0
M  V30 2007 C 190.813 -0.492962 -1.95377 0
M  V30 2008 O 189.869 0.0475815 -2.52455 0
M  V30 2009 C 191.182 -2.82403 -1.03291 0
M  V30 2010 C 192.73 -2.91632 -1.13665 0
M  V30 2011 C 193.205 -4.34801 -1.43916 0
M  V30 2012 N 194.696 -4.3796 -1.50816 0
M  V30 2013 C 195.431 -5.4578 -1.75817 0
M  V30 2014 N 194.927 -6.63744 -1.98534 0
M  V30 2015 N 196.72 -5.33274 -1.77694 0
M  V30 2016 H 188.871 -2.09361 0.358 0
M  V30 2017 H 191.134 -0.942941 0.0978094 0
M  V30 2018 H 190.84 -3.50943 -0.230696 0
M  V30 2019 H 190.714 -3.22428 -1.95754 0
M  V30 2020 H 193.101 -2.23284 -1.92947 0
M  V30 2021 H 193.182 -2.55088 -0.190756 0
M  V30 2022 H 192.826 -5.03703 -0.65157 0
M  V30 2023 H 192.756 -4.68868 -2.39729 0
M  V30 2024 H 195.247 -3.52919 -1.35118 0
M  V30 2025 H 195.56 -7.41704 -2.17013 0
M  V30 2026 H 193.905 -6.66839 -1.95832 0
M  V30 2027 H 197.096 -4.40098 -1.59473 0
M  V30 2028 H 197.269 -6.1738 -1.9684 0
M  V30 2029 N 190.675 0.682077 -1.42076 0
M  V30 2030 C 191.921 1.44428 -1.42367 0
M  V30 2031 C 192.254 1.94164 -0.0373056 0
M  V30 2032 O 191.529 1.70429 0.937239 0
M  V30 2033 C 191.812 2.64654 -2.44194 0
M  V30 2034 C 191.665 2.20596 -3.91991 0
M  V30 2035 C 192.984 3.66865 -2.431 0
M  V30 2036 H 190.103 0.523834 -0.518428 0
M  V30 2037 H 192.745 0.77576 -1.73442 0
M  V30 2038 H 190.895 3.2169 -2.17826 0
M  V30 2039 H 192.567 1.68783 -4.29313 0
M  V30 2040 H 190.81 1.52242 -4.06208 0
M  V30 2041 H 191.481 3.06921 -4.58807 0
M  V30 2042 H 193.957 3.19531 -2.66532 0
M  V30 2043 H 192.833 4.48577 -3.16339 0
M  V30 2044 H 193.094 4.17493 -1.45437 0
M  V30 2045 N 192.153 1.28127 0.917671 0
M  V30 2046 C 193.402 1.14432 1.66097 0
M  V30 2047 C 193.715 -0.307247 1.93172 0
M  V30 2048 O 194.921 -0.565259 2.65551 0
M  V30 2049 C 193.377 2.00015 2.99202 0
M  V30 2050 C 192.985 3.49889 2.79789 0
M  V30 2051 C 194.729 1.94996 3.77064 0
M  V30 2052 C 192.636 4.27636 4.08511 0
M  V30 2053 H 191.566 0.424662 0.62304 0
M  V30 2054 H 194.217 1.52628 1.01868 0
M  V30 2055 H 192.599 1.54672 3.64544 0
M  V30 2056 H 193.773 4.03162 2.23152 0
M  V30 2057 H 192.088 3.56392 2.15345 0
M  V30 2058 H 194.685 2.50354 4.72469 0
M  V30 2059 H 195.028 0.925819 4.05875 0
M  V30 2060 H 195.561 2.38287 3.18534 0
M  V30 2061 H 192.3 5.30615 3.84874 0
M  V30 2062 H 191.82 3.79137 4.64774 0
M  V30 2063 H 193.499 4.37346 4.76799 0
M  V30 2064 N 193.631 -1.12557 1.10312 0
M  V30 2065 C 194.594 -2.16434 0.75424 0
M  V30 2066 C 195.594 -1.59278 -0.220685 0
M  V30 2067 O 196.784 -1.742 0.00230591 0
M  V30 2068 C 193.916 -3.40699 0.116987 0
M  V30 2069 H 195.109 -2.48811 1.67431 0
M  V30 2070 H 192.662 -1.27542 0.903475 0
M  V30 2071 H 193.397 -3.13921 -0.813877 0
M  V30 2072 H 193.182 -3.83459 0.818613 0
M  V30 2073 H 194.672 -4.17451 -0.111387 0
M  V30 2074 N 195.109 -0.891671 -1.2995 0
M  V30 2075 C 196.039 -0.379797 -2.30391 0
M  V30 2076 C 197.02 0.540919 -1.6127 0
M  V30 2077 O 198.205 0.453352 -1.88834 0
M  V30 2078 C 195.335 0.400654 -3.44981 0
M  V30 2079 C 194.289 -0.428905 -4.25846 0
M  V30 2080 C 193.615 0.478557 -5.32554 0
M  V30 2081 C 194.915 -1.67458 -4.94727 0
M  V30 2082 H 196.609 -1.21914 -2.73454 0
M  V30 2083 H 194.155 -0.587675 -1.31462 0
M  V30 2084 H 196.108 0.769434 -4.14316 0
M  V30 2085 H 194.832 1.27371 -3.0074 0
M  V30 2086 H 193.491 -0.779911 -3.58208 0
M  V30 2087 H 193.139 1.34951 -4.84559 0
M  V30 2088 H 192.839 -0.0727433 -5.87555 0
M  V30 2089 H 194.363 0.843705 -6.04743 0
M  V30 2090 H 195.777 -1.376 -5.56542 0
M  V30 2091 H 194.174 -2.16659 -5.59624 0
M  V30 2092 H 195.244 -2.41518 -4.20473 0
M  V30 2093 N 196.587 1.43421 -0.653314 0
M  V30 2094 C 197.864 1.95361 -0.0966581 0
M  V30 2095 C 198.244 1.59461 1.38331 0
M  V30 2096 O 197.592 0.879777 2.10884 0
M  V30 2097 C 197.802 3.47311 -0.342988 0
M  V30 2098 C 199.15 4.23875 -0.24798 0
M  V30 2099 O 200.174 3.55133 -0.275553 0
M  V30 2100 O 199.033 5.4623 -0.171771 0
M  V30 2101 H 196.127 0.826945 0.00956291 0
M  V30 2102 H 198.673 1.5336 -0.726558 0
M  V30 2103 H 197.445 3.66569 -1.36906 0
M  V30 2104 H 197.068 3.9631 0.319975 0
M  V30 2105 N 198.065 0.39524 1.52563 0
M  V30 2106 C 198.995 -0.428384 2.29537 0
M  V30 2107 C 199.976 -1.05831 1.33169 0
M  V30 2108 O 201.161 -1.06995 1.62067 0
M  V30 2109 C 198.291 -1.55274 3.10656 0
M  V30 2110 C 197.245 -1.04855 4.14957 0
M  V30 2111 C 196.571 -2.26543 4.84337 0
M  V30 2112 C 197.871 -0.112324 5.22179 0
M  V30 2113 H 199.565 0.213867 2.98635 0
M  V30 2114 H 197.111 0.104298 1.43622 0
M  V30 2115 H 199.064 -2.1358 3.63265 0
M  V30 2116 H 197.788 -2.22266 2.39302 0
M  V30 2117 H 196.447 -0.487985 3.63338 0
M  V30 2118 H 196.095 -2.92059 4.09525 0
M  V30 2119 H 195.795 -1.93466 5.54837 0
M  V30 2120 H 197.319 -2.85481 5.39753 0
M  V30 2121 H 198.733 -0.603752 5.70112 0
M  V30 2122 H 197.13 0.128968 5.99961 0
M  V30 2123 H 198.2 0.837052 4.77621 0
M  V30 2124 N 199.544 -1.57102 0.125237 0
M  V30 2125 C 200.494 -2.12202 -0.833936 0
M  V30 2126 C 201.478 -1.04433 -1.22403 0
M  V30 2127 O 202.67 -1.30655 -1.19408 0
M  V30 2128 C 199.799 -2.72994 -2.08157 0
M  V30 2129 C 198.885 -3.87852 -1.71556 0
M  V30 2130 N 199.276 -4.9464 -1.05662 0
M  V30 2131 C 197.574 -3.98153 -2.00973 0
M  V30 2132 C 198.275 -5.74953 -0.883376 0
M  V30 2133 N 197.251 -5.24985 -1.41036 0
M  V30 2134 H 201.053 -2.92141 -0.321035 0
M  V30 2135 H 198.567 -1.62217 -0.0770315 0
M  V30 2136 H 200.564 -3.10816 -2.77847 0
M  V30 2137 H 199.224 -1.9452 -2.59985 0
M  V30 2138 H 200.235 -5.12872 -0.719878 0
M  V30 2139 H 196.912 -3.30728 -2.54804 0
M  V30 2140 H 198.302 -6.70904 -0.365675 0
M  V30 2141 N 201.022 0.148545 -1.56898 0
M  V30 2142 C 201.985 1.16736 -1.97244 0
M  V30 2143 C 202.985 1.35947 -0.858777 0
M  V30 2144 O 204.175 1.32966 -1.12542 0
M  V30 2145 C 201.307 2.52798 -2.28705 0
M  V30 2146 H 202.5 0.821279 -2.88435 0
M  V30 2147 H 200.053 0.391831 -1.51309 0
M  V30 2148 H 200.788 2.92381 -1.403 0
M  V30 2149 H 200.573 2.40216 -3.09901 0
M  V30 2150 H 202.063 3.26179 -2.60762 0
M  V30 2151 N 202.5 1.5196 0.417844 0
M  V30 2152 C 203.911 1.57851 0.997 0
M  V30 2153 C 204.262 0.413714 1.91789 0
M  V30 2154 O 203.387 -0.467057 2.113 0
M  V30 2155 C 203.982 2.86085 1.81496 0
M  V30 2156 C 202.541 2.94483 2.34428 0
M  V30 2157 C 201.688 2.52707 1.14169 0
M  V30 2158 H 204.639 1.57455 0.198392 0
M  V30 2159 H 204.66 2.70947 2.67148 0
M  V30 2160 H 204.172 3.70842 1.14446 0
M  V30 2161 H 202.273 2.142 3.04875 0
M  V30 2162 H 202.386 3.98546 2.65891 0
M  V30 2163 H 200.75 2.06353 1.49301 0
M  V30 2164 H 201.533 3.39828 0.486999 0
M  V30 2165 N 203.978 -0.674533 1.42435 0
M  V30 2166 C 204.91 -1.80005 1.41883 0
M  V30 2167 C 205.923 -1.59667 0.31787 0
M  V30 2168 O 207.112 -1.68781 0.580973 0
M  V30 2169 C 204.212 -3.17114 1.19549 0
M  V30 2170 C 203.385 -3.64299 2.42084 0
M  V30 2171 C 202.444 -4.80142 2.15291 0
M  V30 2172 O 201.47 -4.90673 2.88493 0
M  V30 2173 N 202.672 -5.68869 1.1562 0
M  V30 2174 H 205.437 -1.80964 2.38898 0
M  V30 2175 H 202.998 -0.857633 1.37318 0
M  V30 2176 H 204.99 -3.92267 0.995417 0
M  V30 2177 H 203.56 -3.11053 0.310569 0
M  V30 2178 H 202.78 -2.79822 2.77657 0
M  V30 2179 H 204.068 -3.92567 3.23679 0
M  V30 2180 H 203.466 -5.63012 0.550765 0
M  V30 2181 H 202.023 -6.43833 1.016 0
M  V30 2182 N 205.456 -1.28612 -0.910864 0
M  V30 2183 C 206.705 -1.15311 -1.65488 0
M  V30 2184 C 207.018 0.296999 -1.93332 0
M  V30 2185 O 208.224 0.551168 -2.65847 0
M  V30 2186 C 206.68 -2.01599 -2.98137 0
M  V30 2187 C 206.288 -3.51367 -2.7793 0
M  V30 2188 C 208.032 -1.96993 -3.76024 0
M  V30 2189 C 205.939 -4.29797 -4.06237 0
M  V30 2190 H 204.869 -0.42796 -0.620779 0
M  V30 2191 H 207.52 -1.53166 -1.01057 0
M  V30 2192 H 205.902 -1.56603 -3.63719 0
M  V30 2193 H 207.076 -4.0434 -2.21011 0
M  V30 2194 H 205.391 -3.57529 -2.13452 0
M  V30 2195 H 207.988 -2.52856 -4.71135 0
M  V30 2196 H 208.331 -0.94733 -4.05378 0
M  V30 2197 H 208.864 -2.39973 -3.17266 0
M  V30 2198 H 205.603 -5.32648 -3.82055 0
M  V30 2199 H 205.123 -3.81596 -4.62757 0
M  V30 2200 H 206.802 -4.39869 -4.74473 0
M  V30 2201 N 206.934 1.1197 -1.10907 0
M  V30 2202 C 207.866 2.17592 -0.720175 0
M  V30 2203 C 208.879 1.60938 0.245495 0
M  V30 2204 O 210.068 1.78476 0.0292245 0
M  V30 2205 C 207.168 3.38873 -0.0427917 0
M  V30 2206 C 206.341 4.25006 -1.03388 0
M  V30 2207 C 205.4 5.24774 -0.387075 0
M  V30 2208 O 204.426 5.59631 -1.03934 0
M  V30 2209 N 205.628 5.74208 0.852407 0
M  V30 2210 H 208.393 2.51567 -1.62893 0
M  V30 2211 H 205.954 1.27439 -0.998543 0
M  V30 2212 H 207.946 4.02703 0.401501 0
M  V30 2213 H 206.516 3.03007 0.768456 0
M  V30 2214 H 205.736 3.57716 -1.65629 0
M  V30 2215 H 207.024 4.79397 -1.70458 0
M  V30 2216 H 206.422 5.48062 1.40161 0
M  V30 2217 H 204.979 6.39901 1.23977 0
M  V30 2218 N 208.412 0.89855 1.29475 0
M  V30 2219 C 209.66 0.522847 1.9522 0
M  V30 2220 C 209.981 -0.93371 1.71192 0
M  V30 2221 O 209.251 -1.65823 1.04305 0
M  V30 2222 H 207.831 0.190366 0.722336 0
M  V30 2223 H 210.493 1.14459 1.5775 0
M  V30 2224 H 209.589 0.704476 3.04045 0
M  V30 2225 N 209.89 -1.43072 0.660911 0
M  V30 2226 C 211.137 -2.01721 0.177445 0
M  V30 2227 C 211.465 -1.5218 -1.21126 0
M  V30 2228 O 210.72 -0.708659 -1.82419 0
M  V30 2229 C 211.019 -3.57103 0.145563 0
M  V30 2230 C 210.685 -4.26021 1.47705 0
M  V30 2231 C 209.347 -4.44563 1.84165 0
M  V30 2232 C 211.699 -4.64983 2.35458 0
M  V30 2233 C 209.027 -4.99334 3.0803 0
M  V30 2234 C 211.379 -5.21127 3.58622 0
M  V30 2235 C 210.043 -5.37884 3.95268 0
M  V30 2236 H 209.313 -0.73815 0.0649317 0
M  V30 2237 H 211.96 -1.71446 0.853144 0
M  V30 2238 H 210.265 -3.86965 -0.61361 0
M  V30 2239 H 211.962 -4.00248 -0.2455 0
M  V30 2240 H 208.552 -4.11939 1.18339 0
M  V30 2241 H 212.736 -4.50343 2.08579 0
M  V30 2242 H 207.992 -5.10493 3.36462 0
M  V30 2243 H 212.166 -5.50262 4.26831 0
M  V30 2244 H 209.793 -5.80089 4.91325 0
M  V30 2245 N 211.368 -0.403325 -1.52352 0
M  V30 2246 C 212.615 0.174347 -2.01748 0
M  V30 2247 C 212.943 1.45636 -1.2892 0
M  V30 2248 O 212.198 1.9193 -0.382258 0
M  V30 2249 C 212.497 0.474665 -3.54234 0
M  V30 2250 C 212.163 -0.717458 -4.45155 0
M  V30 2251 C 210.825 -1.04447 -4.69728 0
M  V30 2252 C 213.177 -1.51432 -4.98716 0
M  V30 2253 C 210.505 -2.16963 -5.45109 0
M  V30 2254 C 212.857 -2.6302 -5.75329 0
M  V30 2255 C 211.521 -2.96213 -5.98175 0
M  V30 2256 H 210.791 0.0637981 -0.738248 0
M  V30 2257 H 213.438 -0.543553 -1.83624 0
M  V30 2258 H 211.743 1.27406 -3.70506 0
M  V30 2259 H 213.44 0.934496 -3.89959 0
M  V30 2260 H 210.03 -0.452596 -4.26204 0
M  V30 2261 H 214.214 -1.27491 -4.79645 0
M  V30 2262 H 209.47 -2.43034 -5.61021 0
M  V30 2263 H 213.644 -3.25158 -6.15829 0
M  V30 2264 H 211.271 -3.83516 -6.56368 0
M  V30 2265 N 212.846 1.57033 -0.133567 0
M  V30 2266 C 214.123 1.87256 0.56522 0
M  V30 2267 C 214.503 1.03726 1.83859 0
M  V30 2268 O 213.851 0.120247 2.28183 0
M  V30 2269 C 214.061 3.3865 0.843636 0
M  V30 2270 C 215.409 4.07574 1.19032 0
M  V30 2271 O 216.433 3.43752 0.933429 0
M  V30 2272 O 215.292 5.20259 1.67312 0
M  V30 2273 H 212.386 0.775678 0.286796 0
M  V30 2274 H 214.932 1.68855 -0.169168 0
M  V30 2275 H 213.704 3.91257 -0.0581149 0
M  V30 2276 H 213.327 3.62532 1.63268 0
M  V30 2277 N 214.325 -0.140222 1.56975 0
M  V30 2278 C 215.574 -0.850152 1.82908 0
M  V30 2279 C 215.887 -1.82028 0.715892 0
M  V30 2280 O 217.093 -2.57485 0.861016 0
M  V30 2281 C 215.549 -1.5625 3.24213 0
M  V30 2282 C 215.157 -0.63443 4.43485 0
M  V30 2283 C 216.901 -2.25881 3.59413 0
M  V30 2284 C 214.808 -1.34879 5.75814 0
M  V30 2285 H 213.738 -0.321221 0.682153 0
M  V30 2286 H 216.389 -0.102874 1.83211 0
M  V30 2287 H 214.771 -2.35565 3.18316 0
M  V30 2288 H 215.945 0.12398 4.60633 0
M  V30 2289 H 214.26 -0.0461836 4.16374 0
M  V30 2290 H 216.857 -2.79978 4.5554 0
M  V30 2291 H 217.2 -3.02693 2.85802 0
M  V30 2292 H 217.733 -1.53477 3.67001 0
M  V30 2293 H 214.472 -0.622385 6.52539 0
M  V30 2294 H 213.992 -2.07974 5.6259 0
M  V30 2295 H 215.671 -1.88784 6.18845 0
M  V30 2296 N 215.803 -1.52179 -0.40978 0
M  V30 2297 C 217.214 -1.58377 -0.988615 0
M  V30 2298 C 217.565 -0.423879 -1.91566 0
M  V30 2299 O 216.69 0.455844 -2.11544 0
M  V30 2300 C 217.285 -2.87044 -1.79976 0
M  V30 2301 C 215.844 -2.95722 -2.32863 0
M  V30 2302 C 214.991 -2.53309 -1.12828 0
M  V30 2303 H 217.942 -1.57558 -0.190039 0
M  V30 2304 H 217.963 -2.7236 -2.65707 0
M  V30 2305 H 217.475 -3.71444 -1.12478 0
M  V30 2306 H 215.576 -2.15814 -3.03735 0
M  V30 2307 H 215.689 -3.99951 -2.63773 0
M  V30 2308 H 214.053 -2.07142 -1.48204 0
M  V30 2309 H 214.836 -3.40082 -0.46897 0
M  V30 2310 N 217.281 0.66697 -1.42791 0
M  V30 2311 C 218.53 1.42278 -1.42968 0
M  V30 2312 C 218.843 1.9553 -0.0524489 0
M  V30 2313 O 220.049 2.71414 0.068363 0
M  V30 2314 C 218.505 2.57418 -2.51524 0
M  V30 2315 C 218.113 2.10832 -3.9529 0
M  V30 2316 C 219.857 3.34878 -2.60877 0
M  V30 2317 C 217.764 3.23101 -4.95338 0
M  V30 2318 H 216.694 0.534533 -0.531781 0
M  V30 2319 H 219.345 0.721302 -1.68729 0
M  V30 2320 H 217.727 3.29971 -2.18941 0
M  V30 2321 H 218.901 1.4538 -4.37266 0
M  V30 2322 H 217.216 1.46289 -3.89857 0
M  V30 2323 H 219.813 4.18505 -3.32802 0
M  V30 2324 H 220.156 3.81993 -1.6549 0
M  V30 2325 H 220.689 2.69398 -2.92693 0
M  V30 2326 H 217.428 2.80969 -5.9223 0
M  V30 2327 H 216.948 3.87309 -4.57987 0
M  V30 2328 H 218.627 3.88447 -5.17415 0
M  V30 2329 N 218.759 1.29093 0.90403 0
M  V30 2330 C 220.036 1.075 1.63411 0
M  V30 2331 C 220.416 -0.382346 2.07609 0
M  V30 2332 O 219.764 -1.37031 1.82851 0
M  V30 2333 C 219.974 2.05858 2.81822 0
M  V30 2334 C 221.322 2.36539 3.52611 0
M  V30 2335 O 222.346 2.04019 2.91984 0
M  V30 2336 O 221.205 2.92085 4.61897 0
M  V30 2337 H 218.299 0.411547 0.717327 0
M  V30 2338 H 220.845 1.40449 0.952479 0
M  V30 2339 H 219.617 3.04037 2.46327 0
M  V30 2340 H 219.24 1.73613 3.57693 0
M  V30 2341 N 220.237 -1.11381 1.11499 0
M  V30 2342 C 221.187 -2.15555 0.74298 0
M  V30 2343 C 222.171 -1.58894 -0.253276 0
M  V30 2344 O 223.363 -1.76897 -0.0602918 0
M  V30 2345 C 220.492 -3.42782 0.188481 0
M  V30 2346 C 219.578 -4.064 1.21244 0
M  V30 2347 N 219.969 -4.44864 2.40685 0
M  V30 2348 C 218.267 -4.3333 1.05552 0
M  V30 2349 C 218.968 -4.94715 3.05994 0
M  V30 2350 N 217.944 -4.90909 2.33472 0
M  V30 2351 H 221.746 -2.43074 1.65203 0
M  V30 2352 H 219.26 -1.28401 0.994329 0
M  V30 2353 H 221.257 -4.16789 -0.0961693 0
M  V30 2354 H 219.917 -3.16727 -0.715149 0
M  V30 2355 H 220.928 -4.36876 2.78136 0
M  V30 2356 H 217.605 -4.1698 0.208372 0
M  V30 2357 H 218.995 -5.34103 4.07656 0
M  V30 2358 N 221.715 -0.905404 -1.28997 0
M  V30 2359 C 222.645 -0.404212 -2.29975 0
M  V30 2360 C 223.626 0.523784 -1.61835 0
M  V30 2361 O 224.811 0.433298 -1.89304 0
M  V30 2362 C 221.941 0.364042 -3.45387 0
M  V30 2363 C 220.895 -0.474048 -4.25367 0
M  V30 2364 C 220.221 0.422045 -5.33032 0
M  V30 2365 C 221.521 -1.72696 -4.92923 0
M  V30 2366 H 223.215 -1.24807 -2.72146 0
M  V30 2367 H 220.761 -0.601585 -1.30832 0
M  V30 2368 H 222.714 0.725447 -4.15109 0
M  V30 2369 H 221.438 1.24174 -3.02074 0
M  V30 2370 H 220.097 -0.81786 -3.57361 0
M  V30 2371 H 219.745 1.29804 -4.85963 0
M  V30 2372 H 219.445 -0.135057 -5.87445 0
M  V30 2373 H 220.969 0.779517 -6.05604 0
M  V30 2374 H 222.383 -1.43495 -5.55051 0
M  V30 2375 H 220.78 -2.22582 -5.57295 0
M  V30 2376 H 221.85 -2.45964 -4.17887 0
M  V30 2377 N 223.193 1.4272 -0.668489 0
M  V30 2378 C 224.126 2.28111 0.0637898 0
M  V30 2379 C 225.104 1.40705 0.814912 0
M  V30 2380 O 226.288 1.70146 0.81134 0
M  V30 2381 C 223.415 3.20429 1.0974 0
M  V30 2382 C 222.461 4.24197 0.442579 0
M  V30 2383 S 223.294 5.29563 -0.795173 0
M  V30 2384 C 224.45 6.25449 0.237516 0
M  V30 2385 H 224.683 2.8987 -0.660521 0
M  V30 2386 H 222.216 1.47456 -0.457821 0
M  V30 2387 H 224.174 3.74158 1.68868 0
M  V30 2388 H 222.835 2.57818 1.79411 0
M  V30 2389 H 222.028 4.88954 1.22227 0
M  V30 2390 H 221.63 3.73925 -0.0749554 0
M  V30 2391 H 223.922 6.68524 1.09915 0
M  V30 2392 H 224.865 7.07104 -0.375421 0
M  V30 2393 H 225.273 5.61511 0.580167 0
M  V30 2394 N 224.671 0.411399 1.52136 0
M  V30 2395 C 225.919 -0.163322 2.01439 0
M  V30 2396 C 226.24 -1.45453 1.29879 0
M  V30 2397 O 225.51 -1.91225 0.4254 0
M  V30 2398 H 224.09 -0.0633447 0.744309 0
M  V30 2399 H 226.752 0.548161 1.87033 0
M  V30 2400 H 225.848 -0.357817 3.10042 0
M  V30 2401 N 226.149 -1.5696 0.141893 0
M  V30 2402 C 227.395 -1.9625 -0.511248 0
M  V30 2403 C 227.728 -1.02654 -1.64851 0
M  V30 2404 O 227.003 -0.0679676 -1.94381 0
M  V30 2405 C 227.286 -3.45285 -1.02227 0
M  V30 2406 C 227.139 -4.49658 0.113138 0
M  V30 2407 C 228.458 -3.96698 -1.90574 0
M  V30 2408 H 225.577 -0.713567 -0.184367 0
M  V30 2409 H 228.219 -1.88698 0.222087 0
M  V30 2410 H 226.369 -3.51852 -1.64719 0
M  V30 2411 H 228.041 -4.55174 0.749302 0
M  V30 2412 H 226.284 -4.26857 0.773026 0
M  V30 2413 H 226.955 -5.51258 -0.286053 0
M  V30 2414 H 229.431 -3.92578 -1.37918 0
M  V30 2415 H 228.307 -5.01453 -2.2324 0
M  V30 2416 H 228.568 -3.3875 -2.84079 0
M  V30 2417 N 227.627 0.131896 -1.57047 0
M  V30 2418 C 229.038 0.690407 -1.73465 0
M  V30 2419 C 229.389 1.8094 -0.758629 0
M  V30 2420 O 228.514 2.16282 0.0713813 0
M  V30 2421 C 229.109 1.25916 -3.14532 0
M  V30 2422 C 227.668 1.76409 -3.32501 0
M  V30 2423 C 226.815 0.658579 -2.69366 0
M  V30 2424 H 229.766 -0.0939144 -1.58422 0
M  V30 2425 H 229.787 2.12892 -3.15369 0
M  V30 2426 H 229.299 0.444515 -3.85546 0
M  V30 2427 H 227.4 2.60391 -2.66509 0
M  V30 2428 H 227.513 1.88241 -4.4057 0
M  V30 2429 H 225.877 1.08899 -2.30246 0
M  V30 2430 H 226.66 -0.14487 -3.42994 0
M  V30 2431 N 229.106 1.52395 0.401703 0
M  V30 2432 C 230.355 1.66044 1.14509 0
M  V30 2433 C 230.668 0.400216 1.91462 0
M  V30 2434 O 231.874 0.416632 2.68284 0
M  V30 2435 C 230.33 2.93388 2.0845 0
M  V30 2436 C 229.938 4.26545 1.36978 0
M  V30 2437 C 231.682 3.16402 2.83001 0
M  V30 2438 C 229.589 5.45007 2.29611 0
M  V30 2439 H 228.519 0.618562 0.431158 0
M  V30 2440 H 231.17 1.78886 0.40892 0
M  V30 2441 H 229.552 2.74263 2.8565 0
M  V30 2442 H 230.726 4.56179 0.650916 0
M  V30 2443 H 229.041 4.09692 0.74438 0
M  V30 2444 H 231.638 4.02085 3.52465 0
M  V30 2445 H 231.981 2.30943 3.46368 0
M  V30 2446 H 232.514 3.36034 2.12898 0
M  V30 2447 H 229.253 6.32835 1.70879 0
M  V30 2448 H 228.773 5.19702 2.9945 0
M  V30 2449 H 230.452 5.7838 2.89974 0
M  V30 2450 N 230.584 -0.659388 1.43143 0
M  V30 2451 C 231.514 -1.78422 1.50625 0
M  V30 2452 C 232.495 -1.66216 0.361443 0
M  V30 2453 O 233.68 -1.85404 0.577834 0
M  V30 2454 C 230.81 -3.16815 1.42287 0
M  V30 2455 C 229.764 -3.43777 2.54954 0
M  V30 2456 C 229.09 -4.81905 2.31671 0
M  V30 2457 C 230.39 -3.39134 3.97222 0
M  V30 2458 H 232.084 -1.72417 2.44771 0
M  V30 2459 H 229.63 -0.828084 1.17808 0
M  V30 2460 H 231.583 -3.95253 1.46127 0
M  V30 2461 H 230.307 -3.23534 0.446435 0
M  V30 2462 H 228.966 -2.67707 2.50457 0
M  V30 2463 H 228.614 -4.85294 1.32284 0
M  V30 2464 H 228.314 -5.00906 3.07192 0
M  V30 2465 H 229.838 -5.62609 2.37284 0
M  V30 2466 H 231.252 -4.07518 4.03239 0
M  V30 2467 H 229.649 -3.69671 4.72719 0
M  V30 2468 H 230.719 -2.37426 4.22797 0
M  V30 2469 N 232.062 -1.29571 -0.897171 0
M  V30 2470 C 233.31 -1.17456 -1.64464 0
M  V30 2471 C 233.631 0.273698 -1.9307 0
M  V30 2472 O 232.901 1.18684 -1.55855 0
M  V30 2473 H 231.481 -0.431706 -0.609622 0
M  V30 2474 H 234.143 -1.62531 -1.07562 0
M  V30 2475 H 233.239 -1.72648 -2.59998 0
M  V30 2476 N 233.54 1.10788 -1.12088 0
M  V30 2477 C 234.45 2.20599 -0.798338 0
M  V30 2478 C 235.466 1.72712 0.21135 0
M  V30 2479 O 236.642 2.01348 0.0458477 0
M  V30 2480 C 233.707 3.45771 -0.253674 0
M  V30 2481 C 232.768 4.08411 -1.32283 0
M  V30 2482 C 232.001 5.27608 -0.80406 0
M  V30 2483 O 232.224 5.69241 0.363478 0
M  V30 2484 O 231.158 5.8101 -1.57198 0
M  V30 2485 H 234.984 2.50614 -1.7154 0
M  V30 2486 H 232.569 1.19454 -0.897275 0
M  V30 2487 H 234.451 4.21376 0.0453691 0
M  V30 2488 H 233.126 3.1739 0.636005 0
M  V30 2489 H 232.033 3.34507 -1.67499 0
M  V30 2490 H 233.366 4.40986 -2.18614 0
M  V30 2491 N 235.018 0.912232 1.28515 0
M  V30 2492 C 236.248 0.559604 1.98877 0
M  V30 2493 C 236.656 -0.863113 1.68366 0
M  V30 2494 O 235.999 -1.58304 0.931969 0
M  V30 2495 C 236.061 0.68703 3.52874 0
M  V30 2496 C 235.725 2.07901 4.06972 0
M  V30 2497 C 236.722 3.05157 4.20922 0
M  V30 2498 C 234.407 2.39178 4.417 0
M  V30 2499 C 236.401 4.31806 4.68852 0
M  V30 2500 C 234.088 3.66068 4.89324 0
M  V30 2501 C 235.086 4.62195 5.02856 0
M  V30 2502 O 234.774 5.86829 5.49442 0
M  V30 2503 H 234.506 0.212191 0.641834 0
M  V30 2504 H 237.06 1.22712 1.64715 0
M  V30 2505 H 235.29 -0.0375486 3.86682 0
M  V30 2506 H 236.979 0.341727 4.04459 0
M  V30 2507 H 237.745 2.82311 3.94367 0
M  V30 2508 H 233.624 1.65109 4.30418 0
M  V30 2509 H 237.168 5.06842 4.79329 0
M  V30 2510 H 233.065 3.88739 5.15318 0
M  V30 2511 H 233.833 5.89597 5.6773 0
M  V30 2512 N 236.496 -1.42363 0.676048 0
M  V30 2513 C 237.743 -2.01522 0.19883 0
M  V30 2514 C 238.071 -1.53456 -1.19505 0
M  V30 2515 O 237.326 -0.727967 -1.81657 0
M  V30 2516 C 237.625 -3.56929 0.183431 0
M  V30 2517 C 237.291 -4.24431 1.52215 0
M  V30 2518 C 235.953 -4.42585 1.8887 0
M  V30 2519 C 238.305 -4.62459 2.40377 0
M  V30 2520 C 235.633 -4.96039 3.13309 0
M  V30 2521 C 237.985 -5.17294 3.64129 0
M  V30 2522 C 236.649 -5.33661 4.00951 0
M  V30 2523 H 235.919 -0.737419 0.0727571 0
M  V30 2524 H 238.566 -1.70531 0.871281 0
M  V30 2525 H 236.871 -3.87594 -0.572532 0
M  V30 2526 H 238.568 -4.00486 -0.203035 0
M  V30 2527 H 235.158 -4.10661 1.22701 0
M  V30 2528 H 239.342 -4.48105 2.13343 0
M  V30 2529 H 234.598 -5.06896 3.41857 0
M  V30 2530 H 238.772 -5.45704 4.32644 0
M  V30 2531 H 236.399 -5.74845 4.9745 0
M  V30 2532 N 237.974 -0.419461 -1.51915 0
M  V30 2533 C 238.884 0.407528 -2.31033 0
M  V30 2534 C 239.9 1.04413 -1.3919 0
M  V30 2535 O 241.076 1.0434 -1.72265 0
M  V30 2536 C 238.141 1.50365 -3.12396 0
M  V30 2537 C 237.202 0.889029 -4.19994 0
M  V30 2538 C 236.435 1.93291 -4.97468 0
M  V30 2539 O 236.658 3.15259 -4.75361 0
M  V30 2540 O 235.592 1.53339 -5.8204 0
M  V30 2541 H 239.418 -0.237865 -3.02767 0
M  V30 2542 H 237.003 -0.182413 -1.48282 0
M  V30 2543 H 238.885 2.13975 -3.63032 0
M  V30 2544 H 237.56 2.13345 -2.43445 0
M  V30 2545 H 236.467 0.215353 -3.7348 0
M  V30 2546 H 237.8 0.302991 -4.91267 0
M  V30 2547 N 239.452 1.56882 -0.150215 0
M  V30 2548 C 240.7 1.9584 0.499105 0
M  V30 2549 C 241.021 1.03623 1.65188 0
M  V30 2550 O 240.291 0.0984084 1.95653 0
M  V30 2551 H 238.871 0.723119 0.187373 0
M  V30 2552 H 241.533 1.9358 -0.226466 0
M  V30 2553 H 240.629 2.99638 0.873122 0
M  V30 2554 N 240.93 -0.123565 1.57115 0
M  V30 2555 C 241.877 -1.15177 2.00007 0
M  V30 2556 C 242.847 -1.41403 0.871454 0
M  V30 2557 O 244.032 -1.53346 1.13533 0
M  V30 2558 C 241.172 -2.47436 2.40561 0
M  V30 2559 C 240.285 -2.28184 3.66819 0
M  V30 2560 C 239.42 -3.53641 3.96373 0
M  V30 2561 C 238.459 -3.29528 5.15827 0
M  V30 2562 N 237.596 -4.47175 5.41275 0
M  V30 2563 H 242.436 -0.779008 2.87638 0
M  V30 2564 H 239.973 -0.373166 1.42288 0
M  V30 2565 H 241.931 -3.24584 2.62109 0
M  V30 2566 H 240.561 -2.82614 1.55978 0
M  V30 2567 H 239.613 -1.41976 3.52912 0
M  V30 2568 H 240.925 -2.0634 4.5412 0
M  V30 2569 H 240.079 -4.39209 4.18545 0
M  V30 2570 H 238.818 -3.78512 3.07538 0
M  V30 2571 H 237.823 -2.42349 4.93505 0
M  V30 2572 H 239.048 -3.06031 6.06236 0
M  V30 2573 H 236.994 -4.72175 4.55397 0
M  V30 2574 H 236.911 -4.28419 6.22891 0
M  V30 2575 H 238.179 -5.3389 5.67963 0
M  V30 2576 N 242.408 -1.52605 -0.393616 0
M  V30 2577 C 243.356 -1.77688 -1.50099 0
M  V30 2578 C 244.35 -0.644615 -1.56656 0
M  V30 2579 O 245.556 -0.826997 -1.59877 0
M  V30 2580 H 241.931 -0.562159 -0.499481 0
M  V30 2581 H 243.902 -2.7043 -1.26135 0
M  V30 2582 C 242.651 -1.95858 -2.87289 0
M  V30 2583 H 241.974 -2.8241 -2.82992 0
M  V30 2584 H 243.414 -2.174 -3.64024 0
M  V30 2585 C 241.873 -0.729848 -3.28899 0
M  V30 2586 O 242.403 0.0949217 -4.01588 0
M  V30 2587 N 240.609 -0.561283 -2.85128 0
M  V30 2588 H 240.156 -1.23357 -2.26143 0
M  V30 2589 H 240.114 0.2595 -3.13327 0
M  V30 2590 N 243.887 0.651787 -1.4349 0
M  V30 2591 C 244.817 1.77621 -1.51569 0
M  V30 2592 C 245.798 1.66022 -0.370253 0
M  V30 2593 O 246.983 1.85095 -0.587658 0
M  V30 2594 C 244.113 3.16056 -1.43966 0
M  V30 2595 C 243.067 3.4242 -2.56774 0
M  V30 2596 C 242.393 4.8067 -2.34223 0
M  V30 2597 C 243.693 3.37023 -3.99015 0
M  V30 2598 H 245.387 1.71117 -2.45681 0
M  V30 2599 H 242.933 0.821825 -1.18246 0
M  V30 2600 H 244.886 3.94472 -1.48221 0
M  V30 2601 H 243.61 3.23293 -0.463586 0
M  V30 2602 H 242.269 2.66375 -2.51873 0
M  V30 2603 H 241.917 4.84585 -1.34856 0
M  V30 2604 H 241.617 4.9927 -3.09844 0
M  V30 2605 H 243.141 5.61342 -2.40265 0
M  V30 2606 H 244.555 4.05374 -4.05395 0
M  V30 2607 H 242.952 3.67159 -4.74673 0
M  V30 2608 H 244.022 2.3518 -4.2405 0
M  V30 2609 N 245.365 1.30045 0.890287 0
M  V30 2610 C 246.275 1.17885 2.02831 0
M  V30 2611 C 247.291 0.0999609 1.73713 0
M  V30 2612 O 248.467 0.313867 1.98939 0
M  V30 2613 C 245.532 0.866079 3.35708 0
M  V30 2614 C 244.593 2.02979 3.78283 0
M  V30 2615 C 243.826 1.73184 5.0482 0
M  V30 2616 O 244.049 0.657237 5.66601 0
M  V30 2617 O 242.983 2.58267 5.43674 0
M  V30 2618 H 246.809 2.13474 2.16015 0
M  V30 2619 H 244.394 1.09587 1.01543 0
M  V30 2620 H 246.276 0.706623 4.15433 0
M  V30 2621 H 244.951 -0.0599443 3.23644 0
M  V30 2622 H 243.858 2.24454 2.99285 0
M  V30 2623 H 245.191 2.93734 3.94944 0
M  V30 2624 N 246.843 -1.10192 1.12674 0
M  V30 2625 C 248.12 -1.78717 0.794965 0
M  V30 2626 C 248.5 -1.98628 -0.714853 0
M  V30 2627 O 247.848 -1.58135 -1.64941 0
M  V30 2628 C 248.058 -3.11546 1.5729 0
M  V30 2629 C 249.406 -3.86382 1.76052 0
M  V30 2630 O 250.43 -3.21274 1.53823 0
M  V30 2631 O 249.289 -5.03246 2.13087 0
M  V30 2632 H 246.383 -0.774702 0.289423 0
M  V30 2633 H 248.929 -1.16819 1.23091 0
M  V30 2634 H 247.701 -2.92489 2.59935 0
M  V30 2635 H 247.324 -3.81164 1.13137 0
M  V30 2636 N 248.321 -0.919034 -1.28029 0
M  V30 2637 C 249.57 -0.550802 -1.94034 0
M  V30 2638 C 249.883 0.910877 -1.73096 0
M  V30 2639 O 251.089 1.3875 -2.33368 0
M  V30 2640 C 249.545 -0.934249 -3.47563 0
M  V30 2641 C 249.153 -2.41602 -3.7727 0
M  V30 2642 C 250.897 -0.636854 -4.19696 0
M  V30 2643 C 248.804 -2.73932 -5.24133 0
M  V30 2644 H 247.734 -0.202273 -0.726362 0
M  V30 2645 H 250.385 -1.11867 -1.45458 0
M  V30 2646 H 248.767 -0.295115 -3.94899 0
M  V30 2647 H 249.941 -3.10233 -3.40723 0
M  V30 2648 H 248.256 -2.68441 -3.18321 0
M  V30 2649 H 250.853 -0.855005 -5.2782 0
M  V30 2650 H 251.196 0.425575 -4.14119 0
M  V30 2651 H 251.729 -1.23469 -3.78154 0
M  V30 2652 H 248.468 -3.79049 -5.34792 0
M  V30 2653 H 247.988 -2.09942 -5.61858 0
M  V30 2654 H 249.667 -2.61215 -5.91925 0
M  V30 2655 N 249.799 1.42003 -0.683588 0
M  V30 2656 C 251.045 2.01712 -0.209825 0
M  V30 2657 C 251.378 1.53968 1.18353 0
M  V30 2658 O 250.653 0.745661 1.79639 0
M  V30 2659 C 250.936 3.59202 -0.254197 0
M  V30 2660 C 250.789 4.17102 -1.68363 0
M  V30 2661 C 252.108 4.38344 0.392709 0
M  V30 2662 H 249.227 0.732891 -0.0777189 0
M  V30 2663 H 251.869 1.68909 -0.87004 0
M  V30 2664 H 250.019 3.87278 0.307954 0
M  V30 2665 H 251.691 3.99946 -2.29871 0
M  V30 2666 H 249.934 3.72597 -2.22157 0
M  V30 2667 H 250.605 5.26249 -1.6663 0
M  V30 2668 H 253.081 4.16011 -0.0859162 0
M  V30 2669 H 251.957 5.47901 0.331063 0
M  V30 2670 H 252.218 4.16887 1.47164 0
M  V30 2671 N 251.277 0.427512 1.51691 0
M  V30 2672 C 252.526 -0.143679 2.01188 0
M  V30 2673 C 252.839 -1.44642 1.31674 0
M  V30 2674 O 254.045 -2.09997 1.72086 0
M  V30 2675 C 252.501 -0.306602 3.58592 0
M  V30 2676 C 252.109 0.985125 4.37035 0
M  V30 2677 C 253.853 -0.832091 4.16265 0
M  V30 2678 C 251.76 0.788382 5.86122 0
M  V30 2679 H 250.69 -0.0574701 0.751807 0
M  V30 2680 H 253.341 0.555772 1.74881 0
M  V30 2681 H 251.723 -1.06882 3.81303 0
M  V30 2682 H 252.897 1.75492 4.26074 0
M  V30 2683 H 251.212 1.4384 3.90767 0
M  V30 2684 H 253.809 -0.995617 5.25349 0
M  V30 2685 H 254.152 -1.81186 3.74803 0
M  V30 2686 H 254.685 -0.128444 3.97593 0
M  V30 2687 H 251.424 1.74025 6.31978 0
M  V30 2688 H 250.944 0.0582143 5.99772 0
M  V30 2689 H 252.623 0.437722 6.45518 0
M  V30 2690 N 252.755 -1.56801 0.158532 0
M  V30 2691 C 254.001 -1.96781 -0.490405 0
M  V30 2692 C 254.334 -1.04397 -1.63753 0
M  V30 2693 O 253.609 -0.0885805 -1.94298 0
M  V30 2694 C 253.892 -3.4635 -0.985594 0
M  V30 2695 C 253.745 -4.49512 0.160824 0
M  V30 2696 C 255.064 -3.98697 -1.86355 0
M  V30 2697 H 252.183 -0.715482 -0.176788 0
M  V30 2698 H 254.825 -1.88451 0.242088 0
M  V30 2699 H 252.975 -3.53579 -1.60978 0
M  V30 2700 H 254.647 -4.54353 0.797537 0
M  V30 2701 H 252.89 -4.26013 0.818256 0
M  V30 2702 H 253.561 -5.51531 -0.227569 0
M  V30 2703 H 256.037 -3.94019 -1.33746 0
M  V30 2704 H 254.913 -5.03792 -2.17909 0
M  V30 2705 H 255.174 -3.41744 -2.8047 0
M  V30 2706 N 254.233 0.115231 -1.57178 0
M  V30 2707 C 255.458 0.840354 -1.89612 0
M  V30 2708 C 255.883 1.72464 -0.750845 0
M  V30 2709 O 255.241 1.78826 0.298478 0
M  V30 2710 C 255.289 1.64654 -3.20814 0
M  V30 2711 O 254.393 2.7538 -3.06985 0
M  V30 2712 H 253.734 0.232158 -0.622092 0
M  V30 2713 H 256.264 0.0964977 -2.04372 0
M  V30 2714 H 256.274 2.03499 -3.53627 0
M  V30 2715 H 254.949 0.997416 -4.03763 0
M  V30 2716 H 253.526 2.3971 -2.85646 0
M  V30 2717 N 255.711 1.52812 0.385517 0
M  V30 2718 C 257.122 1.5993 0.963293 0
M  V30 2719 C 257.473 0.454302 1.90868 0
M  V30 2720 O 256.598 -0.422132 2.12243 0
M  V30 2721 C 257.193 2.89871 1.75387 0
M  V30 2722 C 255.752 2.99389 2.28129 0
M  V30 2723 C 254.899 2.55071 1.08783 0
M  V30 2724 H 257.85 1.5784 0.164948 0
M  V30 2725 H 257.871 2.76553 2.61341 0
M  V30 2726 H 257.383 3.73186 1.06554 0
M  V30 2727 H 255.484 2.20619 3.00263 0
M  V30 2728 H 255.597 4.04096 2.57377 0
M  V30 2729 H 253.961 2.09473 1.4489 0
M  V30 2730 H 254.744 3.40785 0.414807 0
M  V30 2731 N 257.189 -0.644168 1.43834 0
M  V30 2732 C 258.466 -1.40188 1.36406 0
M  V30 2733 C 258.846 -2.11094 0.0163124 0
M  V30 2734 O 258.194 -2.05426 -1.00062 0
M  V30 2735 C 258.404 -2.3791 2.55343 0
M  V30 2736 C 259.752 -3.01637 2.98832 0
M  V30 2737 O 260.776 -2.48237 2.55455 0
M  V30 2738 O 259.635 -3.98477 3.74003 0
M  V30 2739 H 256.729 -0.626773 0.539523 0
M  V30 2740 H 259.275 -0.670317 1.559 0
M  V30 2741 H 258.047 -1.84525 3.4506 0
M  V30 2742 H 257.67 -3.18503 2.37995 0
M  V30 2743 N 258.668 -1.30515 -0.883378 0
M  V30 2744 C 259.618 -1.13641 -1.9766 0
M  V30 2745 C 260.602 -0.0511314 -1.60819 0
M  V30 2746 O 261.794 -0.274623 -1.74857 0
M  V30 2747 C 258.923 -0.831976 -3.33066 0
M  V30 2748 C 258.009 -1.95759 -3.76217 0
M  V30 2749 N 258.4 -3.20313 -3.9145 0
M  V30 2750 C 256.698 -1.85431 -4.05625 0
M  V30 2751 C 257.399 -3.93856 -4.2808 0
M  V30 2752 N 256.375 -3.21919 -4.38029 0
M  V30 2753 H 260.177 -2.08106 -2.07531 0
M  V30 2754 H 257.691 -1.21877 -1.0733 0
M  V30 2755 H 259.688 -0.692102 -4.11115 0
M  V30 2756 H 258.348 0.104588 -3.24532 0
M  V30 2757 H 259.359 -3.55583 -3.76538 0
M  V30 2758 H 256.036 -0.991531 -4.05555 0
M  V30 2759 H 257.426 -5.01125 -4.47575 0
M  V30 2760 N 260.146 1.09593 -1.13257 0
M  V30 2761 C 261.394 1.81375 -0.891492 0
M  V30 2762 C 261.715 1.86049 0.584009 0
M  V30 2763 O 260.985 1.34481 1.42449 0
M  V30 2764 H 259.565 0.671708 -0.326828 0
M  V30 2765 H 262.227 1.3256 -1.42877 0
M  V30 2766 H 261.323 2.84612 -1.28071 0
M  V30 2767 N 261.624 0.925811 1.2754 0
M  V30 2768 C 262.872 0.564138 1.94067 0
M  V30 2769 C 263.193 -0.897188 1.73134 0
M  V30 2770 O 262.463 -1.63573 1.07799 0
M  V30 2771 H 261.043 0.205645 0.718136 0
M  V30 2772 H 263.705 1.1778 1.55287 0
M  V30 2773 H 262.801 0.76881 3.02483 0
M  V30 2774 N 263.102 -1.41638 0.69111 0
M  V30 2775 C 264.348 -2.01598 0.220519 0
M  V30 2776 C 264.681 -1.54594 -1.17535 0
M  V30 2777 O 263.956 -0.755177 -1.79241 0
M  V30 2778 C 264.239 -3.59062 0.273243 0
M  V30 2779 C 264.092 -4.16203 1.70573 0
M  V30 2780 C 265.411 -4.38546 -0.369457 0
M  V30 2781 H 262.53 -0.732468 0.0816045 0
M  V30 2782 H 265.172 -1.68445 0.878986 0
M  V30 2783 H 263.322 -3.87435 -0.287411 0
M  V30 2784 H 264.994 -3.98722 2.31989 0
M  V30 2785 H 263.237 -3.71414 2.2413 0
M  V30 2786 H 263.908 -5.25358 1.69419 0
M  V30 2787 H 266.384 -4.1596 0.107977 0
M  V30 2788 H 265.26 -5.48069 -0.302002 0
M  V30 2789 H 265.521 -4.17662 -1.44951 0
M  V30 2790 N 264.58 -0.43555 -1.51462 0
M  V30 2791 C 265.808 0.130242 -2.0649 0
M  V30 2792 C 266.223 1.36614 -1.30315 0
M  V30 2793 O 265.58 1.78869 -0.362223 0
M  V30 2794 C 265.631 0.454253 -3.58635 0
M  V30 2795 O 265.352 -0.73259 -4.31931 0
M  V30 2796 C 266.853 1.07091 -4.3017 0
M  V30 2797 H 264.073 0.00871669 -0.670943 0
M  V30 2798 H 266.617 -0.614117 -1.95061 0
M  V30 2799 H 264.772 1.14851 -3.69984 0
M  V30 2800 H 265.186 -0.455787 -5.22516 0
M  V30 2801 H 266.66 1.24764 -5.37716 0
M  V30 2802 H 267.137 2.05144 -3.88346 0
M  V30 2803 H 267.743 0.416089 -4.2326 0
M  V30 2804 N 266.058 1.56714 -0.166846 0
M  V30 2805 C 267.474 1.58473 0.189372 0
M  V30 2806 C 267.674 1.18201 1.63189 0
M  V30 2807 O 266.73 0.891528 2.36237 0
M  V30 2808 C 268.043 3.00573 -0.0873872 0
M  V30 2809 C 269.591 3.1299 -0.0252443 0
M  V30 2810 C 270.066 4.57174 -0.274934 0
M  V30 2811 N 271.557 4.62665 -0.222553 0
M  V30 2812 C 272.292 5.72072 -0.389985 0
M  V30 2813 N 271.788 6.90054 -0.616229 0
M  V30 2814 N 273.581 5.61153 -0.326202 0
M  V30 2815 H 265.732 1.8118 -1.10849 0
M  V30 2816 H 267.995 0.839525 -0.440342 0
M  V30 2817 H 267.701 3.34497 -1.0865 0
M  V30 2818 H 267.575 3.72019 0.623037 0
M  V30 2819 H 269.962 2.78895 0.96444 0
M  V30 2820 H 270.043 2.43989 -0.768309 0
M  V30 2821 H 269.687 4.91976 -1.26181 0
M  V30 2822 H 269.617 5.24328 0.48869 0
M  V30 2823 H 272.108 3.77863 -0.0531512 0
M  V30 2824 H 272.421 7.69311 -0.733559 0
M  V30 2825 H 270.766 6.91927 -0.652791 0
M  V30 2826 H 273.957 4.67859 -0.150072 0
M  V30 2827 H 274.13 6.46364 -0.460116 0
M  V30 2828 N 267.536 -0.106894 1.57237 0
M  V30 2829 C 268.499 -1.11466 2.0027 0
M  V30 2830 C 269.499 -1.33623 0.894519 0
M  V30 2831 O 270.689 -1.29935 1.16028 0
M  V30 2832 C 267.821 -2.46646 2.35327 0
M  V30 2833 H 269.014 -0.744516 2.90512 0
M  V30 2834 H 266.567 -0.351576 1.52295 0
M  V30 2835 H 267.302 -2.88558 1.48003 0
M  V30 2836 H 267.087 -2.31915 3.16161 0
M  V30 2837 H 268.577 -3.19151 2.69318 0
M  V30 2838 N 269.014 -1.53014 -0.377408 0
M  V30 2839 C 270.43 -1.42523 -0.718281 0
M  V30 2840 C 270.63 -0.55487 -1.9371 0
M  V30 2841 O 269.686 -0.0327593 -2.52479 0
M  V30 2842 C 270.999 -2.85546 -0.942539 0
M  V30 2843 C 272.547 -2.95101 -1.04329 0
M  V30 2844 C 273.022 -4.3916 -1.3001 0
M  V30 2845 N 274.513 -4.42536 -1.36806 0
M  V30 2846 C 275.248 -5.51097 -1.58364 0
M  V30 2847 N 274.744 -6.69724 -1.77317 0
M  V30 2848 N 276.537 -5.38657 -1.60638 0
M  V30 2849 H 268.688 -2.08116 0.424426 0
M  V30 2850 H 270.951 -0.939352 0.127759 0
M  V30 2851 H 270.657 -3.51499 -0.118929 0
M  V30 2852 H 270.531 -3.28493 -1.85397 0
M  V30 2853 H 272.918 -2.29309 -1.85745 0
M  V30 2854 H 272.999 -2.55566 -0.109505 0
M  V30 2855 H 272.643 -5.05521 -0.490991 0
M  V30 2856 H 272.573 -4.76258 -2.24691 0
M  V30 2857 H 275.064 -3.57039 -1.23821 0
M  V30 2858 H 275.377 -7.48233 -1.93306 0
M  V30 2859 H 273.722 -6.72732 -1.74518 0
M  V30 2860 H 276.913 -4.44948 -1.45391 0
M  V30 2861 H 277.086 -6.2333 -1.77098 0
M  V30 2862 N 270.492 0.636531 -1.44174 0
M  V30 2863 C 271.439 1.74875 -1.50624 0
M  V30 2864 C 272.409 1.62275 -0.35442 0
M  V30 2865 O 273.594 1.82276 -0.563908 0
M  V30 2866 C 270.734 3.13102 -1.45125 0
M  V30 2867 C 269.847 3.36717 -2.7064 0
M  V30 2868 C 268.982 4.64885 -2.57013 0
M  V30 2869 C 268.021 4.8166 -3.77717 0
M  V30 2870 N 267.158 6.01101 -3.62798 0
M  V30 2871 H 271.998 1.68697 -2.45653 0
M  V30 2872 H 269.535 0.823004 -1.21922 0
M  V30 2873 H 271.493 3.93034 -1.39929 0
M  V30 2874 H 270.123 3.18308 -0.536671 0
M  V30 2875 H 269.175 2.50763 -2.86046 0
M  V30 2876 H 270.487 3.44993 -3.60252 0
M  V30 2877 H 269.641 5.52969 -2.49619 0
M  V30 2878 H 268.38 4.58957 -1.64953 0
M  V30 2879 H 267.385 3.92007 -3.85501 0
M  V30 2880 H 268.61 4.89406 -4.70807 0
M  V30 2881 H 266.556 5.96273 -2.73486 0
M  V30 2882 H 266.473 6.10409 -4.46023 0
M  V30 2883 H 267.741 6.91761 -3.59286 0
M  V30 2884 N 271.97 1.30982 0.876444 0
M  V30 2885 C 272.9 1.20668 1.99903 0
M  V30 2886 C 273.881 0.095354 1.69833 0
M  V30 2887 O 275.066 0.27885 1.92188 0
M  V30 2888 C 272.196 0.90655 3.3526 0
M  V30 2889 C 271.15 1.97675 3.79617 0
M  V30 2890 C 270.476 1.52943 5.1236 0
M  V30 2891 C 271.776 3.389 3.97422 0
M  V30 2892 H 273.47 2.14586 2.0879 0
M  V30 2893 H 271.016 1.03308 1.00317 0
M  V30 2894 H 272.969 0.821025 4.13324 0
M  V30 2895 H 271.693 -0.0682969 3.26529 0
M  V30 2896 H 270.352 2.05205 3.03787 0
M  V30 2897 H 270 0.54262 5.00065 0
M  V30 2898 H 269.7 2.24532 5.43009 0
M  V30 2899 H 271.224 1.45786 5.92941 0
M  V30 2900 H 272.638 3.34081 4.659 0
M  V30 2901 H 271.035 4.0865 4.3946 0
M  V30 2902 H 272.105 3.80163 3.01006 0
M  V30 2903 N 273.449 -1.08991 1.13837 0
M  V30 2904 C 274.412 -2.13925 0.822715 0
M  V30 2905 C 275.412 -1.599 -0.1699 0
M  V30 2906 O 276.602 -1.74104 0.0577251 0
M  V30 2907 C 273.734 -3.40155 0.225318 0
M  V30 2908 H 274.927 -2.43358 1.75262 0
M  V30 2909 H 272.48 -1.24603 0.943594 0
M  V30 2910 H 273.215 -3.16352 -0.713594 0
M  V30 2911 H 273 -3.80661 0.940193 0
M  V30 2912 H 274.49 -4.17594 0.0214784 0
M  V30 2913 N 274.927 -0.932562 -1.27047 0
M  V30 2914 C 276.204 -0.49377 -1.89265 0
M  V30 2915 C 276.584 1.02833 -1.8436 0
M  V30 2916 O 275.932 1.88461 -1.29209 0
M  V30 2917 C 276.142 -1.04536 -3.32976 0
M  V30 2918 C 277.49 -1.10879 -4.09867 0
M  V30 2919 O 278.514 -0.995327 -3.42011 0
M  V30 2920 O 277.373 -1.28417 -5.31198 0
M  V30 2921 H 274.467 -0.159596 -0.811454 0
M  V30 2922 H 277.013 -1.02457 -1.3528 0
M  V30 2923 H 275.785 -2.08913 -3.30864 0
M  V30 2924 H 275.408 -0.496494 -3.94488 0
M  V30 2925 N 276.405 1.4127 -0.698611 0
M  V30 2926 C 277.821 1.55241 -0.370462 0
M  V30 2927 C 278.021 1.67351 1.12231 0
M  V30 2928 O 277.077 1.65363 1.90818 0
M  V30 2929 C 278.39 2.78997 -1.12165 0
M  V30 2930 C 279.938 2.92797 -1.1063 0
M  V30 2931 C 280.413 4.19445 -1.8393 0
M  V30 2932 N 281.904 4.26409 -1.80914 0
M  V30 2933 C 282.639 5.23271 -2.34467 0
M  V30 2934 N 282.135 6.26145 -2.96504 0
M  V30 2935 N 283.928 5.15232 -2.24706 0
M  V30 2936 H 276.079 1.31654 -1.66676 0
M  V30 2937 H 278.342 0.635393 -0.703548 0
M  V30 2938 H 278.048 2.76268 -2.17644 0
M  V30 2939 H 277.922 3.70606 -0.702209 0
M  V30 2940 H 280.309 2.95039 -0.0597713 0
M  V30 2941 H 280.39 2.02353 -1.56483 0
M  V30 2942 H 280.034 4.17964 -2.88563 0
M  V30 2943 H 279.964 5.08866 -1.35509 0
M  V30 2944 H 282.455 3.527 -1.35687 0
M  V30 2945 H 282.768 6.96451 -3.34927 0
M  V30 2946 H 281.113 6.26638 -3.00583 0
M  V30 2947 H 284.304 4.33789 -1.7591 0
M  V30 2948 H 284.477 5.90552 -2.66745 0
M  V30 2949 N 277.883 0.443576 1.51229 0
M  V30 2950 C 278.813 -0.355142 2.30783 0
M  V30 2951 C 279.794 -1.0154 1.36468 0
M  V30 2952 O 280.979 -1.01785 1.65389 0
M  V30 2953 C 278.109 -1.45312 3.15439 0
M  V30 2954 C 277.063 -0.916002 4.18083 0
M  V30 2955 C 276.389 -2.1102 4.91299 0
M  V30 2956 C 277.689 0.0538602 5.22272 0
M  V30 2957 H 279.383 0.308767 2.97804 0
M  V30 2958 H 276.929 0.149937 1.43217 0
M  V30 2959 H 278.882 -2.01914 3.69876 0
M  V30 2960 H 277.606 -2.14541 2.46252 0
M  V30 2961 H 276.265 -0.372145 3.64706 0
M  V30 2962 H 275.913 -2.78882 4.18609 0
M  V30 2963 H 275.613 -1.75717 5.60712 0
M  V30 2964 H 277.137 -2.68164 5.48562 0
M  V30 2965 H 278.551 -0.422069 5.71744 0
M  V30 2966 H 276.948 0.319776 5.99247 0
M  V30 2967 H 278.018 0.98858 4.74716 0
M  V30 2968 N 279.361 -1.56624 0.175154 0
M  V30 2969 C 280.308 -2.18149 -0.753634 0
M  V30 2970 C 281.278 -1.12265 -1.22417 0
M  V30 2971 O 282.463 -1.40432 -1.29165 0
M  V30 2972 C 279.603 -2.82933 -1.97592 0
M  V30 2973 C 278.716 -4.03289 -1.5486 0
M  V30 2974 C 277.851 -4.55988 -2.72485 0
M  V30 2975 C 276.89 -5.68746 -2.26262 0
M  V30 2976 N 276.027 -6.15938 -3.36994 0
M  V30 2977 H 280.867 -2.9717 -0.222195 0
M  V30 2978 H 278.404 -1.46774 -0.0979422 0
M  V30 2979 H 280.362 -3.18653 -2.69288 0
M  V30 2980 H 278.992 -2.06509 -2.481 0
M  V30 2981 H 278.044 -3.73364 -0.728246 0
M  V30 2982 H 279.356 -4.849 -1.16933 0
M  V30 2983 H 278.51 -4.9391 -3.52332 0
M  V30 2984 H 277.249 -3.73443 -3.13674 0
M  V30 2985 H 276.254 -5.30372 -1.44863 0
M  V30 2986 H 277.479 -6.53095 -1.86127 0
M  V30 2987 H 275.425 -5.36321 -3.77751 0
M  V30 2988 H 275.342 -6.92548 -3.03172 0
M  V30 2989 H 276.61 -6.58511 -4.17114 0
M  V30 2990 N 280.839 0.0985539 -1.57292 0
M  V30 2991 C 281.802 1.10402 -2.00858 0
M  V30 2992 C 282.802 1.33146 -0.901593 0
M  V30 2993 O 283.992 1.29318 -1.16716 0
M  V30 2994 C 281.124 2.45394 -2.36632 0
M  V30 2995 H 282.317 0.729099 -2.90902 0
M  V30 2996 H 279.87 0.343495 -1.52479 0
M  V30 2997 H 280.605 2.87769 -1.49531 0
M  V30 2998 H 280.39 2.30235 -3.17387 0
M  V30 2999 H 281.88 3.17718 -2.71007 0
M  V30 3000 N 282.317 1.53212 0.369288 0
M  V30 3001 C 283.728 1.60943 0.946276 0
M  V30 3002 C 284.079 0.47452 1.90375 0
M  V30 3003 O 283.204 -0.399597 2.12679 0
M  V30 3004 C 283.799 2.91715 1.72302 0
M  V30 3005 C 282.358 3.01792 2.24941 0
M  V30 3006 C 281.505 2.56211 1.06072 0
M  V30 3007 H 284.456 1.58007 0.148198 0
M  V30 3008 H 284.477 2.79309 2.58393 0
M  V30 3009 H 283.989 3.74295 1.0259 0
M  V30 3010 H 282.09 2.23791 2.97906 0
M  V30 3011 H 282.203 4.06803 2.53077 0
M  V30 3012 H 280.567 2.10998 1.4266 0
M  V30 3013 H 281.35 3.41206 0.378639 0
M  V30 3014 N 283.795 -0.628877 1.44509 0
M  V30 3015 C 285.044 -1.38437 1.4669 0
M  V30 3016 C 285.357 -1.95322 0.104272 0
M  V30 3017 O 286.563 -2.715 0.00362163 0
M  V30 3018 C 285.019 -2.50659 2.5826 0
M  V30 3019 C 284.627 -2.00277 4.0074 0
M  V30 3020 C 286.371 -3.27844 2.69664 0
M  V30 3021 C 284.278 -3.09854 5.0373 0
M  V30 3022 H 283.208 -0.520245 0.545766 0
M  V30 3023 H 285.859 -0.676313 1.70582 0
M  V30 3024 H 284.241 -3.2405 2.27612 0
M  V30 3025 H 285.415 -1.33736 4.40966 0
M  V30 3026 H 283.73 -1.35901 3.93599 0
M  V30 3027 H 286.327 -4.09534 3.43781 0
M  V30 3028 H 286.67 -3.77471 1.75559 0
M  V30 3029 H 287.203 -2.61543 2.99733 0
M  V30 3030 H 283.942 -2.65168 5.99472 0
M  V30 3031 H 283.462 -3.7503 4.68095 0
M  V30 3032 H 285.141 -3.74592 5.27532 0
M  V30 3033 N 285.273 -1.31445 -0.869486 0
M  V30 3034 C 286.236 -1.19094 -1.9583 0
M  V30 3035 C 287.236 -0.117906 -1.60367 0
M  V30 3036 O 288.426 -0.367208 -1.70286 0
M  V30 3037 C 285.558 -0.828165 -3.30688 0
M  V30 3038 H 286.751 -2.15842 -2.08212 0
M  V30 3039 H 284.304 -1.15063 -1.05784 0
M  V30 3040 H 285.039 0.138142 -3.24006 0
M  V30 3041 H 284.824 -1.6038 -3.578 0
M  V30 3042 H 286.314 -0.765658 -4.10521 0
M  V30 3043 N 286.751 1.08385 -1.14413 0
M  V30 3044 C 288 1.80153 -0.907076 0
M  V30 3045 C 288.313 1.87176 0.567851 0
M  V30 3046 O 289.519 2.55359 0.922172 0
M  V30 3047 C 287.975 3.23687 -1.57336 0
M  V30 3048 C 287.583 3.24897 -3.08457 0
M  V30 3049 C 289.327 4.00136 -1.41744 0
M  V30 3050 C 287.234 4.6302 -3.67921 0
M  V30 3051 H 286.164 0.675139 -0.335714 0
M  V30 3052 H 288.815 1.21733 -1.37307 0
M  V30 3053 H 287.197 3.82234 -1.03505 0
M  V30 3054 H 288.371 2.76055 -3.68958 0
M  V30 3055 H 286.686 2.61943 -3.2369 0
M  V30 3056 H 289.283 5.02201 -1.83572 0
M  V30 3057 H 289.626 4.14709 -0.363576 0
M  V30 3058 H 290.159 3.48058 -1.92614 0
M  V30 3059 H 286.898 4.5365 -4.73161 0
M  V30 3060 H 286.418 5.12143 -3.12201 0
M  V30 3061 H 288.097 5.31994 -3.68227 0
M  V30 3062 N 288.23 0.939286 1.26551 0
M  V30 3063 C 289.479 0.581601 1.93133 0
M  V30 3064 C 289.792 -0.883224 1.74524 0
M  V30 3065 O 290.998 -1.3502 2.35546 0
M  V30 3066 C 289.454 0.989425 3.46032 0
M  V30 3067 C 289.062 2.47573 3.73379 0
M  V30 3068 C 290.806 0.703544 4.18629 0
M  V30 3069 C 288.713 2.82235 5.19709 0
M  V30 3070 H 287.643 0.213803 0.723052 0
M  V30 3071 H 290.294 1.14167 1.4366 0
M  V30 3072 H 288.676 0.357902 3.94379 0
M  V30 3073 H 289.85 3.15614 3.35744 0
M  V30 3074 H 288.165 2.73471 3.1401 0
M  V30 3075 H 290.762 0.938869 5.26393 0
M  V30 3076 H 291.105 -0.359639 4.14744 0
M  V30 3077 H 291.638 1.2947 3.76141 0
M  V30 3078 H 288.377 3.87509 5.28694 0
M  V30 3079 H 287.897 2.18854 5.58447 0
M  V30 3080 H 289.576 2.70599 5.87695 0
M  V30 3081 N 289.708 -1.40897 0.706093 0
M  V30 3082 C 290.985 -1.94868 0.169099 0
M  V30 3083 C 291.365 -1.64485 -1.32318 0
M  V30 3084 O 290.713 -0.95744 -2.07474 0
M  V30 3085 C 290.923 -3.45798 0.471654 0
M  V30 3086 C 292.271 -4.22663 0.405127 0
M  V30 3087 O 293.295 -3.53865 0.407168 0
M  V30 3088 O 292.154 -5.45216 0.374383 0
M  V30 3089 H 289.248 -0.82673 0.0211352 0
M  V30 3090 H 291.794 -1.50558 0.782976 0
M  V30 3091 H 290.566 -3.61235 1.50416 0
M  V30 3092 H 290.189 -3.97225 -0.172666 0
M  V30 3093 N 291.186 -0.45159 -1.50991 0
M  V30 3094 C 292.133 0.352625 -2.2809 0
M  V30 3095 C 293.103 1.0044 -1.32291 0
M  V30 3096 O 294.288 1.02058 -1.6121 0
M  V30 3097 C 291.428 1.43983 -3.13629 0
M  V30 3098 C 290.541 0.804772 -4.24438 0
M  V30 3099 C 289.676 1.86822 -4.97263 0
M  V30 3100 C 288.715 1.21236 -5.99973 0
M  V30 3101 N 287.852 2.2178 -6.66152 0
M  V30 3102 H 292.692 -0.311186 -2.96371 0
M  V30 3103 H 290.229 -0.165308 -1.46168 0
M  V30 3104 H 292.187 2.08161 -3.61559 0
M  V30 3105 H 290.817 2.07307 -2.47434 0
M  V30 3106 H 289.869 0.0509129 -3.80366 0
M  V30 3107 H 291.181 0.286076 -4.97979 0
M  V30 3108 H 290.335 2.58628 -5.48813 0
M  V30 3109 H 289.074 2.42068 -4.23385 0
M  V30 3110 H 288.079 0.479828 -5.47702 0
M  V30 3111 H 289.304 0.667051 -6.75816 0
M  V30 3112 H 287.25 2.76079 -5.95077 0
M  V30 3113 H 287.167 1.74841 -7.35504 0
M  V30 3114 H 288.435 2.93026 -7.22327 0
M  V30 3115 N 292.664 1.56529 -0.183458 0
M  V30 3116 C 294.08 1.58664 0.172554 0
M  V30 3117 C 294.28 1.19925 1.61926 0
M  V30 3118 O 293.336 0.916534 2.35278 0
M  V30 3119 C 294.649 3.00463 -0.119262 0
M  V30 3120 C 296.197 3.12945 -0.0584396 0
M  V30 3121 C 296.672 4.56857 -0.323408 0
M  V30 3122 N 298.163 4.62403 -0.271612 0
M  V30 3123 C 298.898 5.71626 -0.450639 0
M  V30 3124 N 298.394 6.89362 -0.689384 0
M  V30 3125 N 300.187 5.60775 -0.385701 0
M  V30 3126 H 292.338 1.79994 -1.12765 0
M  V30 3127 H 294.601 0.834808 -0.449222 0
M  V30 3128 H 294.307 3.33326 -1.12192 0
M  V30 3129 H 294.181 3.72659 0.583544 0
M  V30 3130 H 296.568 2.79902 0.934805 0
M  V30 3131 H 296.649 2.4316 -0.794144 0
M  V30 3132 H 296.293 4.9061 -1.31392 0
M  V30 3133 H 296.223 5.24816 0.43305 0
M  V30 3134 H 298.714 3.77785 -0.0932256 0
M  V30 3135 H 299.027 7.68489 -0.815113 0
M  V30 3136 H 297.372 6.91196 -0.726142 0
M  V30 3137 H 300.563 4.67674 -0.199687 0
M  V30 3138 H 300.736 6.4584 -0.528646 0
M  V30 3139 N 294.142 -0.090211 1.57342 0
M  V30 3140 C 295.558 -0.444547 1.53284 0
M  V30 3141 C 295.758 -1.80238 0.900914 0
M  V30 3142 O 294.814 -2.4759 0.495513 0
M  V30 3143 C 296.127 -0.402543 2.97993 0
M  V30 3144 C 297.675 -0.48405 3.09234 0
M  V30 3145 C 298.15 -0.472144 4.5556 0
M  V30 3146 N 299.641 -0.532757 4.60126 0
M  V30 3147 C 300.376 -0.545462 5.708 0
M  V30 3148 N 299.872 -0.514082 6.9089 0
M  V30 3149 N 301.665 -0.59064 5.58988 0
M  V30 3150 H 293.816 0.799121 1.96794 0
M  V30 3151 H 296.079 0.297965 0.899956 0
M  V30 3152 H 295.785 0.528106 3.47712 0
M  V30 3153 H 295.659 -1.21969 3.56936 0
M  V30 3154 H 298.046 -1.40512 2.595 0
M  V30 3155 H 298.127 0.361328 2.53235 0
M  V30 3156 H 297.771 0.445 5.05947 0
M  V30 3157 H 297.701 -1.3348 5.09402 0
M  V30 3158 H 300.192 -0.562006 3.73698 0
M  V30 3159 H 300.505 -0.527195 7.71 0
M  V30 3160 H 298.85 -0.481054 6.93333 0
M  V30 3161 H 302.041 -0.61272 4.64073 0
M  V30 3162 H 302.214 -0.597073 6.45243 0
M  V30 3163 N 295.62 -1.53406 -0.361157 0
M  V30 3164 C 297.031 -1.61442 -0.937728 0
M  V30 3165 C 297.382 -0.48461 -1.90121 0
M  V30 3166 O 296.507 0.388312 -2.12888 0
M  V30 3167 C 297.102 -2.92624 -1.70753 0
M  V30 3168 C 295.661 -3.02981 -2.23337 0
M  V30 3169 C 294.808 -2.5677 -1.04712 0
M  V30 3170 H 297.759 -1.58083 -0.139816 0
M  V30 3171 H 297.78 -2.80675 -2.56908 0
M  V30 3172 H 297.292 -3.74834 -1.00604 0
M  V30 3173 H 295.393 -2.25368 -2.96715 0
M  V30 3174 H 295.506 -4.0814 -2.50916 0
M  V30 3175 H 293.87 -2.11752 -1.41539 0
M  V30 3176 H 294.653 -3.41402 -0.360539 0
M  V30 3177 N 297.098 0.621204 -1.44841 0
M  V30 3178 C 298.514 0.94048 -1.28946 0
M  V30 3179 C 298.714 2.00154 -0.23249 0
M  V30 3180 O 297.77 2.49651 0.378237 0
M  V30 3181 C 299.083 1.39433 -2.66419 0
M  V30 3182 C 300.631 1.50927 -2.74208 0
M  V30 3183 C 301.106 1.99692 -4.12174 0
M  V30 3184 N 302.597 2.06947 -4.144 0
M  V30 3185 C 303.332 2.45871 -5.1801 0
M  V30 3186 N 302.828 2.83862 -6.31977 0
M  V30 3187 N 304.621 2.46092 -5.05366 0
M  V30 3188 H 296.772 -0.0803548 -2.12248 0
M  V30 3189 H 299.035 0.0266913 -0.947624 0
M  V30 3190 H 298.741 0.688925 -3.44887 0
M  V30 3191 H 298.615 2.36347 -2.93973 0
M  V30 3192 H 301.002 2.20561 -1.96053 0
M  V30 3193 H 301.083 0.523627 -2.50383 0
M  V30 3194 H 300.727 1.30649 -4.90809 0
M  V30 3195 H 300.657 2.99146 -4.33381 0
M  V30 3196 H 303.148 1.80232 -3.32152 0
M  V30 3197 H 303.461 3.12405 -7.0684 0
M  V30 3198 H 301.806 2.8159 -6.35399 0
M  V30 3199 H 304.997 2.1581 -4.15384 0
M  V30 3200 H 305.17 2.76102 -5.86235 0
M  V30 3201 N 298.576 1.31904 0.862503 0
M  V30 3202 C 299.987 1.19803 1.43193 0
M  V30 3203 C 300.338 -0.192567 1.95253 0
M  V30 3204 O 299.463 -1.09081 1.86896 0
M  V30 3205 C 300.058 2.16883 2.60283 0
M  V30 3206 C 298.617 2.08692 3.13248 0
M  V30 3207 C 297.764 2.05691 1.85975 0
M  V30 3208 H 300.715 1.43846 0.670365 0
M  V30 3209 H 300.736 1.76278 3.37204 0
M  V30 3210 H 300.248 3.18083 2.22363 0
M  V30 3211 H 298.349 1.10713 3.55771 0
M  V30 3212 H 298.462 2.9815 3.75025 0
M  V30 3213 H 296.826 1.50814 2.05249 0
M  V30 3214 H 297.609 3.08659 1.50282 0
M  V30 3215 N 300.054 -1.07777 1.14986 0
M  V30 3216 C 301.002 -2.16964 0.838406 0
M  V30 3217 C 301.996 -1.68372 -0.186386 0
M  V30 3218 O 303.202 -1.79951 -0.0418465 0
M  V30 3219 H 299.577 -0.708006 0.253439 0
M  V30 3220 H 301.548 -2.40454 1.76704 0
M  V30 3221 C 300.297 -3.4604 0.339335 0
M  V30 3222 H 299.62 -3.83813 1.11927 0
M  V30 3223 H 301.06 -4.23698 0.160021 0
M  V30 3224 C 299.519 -3.23569 -0.938325 0
M  V30 3225 O 300.049 -3.47752 -2.01077 0
M  V30 3226 N 298.255 -2.77079 -0.876117 0
M  V30 3227 H 297.802 -2.576 -0.00322037 0
M  V30 3228 H 297.76 -2.62422 -1.73153 0
M  V30 3229 N 301.532 -0.945985 -1.26051 0
M  V30 3230 C 302.778 -0.597002 -1.93814 0
M  V30 3231 C 303.111 0.862484 -1.73997 0
M  V30 3232 O 302.386 1.61769 -1.07986 0
M  V30 3233 C 302.669 -0.945937 -3.47454 0
M  V30 3234 C 302.522 -2.46052 -3.76535 0
M  V30 3235 C 303.841 -0.464785 -4.37639 0
M  V30 3236 H 300.96 -0.218366 -0.703907 0
M  V30 3237 H 303.602 -1.18107 -1.48831 0
M  V30 3238 H 301.752 -0.448902 -3.85898 0
M  V30 3239 H 303.424 -3.03065 -3.47778 0
M  V30 3240 H 301.667 -2.90194 -3.22444 0
M  V30 3241 H 302.338 -2.65517 -4.83947 0
M  V30 3242 H 304.814 -0.891016 -4.06448 0
M  V30 3243 H 303.69 -0.737712 -5.4392 0
M  V30 3244 H 303.951 0.635274 -4.37512 0
M  V30 3245 N 303.011 1.40521 -0.713556 0
M  V30 3246 C 303.974 2.29098 -0.0684347 0
M  V30 3247 C 304.974 1.45268 0.689472 0
M  V30 3248 O 306.164 1.66205 0.521677 0
M  V30 3249 C 303.296 3.28446 0.913024 0
M  V30 3250 H 304.489 2.87645 -0.84855 0
M  V30 3251 H 302.042 1.48809 -0.47809 0
M  V30 3252 H 302.777 2.74913 1.72027 0
M  V30 3253 H 302.562 3.90327 0.372472 0
M  V30 3254 H 304.052 3.94777 1.36165 0
M  V30 3255 N 304.489 0.459591 1.5075 0
M  V30 3256 C 305.399 -0.34613 2.32033 0
M  V30 3257 C 306.415 -1.00686 1.41909 0
M  V30 3258 O 307.591 -0.997361 1.7497 0
M  V30 3259 C 304.656 -1.42029 3.16273 0
M  V30 3260 C 303.717 -0.777362 4.22203 0
M  V30 3261 C 302.95 -1.80034 5.02418 0
M  V30 3262 O 303.173 -3.02544 4.83553 0
M  V30 3263 O 302.107 -1.37853 5.85901 0
M  V30 3264 H 305.933 0.318054 3.0203 0
M  V30 3265 H 303.518 0.221663 1.47746 0
M  V30 3266 H 305.4 -2.04275 3.68578 0
M  V30 3267 H 304.075 -2.06815 2.49016 0
M  V30 3268 H 302.982 -0.116256 3.73919 0
M  V30 3269 H 304.315 -0.172634 4.91897 0
M  V30 3270 N 305.967 -1.56429 0.191757 0
M  V30 3271 C 307.213 -1.97777 -0.448554 0
M  V30 3272 C 307.546 -1.07847 -1.61501 0
M  V30 3273 O 306.821 -0.129774 -1.94067 0
M  V30 3274 C 307.104 -3.48362 -0.911906 0
M  V30 3275 C 306.957 -4.4907 0.256136 0
M  V30 3276 C 308.276 -4.02561 -1.77857 0
M  V30 3277 H 305.395 -0.719071 -0.161572 0
M  V30 3278 H 308.037 -1.87896 0.282007 0
M  V30 3279 H 306.187 -3.56914 -1.53442 0
M  V30 3280 H 307.859 -4.5256 0.893733 0
M  V30 3281 H 306.102 -4.24181 0.908436 0
M  V30 3282 H 306.773 -5.51889 -0.11053 0
M  V30 3283 H 309.249 -3.96767 -1.25359 0
M  V30 3284 H 308.125 -5.08301 -2.07174 0
M  V30 3285 H 308.386 -3.47616 -2.73158 0
M  V30 3286 N 307.445 0.0818655 -1.57387 0
M  V30 3287 C 308.378 1.12986 -1.98266 0
M  V30 3288 C 309.356 1.38123 -0.857954 0
M  V30 3289 O 310.54 1.51663 -1.1194 0
M  V30 3290 C 307.667 2.47632 -2.31076 0
M  V30 3291 C 306.713 2.38693 -3.53452 0
M  V30 3292 S 307.546 1.79071 -5.04672 0
M  V30 3293 C 308.702 3.15316 -5.40673 0
M  V30 3294 H 308.935 0.781435 -2.86846 0
M  V30 3295 H 306.468 0.290034 -1.51651 0
M  V30 3296 H 308.426 3.25089 -2.50654 0
M  V30 3297 H 307.087 2.79638 -1.43043 0
M  V30 3298 H 306.28 3.37964 -3.73893 0
M  V30 3299 H 305.882 1.69369 -3.33452 0
M  V30 3300 H 308.174 4.11613 -5.38127 0
M  V30 3301 H 309.117 2.99664 -6.41566 0
M  V30 3302 H 309.525 3.15457 -4.68132 0
M  V30 3303 N 308.923 1.53595 0.353017 0
M  V30 3304 C 309.871 1.81605 1.45335 0
M  V30 3305 C 310.865 0.685923 1.54892 0
M  V30 3306 O 312.071 0.869095 1.57628 0
M  V30 3307 H 308.446 0.575204 0.484401 0
M  V30 3308 H 310.417 2.73679 1.18921 0
M  V30 3309 C 309.166 2.03406 2.81995 0
M  V30 3310 H 308.489 2.89814 2.75405 0
M  V30 3311 H 309.929 2.26975 3.58132 0
M  V30 3312 C 308.388 0.816794 3.26849 0
M  V30 3313 O 308.918 0.0115856 4.01698 0
M  V30 3314 N 307.124 0.636682 2.8354 0
M  V30 3315 H 306.671 1.2931 2.22793 0
M  V30 3316 H 306.629 -0.176336 3.13905 0
M  V30 3317 N 310.401 -0.613514 1.45168 0
M  V30 3318 C 311.65 -1.36874 1.4815 0
M  V30 3319 C 311.963 -1.952 0.124982 0
M  V30 3320 O 313.169 -2.71481 0.0324176 0
M  V30 3321 C 311.625 -2.47905 2.60904 0
M  V30 3322 C 311.233 -1.96016 4.02842 0
M  V30 3323 C 312.977 -3.24965 2.73126 0
M  V30 3324 C 310.884 -3.04494 5.06988 0
M  V30 3325 H 309.814 -0.514428 0.551253 0
M  V30 3326 H 312.465 -0.658182 1.7129 0
M  V30 3327 H 310.847 -3.21618 2.31037 0
M  V30 3328 H 312.021 -1.29051 4.4236 0
M  V30 3329 H 310.336 -1.31719 3.95018 0
M  V30 3330 H 312.933 -4.05865 3.48106 0
M  V30 3331 H 313.276 -3.75588 1.79553 0
M  V30 3332 H 313.809 -2.5835 3.0249 0
M  V30 3333 H 310.548 -2.58795 6.0225 0
M  V30 3334 H 310.068 -3.70044 4.72046 0
M  V30 3335 H 311.747 -3.68976 5.31475 0
M  V30 3336 N 311.879 -1.3236 -0.855495 0
M  V30 3337 C 313.125 -1.23054 -1.612 0
M  V30 3338 C 313.458 0.207404 -1.93089 0
M  V30 3339 O 312.733 1.14432 -1.57275 0
M  V30 3340 C 313.016 -2.08937 -2.93287 0
M  V30 3341 C 312.869 -3.61105 -2.68185 0
M  V30 3342 C 314.188 -1.94986 -3.94549 0
M  V30 3343 H 311.307 -0.448364 -0.584926 0
M  V30 3344 H 313.949 -1.62297 -0.987917 0
M  V30 3345 H 312.099 -1.75599 -3.46551 0
M  V30 3346 H 313.771 -4.04652 -2.21483 0
M  V30 3347 H 312.014 -3.83813 -2.02164 0
M  V30 3348 H 312.685 -4.16522 -3.62234 0
M  V30 3349 H 315.161 -2.24189 -3.5054 0
M  V30 3350 H 314.037 -2.57356 -4.84829 0
M  V30 3351 H 314.298 -0.917263 -4.3248 0
M  V30 3352 N 313.357 1.07166 -1.15556 0
M  V30 3353 C 314.605 1.79443 -0.929764 0
M  V30 3354 C 314.926 1.87246 0.544414 0
M  V30 3355 O 314.196 1.37473 1.39564 0
M  V30 3356 H 312.776 0.664625 -0.341003 0
M  V30 3357 H 315.438 1.29499 -1.45657 0
M  V30 3358 H 314.534 2.81832 -1.34079 0
M  V30 3359 N 314.835 0.952656 1.25548 0
M  V30 3360 C 315.783 0.462354 2.27958 0
M  V30 3361 C 316.777 -0.46634 1.62855 0
M  V30 3362 O 317.983 -0.343287 1.76696 0
M  V30 3363 H 314.358 0.13101 0.7405 0
M  V30 3364 H 316.329 1.33839 2.66702 0
M  V30 3365 C 315.078 -0.24628 3.46827 0
M  V30 3366 H 314.401 0.459192 3.97154 0
M  V30 3367 H 315.841 -0.553393 4.20373 0
M  V30 3368 C 314.3 -1.4681 3.0323 0
M  V30 3369 O 314.83 -2.56591 3.09069 0
M  V30 3370 N 313.036 -1.32874 2.58443 0
M  V30 3371 H 312.583 -0.435536 2.53891 0
M  V30 3372 H 312.541 -2.14742 2.29637 0
M  V30 3373 N 316.313 -1.40141 0.720998 0
M  V30 3374 C 317.562 -2.0002 0.259804 0
M  V30 3375 C 317.875 -1.57839 -1.15526 0
M  V30 3376 O 319.081 -2.10455 -1.71525 0
M  V30 3377 C 317.537 -3.57516 0.413566 0
M  V30 3378 C 317.145 -4.08667 1.83562 0
M  V30 3379 C 318.889 -4.24498 0.0134387 0
M  V30 3380 C 316.796 -5.58686 1.93968 0
M  V30 3381 H 315.726 -0.748195 0.0933806 0
M  V30 3382 H 318.377 -1.60313 0.892866 0
M  V30 3383 H 316.759 -3.9495 -0.288169 0
M  V30 3384 H 317.933 -3.82598 2.56817 0
M  V30 3385 H 316.248 -3.543 2.1877 0
M  V30 3386 H 318.845 -5.34654 0.0703954 0
M  V30 3387 H 319.188 -4.03375 -1.02927 0
M  V30 3388 H 319.721 -3.92188 0.665815 0
M  V30 3389 H 316.46 -5.8467 2.96379 0
M  V30 3390 H 315.98 -5.86602 1.25131 0
M  V30 3391 H 317.659 -6.23875 1.71431 0
M  V30 3392 N 317.792 -0.46758 -1.50504 0
M  V30 3393 C 318.702 0.33382 -2.32213 0
M  V30 3394 C 319.718 0.999323 -1.42441 0
M  V30 3395 O 320.894 0.988068 -1.75497 0
M  V30 3396 C 317.959 1.4035 -3.17022 0
M  V30 3397 C 317.02 0.754961 -4.2261 0
M  V30 3398 C 316.253 1.77367 -5.03365 0
M  V30 3399 O 316.476 2.99976 -4.8515 0
M  V30 3400 O 315.41 1.34744 -5.86624 0
M  V30 3401 H 319.236 -0.334067 -3.01857 0
M  V30 3402 H 316.821 -0.229496 -1.47627 0
M  V30 3403 H 318.703 2.02318 -3.69656 0
M  V30 3404 H 317.378 2.05492 -2.5011 0
M  V30 3405 H 316.285 0.0964244 -3.73976 0
M  V30 3406 H 317.618 0.146545 -4.91982 0
M  V30 3407 N 319.27 1.56325 -0.20005 0
M  V30 3408 C 320.518 1.97329 0.436547 0
M  V30 3409 C 320.839 1.08826 1.61808 0
M  V30 3410 O 320.109 0.160604 1.95241 0
M  V30 3411 H 318.689 0.728714 0.164272 0
M  V30 3412 H 321.351 1.92761 -0.287937 0
M  V30 3413 H 320.447 3.02264 0.777353 0
M  V30 3414 N 320.748 -0.0735177 1.57428 0
M  V30 3415 C 321.695 -1.08756 2.0357 0
M  V30 3416 C 322.665 -1.38559 0.916 0
M  V30 3417 O 323.85 -1.49656 1.18354 0
M  V30 3418 C 320.99 -2.39657 2.48311 0
M  V30 3419 C 320.103 -2.16399 3.73892 0
M  V30 3420 C 319.238 -3.40852 4.07423 0
M  V30 3421 C 318.277 -3.1295 5.2605 0
M  V30 3422 N 317.414 -4.29729 5.55228 0
M  V30 3423 H 322.254 -0.687104 2.8997 0
M  V30 3424 H 319.791 -0.327709 1.43403 0
M  V30 3425 H 321.749 -3.16081 2.72303 0
M  V30 3426 H 320.379 -2.77508 1.64891 0
M  V30 3427 H 319.431 -1.30676 3.57251 0
M  V30 3428 H 320.743 -1.91788 4.60455 0
M  V30 3429 H 319.897 -4.25671 4.32306 0
M  V30 3430 H 318.636 -3.68537 3.19425 0
M  V30 3431 H 317.641 -2.26526 5.00965 0
M  V30 3432 H 318.866 -2.86589 6.15665 0
M  V30 3433 H 316.812 -4.57448 4.70188 0
M  V30 3434 H 316.729 -4.08385 6.36206 0
M  V30 3435 H 317.997 -5.1555 5.84661 0
M  V30 3436 N 322.226 -1.5378 -0.344866 0
M  V30 3437 C 323.454 -1.74899 -1.10534 0
M  V30 3438 C 323.869 -0.487534 -1.82397 0
M  V30 3439 O 323.226 0.540741 -1.74305 0
M  V30 3440 C 323.277 -2.92822 -2.11984 0
M  V30 3441 O 322.998 -4.14089 -1.43044 0
M  V30 3442 C 324.499 -3.25982 -3.00417 0
M  V30 3443 H 321.719 -0.584426 -0.329678 0
M  V30 3444 H 324.263 -2.006 -0.397474 0
M  V30 3445 H 322.418 -2.69457 -2.78338 0
M  V30 3446 H 322.832 -4.80272 -2.10805 0
M  V30 3447 H 324.306 -4.11848 -3.67539 0
M  V30 3448 H 324.783 -2.42228 -3.66363 0
M  V30 3449 H 325.389 -3.51349 -2.39654 0
M  V30 3450 N 323.704 0.605807 -1.45491 0
M  V30 3451 C 324.667 1.69836 -1.5391 0
M  V30 3452 C 325.667 1.55261 -0.418424 0
M  V30 3453 O 326.857 1.60296 -0.681965 0
M  V30 3454 C 323.989 3.09117 -1.43734 0
M  V30 3455 H 325.182 1.63738 -2.51257 0
M  V30 3456 H 322.735 0.821689 -1.32959 0
M  V30 3457 H 323.47 3.20791 -0.475788 0
M  V30 3458 H 323.255 3.21104 -2.25021 0
M  V30 3459 H 324.745 3.88696 -1.52661 0
M  V30 3460 N 325.182 1.32811 0.848464 0
M  V30 3461 C 326.431 1.23075 1.59798 0
M  V30 3462 C 326.744 -0.204419 1.94529 0
M  V30 3463 O 327.95 -0.423701 2.68173 0
M  V30 3464 C 326.406 2.15594 2.88179 0
M  V30 3465 C 326.014 3.64228 2.60849 0
M  V30 3466 C 327.758 2.14709 3.66197 0
M  V30 3467 C 325.665 4.48689 3.85269 0
M  V30 3468 H 324.595 0.457091 0.599653 0
M  V30 3469 H 327.246 1.57813 0.936342 0
M  V30 3470 H 325.628 1.73778 3.55833 0
M  V30 3471 H 326.802 4.14424 2.01467 0
M  V30 3472 H 325.117 3.67306 1.96151 0
M  V30 3473 H 327.714 2.75046 4.58534 0
M  V30 3474 H 328.057 1.13966 4.00397 0
M  V30 3475 H 328.59 2.54837 3.05455 0
M  V30 3476 H 325.329 5.5027 3.56207 0
M  V30 3477 H 324.849 4.03241 4.44024 0
M  V30 3478 H 326.528 4.62006 4.52946 0
M  V30 3479 N 326.66 -1.06551 1.16123 0
M  V30 3480 C 327.59 -2.15935 0.88851 0
M  V30 3481 C 328.571 -1.69306 -0.164135 0
M  V30 3482 O 329.756 -1.94193 -0.0167857 0
M  V30 3483 C 326.886 -3.45149 0.385942 0
M  V30 3484 C 325.84 -4.05271 1.3762 0
M  V30 3485 C 325.166 -5.29664 0.732137 0
M  V30 3486 C 326.466 -4.44355 2.74493 0
M  V30 3487 H 328.16 -2.39006 1.80323 0
M  V30 3488 H 325.706 -1.14866 0.868435 0
M  V30 3489 H 327.659 -4.21004 0.182647 0
M  V30 3490 H 326.383 -3.21689 -0.564274 0
M  V30 3491 H 325.042 -3.3147 1.56599 0
M  V30 3492 H 324.69 -5.02499 -0.224483 0
M  V30 3493 H 324.39 -5.70848 1.39307 0
M  V30 3494 H 325.914 -6.08218 0.538802 0
M  V30 3495 H 327.328 -5.11303 2.59311 0
M  V30 3496 H 325.725 -4.96515 3.37035 0
M  V30 3497 H 326.795 -3.55339 3.29943 0
M  V30 3498 N 328.138 -0.959301 -1.25041 0
M  V30 3499 C 329.387 -0.612254 -1.92183 0
M  V30 3500 C 329.7 0.855347 -1.75907 0
M  V30 3501 O 330.906 1.31256 -2.37664 0
M  V30 3502 C 329.362 -1.04435 -3.44414 0
M  V30 3503 C 328.97 -2.53482 -3.69393 0
M  V30 3504 C 330.714 -0.770055 -4.17457 0
M  V30 3505 C 328.621 -2.90468 -5.15153 0
M  V30 3506 H 327.551 -0.225279 -0.719559 0
M  V30 3507 H 330.202 -1.16438 -1.41825 0
M  V30 3508 H 328.584 -0.4206 -3.9376 0
M  V30 3509 H 329.758 -3.20916 -3.30681 0
M  V30 3510 H 328.073 -2.78432 -3.0962 0
M  V30 3511 H 330.67 -1.02249 -5.24832 0
M  V30 3512 H 331.013 0.293611 -4.15263 0
M  V30 3513 H 331.546 -1.35437 -3.74034 0
M  V30 3514 H 328.285 -3.95871 -5.22462 0
M  V30 3515 H 327.805 -2.27711 -5.54894 0
M  V30 3516 H 329.484 -2.79914 -5.83315 0
M  V30 3517 N 329.616 1.39756 -0.72842 0
M  V30 3518 C 330.893 1.94574 -0.200079 0
M  V30 3519 C 331.273 1.66569 1.29684 0
M  V30 3520 O 330.621 0.990326 2.05924 0
M  V30 3521 C 330.831 3.45004 -0.526608 0
M  V30 3522 C 332.179 4.21965 -0.472318 0
M  V30 3523 O 333.203 3.53173 -0.463413 0
M  V30 3524 O 332.062 5.44552 -0.461075 0
M  V30 3525 H 329.156 0.826289 -0.0342851 0
M  V30 3526 H 331.702 1.49293 -0.806829 0
M  V30 3527 H 330.474 3.58796 -1.56144 0
M  V30 3528 H 330.097 3.97449 0.109449 0
M  V30 3529 N 331.094 0.475555 1.50254 0
M  V30 3530 C 332.371 -0.139685 1.95101 0
M  V30 3531 C 332.751 -1.56555 1.41611 0
M  V30 3532 O 332.099 -2.19956 0.618993 0
M  V30 3533 C 332.309 -0.0784298 3.48912 0
M  V30 3534 C 333.657 -0.265095 4.23772 0
M  V30 3535 O 334.681 -0.154808 3.55863 0
M  V30 3536 O 333.54 -0.488327 5.44314 0
M  V30 3537 H 330.634 -0.109236 0.819754 0
M  V30 3538 H 333.18 0.536276 1.61004 0
M  V30 3539 H 331.952 0.916918 3.80405 0
M  V30 3540 H 331.575 -0.795655 3.89558 0
M  V30 3541 N 332.573 -1.56217 0.208337 0
M  V30 3542 C 333.822 -1.97124 -0.427204 0
M  V30 3543 C 334.135 -1.09859 -1.61835 0
M  V30 3544 O 335.341 -1.40606 -2.32255 0
M  V30 3545 C 333.797 -3.50633 -0.811442 0
M  V30 3546 C 333.405 -4.46582 0.35615 0
M  V30 3547 C 335.149 -4.00282 -1.41332 0
M  V30 3548 C 333.056 -5.91379 -0.0497852 0
M  V30 3549 H 331.986 -0.736086 -0.163381 0
M  V30 3550 H 334.637 -1.8099 0.302456 0
M  V30 3551 H 333.019 -3.62319 -1.59815 0
M  V30 3552 H 334.193 -4.46636 1.1337 0
M  V30 3553 H 332.508 -4.07202 0.870396 0
M  V30 3554 H 335.105 -5.0595 -1.72972 0
M  V30 3555 H 335.448 -3.45359 -2.32449 0
M  V30 3556 H 335.981 -3.91764 -0.690323 0
M  V30 3557 H 332.72 -6.50255 0.827529 0
M  V30 3558 H 332.24 -5.94549 -0.791926 0
M  V30 3559 H 333.919 -6.45209 -0.481042 0
M  V30 3560 N 334.051 0.0651679 -1.57465 0
M  V30 3561 C 335.3 0.761916 -1.86756 0
M  V30 3562 C 335.613 1.78406 -0.801925 0
M  V30 3563 O 336.819 2.53084 -0.982885 0
M  V30 3564 C 335.275 1.40603 -3.31299 0
M  V30 3565 C 334.883 0.422115 -4.46007 0
M  V30 3566 C 336.627 2.08476 -3.69781 0
M  V30 3567 C 334.534 1.07252 -5.81593 0
M  V30 3568 H 333.464 0.288308 -0.696702 0
M  V30 3569 H 336.115 0.015344 -1.83494 0
M  V30 3570 H 334.497 2.20109 -3.29193 0
M  V30 3571 H 335.671 -0.343613 -4.59517 0
M  V30 3572 H 333.986 -0.152527 -4.16121 0
M  V30 3573 H 336.583 2.57925 -4.68379 0
M  V30 3574 H 336.926 2.88712 -2.99919 0
M  V30 3575 H 337.459 1.35792 -3.73905 0
M  V30 3576 H 334.198 0.310342 -6.54765 0
M  V30 3577 H 333.718 1.80895 -5.71872 0
M  V30 3578 H 335.397 1.59043 -6.27148 0
M  V30 3579 N 335.529 1.53961 0.336706 0
M  V30 3580 C 336.806 1.62171 1.09361 0
M  V30 3581 C 337.186 0.447263 2.06307 0
M  V30 3582 O 336.534 -0.559802 2.21537 0
M  V30 3583 C 336.744 2.98565 1.80721 0
M  V30 3584 C 338.092 3.54157 2.34218 0
M  V30 3585 O 339.116 3.00784 1.90807 0
M  V30 3586 O 337.975 4.47528 3.13657 0
M  V30 3587 H 335.069 0.6562 0.503319 0
M  V30 3588 H 337.615 1.66307 0.33765 0
M  V30 3589 H 336.387 3.75482 1.10132 0
M  V30 3590 H 336.01 2.9805 2.63158 0
M  V30 3591 N 337.007 -0.598083 1.45811 0
M  V30 3592 C 338.235 -1.38322 1.53866 0
M  V30 3593 C 338.65 -1.87992 0.174479 0
M  V30 3594 O 338.007 -1.62756 -0.825627 0
M  V30 3595 C 338.058 -2.58125 2.53089 0
M  V30 3596 O 337.779 -2.10516 3.84206 0
M  V30 3597 C 339.28 -3.50869 2.70935 0
M  V30 3598 H 336.5 -0.423093 0.520801 0
M  V30 3599 H 339.044 -0.728527 1.91083 0
M  V30 3600 H 337.199 -3.19615 2.18917 0
M  V30 3601 H 337.613 -2.88425 4.38077 0
M  V30 3602 H 339.087 -4.31451 3.44317 0
M  V30 3603 H 339.564 -4.01822 1.77301 0
M  V30 3604 H 340.17 -2.95225 3.06141 0
M  V30 3605 N 338.485 -1.33259 -0.841409 0
M  V30 3606 C 339.448 -1.23221 -1.9326 0
M  V30 3607 C 340.448 -0.151895 -1.60081 0
M  V30 3608 O 341.638 -0.403246 -1.69468 0
M  V30 3609 C 338.77 -0.898123 -3.28856 0
M  V30 3610 H 339.963 -2.2021 -2.03587 0
M  V30 3611 H 337.516 -1.17281 -1.03319 0
M  V30 3612 H 338.251 0.0693841 -3.24226 0
M  V30 3613 H 338.036 -1.67934 -3.54317 0
M  V30 3614 H 339.526 -0.852563 -4.08805 0
M  V30 3615 N 339.963 1.05934 -1.16686 0
M  V30 3616 C 341.211 1.78447 -0.948744 0
M  V30 3617 C 341.532 1.87813 0.524523 0
M  V30 3618 O 340.802 1.38945 1.38098 0
M  V30 3619 H 339.382 0.660971 -0.348033 0
M  V30 3620 H 342.044 1.27947 -1.47022 0
M  V30 3621 H 341.14 2.80394 -1.37061 0
M  V30 3622 N 341.441 0.965919 1.2453 0
M  V30 3623 C 342.669 0.644385 1.96609 0
M  V30 3624 C 343.084 -0.785823 1.71669 0
M  V30 3625 O 342.441 -1.52703 0.999399 0
M  V30 3626 C 342.492 0.907375 3.49927 0
M  V30 3627 O 342.213 2.28136 3.74013 0
M  V30 3628 C 343.714 0.599784 4.39224 0
M  V30 3629 H 340.934 0.240588 0.626385 0
M  V30 3630 H 343.478 1.29337 1.58405 0
M  V30 3631 H 341.633 0.304631 3.862 0
M  V30 3632 H 342.047 2.36002 4.68405 0
M  V30 3633 H 343.521 0.834263 5.45659 0
M  V30 3634 H 343.998 -0.465921 4.36722 0
M  V30 3635 H 344.604 1.18235 4.08535 0
M  V30 3636 N 342.919 -1.39368 0.735821 0
M  V30 3637 C 344.168 -1.99733 0.281004 0
M  V30 3638 C 344.481 -1.59055 -1.13846 0
M  V30 3639 O 345.687 -2.12262 -1.69284 0
M  V30 3640 C 344.143 -3.57057 0.451462 0
M  V30 3641 C 343.751 -4.06697 1.87886 0
M  V30 3642 C 345.495 -4.2446 0.0584616 0
M  V30 3643 C 343.402 -5.56598 1.99883 0
M  V30 3644 H 342.332 -0.747163 0.101311 0
M  V30 3645 H 344.983 -1.59357 0.909819 0
M  V30 3646 H 343.365 -3.95234 -0.246263 0
M  V30 3647 H 344.539 -3.79853 2.60861 0
M  V30 3648 H 342.854 -3.5196 2.22515 0
M  V30 3649 H 345.451 -5.34549 0.127099 0
M  V30 3650 H 345.794 -4.04444 -0.986433 0
M  V30 3651 H 346.327 -3.9146 0.707374 0
M  V30 3652 H 343.066 -5.81494 3.02564 0
M  V30 3653 H 342.586 -5.85242 1.31346 0
M  V30 3654 H 344.265 -6.22022 1.78039 0
M  V30 3655 N 344.397 -0.483516 -1.5 0
M  V30 3656 C 345.625 0.0644831 -2.06799 0
M  V30 3657 C 346.04 1.32399 -1.34596 0
M  V30 3658 O 345.397 1.77626 -0.418946 0
M  V30 3659 C 345.448 0.339927 -3.59898 0
M  V30 3660 O 345.169 -0.869635 -4.29382 0
M  V30 3661 C 346.67 0.933515 -4.33359 0
M  V30 3662 H 343.89 -0.0126333 -0.670881 0
M  V30 3663 H 346.434 -0.675864 -1.93009 0
M  V30 3664 H 344.589 1.03022 -3.7345 0
M  V30 3665 H 345.003 -0.62179 -5.20801 0
M  V30 3666 H 346.477 1.07593 -5.41413 0
M  V30 3667 H 346.954 1.92685 -3.94676 0
M  V30 3668 H 347.56 0.281221 -4.24369 0
M  V30 3669 N 345.875 1.56104 -0.216619 0
M  V30 3670 C 346.805 2.23063 0.690296 0
M  V30 3671 C 347.786 1.20072 1.20485 0
M  V30 3672 O 348.971 1.48643 1.24976 0
M  V30 3673 C 346.101 2.90672 1.90072 0
M  V30 3674 C 345.055 4.00092 1.5202 0
M  V30 3675 C 344.381 4.54972 2.80899 0
M  V30 3676 C 345.681 5.17398 0.71391 0
M  V30 3677 H 347.375 2.99109 0.132038 0
M  V30 3678 H 344.921 1.43866 0.0620664 0
M  V30 3679 H 346.874 3.36204 2.54057 0
M  V30 3680 H 345.598 2.12066 2.48386 0
M  V30 3681 H 344.257 3.55283 0.903839 0
M  V30 3682 H 343.905 3.73102 3.37348 0
M  V30 3683 H 343.605 5.28817 2.56176 0
M  V30 3684 H 345.129 5.0322 3.45836 0
M  V30 3685 H 346.543 5.59342 1.25735 0
M  V30 3686 H 344.94 5.97444 0.563951 0
M  V30 3687 H 346.01 4.84088 -0.280527 0
M  V30 3688 N 347.353 -0.0568162 1.57498 0
M  V30 3689 C 348.316 -1.05038 2.03715 0
M  V30 3690 C 349.316 -1.30709 0.936577 0
M  V30 3691 O 350.506 -1.26178 1.20103 0
M  V30 3692 C 347.638 -2.39034 2.43055 0
M  V30 3693 H 348.831 -0.651715 2.92733 0
M  V30 3694 H 346.384 -0.302947 1.53336 0
M  V30 3695 H 347.119 -2.83703 1.57108 0
M  V30 3696 H 346.904 -2.21739 3.2338 0
M  V30 3697 H 348.394 -3.10421 2.79336 0
M  V30 3698 N 348.832 -1.54138 -0.328536 0
M  V30 3699 C 349.795 -1.82462 -1.38709 0
M  V30 3700 C 350.795 -0.696229 -1.44946 0
M  V30 3701 O 351.985 -0.964535 -1.4506 0
M  V30 3702 C 349.117 -1.98018 -2.77492 0
M  V30 3703 H 350.31 -2.77037 -1.14851 0
M  V30 3704 H 347.863 -1.45779 -0.563751 0
M  V30 3705 H 348.598 -1.05637 -3.06613 0
M  V30 3706 H 348.383 -2.80124 -2.74359 0
M  V30 3707 H 349.873 -2.21396 -3.54081 0
M  V30 3708 N 350.31 0.590341 -1.46126 0
M  V30 3709 C 351.258 1.72105 -1.5647 0
M  V30 3710 C 352.252 1.63756 -0.433612 0
M  V30 3711 O 353.458 1.69342 -0.610194 0
M  V30 3712 H 349.833 0.568889 -0.491802 0
M  V30 3713 H 351.804 1.6051 -2.51553 0
M  V30 3714 C 350.553 3.10493 -1.56491 0
M  V30 3715 H 349.876 3.17583 -2.4286 0
M  V30 3716 H 351.316 3.8939 -1.67785 0
M  V30 3717 C 349.775 3.3563 -0.292231 0
M  V30 3718 O 350.305 3.96875 0.620739 0
M  V30 3719 N 348.511 2.90026 -0.182523 0
M  V30 3720 H 348.058 2.40367 -0.926356 0
M  V30 3721 H 348.016 3.07218 0.668152 0
M  V30 3722 N 351.788 1.33704 0.83433 0
M  V30 3723 C 352.751 1.24244 1.92603 0
M  V30 3724 C 353.751 0.160383 1.59998 0
M  V30 3725 O 354.941 0.412228 1.69252 0
M  V30 3726 C 352.073 0.91555 3.28376 0
M  V30 3727 H 353.266 2.21287 2.02416 0
M  V30 3728 H 350.819 1.17827 1.02696 0
M  V30 3729 H 351.554 -0.0521886 3.24258 0
M  V30 3730 H 351.339 1.69811 3.53422 0
M  V30 3731 H 352.829 0.874231 4.08347 0
M  V30 3732 N 353.266 -1.05314 1.17247 0
M  V30 3733 C 354.196 -2.1498 0.911362 0
M  V30 3734 C 355.177 -1.69471 -0.146169 0
M  V30 3735 O 356.362 -1.942 0.003812 0
M  V30 3736 C 353.492 -3.4472 0.422528 0
M  V30 3737 C 352.446 -4.03789 1.4191 0
M  V30 3738 C 351.772 -5.28858 0.788274 0
M  V30 3739 C 353.072 -4.41418 2.7919 0
M  V30 3740 H 354.766 -2.3708 1.82848 0
M  V30 3741 H 352.312 -1.13938 0.880569 0
M  V30 3742 H 354.265 -4.20787 0.227289 0
M  V30 3743 H 352.989 -3.22269 -0.530123 0
M  V30 3744 H 351.648 -3.2979 1.60106 0
M  V30 3745 H 351.296 -5.02709 -0.171173 0
M  V30 3746 H 350.996 -5.69338 1.45353 0
M  V30 3747 H 352.52 -6.07612 0.603282 0
M  V30 3748 H 353.934 -5.08524 2.64719 0
M  V30 3749 H 352.331 -4.92913 3.42282 0
M  V30 3750 H 353.401 -3.51819 3.33693 0
M  V30 3751 N 354.744 -0.972509 -1.24016 0
M  V30 3752 C 355.99 -0.637978 -1.92504 0
M  V30 3753 C 356.323 0.825383 -1.75787 0
M  V30 3754 O 355.598 1.59442 -1.11393 0
M  V30 3755 C 355.881 -1.01942 -3.45369 0
M  V30 3756 C 355.734 -2.53983 -3.71231 0
M  V30 3757 C 357.053 -0.55751 -4.36555 0
M  V30 3758 H 354.172 -0.233248 -0.699117 0
M  V30 3759 H 356.814 -1.21238 -1.46292 0
M  V30 3760 H 354.964 -0.530656 -3.84859 0
M  V30 3761 H 356.636 -3.10374 -3.41271 0
M  V30 3762 H 354.879 -2.96968 -3.16216 0
M  V30 3763 H 355.55 -2.75723 -4.78206 0
M  V30 3764 H 358.026 -0.977029 -4.04467 0
M  V30 3765 H 356.902 -0.85292 -5.42233 0
M  V30 3766 H 357.163 0.542328 -4.38761 0
M  V30 3767 N 356.222 1.38976 -0.743202 0
M  V30 3768 C 357.132 2.3434 -0.110399 0
M  V30 3769 C 358.148 1.58741 0.712559 0
M  V30 3770 O 359.324 1.9099 0.639125 0
M  V30 3771 C 356.389 3.37812 0.780012 0
M  V30 3772 C 355.45 4.29263 -0.0561319 0
M  V30 3773 C 354.683 5.27793 0.791875 0
M  V30 3774 O 354.906 5.33043 2.03031 0
M  V30 3775 O 353.84 6.01512 0.216183 0
M  V30 3776 H 357.666 2.90129 -0.897714 0
M  V30 3777 H 355.251 1.40643 -0.503966 0
M  V30 3778 H 357.133 4.01194 1.28923 0
M  V30 3779 H 355.808 2.84395 1.546 0
M  V30 3780 H 354.715 3.69076 -0.611056 0
M  V30 3781 H 356.048 4.85907 -0.784531 0
M  V30 3782 N 357.7 0.491464 1.49741 0
M  V30 3783 C 358.648 -0.305837 2.30581 0
M  V30 3784 C 359.642 -0.971642 1.38764 0
M  V30 3785 O 360.848 -0.90042 1.5586 0
M  V30 3786 H 357.223 -0.117482 0.742767 0
M  V30 3787 H 359.194 0.396093 2.95759 0
M  V30 3788 C 357.943 -1.36319 3.19863 0
M  V30 3789 H 357.266 -0.860258 3.90435 0
M  V30 3790 H 358.706 -1.89323 3.79385 0
M  V30 3791 C 357.165 -2.37621 2.38826 0
M  V30 3792 O 357.695 -3.43311 2.08567 0
M  V30 3793 N 355.901 -2.09849 2.01026 0
M  V30 3794 H 355.448 -1.23922 2.25834 0
M  V30 3795 H 355.406 -2.77859 1.47112 0
M  V30 3796 N 359.178 -1.55987 0.224894 0
M  V30 3797 C 360.426 -1.97998 -0.405099 0
M  V30 3798 C 360.747 -1.11387 -1.60056 0
M  V30 3799 O 360.017 -0.191645 -1.9496 0
M  V30 3800 H 358.597 -0.731235 -0.152658 0
M  V30 3801 H 361.259 -1.92279 0.318567 0
M  V30 3802 H 360.355 -3.03463 -0.729167 0
M  V30 3803 N 360.656 0.0484629 -1.57525 0
M  V30 3804 C 361.619 1.03956 -2.04269 0
M  V30 3805 C 362.619 1.30211 -0.943496 0
M  V30 3806 O 363.809 1.25539 -1.20771 0
M  V30 3807 C 360.941 2.37742 -2.44319 0
M  V30 3808 H 362.134 0.636182 -2.93075 0
M  V30 3809 H 359.687 0.294811 -1.53494 0
M  V30 3810 H 360.422 2.82866 -1.5861 0
M  V30 3811 H 360.207 2.20021 -3.24551 0
M  V30 3812 H 361.697 3.08936 -2.80978 0
M  V30 3813 N 362.134 1.5431 0.320358 0
M  V30 3814 C 363.081 1.83918 1.39438 0
M  V30 3815 C 364.051 0.686525 1.51248 0
M  V30 3816 O 365.236 0.933269 1.66417 0
M  V30 3817 C 362.376 2.075 2.75749 0
M  V30 3818 C 361.489 3.35177 2.72544 0
M  V30 3819 C 360.624 3.48704 4.00723 0
M  V30 3820 C 359.663 4.70244 3.91838 0
M  V30 3821 N 358.8 4.80679 5.11754 0
M  V30 3822 H 363.64 2.75544 1.13489 0
M  V30 3823 H 361.177 1.36459 0.549309 0
M  V30 3824 H 363.135 2.19166 3.54996 0
M  V30 3825 H 361.765 1.19163 3 0
M  V30 3826 H 360.817 3.32233 1.85271 0
M  V30 3827 H 362.129 4.24534 2.61863 0
M  V30 3828 H 361.283 3.59928 4.88402 0
M  V30 3829 H 360.022 2.57445 4.14214 0
M  V30 3830 H 359.027 4.59072 3.02544 0
M  V30 3831 H 360.252 5.6289 3.7991 0
M  V30 3832 H 358.198 3.92337 5.25745 0
M  V30 3833 H 358.115 5.64007 5.0342 0
M  V30 3834 H 359.383 4.96239 6.01138 0
M  V30 3835 N 363.613 -0.582584 1.46437 0
M  V30 3836 C 364.523 -1.71949 1.59595 0
M  V30 3837 C 365.539 -1.67264 0.479443 0
M  V30 3838 O 366.715 -1.87171 0.743579 0
M  V30 3839 C 363.78 -3.08452 1.58298 0
M  V30 3840 C 362.841 -3.244 2.81182 0
M  V30 3841 C 362.074 -4.54391 2.79937 0
M  V30 3842 O 362.297 -5.38287 1.8869 0
M  V30 3843 O 361.231 -4.73588 3.71481 0
M  V30 3844 H 365.057 -1.63795 2.55744 0
M  V30 3845 H 362.642 -0.749643 1.29231 0
M  V30 3846 H 364.524 -3.89732 1.60271 0
M  V30 3847 H 363.199 -3.17043 0.653094 0
M  V30 3848 H 362.106 -2.42613 2.84763 0
M  V30 3849 H 363.439 -3.20699 3.7338 0
M  V30 3850 N 365.091 -1.34144 -0.827227 0
M  V30 3851 C 366.337 -1.26446 -1.58554 0
M  V30 3852 C 366.67 0.1664 -1.93486 0
M  V30 3853 O 365.945 1.1107 -1.59667 0
M  V30 3854 C 366.228 -2.15111 -2.8879 0
M  V30 3855 C 366.081 -3.66712 -2.60465 0
M  V30 3856 C 367.4 -2.03311 -3.90324 0
M  V30 3857 H 364.519 -0.46067 -0.575284 0
M  V30 3858 H 367.161 -1.64356 -0.953269 0
M  V30 3859 H 365.311 -1.8291 -3.42748 0
M  V30 3860 H 366.983 -4.09259 -2.1285 0
M  V30 3861 H 365.226 -3.88014 -1.93978 0
M  V30 3862 H 365.897 -4.24112 -3.53317 0
M  V30 3863 H 368.373 -2.31574 -3.45706 0
M  V30 3864 H 367.249 -2.67582 -4.79261 0
M  V30 3865 H 367.51 -1.00879 -4.30437 0
M  V30 3866 N 366.569 1.04691 -1.17803 0
M  V30 3867 C 367.799 1.81183 -0.992788 0
M  V30 3868 C 368.207 1.8347 0.462098 0
M  V30 3869 O 367.55 1.2643 1.33271 0
M  V30 3870 C 367.612 3.28363 -1.46349 0
M  V30 3871 C 367.276 3.49749 -2.94151 0
M  V30 3872 C 368.273 3.41456 -3.92051 0
M  V30 3873 C 365.958 3.76548 -3.32441 0
M  V30 3874 C 367.952 3.59656 -5.26238 0
M  V30 3875 C 365.639 3.94396 -4.66792 0
M  V30 3876 C 366.637 3.8595 -5.635 0
M  V30 3877 O 366.325 4.03294 -6.9542 0
M  V30 3878 H 366.057 0.577622 -0.351182 0
M  V30 3879 H 368.611 1.32876 -1.5663 0
M  V30 3880 H 366.841 3.77609 -0.833574 0
M  V30 3881 H 368.53 3.86395 -1.24313 0
M  V30 3882 H 369.296 3.20723 -3.63815 0
M  V30 3883 H 365.175 3.82224 -2.57732 0
M  V30 3884 H 368.719 3.52979 -6.01707 0
M  V30 3885 H 364.616 4.14622 -4.94731 0
M  V30 3886 H 365.384 4.2049 -7.02232 0
M  V30 3887 N 368.047 0.979072 1.23499 0
M  V30 3888 C 369.01 0.523244 2.23147 0
M  V30 3889 C 370.01 -0.386406 1.56088 0
M  V30 3890 O 371.2 -0.180283 1.73265 0
M  V30 3891 C 368.332 -0.240739 3.40049 0
M  V30 3892 H 369.525 1.40432 2.64989 0
M  V30 3893 H 367.078 0.764824 1.36309 0
M  V30 3894 H 367.813 -1.13841 3.03662 0
M  V30 3895 H 367.598 0.412207 3.89927 0
M  V30 3896 H 369.088 -0.548297 4.13985 0
M  V30 3897 N 369.525 -1.3858 0.750561 0
M  V30 3898 C 370.765 -2.02032 0.310258 0
M  V30 3899 C 371.129 -1.58288 -1.08668 0
M  V30 3900 O 372.33 -2.14049 -1.62593 0
M  V30 3901 C 370.601 -3.54856 0.425647 0
M  V30 3902 S 372.16 -4.38748 0.0674797 0
M  V30 3903 H 368.978 -0.700705 0.120554 0
M  V30 3904 H 371.58 -1.69134 0.980512 0
M  V30 3905 H 370.284 -3.84182 1.44335 0
M  V30 3906 H 369.815 -3.92527 -0.261894 0
M  V30 3907 H 371.83 -4.82835 -1.14388 0
M  V30 3908 N 371.003 -0.499398 -1.49478 0
M  V30 3909 C 372.243 0.0440751 -2.04352 0
M  V30 3910 C 372.607 1.34423 -1.37093 0
M  V30 3911 O 373.808 1.97184 -1.82679 0
M  V30 3912 C 372.079 0.194918 -3.56868 0
M  V30 3913 S 373.638 0.69287 -4.33295 0
M  V30 3914 H 370.456 0.00253458 -0.710995 0
M  V30 3915 H 373.058 -0.673 -1.83551 0
M  V30 3916 H 371.762 -0.756672 -4.03364 0
M  V30 3917 H 371.293 0.93728 -3.82071 0
M  V30 3918 H 373.308 1.96226 -4.55752 0
M  V30 3919 N 372.481 1.55866 -0.233164 0
M  V30 3920 C 373.709 2.02998 0.399905 0
M  V30 3921 C 374.124 1.11274 1.52524 0
M  V30 3922 O 373.481 0.124528 1.82075 0
M  V30 3923 C 373.532 3.4958 0.920639 0
M  V30 3924 O 373.253 4.37808 -0.159834 0
M  V30 3925 C 374.754 4.12411 1.62578 0
M  V30 3926 H 371.974 0.664006 0.0966281 0
M  V30 3927 H 374.518 2.0143 -0.353013 0
M  V30 3928 H 372.673 3.51727 1.62379 0
M  V30 3929 H 373.087 5.23981 0.23337 0
M  V30 3930 H 374.561 5.16711 1.94201 0
M  V30 3931 H 375.038 3.5809 2.54299 0
M  V30 3932 H 375.644 4.14148 0.967553 0
M  V30 3933 N 373.959 -0.0401083 1.57549 0
M  V30 3934 C 374.909 -1.05175 2.02292 0
M  V30 3935 C 375.893 -1.32674 0.910294 0
M  V30 3936 O 377.085 -1.32444 1.17421 0
M  V30 3937 C 374.214 -2.35622 2.49674 0
M  V30 3938 C 373.3 -2.11261 3.67736 0
M  V30 3939 N 373.691 -1.56923 4.80842 0
M  V30 3940 C 371.989 -2.41596 3.74897 0
M  V30 3941 C 372.69 -1.48111 5.62528 0
M  V30 3942 N 371.666 -1.95282 5.07312 0
M  V30 3943 H 375.468 -0.625455 2.87168 0
M  V30 3944 H 372.982 -0.246624 1.60516 0
M  V30 3945 H 374.979 -3.08893 2.79983 0
M  V30 3946 H 373.639 -2.7894 1.662 0
M  V30 3947 H 374.65 -1.25345 5.02503 0
M  V30 3948 H 371.327 -2.88064 3.02201 0
M  V30 3949 H 372.717 -1.06683 6.63377 0
M  V30 3950 N 375.437 -1.54477 -0.31217 0
M  V30 3951 C 376.848 -1.64344 -0.885891 0
M  V30 3952 C 377.199 -0.54485 -1.88483 0
M  V30 3953 O 376.324 0.320387 -2.14015 0
M  V30 3954 C 376.919 -2.97908 -1.61357 0
M  V30 3955 C 375.478 -3.09933 -2.13585 0
M  V30 3956 C 374.625 -2.59971 -0.964897 0
M  V30 3957 H 377.576 -1.58448 -0.0894528 0
M  V30 3958 H 377.597 -2.88706 -2.47848 0
M  V30 3959 H 377.109 -3.77845 -0.886277 0
M  V30 3960 H 375.21 -2.34694 -2.89395 0
M  V30 3961 H 375.323 -4.15916 -2.37804 0
M  V30 3962 H 373.687 -2.16147 -1.34731 0
M  V30 3963 H 374.47 -3.42376 -0.251742 0
M  V30 3964 N 376.915 0.57481 -1.46744 0
M  V30 3965 C 378.161 1.3347 -1.52688 0
M  V30 3966 C 378.494 1.93353 -0.181229 0
M  V30 3967 O 377.769 1.76912 0.808237 0
M  V30 3968 C 378.052 2.45811 -2.63152 0
M  V30 3969 C 377.905 1.90912 -4.07275 0
M  V30 3970 C 379.224 3.47822 -2.69644 0
M  V30 3971 H 376.343 0.483935 -0.555856 0
M  V30 3972 H 378.985 0.644968 -1.78718 0
M  V30 3973 H 377.135 3.04646 -2.41088 0
M  V30 3974 H 378.807 1.36473 -4.4065 0
M  V30 3975 H 377.05 1.21691 -4.16382 0
M  V30 3976 H 377.721 2.72042 -4.80309 0
M  V30 3977 H 380.197 2.9888 -2.895 0
M  V30 3978 H 379.073 4.23876 -3.48742 0
M  V30 3979 H 379.334 4.05555 -1.76005 0
M  V30 3980 N 378.394 1.34581 0.820102 0
M  V30 3981 C 379.324 1.29038 1.94606 0
M  V30 3982 C 380.305 0.1673 1.69275 0
M  V30 3983 O 381.49 0.360112 1.90832 0
M  V30 3984 C 378.62 1.04793 3.31113 0
M  V30 3985 C 377.574 2.13597 3.70891 0
M  V30 3986 C 376.9 1.74537 5.05412 0
M  V30 3987 C 378.2 3.55451 3.8269 0
M  V30 3988 H 379.894 2.23248 1.99501 0
M  V30 3989 H 377.44 1.0747 0.958449 0
M  V30 3990 H 379.393 0.995592 4.0947 0
M  V30 3991 H 378.117 0.0702565 3.26524 0
M  V30 3992 H 376.776 2.17905 2.9481 0
M  V30 3993 H 376.424 0.754226 4.97313 0
M  V30 3994 H 376.124 2.47361 5.32997 0
M  V30 3995 H 377.648 1.70803 5.86224 0
M  V30 3996 H 379.062 3.5354 4.51312 0
M  V30 3997 H 377.459 4.26922 4.21732 0
M  V30 3998 H 378.529 3.92587 2.84611 0
M  V30 3999 N 379.872 -1.04064 1.18357 0
M  V30 4000 C 381.097 -1.81454 1.00445 0
M  V30 4001 C 381.522 -1.82823 -0.442423 0
M  V30 4002 O 380.88 -1.24555 -1.31741 0
M  V30 4003 C 380.928 -3.24925 1.56384 0
M  V30 4004 O 380.032 -4.04856 0.785209 0
M  V30 4005 H 379.373 -0.560604 0.355835 0
M  V30 4006 H 381.903 -1.31059 1.57114 0
M  V30 4007 H 381.913 -3.75702 1.59097 0
M  V30 4008 H 380.588 -3.23244 2.61699 0
M  V30 4009 H 379.165 -3.63537 0.830399 0
M  V30 4010 N 381.35 -0.985608 -1.22978 0
M  V30 4011 C 382.598 -0.656087 -1.91154 0
M  V30 4012 C 382.919 0.813561 -1.77218 0
M  V30 4013 O 382.189 1.58244 -1.1548 0
M  V30 4014 H 380.769 -0.239674 -0.707506 0
M  V30 4015 H 383.431 -1.25054 -1.49491 0
M  V30 4016 H 382.527 -0.912253 -2.9847 0
M  V30 4017 N 382.828 1.3818 -0.7579 0
M  V30 4018 C 384.239 1.82726 -0.383134 0
M  V30 4019 C 384.59 1.63214 1.08884 0
M  V30 4020 O 383.715 1.13566 1.84205 0
M  V30 4021 C 384.31 3.31728 -0.688631 0
M  V30 4022 C 382.869 3.74606 -0.367091 0
M  V30 4023 C 382.016 2.60896 -0.939599 0
M  V30 4024 H 384.967 1.26847 -0.953699 0
M  V30 4025 H 384.988 3.80487 0.0316492 0
M  V30 4026 H 384.5 3.45898 -1.76001 0
M  V30 4027 H 382.601 3.66013 0.697532 0
M  V30 4028 H 382.714 4.71215 -0.865658 0
M  V30 4029 H 381.078 2.52075 -0.3647 0
M  V30 4030 H 381.861 2.77864 -2.0161 0
M  V30 4031 N 384.306 0.507319 1.49211 0
M  V30 4032 C 385.269 -0.256763 2.27757 0
M  V30 4033 C 386.269 -0.888287 1.34038 0
M  V30 4034 O 387.459 -0.751841 1.5714 0
M  V30 4035 C 384.591 -1.36905 3.12202 0
M  V30 4036 H 385.784 0.432557 2.96764 0
M  V30 4037 H 383.337 0.262488 1.5408 0
M  V30 4038 H 384.072 -2.09233 2.47775 0
M  V30 4039 H 383.857 -0.921599 3.81115 0
M  V30 4040 H 385.347 -1.9071 3.7151 0
M  V30 4041 N 385.784 -1.5574 0.241426 0
M  V30 4042 C 387.03 -1.99104 -0.385406 0
M  V30 4043 C 387.363 -1.1293 -1.57988 0
M  V30 4044 O 386.638 -0.191449 -1.93555 0
M  V30 4045 C 386.921 -3.51087 -0.800616 0
M  V30 4046 C 386.774 -4.48028 0.398874 0
M  V30 4047 C 388.093 -4.08015 -1.64959 0
M  V30 4048 H 385.212 -0.723848 -0.138614 0
M  V30 4049 H 387.854 -1.86903 0.341642 0
M  V30 4050 H 386.004 -3.61615 -1.4201 0
M  V30 4051 H 387.676 -4.49487 1.03726 0
M  V30 4052 H 385.919 -4.21077 1.04293 0
M  V30 4053 H 386.59 -5.51962 0.0651056 0
M  V30 4054 H 389.066 -4.00555 -1.12672 0
M  V30 4055 H 387.942 -5.14635 -1.90898 0
M  V30 4056 H 388.203 -3.56131 -2.61961 0
M  V30 4057 N 387.262 0.0317525 -1.57568 0
M  V30 4058 C 388.172 1.05021 -2.0978 0
M  V30 4059 C 389.188 1.39809 -1.03583 0
M  V30 4060 O 390.364 1.49182 -1.35302 0
M  V30 4061 C 387.429 2.33301 -2.56459 0
M  V30 4062 C 386.49 2.0512 -3.77127 0
M  V30 4063 C 385.723 3.27283 -4.2157 0
M  V30 4064 O 385.946 4.37861 -3.65559 0
M  V30 4065 O 384.88 3.13141 -5.14029 0
M  V30 4066 H 388.706 0.636505 -2.96955 0
M  V30 4067 H 386.291 0.248559 -1.47318 0
M  V30 4068 H 388.173 3.08722 -2.86825 0
M  V30 4069 H 386.848 2.73973 -1.72397 0
M  V30 4070 H 385.755 1.27276 -3.51784 0
M  V30 4071 H 387.088 1.69305 -4.62165 0
M  V30 4072 N 388.74 1.54641 0.303973 0
M  V30 4073 C 390.156 1.45788 0.649463 0
M  V30 4074 C 390.356 0.64666 1.90842 0
M  V30 4075 O 389.412 0.153183 2.52035 0
M  V30 4076 C 390.725 2.89718 0.805227 0
M  V30 4077 C 392.273 2.99742 0.901305 0
M  V30 4078 C 392.748 4.44863 1.08909 0
M  V30 4079 N 394.239 4.48559 1.15536 0
M  V30 4080 C 394.974 5.58026 1.3189 0
M  V30 4081 N 394.47 6.77422 1.45161 0
M  V30 4082 N 396.263 5.45708 1.34755 0
M  V30 4083 H 388.414 2.05854 -0.523237 0
M  V30 4084 H 390.677 0.932186 -0.172431 0
M  V30 4085 H 390.383 3.51666 -0.0489108 0
M  V30 4086 H 390.257 3.36964 1.69513 0
M  V30 4087 H 392.644 2.3791 1.74593 0
M  V30 4088 H 392.725 2.55797 -0.0125531 0
M  V30 4089 H 392.369 5.07288 0.249241 0
M  V30 4090 H 392.299 4.86436 2.01713 0
M  V30 4091 H 394.79 3.6254 1.06646 0
M  V30 4092 H 395.103 7.56604 1.57387 0
M  V30 4093 H 393.448 6.80292 1.42223 0
M  V30 4094 H 396.639 4.51378 1.23996 0
M  V30 4095 H 396.812 6.3107 1.47157 0
M  V30 4096 N 390.218 -0.567019 1.47046 0
M  V30 4097 C 391.467 -1.32091 1.5243 0
M  V30 4098 C 391.78 -1.94704 0.187021 0
M  V30 4099 O 392.986 -2.7124 0.118771 0
M  V30 4100 C 391.442 -2.39479 2.68659 0
M  V30 4101 C 391.05 -1.831 4.08874 0
M  V30 4102 C 392.794 -3.16111 2.83327 0
M  V30 4103 C 390.701 -2.8821 5.16419 0
M  V30 4104 H 389.631 -0.496629 0.56734 0
M  V30 4105 H 392.282 -0.603354 1.73297 0
M  V30 4106 H 390.664 -3.14105 2.41152 0
M  V30 4107 H 391.838 -1.14913 4.46242 0
M  V30 4108 H 390.153 -1.19085 3.99008 0
M  V30 4109 H 392.75 -3.94585 3.60842 0
M  V30 4110 H 393.093 -3.69686 1.91411 0
M  V30 4111 H 393.626 -2.48595 3.10556 0
M  V30 4112 H 390.365 -2.39504 6.10179 0
M  V30 4113 H 389.885 -3.54839 4.8358 0
M  V30 4114 H 391.564 -3.51881 5.42945 0
M  V30 4115 N 391.696 -1.35014 -0.812953 0
M  V30 4116 C 392.644 -1.27435 -1.94585 0
M  V30 4117 C 393.638 -0.170494 -1.6854 0
M  V30 4118 O 394.844 -0.336085 -1.76835 0
M  V30 4119 H 391.219 -0.396144 -0.639198 0
M  V30 4120 H 393.19 -2.23158 -1.98098 0
M  V30 4121 C 391.939 -1.05677 -3.31252 0
M  V30 4122 H 391.262 -1.89853 -3.51846 0
M  V30 4123 H 392.702 -1.04413 -4.10943 0
M  V30 4124 C 391.161 0.239615 -3.36047 0
M  V30 4125 O 391.691 1.23759 -3.8216 0
M  V30 4126 N 389.897 0.276186 -2.89285 0
M  V30 4127 H 389.444 -0.53653 -2.51951 0
M  V30 4128 H 389.402 1.14332 -2.92875 0
M  V30 4129 N 393.175 1.03435 -1.18907 0
M  V30 4130 C 394.123 2.13703 -0.918353 0
M  V30 4131 C 395.117 1.68947 0.123767 0
M  V30 4132 O 396.323 1.79983 -0.0249701 0
M  V30 4133 H 392.698 0.698112 -0.279542 0
M  V30 4134 H 394.669 2.33731 -1.85506 0
M  V30 4135 C 393.418 3.44542 -0.467532 0
M  V30 4136 H 392.741 3.79394 -1.26095 0
M  V30 4137 H 394.181 4.22812 -0.317164 0
M  V30 4138 C 392.64 3.26829 0.817588 0
M  V30 4139 O 393.17 3.54975 1.88031 0
M  V30 4140 N 391.376 2.80139 0.772677 0
M  V30 4141 H 390.923 2.57434 -0.0923883 0
M  V30 4142 H 390.881 2.68668 1.63294 0
M  V30 4143 N 394.653 0.992116 1.22453 0
M  V30 4144 C 395.878 0.685644 1.95739 0
M  V30 4145 C 396.303 -0.743 1.72804 0
M  V30 4146 O 395.661 -1.50778 1.00676 0
M  V30 4147 C 395.709 0.996293 3.46564 0
M  V30 4148 O 394.813 0.0945512 4.12292 0
M  V30 4149 H 394.154 0.256694 0.612376 0
M  V30 4150 H 396.684 1.32888 1.5557 0
M  V30 4151 H 396.694 0.93781 3.97076 0
M  V30 4152 H 395.369 2.03733 3.62582 0
M  V30 4153 H 393.946 0.208451 3.72317 0
M  V30 4154 N 396.131 -1.37776 0.765217 0
M  V30 4155 C 397.359 -2.04124 0.337767 0
M  V30 4156 C 397.774 -1.57715 -1.03785 0
M  V30 4157 O 397.131 -0.755447 -1.6613 0
M  V30 4158 C 397.182 -3.59658 0.364442 0
M  V30 4159 O 396.903 -4.04367 1.68579 0
M  V30 4160 C 398.404 -4.43236 -0.0754221 0
M  V30 4161 H 395.624 -0.655696 0.142491 0
M  V30 4162 H 398.168 -1.76238 1.03732 0
M  V30 4163 H 396.323 -3.86339 -0.286471 0
M  V30 4164 H 396.737 -4.98857 1.61993 0
M  V30 4165 H 398.211 -5.52 -0.00560067 0
M  V30 4166 H 398.688 -4.2455 -1.12491 0
M  V30 4167 H 399.294 -4.21767 0.547055 0
M  V30 4168 N 397.609 -0.515225 -1.4894 0
M  V30 4169 C 398.858 0.0261361 -2.01683 0
M  V30 4170 C 399.171 1.36719 -1.39883 0
M  V30 4171 O 400.377 1.99606 -1.84037 0
M  V30 4172 C 398.833 0.0970111 -3.59769 0
M  V30 4173 C 398.441 -1.23825 -4.30548 0
M  V30 4174 C 400.185 0.587981 -4.20408 0
M  V30 4175 C 398.092 -1.12877 -5.80528 0
M  V30 4176 H 397.022 0.0135398 -0.753878 0
M  V30 4177 H 399.673 -0.656787 -1.71343 0
M  V30 4178 H 398.055 0.844694 -3.86886 0
M  V30 4179 H 399.229 -2.00034 -4.15118 0
M  V30 4180 H 397.544 -1.66379 -3.81716 0
M  V30 4181 H 400.141 0.68763 -5.3026 0
M  V30 4182 H 400.484 1.59026 -3.84729 0
M  V30 4183 H 401.017 -0.103582 -3.97665 0
M  V30 4184 H 397.756 -2.10575 -6.20756 0
M  V30 4185 H 397.276 -0.407799 -5.98412 0
M  V30 4186 H 398.955 -0.813332 -6.41868 0
M  V30 4187 N 399.087 1.5561 -0.249682 0
M  V30 4188 C 400.034 2.21496 0.648694 0
M  V30 4189 C 401.004 1.17977 1.16921 0
M  V30 4190 O 402.189 1.46434 1.22318 0
M  V30 4191 C 399.329 2.92039 1.83868 0
M  V30 4192 C 398.442 4.10219 1.35442 0
M  V30 4193 C 397.577 4.6847 2.50419 0
M  V30 4194 C 396.616 5.78893 1.98869 0
M  V30 4195 N 395.753 6.31315 3.07223 0
M  V30 4196 H 400.593 2.97892 0.0801582 0
M  V30 4197 H 398.13 1.47074 0.0278031 0
M  V30 4198 H 400.088 3.31138 2.53778 0
M  V30 4199 H 398.718 2.18111 2.37965 0
M  V30 4200 H 397.77 3.76413 0.54928 0
M  V30 4201 H 399.082 4.89927 0.936649 0
M  V30 4202 H 398.236 5.10158 3.28366 0
M  V30 4203 H 396.975 3.87984 2.95499 0
M  V30 4204 H 395.98 5.3668 1.19393 0
M  V30 4205 H 397.205 6.61232 1.54755 0
M  V30 4206 H 395.151 5.53733 3.51732 0
M  V30 4207 H 395.068 7.06224 2.69784 0
M  V30 4208 H 396.336 6.77662 3.8522 0
M  V30 4209 N 400.565 -0.0233959 1.57583 0
M  V30 4210 C 401.475 -1.03907 2.10334 0
M  V30 4211 C 402.491 -1.39257 1.04323 0
M  V30 4212 O 403.667 -1.48462 1.36091 0
M  V30 4213 C 400.732 -2.31938 2.57693 0
M  V30 4214 C 399.793 -2.03117 3.78209 0
M  V30 4215 C 399.026 -3.25043 4.233 0
M  V30 4216 O 399.249 -4.35916 3.67876 0
M  V30 4217 O 398.183 -3.10411 5.15683 0
M  V30 4218 H 402.009 -0.620748 2.97288 0
M  V30 4219 H 399.594 -0.240743 1.47448 0
M  V30 4220 H 401.476 -3.07196 2.88458 0
M  V30 4221 H 400.151 -2.73055 1.73847 0
M  V30 4222 H 399.058 -1.25408 3.52454 0
M  V30 4223 H 400.391 -1.66852 4.63056 0
M  V30 4224 N 402.043 -1.548 -0.295768 0
M  V30 4225 C 402.973 -1.89115 -1.36959 0
M  V30 4226 C 403.954 -0.75059 -1.52644 0
M  V30 4227 O 405.139 -1.00678 -1.66065 0
M  V30 4228 C 402.269 -2.14307 -2.73295 0
M  V30 4229 C 401.223 -3.30151 -2.72368 0
M  V30 4230 C 400.549 -3.40772 -4.12042 0
M  V30 4231 C 401.849 -4.67126 -2.33646 0
M  V30 4232 H 403.543 -2.79053 -1.08488 0
M  V30 4233 H 401.089 -1.34266 -0.520443 0
M  V30 4234 H 403.042 -2.36898 -3.48507 0
M  V30 4235 H 401.766 -1.21145 -3.03301 0
M  V30 4236 H 400.425 -3.0749 -1.99613 0
M  V30 4237 H 400.073 -2.45117 -4.39234 0
M  V30 4238 H 399.773 -4.18645 -4.12322 0
M  V30 4239 H 401.297 -3.6563 -4.89027 0
M  V30 4240 H 402.711 -4.89414 -2.98575 0
M  V30 4241 H 401.108 -5.47751 -2.45129 0
M  V30 4242 H 402.178 -4.67489 -1.28772 0
M  V30 4243 N 403.521 0.559213 -1.47345 0
M  V30 4244 C 404.767 1.31843 -1.54095 0
M  V30 4245 C 405.1 1.93149 -0.201726 0
M  V30 4246 O 404.375 1.77759 0.789428 0
M  V30 4247 C 404.658 2.43006 -2.65744 0
M  V30 4248 C 404.511 1.86581 -4.09277 0
M  V30 4249 C 405.83 3.44943 -2.73318 0
M  V30 4250 H 402.949 0.478012 -0.560957 0
M  V30 4251 H 405.591 0.625977 -1.79392 0
M  V30 4252 H 403.741 3.02072 -2.44305 0
M  V30 4253 H 405.413 1.31792 -4.42073 0
M  V30 4254 H 403.656 1.17268 -4.17649 0
M  V30 4255 H 404.327 2.66933 -4.83168 0
M  V30 4256 H 406.803 2.95793 -2.92653 0
M  V30 4257 H 405.679 4.20153 -3.53218 0
M  V30 4258 H 405.94 4.03665 -1.80296 0
M  V30 4259 N 404.999 1.35443 0.805782 0
M  V30 4260 C 406.245 1.28952 1.56522 0
M  V30 4261 C 406.578 -0.135597 1.93726 0
M  V30 4262 O 405.853 -1.08516 1.61414 0
M  V30 4263 C 406.136 2.19678 2.85331 0
M  V30 4264 C 405.989 3.7081 2.54598 0
M  V30 4265 C 407.308 2.09495 3.8704 0
M  V30 4266 H 404.427 0.469764 0.567883 0
M  V30 4267 H 407.069 1.65851 0.927001 0
M  V30 4268 H 405.219 1.8834 3.39795 0
M  V30 4269 H 406.891 4.12593 2.06312 0
M  V30 4270 H 405.134 3.91051 1.8778 0
M  V30 4271 H 405.805 4.29679 3.46525 0
M  V30 4272 H 408.281 2.37045 3.41978 0
M  V30 4273 H 407.157 2.75173 4.74943 0
M  V30 4274 H 407.418 1.07714 4.28777 0
M  V30 4275 N 406.477 -1.02803 1.19454 0
M  V30 4276 C 407.705 -1.79841 1.02297 0
M  V30 4277 C 408.12 -1.83879 -0.428259 0
M  V30 4278 O 407.477 -1.28345 -1.29745 0
M  V30 4279 C 407.528 -3.24852 1.58598 0
M  V30 4280 O 407.249 -3.21097 2.98041 0
M  V30 4281 C 408.75 -4.18485 1.46236 0
M  V30 4282 H 405.97 -0.565936 0.360496 0
M  V30 4283 H 408.514 -1.2948 1.58288 0
M  V30 4284 H 406.669 -3.72401 1.06753 0
M  V30 4285 H 407.083 -4.12033 3.24545 0
M  V30 4286 H 408.557 -5.18121 1.90407 0
M  V30 4287 H 409.034 -4.37254 0.41301 0
M  V30 4288 H 409.64 -3.76811 1.97215 0
M  V30 4289 N 407.956 -0.998596 -1.21925 0
M  V30 4290 C 408.904 -0.546641 -2.26085 0
M  V30 4291 C 409.898 0.405576 -1.64473 0
M  V30 4292 O 411.104 0.277471 -1.77849 0
M  V30 4293 H 407.479 -0.158403 -0.735127 0
M  V30 4294 H 409.45 -1.43645 -2.61551 0
M  V30 4295 C 408.199 0.117388 -3.47502 0
M  V30 4296 H 407.522 -0.606277 -3.95176 0
M  V30 4297 H 408.962 0.396993 -4.22137 0
M  V30 4298 C 407.421 1.35455 -3.0847 0
M  V30 4299 O 407.951 2.44944 -3.18379 0
M  V30 4300 N 406.157 1.23191 -2.63196 0
M  V30 4301 H 405.704 0.341006 -2.55333 0
M  V30 4302 H 405.662 2.06071 -2.37449 0
M  V30 4303 N 409.434 1.37368 -0.772513 0
M  V30 4304 C 410.659 2.0447 -0.347386 0
M  V30 4305 C 411.084 1.57882 1.0225 0
M  V30 4306 O 410.442 0.73941 1.65537 0
M  V30 4307 C 410.49 3.58369 -0.400479 0
M  V30 4308 O 409.594 4.0803 0.598789 0
M  V30 4309 H 408.935 0.646773 -0.15027 0
M  V30 4310 H 411.465 1.75667 -1.04892 0
M  V30 4311 H 411.475 4.07183 -0.258045 0
M  V30 4312 H 410.15 3.91633 -1.39986 0
M  V30 4313 H 408.727 3.70534 0.419411 0
M  V30 4314 N 410.912 0.523116 1.48665 0
M  V30 4315 C 412.161 -0.01544 2.01694 0
M  V30 4316 C 412.474 -1.35975 1.40606 0
M  V30 4317 O 413.68 -1.98627 1.85093 0
M  V30 4318 C 412.136 -0.0779303 3.59816 0
M  V30 4319 C 411.744 1.26107 4.29885 0
M  V30 4320 C 413.488 -0.565678 4.20714 0
M  V30 4321 C 411.395 1.15954 5.79921 0
M  V30 4322 H 410.325 -0.00954163 0.75394 0
M  V30 4323 H 412.976 0.665865 1.70993 0
M  V30 4324 H 411.358 -0.824165 3.87329 0
M  V30 4325 H 412.532 2.02233 4.14051 0
M  V30 4326 H 410.847 1.68401 3.80828 0
M  V30 4327 H 413.444 -0.6595 5.30617 0
M  V30 4328 H 413.787 -1.56984 3.85567 0
M  V30 4329 H 414.32 0.12467 3.97605 0
M  V30 4330 H 411.059 2.13864 6.19631 0
M  V30 4331 H 410.579 0.439529 5.98187 0
M  V30 4332 H 412.258 0.847361 6.41427 0
M  V30 4333 N 412.39 -1.55475 0.257931 0
M  V30 4334 C 413.337 -2.21837 -0.636939 0
M  V30 4335 C 414.307 -1.18596 -1.16294 0
M  V30 4336 O 415.492 -1.47081 -1.21539 0
M  V30 4337 C 412.632 -2.9301 -1.82317 0
M  V30 4338 C 411.745 -4.10931 -1.33265 0
M  V30 4339 C 410.88 -4.69791 -2.47931 0
M  V30 4340 C 409.919 -5.7994 -1.95796 0
M  V30 4341 N 409.056 -6.32935 -3.0387 0
M  V30 4342 H 413.896 -2.9793 -0.0643591 0
M  V30 4343 H 411.433 -1.47086 -0.0200031 0
M  V30 4344 H 413.391 -3.3248 -2.52018 0
M  V30 4345 H 412.021 -2.1937 -2.36805 0
M  V30 4346 H 411.073 -3.76699 -0.52931 0
M  V30 4347 H 412.385 -4.90417 -0.910654 0
M  V30 4348 H 411.539 -5.11892 -3.25656 0
M  V30 4349 H 410.278 -3.89545 -2.93438 0
M  V30 4350 H 409.283 -5.37305 -1.16546 0
M  V30 4351 H 410.508 -6.62043 -1.51246 0
M  V30 4352 H 408.454 -5.55591 -3.48791 0
M  V30 4353 H 408.371 -7.07645 -2.66035 0
M  V30 4354 H 409.639 -6.79695 -3.81621 0
M  V30 4355 N 413.868 0.0150385 -1.57593 0
M  V30 4356 C 414.798 1.01047 -2.10503 0
M  V30 4357 C 415.779 1.36816 -1.01071 0
M  V30 4358 O 416.964 1.45455 -1.28672 0
M  V30 4359 C 414.094 2.30708 -2.59598 0
M  V30 4360 C 413.048 2.09142 -3.73421 0
M  V30 4361 C 412.374 3.44685 -4.08774 0
M  V30 4362 C 413.674 1.46619 -5.01298 0
M  V30 4363 H 415.368 0.569978 -2.93925 0
M  V30 4364 H 412.914 0.272724 -1.41394 0
M  V30 4365 H 414.867 3.00687 -2.95238 0
M  V30 4366 H 413.591 2.76843 -1.73279 0
M  V30 4367 H 412.25 1.41592 -3.38153 0
M  V30 4368 H 411.898 3.88495 -3.195 0
M  V30 4369 H 411.598 3.31077 -4.8545 0
M  V30 4370 H 413.122 4.16004 -4.4696 0
M  V30 4371 H 414.536 2.06535 -5.34805 0
M  V30 4372 H 412.933 1.43544 -5.82679 0
M  V30 4373 H 414.003 0.433611 -4.82957 0
M  V30 4374 N 415.346 1.54954 0.287554 0
M  V30 4375 C 416.757 1.65732 0.859634 0
M  V30 4376 C 417.108 0.574767 1.87592 0
M  V30 4377 O 416.233 -0.286299 2.14498 0
M  V30 4378 C 416.828 3.00438 1.56597 0
M  V30 4379 C 415.387 3.13292 2.08627 0
M  V30 4380 C 414.534 2.61473 0.923416 0
M  V30 4381 H 417.485 1.5857 0.0642338 0
M  V30 4382 H 417.506 2.92613 2.43224 0
M  V30 4383 H 417.018 3.79207 0.826053 0
M  V30 4384 H 415.119 2.39268 2.85625 0
M  V30 4385 H 415.232 4.19647 2.31157 0
M  V30 4386 H 413.596 2.18264 1.31275 0
M  V30 4387 H 414.379 3.42733 0.197241 0
M  V30 4388 N 416.824 -0.551391 1.4764 0
M  V30 4389 C 417.734 -1.68525 1.63207 0
M  V30 4390 C 418.75 -1.6621 0.514815 0
M  V30 4391 O 419.926 -1.85551 0.783113 0
M  V30 4392 C 416.991 -3.05025 1.64805 0
M  V30 4393 C 416.052 -3.18362 2.88 0
M  V30 4394 C 415.285 -4.4835 2.89513 0
M  V30 4395 O 415.508 -5.34163 2.00065 0
M  V30 4396 O 414.442 -4.65602 3.81443 0
M  V30 4397 H 418.268 -1.58333 2.59161 0
M  V30 4398 H 415.853 -0.722063 1.30792 0
M  V30 4399 H 417.735 -3.86245 1.68502 0
M  V30 4400 H 416.41 -3.15587 0.720197 0
M  V30 4401 H 415.317 -2.36518 2.89845 0
M  V30 4402 H 416.65 -3.12707 3.80099 0
M  V30 4403 N 418.302 -1.35869 -0.798587 0
M  V30 4404 C 419.212 -1.31578 -1.94228 0
M  V30 4405 C 420.228 -0.21939 -1.72611 0
M  V30 4406 O 421.404 -0.450167 -1.96305 0
M  V30 4407 C 418.469 -1.09528 -3.28944 0
M  V30 4408 C 417.53 -2.28556 -3.63402 0
M  V30 4409 C 416.763 -2.07549 -4.9169 0
M  V30 4410 O 416.986 -1.046 -5.60727 0
M  V30 4411 O 415.92 -2.95106 -5.24591 0
M  V30 4412 H 419.746 -2.27847 -2.00796 0
M  V30 4413 H 417.331 -1.16322 -0.937526 0
M  V30 4414 H 419.213 -0.991127 -4.09579 0
M  V30 4415 H 417.888 -0.16315 -3.23289 0
M  V30 4416 H 416.795 -2.44538 -2.83112 0
M  V30 4417 H 418.128 -3.20244 -3.73771 0
M  V30 4418 N 419.78 1.02168 -1.19998 0
M  V30 4419 C 420.727 2.10601 -0.944228 0
M  V30 4420 C 421.697 1.65639 0.123664 0
M  V30 4421 O 422.882 1.9079 -0.0199941 0
M  V30 4422 C 420.022 3.41504 -0.496865 0
M  V30 4423 C 419.135 3.99973 -1.63234 0
M  V30 4424 C 418.27 5.18915 -1.13579 0
M  V30 4425 C 417.309 5.69456 -2.24468 0
M  V30 4426 N 416.446 6.79665 -1.76068 0
M  V30 4427 H 421.286 2.31814 -1.8726 0
M  V30 4428 H 418.823 1.13686 -0.933483 0
M  V30 4429 H 420.781 4.16626 -0.218843 0
M  V30 4430 H 419.411 3.2038 0.394508 0
M  V30 4431 H 418.463 3.21997 -2.0254 0
M  V30 4432 H 419.775 4.33492 -2.46752 0
M  V30 4433 H 418.929 6.01222 -0.813429 0
M  V30 4434 H 417.668 4.8695 -0.270434 0
M  V30 4435 H 416.673 4.85757 -2.57526 0
M  V30 4436 H 417.898 6.03459 -3.11472 0
M  V30 4437 H 415.844 6.49538 -0.918516 0
M  V30 4438 H 415.761 7.12349 -2.5317 0
M  V30 4439 H 417.029 7.65549 -1.46817 0
M  V30 4440 N 421.258 1.00505 1.21394 0
M  V30 4441 C 422.205 0.565496 2.23765 0
M  V30 4442 C 423.175 -0.408466 1.60999 0
M  V30 4443 O 424.36 -0.310503 1.88257 0
M  V30 4444 C 421.5 -0.101667 3.4495 0
M  V30 4445 C 420.613 0.915479 4.22188 0
M  V30 4446 C 419.748 0.220574 5.30742 0
M  V30 4447 C 418.787 1.22527 5.99711 0
M  V30 4448 N 417.924 0.557831 6.9988 0
M  V30 4449 H 422.764 1.44314 2.60725 0
M  V30 4450 H 420.301 0.722643 1.28126 0
M  V30 4451 H 422.259 -0.505504 4.14126 0
M  V30 4452 H 420.889 -0.94303 3.08718 0
M  V30 4453 H 419.941 1.43756 3.52191 0
M  V30 4454 H 421.253 1.68005 4.69655 0
M  V30 4455 H 420.407 -0.239368 6.06228 0
M  V30 4456 H 419.146 -0.576401 4.84282 0
M  V30 4457 H 418.151 1.69571 5.22997 0
M  V30 4458 H 419.376 2.02332 6.48258 0
M  V30 4459 H 417.322 -0.219486 6.55633 0
M  V30 4460 H 417.239 1.26065 7.45415 0
M  V30 4461 H 418.507 0.121095 7.79406 0
M  V30 4462 N 422.737 -1.36956 0.779787 0
M  V30 4463 C 423.986 -1.98738 0.344405 0
M  V30 4464 C 424.299 -1.62596 -1.08728 0
M  V30 4465 O 425.505 -2.1754 -1.62445 0
M  V30 4466 C 423.961 -3.5544 0.564829 0
M  V30 4467 C 423.569 -4.00514 2.0073 0
M  V30 4468 C 425.313 -4.24059 0.193471 0
M  V30 4469 C 423.22 -5.49957 2.17489 0
M  V30 4470 H 422.15 -0.743561 0.12503 0
M  V30 4471 H 424.801 -1.56381 0.960057 0
M  V30 4472 H 423.183 -3.95817 -0.120397 0
M  V30 4473 H 424.357 -3.71362 2.72814 0
M  V30 4474 H 422.672 -3.44703 2.336 0
M  V30 4475 H 425.269 -5.33874 0.297097 0
M  V30 4476 H 425.612 -4.07378 -0.857263 0
M  V30 4477 H 426.145 -3.89012 0.831556 0
M  V30 4478 H 422.884 -5.71574 3.2091 0
M  V30 4479 H 422.404 -5.80767 1.49899 0
M  V30 4480 H 424.083 -6.16043 1.97738 0
M  V30 4481 N 424.215 -0.530993 -1.48385 0
M  V30 4482 C 425.125 0.23503 -2.3342 0
M  V30 4483 C 426.141 0.93801 -1.46552 0
M  V30 4484 O 427.317 0.912745 -1.7953 0
M  V30 4485 C 424.382 1.26778 -3.22689 0
M  V30 4486 C 423.443 0.575038 -4.25431 0
M  V30 4487 C 422.676 1.55858 -5.10435 0
M  V30 4488 O 422.899 2.79129 -4.97437 0
M  V30 4489 O 421.833 1.09742 -5.91811 0
M  V30 4490 H 425.659 -0.461794 -3.00169 0
M  V30 4491 H 423.244 -0.291903 -1.46521 0
M  V30 4492 H 425.126 1.86457 -3.77904 0
M  V30 4493 H 423.801 1.94699 -2.586 0
M  V30 4494 H 422.708 -0.0622782 -3.74048 0
M  V30 4495 H 424.041 -0.062253 -4.92161 0
M  V30 4496 N 425.693 1.55336 -0.266172 0
M  V30 4497 C 427.109 1.59356 0.0882065 0
M  V30 4498 C 427.309 1.2834 1.55342 0
M  V30 4499 O 426.365 1.03996 2.30089 0
M  V30 4500 C 427.678 2.99409 -0.278364 0
M  V30 4501 C 429.226 3.12196 -0.224243 0
M  V30 4502 C 429.701 4.545 -0.565123 0
M  V30 4503 N 431.192 4.60313 -0.51634 0
M  V30 4504 C 431.927 5.68434 -0.753013 0
M  V30 4505 N 431.423 6.84738 -1.05383 0
M  V30 4506 N 433.216 5.57942 -0.682414 0
M  V30 4507 H 425.367 1.73764 -1.22147 0
M  V30 4508 H 427.63 0.809822 -0.492841 0
M  V30 4509 H 427.336 3.2691 -1.29703 0
M  V30 4510 H 427.21 3.75228 0.385186 0
M  V30 4511 H 429.597 2.84464 0.78512 0
M  V30 4512 H 429.678 2.38609 -0.921922 0
M  V30 4513 H 429.322 4.82956 -1.57213 0
M  V30 4514 H 429.252 5.26374 0.154248 0
M  V30 4515 H 431.743 3.7676 -0.29335 0
M  V30 4516 H 432.056 7.63088 -1.22133 0
M  V30 4517 H 430.401 6.86375 -1.09151 0
M  V30 4518 H 433.592 4.65958 -0.44731 0
M  V30 4519 H 433.765 6.4213 -0.870248 0
M  V30 4520 N 427.171 -0.0066808 1.57599 0
M  V30 4521 C 428.418 -0.69292 1.90276 0
M  V30 4522 C 428.746 -1.74148 0.866192 0
M  V30 4523 O 428.001 -1.95268 -0.129933 0
M  V30 4524 C 428.3 -1.37939 3.29708 0
M  V30 4525 C 427.966 -0.464679 4.48499 0
M  V30 4526 C 426.628 -0.212809 4.80729 0
M  V30 4527 C 428.98 0.16551 5.20937 0
M  V30 4528 C 426.308 0.677653 5.82773 0
M  V30 4529 C 428.66 1.04381 6.23929 0
M  V30 4530 C 427.324 1.30492 6.54621 0
M  V30 4531 H 426.594 -0.253558 0.696268 0
M  V30 4532 H 429.241 0.0474123 1.91441 0
M  V30 4533 H 427.546 -2.1936 3.24636 0
M  V30 4534 H 429.243 -1.9163 3.52249 0
M  V30 4535 H 425.833 -0.671153 4.23313 0
M  V30 4536 H 430.017 -0.0160756 4.96297 0
M  V30 4537 H 425.273 0.88803 6.04917 0
M  V30 4538 H 429.447 1.53851 6.79193 0
M  V30 4539 H 427.074 1.99662 7.33512 0
M  V30 4540 N 428.649 -1.55105 -0.279332 0
M  V30 4541 C 429.596 -1.8755 -1.34513 0
M  V30 4542 C 430.566 -0.726384 -1.49375 0
M  V30 4543 O 431.751 -0.977063 -1.63884 0
M  V30 4544 C 428.891 -2.14738 -2.70151 0
M  V30 4545 C 428.004 -3.42285 -2.63562 0
M  V30 4546 C 427.139 -3.59206 -3.91337 0
M  V30 4547 C 426.178 -4.80467 -3.79233 0
M  V30 4548 N 425.315 -4.94079 -4.98829 0
M  V30 4549 H 430.155 -2.78456 -1.06143 0
M  V30 4550 H 427.692 -1.37867 -0.512936 0
M  V30 4551 H 429.65 -2.28501 -3.49061 0
M  V30 4552 H 428.28 -1.27075 -2.96735 0
M  V30 4553 H 427.332 -3.37029 -1.76397 0
M  V30 4554 H 428.644 -4.31328 -2.50515 0
M  V30 4555 H 427.798 -3.72751 -4.78687 0
M  V30 4556 H 426.537 -2.68337 -4.07243 0
M  V30 4557 H 425.542 -4.66932 -2.90266 0
M  V30 4558 H 426.767 -5.72765 -3.64852 0
M  V30 4559 H 424.713 -4.06139 -5.15158 0
M  V30 4560 H 424.63 -5.77156 -4.8829 0
M  V30 4561 H 425.898 -5.12003 -5.8777 0
M  V30 4562 N 430.127 0.543554 -1.4793 0
M  V30 4563 C 431.059 1.665 -1.57513 0
M  V30 4564 C 432.072 1.56156 -0.460333 0
M  V30 4565 O 433.261 1.62865 -0.730573 0
M  V30 4566 C 430.361 3.05063 -1.47614 0
M  V30 4567 C 429.534 3.41024 -2.739 0
M  V30 4568 C 428.593 4.58809 -2.57645 0
M  V30 4569 O 427.619 4.62707 -3.31498 0
M  V30 4570 N 428.821 5.56149 -1.66368 0
M  V30 4571 H 431.586 1.5872 -2.5422 0
M  V30 4572 H 429.147 0.730517 -1.44482 0
M  V30 4573 H 431.139 3.81712 -1.34455 0
M  V30 4574 H 429.709 3.06994 -0.589359 0
M  V30 4575 H 428.929 2.53687 -3.01723 0
M  V30 4576 H 430.217 3.61831 -3.57709 0
M  V30 4577 H 429.615 5.55767 -1.05543 0
M  V30 4578 H 428.172 6.32071 -1.59154 0
M  V30 4579 N 431.605 1.3629 0.791371 0
M  V30 4580 C 432.535 1.33137 1.91825 0
M  V30 4581 C 433.516 0.203168 1.68882 0
M  V30 4582 O 434.701 0.400509 1.90025 0
M  V30 4583 C 431.831 1.11793 3.28816 0
M  V30 4584 C 430.785 2.21417 3.66277 0
M  V30 4585 C 430.111 1.85218 5.01596 0
M  V30 4586 C 431.411 3.63489 3.75064 0
M  V30 4587 H 433.105 2.2743 1.9472 0
M  V30 4588 H 430.651 1.09479 0.935437 0
M  V30 4589 H 432.604 1.08222 4.07266 0
M  V30 4590 H 431.328 0.139501 3.26302 0
M  V30 4591 H 429.987 2.2411 2.90121 0
M  V30 4592 H 429.635 0.859544 4.95602 0
M  V30 4593 H 429.335 2.58611 5.27631 0
M  V30 4594 H 430.859 1.832 5.82469 0
M  V30 4595 H 432.273 3.63034 4.43711 0
M  V30 4596 H 430.67 4.35771 4.12582 0
M  V30 4597 H 431.74 3.98536 2.76219 0
M  V30 4598 N 433.083 -1.0153 1.20538 0
M  V30 4599 C 434.308 -1.79283 1.04271 0
M  V30 4600 C 434.733 -1.8372 -0.403544 0
M  V30 4601 O 434.091 -1.27321 -1.2907 0
M  V30 4602 C 434.139 -3.21535 1.63241 0
M  V30 4603 O 433.243 -4.03099 0.870908 0
M  V30 4604 H 432.584 -0.55293 0.367647 0
M  V30 4605 H 435.114 -1.27696 1.59859 0
M  V30 4606 H 435.124 -3.72243 1.6703 0
M  V30 4607 H 433.799 -3.1762 2.68497 0
M  V30 4608 H 432.376 -3.61693 0.907323 0
M  V30 4609 N 434.561 -1.01147 -1.20859 0
M  V30 4610 C 435.807 -0.698899 -1.90377 0
M  V30 4611 C 436.14 0.76904 -1.78324 0
M  V30 4612 O 435.415 1.55817 -1.16409 0
M  V30 4613 C 435.698 -1.12878 -3.41951 0
M  V30 4614 C 435.551 -2.65665 -3.62963 0
M  V30 4615 C 436.87 -0.696114 -4.3456 0
M  V30 4616 H 433.989 -0.255372 -0.691342 0
M  V30 4617 H 436.631 -1.25831 -1.42361 0
M  V30 4618 H 434.781 -0.652827 -3.82976 0
M  V30 4619 H 436.453 -3.21074 -3.31224 0
M  V30 4620 H 434.696 -3.06878 -3.06608 0
M  V30 4621 H 435.367 -2.90797 -4.69192 0
M  V30 4622 H 437.843 -1.10521 -4.01154 0
M  V30 4623 H 436.719 -1.025 -5.39245 0
M  V30 4624 H 436.98 0.402465 -4.40264 0
M  V30 4625 N 436.039 1.36541 -0.78704 0
M  V30 4626 C 437.287 1.98911 -0.357633 0
M  V30 4627 C 437.608 1.62778 1.07371 0
M  V30 4628 O 436.878 0.900612 1.73971 0
M  V30 4629 H 435.458 0.735734 -0.129246 0
M  V30 4630 H 438.12 1.66776 -1.00855 0
M  V30 4631 H 437.216 3.08874 -0.447549 0
M  V30 4632 N 437.518 0.538854 1.48102 0
M  V30 4633 C 438.929 0.100679 1.86428 0
M  V30 4634 C 439.28 -1.32447 1.44749 0
M  V30 4635 O 438.405 -1.99339 0.842199 0
M  V30 4636 C 439 0.175933 3.38343 0
M  V30 4637 C 437.559 -0.207098 3.7583 0
M  V30 4638 C 436.706 0.531741 2.72154 0
M  V30 4639 H 439.657 0.749614 1.3988 0
M  V30 4640 H 439.678 -0.610144 3.75576 0
M  V30 4641 H 439.19 1.21328 3.68648 0
M  V30 4642 H 437.291 -1.24626 3.5114 0
M  V30 4643 H 437.404 0.138687 4.78899 0
M  V30 4644 H 435.768 -0.0230462 2.5469 0
M  V30 4645 H 436.551 1.56989 3.05302 0
M  V30 4646 N 438.996 -1.55193 0.274407 0
M  V30 4647 C 439.926 -2.25471 -0.607032 0
M  V30 4648 C 440.907 -1.24461 -1.15946 0
M  V30 4649 O 442.092 -1.53179 -1.19373 0
M  V30 4650 C 439.222 -2.97526 -1.79153 0
M  V30 4651 C 438.176 -4.05459 -1.37067 0
M  V30 4652 C 437.502 -4.65084 -2.6382 0
M  V30 4653 C 438.802 -5.19691 -0.521389 0
M  V30 4654 H 440.496 -2.99393 -0.0209343 0
M  V30 4655 H 438.042 -1.43997 -0.00862866 0
M  V30 4656 H 439.995 -3.45402 -2.41404 0
M  V30 4657 H 438.719 -2.21138 -2.40344 0
M  V30 4658 H 437.378 -3.58393 -0.771355 0
M  V30 4659 H 437.026 -3.85365 -3.23268 0
M  V30 4660 H 436.726 -5.37961 -2.36372 0
M  V30 4661 H 438.25 -5.15708 -3.26921 0
M  V30 4662 H 439.664 -5.63623 -1.04889 0
M  V30 4663 H 438.061 -5.99126 -0.341825 0
M  V30 4664 H 439.131 -4.82713 0.46 0
M  V30 4665 N 440.474 -0.00167713 -1.576 0
M  V30 4666 C 441.404 0.988091 -2.11563 0
M  V30 4667 C 442.385 1.35736 -1.02517 0
M  V30 4668 O 443.57 1.44082 -1.30208 0
M  V30 4669 C 440.7 2.27941 -2.62031 0
M  V30 4670 C 439.654 2.0517 -3.75619 0
M  V30 4671 C 438.98 3.4033 -4.12407 0
M  V30 4672 C 440.28 1.41294 -5.02825 0
M  V30 4673 H 441.974 0.538771 -2.94513 0
M  V30 4674 H 439.52 0.257712 -1.41675 0
M  V30 4675 H 441.473 2.97539 -2.9841 0
M  V30 4676 H 440.197 2.74989 -1.76205 0
M  V30 4677 H 438.856 1.37998 -3.39635 0
M  V30 4678 H 438.504 3.85085 -3.23603 0
M  V30 4679 H 438.204 3.25909 -4.88935 0
M  V30 4680 H 439.728 4.1124 -4.51347 0
M  V30 4681 H 441.142 2.00851 -5.36965 0
M  V30 4682 H 439.539 1.37356 -5.84169 0
M  V30 4683 H 440.609 0.382362 -4.8339 0
M  V30 4684 N 441.952 1.55251 0.271103 0
M  V30 4685 C 442.915 1.87484 1.31842 0
M  V30 4686 C 443.915 0.749545 1.42262 0
M  V30 4687 O 445.105 1.01771 1.4138 0
M  V30 4688 C 442.237 2.0818 2.69951 0
M  V30 4689 H 443.43 2.81108 1.0449 0
M  V30 4690 H 440.983 1.47771 0.509258 0
M  V30 4691 H 441.718 1.16944 3.02481 0
M  V30 4692 H 441.503 2.90114 2.63774 0
M  V30 4693 H 442.993 2.34385 3.4562 0
M  V30 4694 N 443.43 -0.535701 1.48216 0
M  V30 4695 C 444.34 -1.66785 1.64985 0
M  V30 4696 C 445.356 -1.65654 0.532414 0
M  V30 4697 O 446.532 -1.8471 0.80275 0
M  V30 4698 C 443.597 -3.0326 1.68031 0
M  V30 4699 C 442.658 -3.1529 2.9136 0
M  V30 4700 C 441.891 -4.45255 2.94252 0
M  V30 4701 O 442.114 -5.32011 2.05719 0
M  V30 4702 O 441.048 -4.6153 3.86359 0
M  V30 4703 H 444.874 -1.55576 2.60825 0
M  V30 4704 H 442.459 -0.70815 1.31551 0
M  V30 4705 H 444.341 -3.84436 1.72589 0
M  V30 4706 H 443.016 -3.14805 0.753628 0
M  V30 4707 H 441.923 -2.3343 2.92337 0
M  V30 4708 H 443.256 -3.08658 3.83394 0
M  V30 4709 N 444.908 -1.36708 -0.784132 0
M  V30 4710 C 445.871 -1.31307 -1.87859 0
M  V30 4711 C 446.871 -0.219654 -1.59293 0
M  V30 4712 O 448.061 -0.47476 -1.67606 0
M  V30 4713 C 445.193 -1.03679 -3.24751 0
M  V30 4714 H 446.386 -2.28647 -1.94064 0
M  V30 4715 H 443.939 -1.21558 -0.98252 0
M  V30 4716 H 444.674 -0.0681936 -3.24228 0
M  V30 4717 H 444.459 -1.82811 -3.46876 0
M  V30 4718 H 445.949 -1.02518 -4.04821 0
M  V30 4719 N 446.386 1.0089 -1.21074 0
M  V30 4720 C 447.635 1.74019 -1.01981 0
M  V30 4721 C 447.948 1.90408 0.447665 0
M  V30 4722 O 449.154 2.60707 0.757906 0
M  V30 4723 C 447.61 3.13026 -1.77603 0
M  V30 4724 C 447.218 3.04623 -3.28495 0
M  V30 4725 C 448.962 3.90312 -1.66904 0
M  V30 4726 C 446.869 4.38685 -3.96623 0
M  V30 4727 H 445.799 0.652422 -0.377971 0
M  V30 4728 H 448.45 1.12755 -1.44771 0
M  V30 4729 H 446.832 3.74878 -1.27604 0
M  V30 4730 H 448.006 2.52032 -3.85767 0
M  V30 4731 H 446.321 2.40827 -3.39693 0
M  V30 4732 H 448.918 4.8951 -2.15138 0
M  V30 4733 H 449.261 4.11558 -0.62658 0
M  V30 4734 H 449.794 3.35104 -2.14359 0
M  V30 4735 H 446.533 4.22641 -5.01054 0
M  V30 4736 H 446.053 4.91252 -3.4414 0
M  V30 4737 H 447.732 5.075 -4.01314 0
M  V30 4738 N 447.864 1.01787 1.20321 0
M  V30 4739 C 449.113 0.703249 1.89043 0
M  V30 4740 C 449.426 -0.770445 1.79787 0
M  V30 4741 O 450.632 -1.19767 2.43656 0
M  V30 4742 C 449.088 1.20749 3.3904 0
M  V30 4743 C 448.696 2.70817 3.56878 0
M  V30 4744 C 450.44 0.968352 4.13308 0
M  V30 4745 C 448.347 3.14716 5.00708 0
M  V30 4746 H 447.277 0.259354 0.707991 0
M  V30 4747 H 449.928 1.23072 1.36108 0
M  V30 4748 H 448.31 0.607989 3.91305 0
M  V30 4749 H 449.484 3.36327 3.14993 0
M  V30 4750 H 447.799 2.92888 2.95983 0
M  V30 4751 H 450.396 1.27173 5.19356 0
M  V30 4752 H 450.739 -0.095149 4.16191 0
M  V30 4753 H 451.272 1.53129 3.67146 0
M  V30 4754 H 448.011 4.20347 5.02979 0
M  V30 4755 H 447.531 2.53927 5.43398 0
M  V30 4756 H 449.21 3.07426 5.69296 0
M  V30 4757 N 449.342 -1.36122 0.79427 0
M  V30 4758 C 450.758 -1.5232 0.476525 0
M  V30 4759 C 450.958 -1.74685 -1.00436 0
M  V30 4760 O 450.014 -1.78115 -1.78973 0
M  V30 4761 C 451.327 -2.70607 1.31119 0
M  V30 4762 C 452.875 -2.8448 1.30537 0
M  V30 4763 C 453.35 -4.05778 2.12387 0
M  V30 4764 N 454.841 -4.12933 2.09859 0
M  V30 4765 C 455.576 -5.05876 2.69957 0
M  V30 4766 N 455.072 -6.04232 3.38934 0
M  V30 4767 N 456.865 -4.98528 2.59665 0
M  V30 4768 H 449.016 -1.1986 1.75349 0
M  V30 4769 H 451.279 -0.585418 0.745647 0
M  V30 4770 H 450.985 -2.60619 2.36158 0
M  V30 4771 H 450.859 -3.64888 0.955843 0
M  V30 4772 H 453.246 -2.93927 0.262876 0
M  V30 4773 H 453.327 -1.91093 1.70051 0
M  V30 4774 H 452.971 -3.97092 3.1667 0
M  V30 4775 H 452.901 -4.98323 1.70242 0
M  V30 4776 H 455.392 -3.42515 1.59662 0
M  V30 4777 H 455.705 -6.71724 3.82109 0
M  V30 4778 H 454.05 -6.04443 3.43036 0
M  V30 4779 H 457.241 -4.20641 2.05375 0
M  V30 4780 H 457.414 -5.70773 3.06793 0
M  V30 4781 N 450.82 -0.546701 -1.47814 0
M  V30 4782 C 452.066 -0.0187684 -2.02791 0
M  V30 4783 C 452.399 1.32338 -1.42128 0
M  V30 4784 O 451.674 1.85867 -0.573023 0
M  V30 4785 C 451.957 0.0854985 -3.59998 0
M  V30 4786 C 451.81 -1.283 -4.31114 0
M  V30 4787 C 453.129 0.80412 -4.32691 0
M  V30 4788 H 450.248 -0.0082946 -0.736953 0
M  V30 4789 H 452.89 -0.706962 -1.76358 0
M  V30 4790 H 451.04 0.671609 -3.82651 0
M  V30 4791 H 452.712 -1.91151 -4.19832 0
M  V30 4792 H 450.955 -1.86049 -3.91878 0
M  V30 4793 H 451.626 -1.16287 -5.39612 0
M  V30 4794 H 454.102 0.306576 -4.14969 0
M  V30 4795 H 452.978 0.846011 -5.42341 0
M  V30 4796 H 453.239 1.85802 -4.01161 0
M  V30 4797 N 452.299 1.55045 -0.282633 0
M  V30 4798 C 453.249 2.19514 0.616249 0
M  V30 4799 C 454.233 1.16216 1.11277 0
M  V30 4800 O 455.425 1.42004 1.05659 0
M  V30 4801 C 452.554 2.92548 1.7964 0
M  V30 4802 C 451.64 4.03142 1.31671 0
M  V30 4803 N 452.031 5.0276 0.553695 0
M  V30 4804 C 450.329 4.1635 1.59903 0
M  V30 4805 C 451.03 5.80923 0.30054 0
M  V30 4806 N 450.006 5.3651 0.875116 0
M  V30 4807 H 453.808 2.93889 0.0255363 0
M  V30 4808 H 451.322 1.62169 -0.0865362 0
M  V30 4809 H 453.319 3.37188 2.45173 0
M  V30 4810 H 451.979 2.19685 2.39099 0
M  V30 4811 H 452.99 5.17512 0.20032 0
M  V30 4812 H 449.667 3.54682 2.20243 0
M  V30 4813 H 451.057 6.7118 -0.311053 0
M  V30 4814 N 453.777 0.010035 1.57597 0
M  V30 4815 C 454.687 -0.994226 2.12491 0
M  V30 4816 C 455.703 -1.37013 1.07254 0
M  V30 4817 O 456.879 -1.45542 1.3921 0
M  V30 4818 C 453.944 -2.2642 2.62555 0
M  V30 4819 C 453.005 -1.95049 3.82432 0
M  V30 4820 C 452.238 -3.15991 4.30099 0
M  V30 4821 O 452.461 -4.28015 3.7704 0
M  V30 4822 O 451.395 -2.99403 5.22151 0
M  V30 4823 H 455.221 -0.557549 2.98538 0
M  V30 4824 H 452.806 -0.209413 1.47925 0
M  V30 4825 H 454.688 -3.01009 2.9491 0
M  V30 4826 H 453.363 -2.69306 1.796 0
M  V30 4827 H 452.27 -1.17904 3.55034 0
M  V30 4828 H 453.603 -1.56992 4.66491 0
M  V30 4829 N 455.255 -1.55392 -0.262866 0
M  V30 4830 C 456.187 -1.85392 -1.34768 0
M  V30 4831 C 457.2 -0.739069 -1.45057 0
M  V30 4832 O 458.389 -1.01703 -1.46693 0
M  V30 4833 C 455.489 -2.01088 -2.72795 0
M  V30 4834 C 454.662 -3.31828 -2.84972 0
M  V30 4835 C 453.721 -3.37464 -4.03738 0
M  V30 4836 O 452.747 -4.10778 -3.94018 0
M  V30 4837 N 453.949 -2.65599 -5.16176 0
M  V30 4838 H 456.714 -2.79029 -1.09375 0
M  V30 4839 H 454.275 -1.55434 -0.452981 0
M  V30 4840 H 456.267 -2.02217 -3.50557 0
M  V30 4841 H 454.837 -1.1427 -2.90966 0
M  V30 4842 H 454.057 -3.43152 -1.94012 0
M  V30 4843 H 455.345 -4.18032 -2.90045 0
M  V30 4844 H 454.743 -2.05736 -5.26962 0
M  V30 4845 H 453.3 -2.72439 -5.92132 0
M  V30 4846 N 456.733 0.527833 -1.48498 0
M  V30 4847 C 457.665 1.6482 -1.5927 0
M  V30 4848 C 458.678 1.55659 -0.476869 0
M  V30 4849 O 459.867 1.62081 -0.747806 0
M  V30 4850 C 456.967 3.0348 -1.50842 0
M  V30 4851 C 456.14 3.381 -2.77502 0
M  V30 4852 C 455.199 4.5605 -2.62497 0
M  V30 4853 O 454.225 4.59165 -3.36387 0
M  V30 4854 N 455.427 5.54353 -1.72257 0
M  V30 4855 H 458.192 1.56015 -2.55889 0
M  V30 4856 H 455.753 0.715152 -1.45249 0
M  V30 4857 H 457.745 3.80264 -1.38496 0
M  V30 4858 H 456.315 3.06352 -0.621887 0
M  V30 4859 H 455.535 2.50473 -3.04396 0
M  V30 4860 H 456.823 3.58017 -3.61527 0
M  V30 4861 H 456.221 5.54617 -1.11431 0
M  V30 4862 H 454.778 6.30347 -1.65849 0
M  V30 4863 N 458.211 1.37122 0.776871 0
M  V30 4864 C 459.436 1.354 1.57104 0
M  V30 4865 C 459.861 -0.0595562 1.88006 0
M  V30 4866 O 459.219 -1.03514 1.48844 0
M  V30 4867 C 459.267 2.19472 2.8612 0
M  V30 4868 O 458.371 1.59582 3.80273 0
M  V30 4869 H 457.712 0.462869 0.476076 0
M  V30 4870 H 460.242 1.80577 0.961932 0
M  V30 4871 H 460.252 2.32502 3.35271 0
M  V30 4872 H 458.927 3.22222 2.62956 0
M  V30 4873 H 457.504 1.55564 3.38902 0
M  V30 4874 N 459.689 -1.00246 1.21608 0
M  V30 4875 C 460.935 -1.74319 1.03638 0
M  V30 4876 C 461.268 -1.89408 -0.428749 0
M  V30 4877 O 460.543 -1.43026 -1.3181 0
M  V30 4878 C 460.826 -3.15431 1.73711 0
M  V30 4879 C 460.679 -3.08049 3.27759 0
M  V30 4880 C 461.998 -4.14407 1.48173 0
M  V30 4881 H 459.117 -0.632741 0.377899 0
M  V30 4882 H 461.759 -1.16853 1.49818 0
M  V30 4883 H 459.909 -3.64493 1.34452 0
M  V30 4884 H 461.581 -2.66681 3.76403 0
M  V30 4885 H 459.824 -2.45088 3.57931 0
M  V30 4886 H 460.495 -4.07862 3.71958 0
M  V30 4887 H 462.971 -3.74061 1.82258 0
M  V30 4888 H 461.847 -5.11279 1.99713 0
M  V30 4889 H 462.108 -4.40174 0.412273 0
M  V30 4890 N 461.167 -1.02423 -1.1978 0
M  V30 4891 C 462.392 -0.7373 -1.93852 0
M  V30 4892 C 462.817 0.696923 -1.74713 0
M  V30 4893 O 462.175 1.48056 -1.04638 0
M  V30 4894 C 462.223 -1.08783 -3.438 0
M  V30 4895 O 461.327 -0.20383 -4.11896 0
M  V30 4896 H 460.668 -0.27284 -0.605355 0
M  V30 4897 H 463.198 -1.36966 -1.51992 0
M  V30 4898 H 463.208 -1.04276 -3.9445 0
M  V30 4899 H 461.883 -2.13274 -3.57053 0
M  V30 4900 H 460.46 -0.307091 -3.71633 0
M  V30 4901 N 462.645 1.35699 -0.801477 0
M  V30 4902 C 463.875 2.02862 -0.3912 0
M  V30 4903 C 464.283 1.60552 1.00099 0
M  V30 4904 O 463.626 0.796215 1.65548 0
M  V30 4905 C 463.688 3.57386 -0.389299 0
M  V30 4906 C 463.352 4.22943 -1.73113 0
M  V30 4907 C 464.349 4.44984 -2.68859 0
M  V30 4908 C 462.034 4.60167 -2.01373 0
M  V30 4909 C 464.028 5.03345 -3.91053 0
M  V30 4910 C 461.715 5.18243 -3.23832 0
M  V30 4911 C 462.713 5.39773 -4.1849 0
M  V30 4912 O 462.401 5.96626 -5.38788 0
M  V30 4913 H 462.133 0.657341 -0.157732 0
M  V30 4914 H 464.687 1.74407 -1.08496 0
M  V30 4915 H 462.917 3.85011 0.361031 0
M  V30 4916 H 464.606 4.059 -0.0020365 0
M  V30 4917 H 465.372 4.1661 -2.48316 0
M  V30 4918 H 461.251 4.42726 -1.28508 0
M  V30 4919 H 464.795 5.20065 -4.64949 0
M  V30 4920 H 460.692 5.46044 -3.44248 0
M  V30 4921 H 461.46 6.15082 -5.40015 0
M  V30 4922 N 464.123 0.554532 1.47522 0
M  V30 4923 C 465.053 -0.182974 2.32782 0
M  V30 4924 C 466.034 -0.911377 1.43624 0
M  V30 4925 O 467.219 -0.892366 1.72483 0
M  V30 4926 C 464.349 -1.21513 3.25349 0
M  V30 4927 C 463.303 -0.603355 4.23726 0
M  V30 4928 C 462.629 -1.73995 5.05598 0
M  V30 4929 C 463.929 0.441121 5.20434 0
M  V30 4930 H 465.623 0.52882 2.94693 0
M  V30 4931 H 463.169 0.255759 1.41711 0
M  V30 4932 H 465.122 -1.73922 3.83835 0
M  V30 4933 H 463.846 -1.95683 2.61487 0
M  V30 4934 H 462.505 -0.10059 3.66462 0
M  V30 4935 H 462.153 -2.47063 4.38143 0
M  V30 4936 H 461.853 -1.3364 5.72201 0
M  V30 4937 H 463.377 -2.26735 5.66942 0
M  V30 4938 H 464.791 0.00319931 5.733 0
M  V30 4939 H 463.188 0.763402 5.95224 0
M  V30 4940 H 464.258 1.33799 4.66075 0
M  V30 4941 N 465.601 -1.54893 0.290851 0
M  V30 4942 C 466.848 -1.99933 -0.321391 0
M  V30 4943 C 467.176 -1.17927 -1.54672 0
M  V30 4944 O 466.431 -0.240902 -1.94212 0
M  V30 4945 C 466.73 -3.49815 -0.732397 0
M  V30 4946 C 466.396 -4.4921 0.390056 0
M  V30 4947 C 465.058 -4.76107 0.698223 0
M  V30 4948 C 467.41 -5.08453 1.14562 0
M  V30 4949 C 464.738 -5.59514 1.76526 0
M  V30 4950 C 467.09 -5.9302 2.2025 0
M  V30 4951 C 465.754 -6.18232 2.51684 0
M  V30 4952 H 465.024 -0.731608 -0.117605 0
M  V30 4953 H 467.671 -1.87107 0.407839 0
M  V30 4954 H 465.976 -3.60199 -1.54155 0
M  V30 4955 H 467.673 -3.82083 -1.21712 0
M  V30 4956 H 464.263 -4.28372 0.13976 0
M  V30 4957 H 468.447 -4.87683 0.920801 0
M  V30 4958 H 463.703 -5.77289 2.01364 0
M  V30 4959 H 467.877 -6.37955 2.7926 0
M  V30 4960 H 465.504 -6.82653 3.34499 0
M  V30 4961 N 467.08 -0.0183926 -1.57589 0
M  V30 4962 C 468.305 0.676634 -1.96052 0
M  V30 4963 C 468.73 1.6548 -0.894307 0
M  V30 4964 O 468.088 1.80712 0.145849 0
M  V30 4965 C 468.136 1.36872 -3.33614 0
M  V30 4966 O 467.24 2.48372 -3.29219 0
M  V30 4967 H 466.581 0.1786 -0.63953 0
M  V30 4968 H 469.111 -0.077056 -2.04455 0
M  V30 4969 H 469.121 1.72797 -3.69601 0
M  V30 4970 H 467.796 0.651636 -4.10763 0
M  V30 4971 H 466.373 2.14639 -3.04934 0
M  V30 4972 O 468.597 1.61027 0.12348 0
M  V30 4973 H 469.288 1.78369 0.755254 0
M  V30 END ATOM
M  V30 BEGIN BOND
M  V30 END BOND
M  V30 END CTAB
M  END
$$$$
