drugbank_target|P14174 Macrophage migration inhibitory factor (DB01880; DB02728; DB07718; DB07888; DB08333; DB08334; DB08335; DB08765)
 OpenBabel12092120013D

  0  0  0     0  0            999 V3000
M  V30 BEGIN CTAB
M  V30 COUNTS 1742 1762 0 0 0
M  V30 BEGIN ATOM
M  V30 1 H -0.908 1.98254 -0.117106 0
M  V30 2 N 0 1.576 0 0
M  V30 3 C 0.933 2.03868 1.02534 0
M  V30 4 C 1.911 0.928543 1.3348 0
M  V30 5 O 3.095 1.19667 1.45644 0
M  V30 6 C 0.222 2.43627 2.35294 0
M  V30 7 C -0.732 3.65373 2.2001 0
M  V30 8 S 0.101 5.13292 1.52614 0
M  V30 9 C 1.257 5.56322 2.86805 0
M  V30 10 H 1.49 2.90518 0.631377 0
M  V30 11 H -0.977 1.52953 0.210867 0
M  V30 12 H 0.981 2.67203 3.11629 0
M  V30 13 H -0.358 1.57376 2.7183 0
M  V30 14 H -1.165 3.90944 3.18086 0
M  V30 15 H -1.563 3.418 1.51819 0
M  V30 16 H 0.729 5.58782 3.83104 0
M  V30 17 H 1.672 6.56266 2.65933 0
M  V30 18 H 2.08 4.83886 2.90714 0
M  V30 19 N 1.4781 -0.272755 1.55222 0
M  V30 20 C 2.8891 -0.84378 1.66545 0
M  V30 21 C 3.2401 -1.87035 0.592641 0
M  V30 22 O 2.3651 -2.14761 -0.265818 0
M  V30 23 C 2.9601 -1.53723 3.01918 0
M  V30 24 C 1.5191 -2.05628 3.15268 0
M  V30 25 C 0.6661 -0.898424 2.62343 0
M  V30 26 H 3.6171 -0.0490998 1.58624 0
M  V30 27 H 3.6381 -2.40421 2.94921 0
M  V30 28 H 3.1501 -0.78983 3.79978 0
M  V30 29 H 1.2511 -2.83329 2.41983 0
M  V30 30 H 1.3641 -2.27142 4.21833 0
M  V30 31 H -0.2719 -1.29186 2.19506 0
M  V30 32 H 0.5111 -0.164528 3.42906 0
M  V30 33 N 2.9562 -1.48159 -0.537278 0
M  V30 34 C 3.8892 -1.567 -1.65893 0
M  V30 35 C 4.8672 -0.41787 -1.57139 0
M  V30 36 O 6.0512 -0.628461 -1.77715 0
M  V30 37 C 3.1782 -1.48818 -3.04255 0
M  V30 38 C 2.2242 -2.68482 -3.31391 0
M  V30 39 S 3.0572 -4.30516 -3.1846 0
M  V30 40 C 4.2132 -4.2522 -4.59281 0
M  V30 41 H 4.4462 -2.5159 -1.58397 0
M  V30 42 H 1.9792 -1.36602 -0.719672 0
M  V30 43 H 3.9372 -1.44958 -3.84054 0
M  V30 44 H 2.5982 -0.552777 -3.09198 0
M  V30 45 H 1.7912 -2.59085 -4.32309 0
M  V30 46 H 1.3932 -2.69567 -2.59248 0
M  V30 47 H 3.6852 -3.94703 -5.5065 0
M  V30 48 H 4.6282 -5.26292 -4.73732 0
M  V30 49 H 5.0362 -3.55791 -4.38261 0
M  V30 50 N 4.4343 0.785586 -1.36625 0
M  V30 51 C 5.6813 1.54362 -1.31067 0
M  V30 52 C 6.0093 1.94195 0.10893 0
M  V30 53 O 5.2643 1.63262 1.07908 0
M  V30 54 C 5.5633 2.83007 -2.1827 0
M  V30 55 C 5.2293 2.62294 -3.6676 0
M  V30 56 C 3.8913 2.56353 -4.0723 0
M  V30 57 C 6.2433 2.43371 -4.6089 0
M  V30 58 C 3.5713 2.29461 -5.39967 0
M  V30 59 C 5.9233 2.18005 -5.93849 0
M  V30 60 C 4.5873 2.105 -6.3344 0
M  V30 61 H 3.8573 0.564851 -0.479609 0
M  V30 62 H 6.5043 0.906028 -1.68711 0
M  V30 63 H 4.8093 3.51253 -1.73576 0
M  V30 64 H 6.5063 3.40817 -2.11292 0
M  V30 65 H 3.0963 2.67774 -3.34656 0
M  V30 66 H 7.2803 2.46959 -4.30494 0
M  V30 67 H 2.5363 2.22135 -5.69619 0
M  V30 68 H 6.7103 2.02359 -6.66351 0
M  V30 69 H 4.3373 1.89425 -7.36222 0
M  V30 70 N 5.9124 1.20967 1.01018 0
M  V30 71 C 7.1614 1.01796 1.74128 0
M  V30 72 C 7.4744 -0.449691 1.90361 0
M  V30 73 O 8.6804 -0.76068 2.60626 0
M  V30 74 C 7.1364 1.7727 3.13215 0
M  V30 75 C 6.7444 3.28171 3.04972 0
M  V30 76 C 8.4884 1.66489 3.90489 0
M  V30 77 C 6.3954 3.96156 4.39107 0
M  V30 78 H 5.3254 0.377276 0.652824 0
M  V30 79 H 7.9764 1.44651 1.12909 0
M  V30 80 H 6.3584 1.27205 3.75013 0
M  V30 81 H 7.5324 3.85499 2.52443 0
M  V30 82 H 5.8474 3.39437 2.41188 0
M  V30 83 H 8.4444 2.14617 4.89738 0
M  V30 84 H 8.7874 0.6222 4.11624 0
M  V30 85 H 9.3204 2.14003 3.35332 0
M  V30 86 H 6.0594 5.00604 4.23174 0
M  V30 87 H 5.5794 3.43617 4.91617 0
M  V30 88 H 7.2584 4.00774 5.07926 0
M  V30 89 N 7.3905 -1.2043 1.01659 0
M  V30 90 C 8.6365 -1.90079 0.706963 0
M  V30 91 C 8.9695 -1.78648 -0.761474 0
M  V30 92 O 8.2445 -1.17069 -1.55323 0
M  V30 93 C 8.5275 -3.41469 1.14327 0
M  V30 94 C 8.3805 -3.61833 2.67201 0
M  V30 95 C 9.6995 -4.34261 0.714529 0
M  V30 96 H 6.8185 -0.690254 0.2583 0
M  V30 97 H 9.4605 -1.41826 1.26433 0
M  V30 98 H 7.6105 -3.82696 0.669056 0
M  V30 99 H 9.2825 -3.2986 3.22475 0
M  V30 100 H 7.5255 -3.05304 3.08175 0
M  V30 101 H 8.1965 -4.67955 2.92783 0
M  V30 102 H 10.6725 -4.00682 1.12221 0
M  V30 103 H 9.5485 -5.38806 1.04784 0
M  V30 104 H 9.8095 -4.40431 -0.383799 0
M  V30 105 N 8.8686 -0.792821 -1.36206 0
M  V30 106 C 9.8166 -0.181555 -2.3189 0
M  V30 107 C 10.8106 0.661025 -1.55971 0
M  V30 108 O 12.0166 0.555728 -1.71206 0
M  V30 109 H 8.3916 -0.0399382 -0.750939 0
M  V30 110 H 10.3626 -1.00394 -2.81005 0
M  V30 111 C 9.1116 0.666444 -3.41253 0
M  V30 112 H 8.4346 0.0274489 -3.99791 0
M  V30 113 H 9.8746 1.06076 -4.10517 0
M  V30 114 C 8.3336 1.82614 -2.83114 0
M  V30 115 O 8.8636 2.9229 -2.75553 0
M  V30 116 N 7.0696 1.63333 -2.40356 0
M  V30 117 H 6.6166 0.741217 -2.46706 0
M  V30 118 H 6.5746 2.41087 -2.01803 0
M  V30 119 N 10.3467 1.47872 -0.545128 0
M  V30 120 C 11.5747 2.06889 -0.021084 0
M  V30 121 C 11.9897 1.39955 1.2672 0
M  V30 122 O 11.3467 0.492036 1.75742 0
M  V30 123 C 11.3977 3.60996 0.190817 0
M  V30 124 O 11.1187 4.25419 -1.04644 0
M  V30 125 C 12.6197 4.36849 0.753521 0
M  V30 126 H 9.8397 0.669785 -0.0403635 0
M  V30 127 H 12.3837 1.90049 -0.755095 0
M  V30 128 H 10.5387 3.77391 0.87492 0
M  V30 129 H 10.9527 5.17785 -0.836611 0
M  V30 130 H 12.4267 5.45399 0.851139 0
M  V30 131 H 12.9037 4.02306 1.762 0
M  V30 132 H 13.5097 4.25169 0.105503 0
M  V30 133 N 11.8248 0.280983 1.55075 0
M  V30 134 C 12.7728 -0.619864 2.24188 0
M  V30 135 C 13.7668 -1.15315 1.24092 0
M  V30 136 O 14.9728 -1.1061 1.42005 0
M  V30 137 H 11.3478 -0.218459 0.719569 0
M  V30 138 H 13.3188 -0.0141831 2.98397 0
M  V30 139 C 12.0678 -1.7899 2.98091 0
M  V30 140 H 11.3908 -1.38874 3.74905 0
M  V30 141 H 12.8308 -2.39672 3.49762 0
M  V30 142 C 11.2898 -2.68192 2.03899 0
M  V30 143 O 11.8198 -3.6872 1.594 0
M  V30 144 N 10.0258 -2.35488 1.70275 0
M  V30 145 H 9.5728 -1.53787 2.06658 0
M  V30 146 H 9.5308 -2.95442 1.07524 0
M  V30 147 N 13.3029 -1.57598 0.00835791 0
M  V30 148 C 14.5489 -1.91211 -0.675732 0
M  V30 149 C 14.8819 -0.883139 -1.72958 0
M  V30 150 O 14.1569 0.097016 -1.94258 0
M  V30 151 C 14.4399 -3.35379 -1.31123 0
M  V30 152 C 14.2929 -4.48999 -0.268356 0
M  V30 153 C 15.6119 -3.7912 -2.23508 0
M  V30 154 H 12.7309 -0.695374 -0.244179 0
M  V30 155 H 15.3729 -1.89901 0.0613655 0
M  V30 156 H 13.5229 -3.36626 -1.93946 0
M  V30 157 H 15.1949 -4.59887 0.360844 0
M  V30 158 H 13.4379 -4.31873 0.408482 0
M  V30 159 H 14.1089 -5.46851 -0.752218 0
M  V30 160 H 16.5849 -3.79477 -1.70693 0
M  V30 161 H 15.4609 -4.80729 -2.64936 0
M  V30 162 H 15.7219 -3.13455 -3.11766 0
M  V30 163 N 14.781 0.264519 -1.55364 0
M  V30 164 C 16.192 0.834936 -1.6699 0
M  V30 165 C 16.543 1.86718 -0.602552 0
M  V30 166 O 15.668 2.14899 0.254425 0
M  V30 167 C 16.263 1.5212 -3.02729 0
M  V30 168 C 14.822 2.03954 -3.16354 0
M  V30 169 C 13.969 0.884498 -2.62815 0
M  V30 170 H 16.92 0.0406869 -1.58648 0
M  V30 171 H 16.941 2.38853 -2.96191 0
M  V30 172 H 16.453 0.769668 -3.80392 0
M  V30 173 H 14.554 2.82041 -2.43482 0
M  V30 174 H 14.667 2.24902 -4.23032 0
M  V30 175 H 13.031 1.2802 -2.20188 0
M  V30 176 H 13.814 0.14634 -3.42988 0
M  V30 177 N 16.2591 1.48442 0.529413 0
M  V30 178 C 17.6751 1.34575 0.858004 0
M  V30 179 C 17.8751 0.3572 1.98309 0
M  V30 180 O 16.9311 -0.221379 2.51528 0
M  V30 181 C 18.2441 2.74617 1.22499 0
M  V30 182 C 19.7921 2.83109 1.33484 0
M  V30 183 C 20.2671 4.23854 1.73526 0
M  V30 184 N 21.7581 4.2653 1.80628 0
M  V30 185 C 22.4931 5.32372 2.12997 0
M  V30 186 N 21.9891 6.48491 2.43786 0
M  V30 187 N 23.7821 5.19766 2.14008 0
M  V30 188 H 15.9331 2.1133 -0.212925 0
M  V30 189 H 18.1961 0.947439 -0.0326199 0
M  V30 190 H 17.9021 3.4852 0.471905 0
M  V30 191 H 17.7761 3.08177 2.17501 0
M  V30 192 H 20.1631 2.09462 2.0787 0
M  V30 193 H 20.2441 2.53168 0.366027 0
M  V30 194 H 19.8881 4.98018 0.997013 0
M  V30 195 H 19.8181 4.5124 2.71459 0
M  V30 196 H 22.3091 3.42772 1.59108 0
M  V30 197 H 22.6221 7.24993 2.67592 0
M  V30 198 H 20.9671 6.51765 2.41304 0
M  V30 199 H 24.1581 4.28066 1.89412 0
M  V30 200 H 24.3311 6.02354 2.38902 0
M  V30 201 N 17.7372 -0.778329 1.37039 0
M  V30 202 C 18.7002 -1.87301 1.32102 0
M  V30 203 C 19.7002 -1.59198 0.226405 0
M  V30 204 O 20.8902 -1.67403 0.481861 0
M  V30 205 C 18.0222 -3.24309 1.05055 0
M  V30 206 H 19.2152 -1.93093 2.29467 0
M  V30 207 H 16.7682 -0.977358 1.21973 0
M  V30 208 H 17.5032 -3.24196 0.0819373 0
M  V30 209 H 17.2882 -3.46098 1.84279 0
M  V30 210 H 18.7782 -4.04382 1.04234 0
M  V30 211 N 19.2153 -1.21501 -1.00376 0
M  V30 212 C 20.4403 -1.05977 -1.78279 0
M  V30 213 C 20.8653 0.385994 -1.84097 0
M  V30 214 O 20.2233 1.27849 -1.28547 0
M  V30 215 C 20.2713 -1.66302 -3.19963 0
M  V30 216 O 19.3753 -0.909333 -4.0225 0
M  V30 217 H 18.7163 -0.372906 -0.549397 0
M  V30 218 H 21.2463 -1.6107 -1.26165 0
M  V30 219 H 21.2563 -1.70574 -3.70632 0
M  V30 220 H 19.9313 -2.71515 -3.15043 0
M  V30 221 H 18.5083 -0.941795 -3.60811 0
M  V30 222 N 20.6934 1.19889 -1.02296 0
M  V30 223 C 21.9394 1.89701 -0.717033 0
M  V30 224 C 22.2724 1.7905 0.751989 0
M  V30 225 O 21.5474 1.17891 1.547 0
M  V30 226 C 21.8304 3.40858 -1.16136 0
M  V30 227 C 21.6834 3.60411 -2.69117 0
M  V30 228 C 23.0024 4.33876 -0.737549 0
M  V30 229 H 20.1214 0.688874 -0.261957 0
M  V30 230 H 22.7634 1.41154 -1.27183 0
M  V30 231 H 20.9134 3.82335 -0.689342 0
M  V30 232 H 22.5854 3.28145 -3.2422 0
M  V30 233 H 20.8284 3.03665 -3.0979 0
M  V30 234 H 21.4994 4.66396 -2.95261 0
M  V30 235 H 23.9754 4.00081 -1.14344 0
M  V30 236 H 22.8514 5.38242 -1.0764 0
M  V30 237 H 23.1124 4.40628 0.360436 0
M  V30 238 N 22.1715 0.800033 1.35784 0
M  V30 239 C 23.5825 0.439142 1.81462 0
M  V30 240 C 23.9335 -1.03813 1.66485 0
M  V30 241 O 23.0585 -1.80626 1.19177 0
M  V30 242 C 23.6535 0.790314 3.29453 0
M  V30 243 C 22.2125 0.482111 3.733 0
M  V30 244 C 21.3595 1.01938 2.57883 0
M  V30 245 H 24.3105 0.992254 1.23855 0
M  V30 246 H 24.3315 0.0853677 3.80404 0
M  V30 247 H 23.8435 1.86554 3.40322 0
M  V30 248 H 21.9445 -0.584652 3.67984 0
M  V30 249 H 22.0575 1.01015 4.6833 0
M  V30 250 H 20.4215 0.442043 2.50835 0
M  V30 251 H 21.2045 2.10059 2.71533 0
M  V30 252 N 23.6496 -1.47581 0.552962 0
M  V30 253 C 24.9266 -1.95563 -0.0381515 0
M  V30 254 C 25.3066 -1.49552 -1.48988 0
M  V30 255 O 24.6546 -0.732414 -2.16444 0
M  V30 256 C 24.8646 -3.48848 0.102919 0
M  V30 257 C 26.2126 -4.24577 -0.0446082 0
M  V30 258 O 27.2366 -3.56187 0.0302548 0
M  V30 259 O 26.0956 -5.46116 -0.204923 0
M  V30 260 H 23.1896 -0.824321 -0.0665067 0
M  V30 261 H 25.7356 -1.58001 0.619186 0
M  V30 262 H 24.5076 -3.75129 1.11328 0
M  V30 263 H 24.1306 -3.93165 -0.592224 0
M  V30 264 N 25.1277 -0.289203 -1.54924 0
M  V30 265 C 26.3757 0.322879 -1.99504 0
M  V30 266 C 26.6967 1.55313 -1.1791 0
M  V30 267 O 25.9667 1.94001 -0.272097 0
M  V30 268 H 24.5467 0.122291 -0.736922 0
M  V30 269 H 27.2087 -0.397802 -1.90797 0
M  V30 270 H 26.3047 0.603061 -3.06218 0
M  V30 271 N 26.6058 1.57591 -0.0167156 0
M  V30 272 C 27.8528 1.91283 0.664597 0
M  V30 273 C 28.1808 0.891949 1.72842 0
M  V30 274 O 27.4358 -0.100931 1.9544 0
M  V30 275 C 27.7348 3.3172 1.33029 0
M  V30 276 C 27.4008 4.4914 0.398047 0
M  V30 277 C 26.0628 4.80992 0.141421 0
M  V30 278 C 28.4148 5.20634 -0.242825 0
M  V30 279 C 25.7428 5.81703 -0.764092 0
M  V30 280 C 28.0948 6.22311 -1.13632 0
M  V30 281 C 26.7588 6.52611 -1.40196 0
M  V30 282 H 26.0288 0.699956 0.243193 0
M  V30 283 H 28.6758 1.9135 -0.0758267 0
M  V30 284 H 26.9808 3.27856 2.14517 0
M  V30 285 H 28.6778 3.55055 1.86379 0
M  V30 286 H 25.2678 4.24262 0.608238 0
M  V30 287 H 29.4518 4.96267 -0.0576019 0
M  V30 288 H 24.7078 6.03532 -0.977732 0
M  V30 289 H 28.8818 6.76834 -1.63917 0
M  V30 290 H 26.5088 7.30467 -2.10529 0
M  V30 291 N 28.0839 -0.256276 1.55502 0
M  V30 292 C 29.0139 -1.32102 1.92539 0
M  V30 293 C 29.9949 -1.50684 0.789194 0
M  V30 294 O 31.1799 -1.63449 1.04872 0
M  V30 295 C 28.3099 -2.67752 2.21192 0
M  V30 296 C 27.2639 -2.63878 3.36975 0
M  V30 297 C 26.5899 -4.03236 3.51147 0
M  V30 298 C 27.8899 -2.21682 4.72921 0
M  V30 299 H 29.5839 -1.01351 2.81724 0
M  V30 300 H 27.1299 -0.486105 1.35547 0
M  V30 301 H 29.0829 -3.42365 2.45691 0
M  V30 302 H 27.8069 -3.0012 1.28824 0
M  V30 303 H 26.4659 -1.91722 3.12471 0
M  V30 304 H 26.1139 -4.32854 2.56216 0
M  V30 305 H 25.8139 -4.01535 4.29003 0
M  V30 306 H 27.3379 -4.79563 3.77957 0
M  V30 307 H 28.7519 -2.86023 4.96854 0
M  V30 308 H 27.1489 -2.3111 5.53812 0
M  V30 309 H 28.2189 -1.16833 4.70615 0
M  V30 310 N 29.562 -1.4872 -0.521534 0
M  V30 311 C 30.787 -1.61101 -1.30618 0
M  V30 312 C 31.212 -0.274611 -1.86085 0
M  V30 313 O 30.57 0.754937 -1.64834 0
M  V30 314 C 30.618 -2.66709 -2.4269 0
M  V30 315 O 29.722 -2.24456 -3.45967 0
M  V30 316 H 29.063 -0.539921 -0.386499 0
M  V30 317 H 31.593 -1.94767 -0.626645 0
M  V30 318 H 31.603 -2.88245 -2.88754 0
M  V30 319 H 30.278 -3.63727 -2.01682 0
M  V30 320 H 28.855 -2.13168 -3.05964 0
M  V30 321 N 31.0401 0.771051 -1.3745 0
M  V30 322 C 31.9501 1.91538 -1.35464 0
M  V30 323 C 32.9661 1.72134 -0.254123 0
M  V30 324 O 34.1421 1.95358 -0.489626 0
M  V30 325 C 31.2071 3.26671 -1.16134 0
M  V30 326 C 30.2681 3.58723 -2.35831 0
M  V30 327 C 29.5011 4.87409 -2.17413 0
M  V30 328 O 29.7241 5.58506 -1.15876 0
M  V30 329 O 28.6581 5.18539 -3.05615 0
M  V30 330 H 32.4841 1.96165 -2.31847 0
M  V30 331 H 30.0691 0.9139 -1.18187 0
M  V30 332 H 31.9511 4.07499 -1.07345 0
M  V30 333 H 30.6261 3.22894 -0.228251 0
M  V30 334 H 29.5331 2.78127 -2.50192 0
M  V30 335 H 30.8661 3.67243 -3.27709 0
M  V30 336 N 32.5182 1.22032 0.997298 0
M  V30 337 C 33.4482 1.01065 2.10495 0
M  V30 338 C 34.4292 -0.0669542 1.69968 0
M  V30 339 O 35.6142 0.0943987 1.9397 0
M  V30 340 C 32.7442 0.582874 3.42374 0
M  V30 341 C 31.6982 1.60592 3.96729 0
M  V30 342 C 31.0242 1.03412 5.24605 0
M  V30 343 C 32.3242 2.99478 4.27914 0
M  V30 344 H 34.0182 1.93708 2.28292 0
M  V30 345 H 31.5642 0.932761 1.09707 0
M  V30 346 H 33.5172 0.423332 4.19268 0
M  V30 347 H 32.2412 -0.379213 3.24391 0
M  V30 348 H 30.9002 1.75316 3.21963 0
M  V30 349 H 30.5482 0.063518 5.0296 0
M  V30 350 H 30.2482 1.71754 5.61938 0
M  V30 351 H 31.7722 0.886066 6.04137 0
M  V30 352 H 33.1862 2.88153 4.95622 0
M  V30 353 H 31.5832 3.64903 4.76409 0
M  V30 354 H 32.6532 3.49742 3.3587 0
M  V30 355 N 33.9963 -1.19345 1.0293 0
M  V30 356 C 35.2243 -1.92997 0.745644 0
M  V30 357 C 35.6393 -1.75519 -0.695589 0
M  V30 358 O 34.9963 -1.07737 -1.47306 0
M  V30 359 C 35.0473 -3.44741 1.08792 0
M  V30 360 O 34.7683 -3.61658 2.47256 0
M  V30 361 C 36.2693 -4.35515 0.827129 0
M  V30 362 H 33.4893 -0.613042 0.272801 0
M  V30 363 H 36.0333 -1.51473 1.3739 0
M  V30 364 H 34.1883 -3.84097 0.504832 0
M  V30 365 H 34.6023 -4.55514 2.60015 0
M  V30 366 H 36.0763 -5.40589 1.11658 0
M  V30 367 H 36.5533 -4.38552 -0.238436 0
M  V30 368 H 37.1593 -4.01841 1.39297 0
M  V30 369 N 35.4744 -0.807222 -1.35358 0
M  V30 370 C 36.4064 -0.175717 -2.28525 0
M  V30 371 C 37.4194 0.625354 -1.5031 0
M  V30 372 O 38.6084 0.457611 -1.72535 0
M  V30 373 C 35.7084 0.773471 -3.29956 0
M  V30 374 C 34.8814 0.0186296 -4.37396 0
M  V30 375 C 33.9404 0.886395 -5.18681 0
M  V30 376 O 32.9664 0.337106 -5.68201 0
M  V30 377 N 34.1684 2.20839 -5.36852 0
M  V30 378 H 36.9334 -0.976091 -2.83359 0
M  V30 379 H 34.4944 -0.662737 -1.47714 0
M  V30 380 H 36.4864 1.35824 -3.81227 0
M  V30 381 H 35.0564 1.47465 -2.75632 0
M  V30 382 H 34.2764 -0.747349 -3.87051 0
M  V30 383 H 35.5644 -0.501577 -5.06322 0
M  V30 384 H 34.9624 2.67858 -4.98265 0
M  V30 385 H 33.5194 2.74237 -5.91301 0
M  V30 386 N 36.9525 1.47285 -0.560781 0
M  V30 387 C 37.8845 2.28118 0.222438 0
M  V30 388 C 38.8975 1.37219 0.876056 0
M  V30 389 O 40.0865 1.62011 0.749307 0
M  V30 390 C 37.1865 3.1159 1.33285 0
M  V30 391 C 36.3595 4.30473 0.77534 0
M  V30 392 C 35.4185 4.95513 1.77069 0
M  V30 393 O 34.4445 5.53792 1.31539 0
M  V30 394 N 35.6465 4.90531 3.10418 0
M  V30 395 H 38.4115 2.95976 -0.470958 0
M  V30 396 H 35.9725 1.56955 -0.39709 0
M  V30 397 H 37.9645 3.51967 1.99752 0
M  V30 398 H 36.5345 2.45951 1.92943 0
M  V30 399 H 35.7545 3.94144 -0.0662113 0
M  V30 400 H 37.0425 5.07362 0.382272 0
M  V30 401 H 36.4405 4.44389 3.5005 0
M  V30 402 H 34.9975 5.34917 3.72434 0
M  V30 403 N 38.4306 0.297415 1.54768 0
M  V30 404 C 39.3606 -0.573494 2.26348 0
M  V30 405 C 40.3416 -1.14085 1.26169 0
M  V30 406 O 41.5266 -1.17086 1.54934 0
M  V30 407 C 38.6566 -1.74716 3.00153 0
M  V30 408 C 37.6106 -1.31032 4.07449 0
M  V30 409 C 36.9366 -2.56887 4.68949 0
M  V30 410 C 38.2366 -0.444183 5.20408 0
M  V30 411 H 39.9306 0.0235131 2.99391 0
M  V30 412 H 37.4766 0.0127488 1.43994 0
M  V30 413 H 39.4296 -2.3625 3.48947 0
M  V30 414 H 38.1536 -2.37035 2.24682 0
M  V30 415 H 36.8126 -0.718066 3.59499 0
M  V30 416 H 36.4606 -3.17512 3.90122 0
M  V30 417 H 36.1606 -2.2836 5.41411 0
M  V30 418 H 37.6846 -3.19229 5.20505 0
M  V30 419 H 39.0986 -0.9651 5.65118 0
M  V30 420 H 37.4956 -0.252846 5.99567 0
M  V30 421 H 38.5656 0.531609 4.81977 0
M  V30 422 N 39.9087 -1.5758 0.0250728 0
M  V30 423 C 40.8717 -2.08896 -0.943139 0
M  V30 424 C 41.8717 -1.00321 -1.25668 0
M  V30 425 O 43.0617 -1.26495 -1.19769 0
M  V30 426 C 40.1937 -2.55143 -2.26086 0
M  V30 427 H 41.3867 -2.95723 -0.498775 0
M  V30 428 H 38.9397 -1.54703 -0.222888 0
M  V30 429 H 39.6747 -1.71633 -2.75159 0
M  V30 430 H 39.4597 -3.34461 -2.04641 0
M  V30 431 H 40.9497 -2.95083 -2.95492 0
M  V30 432 N 41.3868 0.248026 -1.55636 0
M  V30 433 C 42.3188 1.32993 -1.8667 0
M  V30 434 C 43.3318 1.44345 -0.752877 0
M  V30 435 O 44.5208 1.45715 -1.03098 0
M  V30 436 C 41.6208 2.70863 -2.03682 0
M  V30 437 C 40.7938 2.81792 -3.34532 0
M  V30 438 C 39.8528 4.005 -3.41301 0
M  V30 439 O 38.8788 3.9008 -4.14519 0
M  V30 440 N 40.0808 5.13618 -2.70512 0
M  V30 441 H 42.8458 1.06707 -2.8006 0
M  V30 442 H 40.4068 0.438129 -1.55859 0
M  V30 443 H 42.3988 3.48612 -2.05553 0
M  V30 444 H 40.9688 2.89862 -1.17041 0
M  V30 445 H 40.1888 1.90729 -3.44987 0
M  V30 446 H 41.4768 2.86043 -4.20781 0
M  V30 447 H 40.8748 5.24975 -2.10755 0
M  V30 448 H 39.4318 5.89505 -2.78077 0
M  V30 449 N 42.8649 1.48995 0.513639 0
M  V30 450 C 43.8279 1.64229 1.59879 0
M  V30 451 C 44.8279 0.514696 1.5234 0
M  V30 452 O 46.0179 0.78087 1.55718 0
M  V30 453 C 43.1499 1.62783 2.99524 0
M  V30 454 H 44.3429 2.61004 1.47705 0
M  V30 455 H 41.8959 1.37837 0.736936 0
M  V30 456 H 42.6309 0.675461 3.17188 0
M  V30 457 H 42.4159 2.4466 3.06404 0
M  V30 458 H 43.9059 1.76669 3.78388 0
M  V30 459 N 44.343 -0.763751 1.37857 0
M  V30 460 C 45.571 -1.55293 1.36718 0
M  V30 461 C 45.986 -1.88745 -0.0455434 0
M  V30 462 O 45.343 -1.52039 -1.00947 0
M  V30 463 C 45.394 -2.85831 2.2132 0
M  V30 464 O 45.115 -2.5381 3.57089 0
M  V30 465 C 46.616 -3.80023 2.28249 0
M  V30 466 H 43.836 -0.480841 0.468009 0
M  V30 467 H 46.38 -0.946009 1.81303 0
M  V30 468 H 44.535 -3.42926 1.80223 0
M  V30 469 H 44.949 -3.37459 4.01524 0
M  V30 470 H 46.423 -4.68599 2.91752 0
M  V30 471 H 46.9 -4.1973 1.2932 0
M  V30 472 H 47.506 -3.28855 2.69693 0
M  V30 473 N 45.8211 -1.22559 -0.990812 0
M  V30 474 C 47.0691 -1.04933 -1.72724 0
M  V30 475 C 47.3901 0.416158 -1.90508 0
M  V30 476 O 46.6601 1.29918 -1.46622 0
M  V30 477 H 45.2401 -0.385296 -0.639965 0
M  V30 478 H 47.9021 -1.54105 -1.19322 0
M  V30 479 H 46.9981 -1.52886 -2.72089 0
M  V30 480 N 47.2992 1.18797 -1.03562 0
M  V30 481 C 48.2462 2.22253 -0.622259 0
M  V30 482 C 49.2162 1.61987 0.36736 0
M  V30 483 O 50.4012 1.88986 0.262492 0
M  V30 484 C 47.5412 3.45097 0.0138462 0
M  V30 485 C 46.6542 4.19722 -1.02263 0
M  V30 486 C 45.7892 5.30009 -0.355573 0
M  V30 487 C 44.8282 5.96399 -1.37749 0
M  V30 488 N 43.9652 6.98234 -0.735766 0
M  V30 489 H 48.8052 2.56968 -1.50903 0
M  V30 490 H 46.3422 1.26245 -0.755017 0
M  V30 491 H 48.3002 4.15279 0.399948 0
M  V30 492 H 46.9302 3.11018 0.864158 0
M  V30 493 H 45.9822 3.48418 -1.52673 0
M  V30 494 H 47.2942 4.65227 -1.79903 0
M  V30 495 H 46.4482 6.0664 0.0850095 0
M  V30 496 H 45.1872 4.85592 0.452967 0
M  V30 497 H 44.1922 5.18512 -1.82826 0
M  V30 498 H 45.4172 6.42899 -2.18764 0
M  V30 499 H 43.3632 6.55979 0.0525597 0
M  V30 500 H 43.2802 7.41965 -1.44995 0
M  V30 501 H 44.5482 7.78845 -0.31941 0
M  V30 502 N 48.7773 0.814389 1.34928 0
M  V30 503 C 50.1883 0.458364 1.80986 0
M  V30 504 C 50.5393 -1.02042 1.67577 0
M  V30 505 O 49.6643 -1.79352 1.21086 0
M  V30 506 C 50.2593 0.825212 3.28597 0
M  V30 507 C 48.8183 0.521677 3.72767 0
M  V30 508 C 47.9653 1.04668 2.56788 0
M  V30 509 H 50.9163 1.00533 1.22795 0
M  V30 510 H 50.9373 0.12571 3.80292 0
M  V30 511 H 50.4493 1.90154 3.38324 0
M  V30 512 H 48.5503 -0.545589 3.68584 0
M  V30 513 H 48.6633 1.05977 4.67232 0
M  V30 514 H 47.0273 0.468622 2.50352 0
M  V30 515 H 47.8103 2.12927 2.6929 0
M  V30 516 N 50.2554 -1.46986 0.568584 0
M  V30 517 C 51.6664 -1.86188 0.138219 0
M  V30 518 C 52.0174 -1.47388 -1.29504 0
M  V30 519 O 51.1424 -0.88219 -1.97602 0
M  V30 520 C 51.7374 -3.3792 0.244065 0
M  V30 521 C 50.2964 -3.76171 -0.131335 0
M  V30 522 C 49.4434 -2.71027 0.586465 0
M  V30 523 H 52.3944 -1.38342 0.777645 0
M  V30 524 H 52.4154 -3.76729 -0.534351 0
M  V30 525 H 51.9274 -3.66128 1.28731 0
M  V30 526 H 50.0284 -3.5358 -1.17526 0
M  V30 527 H 50.1414 -4.78523 0.235146 0
M  V30 528 H 48.5054 -2.54684 0.0282722 0
M  V30 529 H 49.2884 -3.02077 1.63109 0
M  V30 530 N 51.7335 -0.305618 -1.54608 0
M  V30 531 C 52.6655 0.602161 -2.21149 0
M  V30 532 C 53.6785 1.09394 -1.20569 0
M  V30 533 O 54.8675 1.0106 -1.47136 0
M  V30 534 C 51.9675 1.83692 -2.84799 0
M  V30 535 C 51.1405 1.48686 -4.11353 0
M  V30 536 C 50.1995 2.57725 -4.58764 0
M  V30 537 O 49.2255 2.22623 -5.23858 0
M  V30 538 N 50.4275 3.88346 -4.31471 0
M  V30 539 H 53.1925 0.0324966 -2.99682 0
M  V30 540 H 50.7535 -0.128021 -1.61393 0
M  V30 541 H 52.7455 2.55994 -3.13448 0
M  V30 542 H 51.3155 2.31486 -2.10078 0
M  V30 543 H 50.5355 0.596269 -3.89664 0
M  V30 544 H 51.8235 1.22842 -4.93748 0
M  V30 545 H 51.2215 4.19671 -3.79331 0
M  V30 546 H 49.7785 4.56932 -4.64818 0
M  V30 547 N 53.2116 1.57565 -0.0334293 0
M  V30 548 C 54.4416 1.95996 0.653398 0
M  V30 549 C 54.8496 0.908749 1.65947 0
M  V30 550 O 54.1926 -0.117471 1.83324 0
M  V30 551 C 54.2546 3.30589 1.41249 0
M  V30 552 C 53.9186 4.53503 0.564263 0
M  V30 553 C 54.9156 5.19647 -0.16225 0
M  V30 554 C 52.6006 4.99801 0.500398 0
M  V30 555 C 54.5946 6.30412 -0.941255 0
M  V30 556 C 52.2816 6.10448 -0.282308 0
M  V30 557 C 53.2796 6.75612 -1.00184 0
M  V30 558 O 52.9676 7.84134 -1.77171 0
M  V30 559 H 52.6996 0.65027 0.184728 0
M  V30 560 H 55.2536 2.05199 -0.0907841 0
M  V30 561 H 53.4836 3.17888 2.20191 0
M  V30 562 H 55.1726 3.53892 1.98784 0
M  V30 563 H 55.9386 4.84846 -0.12227 0
M  V30 564 H 51.8176 4.48883 1.05002 0
M  V30 565 H 55.3616 6.81208 -1.50339 0
M  V30 566 H 51.2586 6.44686 -0.323989 0
M  V30 567 H 52.0266 8.00822 -1.69194 0
M  V30 568 N 54.6897 -0.239769 1.55765 0
M  V30 569 C 55.9387 -0.964754 1.77131 0
M  V30 570 C 56.2517 -1.86213 0.59868 0
M  V30 571 O 57.4577 -2.6244 0.695522 0
M  V30 572 C 55.9137 -1.76552 3.1362 0
M  V30 573 C 55.5217 -0.915185 4.38553 0
M  V30 574 C 57.2657 -2.48281 3.44321 0
M  V30 575 C 55.1727 -1.71225 5.66071 0
M  V30 576 H 54.1027 -0.363953 0.660344 0
M  V30 577 H 56.7537 -0.219181 1.82186 0
M  V30 578 H 55.1357 -2.55331 3.02691 0
M  V30 579 H 56.3097 -0.169217 4.60489 0
M  V30 580 H 54.6247 -0.310889 4.15238 0
M  V30 581 H 57.2217 -3.08382 4.36812 0
M  V30 582 H 57.5647 -3.20256 2.65973 0
M  V30 583 H 58.0977 -1.76507 3.56497 0
M  V30 584 H 54.8367 -1.03612 6.4726 0
M  V30 585 H 54.3567 -2.43331 5.48224 0
M  V30 586 H 56.0357 -2.27758 6.05587 0
M  V30 587 N 56.1678 -1.49265 -0.50573 0
M  V30 588 C 57.1308 -1.65075 -1.59006 0
M  V30 589 C 58.1308 -0.522768 -1.52065 0
M  V30 590 O 59.3208 -0.789117 -1.55302 0
M  V30 591 C 56.4528 -1.64369 -2.98656 0
M  V30 592 H 57.6458 -2.61784 -1.46319 0
M  V30 593 H 55.1988 -1.38226 -0.729616 0
M  V30 594 H 55.9338 -0.692272 -3.16825 0
M  V30 595 H 55.7188 -2.46282 -3.05103 0
M  V30 596 H 57.2088 -1.78674 -3.77446 0
M  V30 597 N 57.6459 0.756429 -1.3826 0
M  V30 598 C 58.8919 1.51772 -1.34511 0
M  V30 599 C 59.2249 1.94089 0.0656691 0
M  V30 600 O 58.4999 1.65221 1.02626 0
M  V30 601 C 58.7829 2.77226 -2.29821 0
M  V30 602 C 58.6359 2.41065 -3.79747 0
M  V30 603 C 59.9549 3.79236 -2.23312 0
M  V30 604 H 57.0739 0.550578 -0.489931 0
M  V30 605 H 59.7159 0.866607 -1.69086 0
M  V30 606 H 57.8659 3.32784 -2.00467 0
M  V30 607 H 59.5379 1.91303 -4.19763 0
M  V30 608 H 57.7809 1.7356 -3.97567 0
M  V30 609 H 58.4519 3.3081 -4.41892 0
M  V30 610 H 60.9279 3.3321 -2.49219 0
M  V30 611 H 59.8039 4.64714 -2.92116 0
M  V30 612 H 60.0649 4.24615 -1.23102 0
M  V30 613 N 59.124 1.23083 0.984299 0
M  V30 614 C 60.074 0.975749 2.06066 0
M  V30 615 C 61.058 -0.0768251 1.60716 0
M  V30 616 O 62.25 0.134805 1.76486 0
M  V30 617 C 59.379 0.564673 3.38624 0
M  V30 618 C 58.465 1.65244 3.90583 0
M  V30 619 N 58.856 2.88193 4.15666 0
M  V30 620 C 57.154 1.52612 4.19077 0
M  V30 621 C 57.855 3.58593 4.58024 0
M  V30 622 N 56.831 2.86093 4.62225 0
M  V30 623 H 60.633 1.90957 2.23411 0
M  V30 624 H 58.147 1.12963 1.16675 0
M  V30 625 H 60.144 0.36322 4.15315 0
M  V30 626 H 58.804 -0.362147 3.22674 0
M  V30 627 H 59.815 3.24537 4.03604 0
M  V30 628 H 56.492 0.666121 4.12152 0
M  V30 629 H 57.882 4.63974 4.85982 0
M  V30 630 N 60.6021 -1.18246 1.0419 0
M  V30 631 C 61.8481 -1.88536 0.747122 0
M  V30 632 C 62.1811 -1.80223 -0.723409 0
M  V30 633 O 61.4561 -1.20337 -1.52804 0
M  V30 634 C 61.7391 -3.38968 1.21544 0
M  V30 635 C 61.5921 -3.56084 2.74816 0
M  V30 636 C 62.9111 -4.32648 0.806482 0
M  V30 637 H 60.0301 -0.684619 0.272883 0
M  V30 638 H 62.6721 -1.39113 1.29413 0
M  V30 639 H 60.8221 -3.8119 0.750081 0
M  V30 640 H 62.4941 -3.22946 3.29399 0
M  V30 641 H 60.7371 -2.98699 3.14582 0
M  V30 642 H 61.4081 -4.61639 3.02644 0
M  V30 643 H 63.8841 -3.98211 1.20695 0
M  V30 644 H 62.7601 -5.36462 1.1619 0
M  V30 645 H 63.0211 -4.41146 -0.29029 0
M  V30 646 N 62.0802 -0.821533 -1.34494 0
M  V30 647 C 63.3262 -0.409552 -1.98622 0
M  V30 648 C 63.6592 1.0244 -1.64984 0
M  V30 649 O 62.9342 1.71325 -0.920758 0
M  V30 650 C 63.2172 -0.610458 -3.54888 0
M  V30 651 C 63.0702 -2.09043 -3.98273 0
M  V30 652 C 64.3892 -0.0455379 -4.40076 0
M  V30 653 H 61.5082 -0.15028 -0.721516 0
M  V30 654 H 64.1502 -1.03384 -1.59411 0
M  V30 655 H 62.3002 -0.079044 -3.8842 0
M  V30 656 H 63.9722 -2.68537 -3.75081 0
M  V30 657 H 62.2152 -2.58139 -3.48635 0
M  V30 658 H 62.8862 -2.18182 -5.07051 0
M  V30 659 H 65.3622 -0.499557 -4.1309 0
M  V30 660 H 64.2382 -0.215922 -5.48475 0
M  V30 661 H 64.4992 1.04939 -4.29465 0
M  V30 662 N 63.5583 1.46682 -0.576371 0
M  V30 663 C 64.9693 1.86112 -0.148091 0
M  V30 664 C 65.3203 1.48073 1.2872 0
M  V30 665 O 64.4453 0.892656 1.97131 0
M  V30 666 C 65.0403 3.37786 -0.261982 0
M  V30 667 C 63.5993 3.76235 0.111384 0
M  V30 668 C 62.7463 2.70713 -0.60083 0
M  V30 669 H 65.6973 1.37927 -0.78497 0
M  V30 670 H 65.7183 3.77007 0.514364 0
M  V30 671 H 65.2303 3.6544 -1.30671 0
M  V30 672 H 63.3313 3.54198 1.15649 0
M  V30 673 H 63.4443 4.78391 -0.26052 0
M  V30 674 H 61.8083 2.54666 -0.0417783 0
M  V30 675 H 62.5913 3.01208 -1.64708 0
M  V30 676 N 65.0364 0.313813 1.54444 0
M  V30 677 C 66.3134 -0.345447 1.92525 0
M  V30 678 C 66.6934 -1.70667 1.24242 0
M  V30 679 O 66.0414 -2.25273 0.382654 0
M  V30 680 C 66.2514 -0.44737 3.46121 0
M  V30 681 C 67.5994 -0.712238 4.18584 0
M  V30 682 O 68.6234 -0.530678 3.52225 0
M  V30 683 O 67.4824 -1.06183 5.36085 0
M  V30 684 H 64.5764 -0.195407 0.803583 0
M  V30 685 H 67.1224 0.362813 1.65776 0
M  V30 686 H 65.8944 0.509043 3.87975 0
M  V30 687 H 65.5174 -1.20359 3.78945 0
M  V30 688 N 66.5145 -1.57545 0.0417849 0
M  V30 689 C 67.4465 -2.07904 -0.964799 0
M  V30 690 C 68.4595 -1.00497 -1.28079 0
M  V30 691 O 69.6485 -1.28087 -1.24322 0
M  V30 692 C 66.7485 -2.49928 -2.28887 0
M  V30 693 C 65.9215 -3.80562 -2.15619 0
M  V30 694 C 64.9805 -4.08999 -3.31069 0
M  V30 695 O 64.0065 -4.79061 -3.0739 0
M  V30 696 N 65.2085 -3.6017 -4.55256 0
M  V30 697 H 67.9735 -2.94886 -0.535029 0
M  V30 698 H 65.5345 -1.61252 -0.144681 0
M  V30 699 H 67.5265 -2.66034 -3.04972 0
M  V30 700 H 66.0965 -1.68245 -2.63463 0
M  V30 701 H 65.3165 -3.74129 -1.24183 0
M  V30 702 H 66.6045 -4.66126 -2.03971 0
M  V30 703 H 66.0025 -3.03512 -4.77386 0
M  V30 704 H 64.5595 -3.81532 -5.28466 0
M  V30 705 N 67.9926 0.231505 -1.5589 0
M  V30 706 C 68.9226 1.29022 -1.94617 0
M  V30 707 C 69.9036 1.4941 -0.813067 0
M  V30 708 O 71.0886 1.6176 -1.07459 0
M  V30 709 C 68.2186 2.64199 -2.25424 0
M  V30 710 C 67.1726 2.58484 -3.41131 0
M  V30 711 C 66.4986 3.97599 -3.57518 0
M  V30 712 C 67.7986 2.1413 -4.76388 0
M  V30 713 H 69.4926 0.968563 -2.83301 0
M  V30 714 H 67.0386 0.464479 -1.36303 0
M  V30 715 H 68.9916 3.38413 -2.51107 0
M  V30 716 H 67.7156 2.98032 -1.33583 0
M  V30 717 H 66.3746 1.86727 -3.15481 0
M  V30 718 H 66.0226 4.28723 -2.6307 0
M  V30 719 H 65.7226 3.94659 -4.35337 0
M  V30 720 H 67.2466 4.7349 -3.85538 0
M  V30 721 H 68.6606 2.78083 -5.01341 0
M  V30 722 H 67.0576 2.2227 -5.57419 0
M  V30 723 H 68.1276 1.09331 -4.72414 0
M  V30 724 N 69.4707 1.49531 0.497807 0
M  V30 725 C 70.4037 1.61043 1.6168 0
M  V30 726 C 71.3817 0.459386 1.55976 0
M  V30 727 O 72.5657 0.675358 1.75986 0
M  V30 728 C 69.6927 1.56833 3.00202 0
M  V30 729 C 68.7387 2.77173 3.24156 0
M  V30 730 S 69.5717 4.38808 3.06933 0
M  V30 731 C 70.7277 4.37248 4.47845 0
M  V30 732 H 70.9607 2.55702 1.51671 0
M  V30 733 H 68.4937 1.38462 0.683201 0
M  V30 734 H 70.4517 1.55089 3.80076 0
M  V30 735 H 69.1127 0.634561 3.07623 0
M  V30 736 H 68.3057 2.70456 4.25288 0
M  V30 737 H 67.9077 2.76346 2.5201 0
M  V30 738 H 70.1997 4.09164 5.39992 0
M  V30 739 H 71.1427 5.38668 4.59612 0
M  V30 740 H 71.5507 3.67286 4.28674 0
M  V30 741 N 70.9488 -0.749086 1.3866 0
M  V30 742 C 71.9118 -1.84457 1.36045 0
M  V30 743 C 72.9118 -1.58682 0.260122 0
M  V30 744 O 74.1018 -1.66343 0.517261 0
M  V30 745 C 71.2338 -3.22008 1.11911 0
M  V30 746 H 72.4268 -1.88182 2.33512 0
M  V30 747 H 69.9798 -0.951266 1.24019 0
M  V30 748 H 70.7148 -3.2395 0.150686 0
M  V30 749 H 70.4998 -3.42111 1.91579 0
M  V30 750 H 71.9898 -4.0208 1.12788 0
M  V30 751 N 72.4269 -1.23603 -0.977757 0
M  V30 752 C 73.6739 -1.06971 -1.71941 0
M  V30 753 C 74.0019 0.393009 -1.90488 0
M  V30 754 O 73.2569 1.30719 -1.4564 0
M  V30 755 C 73.5559 -1.7433 -3.11999 0
M  V30 756 C 73.2219 -3.24252 -3.13323 0
M  V30 757 C 71.8839 -3.65156 -3.13392 0
M  V30 758 C 74.2359 -4.20141 -3.08433 0
M  V30 759 C 71.5639 -5.00403 -3.0629 0
M  V30 760 C 73.9159 -5.55384 -3.02873 0
M  V30 761 C 72.5799 -5.95647 -3.01265 0
M  V30 762 H 71.8499 -0.391433 -0.629175 0
M  V30 763 H 74.4969 -1.53572 -1.14403 0
M  V30 764 H 72.8019 -1.20096 -3.7294 0
M  V30 765 H 74.4989 -1.58936 -3.68158 0
M  V30 766 H 71.0889 -2.91692 -3.14029 0
M  V30 767 H 75.2729 -3.89547 -3.07517 0
M  V30 768 H 70.5289 -5.3081 -3.03399 0
M  V30 769 H 74.7029 -6.29398 -2.98046 0
M  V30 770 H 72.3299 -7.0041 -2.95516 0
M  V30 771 N 73.905 1.17692 -1.04816 0
M  V30 772 C 75.153 1.87488 -0.754497 0
M  V30 773 C 75.474 1.81205 0.720407 0
M  V30 774 O 74.744 1.23544 1.52032 0
M  V30 775 H 73.324 0.694101 -0.276102 0
M  V30 776 H 75.986 1.42793 -1.32651 0
M  V30 777 H 75.082 2.93328 -1.06606 0
M  V30 778 N 75.3831 0.828654 1.34056 0
M  V30 779 C 76.6311 0.41863 1.97717 0
M  V30 780 C 76.9521 -1.02314 1.66002 0
M  V30 781 O 76.2221 -1.71119 0.953683 0
M  V30 782 H 74.8021 0.151809 0.731412 0
M  V30 783 H 77.4641 1.05936 1.63596 0
M  V30 784 H 76.5601 0.542318 3.07352 0
M  V30 785 N 76.8612 -1.46375 0.584142 0
M  V30 786 C 78.0862 -2.07268 0.0740405 0
M  V30 787 C 78.5112 -1.42979 -1.22223 0
M  V30 788 O 77.8692 -0.514092 -1.73859 0
M  V30 789 C 77.9172 -3.60518 -0.0767769 0
M  V30 790 O 77.0212 -3.96533 -1.13292 0
M  V30 791 H 76.3622 -0.660961 0.0634524 0
M  V30 792 H 78.8922 -1.87991 0.807492 0
M  V30 793 H 78.9022 -4.07021 -0.282489 0
M  V30 794 H 77.5772 -4.06702 0.86986 0
M  V30 795 H 76.1542 -3.61738 -0.905553 0
M  V30 796 N 78.3393 -0.321999 -1.54275 0
M  V30 797 C 79.5643 0.285791 -2.05422 0
M  V30 798 C 79.9893 1.45124 -1.19669 0
M  V30 799 O 79.3473 1.80132 -0.205441 0
M  V30 800 C 79.3953 0.69956 -3.53749 0
M  V30 801 O 78.4993 1.8021 -3.70942 0
M  V30 802 H 77.8403 0.0518962 -0.661969 0
M  V30 803 H 80.3703 -0.469954 -1.9913 0
M  V30 804 H 80.3803 0.982649 -3.9599 0
M  V30 805 H 79.0553 -0.152864 -4.15619 0
M  V30 806 H 77.6323 1.51794 -3.40607 0
M  V30 807 N 79.8174 1.5752 -0.0501392 0
M  V30 808 C 80.7274 2.14952 0.939827 0
M  V30 809 C 81.7434 1.10706 1.34239 0
M  V30 810 O 82.9194 1.42869 1.41952 0
M  V30 811 C 79.9844 2.68232 2.19665 0
M  V30 812 C 79.0454 3.87272 1.85253 0
M  V30 813 C 78.2784 4.38002 3.04943 0
M  V30 814 O 78.5014 3.87811 4.18281 0
M  V30 815 O 77.4354 5.29602 2.86017 0
M  V30 816 H 81.2614 2.9986 0.481392 0
M  V30 817 H 78.8464 1.4841 0.171699 0
M  V30 818 H 80.7284 3.02475 2.93406 0
M  V30 819 H 79.4034 1.86395 2.64648 0
M  V30 820 H 78.3104 3.5792 1.0883 0
M  V30 821 H 79.6434 4.70336 1.4507 0
M  V30 822 N 81.2955 -0.223234 1.56011 0
M  V30 823 C 82.7065 -0.790368 1.69145 0
M  V30 824 C 83.0575 -1.85055 0.651845 0
M  V30 825 O 82.1825 -2.15498 -0.197359 0
M  V30 826 C 82.7775 -1.4404 3.06656 0
M  V30 827 C 81.3365 -1.95494 3.2165 0
M  V30 828 C 80.4835 -0.814506 2.65068 0
M  V30 829 H 83.4345 0.00139011 1.587 0
M  V30 830 H 83.4555 -2.30916 3.0242 0
M  V30 831 H 82.9675 -0.668543 3.82298 0
M  V30 832 H 81.0685 -2.75487 2.50874 0
M  V30 833 H 81.1815 -2.13607 4.28846 0
M  V30 834 H 79.5455 -1.22137 2.23505 0
M  V30 835 H 80.3285 -0.0553515 3.43255 0
M  V30 836 N 82.7736 -1.49793 -0.48987 0
M  V30 837 C 84.0136 -1.61466 -1.25332 0
M  V30 838 C 84.3776 -0.299688 -1.89647 0
M  V30 839 O 85.5786 -0.291687 -2.67213 0
M  V30 840 C 83.8496 -2.74944 -2.28343 0
M  V30 841 S 85.4086 -3.06637 -3.13878 0
M  V30 842 H 82.2266 -0.569411 -0.425784 0
M  V30 843 H 84.8286 -1.875 -0.553541 0
M  V30 844 H 83.5326 -3.68994 -1.79643 0
M  V30 845 H 83.0636 -2.50938 -3.02975 0
M  V30 846 H 85.0786 -2.49015 -4.29192 0
M  V30 847 N 84.2517 0.741722 -1.39055 0
M  V30 848 C 85.2147 1.83733 -1.37021 0
M  V30 849 C 86.2147 1.58542 -0.268534 0
M  V30 850 O 87.4047 1.66067 -0.526076 0
M  V30 851 C 84.5367 3.2141 -1.13617 0
M  V30 852 H 85.7297 1.86941 -2.34506 0
M  V30 853 H 83.2827 0.944676 -1.24521 0
M  V30 854 H 84.0177 3.23865 -0.167863 0
M  V30 855 H 83.8027 3.4109 -1.93391 0
M  V30 856 H 85.2927 4.01477 -1.14918 0
M  V30 857 N 85.7298 1.2412 0.971189 0
M  V30 858 C 86.6598 1.05508 2.08304 0
M  V30 859 C 87.6408 -0.0308864 1.70072 0
M  V30 860 O 88.8258 0.135521 1.93727 0
M  V30 861 C 85.9558 0.655365 3.4106 0
M  V30 862 C 84.9098 1.68971 3.93234 0
M  V30 863 C 84.2358 1.14516 5.22293 0
M  V30 864 C 85.5358 3.08487 4.21465 0
M  V30 865 H 87.2298 1.98507 2.24132 0
M  V30 866 H 84.7758 0.955821 1.07704 0
M  V30 867 H 86.7288 0.51217 4.18276 0
M  V30 868 H 85.4528 -0.31032 3.25122 0
M  V30 869 H 84.1118 1.82106 3.18171 0
M  V30 870 H 83.7598 0.170189 5.02712 0
M  V30 871 H 83.4598 1.83635 5.58168 0
M  V30 872 H 84.9838 1.01401 6.02121 0
M  V30 873 H 86.3978 2.98601 4.89398 0
M  V30 874 H 84.7948 3.74926 4.68562 0
M  V30 875 H 85.8648 3.56787 3.28376 0
M  V30 876 N 87.2079 -1.17134 1.05439 0
M  V30 877 C 88.4479 -1.89137 0.77502 0
M  V30 878 C 88.8119 -1.79345 -0.685526 0
M  V30 879 O 90.0129 -2.46188 -1.0791 0
M  V30 880 C 88.2839 -3.35003 1.2453 0
M  V30 881 S 89.8429 -4.24952 1.09367 0
M  V30 882 H 86.6609 -0.652949 0.281387 0
M  V30 883 H 89.2629 -1.4145 1.34953 0
M  V30 884 H 87.9669 -3.39666 2.30338 0
M  V30 885 H 87.4979 -3.87736 0.665166 0
M  V30 886 H 89.5129 -4.96196 0.0193397 0
M  V30 887 N 88.686 -0.835752 -1.33615 0
M  V30 888 C 89.911 -0.442389 -2.02627 0
M  V30 889 C 90.336 0.947735 -1.62479 0
M  V30 890 O 89.694 1.61907 -0.815826 0
M  V30 891 C 89.742 -0.567216 -3.56111 0
M  V30 892 O 88.846 0.407799 -4.10379 0
M  V30 893 H 88.187 -0.180278 -0.639059 0
M  V30 894 H 90.717 -1.12972 -1.70583 0
M  V30 895 H 90.727 -0.447708 -4.05536 0
M  V30 896 H 89.402 -1.58103 -3.84677 0
M  V30 897 H 87.979 0.246107 -3.72087 0
M  V30 898 N 90.1641 1.46063 -0.591896 0
M  V30 899 C 91.0941 2.33172 0.123673 0
M  V30 900 C 92.0751 1.45897 0.87453 0
M  V30 901 O 93.2601 1.74698 0.848181 0
M  V30 902 C 90.3901 3.28336 1.13194 0
M  V30 903 C 89.3441 4.25124 0.495324 0
M  V30 904 C 88.6701 5.09863 1.61071 0
M  V30 905 C 89.9701 5.19143 -0.573425 0
M  V30 906 H 91.6641 2.93252 -0.603646 0
M  V30 907 H 89.2101 1.41014 -0.291741 0
M  V30 908 H 91.1631 3.88137 1.64097 0
M  V30 909 H 89.8871 2.66383 1.88965 0
M  V30 910 H 88.5461 3.66599 0.00729452 0
M  V30 911 H 88.1941 4.44288 2.35832 0
M  V30 912 H 87.8941 5.75417 1.19035 0
M  V30 913 H 89.4181 5.72529 2.12233 0
M  V30 914 H 90.8321 5.73106 -0.1491 0
M  V30 915 H 89.2291 5.93089 -0.914636 0
M  V30 916 H 90.2991 4.62519 -1.45617 0
M  V30 917 N 91.6422 0.330177 1.54103 0
M  V30 918 C 92.5922 -0.548456 2.21305 0
M  V30 919 C 93.5762 -1.07651 1.19583 0
M  V30 920 O 94.7682 -1.01243 1.45186 0
M  V30 921 C 91.8972 -1.70559 2.97934 0
M  V30 922 C 90.9832 -1.19212 4.07 0
M  V30 923 N 91.3742 -0.398831 5.04225 0
M  V30 924 C 89.6722 -1.47024 4.2107 0
M  V30 925 C 90.3732 -0.121761 5.81573 0
M  V30 926 N 89.3492 -0.709722 5.38947 0
M  V30 927 H 93.1512 0.0648483 2.93828 0
M  V30 928 H 90.6652 0.136363 1.61826 0
M  V30 929 H 92.6622 -2.34688 3.44568 0
M  V30 930 H 91.3222 -2.32231 2.26934 0
M  V30 931 H 92.3332 -0.0410869 5.17884 0
M  V30 932 H 89.0102 -2.09232 3.61287 0
M  V30 933 H 90.4002 0.517298 6.69906 0
M  V30 934 N 93.1203 -1.57491 0.0584922 0
M  V30 935 C 94.3453 -1.97711 -0.62652 0
M  V30 936 C 94.7703 -0.936132 -1.63151 0
M  V30 937 O 94.1283 0.099811 -1.81025 0
M  V30 938 C 94.1763 -3.36989 -1.28338 0
M  V30 939 O 93.2803 -3.35433 -2.39913 0
M  V30 940 H 92.6213 -0.643868 -0.162266 0
M  V30 941 H 95.1513 -2.04193 0.129064 0
M  V30 942 H 95.1613 -3.73879 -1.63335 0
M  V30 943 H 93.8363 -4.12289 -0.546889 0
M  V30 944 H 92.4133 -3.10298 -2.06809 0
M  V30 945 N 94.5984 0.214957 -1.56127 0
M  V30 946 C 95.8474 0.936451 -1.78643 0
M  V30 947 C 96.1604 1.85237 -0.628229 0
M  V30 948 O 97.3664 2.613 -0.737186 0
M  V30 949 C 95.8224 1.7154 -3.16389 0
M  V30 950 C 95.4304 0.845299 -4.39953 0
M  V30 951 C 97.1744 2.42772 -3.48227 0
M  V30 952 C 95.0814 1.62198 -5.68723 0
M  V30 953 H 94.0114 0.353401 -0.666051 0
M  V30 954 H 96.6624 0.190169 -1.82512 0
M  V30 955 H 95.0444 2.50484 -3.06715 0
M  V30 956 H 96.2184 0.0959353 -4.607 0
M  V30 957 H 94.5334 0.244789 -4.1568 0
M  V30 958 H 97.1304 3.01394 -4.41663 0
M  V30 959 H 97.4734 3.15984 -2.71035 0
M  V30 960 H 98.0064 1.70813 -3.5926 0
M  V30 961 H 94.7454 0.933011 -6.48826 0
M  V30 962 H 94.2654 2.34579 -5.52026 0
M  V30 963 H 95.9444 2.18095 -6.09133 0
M  V30 964 N 96.0765 1.50051 0.48192 0
M  V30 965 C 97.3245 1.60181 1.23234 0
M  V30 966 C 97.6455 0.299176 1.92691 0
M  V30 967 O 96.9155 -0.682708 1.83619 0
M  V30 968 H 95.4955 0.590232 0.457859 0
M  V30 969 H 98.1575 1.86775 0.556881 0
M  V30 970 H 97.2535 2.40753 1.98607 0
M  V30 971 N 97.5546 -0.734337 1.39446 0
M  V30 972 C 98.5016 -1.84835 1.38219 0
M  V30 973 C 99.4716 -1.64331 0.24179 0
M  V30 974 O 100.657 -1.85728 0.437002 0
M  V30 975 C 97.7966 -3.22355 1.23212 0
M  V30 976 C 96.9096 -3.5456 2.46801 0
M  V30 977 C 96.0446 -4.81485 2.24377 0
M  V30 978 C 95.0836 -5.06536 3.43639 0
M  V30 979 N 94.2206 -6.24665 3.20528 0
M  V30 980 H 99.0606 -1.85219 2.33448 0
M  V30 981 H 96.5976 -0.905039 1.15963 0
M  V30 982 H 98.5556 -4.0174 1.12522 0
M  V30 983 H 97.1856 -3.21248 0.316121 0
M  V30 984 H 96.2376 -2.69872 2.68092 0
M  V30 985 H 97.5496 -3.6899 3.3563 0
M  V30 986 H 96.7036 -5.68852 2.10933 0
M  V30 987 H 95.4426 -4.6923 1.32944 0
M  V30 988 H 94.4476 -4.17632 3.5758 0
M  V30 989 H 95.6726 -5.20676 4.35974 0
M  V30 990 H 93.6186 -6.13696 2.3176 0
M  V30 991 H 93.5356 -6.39685 4.02913 0
M  V30 992 H 94.8036 -7.14868 3.10779 0
M  V30 993 N 99.0327 -1.24633 -0.964593 0
M  V30 994 C 100.282 -1.08188 -1.7023 0
M  V30 995 C 100.595 0.37873 -1.91898 0
M  V30 996 O 101.801 0.663427 -2.6327 0
M  V30 997 C 100.257 -1.88773 -3.06419 0
M  V30 998 C 99.8647 -3.39263 -2.92582 0
M  V30 999 C 101.609 -1.80867 -3.84041 0
M  V30 1000 C 99.5157 -4.1218 -4.24101 0
M  V30 1001 H 98.4457 -0.401245 -0.638372 0
M  V30 1002 H 101.097 -1.48742 -1.07462 0
M  V30 1003 H 99.4787 -1.41035 -3.70034 0
M  V30 1004 H 100.653 -3.94603 -2.37961 0
M  V30 1005 H 98.9677 -3.48154 -2.28424 0
M  V30 1006 H 101.565 -2.32646 -4.81435 0
M  V30 1007 H 101.908 -0.774543 -4.09031 0
M  V30 1008 H 102.441 -2.26301 -3.27159 0
M  V30 1009 H 99.1797 -5.15965 -4.04303 0
M  V30 1010 H 98.6997 -3.61626 -4.78526 0
M  V30 1011 H 100.379 -4.19349 -4.92702 0
M  V30 1012 N 100.511 1.16574 -1.06058 0
M  V30 1013 C 101.759 1.86677 -0.77434 0
M  V30 1014 C 102.08 1.81959 0.701147 0
M  V30 1015 O 101.35 1.2515 1.50713 0
M  V30 1016 H 99.9298 0.691134 -0.283449 0
M  V30 1017 H 102.592 1.41378 -1.34158 0
M  V30 1018 H 101.688 2.92181 -1.09711 0
M  V30 1019 N 101.989 0.842826 1.3317 0
M  V30 1020 C 103.237 0.439577 1.97262 0
M  V30 1021 C 103.558 -1.00548 1.67078 0
M  V30 1022 O 102.828 -1.70098 0.971779 0
M  V30 1023 H 101.408 0.159558 0.72976 0
M  V30 1024 H 104.07 1.07665 1.62463 0
M  V30 1025 H 103.166 0.574886 3.0676 0
M  V30 1026 N 103.467 -1.45747 0.599634 0
M  V30 1027 C 104.43 -2.28917 -0.113835 0
M  V30 1028 C 105.43 -1.3933 -0.802729 0
M  V30 1029 O 106.62 -1.61534 -0.652103 0
M  V30 1030 C 103.752 -3.20152 -1.17114 0
M  V30 1031 H 104.945 -2.93478 0.617289 0
M  V30 1032 H 102.498 -1.52137 0.358327 0
M  V30 1033 H 103.233 -2.60374 -1.93329 0
M  V30 1034 H 103.018 -3.86133 -0.681468 0
M  V30 1035 H 104.508 -3.82708 -1.67105 0
M  V30 1036 N 104.945 -0.338344 -1.53925 0
M  V30 1037 C 105.877 0.555117 -2.22376 0
M  V30 1038 C 106.89 1.06812 -1.22862 0
M  V30 1039 O 108.079 0.979163 -1.49247 0
M  V30 1040 C 105.179 1.77609 -2.88631 0
M  V30 1041 C 104.352 1.39927 -4.14414 0
M  V30 1042 C 103.411 2.47936 -4.64127 0
M  V30 1043 O 102.437 2.11461 -5.28463 0
M  V30 1044 N 103.639 3.79107 -4.39612 0
M  V30 1045 H 106.404 -0.0310778 -2.99684 0
M  V30 1046 H 103.965 -0.162226 -1.61085 0
M  V30 1047 H 105.957 2.49287 -3.18807 0
M  V30 1048 H 104.527 2.26978 -2.14941 0
M  V30 1049 H 103.747 0.513481 -3.90841 0
M  V30 1050 H 105.035 1.12341 -4.96243 0
M  V30 1051 H 104.433 4.11531 -3.88148 0
M  V30 1052 H 102.99 4.4697 -4.74406 0
M  V30 1053 N 106.423 1.57458 -0.0668435 0
M  V30 1054 C 107.371 2.13639 0.919851 0
M  V30 1055 C 108.365 1.07204 1.31163 0
M  V30 1056 O 109.571 1.25591 1.28945 0
M  V30 1057 H 105.946 0.683048 0.314562 0
M  V30 1058 H 107.917 2.95415 0.421047 0
M  V30 1059 C 106.666 2.70892 2.17975 0
M  V30 1060 H 105.989 3.5246 1.88711 0
M  V30 1061 H 107.429 3.13803 2.85138 0
M  V30 1062 C 105.888 1.65414 2.93496 0
M  V30 1063 O 106.418 1.07619 3.87015 0
M  V30 1064 N 104.624 1.36564 2.56512 0
M  V30 1065 H 104.171 1.83751 1.80536 0
M  V30 1066 H 104.129 0.66223 3.07347 0
M  V30 1067 N 107.901 -0.206675 1.56239 0
M  V30 1068 C 109.317 -0.557025 1.49564 0
M  V30 1069 C 109.517 -1.86424 0.764735 0
M  V30 1070 O 108.573 -2.50584 0.310491 0
M  V30 1071 C 109.886 -0.622478 2.94186 0
M  V30 1072 C 111.434 -0.712099 3.04792 0
M  V30 1073 C 111.909 -0.808767 4.50803 0
M  V30 1074 N 113.4 -0.8726 4.54907 0
M  V30 1075 C 114.135 -0.967365 5.65181 0
M  V30 1076 N 113.631 -1.02515 6.85173 0
M  V30 1077 N 115.424 -1.00366 5.53067 0
M  V30 1078 H 107.575 0.650943 2.02179 0
M  V30 1079 H 109.838 0.230387 0.919579 0
M  V30 1080 H 109.544 0.268727 3.50672 0
M  V30 1081 H 109.418 -1.4811 3.46905 0
M  V30 1082 H 111.805 -1.59374 2.48363 0
M  V30 1083 H 111.886 0.172489 2.55218 0
M  V30 1084 H 111.53 0.0684754 5.07854 0
M  V30 1085 H 111.46 -1.70899 4.98098 0
M  V30 1086 H 113.951 -0.837657 3.68499 0
M  V30 1087 H 114.264 -1.09765 7.64965 0
M  V30 1088 H 112.609 -0.994026 6.87855 0
M  V30 1089 H 115.8 -0.95527 4.58249 0
M  V30 1090 H 115.973 -1.07405 6.39037 0
M  V30 1091 N 109.379 -1.50304 -0.473955 0
M  V30 1092 C 110.604 -1.65175 -1.25427 0
M  V30 1093 C 111.029 -0.333673 -1.85117 0
M  V30 1094 O 110.387 0.702114 -1.67153 0
M  V30 1095 C 110.435 -2.74295 -2.34082 0
M  V30 1096 O 109.539 -2.35349 -3.38651 0
M  V30 1097 H 108.88 -0.551944 -0.369126 0
M  V30 1098 H 111.41 -1.96662 -0.564364 0
M  V30 1099 H 111.42 -2.97285 -2.79438 0
M  V30 1100 H 110.095 -3.69959 -1.90008 0
M  V30 1101 H 108.672 -2.22794 -2.99027 0
M  V30 1102 N 110.857 0.726932 -1.39834 0
M  V30 1103 C 112.087 1.51393 -1.40583 0
M  V30 1104 C 112.495 1.892 -0.000740625 0
M  V30 1105 O 111.838 1.55189 0.982951 0
M  V30 1106 C 111.9 2.82588 -2.22226 0
M  V30 1107 C 111.564 2.67169 -3.70769 0
M  V30 1108 C 112.561 2.3518 -4.63666 0
M  V30 1109 C 110.246 2.83788 -4.14451 0
M  V30 1110 C 112.24 2.20002 -5.98229 0
M  V30 1111 C 109.927 2.68229 -5.49087 0
M  V30 1112 C 110.925 2.36382 -6.4079 0
M  V30 1113 O 110.613 2.2093 -7.72946 0
M  V30 1114 H 110.345 0.474168 -0.48181 0
M  V30 1115 H 112.899 0.905247 -1.84376 0
M  V30 1116 H 111.129 3.45746 -1.73195 0
M  V30 1117 H 112.818 3.44247 -2.15055 0
M  V30 1118 H 113.584 2.21984 -4.31217 0
M  V30 1119 H 109.463 3.07566 -3.43401 0
M  V30 1120 H 113.007 1.95067 -6.69772 0
M  V30 1121 H 108.904 2.81006 -5.81125 0
M  V30 1122 H 109.672 2.35937 -7.83757 0
M  V30 1123 N 112.336 1.25143 0.95797 0
M  V30 1124 C 113.561 1.12521 1.74223 0
M  V30 1125 C 113.986 -0.317402 1.85403 0
M  V30 1126 O 113.344 -1.2299 1.33204 0
M  V30 1127 C 113.392 1.78062 3.1357 0
M  V30 1128 O 112.496 1.058 3.98598 0
M  V30 1129 H 111.837 0.39304 0.535178 0
M  V30 1130 H 114.367 1.65641 1.201 0
M  V30 1131 H 114.377 1.84213 3.64046 0
M  V30 1132 H 113.052 2.83021 3.04749 0
M  V30 1133 H 111.629 1.07506 3.57067 0
M  V30 1134 N 113.814 -1.1601 1.06675 0
M  V30 1135 C 114.761 -2.20525 0.680967 0
M  V30 1136 C 115.731 -1.62904 -0.324283 0
M  V30 1137 O 116.916 -1.89615 -0.212294 0
M  V30 1138 C 114.056 -3.45013 0.0776551 0
M  V30 1139 C 113.169 -4.16863 1.13355 0
M  V30 1140 C 112.304 -5.2888 0.49597 0
M  V30 1141 C 111.343 -5.92537 1.53513 0
M  V30 1142 N 110.48 -6.96038 0.920631 0
M  V30 1143 H 115.32 -2.52876 1.57663 0
M  V30 1144 H 112.857 -1.24199 0.788223 0
M  V30 1145 H 114.815 -4.16193 -0.289704 0
M  V30 1146 H 113.445 -3.132 -0.781393 0
M  V30 1147 H 112.497 -3.44248 1.61857 0
M  V30 1148 H 113.809 -4.60294 1.92174 0
M  V30 1149 H 112.963 -6.06653 0.0758604 0
M  V30 1150 H 111.702 -4.86622 -0.324062 0
M  V30 1151 H 110.707 -5.13482 1.9651 0
M  V30 1152 H 111.932 -6.36873 2.35733 0
M  V30 1153 H 109.878 -6.55888 0.12138 0
M  V30 1154 H 109.795 -7.3786 1.64616 0
M  V30 1155 H 111.063 -7.77725 0.525795 0
M  V30 1156 N 115.292 -0.849877 -1.32721 0
M  V30 1157 C 116.222 -0.306308 -2.31482 0
M  V30 1158 C 117.203 0.591952 -1.59468 0
M  V30 1159 O 118.388 0.513199 -1.87296 0
M  V30 1160 C 115.518 0.510204 -3.43532 0
M  V30 1161 C 114.472 -0.293209 -4.26994 0
M  V30 1162 C 113.798 0.647743 -5.30762 0
M  V30 1163 C 115.098 -1.51634 -4.99804 0
M  V30 1164 H 116.792 -1.13153 -2.77195 0
M  V30 1165 H 114.338 -0.545553 -1.33266 0
M  V30 1166 H 116.291 0.900856 -4.11658 0
M  V30 1167 H 115.015 1.36874 -2.96535 0
M  V30 1168 H 113.674 -0.665555 -3.60508 0
M  V30 1169 H 113.322 1.50299 -4.8002 0
M  V30 1170 H 113.022 0.11422 -5.87489 0
M  V30 1171 H 114.546 1.03567 -6.01753 0
M  V30 1172 H 115.96 -1.19824 -5.60638 0
M  V30 1173 H 114.357 -1.98745 -5.66234 0
M  V30 1174 H 115.427 -2.28018 -4.27943 0
M  V30 1175 N 116.77 1.45427 -0.607355 0
M  V30 1176 C 117.7 2.3329 0.0989352 0
M  V30 1177 C 118.681 1.46816 0.859007 0
M  V30 1178 O 119.866 1.75588 0.829604 0
M  V30 1179 C 116.996 3.29518 1.09705 0
M  V30 1180 C 115.95 4.25626 0.450206 0
M  V30 1181 C 115.276 5.11542 1.55655 0
M  V30 1182 C 116.576 5.18505 -0.628455 0
M  V30 1183 H 118.27 2.92595 -0.634716 0
M  V30 1184 H 115.816 1.40696 -0.306681 0
M  V30 1185 H 117.769 3.89855 1.59971 0
M  V30 1186 H 116.493 2.68372 1.86129 0
M  V30 1187 H 115.152 3.66586 -0.0315886 0
M  V30 1188 H 114.8 4.46765 2.31107 0
M  V30 1189 H 114.5 5.76647 1.12925 0
M  V30 1190 H 116.024 5.74748 2.06148 0
M  V30 1191 H 117.438 5.72916 -0.209877 0
M  V30 1192 H 115.835 5.92085 -0.977489 0
M  V30 1193 H 116.905 4.60948 -1.50514 0
M  V30 1194 N 118.248 0.346503 1.53744 0
M  V30 1195 C 119.488 -0.249413 2.02873 0
M  V30 1196 C 119.852 -1.47532 1.22876 0
M  V30 1197 O 121.053 -2.1456 1.61918 0
M  V30 1198 C 119.324 -0.552909 3.53097 0
M  V30 1199 S 120.883 -1.12521 4.24128 0
M  V30 1200 H 117.701 -0.074042 0.707134 0
M  V30 1201 H 120.303 0.48495 1.8939 0
M  V30 1202 H 119.007 0.347083 4.0893 0
M  V30 1203 H 118.538 -1.31686 3.70705 0
M  V30 1204 H 120.553 -2.41075 4.33702 0
M  V30 1205 N 119.726 -1.57421 0.075193 0
M  V30 1206 C 120.974 -1.93236 -0.591974 0
M  V30 1207 C 121.295 -0.956241 -1.69944 0
M  V30 1208 O 120.565 -0.00494792 -1.95899 0
M  V30 1209 H 119.145 -0.713355 -0.22166 0
M  V30 1210 H 121.807 -1.9444 0.133848 0
M  V30 1211 H 120.903 -2.95131 -1.01509 0
M  V30 1212 N 121.204 0.198386 -1.56346 0
M  V30 1213 C 122.134 1.24865 -1.9731 0
M  V30 1214 C 123.115 1.47651 -0.844576 0
M  V30 1215 O 124.3 1.59444 -1.10866 0
M  V30 1216 C 121.43 2.59358 -2.30977 0
M  V30 1217 C 120.384 2.5119 -3.46537 0
M  V30 1218 C 119.71 3.89926 -3.65871 0
M  V30 1219 C 121.01 2.03977 -4.80823 0
M  V30 1220 H 122.704 0.908252 -2.85291 0
M  V30 1221 H 120.25 0.435462 -1.37258 0
M  V30 1222 H 122.203 3.33011 -2.58228 0
M  V30 1223 H 120.927 2.95132 -1.39874 0
M  V30 1224 H 119.586 1.79993 -3.19371 0
M  V30 1225 H 119.234 4.23046 -2.72105 0
M  V30 1226 H 118.934 3.85336 -4.4361 0
M  V30 1227 H 120.458 4.65205 -3.95495 0
M  V30 1228 H 121.872 2.67386 -5.07127 0
M  V30 1229 H 120.269 2.10397 -5.62008 0
M  V30 1230 H 121.339 0.992861 -4.74626 0
M  V30 1231 N 122.682 1.50554 0.465978 0
M  V30 1232 C 123.612 1.72722 1.57128 0
M  V30 1233 C 124.593 0.576294 1.6004 0
M  V30 1234 O 125.778 0.81598 1.76225 0
M  V30 1235 C 122.908 1.82605 2.95419 0
M  V30 1236 C 121.862 2.97835 3.07373 0
M  V30 1237 C 121.188 2.92867 4.47363 0
M  V30 1238 C 122.488 4.38265 2.84114 0
M  V30 1239 H 124.182 2.65267 1.38829 0
M  V30 1240 H 121.728 1.2765 0.666441 0
M  V30 1241 H 123.681 1.96698 3.72677 0
M  V30 1242 H 122.405 0.866858 3.14886 0
M  V30 1243 H 121.064 2.83401 2.3255 0
M  V30 1244 H 120.712 1.94783 4.63755 0
M  V30 1245 H 120.412 3.70227 4.56296 0
M  V30 1246 H 121.936 3.09015 5.26633 0
M  V30 1247 H 123.35 4.53198 3.51118 0
M  V30 1248 H 121.747 5.17115 3.04487 0
M  V30 1249 H 122.817 4.50281 1.7993 0
M  V30 1250 N 124.16 -0.719506 1.40217 0
M  V30 1251 C 125.123 -1.8153 1.39927 0
M  V30 1252 C 126.123 -1.58095 0.293723 0
M  V30 1253 O 127.313 -1.65209 0.552429 0
M  V30 1254 C 124.445 -3.19561 1.18716 0
M  V30 1255 H 125.638 -1.83186 2.37451 0
M  V30 1256 H 123.191 -0.924746 1.26008 0
M  V30 1257 H 123.926 -3.23557 0.219366 0
M  V30 1258 H 123.711 -3.3797 1.98793 0
M  V30 1259 H 125.201 -3.99598 1.21291 0
M  V30 1260 N 125.638 -1.25649 -0.95132 0
M  V30 1261 C 126.548 -1.08073 -2.08224 0
M  V30 1262 C 127.564 -0.0169666 -1.73992 0
M  V30 1263 O 128.74 -0.218593 -2.0021 0
M  V30 1264 C 125.805 -0.704922 -3.39458 0
M  V30 1265 C 124.866 -1.84699 -3.87537 0
M  V30 1266 C 124.099 -1.48902 -5.12508 0
M  V30 1267 O 124.322 -0.386156 -5.69091 0
M  V30 1268 O 123.256 -2.32033 -5.55378 0
M  V30 1269 H 127.082 -2.02924 -2.25954 0
M  V30 1270 H 124.667 -1.04618 -1.06656 0
M  V30 1271 H 126.549 -0.507609 -4.18332 0
M  V30 1272 H 125.224 0.214291 -3.2299 0
M  V30 1273 H 124.131 -2.09919 -3.09653 0
M  V30 1274 H 125.464 -2.74557 -4.08509 0
M  V30 1275 N 127.117 1.15442 -1.07289 0
M  V30 1276 C 128.533 1.38201 -0.798288 0
M  V30 1277 C 128.733 1.92429 0.597769 0
M  V30 1278 O 127.789 2.12962 1.3566 0
M  V30 1279 C 129.102 2.35357 -1.87156 0
M  V30 1280 C 130.65 2.49021 -1.89624 0
M  V30 1281 C 131.125 3.49468 -2.96034 0
M  V30 1282 N 132.616 3.57003 -2.95132 0
M  V30 1283 C 133.351 4.34543 -3.74112 0
M  V30 1284 N 132.847 5.15421 -4.6294 0
M  V30 1285 N 134.64 4.29625 -3.62462 0
M  V30 1286 H 126.791 0.78584 -1.97328 0
M  V30 1287 H 129.054 0.408065 -0.855679 0
M  V30 1288 H 128.76 2.02626 -2.87464 0
M  V30 1289 H 128.634 3.35129 -1.73114 0
M  V30 1290 H 131.021 2.81051 -0.899687 0
M  V30 1291 H 131.102 1.4925 -2.07745 0
M  V30 1292 H 130.746 3.18173 -3.95889 0
M  V30 1293 H 130.676 4.48992 -2.75161 0
M  V30 1294 H 133.167 2.99276 -2.30743 0
M  V30 1295 H 133.48 5.7183 -5.19837 0
M  V30 1296 H 131.825 5.14729 -4.66989 0
M  V30 1297 H 135.016 3.65505 -2.92444 0
M  V30 1298 H 135.189 4.89807 -4.24256 0
M  V30 1299 N 128.595 0.856903 1.32268 0
M  V30 1300 C 129.525 0.31858 2.31316 0
M  V30 1301 C 130.506 -0.583487 1.59779 0
M  V30 1302 O 131.691 -0.503259 1.87566 0
M  V30 1303 C 128.821 -0.491979 3.43798 0
M  V30 1304 C 127.775 0.315849 4.26833 0
M  V30 1305 C 127.101 -0.619586 5.31098 0
M  V30 1306 C 128.401 1.54282 4.98993 0
M  V30 1307 H 130.095 1.14621 2.76591 0
M  V30 1308 H 127.641 0.552613 1.32974 0
M  V30 1309 H 129.594 -0.879012 4.1213 0
M  V30 1310 H 128.318 -1.35299 2.97257 0
M  V30 1311 H 126.977 0.684664 3.6015 0
M  V30 1312 H 126.625 -1.47751 4.8081 0
M  V30 1313 H 126.325 -0.0830621 5.87541 0
M  V30 1314 H 127.849 -1.00375 6.02293 0
M  V30 1315 H 129.263 1.22796 5.59995 0
M  V30 1316 H 127.66 2.01745 5.65172 0
M  V30 1317 H 128.73 2.30285 4.26728 0
M  V30 1318 N 130.073 -1.45103 0.615059 0
M  V30 1319 C 131.489 -1.57137 0.279322 0
M  V30 1320 C 131.689 -1.60523 -1.21797 0
M  V30 1321 O 130.745 -1.53956 -2.00134 0
M  V30 1322 C 132.058 -2.85062 0.957083 0
M  V30 1323 C 133.606 -2.98749 0.933706 0
M  V30 1324 C 134.081 -4.29455 1.59162 0
M  V30 1325 N 135.572 -4.36231 1.55746 0
M  V30 1326 C 136.307 -5.36051 2.0356 0
M  V30 1327 N 135.803 -6.42367 2.59494 0
M  V30 1328 N 137.596 -5.27456 1.94284 0
M  V30 1329 H 129.747 -1.41148 1.58717 0
M  V30 1330 H 132.01 -0.675331 0.665306 0
M  V30 1331 H 131.716 -2.88488 2.01166 0
M  V30 1332 H 131.59 -3.7407 0.48494 0
M  V30 1333 H 133.977 -2.94886 -0.112347 0
M  V30 1334 H 134.058 -2.11132 1.44419 0
M  V30 1335 H 133.702 -4.34077 2.63704 0
M  V30 1336 H 133.632 -5.15901 1.0561 0
M  V30 1337 H 136.123 -3.60011 1.14893 0
M  V30 1338 H 136.436 -7.14793 2.93752 0
M  V30 1339 H 134.781 -6.43097 2.63537 0
M  V30 1340 H 137.972 -4.43308 1.5032 0
M  V30 1341 H 138.145 -6.05099 2.3186 0
M  V30 1342 N 131.551 -0.354651 -1.53558 0
M  V30 1343 C 132.8 0.239504 -2.00273 0
M  V30 1344 C 133.113 1.50759 -1.24623 0
M  V30 1345 O 134.319 2.17968 -1.61871 0
M  V30 1346 C 132.775 0.477341 -3.5672 0
M  V30 1347 C 132.383 -0.775488 -4.41237 0
M  V30 1348 C 134.127 1.02975 -4.11821 0
M  V30 1349 C 132.034 -0.507838 -5.89216 0
M  V30 1350 H 130.964 0.0932743 -0.748208 0
M  V30 1351 H 133.615 -0.471701 -1.77334 0
M  V30 1352 H 131.997 1.24953 -3.7577 0
M  V30 1353 H 133.171 -1.54963 -4.33962 0
M  V30 1354 H 131.486 -1.25033 -3.97185 0
M  V30 1355 H 134.083 1.24513 -5.2 0
M  V30 1356 H 134.426 1.98862 -3.65731 0
M  V30 1357 H 134.959 0.317994 -3.96527 0
M  V30 1358 H 131.698 -1.43674 -6.39561 0
M  V30 1359 H 131.218 0.228011 -5.99366 0
M  V30 1360 H 132.897 -0.129238 -6.46871 0
M  V30 1361 N 133.029 1.57378 -0.0835403 0
M  V30 1362 C 134.254 1.98682 0.594987 0
M  V30 1363 C 134.679 0.961969 1.61641 0
M  V30 1364 O 134.037 -0.0709989 1.81161 0
M  V30 1365 C 134.085 3.38988 1.2296 0
M  V30 1366 O 133.189 3.39208 2.34546 0
M  V30 1367 H 132.53 0.646368 0.152002 0
M  V30 1368 H 135.06 2.03961 -0.161533 0
M  V30 1369 H 135.07 3.76431 1.57366 0
M  V30 1370 H 133.745 4.13107 0.481228 0
M  V30 1371 H 132.322 3.13548 2.01846 0
M  V30 1372 N 134.507 -0.190092 1.56449 0
M  V30 1373 C 135.918 -0.754312 1.70784 0
M  V30 1374 C 136.269 -1.83631 0.690951 0
M  V30 1375 O 135.394 -2.15868 -0.151604 0
M  V30 1376 C 135.989 -1.37503 3.09642 0
M  V30 1377 C 134.548 -1.88628 3.25725 0
M  V30 1378 C 133.695 -0.758098 2.66736 0
M  V30 1379 H 136.646 0.0350524 1.58661 0
M  V30 1380 H 136.667 -2.2445 3.0725 0
M  V30 1381 H 136.179 -0.587302 3.83631 0
M  V30 1382 H 134.28 -2.70103 2.56661 0
M  V30 1383 H 134.393 -2.04462 4.3328 0
M  V30 1384 H 132.757 -1.17369 2.26046 0
M  V30 1385 H 133.54 0.0174705 3.43296 0
M  V30 1386 N 135.985 -1.50799 -0.457987 0
M  V30 1387 C 137.262 -1.52968 -1.21902 0
M  V30 1388 C 137.642 -0.281906 -2.09209 0
M  V30 1389 O 136.99 0.734076 -2.16388 0
M  V30 1390 C 137.2 -2.8326 -2.03875 0
M  V30 1391 C 138.548 -3.34425 -2.6162 0
M  V30 1392 O 139.572 -2.8467 -2.14106 0
M  V30 1393 O 138.431 -4.21188 -3.48228 0
M  V30 1394 H 135.525 -0.614129 -0.553873 0
M  V30 1395 H 138.071 -1.63098 -0.468739 0
M  V30 1396 H 136.843 -3.65543 -1.39621 0
M  V30 1397 H 136.466 -2.76195 -2.8601 0
M  V30 1398 N 137.463 0.71206 -1.40597 0
M  V30 1399 C 138.879 1.02058 -1.22704 0
M  V30 1400 C 139.079 2.01228 -0.104729 0
M  V30 1401 O 138.135 2.4674 0.53624 0
M  V30 1402 C 139.448 1.56094 -2.57012 0
M  V30 1403 C 140.996 1.6806 -2.64054 0
M  V30 1404 C 141.471 2.25501 -3.9864 0
M  V30 1405 N 142.962 2.32882 -4.004 0
M  V30 1406 C 143.697 2.78317 -5.01325 0
M  V30 1407 N 143.193 3.23478 -6.12645 0
M  V30 1408 N 144.986 2.77733 -4.88693 0
M  V30 1409 H 137.137 0.0547896 -2.12329 0
M  V30 1410 H 139.4 0.0869027 -0.944008 0
M  V30 1411 H 139.106 0.906865 -3.39807 0
M  V30 1412 H 138.98 2.54564 -2.78347 0
M  V30 1413 H 141.367 2.32583 -1.81629 0
M  V30 1414 H 141.448 0.681802 -2.46546 0
M  V30 1415 H 141.092 1.61598 -4.81506 0
M  V30 1416 H 141.022 3.26102 -4.13479 0
M  V30 1417 H 143.513 2.00991 -3.20017 0
M  V30 1418 H 143.826 3.56725 -6.85542 0
M  V30 1419 H 142.171 3.21429 -6.16205 0
M  V30 1420 H 145.362 2.4179 -4.00818 0
M  V30 1421 H 145.535 3.12826 -5.67489 0
M  V30 1422 N 138.941 1.26152 0.944643 0
M  V30 1423 C 140.187 1.11657 1.69294 0
M  V30 1424 C 140.52 -0.339926 1.91202 0
M  V30 1425 O 139.795 -1.24994 1.49019 0
M  V30 1426 C 140.078 1.88236 3.06984 0
M  V30 1427 C 139.931 3.41772 2.92424 0
M  V30 1428 C 141.25 1.67343 4.07043 0
M  V30 1429 H 138.369 0.407004 0.614424 0
M  V30 1430 H 141.011 1.55106 1.09737 0
M  V30 1431 H 139.161 1.51308 3.57824 0
M  V30 1432 H 140.833 3.88433 2.48832 0
M  V30 1433 H 139.076 3.68974 2.28124 0
M  V30 1434 H 139.747 3.90579 3.90067 0
M  V30 1435 H 142.223 1.99509 3.65151 0
M  V30 1436 H 141.099 2.23346 5.01406 0
M  V30 1437 H 141.36 0.617158 4.37771 0
M  V30 1438 N 140.419 -1.14872 1.07899 0
M  V30 1439 C 141.649 -1.89386 0.825631 0
M  V30 1440 C 142.057 -1.78565 -0.625406 0
M  V30 1441 O 141.4 -1.13918 -1.44113 0
M  V30 1442 C 141.462 -3.40206 1.16191 0
M  V30 1443 C 141.126 -3.74812 2.61467 0
M  V30 1444 C 142.123 -3.75367 3.59716 0
M  V30 1445 C 139.808 -4.0495 2.97189 0
M  V30 1446 C 141.802 -4.05574 4.9172 0
M  V30 1447 C 139.489 -4.34821 4.29388 0
M  V30 1448 C 140.487 -4.35116 5.26463 0
M  V30 1449 O 140.175 -4.64267 6.56286 0
M  V30 1450 H 139.907 -0.606894 0.297751 0
M  V30 1451 H 142.461 -1.46438 1.44031 0
M  V30 1452 H 140.691 -3.8358 0.490214 0
M  V30 1453 H 142.38 -3.96018 0.890193 0
M  V30 1454 H 143.146 -3.52176 3.33462 0
M  V30 1455 H 139.025 -4.03876 2.22273 0
M  V30 1456 H 142.569 -4.05719 5.67484 0
M  V30 1457 H 138.466 -4.5748 4.55392 0
M  V30 1458 H 139.234 -4.82007 6.61522 0
M  V30 1459 N 141.898 -0.863906 -1.31812 0
M  V30 1460 C 143.147 -0.46801 -1.96195 0
M  V30 1461 C 143.46 0.983474 -1.69077 0
M  V30 1462 O 144.666 1.48523 -2.27273 0
M  V30 1463 C 143.122 -0.785995 -3.51212 0
M  V30 1464 C 142.73 -2.25383 -3.87178 0
M  V30 1465 C 144.474 -0.458274 -4.22019 0
M  V30 1466 C 142.381 -2.51455 -5.3528 0
M  V30 1467 H 141.311 -0.171283 -0.734287 0
M  V30 1468 H 143.962 -1.05597 -1.50072 0
M  V30 1469 H 142.344 -0.127359 -3.95795 0
M  V30 1470 H 143.518 -2.95502 -3.53575 0
M  V30 1471 H 141.833 -2.54698 -3.2942 0
M  V30 1472 H 144.43 -0.630369 -5.30971 0
M  V30 1473 H 144.773 0.600834 -4.11941 0
M  V30 1474 H 145.306 -1.07319 -3.8305 0
M  V30 1475 H 142.045 -3.56025 -5.50387 0
M  V30 1476 H 141.565 -1.85923 -5.70257 0
M  V30 1477 H 143.244 -2.35874 -6.02472 0
M  V30 1478 N 143.376 1.44774 -0.622745 0
M  V30 1479 C 144.324 2.32387 0.0994683 0
M  V30 1480 C 145.318 1.46859 0.844326 0
M  V30 1481 O 146.524 1.63254 0.758174 0
M  V30 1482 H 142.899 0.750273 0.0509291 0
M  V30 1483 H 144.87 2.91062 -0.65767 0
M  V30 1484 C 143.619 3.30723 1.07319 0
M  V30 1485 H 142.942 3.96541 0.509462 0
M  V30 1486 H 144.382 3.94725 1.54817 0
M  V30 1487 C 142.841 2.59021 2.15429 0
M  V30 1488 O 143.371 2.38286 3.23393 0
M  V30 1489 N 141.577 2.189 1.91131 0
M  V30 1490 H 141.124 2.35964 1.03337 0
M  V30 1491 H 141.082 1.71251 2.63668 0
M  V30 1492 N 144.854 0.36279 1.53368 0
M  V30 1493 C 146.084 -0.228281 2.05335 0
M  V30 1494 C 146.492 -1.43226 1.23625 0
M  V30 1495 O 145.835 -1.81717 0.269206 0
M  V30 1496 C 145.897 -0.688549 3.52845 0
M  V30 1497 C 145.561 0.398362 4.5526 0
M  V30 1498 C 146.558 1.24732 5.04716 0
M  V30 1499 C 144.243 0.557805 4.99193 0
M  V30 1500 C 146.237 2.2411 5.96702 0
M  V30 1501 C 143.924 1.55495 5.90986 0
M  V30 1502 C 144.922 2.39503 6.39631 0
M  V30 1503 O 144.61 3.37517 7.29615 0
M  V30 1504 H 144.342 -0.044395 0.674541 0
M  V30 1505 H 146.896 0.518668 1.98744 0
M  V30 1506 H 145.126 -1.48706 3.56964 0
M  V30 1507 H 146.815 -1.20231 3.87685 0
M  V30 1508 H 147.581 1.13532 4.71525 0
M  V30 1509 H 143.46 -0.0862959 4.60919 0
M  V30 1510 H 147.004 2.89718 6.34594 0
M  V30 1511 H 142.901 1.66744 6.23592 0
M  V30 1512 H 143.669 3.33213 7.47604 0
M  V30 1513 N 146.332 -1.57332 0.0918853 0
M  V30 1514 C 147.562 -1.98286 -0.580205 0
M  V30 1515 C 147.97 -0.969713 -1.6246 0
M  V30 1516 O 147.313 0.0493501 -1.83634 0
M  V30 1517 C 147.375 -3.35603 -1.28882 0
M  V30 1518 C 147.039 -4.55285 -0.395559 0
M  V30 1519 C 148.036 -5.18687 0.355002 0
M  V30 1520 C 145.721 -5.01314 -0.314556 0
M  V30 1521 C 147.715 -6.26484 1.17458 0
M  V30 1522 C 145.402 -6.08979 0.508677 0
M  V30 1523 C 146.4 -6.71429 1.2519 0
M  V30 1524 O 146.088 -7.77018 2.06151 0
M  V30 1525 H 145.82 -0.656678 -0.160466 0
M  V30 1526 H 148.374 -2.04721 0.16688 0
M  V30 1527 H 146.604 -3.25842 -2.08241 0
M  V30 1528 H 148.293 -3.61026 -1.85512 0
M  V30 1529 H 149.059 -4.84058 0.302134 0
M  V30 1530 H 144.938 -4.5247 -0.882697 0
M  V30 1531 H 148.482 -6.75159 1.75518 0
M  V30 1532 H 144.379 -6.4304 0.563037 0
M  V30 1533 H 145.147 -7.93991 1.98799 0
M  V30 1534 N 147.81 0.181792 -1.56548 0
M  V30 1535 C 149.087 0.926765 -1.72251 0
M  V30 1536 C 149.467 2.00831 -0.650386 0
M  V30 1537 O 148.815 2.26008 0.336521 0
M  V30 1538 C 149.025 1.50106 -3.1507 0
M  V30 1539 C 150.373 1.97805 -3.75711 0
M  V30 1540 O 151.397 1.59922 -3.18282 0
M  V30 1541 O 150.256 2.67555 -4.76525 0
M  V30 1542 H 147.35 0.435506 -0.703039 0
M  V30 1543 H 149.896 0.170443 -1.68842 0
M  V30 1544 H 148.668 0.72212 -3.84579 0
M  V30 1545 H 148.291 2.32186 -3.22763 0
M  V30 1546 N 149.288 1.51039 0.449983 0
M  V30 1547 C 150.221 1.66105 1.56474 0
M  V30 1548 C 151.199 0.508776 1.54435 0
M  V30 1549 O 152.383 0.731005 1.73749 0
M  V30 1550 C 149.51 1.66304 2.9506 0
M  V30 1551 C 148.556 2.87346 3.15174 0
M  V30 1552 S 149.389 4.4835 2.92818 0
M  V30 1553 C 150.545 4.51274 4.33708 0
M  V30 1554 H 150.778 2.60397 1.43459 0
M  V30 1555 H 148.311 1.40565 0.638805 0
M  V30 1556 H 150.269 1.67103 3.74949 0
M  V30 1557 H 148.93 0.732108 3.05449 0
M  V30 1558 H 148.123 2.83849 4.16468 0
M  V30 1559 H 147.725 2.84223 2.43091 0
M  V30 1560 H 150.017 4.26136 5.26701 0
M  V30 1561 H 150.96 5.53017 4.42242 0
M  V30 1562 H 151.368 3.80738 4.16772 0
M  V30 1563 N 150.766 -0.704594 1.40972 0
M  V30 1564 C 151.714 -1.83994 1.42299 0
M  V30 1565 C 152.708 -1.66684 0.302111 0
M  V30 1566 O 153.914 -1.73655 0.473697 0
M  V30 1567 H 150.289 -0.606171 0.44504 0
M  V30 1568 H 152.26 -1.79992 2.38003 0
M  V30 1569 C 151.009 -3.21946 1.31323 0
M  V30 1570 H 150.332 -3.35878 2.16855 0
M  V30 1571 H 151.772 -4.01491 1.36311 0
M  V30 1572 C 150.231 -3.36891 0.0245977 0
M  V30 1573 O 150.761 -3.90687 -0.934153 0
M  V30 1574 N 148.967 -2.90559 -0.0485243 0
M  V30 1575 H 148.514 -2.46968 0.732419 0
M  V30 1576 H 148.472 -3.00937 -0.910171 0
M  V30 1577 N 152.244 -1.26651 -0.937939 0
M  V30 1578 C 153.207 -1.08546 -2.01867 0
M  V30 1579 C 154.207 -0.0327327 -1.60767 0
M  V30 1580 O 155.397 -0.276427 -1.71993 0
M  V30 1581 C 152.529 -0.651711 -3.34613 0
M  V30 1582 H 153.722 -2.04502 -2.1936 0
M  V30 1583 H 151.275 -1.09294 -1.11734 0
M  V30 1584 H 152.01 0.309696 -3.22818 0
M  V30 1585 H 151.795 -1.41189 -3.65798 0
M  V30 1586 H 153.285 -0.546973 -4.14002 0
M  V30 1587 N 153.722 1.14298 -1.08507 0
M  V30 1588 C 154.685 2.17607 -0.719711 0
M  V30 1589 C 155.685 1.58907 0.245997 0
M  V30 1590 O 156.875 1.74181 0.0254081 0
M  V30 1591 C 154.007 3.40842 -0.0627695 0
M  V30 1592 H 155.2 2.51443 -1.63452 0
M  V30 1593 H 152.753 1.28963 -0.88307 0
M  V30 1594 H 153.488 3.12587 0.863716 0
M  V30 1595 H 153.273 3.84713 -0.757504 0
M  V30 1596 H 154.763 4.17221 0.177786 0
M  V30 1597 N 155.201 0.870884 1.31352 0
M  V30 1598 C 156.149 0.316445 2.30437 0
M  V30 1599 C 157.143 -0.568965 1.59559 0
M  V30 1600 O 158.349 -0.454964 1.74155 0
M  V30 1601 H 154.724 0.0836521 0.747333 0
M  V30 1602 H 156.695 1.16606 2.74673 0
M  V30 1603 C 155.444 -0.46635 3.44558 0
M  V30 1604 H 154.767 0.205687 3.99271 0
M  V30 1605 H 156.207 -0.819614 4.16003 0
M  V30 1606 C 154.666 -1.65797 2.9328 0
M  V30 1607 O 155.196 -2.75728 2.92125 0
M  V30 1608 N 153.402 -1.49041 2.4947 0
M  V30 1609 H 152.949 -0.59612 2.50608 0
M  V30 1610 H 152.907 -2.28911 2.15516 0
M  V30 1611 N 156.679 -1.44442 0.630414 0
M  V30 1612 C 157.925 -2.02351 0.134816 0
M  V30 1613 C 158.258 -1.4947 -1.23986 0
M  V30 1614 O 157.533 -0.678475 -1.82283 0
M  V30 1615 C 157.816 -3.59898 0.120707 0
M  V30 1616 C 157.669 -4.23063 1.52767 0
M  V30 1617 C 158.988 -4.36585 -0.555127 0
M  V30 1618 H 156.107 -0.73527 0.0504646 0
M  V30 1619 H 158.749 -1.72022 0.806751 0
M  V30 1620 H 156.899 -3.85868 -0.451477 0
M  V30 1621 H 158.571 -4.08202 2.14869 0
M  V30 1622 H 156.814 -3.80586 2.08175 0
M  V30 1623 H 157.485 -5.32071 1.46984 0
M  V30 1624 H 159.961 -4.16044 -0.0685429 0
M  V30 1625 H 158.837 -5.46294 -0.534185 0
M  V30 1626 H 159.098 -4.11138 -1.62535 0
M  V30 1627 N 158.157 -0.370918 -1.53173 0
M  V30 1628 C 159.405 0.216673 -2.00935 0
M  V30 1629 C 159.726 1.48845 -1.25977 0
M  V30 1630 O 158.996 1.92286 -0.374551 0
M  V30 1631 H 157.576 0.0830565 -0.742368 0
M  V30 1632 H 160.238 -0.49838 -1.8842 0
M  V30 1633 H 159.334 0.439893 -3.08984 0
M  V30 1634 N 159.635 1.57281 -0.100228 0
M  V30 1635 C 160.881 1.95626 0.556946 0
M  V30 1636 C 161.236 0.981655 1.65473 0
M  V30 1637 O 160.529 0.00849847 1.91598 0
M  V30 1638 C 160.723 3.38305 1.15259 0
M  V30 1639 C 160.552 4.49555 0.114035 0
M  V30 1640 C 159.322 5.0434 -0.311266 0
M  V30 1641 C 161.52 5.10051 -0.659768 0
M  V30 1642 N 159.502 5.99152 -1.33755 0
M  V30 1643 C 160.873 6.00628 -1.53774 0
M  V30 1644 C 162.928 4.92772 -0.712723 0
M  V30 1645 C 161.631 6.7578 -2.46403 0
M  V30 1646 C 163.657 5.6859 -1.62663 0
M  V30 1647 C 163.019 6.58838 -2.49222 0
M  V30 1648 H 159.118 0.7624 0.173982 0
M  V30 1649 H 161.702 1.93829 -0.183988 0
M  V30 1650 H 159.873 3.40786 1.86332 0
M  V30 1651 H 161.605 3.63817 1.77254 0
M  V30 1652 H 158.36 4.73537 0.0774812 0
M  V30 1653 H 158.784 6.5126 -1.84905 0
M  V30 1654 H 163.426 4.22761 -0.0576648 0
M  V30 1655 H 161.144 7.4505 -3.12931 0
M  V30 1656 H 164.73 5.57233 -1.67281 0
M  V30 1657 H 163.61 7.16479 -3.18791 0
M  V30 1658 N 161.113 -0.173488 1.56642 0
M  V30 1659 C 162.061 -1.23417 1.97157 0
M  V30 1660 C 163.055 -1.45946 0.860013 0
M  V30 1661 O 164.261 -1.46551 1.04512 0
M  V30 1662 H 160.636 -0.414818 0.62724 0
M  V30 1663 H 162.607 -0.865582 2.8557 0
M  V30 1664 C 161.356 -2.5665 2.34576 0
M  V30 1665 H 160.679 -2.40137 3.19647 0
M  V30 1666 H 162.119 -3.2956 2.6677 0
M  V30 1667 C 160.578 -3.15245 1.18836 0
M  V30 1668 O 161.108 -3.98883 0.474869 0
M  V30 1669 N 159.314 -2.74303 0.959497 0
M  V30 1670 H 158.861 -2.0639 1.54146 0
M  V30 1671 H 158.819 -3.13844 0.186932 0
M  V30 1672 N 162.591 -1.51276 -0.441967 0
M  V30 1673 C 163.539 -1.72823 -1.55676 0
M  V30 1674 C 164.533 -0.59445 -1.58627 0
M  V30 1675 O 165.739 -0.775715 -1.62427 0
M  V30 1676 H 162.114 -0.545983 -0.517113 0
M  V30 1677 H 164.085 -2.6628 -1.34675 0
M  V30 1678 C 162.834 -1.86619 -2.93375 0
M  V30 1679 H 162.157 -2.73264 -2.91834 0
M  V30 1680 H 163.597 -2.05709 -3.70756 0
M  V30 1681 C 162.056 -0.624842 -3.31055 0
M  V30 1682 O 162.586 0.222636 -4.01083 0
M  V30 1683 N 160.792 -0.470288 -2.86769 0
M  V30 1684 H 160.339 -1.161 -2.29953 0
M  V30 1685 H 160.297 0.359051 -3.12343 0
M  V30 1686 N 164.069 0.697108 -1.41344 0
M  V30 1687 C 165.294 1.49096 -1.44171 0
M  V30 1688 C 165.719 1.88038 -0.0481568 0
M  V30 1689 O 165.077 1.54525 0.948243 0
M  V30 1690 C 165.125 2.73088 -2.3549 0
M  V30 1691 O 164.229 3.70514 -1.81088 0
M  V30 1692 H 163.57 0.448801 -0.489361 0
M  V30 1693 H 166.1 0.856992 -1.85787 0
M  V30 1694 H 166.11 3.21413 -2.51312 0
M  V30 1695 H 164.785 2.44081 -3.36745 0
M  V30 1696 H 163.362 3.29441 -1.74708 0
M  V30 1697 N 165.547 1.27147 0.931209 0
M  V30 1698 C 166.775 1.16082 1.71267 0
M  V30 1699 C 167.19 -0.282772 1.8667 0
M  V30 1700 O 166.547 -1.19283 1.38122 0
M  V30 1701 C 166.598 1.8358 3.11417 0
M  V30 1702 O 166.319 3.22299 2.96741 0
M  V30 1703 C 167.82 1.78597 4.05732 0
M  V30 1704 H 165.04 0.403758 0.535929 0
M  V30 1705 H 167.584 1.67953 1.16671 0
M  V30 1706 H 165.739 1.35623 3.62885 0
M  V30 1707 H 166.153 3.55851 3.85319 0
M  V30 1708 H 167.627 2.30444 5.01597 0
M  V30 1709 H 168.104 0.754564 4.3267 0
M  V30 1710 H 168.71 2.26152 3.60188 0
M  V30 1711 N 167.025 -1.13721 1.09112 0
M  V30 1712 C 168.272 -1.84924 0.825192 0
M  V30 1713 C 168.6 -1.83347 -0.649151 0
M  V30 1714 O 167.855 -1.26449 -1.49362 0
M  V30 1715 C 168.154 -3.32861 1.30146 0
M  V30 1716 C 167.82 -3.54621 2.78486 0
M  V30 1717 C 166.482 -3.60268 3.18999 0
M  V30 1718 C 168.834 -3.62855 3.74146 0
M  V30 1719 C 166.162 -3.71679 4.53951 0
M  V30 1720 C 168.514 -3.75793 5.08883 0
M  V30 1721 C 167.178 -3.79692 5.4899 0
M  V30 1722 H 166.448 -0.676684 0.301959 0
M  V30 1723 H 169.095 -1.3428 1.36533 0
M  V30 1724 H 167.4 -3.85835 0.681064 0
M  V30 1725 H 169.097 -3.86395 1.07236 0
M  V30 1726 H 165.687 -3.50879 2.46134 0
M  V30 1727 H 169.871 -3.57775 3.43963 0
M  V30 1728 H 165.127 -3.72963 4.84467 0
M  V30 1729 H 169.301 -3.81107 5.82864 0
M  V30 1730 H 166.928 -3.88287 6.53558 0
M  V30 1731 N 168.503 -0.877838 -1.30888 0
M  V30 1732 C 169.466 -0.344265 -2.266 0
M  V30 1733 C 170.466 0.50922 -1.52524 0
M  V30 1734 O 171.656 0.317398 -1.71284 0
M  V30 1735 C 168.788 0.510198 -3.37061 0
M  V30 1736 H 169.981 -1.1893 -2.7531 0
M  V30 1737 H 167.534 -0.654088 -1.41956 0
M  V30 1738 H 168.269 1.37612 -2.93655 0
M  V30 1739 H 168.054 -0.101047 -3.9197 0
M  V30 1740 H 169.544 0.875537 -4.08319 0
M  V30 1741 O 170.02 1.4153 -0.777912 0
M  V30 1742 H 170.711 1.9062 -0.344054 0
M  V30 END ATOM
M  V30 BEGIN BOND
M  V30 END BOND
M  V30 END CTAB
M  END
$$$$
