drugbank_target|P14262 1-phosphatidylinositol phosphodiesterase (DB03106; DB03779)
 OpenBabel12092120023D

  0  0  0     0  0            999 V3000
M  V30 BEGIN CTAB
M  V30 COUNTS 5333 5402 0 0 0
M  V30 BEGIN ATOM
M  V30 1 H -0.908 1.98254 -0.117106 0
M  V30 2 N 0 1.576 0 0
M  V30 3 C 0.933 2.03868 1.02534 0
M  V30 4 C 1.911 0.928543 1.3348 0
M  V30 5 O 3.095 1.19667 1.45644 0
M  V30 6 C 0.222 2.43627 2.35294 0
M  V30 7 C -0.732 3.65373 2.2001 0
M  V30 8 S 0.101 5.13292 1.52614 0
M  V30 9 C 1.257 5.56322 2.86805 0
M  V30 10 H 1.49 2.90518 0.631377 0
M  V30 11 H -0.977 1.52953 0.210867 0
M  V30 12 H 0.981 2.67203 3.11629 0
M  V30 13 H -0.358 1.57376 2.7183 0
M  V30 14 H -1.165 3.90944 3.18086 0
M  V30 15 H -1.563 3.418 1.51819 0
M  V30 16 H 0.729 5.58782 3.83104 0
M  V30 17 H 1.672 6.56266 2.65933 0
M  V30 18 H 2.08 4.83886 2.90714 0
M  V30 19 N 1.4781 -0.272755 1.55222 0
M  V30 20 C 2.7031 -1.02683 1.80197 0
M  V30 21 C 3.1281 -1.79142 0.573551 0
M  V30 22 O 2.4861 -1.74917 -0.476849 0
M  V30 23 C 2.5341 -1.9609 3.02624 0
M  V30 24 O 1.6381 -3.04863 2.77727 0
M  V30 25 H 0.9791 -0.293557 0.595584 0
M  V30 26 H 3.5091 -0.30159 2.02365 0
M  V30 27 H 3.5191 -2.38039 3.31363 0
M  V30 28 H 2.1941 -1.39851 3.91682 0
M  V30 29 H 0.7711 -2.67228 2.60084 0
M  V30 30 N 2.9562 -1.48159 -0.537278 0
M  V30 31 C 3.9042 -1.62573 -1.66352 0
M  V30 32 C 4.8982 -0.492366 -1.62087 0
M  V30 33 O 6.1042 -0.670847 -1.67032 0
M  V30 34 H 2.4792 -0.511992 -0.550789 0
M  V30 35 H 4.4502 -2.57176 -1.51337 0
M  V30 36 C 3.1992 -1.67583 -3.04649 0
M  V30 37 H 2.5222 -2.54151 -3.08622 0
M  V30 38 H 3.9622 -1.81713 -3.83088 0
M  V30 39 C 2.4212 -0.413039 -3.34358 0
M  V30 40 O 2.9512 0.477259 -3.98855 0
M  V30 41 N 1.1572 -0.286961 -2.8918 0
M  V30 42 H 0.7042 -1.01241 -2.36871 0
M  V30 43 H 0.6622 0.556963 -3.09427 0
M  V30 44 N 4.4343 0.785586 -1.36625 0
M  V30 45 C 5.3813 1.89838 -1.31264 0
M  V30 46 C 6.3513 1.65115 -0.180633 0
M  V30 47 O 7.5363 1.87222 -0.36777 0
M  V30 48 C 4.6763 3.26706 -1.11163 0
M  V30 49 C 3.7893 3.63476 -2.33472 0
M  V30 50 C 2.9243 4.89481 -2.06353 0
M  V30 51 C 1.9633 5.18941 -3.24602 0
M  V30 52 N 1.1003 6.36131 -2.97123 0
M  V30 53 H 5.9403 1.93756 -2.26413 0
M  V30 54 H 3.4773 0.947454 -1.12524 0
M  V30 55 H 5.4353 4.05639 -0.975337 0
M  V30 56 H 4.0653 3.222 -0.196674 0
M  V30 57 H 3.1173 2.79636 -2.57891 0
M  V30 58 H 4.4293 3.81193 -3.21704 0
M  V30 59 H 3.5833 5.76288 -1.89675 0
M  V30 60 H 2.3223 4.73841 -1.15437 0
M  V30 61 H 1.3273 4.30615 -3.41834 0
M  V30 62 H 2.5523 5.36498 -4.16349 0
M  V30 63 H 0.4983 6.21875 -2.08823 0
M  V30 64 H 0.4153 6.54198 -3.78894 0
M  V30 65 H 1.6833 7.2591 -2.84033 0
M  V30 66 N 5.9124 1.20967 1.01018 0
M  V30 67 C 6.8594 0.964281 2.09691 0
M  V30 68 C 7.8294 -0.107853 1.65749 0
M  V30 69 O 9.0144 0.0381987 1.90762 0
M  V30 70 C 6.1544 0.52943 3.41015 0
M  V30 71 C 5.2674 1.67043 3.98398 0
M  V30 72 C 4.4024 1.18525 5.17808 0
M  V30 73 C 3.4414 2.29892 5.67288 0
M  V30 74 N 2.5784 1.82546 6.77954 0
M  V30 75 H 7.4184 1.89463 2.30017 0
M  V30 76 H 4.9554 0.944289 1.1279 0
M  V30 77 H 6.9134 0.258588 4.16398 0
M  V30 78 H 5.5434 -0.363919 3.20742 0
M  V30 79 H 4.5954 2.05603 3.20049 0
M  V30 80 H 5.9074 2.50877 4.31117 0
M  V30 81 H 5.0614 0.870762 6.00419 0
M  V30 82 H 3.8004 0.316887 4.86669 0
M  V30 83 H 2.8054 2.6215 4.83278 0
M  V30 84 H 4.0304 3.17216 6.00459 0
M  V30 85 H 1.9764 0.980454 6.48632 0
M  V30 86 H 1.8934 2.59956 7.09901 0
M  V30 87 H 3.1614 1.54115 7.64113 0
M  V30 88 N 7.3905 -1.2043 1.01659 0
M  V30 89 C 8.3205 -2.25466 0.607226 0
M  V30 90 C 9.3015 -1.65853 -0.377716 0
M  V30 91 O 10.4865 -1.92409 -0.263149 0
M  V30 92 C 7.6165 -3.47256 -0.0552949 0
M  V30 93 C 6.5705 -4.19462 0.850632 0
M  V30 94 C 5.8965 -5.34673 0.0538859 0
M  V30 95 C 7.1965 -4.75603 2.15868 0
M  V30 96 H 8.8905 -2.59962 1.48526 0
M  V30 97 H 6.4365 -1.2496 0.715605 0
M  V30 98 H 8.3895 -4.19917 -0.353233 0
M  V30 99 H 7.1135 -3.11924 -0.968045 0
M  V30 100 H 5.7725 -3.48667 1.13257 0
M  V30 101 H 5.4205 -4.95585 -0.860514 0
M  V30 102 H 5.1205 -5.83913 0.657192 0
M  V30 103 H 6.6445 -6.10138 -0.237598 0
M  V30 104 H 8.0585 -5.40083 1.92311 0
M  V30 105 H 6.4555 -5.3528 2.71284 0
M  V30 106 H 7.5255 -3.94346 2.82169 0
M  V30 107 N 8.8686 -0.792821 -1.36206 0
M  V30 108 C 10.1176 -0.363353 -1.984 0
M  V30 109 C 10.4306 1.07172 -1.63626 0
M  V30 110 O 11.6366 1.60362 -2.19081 0
M  V30 111 C 10.0926 -0.59872 -3.54885 0
M  V30 112 C 9.7006 -2.04543 -3.9858 0
M  V30 113 C 11.4446 -0.233926 -4.23855 0
M  V30 114 C 9.3516 -2.22727 -5.47856 0
M  V30 115 H 8.2816 -0.13212 -0.742334 0
M  V30 116 H 10.9326 -0.974935 -1.55458 0
M  V30 117 H 9.3146 0.0826222 -3.95914 0
M  V30 118 H 10.4886 -2.76345 -3.68741 0
M  V30 119 H 8.8036 -2.36879 -3.42458 0
M  V30 120 H 11.4006 -0.348027 -5.33566 0
M  V30 121 H 11.7436 0.818351 -4.08177 0
M  V30 122 H 12.2766 -0.868639 -3.882 0
M  V30 123 H 9.0156 -3.2635 -5.68486 0
M  V30 124 H 8.5356 -1.55434 -5.7931 0
M  V30 125 H 10.2146 -2.03607 -6.14128 0
M  V30 126 N 10.3467 1.47872 -0.545128 0
M  V30 127 C 11.2767 2.32661 0.197793 0
M  V30 128 C 12.2577 1.43041 0.920504 0
M  V30 129 O 13.4427 1.71912 0.90333 0
M  V30 130 C 10.5727 3.24569 1.23582 0
M  V30 131 C 9.5267 4.23333 0.630323 0
M  V30 132 C 8.8527 5.0448 1.77211 0
M  V30 133 C 10.1527 5.20704 -0.407974 0
M  V30 134 H 11.8467 2.95024 -0.510045 0
M  V30 135 H 9.3927 1.4187 -0.246731 0
M  V30 136 H 11.3457 3.8272 1.76362 0
M  V30 137 H 10.0697 2.60236 1.97344 0
M  V30 138 H 8.7287 3.6639 0.123922 0
M  V30 139 H 8.3767 4.36561 2.49847 0
M  V30 140 H 8.0767 5.71339 1.37281 0
M  V30 141 H 9.6007 5.65487 2.3034 0
M  V30 142 H 11.0147 5.7329 0.033305 0
M  V30 143 H 9.4117 5.95699 -0.725486 0
M  V30 144 H 10.4817 4.66917 -1.30828 0
M  V30 145 N 11.8248 0.280983 1.55075 0
M  V30 146 C 12.7718 -0.603937 2.22758 0
M  V30 147 C 13.7418 -1.1452 1.20309 0
M  V30 148 O 14.9268 -1.19343 1.48869 0
M  V30 149 C 12.0668 -1.77947 2.95684 0
M  V30 150 C 11.1798 -1.2715 4.12864 0
M  V30 151 C 10.3148 -2.4093 4.7342 0
M  V30 152 C 9.3538 -1.87165 5.82783 0
M  V30 153 N 8.4908 -2.94441 6.37377 0
M  V30 154 H 13.3308 -0.020124 2.97993 0
M  V30 155 H 10.8678 0.00183425 1.471 0
M  V30 156 H 12.8258 -2.47055 3.36184 0
M  V30 157 H 11.4558 -2.33522 2.22861 0
M  V30 158 H 10.5078 -0.473331 3.77444 0
M  V30 159 H 11.8198 -0.837751 4.91715 0
M  V30 160 H 10.9738 -3.18021 5.1667 0
M  V30 161 H 9.7128 -2.87623 3.93859 0
M  V30 162 H 8.7178 -1.08556 5.38976 0
M  V30 163 H 9.9428 -1.41401 6.64216 0
M  V30 164 H 7.8888 -3.40505 5.60707 0
M  V30 165 H 7.8058 -2.55501 7.11516 0
M  V30 166 H 9.0738 -3.71489 6.85285 0
M  V30 167 N 13.3029 -1.57598 0.00835791 0
M  V30 168 C 14.2329 -2.1198 -0.979113 0
M  V30 169 C 15.2139 -1.03091 -1.35301 0
M  V30 170 O 16.3989 -1.30818 -1.43528 0
M  V30 171 C 13.5289 -2.62995 -2.26828 0
M  V30 172 C 12.4829 -3.76485 -2.03576 0
M  V30 173 C 11.8089 -4.13846 -3.38579 0
M  V30 174 C 13.1089 -5.0342 -1.39161 0
M  V30 175 H 14.8029 -2.94738 -0.526281 0
M  V30 176 H 12.3489 -1.41783 -0.251704 0
M  V30 177 H 14.3019 -2.99669 -2.96271 0
M  V30 178 H 13.0259 -1.7737 -2.7424 0
M  V30 179 H 11.6849 -3.40217 -1.36557 0
M  V30 180 H 11.3329 -3.25232 -3.83709 0
M  V30 181 H 11.0329 -4.90312 -3.23834 0
M  V30 182 H 12.5569 -4.53086 -4.09323 0
M  V30 183 H 13.9709 -5.37812 -1.98573 0
M  V30 184 H 12.3679 -5.84746 -1.34878 0
M  V30 185 H 13.4379 -4.83548 -0.361868 0
M  V30 186 N 14.781 0.264519 -1.55364 0
M  V30 187 C 16.028 0.994986 -1.7637 0
M  V30 188 C 16.356 1.85976 -0.5695 0
M  V30 189 O 15.611 1.90509 0.44776 0
M  V30 190 C 15.91 1.9004 -3.02687 0
M  V30 191 C 15.576 1.19243 -4.34847 0
M  V30 192 C 14.238 0.996709 -4.70764 0
M  V30 193 C 16.59 0.689296 -5.16622 0
M  V30 194 C 13.918 0.285261 -5.86006 0
M  V30 195 C 16.27 -0.00860079 -6.32599 0
M  V30 196 C 14.934 -0.215963 -6.67151 0
M  V30 197 H 14.204 0.364091 -0.645383 0
M  V30 198 H 16.851 0.266543 -1.89636 0
M  V30 199 H 15.156 2.69533 -2.84357 0
M  V30 200 H 16.853 2.46695 -3.16137 0
M  V30 201 H 13.443 1.3549 -4.06621 0
M  V30 202 H 17.627 0.828108 -4.89342 0
M  V30 203 H 12.883 0.113961 -6.11294 0
M  V30 204 H 17.057 -0.406186 -6.95214 0
M  V30 205 H 14.684 -0.769217 -7.56298 0
M  V30 206 N 16.2591 1.48442 0.529413 0
M  V30 207 C 17.5081 1.55742 1.28169 0
M  V30 208 C 17.8211 0.236511 1.94165 0
M  V30 209 O 19.0271 0.187761 2.7085 0
M  V30 210 C 17.4831 2.74667 2.32564 0
M  V30 211 C 17.0911 4.13402 1.72636 0
M  V30 212 C 18.8351 2.9128 3.08798 0
M  V30 213 C 16.7421 5.23587 2.74975 0
M  V30 214 H 15.6721 0.579796 0.48203 0
M  V30 215 H 18.3231 1.74776 0.559056 0
M  V30 216 H 16.7051 2.49067 3.07866 0
M  V30 217 H 17.8791 4.49022 1.03519 0
M  V30 218 H 16.1941 4.0191 1.08892 0
M  V30 219 H 18.7911 3.70767 3.85274 0
M  V30 220 H 19.1341 2.00757 3.64695 0
M  V30 221 H 19.6671 3.16782 2.40611 0
M  V30 222 H 16.4061 6.16076 2.23897 0
M  V30 223 H 15.9261 4.92454 3.42417 0
M  V30 224 H 17.6051 5.51724 3.37949 0
M  V30 225 N 17.7372 -0.778329 1.37039 0
M  V30 226 C 18.9772 -1.54973 1.33276 0
M  V30 227 C 19.3412 -1.91816 -0.0839376 0
M  V30 228 O 20.5422 -2.6767 -0.246228 0
M  V30 229 C 18.8132 -2.78517 2.23971 0
M  V30 230 S 20.3722 -3.6865 2.37997 0
M  V30 231 H 17.1902 -0.530639 0.473226 0
M  V30 232 H 19.7922 -0.915806 1.72723 0
M  V30 233 H 18.4962 -2.4952 3.25835 0
M  V30 234 H 18.0272 -3.46875 1.85584 0
M  V30 235 H 20.0422 -4.70182 1.58567 0
M  V30 236 N 19.2153 -1.21501 -1.00376 0
M  V30 237 C 20.4403 -1.05977 -1.78279 0
M  V30 238 C 20.8653 0.385994 -1.84097 0
M  V30 239 O 20.2233 1.27849 -1.28547 0
M  V30 240 C 20.2713 -1.66302 -3.19963 0
M  V30 241 O 19.3753 -0.909333 -4.0225 0
M  V30 242 H 18.7163 -0.372906 -0.549397 0
M  V30 243 H 21.2463 -1.6107 -1.26165 0
M  V30 244 H 21.2563 -1.70574 -3.70632 0
M  V30 245 H 19.9313 -2.71515 -3.15043 0
M  V30 246 H 18.5083 -0.941795 -3.60811 0
M  V30 247 N 20.6934 1.19889 -1.02296 0
M  V30 248 C 21.9214 1.9339 -0.735399 0
M  V30 249 C 22.3364 1.75148 0.704887 0
M  V30 250 O 21.6934 1.06954 1.47875 0
M  V30 251 C 21.7444 3.45313 -1.06962 0
M  V30 252 O 21.4654 3.62964 -2.45334 0
M  V30 253 C 22.9664 4.35948 -0.804021 0
M  V30 254 H 20.1864 0.61448 -0.269546 0
M  V30 255 H 22.7304 1.522 -1.36585 0
M  V30 256 H 20.8854 3.84359 -0.484455 0
M  V30 257 H 21.2994 4.56886 -2.57595 0
M  V30 258 H 22.7734 5.41174 -1.0879 0
M  V30 259 H 23.2504 4.3842 0.261691 0
M  V30 260 H 23.8564 4.02574 -1.37164 0
M  V30 261 N 22.1715 0.800033 1.35784 0
M  V30 262 C 23.4205 0.37387 1.98205 0
M  V30 263 C 23.7335 -1.06302 1.64193 0
M  V30 264 O 24.9395 -1.59198 2.19928 0
M  V30 265 C 23.3955 0.617532 3.54562 0
M  V30 266 C 23.0035 2.06654 3.9749 0
M  V30 267 C 24.7475 0.256401 4.23725 0
M  V30 268 C 22.6545 2.2563 5.46667 0
M  V30 269 H 21.5845 0.136055 0.741623 0
M  V30 270 H 24.2355 0.983166 1.54939 0
M  V30 271 H 22.6175 -0.0616248 3.95952 0
M  V30 272 H 23.7915 2.78296 3.67271 0
M  V30 273 H 22.1065 2.38691 3.41197 0
M  V30 274 H 24.7035 0.376318 5.33374 0
M  V30 275 H 25.0465 -0.796692 4.08606 0
M  V30 276 H 25.5795 0.889214 3.87734 0
M  V30 277 H 22.3185 3.2936 5.66747 0
M  V30 278 H 21.8385 1.58504 5.78478 0
M  V30 279 H 23.5175 2.06861 6.1304 0
M  V30 280 N 23.6496 -1.47581 0.552962 0
M  V30 281 C 24.8966 -2.02482 0.0273243 0
M  V30 282 C 25.2246 -1.42776 -1.32081 0
M  V30 283 O 24.4796 -0.571393 -1.87173 0
M  V30 284 C 24.7786 -3.57199 -0.119728 0
M  V30 285 C 24.4446 -4.35804 1.15697 0
M  V30 286 C 23.1066 -4.57 1.50681 0
M  V30 287 C 25.4586 -4.81167 2.00319 0
M  V30 288 C 22.7866 -5.20807 2.70142 0
M  V30 289 C 25.1386 -5.46293 3.18978 0
M  V30 290 C 23.8026 -5.65722 3.54281 0
M  V30 291 H 23.0726 -0.740933 0.00999866 0
M  V30 292 H 25.7196 -1.77302 0.72362 0
M  V30 293 H 24.0246 -3.81348 -0.89896 0
M  V30 294 H 25.7216 -3.97324 -0.541718 0
M  V30 295 H 22.3116 -4.19582 0.874561 0
M  V30 296 H 26.4956 -4.64574 1.74599 0
M  V30 297 H 21.7516 -5.34045 2.97668 0
M  V30 298 H 25.9256 -5.80407 3.84838 0
M  V30 299 H 23.5526 -6.14936 4.46942 0
M  V30 300 N 25.1277 -0.289203 -1.54924 0
M  V30 301 C 26.3767 0.324231 -1.99077 0
M  V30 302 C 26.6897 1.5591 -1.18117 0
M  V30 303 O 27.8957 2.24637 -1.52481 0
M  V30 304 C 26.3517 0.628209 -3.54375 0
M  V30 305 C 25.9597 -0.587647 -4.44129 0
M  V30 306 C 27.7037 1.20349 -4.07083 0
M  V30 307 C 25.6107 -0.257475 -5.90839 0
M  V30 308 H 24.5407 0.124924 -0.743579 0
M  V30 309 H 27.1917 -0.396063 -1.79175 0
M  V30 310 H 25.5737 1.40778 -3.70132 0
M  V30 311 H 26.7477 -1.36418 -4.40144 0
M  V30 312 H 25.0627 -1.08074 -4.0213 0
M  V30 313 H 27.6597 1.46456 -5.14252 0
M  V30 314 H 28.0027 2.14195 -3.56968 0
M  V30 315 H 28.5357 0.485889 -3.94821 0
M  V30 316 H 25.2747 -1.16419 -6.45079 0
M  V30 317 H 24.7947 0.482018 -5.9786 0
M  V30 318 H 26.4737 0.145238 -6.46837 0
M  V30 319 N 26.6058 1.57591 -0.0167156 0
M  V30 320 C 27.8338 1.95575 0.675128 0
M  V30 321 C 28.2488 0.892542 1.6637 0
M  V30 322 O 27.6058 -0.126912 1.82058 0
M  V30 323 C 27.6568 3.33608 1.39239 0
M  V30 324 O 27.3778 4.3585 0.443444 0
M  V30 325 C 28.8788 3.86151 2.17721 0
M  V30 326 H 26.0988 0.644423 0.186978 0
M  V30 327 H 28.6428 2.0437 -0.0728 0
M  V30 328 H 26.7978 3.2607 2.09182 0
M  V30 329 H 27.2118 5.158 0.951358 0
M  V30 330 H 28.6858 4.85114 2.63379 0
M  V30 331 H 29.1628 3.19738 3.01105 0
M  V30 332 H 29.7688 3.96918 1.52761 0
M  V30 333 N 28.0839 -0.256276 1.55502 0
M  V30 334 C 29.3309 -0.985619 1.76895 0
M  V30 335 C 29.6589 -1.85671 0.579355 0
M  V30 336 O 28.9139 -1.90744 -0.437651 0
M  V30 337 C 29.2129 -1.88432 3.03691 0
M  V30 338 C 28.8789 -1.16936 4.35473 0
M  V30 339 C 27.5409 -0.97173 4.71286 0
M  V30 340 C 29.8929 -0.661889 5.1698 0
M  V30 341 C 27.2209 -0.254179 5.86149 0
M  V30 342 C 29.5729 0.042149 6.32586 0
M  V30 343 C 28.2369 0.25134 6.67027 0
M  V30 344 H 27.5069 -0.360663 0.647304 0
M  V30 345 H 30.1539 -0.256483 1.89775 0
M  V30 346 H 28.4589 -2.68021 2.85783 0
M  V30 347 H 30.1559 -2.45015 3.1744 0
M  V30 348 H 26.7459 -1.33332 4.07333 0
M  V30 349 H 30.9299 -0.802145 4.89775 0
M  V30 350 H 26.1859 -0.0815408 6.11346 0
M  V30 351 H 30.3599 0.443049 6.94989 0
M  V30 352 H 27.9869 0.809314 7.5588 0
M  V30 353 N 29.562 -1.4872 -0.521534 0
M  V30 354 C 30.808 -1.574 -1.27879 0
M  V30 355 C 31.141 -0.250817 -1.92573 0
M  V30 356 O 30.416 0.743934 -1.79711 0
M  V30 357 C 30.699 -2.71843 -2.36164 0
M  V30 358 C 30.552 -4.13893 -1.76105 0
M  V30 359 C 31.871 -2.82008 -3.37875 0
M  V30 360 H 28.99 -0.572941 -0.463581 0
M  V30 361 H 31.632 -1.80927 -0.580119 0
M  V30 362 H 29.782 -2.51914 -2.95756 0
M  V30 363 H 31.454 -4.45284 -1.20499 0
M  V30 364 H 29.697 -4.20498 -1.06601 0
M  V30 365 H 30.368 -4.89804 -2.5455 0
M  V30 366 H 32.844 -3.00086 -2.88249 0
M  V30 367 H 31.72 -3.63796 -4.11028 0
M  V30 368 H 31.981 -1.90511 -3.98946 0
M  V30 369 N 31.0401 0.771051 -1.3745 0
M  V30 370 C 32.2871 1.52963 -1.32697 0
M  V30 371 C 32.6151 1.94299 0.0883274 0
M  V30 372 O 31.8701 1.64397 1.0617 0
M  V30 373 C 32.1691 2.80676 -2.2126 0
M  V30 374 C 31.8351 2.58389 -3.69521 0
M  V30 375 C 30.4971 2.52019 -4.09927 0
M  V30 376 C 32.8491 2.38469 -4.63446 0
M  V30 377 C 30.1771 2.23721 -5.42371 0
M  V30 378 C 32.5291 2.11694 -5.96128 0
M  V30 379 C 31.1931 2.03769 -6.35637 0
M  V30 380 H 30.4631 0.559732 -0.485573 0
M  V30 381 H 33.1101 0.888083 -1.69662 0
M  V30 382 H 31.4151 3.49392 -1.77291 0
M  V30 383 H 33.1121 3.38557 -2.14895 0
M  V30 384 H 29.7021 2.6421 -3.37478 0
M  V30 385 H 33.8861 2.4238 -4.33089 0
M  V30 386 H 29.1421 2.16081 -5.71943 0
M  V30 387 H 33.3161 1.9528 -6.6846 0
M  V30 388 H 30.9431 1.81606 -7.38189 0
M  V30 389 N 32.5182 1.22032 0.997298 0
M  V30 390 C 33.4812 0.987909 2.06816 0
M  V30 391 C 34.4812 -0.0440084 1.6074 0
M  V30 392 O 35.6712 0.194053 1.73116 0
M  V30 393 C 32.8032 0.49132 3.37341 0
M  V30 394 H 33.9962 1.93803 2.28868 0
M  V30 395 H 31.5492 1.03838 1.16822 0
M  V30 396 H 32.2842 -0.463364 3.20973 0
M  V30 397 H 32.0692 1.23575 3.72118 0
M  V30 398 H 33.5592 0.348824 4.16141 0
M  V30 399 N 33.9963 -1.19345 1.0293 0
M  V30 400 C 34.9263 -2.2481 0.631105 0
M  V30 401 C 35.9073 -1.66245 -0.360104 0
M  V30 402 O 37.0923 -1.92677 -0.242726 0
M  V30 403 C 34.2223 -3.47295 -0.0184607 0
M  V30 404 C 33.1763 -4.18536 0.895073 0
M  V30 405 C 32.5023 -5.34586 0.110592 0
M  V30 406 C 33.8023 -4.73287 2.209 0
M  V30 407 H 35.4963 -2.58372 1.51275 0
M  V30 408 H 33.0423 -1.24194 0.728818 0
M  V30 409 H 34.9953 -4.20268 -0.308675 0
M  V30 410 H 33.7193 -3.12933 -0.934907 0
M  V30 411 H 32.3783 -3.47446 1.16949 0
M  V30 412 H 32.0263 -4.96469 -0.807902 0
M  V30 413 H 31.7263 -5.83183 0.719087 0
M  V30 414 H 33.2503 -6.10355 -0.172871 0
M  V30 415 H 34.6643 -5.38013 1.98028 0
M  V30 416 H 33.0613 -5.32373 2.76946 0
M  V30 417 H 34.1313 -3.91331 2.86336 0
M  V30 418 N 35.4744 -0.807222 -1.35358 0
M  V30 419 C 36.4244 -0.190706 -2.27201 0
M  V30 420 C 37.4084 0.635838 -1.47804 0
M  V30 421 O 38.6004 0.492991 -1.69996 0
M  V30 422 C 35.7294 0.659337 -3.36909 0
M  V30 423 C 34.8154 -0.176971 -4.23731 0
M  V30 424 N 35.2064 -1.24029 -4.90357 0
M  V30 425 C 33.5044 0.0412953 -4.45981 0
M  V30 426 C 34.2054 -1.75092 -5.54723 0
M  V30 427 N 33.1814 -1.05727 -5.33219 0
M  V30 428 H 36.9834 -1.0043 -2.76208 0
M  V30 429 H 34.4974 -0.648445 -1.48892 0
M  V30 430 H 36.4944 1.11706 -4.01656 0
M  V30 431 H 35.1544 1.47127 -2.89454 0
M  V30 432 H 36.1654 -1.62295 -4.91814 0
M  V30 433 H 32.8424 0.82232 -4.09322 0
M  V30 434 H 34.2324 -2.63963 -6.17878 0
M  V30 435 N 36.9525 1.47285 -0.560781 0
M  V30 436 C 38.2295 1.9558 0.0277798 0
M  V30 437 C 38.6095 1.5034 1.48192 0
M  V30 438 O 37.9575 0.743882 2.16052 0
M  V30 439 C 38.1675 3.48789 -0.121418 0
M  V30 440 C 39.5155 4.24594 0.0220912 0
M  V30 441 O 40.5395 3.56166 -0.0491439 0
M  V30 442 O 39.3985 5.46217 0.175958 0
M  V30 443 H 36.4925 0.824663 0.0621342 0
M  V30 444 H 39.0385 1.5767 -0.627556 0
M  V30 445 H 37.8105 3.74533 -1.13316 0
M  V30 446 H 37.4335 3.93473 0.571366 0
M  V30 447 N 38.4306 0.297415 1.54768 0
M  V30 448 C 39.3776 -0.580276 2.23386 0
M  V30 449 C 40.3476 -1.13238 1.21517 0
M  V30 450 O 41.5326 -1.17757 1.50126 0
M  V30 451 C 38.6726 -1.74801 2.97555 0
M  V30 452 C 37.7856 -1.22764 4.1419 0
M  V30 453 C 36.9206 -2.35895 4.75949 0
M  V30 454 C 35.9596 -1.80974 5.84735 0
M  V30 455 N 35.0966 -2.87664 6.40464 0
M  V30 456 H 39.9366 0.0114833 2.97998 0
M  V30 457 H 37.4736 0.0174361 1.4709 0
M  V30 458 H 39.4316 -2.43475 3.38786 0
M  V30 459 H 38.0616 -2.31145 2.25326 0
M  V30 460 H 37.1136 -0.433271 3.77924 0
M  V30 461 H 38.4256 -0.785551 4.92575 0
M  V30 462 H 37.5796 -3.12523 5.20014 0
M  V30 463 H 36.3186 -2.83429 3.96887 0
M  V30 464 H 35.3236 -1.02834 5.40097 0
M  V30 465 H 36.5486 -1.34348 6.65678 0
M  V30 466 H 34.4946 -3.34538 5.64287 0
M  V30 467 H 34.4116 -2.4794 7.14186 0
M  V30 468 H 35.6796 -3.642 6.89187 0
M  V30 469 N 39.9087 -1.5758 0.0250728 0
M  V30 470 C 41.3247 -1.56124 -0.331282 0
M  V30 471 C 41.5247 -1.03029 -1.73169 0
M  V30 472 O 40.5807 -0.675215 -2.43305 0
M  V30 473 C 41.8937 -3.00139 -0.183584 0
M  V30 474 C 43.4417 -3.11946 -0.256654 0
M  V30 475 C 43.9167 -4.57793 -0.137792 0
M  V30 476 N 45.4077 -4.6279 -0.194904 0
M  V30 477 C 46.1427 -5.7326 -0.126655 0
M  V30 478 N 45.6387 -6.928 -0.00755288 0
M  V30 479 N 47.4317 -5.61811 -0.180348 0
M  V30 480 H 39.5827 -1.90424 0.94087 0
M  V30 481 H 41.8457 -0.875761 0.362968 0
M  V30 482 H 41.5517 -3.4292 0.780927 0
M  V30 483 H 41.4257 -3.64899 -0.955448 0
M  V30 484 H 43.8127 -2.69079 -1.21162 0
M  V30 485 H 43.8937 -2.49915 0.545517 0
M  V30 486 H 43.5377 -5.01339 0.813739 0
M  V30 487 H 43.4677 -5.17798 -0.958775 0
M  V30 488 H 45.9587 -3.76807 -0.287267 0
M  V30 489 H 46.2717 -7.72791 0.0379428 0
M  V30 490 H 44.6167 -6.94995 0.0271731 0
M  V30 491 H 47.8077 -4.6731 -0.271767 0
M  V30 492 H 47.9807 -6.47882 -0.123697 0
M  V30 493 N 41.3868 0.248026 -1.55636 0
M  V30 494 C 42.6328 0.97767 -1.77678 0
M  V30 495 C 42.9658 1.85016 -0.590135 0
M  V30 496 O 42.2408 1.90095 0.411611 0
M  V30 497 C 42.5238 1.83914 -3.09593 0
M  V30 498 C 42.3768 0.99491 -4.38659 0
M  V30 499 C 43.6958 2.82183 -3.37729 0
M  V30 500 H 40.8148 0.354005 -0.646413 0
M  V30 501 H 43.4568 0.248253 -1.88371 0
M  V30 502 H 41.6068 2.46104 -3.00608 0
M  V30 503 H 43.2788 0.391789 -4.59633 0
M  V30 504 H 41.5218 0.299231 -4.32767 0
M  V30 505 H 42.1928 1.63145 -5.2734 0
M  V30 506 H 44.6688 2.30129 -3.4667 0
M  V30 507 H 43.5448 3.39582 -4.31249 0
M  V30 508 H 43.8058 3.58588 -2.58586 0
M  V30 509 N 42.8649 1.48995 0.513639 0
M  V30 510 C 44.1109 1.58076 1.27042 0
M  V30 511 C 44.4439 0.261026 1.92438 0
M  V30 512 O 43.7189 -0.734393 1.80103 0
M  V30 513 C 44.0019 2.73091 2.34719 0
M  V30 514 C 43.8549 4.14821 1.73907 0
M  V30 515 C 45.1739 2.83796 3.36375 0
M  V30 516 H 42.2929 0.575391 0.460536 0
M  V30 517 H 44.9349 1.81232 0.570516 0
M  V30 518 H 43.0849 2.53479 2.94416 0
M  V30 519 H 44.7569 4.45917 1.18135 0
M  V30 520 H 42.9999 4.21058 1.0437 0
M  V30 521 H 43.6709 4.91147 2.51949 0
M  V30 522 H 46.1469 3.01611 2.86653 0
M  V30 523 H 45.0229 3.65971 4.09093 0
M  V30 524 H 45.2839 1.92624 3.9793 0
M  V30 525 N 44.343 -0.763751 1.37857 0
M  V30 526 C 45.306 -1.85889 1.34081 0
M  V30 527 C 46.306 -1.58949 0.243277 0
M  V30 528 O 47.496 -1.66882 0.499589 0
M  V30 529 C 44.628 -3.23176 1.08489 0
M  V30 530 H 45.821 -1.90648 2.31502 0
M  V30 531 H 43.374 -0.964367 1.23003 0
M  V30 532 H 44.109 -3.24091 0.116318 0
M  V30 533 H 43.894 -3.44124 1.8794 0
M  V30 534 H 45.384 -4.03254 1.08517 0
M  V30 535 N 45.8211 -1.22559 -0.990812 0
M  V30 536 C 46.7841 -0.998863 -2.0629 0
M  V30 537 C 47.7841 0.0354834 -1.60761 0
M  V30 538 O 48.9741 -0.203231 -1.7301 0
M  V30 539 C 46.1061 -0.509203 -3.37076 0
M  V30 540 H 47.2991 -1.95014 -2.27837 0
M  V30 541 H 44.8521 -1.04456 -1.16269 0
M  V30 542 H 45.5871 0.446335 -3.21214 0
M  V30 543 H 45.3721 -1.25547 -3.71457 0
M  V30 544 H 46.8621 -0.370888 -4.1595 0
M  V30 545 N 47.2992 1.18797 -1.03562 0
M  V30 546 C 48.5242 1.9314 -0.755764 0
M  V30 547 C 48.9492 1.7537 0.68022 0
M  V30 548 O 48.3072 1.06046 1.47051 0
M  V30 549 C 48.3552 3.42747 -1.12058 0
M  V30 550 O 47.4592 4.11683 -0.243124 0
M  V30 551 H 46.8002 0.602724 -0.278604 0
M  V30 552 H 49.3302 1.50678 -1.3841 0
M  V30 553 H 49.3402 3.93437 -1.08035 0
M  V30 554 H 48.0152 3.55002 -2.16672 0
M  V30 555 H 46.5922 3.71323 -0.342539 0
M  V30 556 N 48.7773 0.814389 1.34928 0
M  V30 557 C 50.0023 0.410097 2.03305 0
M  V30 558 C 50.4273 -0.973464 1.60951 0
M  V30 559 O 49.7853 -1.63185 0.789964 0
M  V30 560 C 49.8333 0.51049 3.56968 0
M  V30 561 O 48.9373 -0.473035 4.09678 0
M  V30 562 H 48.2783 0.170088 0.641846 0
M  V30 563 H 50.8083 1.10244 1.72358 0
M  V30 564 H 50.8183 0.383135 4.06197 0
M  V30 565 H 49.4933 1.51963 3.87144 0
M  V30 566 H 48.0703 -0.305272 3.71648 0
M  V30 567 N 50.2554 -1.46986 0.568584 0
M  V30 568 C 51.5014 -2.02741 0.0488709 0
M  V30 569 C 51.8344 -1.44077 -1.30214 0
M  V30 570 O 51.1094 -0.600552 -1.84996 0
M  V30 571 C 51.3924 -3.60086 -0.032047 0
M  V30 572 C 51.2454 -4.29162 1.34686 0
M  V30 573 C 52.5644 -4.33838 -0.739798 0
M  V30 574 H 49.6834 -0.736749 0.0192338 0
M  V30 575 H 52.3254 -1.75289 0.733065 0
M  V30 576 H 50.4754 -3.83606 -0.61473 0
M  V30 577 H 52.1474 -4.16948 1.97362 0
M  V30 578 H 50.3904 -3.89073 1.91846 0
M  V30 579 H 51.0614 -5.37826 1.24285 0
M  V30 580 H 53.5374 -4.15378 -0.244939 0
M  V30 581 H 52.4134 -5.43537 -0.765406 0
M  V30 582 H 52.6744 -4.03875 -1.79827 0
M  V30 583 N 51.7335 -0.305618 -1.54608 0
M  V30 584 C 52.6815 0.584119 -2.25146 0
M  V30 585 C 53.6755 1.13326 -1.25911 0
M  V30 586 O 54.8815 1.08337 -1.43747 0
M  V30 587 H 51.2565 0.206983 -0.722954 0
M  V30 588 H 53.2275 -0.033291 -2.98381 0
M  V30 589 C 51.9765 1.74225 -3.009 0
M  V30 590 H 51.2995 1.32892 -3.77067 0
M  V30 591 H 52.7395 2.34077 -3.53531 0
M  V30 592 C 51.1985 2.64914 -2.0814 0
M  V30 593 O 51.7285 3.66137 -1.65246 0
M  V30 594 N 49.9345 2.3275 -1.74 0
M  V30 595 H 49.4815 1.50479 -2.09078 0
M  V30 596 H 49.4395 2.93694 -1.12211 0
M  V30 597 N 53.2116 1.57565 -0.0334293 0
M  V30 598 C 54.1216 2.13943 0.962572 0
M  V30 599 C 55.1376 1.09276 1.35406 0
M  V30 600 O 56.3136 1.41355 1.4346 0
M  V30 601 C 53.3786 2.65887 2.22497 0
M  V30 602 C 52.4396 3.85286 1.8935 0
M  V30 603 C 51.6726 4.34743 3.09571 0
M  V30 604 O 51.8956 3.83352 4.22371 0
M  V30 605 O 50.8296 5.26538 2.91618 0
M  V30 606 H 54.6556 2.99333 0.513169 0
M  V30 607 H 52.2406 1.4822 0.18743 0
M  V30 608 H 54.1226 2.99346 2.96598 0
M  V30 609 H 52.7976 1.83578 2.6661 0
M  V30 610 H 51.7046 3.56746 1.1262 0
M  V30 611 H 53.0376 4.68771 1.5005 0
M  V30 612 N 54.6897 -0.239769 1.55765 0
M  V30 613 C 55.6197 -1.30052 1.9393 0
M  V30 614 C 56.6007 -1.49839 0.805132 0
M  V30 615 O 57.7857 -1.62328 1.06599 0
M  V30 616 C 54.9157 -2.65391 2.2402 0
M  V30 617 C 53.8697 -2.60289 3.39755 0
M  V30 618 C 53.1957 -3.99489 3.55405 0
M  V30 619 C 54.4957 -2.16654 4.75246 0
M  V30 620 H 56.1897 -0.983573 2.82783 0
M  V30 621 H 53.7357 -0.471701 1.36055 0
M  V30 622 H 55.6887 -3.3974 2.49308 0
M  V30 623 H 54.4127 -2.98736 1.32 0
M  V30 624 H 53.0717 -1.88398 3.14487 0
M  V30 625 H 52.7197 -4.30112 2.60793 0
M  V30 626 H 52.4197 -3.96962 4.33238 0
M  V30 627 H 53.9437 -4.75528 3.83022 0
M  V30 628 H 55.3577 -2.80737 4.99859 0
M  V30 629 H 53.7547 -2.25223 5.56232 0
M  V30 630 H 54.8247 -1.11835 4.71827 0
M  V30 631 N 56.1678 -1.49265 -0.50573 0
M  V30 632 C 57.0778 -1.68312 -1.63427 0
M  V30 633 C 58.0938 -0.565682 -1.64548 0
M  V30 634 O 59.2698 -0.839801 -1.83055 0
M  V30 635 C 56.3348 -1.74107 -2.99813 0
M  V30 636 C 55.3958 -2.97653 -3.09356 0
M  V30 637 C 54.6288 -3.03163 -4.39236 0
M  V30 638 O 54.8518 -2.16396 -5.27758 0
M  V30 639 O 53.7858 -3.9558 -4.53652 0
M  V30 640 H 57.6118 -2.63907 -1.50289 0
M  V30 641 H 55.1968 -1.32951 -0.681502 0
M  V30 642 H 57.0788 -1.803 -3.80881 0
M  V30 643 H 55.7538 -0.816901 -3.13223 0
M  V30 644 H 54.6608 -2.96981 -2.27493 0
M  V30 645 H 55.9938 -3.89535 -3.00871 0
M  V30 646 N 57.6459 0.756429 -1.3826 0
M  V30 647 C 58.5939 1.89149 -1.35372 0
M  V30 648 C 59.5879 1.67691 -0.24004 0
M  V30 649 O 60.7939 1.75294 -0.408919 0
M  V30 650 H 57.1689 0.622271 -0.422236 0
M  V30 651 H 59.1399 1.88701 -2.31159 0
M  V30 652 C 57.8889 3.26599 -1.19284 0
M  V30 653 H 57.2119 3.43695 -2.0424 0
M  V30 654 H 58.6519 4.06274 -1.21316 0
M  V30 655 C 57.1109 3.3675 0.100454 0
M  V30 656 O 57.6409 3.86951 1.07851 0
M  V30 657 N 55.8469 2.90179 0.15633 0
M  V30 658 H 55.3939 2.49517 -0.640253 0
M  V30 659 H 55.3519 2.97352 1.02123 0
M  V30 660 N 59.124 1.23083 0.984299 0
M  V30 661 C 60.37 1.07221 1.72845 0
M  V30 662 C 60.725 -0.387453 1.88458 0
M  V30 663 O 60.018 -1.28309 1.42293 0
M  V30 664 C 60.212 1.72673 3.1292 0
M  V30 665 C 60.041 3.24853 3.10967 0
M  V30 666 C 58.811 3.93998 3.16376 0
M  V30 667 C 61.009 4.21674 2.94441 0
M  V30 668 N 58.991 5.33192 3.04268 0
M  V30 669 C 60.362 5.47756 2.90453 0
M  V30 670 C 62.417 4.12457 2.78897 0
M  V30 671 C 61.12 6.6568 2.72512 0
M  V30 672 C 63.146 5.3004 2.62319 0
M  V30 673 C 62.508 6.55046 2.59026 0
M  V30 674 H 58.607 0.44685 0.641755 0
M  V30 675 H 61.191 1.55753 1.16829 0
M  V30 676 H 59.362 1.26679 3.67161 0
M  V30 677 H 61.094 1.49824 3.75945 0
M  V30 678 H 57.849 3.45052 3.24401 0
M  V30 679 H 58.273 6.06157 3.015 0
M  V30 680 H 62.915 3.16588 2.80235 0
M  V30 681 H 60.633 7.61689 2.69919 0
M  V30 682 H 64.219 5.24747 2.5126 0
M  V30 683 H 63.099 7.44498 2.46357 0
M  V30 684 N 60.6021 -1.18246 1.0419 0
M  V30 685 C 61.8271 -1.92736 0.765996 0
M  V30 686 C 62.2521 -1.75728 -0.67091 0
M  V30 687 O 61.6101 -1.06825 -1.46486 0
M  V30 688 C 61.6581 -3.42148 1.13875 0
M  V30 689 O 60.7621 -4.11548 0.264954 0
M  V30 690 H 60.1031 -0.601238 0.281797 0
M  V30 691 H 62.6331 -1.49942 1.39207 0
M  V30 692 H 62.6431 -3.92858 1.1012 0
M  V30 693 H 61.3181 -3.53848 2.18551 0
M  V30 694 H 59.8951 -3.71137 0.362226 0
M  V30 695 N 62.0802 -0.821533 -1.34494 0
M  V30 696 C 63.0272 -0.240397 -2.29545 0
M  V30 697 C 63.9972 0.634031 -1.53523 0
M  V30 698 O 65.1822 0.575966 -1.81899 0
M  V30 699 C 62.3222 0.592869 -3.39969 0
M  V30 700 C 61.4352 -0.30365 -4.30932 0
M  V30 701 C 60.5702 0.539049 -5.28458 0
M  V30 702 C 59.6092 -0.356942 -6.11058 0
M  V30 703 N 58.7462 0.446603 -7.00678 0
M  V30 704 H 63.5862 -1.05632 -2.7865 0
M  V30 705 H 61.1232 -0.532413 -1.37127 0
M  V30 706 H 63.0812 1.09129 -4.02675 0
M  V30 707 H 61.7112 1.37392 -2.92102 0
M  V30 708 H 60.7632 -0.920276 -3.691 0
M  V30 709 H 62.0752 -0.992661 -4.88823 0
M  V30 710 H 61.2292 1.102 -5.96608 0
M  V30 711 H 59.9682 1.26157 -4.71101 0
M  V30 712 H 58.9732 -0.932047 -5.41842 0
M  V30 713 H 60.1982 -1.07755 -6.70497 0
M  V30 714 H 58.1442 1.15282 -6.45791 0
M  V30 715 H 58.0612 -0.184048 -7.55776 0
M  V30 716 H 59.3292 0.992352 -7.73158 0
M  V30 717 N 63.5583 1.46682 -0.576371 0
M  V30 718 C 64.8043 2.03287 -0.0679305 0
M  V30 719 C 65.1593 1.44063 1.27529 0
M  V30 720 O 64.4523 0.593973 1.82161 0
M  V30 721 C 64.6463 3.57345 0.062886 0
M  V30 722 C 64.4753 4.31509 -1.26611 0
M  V30 723 C 63.2453 4.70664 -1.83856 0
M  V30 724 C 65.4433 4.65444 -2.18783 0
M  V30 725 N 63.4253 5.29552 -3.10561 0
M  V30 726 C 64.7963 5.24835 -3.30072 0
M  V30 727 C 66.8513 4.47375 -2.18542 0
M  V30 728 C 65.5543 5.68063 -4.41244 0
M  V30 729 C 67.5803 4.91614 -3.28739 0
M  V30 730 C 66.9423 5.51071 -4.38748 0
M  V30 731 H 63.0413 0.779083 -0.0674836 0
M  V30 732 H 65.6253 1.78918 -0.767877 0
M  V30 733 H 63.7963 3.8144 0.731988 0
M  V30 734 H 65.5283 4.00592 0.575134 0
M  V30 735 H 62.2833 4.53224 -1.37424 0
M  V30 736 H 62.7073 5.63523 -3.75195 0
M  V30 737 H 67.3493 4.00747 -1.34765 0
M  V30 738 H 65.0673 6.13672 -5.25768 0
M  V30 739 H 68.6533 4.79389 -3.29662 0
M  V30 740 H 67.5333 5.84678 -5.22611 0
M  V30 741 N 65.0364 0.313813 1.54444 0
M  V30 742 C 65.9694 -0.598866 2.20202 0
M  V30 743 C 66.9474 -1.12318 1.17573 0
M  V30 744 O 68.1314 -1.18899 1.46271 0
M  V30 745 C 65.2584 -1.82071 2.85601 0
M  V30 746 C 64.3044 -1.42851 4.01865 0
M  V30 747 S 65.1374 -0.473512 5.33402 0
M  V30 748 C 66.2934 -1.70286 6.0229 0
M  V30 749 H 66.5264 -0.0402532 2.97273 0
M  V30 750 H 64.0594 0.0979165 1.54089 0
M  V30 751 H 66.0174 -2.52184 3.23904 0
M  V30 752 H 64.6784 -2.3505 2.08351 0
M  V30 753 H 63.8714 -2.33871 4.46453 0
M  V30 754 H 63.4734 -0.807198 3.65185 0
M  V30 755 H 65.7654 -2.64168 6.23876 0
M  V30 756 H 66.7084 -1.29932 6.96077 0
M  V30 757 H 67.1164 -1.88541 5.32083 0
M  V30 758 N 66.5145 -1.57545 0.0417849 0
M  V30 759 C 67.4465 -2.07904 -0.964799 0
M  V30 760 C 68.4595 -1.00497 -1.28079 0
M  V30 761 O 69.6485 -1.28087 -1.24322 0
M  V30 762 C 66.7485 -2.49928 -2.28887 0
M  V30 763 C 65.9215 -3.80562 -2.15619 0
M  V30 764 C 64.9805 -4.08999 -3.31069 0
M  V30 765 O 64.0065 -4.79061 -3.0739 0
M  V30 766 N 65.2085 -3.6017 -4.55256 0
M  V30 767 H 67.9735 -2.94886 -0.535029 0
M  V30 768 H 65.5345 -1.61252 -0.144681 0
M  V30 769 H 67.5265 -2.66034 -3.04972 0
M  V30 770 H 66.0965 -1.68245 -2.63463 0
M  V30 771 H 65.3165 -3.74129 -1.24183 0
M  V30 772 H 66.6045 -4.66126 -2.03971 0
M  V30 773 H 66.0025 -3.03512 -4.77386 0
M  V30 774 H 64.5595 -3.81532 -5.28466 0
M  V30 775 N 67.9926 0.231505 -1.5589 0
M  V30 776 C 69.4036 0.799327 -1.68724 0
M  V30 777 C 69.7546 1.85398 -0.642022 0
M  V30 778 O 68.8796 2.1539 0.208784 0
M  V30 779 C 69.4746 1.45664 -3.05888 0
M  V30 780 C 68.0336 1.97197 -3.20609 0
M  V30 781 C 67.1806 0.828552 -2.64632 0
M  V30 782 H 70.1316 0.00702616 -1.58698 0
M  V30 783 H 70.1526 2.32517 -3.01191 0
M  V30 784 H 69.6646 0.688808 -3.81939 0
M  V30 785 H 67.7656 2.76813 -2.4941 0
M  V30 786 H 67.8786 2.15878 -4.27707 0
M  V30 787 H 66.2426 1.23321 -2.22854 0
M  V30 788 H 67.0256 0.0735544 -3.43221 0
M  V30 789 N 69.4707 1.49531 0.497807 0
M  V30 790 C 70.7197 1.58426 1.24837 0
M  V30 791 C 71.0327 0.277643 1.93619 0
M  V30 792 O 72.2387 0.24517 2.70391 0
M  V30 793 C 70.6947 2.79538 2.26686 0
M  V30 794 C 70.3027 4.16971 1.63828 0
M  V30 795 C 72.0467 2.97764 3.0255 0
M  V30 796 C 69.9537 5.29301 2.63807 0
M  V30 797 H 68.8837 0.58989 0.469623 0
M  V30 798 H 71.5347 1.75923 0.521857 0
M  V30 799 H 69.9167 2.55542 3.02514 0
M  V30 800 H 71.0907 4.51116 0.939711 0
M  V30 801 H 69.4057 4.04129 1.00342 0
M  V30 802 H 72.0027 3.78856 3.77323 0
M  V30 803 H 72.3457 2.08448 3.60354 0
M  V30 804 H 72.8787 3.21815 2.33838 0
M  V30 805 H 69.6177 6.20687 2.10779 0
M  V30 806 H 69.1377 4.99606 3.31894 0
M  V30 807 H 70.8167 5.58768 3.2617 0
M  V30 808 N 70.9488 -0.749086 1.3866 0
M  V30 809 C 72.3598 -1.32664 1.31366 0
M  V30 810 C 72.7108 -1.96179 -0.028484 0
M  V30 811 O 71.8358 -1.9537 -0.93057 0
M  V30 812 C 72.4308 -2.41219 2.37905 0
M  V30 813 C 70.9898 -2.94684 2.34176 0
M  V30 814 C 70.1368 -1.68108 2.20533 0
M  V30 815 H 73.0878 -0.547628 1.48952 0
M  V30 816 H 73.1088 -3.21268 2.0388 0
M  V30 817 H 72.6208 -1.94962 3.35576 0
M  V30 818 H 70.7218 -3.45258 1.401 0
M  V30 819 H 70.8348 -3.48757 3.2849 0
M  V30 820 H 69.1988 -1.91907 1.67463 0
M  V30 821 H 69.9818 -1.23923 3.20153 0
M  V30 822 N 72.4269 -1.23603 -0.977757 0
M  V30 823 C 73.7039 -0.977897 -1.69401 0
M  V30 824 C 74.0839 0.502738 -2.05026 0
M  V30 825 O 73.4319 1.47459 -1.74551 0
M  V30 826 C 73.6419 -1.89077 -2.93345 0
M  V30 827 C 74.9899 -2.15579 -3.65802 0
M  V30 828 O 76.0139 -1.86648 -3.03383 0
M  V30 829 O 74.8729 -2.64658 -4.78141 0
M  V30 830 H 71.9669 -0.369025 -0.740101 0
M  V30 831 H 74.5129 -1.34657 -1.03274 0
M  V30 832 H 73.2849 -2.89158 -2.63634 0
M  V30 833 H 72.9079 -1.52463 -3.67207 0
M  V30 834 N 73.905 1.17692 -1.04816 0
M  V30 835 C 75.13 1.92327 -0.776207 0
M  V30 836 C 75.555 1.76082 0.661581 0
M  V30 837 O 74.913 1.076 1.45917 0
M  V30 838 C 74.961 3.41539 -1.15687 0
M  V30 839 O 74.065 4.11402 -0.286775 0
M  V30 840 H 73.406 0.599735 -0.284981 0
M  V30 841 H 75.936 1.49201 -1.4 0
M  V30 842 H 75.946 3.92269 -1.12202 0
M  V30 843 H 74.621 3.52684 -2.20425 0
M  V30 844 H 73.198 3.70939 -0.381903 0
M  V30 845 N 75.3831 0.828654 1.34056 0
M  V30 846 C 76.6321 0.415828 1.97367 0
M  V30 847 C 76.9451 -1.02796 1.6641 0
M  V30 848 O 78.1511 -1.54497 2.23255 0
M  V30 849 C 76.6071 0.692601 3.53173 0
M  V30 850 C 76.2151 2.15038 3.93017 0
M  V30 851 C 77.9591 0.346222 4.23086 0
M  V30 852 C 75.8661 2.37174 5.41758 0
M  V30 853 H 74.7961 0.151755 0.738571 0
M  V30 854 H 77.4471 1.01581 1.52819 0
M  V30 855 H 75.8291 0.0223764 3.95994 0
M  V30 856 H 77.0031 2.86024 3.61285 0
M  V30 857 H 75.3181 2.45875 3.36057 0
M  V30 858 H 77.9151 0.48937 5.32456 0
M  V30 859 H 78.2581 -0.709842 4.10204 0
M  V30 860 H 78.7911 0.971258 3.85761 0
M  V30 861 H 75.5301 3.41308 5.59633 0
M  V30 862 H 75.0501 1.70738 5.74986 0
M  V30 863 H 76.7291 2.19818 6.08514 0
M  V30 864 N 76.8612 -1.46375 0.584142 0
M  V30 865 C 78.2722 -1.86031 0.157959 0
M  V30 866 C 78.6232 -1.48753 -1.27933 0
M  V30 867 O 77.7482 -0.903098 -1.96655 0
M  V30 868 C 78.3432 -3.37642 0.279892 0
M  V30 869 C 76.9022 -3.76289 -0.09143 0
M  V30 870 C 76.0492 -2.7039 0.615178 0
M  V30 871 H 79.0002 -1.37509 0.792274 0
M  V30 872 H 79.0212 -3.77275 -0.494364 0
M  V30 873 H 78.5332 -3.64742 1.32607 0
M  V30 874 H 76.6342 -3.54806 -1.13769 0
M  V30 875 H 76.7472 -4.78246 0.285886 0
M  V30 876 H 75.1112 -2.5464 0.0552833 0
M  V30 877 H 75.8942 -3.0033 1.66303 0
M  V30 878 N 78.3393 -0.321999 -1.54275 0
M  V30 879 C 79.2693 0.537411 -2.27231 0
M  V30 880 C 80.2503 1.12064 -1.27968 0
M  V30 881 O 81.4353 1.14606 -1.56777 0
M  V30 882 C 78.5653 1.69919 -3.02894 0
M  V30 883 C 77.5193 1.24534 -4.09482 0
M  V30 884 C 76.8453 2.49394 -4.72977 0
M  V30 885 C 78.1453 0.361335 -5.21049 0
M  V30 886 H 79.8393 -0.0711406 -2.99315 0
M  V30 887 H 77.3853 -0.0356555 -1.43956 0
M  V30 888 H 79.3383 2.30668 -3.52662 0
M  V30 889 H 78.0623 2.33431 -2.28424 0
M  V30 890 H 76.7213 0.660782 -3.60596 0
M  V30 891 H 76.3693 3.11265 -3.95124 0
M  V30 892 H 76.0693 2.19718 -5.44975 0
M  V30 893 H 77.5933 3.10908 -5.25517 0
M  V30 894 H 79.0073 0.875072 -5.66582 0
M  V30 895 H 77.4043 0.157428 -5.99893 0
M  V30 896 H 78.4743 -0.60822 -4.8107 0
M  V30 897 N 79.8174 1.5752 -0.0501392 0
M  V30 898 C 80.7804 2.1037 0.909786 0
M  V30 899 C 81.7804 1.02308 1.24056 0
M  V30 900 O 82.9704 1.28385 1.17741 0
M  V30 901 C 80.1024 2.58708 2.21998 0
M  V30 902 H 81.2954 2.96479 0.451665 0
M  V30 903 H 78.8484 1.55038 0.198248 0
M  V30 904 H 79.5834 1.75989 2.72394 0
M  V30 905 H 79.3684 3.37675 1.99295 0
M  V30 906 H 80.8584 2.99747 2.9076 0
M  V30 907 N 81.2955 -0.223234 1.56011 0
M  V30 908 C 82.7115 -0.572856 1.48965 0
M  V30 909 C 82.9115 -1.87225 0.74492 0
M  V30 910 O 81.9675 -2.50899 0.283896 0
M  V30 911 C 83.2805 -0.653646 2.9351 0
M  V30 912 C 84.8285 -0.744386 3.0402 0
M  V30 913 C 85.3035 -0.856535 4.49919 0
M  V30 914 N 86.7945 -0.9208 4.53955 0
M  V30 915 C 87.5295 -1.02726 5.64123 0
M  V30 916 N 87.0255 -1.09777 6.84047 0
M  V30 917 N 88.8185 -1.06226 5.51971 0
M  V30 918 H 80.9695 0.629462 2.02858 0
M  V30 919 H 83.2325 0.220621 0.921971 0
M  V30 920 H 82.9385 0.231518 3.50937 0
M  V30 921 H 82.8125 -1.51781 3.45315 0
M  V30 922 H 85.1995 -1.61999 2.46658 0
M  V30 923 H 85.2805 0.14541 2.55386 0
M  V30 924 H 84.9245 0.0146069 5.07898 0
M  V30 925 H 84.8545 -1.76172 4.96257 0
M  V30 926 H 87.3455 -0.876694 3.6759 0
M  V30 927 H 87.6585 -1.17872 7.63758 0
M  V30 928 H 86.0035 -1.06693 6.86762 0
M  V30 929 H 89.1945 -1.00382 4.5721 0
M  V30 930 H 89.3675 -1.14177 6.37862 0
M  V30 931 N 82.7736 -1.49793 -0.48987 0
M  V30 932 C 84.0226 -1.59085 -1.23995 0
M  V30 933 C 84.3356 -0.287907 -1.9347 0
M  V30 934 O 85.5416 -0.259506 -2.70257 0
M  V30 935 C 83.9976 -2.80736 -2.252 0
M  V30 936 C 83.6056 -4.17833 -1.61614 0
M  V30 937 C 85.3496 -2.99364 -3.00967 0
M  V30 938 C 83.2566 -5.30693 -2.60996 0
M  V30 939 H 82.1866 -0.592372 -0.466488 0
M  V30 940 H 84.8376 -1.76197 -0.51252 0
M  V30 941 H 83.2196 -2.57142 -3.01154 0
M  V30 942 H 84.3936 -4.51608 -0.915774 0
M  V30 943 H 82.7086 -4.04656 -0.981977 0
M  V30 944 H 85.3056 -3.80851 -3.75308 0
M  V30 945 H 85.6486 -2.10356 -3.59244 0
M  V30 946 H 86.1816 -3.2305 -2.32128 0
M  V30 947 H 82.9206 -6.21796 -2.07485 0
M  V30 948 H 82.4406 -5.01359 -3.2924 0
M  V30 949 H 84.1196 -5.6049 -3.23202 0
M  V30 950 N 84.2517 0.741722 -1.39055 0
M  V30 951 C 85.4767 1.53607 -1.39354 0
M  V30 952 C 85.9017 1.88096 0.0116905 0
M  V30 953 O 85.2597 1.5143 0.996924 0
M  V30 954 C 85.3077 2.80441 -2.26682 0
M  V30 955 O 84.4117 3.76088 -1.69208 0
M  V30 956 H 83.7527 0.464142 -0.474835 0
M  V30 957 H 86.2827 0.915665 -1.82967 0
M  V30 958 H 86.2927 3.29246 -2.40959 0
M  V30 959 H 84.9677 2.5467 -3.2881 0
M  V30 960 H 83.5447 3.34833 -1.64138 0
M  V30 961 N 85.7298 1.2412 0.971189 0
M  V30 962 C 86.9788 1.07284 1.70801 0
M  V30 963 C 87.2918 -0.388902 1.91695 0
M  V30 964 O 88.4978 -0.677379 2.62914 0
M  V30 965 C 86.9538 1.87145 3.07416 0
M  V30 966 C 86.5618 3.37707 2.94377 0
M  V30 967 C 88.3058 1.78828 3.84995 0
M  V30 968 C 86.2128 4.09925 4.26281 0
M  V30 969 H 85.1428 0.397854 0.64049 0
M  V30 970 H 87.7938 1.4817 1.0825 0
M  V30 971 H 86.1758 1.39071 3.70777 0
M  V30 972 H 87.3498 3.93335 2.4005 0
M  V30 973 H 85.6648 3.46938 2.30267 0
M  V30 974 H 88.2618 2.30089 4.82662 0
M  V30 975 H 88.6048 0.75284 4.09436 0
M  V30 976 H 89.1378 2.24563 3.28354 0
M  V30 977 H 85.8768 5.13813 4.07033 0
M  V30 978 H 85.3968 3.59083 4.80437 0
M  V30 979 H 87.0758 4.1673 4.94919 0
M  V30 980 N 87.2079 -1.17134 1.05439 0
M  V30 981 C 88.6189 -1.69084 0.791676 0
M  V30 982 C 88.9699 -1.83822 -0.685839 0
M  V30 983 O 88.0949 -1.52757 -1.53278 0
M  V30 984 C 88.6899 -3.07119 1.4305 0
M  V30 985 C 87.2489 -3.56225 1.21577 0
M  V30 986 C 86.3959 -2.32421 1.51247 0
M  V30 987 H 89.3469 -1.01617 1.219 0
M  V30 988 H 89.3679 -3.71087 0.84112 0
M  V30 989 H 88.8799 -2.9636 2.50584 0
M  V30 990 H 86.9809 -3.72257 0.159787 0
M  V30 991 H 87.0939 -4.38837 1.92246 0
M  V30 992 H 85.4579 -2.3701 0.932653 0
M  V30 993 H 86.2409 -2.24268 2.5992 0
M  V30 994 N 88.686 -0.835752 -1.33615 0
M  V30 995 C 89.934 -0.429109 -1.97492 0
M  V30 996 C 90.255 1.01433 -1.66543 0
M  V30 997 O 89.525 1.70611 -0.962744 0
M  V30 998 H 88.105 -0.155686 -0.730596 0
M  V30 999 H 90.767 -1.06802 -1.63031 0
M  V30 1000 H 89.863 -0.55861 -3.0706 0
M  V30 1001 N 90.1641 1.46063 -0.591896 0
M  V30 1002 C 91.3921 2.06717 -0.0868936 0
M  V30 1003 C 91.8071 1.43916 1.22203 0
M  V30 1004 O 91.1641 0.547698 1.74088 0
M  V30 1005 C 91.2151 3.6142 0.0758725 0
M  V30 1006 O 90.9361 4.21874 -1.18126 0
M  V30 1007 C 92.4371 4.39025 0.61416 0
M  V30 1008 H 89.6571 0.668162 -0.0616518 0
M  V30 1009 H 92.2011 1.8755 -0.815175 0
M  V30 1010 H 90.3561 3.79983 0.754413 0
M  V30 1011 H 90.7701 5.14861 -1.00092 0
M  V30 1012 H 92.2441 5.4783 0.677193 0
M  V30 1013 H 92.7211 4.07708 1.63312 0
M  V30 1014 H 93.3271 4.2529 -0.0298142 0
M  V30 1015 N 91.6422 0.330177 1.54103 0
M  V30 1016 C 92.5922 -0.548456 2.21305 0
M  V30 1017 C 93.5762 -1.07651 1.19583 0
M  V30 1018 O 94.7682 -1.01243 1.45186 0
M  V30 1019 C 91.8972 -1.70559 2.97934 0
M  V30 1020 C 90.9832 -1.19212 4.07 0
M  V30 1021 N 91.3742 -0.398831 5.04225 0
M  V30 1022 C 89.6722 -1.47024 4.2107 0
M  V30 1023 C 90.3732 -0.121761 5.81573 0
M  V30 1024 N 89.3492 -0.709722 5.38947 0
M  V30 1025 H 93.1512 0.0648483 2.93828 0
M  V30 1026 H 90.6652 0.136363 1.61826 0
M  V30 1027 H 92.6622 -2.34688 3.44568 0
M  V30 1028 H 91.3222 -2.32231 2.26934 0
M  V30 1029 H 92.3332 -0.0410869 5.17884 0
M  V30 1030 H 89.0102 -2.09232 3.61287 0
M  V30 1031 H 90.4002 0.517298 6.69906 0
M  V30 1032 N 93.1203 -1.57491 0.0584922 0
M  V30 1033 C 94.3973 -1.84346 -0.653918 0
M  V30 1034 C 94.7773 -0.948355 -1.88599 0
M  V30 1035 O 94.1253 -0.0112403 -2.28497 0
M  V30 1036 C 94.3353 -3.34239 -1.00425 0
M  V30 1037 C 95.6833 -4.01431 -1.38342 0
M  V30 1038 O 96.7073 -3.38907 -1.09637 0
M  V30 1039 O 95.5663 -5.11683 -1.91943 0
M  V30 1040 H 92.6603 -0.761112 -0.323478 0
M  V30 1041 H 95.2063 -1.6947 0.0884125 0
M  V30 1042 H 93.9783 -3.91089 -0.128625 0
M  V30 1043 H 93.6013 -3.54329 -1.80378 0
M  V30 1044 N 94.5984 0.214957 -1.56127 0
M  V30 1045 C 95.8234 0.95924 -1.83884 0
M  V30 1046 C 96.2484 1.7689 -0.639644 0
M  V30 1047 O 95.6064 1.76566 0.411601 0
M  V30 1048 C 95.6544 1.84723 -3.09693 0
M  V30 1049 O 94.7584 2.94346 -2.8885 0
M  V30 1050 H 94.0994 0.27125 -0.606069 0
M  V30 1051 H 96.6294 0.226276 -2.03345 0
M  V30 1052 H 96.6394 2.25576 -3.39969 0
M  V30 1053 H 95.3144 1.25218 -3.96602 0
M  V30 1054 H 93.8914 2.57391 -2.69823 0
M  V30 1055 N 96.0765 1.50051 0.48192 0
M  V30 1056 C 97.3245 1.60181 1.23234 0
M  V30 1057 C 97.6455 0.299176 1.92691 0
M  V30 1058 O 96.9155 -0.682708 1.83619 0
M  V30 1059 H 95.4955 0.590232 0.457859 0
M  V30 1060 H 98.1575 1.86775 0.556881 0
M  V30 1061 H 97.2535 2.40753 1.98607 0
M  V30 1062 N 97.5546 -0.734337 1.39446 0
M  V30 1063 C 98.7826 -1.52358 1.39981 0
M  V30 1064 C 99.1976 -1.88799 -0.0054975 0
M  V30 1065 O 98.5546 -1.54146 -0.976998 0
M  V30 1066 C 98.6056 -2.81072 2.27333 0
M  V30 1067 O 98.3266 -2.46178 3.62392 0
M  V30 1068 C 99.8276 -3.75096 2.36259 0
M  V30 1069 H 97.0476 -0.470806 0.478103 0
M  V30 1070 H 99.5916 -0.907339 1.83269 0
M  V30 1071 H 97.7466 -3.39026 1.87457 0
M  V30 1072 H 98.1606 -3.28866 4.08592 0
M  V30 1073 H 99.6346 -4.62305 3.01626 0
M  V30 1074 H 100.112 -4.16892 1.38194 0
M  V30 1075 H 100.718 -3.23061 2.76608 0
M  V30 1076 N 99.0327 -1.24633 -0.964593 0
M  V30 1077 C 100.28 -1.08788 -1.70796 0
M  V30 1078 C 100.608 0.372783 -1.90894 0
M  V30 1079 O 99.8627 1.29167 -1.47018 0
M  V30 1080 C 100.162 -1.7763 -3.10133 0
M  V30 1081 C 99.8277 -3.27557 -3.09866 0
M  V30 1082 C 98.4897 -3.6846 -3.09501 0
M  V30 1083 C 100.842 -4.23389 -3.03959 0
M  V30 1084 C 98.1697 -5.03624 -3.00965 0
M  V30 1085 C 100.522 -5.58565 -2.96965 0
M  V30 1086 C 99.1857 -5.98809 -2.9493 0
M  V30 1087 H 98.4557 -0.398084 -0.624988 0
M  V30 1088 H 101.103 -1.54777 -1.12767 0
M  V30 1089 H 99.4077 -1.24044 -3.71645 0
M  V30 1090 H 101.105 -1.62832 -3.66451 0
M  V30 1091 H 97.6947 -2.95006 -3.10917 0
M  V30 1092 H 101.879 -3.92787 -3.03368 0
M  V30 1093 H 97.1347 -5.33998 -2.97752 0
M  V30 1094 H 101.309 -6.32523 -2.91354 0
M  V30 1095 H 98.9357 -7.03505 -2.88071 0
M  V30 1096 N 100.511 1.16574 -1.06058 0
M  V30 1097 C 101.458 2.20883 -0.669263 0
M  V30 1098 C 102.428 1.62729 0.332918 0
M  V30 1099 O 103.613 1.895 0.222346 0
M  V30 1100 C 100.753 3.45049 -0.0593572 0
M  V30 1101 C 99.8658 4.17458 -1.11143 0
M  V30 1102 C 99.0008 5.29135 -0.467916 0
M  V30 1103 C 98.0398 5.93343 -1.50369 0
M  V30 1104 N 97.1768 6.96516 -0.883706 0
M  V30 1105 H 102.017 2.53709 -1.5632 0
M  V30 1106 H 99.5538 1.24616 -0.781625 0
M  V30 1107 H 101.512 4.16033 0.311771 0
M  V30 1108 H 100.142 3.12781 0.797992 0
M  V30 1109 H 99.1938 3.45101 -1.60029 0
M  V30 1110 H 100.506 4.61307 -1.89731 0
M  V30 1111 H 99.6598 6.06684 -0.0436871 0
M  V30 1112 H 98.3988 4.86443 0.349864 0
M  V30 1113 H 97.4038 5.14517 -1.93784 0
M  V30 1114 H 98.6288 6.38114 -2.32352 0
M  V30 1115 H 96.5748 6.55943 -0.086595 0
M  V30 1116 H 96.4918 7.38723 -1.607 0
M  V30 1117 H 97.7598 7.77993 -0.484543 0
M  V30 1118 N 101.989 0.842826 1.3317 0
M  V30 1119 C 102.919 0.294028 2.31641 0
M  V30 1120 C 103.9 -0.600401 1.59151 0
M  V30 1121 O 105.085 -0.523124 1.87022 0
M  V30 1122 C 102.215 -0.528416 3.43257 0
M  V30 1123 C 101.169 0.27056 4.27144 0
M  V30 1124 C 100.495 -0.675881 5.30411 0
M  V30 1125 C 101.795 1.48981 5.00602 0
M  V30 1126 H 103.489 1.11681 2.77791 0
M  V30 1127 H 101.035 0.538478 1.33553 0
M  V30 1128 H 102.988 -0.922674 4.11175 0
M  V30 1129 H 101.712 -1.38445 2.95805 0
M  V30 1130 H 100.371 0.646427 3.60856 0
M  V30 1131 H 100.019 -1.52842 4.79216 0
M  V30 1132 H 99.7189 -0.145374 5.8742 0
M  V30 1133 H 101.243 -1.06757 6.01195 0
M  V30 1134 H 102.657 1.16849 5.61266 0
M  V30 1135 H 101.054 1.95739 5.6728 0
M  V30 1136 H 102.124 2.25746 4.29147 0
M  V30 1137 N 103.467 -1.45747 0.599634 0
M  V30 1138 C 104.399 -2.28628 -0.161879 0
M  V30 1139 C 105.412 -1.39494 -0.839367 0
M  V30 1140 O 106.601 -1.63941 -0.706089 0
M  V30 1141 C 103.701 -3.15014 -1.24976 0
M  V30 1142 C 102.874 -4.32378 -0.660935 0
M  V30 1143 C 101.933 -5.00033 -1.63869 0
M  V30 1144 O 100.959 -5.57085 -1.1681 0
M  V30 1145 N 102.161 -4.98589 -2.97303 0
M  V30 1146 H 104.926 -2.94624 0.549265 0
M  V30 1147 H 102.487 -1.55847 0.438565 0
M  V30 1148 H 104.479 -3.5714 -1.9035 0
M  V30 1149 H 103.049 -2.5098 -1.86354 0
M  V30 1150 H 102.269 -3.9383 0.170688 0
M  V30 1151 H 103.557 -5.08197 -0.247619 0
M  V30 1152 H 102.955 -4.53514 -3.38145 0
M  V30 1153 H 101.512 -5.44603 -3.58121 0
M  V30 1154 N 104.945 -0.338344 -1.53925 0
M  V30 1155 C 105.893 0.536231 -2.26335 0
M  V30 1156 C 106.887 1.1063 -1.28286 0
M  V30 1157 O 108.093 1.05264 -1.46012 0
M  V30 1158 H 104.468 0.191602 -0.727181 0
M  V30 1159 H 106.439 -0.0965747 -2.98244 0
M  V30 1160 C 105.188 1.67803 -3.04528 0
M  V30 1161 H 104.511 1.24864 -3.79801 0
M  V30 1162 H 105.951 2.26526 -3.58416 0
M  V30 1163 C 104.41 2.60439 -2.13712 0
M  V30 1164 O 104.94 3.6255 -1.72975 0
M  V30 1165 N 103.146 2.29006 -1.78898 0
M  V30 1166 H 102.693 1.46011 -2.12223 0
M  V30 1167 H 102.651 2.91248 -1.18416 0
M  V30 1168 N 106.423 1.57458 -0.0668435 0
M  V30 1169 C 107.834 1.80776 0.466558 0
M  V30 1170 C 108.185 0.980361 1.69951 0
M  V30 1171 O 107.31 0.201441 2.1546 0
M  V30 1172 C 107.905 3.27881 0.85321 0
M  V30 1173 C 106.464 3.52062 1.3315 0
M  V30 1174 C 105.611 2.75513 0.314264 0
M  V30 1175 H 108.562 1.5598 -0.292588 0
M  V30 1176 H 108.583 3.39659 1.715 0
M  V30 1177 H 108.095 3.88075 -0.0443439 0
M  V30 1178 H 106.196 2.97167 2.24772 0
M  V30 1179 H 106.309 4.60762 1.31285 0
M  V30 1180 H 104.673 2.42123 0.790492 0
M  V30 1181 H 105.456 3.38442 -0.575477 0
M  V30 1182 N 107.901 -0.206675 1.56239 0
M  V30 1183 C 109.15 -0.926964 1.79138 0
M  V30 1184 C 109.463 -1.84901 0.638043 0
M  V30 1185 O 110.669 -2.60906 0.751033 0
M  V30 1186 C 109.125 -1.6986 3.17294 0
M  V30 1187 C 108.733 -0.821956 4.40395 0
M  V30 1188 C 110.477 -2.40922 3.4951 0
M  V30 1189 C 108.384 -1.59179 5.69575 0
M  V30 1190 H 107.314 -0.349864 0.667915 0
M  V30 1191 H 109.965 -0.180487 1.8261 0
M  V30 1192 H 108.347 -2.48853 3.08039 0
M  V30 1193 H 109.521 -0.0715019 4.60745 0
M  V30 1194 H 107.836 -0.222741 4.15804 0
M  V30 1195 H 110.433 -2.99047 4.43255 0
M  V30 1196 H 110.776 -3.14542 2.72707 0
M  V30 1197 H 111.309 -1.68905 3.60161 0
M  V30 1198 H 108.048 -0.898589 6.49312 0
M  V30 1199 H 107.568 -2.31648 5.53262 0
M  V30 1200 H 109.247 -2.14862 6.10281 0
M  V30 1201 N 109.379 -1.50304 -0.473955 0
M  V30 1202 C 110.326 -1.68959 -1.57231 0
M  V30 1203 C 111.296 -0.530899 -1.57387 0
M  V30 1204 O 112.481 -0.761133 -1.74961 0
M  V30 1205 C 109.621 -1.7871 -2.95223 0
M  V30 1206 C 108.734 -3.06061 -3.04878 0
M  V30 1207 C 107.869 -3.06626 -4.33767 0
M  V30 1208 C 106.908 -4.28443 -4.37154 0
M  V30 1209 N 106.045 -4.26763 -5.5751 0
M  V30 1210 H 110.885 -2.6273 -1.40631 0
M  V30 1211 H 108.422 -1.30241 -0.683789 0
M  V30 1212 H 110.38 -1.82344 -3.75242 0
M  V30 1213 H 109.01 -0.883806 -3.10465 0
M  V30 1214 H 108.062 -3.11911 -2.17751 0
M  V30 1215 H 109.374 -3.96039 -3.0324 0
M  V30 1216 H 108.528 -3.08973 -5.22131 0
M  V30 1217 H 107.267 -2.14473 -4.3801 0
M  V30 1218 H 106.272 -4.2631 -3.47188 0
M  V30 1219 H 107.497 -5.2182 -4.34605 0
M  V30 1220 H 105.443 -3.37462 -5.62544 0
M  V30 1221 H 105.36 -5.10507 -5.57601 0
M  V30 1222 H 106.628 -4.33253 -6.48006 0
M  V30 1223 N 110.857 0.726932 -1.39834 0
M  V30 1224 C 111.789 1.85147 -1.35104 0
M  V30 1225 C 112.802 1.60736 -0.258392 0
M  V30 1226 O 113.991 1.70821 -0.517931 0
M  V30 1227 C 111.091 3.21332 -1.07697 0
M  V30 1228 C 110.264 3.73033 -2.28396 0
M  V30 1229 C 109.323 4.87802 -1.97322 0
M  V30 1230 O 108.349 5.01043 -2.70083 0
M  V30 1231 N 109.551 5.72768 -0.944273 0
M  V30 1232 H 112.316 1.89706 -2.32017 0
M  V30 1233 H 109.877 0.908006 -1.3404 0
M  V30 1234 H 111.869 3.95691 -0.849144 0
M  V30 1235 H 110.439 3.11992 -0.194909 0
M  V30 1236 H 109.659 2.89934 -2.6708 0
M  V30 1237 H 110.947 4.0431 -3.08887 0
M  V30 1238 H 110.345 5.64669 -0.341427 0
M  V30 1239 H 108.902 6.4716 -0.776346 0
M  V30 1240 N 112.336 1.25143 0.95797 0
M  V30 1241 C 113.582 1.09855 1.70469 0
M  V30 1242 C 113.915 -0.360187 1.90831 0
M  V30 1243 O 113.19 -1.26568 1.47685 0
M  V30 1244 C 113.473 1.8497 3.08963 0
M  V30 1245 C 113.326 3.38652 2.96032 0
M  V30 1246 C 114.645 1.63016 4.08795 0
M  V30 1247 H 111.764 0.400465 0.618706 0
M  V30 1248 H 114.406 1.53933 1.11376 0
M  V30 1249 H 112.556 1.47505 3.59409 0
M  V30 1250 H 114.228 3.85772 2.52938 0
M  V30 1251 H 112.471 3.66534 2.32025 0
M  V30 1252 H 113.142 3.8642 3.94187 0
M  V30 1253 H 115.618 1.95625 3.67247 0
M  V30 1254 H 114.494 2.18015 5.03747 0
M  V30 1255 H 114.755 0.570692 4.38401 0
M  V30 1256 N 113.814 -1.1601 1.06675 0
M  V30 1257 C 115.06 -1.87145 0.796766 0
M  V30 1258 C 115.415 -1.8037 -0.669658 0
M  V30 1259 O 114.708 -1.21116 -1.48463 0
M  V30 1260 C 114.902 -3.35547 1.23057 0
M  V30 1261 C 114.731 -3.56769 2.73762 0
M  V30 1262 C 113.501 -3.72635 3.41279 0
M  V30 1263 C 115.699 -3.55166 3.7197 0
M  V30 1264 N 113.681 -3.81845 4.80695 0
M  V30 1265 C 115.052 -3.70406 4.97191 0
M  V30 1266 C 117.107 -3.384 3.65226 0
M  V30 1267 C 115.81 -3.70615 6.16471 0
M  V30 1268 C 117.836 -3.39904 4.83962 0
M  V30 1269 C 117.198 -3.55667 6.08013 0
M  V30 1270 H 113.297 -0.702267 0.344014 0
M  V30 1271 H 115.881 -1.39165 1.36166 0
M  V30 1272 H 114.052 -3.82159 0.693456 0
M  V30 1273 H 115.784 -3.94363 0.908844 0
M  V30 1274 H 112.539 -3.73121 2.91681 0
M  V30 1275 H 112.963 -3.90209 5.53232 0
M  V30 1276 H 117.605 -3.25138 2.70269 0
M  V30 1277 H 115.323 -3.82658 7.11757 0
M  V30 1278 H 118.909 -3.28169 4.80413 0
M  V30 1279 H 117.789 -3.56755 6.98352 0
M  V30 1280 N 115.292 -0.849877 -1.32721 0
M  V30 1281 C 116.54 -0.450032 -1.97026 0
M  V30 1282 C 116.861 0.996604 -1.67609 0
M  V30 1283 O 116.131 1.6958 -0.980786 0
M  V30 1284 H 114.711 -0.163426 -0.728904 0
M  V30 1285 H 117.373 -1.08526 -1.6189 0
M  V30 1286 H 116.469 -0.591146 -3.0645 0
M  V30 1287 N 116.77 1.45427 -0.607355 0
M  V30 1288 C 117.703 2.27635 0.160482 0
M  V30 1289 C 118.681 1.37122 0.873857 0
M  V30 1290 O 119.865 1.66551 0.882775 0
M  V30 1291 C 116.992 3.15486 1.23231 0
M  V30 1292 C 116.038 4.21939 0.622097 0
M  V30 1293 S 116.871 5.32459 -0.569852 0
M  V30 1294 C 118.027 6.23879 0.502577 0
M  V30 1295 H 118.26 2.9241 -0.536983 0
M  V30 1296 H 115.793 1.49265 -0.394868 0
M  V30 1297 H 117.751 3.66659 1.84585 0
M  V30 1298 H 116.412 2.49977 1.90185 0
M  V30 1299 H 115.605 4.8333 1.42856 0
M  V30 1300 H 115.207 3.73906 0.0837063 0
M  V30 1301 H 117.499 6.63261 1.38171 0
M  V30 1302 H 118.442 7.0806 -0.0751759 0
M  V30 1303 H 118.85 5.58545 0.8178 0
M  V30 1304 N 118.248 0.346503 1.53744 0
M  V30 1305 C 119.476 -0.25041 2.05379 0
M  V30 1306 C 119.891 -1.43979 1.22129 0
M  V30 1307 O 119.248 -1.80677 0.257321 0
M  V30 1308 C 119.299 -0.662575 3.55376 0
M  V30 1309 O 119.02 0.479515 4.35468 0
M  V30 1310 C 120.521 -1.31989 4.23195 0
M  V30 1311 H 117.741 -0.0478198 0.669294 0
M  V30 1312 H 120.285 0.499346 1.9831 0
M  V30 1313 H 118.44 -1.36227 3.62658 0
M  V30 1314 H 118.854 0.15037 5.24284 0
M  V30 1315 H 120.328 -1.55902 5.29527 0
M  V30 1316 H 120.805 -2.27436 3.75725 0
M  V30 1317 H 121.411 -0.662154 4.20114 0
M  V30 1318 N 119.726 -1.57421 0.075193 0
M  V30 1319 C 120.658 -2.09904 -0.920483 0
M  V30 1320 C 121.671 -1.03191 -1.25918 0
M  V30 1321 O 122.86 -1.30695 -1.21577 0
M  V30 1322 C 119.96 -2.54726 -2.23534 0
M  V30 1323 C 119.133 -3.8505 -2.07498 0
M  V30 1324 C 118.192 -4.15929 -3.22319 0
M  V30 1325 O 117.218 -4.85474 -2.9716 0
M  V30 1326 N 118.42 -3.69745 -4.47514 0
M  V30 1327 H 121.185 -2.95954 -0.472359 0
M  V30 1328 H 118.746 -1.61523 -0.110444 0
M  V30 1329 H 120.738 -2.72443 -2.9926 0
M  V30 1330 H 119.308 -1.73795 -2.59835 0
M  V30 1331 H 118.528 -3.76679 -1.16219 0
M  V30 1332 H 119.816 -4.70348 -1.94038 0
M  V30 1333 H 119.214 -3.13569 -4.7084 0
M  V30 1334 H 117.771 -3.92655 -5.20255 0
M  V30 1335 N 121.204 0.198386 -1.56346 0
M  V30 1336 C 122.114 1.2664 -1.97483 0
M  V30 1337 C 123.13 1.49989 -0.882002 0
M  V30 1338 O 124.306 1.62668 -1.18748 0
M  V30 1339 C 121.371 2.59141 -2.30319 0
M  V30 1340 C 120.432 2.43892 -3.53292 0
M  V30 1341 C 119.665 3.70074 -3.84553 0
M  V30 1342 O 119.888 4.74101 -3.1715 0
M  V30 1343 O 118.822 3.658 -4.7799 0
M  V30 1344 H 122.648 0.947304 -2.88548 0
M  V30 1345 H 120.233 0.403123 -1.43859 0
M  V30 1346 H 122.115 3.37352 -2.5253 0
M  V30 1347 H 120.79 2.90684 -1.42423 0
M  V30 1348 H 119.697 1.63803 -3.36332 0
M  V30 1349 H 121.03 2.17282 -4.41644 0
M  V30 1350 N 122.682 1.50554 0.465978 0
M  V30 1351 C 123.912 1.65323 1.23903 0
M  V30 1352 C 124.32 0.338051 1.86155 0
M  V30 1353 O 123.663 -0.690518 1.70228 0
M  V30 1354 C 123.725 2.69048 2.3844 0
M  V30 1355 C 123.389 4.12462 1.96784 0
M  V30 1356 C 124.386 4.98168 1.48745 0
M  V30 1357 C 122.071 4.58407 2.05349 0
M  V30 1358 C 124.065 6.27868 1.0982 0
M  V30 1359 C 121.752 5.88112 1.66035 0
M  V30 1360 C 122.75 6.72668 1.18349 0
M  V30 1361 O 122.438 7.99951 0.795825 0
M  V30 1362 H 122.17 0.558629 0.38067 0
M  V30 1363 H 124.724 1.97561 0.562022 0
M  V30 1364 H 122.954 2.32062 3.09328 0
M  V30 1365 H 124.643 2.72985 3.0039 0
M  V30 1366 H 125.409 4.63885 1.41546 0
M  V30 1367 H 121.288 3.92735 2.41414 0
M  V30 1368 H 124.832 6.93819 0.725293 0
M  V30 1369 H 120.729 6.21914 1.72895 0
M  V30 1370 H 121.497 8.13265 0.924222 0
M  V30 1371 N 124.16 -0.719506 1.40217 0
M  V30 1372 C 125.437 -1.47221 1.28784 0
M  V30 1373 C 125.817 -2.10883 -0.0956067 0
M  V30 1374 O 125.165 -1.99833 -1.10811 0
M  V30 1375 C 125.375 -2.5111 2.42373 0
M  V30 1376 C 126.723 -3.17053 2.82423 0
M  V30 1377 O 127.747 -2.61429 2.41937 0
M  V30 1378 O 126.606 -4.17742 3.52355 0
M  V30 1379 H 123.7 -0.654491 0.50554 0
M  V30 1380 H 126.246 -0.752014 1.52128 0
M  V30 1381 H 125.018 -2.02556 3.34793 0
M  V30 1382 H 124.641 -3.3067 2.20778 0
M  V30 1383 N 125.638 -1.25649 -0.95132 0
M  V30 1384 C 126.885 -1.10594 -1.69633 0
M  V30 1385 C 127.213 0.352515 -1.91279 0
M  V30 1386 O 126.468 1.27601 -1.4838 0
M  V30 1387 C 126.767 -1.80909 -3.08231 0
M  V30 1388 C 126.433 -3.30825 -3.06375 0
M  V30 1389 C 125.095 -3.71722 -3.05576 0
M  V30 1390 C 127.447 -4.26589 -2.99452 0
M  V30 1391 C 124.775 -5.06788 -2.95606 0
M  V30 1392 C 127.127 -5.61683 -2.91024 0
M  V30 1393 C 125.791 -6.01904 -2.88562 0
M  V30 1394 H 125.061 -0.404691 -0.620731 0
M  V30 1395 H 127.708 -1.55964 -1.11119 0
M  V30 1396 H 126.013 -1.27979 -3.70309 0
M  V30 1397 H 127.71 -1.6671 -3.64704 0
M  V30 1398 H 124.3 -2.98287 -3.07771 0
M  V30 1399 H 128.484 -3.95982 -2.99185 0
M  V30 1400 H 123.74 -5.37126 -2.92071 0
M  V30 1401 H 127.914 -6.35578 -2.84629 0
M  V30 1402 H 125.541 -7.06521 -2.80593 0
M  V30 1403 N 127.117 1.15442 -1.07289 0
M  V30 1404 C 128.533 1.38201 -0.798288 0
M  V30 1405 C 128.733 1.92429 0.597769 0
M  V30 1406 O 127.789 2.12962 1.3566 0
M  V30 1407 C 129.102 2.35357 -1.87156 0
M  V30 1408 C 130.65 2.49021 -1.89624 0
M  V30 1409 C 131.125 3.49468 -2.96034 0
M  V30 1410 N 132.616 3.57003 -2.95132 0
M  V30 1411 C 133.351 4.34543 -3.74112 0
M  V30 1412 N 132.847 5.15421 -4.6294 0
M  V30 1413 N 134.64 4.29625 -3.62462 0
M  V30 1414 H 126.791 0.78584 -1.97328 0
M  V30 1415 H 129.054 0.408065 -0.855679 0
M  V30 1416 H 128.76 2.02626 -2.87464 0
M  V30 1417 H 128.634 3.35129 -1.73114 0
M  V30 1418 H 131.021 2.81051 -0.899687 0
M  V30 1419 H 131.102 1.4925 -2.07745 0
M  V30 1420 H 130.746 3.18173 -3.95889 0
M  V30 1421 H 130.676 4.48992 -2.75161 0
M  V30 1422 H 133.167 2.99276 -2.30743 0
M  V30 1423 H 133.48 5.7183 -5.19837 0
M  V30 1424 H 131.825 5.14729 -4.66989 0
M  V30 1425 H 135.016 3.65505 -2.92444 0
M  V30 1426 H 135.189 4.89807 -4.24256 0
M  V30 1427 N 128.595 0.856903 1.32268 0
M  V30 1428 C 129.825 0.47475 2.01071 0
M  V30 1429 C 130.233 -0.933746 1.64553 0
M  V30 1430 O 129.576 -1.62114 0.863989 0
M  V30 1431 C 129.638 0.536746 3.55471 0
M  V30 1432 C 129.302 1.90453 4.15423 0
M  V30 1433 C 130.299 2.87029 4.33486 0
M  V30 1434 C 127.984 2.20229 4.51447 0
M  V30 1435 C 129.978 4.11532 4.86744 0
M  V30 1436 C 127.665 3.44984 5.0441 0
M  V30 1437 C 128.663 4.40452 5.22007 0
M  V30 1438 O 128.351 5.62998 5.73837 0
M  V30 1439 H 128.083 0.184778 0.650256 0
M  V30 1440 H 130.637 1.15615 1.69771 0
M  V30 1441 H 128.867 -0.20152 3.86175 0
M  V30 1442 H 130.556 0.169875 4.05544 0
M  V30 1443 H 131.322 2.6533 4.05986 0
M  V30 1444 H 127.201 1.46705 4.37034 0
M  V30 1445 H 130.745 4.86056 5.00395 0
M  V30 1446 H 126.642 3.66532 5.31342 0
M  V30 1447 H 127.41 5.64987 5.92226 0
M  V30 1448 N 130.073 -1.45103 0.615059 0
M  V30 1449 C 131.005 -2.28786 -0.13762 0
M  V30 1450 C 132.018 -1.40376 -0.824525 0
M  V30 1451 O 133.207 -1.64681 -0.688662 0
M  V30 1452 C 130.307 -3.16322 -1.21628 0
M  V30 1453 C 129.48 -4.33054 -0.615039 0
M  V30 1454 C 128.539 -5.01743 -1.58556 0
M  V30 1455 O 127.565 -5.58293 -1.10895 0
M  V30 1456 N 128.767 -5.01714 -2.91998 0
M  V30 1457 H 131.532 -2.94025 0.580483 0
M  V30 1458 H 129.093 -1.55373 0.45507 0
M  V30 1459 H 131.085 -3.59139 -1.86552 0
M  V30 1460 H 129.655 -2.52943 -1.83681 0
M  V30 1461 H 128.875 -3.93627 0.21245 0
M  V30 1462 H 130.163 -5.08431 -0.193704 0
M  V30 1463 H 129.561 -4.57075 -3.33316 0
M  V30 1464 H 128.118 -5.48371 -3.52325 0
M  V30 1465 N 131.551 -0.354651 -1.53558 0
M  V30 1466 C 132.484 0.540273 -2.21712 0
M  V30 1467 C 133.462 1.09161 -1.2051 0
M  V30 1468 O 134.646 1.14979 -1.49372 0
M  V30 1469 C 131.773 1.74435 -2.90328 0
M  V30 1470 C 130.819 1.32146 -4.05512 0
M  V30 1471 S 131.652 0.331924 -5.3447 0
M  V30 1472 C 132.808 1.54258 -6.06593 0
M  V30 1473 H 133.041 -0.0385776 -2.97275 0
M  V30 1474 H 130.574 -0.138736 -1.53775 0
M  V30 1475 H 132.532 2.43507 -3.30476 0
M  V30 1476 H 131.193 2.29444 -2.1451 0
M  V30 1477 H 130.386 2.21952 -4.52497 0
M  V30 1478 H 129.988 0.710091 -3.67197 0
M  V30 1479 H 132.28 2.47534 -6.30661 0
M  V30 1480 H 133.223 1.11431 -6.99277 0
M  V30 1481 H 133.631 1.74367 -5.36895 0
M  V30 1482 N 133.029 1.57378 -0.0835403 0
M  V30 1483 C 134.306 1.85363 0.624507 0
M  V30 1484 C 134.686 0.978239 1.87066 0
M  V30 1485 O 134.034 0.0475908 2.2845 0
M  V30 1486 C 134.244 3.35795 0.950947 0
M  V30 1487 C 135.592 4.03581 1.31939 0
M  V30 1488 O 136.616 3.40609 1.04232 0
M  V30 1489 O 135.475 5.14672 1.83779 0
M  V30 1490 H 132.569 0.766162 0.311329 0
M  V30 1491 H 135.115 1.69307 -0.115362 0
M  V30 1492 H 133.887 3.91244 0.0663899 0
M  V30 1493 H 133.51 3.57154 1.74719 0
M  V30 1494 N 134.507 -0.190092 1.56449 0
M  V30 1495 C 135.457 -1.23977 1.91347 0
M  V30 1496 C 136.441 -1.40747 0.779693 0
M  V30 1497 O 137.633 -1.43033 1.04262 0
M  V30 1498 C 134.762 -2.58347 2.26079 0
M  V30 1499 C 133.848 -2.4535 3.45925 0
M  V30 1500 N 134.239 -2.02039 4.63696 0
M  V30 1501 C 132.537 -2.76229 3.50162 0
M  V30 1502 C 133.238 -2.01053 5.4585 0
M  V30 1503 N 132.214 -2.42747 4.8639 0
M  V30 1504 H 136.016 -0.896318 2.79899 0
M  V30 1505 H 133.53 -0.398496 1.57435 0
M  V30 1506 H 135.527 -3.34173 2.49267 0
M  V30 1507 H 134.187 -2.93512 1.38856 0
M  V30 1508 H 135.198 -1.7267 4.88268 0
M  V30 1509 H 131.875 -3.15556 2.73369 0
M  V30 1510 H 133.265 -1.69426 6.50188 0
M  V30 1511 N 135.985 -1.50799 -0.457987 0
M  V30 1512 C 137.233 -1.62121 -1.2067 0
M  V30 1513 C 137.554 -0.329793 -1.92191 0
M  V30 1514 O 136.824 0.653409 -1.84682 0
M  V30 1515 H 135.404 -0.597441 -0.448411 0
M  V30 1516 H 138.066 -1.87637 -0.527096 0
M  V30 1517 H 137.162 -2.43882 -1.94751 0
M  V30 1518 N 137.463 0.71206 -1.40597 0
M  V30 1519 C 138.426 1.80785 -1.40888 0
M  V30 1520 C 139.426 1.57937 -0.302103 0
M  V30 1521 O 140.616 1.64913 -0.561182 0
M  V30 1522 C 137.748 3.18927 -1.20409 0
M  V30 1523 H 138.941 1.81924 -2.38419 0
M  V30 1524 H 136.494 0.91805 -1.26497 0
M  V30 1525 H 137.229 3.23436 -0.236522 0
M  V30 1526 H 137.014 3.36911 -2.00582 0
M  V30 1527 H 138.504 3.98949 -1.23408 0
M  V30 1528 N 138.941 1.26152 0.944643 0
M  V30 1529 C 140.357 1.03189 1.21754 0
M  V30 1530 C 140.557 -0.245112 2.00004 0
M  V30 1531 O 139.613 -0.955176 2.33736 0
M  V30 1532 C 140.926 2.26119 1.98219 0
M  V30 1533 C 142.474 2.30984 2.11224 0
M  V30 1534 C 142.949 3.53597 2.91089 0
M  V30 1535 N 144.44 3.54053 2.98664 0
M  V30 1536 C 145.175 4.45593 3.60881 0
M  V30 1537 N 144.671 5.47416 4.24626 0
M  V30 1538 N 146.464 4.33252 3.58119 0
M  V30 1539 H 138.615 2.08177 0.421437 0
M  V30 1540 H 140.878 0.914723 0.248969 0
M  V30 1541 H 140.584 3.18984 1.48128 0
M  V30 1542 H 140.458 2.3009 2.98895 0
M  V30 1543 H 142.845 1.38635 2.60508 0
M  V30 1544 H 142.926 2.31026 1.09821 0
M  V30 1545 H 142.57 4.46273 2.42493 0
M  V30 1546 H 142.5 3.50802 3.92741 0
M  V30 1547 H 144.991 2.80403 2.53343 0
M  V30 1548 H 145.304 6.13459 4.69987 0
M  V30 1549 H 143.649 5.51278 4.23223 0
M  V30 1550 H 146.84 3.52924 3.0751 0
M  V30 1551 H 147.013 5.04786 4.06319 0
M  V30 1552 N 140.419 -1.14872 1.07899 0
M  V30 1553 C 141.668 -1.85135 0.800499 0
M  V30 1554 C 141.981 -1.83547 -0.676014 0
M  V30 1555 O 143.187 -2.49548 -1.06948 0
M  V30 1556 C 141.643 -3.3231 1.38197 0
M  V30 1557 C 141.251 -3.42329 2.8899 0
M  V30 1558 C 142.995 -4.0772 1.18174 0
M  V30 1559 C 140.902 -4.83684 3.403 0
M  V30 1560 H 139.832 -0.693563 0.29578 0
M  V30 1561 H 142.483 -1.29532 1.29976 0
M  V30 1562 H 140.865 -3.87618 0.810431 0
M  V30 1563 H 142.039 -2.97097 3.52236 0
M  V30 1564 H 140.354 -2.80369 3.07867 0
M  V30 1565 H 142.951 -5.12049 1.5398 0
M  V30 1566 H 143.294 -4.16124 0.12117 0
M  V30 1567 H 143.827 -3.58696 1.71994 0
M  V30 1568 H 140.566 -4.80465 4.45907 0
M  V30 1569 H 140.086 -5.29474 2.81811 0
M  V30 1570 H 141.765 -5.52558 3.36584 0
M  V30 1571 N 141.898 -0.863906 -1.31812 0
M  V30 1572 C 143.145 -0.471836 -1.96926 0
M  V30 1573 C 143.473 0.974578 -1.68322 0
M  V30 1574 O 142.728 1.7003 -0.968933 0
M  V30 1575 C 143.027 -0.668547 -3.51091 0
M  V30 1576 C 142.693 -2.08683 -3.99703 0
M  V30 1577 C 141.355 -2.47471 -4.12688 0
M  V30 1578 C 143.707 -3.01207 -4.25351 0
M  V30 1579 C 141.035 -3.78037 -4.4867 0
M  V30 1580 C 143.387 -4.31282 -4.62794 0
M  V30 1581 C 142.051 -4.69992 -4.73987 0
M  V30 1582 H 141.321 -0.172657 -0.720604 0
M  V30 1583 H 143.968 -1.09573 -1.57054 0
M  V30 1584 H 142.273 0.0385252 -3.91781 0
M  V30 1585 H 143.97 -0.345102 -3.99512 0
M  V30 1586 H 140.56 -1.77566 -3.90087 0
M  V30 1587 H 144.744 -2.72469 -4.14819 0
M  V30 1588 H 140 -4.078 -4.55532 0
M  V30 1589 H 144.174 -5.03031 -4.81594 0
M  V30 1590 H 141.801 -5.71207 -5.01624 0
M  V30 1591 N 143.376 1.44774 -0.622745 0
M  V30 1592 C 144.653 1.95522 -0.0551974 0
M  V30 1593 C 145.033 1.5649 1.41683 0
M  V30 1594 O 144.381 0.834848 2.12703 0
M  V30 1595 C 144.591 3.4796 -0.269242 0
M  V30 1596 C 145.939 4.24306 -0.158014 0
M  V30 1597 O 146.963 3.55637 -0.200162 0
M  V30 1598 O 145.822 5.46471 -0.0558693 0
M  V30 1599 H 142.916 0.826556 0.0271015 0
M  V30 1600 H 145.462 1.54866 -0.693864 0
M  V30 1601 H 144.234 3.6939 -1.29099 0
M  V30 1602 H 143.857 3.95543 0.403966 0
M  V30 1603 N 144.854 0.36279 1.53368 0
M  V30 1604 C 146.103 -0.22888 2.00397 0
M  V30 1605 C 146.416 -1.50096 1.25421 0
M  V30 1606 O 147.622 -2.17106 1.63025 0
M  V30 1607 C 146.078 -0.458417 3.56969 0
M  V30 1608 C 145.686 0.798877 4.4082 0
M  V30 1609 C 147.43 -1.00789 4.12361 0
M  V30 1610 C 145.337 0.539078 5.88938 0
M  V30 1611 H 144.267 -0.089305 0.748693 0
M  V30 1612 H 146.918 0.481099 1.77081 0
M  V30 1613 H 145.3 -1.22959 3.76427 0
M  V30 1614 H 146.474 1.57262 4.33134 0
M  V30 1615 H 144.789 1.27137 3.96516 0
M  V30 1616 H 147.386 -1.21754 5.20653 0
M  V30 1617 H 147.729 -1.9692 3.66781 0
M  V30 1618 H 148.262 -0.296961 3.9669 0
M  V30 1619 H 145.001 1.47064 6.3879 0
M  V30 1620 H 144.521 -0.196222 5.99479 0
M  V30 1621 H 146.2 0.163542 6.46793 0
M  V30 1622 N 146.332 -1.57332 0.0918853 0
M  V30 1623 C 147.748 -1.57389 -0.264766 0
M  V30 1624 C 147.948 -1.10281 -1.68643 0
M  V30 1625 O 147.004 -0.777801 -2.40222 0
M  V30 1626 C 148.317 -3.00648 -0.0561195 0
M  V30 1627 C 149.865 -3.12754 -0.124116 0
M  V30 1628 C 150.34 -4.57965 0.0564972 0
M  V30 1629 N 151.831 -4.632 0.00155611 0
M  V30 1630 C 152.566 -5.73281 0.116598 0
M  V30 1631 N 152.062 -6.92208 0.286294 0
M  V30 1632 N 153.855 -5.6207 0.0580973 0
M  V30 1633 H 146.006 -1.86262 1.02079 0
M  V30 1634 H 148.269 -0.859579 0.399786 0
M  V30 1635 H 147.975 -3.393 0.925669 0
M  V30 1636 H 147.849 -3.68623 -0.799823 0
M  V30 1637 H 150.236 -2.73976 -1.09641 0
M  V30 1638 H 150.317 -2.47377 0.651024 0
M  V30 1639 H 149.961 -4.97436 1.02564 0
M  V30 1640 H 149.891 -5.21399 -0.738297 0
M  V30 1641 H 152.382 -3.77686 -0.127192 0
M  V30 1642 H 152.695 -7.71934 0.365676 0
M  V30 1643 H 151.04 -6.94254 0.32192 0
M  V30 1644 H 154.231 -4.68043 -0.0733204 0
M  V30 1645 H 154.404 -6.47824 0.151203 0
M  V30 1646 N 147.81 0.181792 -1.56548 0
M  V30 1647 C 149.058 0.89832 -1.81038 0
M  V30 1648 C 149.379 1.83232 -0.667164 0
M  V30 1649 O 148.649 1.93372 0.313673 0
M  V30 1650 H 147.229 0.33471 -0.667816 0
M  V30 1651 H 149.891 0.184116 -1.94028 0
M  V30 1652 H 148.987 1.4815 -2.74696 0
M  V30 1653 N 149.288 1.51039 0.449983 0
M  V30 1654 C 150.704 1.38934 0.785462 0
M  V30 1655 C 150.904 0.461817 1.96136 0
M  V30 1656 O 149.96 -0.0877389 2.52348 0
M  V30 1657 C 151.273 2.80724 1.0777 0
M  V30 1658 C 152.821 2.89787 1.1829 0
M  V30 1659 C 153.296 4.32457 1.50815 0
M  V30 1660 N 154.787 4.35505 1.57764 0
M  V30 1661 C 155.522 5.42914 1.84477 0
M  V30 1662 N 155.018 6.60502 2.09068 0
M  V30 1663 N 156.811 5.3038 1.86155 0
M  V30 1664 H 148.962 2.09904 -0.324647 0
M  V30 1665 H 151.225 0.944378 -0.0827957 0
M  V30 1666 H 150.931 3.50531 0.286498 0
M  V30 1667 H 150.805 3.19273 2.00859 0
M  V30 1668 H 153.192 2.20186 1.96474 0
M  V30 1669 H 153.273 2.54752 0.231314 0
M  V30 1670 H 152.917 5.02603 0.731622 0
M  V30 1671 H 152.847 4.64995 2.47158 0
M  V30 1672 H 155.338 3.50724 1.40715 0
M  V30 1673 H 155.651 7.38158 2.28785 0
M  V30 1674 H 153.996 6.63639 2.06416 0
M  V30 1675 H 157.187 4.37505 1.66454 0
M  V30 1676 H 157.36 6.1417 2.06637 0
M  V30 1677 N 150.766 -0.704594 1.40972 0
M  V30 1678 C 151.696 -1.83124 1.44872 0
M  V30 1679 C 152.677 -1.67281 0.30838 0
M  V30 1680 O 153.862 -1.87149 0.518556 0
M  V30 1681 C 150.992 -3.21181 1.32136 0
M  V30 1682 C 149.946 -3.51714 2.43888 0
M  V30 1683 C 149.272 -4.89032 2.16222 0
M  V30 1684 C 150.572 -3.516 3.86232 0
M  V30 1685 H 152.266 -1.80117 2.39161 0
M  V30 1686 H 149.812 -0.865145 1.15114 0
M  V30 1687 H 151.765 -3.99702 1.33479 0
M  V30 1688 H 150.489 -3.24791 0.343279 0
M  V30 1689 H 149.148 -2.75539 2.41813 0
M  V30 1690 H 148.796 -4.89256 1.16778 0
M  V30 1691 H 148.496 -5.10426 2.911 0
M  V30 1692 H 150.02 -5.69873 2.19265 0
M  V30 1693 H 151.434 -4.2014 3.9007 0
M  V30 1694 H 149.831 -3.84523 4.60719 0
M  V30 1695 H 150.901 -2.50757 4.15029 0
M  V30 1696 N 152.244 -1.26651 -0.937939 0
M  V30 1697 C 153.472 -1.15173 -1.7188 0
M  V30 1698 C 153.887 0.292668 -1.86518 0
M  V30 1699 O 153.244 1.20014 -1.37488 0
M  V30 1700 C 153.295 -1.81925 -3.12387 0
M  V30 1701 O 153.016 -3.2072 -2.98446 0
M  V30 1702 C 154.517 -1.76442 -4.06673 0
M  V30 1703 H 151.737 -0.400911 -0.538063 0
M  V30 1704 H 154.281 -1.67332 -1.1756 0
M  V30 1705 H 152.436 -1.33696 -3.63599 0
M  V30 1706 H 152.85 -3.53802 -3.872 0
M  V30 1707 H 154.324 -2.27781 -5.02812 0
M  V30 1708 H 154.801 -0.731608 -4.33064 0
M  V30 1709 H 155.407 -2.24238 -3.61382 0
M  V30 1710 N 153.722 1.14298 -1.08507 0
M  V30 1711 C 154.999 1.81544 -0.728088 0
M  V30 1712 C 155.379 1.95838 0.78808 0
M  V30 1713 O 154.727 1.51904 1.70697 0
M  V30 1714 C 154.937 3.17169 -1.45619 0
M  V30 1715 C 156.285 3.9265 -1.61591 0
M  V30 1716 O 157.309 3.26762 -1.41793 0
M  V30 1717 O 156.168 5.10807 -1.94263 0
M  V30 1718 H 153.262 0.78491 -0.260471 0
M  V30 1719 H 155.808 1.21307 -1.18671 0
M  V30 1720 H 154.58 3.01934 -2.489 0
M  V30 1721 H 154.203 3.851 -0.989124 0
M  V30 1722 N 155.201 0.870884 1.31352 0
M  V30 1723 C 156.478 0.402907 1.91405 0
M  V30 1724 C 156.858 -1.11512 1.79244 0
M  V30 1725 O 156.206 -1.94411 1.2007 0
M  V30 1726 C 156.416 0.885301 3.37585 0
M  V30 1727 C 157.764 0.911971 4.14691 0
M  V30 1728 O 158.788 0.831016 3.46371 0
M  V30 1729 O 157.647 1.02927 5.3672 0
M  V30 1730 H 154.741 0.120698 0.818145 0
M  V30 1731 H 157.287 0.958857 1.40014 0
M  V30 1732 H 156.059 1.92889 3.40455 0
M  V30 1733 H 155.682 0.307714 3.96407 0
M  V30 1734 N 156.679 -1.44442 0.630414 0
M  V30 1735 C 157.627 -2.32437 -0.0871428 0
M  V30 1736 C 158.621 -1.47304 -0.836525 0
M  V30 1737 O 159.827 -1.63653 -0.749506 0
M  V30 1738 H 156.202 -0.750533 -0.0469495 0
M  V30 1739 H 158.173 -2.90709 0.673096 0
M  V30 1740 C 156.922 -3.31288 -1.05563 0
M  V30 1741 H 156.245 -3.96805 -0.488426 0
M  V30 1742 H 157.685 -3.9554 -1.52721 0
M  V30 1743 C 156.144 -2.6016 -2.14052 0
M  V30 1744 O 156.674 -2.39997 -3.22124 0
M  V30 1745 N 154.88 -2.19911 -1.89967 0
M  V30 1746 H 154.427 -2.36509 -1.02085 0
M  V30 1747 H 154.385 -1.72646 -2.62756 0
M  V30 1748 N 158.157 -0.370918 -1.53173 0
M  V30 1749 C 159.385 0.217704 -2.05751 0
M  V30 1750 C 159.8 1.42018 -1.24404 0
M  V30 1751 O 159.157 1.80245 -0.286033 0
M  V30 1752 C 159.208 0.605954 -3.56385 0
M  V30 1753 O 158.929 -0.548734 -4.3465 0
M  V30 1754 C 160.43 1.2524 -4.25241 0
M  V30 1755 H 157.65 0.0371659 -0.66997 0
M  V30 1756 H 160.194 -0.530832 -1.9749 0
M  V30 1757 H 158.349 1.3044 -3.6478 0
M  V30 1758 H 158.763 -0.23376 -5.23979 0
M  V30 1759 H 160.237 1.47458 -5.3194 0
M  V30 1760 H 160.714 2.2143 -3.79296 0
M  V30 1761 H 161.32 0.595233 -4.21114 0
M  V30 1762 N 159.635 1.57281 -0.100228 0
M  V30 1763 C 160.884 1.93713 0.561984 0
M  V30 1764 C 161.197 0.984492 1.69018 0
M  V30 1765 O 162.403 1.24273 2.41389 0
M  V30 1766 C 160.859 3.4421 1.05106 0
M  V30 1767 C 160.467 4.47975 -0.0476628 0
M  V30 1768 C 162.211 3.89595 1.68571 0
M  V30 1769 C 160.118 5.89631 0.457055 0
M  V30 1770 H 159.048 0.723082 0.2137 0
M  V30 1771 H 161.699 1.82644 -0.177057 0
M  V30 1772 H 160.081 3.50449 1.84395 0
M  V30 1773 H 161.255 4.53385 -0.823333 0
M  V30 1774 H 159.57 4.1223 -0.587816 0
M  V30 1775 H 162.167 4.92832 2.07414 0
M  V30 1776 H 162.51 3.28526 2.55688 0
M  V30 1777 H 163.043 3.86078 0.958562 0
M  V30 1778 H 159.782 6.54411 -0.377616 0
M  V30 1779 H 159.302 5.87681 1.19962 0
M  V30 1780 H 160.981 6.40363 0.92437 0
M  V30 1781 N 161.113 -0.173488 1.56642 0
M  V30 1782 C 162.359 -0.891784 1.8214 0
M  V30 1783 C 162.692 -1.8199 0.677736 0
M  V30 1784 O 161.967 -1.91842 -0.320446 0
M  V30 1785 C 162.25 -1.68933 3.18015 0
M  V30 1786 C 162.103 -0.784487 4.42906 0
M  V30 1787 C 163.422 -2.65748 3.50808 0
M  V30 1788 H 160.541 -0.322761 0.662567 0
M  V30 1789 H 163.183 -0.158095 1.89341 0
M  V30 1790 H 161.333 -2.31482 3.12007 0
M  V30 1791 H 163.005 -0.172046 4.60979 0
M  V30 1792 H 161.248 -0.0924117 4.33702 0
M  V30 1793 H 161.919 -1.37799 5.34524 0
M  V30 1794 H 164.395 -2.13327 3.57255 0
M  V30 1795 H 163.271 -3.18619 4.4696 0
M  V30 1796 H 163.532 -3.45842 2.75401 0
M  V30 1797 N 162.591 -1.51276 -0.441967 0
M  V30 1798 C 163.521 -1.752 -1.54361 0
M  V30 1799 C 164.502 -0.601682 -1.59103 0
M  V30 1800 O 165.687 -0.843913 -1.74905 0
M  V30 1801 C 162.817 -1.87282 -2.92477 0
M  V30 1802 C 161.771 -3.02687 -3.02596 0
M  V30 1803 C 161.097 -2.99947 -4.42647 0
M  V30 1804 C 162.397 -4.4273 -2.77106 0
M  V30 1805 H 164.091 -2.67442 -1.34592 0
M  V30 1806 H 161.637 -1.28694 -0.646048 0
M  V30 1807 H 163.59 -2.02602 -3.695 0
M  V30 1808 H 162.314 -0.916844 -3.13467 0
M  V30 1809 H 160.973 -2.87065 -2.28012 0
M  V30 1810 H 160.621 -2.02136 -4.60597 0
M  V30 1811 H 160.321 -3.77439 -4.50348 0
M  V30 1812 H 161.845 -3.17354 -5.2165 0
M  V30 1813 H 163.259 -4.58727 -3.43864 0
M  V30 1814 H 161.656 -5.21893 -2.96222 0
M  V30 1815 H 162.726 -4.53087 -1.72744 0
M  V30 1816 N 164.069 0.697108 -1.41344 0
M  V30 1817 C 165.019 1.80313 -1.39539 0
M  V30 1818 C 166.003 1.58618 -0.270001 0
M  V30 1819 O 167.195 1.69477 -0.510551 0
M  V30 1820 C 164.324 3.18606 -1.27848 0
M  V30 1821 C 163.41 3.46001 -2.45244 0
M  V30 1822 N 163.801 3.44103 -3.70711 0
M  V30 1823 C 162.099 3.76542 -2.39023 0
M  V30 1824 C 162.8 3.7036 -4.48563 0
M  V30 1825 N 161.776 3.90027 -3.78655 0
M  V30 1826 H 165.578 1.77207 -2.34468 0
M  V30 1827 H 163.092 0.897031 -1.35378 0
M  V30 1828 H 165.089 3.97833 -1.24637 0
M  V30 1829 H 163.749 3.22925 -0.339032 0
M  V30 1830 H 164.76 3.2452 -4.03618 0
M  V30 1831 H 161.437 3.88241 -1.53542 0
M  V30 1832 H 162.827 3.75042 -5.57488 0
M  V30 1833 N 165.547 1.27147 0.931209 0
M  V30 1834 C 166.497 1.06227 2.01742 0
M  V30 1835 C 167.481 -0.00859065 1.60898 0
M  V30 1836 O 168.673 0.209537 1.75755 0
M  V30 1837 C 165.802 0.707787 3.35924 0
M  V30 1838 C 164.888 1.81661 3.83223 0
M  V30 1839 N 165.279 3.05564 4.03069 0
M  V30 1840 C 163.577 1.70249 4.12227 0
M  V30 1841 C 164.278 3.77697 4.42403 0
M  V30 1842 N 163.254 3.0544 4.49675 0
M  V30 1843 H 167.056 2.00261 2.15111 0
M  V30 1844 H 164.57 1.1781 1.11779 0
M  V30 1845 H 166.567 0.539043 4.134 0
M  V30 1846 H 165.227 -0.224964 3.2392 0
M  V30 1847 H 166.238 3.41363 3.89476 0
M  V30 1848 H 162.915 0.840329 4.08956 0
M  V30 1849 H 164.305 4.84168 4.65866 0
M  V30 1850 N 167.025 -1.13721 1.09112 0
M  V30 1851 C 168.273 -1.84559 0.823562 0
M  V30 1852 C 168.594 -1.83754 -0.652658 0
M  V30 1853 O 167.864 -1.29102 -1.47342 0
M  V30 1854 H 166.444 -0.683376 0.301673 0
M  V30 1855 H 169.106 -1.37771 1.37859 0
M  V30 1856 H 168.202 -2.8917 1.17419 0
M  V30 1857 N 168.503 -0.877838 -1.30888 0
M  V30 1858 C 169.914 -0.544193 -1.78593 0
M  V30 1859 C 170.265 0.939301 -1.72254 0
M  V30 1860 O 169.39 1.7337 -1.29505 0
M  V30 1861 C 169.985 -0.98105 -3.24285 0
M  V30 1862 C 168.544 -0.698935 -3.69854 0
M  V30 1863 C 167.691 -1.168 -2.51502 0
M  V30 1864 H 170.642 -1.06278 -1.17859 0
M  V30 1865 H 170.663 -0.307009 -3.79259 0
M  V30 1866 H 170.175 -2.06079 -3.28866 0
M  V30 1867 H 168.276 0.369112 -3.70767 0
M  V30 1868 H 168.389 -1.28148 -4.61644 0
M  V30 1869 H 166.753 -0.587535 -2.47831 0
M  V30 1870 H 167.536 -2.25533 -2.58824 0
M  V30 1871 N 169.982 1.44106 -0.638065 0
M  V30 1872 C 170.912 2.33448 0.0494287 0
M  V30 1873 C 171.893 1.48606 0.827672 0
M  V30 1874 O 173.078 1.77308 0.792173 0
M  V30 1875 C 170.208 3.31771 1.02691 0
M  V30 1876 C 169.162 4.26485 0.359823 0
M  V30 1877 C 168.488 5.14729 1.44769 0
M  V30 1878 C 169.788 5.17056 -0.738296 0
M  V30 1879 H 171.482 2.91183 -0.696636 0
M  V30 1880 H 169.028 1.40014 -0.336456 0
M  V30 1881 H 170.981 3.93161 1.51666 0
M  V30 1882 H 169.705 2.7226 1.80395 0
M  V30 1883 H 168.364 3.66437 -0.10934 0
M  V30 1884 H 168.012 4.51566 2.21578 0
M  V30 1885 H 167.712 5.78913 1.00668 0
M  V30 1886 H 169.236 5.78991 1.93911 0
M  V30 1887 H 170.65 5.72342 -0.331354 0
M  V30 1888 H 169.047 5.89879 -1.10286 0
M  V30 1889 H 170.117 4.57652 -1.60258 0
M  V30 1890 N 171.46 0.379036 1.52974 0
M  V30 1891 C 172.69 -0.20649 2.05566 0
M  V30 1892 C 173.098 -1.41906 1.25137 0
M  V30 1893 O 172.441 -1.81421 0.288464 0
M  V30 1894 C 172.503 -0.651086 3.53555 0
M  V30 1895 C 172.167 0.446626 4.54812 0
M  V30 1896 C 173.164 1.30079 5.03364 0
M  V30 1897 C 170.849 0.610719 4.98573 0
M  V30 1898 C 172.843 2.30426 5.94292 0
M  V30 1899 C 170.53 1.61754 5.89304 0
M  V30 1900 C 171.528 2.46274 6.37054 0
M  V30 1901 O 171.216 3.45237 7.25994 0
M  V30 1902 H 170.948 -0.0372381 0.674974 0
M  V30 1903 H 173.502 0.539718 1.98182 0
M  V30 1904 H 171.732 -1.44911 3.58522 0
M  V30 1905 H 173.421 -1.16112 3.88938 0
M  V30 1906 H 174.187 1.18527 4.70294 0
M  V30 1907 H 170.066 -0.0374044 4.60985 0
M  V30 1908 H 173.61 2.96432 6.31485 0
M  V30 1909 H 169.507 1.73348 6.21788 0
M  V30 1910 H 170.275 3.41124 7.44027 0
M  V30 1911 N 172.938 -1.57226 0.108567 0
M  V30 1912 C 173.868 -2.17778 -0.84232 0
M  V30 1913 C 174.849 -1.11487 -1.2847 0
M  V30 1914 O 176.034 -1.39681 -1.34918 0
M  V30 1915 C 173.164 -2.76888 -2.09644 0
M  V30 1916 C 172.118 -3.88669 -1.79221 0
M  V30 1917 C 171.444 -4.34541 -3.11574 0
M  V30 1918 C 172.744 -5.11251 -1.06864 0
M  V30 1919 H 174.438 -2.97489 -0.337774 0
M  V30 1920 H 171.984 -1.43097 -0.161025 0
M  V30 1921 H 173.937 -3.17904 -2.76614 0
M  V30 1922 H 172.661 -1.94451 -2.62405 0
M  V30 1923 H 171.32 -3.48213 -1.14644 0
M  V30 1924 H 170.968 -3.48977 -3.62249 0
M  V30 1925 H 170.668 -5.09914 -2.91996 0
M  V30 1926 H 172.192 -4.782 -3.7968 0
M  V30 1927 H 173.606 -5.49352 -1.63968 0
M  V30 1928 H 172.003 -5.9214 -0.974178 0
M  V30 1929 H 173.073 -4.8487 -0.0536168 0
M  V30 1930 N 174.416 0.165178 -1.56732 0
M  V30 1931 C 175.646 0.894919 -1.86212 0
M  V30 1932 C 176.054 1.76066 -0.692627 0
M  V30 1933 O 175.397 1.80387 0.347303 0
M  V30 1934 C 175.459 1.8174 -3.10179 0
M  V30 1935 C 175.123 1.13064 -4.42793 0
M  V30 1936 C 176.12 0.493169 -5.17556 0
M  V30 1937 C 173.805 1.12556 -4.89527 0
M  V30 1938 C 175.799 -0.140209 -6.37246 0
M  V30 1939 C 173.486 0.488366 -6.09145 0
M  V30 1940 C 174.484 -0.143411 -6.82849 0
M  V30 1941 O 174.172 -0.77055 -8.00199 0
M  V30 1942 H 173.904 0.265114 -0.621844 0
M  V30 1943 H 176.458 0.168242 -2.0471 0
M  V30 1944 H 174.688 2.58455 -2.87642 0
M  V30 1945 H 176.377 2.4175 -3.26055 0
M  V30 1946 H 177.143 0.489023 -4.82528 0
M  V30 1947 H 173.022 1.60672 -4.32094 0
M  V30 1948 H 176.566 -0.633932 -6.94714 0
M  V30 1949 H 172.463 0.490116 -6.43637 0
M  V30 1950 H 173.231 -0.670408 -8.1575 0
M  V30 1951 N 175.894 1.51508 0.433938 0
M  V30 1952 C 177.14 1.64588 1.18484 0
M  V30 1953 C 177.473 0.362666 1.90784 0
M  V30 1954 O 176.748 -0.637892 1.83742 0
M  V30 1955 C 177.031 2.85149 2.19913 0
M  V30 1956 C 176.884 4.23456 1.51674 0
M  V30 1957 C 178.203 3.01227 3.20858 0
M  V30 1958 H 175.322 0.598994 0.429389 0
M  V30 1959 H 177.964 1.84002 0.473647 0
M  V30 1960 H 176.114 2.68729 2.80566 0
M  V30 1961 H 177.786 4.51552 0.943322 0
M  V30 1962 H 176.029 4.25998 0.819035 0
M  V30 1963 H 176.7 5.03812 2.2556 0
M  V30 1964 H 179.176 3.16382 2.70263 0
M  V30 1965 H 178.052 3.87141 3.89118 0
M  V30 1966 H 178.313 2.13447 3.8716 0
M  V30 1967 N 177.372 -0.689602 1.41712 0
M  V30 1968 C 178.6 -1.47827 1.44758 0
M  V30 1969 C 179.015 -1.88721 0.0545703 0
M  V30 1970 O 178.372 -1.57176 -0.927463 0
M  V30 1971 C 178.423 -2.73698 2.3616 0
M  V30 1972 O 178.144 -2.34524 3.7004 0
M  V30 1973 C 179.645 -3.67389 2.48072 0
M  V30 1974 H 176.865 -0.455357 0.49284 0
M  V30 1975 H 179.409 -0.848574 1.86063 0
M  V30 1976 H 177.564 -3.32891 1.98148 0
M  V30 1977 H 177.978 -3.15701 4.18847 0
M  V30 1978 H 179.452 -4.52475 3.16181 0
M  V30 1979 H 179.929 -4.12284 1.51388 0
M  V30 1980 H 180.535 -3.14097 2.86746 0
M  V30 1981 N 178.85 -1.27639 -0.924453 0
M  V30 1982 C 179.78 -1.13166 -2.04244 0
M  V30 1983 C 180.761 -0.032256 -1.70069 0
M  V30 1984 O 181.946 -0.207328 -1.9309 0
M  V30 1985 C 179.076 -0.781496 -3.38393 0
M  V30 1986 C 178.03 -1.83449 -3.86692 0
M  V30 1987 C 177.356 -1.33822 -5.17683 0
M  V30 1988 C 178.656 -3.23917 -4.09726 0
M  V30 1989 H 180.35 -2.06689 -2.1661 0
M  V30 1990 H 177.896 -0.995136 -1.04082 0
M  V30 1991 H 179.849 -0.667057 -4.16087 0
M  V30 1992 H 178.573 0.189439 -3.2605 0
M  V30 1993 H 177.232 -1.93789 -3.11193 0
M  V30 1994 H 176.88 -0.35665 -5.01734 0
M  V30 1995 H 176.58 -2.04224 -5.50968 0
M  V30 1996 H 178.104 -1.23679 -5.97943 0
M  V30 1997 H 179.518 -3.16559 -4.77978 0
M  V30 1998 H 177.915 -3.92059 -4.54324 0
M  V30 1999 H 178.985 -3.68729 -3.14908 0
M  V30 2000 N 180.328 1.1314 -1.09713 0
M  V30 2001 C 181.278 2.16709 -0.708593 0
M  V30 2002 C 182.262 1.58471 0.278523 0
M  V30 2003 O 183.454 1.76779 0.088427 0
M  V30 2004 C 180.583 3.43039 -0.133923 0
M  V30 2005 C 179.669 4.08277 -1.14763 0
M  V30 2006 N 180.06 4.48637 -2.33577 0
M  V30 2007 C 178.358 4.34954 -0.986446 0
M  V30 2008 C 179.059 4.9952 -2.98085 0
M  V30 2009 N 178.035 4.94561 -2.25632 0
M  V30 2010 H 181.837 2.45672 -1.61315 0
M  V30 2011 H 179.351 1.29967 -0.973775 0
M  V30 2012 H 181.348 4.16583 0.162465 0
M  V30 2013 H 180.008 3.15549 0.765447 0
M  V30 2014 H 181.019 4.41246 -2.7115 0
M  V30 2015 H 177.696 4.17258 -0.142008 0
M  V30 2016 H 179.086 5.40521 -3.99108 0
M  V30 2017 N 181.806 0.884767 1.30421 0
M  V30 2018 C 182.716 0.355398 2.31892 0
M  V30 2019 C 183.732 -0.542261 1.65335 0
M  V30 2020 O 184.908 -0.435432 1.96637 0
M  V30 2021 C 181.973 -0.421661 3.44126 0
M  V30 2022 C 181.034 0.505727 4.26311 0
M  V30 2023 C 180.267 -0.234343 5.33185 0
M  V30 2024 O 180.49 -1.46045 5.51386 0
M  V30 2025 O 179.424 0.415443 6.00465 0
M  V30 2026 H 183.25 1.19685 2.79122 0
M  V30 2027 H 180.835 0.648596 1.34587 0
M  V30 2028 H 182.717 -0.861641 4.12497 0
M  V30 2029 H 181.392 -1.23942 2.99032 0
M  V30 2030 H 180.299 0.994513 3.60639 0
M  V30 2031 H 181.632 1.28948 4.75009 0
M  V30 2032 N 183.284 -1.43765 0.645699 0
M  V30 2033 C 184.531 -2.01898 0.15604 0
M  V30 2034 C 184.859 -1.50887 -1.22733 0
M  V30 2035 O 184.114 -0.689271 -1.8316 0
M  V30 2036 C 184.413 -3.57238 0.107679 0
M  V30 2037 C 184.079 -4.27564 1.43178 0
M  V30 2038 C 182.741 -4.46492 1.7944 0
M  V30 2039 C 185.093 -4.67454 2.30513 0
M  V30 2040 C 182.421 -5.02573 3.02716 0
M  V30 2041 C 184.773 -5.24901 3.53074 0
M  V30 2042 C 183.437 -5.42046 3.89541 0
M  V30 2043 H 182.707 -0.738797 0.057099 0
M  V30 2044 H 185.354 -1.72341 0.834912 0
M  V30 2045 H 183.659 -3.86293 -0.654618 0
M  V30 2046 H 185.356 -3.99965 -0.287938 0
M  V30 2047 H 181.946 -4.13171 1.13963 0
M  V30 2048 H 186.13 -4.5253 2.0379 0
M  V30 2049 H 181.386 -5.14033 3.31028 0
M  V30 2050 H 185.56 -5.54758 4.20971 0
M  V30 2051 H 183.187 -5.85268 4.85145 0
M  V30 2052 N 184.763 -0.387143 -1.52771 0
M  V30 2053 C 186.012 0.19697 -2.00736 0
M  V30 2054 C 186.325 1.48082 -1.27793 0
M  V30 2055 O 187.531 2.14485 -1.66458 0
M  V30 2056 C 185.987 0.401568 -3.57653 0
M  V30 2057 C 185.595 -0.868907 -4.39493 0
M  V30 2058 C 187.339 0.942164 -4.13912 0
M  V30 2059 C 185.246 -0.632705 -5.88006 0
M  V30 2060 H 184.176 0.0773827 -0.750019 0
M  V30 2061 H 186.827 -0.50921 -1.76293 0
M  V30 2062 H 185.209 1.16954 -3.78335 0
M  V30 2063 H 186.383 -1.64133 -4.30577 0
M  V30 2064 H 184.698 -1.33429 -3.94443 0
M  V30 2065 H 187.295 1.13455 -5.22525 0
M  V30 2066 H 187.638 1.9106 -3.69867 0
M  V30 2067 H 188.171 0.233814 -3.97112 0
M  V30 2068 H 184.91 -1.57208 -6.36369 0
M  V30 2069 H 184.43 0.100825 -5.99715 0
M  V30 2070 H 186.109 -0.26642 -6.46451 0
M  V30 2071 N 186.241 1.57166 -0.116904 0
M  V30 2072 C 187.189 2.16457 0.851418 0
M  V30 2073 C 188.183 1.11323 1.27686 0
M  V30 2074 O 189.389 1.2963 1.24884 0
M  V30 2075 H 185.764 0.69271 0.292672 0
M  V30 2076 H 187.735 2.96605 0.32685 0
M  V30 2077 C 186.484 2.77689 2.09246 0
M  V30 2078 H 185.807 3.58285 1.77402 0
M  V30 2079 H 187.247 3.22716 2.7501 0
M  V30 2080 C 185.706 1.74667 2.88085 0
M  V30 2081 O 186.236 1.19877 3.83396 0
M  V30 2082 N 184.442 1.44656 2.52038 0
M  V30 2083 H 183.989 1.89402 1.74599 0
M  V30 2084 H 183.947 0.759675 3.05084 0
M  V30 2085 N 187.719 -0.156864 1.56817 0
M  V30 2086 C 188.629 -1.2136 2.00771 0
M  V30 2087 C 189.645 -1.47598 0.921459 0
M  V30 2088 O 190.821 -1.59462 1.2302 0
M  V30 2089 C 187.886 -2.52943 2.37109 0
M  V30 2090 C 186.947 -2.34439 3.59634 0
M  V30 2091 C 186.18 -3.59748 3.94229 0
M  V30 2092 O 186.403 -4.65526 3.29609 0
M  V30 2093 O 185.337 -3.52998 4.8752 0
M  V30 2094 H 189.163 -0.870468 2.90958 0
M  V30 2095 H 186.748 -0.36484 1.44877 0
M  V30 2096 H 188.63 -3.30538 2.61386 0
M  V30 2097 H 187.305 -2.86806 1.5008 0
M  V30 2098 H 186.212 -1.54828 3.40557 0
M  V30 2099 H 187.545 -2.05496 4.4725 0
M  V30 2100 N 189.197 -1.51736 -0.425897 0
M  V30 2101 C 190.16 -1.73271 -1.50032 0
M  V30 2102 C 191.16 -0.602639 -1.4908 0
M  V30 2103 O 192.35 -0.87033 -1.509 0
M  V30 2104 C 189.482 -1.79969 -2.89523 0
M  V30 2105 H 190.675 -2.69172 -1.32237 0
M  V30 2106 H 188.228 -1.41899 -0.65532 0
M  V30 2107 H 188.963 -0.859241 -3.1271 0
M  V30 2108 H 188.748 -2.62109 -2.91619 0
M  V30 2109 H 190.238 -1.9843 -3.67444 0
M  V30 2110 N 190.675 0.682077 -1.42076 0
M  V30 2111 C 191.622 1.79578 -1.44984 0
M  V30 2112 C 192.592 1.6332 -0.302614 0
M  V30 2113 O 193.777 1.83978 -0.505633 0
M  V30 2114 C 190.917 3.1756 -1.35091 0
M  V30 2115 C 190.03 3.45156 -2.59791 0
M  V30 2116 C 189.165 4.72826 -2.42093 0
M  V30 2117 C 188.204 4.93433 -3.62202 0
M  V30 2118 N 187.341 6.12338 -3.43491 0
M  V30 2119 H 192.181 1.76427 -2.40161 0
M  V30 2120 H 189.718 0.861376 -1.19242 0
M  V30 2121 H 191.676 3.97287 -1.27354 0
M  V30 2122 H 190.306 3.19854 -0.435133 0
M  V30 2123 H 189.358 2.59736 -2.77923 0
M  V30 2124 H 190.67 3.5628 -3.49094 0
M  V30 2125 H 189.824 5.60631 -2.319 0
M  V30 2126 H 188.563 4.63973 -1.50268 0
M  V30 2127 H 187.568 4.04073 -3.72834 0
M  V30 2128 H 188.793 5.04136 -4.54998 0
M  V30 2129 H 186.739 6.04672 -2.54377 0
M  V30 2130 H 186.656 6.2429 -4.26377 0
M  V30 2131 H 187.924 7.02841 -3.37097 0
M  V30 2132 N 192.153 1.28127 0.917671 0
M  V30 2133 C 193.085 1.07517 2.02417 0
M  V30 2134 C 194.098 0.0281099 1.62776 0
M  V30 2135 O 195.287 0.270748 1.76435 0
M  V30 2136 C 192.387 0.610957 3.33347 0
M  V30 2137 C 191.56 1.73255 4.01624 0
M  V30 2138 C 190.619 1.26238 5.10833 0
M  V30 2139 O 189.645 1.96389 5.34247 0
M  V30 2140 N 190.847 0.123448 5.80369 0
M  V30 2141 H 193.612 2.02806 2.20658 0
M  V30 2142 H 191.173 1.19827 1.08871 0
M  V30 2143 H 193.165 0.280101 4.0373 0
M  V30 2144 H 191.735 -0.24898 3.11607 0
M  V30 2145 H 190.955 2.23319 3.24842 0
M  V30 2146 H 192.243 2.48503 4.43986 0
M  V30 2147 H 191.641 -0.461847 5.63812 0
M  V30 2148 H 190.198 -0.148158 6.51632 0
M  V30 2149 N 193.631 -1.12557 1.10312 0
M  V30 2150 C 194.878 -1.84038 0.844759 0
M  V30 2151 C 195.206 -1.84026 -0.629668 0
M  V30 2152 O 194.461 -1.28026 -1.48013 0
M  V30 2153 C 194.76 -3.31462 1.33669 0
M  V30 2154 C 194.426 -3.51647 2.82232 0
M  V30 2155 C 193.088 -3.56864 3.22802 0
M  V30 2156 C 195.44 -3.58867 3.77974 0
M  V30 2157 C 192.768 -3.66844 4.57867 0
M  V30 2158 C 195.12 -3.70375 5.1284 0
M  V30 2159 C 193.784 -3.73848 5.52986 0
M  V30 2160 H 193.054 -0.673444 0.309119 0
M  V30 2161 H 195.701 -1.32824 1.37949 0
M  V30 2162 H 194.006 -3.85091 0.721949 0
M  V30 2163 H 195.703 -3.85236 1.11329 0
M  V30 2164 H 192.293 -3.48249 2.49842 0
M  V30 2165 H 196.477 -3.54107 3.47738 0
M  V30 2166 H 191.733 -3.67804 4.88396 0
M  V30 2167 H 195.907 -3.74904 5.86873 0
M  V30 2168 H 193.534 -3.81333 6.57639 0
M  V30 2169 N 195.109 -0.891671 -1.2995 0
M  V30 2170 C 196.039 -0.379797 -2.30391 0
M  V30 2171 C 197.02 0.540919 -1.6127 0
M  V30 2172 O 198.205 0.453352 -1.88834 0
M  V30 2173 C 195.335 0.400654 -3.44981 0
M  V30 2174 C 194.289 -0.428905 -4.25846 0
M  V30 2175 C 193.615 0.478557 -5.32554 0
M  V30 2176 C 194.915 -1.67458 -4.94727 0
M  V30 2177 H 196.609 -1.21914 -2.73454 0
M  V30 2178 H 194.155 -0.587675 -1.31462 0
M  V30 2179 H 196.108 0.769434 -4.14316 0
M  V30 2180 H 194.832 1.27371 -3.0074 0
M  V30 2181 H 193.491 -0.779911 -3.58208 0
M  V30 2182 H 193.139 1.34951 -4.84559 0
M  V30 2183 H 192.839 -0.0727433 -5.87555 0
M  V30 2184 H 194.363 0.843705 -6.04743 0
M  V30 2185 H 195.777 -1.376 -5.56542 0
M  V30 2186 H 194.174 -2.16659 -5.59624 0
M  V30 2187 H 195.244 -2.41518 -4.20473 0
M  V30 2188 N 196.587 1.43421 -0.653314 0
M  V30 2189 C 197.534 2.30768 0.0382271 0
M  V30 2190 C 198.504 1.44755 0.814576 0
M  V30 2191 O 199.689 1.73624 0.791162 0
M  V30 2192 C 196.829 3.30336 0.998599 0
M  V30 2193 C 195.942 4.31448 0.218342 0
M  V30 2194 C 195.077 5.18098 1.17252 0
M  V30 2195 C 194.116 6.10902 0.382702 0
M  V30 2196 N 193.253 6.90176 1.28848 0
M  V30 2197 H 198.093 2.89357 -0.712511 0
M  V30 2198 H 195.63 1.42548 -0.363128 0
M  V30 2199 H 197.588 3.86572 1.56901 0
M  V30 2200 H 196.218 2.73397 1.71621 0
M  V30 2201 H 195.27 3.77506 -0.46836 0
M  V30 2202 H 196.582 4.97227 -0.395812 0
M  V30 2203 H 195.736 5.7896 1.81356 0
M  V30 2204 H 194.475 4.52444 1.82058 0
M  V30 2205 H 193.48 5.49128 -0.27169 0
M  V30 2206 H 194.705 6.78598 -0.260957 0
M  V30 2207 H 192.651 6.27171 1.92334 0
M  V30 2208 H 192.568 7.52478 0.728887 0
M  V30 2209 H 193.836 7.55543 1.91766 0
M  V30 2210 N 198.065 0.39524 1.52563 0
M  V30 2211 C 199.342 -0.242908 1.94086 0
M  V30 2212 C 199.722 -1.63841 1.33114 0
M  V30 2213 O 199.07 -2.22928 0.501529 0
M  V30 2214 C 199.28 -0.26327 3.48006 0
M  V30 2215 C 200.628 -0.489354 4.21771 0
M  V30 2216 O 201.652 -0.343226 3.54543 0
M  V30 2217 O 200.511 -0.776169 5.4096 0
M  V30 2218 H 197.605 -0.152536 0.812811 0
M  V30 2219 H 200.151 0.450178 1.6362 0
M  V30 2220 H 198.923 0.713985 3.84731 0
M  V30 2221 H 198.546 -1.00103 3.84792 0
M  V30 2222 N 199.544 -1.57102 0.125237 0
M  V30 2223 C 200.492 -2.16905 -0.839927 0
M  V30 2224 C 201.486 -1.11998 -1.27094 0
M  V30 2225 O 202.692 -1.3029 -1.24195 0
M  V30 2226 H 199.067 -0.694252 -0.288995 0
M  V30 2227 H 201.038 -2.96774 -0.311115 0
M  V30 2228 C 199.787 -2.78795 -2.07771 0
M  V30 2229 H 199.11 -3.59221 -1.755 0
M  V30 2230 H 200.55 -3.2417 -2.73295 0
M  V30 2231 C 199.009 -1.76193 -2.87155 0
M  V30 2232 O 199.539 -1.21909 -3.82755 0
M  V30 2233 N 197.745 -1.45991 -2.51267 0
M  V30 2234 H 197.292 -1.90325 -1.73592 0
M  V30 2235 H 197.25 -0.775844 -3.04677 0
M  V30 2236 N 201.022 0.148545 -1.56898 0
M  V30 2237 C 202.433 0.708766 -1.72723 0
M  V30 2238 C 202.784 1.81734 -0.739395 0
M  V30 2239 O 201.909 2.16194 0.0943169 0
M  V30 2240 C 202.504 1.29245 -3.13179 0
M  V30 2241 C 201.063 1.79925 -3.30611 0
M  V30 2242 C 200.21 0.687111 -2.68652 0
M  V30 2243 H 203.161 -0.0771063 -1.58513 0
M  V30 2244 H 203.182 2.16224 -3.13093 0
M  V30 2245 H 202.694 0.485382 -3.85053 0
M  V30 2246 H 200.795 2.63203 -2.63732 0
M  V30 2247 H 200.908 1.92903 -4.38549 0
M  V30 2248 H 199.272 1.11335 -2.29078 0
M  V30 2249 H 200.055 -0.108483 -3.43129 0
M  V30 2250 N 202.5 1.5196 0.417844 0
M  V30 2251 C 203.725 1.69717 1.1921 0
M  V30 2252 C 204.15 0.402148 1.83751 0
M  V30 2253 O 203.508 -0.639593 1.69643 0
M  V30 2254 C 203.556 2.82794 2.2374 0
M  V30 2255 O 202.66 2.47756 3.29683 0
M  V30 2256 H 202.001 0.565263 0.348387 0
M  V30 2257 H 204.531 1.98621 0.490985 0
M  V30 2258 H 204.541 3.07452 2.68212 0
M  V30 2259 H 203.216 3.76756 1.76146 0
M  V30 2260 H 201.793 2.33739 2.90552 0
M  V30 2261 N 203.978 -0.674533 1.42435 0
M  V30 2262 C 204.888 -1.81751 1.48337 0
M  V30 2263 C 205.904 -1.69975 0.372099 0
M  V30 2264 O 207.08 -1.91521 0.62304 0
M  V30 2265 C 204.145 -3.17895 1.38361 0
M  V30 2266 C 203.206 -3.41625 2.59982 0
M  V30 2267 C 202.439 -4.71274 2.50473 0
M  V30 2268 O 202.662 -5.49197 1.54075 0
M  V30 2269 O 201.596 -4.96254 3.4061 0
M  V30 2270 H 205.422 -1.79728 2.44809 0
M  V30 2271 H 203.007 -0.830312 1.24202 0
M  V30 2272 H 204.889 -3.99136 1.35161 0
M  V30 2273 H 203.564 -3.20555 0.450144 0
M  V30 2274 H 202.471 -2.60231 2.68757 0
M  V30 2275 H 203.804 -3.43796 3.52229 0
M  V30 2276 N 205.456 -1.28612 -0.910864 0
M  V30 2277 C 206.684 -1.18792 -1.69399 0
M  V30 2278 C 207.099 0.253039 -1.87097 0
M  V30 2279 O 206.456 1.17071 -1.40003 0
M  V30 2280 C 206.507 -1.88511 -3.08457 0
M  V30 2281 O 206.228 -3.26979 -2.91576 0
M  V30 2282 C 207.729 -1.85029 -4.02839 0
M  V30 2283 H 204.949 -0.412233 -0.529438 0
M  V30 2284 H 207.493 -1.69788 -1.13984 0
M  V30 2285 H 205.648 -1.41379 -3.60681 0
M  V30 2286 H 206.062 -3.61936 -3.79608 0
M  V30 2287 H 207.536 -2.38395 -4.97867 0
M  V30 2288 H 208.013 -0.823303 -4.31414 0
M  V30 2289 H 208.619 -2.31853 -3.56545 0
M  V30 2290 N 206.934 1.1197 -1.10907 0
M  V30 2291 C 208.183 1.82947 -0.849302 0
M  V30 2292 C 208.496 1.85275 0.627112 0
M  V30 2293 O 209.702 2.52296 1.00295 0
M  V30 2294 C 208.158 3.28529 -1.46959 0
M  V30 2295 C 207.766 3.34546 -2.97965 0
M  V30 2296 C 209.51 4.04443 -1.28942 0
M  V30 2297 C 207.417 4.74491 -3.53004 0
M  V30 2298 H 206.347 0.685477 -0.314065 0
M  V30 2299 H 208.998 1.2604 -1.33365 0
M  V30 2300 H 207.38 3.85333 -0.912917 0
M  V30 2301 H 208.554 2.87654 -3.59989 0
M  V30 2302 H 206.869 2.72108 -3.15192 0
M  V30 2303 H 209.466 5.07787 -1.67502 0
M  V30 2304 H 209.809 4.15656 -0.231456 0
M  V30 2305 H 210.342 3.5401 -1.81443 0
M  V30 2306 H 207.081 4.68474 -4.58489 0
M  V30 2307 H 206.601 5.21816 -2.9575 0
M  V30 2308 H 208.28 5.4344 -3.51115 0
M  V30 2309 N 208.412 0.89855 1.29475 0
M  V30 2310 C 209.661 0.519863 1.94885 0
M  V30 2311 C 209.974 -0.9383 1.71625 0
M  V30 2312 O 211.18 -1.42445 2.31131 0
M  V30 2313 C 209.636 0.878836 3.49005 0
M  V30 2314 C 209.244 2.35569 3.81066 0
M  V30 2315 C 210.988 0.570004 4.20656 0
M  V30 2316 C 208.895 2.65558 5.28425 0
M  V30 2317 H 207.825 0.190692 0.729488 0
M  V30 2318 H 210.476 1.09539 1.47219 0
M  V30 2319 H 208.858 0.232253 3.95318 0
M  V30 2320 H 210.032 3.04773 3.45616 0
M  V30 2321 H 208.347 2.63343 3.22552 0
M  V30 2322 H 210.944 0.770925 5.29113 0
M  V30 2323 H 211.287 -0.491404 4.1339 0
M  V30 2324 H 211.82 1.17438 3.8007 0
M  V30 2325 H 208.559 3.70493 5.40754 0
M  V30 2326 H 208.079 2.00977 5.65127 0
M  V30 2327 H 209.758 2.51765 5.96006 0
M  V30 2328 N 209.89 -1.43072 0.660911 0
M  V30 2329 C 210.823 -2.28074 -0.0758862 0
M  V30 2330 C 211.801 -1.40271 -0.822362 0
M  V30 2331 O 212.985 -1.69713 -0.820352 0
M  V30 2332 C 210.112 -3.19843 -1.11437 0
M  V30 2333 C 209.158 -4.23957 -0.465069 0
M  V30 2334 S 209.991 -5.29978 0.767078 0
M  V30 2335 C 211.147 -6.25314 -0.270682 0
M  V30 2336 H 211.38 -2.90216 0.645139 0
M  V30 2337 H 208.913 -1.47697 0.449995 0
M  V30 2338 H 210.871 -3.73257 -1.70849 0
M  V30 2339 H 209.532 -2.56863 -1.80776 0
M  V30 2340 H 208.725 -4.88299 -1.24819 0
M  V30 2341 H 208.327 -3.73959 0.0551242 0
M  V30 2342 H 210.619 -6.67932 -1.13459 0
M  V30 2343 H 211.562 -7.07293 0.337916 0
M  V30 2344 H 211.97 -5.61195 -0.609937 0
M  V30 2345 N 211.368 -0.403325 -1.52352 0
M  V30 2346 C 212.593 0.176499 -2.06648 0
M  V30 2347 C 213.018 1.38577 -1.27193 0
M  V30 2348 O 212.376 1.7879 -0.300637 0
M  V30 2349 C 212.424 0.511061 -3.5696 0
M  V30 2350 O 211.528 1.60294 -3.79973 0
M  V30 2351 H 210.869 0.0167337 -0.663789 0
M  V30 2352 H 213.399 -0.574848 -1.96359 0
M  V30 2353 H 213.409 0.771362 -4.00642 0
M  V30 2354 H 212.084 -0.37296 -4.14224 0
M  V30 2355 H 210.661 1.33526 -3.48174 0
M  V30 2356 N 212.846 1.57033 -0.133567 0
M  V30 2357 C 213.776 2.1909 0.807567 0
M  V30 2358 C 214.757 1.13517 1.26681 0
M  V30 2359 O 215.942 1.41809 1.32679 0
M  V30 2360 C 213.072 2.80188 2.05212 0
M  V30 2361 C 212.026 3.91471 1.73015 0
M  V30 2362 C 211.352 4.39443 3.04622 0
M  V30 2363 C 212.652 5.12886 0.987168 0
M  V30 2364 H 214.346 2.97988 0.290403 0
M  V30 2365 H 211.892 1.43335 0.138239 0
M  V30 2366 H 213.845 3.22264 2.71521 0
M  V30 2367 H 212.569 1.98601 2.59278 0
M  V30 2368 H 211.228 3.49993 1.0909 0
M  V30 2369 H 210.876 3.54695 3.56651 0
M  V30 2370 H 210.576 5.14495 2.83847 0
M  V30 2371 H 212.1 4.8418 3.72024 0
M  V30 2372 H 213.514 5.51891 1.55208 0
M  V30 2373 H 211.911 5.93615 0.87985 0
M  V30 2374 H 212.981 4.84894 -0.0235286 0
M  V30 2375 N 214.325 -0.140222 1.56975 0
M  V30 2376 C 215.272 -1.17292 1.98774 0
M  V30 2377 C 216.242 -1.4232 0.856408 0
M  V30 2378 O 217.427 -1.54541 1.119 0
M  V30 2379 C 214.567 -2.49973 2.37923 0
M  V30 2380 C 213.68 -2.32062 3.64378 0
M  V30 2381 C 212.815 -3.57825 3.926 0
M  V30 2382 C 211.854 -3.3498 5.12303 0
M  V30 2383 N 210.991 -4.52891 5.36502 0
M  V30 2384 H 215.831 -0.809472 2.86795 0
M  V30 2385 H 213.368 -0.388237 1.41884 0
M  V30 2386 H 215.326 -3.27346 2.58652 0
M  V30 2387 H 213.956 -2.84252 1.52972 0
M  V30 2388 H 213.008 -1.45711 3.51387 0
M  V30 2389 H 214.32 -2.11145 4.51906 0
M  V30 2390 H 213.474 -4.43624 4.13863 0
M  V30 2391 H 212.213 -3.81753 3.03506 0
M  V30 2392 H 211.218 -2.4757 4.90906 0
M  V30 2393 H 212.443 -3.12444 6.02956 0
M  V30 2394 H 210.389 -4.76979 4.50363 0
M  V30 2395 H 210.306 -4.35001 6.18312 0
M  V30 2396 H 211.574 -5.39884 5.62268 0
M  V30 2397 N 215.803 -1.52179 -0.40978 0
M  V30 2398 C 216.75 -1.75475 -1.49924 0
M  V30 2399 C 217.72 -0.597175 -1.54994 0
M  V30 2400 O 218.905 -0.834655 -1.71575 0
M  V30 2401 C 216.045 -1.9107 -2.87378 0
M  V30 2402 C 215.158 -3.18717 -2.91622 0
M  V30 2403 C 214.293 -3.24747 -4.20372 0
M  V30 2404 C 213.332 -4.46598 -4.18588 0
M  V30 2405 N 212.469 -4.50025 -5.38908 0
M  V30 2406 H 217.309 -2.68458 -1.29361 0
M  V30 2407 H 214.846 -1.33024 -0.627934 0
M  V30 2408 H 216.804 -1.98096 -3.6717 0
M  V30 2409 H 215.434 -1.01469 -3.06437 0
M  V30 2410 H 214.486 -3.20866 -2.04326 0
M  V30 2411 H 215.798 -4.08544 -2.86169 0
M  V30 2412 H 214.952 -3.30841 -5.08556 0
M  V30 2413 H 213.691 -2.32857 -4.28519 0
M  V30 2414 H 212.696 -4.40652 -3.28794 0
M  V30 2415 H 213.921 -5.39783 -4.12081 0
M  V30 2416 H 211.867 -3.61017 -5.47725 0
M  V30 2417 H 211.784 -5.33697 -5.35447 0
M  V30 2418 H 213.052 -4.60347 -6.29048 0
M  V30 2419 N 217.281 0.66697 -1.42791 0
M  V30 2420 C 218.191 1.80962 -1.49299 0
M  V30 2421 C 219.207 1.69775 -0.381108 0
M  V30 2422 O 220.383 1.91188 -0.633188 0
M  V30 2423 C 217.448 3.17156 -1.40045 0
M  V30 2424 C 216.509 3.40242 -2.6179 0
M  V30 2425 C 215.742 4.69939 -2.52969 0
M  V30 2426 O 215.965 5.48372 -1.56985 0
M  V30 2427 O 214.899 4.94441 -3.43237 0
M  V30 2428 H 218.725 1.78427 -2.45759 0
M  V30 2429 H 216.31 0.823713 -1.24641 0
M  V30 2430 H 218.192 3.98413 -1.37276 0
M  V30 2431 H 216.867 3.20312 -0.467138 0
M  V30 2432 H 215.774 2.58802 -2.70134 0
M  V30 2433 H 217.107 3.41923 -3.54047 0
M  V30 2434 N 218.759 1.29093 0.90403 0
M  V30 2435 C 219.989 1.19516 1.68522 0
M  V30 2436 C 220.397 -0.24738 1.87576 0
M  V30 2437 O 219.74 -1.17798 1.40959 0
M  V30 2438 C 219.802 1.83249 3.0929 0
M  V30 2439 C 219.466 3.32531 3.13484 0
M  V30 2440 C 220.463 4.28821 2.93953 0
M  V30 2441 C 218.148 3.73656 3.35688 0
M  V30 2442 C 220.142 5.64212 2.96553 0
M  V30 2443 C 217.829 5.0917 3.37919 0
M  V30 2444 C 218.827 6.04258 3.18373 0
M  V30 2445 O 218.515 7.37298 3.20385 0
M  V30 2446 H 218.247 0.415467 0.533257 0
M  V30 2447 H 220.801 1.70912 1.13922 0
M  V30 2448 H 219.031 1.26358 3.65473 0
M  V30 2449 H 220.72 1.68054 3.69476 0
M  V30 2450 H 221.486 3.98382 2.76616 0
M  V30 2451 H 217.365 3.00101 3.49943 0
M  V30 2452 H 220.909 6.38407 2.81216 0
M  V30 2453 H 216.806 5.39256 3.54787 0
M  V30 2454 H 217.574 7.46048 3.36681 0
M  V30 2455 N 220.237 -1.11381 1.11499 0
M  V30 2456 C 221.147 -2.21019 0.786628 0
M  V30 2457 C 222.163 -1.72597 -0.220507 0
M  V30 2458 O 223.339 -2.01321 -0.0565251 0
M  V30 2459 C 220.404 -3.459 0.235333 0
M  V30 2460 C 219.465 -4.09107 1.30115 0
M  V30 2461 C 218.698 -5.28027 0.776068 0
M  V30 2462 O 218.921 -5.6904 -0.393661 0
M  V30 2463 O 217.855 -5.81835 1.54114 0
M  V30 2464 H 221.681 -2.51521 1.70209 0
M  V30 2465 H 219.266 -1.19928 0.890928 0
M  V30 2466 H 221.148 -4.21346 -0.067715 0
M  V30 2467 H 219.823 -3.17049 -0.652828 0
M  V30 2468 H 218.73 -3.35391 1.65722 0
M  V30 2469 H 220.063 -4.42139 2.16273 0
M  V30 2470 N 221.715 -0.905404 -1.28997 0
M  V30 2471 C 222.992 -0.453513 -1.9027 0
M  V30 2472 C 223.372 1.06721 -1.82137 0
M  V30 2473 O 222.72 1.91159 -1.25182 0
M  V30 2474 C 222.93 -0.974494 -3.35119 0
M  V30 2475 C 224.278 -1.0216 -4.12127 0
M  V30 2476 O 225.302 -0.922557 -3.44046 0
M  V30 2477 O 224.161 -1.17121 -5.33802 0
M  V30 2478 H 221.255 -0.142347 -0.814657 0
M  V30 2479 H 223.801 -0.995642 -1.37423 0
M  V30 2480 H 222.573 -2.01848 -3.35221 0
M  V30 2481 H 222.196 -0.412706 -3.95452 0
M  V30 2482 N 223.193 1.4272 -0.668489 0
M  V30 2483 C 224.126 2.28111 0.0637898 0
M  V30 2484 C 225.104 1.40705 0.814912 0
M  V30 2485 O 226.288 1.70146 0.81134 0
M  V30 2486 C 223.415 3.20429 1.0974 0
M  V30 2487 C 222.461 4.24197 0.442579 0
M  V30 2488 S 223.294 5.29563 -0.795173 0
M  V30 2489 C 224.45 6.25449 0.237516 0
M  V30 2490 H 224.683 2.8987 -0.660521 0
M  V30 2491 H 222.216 1.47456 -0.457821 0
M  V30 2492 H 224.174 3.74158 1.68868 0
M  V30 2493 H 222.835 2.57818 1.79411 0
M  V30 2494 H 222.028 4.88954 1.22227 0
M  V30 2495 H 221.63 3.73925 -0.0749554 0
M  V30 2496 H 223.922 6.68524 1.09915 0
M  V30 2497 H 224.865 7.07104 -0.375421 0
M  V30 2498 H 225.273 5.61511 0.580167 0
M  V30 2499 N 224.671 0.411399 1.52136 0
M  V30 2500 C 225.618 -0.412975 2.27075 0
M  V30 2501 C 226.588 -1.03912 1.29582 0
M  V30 2502 O 227.773 -1.06296 1.58448 0
M  V30 2503 C 224.913 -1.52247 3.09701 0
M  V30 2504 C 224.026 -0.917021 4.22155 0
M  V30 2505 C 223.161 -1.9994 4.92135 0
M  V30 2506 C 222.2 -1.37101 5.96548 0
M  V30 2507 N 221.337 -2.39364 6.60038 0
M  V30 2508 H 226.177 0.232499 2.97092 0
M  V30 2509 H 223.714 0.126496 1.46555 0
M  V30 2510 H 225.672 -2.17674 3.55913 0
M  V30 2511 H 224.302 -2.13794 2.41851 0
M  V30 2512 H 223.354 -0.151742 3.80097 0
M  V30 2513 H 224.666 -0.418006 4.97045 0
M  V30 2514 H 223.82 -2.73088 5.41763 0
M  V30 2515 H 222.559 -2.53208 4.16818 0
M  V30 2516 H 221.564 -0.624873 5.46237 0
M  V30 2517 H 222.789 -0.845998 6.7381 0
M  V30 2518 H 220.735 -2.91759 5.87548 0
M  V30 2519 H 220.652 -1.9428 7.3061 0
M  V30 2520 H 221.92 -3.12074 7.14304 0
M  V30 2521 N 226.149 -1.5696 0.141893 0
M  V30 2522 C 227.397 -1.95573 -0.509484 0
M  V30 2523 C 227.718 -1.02746 -1.65736 0
M  V30 2524 O 226.988 -0.0880311 -1.95702 0
M  V30 2525 H 225.568 -0.722115 -0.191205 0
M  V30 2526 H 228.23 -1.93697 0.216196 0
M  V30 2527 H 227.326 -2.99171 -0.889 0
M  V30 2528 N 227.627 0.131896 -1.57047 0
M  V30 2529 C 228.59 1.14638 -1.98471 0
M  V30 2530 C 229.59 1.35029 -0.873148 0
M  V30 2531 O 230.78 1.31764 -1.13946 0
M  V30 2532 C 227.912 2.50358 -2.31373 0
M  V30 2533 H 229.105 0.79064 -2.8929 0
M  V30 2534 H 226.658 0.375761 -1.51716 0
M  V30 2535 H 227.393 2.90876 -1.43393 0
M  V30 2536 H 227.178 2.36915 -3.12432 0
M  V30 2537 H 228.668 3.23395 -2.64207 0
M  V30 2538 N 229.106 1.52395 0.401703 0
M  V30 2539 C 230.016 1.7917 1.51444 0
M  V30 2540 C 231.032 0.677691 1.6026 0
M  V30 2541 O 232.208 0.963909 1.76835 0
M  V30 2542 C 229.273 1.94347 2.87107 0
M  V30 2543 C 228.334 3.18257 2.88116 0
M  V30 2544 C 227.567 3.32701 4.17308 0
M  V30 2545 O 227.79 2.52238 5.11598 0
M  V30 2546 O 226.724 4.25891 4.25324 0
M  V30 2547 H 230.55 2.73633 1.31752 0
M  V30 2548 H 228.135 1.3733 0.588296 0
M  V30 2549 H 230.017 2.06109 3.67555 0
M  V30 2550 H 228.692 1.03073 3.06851 0
M  V30 2551 H 227.599 3.11947 2.06494 0
M  V30 2552 H 228.932 4.09336 2.73322 0
M  V30 2553 N 230.584 -0.659388 1.43143 0
M  V30 2554 C 231.861 -1.41627 1.34912 0
M  V30 2555 C 232.241 -2.11099 -0.00607785 0
M  V30 2556 O 231.589 -2.04353 -1.02236 0
M  V30 2557 C 231.799 -2.40604 2.52805 0
M  V30 2558 C 233.147 -3.04789 2.95616 0
M  V30 2559 O 234.171 -2.50932 2.52807 0
M  V30 2560 O 233.03 -4.02421 3.69756 0
M  V30 2561 H 230.124 -0.63246 0.532844 0
M  V30 2562 H 232.67 -0.686814 1.5518 0
M  V30 2563 H 231.442 -1.88174 3.43083 0
M  V30 2564 H 231.065 -3.21009 2.34604 0
M  V30 2565 N 232.062 -1.29571 -0.897171 0
M  V30 2566 C 233.287 -1.20705 -1.68656 0
M  V30 2567 C 233.712 0.228582 -1.86706 0
M  V30 2568 O 233.07 1.16494 -1.3892 0
M  V30 2569 C 233.118 -1.9282 -3.04717 0
M  V30 2570 O 232.222 -1.24697 -3.93096 0
M  V30 2571 H 231.563 -0.418126 -0.515816 0
M  V30 2572 H 234.093 -1.71183 -1.12061 0
M  V30 2573 H 234.103 -2.01372 -3.54843 0
M  V30 2574 H 232.778 -2.97239 -2.90899 0
M  V30 2575 H 231.355 -1.2442 -3.51531 0
M  V30 2576 N 233.54 1.10788 -1.12088 0
M  V30 2577 C 234.787 1.82671 -0.873931 0
M  V30 2578 C 235.115 1.85004 0.600311 0
M  V30 2579 O 234.37 1.30365 1.45957 0
M  V30 2580 C 234.669 3.29294 -1.38926 0
M  V30 2581 C 234.335 3.47113 -2.87791 0
M  V30 2582 C 232.997 3.51684 -3.28439 0
M  V30 2583 C 235.349 3.52808 -3.83635 0
M  V30 2584 C 232.677 3.59513 -4.63646 0
M  V30 2585 C 235.029 3.62169 -5.18668 0
M  V30 2586 C 233.693 3.65003 -5.58864 0
M  V30 2587 H 232.963 0.668441 -0.319794 0
M  V30 2588 H 235.61 1.30613 -1.40045 0
M  V30 2589 H 233.915 3.83894 -0.783122 0
M  V30 2590 H 235.612 3.83416 -1.17443 0
M  V30 2591 H 232.202 3.4423 -2.5535 0
M  V30 2592 H 236.386 3.4853 -3.53328 0
M  V30 2593 H 231.642 3.59987 -4.94185 0
M  V30 2594 H 235.816 3.6552 -5.92763 0
M  V30 2595 H 233.443 3.70822 -6.63623 0
M  V30 2596 N 235.018 0.912232 1.28515 0
M  V30 2597 C 236.243 0.559774 1.99703 0
M  V30 2598 C 236.668 -0.851393 1.67729 0
M  V30 2599 O 236.026 -1.56875 0.908834 0
M  V30 2600 C 236.074 0.773874 3.52198 0
M  V30 2601 O 235.178 -0.167842 4.12058 0
M  V30 2602 H 234.519 0.21723 0.627461 0
M  V30 2603 H 237.049 1.22725 1.63706 0
M  V30 2604 H 237.059 0.683386 4.02236 0
M  V30 2605 H 235.734 1.80261 3.74805 0
M  V30 2606 H 234.311 -0.0287509 3.72889 0
M  V30 2607 N 236.496 -1.42363 0.676048 0
M  V30 2608 C 237.721 -2.06377 0.205705 0
M  V30 2609 C 238.146 -1.50463 -1.12883 0
M  V30 2610 O 237.504 -0.623619 -1.70237 0
M  V30 2611 C 237.552 -3.60277 0.152655 0
M  V30 2612 O 236.656 -4.02935 -0.87845 0
M  V30 2613 H 235.997 -0.655588 0.105359 0
M  V30 2614 H 238.527 -1.82475 0.925412 0
M  V30 2615 H 238.537 -4.07993 -0.0230675 0
M  V30 2616 H 237.212 -4.00346 1.12675 0
M  V30 2617 H 235.789 -3.66764 -0.673668 0
M  V30 2618 N 237.974 -0.419461 -1.51915 0
M  V30 2619 C 239.202 0.152136 -2.0634 0
M  V30 2620 C 239.617 1.37988 -1.28859 0
M  V30 2621 O 238.974 1.79243 -0.343232 0
M  V30 2622 C 239.025 0.492266 -3.58133 0
M  V30 2623 O 238.746 -0.686736 -4.32684 0
M  V30 2624 C 240.247 1.11648 -4.2901 0
M  V30 2625 H 237.467 0.0158325 -0.670813 0
M  V30 2626 H 240.011 -0.593394 -1.95702 0
M  V30 2627 H 238.166 1.18769 -3.68745 0
M  V30 2628 H 238.58 -0.400341 -5.2297 0
M  V30 2629 H 240.054 1.3046 -5.36362 0
M  V30 2630 H 240.531 2.09251 -3.86148 0
M  V30 2631 H 241.137 0.460958 -4.22795 0
M  V30 2632 N 239.452 1.56882 -0.150215 0
M  V30 2633 C 240.699 1.96228 0.500093 0
M  V30 2634 C 241.027 1.03522 1.64661 0
M  V30 2635 O 240.282 0.0650683 1.95592 0
M  V30 2636 C 240.581 3.41801 1.04437 0
M  V30 2637 C 240.247 4.50897 0.0159671 0
M  V30 2638 C 238.909 4.8046 -0.266731 0
M  V30 2639 C 241.261 5.16703 -0.683192 0
M  V30 2640 C 238.589 5.73135 -1.25434 0
M  V30 2641 C 240.941 6.10441 -1.65964 0
M  V30 2642 C 239.605 6.38382 -1.95 0
M  V30 2643 H 238.875 0.718048 0.182997 0
M  V30 2644 H 241.522 1.90019 -0.237724 0
M  V30 2645 H 239.827 3.44857 1.85959 0
M  V30 2646 H 241.524 3.69573 1.55618 0
M  V30 2647 H 238.114 4.27891 0.246485 0
M  V30 2648 H 242.298 4.93993 -0.477983 0
M  V30 2649 H 237.554 5.93074 -1.48571 0
M  V30 2650 H 241.728 6.60507 -2.20689 0
M  V30 2651 H 239.355 7.09996 -2.71679 0
M  V30 2652 N 240.93 -0.123565 1.57115 0
M  V30 2653 C 241.84 -1.17074 2.033 0
M  V30 2654 C 242.856 -1.4561 0.952559 0
M  V30 2655 O 244.032 -1.56817 1.26374 0
M  V30 2656 C 241.097 -2.47857 2.42421 0
M  V30 2657 C 240.158 -2.26758 3.64526 0
M  V30 2658 C 239.391 -3.51305 4.01771 0
M  V30 2659 O 239.614 -4.5843 3.39409 0
M  V30 2660 O 238.548 -3.42578 4.94898 0
M  V30 2661 H 242.374 -0.808555 2.92739 0
M  V30 2662 H 239.959 -0.334027 1.45618 0
M  V30 2663 H 241.841 -3.2492 2.68338 0
M  V30 2664 H 240.516 -2.83558 1.5613 0
M  V30 2665 H 239.423 -1.47569 3.43765 0
M  V30 2666 H 240.756 -1.95963 4.51508 0
M  V30 2667 N 242.408 -1.52605 -0.393616 0
M  V30 2668 C 243.355 -1.77055 -1.48054 0
M  V30 2669 C 244.325 -0.61358 -1.54352 0
M  V30 2670 O 245.51 -0.852806 -1.70681 0
M  V30 2671 C 242.65 -1.94108 -2.85335 0
M  V30 2672 C 241.763 -3.21792 -2.88226 0
M  V30 2673 C 240.898 -3.29188 -4.16904 0
M  V30 2674 C 239.937 -4.51013 -4.13828 0
M  V30 2675 N 239.074 -4.55716 -5.34105 0
M  V30 2676 H 243.914 -2.69815 -1.26506 0
M  V30 2677 H 241.451 -1.33683 -0.61379 0
M  V30 2678 H 243.409 -2.01979 -3.65049 0
M  V30 2679 H 242.039 -1.04713 -3.05344 0
M  V30 2680 H 241.091 -3.23015 -2.00911 0
M  V30 2681 H 242.403 -4.11557 -2.8182 0
M  V30 2682 H 241.557 -3.36216 -5.05018 0
M  V30 2683 H 240.296 -2.37389 -4.26026 0
M  V30 2684 H 239.301 -4.44115 -3.24102 0
M  V30 2685 H 240.526 -5.44123 -4.06333 0
M  V30 2686 H 238.472 -3.66807 -5.43865 0
M  V30 2687 H 238.389 -5.39346 -5.29756 0
M  V30 2688 H 239.657 -4.66993 -6.2413 0
M  V30 2689 N 243.887 0.651787 -1.4349 0
M  V30 2690 C 244.834 1.76462 -1.4876 0
M  V30 2691 C 245.804 1.62641 -0.337189 0
M  V30 2692 O 246.989 1.82864 -0.544544 0
M  V30 2693 C 244.129 3.14623 -1.41796 0
M  V30 2694 C 243.242 3.39568 -2.67053 0
M  V30 2695 C 242.377 4.67585 -2.52068 0
M  V30 2696 C 241.416 4.85639 -3.72587 0
M  V30 2697 N 240.553 6.04915 -3.56402 0
M  V30 2698 H 245.393 1.71293 -2.43849 0
M  V30 2699 H 242.93 0.835889 -1.21043 0
M  V30 2700 H 244.888 3.94496 -1.35753 0
M  V30 2701 H 243.518 3.18859 -0.50288 0
M  V30 2702 H 242.57 2.53783 -2.8337 0
M  V30 2703 H 243.882 3.48795 -3.56572 0
M  V30 2704 H 243.036 5.55586 -2.4374 0
M  V30 2705 H 241.775 4.60681 -1.60075 0
M  V30 2706 H 240.78 3.96073 -3.81321 0
M  V30 2707 H 242.005 4.94372 -4.65589 0
M  V30 2708 H 239.951 5.9914 -2.67146 0
M  V30 2709 H 239.868 6.15106 -4.39524 0
M  V30 2710 H 241.136 6.95533 -3.51929 0
M  V30 2711 N 245.365 1.30045 0.890287 0
M  V30 2712 C 246.595 1.21296 1.67245 0
M  V30 2713 C 247.003 -0.227471 1.87828 0
M  V30 2714 O 246.346 -1.16296 1.422 0
M  V30 2715 C 246.408 1.86519 3.07329 0
M  V30 2716 C 246.072 3.35837 3.09939 0
M  V30 2717 C 247.069 4.31915 2.89389 0
M  V30 2718 C 244.754 3.77196 3.31706 0
M  V30 2719 C 246.748 5.67325 2.90552 0
M  V30 2720 C 244.435 5.12725 3.32499 0
M  V30 2721 C 245.433 6.076 3.11947 0
M  V30 2722 O 245.121 7.40655 3.12547 0
M  V30 2723 H 244.853 0.4211 0.528821 0
M  V30 2724 H 247.407 1.72111 1.12103 0
M  V30 2725 H 245.637 1.30228 3.64112 0
M  V30 2726 H 247.326 1.71963 3.67673 0
M  V30 2727 H 248.092 4.01294 2.72375 0
M  V30 2728 H 243.971 3.03796 3.4674 0
M  V30 2729 H 247.515 6.41354 2.74429 0
M  V30 2730 H 243.412 5.42988 3.49047 0
M  V30 2731 H 244.18 7.49577 3.28749 0
M  V30 2732 N 246.843 -1.10192 1.12674 0
M  V30 2733 C 248.09 -1.82205 0.883606 0
M  V30 2734 C 248.418 -1.8532 -0.590492 0
M  V30 2735 O 247.673 -1.31137 -1.45264 0
M  V30 2736 C 247.972 -3.28552 1.4067 0
M  V30 2737 C 247.638 -3.45582 2.89627 0
M  V30 2738 C 246.3 -3.49937 3.30299 0
M  V30 2739 C 248.652 -3.50768 3.85501 0
M  V30 2740 C 245.98 -3.57049 4.65546 0
M  V30 2741 C 248.332 -3.59414 5.20581 0
M  V30 2742 C 246.996 -3.62034 5.60792 0
M  V30 2743 H 246.266 -0.666735 0.323334 0
M  V30 2744 H 248.913 -1.29868 1.40736 0
M  V30 2745 H 247.218 -3.83473 0.80347 0
M  V30 2746 H 248.915 -3.82788 1.19475 0
M  V30 2747 H 245.505 -3.42871 2.57172 0
M  V30 2748 H 249.689 -3.46651 3.55171 0
M  V30 2749 H 244.945 -3.57361 4.96088 0
M  V30 2750 H 249.119 -3.62371 5.94693 0
M  V30 2751 H 246.746 -3.67298 6.6558 0
M  V30 2752 N 248.321 -0.919034 -1.28029 0
M  V30 2753 C 249.567 -0.555757 -1.95036 0
M  V30 2754 C 249.9 0.899198 -1.72128 0
M  V30 2755 O 249.175 1.64023 -1.04531 0
M  V30 2756 C 249.458 -0.872024 -3.49382 0
M  V30 2757 C 249.311 -2.3801 -3.81669 0
M  V30 2758 C 250.63 -0.37185 -4.38526 0
M  V30 2759 H 247.749 -0.203386 -0.708381 0
M  V30 2760 H 250.391 -1.14924 -1.51303 0
M  V30 2761 H 248.541 -0.366946 -3.86763 0
M  V30 2762 H 250.213 -2.9562 -3.54128 0
M  V30 2763 H 248.456 -2.83289 -3.28526 0
M  V30 2764 H 249.127 -2.55192 -4.8947 0
M  V30 2765 H 251.603 -0.804602 -4.08247 0
M  V30 2766 H 250.479 -0.622173 -5.45362 0
M  V30 2767 H 250.74 0.727934 -4.36066 0
M  V30 2768 N 249.799 1.42003 -0.683588 0
M  V30 2769 C 251.076 1.95112 -0.138075 0
M  V30 2770 C 251.456 1.62359 1.34918 0
M  V30 2771 O 250.804 0.924311 2.08971 0
M  V30 2772 C 251.014 3.46505 -0.416581 0
M  V30 2773 C 252.362 4.23254 -0.337834 0
M  V30 2774 O 253.386 3.54468 -0.35082 0
M  V30 2775 O 252.245 5.45743 -0.287596 0
M  V30 2776 H 249.339 0.826961 -0.00797996 0
M  V30 2777 H 251.885 1.51784 -0.758924 0
M  V30 2778 H 250.657 3.63582 -1.4465 0
M  V30 2779 H 250.28 3.969 0.235839 0
M  V30 2780 N 251.277 0.427512 1.51691 0
M  V30 2781 C 252.688 -0.0378867 1.86662 0
M  V30 2782 C 253.039 -1.42819 1.34525 0
M  V30 2783 O 252.164 -2.05037 0.692014 0
M  V30 2784 C 252.759 -0.0755266 3.38716 0
M  V30 2785 C 251.318 -0.485309 3.73258 0
M  V30 2786 C 250.465 0.328399 2.75349 0
M  V30 2787 H 253.416 0.64379 1.45055 0
M  V30 2788 H 253.437 -0.887056 3.70016 0
M  V30 2789 H 252.949 0.936487 3.76632 0
M  V30 2790 H 251.05 -1.50329 3.40928 0
M  V30 2791 H 251.163 -0.21693 4.78609 0
M  V30 2792 H 249.527 -0.211905 2.53817 0
M  V30 2793 H 250.31 1.3391 3.16106 0
M  V30 2794 N 252.755 -1.56801 0.158532 0
M  V30 2795 C 254.004 -1.95665 -0.489702 0
M  V30 2796 C 254.317 -1.04654 -1.65248 0
M  V30 2797 O 255.523 -1.33146 -2.3661 0
M  V30 2798 C 253.979 -3.47874 -0.922582 0
M  V30 2799 C 253.587 -4.47489 0.213893 0
M  V30 2800 C 255.331 -3.95583 -1.53996 0
M  V30 2801 C 253.238 -5.90921 -0.237903 0
M  V30 2802 H 252.168 -0.730516 -0.186716 0
M  V30 2803 H 254.819 -1.81861 0.244722 0
M  V30 2804 H 253.201 -3.57051 -1.71261 0
M  V30 2805 H 254.375 -4.50017 0.991036 0
M  V30 2806 H 252.69 -4.09764 0.740407 0
M  V30 2807 H 255.287 -5.0019 -1.8898 0
M  V30 2808 H 255.63 -3.37789 -2.43319 0
M  V30 2809 H 256.163 -3.8937 -0.814611 0
M  V30 2810 H 252.902 -6.52559 0.620236 0
M  V30 2811 H 252.422 -5.91729 -0.980676 0
M  V30 2812 H 254.101 -6.43352 -0.686067 0
M  V30 2813 N 254.233 0.115231 -1.57178 0
M  V30 2814 C 255.48 0.822351 -1.8505 0
M  V30 2815 C 255.808 1.79701 -0.744168 0
M  V30 2816 O 255.063 1.93909 0.26414 0
M  V30 2817 C 255.362 1.60324 -3.19423 0
M  V30 2818 C 255.028 0.772536 -4.44233 0
M  V30 2819 C 253.69 0.543468 -4.78121 0
M  V30 2820 C 256.042 0.193746 -5.2084 0
M  V30 2821 C 253.37 -0.274583 -5.86057 0
M  V30 2822 C 255.722 -0.611517 -6.29637 0
M  V30 2823 C 254.386 -0.850867 -6.62055 0
M  V30 2824 H 253.656 0.30092 -0.677147 0
M  V30 2825 H 256.303 0.0845802 -1.91313 0
M  V30 2826 H 254.608 2.41203 -3.08753 0
M  V30 2827 H 256.305 2.1544 -3.38211 0
M  V30 2828 H 252.895 0.96117 -4.17683 0
M  V30 2829 H 257.079 0.357926 -4.95008 0
M  V30 2830 H 252.335 -0.469206 -6.09597 0
M  V30 2831 H 256.509 -1.06697 -6.88178 0
M  V30 2832 H 254.136 -1.48657 -7.45523 0
M  V30 2833 N 255.711 1.52812 0.385517 0
M  V30 2834 C 256.641 1.80808 1.47752 0
M  V30 2835 C 257.622 0.660318 1.5676 0
M  V30 2836 O 258.807 0.908246 1.71652 0
M  V30 2837 C 255.937 1.98008 2.85324 0
M  V30 2838 C 254.891 3.13709 2.91154 0
M  V30 2839 C 254.217 3.16169 4.31209 0
M  V30 2840 C 255.517 4.52709 2.60483 0
M  V30 2841 H 257.211 2.72253 1.24573 0
M  V30 2842 H 254.757 1.31003 0.597839 0
M  V30 2843 H 256.71 2.16176 3.61726 0
M  V30 2844 H 255.434 1.03255 3.09848 0
M  V30 2845 H 254.093 2.95329 2.17201 0
M  V30 2846 H 253.741 2.19092 4.52778 0
M  V30 2847 H 253.441 3.93894 4.36029 0
M  V30 2848 H 254.965 3.36496 5.09512 0
M  V30 2849 H 256.379 4.71173 3.26602 0
M  V30 2850 H 254.776 5.32528 2.76648 0
M  V30 2851 H 255.846 4.59186 1.55809 0
M  V30 2852 N 257.189 -0.644168 1.43834 0
M  V30 2853 C 258.136 -1.75671 1.49694 0
M  V30 2854 C 259.106 -1.6246 0.345809 0
M  V30 2855 O 260.291 -1.82573 0.554234 0
M  V30 2856 C 257.431 -3.13867 1.43463 0
M  V30 2857 C 256.544 -3.38147 2.6885 0
M  V30 2858 C 255.679 -4.66241 2.54544 0
M  V30 2859 C 254.718 -4.83657 3.75157 0
M  V30 2860 N 253.855 -6.03016 3.59605 0
M  V30 2861 H 258.695 -1.69998 2.44754 0
M  V30 2862 H 256.232 -0.829458 1.21484 0
M  V30 2863 H 258.19 -3.9377 1.37843 0
M  V30 2864 H 256.82 -3.18588 0.519783 0
M  V30 2865 H 255.872 -2.52276 2.84712 0
M  V30 2866 H 257.184 -3.46899 3.58417 0
M  V30 2867 H 256.338 -5.54285 2.46683 0
M  V30 2868 H 255.077 -4.59826 1.62516 0
M  V30 2869 H 254.082 -3.94046 3.83416 0
M  V30 2870 H 255.307 -4.91896 4.68204 0
M  V30 2871 H 253.253 -5.97715 2.7032 0
M  V30 2872 H 253.17 -6.12766 4.42779 0
M  V30 2873 H 254.438 -6.93657 3.55613 0
M  V30 2874 N 258.668 -1.30515 -0.883378 0
M  V30 2875 C 259.896 -1.22359 -1.66841 0
M  V30 2876 C 260.311 0.213296 -1.87591 0
M  V30 2877 O 259.668 1.14075 -1.42454 0
M  V30 2878 C 259.719 -1.95011 -3.04389 0
M  V30 2879 O 259.44 -3.3309 -2.84575 0
M  V30 2880 C 260.941 -1.93532 -3.98824 0
M  V30 2881 H 258.161 -0.423371 -0.520575 0
M  V30 2882 H 260.705 -1.72167 -1.10357 0
M  V30 2883 H 258.86 -1.48997 -3.57601 0
M  V30 2884 H 259.274 -3.69907 -3.71846 0
M  V30 2885 H 260.748 -2.48902 -4.92699 0
M  V30 2886 H 261.225 -0.914627 -4.29571 0
M  V30 2887 H 261.831 -2.39364 -3.51547 0
M  V30 2888 N 260.146 1.09593 -1.13257 0
M  V30 2889 C 261.056 2.19739 -0.821691 0
M  V30 2890 C 262.072 1.72926 0.19302 0
M  V30 2891 O 263.248 2.01385 0.0244895 0
M  V30 2892 C 260.313 3.45482 -0.290333 0
M  V30 2893 C 259.374 4.06985 -1.36607 0
M  V30 2894 C 258.607 5.26726 -0.859975 0
M  V30 2895 O 258.83 5.69594 0.303082 0
M  V30 2896 O 257.764 5.7931 -1.63351 0
M  V30 2897 H 261.59 2.48781 -1.74189 0
M  V30 2898 H 259.175 1.18496 -0.909894 0
M  V30 2899 H 261.057 4.214 0.000674022 0
M  V30 2900 H 259.732 3.18047 0.602306 0
M  V30 2901 H 258.639 3.32712 -1.71037 0
M  V30 2902 H 259.972 4.38643 -2.23279 0
M  V30 2903 N 261.624 0.925811 1.2754 0
M  V30 2904 C 262.872 0.564138 1.94067 0
M  V30 2905 C 263.193 -0.897188 1.73134 0
M  V30 2906 O 262.463 -1.63573 1.07799 0
M  V30 2907 H 261.043 0.205645 0.718136 0
M  V30 2908 H 263.705 1.1778 1.55287 0
M  V30 2909 H 262.801 0.76881 3.02483 0
M  V30 2910 N 263.102 -1.41638 0.69111 0
M  V30 2911 C 264.05 -2.32597 0.0115199 0
M  V30 2912 C 265.044 -1.5072 -0.773296 0
M  V30 2913 O 266.25 -1.66685 -0.67942 0
M  V30 2914 H 262.625 -0.751849 -0.0150746 0
M  V30 2915 H 264.596 -2.87593 0.795791 0
M  V30 2916 C 263.345 -3.35467 -0.914172 0
M  V30 2917 H 262.668 -3.9852 -0.319687 0
M  V30 2918 H 264.108 -4.01662 -1.35808 0
M  V30 2919 C 262.567 -2.69004 -2.02826 0
M  V30 2920 O 263.097 -2.53444 -3.11655 0
M  V30 2921 N 261.303 -2.2777 -1.80469 0
M  V30 2922 H 260.85 -2.40626 -0.919615 0
M  V30 2923 H 260.808 -1.83635 -2.55197 0
M  V30 2924 N 264.58 -0.43555 -1.51462 0
M  V30 2925 C 265.829 0.133007 -2.01261 0
M  V30 2926 C 266.142 1.43942 -1.32439 0
M  V30 2927 O 267.348 2.09081 -1.73198 0
M  V30 2928 C 265.804 0.287581 -3.58749 0
M  V30 2929 C 265.412 -1.00829 -4.36506 0
M  V30 2930 C 267.156 0.810004 -4.167 0
M  V30 2931 C 265.063 -0.819454 -5.85695 0
M  V30 2932 H 263.993 0.0534822 -0.752101 0
M  V30 2933 H 266.644 -0.565038 -1.74584 0
M  V30 2934 H 265.026 1.04859 -3.81865 0
M  V30 2935 H 266.2 -1.77749 -4.25138 0
M  V30 2936 H 264.515 -1.45911 -3.89999 0
M  V30 2937 H 267.112 0.967743 -5.2587 0
M  V30 2938 H 267.455 1.79196 -3.75758 0
M  V30 2939 H 267.988 0.107357 -3.97655 0
M  V30 2940 H 264.727 -1.77374 -6.31046 0
M  V30 2941 H 264.247 -0.0900208 -5.99732 0
M  V30 2942 H 265.926 -0.471949 -6.45276 0
M  V30 2943 N 266.058 1.56714 -0.166846 0
M  V30 2944 C 267.005 2.17746 0.765193 0
M  V30 2945 C 267.975 1.11614 1.23011 0
M  V30 2946 O 269.16 1.39745 1.29908 0
M  V30 2947 C 266.3 2.81882 1.9909 0
M  V30 2948 C 265.413 4.02462 1.56997 0
M  V30 2949 C 264.548 4.54537 2.749 0
M  V30 2950 C 263.587 5.67538 2.29275 0
M  V30 2951 N 262.724 6.14142 3.40255 0
M  V30 2952 H 267.564 2.97048 0.237952 0
M  V30 2953 H 265.101 1.4672 0.105725 0
M  V30 2954 H 267.059 3.17221 2.70974 0
M  V30 2955 H 265.689 2.05191 2.49192 0
M  V30 2956 H 264.741 3.72973 0.748037 0
M  V30 2957 H 266.053 4.84273 1.19503 0
M  V30 2958 H 265.207 4.92035 3.54946 0
M  V30 2959 H 263.946 3.71774 3.1565 0
M  V30 2960 H 262.951 5.29597 1.47674 0
M  V30 2961 H 264.176 6.52099 1.89588 0
M  V30 2962 H 262.122 5.3431 3.8059 0
M  V30 2963 H 262.039 6.9093 3.06841 0
M  V30 2964 H 263.307 6.56289 4.206 0
M  V30 2965 N 267.536 -0.106894 1.57237 0
M  V30 2966 C 268.466 -1.13148 2.04254 0
M  V30 2967 C 269.447 -1.42476 0.929224 0
M  V30 2968 O 270.632 -1.52709 1.19973 0
M  V30 2969 C 267.762 -2.4545 2.45706 0
M  V30 2970 C 266.716 -2.30558 3.60592 0
M  V30 2971 C 266.042 -3.67931 3.87983 0
M  V30 2972 C 267.342 -1.75597 4.91897 0
M  V30 2973 H 269.036 -0.740374 2.90101 0
M  V30 2974 H 266.582 -0.354696 1.39563 0
M  V30 2975 H 268.535 -3.17389 2.77205 0
M  V30 2976 H 267.259 -2.86475 1.56843 0
M  V30 2977 H 265.918 -1.61067 3.29322 0
M  V30 2978 H 265.566 -4.06462 2.96306 0
M  V30 2979 H 265.266 -3.58817 4.65322 0
M  V30 2980 H 266.79 -4.41356 4.21945 0
M  V30 2981 H 268.204 -2.37364 5.21854 0
M  V30 2982 H 266.601 -1.77272 5.73319 0
M  V30 2983 H 267.671 -0.714451 4.79608 0
M  V30 2984 N 269.014 -1.53014 -0.377408 0
M  V30 2985 C 270.262 -1.6829 -1.11906 0
M  V30 2986 C 270.583 -0.431206 -1.90173 0
M  V30 2987 O 269.853 0.554595 -1.87886 0
M  V30 2988 H 268.433 -0.620371 -0.416112 0
M  V30 2989 H 271.095 -1.90167 -0.426893 0
M  V30 2990 H 270.191 -2.53862 -1.8155 0
M  V30 2991 N 270.492 0.636531 -1.44174 0
M  V30 2992 C 271.769 1.39463 -1.37148 0
M  V30 2993 C 272.149 2.11082 -0.027507 0
M  V30 2994 O 271.497 2.05954 0.989716 0
M  V30 2995 C 271.707 2.36552 -2.56601 0
M  V30 2996 C 273.055 3.00048 -3.00427 0
M  V30 2997 O 274.079 2.46878 -2.56767 0
M  V30 2998 O 272.938 3.96488 -3.76111 0
M  V30 2999 H 270.032 0.623903 -0.542839 0
M  V30 3000 H 272.578 0.662039 -1.56253 0
M  V30 3001 H 271.35 1.82692 -3.46034 0
M  V30 3002 H 270.973 3.17236 -2.39681 0
M  V30 3003 N 271.97 1.30982 0.876444 0
M  V30 3004 C 272.933 1.18054 1.96459 0
M  V30 3005 C 273.933 0.109399 1.60427 0
M  V30 3006 O 275.123 0.358173 1.70478 0
M  V30 3007 C 272.255 0.810616 3.31122 0
M  V30 3008 H 273.448 2.14735 2.09354 0
M  V30 3009 H 271.001 1.145 1.06392 0
M  V30 3010 H 271.736 -0.155322 3.23928 0
M  V30 3011 H 271.521 1.58481 3.58645 0
M  V30 3012 H 273.011 0.743876 4.10921 0
M  V30 3013 N 273.449 -1.08991 1.13837 0
M  V30 3014 C 274.865 -1.33312 0.877506 0
M  V30 3015 C 275.065 -1.95587 -0.48456 0
M  V30 3016 O 274.121 -2.20509 -1.23013 0
M  V30 3017 C 275.434 -2.24045 2.0056 0
M  V30 3018 C 276.982 -2.37542 2.03821 0
M  V30 3019 C 277.457 -3.31614 3.15905 0
M  V30 3020 N 278.948 -3.39189 3.15445 0
M  V30 3021 C 279.683 -4.11992 3.98811 0
M  V30 3022 N 279.179 -4.87553 4.92203 0
M  V30 3023 N 280.972 -4.07762 3.86894 0
M  V30 3024 H 273.123 -0.669456 2.01574 0
M  V30 3025 H 275.386 -0.357482 0.878015 0
M  V30 3026 H 275.092 -1.85521 2.98789 0
M  V30 3027 H 274.966 -3.24466 1.92359 0
M  V30 3028 H 277.353 -2.75327 1.06202 0
M  V30 3029 H 277.434 -1.36884 2.16093 0
M  V30 3030 H 277.078 -2.94551 4.13766 0
M  V30 3031 H 277.008 -4.32186 3.0087 0
M  V30 3032 H 279.499 -2.85314 2.47799 0
M  V30 3033 H 279.812 -5.40549 5.52292 0
M  V30 3034 H 278.157 -4.86627 4.96205 0
M  V30 3035 H 281.348 -3.47833 3.13257 0
M  V30 3036 H 281.521 -4.64238 4.52092 0
M  V30 3037 N 274.927 -0.932562 -1.27047 0
M  V30 3038 C 276.175 -0.574422 -1.93765 0
M  V30 3039 C 276.496 0.887993 -1.73608 0
M  V30 3040 O 275.766 1.62999 -1.08665 0
M  V30 3041 H 274.346 -0.209451 -0.717035 0
M  V30 3042 H 277.008 -1.18601 -1.5466 0
M  V30 3043 H 276.104 -0.784841 -3.02071 0
M  V30 3044 N 276.405 1.4127 -0.698611 0
M  V30 3045 C 277.352 2.30773 -0.0352094 0
M  V30 3046 C 278.322 1.47273 0.768111 0
M  V30 3047 O 279.507 1.76053 0.735524 0
M  V30 3048 C 276.647 3.33346 0.893 0
M  V30 3049 C 275.76 4.31924 0.0809695 0
M  V30 3050 C 274.895 5.21566 1.0071 0
M  V30 3051 C 273.934 6.11811 0.188155 0
M  V30 3052 N 273.071 6.93926 1.06825 0
M  V30 3053 H 277.911 2.86943 -0.804207 0
M  V30 3054 H 275.448 1.4132 -0.408294 0
M  V30 3055 H 277.406 3.91368 1.44523 0
M  V30 3056 H 276.036 2.78719 1.62836 0
M  V30 3057 H 275.088 3.75825 -0.588224 0
M  V30 3058 H 276.4 4.95716 -0.553801 0
M  V30 3059 H 275.554 5.84437 1.62845 0
M  V30 3060 H 274.293 4.58008 1.67572 0
M  V30 3061 H 273.298 5.47986 -0.446254 0
M  V30 3062 H 274.523 6.77425 -0.476716 0
M  V30 3063 H 272.469 6.32973 1.72283 0
M  V30 3064 H 272.386 7.54416 0.489123 0
M  V30 3065 H 273.654 7.61262 1.67632 0
M  V30 3066 N 277.883 0.443576 1.51229 0
M  V30 3067 C 279.132 -0.122332 2.01329 0
M  V30 3068 C 279.445 -1.43237 1.33201 0
M  V30 3069 O 280.651 -2.0816 1.74304 0
M  V30 3070 C 279.107 -0.268551 3.58897 0
M  V30 3071 C 278.715 1.03142 4.35965 0
M  V30 3072 C 280.459 -0.787894 4.17124 0
M  V30 3073 C 278.366 0.850504 5.85252 0
M  V30 3074 H 277.296 -0.0494929 0.752374 0
M  V30 3075 H 279.947 0.574289 1.74282 0
M  V30 3076 H 278.329 -1.02832 3.82415 0
M  V30 3077 H 279.503 1.80001 4.24189 0
M  V30 3078 H 277.818 1.47977 3.89219 0
M  V30 3079 H 280.415 -0.939841 5.26375 0
M  V30 3080 H 280.758 -1.77201 3.76703 0
M  V30 3081 H 281.291 -0.0862669 3.97706 0
M  V30 3082 H 278.03 1.80718 6.30096 0
M  V30 3083 H 277.55 0.121825 5.99676 0
M  V30 3084 H 279.229 0.506163 6.45017 0
M  V30 3085 N 279.361 -1.56624 0.175154 0
M  V30 3086 C 280.607 -1.9729 -0.469506 0
M  V30 3087 C 280.94 -1.06128 -1.62636 0
M  V30 3088 O 280.215 -0.109183 -1.94193 0
M  V30 3089 C 280.498 -3.47375 -0.948804 0
M  V30 3090 C 280.351 -4.49317 0.208491 0
M  V30 3091 C 281.67 -4.00652 -1.82116 0
M  V30 3092 H 278.789 -0.717317 -0.16919 0
M  V30 3093 H 281.431 -1.88184 0.262062 0
M  V30 3094 H 279.581 -3.55267 -1.57219 0
M  V30 3095 H 281.253 -4.53482 0.845682 0
M  V30 3096 H 279.496 -4.25121 0.863395 0
M  V30 3097 H 280.167 -5.51741 -0.169059 0
M  V30 3098 H 282.643 -3.95416 -1.2956 0
M  V30 3099 H 281.519 -5.06075 -2.12554 0
M  V30 3100 H 281.78 -3.44699 -2.7683 0
M  V30 3101 N 280.839 0.0985539 -1.57292 0
M  V30 3102 C 281.769 1.12064 -2.04851 0
M  V30 3103 C 282.75 1.41981 -0.936767 0
M  V30 3104 O 283.935 1.52071 -1.20781 0
M  V30 3105 C 281.065 2.44144 -2.47004 0
M  V30 3106 C 280.019 2.28643 -3.6181 0
M  V30 3107 C 279.345 3.65869 -3.89929 0
M  V30 3108 C 280.645 1.72986 -4.92822 0
M  V30 3109 H 282.339 0.724979 -2.9049 0
M  V30 3110 H 279.885 0.34729 -1.39749 0
M  V30 3111 H 281.838 3.15914 -2.78884 0
M  V30 3112 H 280.562 2.85639 -1.5836 0
M  V30 3113 H 279.221 1.59318 -3.30172 0
M  V30 3114 H 278.869 4.04885 -2.98458 0
M  V30 3115 H 278.569 3.56344 -4.67218 0
M  V30 3116 H 280.093 4.39112 -4.2428 0
M  V30 3117 H 281.507 2.34593 -5.23105 0
M  V30 3118 H 279.904 1.74229 -5.74251 0
M  V30 3119 H 280.974 0.689007 -4.7998 0
M  V30 3120 N 282.317 1.53212 0.369288 0
M  V30 3121 C 283.247 1.82365 1.45826 0
M  V30 3122 C 284.228 0.676907 1.56051 0
M  V30 3123 O 285.413 0.926401 1.70679 0
M  V30 3124 C 282.543 2.01023 2.83208 0
M  V30 3125 C 281.497 3.1678 2.8781 0
M  V30 3126 C 280.823 3.20724 4.27832 0
M  V30 3127 C 282.123 4.55447 2.55667 0
M  V30 3128 H 283.817 2.73559 1.21678 0
M  V30 3129 H 281.363 1.3163 0.583911 0
M  V30 3130 H 283.316 2.20001 3.59413 0
M  V30 3131 H 282.04 1.06536 3.08736 0
M  V30 3132 H 280.699 2.97616 2.14056 0
M  V30 3133 H 280.347 2.23882 4.50429 0
M  V30 3134 H 280.047 3.98496 4.31827 0
M  V30 3135 H 281.571 3.41881 5.05915 0
M  V30 3136 H 282.985 4.74611 3.21586 0
M  V30 3137 H 281.382 5.35432 2.70984 0
M  V30 3138 H 282.452 4.60812 1.5093 0
M  V30 3139 N 283.795 -0.628877 1.44509 0
M  V30 3140 C 284.742 -1.74074 1.51549 0
M  V30 3141 C 285.712 -1.62084 0.363021 0
M  V30 3142 O 286.897 -1.81975 0.573567 0
M  V30 3143 C 284.037 -3.12328 1.46784 0
M  V30 3144 C 283.15 -3.35277 2.72422 0
M  V30 3145 C 282.285 -4.63515 2.59475 0
M  V30 3146 C 281.324 -4.7965 3.80266 0
M  V30 3147 N 280.461 -5.99168 3.65981 0
M  V30 3148 H 285.301 -1.67392 2.46544 0
M  V30 3149 H 282.838 -0.816527 1.22357 0
M  V30 3150 H 284.796 -3.92286 1.42012 0
M  V30 3151 H 283.426 -3.18018 0.553544 0
M  V30 3152 H 282.478 -2.49242 2.87372 0
M  V30 3153 H 283.79 -3.43078 3.62076 0
M  V30 3154 H 282.944 -5.51638 2.52548 0
M  V30 3155 H 281.683 -4.58076 1.67384 0
M  V30 3156 H 280.688 -3.89957 3.87574 0
M  V30 3157 H 281.913 -4.86902 4.73395 0
M  V30 3158 H 279.859 -5.94814 2.76644 0
M  V30 3159 H 279.776 -6.08035 4.49254 0
M  V30 3160 H 281.044 -6.89846 3.6295 0
M  V30 3161 N 285.273 -1.31445 -0.869486 0
M  V30 3162 C 286.689 -1.10113 -1.15531 0
M  V30 3163 C 286.889 0.128087 -2.01092 0
M  V30 3164 O 285.945 0.817276 -2.38908 0
M  V30 3165 C 287.258 -2.37291 -1.84698 0
M  V30 3166 C 288.806 -2.42906 -1.97397 0
M  V30 3167 C 289.281 -3.69967 -2.69979 0
M  V30 3168 N 290.772 -3.70864 -2.77514 0
M  V30 3169 C 291.507 -4.65875 -3.34287 0
M  V30 3170 N 291.003 -5.71242 -3.91988 0
M  V30 3171 N 292.796 -4.53394 -3.3225 0
M  V30 3172 H 284.947 -2.1028 -0.299347 0
M  V30 3173 H 287.21 -0.927683 -0.195214 0
M  V30 3174 H 286.916 -3.27078 -1.29278 0
M  V30 3175 H 286.79 -2.47125 -2.84972 0
M  V30 3176 H 289.177 -1.53588 -2.51982 0
M  V30 3177 H 289.258 -2.37036 -0.961643 0
M  V30 3178 H 288.902 -4.59652 -2.16062 0
M  V30 3179 H 288.832 -3.73103 -3.7162 0
M  V30 3180 H 291.323 -2.94697 -2.36563 0
M  V30 3181 H 291.636 -6.39817 -4.33421 0
M  V30 3182 H 289.981 -5.75015 -3.90362 0
M  V30 3183 H 293.172 -3.70252 -2.8641 0
M  V30 3184 H 293.345 -5.27617 -3.76197 0
M  V30 3185 N 286.751 1.08385 -1.14413 0
M  V30 3186 C 287.981 1.8425 -0.934644 0
M  V30 3187 C 288.389 1.81907 0.520234 0
M  V30 3188 O 287.732 1.22126 1.37226 0
M  V30 3189 C 287.794 3.32853 -1.35828 0
M  V30 3190 C 287.458 3.5893 -2.82875 0
M  V30 3191 C 288.455 3.53756 -3.80989 0
M  V30 3192 C 286.14 3.86934 -3.20293 0
M  V30 3193 C 288.134 3.76216 -5.14529 0
M  V30 3194 C 285.821 4.09047 -4.54008 0
M  V30 3195 C 286.819 4.03682 -5.50936 0
M  V30 3196 O 286.507 4.25214 -6.82238 0
M  V30 3197 H 286.239 0.588502 -0.332628 0
M  V30 3198 H 288.793 1.37792 -1.52324 0
M  V30 3199 H 287.023 3.8007 -0.713019 0
M  V30 3200 H 288.712 3.90154 -1.11957 0
M  V30 3201 H 289.478 3.32135 -3.53428 0
M  V30 3202 H 285.357 3.9023 -2.45442 0
M  V30 3203 H 288.901 3.71943 -5.90173 0
M  V30 3204 H 284.798 4.30151 -4.8129 0
M  V30 3205 H 285.566 4.42619 -6.88499 0
M  V30 3206 N 288.23 0.939286 1.26551 0
M  V30 3207 C 289.455 0.602008 1.98471 0
M  V30 3208 C 289.88 -0.815624 1.69497 0
M  V30 3209 O 289.238 -1.54912 0.941905 0
M  V30 3210 C 289.286 0.848407 3.50477 0
M  V30 3211 O 288.39 -0.0804009 4.12322 0
M  V30 3212 H 287.731 0.23049 0.622712 0
M  V30 3213 H 290.261 1.2617 1.61066 0
M  V30 3214 H 290.271 0.768553 4.00696 0
M  V30 3215 H 288.946 1.88171 3.70897 0
M  V30 3216 H 287.523 0.0503508 3.72866 0
M  V30 3217 N 289.708 -1.40897 0.706093 0
M  V30 3218 C 290.956 -2.00657 0.241054 0
M  V30 3219 C 291.277 -1.56241 -1.16678 0
M  V30 3220 O 290.547 -0.79765 -1.78926 0
M  V30 3221 H 289.127 -0.742018 0.0861308 0
M  V30 3222 H 291.789 -1.72372 0.909604 0
M  V30 3223 H 290.885 -3.10958 0.266705 0
M  V30 3224 N 291.186 -0.45159 -1.50991 0
M  V30 3225 C 292.411 0.110667 -2.07105 0
M  V30 3226 C 292.836 1.3446 -1.31538 0
M  V30 3227 O 292.194 1.77743 -0.357365 0
M  V30 3228 C 292.242 0.397238 -3.58405 0
M  V30 3229 O 291.346 1.48124 -3.84881 0
M  V30 3230 H 290.687 -0.00439271 -0.663985 0
M  V30 3231 H 293.217 -0.637026 -1.9443 0
M  V30 3232 H 293.227 0.64351 -4.02893 0
M  V30 3233 H 291.902 -0.504553 -4.12828 0
M  V30 3234 H 290.479 1.22381 -3.52246 0
M  V30 3235 N 292.664 1.56529 -0.183458 0
M  V30 3236 C 293.612 2.19873 0.758845 0
M  V30 3237 C 294.606 1.16638 1.22849 0
M  V30 3238 O 295.812 1.3481 1.19274 0
M  V30 3239 H 292.187 0.7045 0.263029 0
M  V30 3240 H 294.158 2.97724 0.200755 0
M  V30 3241 C 292.907 2.86314 1.9728 0
M  V30 3242 H 292.23 3.65487 1.62047 0
M  V30 3243 H 293.67 3.3409 2.61075 0
M  V30 3244 C 292.129 1.86729 2.80418 0
M  V30 3245 O 292.659 1.36031 3.77966 0
M  V30 3246 N 290.865 1.55216 2.45675 0
M  V30 3247 H 290.412 1.96636 1.66409 0
M  V30 3248 H 290.37 0.888388 3.01588 0
M  V30 3249 N 294.142 -0.090211 1.57342 0
M  V30 3250 C 295.052 -1.12735 2.05738 0
M  V30 3251 C 296.068 -1.43557 0.983231 0
M  V30 3252 O 297.244 -1.54101 1.29672 0
M  V30 3253 C 294.309 -2.42659 2.47624 0
M  V30 3254 C 293.37 -2.18975 3.69254 0
M  V30 3255 C 292.603 -3.42704 4.09133 0
M  V30 3256 O 292.826 -4.51127 3.49057 0
M  V30 3257 O 291.76 -3.32003 5.02053 0
M  V30 3258 H 295.586 -0.746279 2.94388 0
M  V30 3259 H 293.171 -0.303064 1.46294 0
M  V30 3260 H 295.053 -3.19155 2.7517 0
M  V30 3261 H 293.728 -2.80182 1.62109 0
M  V30 3262 H 292.635 -1.40244 3.46818 0
M  V30 3263 H 293.968 -1.86342 4.55563 0
M  V30 3264 N 295.62 -1.53406 -0.361157 0
M  V30 3265 C 297.031 -1.61442 -0.937728 0
M  V30 3266 C 297.382 -0.48461 -1.90121 0
M  V30 3267 O 296.507 0.388312 -2.12888 0
M  V30 3268 C 297.102 -2.92624 -1.70753 0
M  V30 3269 C 295.661 -3.02981 -2.23337 0
M  V30 3270 C 294.808 -2.5677 -1.04712 0
M  V30 3271 H 297.759 -1.58083 -0.139816 0
M  V30 3272 H 297.78 -2.80675 -2.56908 0
M  V30 3273 H 297.292 -3.74834 -1.00604 0
M  V30 3274 H 295.393 -2.25368 -2.96715 0
M  V30 3275 H 295.506 -4.0814 -2.50916 0
M  V30 3276 H 293.87 -2.11752 -1.41539 0
M  V30 3277 H 294.653 -3.41402 -0.360539 0
M  V30 3278 N 297.098 0.621204 -1.44841 0
M  V30 3279 C 298.346 1.37783 -1.47852 0
M  V30 3280 C 298.667 1.94653 -0.116224 0
M  V30 3281 O 297.937 1.76367 0.852737 0
M  V30 3282 H 296.517 0.511453 -0.544449 0
M  V30 3283 H 299.179 0.730446 -1.80694 0
M  V30 3284 H 298.275 2.20414 -2.20961 0
M  V30 3285 N 298.576 1.31904 0.862503 0
M  V30 3286 C 299.824 1.21776 1.61292 0
M  V30 3287 C 300.145 -0.222413 1.93727 0
M  V30 3288 O 299.415 -1.1451 1.58947 0
M  V30 3289 H 297.995 0.447717 0.597962 0
M  V30 3290 H 300.657 1.65326 1.03215 0
M  V30 3291 H 299.753 1.7948 2.5533 0
M  V30 3292 N 300.054 -1.07777 1.14986 0
M  V30 3293 C 301.284 -1.83752 0.944402 0
M  V30 3294 C 301.692 -1.8218 -0.51058 0
M  V30 3295 O 301.035 -1.22852 -1.36576 0
M  V30 3296 C 301.097 -3.32128 1.37592 0
M  V30 3297 C 300.761 -3.57425 2.84775 0
M  V30 3298 C 301.758 -3.5173 3.8286 0
M  V30 3299 C 299.443 -3.8523 3.2234 0
M  V30 3300 C 301.437 -3.73482 5.16517 0
M  V30 3301 C 299.124 -4.06634 4.56171 0
M  V30 3302 C 300.122 -4.00754 5.53069 0
M  V30 3303 O 299.81 -4.2159 6.84483 0
M  V30 3304 H 299.542 -0.58673 0.335744 0
M  V30 3305 H 302.096 -1.36982 1.53052 0
M  V30 3306 H 300.326 -3.79686 0.733165 0
M  V30 3307 H 302.015 -3.89555 1.14024 0
M  V30 3308 H 302.781 -3.30256 3.55184 0
M  V30 3309 H 298.66 -3.88923 2.47508 0
M  V30 3310 H 302.204 -3.68808 5.92137 0
M  V30 3311 H 298.101 -4.27593 4.83564 0
M  V30 3312 H 298.869 -4.38961 6.90837 0
M  V30 3313 N 301.532 -0.945985 -1.26051 0
M  V30 3314 C 302.48 -0.450259 -2.282 0
M  V30 3315 C 303.474 0.47497 -1.62605 0
M  V30 3316 O 304.68 0.352653 -1.76512 0
M  V30 3317 H 301.055 -0.127081 -0.741184 0
M  V30 3318 H 303.026 -1.32422 -2.67408 0
M  V30 3319 C 301.775 0.26467 -3.46691 0
M  V30 3320 H 301.098 -0.438123 -3.97392 0
M  V30 3321 H 302.538 0.575678 -4.20074 0
M  V30 3322 C 300.997 1.48416 -3.02447 0
M  V30 3323 O 301.527 2.58227 -3.07704 0
M  V30 3324 N 299.733 1.34243 -2.57735 0
M  V30 3325 H 299.28 0.448994 -2.53657 0
M  V30 3326 H 299.238 2.15957 -2.28495 0
M  V30 3327 N 303.011 1.40521 -0.713556 0
M  V30 3328 C 303.959 2.32549 -0.0485227 0
M  V30 3329 C 304.953 1.51931 0.74922 0
M  V30 3330 O 306.159 1.67745 0.652816 0
M  V30 3331 H 302.534 0.751994 0.00311138 0
M  V30 3332 H 304.505 2.86291 -0.841443 0
M  V30 3333 C 303.254 3.36879 0.860687 0
M  V30 3334 H 302.577 3.98978 0.256246 0
M  V30 3335 H 304.017 4.03772 1.294 0
M  V30 3336 C 302.476 2.72197 1.9852 0
M  V30 3337 O 303.006 2.5837 3.07584 0
M  V30 3338 N 301.212 2.30612 1.76823 0
M  V30 3339 H 300.759 2.42059 0.881217 0
M  V30 3340 H 300.717 1.87672 2.52243 0
M  V30 3341 N 304.489 0.459591 1.5075 0
M  V30 3342 C 305.736 -0.0993495 2.02256 0
M  V30 3343 C 306.064 -1.40751 1.34237 0
M  V30 3344 O 305.319 -1.90379 0.453228 0
M  V30 3345 C 305.618 -0.342866 3.55752 0
M  V30 3346 C 305.284 0.88218 4.42186 0
M  V30 3347 C 303.946 1.21808 4.65528 0
M  V30 3348 C 306.298 1.69837 4.92752 0
M  V30 3349 C 303.626 2.37045 5.36681 0
M  V30 3350 C 305.978 2.84192 5.65171 0
M  V30 3351 C 304.642 3.1821 5.8677 0
M  V30 3352 H 303.912 -0.0363545 0.740108 0
M  V30 3353 H 306.559 0.611329 1.8148 0
M  V30 3354 H 304.864 -1.13567 3.7498 0
M  V30 3355 H 306.561 -0.789121 3.93159 0
M  V30 3356 H 303.151 0.610467 4.2423 0
M  V30 3357 H 307.335 1.45205 4.74583 0
M  V30 3358 H 302.591 2.63689 5.51614 0
M  V30 3359 H 306.765 3.4779 6.03337 0
M  V30 3360 H 304.392 4.07613 6.41682 0
M  V30 3361 N 305.967 -1.56429 0.191757 0
M  V30 3362 C 307.197 -2.01574 -0.452928 0
M  V30 3363 C 307.605 -1.07107 -1.55964 0
M  V30 3364 O 306.948 -0.067534 -1.83576 0
M  V30 3365 C 307.01 -3.43121 -1.07278 0
M  V30 3366 C 306.674 -4.56879 -0.105214 0
M  V30 3367 C 307.671 -5.15379 0.684149 0
M  V30 3368 C 305.356 -5.023 0.00489824 0
M  V30 3369 C 307.35 -6.17746 1.57062 0
M  V30 3370 C 305.037 -6.04511 0.894935 0
M  V30 3371 C 306.035 -6.62108 1.67637 0
M  V30 3372 O 305.723 -7.62335 2.55149 0
M  V30 3373 H 305.455 -0.665554 -0.118379 0
M  V30 3374 H 308.009 -2.03245 0.296737 0
M  V30 3375 H 306.239 -3.38425 -1.87097 0
M  V30 3376 H 307.928 -3.72093 -1.62177 0
M  V30 3377 H 308.694 -4.81157 0.609365 0
M  V30 3378 H 304.573 -4.57168 -0.593156 0
M  V30 3379 H 308.117 -6.6263 2.181 0
M  V30 3380 H 304.014 -6.38157 0.970847 0
M  V30 3381 H 304.782 -7.79741 2.48892 0
M  V30 3382 N 307.445 0.0818655 -1.57387 0
M  V30 3383 C 308.691 0.778884 -1.87896 0
M  V30 3384 C 309.046 1.75692 -0.784229 0
M  V30 3385 O 308.339 1.90417 0.212567 0
M  V30 3386 C 308.533 1.53513 -3.22752 0
M  V30 3387 C 308.362 0.631838 -4.45239 0
M  V30 3388 C 307.132 0.272571 -5.04564 0
M  V30 3389 C 309.33 -0.0670191 -5.14256 0
M  V30 3390 N 307.312 -0.637498 -6.10581 0
M  V30 3391 C 308.683 -0.834653 -6.14356 0
M  V30 3392 C 310.738 -0.139551 -4.97704 0
M  V30 3393 C 309.441 -1.66806 -6.99691 0
M  V30 3394 C 311.467 -0.959903 -5.83558 0
M  V30 3395 C 310.829 -1.71561 -6.83188 0
M  V30 3396 H 306.928 0.260764 -0.737242 0
M  V30 3397 H 309.512 0.0408227 -1.94657 0
M  V30 3398 H 307.683 2.24398 -3.17018 0
M  V30 3399 H 309.415 2.18038 -3.40942 0
M  V30 3400 H 306.17 0.62319 -4.69482 0
M  V30 3401 H 306.594 -1.08548 -6.68241 0
M  V30 3402 H 311.236 0.430376 -4.20604 0
M  V30 3403 H 308.954 -2.249 -7.76174 0
M  V30 3404 H 312.54 -1.01887 -5.72809 0
M  V30 3405 H 311.42 -2.34017 -7.48469 0
M  V30 3406 N 308.923 1.53595 0.353017 0
M  V30 3407 C 310.334 1.61937 0.929153 0
M  V30 3408 C 310.685 0.494686 1.89861 0
M  V30 3409 O 309.81 -0.377017 2.1309 0
M  V30 3410 C 310.405 2.93526 1.69199 0
M  V30 3411 C 308.964 3.04161 2.21727 0
M  V30 3412 C 308.111 2.57322 1.03348 0
M  V30 3413 H 311.062 1.58155 0.131431 0
M  V30 3414 H 311.083 2.82034 2.55416 0
M  V30 3415 H 310.595 3.75362 0.986144 0
M  V30 3416 H 308.696 2.26938 2.95516 0
M  V30 3417 H 308.809 4.09465 2.48748 0
M  V30 3418 H 307.173 2.12499 1.40414 0
M  V30 3419 H 307.956 3.41588 0.342428 0
M  V30 3420 N 310.401 -0.613514 1.45168 0
M  V30 3421 C 311.678 -1.37263 1.39349 0
M  V30 3422 C 312.058 -2.11012 0.0610848 0
M  V30 3423 O 311.406 -2.07502 -0.956825 0
M  V30 3424 C 311.616 -2.3244 2.60332 0
M  V30 3425 C 312.964 -2.9523 3.05163 0
M  V30 3426 O 313.988 -2.42762 2.60663 0
M  V30 3427 O 312.847 -3.90454 3.82372 0
M  V30 3428 H 309.941 -0.615188 0.552696 0
M  V30 3429 H 312.487 -0.637097 1.57287 0
M  V30 3430 H 311.259 -1.77164 3.48896 0
M  V30 3431 H 310.882 -3.13383 2.44698 0
M  V30 3432 N 311.879 -1.3236 -0.855495 0
M  V30 3433 C 312.827 -1.2118 -1.9854 0
M  V30 3434 C 313.821 -0.116788 -1.68997 0
M  V30 3435 O 315.027 -0.279657 -1.77814 0
M  V30 3436 H 311.402 -0.375608 -0.651477 0
M  V30 3437 H 313.373 -2.16743 -2.05098 0
M  V30 3438 C 312.122 -0.950849 -3.34446 0
M  V30 3439 H 311.445 -1.78563 -3.57708 0
M  V30 3440 H 312.885 -0.912863 -4.14057 0
M  V30 3441 C 311.344 0.346404 -3.35114 0
M  V30 3442 O 311.874 1.35855 -3.7803 0
M  V30 3443 N 310.08 0.36808 -2.88259 0
M  V30 3444 H 309.627 -0.456102 -2.5353 0
M  V30 3445 H 309.585 1.23591 -2.89089 0
M  V30 3446 N 313.357 1.07166 -1.15556 0
M  V30 3447 C 314.267 2.17947 -0.868116 0
M  V30 3448 C 315.283 1.73297 0.156297 0
M  V30 3449 O 316.459 2.01392 -0.0182327 0
M  V30 3450 C 313.524 3.44789 -0.36355 0
M  V30 3451 C 312.585 4.03996 -1.45209 0
M  V30 3452 C 311.818 5.24783 -0.971508 0
M  V30 3453 O 312.041 5.70109 0.182194 0
M  V30 3454 O 310.975 5.75715 -1.75603 0
M  V30 3455 H 314.801 2.4503 -1.79427 0
M  V30 3456 H 312.386 1.16539 -0.934824 0
M  V30 3457 H 314.268 4.21307 -0.0887113 0
M  V30 3458 H 312.943 3.19253 0.534708 0
M  V30 3459 H 311.85 3.29009 -1.78056 0
M  V30 3460 H 313.183 4.33808 -2.32533 0
M  V30 3461 N 314.835 0.952656 1.25548 0
M  V30 3462 C 316.063 0.623496 1.97282 0
M  V30 3463 C 316.478 -0.803987 1.70826 0
M  V30 3464 O 315.835 -1.53755 0.983147 0
M  V30 3465 C 315.886 0.870209 3.5087 0
M  V30 3466 O 315.607 2.24156 3.76412 0
M  V30 3467 C 317.108 0.553164 4.39835 0
M  V30 3468 H 314.328 0.233931 0.628902 0
M  V30 3469 H 316.872 1.27649 1.59768 0
M  V30 3470 H 315.027 0.263652 3.86502 0
M  V30 3471 H 315.441 2.31021 4.70882 0
M  V30 3472 H 316.915 0.776342 5.46513 0
M  V30 3473 H 317.392 -0.512215 4.36203 0
M  V30 3474 H 317.998 1.13896 4.09766 0
M  V30 3475 N 316.313 -1.40141 0.720998 0
M  V30 3476 C 317.56 -2.00787 0.262842 0
M  V30 3477 C 317.888 -1.5718 -1.14563 0
M  V30 3478 O 317.143 -0.785391 -1.79249 0
M  V30 3479 C 317.442 -3.56165 0.296892 0
M  V30 3480 C 317.108 -4.19373 1.65641 0
M  V30 3481 C 315.77 -4.36352 2.02855 0
M  V30 3482 C 318.122 -4.54578 2.54968 0
M  V30 3483 C 315.45 -4.8582 3.28931 0
M  V30 3484 C 317.802 -5.05447 3.80402 0
M  V30 3485 C 316.466 -5.20635 4.17726 0
M  V30 3486 H 315.736 -0.734731 0.0961807 0
M  V30 3487 H 318.383 -1.67673 0.925093 0
M  V30 3488 H 316.688 -3.8922 -0.448932 0
M  V30 3489 H 318.385 -4.00929 -0.0755208 0
M  V30 3490 H 314.975 -4.06549 1.35704 0
M  V30 3491 H 319.159 -4.41091 2.27491 0
M  V30 3492 H 314.415 -4.95764 3.57811 0
M  V30 3493 H 318.589 -5.31663 4.49786 0
M  V30 3494 H 316.216 -5.58728 5.15487 0
M  V30 3495 N 317.792 -0.46758 -1.50504 0
M  V30 3496 C 319.02 0.0864133 -2.06719 0
M  V30 3497 C 319.435 1.33819 -1.33184 0
M  V30 3498 O 318.792 1.78061 -0.400083 0
M  V30 3499 C 318.843 0.378079 -3.59517 0
M  V30 3500 O 318.564 -0.824044 -4.3028 0
M  V30 3501 C 320.065 0.979426 -4.32345 0
M  V30 3502 H 317.285 -0.00551697 -0.670977 0
M  V30 3503 H 319.829 -0.655354 -1.93715 0
M  V30 3504 H 317.984 1.06977 -3.72337 0
M  V30 3505 H 318.398 -0.566518 -5.21432 0
M  V30 3506 H 319.872 1.1333 -5.40241 0
M  V30 3507 H 320.349 1.9686 -3.9261 0
M  V30 3508 H 320.955 0.326216 -4.24047 0
M  V30 3509 N 319.27 1.56325 -0.20005 0
M  V30 3510 C 320.498 2.02105 0.442874 0
M  V30 3511 C 320.913 1.08014 1.5485 0
M  V30 3512 O 320.27 0.0858797 1.82298 0
M  V30 3513 C 320.321 3.47549 0.994583 0
M  V30 3514 O 320.042 4.38049 -0.0669322 0
M  V30 3515 C 321.543 4.0887 1.7129 0
M  V30 3516 H 318.763 0.661807 0.110691 0
M  V30 3517 H 321.307 2.02134 -0.310207 0
M  V30 3518 H 319.462 3.48204 1.69803 0
M  V30 3519 H 319.876 5.23368 0.344462 0
M  V30 3520 H 321.35 5.12475 2.05118 0
M  V30 3521 H 321.827 3.52615 2.61838 0
M  V30 3522 H 322.433 4.12002 1.05518 0
M  V30 3523 N 320.748 -0.0735177 1.57428 0
M  V30 3524 C 321.976 -0.785969 1.9139 0
M  V30 3525 C 322.391 -1.71207 0.795847 0
M  V30 3526 O 321.748 -1.81033 -0.230915 0
M  V30 3527 C 321.799 -1.58107 3.25091 0
M  V30 3528 O 321.52 -0.6922 4.32597 0
M  V30 3529 C 323.021 -2.39467 3.73055 0
M  V30 3530 H 320.241 -0.223558 0.632663 0
M  V30 3531 H 322.785 -0.044302 2.04452 0
M  V30 3532 H 320.94 -2.27503 3.13562 0
M  V30 3533 H 321.354 -1.24504 5.09508 0
M  V30 3534 H 322.828 -2.90716 4.69242 0
M  V30 3535 H 323.305 -3.18913 3.01979 0
M  V30 3536 H 323.911 -1.7523 3.87523 0
M  V30 3537 N 322.226 -1.5378 -0.344866 0
M  V30 3538 C 323.472 -1.71216 -1.08687 0
M  V30 3539 C 323.805 -0.473281 -1.88345 0
M  V30 3540 O 323.08 0.52968 -1.87149 0
M  V30 3541 C 323.363 -2.97486 -2.02914 0
M  V30 3542 C 323.216 -4.31579 -1.26727 0
M  V30 3543 C 324.535 -3.19422 -3.0275 0
M  V30 3544 H 321.654 -0.62301 -0.393735 0
M  V30 3545 H 324.296 -1.8645 -0.365563 0
M  V30 3546 H 322.446 -2.84629 -2.64421 0
M  V30 3547 H 324.118 -4.56284 -0.67845 0
M  V30 3548 H 322.361 -4.30049 -0.569273 0
M  V30 3549 H 323.032 -5.16106 -1.95803 0
M  V30 3550 H 325.508 -3.316 -2.51357 0
M  V30 3551 H 324.384 -4.09169 -3.65885 0
M  V30 3552 H 324.645 -2.35656 -3.74057 0
M  V30 3553 N 323.704 0.605807 -1.45491 0
M  V30 3554 C 324.652 1.73754 -1.54636 0
M  V30 3555 C 325.646 1.64207 -0.416219 0
M  V30 3556 O 326.852 1.69979 -0.592199 0
M  V30 3557 H 323.227 0.574073 -0.485741 0
M  V30 3558 H 325.198 1.63169 -2.49837 0
M  V30 3559 C 323.947 3.12135 -1.53189 0
M  V30 3560 H 323.27 3.20141 -2.39478 0
M  V30 3561 H 324.71 3.91147 -1.63645 0
M  V30 3562 C 323.169 3.35921 -0.256616 0
M  V30 3563 O 323.699 3.96194 0.662798 0
M  V30 3564 N 321.905 2.90204 -0.151751 0
M  V30 3565 H 321.452 2.41336 -0.90081 0
M  V30 3566 H 321.41 3.06492 0.700699 0
M  V30 3567 N 325.182 1.32811 0.848464 0
M  V30 3568 C 326.114 1.18095 1.96433 0
M  V30 3569 C 327.127 0.114354 1.62398 0
M  V30 3570 O 328.316 0.363892 1.74751 0
M  V30 3571 C 325.416 0.786798 3.2964 0
M  V30 3572 C 324.589 1.943 3.91875 0
M  V30 3573 C 323.648 1.53138 5.03423 0
M  V30 3574 O 322.674 2.24432 5.23086 0
M  V30 3575 N 323.876 0.430915 5.78898 0
M  V30 3576 H 326.641 2.14218 2.09597 0
M  V30 3577 H 324.202 1.2543 1.02367 0
M  V30 3578 H 326.194 0.493715 4.01677 0
M  V30 3579 H 324.764 -0.0834541 3.12489 0
M  V30 3580 H 323.984 2.40224 3.12547 0
M  V30 3581 H 325.272 2.71689 4.30189 0
M  V30 3582 H 324.67 -0.162333 5.65467 0
M  V30 3583 H 323.227 0.197466 6.51501 0
M  V30 3584 N 326.66 -1.06551 1.16123 0
M  V30 3585 C 327.608 -2.16063 0.861371 0
M  V30 3586 C 328.602 -1.6856 -0.168517 0
M  V30 3587 O 329.808 -1.79986 -0.0227579 0
M  V30 3588 H 326.183 -0.705278 0.260934 0
M  V30 3589 H 328.154 -2.38567 1.79244 0
M  V30 3590 C 326.903 -3.45661 0.376018 0
M  V30 3591 H 326.226 -3.82604 1.15992 0
M  V30 3592 H 327.666 -4.23504 0.204951 0
M  V30 3593 C 326.125 -3.24546 -0.903954 0
M  V30 3594 O 326.655 -3.49865 -1.97377 0
M  V30 3595 N 324.861 -2.77992 -0.846679 0
M  V30 3596 H 324.408 -2.57589 0.0241017 0
M  V30 3597 H 324.366 -2.64244 -1.70359 0
M  V30 3598 N 328.138 -0.959301 -1.25041 0
M  V30 3599 C 329.101 -0.487677 -2.23952 0
M  V30 3600 C 330.101 0.41119 -1.55454 0
M  V30 3601 O 331.291 0.207825 -1.72956 0
M  V30 3602 C 328.423 0.294807 -3.39623 0
M  V30 3603 H 329.616 -1.36198 -2.67189 0
M  V30 3604 H 327.169 -0.743042 -1.37508 0
M  V30 3605 H 327.904 1.18658 -3.01813 0
M  V30 3606 H 327.689 -0.35012 -3.90534 0
M  V30 3607 H 329.179 0.614089 -4.1306 0
M  V30 3608 N 329.616 1.39756 -0.72842 0
M  V30 3609 C 330.564 2.32485 -0.0731849 0
M  V30 3610 C 331.558 1.52717 0.733063 0
M  V30 3611 O 332.764 1.68428 0.634988 0
M  V30 3612 H 329.139 0.751984 -0.00486469 0
M  V30 3613 H 331.11 2.85382 -0.871761 0
M  V30 3614 C 329.859 3.37773 0.824908 0
M  V30 3615 H 329.182 3.99227 0.213915 0
M  V30 3616 H 330.622 4.05121 1.25111 0
M  V30 3617 C 329.081 2.74287 1.95622 0
M  V30 3618 O 329.611 2.61618 3.04826 0
M  V30 3619 N 327.817 2.32475 1.74367 0
M  V30 3620 H 327.364 2.4298 0.855494 0
M  V30 3621 H 327.322 1.90337 2.50238 0
M  V30 3622 N 331.094 0.475555 1.50254 0
M  V30 3623 C 332.34 -0.0780073 2.0265 0
M  V30 3624 C 332.673 -1.38968 1.35652 0
M  V30 3625 O 331.948 -1.8839 0.483691 0
M  V30 3626 C 332.231 -0.257161 3.59181 0
M  V30 3627 C 332.084 1.07585 4.36744 0
M  V30 3628 C 333.403 -1.00965 4.28362 0
M  V30 3629 H 330.522 -0.0268758 0.73651 0
M  V30 3630 H 333.164 0.622015 1.7953 0
M  V30 3631 H 331.314 -0.853412 3.79011 0
M  V30 3632 H 332.986 1.70902 4.28474 0
M  V30 3633 H 331.229 1.6714 4.00308 0
M  V30 3634 H 331.9 0.904088 5.44546 0
M  V30 3635 H 334.376 -0.504214 4.13034 0
M  V30 3636 H 333.252 -1.10381 5.37687 0
M  V30 3637 H 333.513 -2.04731 3.91839 0
M  V30 3638 N 332.573 -1.56217 0.208337 0
M  V30 3639 C 333.801 -2.02337 -0.43215 0
M  V30 3640 C 334.216 -1.08834 -1.54275 0
M  V30 3641 O 333.573 -0.0955462 -1.8225 0
M  V30 3642 C 333.624 -3.48072 -0.976138 0
M  V30 3643 O 333.345 -4.38007 0.0901621 0
M  V30 3644 C 334.846 -4.09773 -1.69119 0
M  V30 3645 H 332.066 -0.662385 -0.10718 0
M  V30 3646 H 334.61 -2.01966 0.320923 0
M  V30 3647 H 332.765 -3.49099 -1.67954 0
M  V30 3648 H 333.179 -5.23543 -0.316701 0
M  V30 3649 H 334.653 -5.13556 -2.02397 0
M  V30 3650 H 335.13 -3.53999 -2.59964 0
M  V30 3651 H 335.736 -4.12556 -1.03332 0
M  V30 3652 N 334.051 0.0651679 -1.57465 0
M  V30 3653 C 335.297 0.764193 -1.87851 0
M  V30 3654 C 335.63 1.76889 -0.801495 0
M  V30 3655 O 334.905 1.93594 0.187528 0
M  V30 3656 C 335.188 1.46625 -3.28897 0
M  V30 3657 C 335.041 0.477515 -4.47258 0
M  V30 3658 C 336.36 2.4095 -3.68281 0
M  V30 3659 H 333.479 0.276351 -0.683227 0
M  V30 3660 H 336.121 0.0272868 -1.8998 0
M  V30 3661 H 334.271 2.09438 -3.27212 0
M  V30 3662 H 335.943 -0.145922 -4.61069 0
M  V30 3663 H 334.186 -0.206576 -4.33308 0
M  V30 3664 H 334.857 1.0065 -5.42746 0
M  V30 3665 H 337.333 1.88209 -3.71102 0
M  V30 3666 H 336.209 2.87072 -4.67847 0
M  V30 3667 H 336.47 3.26049 -2.98571 0
M  V30 3668 N 335.529 1.53961 0.336706 0
M  V30 3669 C 336.461 1.78751 1.4346 0
M  V30 3670 C 337.474 0.669019 1.48418 0
M  V30 3671 O 338.663 0.945884 1.51378 0
M  V30 3672 C 335.763 1.87844 2.82078 0
M  V30 3673 C 334.936 3.17854 3.00479 0
M  V30 3674 C 333.995 3.17816 4.19379 0
M  V30 3675 O 333.021 3.91511 4.13168 0
M  V30 3676 N 334.223 2.40669 5.2826 0
M  V30 3677 H 336.988 2.73493 1.22563 0
M  V30 3678 H 334.549 1.53096 0.526625 0
M  V30 3679 H 336.541 1.85261 3.59806 0
M  V30 3680 H 335.111 1.00257 2.96086 0
M  V30 3681 H 334.331 3.33504 2.10163 0
M  V30 3682 H 335.619 4.03718 3.0966 0
M  V30 3683 H 335.017 1.8036 5.36178 0
M  V30 3684 H 333.574 2.43877 6.04456 0
M  V30 3685 N 337.007 -0.598083 1.45811 0
M  V30 3686 C 338.284 -1.35777 1.40797 0
M  V30 3687 C 338.664 -2.10935 0.083462 0
M  V30 3688 O 338.012 -2.08505 -0.934763 0
M  V30 3689 C 338.222 -2.29666 2.62783 0
M  V30 3690 C 339.57 -2.91977 3.08277 0
M  V30 3691 O 340.594 -2.39984 2.63223 0
M  V30 3692 O 339.453 -3.86376 3.86491 0
M  V30 3693 H 336.547 -0.609291 0.55919 0
M  V30 3694 H 339.093 -0.620379 1.57954 0
M  V30 3695 H 337.865 -1.73454 3.50756 0
M  V30 3696 H 337.488 -3.1077 2.48008 0
M  V30 3697 N 338.485 -1.33259 -0.841409 0
M  V30 3698 C 339.432 -1.23302 -1.95103 0
M  V30 3699 C 340.402 -0.112204 -1.65721 0
M  V30 3700 O 341.587 -0.290038 -1.88583 0
M  V30 3701 C 338.727 -0.975583 -3.31023 0
M  V30 3702 C 337.84 -2.18243 -3.72819 0
M  V30 3703 C 336.975 -1.85936 -4.97595 0
M  V30 3704 C 336.014 -3.02866 -5.3192 0
M  V30 3705 N 335.151 -2.70565 -6.47873 0
M  V30 3706 H 339.991 -2.18207 -2.02952 0
M  V30 3707 H 337.528 -1.0851 -0.993173 0
M  V30 3708 H 339.486 -0.80677 -4.09325 0
M  V30 3709 H 338.116 -0.0632755 -3.22738 0
M  V30 3710 H 337.168 -2.46107 -2.90061 0
M  V30 3711 H 338.48 -3.05666 -3.94169 0
M  V30 3712 H 337.634 -1.65684 -5.83638 0
M  V30 3713 H 336.373 -0.957452 -4.78209 0
M  V30 3714 H 335.378 -3.23736 -4.44382 0
M  V30 3715 H 336.603 -3.93809 -5.53255 0
M  V30 3716 H 334.549 -1.8293 -6.29978 0
M  V30 3717 H 334.466 -3.51519 -6.69306 0
M  V30 3718 H 335.734 -2.53774 -7.37034 0
M  V30 3719 N 339.963 1.05934 -1.16686 0
M  V30 3720 C 341.193 1.82226 -0.973515 0
M  V30 3721 C 341.601 1.8297 0.481532 0
M  V30 3722 O 340.944 1.25009 1.34604 0
M  V30 3723 C 341.006 3.29897 -1.42858 0
M  V30 3724 C 340.67 3.52849 -2.90425 0
M  V30 3725 C 341.667 3.45595 -3.88407 0
M  V30 3726 C 339.352 3.80053 -3.28428 0
M  V30 3727 C 341.346 3.65217 -5.22394 0
M  V30 3728 C 339.033 3.99325 -4.62583 0
M  V30 3729 C 340.031 3.91905 -5.59374 0
M  V30 3730 O 339.719 4.10647 -6.91104 0
M  V30 3731 H 339.451 0.581314 -0.345036 0
M  V30 3732 H 342.005 1.3453 -1.55212 0
M  V30 3733 H 340.235 3.78472 -0.793477 0
M  V30 3734 H 341.924 3.87692 -1.20207 0
M  V30 3735 H 342.69 3.24564 -3.60393 0
M  V30 3736 H 338.569 3.84936 -2.53664 0
M  V30 3737 H 342.113 3.59341 -5.9793 0
M  V30 3738 H 338.01 4.19846 -4.90306 0
M  V30 3739 H 338.778 4.27915 -6.97733 0
M  V30 3740 N 341.441 0.965919 1.2453 0
M  V30 3741 C 342.388 0.49402 2.25451 0
M  V30 3742 C 343.358 -0.45948 1.59618 0
M  V30 3743 O 344.543 -0.370238 1.87173 0
M  V30 3744 C 341.683 -0.211359 3.44452 0
M  V30 3745 C 340.796 0.7807 4.24887 0
M  V30 3746 C 339.931 0.0516105 5.31175 0
M  V30 3747 C 338.97 1.03385 6.03306 0
M  V30 3748 N 338.107 0.334887 7.01301 0
M  V30 3749 H 342.947 1.35946 2.65184 0
M  V30 3750 H 340.484 0.681515 1.3036 0
M  V30 3751 H 342.442 -0.637 4.12308 0
M  V30 3752 H 341.072 -1.04077 3.05562 0
M  V30 3753 H 340.124 1.32479 3.56586 0
M  V30 3754 H 341.436 1.52978 4.74762 0
M  V30 3755 H 340.59 -0.432114 6.05159 0
M  V30 3756 H 339.329 -0.730179 4.82203 0
M  V30 3757 H 338.334 1.52847 5.28127 0
M  V30 3758 H 339.559 1.81606 6.54367 0
M  V30 3759 H 337.505 -0.427959 6.54603 0
M  V30 3760 H 337.422 1.02287 7.49048 0
M  V30 3761 H 338.69 -0.126928 7.79397 0
M  V30 3762 N 342.919 -1.39368 0.735821 0
M  V30 3763 C 344.165 -2.00794 0.284544 0
M  V30 3764 C 344.498 -1.58255 -1.12557 0
M  V30 3765 O 343.773 -0.811819 -1.76748 0
M  V30 3766 C 344.056 -3.58011 0.387337 0
M  V30 3767 C 343.909 -4.10566 1.83728 0
M  V30 3768 C 345.228 -4.395 -0.22975 0
M  V30 3769 H 342.347 -0.729501 0.104866 0
M  V30 3770 H 344.989 -1.65564 0.93213 0
M  V30 3771 H 343.139 -3.88154 -0.164006 0
M  V30 3772 H 344.811 -3.91139 2.44556 0
M  V30 3773 H 343.054 -3.64095 2.35833 0
M  V30 3774 H 343.725 -5.19702 1.86047 0
M  V30 3775 H 346.201 -4.15406 0.240257 0
M  V30 3776 H 345.077 -5.48752 -0.127485 0
M  V30 3777 H 345.338 -4.22062 -1.3159 0
M  V30 3778 N 344.397 -0.483516 -1.5 0
M  V30 3779 C 345.622 0.0667119 -2.07293 0
M  V30 3780 C 346.047 1.3164 -1.3436 0
M  V30 3781 O 345.405 1.76945 -0.394987 0
M  V30 3782 C 345.453 0.321126 -3.59167 0
M  V30 3783 O 344.557 1.39927 -3.87936 0
M  V30 3784 H 343.898 -0.0184758 -0.663743 0
M  V30 3785 H 346.428 -0.678125 -1.93035 0
M  V30 3786 H 346.438 0.557906 -4.04168 0
M  V30 3787 H 345.113 -0.592007 -4.11665 0
M  V30 3788 H 343.69 1.14882 -3.54763 0
M  V30 3789 N 345.875 1.56104 -0.216619 0
M  V30 3790 C 347.105 2.02269 0.420802 0
M  V30 3791 C 347.513 1.09575 1.5424 0
M  V30 3792 O 346.856 0.0967308 1.83445 0
M  V30 3793 C 346.918 3.44784 1.01806 0
M  V30 3794 C 346.582 4.56988 0.0325154 0
M  V30 3795 C 347.579 5.14225 -0.766055 0
M  V30 3796 C 345.264 5.02228 -0.0848092 0
M  V30 3797 C 347.258 6.15169 -1.6687 0
M  V30 3798 C 344.945 6.03011 -0.990994 0
M  V30 3799 C 345.943 6.59357 -1.78149 0
M  V30 3800 O 345.631 7.58179 -2.67245 0
M  V30 3801 H 345.363 0.667353 0.107776 0
M  V30 3802 H 347.917 2.02747 -0.329034 0
M  V30 3803 H 346.147 3.41359 1.81689 0
M  V30 3804 H 347.836 3.74626 1.56237 0
M  V30 3805 H 348.602 4.80126 -0.685836 0
M  V30 3806 H 344.481 4.58054 0.520349 0
M  V30 3807 H 348.025 6.59076 -2.28615 0
M  V30 3808 H 343.922 6.36532 -1.07225 0
M  V30 3809 H 344.69 7.75682 -2.61265 0
M  V30 3810 N 347.353 -0.0568162 1.57498 0
M  V30 3811 C 348.63 -0.786954 1.79071 0
M  V30 3812 C 349.01 -1.95028 0.80792 0
M  V30 3813 O 348.358 -2.27968 -0.155858 0
M  V30 3814 C 348.568 -1.24594 3.26002 0
M  V30 3815 C 349.916 -1.67323 3.90241 0
M  V30 3816 O 350.94 -1.34124 3.29984 0
M  V30 3817 O 349.799 -2.28842 4.9628 0
M  V30 3818 H 346.893 -0.378262 0.735423 0
M  V30 3819 H 349.439 -0.035734 1.69662 0
M  V30 3820 H 348.211 -0.41423 3.89101 0
M  V30 3821 H 347.834 -2.05803 3.40192 0
M  V30 3822 N 348.832 -1.54138 -0.328536 0
M  V30 3823 C 349.742 -1.86192 -1.42723 0
M  V30 3824 C 350.758 -0.753382 -1.56844 0
M  V30 3825 O 351.934 -1.04718 -1.72035 0
M  V30 3826 C 348.999 -2.07824 -2.77507 0
M  V30 3827 C 348.06 -3.31641 -2.72603 0
M  V30 3828 C 347.293 -3.52232 -4.00959 0
M  V30 3829 O 347.516 -2.7636 -4.9898 0
M  V30 3830 O 346.45 -4.45699 -4.0452 0
M  V30 3831 H 350.276 -2.79608 -1.18547 0
M  V30 3832 H 347.861 -1.3998 -0.522104 0
M  V30 3833 H 349.743 -2.23411 -3.57303 0
M  V30 3834 H 348.418 -1.17596 -3.01584 0
M  V30 3835 H 347.325 -3.21444 -1.91376 0
M  V30 3836 H 348.658 -4.2191 -2.53481 0
M  V30 3837 N 350.31 0.590341 -1.46126 0
M  V30 3838 C 351.257 1.69994 -1.56111 0
M  V30 3839 C 352.227 1.61065 -0.405867 0
M  V30 3840 O 353.412 1.8039 -0.621613 0
M  V30 3841 C 350.552 3.08326 -1.55013 0
M  V30 3842 C 349.665 3.27936 -2.81215 0
M  V30 3843 C 348.8 4.56473 -2.71673 0
M  V30 3844 C 347.839 4.694 -3.92849 0
M  V30 3845 N 346.976 5.89254 -3.81738 0
M  V30 3846 H 351.816 1.60797 -2.50895 0
M  V30 3847 H 349.353 0.783799 -1.24479 0
M  V30 3848 H 351.311 3.88383 -1.52362 0
M  V30 3849 H 349.941 3.16439 -0.637667 0
M  V30 3850 H 348.993 2.41536 -2.93879 0
M  V30 3851 H 350.305 3.33357 -3.71045 0
M  V30 3852 H 349.459 5.44748 -2.67085 0
M  V30 3853 H 348.198 4.53477 -1.7947 0
M  V30 3854 H 347.203 3.79544 -3.97777 0
M  V30 3855 H 348.428 4.7418 -4.86138 0
M  V30 3856 H 346.374 5.87271 -2.92317 0
M  V30 3857 H 346.291 5.95911 -4.65217 0
M  V30 3858 H 347.559 6.79981 -3.81112 0
M  V30 3859 N 351.788 1.33704 0.83433 0
M  V30 3860 C 353.034 1.25603 1.59222 0
M  V30 3861 C 353.367 -0.176659 1.93395 0
M  V30 3862 O 352.642 -1.11915 1.59076 0
M  V30 3863 C 352.925 2.13576 2.89926 0
M  V30 3864 C 352.778 3.65326 2.62406 0
M  V30 3865 C 354.097 2.01238 3.91397 0
M  V30 3866 H 351.216 0.457613 0.577719 0
M  V30 3867 H 353.858 1.63848 0.961972 0
M  V30 3868 H 352.008 1.8109 3.43713 0
M  V30 3869 H 353.68 4.08124 2.15017 0
M  V30 3870 H 351.923 3.8698 1.96033 0
M  V30 3871 H 352.594 4.22232 3.55562 0
M  V30 3872 H 355.07 2.29738 3.46929 0
M  V30 3873 H 353.946 2.65036 4.80673 0
M  V30 3874 H 354.207 0.985951 4.30966 0
M  V30 3875 N 353.266 -1.05314 1.17247 0
M  V30 3876 C 354.213 -2.13031 0.888058 0
M  V30 3877 C 355.183 -1.65253 -0.167537 0
M  V30 3878 O 356.368 -1.90775 -0.0305974 0
M  V30 3879 C 353.508 -3.42702 0.406147 0
M  V30 3880 C 352.621 -4.04161 1.52572 0
M  V30 3881 C 351.756 -5.21744 0.997808 0
M  V30 3882 C 350.795 -5.75207 2.09291 0
M  V30 3883 N 349.932 -6.84094 1.57986 0
M  V30 3884 H 354.772 -2.36698 1.81048 0
M  V30 3885 H 352.309 -1.16121 0.903013 0
M  V30 3886 H 354.267 -4.17059 0.108305 0
M  V30 3887 H 352.897 -3.19222 -0.479313 0
M  V30 3888 H 351.949 -3.27253 1.93931 0
M  V30 3889 H 353.261 -4.39881 2.35172 0
M  V30 3890 H 352.415 -6.03168 0.653739 0
M  V30 3891 H 351.154 -4.87495 0.141232 0
M  V30 3892 H 350.159 -4.92414 2.44557 0
M  V30 3893 H 351.384 -6.11505 2.95362 0
M  V30 3894 H 349.33 -6.51745 0.74598 0
M  V30 3895 H 349.247 -7.18811 2.34195 0
M  V30 3896 H 350.515 -7.69172 1.26468 0
M  V30 3897 N 354.744 -0.972509 -1.24016 0
M  V30 3898 C 355.969 -0.654417 -1.96805 0
M  V30 3899 C 356.394 0.770398 -1.716 0
M  V30 3900 O 355.752 1.52361 -0.982647 0
M  V30 3901 C 355.8 -0.941031 -3.48105 0
M  V30 3902 O 354.904 -0.0289472 -4.1239 0
M  V30 3903 H 354.245 -0.24692 -0.616382 0
M  V30 3904 H 356.775 -1.30396 -1.57664 0
M  V30 3905 H 356.785 -0.87452 -3.98517 0
M  V30 3906 H 355.46 -1.97939 -3.65777 0
M  V30 3907 H 354.037 -0.149192 -3.72601 0
M  V30 3908 N 356.222 1.38976 -0.743202 0
M  V30 3909 C 357.471 1.99581 -0.291592 0
M  V30 3910 C 357.784 1.59656 1.13001 0
M  V30 3911 O 358.99 2.13157 1.68156 0
M  V30 3912 C 357.446 3.56813 -0.470391 0
M  V30 3913 C 357.054 4.05695 -1.90041 0
M  V30 3914 C 358.798 4.24423 -0.0809709 0
M  V30 3915 C 356.705 5.5553 -2.02832 0
M  V30 3916 H 355.635 0.746615 -0.105272 0
M  V30 3917 H 358.286 1.58872 -0.918258 0
M  V30 3918 H 356.668 3.95359 0.225299 0
M  V30 3919 H 357.842 3.78464 -2.62872 0
M  V30 3920 H 356.157 3.50775 -2.24379 0
M  V30 3921 H 358.754 5.34474 -0.155445 0
M  V30 3922 H 359.097 4.04962 0.96497 0
M  V30 3923 H 359.63 3.9108 -0.728124 0
M  V30 3924 H 356.369 5.79881 -3.05643 0
M  V30 3925 H 355.889 5.84537 -1.34448 0
M  V30 3926 H 357.568 6.21069 -1.81335 0
M  V30 3927 N 357.7 0.491464 1.49741 0
M  V30 3928 C 358.647 -0.292027 2.28945 0
M  V30 3929 C 359.617 -0.968973 1.34908 0
M  V30 3930 O 360.802 -0.97748 1.6386 0
M  V30 3931 C 357.942 -1.35617 3.17336 0
M  V30 3932 C 357.055 -0.691957 4.26422 0
M  V30 3933 C 356.19 -1.73572 5.02042 0
M  V30 3934 C 355.229 -1.05286 6.02977 0
M  V30 3935 N 354.366 -2.0404 6.71798 0
M  V30 3936 H 359.206 0.389654 2.95442 0
M  V30 3937 H 356.743 0.204003 1.45679 0
M  V30 3938 H 358.701 -1.98502 3.66951 0
M  V30 3939 H 357.331 -2.00674 2.52844 0
M  V30 3940 H 356.383 0.0499523 3.80367 0
M  V30 3941 H 357.695 -0.153946 4.98562 0
M  V30 3942 H 356.849 -2.43987 5.55478 0
M  V30 3943 H 355.588 -2.30757 4.29654 0
M  V30 3944 H 354.593 -0.334446 5.48782 0
M  V30 3945 H 355.818 -0.487636 6.77347 0
M  V30 3946 H 353.764 -2.60205 6.02187 0
M  V30 3947 H 353.681 -1.55279 7.39881 0
M  V30 3948 H 354.949 -2.73772 7.29842 0
M  V30 3949 N 359.178 -1.55987 0.224894 0
M  V30 3950 C 360.455 -1.90232 -0.455083 0
M  V30 3951 C 360.835 -1.14269 -1.77499 0
M  V30 3952 O 360.183 -0.253079 -2.27094 0
M  V30 3953 C 360.393 -3.42993 -0.644758 0
M  V30 3954 C 361.741 -4.13821 -0.950669 0
M  V30 3955 O 362.765 -3.4861 -0.731423 0
M  V30 3956 O 361.624 -5.29128 -1.36695 0
M  V30 3957 H 358.718 -0.79108 -0.241084 0
M  V30 3958 H 361.264 -1.67581 0.267327 0
M  V30 3959 H 360.036 -3.90252 0.28613 0
M  V30 3960 H 359.659 -3.71434 -1.41853 0
M  V30 3961 N 360.656 0.0484629 -1.57525 0
M  V30 3962 C 361.884 0.755421 -1.92616 0
M  V30 3963 C 362.299 1.69919 -0.822984 0
M  V30 3964 O 361.656 1.81378 0.202085 0
M  V30 3965 C 361.707 1.52915 -3.27566 0
M  V30 3966 O 361.428 0.62329 -4.33644 0
M  V30 3967 C 362.929 2.33502 -3.76818 0
M  V30 3968 H 360.149 0.213465 -0.63614 0
M  V30 3969 H 362.693 0.0117698 -2.04497 0
M  V30 3970 H 360.848 2.22486 -3.17142 0
M  V30 3971 H 361.262 1.16383 -5.11425 0
M  V30 3972 H 362.736 2.83214 -4.73808 0
M  V30 3973 H 363.213 3.14068 -3.07014 0
M  V30 3974 H 363.819 1.69043 -3.90262 0
M  V30 3975 N 362.134 1.5431 0.320358 0
M  V30 3976 C 363.067 1.78769 1.41834 0
M  V30 3977 C 364.045 0.63783 1.49568 0
M  V30 3978 O 365.229 0.875628 1.66928 0
M  V30 3979 C 362.356 1.90712 2.79905 0
M  V30 3980 C 361.402 3.13023 2.89687 0
M  V30 3981 S 362.235 4.71554 2.53766 0
M  V30 3982 C 363.391 4.86408 3.93902 0
M  V30 3983 H 363.624 2.71619 1.20874 0
M  V30 3984 H 361.157 1.45474 0.517377 0
M  V30 3985 H 363.115 1.98279 3.59438 0
M  V30 3986 H 361.776 0.988343 2.98145 0
M  V30 3987 H 360.969 3.18124 3.90913 0
M  V30 3988 H 360.571 3.03803 2.18128 0
M  V30 3989 H 362.863 4.69241 4.88691 0
M  V30 3990 H 363.806 5.88508 3.93782 0
M  V30 3991 H 364.214 4.14689 3.83005 0
M  V30 3992 N 363.613 -0.582584 1.46437 0
M  V30 3993 C 364.89 -1.34276 1.4223 0
M  V30 3994 C 365.27 -2.10835 0.10583 0
M  V30 3995 O 364.618 -2.09485 -0.912596 0
M  V30 3996 C 364.828 -2.26865 2.65204 0
M  V30 3997 C 366.176 -2.88691 3.11356 0
M  V30 3998 O 367.2 -2.37178 2.65753 0
M  V30 3999 O 366.059 -3.82255 3.90568 0
M  V30 4000 H 363.153 -0.603326 0.565621 0
M  V30 4001 H 365.699 -0.603591 1.58603 0
M  V30 4002 H 364.471 -1.69724 3.52576 0
M  V30 4003 H 364.094 -3.08122 2.5129 0
M  V30 4004 N 365.091 -1.34144 -0.827227 0
M  V30 4005 C 366.001 -1.27428 -1.96975 0
M  V30 4006 C 367.017 -0.182728 -1.73038 0
M  V30 4007 O 368.193 -0.408426 -1.97215 0
M  V30 4008 C 365.258 -1.02526 -3.31194 0
M  V30 4009 C 364.319 -2.20796 -3.68168 0
M  V30 4010 C 363.552 -1.97073 -4.95982 0
M  V30 4011 O 363.775 -0.926822 -5.6282 0
M  V30 4012 O 362.709 -2.83912 -5.30733 0
M  V30 4013 H 366.535 -2.23537 -2.05584 0
M  V30 4014 H 364.12 -1.14307 -0.961989 0
M  V30 4015 H 366.002 -0.904026 -4.11589 0
M  V30 4016 H 364.677 -0.0945389 -3.23562 0
M  V30 4017 H 363.584 -2.38477 -2.88235 0
M  V30 4018 H 364.917 -3.12243 -3.8048 0
M  V30 4019 N 366.569 1.04691 -1.17803 0
M  V30 4020 C 367.797 1.81446 -0.99423 0
M  V30 4021 C 368.212 1.83174 0.457459 0
M  V30 4022 O 367.569 1.26265 1.31771 0
M  V30 4023 C 367.62 3.27334 -1.5341 0
M  V30 4024 O 367.341 3.25798 -2.92895 0
M  V30 4025 C 368.842 4.20759 -1.39559 0
M  V30 4026 H 366.062 0.571599 -0.351447 0
M  V30 4027 H 368.606 1.31982 -1.56208 0
M  V30 4028 H 366.761 3.74052 -1.00815 0
M  V30 4029 H 367.175 4.17144 -3.17949 0
M  V30 4030 H 368.649 5.21084 -1.82141 0
M  V30 4031 H 369.126 4.37856 -0.343394 0
M  V30 4032 H 369.732 3.79901 -1.91195 0
M  V30 4033 N 368.047 0.979072 1.23499 0
M  V30 4034 C 368.98 0.463027 2.23453 0
M  V30 4035 C 369.958 -0.469128 1.55685 0
M  V30 4036 O 371.142 -0.397882 1.84253 0
M  V30 4037 C 368.269 -0.330308 3.37086 0
M  V30 4038 C 367.315 0.545795 4.22993 0
M  V30 4039 S 368.148 1.99285 4.97037 0
M  V30 4040 C 369.304 1.20862 6.1412 0
M  V30 4041 H 369.537 1.31005 2.6688 0
M  V30 4042 H 367.07 0.784965 1.32957 0
M  V30 4043 H 369.028 -0.782027 4.02982 0
M  V30 4044 H 367.689 -1.15244 2.92194 0
M  V30 4045 H 366.882 -0.0638928 5.03959 0
M  V30 4046 H 366.484 0.933705 3.62157 0
M  V30 4047 H 368.776 0.469284 6.75873 0
M  V30 4048 H 369.719 1.99307 6.79472 0
M  V30 4049 H 370.127 0.727992 5.59786 0
M  V30 4050 N 369.525 -1.3858 0.750561 0
M  V30 4051 C 370.473 -2.32339 0.110162 0
M  V30 4052 C 371.467 -1.53864 -0.708674 0
M  V30 4053 O 372.673 -1.69417 -0.608112 0
M  V30 4054 H 369.048 -0.751812 0.0168275 0
M  V30 4055 H 371.019 -2.83959 0.917053 0
M  V30 4056 C 369.768 -3.39043 -0.771067 0
M  V30 4057 H 369.091 -3.99517 -0.150374 0
M  V30 4058 H 370.531 -4.07061 -1.1865 0
M  V30 4059 C 368.99 -2.77365 -1.91234 0
M  V30 4060 O 369.52 -2.66434 -3.00626 0
M  V30 4061 N 367.726 -2.35219 -1.70646 0
M  V30 4062 H 367.273 -2.4431 -0.81673 0
M  V30 4063 H 367.231 -1.94294 -2.47178 0
M  V30 4064 N 371.003 -0.499398 -1.49478 0
M  V30 4065 C 371.951 0.293604 -2.3074 0
M  V30 4066 C 372.945 0.96427 -1.39277 0
M  V30 4067 O 374.151 0.892141 -1.56336 0
M  V30 4068 H 370.526 0.113541 -0.743379 0
M  V30 4069 H 372.497 -0.411772 -2.95545 0
M  V30 4070 C 371.246 1.3462 -3.20582 0
M  V30 4071 H 370.569 0.83954 -3.90886 0
M  V30 4072 H 372.009 1.87308 -3.80384 0
M  V30 4073 C 370.468 2.36351 -2.40083 0
M  V30 4074 O 370.998 3.422 -2.10385 0
M  V30 4075 N 369.204 2.0878 -2.02137 0
M  V30 4076 H 368.751 1.22723 -2.26488 0
M  V30 4077 H 368.709 2.77075 -1.48583 0
M  V30 4078 N 372.481 1.55866 -0.233164 0
M  V30 4079 C 373.706 2.03449 0.402906 0
M  V30 4080 C 374.131 1.11166 1.51736 0
M  V30 4081 O 373.489 0.101996 1.81013 0
M  V30 4082 C 373.537 3.49165 0.9009 0
M  V30 4083 O 372.641 3.60019 2.01147 0
M  V30 4084 H 371.982 0.657913 0.0897025 0
M  V30 4085 H 374.512 2.01493 -0.355201 0
M  V30 4086 H 374.522 3.89716 1.2077 0
M  V30 4087 H 373.197 4.15813 0.0852889 0
M  V30 4088 H 371.774 3.3136 1.71042 0
M  V30 4089 N 373.959 -0.0401083 1.57549 0
M  V30 4090 C 374.869 -1.06133 2.0922 0
M  V30 4091 C 375.885 -1.40356 1.0284 0
M  V30 4092 O 377.061 -1.49897 1.34509 0
M  V30 4093 C 374.126 -2.34658 2.55218 0
M  V30 4094 C 373.187 -2.07117 3.76033 0
M  V30 4095 C 372.42 -3.29514 4.19829 0
M  V30 4096 O 372.643 -4.39794 3.63232 0
M  V30 4097 O 371.577 -3.15863 5.12362 0
M  V30 4098 H 375.403 -0.652244 2.96613 0
M  V30 4099 H 372.988 -0.256368 1.47184 0
M  V30 4100 H 374.87 -3.10239 2.85184 0
M  V30 4101 H 373.545 -2.74883 1.70941 0
M  V30 4102 H 372.452 -1.29139 3.51104 0
M  V30 4103 H 373.785 -1.71754 4.61261 0
M  V30 4104 N 375.437 -1.54477 -0.31217 0
M  V30 4105 C 376.714 -1.63891 -1.06767 0
M  V30 4106 C 377.094 -0.480028 -2.0557 0
M  V30 4107 O 376.442 0.524487 -2.22399 0
M  V30 4108 C 376.652 -3.01402 -1.75948 0
M  V30 4109 C 378 -3.57838 -2.28554 0
M  V30 4110 O 379.024 -3.03782 -1.85998 0
M  V30 4111 O 377.883 -4.52462 -3.06497 0
M  V30 4112 H 374.977 -0.664125 -0.492816 0
M  V30 4113 H 377.523 -1.66823 -0.311149 0
M  V30 4114 H 376.295 -3.77187 -1.04144 0
M  V30 4115 H 375.918 -3.02199 -2.58383 0
M  V30 4116 N 376.915 0.57481 -1.46744 0
M  V30 4117 C 377.845 1.69337 -1.60771 0
M  V30 4118 C 378.826 1.63825 -0.457736 0
M  V30 4119 O 380.011 1.8172 -0.684947 0
M  V30 4120 C 377.141 3.0798 -1.60517 0
M  V30 4121 C 376.095 3.28327 -2.74564 0
M  V30 4122 C 375.421 4.67578 -2.59373 0
M  V30 4123 C 376.721 3.15398 -4.16319 0
M  V30 4124 H 378.415 1.57853 -2.54407 0
M  V30 4125 H 375.961 0.75799 -1.22436 0
M  V30 4126 H 377.914 3.86061 -1.68923 0
M  V30 4127 H 376.638 3.20381 -0.634305 0
M  V30 4128 H 375.297 2.52649 -2.65639 0
M  V30 4129 H 374.945 4.76755 -1.60353 0
M  V30 4130 H 374.645 4.82144 -3.35873 0
M  V30 4131 H 376.169 5.47817 -2.69682 0
M  V30 4132 H 377.583 3.83315 -4.26313 0
M  V30 4133 H 375.98 3.41482 -4.93468 0
M  V30 4134 H 377.05 2.12372 -4.3592 0
M  V30 4135 N 378.394 1.34581 0.820102 0
M  V30 4136 C 379.342 1.26401 1.95258 0
M  V30 4137 C 380.336 0.161553 1.68628 0
M  V30 4138 O 381.542 0.326703 1.7701 0
M  V30 4139 H 377.917 0.392749 0.64129 0
M  V30 4140 H 379.888 2.22105 1.99279 0
M  V30 4141 C 378.637 1.03919 3.31807 0
M  V30 4142 H 377.96 1.87984 3.52848 0
M  V30 4143 H 379.4 1.02232 4.11491 0
M  V30 4144 C 377.859 -0.257433 3.35915 0
M  V30 4145 O 378.389 -1.25784 3.81499 0
M  V30 4146 N 376.595 -0.291524 2.89134 0
M  V30 4147 H 376.142 0.523161 2.52232 0
M  V30 4148 H 376.1 -1.15883 2.92264 0
M  V30 4149 N 379.872 -1.04064 1.18357 0
M  V30 4150 C 380.822 -2.10393 0.878561 0
M  V30 4151 C 381.806 -1.60183 -0.151713 0
M  V30 4152 O 382.998 -1.76923 0.0523303 0
M  V30 4153 C 380.127 -3.4089 0.406096 0
M  V30 4154 C 379.213 -3.97866 1.46844 0
M  V30 4155 N 379.604 -4.28657 2.68489 0
M  V30 4156 C 377.902 -4.2574 1.32896 0
M  V30 4157 C 378.603 -4.74253 3.36836 0
M  V30 4158 N 377.579 -4.75068 2.64219 0
M  V30 4159 H 381.381 -2.32076 1.80327 0
M  V30 4160 H 378.895 -1.21818 1.07397 0
M  V30 4161 H 380.892 -4.16557 0.169088 0
M  V30 4162 H 379.552 -3.20633 -0.512275 0
M  V30 4163 H 380.563 -4.18304 3.05356 0
M  V30 4164 H 377.24 -4.1481 0.473134 0
M  V30 4165 H 378.63 -5.07096 4.40798 0
M  V30 4166 N 381.35 -0.985608 -1.22978 0
M  V30 4167 C 382.28 -0.549649 -2.26939 0
M  V30 4168 C 383.261 0.419803 -1.64838 0
M  V30 4169 O 384.446 0.31203 -1.91677 0
M  V30 4170 C 381.576 0.143652 -3.47003 0
M  V30 4171 C 380.53 -0.743606 -4.21491 0
M  V30 4172 C 379.856 0.0822027 -5.34637 0
M  V30 4173 C 381.156 -2.03694 -4.80943 0
M  V30 4174 H 382.85 -1.41862 -2.63658 0
M  V30 4175 H 380.396 -0.683571 -1.26741 0
M  V30 4176 H 382.349 0.459985 -4.18882 0
M  V30 4177 H 381.073 1.04711 -3.09359 0
M  V30 4178 H 379.732 -1.04347 -3.51436 0
M  V30 4179 H 379.38 0.986359 -4.93234 0
M  V30 4180 H 379.08 -0.508377 -5.85397 0
M  V30 4181 H 380.604 0.392797 -6.09335 0
M  V30 4182 H 382.018 -1.78504 -5.44802 0
M  V30 4183 H 380.415 -2.57573 -5.42011 0
M  V30 4184 H 381.485 -2.72042 -4.01399 0
M  V30 4185 N 382.828 1.3818 -0.7579 0
M  V30 4186 C 384.058 2.04004 -0.326463 0
M  V30 4187 C 384.466 1.57286 1.05156 0
M  V30 4188 O 383.809 0.743144 1.67997 0
M  V30 4189 C 383.871 3.58444 -0.275402 0
M  V30 4190 C 383.535 4.28237 -1.59569 0
M  V30 4191 C 384.532 4.53312 -2.54566 0
M  V30 4192 C 382.217 4.66341 -1.86631 0
M  V30 4193 C 384.211 5.15531 -3.74842 0
M  V30 4194 C 381.898 5.28283 -3.0718 0
M  V30 4195 C 382.896 5.52814 -4.01106 0
M  V30 4196 O 382.584 6.13465 -5.19534 0
M  V30 4197 H 382.316 0.662026 -0.136739 0
M  V30 4198 H 384.87 1.7777 -1.02893 0
M  V30 4199 H 383.1 3.83667 0.483337 0
M  V30 4200 H 384.789 4.05701 0.127099 0
M  V30 4201 H 385.555 4.24299 -2.34936 0
M  V30 4202 H 381.434 4.46591 -1.14358 0
M  V30 4203 H 384.978 5.34594 -4.48168 0
M  V30 4204 H 380.875 5.56719 -3.26702 0
M  V30 4205 H 381.643 6.31951 -5.20173 0
M  V30 4206 N 384.306 0.507319 1.49211 0
M  V30 4207 C 385.555 -0.0368315 2.01666 0
M  V30 4208 C 385.868 -1.37459 1.39156 0
M  V30 4209 O 387.074 -2.00579 1.82976 0
M  V30 4210 C 385.53 -0.116089 3.59713 0
M  V30 4211 C 385.138 1.2154 4.31198 0
M  V30 4212 C 386.882 -0.610268 4.2009 0
M  V30 4213 C 384.789 1.09796 5.81119 0
M  V30 4214 H 383.719 -0.0175376 0.753796 0
M  V30 4215 H 386.37 0.647691 1.71689 0
M  V30 4216 H 384.752 -0.8652 3.86433 0
M  V30 4217 H 385.926 1.9783 4.16173 0
M  V30 4218 H 384.241 1.64352 3.82593 0
M  V30 4219 H 386.838 -0.715742 5.29888 0
M  V30 4220 H 387.181 -1.61064 3.8388 0
M  V30 4221 H 387.714 0.0824916 3.97714 0
M  V30 4222 H 384.453 2.0728 6.21864 0
M  V30 4223 H 383.973 0.376058 5.9862 0
M  V30 4224 H 385.652 0.779281 6.4229 0
M  V30 4225 N 385.784 -1.5574 0.241426 0
M  V30 4226 C 386.732 -2.22538 -0.676718 0
M  V30 4227 C 387.726 -1.21117 -1.18436 0
M  V30 4228 O 388.932 -1.39144 -1.14188 0
M  V30 4229 H 385.307 -0.713776 -0.236701 0
M  V30 4230 H 387.278 -2.98264 -0.0901187 0
M  V30 4231 C 386.027 -2.93439 -1.86518 0
M  V30 4232 H 385.35 -3.7125 -1.4837 0
M  V30 4233 H 386.79 -3.43549 -2.48495 0
M  V30 4234 C 385.249 -1.97008 -2.73294 0
M  V30 4235 O 385.779 -1.49965 -3.72657 0
M  V30 4236 N 383.985 -1.64227 -2.39745 0
M  V30 4237 H 383.532 -2.02677 -1.58996 0
M  V30 4238 H 383.49 -0.999708 -2.98083 0
M  V30 4239 N 387.262 0.0317525 -1.57568 0
M  V30 4240 C 388.509 0.723104 -1.89149 0
M  V30 4241 C 388.837 1.75504 -0.838377 0
M  V30 4242 O 388.092 1.95037 0.160982 0
M  V30 4243 C 388.391 1.43167 -3.27472 0
M  V30 4244 C 388.057 0.535972 -4.47703 0
M  V30 4245 C 386.719 0.289262 -4.8033 0
M  V30 4246 C 389.071 -0.0826125 -5.21135 0
M  V30 4247 C 386.399 -0.584853 -5.83778 0
M  V30 4248 C 388.751 -0.944414 -6.25511 0
M  V30 4249 C 387.415 -1.20061 -6.56614 0
M  V30 4250 H 386.685 0.264602 -0.692146 0
M  V30 4251 H 389.332 -0.0169496 -1.91492 0
M  V30 4252 H 387.637 2.24497 -3.21105 0
M  V30 4253 H 389.334 1.97209 -3.49155 0
M  V30 4254 H 385.924 0.738414 -4.22191 0
M  V30 4255 H 390.108 0.0950302 -4.96209 0
M  V30 4256 H 385.364 -0.79168 -6.06253 0
M  V30 4257 H 389.538 -1.43026 -6.81554 0
M  V30 4258 H 387.165 -1.87967 -7.36595 0
M  V30 4259 N 388.74 1.54641 0.303973 0
M  V30 4260 C 389.968 1.77768 1.05858 0
M  V30 4261 C 390.383 0.535722 1.8104 0
M  V30 4262 O 389.74 -0.494337 1.75677 0
M  V30 4263 C 389.791 2.9834 2.04146 0
M  V30 4264 O 389.512 4.17736 1.32015 0
M  V30 4265 C 391.013 3.33832 2.91669 0
M  V30 4266 H 388.233 0.592961 0.314067 0
M  V30 4267 H 390.777 2.01583 0.344149 0
M  V30 4268 H 388.932 2.76742 2.71096 0
M  V30 4269 H 389.346 4.85693 1.97998 0
M  V30 4270 H 390.82 4.21448 3.56491 0
M  V30 4271 H 391.297 2.51857 3.59812 0
M  V30 4272 H 391.903 3.57579 2.30254 0
M  V30 4273 N 390.218 -0.567019 1.47046 0
M  V30 4274 C 391.443 -1.3551 1.57009 0
M  V30 4275 C 391.868 -1.86841 0.217259 0
M  V30 4276 O 391.226 -1.62435 -0.805268 0
M  V30 4277 C 391.274 -2.50777 2.5912 0
M  V30 4278 O 390.378 -3.52706 2.13711 0
M  V30 4279 H 389.719 -0.402919 0.52778 0
M  V30 4280 H 392.249 -0.686241 1.92748 0
M  V30 4281 H 392.259 -2.97481 2.79229 0
M  V30 4282 H 390.934 -2.12771 3.57353 0
M  V30 4283 H 389.511 -3.12374 2.03659 0
M  V30 4284 N 391.696 -1.35014 -0.812953 0
M  V30 4285 C 392.626 -1.30069 -1.93919 0
M  V30 4286 C 393.607 -0.176275 -1.69184 0
M  V30 4287 O 394.792 -0.370227 -1.90638 0
M  V30 4288 C 391.922 -1.06547 -3.30552 0
M  V30 4289 C 390.876 -2.15561 -3.69753 0
M  V30 4290 C 390.202 -1.77214 -5.04479 0
M  V30 4291 C 391.502 -3.57476 -3.808 0
M  V30 4292 H 393.196 -2.24303 -1.98314 0
M  V30 4293 H 390.742 -1.07977 -0.952736 0
M  V30 4294 H 392.695 -1.01729 -4.08937 0
M  V30 4295 H 391.419 -0.0875719 -3.26483 0
M  V30 4296 H 390.078 -2.19466 -2.9365 0
M  V30 4297 H 389.726 -0.780589 -4.96906 0
M  V30 4298 H 389.426 -2.50184 -5.31678 0
M  V30 4299 H 390.95 -1.7391 -5.8531 0
M  V30 4300 H 392.364 -3.55929 -4.4943 0
M  V30 4301 H 390.761 -4.29152 -4.19462 0
M  V30 4302 H 391.831 -3.94091 -2.82525 0
M  V30 4303 N 393.175 1.03435 -1.18907 0
M  V30 4304 C 394.4 1.80919 -1.01406 0
M  V30 4305 C 394.825 1.83055 0.432721 0
M  V30 4306 O 394.183 1.25252 1.31079 0
M  V30 4307 C 394.231 3.24091 -1.58105 0
M  V30 4308 O 393.335 4.04434 -0.806669 0
M  V30 4309 H 392.676 0.558709 -0.358803 0
M  V30 4310 H 395.206 1.30223 -1.57807 0
M  V30 4311 H 395.216 3.74853 -1.61087 0
M  V30 4312 H 393.891 3.21851 -2.6341 0
M  V30 4313 H 392.468 3.63091 -0.849666 0
M  V30 4314 N 394.653 0.992116 1.22453 0
M  V30 4315 C 395.878 0.685644 1.95739 0
M  V30 4316 C 396.303 -0.743 1.72804 0
M  V30 4317 O 395.661 -1.50778 1.00676 0
M  V30 4318 C 395.709 0.996293 3.46564 0
M  V30 4319 O 394.813 0.0945512 4.12292 0
M  V30 4320 H 394.154 0.256694 0.612376 0
M  V30 4321 H 396.684 1.32888 1.5557 0
M  V30 4322 H 396.694 0.93781 3.97076 0
M  V30 4323 H 395.369 2.03733 3.62582 0
M  V30 4324 H 393.946 0.208451 3.72317 0
M  V30 4325 N 396.131 -1.37776 0.765217 0
M  V30 4326 C 397.379 -1.99454 0.325943 0
M  V30 4327 C 397.7 -1.61049 -1.09947 0
M  V30 4328 O 396.97 -0.872821 -1.75381 0
M  V30 4329 H 395.55 -0.737697 0.117525 0
M  V30 4330 H 398.212 -1.68359 0.981895 0
M  V30 4331 H 397.308 -3.09547 0.398353 0
M  V30 4332 N 397.609 -0.515225 -1.4894 0
M  V30 4333 C 398.857 0.0241671 -2.02086 0
M  V30 4334 C 399.178 1.3616 -1.3959 0
M  V30 4335 O 398.448 1.87841 -0.556121 0
M  V30 4336 H 397.028 0.0119203 -0.746905 0
M  V30 4337 H 399.69 -0.675702 -1.82812 0
M  V30 4338 H 398.786 0.143385 -3.1177 0
M  V30 4339 N 399.087 1.5561 -0.249682 0
M  V30 4340 C 400.315 2.03411 0.378352 0
M  V30 4341 C 400.73 1.12886 1.51335 0
M  V30 4342 O 400.087 0.143833 1.81932 0
M  V30 4343 C 400.138 3.50537 0.88351 0
M  V30 4344 O 399.859 4.37614 -0.20626 0
M  V30 4345 C 401.36 4.14113 1.58195 0
M  V30 4346 H 398.58 0.664994 0.08958 0
M  V30 4347 H 401.124 2.01044 -0.374357 0
M  V30 4348 H 399.279 3.5343 1.58639 0
M  V30 4349 H 399.693 5.24199 0.177782 0
M  V30 4350 H 401.167 5.18741 1.8871 0
M  V30 4351 H 401.644 3.60767 2.50487 0
M  V30 4352 H 402.25 4.15151 0.923573 0
M  V30 4353 N 400.565 -0.0233959 1.57583 0
M  V30 4354 C 401.528 -1.00693 2.05897 0
M  V30 4355 C 402.528 -1.28693 0.964092 0
M  V30 4356 O 403.718 -1.23602 1.22753 0
M  V30 4357 C 400.85 -2.33825 2.4807 0
M  V30 4358 H 402.043 -0.589476 2.9405 0
M  V30 4359 H 399.596 -0.270354 1.53944 0
M  V30 4360 H 400.331 -2.80307 1.6309 0
M  V30 4361 H 400.116 -2.1483 3.2801 0
M  V30 4362 H 401.606 -3.04426 2.85857 0
M  V30 4363 N 402.043 -1.548 -0.295768 0
M  V30 4364 C 403.289 -1.75517 -1.02789 0
M  V30 4365 C 403.644 -0.537266 -1.84746 0
M  V30 4366 O 402.937 0.470299 -1.85738 0
M  V30 4367 C 403.131 -2.98797 -1.961 0
M  V30 4368 C 402.96 -4.3246 -1.23321 0
M  V30 4369 C 401.73 -4.96131 -0.95822 0
M  V30 4370 C 403.928 -5.10365 -0.635024 0
M  V30 4371 N 401.91 -6.1357 -0.201257 0
M  V30 4372 C 403.281 -6.19999 -0.0110937 0
M  V30 4373 C 405.336 -4.94957 -0.540594 0
M  V30 4374 C 404.039 -7.15904 0.698136 0
M  V30 4375 C 406.065 -5.91197 0.154992 0
M  V30 4376 C 405.427 -7.00203 0.767752 0
M  V30 4377 H 401.526 -0.694786 -0.358882 0
M  V30 4378 H 404.11 -1.92281 -0.305943 0
M  V30 4379 H 402.281 -2.83448 -2.6554 0
M  V30 4380 H 404.013 -3.08017 -2.62502 0
M  V30 4381 H 400.768 -4.56595 -1.25771 0
M  V30 4382 H 401.192 -6.76802 0.16389 0
M  V30 4383 H 405.834 -4.10803 -1.00003 0
M  V30 4384 H 403.552 -7.99595 1.16933 0
M  V30 4385 H 407.138 -5.81353 0.228069 0
M  V30 4386 H 406.018 -7.73393 1.29743 0
M  V30 4387 N 403.521 0.559213 -1.47345 0
M  V30 4388 C 404.469 1.68747 -1.60085 0
M  V30 4389 C 405.463 1.628 -0.46825 0
M  V30 4390 O 406.669 1.68009 -0.645977 0
M  V30 4391 H 403.044 0.558329 -0.503759 0
M  V30 4392 H 405.015 1.55138 -2.54902 0
M  V30 4393 C 403.764 3.07103 -1.63042 0
M  V30 4394 H 403.087 3.12361 -2.49541 0
M  V30 4395 H 404.527 3.85743 -1.76006 0
M  V30 4396 C 402.986 3.34935 -0.363357 0
M  V30 4397 O 403.516 3.98102 0.536416 0
M  V30 4398 N 401.722 2.89574 -0.244 0
M  V30 4399 H 401.269 2.38348 -0.977133 0
M  V30 4400 H 401.227 3.08566 0.602836 0
M  V30 4401 N 404.999 1.35443 0.805782 0
M  V30 4402 C 406.224 1.32037 1.59941 0
M  V30 4403 C 406.649 -0.0994215 1.87837 0
M  V30 4404 O 406.007 -1.06648 1.46615 0
M  V30 4405 C 406.055 2.13354 2.90711 0
M  V30 4406 O 405.159 1.5148 3.83572 0
M  V30 4407 H 404.5 0.452666 0.485787 0
M  V30 4408 H 407.03 1.78496 1.00002 0
M  V30 4409 H 407.04 2.25338 3.40128 0
M  V30 4410 H 405.715 3.16572 2.69732 0
M  V30 4411 H 404.292 1.4834 3.42125 0
M  V30 4412 N 406.477 -1.02803 1.19454 0
M  V30 4413 C 407.888 -1.57667 0.999899 0
M  V30 4414 C 408.239 -1.91041 -0.446956 0
M  V30 4415 O 407.364 -1.70978 -1.32648 0
M  V30 4416 C 407.959 -2.86477 1.80877 0
M  V30 4417 C 406.518 -3.37911 1.65811 0
M  V30 4418 C 405.665 -2.11343 1.79526 0
M  V30 4419 H 408.616 -0.853214 1.33813 0
M  V30 4420 H 408.637 -3.57408 1.30536 0
M  V30 4421 H 408.149 -2.62155 2.86175 0
M  V30 4422 H 406.25 -3.67218 0.63102 0
M  V30 4423 H 406.363 -4.10885 2.46395 0
M  V30 4424 H 404.727 -2.23254 1.22596 0
M  V30 4425 H 405.51 -1.89461 2.86285 0
M  V30 4426 N 407.956 -0.998596 -1.21925 0
M  V30 4427 C 409.186 -0.695276 -1.94549 0
M  V30 4428 C 409.594 0.745079 -1.73911 0
M  V30 4429 O 408.937 1.51507 -1.03881 0
M  V30 4430 C 408.999 -0.928485 -3.47303 0
M  V30 4431 C 408.663 -2.35443 -3.91683 0
M  V30 4432 C 409.66 -3.33428 -3.98901 0
M  V30 4433 C 407.345 -2.69038 -4.24174 0
M  V30 4434 C 409.339 -4.63079 -4.37992 0
M  V30 4435 C 407.026 -3.98906 -4.62944 0
M  V30 4436 C 408.024 -4.95738 -4.69822 0
M  V30 4437 O 407.712 -6.23285 -5.07711 0
M  V30 4438 H 407.444 -0.255902 -0.625692 0
M  V30 4439 H 409.998 -1.33767 -1.5587 0
M  V30 4440 H 408.228 -0.228917 -3.86022 0
M  V30 4441 H 409.917 -0.619539 -4.01144 0
M  V30 4442 H 410.683 -3.08807 -3.73983 0
M  V30 4443 H 406.562 -1.94367 -4.18022 0
M  V30 4444 H 410.106 -5.38658 -4.43275 0
M  V30 4445 H 406.003 -4.23314 -4.87314 0
M  V30 4446 H 406.771 -6.27306 -5.25766 0
M  V30 4447 N 409.434 1.37368 -0.772513 0
M  V30 4448 C 410.664 2.03647 -0.348082 0
M  V30 4449 C 411.072 1.58392 1.03482 0
M  V30 4450 O 410.415 0.760921 1.672 0
M  V30 4451 C 410.477 3.58131 -0.313404 0
M  V30 4452 C 410.141 4.2652 -1.64102 0
M  V30 4453 C 411.138 4.50587 -2.5936 0
M  V30 4454 C 408.823 4.64335 -1.91567 0
M  V30 4455 C 410.817 5.11526 -3.80289 0
M  V30 4456 C 408.504 5.24996 -3.12766 0
M  V30 4457 C 409.502 5.48529 -4.06946 0
M  V30 4458 O 409.19 6.07921 -5.26011 0
M  V30 4459 H 408.922 0.660538 -0.143753 0
M  V30 4460 H 411.476 1.76669 -1.04772 0
M  V30 4461 H 409.706 3.84159 0.442617 0
M  V30 4462 H 411.395 4.05813 0.0840613 0
M  V30 4463 H 412.161 4.21784 -2.39423 0
M  V30 4464 H 408.04 4.45353 -1.19088 0
M  V30 4465 H 411.584 5.29811 -4.53813 0
M  V30 4466 H 407.481 5.53223 -3.32588 0
M  V30 4467 H 408.249 6.26398 -5.26847 0
M  V30 4468 N 410.912 0.523116 1.48665 0
M  V30 4469 C 412.142 -0.00961724 2.06598 0
M  V30 4470 C 412.55 -1.29333 1.38093 0
M  V30 4471 O 411.893 -1.77846 0.46007 0
M  V30 4472 C 411.955 -0.311135 3.58151 0
M  V30 4473 C 411.619 0.878092 4.48485 0
M  V30 4474 C 412.616 1.77464 4.88674 0
M  V30 4475 C 410.301 1.08315 4.90483 0
M  V30 4476 C 412.295 2.86021 5.69623 0
M  V30 4477 C 409.982 2.17187 5.71203 0
M  V30 4478 C 410.98 3.05873 6.10681 0
M  V30 4479 O 410.668 4.12862 6.89783 0
M  V30 4480 H 410.4 0.0272658 0.67545 0
M  V30 4481 H 412.954 0.726156 1.92136 0
M  V30 4482 H 411.184 -1.10079 3.70701 0
M  V30 4483 H 412.873 -0.785125 3.98234 0
M  V30 4484 H 413.639 1.62813 4.56855 0
M  V30 4485 H 409.518 0.402149 4.59243 0
M  V30 4486 H 413.062 3.55272 6.00356 0
M  V30 4487 H 408.959 2.31824 6.02435 0
M  V30 4488 H 409.727 4.10487 7.08126 0
M  V30 4489 N 412.39 -1.55475 0.257931 0
M  V30 4490 C 413.353 -2.20551 -0.623706 0
M  V30 4491 C 414.353 -1.17809 -1.09443 0
M  V30 4492 O 415.543 -1.42823 -0.997362 0
M  V30 4493 C 412.675 -2.85784 -1.8585 0
M  V30 4494 H 413.868 -2.99848 -0.0557743 0
M  V30 4495 H 411.421 -1.56298 0.0084422 0
M  V30 4496 H 412.156 -2.10453 -2.46739 0
M  V30 4497 H 411.941 -3.61057 -1.52907 0
M  V30 4498 H 413.431 -3.35553 -2.48584 0
M  V30 4499 N 413.868 0.0150385 -1.57593 0
M  V30 4500 C 415.093 0.718067 -1.94573 0
M  V30 4501 C 415.518 1.6734 -0.859005 0
M  V30 4502 O 414.876 1.80362 0.184147 0
M  V30 4503 C 414.924 1.43918 -3.30636 0
M  V30 4504 O 414.028 2.55299 -3.23876 0
M  V30 4505 H 413.369 0.192125 -0.635597 0
M  V30 4506 H 415.899 -0.0336708 -2.04572 0
M  V30 4507 H 415.909 1.80598 -3.65853 0
M  V30 4508 H 414.584 0.738619 -4.09289 0
M  V30 4509 H 413.161 2.21058 -3.00312 0
M  V30 4510 N 415.346 1.54954 0.287554 0
M  V30 4511 C 416.576 1.78622 1.03816 0
M  V30 4512 C 416.984 0.552451 1.80955 0
M  V30 4513 O 416.327 -0.487665 1.77109 0
M  V30 4514 C 416.389 2.94975 2.055 0
M  V30 4515 C 416.053 4.32565 1.47433 0
M  V30 4516 C 417.05 5.12096 0.897436 0
M  V30 4517 C 414.735 4.79195 1.50591 0
M  V30 4518 C 416.729 6.36383 0.359851 0
M  V30 4519 C 414.416 6.03441 0.964459 0
M  V30 4520 C 415.414 6.81872 0.392413 0
M  V30 4521 O 415.102 8.03777 -0.140788 0
M  V30 4522 H 414.834 0.599144 0.313053 0
M  V30 4523 H 417.388 2.02761 0.328225 0
M  V30 4524 H 415.618 2.66493 2.80211 0
M  V30 4525 H 417.307 3.06097 2.6657 0
M  V30 4526 H 418.073 4.77209 0.865841 0
M  V30 4527 H 413.952 4.18167 1.94055 0
M  V30 4528 H 417.496 6.97545 -0.0872951 0
M  V30 4529 H 413.393 6.37813 0.993246 0
M  V30 4530 H 414.161 8.18495 -0.0287617 0
M  V30 4531 N 416.824 -0.551391 1.4764 0
M  V30 4532 C 418.073 -1.30467 1.53822 0
M  V30 4533 C 418.386 -1.94495 0.207661 0
M  V30 4534 O 419.592 -2.71099 0.147533 0
M  V30 4535 C 418.048 -2.36616 2.71184 0
M  V30 4536 C 417.656 -1.78754 4.10793 0
M  V30 4537 C 419.4 -3.13088 2.86663 0
M  V30 4538 C 417.307 -2.82717 5.19447 0
M  V30 4539 H 416.237 -0.490584 0.572576 0
M  V30 4540 H 418.888 -0.58494 1.73927 0
M  V30 4541 H 417.27 -3.11529 2.4447 0
M  V30 4542 H 418.444 -1.10173 4.47435 0
M  V30 4543 H 416.759 -1.14846 4.00249 0
M  V30 4544 H 419.356 -3.90736 3.65007 0
M  V30 4545 H 419.699 -3.67635 1.95321 0
M  V30 4546 H 420.232 -2.45288 3.13175 0
M  V30 4547 H 416.971 -2.33018 6.12685 0
M  V30 4548 H 416.491 -3.4969 4.87316 0
M  V30 4549 H 418.17 -3.46102 5.46646 0
M  V30 4550 N 418.302 -1.35869 -0.798587 0
M  V30 4551 C 419.25 -1.29491 -1.93222 0
M  V30 4552 C 420.244 -0.18836 -1.6835 0
M  V30 4553 O 421.45 -0.354822 -1.76468 0
M  V30 4554 H 417.825 -0.402901 -0.63496 0
M  V30 4555 H 419.796 -2.25247 -1.9572 0
M  V30 4556 C 418.545 -1.09184 -3.30112 0
M  V30 4557 H 417.868 -1.93574 -3.49813 0
M  V30 4558 H 419.308 -1.08766 -4.09812 0
M  V30 4559 C 417.767 0.203959 -3.36282 0
M  V30 4560 O 418.297 1.19699 -3.83451 0
M  V30 4561 N 416.503 0.245488 -2.89561 0
M  V30 4562 H 416.05 -0.563223 -2.51367 0
M  V30 4563 H 416.008 1.11219 -2.94071 0
M  V30 4564 N 419.78 1.02168 -1.19998 0
M  V30 4565 C 421.191 1.57135 -1.00825 0
M  V30 4566 C 421.542 1.91276 0.436818 0
M  V30 4567 O 420.667 1.71679 1.3174 0
M  V30 4568 C 421.262 2.85514 -1.82393 0
M  V30 4569 C 419.821 3.37027 -1.67601 0
M  V30 4570 C 418.968 2.10388 -1.80644 0
M  V30 4571 H 421.919 0.846106 -1.34264 0
M  V30 4572 H 421.94 3.56711 -1.32429 0
M  V30 4573 H 421.452 2.60634 -2.87561 0
M  V30 4574 H 419.553 3.66878 -0.650485 0
M  V30 4575 H 419.666 4.09572 -2.4857 0
M  V30 4576 H 418.03 2.22601 -1.23778 0
M  V30 4577 H 418.813 1.8794 -2.87286 0
M  V30 4578 N 421.258 1.00505 1.21394 0
M  V30 4579 C 422.168 0.574806 2.27449 0
M  V30 4580 C 423.184 -0.382206 1.6975 0
M  V30 4581 O 424.36 -0.246027 1.99892 0
M  V30 4582 C 421.425 -0.0917414 3.46579 0
M  V30 4583 C 420.486 0.909758 4.1955 0
M  V30 4584 C 419.719 0.274924 5.32991 0
M  V30 4585 O 419.942 -0.928254 5.62796 0
M  V30 4586 O 418.876 0.985877 5.93771 0
M  V30 4587 H 422.702 1.45744 2.66444 0
M  V30 4588 H 420.287 0.773923 1.27792 0
M  V30 4589 H 422.169 -0.464551 4.18832 0
M  V30 4590 H 420.844 -0.948755 3.09484 0
M  V30 4591 H 419.751 1.33372 3.49518 0
M  V30 4592 H 421.084 1.73636 4.60555 0
M  V30 4593 N 422.737 -1.36956 0.779787 0
M  V30 4594 C 423.986 -1.98738 0.344405 0
M  V30 4595 C 424.299 -1.62596 -1.08728 0
M  V30 4596 O 425.505 -2.1754 -1.62445 0
M  V30 4597 C 423.961 -3.5544 0.564829 0
M  V30 4598 C 423.569 -4.00514 2.0073 0
M  V30 4599 C 425.313 -4.24059 0.193471 0
M  V30 4600 C 423.22 -5.49957 2.17489 0
M  V30 4601 H 422.15 -0.743561 0.12503 0
M  V30 4602 H 424.801 -1.56381 0.960057 0
M  V30 4603 H 423.183 -3.95817 -0.120397 0
M  V30 4604 H 424.357 -3.71362 2.72814 0
M  V30 4605 H 422.672 -3.44703 2.336 0
M  V30 4606 H 425.269 -5.33874 0.297097 0
M  V30 4607 H 425.612 -4.07378 -0.857263 0
M  V30 4608 H 426.145 -3.89012 0.831556 0
M  V30 4609 H 422.884 -5.71574 3.2091 0
M  V30 4610 H 422.404 -5.80767 1.49899 0
M  V30 4611 H 424.083 -6.16043 1.97738 0
M  V30 4612 N 424.215 -0.530993 -1.48385 0
M  V30 4613 C 425.178 0.220497 -2.28137 0
M  V30 4614 C 426.178 0.866851 -1.35434 0
M  V30 4615 O 427.368 0.726746 -1.58316 0
M  V30 4616 C 424.5 1.31921 -3.1434 0
M  V30 4617 H 425.693 -0.479714 -2.96038 0
M  V30 4618 H 423.246 -0.286968 -1.53643 0
M  V30 4619 H 423.981 2.05264 -2.51072 0
M  V30 4620 H 423.766 0.86085 -3.82533 0
M  V30 4621 H 425.256 1.84776 -3.74497 0
M  V30 4622 N 425.693 1.55336 -0.266172 0
M  V30 4623 C 426.641 2.23587 0.641228 0
M  V30 4624 C 427.635 1.22986 1.16494 0
M  V30 4625 O 428.841 1.40943 1.1196 0
M  V30 4626 H 425.216 0.717452 0.225315 0
M  V30 4627 H 427.187 2.9837 0.0426561 0
M  V30 4628 C 425.936 2.96369 1.81826 0
M  V30 4629 H 425.259 3.73563 1.42445 0
M  V30 4630 H 426.699 3.47459 2.42998 0
M  V30 4631 C 425.158 2.0133 2.70125 0
M  V30 4632 O 425.688 1.55875 3.70224 0
M  V30 4633 N 423.894 1.6802 2.37102 0
M  V30 4634 H 423.441 2.05181 1.55751 0
M  V30 4635 H 423.399 1.047 2.96454 0
M  V30 4636 N 427.171 -0.0066808 1.57599 0
M  V30 4637 C 428.401 -0.703066 1.94269 0
M  V30 4638 C 428.809 -1.68206 0.866222 0
M  V30 4639 O 428.152 -1.82966 -0.164087 0
M  V30 4640 C 428.214 -1.49616 3.26887 0
M  V30 4641 C 427.878 -0.679494 4.5192 0
M  V30 4642 C 428.875 0.0299508 5.19891 0
M  V30 4643 C 426.56 -0.627433 4.98366 0
M  V30 4644 C 428.554 0.780514 6.32603 0
M  V30 4645 C 426.241 0.126861 6.10968 0
M  V30 4646 C 427.239 0.829574 6.77943 0
M  V30 4647 O 426.927 1.57157 7.88389 0
M  V30 4648 H 426.659 -0.201217 0.645359 0
M  V30 4649 H 429.213 0.0385326 2.05364 0
M  V30 4650 H 427.443 -2.28209 3.12182 0
M  V30 4651 H 429.132 -2.07726 3.48719 0
M  V30 4652 H 429.898 -0.00115963 4.85 0
M  V30 4653 H 425.777 -1.16392 4.46065 0
M  V30 4654 H 429.321 1.32954 6.84813 0
M  V30 4655 H 425.218 0.159815 6.45302 0
M  V30 4656 H 425.986 1.48758 8.04868 0
M  V30 4657 N 428.649 -1.55105 -0.279332 0
M  V30 4658 C 429.898 -1.74618 -1.00952 0
M  V30 4659 C 430.211 -0.551096 -1.87676 0
M  V30 4660 O 431.417 -0.628507 -2.64125 0
M  V30 4661 C 429.873 -3.09025 -1.84476 0
M  V30 4662 C 429.481 -4.36081 -1.0265 0
M  V30 4663 C 431.225 -3.37891 -2.56963 0
M  V30 4664 C 429.132 -5.6153 -1.85576 0
M  V30 4665 H 428.062 -0.650868 -0.38064 0
M  V30 4666 H 430.713 -1.81569 -0.265475 0
M  V30 4667 H 429.095 -2.96095 -2.62952 0
M  V30 4668 H 430.269 -4.59909 -0.286354 0
M  V30 4669 H 428.584 -4.14312 -0.416464 0
M  V30 4670 H 431.181 -4.28822 -3.19399 0
M  V30 4671 H 431.524 -2.57737 -3.26921 0
M  V30 4672 H 432.057 -3.5189 -1.85522 0
M  V30 4673 H 428.796 -6.44413 -1.2005 0
M  V30 4674 H 428.316 -5.41854 -2.57204 0
M  V30 4675 H 429.995 -5.99594 -2.43096 0
M  V30 4676 N 430.127 0.543554 -1.4793 0
M  V30 4677 C 431.074 1.64942 -1.6144 0
M  V30 4678 C 432.044 1.59692 -0.456903 0
M  V30 4679 O 433.229 1.78321 -0.678688 0
M  V30 4680 C 430.369 3.03238 -1.64744 0
M  V30 4681 C 429.482 3.18823 -2.91506 0
M  V30 4682 C 428.617 4.47599 -2.86057 0
M  V30 4683 C 427.656 4.56664 -4.07584 0
M  V30 4684 N 426.793 5.76811 -4.00292 0
M  V30 4685 H 431.633 1.52733 -2.55884 0
M  V30 4686 H 429.17 0.7438 -1.2691 0
M  V30 4687 H 431.128 3.83339 -1.64641 0
M  V30 4688 H 429.758 3.1425 -0.738017 0
M  V30 4689 H 428.81 2.32064 -3.01414 0
M  V30 4690 H 430.122 3.21384 -3.81463 0
M  V30 4691 H 429.276 5.35975 -2.84281 0
M  V30 4692 H 428.015 4.47538 -1.93807 0
M  V30 4693 H 427.02 3.66697 -4.09651 0
M  V30 4694 H 428.245 4.58474 -5.00978 0
M  V30 4695 H 426.191 5.77673 -3.10853 0
M  V30 4696 H 426.108 5.80808 -4.8394 0
M  V30 4697 H 427.376 6.67512 -4.02553 0
M  V30 4698 N 431.605 1.3629 0.791371 0
M  V30 4699 C 432.537 1.26321 1.91248 0
M  V30 4700 C 433.55 0.18313 1.61767 0
M  V30 4701 O 434.739 0.437682 1.73051 0
M  V30 4702 C 431.839 0.925901 3.26007 0
M  V30 4703 C 431.012 2.10746 3.83281 0
M  V30 4704 C 430.071 1.74352 4.96475 0
M  V30 4705 O 429.097 2.46416 5.13096 0
M  V30 4706 N 430.299 0.676058 5.7655 0
M  V30 4707 H 433.064 2.22915 2.00323 0
M  V30 4708 H 430.625 1.29659 0.969546 0
M  V30 4709 H 432.617 0.663636 3.99222 0
M  V30 4710 H 431.187 0.0491581 3.12561 0
M  V30 4711 H 430.407 2.53264 3.02077 0
M  V30 4712 H 431.695 2.8969 4.18279 0
M  V30 4713 H 431.093 0.0776467 5.65647 0
M  V30 4714 H 429.65 0.473612 6.50077 0
M  V30 4715 N 433.083 -1.0153 1.20538 0
M  V30 4716 C 434.03 -2.10098 0.955383 0
M  V30 4717 C 435 -1.65702 -0.114878 0
M  V30 4718 O 436.185 -1.90776 0.0301118 0
M  V30 4719 C 433.325 -3.41236 0.514969 0
M  V30 4720 C 432.438 -3.99102 1.65353 0
M  V30 4721 C 431.573 -5.18306 1.16329 0
M  V30 4722 C 430.612 -5.68258 2.27485 0
M  V30 4723 N 429.749 -6.78722 1.7967 0
M  V30 4724 H 434.589 -2.30818 1.88486 0
M  V30 4725 H 432.126 -1.13189 0.939499 0
M  V30 4726 H 434.084 -4.16504 0.240935 0
M  V30 4727 H 432.714 -3.20585 -0.377512 0
M  V30 4728 H 431.766 -3.20918 2.04245 0
M  V30 4729 H 433.078 -4.32177 2.49047 0
M  V30 4730 H 432.232 -6.00782 0.845302 0
M  V30 4731 H 430.971 -4.86799 0.296254 0
M  V30 4732 H 429.976 -4.84385 2.60099 0
M  V30 4733 H 431.201 -6.01798 3.14667 0
M  V30 4734 H 429.147 -6.49042 0.95295 0
M  V30 4735 H 429.064 -7.10996 2.56944 0
M  V30 4736 H 430.332 -7.64759 1.50875 0
M  V30 4737 N 434.561 -1.01147 -1.20859 0
M  V30 4738 C 435.509 -0.57059 -2.25493 0
M  V30 4739 C 436.503 0.388109 -1.64894 0
M  V30 4740 O 437.709 0.258592 -1.78133 0
M  V30 4741 H 434.084 -0.166191 -0.733406 0
M  V30 4742 H 436.055 -1.46411 -2.60012 0
M  V30 4743 C 434.804 0.0805241 -3.47607 0
M  V30 4744 H 434.127 -0.648156 -3.94511 0
M  V30 4745 H 435.567 0.352197 -4.22535 0
M  V30 4746 C 434.026 1.32175 -3.09889 0
M  V30 4747 O 434.556 2.41553 -3.20959 0
M  V30 4748 N 432.762 1.20392 -2.64488 0
M  V30 4749 H 432.309 0.313905 -2.5568 0
M  V30 4750 H 432.267 2.03541 -2.39621 0
M  V30 4751 N 436.039 1.36541 -0.78704 0
M  V30 4752 C 437.45 1.81873 -0.421807 0
M  V30 4753 C 437.801 1.65487 1.05397 0
M  V30 4754 O 436.926 1.17448 1.81755 0
M  V30 4755 C 437.521 3.30192 -0.758841 0
M  V30 4756 C 436.08 3.73743 -0.446468 0
M  V30 4757 C 435.227 2.58844 -0.994728 0
M  V30 4758 H 438.178 1.24796 -0.98039 0
M  V30 4759 H 438.199 3.80468 -0.0490648 0
M  V30 4760 H 437.711 3.42087 -1.83299 0
M  V30 4761 H 435.812 3.6741 0.619739 0
M  V30 4762 H 435.925 4.69272 -0.965415 0
M  V30 4763 H 434.289 2.51245 -0.418087 0
M  V30 4764 H 435.072 2.73525 -2.07458 0
M  V30 4765 N 437.518 0.538854 1.48102 0
M  V30 4766 C 438.481 -0.208395 2.28251 0
M  V30 4767 C 439.481 -0.859656 1.35892 0
M  V30 4768 O 440.671 -0.71834 1.58699 0
M  V30 4769 C 437.803 -1.30252 3.15035 0
M  V30 4770 H 438.996 0.495407 2.9578 0
M  V30 4771 H 436.549 0.295112 1.53489 0
M  V30 4772 H 437.284 -2.0393 2.52157 0
M  V30 4773 H 437.069 -0.840551 3.82985 0
M  V30 4774 H 438.559 -1.82787 3.75471 0
M  V30 4775 N 438.996 -1.55193 0.274407 0
M  V30 4776 C 440.412 -1.59401 -0.0797543 0
M  V30 4777 C 440.612 -1.29162 -1.54659 0
M  V30 4778 O 439.668 -1.05215 -2.29534 0
M  V30 4779 C 440.981 -2.99257 0.294238 0
M  V30 4780 C 442.529 -3.12072 0.240796 0
M  V30 4781 C 443.004 -4.54194 0.589218 0
M  V30 4782 N 444.495 -4.60033 0.540744 0
M  V30 4783 C 445.23 -5.68027 0.783147 0
M  V30 4784 N 444.726 -6.8417 1.09013 0
M  V30 4785 N 446.519 -5.57572 0.711993 0
M  V30 4786 H 438.67 -1.73113 1.23067 0
M  V30 4787 H 440.933 -0.807197 0.497129 0
M  V30 4788 H 440.639 -3.26217 1.31435 0
M  V30 4789 H 440.513 -3.75427 -0.365281 0
M  V30 4790 H 442.9 -2.84877 -0.770024 0
M  V30 4791 H 442.981 -2.38117 0.934563 0
M  V30 4792 H 442.625 -4.82115 1.59772 0
M  V30 4793 H 442.555 -5.26448 -0.126331 0
M  V30 4794 H 445.046 -3.76599 0.313327 0
M  V30 4795 H 445.359 -7.6243 1.26178 0
M  V30 4796 H 443.704 -6.85787 1.12789 0
M  V30 4797 H 446.895 -4.65714 0.472014 0
M  V30 4798 H 447.068 -6.41659 0.90429 0
M  V30 4799 N 440.474 -0.00167713 -1.576 0
M  V30 4800 C 441.72 0.683832 -1.90923 0
M  V30 4801 C 442.053 1.7333 -0.875799 0
M  V30 4802 O 441.328 1.94215 0.10525 0
M  V30 4803 C 441.611 1.32543 -3.3482 0
M  V30 4804 C 441.464 0.287387 -4.48881 0
M  V30 4805 C 442.783 2.25114 -3.78169 0
M  V30 4806 H 439.902 0.247125 -0.694333 0
M  V30 4807 H 442.544 -0.0533149 -1.89925 0
M  V30 4808 H 440.694 1.95372 -3.35801 0
M  V30 4809 H 442.366 -0.341346 -4.60035 0
M  V30 4810 H 440.609 -0.39017 -4.32042 0
M  V30 4811 H 441.28 0.775393 -5.46527 0
M  V30 4812 H 443.756 1.723 -3.7875 0
M  V30 4813 H 442.632 2.66971 -4.79602 0
M  V30 4814 H 442.893 3.13092 -3.12131 0
M  V30 4815 N 441.952 1.55251 0.271103 0
M  V30 4816 C 443.2 1.75599 1.00047 0
M  V30 4817 C 443.521 0.561188 1.8675 0
M  V30 4818 O 442.791 -0.423846 1.9126 0
M  V30 4819 H 441.371 0.647562 0.372387 0
M  V30 4820 H 444.033 1.92656 0.294876 0
M  V30 4821 H 443.129 2.65766 1.6363 0
M  V30 4822 N 443.43 -0.535701 1.48216 0
M  V30 4823 C 444.676 -1.2913 1.57153 0
M  V30 4824 C 445.031 -1.90899 0.239823 0
M  V30 4825 O 444.324 -1.76022 -0.756748 0
M  V30 4826 C 444.518 -2.4068 2.64212 0
M  V30 4827 C 444.347 -1.89844 4.07663 0
M  V30 4828 C 443.117 -1.72708 4.74869 0
M  V30 4829 C 445.315 -1.43031 4.94011 0
M  V30 4830 N 443.297 -1.16437 6.02757 0
M  V30 4831 C 444.668 -0.986691 6.12098 0
M  V30 4832 C 446.723 -1.3128 4.80281 0
M  V30 4833 C 445.426 -0.437231 7.1797 0
M  V30 4834 C 447.452 -0.777346 5.86269 0
M  V30 4835 C 446.814 -0.343774 7.03561 0
M  V30 4836 H 442.913 -0.463753 0.629648 0
M  V30 4837 H 445.497 -0.604736 1.8507 0
M  V30 4838 H 443.668 -3.06839 2.38126 0
M  V30 4839 H 445.4 -3.07706 2.62867 0
M  V30 4840 H 442.155 -1.96061 4.31111 0
M  V30 4841 H 442.579 -0.903281 6.70947 0
M  V30 4842 H 447.221 -1.63408 3.89946 0
M  V30 4843 H 444.939 -0.103621 8.08034 0
M  V30 4844 H 448.525 -0.689688 5.77698 0
M  V30 4845 H 447.405 0.0641219 7.84174 0
M  V30 4846 N 444.908 -1.36708 -0.784132 0
M  V30 4847 C 446.154 -1.31426 -1.54451 0
M  V30 4848 C 446.487 0.10476 -1.93917 0
M  V30 4849 O 445.762 1.05934 -1.6312 0
M  V30 4850 C 446.045 -2.24189 -2.818 0
M  V30 4851 C 445.898 -3.74813 -2.48667 0
M  V30 4852 C 447.217 -2.15626 -3.83658 0
M  V30 4853 H 444.336 -0.478739 -0.560337 0
M  V30 4854 H 446.978 -1.67305 -0.900498 0
M  V30 4855 H 445.128 -1.93722 -3.36755 0
M  V30 4856 H 446.8 -4.15823 -1.99722 0
M  V30 4857 H 445.043 -3.93989 -1.81535 0
M  V30 4858 H 445.714 -4.35138 -3.39646 0
M  V30 4859 H 448.19 -2.42456 -3.38163 0
M  V30 4860 H 447.066 -2.82694 -4.70506 0
M  V30 4861 H 447.327 -1.14522 -4.27009 0
M  V30 4862 N 446.386 1.0089 -1.21074 0
M  V30 4863 C 447.635 1.74019 -1.01981 0
M  V30 4864 C 447.948 1.90408 0.447665 0
M  V30 4865 O 449.154 2.60707 0.757906 0
M  V30 4866 C 447.61 3.13026 -1.77603 0
M  V30 4867 C 447.218 3.04623 -3.28495 0
M  V30 4868 C 448.962 3.90312 -1.66904 0
M  V30 4869 C 446.869 4.38685 -3.96623 0
M  V30 4870 H 445.799 0.652422 -0.377971 0
M  V30 4871 H 448.45 1.12755 -1.44771 0
M  V30 4872 H 446.832 3.74878 -1.27604 0
M  V30 4873 H 448.006 2.52032 -3.85767 0
M  V30 4874 H 446.321 2.40827 -3.39693 0
M  V30 4875 H 448.918 4.8951 -2.15138 0
M  V30 4876 H 449.261 4.11558 -0.62658 0
M  V30 4877 H 449.794 3.35104 -2.14359 0
M  V30 4878 H 446.533 4.22641 -5.01054 0
M  V30 4879 H 446.053 4.91252 -3.4414 0
M  V30 4880 H 447.732 5.075 -4.01314 0
M  V30 4881 N 447.864 1.01787 1.20321 0
M  V30 4882 C 448.796 0.547357 2.22568 0
M  V30 4883 C 449.809 -0.370922 1.58518 0
M  V30 4884 O 450.998 -0.169067 1.77698 0
M  V30 4885 C 448.098 -0.223031 3.38165 0
M  V30 4886 C 447.271 0.697472 4.31803 0
M  V30 4887 C 446.33 -0.025562 5.26194 0
M  V30 4888 O 445.356 0.597367 5.66057 0
M  V30 4889 N 446.558 -1.29999 5.65757 0
M  V30 4890 H 449.323 1.42668 2.63564 0
M  V30 4891 H 446.884 0.895552 1.34876 0
M  V30 4892 H 448.876 -0.716002 3.98316 0
M  V30 4893 H 447.446 -1.00366 2.9605 0
M  V30 4894 H 446.666 1.37073 3.69601 0
M  V30 4895 H 447.954 1.32347 4.91286 0
M  V30 4896 H 447.352 -1.827 5.35385 0
M  V30 4897 H 445.909 -1.73766 6.28211 0
M  V30 4898 N 449.342 -1.36122 0.79427 0
M  V30 4899 C 450.619 -1.93398 0.292685 0
M  V30 4900 C 450.999 -1.72567 -1.21589 0
M  V30 4901 O 450.347 -1.08745 -2.00965 0
M  V30 4902 C 450.557 -3.42099 0.690614 0
M  V30 4903 C 451.905 -4.19231 0.673105 0
M  V30 4904 O 452.929 -3.50559 0.631389 0
M  V30 4905 O 451.788 -5.41732 0.720362 0
M  V30 4906 H 448.882 -0.823712 0.0736693 0
M  V30 4907 H 451.428 -1.45273 0.87714 0
M  V30 4908 H 450.2 -3.50938 1.73085 0
M  V30 4909 H 449.823 -3.97519 0.0803036 0
M  V30 4910 N 450.82 -0.546701 -1.47814 0
M  V30 4911 C 452.05 -0.0232519 -2.06587 0
M  V30 4912 C 452.458 1.2712 -1.40133 0
M  V30 4913 O 451.801 1.77091 -0.488305 0
M  V30 4914 C 451.863 0.254117 -3.58601 0
M  V30 4915 C 451.527 -0.949331 -4.47031 0
M  V30 4916 C 452.524 -1.85216 -4.85789 0
M  V30 4917 C 450.209 -1.16104 -4.88697 0
M  V30 4918 C 452.203 -2.95047 -5.65001 0
M  V30 4919 C 449.89 -2.26247 -5.67676 0
M  V30 4920 C 450.888 -3.1555 -6.05737 0
M  V30 4921 O 450.576 -4.23784 -6.83127 0
M  V30 4922 H 450.308 -0.0380082 -0.674931 0
M  V30 4923 H 452.862 -0.756631 -1.90956 0
M  V30 4924 H 451.092 1.04168 -3.72406 0
M  V30 4925 H 452.781 0.72167 -3.99433 0
M  V30 4926 H 453.547 -1.70061 -4.54207 0
M  V30 4927 H 449.426 -0.475159 -4.58545 0
M  V30 4928 H 452.97 -3.64778 -5.94628 0
M  V30 4929 H 448.867 -2.41379 -5.98671 0
M  V30 4930 H 449.635 -4.21701 -7.01506 0
M  V30 4931 N 452.299 1.55045 -0.282633 0
M  V30 4932 C 453.548 1.98938 0.332667 0
M  V30 4933 C 453.861 1.17455 1.56409 0
M  V30 4934 O 455.067 1.51527 2.25282 0
M  V30 4935 C 453.523 3.54105 0.643226 0
M  V30 4936 C 453.131 4.44374 -0.568814 0
M  V30 4937 C 454.875 4.06569 1.22074 0
M  V30 4938 C 452.782 5.90943 -0.232426 0
M  V30 4939 H 451.712 0.743043 0.128075 0
M  V30 4940 H 454.363 1.79341 -0.388464 0
M  V30 4941 H 452.745 3.69532 1.42346 0
M  V30 4942 H 453.919 4.40718 -1.34551 0
M  V30 4943 H 452.234 4.02585 -1.06369 0
M  V30 4944 H 454.831 5.13626 1.48635 0
M  V30 4945 H 455.174 3.56057 2.15707 0
M  V30 4946 H 455.707 3.94612 0.502621 0
M  V30 4947 H 452.446 6.45567 -1.13683 0
M  V30 4948 H 451.966 5.9765 0.507357 0
M  V30 4949 H 453.645 6.4677 0.172657 0
M  V30 4950 N 453.777 0.010035 1.57597 0
M  V30 4951 C 454.725 -0.996272 2.10184 0
M  V30 4952 C 455.719 -1.34942 1.02406 0
M  V30 4953 O 456.925 -1.33389 1.20861 0
M  V30 4954 H 453.3 -0.338982 0.671264 0
M  V30 4955 H 455.271 -0.527272 2.93705 0
M  V30 4956 C 454.02 -2.27599 2.62857 0
M  V30 4957 H 453.343 -2.01295 3.45428 0
M  V30 4958 H 454.783 -2.96265 3.0332 0
M  V30 4959 C 453.242 -2.99269 1.54725 0
M  V30 4960 O 453.772 -3.90644 0.93597 0
M  V30 4961 N 451.978 -2.61269 1.27228 0
M  V30 4962 H 451.525 -1.87043 1.77123 0
M  V30 4963 H 451.483 -3.09534 0.550999 0
M  V30 4964 N 455.255 -1.55392 -0.262866 0
M  V30 4965 C 456.165 -1.92077 -1.34698 0
M  V30 4966 C 457.181 -0.819227 -1.53508 0
M  V30 4967 O 458.357 -1.11921 -1.67439 0
M  V30 4968 C 455.422 -2.19407 -2.68443 0
M  V30 4969 C 454.483 -3.42905 -2.58292 0
M  V30 4970 C 453.716 -3.68921 -3.85659 0
M  V30 4971 O 453.939 -2.97275 -4.8681 0
M  V30 4972 O 452.873 -4.62455 -3.85252 0
M  V30 4973 H 456.699 -2.84384 -1.06581 0
M  V30 4974 H 454.284 -1.42069 -0.462264 0
M  V30 4975 H 456.166 -2.38365 -3.47506 0
M  V30 4976 H 454.841 -1.30282 -2.96325 0
M  V30 4977 H 453.748 -3.29272 -1.7757 0
M  V30 4978 H 455.081 -4.32282 -2.35358 0
M  V30 4979 N 456.733 0.527833 -1.48498 0
M  V30 4980 C 457.68 1.6322 -1.6318 0
M  V30 4981 C 458.65 1.59199 -0.473815 0
M  V30 4982 O 459.835 1.77591 -0.697563 0
M  V30 4983 C 456.975 3.01474 -1.67951 0
M  V30 4984 C 456.088 3.15713 -2.94871 0
M  V30 4985 C 455.223 4.44539 -2.90789 0
M  V30 4986 C 454.262 4.52315 -4.12404 0
M  V30 4987 N 453.399 5.72533 -4.06387 0
M  V30 4988 H 458.239 1.50011 -2.57489 0
M  V30 4989 H 455.776 0.730298 -1.27691 0
M  V30 4990 H 457.734 3.81572 -1.68698 0
M  V30 4991 H 456.364 3.1345 -0.771306 0
M  V30 4992 H 455.416 2.28854 -3.03859 0
M  V30 4993 H 456.728 3.1732 -3.8485 0
M  V30 4994 H 455.882 5.3293 -2.89949 0
M  V30 4995 H 454.621 4.45457 -1.98542 0
M  V30 4996 H 453.626 3.62331 -4.13517 0
M  V30 4997 H 454.851 4.53134 -5.05812 0
M  V30 4998 H 452.797 5.74344 -3.16962 0
M  V30 4999 H 452.714 5.75643 -4.90073 0
M  V30 5000 H 453.982 6.63204 -4.0961 0
M  V30 5001 N 458.211 1.37122 0.776871 0
M  V30 5002 C 459.457 1.3325 1.53675 0
M  V30 5003 C 459.812 -0.0839891 1.92217 0
M  V30 5004 O 459.105 -1.04145 1.60824 0
M  V30 5005 C 459.299 2.20068 2.81611 0
M  V30 5006 C 459.128 3.70016 2.55574 0
M  V30 5007 C 457.898 4.39144 2.4996 0
M  V30 5008 C 460.096 4.62996 2.23917 0
M  V30 5009 N 458.078 5.74663 2.15953 0
M  V30 5010 C 459.449 5.86854 2.00005 0
M  V30 5011 C 461.504 4.51433 2.1003 0
M  V30 5012 C 460.207 7.00446 1.63609 0
M  V30 5013 C 462.233 5.64905 1.75033 0
M  V30 5014 C 461.595 6.8781 1.51977 0
M  V30 5015 H 457.694 0.542878 0.562856 0
M  V30 5016 H 460.278 1.72295 0.906784 0
M  V30 5017 H 458.449 1.83248 3.42454 0
M  V30 5018 H 460.181 2.07492 3.47461 0
M  V30 5019 H 456.936 3.92088 2.65639 0
M  V30 5020 H 457.36 6.46268 2.0166 0
M  V30 5021 H 462.002 3.56987 2.26539 0
M  V30 5022 H 459.72 7.94831 1.45837 0
M  V30 5023 H 463.306 5.57926 1.64952 0
M  V30 5024 H 462.186 7.74126 1.25296 0
M  V30 5025 N 459.689 -1.00246 1.21608 0
M  V30 5026 C 460.914 -1.78167 1.06167 0
M  V30 5027 C 461.339 -1.84138 -0.384035 0
M  V30 5028 O 460.697 -1.28683 -1.27712 0
M  V30 5029 C 460.745 -3.19786 1.66642 0
M  V30 5030 O 459.849 -4.02153 0.913613 0
M  V30 5031 H 459.19 -0.549 0.37349 0
M  V30 5032 H 461.72 -1.25994 1.61204 0
M  V30 5033 H 461.73 -3.70451 1.70969 0
M  V30 5034 H 460.405 -3.14754 2.7185 0
M  V30 5035 H 458.982 -3.60711 0.945635 0
M  V30 5036 N 461.167 -1.02423 -1.1978 0
M  V30 5037 C 462.578 -0.748389 -1.71044 0
M  V30 5038 C 462.929 0.732398 -1.82017 0
M  V30 5039 O 462.054 1.57116 -1.48807 0
M  V30 5040 C 462.649 -1.35187 -3.1066 0
M  V30 5041 C 461.208 -1.12472 -3.59203 0
M  V30 5042 C 460.355 -1.45283 -2.36195 0
M  V30 5043 H 463.306 -1.19275 -1.04686 0
M  V30 5044 H 463.327 -0.746408 -3.73107 0
M  V30 5045 H 462.839 -2.4296 -3.02642 0
M  V30 5046 H 460.94 -0.0649983 -3.72543 0
M  V30 5047 H 461.053 -1.81016 -4.43588 0
M  V30 5048 H 459.417 -0.872034 -2.39307 0
M  V30 5049 H 460.2 -2.54129 -2.30811 0
M  V30 5050 N 462.645 1.35699 -0.801477 0
M  V30 5051 C 463.575 2.32436 -0.222658 0
M  V30 5052 C 464.556 1.5723 0.649057 0
M  V30 5053 O 465.741 1.85324 0.580387 0
M  V30 5054 C 462.871 3.41469 0.633719 0
M  V30 5055 C 461.825 4.27774 -0.139083 0
M  V30 5056 C 461.151 5.28082 0.838666 0
M  V30 5057 C 462.451 5.04946 -1.33517 0
M  V30 5058 H 464.145 2.81094 -1.03086 0
M  V30 5059 H 461.691 1.35146 -0.497155 0
M  V30 5060 H 463.644 4.08143 1.04868 0
M  V30 5061 H 462.368 2.91408 1.47475 0
M  V30 5062 H 461.027 3.62673 -0.535156 0
M  V30 5063 H 460.675 4.7429 1.67506 0
M  V30 5064 H 460.375 5.86695 0.32594 0
M  V30 5065 H 461.899 5.97628 1.25194 0
M  V30 5066 H 463.313 5.64593 -0.995349 0
M  V30 5067 H 461.71 5.7303 -1.78202 0
M  V30 5068 H 462.78 4.35886 -2.12442 0
M  V30 5069 N 464.123 0.554532 1.47522 0
M  V30 5070 C 465.053 -0.182974 2.32782 0
M  V30 5071 C 466.034 -0.911377 1.43624 0
M  V30 5072 O 467.219 -0.892366 1.72483 0
M  V30 5073 C 464.349 -1.21513 3.25349 0
M  V30 5074 C 463.303 -0.603355 4.23726 0
M  V30 5075 C 462.629 -1.73995 5.05598 0
M  V30 5076 C 463.929 0.441121 5.20434 0
M  V30 5077 H 465.623 0.52882 2.94693 0
M  V30 5078 H 463.169 0.255759 1.41711 0
M  V30 5079 H 465.122 -1.73922 3.83835 0
M  V30 5080 H 463.846 -1.95683 2.61487 0
M  V30 5081 H 462.505 -0.10059 3.66462 0
M  V30 5082 H 462.153 -2.47063 4.38143 0
M  V30 5083 H 461.853 -1.3364 5.72201 0
M  V30 5084 H 463.377 -2.26735 5.66942 0
M  V30 5085 H 464.791 0.00319931 5.733 0
M  V30 5086 H 463.188 0.763402 5.95224 0
M  V30 5087 H 464.258 1.33799 4.66075 0
M  V30 5088 N 465.601 -1.54893 0.290851 0
M  V30 5089 C 466.831 -2.04047 -0.323818 0
M  V30 5090 C 467.239 -1.16809 -1.48837 0
M  V30 5091 O 466.582 -0.184145 -1.82775 0
M  V30 5092 C 466.644 -3.49248 -0.852395 0
M  V30 5093 C 466.308 -4.56623 0.185557 0
M  V30 5094 C 467.305 -5.09985 1.01053 0
M  V30 5095 C 464.99 -5.01252 0.324332 0
M  V30 5096 C 466.984 -6.06507 1.96031 0
M  V30 5097 C 464.671 -5.97596 1.27757 0
M  V30 5098 C 465.669 -6.50107 2.09405 0
M  V30 5099 O 465.357 -7.44565 3.03114 0
M  V30 5100 H 465.089 -0.671735 -0.0758129 0
M  V30 5101 H 467.643 -2.00947 0.425393 0
M  V30 5102 H 465.873 -3.49639 -1.65195 0
M  V30 5103 H 467.562 -3.81654 -1.38185 0
M  V30 5104 H 468.328 -4.76307 0.914129 0
M  V30 5105 H 464.207 -4.60015 -0.301213 0
M  V30 5106 H 467.751 -6.47418 2.598 0
M  V30 5107 H 463.648 -6.30691 1.37473 0
M  V30 5108 H 464.416 -7.62334 2.97976 0
M  V30 5109 N 467.08 -0.0183926 -1.57589 0
M  V30 5110 C 468.012 0.995557 -2.06449 0
M  V30 5111 C 469.025 1.29556 -0.985849 0
M  V30 5112 O 470.214 1.2621 -1.26227 0
M  V30 5113 C 467.314 2.32572 -2.46502 0
M  V30 5114 C 466.487 2.21245 -3.77319 0
M  V30 5115 C 465.546 3.37104 -4.04039 0
M  V30 5116 O 464.572 3.14468 -4.74445 0
M  V30 5117 N 465.774 4.60553 -3.53372 0
M  V30 5118 H 468.539 0.578746 -2.94059 0
M  V30 5119 H 466.1 0.168603 -1.6102 0
M  V30 5120 H 468.092 3.08887 -2.61478 0
M  V30 5121 H 466.662 2.65931 -1.64315 0
M  V30 5122 H 465.882 1.29723 -3.72244 0
M  V30 5123 H 467.17 2.10868 -4.63047 0
M  V30 5124 H 466.568 4.81839 -2.96391 0
M  V30 5125 H 465.125 5.34072 -3.73644 0
M  V30 5126 N 468.558 1.5553 0.254621 0
M  V30 5127 C 469.468 1.92789 1.33677 0
M  V30 5128 C 470.484 0.827356 1.53071 0
M  V30 5129 O 471.66 1.12807 1.66843 0
M  V30 5130 C 468.725 2.20827 2.67275 0
M  V30 5131 C 467.786 3.4427 2.5647 0
M  V30 5132 C 467.019 3.70961 3.83697 0
M  V30 5133 O 467.242 2.99852 4.85227 0
M  V30 5134 O 466.176 4.64491 3.82794 0
M  V30 5135 H 470.002 2.84945 1.05071 0
M  V30 5136 H 467.587 1.42312 0.454723 0
M  V30 5137 H 469.469 2.40204 3.46237 0
M  V30 5138 H 468.144 1.31851 2.9563 0
M  V30 5139 H 467.051 3.30209 1.75821 0
M  V30 5140 H 468.384 4.33524 2.33062 0
M  V30 5141 N 470.036 -0.519951 1.48776 0
M  V30 5142 C 471.282 -1.27711 1.57536 0
M  V30 5143 C 471.615 -1.92547 0.252866 0
M  V30 5144 O 470.89 -1.7979 -0.742021 0
M  V30 5145 C 471.173 -2.35875 2.72094 0
M  V30 5146 C 471.026 -1.75664 4.1408 0
M  V30 5147 C 472.345 -3.37575 2.82367 0
M  V30 5148 H 469.464 -0.462971 0.573434 0
M  V30 5149 H 472.106 -0.578194 1.80989 0
M  V30 5150 H 470.256 -2.95488 2.52228 0
M  V30 5151 H 471.928 -1.20025 4.45412 0
M  V30 5152 H 470.171 -1.06154 4.20611 0
M  V30 5153 H 470.842 -2.54029 4.90075 0
M  V30 5154 H 473.318 -2.87929 3.00393 0
M  V30 5155 H 472.194 -4.1064 3.64233 0
M  V30 5156 H 472.455 -3.98743 1.90936 0
M  V30 5157 N 471.514 -1.37532 -0.769588 0
M  V30 5158 C 472.763 -1.32183 -1.5235 0
M  V30 5159 C 473.076 0.0906555 -1.9539 0
M  V30 5160 O 474.282 0.266628 -2.70188 0
M  V30 5161 C 472.738 -2.32029 -2.75119 0
M  V30 5162 C 472.346 -3.78816 -2.3917 0
M  V30 5163 C 474.09 -2.35694 -3.53056 0
M  V30 5164 C 471.997 -4.70388 -3.58453 0
M  V30 5165 H 470.927 -0.491275 -0.571984 0
M  V30 5166 H 473.578 -1.63004 -0.842739 0
M  V30 5167 H 471.96 -1.94229 -3.45096 0
M  V30 5168 H 473.134 -4.25466 -1.76962 0
M  V30 5169 H 471.449 -3.78117 -1.74402 0
M  V30 5170 H 474.046 -3.01312 -4.41718 0
M  V30 5171 H 474.389 -1.37117 -3.93071 0
M  V30 5172 H 474.922 -2.72212 -2.90078 0
M  V30 5173 H 471.661 -5.70102 -3.23518 0
M  V30 5174 H 471.181 -4.28442 -4.19758 0
M  V30 5175 H 472.86 -4.87628 -4.25239 0
M  V30 5176 N 472.992 0.995999 -1.22138 0
M  V30 5177 C 474.408 1.25917 -0.980667 0
M  V30 5178 C 474.608 1.98819 0.327604 0
M  V30 5179 O 473.664 2.29587 1.05101 0
M  V30 5180 C 474.977 2.07399 -2.17729 0
M  V30 5181 C 476.525 2.20594 -2.22052 0
M  V30 5182 C 477 3.05462 -3.41258 0
M  V30 5183 N 478.491 3.13049 -3.41401 0
M  V30 5184 C 479.226 3.78997 -4.30289 0
M  V30 5185 N 478.722 4.46899 -5.2939 0
M  V30 5186 N 480.515 3.75728 -4.18073 0
M  V30 5187 H 472.666 0.507158 -2.06256 0
M  V30 5188 H 474.929 0.28658 -0.903646 0
M  V30 5189 H 474.635 1.61191 -3.12586 0
M  V30 5190 H 474.509 3.08154 -2.17534 0
M  V30 5191 H 476.896 2.66017 -1.27745 0
M  V30 5192 H 476.977 1.1928 -2.26287 0
M  V30 5193 H 476.621 2.60739 -4.35864 0
M  V30 5194 H 476.551 4.06911 -3.34262 0
M  V30 5195 H 479.042 2.64721 -2.69688 0
M  V30 5196 H 479.355 4.94952 -5.935 0
M  V30 5197 H 477.7 4.45657 -5.33306 0
M  V30 5198 H 480.891 3.2184 -3.39907 0
M  V30 5199 H 481.064 4.26845 -4.87553 0
M  V30 5200 N 474.47 1.03057 1.19235 0
M  V30 5201 C 475.433 0.617418 2.20727 0
M  V30 5202 C 476.433 -0.319856 1.57587 0
M  V30 5203 O 477.623 -0.106633 1.73873 0
M  V30 5204 C 474.755 -0.096296 3.40764 0
M  V30 5205 H 475.948 1.51544 2.58794 0
M  V30 5206 H 473.501 0.821949 1.32942 0
M  V30 5207 H 474.236 -1.00859 3.08217 0
M  V30 5208 H 474.021 0.577217 3.87828 0
M  V30 5209 H 475.511 -0.372219 4.15938 0
M  V30 5210 N 475.948 -1.35272 0.808662 0
M  V30 5211 C 476.896 -2.31663 0.208606 0
M  V30 5212 C 477.89 -1.56731 -0.642778 0
M  V30 5213 O 479.096 -1.71843 -0.53571 0
M  V30 5214 H 475.471 -0.750421 0.0486993 0
M  V30 5215 H 477.442 -2.79814 1.03666 0
M  V30 5216 C 476.191 -3.42008 -0.626573 0
M  V30 5217 H 475.514 -3.99795 0.0192103 0
M  V30 5218 H 476.954 -4.11727 -1.01278 0
M  V30 5219 C 475.413 -2.85226 -1.79298 0
M  V30 5220 O 475.943 -2.78945 -2.89055 0
M  V30 5221 N 474.149 -2.42245 -1.60516 0
M  V30 5222 H 473.696 -2.47554 -0.712375 0
M  V30 5223 H 473.654 -2.04603 -2.38715 0
M  V30 5224 N 477.426 -0.562348 -1.47226 0
M  V30 5225 C 478.373 0.182461 -2.30078 0
M  V30 5226 C 479.343 0.903503 -1.39377 0
M  V30 5227 O 480.528 0.898188 -1.68337 0
M  V30 5228 C 477.668 1.20322 -3.23445 0
M  V30 5229 C 476.781 0.487717 -4.29238 0
M  V30 5230 C 475.916 1.49422 -5.09752 0
M  V30 5231 C 474.955 0.763976 -6.07314 0
M  V30 5232 N 474.092 1.71755 -6.80768 0
M  V30 5233 H 478.932 -0.530169 -2.93246 0
M  V30 5234 H 476.469 -0.273276 -1.44539 0
M  V30 5235 H 478.427 1.80768 -3.76004 0
M  V30 5236 H 477.057 1.88382 -2.6213 0
M  V30 5237 H 476.109 -0.231374 -3.79696 0
M  V30 5238 H 477.421 -0.0841003 -4.98729 0
M  V30 5239 H 476.575 2.17206 -5.66486 0
M  V30 5240 H 475.314 2.09995 -4.40174 0
M  V30 5241 H 474.319 0.0722344 -5.49753 0
M  V30 5242 H 475.544 0.16391 -6.78902 0
M  V30 5243 H 473.49 2.31177 -6.13916 0
M  V30 5244 H 473.407 1.19802 -7.46447 0
M  V30 5245 H 474.675 2.38638 -7.42073 0
M  V30 5246 N 478.904 1.54736 -0.299062 0
M  V30 5247 C 480.129 2.04975 0.316254 0
M  V30 5248 C 480.554 1.17501 1.46885 0
M  V30 5249 O 479.912 0.178678 1.80417 0
M  V30 5250 C 479.96 3.52672 0.751997 0
M  V30 5251 O 479.064 3.68226 1.85697 0
M  V30 5252 H 478.405 0.661126 0.0617175 0
M  V30 5253 H 480.935 1.99805 -0.440341 0
M  V30 5254 H 480.945 3.94488 1.04133 0
M  V30 5255 H 479.62 4.158 -0.0911482 0
M  V30 5256 H 478.197 3.38316 1.56834 0
M  V30 5257 N 480.382 0.0267497 1.57577 0
M  V30 5258 C 481.312 -0.954308 2.13108 0
M  V30 5259 C 482.293 -1.34088 1.04663 0
M  V30 5260 O 483.478 -1.41992 1.32484 0
M  V30 5261 C 480.608 -2.23744 2.65624 0
M  V30 5262 C 479.562 -1.99168 3.78835 0
M  V30 5263 C 478.888 -3.33726 4.17769 0
M  V30 5264 C 480.188 -1.33277 5.0501 0
M  V30 5265 H 481.882 -0.491848 2.95332 0
M  V30 5266 H 479.428 -0.23514 1.42067 0
M  V30 5267 H 481.381 -2.92754 3.03106 0
M  V30 5268 H 480.105 -2.72151 1.80558 0
M  V30 5269 H 478.764 -1.32577 3.41788 0
M  V30 5270 H 478.412 -3.79888 3.29688 0
M  V30 5271 H 478.112 -3.18089 4.94058 0
M  V30 5272 H 479.636 -4.04008 4.57832 0
M  V30 5273 H 481.05 -1.92283 5.40093 0
M  V30 5274 H 479.447 -1.28045 5.8628 0
M  V30 5275 H 480.517 -0.305411 4.83937 0
M  V30 5276 N 481.861 -1.55662 -0.24637 0
M  V30 5277 C 483.11 -1.7672 -0.972254 0
M  V30 5278 C 483.423 -0.59078 -1.86465 0
M  V30 5279 O 484.629 -0.684391 -2.62732 0
M  V30 5280 C 483.085 -3.12869 -1.7788 0
M  V30 5281 C 482.693 -4.38161 -0.933768 0
M  V30 5282 C 484.437 -3.43265 -2.49738 0
M  V30 5283 C 482.344 -5.6534 -1.73623 0
M  V30 5284 H 481.274 -0.658795 -0.366749 0
M  V30 5285 H 483.925 -1.82092 -0.226902 0
M  V30 5286 H 482.307 -3.01606 -2.56612 0
M  V30 5287 H 483.481 -4.60413 -0.188736 0
M  V30 5288 H 481.796 -4.15102 -0.328488 0
M  V30 5289 H 484.393 -4.35501 -3.10231 0
M  V30 5290 H 484.736 -2.64614 -3.2138 0
M  V30 5291 H 485.269 -3.55746 -1.78016 0
M  V30 5292 H 482.008 -6.46814 -1.06354 0
M  V30 5293 H 481.528 -5.47188 -2.45653 0
M  V30 5294 H 483.207 -6.04616 -2.30323 0
M  V30 5295 N 483.339 0.512053 -1.4905 0
M  V30 5296 C 484.286 1.6148 -1.64902 0
M  V30 5297 C 485.256 1.58687 -0.490673 0
M  V30 5298 O 486.441 1.76842 -0.71636 0
M  V30 5299 C 483.581 2.99676 -1.71139 0
M  V30 5300 C 482.694 3.12568 -2.98203 0
M  V30 5301 C 481.829 4.4143 -2.95487 0
M  V30 5302 C 480.868 4.47916 -4.17179 0
M  V30 5303 N 480.005 5.68191 -4.12437 0
M  V30 5304 H 484.845 1.47271 -2.59066 0
M  V30 5305 H 482.382 0.716713 -1.28459 0
M  V30 5306 H 484.34 3.79761 -1.72736 0
M  V30 5307 H 482.97 3.12614 -0.804508 0
M  V30 5308 H 482.022 2.25618 -3.06269 0
M  V30 5309 H 483.334 3.1322 -3.88194 0
M  V30 5310 H 482.488 5.29825 -2.95585 0
M  V30 5311 H 481.227 4.43326 -2.03256 0
M  V30 5312 H 480.232 3.57925 -4.17337 0
M  V30 5313 H 481.457 4.47744 -5.1059 0
M  V30 5314 H 479.403 5.7095 -3.23036 0
M  V30 5315 H 479.32 5.70413 -4.96151 0
M  V30 5316 H 480.588 6.58823 -4.16621 0
M  V30 5317 N 484.817 1.37938 0.762283 0
M  V30 5318 C 485.727 1.36681 1.90671 0
M  V30 5319 C 486.743 0.265078 1.71969 0
M  V30 5320 O 487.919 0.502055 1.95042 0
M  V30 5321 C 484.984 1.18211 3.25925 0
M  V30 5322 C 484.045 2.3811 3.57214 0
M  V30 5323 C 483.278 2.20512 4.86014 0
M  V30 5324 O 483.501 1.19429 5.57757 0
M  V30 5325 O 482.435 3.08911 5.16583 0
M  V30 5326 H 486.261 2.33091 1.94685 0
M  V30 5327 H 483.846 1.18767 0.906356 0
M  V30 5328 H 485.728 1.09937 4.06807 0
M  V30 5329 H 484.403 0.248807 3.22742 0
M  V30 5330 H 483.31 2.51958 2.76529 0
M  V30 5331 H 484.643 3.30041 3.65149 0
M  V30 5332 O 486.334 -0.902626 1.33921 0
M  V30 5333 H 487.025 -1.53762 1.178 0
M  V30 END ATOM
M  V30 BEGIN BOND
M  V30 END BOND
M  V30 END CTAB
M  END
$$$$
