drugbank_target|P14210 Hepatocyte growth factor (DB01109; DB02264; DB03959; DB05434; DB12307)
 OpenBabel12092119483D

  0  0  0     0  0            999 V3000
M  V30 BEGIN CTAB
M  V30 COUNTS 11466 11628 0 0 0
M  V30 BEGIN ATOM
M  V30 1 H -0.908 1.98254 -0.117106 0
M  V30 2 N 0 1.576 0 0
M  V30 3 C 0.933 2.03868 1.02534 0
M  V30 4 C 1.911 0.928543 1.3348 0
M  V30 5 O 3.095 1.19667 1.45644 0
M  V30 6 C 0.222 2.43627 2.35294 0
M  V30 7 C -0.732 3.65373 2.2001 0
M  V30 8 S 0.101 5.13292 1.52614 0
M  V30 9 C 1.257 5.56322 2.86805 0
M  V30 10 H 1.49 2.90518 0.631377 0
M  V30 11 H -0.977 1.52953 0.210867 0
M  V30 12 H 0.981 2.67203 3.11629 0
M  V30 13 H -0.358 1.57376 2.7183 0
M  V30 14 H -1.165 3.90944 3.18086 0
M  V30 15 H -1.563 3.418 1.51819 0
M  V30 16 H 0.729 5.58782 3.83104 0
M  V30 17 H 1.672 6.56266 2.65933 0
M  V30 18 H 2.08 4.83886 2.90714 0
M  V30 19 N 1.4781 -0.272755 1.55222 0
M  V30 20 C 2.7241 -1.00172 1.77023 0
M  V30 21 C 3.0791 -1.83928 0.564633 0
M  V30 22 O 2.3721 -1.86416 -0.442674 0
M  V30 23 C 2.5661 -1.91642 3.01675 0
M  V30 24 C 2.3951 -1.16888 4.34243 0
M  V30 25 C 1.1651 -0.884464 4.97499 0
M  V30 26 C 3.3631 -0.55919 5.11251 0
M  V30 27 N 1.3451 -0.11015 6.13801 0
M  V30 28 C 2.7161 0.0809469 6.19947 0
M  V30 29 C 4.7711 -0.467058 4.95705 0
M  V30 30 C 3.4741 0.804335 7.14789 0
M  V30 31 C 5.5001 0.242739 5.90902 0
M  V30 32 C 4.8621 0.871613 6.98987 0
M  V30 33 H 0.9611 -0.348529 0.700037 0
M  V30 34 H 3.5451 -0.277365 1.92714 0
M  V30 35 H 1.7161 -2.61303 2.87359 0
M  V30 36 H 3.4481 -2.57901 3.1188 0
M  V30 37 H 0.2031 -1.18979 4.58411 0
M  V30 38 H 0.6271 0.264344 6.76484 0
M  V30 39 H 5.2691 -0.93894 4.12242 0
M  V30 40 H 2.9871 1.2879 7.97771 0
M  V30 41 H 6.5731 0.314347 5.8095 0
M  V30 42 H 5.4531 1.4121 7.71381 0
M  V30 43 N 2.9562 -1.48159 -0.537278 0
M  V30 44 C 4.2022 -1.56035 -1.29541 0
M  V30 45 C 4.5352 -0.230377 -1.92829 0
M  V30 46 O 3.8102 0.762952 -1.78911 0
M  V30 47 C 4.0932 -2.69323 -2.39034 0
M  V30 48 C 3.9462 -4.12002 -1.80485 0
M  V30 49 C 5.2652 -2.78408 -3.40847 0
M  V30 50 H 2.3842 -0.567992 -0.469632 0
M  V30 51 H 5.0262 -1.80302 -0.599277 0
M  V30 52 H 3.1762 -2.48763 -2.98412 0
M  V30 53 H 4.8482 -4.43981 -1.25215 0
M  V30 54 H 3.0912 -4.19344 -1.11055 0
M  V30 55 H 3.7622 -4.87077 -2.59731 0
M  V30 56 H 6.2382 -2.97012 -2.91416 0
M  V30 57 H 5.1142 -3.59416 -4.14863 0
M  V30 58 H 5.3752 -1.86269 -4.00944 0
M  V30 59 N 4.4343 0.785586 -1.36625 0
M  V30 60 C 5.6623 1.57448 -1.3423 0
M  V30 61 C 6.0773 1.88649 0.0755653 0
M  V30 62 O 5.4343 1.50414 1.03354 0
M  V30 63 C 5.4853 2.89316 -2.16745 0
M  V30 64 O 5.2063 2.59459 -3.53005 0
M  V30 65 C 6.7073 3.83606 -2.22174 0
M  V30 66 H 3.9273 0.488226 -0.4603 0
M  V30 67 H 6.4713 0.974733 -1.79775 0
M  V30 68 H 4.6263 3.4575 -1.74745 0
M  V30 69 H 5.0403 3.43804 -3.96105 0
M  V30 70 H 6.5143 4.73181 -2.8426 0
M  V30 71 H 6.9913 4.21734 -1.22627 0
M  V30 72 H 7.5973 3.33104 -2.64427 0
M  V30 73 N 5.9124 1.20967 1.01018 0
M  V30 74 C 6.8594 0.964281 2.09691 0
M  V30 75 C 7.8294 -0.107853 1.65749 0
M  V30 76 O 9.0144 0.0381987 1.90762 0
M  V30 77 C 6.1544 0.52943 3.41015 0
M  V30 78 C 5.2674 1.67043 3.98398 0
M  V30 79 C 4.4024 1.18525 5.17808 0
M  V30 80 C 3.4414 2.29892 5.67288 0
M  V30 81 N 2.5784 1.82546 6.77954 0
M  V30 82 H 7.4184 1.89463 2.30017 0
M  V30 83 H 4.9554 0.944289 1.1279 0
M  V30 84 H 6.9134 0.258588 4.16398 0
M  V30 85 H 5.5434 -0.363919 3.20742 0
M  V30 86 H 4.5954 2.05603 3.20049 0
M  V30 87 H 5.9074 2.50877 4.31117 0
M  V30 88 H 5.0614 0.870762 6.00419 0
M  V30 89 H 3.8004 0.316887 4.86669 0
M  V30 90 H 2.8054 2.6215 4.83278 0
M  V30 91 H 4.0304 3.17216 6.00459 0
M  V30 92 H 1.9764 0.980454 6.48632 0
M  V30 93 H 1.8934 2.59956 7.09901 0
M  V30 94 H 3.1614 1.54115 7.64113 0
M  V30 95 N 7.3905 -1.2043 1.01659 0
M  V30 96 C 8.3205 -2.25466 0.607226 0
M  V30 97 C 9.3015 -1.65853 -0.377716 0
M  V30 98 O 10.4865 -1.92409 -0.263149 0
M  V30 99 C 7.6165 -3.47256 -0.0552949 0
M  V30 100 C 6.5705 -4.19462 0.850632 0
M  V30 101 C 5.8965 -5.34673 0.0538859 0
M  V30 102 C 7.1965 -4.75603 2.15868 0
M  V30 103 H 8.8905 -2.59962 1.48526 0
M  V30 104 H 6.4365 -1.2496 0.715605 0
M  V30 105 H 8.3895 -4.19917 -0.353233 0
M  V30 106 H 7.1135 -3.11924 -0.968045 0
M  V30 107 H 5.7725 -3.48667 1.13257 0
M  V30 108 H 5.4205 -4.95585 -0.860514 0
M  V30 109 H 5.1205 -5.83913 0.657192 0
M  V30 110 H 6.6445 -6.10138 -0.237598 0
M  V30 111 H 8.0585 -5.40083 1.92311 0
M  V30 112 H 6.4555 -5.3528 2.71284 0
M  V30 113 H 7.5255 -3.94346 2.82169 0
M  V30 114 N 8.8686 -0.792821 -1.36206 0
M  V30 115 C 9.7986 -0.207853 -2.32573 0
M  V30 116 C 10.7796 0.659055 -1.56813 0
M  V30 117 O 11.9646 0.592176 -1.84951 0
M  V30 118 C 9.0946 0.655449 -3.41059 0
M  V30 119 C 8.0486 -0.111842 -4.27854 0
M  V30 120 C 7.3746 0.872274 -5.27537 0
M  V30 121 C 8.6746 -1.30299 -5.05786 0
M  V30 122 H 10.3686 -1.01294 -2.81744 0
M  V30 123 H 7.9146 -0.48854 -1.3546 0
M  V30 124 H 9.8676 1.07464 -4.07467 0
M  V30 125 H 8.5916 1.49328 -2.90463 0
M  V30 126 H 7.2506 -0.512053 -3.63006 0
M  V30 127 H 6.8986 1.70523 -4.73214 0
M  V30 128 H 6.5986 0.363291 -5.86476 0
M  V30 129 H 8.1226 1.28996 -5.96818 0
M  V30 130 H 9.5366 -0.959379 -5.65216 0
M  V30 131 H 7.9336 -1.7455 -5.74154 0
M  V30 132 H 9.0036 -2.09663 -4.37229 0
M  V30 133 N 10.3467 1.47872 -0.545128 0
M  V30 134 C 11.7577 1.86384 -0.108581 0
M  V30 135 C 12.1087 1.45309 1.31832 0
M  V30 136 O 11.2337 0.850641 1.9898 0
M  V30 137 C 11.8287 3.38265 -0.190274 0
M  V30 138 C 10.3877 3.75914 0.191164 0
M  V30 139 C 9.5347 2.71926 -0.543273 0
M  V30 140 H 12.4857 1.39561 -0.755537 0
M  V30 141 H 12.5067 3.75831 0.594217 0
M  V30 142 H 12.0187 3.6813 -1.2289 0
M  V30 143 H 10.1197 3.51665 1.23136 0
M  V30 144 H 10.2327 4.78836 -0.158987 0
M  V30 145 H 8.5967 2.54697 0.0122495 0
M  V30 146 H 9.3797 3.04634 -1.58282 0
M  V30 147 N 11.8248 0.280983 1.55075 0
M  V30 148 C 12.7878 -0.590896 2.21452 0
M  V30 149 C 13.7878 -1.07682 1.19421 0
M  V30 150 O 14.9778 -0.97605 1.44288 0
M  V30 151 C 12.1098 -1.81587 2.88511 0
M  V30 152 H 13.3028 -0.0112554 2.99898 0
M  V30 153 H 10.8558 0.0316438 1.56268 0
M  V30 154 H 11.5908 -2.43587 2.14093 0
M  V30 155 H 11.3758 -1.4753 3.63287 0
M  V30 156 H 12.8658 -2.43575 3.39206 0
M  V30 157 N 13.3029 -1.57598 0.00835791 0
M  V30 158 C 14.2329 -2.1198 -0.979113 0
M  V30 159 C 15.2139 -1.03091 -1.35301 0
M  V30 160 O 16.3989 -1.30818 -1.43528 0
M  V30 161 C 13.5289 -2.62995 -2.26828 0
M  V30 162 C 12.4829 -3.76485 -2.03576 0
M  V30 163 C 11.8089 -4.13846 -3.38579 0
M  V30 164 C 13.1089 -5.0342 -1.39161 0
M  V30 165 H 14.8029 -2.94738 -0.526281 0
M  V30 166 H 12.3489 -1.41783 -0.251704 0
M  V30 167 H 14.3019 -2.99669 -2.96271 0
M  V30 168 H 13.0259 -1.7737 -2.7424 0
M  V30 169 H 11.6849 -3.40217 -1.36557 0
M  V30 170 H 11.3329 -3.25232 -3.83709 0
M  V30 171 H 11.0329 -4.90312 -3.23834 0
M  V30 172 H 12.5569 -4.53086 -4.09323 0
M  V30 173 H 13.9709 -5.37812 -1.98573 0
M  V30 174 H 12.3679 -5.84746 -1.34878 0
M  V30 175 H 13.4379 -4.83548 -0.361868 0
M  V30 176 N 14.781 0.264519 -1.55364 0
M  V30 177 C 15.711 1.33121 -1.91836 0
M  V30 178 C 16.692 1.51101 -0.781192 0
M  V30 179 O 17.877 1.64003 -1.04003 0
M  V30 180 C 15.007 2.68921 -2.19769 0
M  V30 181 C 13.961 2.65661 -3.35571 0
M  V30 182 C 13.287 4.05093 -3.49004 0
M  V30 183 C 14.587 2.24187 -4.71739 0
M  V30 184 H 16.281 1.02844 -2.81182 0
M  V30 185 H 13.827 0.493286 -1.35287 0
M  V30 186 H 15.78 3.43663 -2.43872 0
M  V30 187 H 14.504 3.00799 -1.27231 0
M  V30 188 H 13.163 1.93377 -3.1145 0
M  V30 189 H 12.811 4.34206 -2.53917 0
M  V30 190 H 12.511 4.03804 -4.26868 0
M  V30 191 H 14.035 4.81561 -3.75408 0
M  V30 192 H 15.449 2.88654 -4.9533 0
M  V30 193 H 13.846 2.34044 -5.52579 0
M  V30 194 H 14.916 1.19327 -4.69988 0
M  V30 195 N 16.2591 1.48442 0.529413 0
M  V30 196 C 17.1891 1.65902 1.64313 0
M  V30 197 C 18.1701 0.507897 1.6234 0
M  V30 198 O 19.3551 0.740503 1.79528 0
M  V30 199 C 16.4851 1.69911 3.02898 0
M  V30 200 C 15.4391 2.8453 3.19729 0
M  V30 201 C 14.7651 2.73629 4.59381 0
M  V30 202 C 16.0651 4.25821 3.02447 0
M  V30 203 H 17.7591 2.5914 1.49955 0
M  V30 204 H 15.3051 1.24709 0.719982 0
M  V30 205 H 17.2581 1.80715 3.80684 0
M  V30 206 H 15.9821 0.732524 3.18279 0
M  V30 207 H 14.6411 2.73283 2.44361 0
M  V30 208 H 14.2891 1.74938 4.71599 0
M  V30 209 H 13.9891 3.50541 4.71588 0
M  V30 210 H 15.5131 2.86401 5.39265 0
M  V30 211 H 16.9271 4.37898 3.70024 0
M  V30 212 H 15.3241 5.03735 3.26146 0
M  V30 213 H 16.3941 4.42244 1.98867 0
M  V30 214 N 17.7372 -0.778329 1.37039 0
M  V30 215 C 18.6692 -1.90034 1.2814 0
M  V30 216 C 19.6822 -1.61585 0.198558 0
M  V30 217 O 20.8712 -1.72625 0.454175 0
M  V30 218 C 17.9712 -3.25108 0.956968 0
M  V30 219 C 17.1442 -3.81253 2.14394 0
M  V30 220 C 16.2032 -4.94789 1.79082 0
M  V30 221 O 15.2292 -5.10721 2.51301 0
M  V30 222 N 16.4312 -5.75878 0.731043 0
M  V30 223 H 19.1962 -1.98186 2.24816 0
M  V30 224 H 16.7572 -0.957129 1.30578 0
M  V30 225 H 18.7492 -3.9857 0.701701 0
M  V30 226 H 17.3192 -3.125 0.0789812 0
M  V30 227 H 16.5392 -2.99647 2.56135 0
M  V30 228 H 17.8272 -4.15495 2.93668 0
M  V30 229 H 17.2252 -5.65547 0.131618 0
M  V30 230 H 15.7822 -6.49596 0.535622 0
M  V30 231 N 19.2153 -1.21501 -1.00376 0
M  V30 232 C 20.1653 -0.942843 -2.07592 0
M  V30 233 C 21.1493 0.102384 -1.60574 0
M  V30 234 O 22.3413 -0.10671 -1.76678 0
M  V30 235 C 19.4703 -0.510729 -3.3948 0
M  V30 236 C 18.5563 -1.59009 -3.93163 0
M  V30 237 N 18.9473 -2.81544 -4.20198 0
M  V30 238 C 17.2453 -1.45925 -4.21452 0
M  V30 239 C 17.9463 -3.51261 -4.63671 0
M  V30 240 N 16.9223 -2.78703 -4.66718 0
M  V30 241 H 20.7243 -1.87378 -2.26421 0
M  V30 242 H 18.2383 -1.11093 -1.18458 0
M  V30 243 H 20.2353 -0.297101 -4.1584 0
M  V30 244 H 18.8953 0.413436 -3.22057 0
M  V30 245 H 19.9063 -3.18075 -4.08716 0
M  V30 246 H 16.5833 -0.600467 -4.13159 0
M  V30 247 H 17.9733 -4.56183 -4.93302 0
M  V30 248 N 20.6934 1.19889 -1.02296 0
M  V30 249 C 21.9394 1.89701 -0.717033 0
M  V30 250 C 22.2724 1.7905 0.751989 0
M  V30 251 O 21.5474 1.17891 1.547 0
M  V30 252 C 21.8304 3.40858 -1.16136 0
M  V30 253 C 21.6834 3.60411 -2.69117 0
M  V30 254 C 23.0024 4.33876 -0.737549 0
M  V30 255 H 20.1214 0.688874 -0.261957 0
M  V30 256 H 22.7634 1.41154 -1.27183 0
M  V30 257 H 20.9134 3.82335 -0.689342 0
M  V30 258 H 22.5854 3.28145 -3.2422 0
M  V30 259 H 20.8284 3.03665 -3.0979 0
M  V30 260 H 21.4994 4.66396 -2.95261 0
M  V30 261 H 23.9754 4.00081 -1.14344 0
M  V30 262 H 22.8514 5.38242 -1.0764 0
M  V30 263 H 23.1124 4.40628 0.360436 0
M  V30 264 N 22.1715 0.800033 1.35784 0
M  V30 265 C 23.1015 0.220184 2.3246 0
M  V30 266 C 24.0825 -0.65073 1.57161 0
M  V30 267 O 25.2675 -0.582359 1.85263 0
M  V30 268 C 22.3975 -0.637353 3.41402 0
M  V30 269 C 21.3515 0.134531 4.27789 0
M  V30 270 C 20.6775 -0.844285 5.27992 0
M  V30 271 C 21.9775 1.32979 5.05088 0
M  V30 272 H 23.6715 1.02787 2.81203 0
M  V30 273 H 21.2175 0.495717 1.35199 0
M  V30 274 H 23.1705 -1.05302 4.08031 0
M  V30 275 H 21.8945 -1.47785 2.91251 0
M  V30 276 H 20.5535 0.531296 3.6273 0
M  V30 277 H 20.2015 -1.68011 4.74111 0
M  V30 278 H 19.9015 -0.332184 5.8666 0
M  V30 279 H 21.4255 -1.2583 5.97494 0
M  V30 280 H 22.8395 0.98934 5.64699 0
M  V30 281 H 21.2365 1.77593 5.7322 0
M  V30 282 H 22.3065 2.11978 4.36111 0
M  V30 283 N 23.6496 -1.47581 0.552962 0
M  V30 284 C 24.5796 -2.32762 -0.185451 0
M  V30 285 C 25.5606 -1.43527 -0.912905 0
M  V30 286 O 26.7456 -1.72388 -0.894201 0
M  V30 287 C 23.8756 -3.25219 -1.21859 0
M  V30 288 C 22.8296 -4.23661 -0.607864 0
M  V30 289 C 22.1556 -5.05413 -1.74533 0
M  V30 290 C 23.4556 -5.20481 0.435582 0
M  V30 291 H 25.1496 -2.94749 0.525684 0
M  V30 292 H 22.6956 -1.41738 0.254251 0
M  V30 293 H 24.6486 -3.8365 -1.7433 0
M  V30 294 H 23.3726 -2.61279 -1.95961 0
M  V30 295 H 22.0316 -3.66451 -0.104489 0
M  V30 296 H 21.6796 -4.3788 -2.47529 0
M  V30 297 H 21.3796 -5.72059 -1.34249 0
M  V30 298 H 22.9036 -5.66701 -2.27338 0
M  V30 299 H 24.3176 -5.733 -0.00290157 0
M  V30 300 H 22.7146 -5.95305 0.757067 0
M  V30 301 H 23.7846 -4.66217 1.33303 0
M  V30 302 N 25.1277 -0.289203 -1.54924 0
M  V30 303 C 26.0777 0.606939 -2.19773 0
M  V30 304 C 27.0617 1.10783 -1.16687 0
M  V30 305 O 28.2537 1.05057 -1.4245 0
M  V30 306 C 25.3827 1.78398 -2.93307 0
M  V30 307 C 24.4687 1.29961 -4.03697 0
M  V30 308 N 24.8597 0.532377 -5.0299 0
M  V30 309 C 23.1577 1.58136 -4.17024 0
M  V30 310 C 23.8587 0.275912 -5.81045 0
M  V30 311 N 22.8347 0.852365 -5.36876 0
M  V30 312 H 26.6367 0.0130779 -2.93897 0
M  V30 313 H 24.1507 -0.09341 -1.62131 0
M  V30 314 H 26.1477 2.43741 -3.38225 0
M  V30 315 H 24.8077 2.38166 -2.20697 0
M  V30 316 H 25.8187 0.17838 -5.17593 0
M  V30 317 H 22.4957 2.18738 -3.55612 0
M  V30 318 H 23.8857 -0.339502 -6.71042 0
M  V30 319 N 26.6058 1.57591 -0.0167156 0
M  V30 320 C 27.5358 2.12496 0.967858 0
M  V30 321 C 28.5168 1.03807 1.34752 0
M  V30 322 O 29.7018 1.31577 1.42833 0
M  V30 323 C 26.8318 2.64194 2.25431 0
M  V30 324 C 25.7858 3.77559 2.01576 0
M  V30 325 C 25.1118 4.15636 3.36379 0
M  V30 326 C 26.4118 5.04151 1.36489 0
M  V30 327 H 28.1058 2.95013 0.510643 0
M  V30 328 H 25.6518 1.41915 0.244181 0
M  V30 329 H 27.6048 3.01236 2.94678 0
M  V30 330 H 26.3288 1.78821 2.73296 0
M  V30 331 H 24.9878 3.40937 1.34751 0
M  V30 332 H 24.6358 3.27263 3.81979 0
M  V30 333 H 24.3358 4.92022 3.21229 0
M  V30 334 H 25.8598 4.5525 4.06915 0
M  V30 335 H 27.2738 5.38857 1.95718 0
M  V30 336 H 25.6708 5.85453 1.31776 0
M  V30 337 H 26.7408 4.83733 0.336219 0
M  V30 338 N 28.0839 -0.256276 1.55502 0
M  V30 339 C 29.0139 -1.32102 1.92539 0
M  V30 340 C 29.9949 -1.50684 0.789194 0
M  V30 341 O 31.1799 -1.63449 1.04872 0
M  V30 342 C 28.3099 -2.67752 2.21192 0
M  V30 343 C 27.2639 -2.63878 3.36975 0
M  V30 344 C 26.5899 -4.03236 3.51147 0
M  V30 345 C 27.8899 -2.21682 4.72921 0
M  V30 346 H 29.5839 -1.01351 2.81724 0
M  V30 347 H 27.1299 -0.486105 1.35547 0
M  V30 348 H 29.0829 -3.42365 2.45691 0
M  V30 349 H 27.8069 -3.0012 1.28824 0
M  V30 350 H 26.4659 -1.91722 3.12471 0
M  V30 351 H 26.1139 -4.32854 2.56216 0
M  V30 352 H 25.8139 -4.01535 4.29003 0
M  V30 353 H 27.3379 -4.79563 3.77957 0
M  V30 354 H 28.7519 -2.86023 4.96854 0
M  V30 355 H 27.1489 -2.3111 5.53812 0
M  V30 356 H 28.2189 -1.16833 4.70615 0
M  V30 357 N 29.562 -1.4872 -0.521534 0
M  V30 358 C 30.492 -1.66771 -1.63431 0
M  V30 359 C 31.473 -0.516499 -1.62069 0
M  V30 360 O 32.658 -0.750013 -1.79132 0
M  V30 361 C 29.788 -1.71515 -3.01993 0
M  V30 362 C 28.742 -2.86222 -3.18216 0
M  V30 363 C 28.068 -2.76061 -4.57924 0
M  V30 364 C 29.368 -4.27419 -3.00184 0
M  V30 365 H 31.062 -2.59932 -1.48579 0
M  V30 366 H 28.608 -1.25089 -0.713358 0
M  V30 367 H 30.561 -1.82731 -3.7972 0
M  V30 368 H 29.285 -0.749393 -3.17886 0
M  V30 369 H 27.944 -2.74575 -2.42908 0
M  V30 370 H 27.592 -1.77437 -4.70665 0
M  V30 371 H 27.292 -3.53037 -4.69722 0
M  V30 372 H 28.816 -2.89256 -5.37739 0
M  V30 373 H 30.23 -4.39855 -3.67697 0
M  V30 374 H 28.627 -5.05458 -3.2347 0
M  V30 375 H 29.697 -4.43293 -1.96518 0
M  V30 376 N 31.0401 0.771051 -1.3745 0
M  V30 377 C 31.9701 1.89827 -1.3597 0
M  V30 378 C 32.9511 1.68562 -0.228216 0
M  V30 379 O 34.1361 1.8941 -0.428675 0
M  V30 380 C 31.2661 3.2712 -1.16662 0
M  V30 381 C 30.2201 3.6295 -2.2683 0
M  V30 382 C 29.5461 4.98791 -1.92644 0
M  V30 383 C 30.8461 3.69627 -3.69017 0
M  V30 384 H 32.5401 1.91323 -2.30295 0
M  V30 385 H 30.0861 0.919082 -1.10855 0
M  V30 386 H 32.0391 4.05615 -1.14256 0
M  V30 387 H 30.7631 3.26059 -0.187926 0
M  V30 388 H 29.4221 2.86763 -2.28392 0
M  V30 389 H 29.0701 4.94271 -0.933021 0
M  V30 390 H 28.7701 5.23733 -2.66416 0
M  V30 391 H 30.2941 5.79685 -1.91826 0
M  V30 392 H 31.7081 4.38273 -3.69581 0
M  V30 393 H 30.1051 4.06067 -4.41848 0
M  V30 394 H 31.1751 2.70273 -4.02592 0
M  V30 395 N 32.5182 1.22032 0.997298 0
M  V30 396 C 33.9292 1.0397 1.55071 0
M  V30 397 C 34.2802 -0.398192 1.92117 0
M  V30 398 O 33.4052 -1.28254 1.74298 0
M  V30 399 C 34.0002 1.88109 2.81781 0
M  V30 400 C 32.5592 1.74357 3.33581 0
M  V30 401 C 31.7062 1.84846 2.06706 0
M  V30 402 H 34.6572 1.35941 0.818883 0
M  V30 403 H 34.6782 1.39589 3.53971 0
M  V30 404 H 34.1902 2.92754 2.54787 0
M  V30 405 H 32.2912 0.72427 3.65493 0
M  V30 406 H 32.4042 2.56772 4.04481 0
M  V30 407 H 30.7682 1.28238 2.20062 0
M  V30 408 H 31.5512 2.91014 1.82114 0
M  V30 409 N 33.9963 -1.19345 1.0293 0
M  V30 410 C 35.2453 -1.88363 0.721256 0
M  V30 411 C 35.5583 -1.80514 -0.753254 0
M  V30 412 O 36.7643 -2.44788 -1.17436 0
M  V30 413 C 35.2203 -3.37872 1.23978 0
M  V30 414 C 34.8283 -3.54278 2.74211 0
M  V30 415 C 36.5723 -4.12365 1.00775 0
M  V30 416 C 34.4793 -4.97682 3.19479 0
M  V30 417 H 33.4093 -0.705484 0.266098 0
M  V30 418 H 36.0603 -1.34928 1.24365 0
M  V30 419 H 34.4423 -3.90707 0.6453 0
M  V30 420 H 35.6163 -3.11769 3.39318 0
M  V30 421 H 33.9313 -2.93174 2.95699 0
M  V30 422 H 36.5283 -5.18119 1.32123 0
M  V30 423 H 36.8713 -4.16263 -0.0554308 0
M  V30 424 H 37.4043 -3.65668 1.56625 0
M  V30 425 H 34.1433 -4.98945 4.25128 0
M  V30 426 H 33.6633 -5.4095 2.591 0
M  V30 427 H 35.3423 -5.66337 3.12845 0
M  V30 428 N 35.4744 -0.807222 -1.35358 0
M  V30 429 C 36.4374 -0.223665 -2.28106 0
M  V30 430 C 37.4374 0.589354 -1.4961 0
M  V30 431 O 38.6274 0.407745 -1.69361 0
M  V30 432 C 35.7594 0.688149 -3.33882 0
M  V30 433 H 36.9524 -1.04169 -2.81227 0
M  V30 434 H 34.5054 -0.577921 -1.45223 0
M  V30 435 H 35.2404 1.52984 -2.85948 0
M  V30 436 H 35.0254 0.10687 -3.91954 0
M  V30 437 H 36.5154 1.09075 -4.03104 0
M  V30 438 N 36.9525 1.47285 -0.560781 0
M  V30 439 C 38.2015 2.01668 -0.035895 0
M  V30 440 C 38.5145 1.44021 1.32353 0
M  V30 441 O 39.7205 1.90088 1.93853 0
M  V30 442 C 38.1765 3.59897 -0.0136659 0
M  V30 443 C 37.7845 4.26536 -1.37006 0
M  V30 444 C 39.5285 4.22017 0.458425 0
M  V30 445 C 37.4355 5.76782 -1.30675 0
M  V30 446 H 36.3655 0.753938 -0.00964879 0
M  V30 447 H 39.0165 1.69243 -0.709166 0
M  V30 448 H 37.3985 3.89301 0.725325 0
M  V30 449 H 38.5725 4.0877 -2.12705 0
M  V30 450 H 36.8875 3.76419 -1.78038 0
M  V30 451 H 39.4845 5.32124 0.524247 0
M  V30 452 H 39.8275 3.89437 1.4712 0
M  V30 453 H 40.3605 3.97159 -0.225818 0
M  V30 454 H 37.0995 6.13988 -2.29564 0
M  V30 455 H 36.6195 5.96875 -0.591622 0
M  V30 456 H 38.2985 6.39063 -1.01033 0
M  V30 457 N 38.4306 0.297415 1.54768 0
M  V30 458 C 39.8416 -0.195947 1.85669 0
M  V30 459 C 40.1926 -1.53707 1.21937 0
M  V30 460 O 39.3176 -2.10164 0.515754 0
M  V30 461 C 39.9126 -0.362318 3.36857 0
M  V30 462 C 38.4716 -0.799901 3.67802 0
M  V30 463 C 37.6186 0.0938578 2.77141 0
M  V30 464 H 40.5696 0.518538 1.4999 0
M  V30 465 H 40.5906 -1.19745 3.61167 0
M  V30 466 H 40.1026 0.613921 3.83214 0
M  V30 467 H 38.2036 -1.78682 3.26961 0
M  V30 468 H 38.3166 -0.621773 4.75048 0
M  V30 469 H 36.6806 -0.426254 2.51108 0
M  V30 470 H 37.4636 1.06639 3.26318 0
M  V30 471 N 39.9087 -1.5758 0.0250728 0
M  V30 472 C 41.1387 -1.95646 -0.663783 0
M  V30 473 C 41.5467 -0.899935 -1.66427 0
M  V30 474 O 40.8897 0.127191 -1.83259 0
M  V30 475 C 40.9517 -3.29835 -1.43 0
M  V30 476 C 40.6157 -4.53197 -0.588305 0
M  V30 477 C 41.6127 -5.19726 0.13469 0
M  V30 478 C 39.2977 -4.99529 -0.526897 0
M  V30 479 C 41.2917 -6.30902 0.90781 0
M  V30 480 C 38.9787 -6.10589 0.24993 0
M  V30 481 C 39.9767 -6.76134 0.965994 0
M  V30 482 O 39.6647 -7.85062 1.7301 0
M  V30 483 H 39.3967 -0.649282 -0.188174 0
M  V30 484 H 41.9507 -2.05245 0.0799006 0
M  V30 485 H 40.1807 -3.16716 -2.21873 0
M  V30 486 H 41.8697 -3.52833 -2.00658 0
M  V30 487 H 42.6357 -4.84904 0.0965562 0
M  V30 488 H 38.5147 -4.48319 -1.07381 0
M  V30 489 H 42.0587 -6.81995 1.46724 0
M  V30 490 H 37.9557 -6.44849 0.289795 0
M  V30 491 H 38.7237 -8.01708 1.64944 0
M  V30 492 N 41.3868 0.248026 -1.55636 0
M  V30 493 C 42.3498 1.29044 -1.89421 0
M  V30 494 C 43.3498 1.41134 -0.770581 0
M  V30 495 O 44.5398 1.39854 -1.03858 0
M  V30 496 C 41.6718 2.66831 -2.12165 0
M  V30 497 H 42.8648 1.00305 -2.82629 0
M  V30 498 H 40.4178 0.487265 -1.48511 0
M  V30 499 H 41.1528 3.00711 -1.21422 0
M  V30 500 H 40.9378 2.59438 -2.93997 0
M  V30 501 H 42.4278 3.42103 -2.3949 0
M  V30 502 N 42.8649 1.48995 0.513639 0
M  V30 503 C 43.7749 1.67443 1.64317 0
M  V30 504 C 44.7909 0.556947 1.64846 0
M  V30 505 O 45.9669 0.830082 1.83498 0
M  V30 506 C 43.0319 1.72515 3.00732 0
M  V30 507 C 42.0929 2.96009 3.1093 0
M  V30 508 C 41.3259 3.00829 4.40837 0
M  V30 509 O 41.5489 2.13594 5.28898 0
M  V30 510 O 40.4829 3.93168 4.55744 0
M  V30 511 H 44.3089 2.63106 1.51687 0
M  V30 512 H 41.8939 1.32588 0.688543 0
M  V30 513 H 43.7759 1.78277 3.81831 0
M  V30 514 H 42.4509 0.800278 3.13651 0
M  V30 515 H 41.3579 2.9577 2.29065 0
M  V30 516 H 42.6909 3.87934 3.02933 0
M  V30 517 N 44.343 -0.763751 1.37857 0
M  V30 518 C 45.591 -1.51957 1.33243 0
M  V30 519 C 45.912 -1.94835 -0.0801709 0
M  V30 520 O 45.182 -1.66894 -1.02582 0
M  V30 521 H 43.762 -0.563626 0.49024 0
M  V30 522 H 46.424 -0.908504 1.7243 0
M  V30 523 H 45.52 -2.41523 1.97669 0
M  V30 524 N 45.8211 -1.22559 -0.990812 0
M  V30 525 C 46.7531 -0.955325 -2.08342 0
M  V30 526 C 47.7661 0.0668408 -1.62663 0
M  V30 527 O 48.9551 -0.167421 -1.77713 0
M  V30 528 C 46.0551 -0.415566 -3.36342 0
M  V30 529 C 45.2281 -1.49544 -4.11042 0
M  V30 530 C 44.2871 -0.962399 -5.17324 0
M  V30 531 O 43.3131 -1.64907 -5.44788 0
M  V30 532 N 44.5151 0.215134 -5.80101 0
M  V30 533 H 47.2801 -1.89596 -2.32106 0
M  V30 534 H 44.8411 -1.13276 -1.15673 0
M  V30 535 H 46.8331 -0.0442386 -4.04676 0
M  V30 536 H 45.4031 0.430232 -3.09625 0
M  V30 537 H 44.6231 -2.04 -3.37309 0
M  V30 538 H 45.9111 -2.22195 -4.57719 0
M  V30 539 H 45.3091 0.789779 -5.6016 0
M  V30 540 H 43.8661 0.527826 -6.49659 0
M  V30 541 N 47.2992 1.18797 -1.03562 0
M  V30 542 C 48.7152 1.40671 -0.753917 0
M  V30 543 C 48.9152 1.9043 0.658686 0
M  V30 544 O 47.9712 2.08538 1.42366 0
M  V30 545 C 49.2842 2.41192 -1.79574 0
M  V30 546 C 50.8322 2.54928 -1.81606 0
M  V30 547 C 51.3072 3.58709 -2.84766 0
M  V30 548 N 52.7982 3.66212 -2.83625 0
M  V30 549 C 53.5332 4.46225 -3.60098 0
M  V30 550 N 53.0292 5.29888 -4.46308 0
M  V30 551 N 54.8222 4.40939 -3.4861 0
M  V30 552 H 46.9732 0.848221 -1.94728 0
M  V30 553 H 49.2362 0.435081 -0.842264 0
M  V30 554 H 48.9422 2.11669 -2.80872 0
M  V30 555 H 48.8162 3.40467 -1.62365 0
M  V30 556 H 51.2032 2.83771 -0.809817 0
M  V30 557 H 51.2842 1.55784 -2.02891 0
M  V30 558 H 50.9282 3.30607 -3.85566 0
M  V30 559 H 50.8582 4.57519 -2.60737 0
M  V30 560 H 53.3492 3.06466 -2.21105 0
M  V30 561 H 53.6622 5.88078 -5.01382 0
M  V30 562 H 52.0072 5.29326 -4.50377 0
M  V30 563 H 55.1982 3.74624 -2.80668 0
M  V30 564 H 55.3712 5.03056 -4.08459 0
M  V30 565 N 48.7773 0.814389 1.34928 0
M  V30 566 C 49.7243 0.22822 2.29669 0
M  V30 567 C 50.6943 -0.642164 1.53184 0
M  V30 568 O 51.8793 -0.585605 1.81591 0
M  V30 569 C 49.0193 -0.61089 3.3965 0
M  V30 570 C 48.1323 0.280792 4.31086 0
M  V30 571 C 47.2673 -0.567067 5.28165 0
M  V30 572 C 46.3063 0.324531 6.11239 0
M  V30 573 N 45.4433 -0.483756 7.00431 0
M  V30 574 H 50.2833 1.04153 2.79206 0
M  V30 575 H 47.8203 0.525133 1.37407 0
M  V30 576 H 49.7783 -1.11263 4.0209 0
M  V30 577 H 48.4083 -1.38939 2.91369 0
M  V30 578 H 47.4603 0.900688 3.69583 0
M  V30 579 H 48.7723 0.966723 4.89342 0
M  V30 580 H 47.9263 -1.13363 5.96015 0
M  V30 581 H 46.6653 -1.28654 4.70425 0
M  V30 582 H 45.6703 0.903298 5.42329 0
M  V30 583 H 46.8953 1.04198 6.71059 0
M  V30 584 H 44.8413 -1.18706 6.45171 0
M  V30 585 H 44.7583 0.143965 7.55863 0
M  V30 586 H 46.0263 -1.03334 7.7262 0
M  V30 587 N 50.2554 -1.46986 0.568584 0
M  V30 588 C 51.6714 -1.57946 0.229189 0
M  V30 589 C 51.8714 -1.56567 -1.26843 0
M  V30 590 O 50.9274 -1.47511 -2.04931 0
M  V30 591 C 52.2404 -2.87963 0.865909 0
M  V30 592 C 53.7884 -3.01568 0.838188 0
M  V30 593 C 54.2634 -4.34301 1.45419 0
M  V30 594 N 55.7544 -4.40965 1.41788 0
M  V30 595 C 56.4894 -5.42256 1.86403 0
M  V30 596 N 55.9854 -6.50297 2.38926 0
M  V30 597 N 57.7784 -5.3337 1.77405 0
M  V30 598 H 49.9294 -1.46126 1.54146 0
M  V30 599 H 52.1924 -0.696156 0.643484 0
M  V30 600 H 51.8984 -2.94742 1.91886 0
M  V30 601 H 51.7724 -3.75423 0.365687 0
M  V30 602 H 54.1594 -2.94379 -0.206106 0
M  V30 603 H 54.2404 -2.1562 1.37629 0
M  V30 604 H 53.8844 -4.42247 2.49761 0
M  V30 605 H 53.8144 -5.19 0.891435 0
M  V30 606 H 56.3054 -3.63484 1.03381 0
M  V30 607 H 56.6184 -7.23777 2.70863 0
M  V30 608 H 54.9634 -6.51155 2.42944 0
M  V30 609 H 58.1544 -4.47865 1.3614 0
M  V30 610 H 58.3274 -6.12169 2.12492 0
M  V30 611 N 51.7335 -0.305618 -1.54608 0
M  V30 612 C 53.1495 0.0476228 -1.59529 0
M  V30 613 C 53.3495 1.52025 -1.32252 0
M  V30 614 O 52.4055 2.27368 -1.09818 0
M  V30 615 C 53.7185 -0.354471 -2.98603 0
M  V30 616 C 55.2665 -0.303622 -3.11524 0
M  V30 617 C 55.7415 -0.680608 -4.52915 0
M  V30 618 N 57.2325 -0.63332 -4.5885 0
M  V30 619 C 57.9675 -0.897432 -5.66334 0
M  V30 620 N 57.4635 -1.22775 -6.81834 0
M  V30 621 N 59.2565 -0.824186 -5.56025 0
M  V30 622 H 51.4075 -1.2653 -1.70599 0
M  V30 623 H 53.6705 -0.513291 -0.797017 0
M  V30 624 H 53.3765 -1.3798 -3.23503 0
M  V30 625 H 53.2505 0.289568 -3.76087 0
M  V30 626 H 55.6375 0.712472 -2.8637 0
M  V30 627 H 55.7185 -0.982348 -2.36185 0
M  V30 628 H 55.3625 -1.69453 -4.78799 0
M  V30 629 H 55.2925 0.0202385 -5.26596 0
M  V30 630 H 57.7835 -0.389138 -3.75891 0
M  V30 631 H 58.0965 -1.41513 -7.59733 0
M  V30 632 H 56.4415 -1.26583 -6.83375 0
M  V30 633 H 59.6325 -0.565748 -4.64669 0
M  V30 634 H 59.8055 -1.03338 -6.39707 0
M  V30 635 N 53.2116 1.57565 -0.0334293 0
M  V30 636 C 54.1596 2.1164 0.96496 0
M  V30 637 C 55.1536 1.04398 1.33407 0
M  V30 638 O 56.3596 1.22828 1.3158 0
M  V30 639 H 52.7346 0.676222 0.32898 0
M  V30 640 H 54.7056 2.94455 0.483614 0
M  V30 641 C 53.4546 2.66207 2.23672 0
M  V30 642 H 52.7776 3.48378 1.96145 0
M  V30 643 H 54.2176 3.07685 2.9173 0
M  V30 644 C 52.6766 1.59151 2.96939 0
M  V30 645 O 53.2066 0.993858 3.89211 0
M  V30 646 N 51.4126 1.31093 2.59351 0
M  V30 647 H 50.9596 1.7988 1.84393 0
M  V30 648 H 50.9176 0.596889 3.08682 0
M  V30 649 N 54.6897 -0.239769 1.55765 0
M  V30 650 C 55.9177 -0.98417 1.81994 0
M  V30 651 C 56.3327 -1.7867 0.610124 0
M  V30 652 O 55.6897 -1.77571 -0.421271 0
M  V30 653 C 55.7407 -1.91635 3.06526 0
M  V30 654 O 55.4617 -1.14629 4.22838 0
M  V30 655 C 56.9627 -2.77616 3.45607 0
M  V30 656 H 54.1827 -0.28928 0.605441 0
M  V30 657 H 56.7267 -0.260499 2.02834 0
M  V30 658 H 54.8817 -2.5942 2.87715 0
M  V30 659 H 55.2957 -1.77745 4.93464 0
M  V30 660 H 56.7697 -3.38759 4.35828 0
M  V30 661 H 57.2467 -3.4909 2.6652 0
M  V30 662 H 57.8527 -2.15271 3.66795 0
M  V30 663 N 56.1678 -1.49265 -0.50573 0
M  V30 664 C 57.4168 -1.57761 -1.25675 0
M  V30 665 C 57.7298 -0.267371 -1.93764 0
M  V30 666 O 58.9358 -0.230827 -2.70517 0
M  V30 667 C 57.3918 -2.78332 -2.28165 0
M  V30 668 C 56.9998 -4.16096 -1.66037 0
M  V30 669 C 58.7438 -2.96155 -3.04125 0
M  V30 670 C 56.6508 -5.27895 -2.6661 0
M  V30 671 H 55.5808 -0.587391 -0.472745 0
M  V30 672 H 58.2318 -1.75644 -0.53118 0
M  V30 673 H 56.6138 -2.53934 -3.03865 0
M  V30 674 H 57.7878 -4.50612 -0.963622 0
M  V30 675 H 56.1028 -4.03591 -1.02484 0
M  V30 676 H 58.6998 -3.76849 -3.79327 0
M  V30 677 H 59.0428 -2.06534 -3.61455 0
M  V30 678 H 59.5758 -3.2057 -2.35541 0
M  V30 679 H 56.3148 -6.1956 -2.14068 0
M  V30 680 H 55.8348 -4.97839 -3.34539 0
M  V30 681 H 57.5138 -5.57031 -3.29129 0
M  V30 682 N 57.6459 0.756429 -1.3826 0
M  V30 683 C 58.5959 1.86069 -1.31766 0
M  V30 684 C 59.5799 1.59621 -0.202483 0
M  V30 685 O 60.7719 1.7149 -0.438211 0
M  V30 686 C 57.9009 3.23742 -1.1422 0
M  V30 687 C 56.9869 3.56091 -2.30348 0
M  V30 688 N 57.3779 3.59517 -3.55783 0
M  V30 689 C 55.6759 3.86341 -2.22838 0
M  V30 690 C 56.3769 3.89052 -4.32451 0
M  V30 691 N 55.3529 4.05736 -3.61772 0
M  V30 692 H 59.1549 1.86992 -2.26741 0
M  V30 693 H 56.6689 0.953643 -1.31451 0
M  V30 694 H 58.6659 4.02761 -1.07652 0
M  V30 695 H 57.3259 3.24073 -0.201763 0
M  V30 696 H 58.3369 3.41347 -3.89491 0
M  V30 697 H 55.0139 3.94404 -1.36937 0
M  V30 698 H 56.4039 3.98349 -5.4108 0
M  V30 699 N 59.124 1.23083 0.984299 0
M  V30 700 C 60.034 1.02515 2.11016 0
M  V30 701 C 61.05 -0.0291702 1.73976 0
M  V30 702 O 62.226 0.165434 2.00719 0
M  V30 703 C 59.291 0.614673 3.41208 0
M  V30 704 C 58.352 1.74359 3.92297 0
M  V30 705 C 57.585 1.35261 5.16275 0
M  V30 706 O 57.808 0.235136 5.69915 0
M  V30 707 O 56.742 2.17227 5.61334 0
M  V30 708 H 60.568 1.96862 2.31255 0
M  V30 709 H 58.153 1.01753 1.09392 0
M  V30 710 H 60.035 0.396518 4.1953 0
M  V30 711 H 58.71 -0.299851 3.22308 0
M  V30 712 H 57.617 2.01635 3.1511 0
M  V30 713 H 58.95 2.63629 4.15645 0
M  V30 714 N 60.6021 -1.18246 1.0419 0
M  V30 715 C 61.8491 -1.88257 0.746017 0
M  V30 716 C 62.1771 -1.80429 -0.726331 0
M  V30 717 O 61.4321 -1.2 -1.54591 0
M  V30 718 C 61.7311 -3.38082 1.15911 0
M  V30 719 C 61.3971 -3.66114 2.63195 0
M  V30 720 C 60.0591 -3.73474 3.03432 0
M  V30 721 C 62.4111 -3.78398 3.5842 0
M  V30 722 C 59.7391 -3.90599 4.37778 0
M  V30 723 C 62.0911 -3.97039 4.92487 0
M  V30 724 C 60.7551 -4.02635 5.32392 0
M  V30 725 H 60.0251 -0.688883 0.272987 0
M  V30 726 H 62.6721 -1.3995 1.30715 0
M  V30 727 H 60.9771 -3.88377 0.516806 0
M  V30 728 H 62.6741 -3.90596 0.907516 0
M  V30 729 H 59.2641 -3.61003 2.3103 0
M  V30 730 H 63.4481 -3.72042 3.28479 0
M  V30 731 H 58.7041 -3.93175 4.68213 0
M  V30 732 H 62.8781 -4.05486 5.66175 0
M  V30 733 H 60.5051 -4.15657 6.36501 0
M  V30 734 N 62.0802 -0.821533 -1.34494 0
M  V30 735 C 63.0272 -0.240397 -2.29545 0
M  V30 736 C 63.9972 0.634031 -1.53523 0
M  V30 737 O 65.1822 0.575966 -1.81899 0
M  V30 738 C 62.3222 0.592869 -3.39969 0
M  V30 739 C 61.4352 -0.30365 -4.30932 0
M  V30 740 C 60.5702 0.539049 -5.28458 0
M  V30 741 C 59.6092 -0.356942 -6.11058 0
M  V30 742 N 58.7462 0.446603 -7.00678 0
M  V30 743 H 63.5862 -1.05632 -2.7865 0
M  V30 744 H 61.1232 -0.532413 -1.37127 0
M  V30 745 H 63.0812 1.09129 -4.02675 0
M  V30 746 H 61.7112 1.37392 -2.92102 0
M  V30 747 H 60.7632 -0.920276 -3.691 0
M  V30 748 H 62.0752 -0.992661 -4.88823 0
M  V30 749 H 61.2292 1.102 -5.96608 0
M  V30 750 H 59.9682 1.26157 -4.71101 0
M  V30 751 H 58.9732 -0.932047 -5.41842 0
M  V30 752 H 60.1982 -1.07755 -6.70497 0
M  V30 753 H 58.1442 1.15282 -6.45791 0
M  V30 754 H 58.0612 -0.184048 -7.55776 0
M  V30 755 H 59.3292 0.992352 -7.73158 0
M  V30 756 N 63.5583 1.46682 -0.576371 0
M  V30 757 C 64.5053 2.30241 0.160499 0
M  V30 758 C 65.4753 1.40233 0.890162 0
M  V30 759 O 66.6603 1.69186 0.882084 0
M  V30 760 C 63.8003 3.24578 1.1723 0
M  V30 761 C 62.9133 4.29684 0.446736 0
M  V30 762 C 62.0483 5.11154 1.44551 0
M  V30 763 C 61.0873 6.08015 0.70599 0
M  V30 764 N 60.2243 6.82376 1.65251 0
M  V30 765 H 65.0643 2.92727 -0.558127 0
M  V30 766 H 62.6013 1.44272 -0.287056 0
M  V30 767 H 64.5593 3.77711 1.77172 0
M  V30 768 H 63.1893 2.63916 1.85872 0
M  V30 769 H 62.2413 3.79458 -0.267594 0
M  V30 770 H 63.5533 4.98626 -0.131686 0
M  V30 771 H 62.7073 5.68533 2.11791 0
M  V30 772 H 61.4463 4.42158 2.05786 0
M  V30 773 H 60.4513 5.49796 0.0197725 0
M  V30 774 H 61.6763 6.79028 0.09912 0
M  V30 775 H 59.6223 6.16094 2.25308 0
M  V30 776 H 59.5393 7.47556 1.12673 0
M  V30 777 H 60.8073 7.44316 2.31546 0
M  V30 778 N 65.0364 0.313813 1.54444 0
M  V30 779 C 66.2614 -0.296681 2.05267 0
M  V30 780 C 66.6864 -1.45757 1.18897 0
M  V30 781 O 66.0444 -1.80239 0.195886 0
M  V30 782 C 66.0924 -0.71831 3.53373 0
M  V30 783 O 65.1964 -1.82175 3.69981 0
M  V30 784 H 64.5374 -0.0554061 0.661684 0
M  V30 785 H 67.0674 0.459387 1.99376 0
M  V30 786 H 67.0774 -1.00364 3.95463 0
M  V30 787 H 65.7524 0.130821 4.15694 0
M  V30 788 H 64.3294 -1.53598 3.39797 0
M  V30 789 N 66.5145 -1.57545 0.0417849 0
M  V30 790 C 67.4775 -2.09885 -0.92093 0
M  V30 791 C 68.4775 -1.01648 -1.24596 0
M  V30 792 O 69.6675 -1.27759 -1.1842 0
M  V30 793 C 66.7995 -2.57527 -2.23367 0
M  V30 794 H 67.9925 -2.96236 -0.467382 0
M  V30 795 H 65.5455 -1.5493 -0.206467 0
M  V30 796 H 66.2805 -1.74542 -2.73323 0
M  V30 797 H 66.0655 -3.36613 -2.01083 0
M  V30 798 H 67.5555 -2.98201 -2.92346 0
M  V30 799 N 67.9926 0.231505 -1.5589 0
M  V30 800 C 68.9396 1.28682 -1.91598 0
M  V30 801 C 69.9096 1.47071 -0.771974 0
M  V30 802 O 71.0946 1.60802 -1.027 0
M  V30 803 C 68.2346 2.6342 -2.22944 0
M  V30 804 C 67.3476 2.52912 -3.50228 0
M  V30 805 C 66.4826 3.80106 -3.7107 0
M  V30 806 C 65.5216 3.64279 -4.91902 0
M  V30 807 N 64.6586 4.834 -5.09184 0
M  V30 808 H 69.4986 0.975305 -2.81588 0
M  V30 809 H 67.0356 0.470299 -1.39379 0
M  V30 810 H 68.9936 3.41869 -2.39126 0
M  V30 811 H 67.6236 2.92687 -1.36139 0
M  V30 812 H 66.6756 1.6595 -3.42294 0
M  V30 813 H 67.9876 2.37133 -4.38827 0
M  V30 814 H 67.1416 4.66999 -3.87295 0
M  V30 815 H 65.8806 3.98799 -2.80733 0
M  V30 816 H 64.8856 2.7577 -4.75637 0
M  V30 817 H 66.1106 3.47067 -5.83714 0
M  V30 818 H 64.0566 5.02425 -4.21788 0
M  V30 819 H 63.9736 4.70311 -5.91898 0
M  V30 820 H 65.2416 5.71747 -5.29835 0
M  V30 821 N 69.4707 1.49531 0.497807 0
M  V30 822 C 70.6987 1.62893 1.27567 0
M  V30 823 C 71.1137 0.301585 1.86376 0
M  V30 824 O 70.4707 -0.713335 1.67982 0
M  V30 825 C 70.5217 2.70013 2.40364 0
M  V30 826 O 70.2427 3.976 1.83972 0
M  V30 827 C 71.7437 2.94109 3.31685 0
M  V30 828 H 68.9637 0.548298 0.386794 0
M  V30 829 H 71.5077 1.95584 0.597245 0
M  V30 830 H 69.6627 2.40092 3.04031 0
M  V30 831 H 70.0767 4.56631 2.58047 0
M  V30 832 H 71.5507 3.72788 4.07104 0
M  V30 833 H 72.0277 2.04147 3.88871 0
M  V30 834 H 72.6337 3.2546 2.73781 0
M  V30 835 N 70.9488 -0.749086 1.3866 0
M  V30 836 C 72.1768 -1.53834 1.38358 0
M  V30 837 C 72.5918 -1.88783 -0.0255219 0
M  V30 838 O 71.9488 -1.53101 -0.993292 0
M  V30 839 C 71.9998 -2.83468 2.2434 0
M  V30 840 O 71.7208 -2.50008 3.5976 0
M  V30 841 C 73.2218 -3.7758 2.32267 0
M  V30 842 H 70.4418 -0.47585 0.473083 0
M  V30 843 H 72.9858 -0.926726 1.82297 0
M  V30 844 H 71.1408 -3.40995 1.83851 0
M  V30 845 H 71.5548 -3.33182 4.05081 0
M  V30 846 H 73.0288 -4.65478 2.96706 0
M  V30 847 H 73.5058 -4.18334 1.33765 0
M  V30 848 H 74.1118 -3.25976 2.73166 0
M  V30 849 N 72.4269 -1.23603 -0.977757 0
M  V30 850 C 73.3569 -1.04401 -2.0886 0
M  V30 851 C 74.3379 0.0399052 -1.70053 0
M  V30 852 O 75.5229 -0.125246 -1.93796 0
M  V30 853 C 72.6529 -0.637269 -3.41403 0
M  V30 854 C 71.6069 -1.66883 -3.94124 0
M  V30 855 C 70.9329 -1.11745 -5.22893 0
M  V30 856 C 72.2329 -3.06247 -4.23096 0
M  V30 857 H 73.9269 -1.97316 -2.25182 0
M  V30 858 H 71.4729 -0.950096 -1.08209 0
M  V30 859 H 73.4259 -0.48998 -4.18542 0
M  V30 860 H 72.1499 0.327557 -3.24953 0
M  V30 861 H 70.8089 -1.80416 -3.19133 0
M  V30 862 H 70.4569 -0.143527 -5.02795 0
M  V30 863 H 70.1569 -1.80672 -5.59134 0
M  V30 864 H 71.6809 -0.982067 -6.02651 0
M  V30 865 H 73.0949 -2.96001 -4.90975 0
M  V30 866 H 71.4919 -3.72436 -4.70544 0
M  V30 867 H 72.5619 -3.55041 -3.30263 0
M  V30 868 N 73.905 1.17692 -1.04816 0
M  V30 869 C 75.154 1.87192 -0.751132 0
M  V30 870 C 75.467 1.8169 0.724441 0
M  V30 871 O 76.673 2.46625 1.13527 0
M  V30 872 C 75.129 3.35857 -1.29338 0
M  V30 873 C 74.737 3.4987 -2.79812 0
M  V30 874 C 76.481 4.10709 -1.07322 0
M  V30 875 C 74.388 4.92536 -3.27356 0
M  V30 876 H 73.318 0.701162 -0.277288 0
M  V30 877 H 75.969 1.32932 -1.26496 0
M  V30 878 H 74.351 3.89631 -0.707376 0
M  V30 879 H 75.525 3.06332 -3.44235 0
M  V30 880 H 73.84 2.88433 -3.00325 0
M  V30 881 H 76.437 5.15952 -1.4035 0
M  V30 882 H 76.78 4.16299 -0.0108001 0
M  V30 883 H 77.313 3.6313 -1.62423 0
M  V30 884 H 74.052 4.92119 -4.33012 0
M  V30 885 H 73.572 5.3676 -2.67673 0
M  V30 886 H 75.251 5.61288 -3.21815 0
M  V30 887 N 75.3831 0.828654 1.34056 0
M  V30 888 C 76.3301 0.252567 2.29414 0
M  V30 889 C 77.3001 -0.62588 1.53857 0
M  V30 890 O 78.4851 -0.566312 1.82202 0
M  V30 891 C 75.6251 -0.574831 3.40279 0
M  V30 892 C 74.7381 0.326499 4.30764 0
M  V30 893 C 73.8731 -0.511016 5.28736 0
M  V30 894 C 72.9121 0.389342 6.1086 0
M  V30 895 N 72.0491 -0.409439 7.00905 0
M  V30 896 H 76.8891 1.07108 2.78086 0
M  V30 897 H 74.4261 0.539677 1.36843 0
M  V30 898 H 76.3841 -1.06992 4.03248 0
M  V30 899 H 75.0141 -1.35841 2.92826 0
M  V30 900 H 74.0661 0.939837 3.68607 0
M  V30 901 H 75.3781 1.01857 4.88289 0
M  V30 902 H 74.5321 -1.07035 5.97184 0
M  V30 903 H 73.2711 -1.23657 4.71763 0
M  V30 904 H 72.2761 0.960769 5.4134 0
M  V30 905 H 73.5011 1.1131 6.69916 0
M  V30 906 H 71.4471 -1.11856 6.46393 0
M  V30 907 H 71.3641 0.224126 7.55668 0
M  V30 908 H 72.6321 -0.951336 7.73673 0
M  V30 909 N 76.8612 -1.46375 0.584142 0
M  V30 910 C 78.1102 -2.01585 0.0679741 0
M  V30 911 C 78.4232 -1.46109 -1.30045 0
M  V30 912 O 79.6292 -1.93148 -1.90804 0
M  V30 913 C 78.0852 -3.5983 0.0709207 0
M  V30 914 C 77.6932 -4.24303 1.43775 0
M  V30 915 C 79.4372 -4.22693 -0.391228 0
M  V30 916 C 77.3442 -5.74631 1.39834 0
M  V30 917 H 76.2742 -0.753689 0.0216421 0
M  V30 918 H 78.9252 -1.68093 0.736001 0
M  V30 919 H 77.3072 -3.90405 -0.663299 0
M  V30 920 H 78.4812 -4.05335 2.19181 0
M  V30 921 H 76.7962 -3.73539 1.84004 0
M  V30 922 H 79.3932 -5.3289 -0.439524 0
M  V30 923 H 79.7362 -3.91728 -1.40906 0
M  V30 924 H 80.2692 -3.96749 0.288974 0
M  V30 925 H 77.0082 -6.10258 2.39303 0
M  V30 926 H 76.5282 -5.95858 0.686505 0
M  V30 927 H 78.2072 -6.37375 1.11187 0
M  V30 928 N 78.3393 -0.321999 -1.54275 0
M  V30 929 C 79.6163 0.335232 -1.92706 0
M  V30 930 C 79.9963 1.70006 -1.25145 0
M  V30 931 O 79.3443 2.25067 -0.394596 0
M  V30 932 C 79.5543 0.429008 -3.46353 0
M  V30 933 C 80.9023 0.690029 -4.18956 0
M  V30 934 O 81.9263 0.511992 -3.52501 0
M  V30 935 O 80.7853 1.03338 -5.36641 0
M  V30 936 H 77.8793 0.191143 -0.804608 0
M  V30 937 H 80.4253 -0.3716 -1.65581 0
M  V30 938 H 79.1973 -0.529611 -3.87699 0
M  V30 939 H 78.8203 1.18348 -3.79578 0
M  V30 940 N 79.8174 1.5752 -0.0501392 0
M  V30 941 C 81.2284 1.80271 0.485705 0
M  V30 942 C 81.5794 0.96228 1.70981 0
M  V30 943 O 80.7044 0.178578 2.15662 0
M  V30 944 C 81.2994 3.26957 0.887938 0
M  V30 945 C 79.8584 3.5063 1.36877 0
M  V30 946 C 79.0054 2.75165 0.343468 0
M  V30 947 H 81.9564 1.56281 -0.276028 0
M  V30 948 H 81.9774 3.37821 1.75093 0
M  V30 949 H 81.4894 3.881 -0.0031809 0
M  V30 950 H 79.5904 2.94766 2.27911 0
M  V30 951 H 79.7034 4.59343 1.36164 0
M  V30 952 H 78.0674 2.4127 0.816128 0
M  V30 953 H 78.8504 3.39034 -0.539548 0
M  V30 954 N 81.2955 -0.223234 1.56011 0
M  V30 955 C 82.2585 -1.26014 1.9145 0
M  V30 956 C 83.2585 -1.3989 0.792937 0
M  V30 957 O 84.4485 -1.38184 1.0607 0
M  V30 958 C 81.5805 -2.63422 2.16383 0
M  V30 959 H 82.7735 -0.95796 2.84189 0
M  V30 960 H 80.3265 -0.463576 1.49267 0
M  V30 961 H 81.0615 -2.98741 1.2619 0
M  V30 962 H 80.8465 -2.54728 2.98088 0
M  V30 963 H 82.3365 -3.38249 2.44903 0
M  V30 964 N 82.7736 -1.49793 -0.48987 0
M  V30 965 C 83.7036 -1.70201 -1.59856 0
M  V30 966 C 84.6846 -0.55076 -1.60937 0
M  V30 967 O 85.8696 -0.787841 -1.77501 0
M  V30 968 C 82.9996 -1.77882 -2.98287 0
M  V30 969 C 81.9536 -2.92907 -3.12073 0
M  V30 970 C 81.2796 -2.85712 -4.51965 0
M  V30 971 C 82.5796 -4.3369 -2.91051 0
M  V30 972 H 84.2736 -2.63025 -1.43032 0
M  V30 973 H 81.8196 -1.26574 -0.686664 0
M  V30 974 H 83.7726 -1.90744 -3.75759 0
M  V30 975 H 82.4966 -0.816653 -3.16225 0
M  V30 976 H 81.1556 -2.79665 -2.37029 0
M  V30 977 H 80.8036 -1.8738 -4.66795 0
M  V30 978 H 80.5036 -3.62921 -4.62128 0
M  V30 979 H 82.0276 -3.00598 -5.31482 0
M  V30 980 H 83.4416 -4.47555 -3.58284 0
M  V30 981 H 81.8386 -5.12205 -3.12675 0
M  V30 982 H 82.9086 -4.47362 -1.87071 0
M  V30 983 N 84.2517 0.741722 -1.39055 0
M  V30 984 C 85.1987 1.85566 -1.37237 0
M  V30 985 C 86.1687 1.64457 -0.233072 0
M  V30 986 O 87.3537 1.85957 -0.427147 0
M  V30 987 C 84.4937 3.23004 -1.215 0
M  V30 988 C 83.6067 3.55864 -2.44918 0
M  V30 989 C 82.7417 4.82669 -2.21821 0
M  V30 990 C 81.7807 5.08351 -3.40948 0
M  V30 991 N 80.9177 6.26356 -3.17211 0
M  V30 992 H 85.7577 1.86455 -2.32462 0
M  V30 993 H 83.2947 0.911176 -1.15482 0
M  V30 994 H 85.2527 4.02331 -1.10389 0
M  V30 995 H 83.8827 3.21411 -0.29908 0
M  V30 996 H 82.9347 2.7129 -2.66657 0
M  V30 997 H 84.2467 3.70765 -3.33668 0
M  V30 998 H 83.4007 5.69962 -2.07914 0
M  V30 999 H 82.1397 4.69929 -1.30454 0
M  V30 1000 H 81.1447 4.19522 -3.55361 0
M  V30 1001 H 82.3697 5.22981 -4.33207 0
M  V30 1002 H 80.3157 6.14917 -2.28502 0
M  V30 1003 H 80.2327 6.41813 -3.99515 0
M  V30 1004 H 81.5007 7.16506 -3.06984 0
M  V30 1005 N 85.7298 1.2412 0.971189 0
M  V30 1006 C 86.9788 1.07284 1.70801 0
M  V30 1007 C 87.2918 -0.388902 1.91695 0
M  V30 1008 O 88.4978 -0.677379 2.62914 0
M  V30 1009 C 86.9538 1.87145 3.07416 0
M  V30 1010 C 86.5618 3.37707 2.94377 0
M  V30 1011 C 88.3058 1.78828 3.84995 0
M  V30 1012 C 86.2128 4.09925 4.26281 0
M  V30 1013 H 85.1428 0.397854 0.64049 0
M  V30 1014 H 87.7938 1.4817 1.0825 0
M  V30 1015 H 86.1758 1.39071 3.70777 0
M  V30 1016 H 87.3498 3.93335 2.4005 0
M  V30 1017 H 85.6648 3.46938 2.30267 0
M  V30 1018 H 88.2618 2.30089 4.82662 0
M  V30 1019 H 88.6048 0.75284 4.09436 0
M  V30 1020 H 89.1378 2.24563 3.28354 0
M  V30 1021 H 85.8768 5.13813 4.07033 0
M  V30 1022 H 85.3968 3.59083 4.80437 0
M  V30 1023 H 87.0758 4.1673 4.94919 0
M  V30 1024 N 87.2079 -1.17134 1.05439 0
M  V30 1025 C 88.1549 -2.21235 0.657539 0
M  V30 1026 C 89.1249 -1.62551 -0.341543 0
M  V30 1027 O 90.3099 -1.89379 -0.232393 0
M  V30 1028 C 87.4499 -3.45076 0.0410575 0
M  V30 1029 C 86.5629 -4.18042 1.08927 0
M  V30 1030 C 85.6979 -5.29376 0.439848 0
M  V30 1031 C 84.7369 -5.94132 1.4722 0
M  V30 1032 N 83.8739 -6.96975 0.846756 0
M  V30 1033 H 88.7139 -2.54534 1.54972 0
M  V30 1034 H 86.2509 -1.25028 0.775006 0
M  V30 1035 H 88.2089 -4.15862 -0.33383 0
M  V30 1036 H 86.8389 -3.12353 -0.814568 0
M  V30 1037 H 85.8909 -3.45945 1.58196 0
M  V30 1038 H 87.2029 -4.62306 1.87282 0
M  V30 1039 H 86.3569 -6.06699 0.0115125 0
M  V30 1040 H 85.0959 -4.86251 -0.375656 0
M  V30 1041 H 84.1009 -5.15538 1.91052 0
M  V30 1042 H 85.3259 -6.39337 2.28965 0
M  V30 1043 H 83.2719 -6.5598 0.0518075 0
M  V30 1044 H 83.1889 -7.39565 1.5678 0
M  V30 1045 H 84.4569 -7.78239 0.443277 0
M  V30 1046 N 88.686 -0.835752 -1.33615 0
M  V30 1047 C 89.914 -0.443344 -2.02094 0
M  V30 1048 C 90.329 0.954522 -1.62894 0
M  V30 1049 O 89.686 1.61982 -0.840723 0
M  V30 1050 C 89.737 -0.550775 -3.5728 0
M  V30 1051 O 89.458 -1.89356 -3.95065 0
M  V30 1052 C 90.959 -0.154919 -4.43029 0
M  V30 1053 H 88.179 -0.176359 -0.647409 0
M  V30 1054 H 90.723 -1.12746 -1.70612 0
M  V30 1055 H 88.878 0.0853997 -3.87306 0
M  V30 1056 H 89.292 -1.87687 -4.89769 0
M  V30 1057 H 90.766 -0.281144 -5.51284 0
M  V30 1058 H 91.243 0.902863 -4.2982 0
M  V30 1059 H 91.849 -0.765404 -4.18356 0
M  V30 1060 N 90.1641 1.46063 -0.591896 0
M  V30 1061 C 91.1111 2.30399 0.136069 0
M  V30 1062 C 92.0811 1.41169 0.875238 0
M  V30 1063 O 93.2661 1.70112 0.86409 0
M  V30 1064 C 90.4061 3.25804 1.13781 0
M  V30 1065 C 89.5191 4.30134 0.401137 0
M  V30 1066 C 88.6541 5.12659 1.39121 0
M  V30 1067 C 87.6931 6.0873 0.641462 0
M  V30 1068 N 86.8301 6.8409 1.58004 0
M  V30 1069 H 91.6701 2.92118 -0.589144 0
M  V30 1070 H 89.2071 1.43959 -0.302342 0
M  V30 1071 H 91.1651 3.79569 1.73156 0
M  V30 1072 H 89.7951 2.65872 1.83062 0
M  V30 1073 H 88.8471 3.79152 -0.307826 0
M  V30 1074 H 90.1591 4.98458 -0.184565 0
M  V30 1075 H 89.3131 5.70747 2.05749 0
M  V30 1076 H 88.0521 4.44316 2.01084 0
M  V30 1077 H 87.0571 5.49786 -0.0385419 0
M  V30 1078 H 88.2821 6.79095 0.0270945 0
M  V30 1079 H 86.2281 6.18449 2.18761 0
M  V30 1080 H 86.1451 7.48709 1.04738 0
M  V30 1081 H 87.4131 7.4673 2.23639 0
M  V30 1082 N 91.6422 0.330177 1.54103 0
M  V30 1083 C 92.5892 -0.532762 2.24567 0
M  V30 1084 C 93.5592 -1.10635 1.23892 0
M  V30 1085 O 94.7442 -1.14546 1.5259 0
M  V30 1086 C 91.8842 -1.6845 3.01195 0
M  V30 1087 C 90.9972 -1.13951 4.167 0
M  V30 1088 C 90.1322 -2.25746 4.80845 0
M  V30 1089 C 89.1712 -1.6853 5.88442 0
M  V30 1090 N 88.3082 -2.74014 6.46421 0
M  V30 1091 H 93.1482 0.0746905 2.97906 0
M  V30 1092 H 90.6852 0.048632 1.4702 0
M  V30 1093 H 92.6432 -2.36234 3.43874 0
M  V30 1094 H 91.2732 -2.26314 2.30178 0
M  V30 1095 H 90.3252 -0.35301 3.78758 0
M  V30 1096 H 91.6372 -0.680892 4.94131 0
M  V30 1097 H 90.7912 -3.01422 5.26526 0
M  V30 1098 H 89.5302 -2.74947 4.0281 0
M  V30 1099 H 88.5352 -0.913543 5.42157 0
M  V30 1100 H 89.7602 -1.20198 6.68378 0
M  V30 1101 H 87.7062 -3.22494 5.71256 0
M  V30 1102 H 87.6232 -2.32735 7.19285 0
M  V30 1103 H 88.8912 -3.49499 6.96757 0
M  V30 1104 N 93.1203 -1.57491 0.0584922 0
M  V30 1105 C 94.3663 -1.93264 -0.614558 0
M  V30 1106 C 94.6993 -0.937717 -1.7006 0
M  V30 1107 O 93.9743 0.0351652 -1.94468 0
M  V30 1108 C 94.2573 -3.3938 -1.20386 0
M  V30 1109 C 94.1103 -4.49625 -0.125375 0
M  V30 1110 C 95.4293 -3.86039 -2.11334 0
M  V30 1111 H 92.5483 -0.702791 -0.221933 0
M  V30 1112 H 95.1903 -1.8961 0.12175 0
M  V30 1113 H 93.3403 -3.42626 -1.83139 0
M  V30 1114 H 95.0123 -4.58506 0.506971 0
M  V30 1115 H 93.2553 -4.30354 0.545672 0
M  V30 1116 H 93.9263 -5.48967 -0.577861 0
M  V30 1117 H 96.4023 -3.84716 -1.58534 0
M  V30 1118 H 95.2783 -4.88914 -2.49507 0
M  V30 1119 H 95.5393 -3.23215 -3.01636 0
M  V30 1120 N 94.5984 0.214957 -1.56127 0
M  V30 1121 C 95.5464 1.28601 -1.93816 0
M  V30 1122 C 96.5404 1.48175 -0.821016 0
M  V30 1123 O 97.7464 1.49271 -1.0059 0
M  V30 1124 H 94.1214 0.431302 -0.616022 0
M  V30 1125 H 96.0924 0.940991 -2.83175 0
M  V30 1126 C 94.8414 2.62779 -2.27689 0
M  V30 1127 H 94.1644 2.48527 -3.13168 0
M  V30 1128 H 95.6044 3.36517 -2.57939 0
M  V30 1129 C 94.0634 3.18285 -1.10436 0
M  V30 1130 O 94.5934 4.00002 -0.368945 0
M  V30 1131 N 92.7994 2.7675 -0.886433 0
M  V30 1132 H 92.3464 2.10404 -1.48619 0
M  V30 1133 H 92.3044 3.14229 -0.103656 0
M  V30 1134 N 96.0765 1.50051 0.48192 0
M  V30 1135 C 97.3045 1.64237 1.25832 0
M  V30 1136 C 97.7195 0.321336 1.86045 0
M  V30 1137 O 97.0765 -0.695478 1.68729 0
M  V30 1138 C 97.1275 2.72548 2.37487 0
M  V30 1139 O 96.8485 3.99529 1.79745 0
M  V30 1140 C 98.3495 2.9761 3.28547 0
M  V30 1141 H 95.5695 0.55237 0.380957 0
M  V30 1142 H 98.1135 1.96207 0.576467 0
M  V30 1143 H 96.2685 2.43303 3.01467 0
M  V30 1144 H 96.6825 4.59342 2.5319 0
M  V30 1145 H 98.1565 3.77084 4.03127 0
M  V30 1146 H 98.6335 2.0826 3.86684 0
M  V30 1147 H 99.2395 3.28345 2.70314 0
M  V30 1148 N 97.5546 -0.734337 1.39446 0
M  V30 1149 C 98.5176 -1.83004 1.37994 0
M  V30 1150 C 99.5176 -1.58397 0.276938 0
M  V30 1151 O 100.708 -1.65785 0.534875 0
M  V30 1152 C 97.8396 -3.20802 1.1532 0
M  V30 1153 H 99.0326 -1.85694 2.35494 0
M  V30 1154 H 96.5856 -0.938059 1.25021 0
M  V30 1155 H 97.3206 -3.23772 0.185036 0
M  V30 1156 H 97.1056 -3.4006 1.95197 0
M  V30 1157 H 98.5956 -4.00862 1.17046 0
M  V30 1158 N 99.0327 -1.24633 -0.964593 0
M  V30 1159 C 100.31 -0.995809 -1.68354 0
M  V30 1160 C 100.69 0.480964 -2.05548 0
M  V30 1161 O 100.038 1.45599 -1.76105 0
M  V30 1162 C 100.248 -1.92177 -2.91323 0
M  V30 1163 C 101.596 -2.19446 -3.63495 0
M  V30 1164 O 102.62 -1.89855 -3.01386 0
M  V30 1165 O 101.479 -2.69714 -4.75307 0
M  V30 1166 H 98.5727 -0.376854 -0.736146 0
M  V30 1167 H 101.119 -1.35745 -1.0184 0
M  V30 1168 H 99.8907 -2.91938 -2.60553 0
M  V30 1169 H 99.5137 -1.56349 -3.65569 0
M  V30 1170 N 100.511 1.16574 -1.06058 0
M  V30 1171 C 101.443 2.2045 -0.627239 0
M  V30 1172 C 102.456 1.59752 0.313534 0
M  V30 1173 O 103.645 1.78192 0.104896 0
M  V30 1174 C 100.745 3.3875 0.100974 0
M  V30 1175 C 99.9178 4.29008 -0.852687 0
M  V30 1176 C 98.9768 5.25944 -0.164152 0
M  V30 1177 O 98.0028 5.63535 -0.801047 0
M  V30 1178 N 99.2048 5.70075 1.09518 0
M  V30 1179 H 101.97 2.58249 -1.52077 0
M  V30 1180 H 99.5308 1.3156 -0.943594 0
M  V30 1181 H 101.523 4.00638 0.57194 0
M  V30 1182 H 100.093 2.99476 0.89628 0
M  V30 1183 H 99.3128 3.64419 -1.50308 0
M  V30 1184 H 100.601 4.86195 -1.49972 0
M  V30 1185 H 99.9988 5.41624 1.6328 0
M  V30 1186 H 98.5558 6.34067 1.51006 0
M  V30 1187 N 101.989 0.842826 1.3317 0
M  V30 1188 C 103.229 0.446574 1.99462 0
M  V30 1189 C 103.593 -0.976818 1.65295 0
M  V30 1190 O 104.794 -1.477 2.24584 0
M  V30 1191 C 103.065 0.665353 3.51152 0
M  V30 1192 S 104.624 0.364911 4.3728 0
M  V30 1193 H 101.442 0.167803 0.690915 0
M  V30 1194 H 104.044 1.09297 1.62094 0
M  V30 1195 H 102.748 1.7006 3.73507 0
M  V30 1196 H 102.279 0.00494568 3.934 0
M  V30 1197 H 104.294 -0.813761 4.89482 0
M  V30 1198 N 103.467 -1.45747 0.599634 0
M  V30 1199 C 104.43 -2.28917 -0.113835 0
M  V30 1200 C 105.43 -1.3933 -0.802729 0
M  V30 1201 O 106.62 -1.61534 -0.652103 0
M  V30 1202 C 103.752 -3.20152 -1.17114 0
M  V30 1203 H 104.945 -2.93478 0.617289 0
M  V30 1204 H 102.498 -1.52137 0.358327 0
M  V30 1205 H 103.233 -2.60374 -1.93329 0
M  V30 1206 H 103.018 -3.86133 -0.681468 0
M  V30 1207 H 104.508 -3.82708 -1.67105 0
M  V30 1208 N 104.945 -0.338344 -1.53925 0
M  V30 1209 C 105.893 0.536231 -2.26335 0
M  V30 1210 C 106.887 1.1063 -1.28286 0
M  V30 1211 O 108.093 1.05264 -1.46012 0
M  V30 1212 H 104.468 0.191602 -0.727181 0
M  V30 1213 H 106.439 -0.0965747 -2.98244 0
M  V30 1214 C 105.188 1.67803 -3.04528 0
M  V30 1215 H 104.511 1.24864 -3.79801 0
M  V30 1216 H 105.951 2.26526 -3.58416 0
M  V30 1217 C 104.41 2.60439 -2.13712 0
M  V30 1218 O 104.94 3.6255 -1.72975 0
M  V30 1219 N 103.146 2.29006 -1.78898 0
M  V30 1220 H 102.693 1.46011 -2.12223 0
M  V30 1221 H 102.651 2.91248 -1.18416 0
M  V30 1222 N 106.423 1.57458 -0.0668435 0
M  V30 1223 C 107.839 1.56947 0.289772 0
M  V30 1224 C 108.039 1.07584 1.70376 0
M  V30 1225 O 107.095 0.739486 2.41429 0
M  V30 1226 C 108.408 3.0052 0.103943 0
M  V30 1227 C 109.956 3.12517 0.173857 0
M  V30 1228 C 110.431 4.57997 0.0163682 0
M  V30 1229 N 111.922 4.63144 0.0721352 0
M  V30 1230 C 112.657 5.73394 -0.0253794 0
M  V30 1231 N 112.153 6.92576 -0.176133 0
M  V30 1232 N 113.946 5.62091 0.0313305 0
M  V30 1233 H 106.097 1.87863 -0.991027 0
M  V30 1234 H 108.36 0.86583 -0.38606 0
M  V30 1235 H 108.066 3.40729 -0.871572 0
M  V30 1236 H 107.94 3.67304 0.858366 0
M  V30 1237 H 110.327 2.72197 1.13985 0
M  V30 1238 H 110.408 2.48381 -0.611586 0
M  V30 1239 H 110.052 4.99005 -0.946374 0
M  V30 1240 H 109.982 5.20158 0.821153 0
M  V30 1241 H 112.473 3.77436 0.187263 0
M  V30 1242 H 112.786 7.72418 -0.242821 0
M  V30 1243 H 111.131 6.94678 -0.211429 0
M  V30 1244 H 114.322 4.67867 0.147773 0
M  V30 1245 H 114.495 6.47982 -0.048121 0
M  V30 1246 N 107.901 -0.206675 1.56239 0
M  V30 1247 C 109.141 -0.93574 1.81723 0
M  V30 1248 C 109.505 -1.80927 0.642609 0
M  V30 1249 O 110.706 -2.57323 0.777081 0
M  V30 1250 C 108.977 -1.74012 3.12177 0
M  V30 1251 S 110.536 -2.52279 3.59028 0
M  V30 1252 H 107.354 -0.314065 0.637875 0
M  V30 1253 H 109.956 -0.200071 1.94474 0
M  V30 1254 H 108.66 -1.0888 3.95693 0
M  V30 1255 H 108.191 -2.51782 3.02274 0
M  V30 1256 H 110.206 -3.76209 3.23545 0
M  V30 1257 N 109.379 -1.50304 -0.473955 0
M  V30 1258 C 110.607 -1.64902 -1.24959 0
M  V30 1259 C 111.022 -0.331198 -1.85872 0
M  V30 1260 O 110.379 0.68652 -1.69095 0
M  V30 1261 C 110.43 -2.73803 -2.36038 0
M  V30 1262 O 110.151 -4.00477 -1.77624 0
M  V30 1263 C 111.652 -2.99349 -3.26964 0
M  V30 1264 H 108.872 -0.554383 -0.378022 0
M  V30 1265 H 111.416 -1.9651 -0.566054 0
M  V30 1266 H 109.571 -2.44898 -3.00173 0
M  V30 1267 H 109.985 -4.60678 -2.5075 0
M  V30 1268 H 111.459 -3.79217 -4.01121 0
M  V30 1269 H 111.936 -2.10307 -3.85574 0
M  V30 1270 H 112.542 -3.29774 -2.68569 0
M  V30 1271 N 110.857 0.726932 -1.39834 0
M  V30 1272 C 112.273 1.03354 -1.21615 0
M  V30 1273 C 112.473 2.01327 -0.08338 0
M  V30 1274 O 111.529 2.46158 0.56238 0
M  V30 1275 C 112.842 1.58811 -2.55342 0
M  V30 1276 C 114.39 1.70851 -2.62257 0
M  V30 1277 C 114.865 2.29716 -3.96225 0
M  V30 1278 N 116.356 2.37116 -3.97907 0
M  V30 1279 C 117.091 2.83619 -4.98345 0
M  V30 1280 N 116.587 3.29958 -6.09179 0
M  V30 1281 N 118.38 2.82901 -4.8572 0
M  V30 1282 H 110.531 0.0773069 -2.12259 0
M  V30 1283 H 112.794 0.0969102 -0.943034 0
M  V30 1284 H 112.5 0.942855 -3.38826 0
M  V30 1285 H 112.374 2.57502 -2.75632 0
M  V30 1286 H 114.761 2.34497 -1.79152 0
M  V30 1287 H 114.842 0.707913 -2.45809 0
M  V30 1288 H 114.486 1.66696 -4.79765 0
M  V30 1289 H 114.416 3.30469 -4.09997 0
M  V30 1290 H 116.907 2.04374 -3.17868 0
M  V30 1291 H 117.22 3.63976 -6.8172 0
M  V30 1292 H 115.565 3.27946 -6.12761 0
M  V30 1293 H 118.756 2.46027 -3.98231 0
M  V30 1294 H 118.929 3.18827 -5.6414 0
M  V30 1295 N 112.336 1.25143 0.95797 0
M  V30 1296 C 113.284 1.05019 2.07542 0
M  V30 1297 C 114.278 -0.0178751 1.69391 0
M  V30 1298 O 115.484 0.137472 1.79474 0
M  V30 1299 H 111.859 0.32265 0.679265 0
M  V30 1300 H 113.83 1.99759 2.21673 0
M  V30 1301 C 112.579 0.682074 3.40944 0
M  V30 1302 H 111.902 1.49573 3.70767 0
M  V30 1303 H 113.342 0.580945 4.20001 0
M  V30 1304 C 111.801 -0.611608 3.31302 0
M  V30 1305 O 112.331 -1.65465 3.66038 0
M  V30 1306 N 110.537 -0.595982 2.84423 0
M  V30 1307 H 110.084 0.253192 2.56353 0
M  V30 1308 H 110.042 -1.46173 2.78354 0
M  V30 1309 N 113.814 -1.1601 1.06675 0
M  V30 1310 C 114.761 -2.20525 0.680967 0
M  V30 1311 C 115.731 -1.62904 -0.324283 0
M  V30 1312 O 116.916 -1.89615 -0.212294 0
M  V30 1313 C 114.056 -3.45013 0.0776551 0
M  V30 1314 C 113.169 -4.16863 1.13355 0
M  V30 1315 C 112.304 -5.2888 0.49597 0
M  V30 1316 C 111.343 -5.92537 1.53513 0
M  V30 1317 N 110.48 -6.96038 0.920631 0
M  V30 1318 H 115.32 -2.52876 1.57663 0
M  V30 1319 H 112.857 -1.24199 0.788223 0
M  V30 1320 H 114.815 -4.16193 -0.289704 0
M  V30 1321 H 113.445 -3.132 -0.781393 0
M  V30 1322 H 112.497 -3.44248 1.61857 0
M  V30 1323 H 113.809 -4.60294 1.92174 0
M  V30 1324 H 112.963 -6.06653 0.0758604 0
M  V30 1325 H 111.702 -4.86622 -0.324062 0
M  V30 1326 H 110.707 -5.13482 1.9651 0
M  V30 1327 H 111.932 -6.36873 2.35733 0
M  V30 1328 H 109.878 -6.55888 0.12138 0
M  V30 1329 H 109.795 -7.3786 1.64616 0
M  V30 1330 H 111.063 -7.77725 0.525795 0
M  V30 1331 N 115.292 -0.849877 -1.32721 0
M  V30 1332 C 116.54 -0.450032 -1.97026 0
M  V30 1333 C 116.861 0.996604 -1.67609 0
M  V30 1334 O 116.131 1.6958 -0.980786 0
M  V30 1335 H 114.711 -0.163426 -0.728904 0
M  V30 1336 H 117.373 -1.08526 -1.6189 0
M  V30 1337 H 116.469 -0.591146 -3.0645 0
M  V30 1338 N 116.77 1.45427 -0.607355 0
M  V30 1339 C 117.7 2.3329 0.0989352 0
M  V30 1340 C 118.681 1.46816 0.859007 0
M  V30 1341 O 119.866 1.75588 0.829604 0
M  V30 1342 C 116.996 3.29518 1.09705 0
M  V30 1343 C 115.95 4.25626 0.450206 0
M  V30 1344 C 115.276 5.11542 1.55655 0
M  V30 1345 C 116.576 5.18505 -0.628455 0
M  V30 1346 H 118.27 2.92595 -0.634716 0
M  V30 1347 H 115.816 1.40696 -0.306681 0
M  V30 1348 H 117.769 3.89855 1.59971 0
M  V30 1349 H 116.493 2.68372 1.86129 0
M  V30 1350 H 115.152 3.66586 -0.0315886 0
M  V30 1351 H 114.8 4.46765 2.31107 0
M  V30 1352 H 114.5 5.76647 1.12925 0
M  V30 1353 H 116.024 5.74748 2.06148 0
M  V30 1354 H 117.438 5.72916 -0.209877 0
M  V30 1355 H 115.835 5.92085 -0.977489 0
M  V30 1356 H 116.905 4.60948 -1.50514 0
M  V30 1357 N 118.248 0.346503 1.53744 0
M  V30 1358 C 119.659 -0.136779 1.86198 0
M  V30 1359 C 120.01 -1.49749 1.26766 0
M  V30 1360 O 119.135 -2.08417 0.582355 0
M  V30 1361 C 119.73 -0.254966 3.37839 0
M  V30 1362 C 118.289 -0.682482 3.70161 0
M  V30 1363 C 117.436 0.181981 2.76702 0
M  V30 1364 H 120.387 0.565994 1.48264 0
M  V30 1365 H 120.408 -1.08195 3.64793 0
M  V30 1366 H 119.92 0.735526 3.81066 0
M  V30 1367 H 118.021 -1.68189 3.3248 0
M  V30 1368 H 118.134 -0.470326 4.76786 0
M  V30 1369 H 116.498 -0.34615 2.52337 0
M  V30 1370 H 117.281 1.16966 3.2276 0
M  V30 1371 N 119.726 -1.57421 0.075193 0
M  V30 1372 C 120.973 -1.93618 -0.593146 0
M  V30 1373 C 121.301 -0.955484 -1.69413 0
M  V30 1374 O 120.556 0.0283251 -1.9568 0
M  V30 1375 C 120.855 -3.36428 -1.20626 0
M  V30 1376 C 120.521 -4.50307 -0.231078 0
M  V30 1377 C 119.183 -4.81186 0.0371936 0
M  V30 1378 C 121.535 -5.19374 0.435888 0
M  V30 1379 C 118.863 -5.78466 0.979461 0
M  V30 1380 C 121.215 -6.17665 1.3665 0
M  V30 1381 C 119.879 -6.46958 1.6432 0
M  V30 1382 H 119.149 -0.708499 -0.217047 0
M  V30 1383 H 121.796 -1.90937 0.146793 0
M  V30 1384 H 120.101 -3.35592 -2.02201 0
M  V30 1385 H 121.798 -3.61727 -1.73073 0
M  V30 1386 H 118.388 -4.26227 -0.450357 0
M  V30 1387 H 122.572 -4.95711 0.241748 0
M  V30 1388 H 117.828 -5.99487 1.20106 0
M  V30 1389 H 122.002 -6.70284 1.88924 0
M  V30 1390 H 119.629 -7.2215 2.37494 0
M  V30 1391 N 121.204 0.198386 -1.56346 0
M  V30 1392 C 122.432 0.935572 -1.84539 0
M  V30 1393 C 122.847 1.76989 -0.657281 0
M  V30 1394 O 122.204 1.78626 0.374043 0
M  V30 1395 C 122.255 1.8344 -3.11499 0
M  V30 1396 O 121.976 1.03377 -4.25728 0
M  V30 1397 C 123.477 2.68355 -3.52846 0
M  V30 1398 H 120.697 0.273126 -0.612897 0
M  V30 1399 H 123.241 0.20663 -2.03453 0
M  V30 1400 H 121.396 2.51701 -2.94492 0
M  V30 1401 H 121.81 1.64599 -4.98003 0
M  V30 1402 H 123.284 3.27085 -4.44657 0
M  V30 1403 H 123.761 3.41901 -2.75681 0
M  V30 1404 H 124.367 2.05471 -3.72373 0
M  V30 1405 N 122.682 1.50554 0.465978 0
M  V30 1406 C 123.922 1.63439 1.22747 0
M  V30 1407 C 124.286 0.329822 1.89146 0
M  V30 1408 O 125.487 0.334161 2.66715 0
M  V30 1409 C 123.758 2.78542 2.2394 0
M  V30 1410 S 125.317 3.11591 3.0896 0
M  V30 1411 H 122.135 0.576113 0.416672 0
M  V30 1412 H 124.737 1.88357 0.523641 0
M  V30 1413 H 123.441 3.71805 1.7375 0
M  V30 1414 H 122.972 2.55726 2.98944 0
M  V30 1415 H 124.987 2.55811 4.25176 0
M  V30 1416 N 124.16 -0.719506 1.40217 0
M  V30 1417 C 125.107 -1.83359 1.40172 0
M  V30 1418 C 126.077 -1.64065 0.259206 0
M  V30 1419 O 127.262 -1.85254 0.456677 0
M  V30 1420 C 124.402 -3.2103 1.26624 0
M  V30 1421 C 123.515 -3.51923 2.50548 0
M  V30 1422 C 122.65 -4.79079 2.29471 0
M  V30 1423 C 121.689 -5.02863 3.48992 0
M  V30 1424 N 120.826 -6.2123 3.27135 0
M  V30 1425 H 125.666 -1.82733 2.35399 0
M  V30 1426 H 123.203 -0.892688 1.16917 0
M  V30 1427 H 125.161 -4.00524 1.16776 0
M  V30 1428 H 123.791 -3.20895 0.350176 0
M  V30 1429 H 122.843 -2.67014 2.70939 0
M  V30 1430 H 124.155 -3.6541 3.39525 0
M  V30 1431 H 123.309 -5.66582 2.16955 0
M  V30 1432 H 122.048 -4.67794 1.37913 0
M  V30 1433 H 121.053 -4.13816 3.6199 0
M  V30 1434 H 122.278 -5.16023 4.41472 0
M  V30 1435 H 120.224 -6.11204 2.38256 0
M  V30 1436 H 120.141 -6.35375 4.09675 0
M  V30 1437 H 121.409 -7.11532 3.18344 0
M  V30 1438 N 125.638 -1.25649 -0.95132 0
M  V30 1439 C 126.601 -1.06399 -2.03007 0
M  V30 1440 C 127.601 -0.0156794 -1.60792 0
M  V30 1441 O 128.791 -0.25817 -1.72276 0
M  V30 1442 C 125.923 -0.616184 -3.35285 0
M  V30 1443 H 127.116 -2.02164 -2.21517 0
M  V30 1444 H 124.669 -1.08103 -1.12887 0
M  V30 1445 H 125.404 0.343917 -3.22471 0
M  V30 1446 H 125.189 -1.37301 -3.67275 0
M  V30 1447 H 126.679 -0.503032 -4.14559 0
M  V30 1448 N 127.117 1.15442 -1.07289 0
M  V30 1449 C 128.364 1.86213 -0.795668 0
M  V30 1450 C 128.692 1.82291 0.678238 0
M  V30 1451 O 127.947 1.24057 1.51355 0
M  V30 1452 C 128.246 3.3489 -1.24834 0
M  V30 1453 C 127.912 3.59007 -2.72809 0
M  V30 1454 C 126.574 3.65298 -3.13227 0
M  V30 1455 C 128.926 3.68762 -3.68326 0
M  V30 1456 C 126.254 3.78854 -4.4798 0
M  V30 1457 C 128.606 3.83842 -5.0284 0
M  V30 1458 C 127.27 3.88378 -5.4288 0
M  V30 1459 H 126.54 0.681403 -0.291155 0
M  V30 1460 H 129.187 1.36435 -1.34379 0
M  V30 1461 H 127.492 3.8687 -0.619595 0
M  V30 1462 H 129.189 3.88052 -1.01076 0
M  V30 1463 H 125.779 3.5475 -2.40521 0
M  V30 1464 H 129.963 3.63202 -3.38227 0
M  V30 1465 H 125.219 3.80623 -4.78472 0
M  V30 1466 H 129.393 3.90332 -5.76727 0
M  V30 1467 H 127.02 3.98635 -6.47298 0
M  V30 1468 N 128.595 0.856903 1.32268 0
M  V30 1469 C 129.841 0.462069 1.97466 0
M  V30 1470 C 130.174 -0.980298 1.67642 0
M  V30 1471 O 129.449 -1.68824 0.965858 0
M  V30 1472 C 129.732 0.704336 3.53145 0
M  V30 1473 C 129.585 2.19529 3.9259 0
M  V30 1474 C 130.904 0.1622 4.39801 0
M  V30 1475 H 128.023 0.169357 0.717278 0
M  V30 1476 H 130.665 1.07574 1.56614 0
M  V30 1477 H 128.815 0.181999 3.88073 0
M  V30 1478 H 130.487 2.78387 3.67829 0
M  V30 1479 H 128.73 2.67292 3.41668 0
M  V30 1480 H 129.401 2.31549 5.01088 0
M  V30 1481 H 131.877 0.608905 4.11621 0
M  V30 1482 H 130.753 0.361265 5.4771 0
M  V30 1483 H 131.014 -0.935158 4.32096 0
M  V30 1484 N 130.073 -1.45103 0.615059 0
M  V30 1485 C 131.32 -2.02183 0.113179 0
M  V30 1486 C 131.648 -1.48249 -1.25906 0
M  V30 1487 O 130.903 -0.650265 -1.84581 0
M  V30 1488 C 131.202 -3.57386 0.0318797 0
M  V30 1489 C 130.868 -4.30505 1.34077 0
M  V30 1490 C 129.53 -4.50197 1.69929 0
M  V30 1491 C 131.882 -4.72238 2.20546 0
M  V30 1492 C 129.21 -5.08881 2.91988 0
M  V30 1493 C 131.562 -5.32272 3.41861 0
M  V30 1494 C 130.226 -5.50187 3.77956 0
M  V30 1495 H 129.496 -0.739842 0.0414151 0
M  V30 1496 H 132.143 -1.74073 0.798168 0
M  V30 1497 H 130.448 -3.84817 -0.736409 0
M  V30 1498 H 132.145 -3.99264 -0.372712 0
M  V30 1499 H 128.735 -4.15496 1.05173 0
M  V30 1500 H 132.919 -4.56751 1.94146 0
M  V30 1501 H 128.175 -5.20939 3.2005 0
M  V30 1502 H 132.349 -5.63563 4.09109 0
M  V30 1503 H 129.976 -5.95427 4.72622 0
M  V30 1504 N 131.551 -0.354651 -1.53558 0
M  V30 1505 C 132.828 0.294281 -1.93374 0
M  V30 1506 C 133.208 1.67313 -1.28723 0
M  V30 1507 O 132.556 2.24179 -0.442247 0
M  V30 1508 C 132.766 0.355445 -3.47185 0
M  V30 1509 C 134.114 0.601007 -4.20325 0
M  V30 1510 O 135.138 0.437106 -3.53508 0
M  V30 1511 O 133.997 0.919322 -5.38712 0
M  V30 1512 H 131.091 0.174033 -0.808481 0
M  V30 1513 H 133.637 -0.406638 -1.64756 0
M  V30 1514 H 132.409 -0.611729 -3.86489 0
M  V30 1515 H 132.032 1.1027 -3.82003 0
M  V30 1516 N 133.029 1.57378 -0.0835403 0
M  V30 1517 C 133.976 2.13384 0.879539 0
M  V30 1518 C 134.946 1.04936 1.28754 0
M  V30 1519 O 136.131 1.32662 1.37133 0
M  V30 1520 C 133.271 2.70932 2.13752 0
M  V30 1521 C 132.384 3.93575 1.7811 0
M  V30 1522 C 131.519 4.39326 2.98607 0
M  V30 1523 C 130.558 5.54587 2.59037 0
M  V30 1524 N 129.695 5.95243 3.72331 0
M  V30 1525 H 134.535 2.9537 0.395076 0
M  V30 1526 H 132.072 1.45953 0.183349 0
M  V30 1527 H 134.03 3.02411 2.87408 0
M  V30 1528 H 132.66 1.91693 2.59718 0
M  V30 1529 H 131.712 3.68483 0.94469 0
M  V30 1530 H 133.024 4.77258 1.45005 0
M  V30 1531 H 132.178 4.72528 3.80529 0
M  V30 1532 H 130.917 3.5452 3.34913 0
M  V30 1533 H 129.922 5.21024 1.75539 0
M  V30 1534 H 131.147 6.41133 2.23887 0
M  V30 1535 H 129.093 5.13385 4.08378 0
M  V30 1536 H 129.01 6.73694 3.43034 0
M  V30 1537 H 130.278 6.33072 4.54797 0
M  V30 1538 N 134.507 -0.190092 1.56449 0
M  V30 1539 C 135.47 -1.21925 1.9408 0
M  V30 1540 C 136.47 -1.38176 0.822431 0
M  V30 1541 O 137.66 -1.35903 1.08977 0
M  V30 1542 C 134.792 -2.58773 2.21922 0
M  V30 1543 H 135.985 -0.897464 2.86157 0
M  V30 1544 H 133.538 -0.43181 1.50217 0
M  V30 1545 H 134.273 -2.95998 1.32499 0
M  V30 1546 H 134.058 -2.48348 3.03424 0
M  V30 1547 H 135.548 -3.32978 2.52022 0
M  V30 1548 N 135.985 -1.50799 -0.457987 0
M  V30 1549 C 137.401 -1.38515 -0.792819 0
M  V30 1550 C 137.601 -0.451409 -1.96379 0
M  V30 1551 O 136.657 0.10112 -2.52297 0
M  V30 1552 C 137.97 -2.80149 -1.09258 0
M  V30 1553 C 139.518 -2.89156 -1.19825 0
M  V30 1554 C 139.993 -4.31651 -1.53106 0
M  V30 1555 N 141.484 -4.34662 -1.60072 0
M  V30 1556 C 142.219 -5.41928 -1.87354 0
M  V30 1557 N 141.715 -6.59384 -2.12568 0
M  V30 1558 N 143.508 -5.29385 -1.88965 0
M  V30 1559 H 135.659 -2.10073 0.313511 0
M  V30 1560 H 137.922 -0.944803 0.0777862 0
M  V30 1561 H 137.628 -3.50374 -0.305084 0
M  V30 1562 H 137.502 -3.18204 -2.02549 0
M  V30 1563 H 139.889 -2.19141 -1.97639 0
M  V30 1564 H 139.97 -2.54626 -0.244821 0
M  V30 1565 H 139.614 -5.02208 -0.758266 0
M  V30 1566 H 139.544 -4.63678 -2.49621 0
M  V30 1567 H 142.035 -3.49973 -1.42573 0
M  V30 1568 H 142.348 -7.36934 -2.32696 0
M  V30 1569 H 140.693 -6.62535 -2.09933 0
M  V30 1570 H 143.884 -4.36616 -1.68772 0
M  V30 1571 H 144.057 -6.13066 -2.09891 0
M  V30 1572 N 137.463 0.71206 -1.40597 0
M  V30 1573 C 138.41 1.82613 -1.41142 0
M  V30 1574 C 139.38 1.63925 -0.267903 0
M  V30 1575 O 140.565 1.85009 -0.466495 0
M  V30 1576 C 137.705 3.20354 -1.28324 0
M  V30 1577 C 136.818 3.50589 -2.52411 0
M  V30 1578 C 135.953 4.77855 -2.32009 0
M  V30 1579 C 134.992 5.01005 -3.51654 0
M  V30 1580 N 134.129 6.19487 -3.30425 0
M  V30 1581 H 138.969 1.81482 -2.36365 0
M  V30 1582 H 136.506 0.886475 -1.17388 0
M  V30 1583 H 138.464 3.99899 -1.18899 0
M  V30 1584 H 137.094 3.20705 -0.367189 0
M  V30 1585 H 136.146 2.65573 -2.72351 0
M  V30 1586 H 137.458 3.63604 -3.41458 0
M  V30 1587 H 136.612 5.65424 -2.19956 0
M  V30 1588 H 135.351 4.67056 -1.40392 0
M  V30 1589 H 134.356 4.1189 -3.64179 0
M  V30 1590 H 135.581 5.13674 -4.44202 0
M  V30 1591 H 133.527 6.09932 -2.41494 0
M  V30 1592 H 133.444 6.33194 -4.13039 0
M  V30 1593 H 134.712 7.09834 -3.22113 0
M  V30 1594 N 138.941 1.26152 0.944643 0
M  V30 1595 C 139.873 1.03199 2.04652 0
M  V30 1596 C 140.886 -0.00642356 1.62799 0
M  V30 1597 O 142.075 0.233263 1.76969 0
M  V30 1598 C 139.175 0.540111 3.34568 0
M  V30 1599 C 138.348 1.64697 4.05208 0
M  V30 1600 C 137.407 1.15374 5.13396 0
M  V30 1601 O 136.433 1.85013 5.38293 0
M  V30 1602 N 137.635 0.00031529 5.805 0
M  V30 1603 H 140.4 1.9808 2.2491 0
M  V30 1604 H 137.961 1.17491 1.11389 0
M  V30 1605 H 139.953 0.194401 4.04233 0
M  V30 1606 H 138.523 -0.315021 3.11009 0
M  V30 1607 H 137.743 2.16379 3.29506 0
M  V30 1608 H 139.031 2.3903 4.49157 0
M  V30 1609 H 138.429 -0.581336 5.62705 0
M  V30 1610 H 136.986 -0.286346 6.51171 0
M  V30 1611 N 140.419 -1.14872 1.07899 0
M  V30 1612 C 141.659 -1.8745 0.814965 0
M  V30 1613 C 142.023 -1.80758 -0.64733 0
M  V30 1614 O 143.224 -2.48422 -1.02664 0
M  V30 1615 C 141.495 -3.32286 1.31607 0
M  V30 1616 S 143.054 -4.22537 1.18357 0
M  V30 1617 H 139.872 -0.646833 0.295174 0
M  V30 1618 H 142.474 -1.38555 1.37923 0
M  V30 1619 H 141.178 -3.34703 2.37491 0
M  V30 1620 H 140.709 -3.86238 0.747261 0
M  V30 1621 H 142.724 -4.96044 0.124586 0
M  V30 1622 N 141.898 -0.863906 -1.31812 0
M  V30 1623 C 142.828 -0.330843 -2.31144 0
M  V30 1624 C 143.809 0.575005 -1.60087 0
M  V30 1625 O 144.994 0.493304 -1.8783 0
M  V30 1626 C 142.124 0.47374 -3.44054 0
M  V30 1627 C 141.078 -0.338481 -4.26659 0
M  V30 1628 C 140.404 0.591412 -5.31419 0
M  V30 1629 C 141.704 -1.56926 -4.98168 0
M  V30 1630 H 143.398 -1.16086 -2.75979 0
M  V30 1631 H 140.944 -0.559657 -1.32679 0
M  V30 1632 H 142.897 0.857143 -4.12591 0
M  V30 1633 H 141.621 1.33721 -2.9797 0
M  V30 1634 H 140.28 -0.703754 -3.59782 0
M  V30 1635 H 139.928 1.45199 -4.81587 0
M  V30 1636 H 139.628 0.0519022 -5.87577 0
M  V30 1637 H 141.152 0.97179 -6.02817 0
M  V30 1638 H 142.566 -1.25764 -5.59336 0
M  V30 1639 H 140.963 -2.04739 -5.64094 0
M  V30 1640 H 142.033 -2.32544 -4.25501 0
M  V30 1641 N 143.376 1.44774 -0.622745 0
M  V30 1642 C 144.622 2.02968 -0.13257 0
M  V30 1643 C 144.977 1.48047 1.22881 0
M  V30 1644 O 144.27 0.651625 1.80179 0
M  V30 1645 C 144.464 3.57364 -0.0508323 0
M  V30 1646 C 144.293 4.27262 -1.40275 0
M  V30 1647 C 143.063 4.64577 -1.98737 0
M  V30 1648 C 145.261 4.58248 -2.3348 0
M  V30 1649 N 143.243 5.19404 -3.27251 0
M  V30 1650 C 144.614 5.14069 -3.46603 0
M  V30 1651 C 146.669 4.40195 -2.32664 0
M  V30 1652 C 145.372 5.53738 -4.59093 0
M  V30 1653 C 147.398 4.80907 -3.44213 0
M  V30 1654 C 146.76 5.36834 -4.56058 0
M  V30 1655 H 142.859 0.776541 -0.0922354 0
M  V30 1656 H 145.443 1.76385 -0.82441 0
M  V30 1657 H 143.614 3.83576 0.610265 0
M  V30 1658 H 145.346 4.02219 0.447397 0
M  V30 1659 H 142.101 4.48622 -1.51774 0
M  V30 1660 H 142.525 5.51301 -3.92933 0
M  V30 1661 H 147.167 3.96257 -1.47446 0
M  V30 1662 H 144.885 5.96635 -5.45025 0
M  V30 1663 H 148.471 4.68659 -3.44747 0
M  V30 1664 H 147.351 5.67755 -5.40947 0
M  V30 1665 N 144.854 0.36279 1.53368 0
M  V30 1666 C 146.101 -0.227776 2.01215 0
M  V30 1667 C 146.429 -1.49003 1.25014 0
M  V30 1668 O 145.684 -1.92876 0.331236 0
M  V30 1669 C 145.983 -0.568417 3.52851 0
M  V30 1670 C 145.649 0.59918 4.46901 0
M  V30 1671 C 144.311 0.919559 4.72332 0
M  V30 1672 C 146.663 1.38156 5.02556 0
M  V30 1673 C 143.991 2.02434 5.5067 0
M  V30 1674 C 146.343 2.47674 5.821 0
M  V30 1675 C 145.007 2.8025 6.05819 0
M  V30 1676 H 144.277 -0.083349 0.736297 0
M  V30 1677 H 146.924 0.494677 1.85001 0
M  V30 1678 H 145.229 -1.37185 3.66998 0
M  V30 1679 H 146.926 -1.03756 3.87344 0
M  V30 1680 H 143.516 0.339437 4.27254 0
M  V30 1681 H 147.7 1.14729 4.82857 0
M  V30 1682 H 142.956 2.28075 5.67267 0
M  V30 1683 H 147.13 3.08716 6.24234 0
M  V30 1684 H 144.757 3.65979 6.66306 0
M  V30 1685 N 146.332 -1.57332 0.0918853 0
M  V30 1686 C 147.743 -1.81496 -0.437739 0
M  V30 1687 C 148.094 -1.00727 -1.6837 0
M  V30 1688 O 147.219 -0.235694 -2.15113 0
M  V30 1689 C 147.814 -3.29197 -0.800939 0
M  V30 1690 C 146.373 -3.54136 -1.27532 0
M  V30 1691 C 145.52 -2.75979 -0.270392 0
M  V30 1692 H 148.471 -1.55494 0.317366 0
M  V30 1693 H 148.492 -3.42344 -1.66074 0
M  V30 1694 H 148.004 -3.87955 0.106078 0
M  V30 1695 H 146.105 -3.00705 -2.20016 0
M  V30 1696 H 146.218 -4.62792 -1.23938 0
M  V30 1697 H 144.582 -2.43349 -0.751872 0
M  V30 1698 H 145.365 -3.37484 0.629248 0
M  V30 1699 N 147.81 0.181792 -1.56548 0
M  V30 1700 C 149.057 0.900097 -1.81396 0
M  V30 1701 C 149.385 1.82695 -0.667281 0
M  V30 1702 O 148.64 1.92614 0.346146 0
M  V30 1703 C 148.939 1.73728 -3.12335 0
M  V30 1704 C 148.605 0.960255 -4.40556 0
M  V30 1705 C 147.267 0.745766 -4.75386 0
M  V30 1706 C 149.619 0.414477 -5.19549 0
M  V30 1707 C 146.947 -0.0257694 -5.86694 0
M  V30 1708 C 149.299 -0.343916 -6.31664 0
M  V30 1709 C 147.963 -0.569301 -6.65068 0
M  V30 1710 H 147.233 0.329369 -0.663775 0
M  V30 1711 H 149.88 0.165647 -1.90782 0
M  V30 1712 H 148.185 2.54081 -2.98245 0
M  V30 1713 H 149.882 2.29591 -3.28769 0
M  V30 1714 H 146.472 1.13746 -4.13231 0
M  V30 1715 H 150.656 0.567554 -4.93044 0
M  V30 1716 H 145.912 -0.210233 -6.11038 0
M  V30 1717 H 150.086 -0.774133 -6.92084 0
M  V30 1718 H 147.713 -1.16903 -7.51158 0
M  V30 1719 N 149.288 1.51039 0.449983 0
M  V30 1720 C 150.236 1.71995 1.5659 0
M  V30 1721 C 151.23 0.586029 1.5894 0
M  V30 1722 O 152.436 0.76709 1.62837 0
M  V30 1723 H 148.811 0.543233 0.520001 0
M  V30 1724 H 150.782 2.65562 1.36085 0
M  V30 1725 C 149.531 1.8506 2.9436 0
M  V30 1726 H 148.854 2.71712 2.93279 0
M  V30 1727 H 150.294 2.0374 3.71842 0
M  V30 1728 C 148.753 0.607277 3.31382 0
M  V30 1729 O 149.283 -0.243903 4.00959 0
M  V30 1730 N 147.489 0.455073 2.87015 0
M  V30 1731 H 147.036 1.14879 2.30566 0
M  V30 1732 H 146.994 -0.375611 3.12148 0
M  V30 1733 N 150.766 -0.704594 1.40972 0
M  V30 1734 C 151.991 -1.49858 1.43378 0
M  V30 1735 C 152.416 -1.88061 0.038184 0
M  V30 1736 O 151.774 -1.5402 -0.956425 0
M  V30 1737 C 151.822 -2.74333 2.34038 0
M  V30 1738 O 150.926 -3.7147 1.7912 0
M  V30 1739 H 150.267 -0.45139 0.486974 0
M  V30 1740 H 152.797 -0.866832 1.8533 0
M  V30 1741 H 152.807 -3.22741 2.49604 0
M  V30 1742 H 151.482 -2.45863 3.35446 0
M  V30 1743 H 150.059 -3.30363 1.72958 0
M  V30 1744 N 152.244 -1.26651 -0.937939 0
M  V30 1745 C 153.177 -1.02811 -2.03728 0
M  V30 1746 C 154.155 0.0481915 -1.62529 0
M  V30 1747 O 155.339 -0.0948839 -1.88261 0
M  V30 1748 C 152.466 -0.557517 -3.3408 0
M  V30 1749 C 151.512 -1.62686 -3.94253 0
M  V30 1750 S 152.345 -3.21667 -4.28125 0
M  V30 1751 C 153.501 -2.76384 -5.61572 0
M  V30 1752 H 153.734 -1.95891 -2.23638 0
M  V30 1753 H 151.267 -1.10367 -1.07974 0
M  V30 1754 H 153.225 -0.292674 -4.09455 0
M  V30 1755 H 151.886 0.353062 -3.12109 0
M  V30 1756 H 151.079 -1.24866 -4.88287 0
M  V30 1757 H 150.681 -1.84324 -3.25424 0
M  V30 1758 H 152.973 -2.2105 -6.40424 0
M  V30 1759 H 153.916 -3.69123 -6.0428 0
M  V30 1760 H 154.324 -2.15847 -5.21604 0
M  V30 1761 N 153.722 1.14298 -1.08507 0
M  V30 1762 C 154.947 1.8976 -0.837001 0
M  V30 1763 C 155.372 1.78097 0.605228 0
M  V30 1764 O 154.73 1.12188 1.4242 0
M  V30 1765 C 154.778 3.37685 -1.26495 0
M  V30 1766 O 153.882 4.10281 -0.417514 0
M  V30 1767 H 153.223 0.590365 -0.303917 0
M  V30 1768 H 155.753 1.44672 -1.44676 0
M  V30 1769 H 155.763 3.88501 -1.24625 0
M  V30 1770 H 154.438 3.45492 -2.31534 0
M  V30 1771 H 153.015 3.69536 -0.499722 0
M  V30 1772 N 155.201 0.870884 1.31352 0
M  V30 1773 C 156.426 0.495957 2.01383 0
M  V30 1774 C 156.851 -0.904324 1.64935 0
M  V30 1775 O 156.209 -1.59687 0.858466 0
M  V30 1776 C 156.257 0.661433 3.54482 0
M  V30 1777 O 155.361 -0.298851 4.11316 0
M  V30 1778 H 154.702 0.197158 0.634054 0
M  V30 1779 H 157.232 1.17455 1.67527 0
M  V30 1780 H 157.242 0.555072 4.04207 0
M  V30 1781 H 155.917 1.68246 3.8035 0
M  V30 1782 H 154.494 -0.147368 3.72609 0
M  V30 1783 N 156.679 -1.44442 0.630414 0
M  V30 1784 C 157.927 -2.01653 0.134351 0
M  V30 1785 C 158.248 -1.49836 -1.24796 0
M  V30 1786 O 157.518 -0.701684 -1.82902 0
M  V30 1787 H 156.098 -0.74554 0.0466769 0
M  V30 1788 H 158.76 -1.76952 0.816955 0
M  V30 1789 H 157.856 -3.11935 0.101498 0
M  V30 1790 N 158.157 -0.370918 -1.53173 0
M  V30 1791 C 159.403 0.217423 -2.01631 0
M  V30 1792 C 159.736 1.47983 -1.25756 0
M  V30 1793 O 159.011 1.91274 -0.352764 0
M  V30 1794 C 159.294 0.503982 -3.56556 0
M  V30 1795 C 159.147 -0.77243 -4.43118 0
M  V30 1796 C 160.466 1.30234 -4.20389 0
M  V30 1797 H 157.585 0.0775486 -0.732909 0
M  V30 1798 H 160.227 -0.496863 -1.83388 0
M  V30 1799 H 158.377 1.11248 -3.72231 0
M  V30 1800 H 160.049 -1.4098 -4.39229 0
M  V30 1801 H 158.292 -1.39167 -4.10871 0
M  V30 1802 H 158.963 -0.526815 -5.4948 0
M  V30 1803 H 161.439 0.787546 -4.08579 0
M  V30 1804 H 160.315 1.47158 -5.28806 0
M  V30 1805 H 160.576 2.31237 -3.76805 0
M  V30 1806 N 159.635 1.57281 -0.100228 0
M  V30 1807 C 160.582 2.14305 0.856858 0
M  V30 1808 C 161.552 1.06296 1.27634 0
M  V30 1809 O 162.737 1.34109 1.35718 0
M  V30 1810 C 159.877 2.73184 2.10866 0
M  V30 1811 C 158.99 3.95442 1.73925 0
M  V30 1812 C 158.125 4.42468 2.93931 0
M  V30 1813 C 157.164 5.57303 2.5314 0
M  V30 1814 N 156.301 5.99158 3.65997 0
M  V30 1815 H 161.141 2.95772 0.363726 0
M  V30 1816 H 158.678 1.46139 0.167858 0
M  V30 1817 H 160.636 3.05442 2.84185 0
M  V30 1818 H 159.266 1.94437 2.57671 0
M  V30 1819 H 158.318 3.69464 0.905554 0
M  V30 1820 H 159.63 4.78769 1.39935 0
M  V30 1821 H 158.784 4.76537 3.75496 0
M  V30 1822 H 157.523 3.58052 3.31134 0
M  V30 1823 H 156.528 5.22857 1.70003 0
M  V30 1824 H 157.753 6.43471 2.17075 0
M  V30 1825 H 155.699 5.17687 4.02909 0
M  V30 1826 H 155.616 6.77295 3.35869 0
M  V30 1827 H 156.884 6.3786 4.48057 0
M  V30 1828 N 161.113 -0.173488 1.56642 0
M  V30 1829 C 162.06 -1.21482 1.96242 0
M  V30 1830 C 163.03 -1.44104 0.826027 0
M  V30 1831 O 164.215 -1.5688 1.08597 0
M  V30 1832 C 161.355 -2.54964 2.32567 0
M  V30 1833 C 160.468 -2.39739 3.59373 0
M  V30 1834 C 159.603 -3.66072 3.84921 0
M  V30 1835 C 158.642 -3.45771 5.05083 0
M  V30 1836 N 157.779 -4.64169 5.26775 0
M  V30 1837 H 162.619 -0.870123 2.85014 0
M  V30 1838 H 160.156 -0.418245 1.41029 0
M  V30 1839 H 162.114 -3.32758 2.5165 0
M  V30 1840 H 160.744 -2.87433 1.46908 0
M  V30 1841 H 159.796 -1.53131 3.48217 0
M  V30 1842 H 161.108 -2.20683 4.47326 0
M  V30 1843 H 160.262 -4.52303 4.0436 0
M  V30 1844 H 159.001 -3.88105 2.9534 0
M  V30 1845 H 158.006 -2.57927 4.85545 0
M  V30 1846 H 159.231 -3.25163 5.96193 0
M  V30 1847 H 157.177 -4.86425 4.40144 0
M  V30 1848 H 157.094 -4.48019 6.08946 0
M  V30 1849 H 158.362 -5.51689 5.5069 0
M  V30 1850 N 162.591 -1.51276 -0.441967 0
M  V30 1851 C 163.501 -1.75092 -1.56141 0
M  V30 1852 C 164.517 -0.634963 -1.62001 0
M  V30 1853 O 165.693 -0.916686 -1.79329 0
M  V30 1854 C 162.758 -1.86666 -2.92158 0
M  V30 1855 C 161.819 -3.10506 -2.96453 0
M  V30 1856 C 161.052 -3.21519 -4.25982 0
M  V30 1857 O 161.275 -2.38586 -5.18105 0
M  V30 1858 O 160.209 -4.14465 -4.36466 0
M  V30 1859 H 164.035 -2.70044 -1.38961 0
M  V30 1860 H 161.62 -1.35722 -0.624499 0
M  V30 1861 H 163.502 -1.96292 -3.72891 0
M  V30 1862 H 162.177 -0.949014 -3.09476 0
M  V30 1863 H 161.084 -3.06363 -2.14692 0
M  V30 1864 H 162.417 -4.01945 -2.84079 0
M  V30 1865 N 164.069 0.697108 -1.41344 0
M  V30 1866 C 165.316 1.45714 -1.40619 0
M  V30 1867 C 165.644 1.94494 -0.0147907 0
M  V30 1868 O 164.899 1.69794 0.973066 0
M  V30 1869 C 165.198 2.68553 -2.35826 0
M  V30 1870 C 164.864 2.38438 -3.82698 0
M  V30 1871 C 163.526 2.29936 -4.22709 0
M  V30 1872 C 165.878 2.13567 -4.75435 0
M  V30 1873 C 163.206 1.94656 -5.53467 0
M  V30 1874 C 165.558 1.79797 -6.06511 0
M  V30 1875 C 164.222 1.69789 -6.45545 0
M  V30 1876 H 163.492 0.533206 -0.51456 0
M  V30 1877 H 166.139 0.796901 -1.74131 0
M  V30 1878 H 164.444 3.39503 -1.95563 0
M  V30 1879 H 166.141 3.2669 -2.32539 0
M  V30 1880 H 162.731 2.4595 -3.51008 0
M  V30 1881 H 166.915 2.19082 -4.45328 0
M  V30 1882 H 162.171 1.8546 -5.82593 0
M  V30 1883 H 166.345 1.59572 -6.77872 0
M  V30 1884 H 163.972 1.4222 -7.46778 0
M  V30 1885 N 165.547 1.27147 0.931209 0
M  V30 1886 C 166.795 1.13055 1.6752 0
M  V30 1887 C 167.116 -0.324791 1.92276 0
M  V30 1888 O 166.386 -1.22775 1.52654 0
M  V30 1889 H 164.966 0.415391 0.620854 0
M  V30 1890 H 167.628 1.59623 1.11833 0
M  V30 1891 H 166.724 1.65694 2.64485 0
M  V30 1892 N 167.025 -1.13721 1.09112 0
M  V30 1893 C 167.975 -2.17082 0.697091 0
M  V30 1894 C 168.959 -1.58321 -0.286923 0
M  V30 1895 O 170.151 -1.7673 -0.0978008 0
M  V30 1896 C 167.28 -3.43105 0.115729 0
M  V30 1897 C 166.366 -4.0888 1.12596 0
M  V30 1898 N 166.757 -4.4987 2.31195 0
M  V30 1899 C 165.055 -4.35471 0.963366 0
M  V30 1900 C 165.756 -5.01094 2.95431 0
M  V30 1901 N 164.732 -4.95751 2.23006 0
M  V30 1902 H 168.534 -2.46524 1.6001 0
M  V30 1903 H 166.048 -1.30481 0.966869 0
M  V30 1904 H 168.045 -4.16491 -0.184555 0
M  V30 1905 H 166.705 -3.15138 -0.78217 0
M  V30 1906 H 167.716 -4.42678 2.68806 0
M  V30 1907 H 164.393 -4.17328 0.119878 0
M  V30 1908 H 165.783 -5.4263 3.96236 0
M  V30 1909 N 168.503 -0.877838 -1.30888 0
M  V30 1910 C 169.413 -0.343096 -2.32078 0
M  V30 1911 C 170.429 0.551022 -1.65045 0
M  V30 1912 O 171.605 0.445854 -1.96403 0
M  V30 1913 C 168.67 0.439905 -3.43898 0
M  V30 1914 C 167.731 -0.483111 -4.26573 0
M  V30 1915 C 166.964 0.262616 -5.33053 0
M  V30 1916 O 167.187 1.48967 -5.50604 0
M  V30 1917 O 166.121 -0.383593 -6.00676 0
M  V30 1918 H 169.947 -1.18203 -2.79753 0
M  V30 1919 H 167.532 -0.64145 -1.34929 0
M  V30 1920 H 169.414 0.883504 -4.12034 0
M  V30 1921 H 168.089 1.25526 -2.98371 0
M  V30 1922 H 166.996 -0.975374 -3.61161 0
M  V30 1923 H 168.329 -1.26427 -4.75686 0
M  V30 1924 N 169.982 1.44106 -0.638065 0
M  V30 1925 C 171.229 2.01978 -0.14533 0
M  V30 1926 C 171.557 1.50234 1.23532 0
M  V30 1927 O 170.812 0.679548 1.83523 0
M  V30 1928 C 171.111 3.5729 -0.0887327 0
M  V30 1929 C 170.777 4.28317 -1.40909 0
M  V30 1930 C 169.439 4.47437 -1.77069 0
M  V30 1931 C 171.791 4.6867 -2.28031 0
M  V30 1932 C 169.119 5.04171 -3.00047 0
M  V30 1933 C 171.471 5.26766 -3.50286 0
M  V30 1934 C 170.135 5.44104 -3.86661 0
M  V30 1935 H 169.405 0.739089 -0.0531801 0
M  V30 1936 H 172.052 1.72781 -0.825761 0
M  V30 1937 H 170.357 3.8594 0.675095 0
M  V30 1938 H 172.054 3.99807 0.309145 0
M  V30 1939 H 168.644 4.1377 -1.1177 0
M  V30 1940 H 172.828 4.53604 -2.01388 0
M  V30 1941 H 168.084 5.15782 -3.28298 0
M  V30 1942 H 172.258 5.56983 -4.18023 0
M  V30 1943 H 169.885 5.87832 -4.82034 0
M  V30 1944 N 171.46 0.379036 1.52974 0
M  V30 1945 C 172.737 -0.263479 1.93817 0
M  V30 1946 C 173.117 -1.65244 1.31368 0
M  V30 1947 O 172.465 -2.23448 0.477856 0
M  V30 1948 C 172.675 -0.300166 3.47707 0
M  V30 1949 C 174.023 -0.534061 4.21228 0
M  V30 1950 O 175.047 -0.38081 3.54159 0
M  V30 1951 O 173.906 -0.833501 5.40106 0
M  V30 1952 H 171 -0.161149 0.811147 0
M  V30 1953 H 173.546 0.432798 1.64088 0
M  V30 1954 H 172.318 0.673138 3.85467 0
M  V30 1955 H 171.941 -1.04179 3.83709 0
M  V30 1956 N 172.938 -1.57226 0.108567 0
M  V30 1957 C 173.868 -2.17778 -0.84232 0
M  V30 1958 C 174.849 -1.11487 -1.2847 0
M  V30 1959 O 176.034 -1.39681 -1.34918 0
M  V30 1960 C 173.164 -2.76888 -2.09644 0
M  V30 1961 C 172.118 -3.88669 -1.79221 0
M  V30 1962 C 171.444 -4.34541 -3.11574 0
M  V30 1963 C 172.744 -5.11251 -1.06864 0
M  V30 1964 H 174.438 -2.97489 -0.337774 0
M  V30 1965 H 171.984 -1.43097 -0.161025 0
M  V30 1966 H 173.937 -3.17904 -2.76614 0
M  V30 1967 H 172.661 -1.94451 -2.62405 0
M  V30 1968 H 171.32 -3.48213 -1.14644 0
M  V30 1969 H 170.968 -3.48977 -3.62249 0
M  V30 1970 H 170.668 -5.09914 -2.91996 0
M  V30 1971 H 172.192 -4.782 -3.7968 0
M  V30 1972 H 173.606 -5.49352 -1.63968 0
M  V30 1973 H 172.003 -5.9214 -0.974178 0
M  V30 1974 H 173.073 -4.8487 -0.0536168 0
M  V30 1975 N 174.416 0.165178 -1.56732 0
M  V30 1976 C 175.646 0.894919 -1.86212 0
M  V30 1977 C 176.054 1.76066 -0.692627 0
M  V30 1978 O 175.397 1.80387 0.347303 0
M  V30 1979 C 175.459 1.8174 -3.10179 0
M  V30 1980 C 175.123 1.13064 -4.42793 0
M  V30 1981 C 176.12 0.493169 -5.17556 0
M  V30 1982 C 173.805 1.12556 -4.89527 0
M  V30 1983 C 175.799 -0.140209 -6.37246 0
M  V30 1984 C 173.486 0.488366 -6.09145 0
M  V30 1985 C 174.484 -0.143411 -6.82849 0
M  V30 1986 O 174.172 -0.77055 -8.00199 0
M  V30 1987 H 173.904 0.265114 -0.621844 0
M  V30 1988 H 176.458 0.168242 -2.0471 0
M  V30 1989 H 174.688 2.58455 -2.87642 0
M  V30 1990 H 176.377 2.4175 -3.26055 0
M  V30 1991 H 177.143 0.489023 -4.82528 0
M  V30 1992 H 173.022 1.60672 -4.32094 0
M  V30 1993 H 176.566 -0.633932 -6.94714 0
M  V30 1994 H 172.463 0.490116 -6.43637 0
M  V30 1995 H 173.231 -0.670408 -8.1575 0
M  V30 1996 N 175.894 1.51508 0.433938 0
M  V30 1997 C 176.804 1.75917 1.5521 0
M  V30 1998 C 177.82 0.643545 1.61662 0
M  V30 1999 O 178.996 0.926183 1.7884 0
M  V30 2000 C 176.061 1.88213 2.91164 0
M  V30 2001 C 175.122 3.12074 2.94802 0
M  V30 2002 C 174.355 3.23774 4.24271 0
M  V30 2003 O 174.578 2.4133 5.16833 0
M  V30 2004 O 173.512 4.16774 4.34262 0
M  V30 2005 H 177.338 2.70777 1.37527 0
M  V30 2006 H 174.923 1.36051 0.617293 0
M  V30 2007 H 176.805 1.98267 3.71845 0
M  V30 2008 H 175.48 0.965413 3.08968 0
M  V30 2009 H 174.387 3.07497 2.13065 0
M  V30 2010 H 175.72 4.03446 2.81943 0
M  V30 2011 N 177.372 -0.689602 1.41712 0
M  V30 2012 C 178.32 -1.82475 1.44242 0
M  V30 2013 C 179.314 -1.66354 0.319774 0
M  V30 2014 O 180.52 -1.73143 0.492089 0
M  V30 2015 H 176.895 -0.601416 0.451445 0
M  V30 2016 H 178.866 -1.77458 2.39899 0
M  V30 2017 C 177.615 -3.20535 1.3473 0
M  V30 2018 H 176.938 -3.33559 2.20405 0
M  V30 2019 H 178.378 -4.00023 1.40562 0
M  V30 2020 C 176.837 -3.36846 0.0603281 0
M  V30 2021 O 177.367 -3.91656 -0.892663 0
M  V30 2022 N 175.573 -2.90595 -0.0177039 0
M  V30 2023 H 175.12 -2.46178 0.758572 0
M  V30 2024 H 175.078 -3.01886 -0.878201 0
M  V30 2025 N 178.85 -1.27639 -0.924453 0
M  V30 2026 C 179.797 -1.10644 -2.0255 0
M  V30 2027 C 180.767 -0.00658438 -1.66099 0
M  V30 2028 O 181.952 -0.16952 -1.90045 0
M  V30 2029 C 179.092 -0.76309 -3.36557 0
M  V30 2030 C 178.205 -1.94091 -3.85944 0
M  V30 2031 C 177.34 -1.53914 -5.08413 0
M  V30 2032 C 176.379 -2.68425 -5.50104 0
M  V30 2033 N 175.516 -2.28815 -6.63768 0
M  V30 2034 H 180.356 -2.04858 -2.16419 0
M  V30 2035 H 177.893 -1.01974 -1.06017 0
M  V30 2036 H 179.851 -0.544822 -4.13627 0
M  V30 2037 H 178.481 0.142102 -3.22487 0
M  V30 2038 H 177.533 -2.27162 -3.05125 0
M  V30 2039 H 178.845 -2.7998 -4.12811 0
M  V30 2040 H 177.999 -1.28231 -5.92994 0
M  V30 2041 H 176.738 -0.651391 -4.8333 0
M  V30 2042 H 175.743 -2.94819 -4.64071 0
M  V30 2043 H 176.968 -3.57826 -5.7718 0
M  V30 2044 H 174.914 -1.42495 -6.40337 0
M  V30 2045 H 174.831 -3.08242 -6.90306 0
M  V30 2046 H 176.099 -2.06387 -7.51681 0
M  V30 2047 N 180.328 1.1314 -1.09713 0
M  V30 2048 C 181.605 1.80762 -0.747302 0
M  V30 2049 C 181.985 1.96663 0.767265 0
M  V30 2050 O 181.333 1.53706 1.69076 0
M  V30 2051 C 181.543 3.15606 -1.48975 0
M  V30 2052 C 182.891 3.90914 -1.65746 0
M  V30 2053 O 183.915 3.25239 -1.45251 0
M  V30 2054 O 182.774 5.08718 -1.9967 0
M  V30 2055 H 179.868 0.782103 -0.268782 0
M  V30 2056 H 182.414 1.20041 -1.19951 0
M  V30 2057 H 181.186 2.99278 -2.52088 0
M  V30 2058 H 180.809 3.84029 -1.02991 0
M  V30 2059 N 181.806 0.884767 1.30421 0
M  V30 2060 C 183.036 0.517293 2.00019 0
M  V30 2061 C 183.444 -0.898632 1.66497 0
M  V30 2062 O 182.787 -1.60245 0.898181 0
M  V30 2063 C 182.849 0.612025 3.54252 0
M  V30 2064 C 182.513 1.99222 4.1129 0
M  V30 2065 C 183.51 2.9616 4.273 0
M  V30 2066 C 181.195 2.29755 4.46674 0
M  V30 2067 C 183.189 4.21764 4.77906 0
M  V30 2068 C 180.876 3.55606 4.96979 0
M  V30 2069 C 181.874 4.51425 5.12547 0
M  V30 2070 O 181.562 5.75043 5.61766 0
M  V30 2071 H 181.294 0.198529 0.64619 0
M  V30 2072 H 183.848 1.1919 1.67281 0
M  V30 2073 H 182.078 -0.119561 3.86515 0
M  V30 2074 H 183.767 0.255859 4.05093 0
M  V30 2075 H 184.533 2.73882 4.00267 0
M  V30 2076 H 180.412 1.55942 4.33824 0
M  V30 2077 H 183.956 4.96561 4.89972 0
M  V30 2078 H 179.853 3.7772 5.23448 0
M  V30 2079 H 180.621 5.77422 5.80109 0
M  V30 2080 N 183.284 -1.43765 0.645699 0
M  V30 2081 C 184.533 -2.01116 0.153412 0
M  V30 2082 C 184.846 -1.51493 -1.23731 0
M  V30 2083 O 186.052 -2.01067 -1.8244 0
M  V30 2084 C 184.508 -3.59206 0.223473 0
M  V30 2085 C 184.116 -4.17823 1.61642 0
M  V30 2086 C 185.86 -4.23972 -0.211597 0
M  V30 2087 C 183.767 -5.68183 1.64081 0
M  V30 2088 H 182.697 -0.752093 0.0535891 0
M  V30 2089 H 185.348 -1.6482 0.806633 0
M  V30 2090 H 183.73 -3.92867 -0.497118 0
M  V30 2091 H 184.904 -3.95674 2.36176 0
M  V30 2092 H 183.219 -3.65399 1.99681 0
M  V30 2093 H 185.816 -5.34275 -0.213112 0
M  V30 2094 H 186.159 -3.97352 -1.24165 0
M  V30 2095 H 186.692 -3.95166 0.456988 0
M  V30 2096 H 183.431 -5.99559 2.64971 0
M  V30 2097 H 182.951 -5.9241 0.938611 0
M  V30 2098 H 184.63 -6.32085 1.3812 0
M  V30 2099 N 184.763 -0.387143 -1.52771 0
M  V30 2100 C 186.179 -0.037007 -1.59557 0
M  V30 2101 C 186.379 1.44801 -1.40124 0
M  V30 2102 O 185.435 2.21227 -1.21716 0
M  V30 2103 C 186.748 -0.512256 -2.96305 0
M  V30 2104 C 188.296 -0.468328 -3.09476 0
M  V30 2105 C 188.771 -0.919731 -4.4867 0
M  V30 2106 N 190.262 -0.875656 -4.54848 0
M  V30 2107 C 190.997 -1.19637 -5.6078 0
M  V30 2108 N 190.493 -1.58745 -6.74368 0
M  V30 2109 N 192.286 -1.11776 -5.50874 0
M  V30 2110 H 184.437 -1.35395 -1.63652 0
M  V30 2111 H 186.7 -0.554818 -0.768688 0
M  V30 2112 H 186.406 -1.54935 -3.15734 0
M  V30 2113 H 186.28 0.089805 -3.77093 0
M  V30 2114 H 188.667 0.559671 -2.89744 0
M  V30 2115 H 188.748 -1.10616 -2.30646 0
M  V30 2116 H 188.392 -1.94595 -4.69143 0
M  V30 2117 H 188.322 -0.258927 -5.25963 0
M  V30 2118 H 190.813 -0.587843 -3.733 0
M  V30 2119 H 191.126 -1.81586 -7.51163 0
M  V30 2120 H 189.471 -1.6263 -6.75705 0
M  V30 2121 H 192.662 -0.811264 -4.61016 0
M  V30 2122 H 192.835 -1.37103 -6.3333 0
M  V30 2123 N 186.241 1.57166 -0.116904 0
M  V30 2124 C 187.189 2.16457 0.851418 0
M  V30 2125 C 188.183 1.11323 1.27686 0
M  V30 2126 O 189.389 1.2963 1.24884 0
M  V30 2127 H 185.764 0.69271 0.292672 0
M  V30 2128 H 187.735 2.96605 0.32685 0
M  V30 2129 C 186.484 2.77689 2.09246 0
M  V30 2130 H 185.807 3.58285 1.77402 0
M  V30 2131 H 187.247 3.22716 2.7501 0
M  V30 2132 C 185.706 1.74667 2.88085 0
M  V30 2133 O 186.236 1.19877 3.83396 0
M  V30 2134 N 184.442 1.44656 2.52038 0
M  V30 2135 H 183.989 1.89402 1.74599 0
M  V30 2136 H 183.947 0.759675 3.05084 0
M  V30 2137 N 187.719 -0.156864 1.56817 0
M  V30 2138 C 188.959 -0.877453 1.84608 0
M  V30 2139 C 189.323 -1.78791 0.699845 0
M  V30 2140 O 190.524 -2.5472 0.858553 0
M  V30 2141 C 188.795 -1.63992 3.17555 0
M  V30 2142 S 190.354 -2.40729 3.66872 0
M  V30 2143 H 187.172 -0.293612 0.647544 0
M  V30 2144 H 189.774 -0.138099 1.95012 0
M  V30 2145 H 188.478 -0.962363 3.98957 0
M  V30 2146 H 188.009 -2.42038 3.10131 0
M  V30 2147 H 190.024 -3.65725 3.3535 0
M  V30 2148 N 189.197 -1.51736 -0.425897 0
M  V30 2149 C 190.446 -1.64201 -1.17136 0
M  V30 2150 C 190.759 -0.369705 -1.92074 0
M  V30 2151 O 191.965 -0.373898 -2.68913 0
M  V30 2152 C 190.421 -2.90035 -2.13091 0
M  V30 2153 C 190.029 -4.24312 -1.43747 0
M  V30 2154 C 191.773 -3.1186 -2.87999 0
M  V30 2155 C 189.68 -5.41285 -2.38253 0
M  V30 2156 H 188.61 -0.611624 -0.440944 0
M  V30 2157 H 191.261 -1.78212 -0.437328 0
M  V30 2158 H 189.643 -2.69684 -2.89977 0
M  V30 2159 H 190.817 -4.55086 -0.723408 0
M  V30 2160 H 189.132 -4.08456 -0.809465 0
M  V30 2161 H 191.729 -3.96427 -3.58817 0
M  V30 2162 H 192.072 -2.25403 -3.49999 0
M  V30 2163 H 192.605 -3.32605 -2.18217 0
M  V30 2164 H 189.344 -6.30037 -1.80925 0
M  V30 2165 H 188.864 -5.14872 -3.0768 0
M  V30 2166 H 190.543 -5.73694 -2.99139 0
M  V30 2167 N 190.675 0.682077 -1.42076 0
M  V30 2168 C 191.924 1.43786 -1.41451 0
M  V30 2169 C 192.237 1.95574 -0.0317074 0
M  V30 2170 O 193.443 2.71326 0.0971462 0
M  V30 2171 C 191.899 2.60071 -2.48779 0
M  V30 2172 C 191.507 2.15013 -3.93031 0
M  V30 2173 C 193.251 3.37626 -2.57311 0
M  V30 2174 C 191.158 3.28336 -4.91883 0
M  V30 2175 H 190.088 0.540143 -0.526082 0
M  V30 2176 H 192.739 0.739157 -1.67955 0
M  V30 2177 H 191.121 3.32275 -2.15429 0
M  V30 2178 H 192.295 1.5001 -4.35699 0
M  V30 2179 H 190.61 1.50416 -3.88284 0
M  V30 2180 H 193.207 4.22012 -3.28345 0
M  V30 2181 H 193.55 3.83727 -1.61429 0
M  V30 2182 H 194.083 2.72488 -2.89819 0
M  V30 2183 H 190.822 2.87234 -5.89217 0
M  V30 2184 H 190.342 3.92145 -4.53853 0
M  V30 2185 H 192.021 3.93913 -5.13265 0
M  V30 2186 N 192.153 1.28127 0.917671 0
M  V30 2187 C 193.401 1.14825 1.66312 0
M  V30 2188 C 193.722 -0.304379 1.9261 0
M  V30 2189 O 192.992 -1.21149 1.53947 0
M  V30 2190 H 191.572 0.421953 0.616413 0
M  V30 2191 H 194.234 1.608 1.10134 0
M  V30 2192 H 193.33 1.68489 2.62712 0
M  V30 2193 N 193.631 -1.12557 1.10312 0
M  V30 2194 C 194.578 -2.18247 0.750781 0
M  V30 2195 C 195.548 -1.63853 -0.272293 0
M  V30 2196 O 196.733 -1.90195 -0.151862 0
M  V30 2197 C 193.873 -3.44591 0.187379 0
M  V30 2198 C 192.986 -4.13046 1.2656 0
M  V30 2199 C 192.121 -5.27034 0.663978 0
M  V30 2200 C 191.16 -5.87353 1.72287 0
M  V30 2201 N 190.297 -6.92757 1.1416 0
M  V30 2202 H 195.137 -2.47732 1.65628 0
M  V30 2203 H 192.674 -1.21629 0.827337 0
M  V30 2204 H 194.632 -4.16904 -0.157148 0
M  V30 2205 H 193.262 -3.15527 -0.681355 0
M  V30 2206 H 192.314 -3.38924 1.72727 0
M  V30 2207 H 193.626 -4.53947 2.06721 0
M  V30 2208 H 192.78 -6.06104 0.268824 0
M  V30 2209 H 191.519 -4.87407 -0.169082 0
M  V30 2210 H 190.524 -5.06971 2.12746 0
M  V30 2211 H 191.749 -6.29051 2.55875 0
M  V30 2212 H 189.695 -6.5517 0.329984 0
M  V30 2213 H 189.612 -7.3225 1.88007 0
M  V30 2214 H 190.88 -7.75658 0.772956 0
M  V30 2215 N 195.109 -0.891671 -1.2995 0
M  V30 2216 C 196.357 -0.512486 -1.95494 0
M  V30 2217 C 196.678 0.942776 -1.70695 0
M  V30 2218 O 195.948 1.66374 -1.03424 0
M  V30 2219 H 194.528 -0.186533 -0.723336 0
M  V30 2220 H 197.19 -1.13621 -1.58355 0
M  V30 2221 H 196.286 -0.688342 -3.04415 0
M  V30 2222 N 196.587 1.43421 -0.653314 0
M  V30 2223 C 198.003 1.56341 -0.320886 0
M  V30 2224 C 198.203 1.63696 1.17499 0
M  V30 2225 O 197.259 1.59208 1.95982 0
M  V30 2226 C 198.572 2.82424 -1.03233 0
M  V30 2227 C 200.12 2.96168 -1.01259 0
M  V30 2228 C 200.595 4.25084 -1.70492 0
M  V30 2229 N 202.086 4.31948 -1.67257 0
M  V30 2230 C 202.821 5.30466 -2.17701 0
M  V30 2231 N 202.317 6.35261 -2.76434 0
M  V30 2232 N 204.11 5.2212 -2.082 0
M  V30 2233 H 196.261 1.3689 -1.62403 0
M  V30 2234 H 198.524 0.657455 -0.682977 0
M  V30 2235 H 198.23 2.83053 -2.08744 0
M  V30 2236 H 198.104 3.72653 -0.583948 0
M  V30 2237 H 200.491 2.9508 0.0341235 0
M  V30 2238 H 200.572 2.07229 -1.49966 0
M  V30 2239 H 200.216 4.26932 -2.7512 0
M  V30 2240 H 200.146 5.1292 -1.19251 0
M  V30 2241 H 202.637 3.56838 -1.24398 0
M  V30 2242 H 202.95 7.06754 -3.12601 0
M  V30 2243 H 201.295 6.35884 -2.80495 0
M  V30 2244 H 204.486 4.39166 -1.62021 0
M  V30 2245 H 204.659 5.98739 -2.47822 0
M  V30 2246 N 198.065 0.39524 1.52563 0
M  V30 2247 C 199.29 -0.187456 2.06551 0
M  V30 2248 C 199.715 -1.39249 1.26457 0
M  V30 2249 O 199.073 -1.78947 0.291151 0
M  V30 2250 C 199.121 -0.529985 3.56684 0
M  V30 2251 O 198.225 -1.62307 3.79118 0
M  V30 2252 H 197.566 -0.0202537 0.663691 0
M  V30 2253 H 200.096 0.564426 1.96661 0
M  V30 2254 H 200.106 -0.792598 4.00227 0
M  V30 2255 H 198.781 0.350987 4.14416 0
M  V30 2256 H 197.358 -1.3537 3.47461 0
M  V30 2257 N 199.544 -1.57102 0.125237 0
M  V30 2258 C 200.774 -1.99472 -0.538015 0
M  V30 2259 C 201.182 -1.00395 -1.60366 0
M  V30 2260 O 200.525 0.0103875 -1.83697 0
M  V30 2261 C 200.587 -3.38262 -1.21734 0
M  V30 2262 C 200.251 -4.56021 -0.298897 0
M  V30 2263 C 201.248 -5.17817 0.464943 0
M  V30 2264 C 198.933 -5.01869 -0.208149 0
M  V30 2265 C 200.927 -6.23852 1.3072 0
M  V30 2266 C 198.614 -6.07763 0.637736 0
M  V30 2267 C 199.612 -6.68622 1.39403 0
M  V30 2268 O 199.3 -7.7247 2.22586 0
M  V30 2269 H 199.032 -0.659934 -0.146501 0
M  V30 2270 H 201.586 -2.04321 0.210267 0
M  V30 2271 H 199.816 -3.30185 -2.01282 0
M  V30 2272 H 201.505 -3.6488 -1.77813 0
M  V30 2273 H 202.271 -4.83308 0.404741 0
M  V30 2274 H 198.15 -4.54241 -0.786522 0
M  V30 2275 H 201.694 -6.71284 1.898 0
M  V30 2276 H 197.591 -6.41701 0.699309 0
M  V30 2277 H 198.359 -7.89595 2.15596 0
M  V30 2278 N 201.022 0.148545 -1.56898 0
M  V30 2279 C 201.969 1.18345 -1.98149 0
M  V30 2280 C 202.939 1.42772 -0.848848 0
M  V30 2281 O 204.124 1.55132 -1.11079 0
M  V30 2282 C 201.264 2.51231 -2.36594 0
M  V30 2283 C 200.377 2.33991 -3.63142 0
M  V30 2284 C 199.512 3.59902 -3.90697 0
M  V30 2285 C 198.551 3.37692 -5.1052 0
M  V30 2286 N 197.688 4.5573 -5.34092 0
M  V30 2287 H 202.528 0.82467 -2.86362 0
M  V30 2288 H 200.065 0.395756 -1.41676 0
M  V30 2289 H 202.023 3.28713 -2.56912 0
M  V30 2290 H 200.653 2.85059 -1.51463 0
M  V30 2291 H 199.705 1.47572 -3.50609 0
M  V30 2292 H 201.017 2.13539 -4.5078 0
M  V30 2293 H 200.171 4.45813 -4.11505 0
M  V30 2294 H 198.91 3.83357 -3.01477 0
M  V30 2295 H 197.915 2.5017 -4.89587 0
M  V30 2296 H 199.14 3.15637 -6.0129 0
M  V30 2297 H 197.086 4.79361 -4.47827 0
M  V30 2298 H 197.003 4.38274 -6.15996 0
M  V30 2299 H 198.271 5.42858 -5.59397 0
M  V30 2300 N 202.5 1.5196 0.417844 0
M  V30 2301 C 203.748 1.65263 1.16329 0
M  V30 2302 C 204.069 0.380634 1.91249 0
M  V30 2303 O 203.339 -0.604214 1.86349 0
M  V30 2304 H 201.919 0.60912 0.432414 0
M  V30 2305 H 204.581 1.88969 0.477162 0
M  V30 2306 H 203.677 2.4896 1.88217 0
M  V30 2307 N 203.978 -0.674533 1.42435 0
M  V30 2308 C 205.206 -1.46283 1.46317 0
M  V30 2309 C 205.621 -1.88653 0.0745836 0
M  V30 2310 O 204.978 -1.58151 -0.91074 0
M  V30 2311 C 205.029 -2.71178 2.3905 0
M  V30 2312 O 204.75 -2.30586 3.72507 0
M  V30 2313 C 206.251 -3.64738 2.51955 0
M  V30 2314 H 203.471 -0.450104 0.497642 0
M  V30 2315 H 206.015 -0.828792 1.86953 0
M  V30 2316 H 204.17 -3.3077 2.01667 0
M  V30 2317 H 204.584 -3.11241 4.22172 0
M  V30 2318 H 206.058 -4.49096 3.20962 0
M  V30 2319 H 206.535 -4.10656 1.55752 0
M  V30 2320 H 207.141 -3.11038 2.90061 0
M  V30 2321 N 205.456 -1.28612 -0.910864 0
M  V30 2322 C 206.702 -1.16106 -1.66274 0
M  V30 2323 C 207.035 0.289113 -1.92036 0
M  V30 2324 O 206.31 1.21 -1.52281 0
M  V30 2325 C 206.593 -1.96309 -3.01885 0
M  V30 2326 C 206.446 -3.49405 -2.8326 0
M  V30 2327 C 207.765 -1.78076 -4.02463 0
M  V30 2328 H 204.884 -0.423152 -0.603417 0
M  V30 2329 H 207.526 -1.57961 -1.05586 0
M  V30 2330 H 205.676 -1.60742 -3.53687 0
M  V30 2331 H 207.348 -3.94894 -2.38446 0
M  V30 2332 H 205.591 -3.74893 -2.18261 0
M  V30 2333 H 206.262 -4.00784 -3.79574 0
M  V30 2334 H 208.738 -2.0912 -3.59733 0
M  V30 2335 H 207.614 -2.36561 -4.95308 0
M  V30 2336 H 207.875 -0.733008 -4.35981 0
M  V30 2337 N 206.934 1.1197 -1.10907 0
M  V30 2338 C 208.159 1.87942 -0.877064 0
M  V30 2339 C 208.584 1.79341 0.567314 0
M  V30 2340 O 207.942 1.15184 1.40009 0
M  V30 2341 C 207.99 3.34926 -1.33629 0
M  V30 2342 O 207.094 4.09303 -0.504447 0
M  V30 2343 H 206.435 0.583785 -0.316371 0
M  V30 2344 H 208.965 1.4157 -1.47712 0
M  V30 2345 H 208.975 3.8577 -1.32837 0
M  V30 2346 H 207.65 3.40504 -2.3881 0
M  V30 2347 H 206.227 3.68393 -0.577993 0
M  V30 2348 N 208.412 0.89855 1.29475 0
M  V30 2349 C 209.661 0.519863 1.94885 0
M  V30 2350 C 209.974 -0.9383 1.71625 0
M  V30 2351 O 211.18 -1.42445 2.31131 0
M  V30 2352 C 209.636 0.878836 3.49005 0
M  V30 2353 C 209.244 2.35569 3.81066 0
M  V30 2354 C 210.988 0.570004 4.20656 0
M  V30 2355 C 208.895 2.65558 5.28425 0
M  V30 2356 H 207.825 0.190692 0.729488 0
M  V30 2357 H 210.476 1.09539 1.47219 0
M  V30 2358 H 208.858 0.232253 3.95318 0
M  V30 2359 H 210.032 3.04773 3.45616 0
M  V30 2360 H 208.347 2.63343 3.22552 0
M  V30 2361 H 210.944 0.770925 5.29113 0
M  V30 2362 H 211.287 -0.491404 4.1339 0
M  V30 2363 H 211.82 1.17438 3.8007 0
M  V30 2364 H 208.559 3.70493 5.40754 0
M  V30 2365 H 208.079 2.00977 5.65127 0
M  V30 2366 H 209.758 2.51765 5.96006 0
M  V30 2367 N 209.89 -1.43072 0.660911 0
M  V30 2368 C 211.118 -2.06067 0.185422 0
M  V30 2369 C 211.533 -1.49582 -1.15198 0
M  V30 2370 O 210.89 -0.630134 -1.71276 0
M  V30 2371 C 210.941 -3.61371 0.0966523 0
M  V30 2372 O 210.662 -4.15758 1.38119 0
M  V30 2373 C 212.163 -4.41455 -0.403996 0
M  V30 2374 H 209.383 -0.664459 0.0934604 0
M  V30 2375 H 211.927 -1.83447 0.90373 0
M  V30 2376 H 210.082 -3.8315 -0.572259 0
M  V30 2377 H 210.496 -5.09499 1.24542 0
M  V30 2378 H 211.97 -5.50437 -0.415045 0
M  V30 2379 H 212.447 -4.15036 -1.43674 0
M  V30 2380 H 213.053 -4.24663 0.232691 0
M  V30 2381 N 211.368 -0.403325 -1.52352 0
M  V30 2382 C 212.315 0.425011 -2.26853 0
M  V30 2383 C 213.285 1.04598 -1.29029 0
M  V30 2384 O 214.47 1.07135 -1.57882 0
M  V30 2385 C 211.61 1.53888 -3.08889 0
M  V30 2386 C 210.723 0.939396 -4.21663 0
M  V30 2387 C 209.858 2.02547 -4.91068 0
M  V30 2388 C 208.897 1.40263 -5.95813 0
M  V30 2389 N 208.034 2.4286 -6.58759 0
M  V30 2390 H 212.874 -0.21674 -2.97211 0
M  V30 2391 H 210.411 -0.118722 -1.4662 0
M  V30 2392 H 212.369 2.19558 -3.54753 0
M  V30 2393 H 210.999 2.15074 -2.40714 0
M  V30 2394 H 210.051 0.171898 -3.80011 0
M  V30 2395 H 211.363 0.44436 -4.96817 0
M  V30 2396 H 210.517 2.75958 -5.40308 0
M  V30 2397 H 209.256 2.55415 -4.15469 0
M  V30 2398 H 208.261 0.653833 -5.45898 0
M  V30 2399 H 209.486 0.881719 -6.73352 0
M  V30 2400 H 207.432 2.94871 -5.85992 0
M  V30 2401 H 207.349 1.98152 -7.2957 0
M  V30 2402 H 208.617 3.15858 -7.12639 0
M  V30 2403 N 212.846 1.57033 -0.133567 0
M  V30 2404 C 214.071 2.00475 0.531477 0
M  V30 2405 C 214.496 1.01291 1.58499 0
M  V30 2406 O 213.854 -0.0133279 1.81295 0
M  V30 2407 C 213.902 3.42729 1.12113 0
M  V30 2408 O 213.006 3.46498 2.23636 0
M  V30 2409 H 212.347 0.650876 0.131362 0
M  V30 2410 H 214.877 2.03344 -0.22634 0
M  V30 2411 H 214.887 3.81246 1.4531 0
M  V30 2412 H 213.562 4.14428 0.349557 0
M  V30 2413 H 212.139 3.19811 1.91769 0
M  V30 2414 N 214.325 -0.140222 1.56975 0
M  V30 2415 C 215.573 -0.850005 1.83356 0
M  V30 2416 C 215.894 -1.81399 0.71551 0
M  V30 2417 O 215.164 -1.94136 -0.262294 0
M  V30 2418 H 213.744 -0.316886 0.676456 0
M  V30 2419 H 216.406 -0.132608 1.94448 0
M  V30 2420 H 215.502 -1.40814 2.78528 0
M  V30 2421 N 215.803 -1.52179 -0.40978 0
M  V30 2422 C 217.052 -1.65434 -1.15388 0
M  V30 2423 C 217.365 -0.390056 -1.91671 0
M  V30 2424 O 218.571 -0.402399 -2.68501 0
M  V30 2425 C 217.027 -2.92279 -2.10003 0
M  V30 2426 C 216.635 -4.25813 -1.39239 0
M  V30 2427 C 218.379 -3.14897 -2.84675 0
M  V30 2428 C 216.286 -5.43782 -2.32498 0
M  V30 2429 H 215.216 -0.616267 -0.434432 0
M  V30 2430 H 217.867 -1.78666 -0.418401 0
M  V30 2431 H 216.249 -2.72744 -2.871 0
M  V30 2432 H 217.423 -4.55828 -0.675099 0
M  V30 2433 H 215.738 -4.09292 -0.766097 0
M  V30 2434 H 218.335 -4.0021 -3.54593 0
M  V30 2435 H 218.678 -2.29103 -3.47588 0
M  V30 2436 H 219.211 -3.34901 -2.14677 0
M  V30 2437 H 215.95 -6.3192 -1.74233 0
M  V30 2438 H 215.47 -5.18106 -3.02201 0
M  V30 2439 H 217.149 -5.76834 -2.93038 0
M  V30 2440 N 217.281 0.66697 -1.42791 0
M  V30 2441 C 218.228 1.7803 -1.4688 0
M  V30 2442 C 219.198 1.6299 -0.319919 0
M  V30 2443 O 220.383 1.83432 -0.525118 0
M  V30 2444 C 217.523 3.1611 -1.38451 0
M  V30 2445 C 216.636 3.42381 -2.63437 0
M  V30 2446 C 215.771 4.70232 -2.47094 0
M  V30 2447 C 214.81 4.89564 -3.67415 0
M  V30 2448 N 213.947 6.08661 -3.49966 0
M  V30 2449 H 218.787 1.7387 -2.42019 0
M  V30 2450 H 216.324 0.84868 -1.20149 0
M  V30 2451 H 218.282 3.95914 -1.31561 0
M  V30 2452 H 216.912 3.19374 -0.469033 0
M  V30 2453 H 215.964 2.56774 -2.80662 0
M  V30 2454 H 217.276 3.52557 -3.52853 0
M  V30 2455 H 216.43 5.5814 -2.37834 0
M  V30 2456 H 215.169 4.62353 -1.5518 0
M  V30 2457 H 214.174 4.00096 -3.77099 0
M  V30 2458 H 215.399 4.99282 -4.6032 0
M  V30 2459 H 213.345 6.0194 -2.60776 0
M  V30 2460 H 213.262 6.19733 -4.32975 0
M  V30 2461 H 214.53 6.99226 -3.44532 0
M  V30 2462 N 218.759 1.29093 0.90403 0
M  V30 2463 C 219.999 1.18076 1.66845 0
M  V30 2464 C 220.363 -0.26436 1.90171 0
M  V30 2465 O 221.564 -0.497423 2.64157 0
M  V30 2466 C 219.835 1.96722 2.98388 0
M  V30 2467 S 221.394 2.0219 3.89441 0
M  V30 2468 H 218.212 0.421104 0.572881 0
M  V30 2469 H 220.814 1.63322 1.07453 0
M  V30 2470 H 219.518 3.00866 2.7912 0
M  V30 2471 H 219.049 1.52064 3.62823 0
M  V30 2472 H 221.064 1.13545 4.83034 0
M  V30 2473 N 220.237 -1.11381 1.11499 0
M  V30 2474 C 221.169 -2.17207 0.731704 0
M  V30 2475 C 222.182 -1.61066 -0.236957 0
M  V30 2476 O 223.371 -1.78489 -0.0197591 0
M  V30 2477 C 220.471 -3.38846 0.0607624 0
M  V30 2478 C 219.644 -4.24451 1.0564 0
M  V30 2479 C 218.703 -5.24562 0.4149 0
M  V30 2480 O 217.729 -5.59071 1.069 0
M  V30 2481 N 218.931 -5.74651 -0.821943 0
M  V30 2482 H 221.696 -2.50699 1.64225 0
M  V30 2483 H 219.257 -1.26908 1.00529 0
M  V30 2484 H 221.249 -4.02911 -0.380139 0
M  V30 2485 H 219.819 -3.03411 -0.752376 0
M  V30 2486 H 219.039 -3.56833 1.67524 0
M  V30 2487 H 220.327 -4.78486 1.72998 0
M  V30 2488 H 219.725 -5.48797 -1.37252 0
M  V30 2489 H 218.282 -6.40549 -1.20582 0
M  V30 2490 N 221.715 -0.905404 -1.28997 0
M  V30 2491 C 223.126 -0.581953 -1.77398 0
M  V30 2492 C 223.477 0.902552 -1.74208 0
M  V30 2493 O 222.602 1.70584 -1.33154 0
M  V30 2494 C 223.197 -1.04961 -3.22131 0
M  V30 2495 C 221.756 -0.777229 -3.68288 0
M  V30 2496 C 220.903 -1.22109 -2.48967 0
M  V30 2497 H 223.854 -1.08754 -1.15578 0
M  V30 2498 H 223.875 -0.387387 -3.78523 0
M  V30 2499 H 223.387 -2.13008 -3.24421 0
M  V30 2500 H 221.488 0.290383 -3.71467 0
M  V30 2501 H 221.601 -1.37911 -4.58822 0
M  V30 2502 H 219.965 -0.639971 -2.46529 0
M  V30 2503 H 220.748 -2.30972 -2.53982 0
M  V30 2504 N 223.193 1.4272 -0.668489 0
M  V30 2505 C 224.439 2.02443 -0.197076 0
M  V30 2506 C 224.794 1.51882 1.18109 0
M  V30 2507 O 224.087 0.708618 1.78015 0
M  V30 2508 C 224.281 3.57021 -0.164499 0
M  V30 2509 C 224.11 4.22583 -1.53797 0
M  V30 2510 C 222.88 4.58019 -2.13416 0
M  V30 2511 C 225.078 4.50588 -2.47941 0
M  V30 2512 N 223.06 5.08729 -3.4361 0
M  V30 2513 C 224.431 5.02782 -3.62782 0
M  V30 2514 C 226.486 4.32571 -2.46551 0
M  V30 2515 C 225.189 5.38852 -4.76478 0
M  V30 2516 C 227.215 4.69713 -3.59338 0
M  V30 2517 C 226.577 5.22053 -4.72906 0
M  V30 2518 H 222.676 0.773214 -0.116894 0
M  V30 2519 H 225.26 1.73673 -0.880108 0
M  V30 2520 H 223.431 3.85323 0.487925 0
M  V30 2521 H 225.163 4.03439 0.319207 0
M  V30 2522 H 221.918 4.43566 -1.65969 0
M  V30 2523 H 222.342 5.38521 -4.10273 0
M  V30 2524 H 226.984 3.91365 -1.59978 0
M  V30 2525 H 224.702 5.78993 -5.63731 0
M  V30 2526 H 228.288 4.57454 -3.59482 0
M  V30 2527 H 227.168 5.50258 -5.58736 0
M  V30 2528 N 224.671 0.411399 1.52136 0
M  V30 2529 C 225.896 -0.165538 2.06738 0
M  V30 2530 C 226.321 -1.379 1.27926 0
M  V30 2531 O 225.679 -1.78628 0.310114 0
M  V30 2532 C 225.727 -0.492124 3.57226 0
M  V30 2533 O 224.831 -1.58276 3.80818 0
M  V30 2534 H 224.172 -0.0132132 0.663869 0
M  V30 2535 H 226.702 0.585253 1.96051 0
M  V30 2536 H 226.712 -0.750104 4.01045 0
M  V30 2537 H 225.387 0.394922 4.14021 0
M  V30 2538 H 223.964 -1.31677 3.48877 0
M  V30 2539 N 226.149 -1.5696 0.141893 0
M  V30 2540 C 227.374 -2.00754 -0.520838 0
M  V30 2541 C 227.799 -1.0213 -1.57959 0
M  V30 2542 O 227.157 0.00371324 -1.813 0
M  V30 2543 C 227.205 -3.43318 -1.10294 0
M  V30 2544 O 226.309 -3.47679 -2.21795 0
M  V30 2545 H 225.65 -0.651564 -0.127908 0
M  V30 2546 H 228.18 -2.03221 0.23712 0
M  V30 2547 H 228.19 -3.82012 -1.43287 0
M  V30 2548 H 226.865 -4.14608 -0.327574 0
M  V30 2549 H 225.442 -3.20824 -1.9007 0
M  V30 2550 N 227.627 0.131896 -1.57047 0
M  V30 2551 C 228.56 1.19236 -1.94571 0
M  V30 2552 C 229.538 1.40782 -0.813576 0
M  V30 2553 O 230.722 1.55148 -1.07058 0
M  V30 2554 C 227.849 2.54858 -2.23081 0
M  V30 2555 C 226.895 2.49817 -3.45679 0
M  V30 2556 S 227.728 1.95036 -4.98719 0
M  V30 2557 C 228.884 3.32357 -5.30367 0
M  V30 2558 H 229.117 0.872297 -2.84215 0
M  V30 2559 H 226.65 0.338134 -1.50652 0
M  V30 2560 H 228.608 3.32898 -2.40185 0
M  V30 2561 H 227.269 2.84047 -1.34074 0
M  V30 2562 H 226.462 3.49688 -3.62952 0
M  V30 2563 H 226.064 1.79892 -3.27895 0
M  V30 2564 H 228.356 4.28525 -5.2476 0
M  V30 2565 H 229.299 3.19923 -6.31708 0
M  V30 2566 H 229.707 3.3019 -4.57859 0
M  V30 2567 N 229.106 1.52395 0.401703 0
M  V30 2568 C 230.355 1.66044 1.14509 0
M  V30 2569 C 230.668 0.400216 1.91462 0
M  V30 2570 O 231.874 0.416632 2.68284 0
M  V30 2571 C 230.33 2.93388 2.0845 0
M  V30 2572 C 229.938 4.26545 1.36978 0
M  V30 2573 C 231.682 3.16402 2.83001 0
M  V30 2574 C 229.589 5.45007 2.29611 0
M  V30 2575 H 228.519 0.618562 0.431158 0
M  V30 2576 H 231.17 1.78886 0.40892 0
M  V30 2577 H 229.552 2.74263 2.8565 0
M  V30 2578 H 230.726 4.56179 0.650916 0
M  V30 2579 H 229.041 4.09692 0.74438 0
M  V30 2580 H 231.638 4.02085 3.52465 0
M  V30 2581 H 231.981 2.30943 3.46368 0
M  V30 2582 H 232.514 3.36034 2.12898 0
M  V30 2583 H 229.253 6.32835 1.70879 0
M  V30 2584 H 228.773 5.19702 2.9945 0
M  V30 2585 H 230.452 5.7838 2.89974 0
M  V30 2586 N 230.584 -0.659388 1.43143 0
M  V30 2587 C 231.995 -1.24041 1.39537 0
M  V30 2588 C 232.346 -1.95963 0.0963364 0
M  V30 2589 O 231.471 -2.00892 -0.804438 0
M  V30 2590 C 232.066 -2.25601 2.52764 0
M  V30 2591 C 230.625 -2.79195 2.52443 0
M  V30 2592 C 229.772 -1.53743 2.30778 0
M  V30 2593 H 232.723 -0.451792 1.52133 0
M  V30 2594 H 232.744 -3.07651 2.23899 0
M  V30 2595 H 232.256 -1.73226 3.47296 0
M  V30 2596 H 230.357 -3.35649 1.61773 0
M  V30 2597 H 230.47 -3.2716 3.50004 0
M  V30 2598 H 228.834 -1.80869 1.79328 0
M  V30 2599 H 229.617 -1.03312 3.27386 0
M  V30 2600 N 232.062 -1.29571 -0.897171 0
M  V30 2601 C 233.012 -1.11539 -1.98855 0
M  V30 2602 C 233.996 -0.0340716 -1.60864 0
M  V30 2603 O 235.188 -0.256062 -1.75138 0
M  V30 2604 C 232.317 -0.796603 -3.3393 0
M  V30 2605 C 231.403 -1.91758 -3.78272 0
M  V30 2606 N 231.794 -3.16143 -3.94826 0
M  V30 2607 C 230.092 -1.81119 -4.07568 0
M  V30 2608 C 230.793 -3.89293 -4.32233 0
M  V30 2609 N 229.769 -3.17255 -4.41419 0
M  V30 2610 H 233.571 -2.05894 -2.09726 0
M  V30 2611 H 231.085 -1.20732 -1.08616 0
M  V30 2612 H 233.082 -0.648459 -4.11826 0
M  V30 2613 H 231.742 0.139003 -3.24402 0
M  V30 2614 H 232.753 -3.5157 -3.80288 0
M  V30 2615 H 229.43 -0.948461 -4.06584 0
M  V30 2616 H 230.82 -4.9635 -4.52865 0
M  V30 2617 N 233.54 1.10788 -1.12088 0
M  V30 2618 C 234.45 2.20599 -0.798338 0
M  V30 2619 C 235.466 1.72712 0.21135 0
M  V30 2620 O 236.642 2.01348 0.0458477 0
M  V30 2621 C 233.707 3.45771 -0.253674 0
M  V30 2622 C 232.768 4.08411 -1.32283 0
M  V30 2623 C 232.001 5.27608 -0.80406 0
M  V30 2624 O 232.224 5.69241 0.363478 0
M  V30 2625 O 231.158 5.8101 -1.57198 0
M  V30 2626 H 234.984 2.50614 -1.7154 0
M  V30 2627 H 232.569 1.19454 -0.897275 0
M  V30 2628 H 234.451 4.21376 0.0453691 0
M  V30 2629 H 233.126 3.1739 0.636005 0
M  V30 2630 H 232.033 3.34507 -1.67499 0
M  V30 2631 H 233.366 4.40986 -2.18614 0
M  V30 2632 N 235.018 0.912232 1.28515 0
M  V30 2633 C 235.968 0.370649 2.24967 0
M  V30 2634 C 236.952 -0.516375 1.52389 0
M  V30 2635 O 238.144 -0.356345 1.73376 0
M  V30 2636 C 235.273 -0.389526 3.41083 0
M  V30 2637 C 234.359 0.51313 4.20984 0
M  V30 2638 N 234.75 1.62604 4.78951 0
M  V30 2639 C 233.048 0.313235 4.44899 0
M  V30 2640 C 233.749 2.18619 5.39055 0
M  V30 2641 N 232.725 1.47765 5.23132 0
M  V30 2642 H 236.527 1.22061 2.67354 0
M  V30 2643 H 234.041 0.764712 1.43269 0
M  V30 2644 H 236.038 -0.794353 4.09262 0
M  V30 2645 H 234.698 -1.2366 3.0023 0
M  V30 2646 H 235.709 2.00864 4.77362 0
M  V30 2647 H 232.386 -0.494452 4.14562 0
M  V30 2648 H 233.776 3.12228 5.94948 0
M  V30 2649 N 236.496 -1.42363 0.676048 0
M  V30 2650 C 237.721 -2.06377 0.205705 0
M  V30 2651 C 238.146 -1.50463 -1.12883 0
M  V30 2652 O 237.504 -0.623619 -1.70237 0
M  V30 2653 C 237.552 -3.60277 0.152655 0
M  V30 2654 O 236.656 -4.02935 -0.87845 0
M  V30 2655 H 235.997 -0.655588 0.105359 0
M  V30 2656 H 238.527 -1.82475 0.925412 0
M  V30 2657 H 238.537 -4.07993 -0.0230675 0
M  V30 2658 H 237.212 -4.00346 1.12675 0
M  V30 2659 H 235.789 -3.66764 -0.673668 0
M  V30 2660 N 237.974 -0.419461 -1.51915 0
M  V30 2661 C 239.221 0.152939 -2.01922 0
M  V30 2662 C 239.549 1.4426 -1.30458 0
M  V30 2663 O 238.804 1.91514 -0.402593 0
M  V30 2664 C 239.103 0.437067 -3.54717 0
M  V30 2665 C 238.769 -0.764632 -4.44369 0
M  V30 2666 C 237.431 -1.09423 -4.68594 0
M  V30 2667 C 239.783 -1.56713 -4.97082 0
M  V30 2668 C 237.111 -2.22732 -5.42777 0
M  V30 2669 C 239.463 -2.69107 -5.72507 0
M  V30 2670 C 238.127 -3.02541 -5.95 0
M  V30 2671 H 237.397 0.0559644 -0.738884 0
M  V30 2672 H 240.044 -0.562998 -1.83037 0
M  V30 2673 H 238.349 1.23469 -3.71837 0
M  V30 2674 H 240.046 0.893083 -3.90928 0
M  V30 2675 H 236.636 -0.497775 -4.257 0
M  V30 2676 H 240.82 -1.32571 -4.78266 0
M  V30 2677 H 236.076 -2.48971 -5.58411 0
M  V30 2678 H 240.25 -3.31671 -6.12346 0
M  V30 2679 H 237.877 -3.90457 -6.52264 0
M  V30 2680 N 239.452 1.56882 -0.150215 0
M  V30 2681 C 240.382 2.19935 0.784284 0
M  V30 2682 C 241.363 1.14854 1.25469 0
M  V30 2683 O 242.548 1.43209 1.31168 0
M  V30 2684 C 239.678 2.82349 2.02229 0
M  V30 2685 C 238.632 3.93285 1.68853 0
M  V30 2686 C 237.958 4.42649 2.99944 0
M  V30 2687 C 239.258 5.13904 0.932714 0
M  V30 2688 H 240.952 2.9828 0.258781 0
M  V30 2689 H 238.498 1.43473 0.123029 0
M  V30 2690 H 240.451 3.25126 2.68088 0
M  V30 2691 H 239.175 2.0134 2.57157 0
M  V30 2692 H 237.834 3.5113 1.05371 0
M  V30 2693 H 237.482 3.58458 3.52869 0
M  V30 2694 H 237.182 5.17476 2.78374 0
M  V30 2695 H 238.706 4.88099 3.66868 0
M  V30 2696 H 240.12 5.53506 1.49345 0
M  V30 2697 H 238.517 5.94515 0.81684 0
M  V30 2698 H 239.587 4.84842 -0.0749568 0
M  V30 2699 N 240.93 -0.123565 1.57115 0
M  V30 2700 C 242.341 -0.681198 1.73829 0
M  V30 2701 C 242.692 -1.80535 0.768214 0
M  V30 2702 O 241.817 -2.16317 -0.0599103 0
M  V30 2703 C 242.412 -1.24246 3.15196 0
M  V30 2704 C 240.971 -1.74643 3.33432 0
M  V30 2705 C 240.118 -0.644284 2.69711 0
M  V30 2706 H 243.069 0.102315 1.5837 0
M  V30 2707 H 243.09 -2.11216 3.16493 0
M  V30 2708 H 242.602 -0.424062 3.85776 0
M  V30 2709 H 240.703 -2.58974 2.67886 0
M  V30 2710 H 240.816 -1.85902 4.41562 0
M  V30 2711 H 239.18 -1.07676 2.3082 0
M  V30 2712 H 239.963 0.163058 3.42913 0
M  V30 2713 N 242.408 -1.52605 -0.393616 0
M  V30 2714 C 243.633 -1.71592 -1.16495 0
M  V30 2715 C 244.058 -0.43133 -1.83088 0
M  V30 2716 O 243.416 0.612523 -1.7064 0
M  V30 2717 C 243.464 -2.86318 -2.19213 0
M  V30 2718 O 242.568 -2.52969 -3.257 0
M  V30 2719 H 241.909 -0.570734 -0.33935 0
M  V30 2720 H 244.439 -1.99377 -0.459324 0
M  V30 2721 H 244.449 -3.1168 -2.63286 0
M  V30 2722 H 243.124 -3.79511 -1.7013 0
M  V30 2723 H 241.701 -2.38332 -2.86797 0
M  V30 2724 N 243.887 0.651787 -1.4349 0
M  V30 2725 C 245.112 1.44434 -1.48841 0
M  V30 2726 C 245.537 1.8779 -0.107955 0
M  V30 2727 O 244.895 1.57464 0.898602 0
M  V30 2728 C 244.943 2.65458 -2.44059 0
M  V30 2729 O 244.047 3.64566 -1.92784 0
M  V30 2730 H 243.388 0.433005 -0.503391 0
M  V30 2731 H 245.918 0.797451 -1.88419 0
M  V30 2732 H 245.928 3.13255 -2.6141 0
M  V30 2733 H 244.603 2.33244 -3.4434 0
M  V30 2734 H 243.18 3.23716 -1.851 0
M  V30 2735 N 245.365 1.30045 0.890287 0
M  V30 2736 C 246.595 1.21296 1.67245 0
M  V30 2737 C 247.003 -0.227471 1.87828 0
M  V30 2738 O 246.346 -1.16296 1.422 0
M  V30 2739 C 246.408 1.86519 3.07329 0
M  V30 2740 C 246.072 3.35837 3.09939 0
M  V30 2741 C 247.069 4.31915 2.89389 0
M  V30 2742 C 244.754 3.77196 3.31706 0
M  V30 2743 C 246.748 5.67325 2.90552 0
M  V30 2744 C 244.435 5.12725 3.32499 0
M  V30 2745 C 245.433 6.076 3.11947 0
M  V30 2746 O 245.121 7.40655 3.12547 0
M  V30 2747 H 244.853 0.4211 0.528821 0
M  V30 2748 H 247.407 1.72111 1.12103 0
M  V30 2749 H 245.637 1.30228 3.64112 0
M  V30 2750 H 247.326 1.71963 3.67673 0
M  V30 2751 H 248.092 4.01294 2.72375 0
M  V30 2752 H 243.971 3.03796 3.4674 0
M  V30 2753 H 247.515 6.41354 2.74429 0
M  V30 2754 H 243.412 5.42988 3.49047 0
M  V30 2755 H 244.18 7.49577 3.28749 0
M  V30 2756 N 246.843 -1.10192 1.12674 0
M  V30 2757 C 248.259 -1.34235 0.863317 0
M  V30 2758 C 248.459 -1.95062 -0.505277 0
M  V30 2759 O 247.515 -2.19192 -1.25345 0
M  V30 2760 C 248.828 -2.2616 1.98172 0
M  V30 2761 C 250.376 -2.3969 2.0129 0
M  V30 2762 C 250.851 -3.34946 3.1237 0
M  V30 2763 N 252.342 -3.42515 3.11829 0
M  V30 2764 C 253.077 -4.16199 3.94419 0
M  V30 2765 N 252.573 -4.92747 4.87004 0
M  V30 2766 N 254.366 -4.11843 3.82547 0
M  V30 2767 H 246.517 -0.690798 2.00853 0
M  V30 2768 H 248.78 -0.366774 0.874174 0
M  V30 2769 H 248.486 -1.8868 2.96804 0
M  V30 2770 H 248.36 -3.26488 1.88906 0
M  V30 2771 H 250.747 -2.76438 1.03276 0
M  V30 2772 H 250.828 -1.39169 2.14629 0
M  V30 2773 H 250.472 -2.98923 4.10619 0
M  V30 2774 H 250.402 -4.35353 2.96269 0
M  V30 2775 H 252.893 -2.87926 2.44759 0
M  V30 2776 H 253.206 -5.46376 5.46528 0
M  V30 2777 H 251.551 -4.91862 4.91016 0
M  V30 2778 H 254.742 -3.51136 3.0955 0
M  V30 2779 H 254.915 -4.69007 4.47142 0
M  V30 2780 N 248.321 -0.919034 -1.28029 0
M  V30 2781 C 249.569 -0.553838 -1.94363 0
M  V30 2782 C 249.89 0.906357 -1.72656 0
M  V30 2783 O 249.16 1.64143 -1.0693 0
M  V30 2784 H 247.74 -0.201834 -0.719216 0
M  V30 2785 H 250.402 -1.16954 -1.55909 0
M  V30 2786 H 249.498 -0.752758 -3.02886 0
M  V30 2787 N 249.799 1.42003 -0.683588 0
M  V30 2788 C 250.746 2.30798 -0.0107309 0
M  V30 2789 C 251.716 1.4645 0.783688 0
M  V30 2790 O 252.901 1.75263 0.754156 0
M  V30 2791 C 250.041 3.3238 0.928306 0
M  V30 2792 C 249.154 4.31814 0.126776 0
M  V30 2793 C 248.289 5.20468 1.06236 0
M  V30 2794 C 247.328 6.11577 0.253035 0
M  V30 2795 N 246.465 6.92754 1.14179 0
M  V30 2796 H 251.305 2.8778 -0.773727 0
M  V30 2797 H 248.842 1.41745 -0.393283 0
M  V30 2798 H 250.8 3.89813 1.48666 0
M  V30 2799 H 249.43 2.76976 1.65783 0
M  V30 2800 H 248.482 3.76427 -0.54833 0
M  V30 2801 H 249.794 4.96276 -0.501192 0
M  V30 2802 H 248.948 5.82677 1.69035 0
M  V30 2803 H 247.687 4.56204 1.7242 0
M  V30 2804 H 246.692 5.48428 -0.388108 0
M  V30 2805 H 247.917 6.77892 -0.404839 0
M  V30 2806 H 245.863 6.3111 1.78987 0
M  V30 2807 H 245.78 7.53855 0.569111 0
M  V30 2808 H 247.048 7.59441 1.75697 0
M  V30 2809 N 251.277 0.427512 1.51691 0
M  V30 2810 C 252.554 -0.201684 1.94557 0
M  V30 2811 C 252.934 -1.60981 1.36559 0
M  V30 2812 O 252.282 -2.21814 0.548702 0
M  V30 2813 C 252.492 -0.189394 3.48486 0
M  V30 2814 C 253.84 -0.39978 4.22714 0
M  V30 2815 O 254.864 -0.267945 3.55191 0
M  V30 2816 O 253.723 -0.661249 5.42485 0
M  V30 2817 H 250.817 -0.135261 0.815864 0
M  V30 2818 H 253.363 0.484782 1.62628 0
M  V30 2819 H 252.135 0.795431 3.8313 0
M  V30 2820 H 251.758 -0.919187 3.86829 0
M  V30 2821 N 252.755 -1.56801 0.158532 0
M  V30 2822 C 253.685 -2.20347 -0.772609 0
M  V30 2823 C 254.666 -1.15518 -1.24859 0
M  V30 2824 O 255.851 -1.43902 -1.30406 0
M  V30 2825 C 252.981 -2.83417 -2.00729 0
M  V30 2826 C 251.935 -3.94174 -1.66765 0
M  V30 2827 C 251.261 -4.44233 -2.97592 0
M  V30 2828 C 252.561 -5.14392 -0.905447 0
M  V30 2829 H 254.255 -2.98413 -0.242959 0
M  V30 2830 H 251.801 -1.43537 -0.115419 0
M  V30 2831 H 253.754 -3.26543 -2.6636 0
M  V30 2832 H 252.478 -2.02701 -2.56086 0
M  V30 2833 H 251.137 -3.51684 -1.03508 0
M  V30 2834 H 250.785 -3.60325 -3.50963 0
M  V30 2835 H 250.485 -5.18945 -2.75626 0
M  V30 2836 H 252.009 -4.90037 -3.64274 0
M  V30 2837 H 253.423 -5.5429 -1.46408 0
M  V30 2838 H 251.82 -5.9494 -0.7853 0
M  V30 2839 H 252.89 -4.84795 0.100668 0
M  V30 2840 N 254.233 0.115231 -1.57178 0
M  V30 2841 C 255.165 1.16694 -1.97269 0
M  V30 2842 C 256.178 1.37445 -0.872502 0
M  V30 2843 O 257.367 1.36454 -1.15077 0
M  V30 2844 C 254.467 2.52627 -2.25905 0
M  V30 2845 C 253.64 2.52427 -3.57211 0
M  V30 2846 C 252.699 3.70134 -3.74016 0
M  V30 2847 O 251.725 3.53546 -4.46087 0
M  V30 2848 N 252.927 4.88844 -3.13068 0
M  V30 2849 H 255.692 0.82588 -2.88096 0
M  V30 2850 H 253.253 0.304461 -1.59011 0
M  V30 2851 H 255.245 3.29937 -2.34359 0
M  V30 2852 H 253.815 2.789 -1.41186 0
M  V30 2853 H 253.035 1.60805 -3.5991 0
M  V30 2854 H 254.323 2.49353 -4.43509 0
M  V30 2855 H 253.721 5.05225 -2.54489 0
M  V30 2856 H 252.278 5.63817 -3.27037 0
M  V30 2857 N 255.711 1.52812 0.385517 0
M  V30 2858 C 256.621 1.80766 1.49535 0
M  V30 2859 C 257.637 0.694651 1.59532 0
M  V30 2860 O 258.813 0.982611 1.75803 0
M  V30 2861 C 255.878 1.97381 2.85029 0
M  V30 2862 C 254.939 3.21295 2.84724 0
M  V30 2863 C 254.172 3.37108 4.13756 0
M  V30 2864 O 254.395 2.5765 5.08893 0
M  V30 2865 O 253.329 4.30378 4.20783 0
M  V30 2866 H 257.155 2.75015 1.28842 0
M  V30 2867 H 254.74 1.37946 0.573697 0
M  V30 2868 H 256.622 2.09996 3.65349 0
M  V30 2869 H 255.297 1.06322 3.05741 0
M  V30 2870 H 254.204 3.1412 2.03174 0
M  V30 2871 H 255.537 4.12212 2.68965 0
M  V30 2872 N 257.189 -0.644168 1.43834 0
M  V30 2873 C 258.137 -1.77793 1.49974 0
M  V30 2874 C 259.131 -1.65253 0.372536 0
M  V30 2875 O 260.337 -1.7149 0.546924 0
M  V30 2876 H 256.712 -0.58675 0.47035 0
M  V30 2877 H 258.683 -1.69736 2.45423 0
M  V30 2878 C 257.432 -3.16087 1.4486 0
M  V30 2879 H 256.755 -3.26378 2.30905 0
M  V30 2880 H 258.195 -3.95349 1.53217 0
M  V30 2881 C 256.654 -3.36484 0.167463 0
M  V30 2882 O 257.184 -3.94298 -0.767609 0
M  V30 2883 N 255.39 -2.90504 0.0747556 0
M  V30 2884 H 254.937 -2.4364 0.836507 0
M  V30 2885 H 254.895 -3.04527 -0.781714 0
M  V30 2886 N 258.668 -1.30515 -0.883378 0
M  V30 2887 C 259.898 -1.22182 -1.66599 0
M  V30 2888 C 260.306 0.217507 -1.87946 0
M  V30 2889 O 259.649 1.1554 -1.42815 0
M  V30 2890 C 259.711 -1.88146 -3.06335 0
M  V30 2891 C 259.375 -3.37476 -3.08154 0
M  V30 2892 C 260.372 -4.33443 -2.87094 0
M  V30 2893 C 258.057 -3.7895 -3.29701 0
M  V30 2894 C 260.051 -5.68858 -2.8754 0
M  V30 2895 C 257.738 -5.14482 -3.29776 0
M  V30 2896 C 258.736 -6.09246 -3.0872 0
M  V30 2897 O 258.424 -7.42302 -3.08615 0
M  V30 2898 H 258.156 -0.423898 -0.52658 0
M  V30 2899 H 260.71 -1.72703 -1.11188 0
M  V30 2900 H 258.94 -1.32157 -3.63416 0
M  V30 2901 H 260.629 -1.7391 -3.66756 0
M  V30 2902 H 261.395 -4.02733 -2.70243 0
M  V30 2903 H 257.274 -3.05631 -3.45124 0
M  V30 2904 H 260.818 -6.428 -2.71024 0
M  V30 2905 H 256.715 -5.44832 -3.46163 0
M  V30 2906 H 257.483 -7.5131 -3.24769 0
M  V30 2907 N 260.146 1.09593 -1.13257 0
M  V30 2908 C 261.386 1.83349 -0.903472 0
M  V30 2909 C 261.75 1.83641 0.560351 0
M  V30 2910 O 262.951 2.53037 0.906947 0
M  V30 2911 C 261.222 3.25629 -1.47311 0
M  V30 2912 S 262.781 4.16408 -1.38382 0
M  V30 2913 H 259.599 0.632014 -0.325699 0
M  V30 2914 H 262.201 1.31817 -1.44376 0
M  V30 2915 H 260.905 3.22991 -2.53189 0
M  V30 2916 H 260.436 3.82233 -0.930689 0
M  V30 2917 H 262.451 4.94884 -0.361113 0
M  V30 2918 N 261.624 0.925811 1.2754 0
M  V30 2919 C 263.04 0.625767 1.46821 0
M  V30 2920 C 263.24 -0.825506 1.83814 0
M  V30 2921 O 262.296 -1.60356 1.95044 0
M  V30 2922 C 263.609 1.57402 2.56213 0
M  V30 2923 C 265.157 1.58204 2.70075 0
M  V30 2924 C 265.632 2.51721 3.82623 0
M  V30 2925 N 267.123 2.49917 3.89994 0
M  V30 2926 C 267.858 3.18968 4.76494 0
M  V30 2927 N 267.354 3.97391 5.67496 0
M  V30 2928 N 269.147 3.07996 4.70208 0
M  V30 2929 H 261.298 1.86409 1.01811 0
M  V30 2930 H 263.561 0.800213 0.508295 0
M  V30 2931 H 263.267 2.60925 2.35819 0
M  V30 2932 H 263.141 1.31428 3.53563 0
M  V30 2933 H 265.528 0.554124 2.89851 0
M  V30 2934 H 265.609 1.88226 1.73218 0
M  V30 2935 H 265.253 3.54622 3.63601 0
M  V30 2936 H 265.183 2.18996 4.78903 0
M  V30 2937 H 267.674 1.9296 3.24923 0
M  V30 2938 H 267.987 4.4707 6.30356 0
M  V30 2939 H 266.332 4.01495 5.67298 0
M  V30 2940 H 269.523 2.46223 3.9811 0
M  V30 2941 H 269.696 3.6208 5.37403 0
M  V30 2942 N 263.102 -1.41638 0.69111 0
M  V30 2943 C 264.05 -2.32597 0.0115199 0
M  V30 2944 C 265.044 -1.5072 -0.773296 0
M  V30 2945 O 266.25 -1.66685 -0.67942 0
M  V30 2946 H 262.625 -0.751849 -0.0150746 0
M  V30 2947 H 264.596 -2.87593 0.795791 0
M  V30 2948 C 263.345 -3.35467 -0.914172 0
M  V30 2949 H 262.668 -3.9852 -0.319687 0
M  V30 2950 H 264.108 -4.01662 -1.35808 0
M  V30 2951 C 262.567 -2.69004 -2.02826 0
M  V30 2952 O 263.097 -2.53444 -3.11655 0
M  V30 2953 N 261.303 -2.2777 -1.80469 0
M  V30 2954 H 260.85 -2.40626 -0.919615 0
M  V30 2955 H 260.808 -1.83635 -2.55197 0
M  V30 2956 N 264.58 -0.43555 -1.51462 0
M  V30 2957 C 265.991 0.0279871 -1.86679 0
M  V30 2958 C 266.342 1.42104 -1.35281 0
M  V30 2959 O 265.467 2.04667 -0.702878 0
M  V30 2960 C 266.062 0.0575626 -3.38751 0
M  V30 2961 C 264.621 0.465507 -3.7351 0
M  V30 2962 C 263.768 -0.342996 -2.75171 0
M  V30 2963 H 266.719 -0.651473 -1.44712 0
M  V30 2964 H 266.74 0.867421 -3.70481 0
M  V30 2965 H 266.252 -0.956448 -3.7613 0
M  V30 2966 H 264.353 1.48519 -3.41721 0
M  V30 2967 H 264.466 0.191546 -4.78717 0
M  V30 2968 H 262.83 0.198442 -2.53926 0
M  V30 2969 H 263.613 -1.35585 -3.15391 0
M  V30 2970 N 266.058 1.56714 -0.166846 0
M  V30 2971 C 267.474 1.58473 0.189372 0
M  V30 2972 C 267.674 1.18201 1.63189 0
M  V30 2973 O 266.73 0.891528 2.36237 0
M  V30 2974 C 268.043 3.00573 -0.0873872 0
M  V30 2975 C 269.591 3.1299 -0.0252443 0
M  V30 2976 C 270.066 4.57174 -0.274934 0
M  V30 2977 N 271.557 4.62665 -0.222553 0
M  V30 2978 C 272.292 5.72072 -0.389985 0
M  V30 2979 N 271.788 6.90054 -0.616229 0
M  V30 2980 N 273.581 5.61153 -0.326202 0
M  V30 2981 H 265.732 1.8118 -1.10849 0
M  V30 2982 H 267.995 0.839525 -0.440342 0
M  V30 2983 H 267.701 3.34497 -1.0865 0
M  V30 2984 H 267.575 3.72019 0.623037 0
M  V30 2985 H 269.962 2.78895 0.96444 0
M  V30 2986 H 270.043 2.43989 -0.768309 0
M  V30 2987 H 269.687 4.91976 -1.26181 0
M  V30 2988 H 269.617 5.24328 0.48869 0
M  V30 2989 H 272.108 3.77863 -0.0531512 0
M  V30 2990 H 272.421 7.69311 -0.733559 0
M  V30 2991 H 270.766 6.91927 -0.652791 0
M  V30 2992 H 273.957 4.67859 -0.150072 0
M  V30 2993 H 274.13 6.46364 -0.460116 0
M  V30 2994 N 267.536 -0.106894 1.57237 0
M  V30 2995 C 268.784 -0.810921 1.85117 0
M  V30 2996 C 269.105 -1.7984 0.753827 0
M  V30 2997 O 268.375 -1.94649 -0.221056 0
M  V30 2998 H 266.955 -0.302466 0.683025 0
M  V30 2999 H 269.617 -0.0913324 1.94686 0
M  V30 3000 H 268.713 -1.34875 2.81452 0
M  V30 3001 N 269.014 -1.53014 -0.377408 0
M  V30 3002 C 269.924 -1.81557 -1.48574 0
M  V30 3003 C 270.94 -0.703102 -1.59162 0
M  V30 3004 O 272.116 -0.99192 -1.75279 0
M  V30 3005 C 269.181 -1.9889 -2.83978 0
M  V30 3006 C 268.242 -3.22801 -2.83016 0
M  V30 3007 C 267.475 -3.39298 -4.11962 0
M  V30 3008 O 267.698 -2.60345 -5.0752 0
M  V30 3009 O 266.632 -4.32604 -4.18494 0
M  V30 3010 H 270.458 -2.75695 -1.27382 0
M  V30 3011 H 268.043 -1.38248 -0.566373 0
M  V30 3012 H 269.925 -2.11931 -3.6423 0
M  V30 3013 H 268.6 -1.07942 -3.05172 0
M  V30 3014 H 267.507 -3.15193 -2.01505 0
M  V30 3015 H 268.84 -4.13632 -2.66775 0
M  V30 3016 N 270.492 0.636531 -1.44174 0
M  V30 3017 C 271.402 1.77754 -1.53103 0
M  V30 3018 C 272.418 1.68928 -0.417034 0
M  V30 3019 O 273.594 1.89801 -0.6736 0
M  V30 3020 C 270.659 3.14115 -1.46741 0
M  V30 3021 C 269.72 3.34612 -2.68948 0
M  V30 3022 C 268.953 4.64467 -2.6288 0
M  V30 3023 O 269.176 5.44919 -1.68581 0
M  V30 3024 O 268.11 4.87049 -3.53648 0
M  V30 3025 H 271.936 1.73174 -2.49489 0
M  V30 3026 H 269.521 0.79709 -1.2636 0
M  V30 3027 H 271.403 3.95412 -1.45696 0
M  V30 3028 H 270.078 3.19249 -0.534975 0
M  V30 3029 H 268.985 2.53014 -2.75562 0
M  V30 3030 H 270.318 3.34336 -3.61221 0
M  V30 3031 N 271.97 1.30982 0.876444 0
M  V30 3032 C 273.218 1.20058 1.62575 0
M  V30 3033 C 273.539 -0.242947 1.93481 0
M  V30 3034 O 272.809 -1.1619 1.57724 0
M  V30 3035 H 271.389 0.44135 0.602677 0
M  V30 3036 H 274.051 1.64222 1.04962 0
M  V30 3037 H 273.147 1.76762 2.57219 0
M  V30 3038 N 273.449 -1.08991 1.13837 0
M  V30 3039 C 274.697 -1.80899 0.901098 0
M  V30 3040 C 275.018 -1.86356 -0.574134 0
M  V30 3041 O 274.288 -1.35235 -1.41733 0
M  V30 3042 H 272.868 -0.669966 0.330386 0
M  V30 3043 H 275.53 -1.318 1.43578 0
M  V30 3044 H 274.626 -2.83929 1.29578 0
M  V30 3045 N 274.927 -0.932562 -1.27047 0
M  V30 3046 C 276.338 -0.619451 -1.76124 0
M  V30 3047 C 276.689 0.865397 -1.76083 0
M  V30 3048 O 275.814 1.67722 -1.36742 0
M  V30 3049 C 276.409 -1.11771 -3.19832 0
M  V30 3050 C 274.968 -0.855174 -3.66557 0
M  V30 3051 C 274.115 -1.27362 -2.46321 0
M  V30 3052 H 277.066 -1.11181 -1.13245 0
M  V30 3053 H 277.087 -0.46759 -3.77616 0
M  V30 3054 H 276.599 -2.19842 -3.1983 0
M  V30 3055 H 274.7 0.211524 -3.71999 0
M  V30 3056 H 274.813 -1.47613 -4.55793 0
M  V30 3057 H 273.177 -0.692119 -2.45116 0
M  V30 3058 H 273.96 -2.36307 -2.49025 0
M  V30 3059 N 276.405 1.4127 -0.698611 0
M  V30 3060 C 277.651 2.01979 -0.239972 0
M  V30 3061 C 278.006 1.54353 1.14861 0
M  V30 3062 O 277.299 0.746218 1.76471 0
M  V30 3063 C 277.493 3.56592 -0.240192 0
M  V30 3064 C 277.322 4.19226 -1.62726 0
M  V30 3065 C 276.092 4.53389 -2.23084 0
M  V30 3066 C 278.29 4.45228 -2.57443 0
M  V30 3067 N 276.272 5.01327 -3.54323 0
M  V30 3068 C 277.643 4.94973 -3.73365 0
M  V30 3069 C 279.698 4.27243 -2.55671 0
M  V30 3070 C 278.401 5.28624 -4.878 0
M  V30 3071 C 280.427 4.61985 -3.69221 0
M  V30 3072 C 279.789 5.11904 -4.83873 0
M  V30 3073 H 275.888 0.770561 -0.133269 0
M  V30 3074 H 278.472 1.71767 -0.916748 0
M  V30 3075 H 276.643 3.86271 0.406082 0
M  V30 3076 H 278.375 4.04025 0.23356 0
M  V30 3077 H 275.13 4.39946 -1.75341 0
M  V30 3078 H 275.554 5.29697 -4.21604 0
M  V30 3079 H 280.196 3.87884 -1.68243 0
M  V30 3080 H 277.914 5.66905 -5.75885 0
M  V30 3081 H 281.5 4.49725 -3.69105 0
M  V30 3082 H 280.38 5.38282 -5.70282 0
M  V30 3083 N 277.883 0.443576 1.51229 0
M  V30 3084 C 279.123 -0.119889 2.04048 0
M  V30 3085 C 279.487 -1.39418 1.32009 0
M  V30 3086 O 280.688 -2.03829 1.75235 0
M  V30 3087 C 278.959 -0.327233 3.55899 0
M  V30 3088 S 280.518 -0.853208 4.30425 0
M  V30 3089 H 277.336 -0.028921 0.710412 0
M  V30 3090 H 279.938 0.604413 1.85922 0
M  V30 3091 H 278.642 0.606445 4.05895 0
M  V30 3092 H 278.173 -1.07844 3.7833 0
M  V30 3093 H 280.188 -2.13005 4.48155 0
M  V30 3094 N 279.361 -1.56624 0.175154 0
M  V30 3095 C 280.608 -1.96999 -0.468811 0
M  V30 3096 C 280.936 -1.06129 -1.62994 0
M  V30 3097 O 280.191 -0.0961771 -1.95464 0
M  V30 3098 C 280.49 -3.43419 -0.989864 0
M  V30 3099 C 280.156 -4.50866 0.0557687 0
M  V30 3100 C 278.818 -4.79975 0.343134 0
M  V30 3101 C 281.17 -5.15551 0.765308 0
M  V30 3102 C 278.498 -5.71066 1.34536 0
M  V30 3103 C 280.85 -6.07724 1.75654 0
M  V30 3104 C 279.514 -6.35199 2.05132 0
M  V30 3105 H 278.784 -0.720869 -0.17155 0
M  V30 3106 H 281.431 -1.89616 0.267924 0
M  V30 3107 H 279.736 -3.47772 -1.80449 0
M  V30 3108 H 281.433 -3.72002 -1.49719 0
M  V30 3109 H 278.023 -4.28229 -0.178381 0
M  V30 3110 H 282.207 -4.9317 0.556513 0
M  V30 3111 H 277.463 -5.90635 1.57988 0
M  V30 3112 H 281.637 -6.56912 2.31169 0
M  V30 3113 H 279.264 -7.05584 2.8294 0
M  V30 3114 N 280.839 0.0985539 -1.57292 0
M  V30 3115 C 282.067 0.816318 -1.90115 0
M  V30 3116 C 282.482 1.72451 -0.768509 0
M  V30 3117 O 281.839 1.80643 0.259687 0
M  V30 3118 C 281.89 1.63259 -3.22535 0
M  V30 3119 O 281.611 0.760934 -4.31441 0
M  V30 3120 C 283.112 2.45372 -3.69199 0
M  V30 3121 H 280.332 0.233595 -0.629027 0
M  V30 3122 H 282.876 0.0768229 -2.04356 0
M  V30 3123 H 281.031 2.32463 -3.09903 0
M  V30 3124 H 281.445 1.32595 -5.07463 0
M  V30 3125 H 282.919 2.98144 -4.64558 0
M  V30 3126 H 283.396 3.23677 -2.96867 0
M  V30 3127 H 284.002 1.81373 -3.84687 0
M  V30 3128 N 282.317 1.53212 0.369288 0
M  V30 3129 C 283.542 1.73423 1.1375 0
M  V30 3130 C 283.967 0.460404 1.82378 0
M  V30 3131 O 283.325 -0.585298 1.71592 0
M  V30 3132 C 283.373 2.89769 2.1463 0
M  V30 3133 O 282.477 2.58119 3.21634 0
M  V30 3134 H 281.818 0.576061 0.330227 0
M  V30 3135 H 284.348 2.00083 0.427547 0
M  V30 3136 H 284.358 3.15829 2.58294 0
M  V30 3137 H 283.033 3.8217 1.64071 0
M  V30 3138 H 281.61 2.42864 2.82969 0
M  V30 3139 N 283.795 -0.628877 1.44509 0
M  V30 3140 C 284.743 -1.76193 1.51852 0
M  V30 3141 C 285.737 -1.64849 0.390042 0
M  V30 3142 O 286.943 -1.709 0.565082 0
M  V30 3143 H 283.318 -0.581728 0.476547 0
M  V30 3144 H 285.289 -1.67123 2.47209 0
M  V30 3145 C 284.038 -3.14533 1.48204 0
M  V30 3146 H 283.361 -3.23911 2.34354 0
M  V30 3147 H 284.801 -3.93701 1.57402 0
M  V30 3148 C 283.26 -3.36287 0.203142 0
M  V30 3149 O 283.79 -3.9509 -0.725745 0
M  V30 3150 N 281.996 -2.90408 0.105563 0
M  V30 3151 H 281.543 -2.42739 0.862301 0
M  V30 3152 H 281.501 -3.05339 -0.749371 0
M  V30 3153 N 285.273 -1.31445 -0.869486 0
M  V30 3154 C 286.684 -1.19042 -1.43826 0
M  V30 3155 C 287.035 0.202919 -1.95148 0
M  V30 3156 O 286.16 1.10071 -1.86315 0
M  V30 3157 C 286.755 -2.15499 -2.6143 0
M  V30 3158 C 285.314 -2.07028 -3.14351 0
M  V30 3159 C 284.461 -2.04701 -1.87063 0
M  V30 3160 H 287.412 -1.43489 -0.677984 0
M  V30 3161 H 287.433 -1.74488 -3.38134 0
M  V30 3162 H 286.945 -3.16899 -2.24046 0
M  V30 3163 H 285.046 -1.08825 -3.56354 0
M  V30 3164 H 285.159 -2.96157 -3.766 0
M  V30 3165 H 283.523 -1.49724 -2.06046 0
M  V30 3166 H 284.306 -3.07857 -1.51917 0
M  V30 3167 N 286.751 1.08385 -1.14413 0
M  V30 3168 C 287.661 2.18856 -0.844951 0
M  V30 3169 C 288.677 1.73121 0.174668 0
M  V30 3170 O 289.853 2.014 0.00312857 0
M  V30 3171 C 286.918 3.45155 -0.32696 0
M  V30 3172 C 285.979 4.05513 -1.40916 0
M  V30 3173 C 285.212 5.25784 -0.915793 0
M  V30 3174 O 285.435 5.69884 0.242651 0
M  V30 3175 O 284.369 5.77545 -1.69487 0
M  V30 3176 H 288.195 2.46919 -1.76818 0
M  V30 3177 H 285.78 1.17524 -0.922411 0
M  V30 3178 H 287.662 4.21377 -0.0440211 0
M  V30 3179 H 286.337 3.18668 0.568539 0
M  V30 3180 H 285.244 3.30879 -1.74556 0
M  V30 3181 H 286.577 4.3625 -2.27919 0
M  V30 3182 N 288.23 0.939286 1.26551 0
M  V30 3183 C 289.476 0.586715 1.94128 0
M  V30 3184 C 289.809 -0.8717 1.73537 0
M  V30 3185 O 289.084 -1.62339 1.07127 0
M  V30 3186 C 289.367 0.927497 3.4795 0
M  V30 3187 C 289.22 2.44052 3.77834 0
M  V30 3188 C 290.539 0.441569 4.37879 0
M  V30 3189 H 287.658 0.21463 0.705055 0
M  V30 3190 H 290.3 1.17316 1.49455 0
M  V30 3191 H 288.45 0.428431 3.8613 0
M  V30 3192 H 290.122 3.01216 3.4938 0
M  V30 3193 H 288.365 2.8848 3.23978 0
M  V30 3194 H 289.036 2.62947 4.85348 0
M  V30 3195 H 291.512 0.869448 4.06915 0
M  V30 3196 H 290.388 0.708856 5.44304 0
M  V30 3197 H 290.649 -0.658467 4.37169 0
M  V30 3198 N 289.708 -1.40897 0.706093 0
M  V30 3199 C 291.124 -1.55042 0.37869 0
M  V30 3200 C 291.324 -1.67944 -1.11342 0
M  V30 3201 O 290.38 -1.66372 -1.89938 0
M  V30 3202 C 291.693 -2.78398 1.13643 0
M  V30 3203 C 293.241 -2.92206 1.12181 0
M  V30 3204 C 293.716 -4.18463 1.86152 0
M  V30 3205 N 295.207 -4.25443 1.83173 0
M  V30 3206 C 295.942 -5.2202 2.37239 0
M  V30 3207 N 295.438 -6.24563 2.99821 0
M  V30 3208 N 297.231 -5.14033 2.27435 0
M  V30 3209 H 289.382 -1.30769 1.67372 0
M  V30 3210 H 291.645 -0.631653 0.706907 0
M  V30 3211 H 291.351 -2.7511 2.19106 0
M  V30 3212 H 291.225 -3.70228 0.721853 0
M  V30 3213 H 293.612 -2.95004 0.0754171 0
M  V30 3214 H 293.693 -2.01521 1.57554 0
M  V30 3215 H 293.337 -4.16427 2.90776 0
M  V30 3216 H 293.267 -5.08141 1.38206 0
M  V30 3217 H 295.758 -3.51976 1.37556 0
M  V30 3218 H 296.071 -6.94665 3.38616 0
M  V30 3219 H 294.416 -6.25035 3.03902 0
M  V30 3220 H 297.607 -4.3285 1.78208 0
M  V30 3221 H 297.78 -5.89129 2.69873 0
M  V30 3222 N 291.186 -0.45159 -1.50991 0
M  V30 3223 C 292.416 0.108177 -2.06317 0
M  V30 3224 C 292.824 1.35774 -1.31765 0
M  V30 3225 O 292.167 1.79838 -0.374694 0
M  V30 3226 C 292.229 0.481659 -3.56259 0
M  V30 3227 C 291.893 -0.663114 -4.52163 0
M  V30 3228 C 292.89 -1.53947 -4.96585 0
M  V30 3229 C 290.575 -0.8479 -4.95092 0
M  V30 3230 C 292.569 -2.58518 -5.82621 0
M  V30 3231 C 290.256 -1.89686 -5.80915 0
M  V30 3232 C 291.254 -2.76388 -6.24579 0
M  V30 3233 O 290.942 -3.79482 -7.08695 0
M  V30 3234 H 290.674 0.00499183 -0.675982 0
M  V30 3235 H 293.228 -0.633659 -1.95381 0
M  V30 3236 H 291.458 1.27641 -3.65027 0
M  V30 3237 H 293.147 0.974233 -3.94035 0
M  V30 3238 H 293.913 -1.4083 -4.64103 0
M  V30 3239 H 289.792 -0.18258 -4.60638 0
M  V30 3240 H 293.336 -3.26224 -6.16623 0
M  V30 3241 H 289.233 -2.02817 -6.12809 0
M  V30 3242 H 290.001 -3.76234 -7.26905 0
M  V30 3243 N 292.664 1.56529 -0.183458 0
M  V30 3244 C 293.574 2.22144 0.754272 0
M  V30 3245 C 294.59 1.21684 1.24374 0
M  V30 3246 O 295.766 1.54385 1.29333 0
M  V30 3247 C 292.831 2.85884 1.96141 0
M  V30 3248 C 291.892 4.01579 1.51765 0
M  V30 3249 C 291.125 4.6227 2.66725 0
M  V30 3250 O 291.348 4.21865 3.83909 0
M  V30 3251 O 290.282 5.51936 2.40104 0
M  V30 3252 H 294.108 3.02861 0.225527 0
M  V30 3253 H 291.693 1.49331 0.0453032 0
M  V30 3254 H 293.575 3.26253 2.66715 0
M  V30 3255 H 292.25 2.08154 2.47899 0
M  V30 3256 H 291.157 3.65856 0.781049 0
M  V30 3257 H 292.49 4.80938 1.04686 0
M  V30 3258 N 294.142 -0.090211 1.57342 0
M  V30 3259 C 295.388 -0.793982 1.86611 0
M  V30 3260 C 295.721 -1.78142 0.773252 0
M  V30 3261 O 294.996 -1.93271 -0.218304 0
M  V30 3262 C 295.279 -1.51839 3.26523 0
M  V30 3263 C 295.132 -0.548609 4.46442 0
M  V30 3264 C 296.451 -2.46779 3.64401 0
M  V30 3265 H 293.57 -0.287186 0.678744 0
M  V30 3266 H 296.212 -0.0575076 1.89913 0
M  V30 3267 H 294.362 -2.14617 3.23839 0
M  V30 3268 H 296.034 0.0725513 4.61243 0
M  V30 3269 H 294.277 0.137614 4.33582 0
M  V30 3270 H 294.948 -1.09271 5.41076 0
M  V30 3271 H 297.424 -1.94089 3.68061 0
M  V30 3272 H 296.3 -2.94479 4.63221 0
M  V30 3273 H 296.561 -3.30758 2.93346 0
M  V30 3274 N 295.62 -1.53406 -0.361157 0
M  V30 3275 C 296.86 -1.71507 -1.11197 0
M  V30 3276 C 297.224 -0.459337 -1.86425 0
M  V30 3277 O 298.425 -0.517102 -2.63779 0
M  V30 3278 C 296.696 -2.93307 -2.0422 0
M  V30 3279 S 298.255 -3.32135 -2.86761 0
M  V30 3280 H 295.073 -0.603448 -0.375995 0
M  V30 3281 H 297.675 -1.91516 -0.392642 0
M  V30 3282 H 296.379 -3.82891 -1.47724 0
M  V30 3283 H 295.91 -2.75712 -2.80618 0
M  V30 3284 H 297.925 -2.84493 -4.06544 0
M  V30 3285 N 297.098 0.621204 -1.44841 0
M  V30 3286 C 298.375 1.38 -1.38619 0
M  V30 3287 C 298.755 2.11041 -0.0498935 0
M  V30 3288 O 298.103 2.06992 0.967816 0
M  V30 3289 C 298.313 2.33817 -2.59096 0
M  V30 3290 C 299.661 2.96844 -3.03593 0
M  V30 3291 O 300.685 2.44141 -2.59371 0
M  V30 3292 O 299.544 3.92476 -3.80296 0
M  V30 3293 H 296.638 0.61811 -0.549426 0
M  V30 3294 H 299.184 0.645429 -1.56947 0
M  V30 3295 H 297.956 1.79012 -3.47952 0
M  V30 3296 H 297.579 3.14676 -2.43032 0
M  V30 3297 N 298.576 1.31904 0.862503 0
M  V30 3298 C 299.825 1.21373 1.61094 0
M  V30 3299 C 300.138 -0.22504 1.94301 0
M  V30 3300 O 301.344 -0.452121 2.67709 0
M  V30 3301 C 299.8 2.12525 2.9045 0
M  V30 3302 C 299.408 3.61441 2.64697 0
M  V30 3303 C 301.152 2.10813 3.68454 0
M  V30 3304 C 299.059 4.44578 3.90006 0
M  V30 3305 H 297.989 0.450705 0.604468 0
M  V30 3306 H 300.64 1.56811 0.953027 0
M  V30 3307 H 299.022 1.69994 3.57656 0
M  V30 3308 H 300.196 4.12264 2.05851 0
M  V30 3309 H 298.511 3.65205 2.00036 0
M  V30 3310 H 301.108 2.70167 4.61426 0
M  V30 3311 H 301.451 1.09713 4.01583 0
M  V30 3312 H 301.984 2.51583 3.08141 0
M  V30 3313 H 298.723 5.46461 3.62023 0
M  V30 3314 H 298.243 3.98508 4.48276 0
M  V30 3315 H 299.922 4.57176 4.5782 0
M  V30 3316 N 300.054 -1.07777 1.14986 0
M  V30 3317 C 301.465 -1.61766 0.932127 0
M  V30 3318 C 301.816 -1.88974 -0.527581 0
M  V30 3319 O 300.941 -1.65198 -1.39781 0
M  V30 3320 C 301.536 -2.93891 1.68563 0
M  V30 3321 C 300.095 -3.44639 1.5133 0
M  V30 3322 C 299.242 -2.18767 1.704 0
M  V30 3323 H 302.193 -0.909201 1.30074 0
M  V30 3324 H 302.214 -3.62623 1.15259 0
M  V30 3325 H 301.726 -2.74057 2.74799 0
M  V30 3326 H 299.827 -3.69564 0.474702 0
M  V30 3327 H 299.94 -4.20966 2.28746 0
M  V30 3328 H 298.304 -2.28253 1.13016 0
M  V30 3329 H 299.087 -2.01433 2.77992 0
M  V30 3330 N 301.532 -0.945985 -1.26051 0
M  V30 3331 C 302.464 -0.416662 -2.25381 0
M  V30 3332 C 303.477 0.462712 -1.56086 0
M  V30 3333 O 304.666 0.272383 -1.7641 0
M  V30 3334 C 301.766 0.419812 -3.3629 0
M  V30 3335 C 300.939 -0.444531 -4.35135 0
M  V30 3336 C 299.998 0.332305 -5.2515 0
M  V30 3337 O 299.024 -0.266324 -5.68577 0
M  V30 3338 N 300.226 1.62763 -5.57215 0
M  V30 3339 H 302.991 -1.27059 -2.71433 0
M  V30 3340 H 300.552 -0.815392 -1.39868 0
M  V30 3341 H 302.544 0.947013 -3.93464 0
M  V30 3342 H 301.114 1.17456 -2.89694 0
M  V30 3343 H 300.334 -1.15291 -3.76964 0
M  V30 3344 H 301.622 -1.03478 -4.98166 0
M  V30 3345 H 301.02 2.13603 -5.23823 0
M  V30 3346 H 299.577 2.10097 -6.17011 0
M  V30 3347 N 303.011 1.40521 -0.713556 0
M  V30 3348 C 304.251 2.02783 -0.256584 0
M  V30 3349 C 304.615 1.55352 1.12827 0
M  V30 3350 O 305.816 2.09663 1.68211 0
M  V30 3351 C 304.087 3.5586 -0.331414 0
M  V30 3352 S 305.646 4.38773 0.0488703 0
M  V30 3353 H 302.464 0.703655 -0.101934 0
M  V30 3354 H 305.066 1.71674 -0.935325 0
M  V30 3355 H 303.77 3.87874 -1.34098 0
M  V30 3356 H 303.301 3.91695 0.365873 0
M  V30 3357 H 305.316 4.79633 1.2715 0
M  V30 3358 N 304.489 0.459591 1.5075 0
M  V30 3359 C 305.714 -0.0996819 2.0716 0
M  V30 3360 C 306.139 -1.33761 1.32249 0
M  V30 3361 O 305.497 -1.77551 0.366786 0
M  V30 3362 C 305.545 -0.378226 3.58611 0
M  V30 3363 O 304.649 -1.46081 3.85661 0
M  V30 3364 H 303.99 0.00791392 0.663953 0
M  V30 3365 H 306.52 0.647329 1.9409 0
M  V30 3366 H 306.53 -0.622135 4.03229 0
M  V30 3367 H 305.205 0.526439 4.12555 0
M  V30 3368 H 303.782 -1.20511 3.5289 0
M  V30 3369 N 305.967 -1.56429 0.191757 0
M  V30 3370 C 306.877 -2.22541 -0.742481 0
M  V30 3371 C 307.893 -1.22342 -1.23727 0
M  V30 3372 O 309.069 -1.55069 -1.28513 0
M  V30 3373 C 306.134 -2.8692 -1.94623 0
M  V30 3374 C 305.195 -4.02378 -1.49633 0
M  V30 3375 C 304.428 -4.63678 -2.6427 0
M  V30 3376 O 304.651 -4.23895 -3.81666 0
M  V30 3377 O 303.585 -5.53202 -2.37174 0
M  V30 3378 H 307.411 -3.02977 -0.209462 0
M  V30 3379 H 304.996 -1.49353 -0.0373832 0
M  V30 3380 H 306.878 -3.27663 -2.64982 0
M  V30 3381 H 305.553 -2.09466 -2.46791 0
M  V30 3382 H 304.46 -3.66265 -0.761636 0
M  V30 3383 H 305.793 -4.81487 -1.02134 0
M  V30 3384 N 307.445 0.0818655 -1.57387 0
M  V30 3385 C 308.691 0.784074 -1.8703 0
M  V30 3386 C 309.024 1.77729 -0.782689 0
M  V30 3387 O 308.299 1.93384 0.208051 0
M  V30 3388 C 308.582 1.50105 -3.27323 0
M  V30 3389 C 308.435 0.524925 -4.46727 0
M  V30 3390 C 309.754 2.44843 -3.65705 0
M  V30 3391 H 306.873 0.283582 -0.680257 0
M  V30 3392 H 309.515 0.0474352 -1.89941 0
M  V30 3393 H 307.665 2.12897 -3.24972 0
M  V30 3394 H 309.337 -0.0970111 -4.61198 0
M  V30 3395 H 307.58 -0.160606 -4.33503 0
M  V30 3396 H 308.251 1.064 -5.41648 0
M  V30 3397 H 310.727 1.92135 -3.69085 0
M  V30 3398 H 309.603 2.92018 -4.64776 0
M  V30 3399 H 309.864 3.29197 -2.95096 0
M  V30 3400 N 308.923 1.53595 0.353017 0
M  V30 3401 C 309.833 1.83897 1.45667 0
M  V30 3402 C 310.849 0.728334 1.58023 0
M  V30 3403 O 312.025 1.01968 1.73679 0
M  V30 3404 C 309.09 2.03383 2.80778 0
M  V30 3405 C 308.151 3.27262 2.77845 0
M  V30 3406 C 307.384 3.45809 4.06512 0
M  V30 3407 O 307.607 2.68387 5.03314 0
M  V30 3408 O 306.541 4.39207 4.11559 0
M  V30 3409 H 310.367 2.77686 1.2298 0
M  V30 3410 H 307.952 1.39132 0.544308 0
M  V30 3411 H 309.834 2.17698 3.60812 0
M  V30 3412 H 308.509 1.12783 3.03417 0
M  V30 3413 H 307.416 3.18359 1.96465 0
M  V30 3414 H 308.749 4.17824 2.60161 0
M  V30 3415 N 310.401 -0.613514 1.45168 0
M  V30 3416 C 311.641 -1.38405 1.5041 0
M  V30 3417 C 312.005 -1.91489 0.139922 0
M  V30 3418 O 313.206 -2.68716 0.067033 0
M  V30 3419 C 311.477 -2.50552 2.5487 0
M  V30 3420 S 313.036 -3.38439 2.79292 0
M  V30 3421 H 309.854 -0.471945 0.531779 0
M  V30 3422 H 312.456 -0.708518 1.82209 0
M  V30 3423 H 311.16 -2.09894 3.52665 0
M  V30 3424 H 310.691 -3.22913 2.24701 0
M  V30 3425 H 312.706 -4.48527 2.12222 0
M  V30 3426 N 311.879 -1.3236 -0.855495 0
M  V30 3427 C 312.812 -1.15559 -1.96777 0
M  V30 3428 C 313.79 -0.0552681 -1.62506 0
M  V30 3429 O 314.974 -0.214419 -1.87277 0
M  V30 3430 C 312.101 -0.768851 -3.29858 0
M  V30 3431 C 311.147 -1.87429 -3.83109 0
M  V30 3432 S 311.98 -3.48243 -4.06801 0
M  V30 3433 C 313.136 -3.11539 -5.42858 0
M  V30 3434 H 313.369 -2.09717 -2.10727 0
M  V30 3435 H 310.902 -1.17011 -1.00737 0
M  V30 3436 H 312.86 -0.55248 -4.06765 0
M  V30 3437 H 311.521 0.153857 -3.13723 0
M  V30 3438 H 310.714 -1.55667 -4.79358 0
M  V30 3439 H 310.316 -2.04647 -3.13042 0
M  V30 3440 H 312.608 -2.61331 -6.2507 0
M  V30 3441 H 313.551 -4.06806 -5.79582 0
M  V30 3442 H 313.959 -2.48582 -5.06821 0
M  V30 3443 N 313.357 1.07166 -1.15556 0
M  V30 3444 C 314.585 1.83514 -0.955519 0
M  V30 3445 C 315 1.82163 0.49621 0
M  V30 3446 O 314.357 1.23441 1.34419 0
M  V30 3447 C 314.408 3.30515 -1.46432 0
M  V30 3448 O 314.129 3.31937 -2.85918 0
M  V30 3449 C 315.63 4.23625 -1.30603 0
M  V30 3450 H 312.85 0.578926 -0.339244 0
M  V30 3451 H 315.394 1.35265 -1.53374 0
M  V30 3452 H 313.549 3.76106 -0.928584 0
M  V30 3453 H 313.963 4.23794 -3.09029 0
M  V30 3454 H 315.437 5.24831 -1.71047 0
M  V30 3455 H 315.914 4.38485 -0.250441 0
M  V30 3456 H 316.52 3.83871 -1.83094 0
M  V30 3457 N 314.835 0.952656 1.25548 0
M  V30 3458 C 316.075 0.614013 1.9496 0
M  V30 3459 C 316.439 -0.833215 1.72978 0
M  V30 3460 O 317.64 -1.28135 2.36294 0
M  V30 3461 C 315.911 0.960562 3.4425 0
M  V30 3462 S 317.47 0.734195 4.32614 0
M  V30 3463 H 314.288 0.225754 0.674208 0
M  V30 3464 H 316.89 1.22641 1.52248 0
M  V30 3465 H 315.594 2.01103 3.57751 0
M  V30 3466 H 315.125 0.338336 3.91942 0
M  V30 3467 H 317.14 -0.395995 4.94617 0
M  V30 3468 N 316.313 -1.40141 0.720998 0
M  V30 3469 C 317.261 -2.3252 0.0608547 0
M  V30 3470 C 318.255 -1.52326 -0.741152 0
M  V30 3471 O 319.461 -1.68089 -0.643911 0
M  V30 3472 H 315.836 -0.751999 0.000876664 0
M  V30 3473 H 317.807 -2.8584 0.856614 0
M  V30 3474 C 316.556 -3.37331 -0.842809 0
M  V30 3475 H 315.879 -3.99108 -0.235084 0
M  V30 3476 H 317.319 -4.04452 -1.27257 0
M  V30 3477 C 315.778 -2.73246 -1.97074 0
M  V30 3478 O 316.308 -2.59998 -3.06209 0
M  V30 3479 N 314.514 -2.31547 -1.75597 0
M  V30 3480 H 314.061 -2.42522 -0.868368 0
M  V30 3481 H 314.019 -1.89007 -2.51244 0
M  V30 3482 N 317.792 -0.46758 -1.50504 0
M  V30 3483 C 319.04 0.0884469 -2.01906 0
M  V30 3484 C 319.361 1.40532 -1.35188 0
M  V30 3485 O 318.631 1.89515 -0.496079 0
M  V30 3486 H 317.211 0.0356765 -0.746148 0
M  V30 3487 H 319.873 -0.6172 -1.84869 0
M  V30 3488 H 318.969 0.2425 -3.11156 0
M  V30 3489 N 319.27 1.56325 -0.20005 0
M  V30 3490 C 320.18 2.22931 0.730668 0
M  V30 3491 C 321.196 1.22997 1.23076 0
M  V30 3492 O 322.372 1.55748 1.27689 0
M  V30 3493 C 319.437 2.87948 1.93098 0
M  V30 3494 C 318.498 4.03166 1.47497 0
M  V30 3495 C 317.731 4.65073 2.61807 0
M  V30 3496 O 317.954 4.25913 3.79413 0
M  V30 3497 O 316.888 5.54452 2.34237 0
M  V30 3498 H 320.714 3.03084 0.193391 0
M  V30 3499 H 318.299 1.49371 0.0294621 0
M  V30 3500 H 320.181 3.29063 2.6324 0
M  V30 3501 H 318.856 2.10771 2.45677 0
M  V30 3502 H 317.763 3.66664 0.742201 0
M  V30 3503 H 319.096 4.82022 0.995796 0
M  V30 3504 N 320.748 -0.0735177 1.57428 0
M  V30 3505 C 321.973 -0.789787 1.91774 0
M  V30 3506 C 322.398 -1.70413 0.796306 0
M  V30 3507 O 321.756 -1.79555 -0.250961 0
M  V30 3508 C 321.804 -1.5609 3.25067 0
M  V30 3509 O 320.908 -2.67144 3.14178 0
M  V30 3510 H 320.249 -0.215582 0.628029 0
M  V30 3511 H 322.779 -0.0422781 2.04556 0
M  V30 3512 H 322.789 -1.94052 3.58898 0
M  V30 3513 H 321.464 -0.890015 4.06265 0
M  V30 3514 H 320.041 -2.32052 2.91901 0
M  V30 3515 N 322.226 -1.5378 -0.344866 0
M  V30 3516 C 323.456 -1.74646 -1.10374 0
M  V30 3517 C 323.864 -0.48491 -1.8288 0
M  V30 3518 O 323.207 0.553062 -1.75177 0
M  V30 3519 C 323.269 -2.87145 -2.16306 0
M  V30 3520 C 322.933 -4.26795 -1.63386 0
M  V30 3521 C 323.93 -5.08412 -1.08688 0
M  V30 3522 C 321.615 -4.73276 -1.68272 0
M  V30 3523 C 323.609 -6.34609 -0.595792 0
M  V30 3524 C 321.296 -5.99446 -1.18776 0
M  V30 3525 C 322.294 -6.79946 -0.645215 0
M  V30 3526 O 321.982 -8.03745 -0.157626 0
M  V30 3527 H 321.714 -0.587112 -0.335075 0
M  V30 3528 H 324.268 -2.01403 -0.403252 0
M  V30 3529 H 322.498 -2.55909 -2.89909 0
M  V30 3530 H 324.187 -2.95992 -2.77747 0
M  V30 3531 H 324.953 -4.73666 -1.04236 0
M  V30 3532 H 320.832 -4.10677 -2.09442 0
M  V30 3533 H 324.376 -6.97389 -0.171654 0
M  V30 3534 H 320.273 -6.33687 -1.22928 0
M  V30 3535 H 321.041 -8.18038 -0.275037 0
M  V30 3536 N 323.704 0.605807 -1.45491 0
M  V30 3537 C 325.12 0.926751 -1.29936 0
M  V30 3538 C 325.32 1.99896 -0.253706 0
M  V30 3539 O 324.376 2.50038 0.351737 0
M  V30 3540 C 325.689 1.36599 -2.67883 0
M  V30 3541 C 327.237 1.4801 -2.75793 0
M  V30 3542 C 327.712 1.95309 -4.14268 0
M  V30 3543 N 329.203 2.0254 -4.16571 0
M  V30 3544 C 329.938 2.40363 -5.20589 0
M  V30 3545 N 329.434 2.77143 -6.34952 0
M  V30 3546 N 331.227 2.40718 -5.07948 0
M  V30 3547 H 323.378 -0.102862 -2.12151 0
M  V30 3548 H 325.641 0.016639 -0.947854 0
M  V30 3549 H 325.347 0.652306 -3.45598 0
M  V30 3550 H 325.221 2.33215 -2.96463 0
M  V30 3551 H 327.608 2.1847 -1.98381 0
M  V30 3552 H 327.689 0.497041 -2.50925 0
M  V30 3553 H 327.333 1.25436 -4.92167 0
M  V30 3554 H 327.263 2.94532 -4.3653 0
M  V30 3555 H 329.754 1.76699 -3.34045 0
M  V30 3556 H 330.067 3.0489 -7.10114 0
M  V30 3557 H 328.412 2.74834 -6.3835 0
M  V30 3558 H 331.603 2.11392 -4.1765 0
M  V30 3559 H 331.776 2.69869 -5.89131 0
M  V30 3560 N 325.182 1.32811 0.848464 0
M  V30 3561 C 326.43 1.23479 1.59991 0
M  V30 3562 C 326.751 -0.201853 1.93952 0
M  V30 3563 O 326.021 -1.12818 1.60153 0
M  V30 3564 H 324.601 0.454034 0.593179 0
M  V30 3565 H 327.263 1.66412 1.01455 0
M  V30 3566 H 326.359 1.82178 2.53412 0
M  V30 3567 N 326.66 -1.06551 1.16123 0
M  V30 3568 C 327.59 -2.15935 0.88851 0
M  V30 3569 C 328.571 -1.69306 -0.164135 0
M  V30 3570 O 329.756 -1.94193 -0.0167857 0
M  V30 3571 C 326.886 -3.45149 0.385942 0
M  V30 3572 C 325.84 -4.05271 1.3762 0
M  V30 3573 C 325.166 -5.29664 0.732137 0
M  V30 3574 C 326.466 -4.44355 2.74493 0
M  V30 3575 H 328.16 -2.39006 1.80323 0
M  V30 3576 H 325.706 -1.14866 0.868435 0
M  V30 3577 H 327.659 -4.21004 0.182647 0
M  V30 3578 H 326.383 -3.21689 -0.564274 0
M  V30 3579 H 325.042 -3.3147 1.56599 0
M  V30 3580 H 324.69 -5.02499 -0.224483 0
M  V30 3581 H 324.39 -5.70848 1.39307 0
M  V30 3582 H 325.914 -6.08218 0.538802 0
M  V30 3583 H 327.328 -5.11303 2.59311 0
M  V30 3584 H 325.725 -4.96515 3.37035 0
M  V30 3585 H 326.795 -3.55339 3.29943 0
M  V30 3586 N 328.138 -0.959301 -1.25041 0
M  V30 3587 C 329.071 -0.427418 -2.24161 0
M  V30 3588 C 330.049 0.493837 -1.54919 0
M  V30 3589 O 331.233 0.427144 -1.83597 0
M  V30 3590 C 328.36 0.383893 -3.36517 0
M  V30 3591 C 327.406 -0.478431 -4.23808 0
M  V30 3592 S 328.239 -1.91353 -5.00144 0
M  V30 3593 C 329.395 -1.11077 -6.15965 0
M  V30 3594 H 329.628 -1.26743 -2.6893 0
M  V30 3595 H 327.161 -0.763714 -1.34189 0
M  V30 3596 H 329.119 0.846039 -4.01687 0
M  V30 3597 H 327.78 1.19878 -2.90324 0
M  V30 3598 H 326.973 0.14406 -5.03794 0
M  V30 3599 H 326.575 -0.87597 -3.63597 0
M  V30 3600 H 328.867 -0.361699 -6.76534 0
M  V30 3601 H 329.81 -1.88472 -6.82557 0
M  V30 3602 H 330.218 -0.638843 -5.60873 0
M  V30 3603 N 329.616 1.39756 -0.72842 0
M  V30 3604 C 330.893 1.94574 -0.200079 0
M  V30 3605 C 331.273 1.66569 1.29684 0
M  V30 3606 O 330.621 0.990326 2.05924 0
M  V30 3607 C 330.831 3.45004 -0.526608 0
M  V30 3608 C 332.179 4.21965 -0.472318 0
M  V30 3609 O 333.203 3.53173 -0.463413 0
M  V30 3610 O 332.062 5.44552 -0.461075 0
M  V30 3611 H 329.156 0.826289 -0.0342851 0
M  V30 3612 H 331.702 1.49293 -0.806829 0
M  V30 3613 H 330.474 3.58796 -1.56144 0
M  V30 3614 H 330.097 3.97449 0.109449 0
M  V30 3615 N 331.094 0.475555 1.50254 0
M  V30 3616 C 332.044 -0.335025 2.25525 0
M  V30 3617 C 333.028 -0.957625 1.29299 0
M  V30 3618 O 334.22 -0.869436 1.54175 0
M  V30 3619 C 331.349 -1.41385 3.12834 0
M  V30 3620 C 330.435 -0.798762 4.1651 0
M  V30 3621 N 330.826 0.0835815 5.05731 0
M  V30 3622 C 329.124 -1.06221 4.33166 0
M  V30 3623 C 329.825 0.433113 5.80085 0
M  V30 3624 N 328.801 -0.1928 5.43258 0
M  V30 3625 H 332.603 0.344612 2.91873 0
M  V30 3626 H 330.117 0.289986 1.5979 0
M  V30 3627 H 332.114 -2.00777 3.65368 0
M  V30 3628 H 330.774 -2.09543 2.48036 0
M  V30 3629 H 331.785 0.452715 5.15918 0
M  V30 3630 H 328.462 -1.73844 3.79585 0
M  V30 3631 H 329.852 1.15346 6.61925 0
M  V30 3632 N 332.573 -1.56217 0.208337 0
M  V30 3633 C 333.801 -2.02337 -0.43215 0
M  V30 3634 C 334.216 -1.08834 -1.54275 0
M  V30 3635 O 333.573 -0.0955462 -1.8225 0
M  V30 3636 C 333.624 -3.48072 -0.976138 0
M  V30 3637 O 333.345 -4.38007 0.0901621 0
M  V30 3638 C 334.846 -4.09773 -1.69119 0
M  V30 3639 H 332.066 -0.662385 -0.10718 0
M  V30 3640 H 334.61 -2.01966 0.320923 0
M  V30 3641 H 332.765 -3.49099 -1.67954 0
M  V30 3642 H 333.179 -5.23543 -0.316701 0
M  V30 3643 H 334.653 -5.13556 -2.02397 0
M  V30 3644 H 335.13 -3.53999 -2.59964 0
M  V30 3645 H 335.736 -4.12556 -1.03332 0
M  V30 3646 N 334.051 0.0651679 -1.57465 0
M  V30 3647 C 334.961 1.09448 -2.07505 0
M  V30 3648 C 335.977 1.41974 -1.00595 0
M  V30 3649 O 337.153 1.52018 -1.32107 0
M  V30 3650 C 334.218 2.38689 -2.51453 0
M  V30 3651 C 333.279 2.13073 -3.72691 0
M  V30 3652 C 332.512 3.36152 -4.14533 0
M  V30 3653 O 332.735 4.45517 -3.56189 0
M  V30 3654 O 331.669 3.23974 -5.07272 0
M  V30 3655 H 335.495 0.69935 -2.95538 0
M  V30 3656 H 333.08 0.279752 -1.46757 0
M  V30 3657 H 334.962 3.14736 -2.80212 0
M  V30 3658 H 333.637 2.77568 -1.66546 0
M  V30 3659 H 332.544 1.34709 -3.49005 0
M  V30 3660 H 333.877 1.79071 -4.5847 0
M  V30 3661 N 335.529 1.53961 0.336706 0
M  V30 3662 C 336.754 1.75797 1.10046 0
M  V30 3663 C 337.179 0.498985 1.81361 0
M  V30 3664 O 336.537 -0.548769 1.72795 0
M  V30 3665 C 336.585 2.94257 2.08436 0
M  V30 3666 O 335.689 2.64883 3.16087 0
M  V30 3667 H 335.03 0.582936 0.317934 0
M  V30 3668 H 337.56 2.00945 0.38501 0
M  V30 3669 H 337.57 3.21237 2.51537 0
M  V30 3670 H 336.245 3.85564 1.55927 0
M  V30 3671 H 334.822 2.48812 2.77753 0
M  V30 3672 N 337.007 -0.598083 1.45811 0
M  V30 3673 C 338.255 -1.35413 1.50026 0
M  V30 3674 C 338.576 -1.94444 0.147177 0
M  V30 3675 O 337.846 -1.77701 -0.824571 0
M  V30 3676 H 336.426 -0.502727 0.552517 0
M  V30 3677 H 339.088 -0.701606 1.81834 0
M  V30 3678 H 338.184 -2.16871 2.2444 0
M  V30 3679 N 338.485 -1.33259 -0.841409 0
M  V30 3680 C 339.432 -1.23302 -1.95103 0
M  V30 3681 C 340.402 -0.112204 -1.65721 0
M  V30 3682 O 341.587 -0.290038 -1.88583 0
M  V30 3683 C 338.727 -0.975583 -3.31023 0
M  V30 3684 C 337.84 -2.18243 -3.72819 0
M  V30 3685 C 336.975 -1.85936 -4.97595 0
M  V30 3686 C 336.014 -3.02866 -5.3192 0
M  V30 3687 N 335.151 -2.70565 -6.47873 0
M  V30 3688 H 339.991 -2.18207 -2.02952 0
M  V30 3689 H 337.528 -1.0851 -0.993173 0
M  V30 3690 H 339.486 -0.80677 -4.09325 0
M  V30 3691 H 338.116 -0.0632755 -3.22738 0
M  V30 3692 H 337.168 -2.46107 -2.90061 0
M  V30 3693 H 338.48 -3.05666 -3.94169 0
M  V30 3694 H 337.634 -1.65684 -5.83638 0
M  V30 3695 H 336.373 -0.957452 -4.78209 0
M  V30 3696 H 335.378 -3.23736 -4.44382 0
M  V30 3697 H 336.603 -3.93809 -5.53255 0
M  V30 3698 H 334.549 -1.8293 -6.29978 0
M  V30 3699 H 334.466 -3.51519 -6.69306 0
M  V30 3700 H 335.734 -2.53774 -7.37034 0
M  V30 3701 N 339.963 1.05934 -1.16686 0
M  V30 3702 C 341.212 1.78188 -0.945085 0
M  V30 3703 C 341.525 1.88338 0.528021 0
M  V30 3704 O 342.731 2.57258 0.867799 0
M  V30 3705 C 341.187 3.20277 -1.64167 0
M  V30 3706 C 340.795 3.18281 -3.15279 0
M  V30 3707 C 342.539 3.97039 -1.502 0
M  V30 3708 C 340.446 4.55112 -3.7766 0
M  V30 3709 H 339.376 0.667866 -0.349959 0
M  V30 3710 H 342.027 1.18794 -1.39858 0
M  V30 3711 H 340.409 3.79952 -1.11589 0
M  V30 3712 H 341.583 2.68167 -3.74731 0
M  V30 3713 H 339.898 2.55018 -3.29173 0
M  V30 3714 H 342.495 4.98194 -1.94183 0
M  V30 3715 H 342.838 4.13845 -0.451461 0
M  V30 3716 H 343.371 3.43894 -1.99954 0
M  V30 3717 H 340.11 4.43512 -4.82677 0
M  V30 3718 H 339.63 5.05406 -3.22994 0
M  V30 3719 H 341.309 5.24064 -3.79428 0
M  V30 3720 N 341.441 0.965919 1.2453 0
M  V30 3721 C 342.681 0.634656 1.94297 0
M  V30 3722 C 343.045 -0.814822 1.73852 0
M  V30 3723 O 344.246 -1.25622 2.3764 0
M  V30 3724 C 342.517 0.99702 3.43212 0
M  V30 3725 S 344.076 0.780038 4.31811 0
M  V30 3726 H 340.894 0.232893 0.671775 0
M  V30 3727 H 343.496 1.24249 1.50938 0
M  V30 3728 H 342.2 2.04886 3.55598 0
M  V30 3729 H 341.731 0.379888 3.91562 0
M  V30 3730 H 343.746 -0.343512 4.9501 0
M  V30 3731 N 342.919 -1.39368 0.735821 0
M  V30 3732 C 343.851 -2.2913 0.0567723 0
M  V30 3733 C 344.864 -1.46859 -0.702589 0
M  V30 3734 O 346.053 -1.69925 -0.546616 0
M  V30 3735 C 343.153 -3.25492 -0.943823 0
M  V30 3736 C 342.326 -4.36709 -0.24581 0
M  V30 3737 C 341.385 -5.13376 -1.15463 0
M  V30 3738 O 340.411 -5.65683 -0.631803 0
M  V30 3739 N 341.613 -5.24656 -2.48427 0
M  V30 3740 H 344.378 -2.88047 0.827582 0
M  V30 3741 H 341.939 -1.50957 0.585112 0
M  V30 3742 H 343.931 -3.73657 -1.55443 0
M  V30 3743 H 342.501 -2.676 -1.61583 0
M  V30 3744 H 341.721 -3.9041 0.545286 0
M  V30 3745 H 343.009 -5.08244 0.237891 0
M  V30 3746 H 342.407 -4.83679 -2.93379 0
M  V30 3747 H 340.964 -5.76258 -3.04582 0
M  V30 3748 N 344.397 -0.483516 -1.5 0
M  V30 3749 C 345.813 -0.138404 -1.58999 0
M  V30 3750 C 346.013 1.35597 -1.4905 0
M  V30 3751 O 345.069 2.13039 -1.35539 0
M  V30 3752 C 346.382 -0.699658 -2.92447 0
M  V30 3753 C 347.93 -0.664195 -3.05872 0
M  V30 3754 C 348.405 -1.20321 -4.41913 0
M  V30 3755 N 349.896 -1.16315 -4.48358 0
M  V30 3756 C 350.631 -1.55058 -5.52037 0
M  V30 3757 N 350.127 -2.01311 -6.62907 0
M  V30 3758 N 351.92 -1.46584 -5.42651 0
M  V30 3759 H 344.071 -1.45529 -1.5471 0
M  V30 3760 H 346.334 -0.60258 -0.731848 0
M  V30 3761 H 346.04 -1.747 -3.05242 0
M  V30 3762 H 345.914 -0.150194 -3.76901 0
M  V30 3763 H 348.301 0.374272 -2.92717 0
M  V30 3764 H 348.382 -1.25061 -2.23144 0
M  V30 3765 H 348.026 -2.24037 -4.55818 0
M  V30 3766 H 347.956 -0.592896 -5.23252 0
M  V30 3767 H 350.447 -0.824058 -3.68806 0
M  V30 3768 H 350.76 -2.2899 -7.38095 0
M  V30 3769 H 349.105 -2.05273 -6.63994 0
M  V30 3770 H 352.296 -1.10281 -4.54924 0
M  V30 3771 H 352.469 -1.77103 -6.23329 0
M  V30 3772 N 345.875 1.56104 -0.216619 0
M  V30 3773 C 347.121 1.99219 0.410301 0
M  V30 3774 C 347.476 1.10169 1.57735 0
M  V30 3775 O 346.769 0.150598 1.91007 0
M  V30 3776 C 346.963 3.45923 0.898464 0
M  V30 3777 C 346.792 4.49163 -0.219748 0
M  V30 3778 C 345.562 5.00642 -0.684516 0
M  V30 3779 C 347.76 5.03751 -1.03629 0
M  V30 3780 N 345.742 5.87579 -1.7783 0
M  V30 3781 C 347.113 5.87566 -1.97904 0
M  V30 3782 C 349.168 4.86128 -1.07629 0
M  V30 3783 C 347.871 6.5564 -2.95851 0
M  V30 3784 C 349.897 5.54958 -2.04392 0
M  V30 3785 C 349.259 6.38536 -2.97407 0
M  V30 3786 H 345.358 0.773206 0.11695 0
M  V30 3787 H 347.942 1.9193 -0.327258 0
M  V30 3788 H 346.113 3.53669 1.6054 0
M  V30 3789 H 347.845 3.75963 1.49779 0
M  V30 3790 H 344.6 4.72807 -0.27399 0
M  V30 3791 H 345.024 6.3575 -2.32705 0
M  V30 3792 H 349.666 4.21168 -0.371099 0
M  V30 3793 H 347.384 7.19785 -3.67335 0
M  V30 3794 H 350.97 5.43289 -2.08154 0
M  V30 3795 H 349.85 6.90858 -3.71059 0
M  V30 3796 N 347.353 -0.0568162 1.57498 0
M  V30 3797 C 348.63 -0.786954 1.79071 0
M  V30 3798 C 349.01 -1.95028 0.80792 0
M  V30 3799 O 348.358 -2.27968 -0.155858 0
M  V30 3800 C 348.568 -1.24594 3.26002 0
M  V30 3801 C 349.916 -1.67323 3.90241 0
M  V30 3802 O 350.94 -1.34124 3.29984 0
M  V30 3803 O 349.799 -2.28842 4.9628 0
M  V30 3804 H 346.893 -0.378262 0.735423 0
M  V30 3805 H 349.439 -0.035734 1.69662 0
M  V30 3806 H 348.211 -0.41423 3.89101 0
M  V30 3807 H 347.834 -2.05803 3.40192 0
M  V30 3808 N 348.832 -1.54138 -0.328536 0
M  V30 3809 C 349.782 -1.79557 -1.4051 0
M  V30 3810 C 350.766 -0.651373 -1.47126 0
M  V30 3811 O 351.958 -0.911226 -1.51742 0
M  V30 3812 C 349.087 -2.02196 -2.77438 0
M  V30 3813 C 348.173 -3.22724 -2.75155 0
M  V30 3814 N 348.564 -4.43881 -2.42494 0
M  V30 3815 C 346.862 -3.24196 -3.06289 0
M  V30 3816 C 347.563 -5.25797 -2.48822 0
M  V30 3817 N 346.539 -4.62862 -2.8506 0
M  V30 3818 H 350.341 -2.70814 -1.1418 0
M  V30 3819 H 347.855 -1.53265 -0.536991 0
M  V30 3820 H 349.852 -2.18546 -3.55026 0
M  V30 3821 H 348.512 -1.12191 -3.04702 0
M  V30 3822 H 349.523 -4.70969 -2.15428 0
M  V30 3823 H 346.2 -2.44208 -3.38627 0
M  V30 3824 H 347.59 -6.32535 -2.26603 0
M  V30 3825 N 350.31 0.590341 -1.46126 0
M  V30 3826 C 351.242 1.71427 -1.52136 0
M  V30 3827 C 352.255 1.57542 -0.41042 0
M  V30 3828 O 353.444 1.65106 -0.678389 0
M  V30 3829 C 350.544 3.09605 -1.37834 0
M  V30 3830 C 349.717 3.49566 -2.62912 0
M  V30 3831 C 348.776 4.66773 -2.42918 0
M  V30 3832 O 347.802 4.73019 -3.1661 0
M  V30 3833 N 349.004 5.61161 -1.4859 0
M  V30 3834 H 351.769 1.66728 -2.49042 0
M  V30 3835 H 349.33 0.776113 -1.42085 0
M  V30 3836 H 351.322 3.85796 -1.22243 0
M  V30 3837 H 349.892 3.08714 -0.491393 0
M  V30 3838 H 349.112 2.63158 -2.93499 0
M  V30 3839 H 350.4 3.73028 -3.46017 0
M  V30 3840 H 349.798 5.58844 -0.87808 0
M  V30 3841 H 348.355 6.36814 -1.38965 0
M  V30 3842 N 351.788 1.33704 0.83433 0
M  V30 3843 C 353.016 1.28467 1.62185 0
M  V30 3844 C 353.431 -0.143526 1.88254 0
M  V30 3845 O 352.788 -1.08709 1.4659 0
M  V30 3846 C 352.839 2.06174 2.96942 0
M  V30 3847 O 352.56 3.43422 2.72016 0
M  V30 3848 C 354.061 2.08201 3.91366 0
M  V30 3849 H 351.281 0.4424 0.504503 0
M  V30 3850 H 353.825 1.76145 1.03891 0
M  V30 3851 H 351.98 1.62167 3.51825 0
M  V30 3852 H 352.394 3.83453 3.57861 0
M  V30 3853 H 353.868 2.67017 4.83121 0
M  V30 3854 H 354.345 1.07343 4.2588 0
M  V30 3855 H 354.951 2.52246 3.42421 0
M  V30 3856 N 353.266 -1.05314 1.17247 0
M  V30 3857 C 354.677 -1.59753 0.96623 0
M  V30 3858 C 355.028 -1.9005 -0.487378 0
M  V30 3859 O 354.153 -1.68126 -1.36245 0
M  V30 3860 C 354.748 -2.90249 1.74759 0
M  V30 3861 C 353.307 -3.41352 1.58606 0
M  V30 3862 C 352.454 -2.15103 1.75002 0
M  V30 3863 H 355.405 -0.881406 1.31973 0
M  V30 3864 H 355.426 -3.60097 1.22925 0
M  V30 3865 H 354.938 -2.68166 2.8055 0
M  V30 3866 H 353.039 -3.68474 0.552985 0
M  V30 3867 H 353.152 -4.16019 2.37624 0
M  V30 3868 H 351.516 -2.25804 1.17833 0
M  V30 3869 H 352.299 -1.95491 2.82202 0
M  V30 3870 N 354.744 -0.972509 -1.24016 0
M  V30 3871 C 355.694 -0.477561 -2.22942 0
M  V30 3872 C 356.678 0.44308 -1.54679 0
M  V30 3873 O 357.87 0.273219 -1.74879 0
M  V30 3874 C 354.999 0.226348 -3.42553 0
M  V30 3875 C 354.085 -0.713403 -4.18057 0
M  V30 3876 N 354.476 -1.8527 -4.70647 0
M  V30 3877 C 352.774 -0.525145 -4.42898 0
M  V30 3878 C 353.475 -2.44089 -5.28011 0
M  V30 3879 N 352.451 -1.72556 -5.15486 0
M  V30 3880 H 356.253 -1.34678 -2.61226 0
M  V30 3881 H 353.767 -0.832196 -1.39457 0
M  V30 3882 H 355.764 0.598184 -4.12586 0
M  V30 3883 H 354.424 1.09195 -3.05788 0
M  V30 3884 H 355.435 -2.2341 -4.67235 0
M  V30 3885 H 352.112 0.296096 -4.16449 0
M  V30 3886 H 353.502 -3.40259 -5.79374 0
M  V30 3887 N 356.222 1.38976 -0.743202 0
M  V30 3888 C 357.638 1.53984 -0.419664 0
M  V30 3889 C 357.838 1.70837 1.0685 0
M  V30 3890 O 356.894 1.7135 1.8546 0
M  V30 3891 C 358.207 2.75287 -1.20985 0
M  V30 3892 C 359.755 2.89129 -1.19889 0
M  V30 3893 C 360.23 4.13381 -1.97181 0
M  V30 3894 N 361.721 4.20437 -1.94389 0
M  V30 3895 C 362.456 5.15547 -2.50996 0
M  V30 3896 N 361.952 6.16395 -3.16274 0
M  V30 3897 N 363.745 5.07822 -2.40984 0
M  V30 3898 H 355.896 1.26285 -1.7078 0
M  V30 3899 H 358.159 0.612689 -0.723406 0
M  V30 3900 H 357.865 2.69204 -2.26323 0
M  V30 3901 H 357.739 3.68184 -0.819759 0
M  V30 3902 H 360.126 2.947 -0.153606 0
M  V30 3903 H 360.207 1.97272 -1.62841 0
M  V30 3904 H 359.851 4.08572 -3.01714 0
M  V30 3905 H 359.781 5.04298 -1.51629 0
M  V30 3906 H 362.272 3.48205 -1.46839 0
M  V30 3907 H 362.585 6.85443 -3.56915 0
M  V30 3908 H 360.93 6.16758 -3.20367 0
M  V30 3909 H 364.121 4.27973 -1.89622 0
M  V30 3910 H 364.294 5.81767 -2.85397 0
M  V30 3911 N 357.7 0.491464 1.49741 0
M  V30 3912 C 358.65 -0.311086 2.25868 0
M  V30 3913 C 359.634 -0.943857 1.30308 0
M  V30 3914 O 360.826 -0.853035 1.55088 0
M  V30 3915 C 357.955 -1.38059 3.14316 0
M  V30 3916 C 357.041 -0.754541 4.17334 0
M  V30 3917 N 357.432 0.137216 5.05614 0
M  V30 3918 C 355.73 -1.01621 4.34269 0
M  V30 3919 C 356.431 0.494614 5.79593 0
M  V30 3920 N 355.407 -0.135169 5.43432 0
M  V30 3921 H 359.209 0.37555 2.91491 0
M  V30 3922 H 356.723 0.306917 1.59473 0
M  V30 3923 H 358.72 -1.96891 3.67477 0
M  V30 3924 H 357.38 -2.06901 2.50244 0
M  V30 3925 H 358.391 0.50741 5.15408 0
M  V30 3926 H 355.068 -1.69808 3.81407 0
M  V30 3927 H 356.458 1.2236 6.60665 0
M  V30 3928 N 359.178 -1.55987 0.224894 0
M  V30 3929 C 360.125 -2.20436 -0.68385 0
M  V30 3930 C 361.095 -1.16102 -1.18783 0
M  V30 3931 O 362.28 -1.4447 -1.24632 0
M  V30 3932 C 359.42 -2.89076 -1.88491 0
M  V30 3933 C 358.533 -4.08012 -1.41951 0
M  V30 3934 C 357.668 -4.64426 -2.5784 0
M  V30 3935 C 356.707 -5.75656 -2.08053 0
M  V30 3936 N 355.844 -6.26347 -3.17227 0
M  V30 3937 H 360.684 -2.97727 -0.12754 0
M  V30 3938 H 358.221 -1.47011 -0.0511978 0
M  V30 3939 H 360.179 -3.27059 -2.59014 0
M  V30 3940 H 358.809 -2.14298 -2.41405 0
M  V30 3941 H 357.861 -3.75492 -0.609095 0
M  V30 3942 H 359.173 -4.88375 -1.01447 0
M  V30 3943 H 358.327 -5.04869 -3.3644 0
M  V30 3944 H 357.066 -3.83233 -3.01635 0
M  V30 3945 H 356.071 -5.34712 -1.27916 0
M  V30 3946 H 357.296 -6.58686 -1.65255 0
M  V30 3947 H 355.242 -5.48067 -3.60497 0
M  V30 3948 H 355.159 -7.01843 -2.80986 0
M  V30 3949 H 356.427 -6.71447 -3.95953 0
M  V30 3950 N 360.656 0.0484629 -1.57525 0
M  V30 3951 C 361.903 0.743125 -1.88372 0
M  V30 3952 C 362.231 1.76383 -0.819715 0
M  V30 3953 O 361.486 1.94855 0.181659 0
M  V30 3954 C 361.785 1.46632 -3.25935 0
M  V30 3955 C 361.451 0.583427 -4.4711 0
M  V30 3956 C 360.113 0.340191 -4.79996 0
M  V30 3957 C 362.465 -0.0273345 -5.21193 0
M  V30 3958 C 359.793 -0.522903 -5.84365 0
M  V30 3959 C 362.145 -0.878017 -6.26477 0
M  V30 3960 C 360.809 -1.1309 -6.5785 0
M  V30 3961 H 360.079 0.271929 -0.689301 0
M  V30 3962 H 362.726 0.00336166 -1.915 0
M  V30 3963 H 361.031 2.2789 -3.18706 0
M  V30 3964 H 362.728 2.00902 -3.47044 0
M  V30 3965 H 359.318 0.783151 -4.21384 0
M  V30 3966 H 363.502 0.147654 -4.9608 0
M  V30 3967 H 358.758 -0.727335 -6.07058 0
M  V30 3968 H 362.932 -1.35789 -6.83033 0
M  V30 3969 H 360.559 -1.80144 -7.38547 0
M  V30 3970 N 362.134 1.5431 0.320358 0
M  V30 3971 C 363.064 1.86912 1.3995 0
M  V30 3972 C 364.045 0.726211 1.53819 0
M  V30 3973 O 365.23 0.980233 1.67646 0
M  V30 3974 C 362.36 2.09932 2.7667 0
M  V30 3975 C 361.314 3.25776 2.77586 0
M  V30 3976 C 360.64 3.34173 4.17412 0
M  V30 3977 C 361.94 4.6335 2.41048 0
M  V30 3978 H 363.634 2.77292 1.12914 0
M  V30 3979 H 361.18 1.33421 0.541738 0
M  V30 3980 H 363.133 2.31324 3.52232 0
M  V30 3981 H 361.857 1.16304 3.0519 0
M  V30 3982 H 360.516 3.04276 2.04479 0
M  V30 3983 H 360.164 2.38098 4.43078 0
M  V30 3984 H 359.864 4.12033 4.18931 0
M  V30 3985 H 361.388 3.57803 4.94782 0
M  V30 3986 H 362.802 4.84602 3.06324 0
M  V30 3987 H 361.199 5.43782 2.53813 0
M  V30 3988 H 362.269 4.65381 1.36193 0
M  V30 3989 N 363.613 -0.582584 1.46437 0
M  V30 3990 C 365.024 -1.1647 1.45916 0
M  V30 3991 C 365.375 -1.95177 0.200077 0
M  V30 3992 O 364.5 -2.04874 -0.696819 0
M  V30 3993 C 365.095 -2.11885 2.64367 0
M  V30 3994 C 363.654 -2.65421 2.66887 0
M  V30 3995 C 362.801 -1.41294 2.38603 0
M  V30 3996 H 365.752 -0.370514 1.54314 0
M  V30 3997 H 365.773 -2.9535 2.39892 0
M  V30 3998 H 365.285 -1.54573 3.5599 0
M  V30 3999 H 363.386 -3.26602 1.79338 0
M  V30 4000 H 363.499 -3.08147 3.66854 0
M  V30 4001 H 361.863 -1.71109 1.88663 0
M  V30 4002 H 362.646 -0.858125 3.32402 0
M  V30 4003 N 365.091 -1.34144 -0.827227 0
M  V30 4004 C 366.001 -1.27428 -1.96975 0
M  V30 4005 C 367.017 -0.182728 -1.73038 0
M  V30 4006 O 368.193 -0.408426 -1.97215 0
M  V30 4007 C 365.258 -1.02526 -3.31194 0
M  V30 4008 C 364.319 -2.20796 -3.68168 0
M  V30 4009 C 363.552 -1.97073 -4.95982 0
M  V30 4010 O 363.775 -0.926822 -5.6282 0
M  V30 4011 O 362.709 -2.83912 -5.30733 0
M  V30 4012 H 366.535 -2.23537 -2.05584 0
M  V30 4013 H 364.12 -1.14307 -0.961989 0
M  V30 4014 H 366.002 -0.904026 -4.11589 0
M  V30 4015 H 364.677 -0.0945389 -3.23562 0
M  V30 4016 H 363.584 -2.38477 -2.88235 0
M  V30 4017 H 364.917 -3.12243 -3.8048 0
M  V30 4018 N 366.569 1.04691 -1.17803 0
M  V30 4019 C 367.985 1.29963 -0.926379 0
M  V30 4020 C 368.185 1.97251 0.411635 0
M  V30 4021 O 367.241 2.24922 1.14744 0
M  V30 4022 C 368.554 2.16447 -2.08737 0
M  V30 4023 C 370.102 2.29814 -2.12496 0
M  V30 4024 C 370.577 3.19661 -3.27995 0
M  V30 4025 N 372.068 3.27247 -3.27816 0
M  V30 4026 C 372.803 3.96906 -4.13827 0
M  V30 4027 N 372.299 4.6895 -5.09959 0
M  V30 4028 N 374.092 3.93122 -4.01761 0
M  V30 4029 H 366.243 0.594182 -2.0392 0
M  V30 4030 H 368.506 0.324649 -0.890678 0
M  V30 4031 H 368.212 1.74304 -3.05469 0
M  V30 4032 H 368.086 3.17103 -2.04268 0
M  V30 4033 H 370.473 2.71196 -1.16347 0
M  V30 4034 H 370.554 1.2877 -2.21025 0
M  V30 4035 H 370.198 2.78991 -4.24413 0
M  V30 4036 H 370.128 4.20722 -3.16703 0
M  V30 4037 H 372.619 2.75921 -2.58217 0
M  V30 4038 H 372.932 5.19679 -5.71974 0
M  V30 4039 H 371.277 4.67875 -5.13924 0
M  V30 4040 H 374.468 3.35967 -3.2595 0
M  V30 4041 H 374.641 4.47139 -4.6901 0
M  V30 4042 N 368.047 0.979072 1.23499 0
M  V30 4043 C 369.277 0.664237 1.95631 0
M  V30 4044 C 369.685 -0.772653 1.72704 0
M  V30 4045 O 369.028 -1.53141 1.01457 0
M  V30 4046 C 369.09 0.873115 3.48736 0
M  V30 4047 C 368.754 2.29182 3.95379 0
M  V30 4048 C 369.751 3.2704 4.04155 0
M  V30 4049 C 367.436 2.62256 4.28401 0
M  V30 4050 C 369.43 4.56052 4.45304 0
M  V30 4051 C 367.117 3.91491 4.69231 0
M  V30 4052 C 368.115 4.88201 4.77649 0
M  V30 4053 O 367.803 6.15129 5.17563 0
M  V30 4054 H 367.535 0.245915 0.629684 0
M  V30 4055 H 370.089 1.3127 1.57979 0
M  V30 4056 H 368.319 0.167476 3.86337 0
M  V30 4057 H 370.008 0.555642 4.02079 0
M  V30 4058 H 370.774 3.02819 3.78848 0
M  V30 4059 H 366.653 1.87692 4.21061 0
M  V30 4060 H 370.197 5.31538 4.51789 0
M  V30 4061 H 366.094 4.15508 4.93987 0
M  V30 4062 H 366.862 6.18862 5.35679 0
M  V30 4063 N 369.525 -1.3858 0.750561 0
M  V30 4064 C 370.936 -1.82927 0.373438 0
M  V30 4065 C 371.287 -1.62634 -1.09748 0
M  V30 4066 O 370.412 -1.12588 -1.84805 0
M  V30 4067 C 371.007 -3.32088 0.671029 0
M  V30 4068 C 369.566 -3.74795 0.34722 0
M  V30 4069 C 368.713 -2.61391 0.92575 0
M  V30 4070 H 371.664 -1.27351 0.946958 0
M  V30 4071 H 371.685 -3.80465 -0.0518269 0
M  V30 4072 H 371.197 -3.46826 1.74164 0
M  V30 4073 H 369.298 -3.65638 -0.716933 0
M  V30 4074 H 369.411 -4.71667 0.840656 0
M  V30 4075 H 367.775 -2.52265 0.351327 0
M  V30 4076 H 368.558 -2.78929 2.00133 0
M  V30 4077 N 371.003 -0.499398 -1.49478 0
M  V30 4078 C 372.28 0.108629 -1.95298 0
M  V30 4079 C 372.66 1.54282 -1.44084 0
M  V30 4080 O 372.008 2.18944 -0.653908 0
M  V30 4081 C 372.218 0.0229111 -3.48992 0
M  V30 4082 C 373.566 0.197643 -4.2414 0
M  V30 4083 O 374.59 0.0981735 -3.56065 0
M  V30 4084 O 373.449 0.401669 -5.45022 0
M  V30 4085 H 370.543 0.096181 -0.821388 0
M  V30 4086 H 373.089 -0.561822 -1.6013 0
M  V30 4087 H 371.861 -0.977321 -3.78899 0
M  V30 4088 H 371.484 0.733579 -3.90774 0
M  V30 4089 N 372.481 1.55866 -0.233164 0
M  V30 4090 C 373.428 2.20796 0.67215 0
M  V30 4091 C 374.398 1.16731 1.18166 0
M  V30 4092 O 375.583 1.45129 1.23864 0
M  V30 4093 C 372.723 2.90072 1.86955 0
M  V30 4094 C 371.836 4.08759 1.39786 0
M  V30 4095 C 370.971 4.65787 2.55374 0
M  V30 4096 C 370.01 5.76752 2.04998 0
M  V30 4097 N 369.147 6.28021 3.13901 0
M  V30 4098 H 373.987 2.9779 0.111749 0
M  V30 4099 H 371.524 1.47036 0.0434007 0
M  V30 4100 H 373.482 3.28428 2.57276 0
M  V30 4101 H 372.112 2.15575 2.40265 0
M  V30 4102 H 371.164 3.7581 0.589173 0
M  V30 4103 H 372.476 4.88906 0.98856 0
M  V30 4104 H 371.63 5.06646 3.33758 0
M  V30 4105 H 370.369 3.84828 2.99598 0
M  V30 4106 H 369.374 5.35383 1.25079 0
M  V30 4107 H 370.599 6.59553 1.61759 0
M  V30 4108 H 368.545 5.49971 3.57586 0
M  V30 4109 H 368.462 7.03323 2.7726 0
M  V30 4110 H 369.73 6.73538 3.92386 0
M  V30 4111 N 373.959 -0.0401083 1.57549 0
M  V30 4112 C 375.207 -0.731677 1.8839 0
M  V30 4113 C 375.528 -1.76481 0.829425 0
M  V30 4114 O 374.798 -1.95411 -0.1383 0
M  V30 4115 H 373.378 -0.273225 0.695239 0
M  V30 4116 H 376.04 -0.00867725 1.94898 0
M  V30 4117 H 375.136 -1.22816 2.86919 0
M  V30 4118 N 375.437 -1.54477 -0.31217 0
M  V30 4119 C 376.684 -1.73227 -1.04875 0
M  V30 4120 C 377.012 -0.512042 -1.87639 0
M  V30 4121 O 376.267 0.506131 -1.89042 0
M  V30 4122 C 376.566 -2.967 -1.99258 0
M  V30 4123 C 376.232 -4.30974 -1.32559 0
M  V30 4124 C 374.894 -4.67477 -1.141 0
M  V30 4125 C 377.246 -5.14258 -0.847835 0
M  V30 4126 C 374.574 -5.84852 -0.465326 0
M  V30 4127 C 376.926 -6.32327 -0.185931 0
M  V30 4128 C 375.59 -6.67499 0.0107077 0
M  V30 4129 H 374.86 -0.633881 -0.383765 0
M  V30 4130 H 377.507 -1.88727 -0.324731 0
M  V30 4131 H 375.812 -2.75935 -2.7815 0
M  V30 4132 H 377.509 -3.08401 -2.563 0
M  V30 4133 H 374.099 -4.02262 -1.4793 0
M  V30 4134 H 378.283 -4.86565 -0.978192 0
M  V30 4135 H 373.539 -6.10654 -0.301883 0
M  V30 4136 H 377.713 -6.96135 0.192211 0
M  V30 4137 H 375.34 -7.58306 0.536287 0
M  V30 4138 N 376.915 0.57481 -1.46744 0
M  V30 4139 C 378.192 1.3352 -1.4294 0
M  V30 4140 C 378.572 2.10775 -0.117009 0
M  V30 4141 O 377.92 2.09966 0.901474 0
M  V30 4142 C 378.13 2.25456 -2.66403 0
M  V30 4143 C 379.478 2.87035 -3.12883 0
M  V30 4144 O 380.502 2.35766 -2.67007 0
M  V30 4145 O 379.361 3.80179 -3.92589 0
M  V30 4146 H 376.455 0.600318 -0.568812 0
M  V30 4147 H 379.001 0.595171 -1.58921 0
M  V30 4148 H 377.773 1.67851 -3.53471 0
M  V30 4149 H 377.396 3.06785 -2.52921 0
M  V30 4150 N 378.394 1.34581 0.820102 0
M  V30 4151 C 379.671 1.17675 1.56244 0
M  V30 4152 C 380.051 -0.249541 2.0962 0
M  V30 4153 O 379.399 -1.25125 1.91196 0
M  V30 4154 C 379.609 2.23364 2.6816 0
M  V30 4155 C 380.957 2.58485 3.36854 0
M  V30 4156 O 381.981 2.22175 2.78418 0
M  V30 4157 O 380.84 3.20868 4.42386 0
M  V30 4158 H 377.934 0.456333 0.689702 0
M  V30 4159 H 380.48 1.46222 0.861231 0
M  V30 4160 H 379.252 3.19087 2.26493 0
M  V30 4161 H 378.875 1.96009 3.45928 0
M  V30 4162 N 379.872 -1.04064 1.18357 0
M  V30 4163 C 380.82 -2.14187 0.907007 0
M  V30 4164 C 381.814 -1.68879 -0.132725 0
M  V30 4165 O 383.02 -1.79993 0.0154248 0
M  V30 4166 H 379.395 -0.699585 0.275835 0
M  V30 4167 H 381.366 -2.34711 1.84264 0
M  V30 4168 C 380.115 -3.44785 0.449254 0
M  V30 4169 H 379.438 -3.80058 1.24081 0
M  V30 4170 H 380.878 -4.22974 0.294737 0
M  V30 4171 C 379.337 -3.26391 -0.834909 0
M  V30 4172 O 379.867 -3.53973 -1.89911 0
M  V30 4173 N 378.073 -2.79726 -0.787523 0
M  V30 4174 H 377.62 -2.5748 0.0787347 0
M  V30 4175 H 377.578 -2.67798 -1.64716 0
M  V30 4176 N 381.35 -0.985608 -1.22978 0
M  V30 4177 C 382.58 -0.674603 -1.95276 0
M  V30 4178 C 382.988 0.763483 -1.73111 0
M  V30 4179 O 382.331 1.52601 -1.02268 0
M  V30 4180 C 382.393 -0.891597 -3.48268 0
M  V30 4181 C 382.057 -2.31275 -3.94158 0
M  V30 4182 C 383.054 -3.29179 -4.02415 0
M  V30 4183 C 380.739 -2.64524 -4.27004 0
M  V30 4184 C 382.733 -4.58407 -4.42879 0
M  V30 4185 C 380.42 -3.93974 -4.67149 0
M  V30 4186 C 381.418 -4.90727 -4.75053 0
M  V30 4187 O 381.106 -6.17865 -5.14294 0
M  V30 4188 H 380.838 -0.249251 -0.628371 0
M  V30 4189 H 383.392 -1.32106 -1.5728 0
M  V30 4190 H 381.622 -0.187962 -3.86243 0
M  V30 4191 H 383.311 -0.576957 -4.01779 0
M  V30 4192 H 384.077 -3.04823 -3.77237 0
M  V30 4193 H 379.956 -1.89923 -4.2006 0
M  V30 4194 H 383.5 -5.33926 -4.48964 0
M  V30 4195 H 379.397 -4.18122 -4.91777 0
M  V30 4196 H 380.165 -6.21694 -5.32389 0
M  V30 4197 N 382.828 1.3818 -0.7579 0
M  V30 4198 C 384.068 2.01864 -0.320968 0
M  V30 4199 C 384.432 1.58863 1.07827 0
M  V30 4200 O 385.633 2.14908 1.61456 0
M  V30 4201 C 383.904 3.54626 -0.44446 0
M  V30 4202 S 385.463 4.38706 -0.0907467 0
M  V30 4203 H 382.281 0.700056 -0.124268 0
M  V30 4204 H 384.883 1.68611 -0.989468 0
M  V30 4205 H 383.587 3.83411 -1.4637 0
M  V30 4206 H 383.118 3.92661 0.241073 0
M  V30 4207 H 385.133 4.83435 1.11826 0
M  V30 4208 N 384.306 0.507319 1.49211 0
M  V30 4209 C 385.722 0.163682 1.58758 0
M  V30 4210 C 385.922 -1.33208 1.51188 0
M  V30 4211 O 384.978 -2.10855 1.38911 0
M  V30 4212 C 386.291 0.746095 2.91297 0
M  V30 4213 C 387.839 0.712773 3.04776 0
M  V30 4214 C 388.314 1.27336 4.39943 0
M  V30 4215 N 389.805 1.23433 4.46451 0
M  V30 4216 C 390.54 1.63821 5.495 0
M  V30 4217 N 390.036 2.11832 6.5962 0
M  V30 4218 N 391.829 1.55198 5.4025 0
M  V30 4219 H 383.98 1.47972 1.52375 0
M  V30 4220 H 386.243 0.614147 0.722168 0
M  V30 4221 H 385.949 1.79534 3.02424 0
M  V30 4222 H 385.823 0.210137 3.76614 0
M  V30 4223 H 388.21 -0.327656 2.93275 0
M  V30 4224 H 388.291 1.28595 2.21127 0
M  V30 4225 H 387.935 2.3126 4.52196 0
M  V30 4226 H 387.865 0.676066 5.22242 0
M  V30 4227 H 390.356 0.882627 3.67448 0
M  V30 4228 H 390.669 2.40703 7.34358 0
M  V30 4229 H 389.014 2.1581 6.60644 0
M  V30 4230 H 392.205 1.17505 4.53112 0
M  V30 4231 H 392.378 1.86997 6.20432 0
M  V30 4232 N 385.784 -1.5574 0.241426 0
M  V30 4233 C 386.732 -2.22538 -0.676718 0
M  V30 4234 C 387.726 -1.21117 -1.18436 0
M  V30 4235 O 388.932 -1.39144 -1.14188 0
M  V30 4236 H 385.307 -0.713776 -0.236701 0
M  V30 4237 H 387.278 -2.98264 -0.0901187 0
M  V30 4238 C 386.027 -2.93439 -1.86518 0
M  V30 4239 H 385.35 -3.7125 -1.4837 0
M  V30 4240 H 386.79 -3.43549 -2.48495 0
M  V30 4241 C 385.249 -1.97008 -2.73294 0
M  V30 4242 O 385.779 -1.49965 -3.72657 0
M  V30 4243 N 383.985 -1.64227 -2.39745 0
M  V30 4244 H 383.532 -2.02677 -1.58996 0
M  V30 4245 H 383.49 -0.999708 -2.98083 0
M  V30 4246 N 387.262 0.0317525 -1.57568 0
M  V30 4247 C 388.673 0.578692 -1.77505 0
M  V30 4248 C 389.024 1.75749 -0.872164 0
M  V30 4249 O 388.149 2.16298 -0.0663106 0
M  V30 4250 C 388.744 1.05658 -3.21904 0
M  V30 4251 C 387.303 1.54906 -3.43047 0
M  V30 4252 C 386.45 0.485939 -2.73009 0
M  V30 4253 H 389.401 -0.194475 -1.57504 0
M  V30 4254 H 389.422 1.92404 -3.28269 0
M  V30 4255 H 388.934 0.198422 -3.87592 0
M  V30 4256 H 387.035 2.42915 -2.82529 0
M  V30 4257 H 387.148 1.59841 -4.5165 0
M  V30 4258 H 385.512 0.940354 -2.36705 0
M  V30 4259 H 386.295 -0.362709 -3.41379 0
M  V30 4260 N 388.74 1.54641 0.303973 0
M  V30 4261 C 390.017 1.64455 1.05896 0
M  V30 4262 C 390.397 0.490923 2.05312 0
M  V30 4263 O 389.745 -0.512685 2.22674 0
M  V30 4264 C 389.955 3.02331 1.74347 0
M  V30 4265 C 391.303 3.59045 2.26653 0
M  V30 4266 O 392.327 3.04764 1.84384 0
M  V30 4267 O 391.186 4.54081 3.04093 0
M  V30 4268 H 388.28 0.666729 0.489287 0
M  V30 4269 H 390.826 1.66986 0.302298 0
M  V30 4270 H 389.598 3.77734 1.02142 0
M  V30 4271 H 389.221 3.03565 2.56777 0
M  V30 4272 N 390.218 -0.567019 1.47046 0
M  V30 4273 C 391.466 -1.322 1.52864 0
M  V30 4274 C 391.787 -1.94088 0.188388 0
M  V30 4275 O 391.057 -1.7941 -0.786693 0
M  V30 4276 H 389.637 -0.490894 0.563056 0
M  V30 4277 H 392.299 -0.662879 1.83281 0
M  V30 4278 H 391.395 -2.12062 2.2899 0
M  V30 4279 N 391.696 -1.35014 -0.812953 0
M  V30 4280 C 392.628 -1.23262 -1.93233 0
M  V30 4281 C 393.641 -0.157371 -1.62038 0
M  V30 4282 O 394.83 -0.410096 -1.73725 0
M  V30 4283 C 391.93 -0.87392 -3.27438 0
M  V30 4284 C 391.103 -2.04622 -3.86586 0
M  V30 4285 C 390.162 -1.66432 -4.99186 0
M  V30 4286 O 389.188 -2.38222 -5.16951 0
M  V30 4287 N 390.39 -0.584248 -5.77552 0
M  V30 4288 H 393.155 -2.19699 -2.03844 0
M  V30 4289 H 390.716 -1.281 -0.99005 0
M  V30 4290 H 392.708 -0.600039 -4.00227 0
M  V30 4291 H 391.278 0.00057392 -3.126 0
M  V30 4292 H 390.498 -2.48427 -3.06068 0
M  V30 4293 H 391.786 -2.82999 -4.22835 0
M  V30 4294 H 391.184 0.0123526 -5.65699 0
M  V30 4295 H 389.741 -0.37013 -6.50748 0
M  V30 4296 N 393.175 1.03435 -1.18907 0
M  V30 4297 C 394.586 1.58195 -0.991523 0
M  V30 4298 C 394.937 1.90801 0.457081 0
M  V30 4299 O 394.062 1.70272 1.33553 0
M  V30 4300 C 394.657 2.87432 -1.79355 0
M  V30 4301 C 393.216 3.38785 -1.64017 0
M  V30 4302 C 392.363 2.12292 -1.78402 0
M  V30 4303 H 395.314 0.860299 -1.33359 0
M  V30 4304 H 395.335 3.58096 -1.28638 0
M  V30 4305 H 394.847 2.63669 -2.84781 0
M  V30 4306 H 392.948 3.67547 -0.611536 0
M  V30 4307 H 393.061 4.12186 -2.44212 0
M  V30 4308 H 391.425 2.23901 -1.2141 0
M  V30 4309 H 392.208 1.90977 -2.85277 0
M  V30 4310 N 394.653 0.992116 1.22453 0
M  V30 4311 C 396.069 0.702713 1.43297 0
M  V30 4312 C 396.269 -0.726909 1.87932 0
M  V30 4313 O 395.325 -1.49792 2.0327 0
M  V30 4314 C 396.638 1.70762 2.47509 0
M  V30 4315 C 398.186 1.72298 2.61309 0
M  V30 4316 C 398.661 2.71649 3.68742 0
M  V30 4317 N 400.152 2.70239 3.76199 0
M  V30 4318 C 400.887 3.43778 4.58917 0
M  V30 4319 N 400.383 4.26914 5.45633 0
M  V30 4320 N 402.176 3.32487 4.5322 0
M  V30 4321 H 394.327 1.91543 0.917871 0
M  V30 4322 H 396.59 0.826031 0.465162 0
M  V30 4323 H 396.296 2.73059 2.21657 0
M  V30 4324 H 396.17 1.49985 3.46099 0
M  V30 4325 H 398.557 0.706989 2.86506 0
M  V30 4326 H 398.638 1.97143 1.62997 0
M  V30 4327 H 398.282 3.73397 3.44292 0
M  V30 4328 H 398.212 2.44074 4.66622 0
M  V30 4329 H 400.703 2.09912 3.14237 0
M  V30 4330 H 401.016 4.79855 6.05771 0
M  V30 4331 H 399.361 4.31002 5.45218 0
M  V30 4332 H 402.552 2.6698 3.84499 0
M  V30 4333 H 402.725 3.90058 5.17454 0
M  V30 4334 N 396.131 -1.37776 0.765217 0
M  V30 4335 C 397.542 -1.82521 0.392819 0
M  V30 4336 C 397.893 -1.63789 -1.08017 0
M  V30 4337 O 397.018 -1.14542 -1.83601 0
M  V30 4338 C 397.613 -3.31358 0.706214 0
M  V30 4339 C 396.172 -3.74406 0.386952 0
M  V30 4340 C 395.319 -2.60394 0.953422 0
M  V30 4341 H 398.27 -1.2634 0.960412 0
M  V30 4342 H 398.291 -3.80498 -0.0114706 0
M  V30 4343 H 397.803 -3.44959 1.77833 0
M  V30 4344 H 395.904 -3.66377 -0.678112 0
M  V30 4345 H 396.017 -4.70749 0.890636 0
M  V30 4346 H 394.381 -2.51878 0.378064 0
M  V30 4347 H 395.164 -2.76791 2.03081 0
M  V30 4348 N 397.609 -0.515225 -1.4894 0
M  V30 4349 C 398.855 0.016187 -2.03394 0
M  V30 4350 C 399.21 1.33377 -1.38666 0
M  V30 4351 O 398.503 1.84461 -0.518141 0
M  V30 4352 C 398.697 0.210595 -3.56779 0
M  V30 4353 C 398.526 -1.08659 -4.36375 0
M  V30 4354 C 397.296 -1.64237 -4.77864 0
M  V30 4355 C 399.494 -1.9935 -4.74093 0
M  V30 4356 N 397.476 -2.88398 -5.41941 0
M  V30 4357 C 398.847 -3.08088 -5.38035 0
M  V30 4358 C 400.902 -1.99856 -4.56029 0
M  V30 4359 C 399.605 -4.17377 -5.85823 0
M  V30 4360 C 401.631 -3.08129 -5.04787 0
M  V30 4361 C 400.993 -4.15586 -5.68742 0
M  V30 4362 H 397.092 -0.0352107 -0.781207 0
M  V30 4363 H 399.676 -0.693237 -1.8194 0
M  V30 4364 H 397.847 0.889088 -3.78087 0
M  V30 4365 H 399.579 0.740287 -3.97872 0
M  V30 4366 H 396.334 -1.18566 -4.58518 0
M  V30 4367 H 396.758 -3.51572 -5.78555 0
M  V30 4368 H 401.4 -1.18079 -4.05977 0
M  V30 4369 H 399.118 -4.99943 -6.34888 0
M  V30 4370 H 402.704 -3.09557 -4.92611 0
M  V30 4371 H 401.584 -4.97987 -6.05787 0
M  V30 4372 N 399.087 1.5561 -0.249682 0
M  V30 4373 C 400.327 2.00916 0.37579 0
M  V30 4374 C 400.691 1.13409 1.54927 0
M  V30 4375 O 401.892 1.48183 2.24266 0
M  V30 4376 C 400.163 3.48949 0.772633 0
M  V30 4377 S 401.722 4.16261 1.38824 0
M  V30 4378 H 398.54 0.70112 0.118117 0
M  V30 4379 H 401.142 1.92052 -0.365567 0
M  V30 4380 H 399.846 4.103 -0.090683 0
M  V30 4381 H 399.377 3.61745 1.5461 0
M  V30 4382 H 401.392 4.17778 2.67724 0
M  V30 4383 N 400.565 -0.0233959 1.57583 0
M  V30 4384 C 401.795 -0.723631 1.93513 0
M  V30 4385 C 402.203 -1.69115 0.848333 0
M  V30 4386 O 401.546 -1.82781 -0.183484 0
M  V30 4387 C 401.608 -1.53075 3.25282 0
M  V30 4388 C 401.272 -0.727388 4.51174 0
M  V30 4389 C 402.269 -0.0251924 5.19894 0
M  V30 4390 C 399.954 -0.680256 4.97672 0
M  V30 4391 C 401.948 0.713374 6.33395 0
M  V30 4392 C 399.635 0.0620523 6.11068 0
M  V30 4393 C 400.633 0.757622 6.78785 0
M  V30 4394 O 400.321 1.48787 7.90011 0
M  V30 4395 H 400.053 -0.208051 0.643188 0
M  V30 4396 H 402.607 0.0167489 2.05393 0
M  V30 4397 H 400.837 -2.31508 3.09744 0
M  V30 4398 H 402.526 -2.11413 3.46496 0
M  V30 4399 H 403.292 -0.0526003 4.84971 0
M  V30 4400 H 399.171 -1.21116 4.44805 0
M  V30 4401 H 402.715 1.25683 6.86185 0
M  V30 4402 H 398.612 0.0913634 6.45435 0
M  V30 4403 H 399.38 1.40213 8.06401 0
M  V30 4404 N 402.043 -1.548 -0.295768 0
M  V30 4405 C 403.271 -1.78327 -1.04914 0
M  V30 4406 C 403.686 -0.545316 -1.80753 0
M  V30 4407 O 403.043 0.485013 -1.75937 0
M  V30 4408 C 403.094 -2.99418 -2.02561 0
M  V30 4409 O 402.815 -4.18431 -1.29798 0
M  V30 4410 C 404.316 -3.35375 -2.89895 0
M  V30 4411 H 401.536 -0.594618 -0.310918 0
M  V30 4412 H 404.08 -2.01763 -0.333454 0
M  V30 4413 H 402.235 -2.78175 -2.69624 0
M  V30 4414 H 402.649 -4.86736 -1.95419 0
M  V30 4415 H 404.123 -4.23332 -3.54251 0
M  V30 4416 H 404.6 -2.53761 -3.58472 0
M  V30 4417 H 405.206 -3.58796 -2.28355 0
M  V30 4418 N 403.521 0.559213 -1.47345 0
M  V30 4419 C 404.451 1.67622 -1.62558 0
M  V30 4420 C 405.432 1.63331 -0.475087 0
M  V30 4421 O 406.617 1.80983 -0.704182 0
M  V30 4422 C 403.747 3.0626 -1.63774 0
M  V30 4423 C 402.701 3.25397 -2.7803 0
M  V30 4424 C 402.027 4.64801 -2.64318 0
M  V30 4425 C 403.327 3.10965 -4.19641 0
M  V30 4426 H 405.021 1.55146 -2.56067 0
M  V30 4427 H 402.567 0.744961 -1.23233 0
M  V30 4428 H 404.52 3.84247 -1.73008 0
M  V30 4429 H 403.244 3.1969 -0.66825 0
M  V30 4430 H 401.903 2.49817 -2.68304 0
M  V30 4431 H 401.551 4.75028 -1.65401 0
M  V30 4432 H 401.251 4.78555 -3.40968 0
M  V30 4433 H 402.775 5.44926 -2.75478 0
M  V30 4434 H 404.189 3.78772 -4.30354 0
M  V30 4435 H 402.586 3.36229 -4.97062 0
M  V30 4436 H 403.656 2.07736 -4.38148 0
M  V30 4437 N 404.999 1.35443 0.805782 0
M  V30 4438 C 406.276 1.19325 1.54987 0
M  V30 4439 C 406.656 -0.227294 2.09873 0
M  V30 4440 O 406.004 -1.2309 1.92512 0
M  V30 4441 C 406.214 2.26196 2.65775 0
M  V30 4442 C 407.562 2.62043 3.34094 0
M  V30 4443 O 408.586 2.25115 2.76046 0
M  V30 4444 O 407.445 3.25542 4.38958 0
M  V30 4445 H 404.539 0.463623 0.684823 0
M  V30 4446 H 407.085 1.47127 0.845674 0
M  V30 4447 H 405.857 3.21471 2.23096 0
M  V30 4448 H 405.48 1.99667 3.43829 0
M  V30 4449 N 406.477 -1.02803 1.19454 0
M  V30 4450 C 407.888 -1.57667 0.999899 0
M  V30 4451 C 408.239 -1.91041 -0.446956 0
M  V30 4452 O 407.364 -1.70978 -1.32648 0
M  V30 4453 C 407.959 -2.86477 1.80877 0
M  V30 4454 C 406.518 -3.37911 1.65811 0
M  V30 4455 C 405.665 -2.11343 1.79526 0
M  V30 4456 H 408.616 -0.853214 1.33813 0
M  V30 4457 H 408.637 -3.57408 1.30536 0
M  V30 4458 H 408.149 -2.62155 2.86175 0
M  V30 4459 H 406.25 -3.67218 0.63102 0
M  V30 4460 H 406.363 -4.10885 2.46395 0
M  V30 4461 H 404.727 -2.23254 1.22596 0
M  V30 4462 H 405.51 -1.89461 2.86285 0
M  V30 4463 N 407.956 -0.998596 -1.21925 0
M  V30 4464 C 408.906 -0.524743 -2.21879 0
M  V30 4465 C 409.89 0.41017 -1.55584 0
M  V30 4466 O 411.082 0.236063 -1.75419 0
M  V30 4467 C 408.211 0.153636 -3.42956 0
M  V30 4468 C 407.297 -0.801918 -4.16449 0
M  V30 4469 N 407.688 -1.95211 -4.66611 0
M  V30 4470 C 405.986 -0.618972 -4.41684 0
M  V30 4471 C 406.687 -2.55234 -5.22715 0
M  V30 4472 N 405.663 -1.83451 -5.1171 0
M  V30 4473 H 409.465 -1.40189 -2.58311 0
M  V30 4474 H 406.979 -0.86159 -1.3766 0
M  V30 4475 H 408.976 0.510534 -4.13762 0
M  V30 4476 H 407.636 1.02684 -3.08036 0
M  V30 4477 H 408.647 -2.33271 -4.62391 0
M  V30 4478 H 405.324 0.207694 -4.16983 0
M  V30 4479 H 406.714 -3.52471 -5.72026 0
M  V30 4480 N 409.434 1.37368 -0.772513 0
M  V30 4481 C 410.662 2.03942 -0.348588 0
M  V30 4482 C 411.077 1.58264 1.02947 0
M  V30 4483 O 410.434 0.764246 1.65727 0
M  V30 4484 C 410.485 3.5946 -0.38351 0
M  V30 4485 O 410.206 4.03468 -1.70721 0
M  V30 4486 C 411.707 4.4327 0.0519152 0
M  V30 4487 H 408.927 0.654931 -0.145966 0
M  V30 4488 H 411.471 1.75686 -1.04665 0
M  V30 4489 H 409.626 3.86486 0.265978 0
M  V30 4490 H 410.04 4.97991 -1.64636 0
M  V30 4491 H 411.514 5.51995 -0.0236733 0
M  V30 4492 H 411.991 4.2514 1.10238 0
M  V30 4493 H 412.597 4.21471 -0.569415 0
M  V30 4494 N 410.912 0.523116 1.48665 0
M  V30 4495 C 412.328 0.180511 1.58576 0
M  V30 4496 C 412.528 -1.31597 1.52592 0
M  V30 4497 O 411.584 -2.0937 1.4114 0
M  V30 4498 C 412.897 0.776949 2.90489 0
M  V30 4499 C 414.445 0.745058 3.04003 0
M  V30 4500 C 414.92 1.31995 4.38567 0
M  V30 4501 N 416.411 1.28162 4.45117 0
M  V30 4502 C 417.146 1.6964 5.47731 0
M  V30 4503 N 416.642 2.18816 6.57337 0
M  V30 4504 N 418.435 1.6092 5.38573 0
M  V30 4505 H 410.586 1.4958 1.50797 0
M  V30 4506 H 412.849 0.621772 0.715614 0
M  V30 4507 H 412.555 1.82732 3.00503 0
M  V30 4508 H 412.429 0.25007 3.7637 0
M  V30 4509 H 414.816 -0.296532 2.93606 0
M  V30 4510 H 414.897 1.30933 2.1975 0
M  V30 4511 H 414.541 2.36043 4.49718 0
M  V30 4512 H 414.471 0.731418 5.21496 0
M  V30 4513 H 416.962 0.92155 3.66491 0
M  V30 4514 H 417.275 2.48478 7.31764 0
M  V30 4515 H 415.62 2.22805 6.58318 0
M  V30 4516 H 418.811 1.22304 4.5184 0
M  V30 4517 H 418.984 1.93567 6.18414 0
M  V30 4518 N 412.39 -1.55475 0.257931 0
M  V30 4519 C 413.636 -2.00237 -0.357338 0
M  V30 4520 C 413.991 -1.14313 -1.54759 0
M  V30 4521 O 413.284 -0.201187 -1.90541 0
M  V30 4522 C 413.478 -3.48183 -0.806433 0
M  V30 4523 C 413.307 -4.48422 0.338758 0
M  V30 4524 C 412.077 -4.98651 0.817011 0
M  V30 4525 C 414.275 -5.00827 1.16949 0
M  V30 4526 N 412.257 -5.82658 1.93346 0
M  V30 4527 C 413.628 -5.82113 2.13413 0
M  V30 4528 C 415.683 -4.83104 1.2048 0
M  V30 4529 C 414.386 -6.47566 3.13131 0
M  V30 4530 C 416.412 -5.49343 2.19034 0
M  V30 4531 C 415.774 -6.30427 3.14232 0
M  V30 4532 H 411.873 -0.776034 -0.0964083 0
M  V30 4533 H 414.457 -1.90995 0.37803 0
M  V30 4534 H 412.628 -3.57801 -1.51107 0
M  V30 4535 H 414.36 -3.79802 -1.39758 0
M  V30 4536 H 411.115 -4.71914 0.39925 0
M  V30 4537 H 411.539 -6.29356 2.49478 0
M  V30 4538 H 416.181 -4.20036 0.482634 0
M  V30 4539 H 413.899 -7.09793 3.8629 0
M  V30 4540 H 417.485 -5.37579 2.22485 0
M  V30 4541 H 416.365 -6.80777 3.89246 0
M  V30 4542 N 413.868 0.0150385 -1.57593 0
M  V30 4543 C 414.778 1.02791 -2.10882 0
M  V30 4544 C 415.794 1.38702 -1.0506 0
M  V30 4545 O 416.97 1.47739 -1.36877 0
M  V30 4546 C 414.035 2.30568 -2.58919 0
M  V30 4547 C 413.096 2.01108 -3.79281 0
M  V30 4548 C 412.329 3.22794 -4.25018 0
M  V30 4549 O 412.552 4.33959 -3.70183 0
M  V30 4550 O 411.486 3.07672 -5.17322 0
M  V30 4551 H 415.312 0.604973 -2.97613 0
M  V30 4552 H 412.897 0.23292 -1.47573 0
M  V30 4553 H 414.779 3.05662 -2.90084 0
M  V30 4554 H 413.454 2.72129 -1.75293 0
M  V30 4555 H 412.361 1.23537 -3.53114 0
M  V30 4556 H 413.694 1.64394 -4.63935 0
M  V30 4557 N 415.346 1.54954 0.287554 0
M  V30 4558 C 416.576 1.78622 1.03816 0
M  V30 4559 C 416.984 0.552451 1.80955 0
M  V30 4560 O 416.327 -0.487665 1.77109 0
M  V30 4561 C 416.389 2.94975 2.055 0
M  V30 4562 C 416.053 4.32565 1.47433 0
M  V30 4563 C 417.05 5.12096 0.897436 0
M  V30 4564 C 414.735 4.79195 1.50591 0
M  V30 4565 C 416.729 6.36383 0.359851 0
M  V30 4566 C 414.416 6.03441 0.964459 0
M  V30 4567 C 415.414 6.81872 0.392413 0
M  V30 4568 O 415.102 8.03777 -0.140788 0
M  V30 4569 H 414.834 0.599144 0.313053 0
M  V30 4570 H 417.388 2.02761 0.328225 0
M  V30 4571 H 415.618 2.66493 2.80211 0
M  V30 4572 H 417.307 3.06097 2.6657 0
M  V30 4573 H 418.073 4.77209 0.865841 0
M  V30 4574 H 413.952 4.18167 1.94055 0
M  V30 4575 H 417.496 6.97545 -0.0872951 0
M  V30 4576 H 413.393 6.37813 0.993246 0
M  V30 4577 H 414.161 8.18495 -0.0287617 0
M  V30 4578 N 416.824 -0.551391 1.4764 0
M  V30 4579 C 418.064 -1.31901 1.56145 0
M  V30 4580 C 418.428 -1.90724 0.221013 0
M  V30 4581 O 419.629 -2.6819 0.180945 0
M  V30 4582 C 417.9 -2.39517 2.65267 0
M  V30 4583 S 419.459 -3.26289 2.93395 0
M  V30 4584 H 416.277 -0.448965 0.551318 0
M  V30 4585 H 418.879 -0.630599 1.85051 0
M  V30 4586 H 417.583 -1.94747 3.6125 0
M  V30 4587 H 417.114 -3.13092 2.38195 0
M  V30 4588 H 419.129 -4.39122 2.31055 0
M  V30 4589 N 418.302 -1.35869 -0.798587 0
M  V30 4590 C 419.265 -1.29307 -1.89242 0
M  V30 4591 C 420.265 -0.202747 -1.59517 0
M  V30 4592 O 421.455 -0.456957 -1.681 0
M  V30 4593 C 418.587 -1.00229 -3.25833 0
M  V30 4594 H 419.78 -2.26576 -1.96478 0
M  V30 4595 H 417.333 -1.20509 -0.995358 0
M  V30 4596 H 418.068 -0.033801 -3.24282 0
M  V30 4597 H 417.853 -1.79121 -3.48795 0
M  V30 4598 H 419.343 -0.98219 -4.05885 0
M  V30 4599 N 419.78 1.02168 -1.19998 0
M  V30 4600 C 421.029 1.75091 -1.0013 0
M  V30 4601 C 421.342 1.89923 0.467835 0
M  V30 4602 O 422.548 2.59888 0.785515 0
M  V30 4603 C 421.004 3.14892 -1.74273 0
M  V30 4604 C 420.612 3.0809 -3.25245 0
M  V30 4605 C 422.356 3.9206 -1.62755 0
M  V30 4606 C 420.263 4.42867 -3.91948 0
M  V30 4607 H 419.193 0.656394 -0.37103 0
M  V30 4608 H 421.844 1.14284 -1.43567 0
M  V30 4609 H 420.226 3.7621 -1.2362 0
M  V30 4610 H 421.4 2.5611 -3.83072 0
M  V30 4611 H 419.715 2.44416 -3.3712 0
M  V30 4612 H 422.312 4.91764 -2.09934 0
M  V30 4613 H 422.655 4.12199 -0.582894 0
M  V30 4614 H 423.188 3.37359 -2.10793 0
M  V30 4615 H 419.927 4.27931 -4.96543 0
M  V30 4616 H 419.447 4.94874 -3.3891 0
M  V30 4617 H 421.126 5.11728 -3.95909 0
M  V30 4618 N 421.258 1.00505 1.21394 0
M  V30 4619 C 422.205 0.565496 2.23765 0
M  V30 4620 C 423.175 -0.408466 1.60999 0
M  V30 4621 O 424.36 -0.310503 1.88257 0
M  V30 4622 C 421.5 -0.101667 3.4495 0
M  V30 4623 C 420.613 0.915479 4.22188 0
M  V30 4624 C 419.748 0.220574 5.30742 0
M  V30 4625 C 418.787 1.22527 5.99711 0
M  V30 4626 N 417.924 0.557831 6.9988 0
M  V30 4627 H 422.764 1.44314 2.60725 0
M  V30 4628 H 420.301 0.722643 1.28126 0
M  V30 4629 H 422.259 -0.505504 4.14126 0
M  V30 4630 H 420.889 -0.94303 3.08718 0
M  V30 4631 H 419.941 1.43756 3.52191 0
M  V30 4632 H 421.253 1.68005 4.69655 0
M  V30 4633 H 420.407 -0.239368 6.06228 0
M  V30 4634 H 419.146 -0.576401 4.84282 0
M  V30 4635 H 418.151 1.69571 5.22997 0
M  V30 4636 H 419.376 2.02332 6.48258 0
M  V30 4637 H 417.322 -0.219486 6.55633 0
M  V30 4638 H 417.239 1.26065 7.45415 0
M  V30 4639 H 418.507 0.121095 7.79406 0
M  V30 4640 N 422.737 -1.36956 0.779787 0
M  V30 4641 C 423.965 -2.03755 0.359398 0
M  V30 4642 C 424.38 -1.58807 -1.02106 0
M  V30 4643 O 423.737 -0.773024 -1.6532 0
M  V30 4644 C 423.788 -3.59251 0.402568 0
M  V30 4645 O 423.509 -4.02557 1.72858 0
M  V30 4646 C 425.01 -4.43291 -0.0284068 0
M  V30 4647 H 422.23 -0.654148 0.149437 0
M  V30 4648 H 424.774 -1.75128 1.05595 0
M  V30 4649 H 422.929 -3.86621 -0.245478 0
M  V30 4650 H 423.343 -4.97111 1.67275 0
M  V30 4651 H 424.817 -5.51975 0.0529466 0
M  V30 4652 H 425.294 -4.25719 -1.07982 0
M  V30 4653 H 425.9 -4.21163 0.591758 0
M  V30 4654 N 424.215 -0.530993 -1.48385 0
M  V30 4655 C 425.455 0.000718982 -2.044 0
M  V30 4656 C 425.819 1.31485 -1.39913 0
M  V30 4657 O 427.02 1.93265 -1.86821 0
M  V30 4658 C 425.291 0.119177 -3.57201 0
M  V30 4659 S 426.85 0.600806 -4.34667 0
M  V30 4660 H 423.668 -0.0125473 -0.710889 0
M  V30 4661 H 426.27 -0.711783 -1.82082 0
M  V30 4662 H 424.974 -0.842061 -4.01668 0
M  V30 4663 H 424.505 0.856026 -3.83974 0
M  V30 4664 H 426.52 1.86514 -4.59812 0
M  V30 4665 N 425.693 1.55336 -0.266172 0
M  V30 4666 C 426.656 2.20878 0.612001 0
M  V30 4667 C 427.656 1.18388 1.08816 0
M  V30 4668 O 428.846 1.4335 0.989774 0
M  V30 4669 C 425.978 2.86765 1.84332 0
M  V30 4670 H 427.171 2.99873 0.0398718 0
M  V30 4671 H 424.724 1.56291 -0.0167309 0
M  V30 4672 H 425.459 2.11759 2.45619 0
M  V30 4673 H 425.244 3.61862 1.5099 0
M  V30 4674 H 426.734 3.36867 2.46801 0
M  V30 4675 N 427.171 -0.0066808 1.57599 0
M  V30 4676 C 428.448 -0.729586 1.81484 0
M  V30 4677 C 428.828 -1.92359 0.869558 0
M  V30 4678 O 428.176 -2.28348 -0.0832533 0
M  V30 4679 C 428.386 -1.1416 3.29801 0
M  V30 4680 C 429.734 -1.54823 3.95367 0
M  V30 4681 O 430.758 -1.23558 3.34084 0
M  V30 4682 O 429.617 -2.12937 5.03309 0
M  V30 4683 H 426.711 -0.354674 0.747085 0
M  V30 4684 H 429.257 0.0182609 1.6969 0
M  V30 4685 H 428.029 -0.290231 3.90222 0
M  V30 4686 H 427.652 -1.94876 3.46568 0
M  V30 4687 N 428.649 -1.55105 -0.279332 0
M  V30 4688 C 429.597 -1.88333 -1.36505 0
M  V30 4689 C 430.591 -0.759043 -1.51443 0
M  V30 4690 O 431.797 -0.943312 -1.53302 0
M  V30 4691 H 428.172 -0.59766 -0.456406 0
M  V30 4692 H 430.143 -2.79041 -1.05728 0
M  V30 4693 C 428.892 -2.16628 -2.7197 0
M  V30 4694 H 428.215 -3.02624 -2.61264 0
M  V30 4695 H 429.655 -2.43803 -3.46895 0
M  V30 4696 C 428.114 -0.971807 -3.22579 0
M  V30 4697 O 428.644 -0.203228 -4.01186 0
M  V30 4698 N 426.85 -0.771238 -2.80179 0
M  V30 4699 H 426.397 -1.39792 -2.1637 0
M  V30 4700 H 426.355 0.0263667 -3.14389 0
M  V30 4701 N 430.127 0.543554 -1.4793 0
M  V30 4702 C 431.355 1.32516 -1.58894 0
M  V30 4703 C 431.77 1.87215 -0.244131 0
M  V30 4704 O 431.127 1.65709 0.764652 0
M  V30 4705 C 431.178 2.48554 -2.62494 0
M  V30 4706 O 430.899 1.96112 -3.91755 0
M  V30 4707 C 432.4 3.40572 -2.8377 0
M  V30 4708 H 429.62 0.403472 -0.536145 0
M  V30 4709 H 432.164 0.657106 -1.93655 0
M  V30 4710 H 430.319 3.1127 -2.30629 0
M  V30 4711 H 430.733 2.71967 -4.4848 0
M  V30 4712 H 432.207 4.18375 -3.60093 0
M  V30 4713 H 432.684 3.94965 -1.92092 0
M  V30 4714 H 433.29 2.8366 -3.16887 0
M  V30 4715 N 431.605 1.3629 0.791371 0
M  V30 4716 C 432.538 1.24816 1.9104 0
M  V30 4717 C 433.516 0.132739 1.62057 0
M  V30 4718 O 434.7 0.303527 1.8604 0
M  V30 4719 C 431.827 0.925355 3.25814 0
M  V30 4720 C 430.873 2.05495 3.7373 0
M  V30 4721 S 431.706 3.67255 3.89723 0
M  V30 4722 C 432.862 3.37084 5.27376 0
M  V30 4723 H 433.095 2.19533 2.00481 0
M  V30 4724 H 430.628 1.21684 0.950393 0
M  V30 4725 H 432.586 0.745924 4.03666 0
M  V30 4726 H 431.247 -0.00400098 3.141 0
M  V30 4727 H 430.44 1.7836 4.71385 0
M  V30 4728 H 430.042 2.1935 3.02922 0
M  V30 4729 H 432.334 2.90856 6.1189 0
M  V30 4730 H 433.277 4.33995 5.59512 0
M  V30 4731 H 433.685 2.7248 4.94383 0
M  V30 4732 N 433.083 -1.0153 1.20538 0
M  V30 4733 C 434.031 -2.12215 0.952235 0
M  V30 4734 C 435.025 -1.69123 -0.0968735 0
M  V30 4735 O 436.231 -1.7992 0.0536006 0
M  V30 4736 H 432.606 -0.693576 0.290613 0
M  V30 4737 H 434.577 -2.3075 1.89201 0
M  V30 4738 C 433.326 -3.43755 0.522287 0
M  V30 4739 H 432.649 -3.7734 1.32115 0
M  V30 4740 H 434.089 -4.22254 0.384389 0
M  V30 4741 C 432.548 -3.28088 -0.765489 0
M  V30 4742 O 433.078 -3.57921 -1.8236 0
M  V30 4743 N 431.284 -2.81333 -0.728011 0
M  V30 4744 H 430.831 -2.57255 0.133332 0
M  V30 4745 H 430.789 -2.71232 -1.58999 0
M  V30 4746 N 434.561 -1.01147 -1.20859 0
M  V30 4747 C 435.838 -0.613136 -1.85742 0
M  V30 4748 C 436.218 0.909004 -1.90526 0
M  V30 4749 O 435.566 1.79862 -1.40932 0
M  V30 4750 C 435.776 -1.255 -3.25654 0
M  V30 4751 C 437.124 -1.3672 -4.01986 0
M  V30 4752 O 438.148 -1.21082 -3.34989 0
M  V30 4753 O 437.007 -1.6194 -5.21956 0
M  V30 4754 H 434.101 -0.210878 -0.799662 0
M  V30 4755 H 436.647 -1.10853 -1.2849 0
M  V30 4756 H 435.419 -2.29532 -3.16908 0
M  V30 4757 H 435.042 -0.746369 -3.90532 0
M  V30 4758 N 436.039 1.36541 -0.78704 0
M  V30 4759 C 437.267 2.03561 -0.370199 0
M  V30 4760 C 437.682 1.59347 1.01263 0
M  V30 4761 O 437.039 0.781781 1.64907 0
M  V30 4762 C 437.09 3.59033 -0.421614 0
M  V30 4763 O 436.811 4.01634 -1.7499 0
M  V30 4764 C 438.312 4.433 0.00489763 0
M  V30 4765 H 435.532 0.653346 -0.152904 0
M  V30 4766 H 438.076 1.74566 -1.06522 0
M  V30 4767 H 436.231 3.86746 0.224971 0
M  V30 4768 H 436.645 4.96217 -1.69909 0
M  V30 4769 H 438.119 5.51939 -0.0822184 0
M  V30 4770 H 438.596 4.26285 1.05723 0
M  V30 4771 H 439.202 4.20843 -0.614085 0
M  V30 4772 N 437.518 0.538854 1.48102 0
M  V30 4773 C 438.795 -0.0568108 1.95517 0
M  V30 4774 C 439.175 -1.50408 1.48124 0
M  V30 4775 O 438.523 -2.17133 0.711727 0
M  V30 4776 C 438.733 0.0696262 3.48931 0
M  V30 4777 C 440.081 -0.0851202 4.24515 0
M  V30 4778 O 441.105 -0.0037347 3.562 0
M  V30 4779 O 439.964 -0.257025 5.45895 0
M  V30 4780 H 437.058 -0.0743695 0.823649 0
M  V30 4781 H 439.604 0.604081 1.58584 0
M  V30 4782 H 438.376 1.07744 3.76174 0
M  V30 4783 H 437.999 -0.629714 3.92582 0
M  V30 4784 N 438.996 -1.55193 0.274407 0
M  V30 4785 C 440.242 -1.99877 -0.343086 0
M  V30 4786 C 440.575 -1.16256 -1.55558 0
M  V30 4787 O 439.85 -0.232462 -1.93106 0
M  V30 4788 C 440.133 -3.52706 -0.725965 0
M  V30 4789 C 439.986 -4.47081 0.493818 0
M  V30 4790 C 441.305 -4.11422 -1.56268 0
M  V30 4791 H 438.424 -0.726625 -0.123229 0
M  V30 4792 H 441.066 -1.86136 0.38121 0
M  V30 4793 H 439.216 -3.64546 -1.34307 0
M  V30 4794 H 440.888 -4.47186 1.13237 0
M  V30 4795 H 439.131 -4.1877 1.13201 0
M  V30 4796 H 439.802 -5.51699 0.18217 0
M  V30 4797 H 442.278 -4.02855 -1.04151 0
M  V30 4798 H 441.154 -5.18568 -1.79939 0
M  V30 4799 H 441.415 -3.61607 -2.54348 0
M  V30 4800 N 440.474 -0.00167713 -1.576 0
M  V30 4801 C 441.885 0.54091 -1.78693 0
M  V30 4802 C 442.236 1.7386 -0.909247 0
M  V30 4803 O 441.361 2.16109 -0.112176 0
M  V30 4804 C 441.956 0.98806 -3.24072 0
M  V30 4805 C 440.515 1.47594 -3.46256 0
M  V30 4806 C 439.662 0.42792 -2.73978 0
M  V30 4807 H 442.613 -0.22784 -1.57056 0
M  V30 4808 H 442.634 1.85398 -3.32277 0
M  V30 4809 H 442.146 0.116164 -3.87926 0
M  V30 4810 H 440.247 2.36868 -2.87618 0
M  V30 4811 H 440.36 1.50225 -4.54939 0
M  V30 4812 H 438.724 0.889934 -2.38647 0
M  V30 4813 H 439.507 -0.435038 -3.40532 0
M  V30 4814 N 441.952 1.55251 0.271103 0
M  V30 4815 C 442.882 1.9127 1.33933 0
M  V30 4816 C 443.863 0.77478 1.5143 0
M  V30 4817 O 445.048 1.03307 1.64442 0
M  V30 4818 C 442.178 2.18627 2.69851 0
M  V30 4819 C 441.132 3.34442 2.67081 0
M  V30 4820 C 440.458 3.47284 4.06569 0
M  V30 4821 C 441.758 4.70784 2.26185 0
M  V30 4822 H 443.452 2.80744 1.04035 0
M  V30 4823 H 440.998 1.35077 0.499017 0
M  V30 4824 H 442.951 2.42413 3.44694 0
M  V30 4825 H 441.675 1.25955 3.01335 0
M  V30 4826 H 440.334 3.10627 1.94695 0
M  V30 4827 H 439.982 2.52074 4.35279 0
M  V30 4828 H 439.682 4.25152 4.0561 0
M  V30 4829 H 441.206 3.73363 4.83148 0
M  V30 4830 H 442.62 4.94102 2.90751 0
M  V30 4831 H 441.017 5.51582 2.36384 0
M  V30 4832 H 442.087 4.69478 1.21319 0
M  V30 4833 N 443.43 -0.535701 1.48216 0
M  V30 4834 C 444.34 -1.66785 1.64985 0
M  V30 4835 C 445.356 -1.65654 0.532414 0
M  V30 4836 O 446.532 -1.8471 0.80275 0
M  V30 4837 C 443.597 -3.0326 1.68031 0
M  V30 4838 C 442.658 -3.1529 2.9136 0
M  V30 4839 C 441.891 -4.45255 2.94252 0
M  V30 4840 O 442.114 -5.32011 2.05719 0
M  V30 4841 O 441.048 -4.6153 3.86359 0
M  V30 4842 H 444.874 -1.55576 2.60825 0
M  V30 4843 H 442.459 -0.70815 1.31551 0
M  V30 4844 H 444.341 -3.84436 1.72589 0
M  V30 4845 H 443.016 -3.14805 0.753628 0
M  V30 4846 H 441.923 -2.3343 2.92337 0
M  V30 4847 H 443.256 -3.08658 3.83394 0
M  V30 4848 N 444.908 -1.36708 -0.784132 0
M  V30 4849 C 446.136 -1.34398 -1.57305 0
M  V30 4850 C 446.551 0.0735577 -1.88657 0
M  V30 4851 O 445.908 1.03193 -1.50524 0
M  V30 4852 C 445.959 -2.17053 -2.89085 0
M  V30 4853 O 445.68 -3.53281 -2.59083 0
M  V30 4854 C 447.181 -2.22583 -3.83369 0
M  V30 4855 H 444.401 -0.460819 -0.487736 0
M  V30 4856 H 446.945 -1.79879 -0.972819 0
M  V30 4857 H 445.1 -1.75113 -3.45564 0
M  V30 4858 H 445.514 -3.9647 -3.43383 0
M  V30 4859 H 446.988 -2.84763 -4.72878 0
M  V30 4860 H 447.465 -1.23075 -4.21603 0
M  V30 4861 H 448.071 -2.64781 -3.32823 0
M  V30 4862 N 446.386 1.0089 -1.21074 0
M  V30 4863 C 447.614 1.78191 -1.05145 0
M  V30 4864 C 448.029 1.84537 0.398952 0
M  V30 4865 O 447.386 1.30393 1.27687 0
M  V30 4866 C 447.437 3.22288 -1.63746 0
M  V30 4867 O 447.158 3.16315 -3.03111 0
M  V30 4868 C 448.659 4.16106 -1.52875 0
M  V30 4869 H 445.879 0.560129 -0.369454 0
M  V30 4870 H 448.423 1.26945 -1.60328 0
M  V30 4871 H 446.578 3.70655 -1.12664 0
M  V30 4872 H 446.992 4.06817 -3.31059 0
M  V30 4873 H 448.466 5.15026 -1.98626 0
M  V30 4874 H 448.943 4.36541 -0.482521 0
M  V30 4875 H 449.549 3.73625 -2.03185 0
M  V30 4876 N 447.864 1.01787 1.20321 0
M  V30 4877 C 448.774 0.598898 2.26827 0
M  V30 4878 C 449.79 -0.36418 1.70146 0
M  V30 4879 O 450.966 -0.224812 2.00141 0
M  V30 4880 C 448.031 -0.0549769 3.46656 0
M  V30 4881 C 447.092 0.954205 4.18561 0
M  V30 4882 C 446.325 0.331439 5.3267 0
M  V30 4883 O 446.548 -0.86851 5.63749 0
M  V30 4884 O 445.482 1.0488 5.92692 0
M  V30 4885 H 449.308 1.48562 2.64883 0
M  V30 4886 H 446.893 0.787434 1.26964 0
M  V30 4887 H 448.775 -0.420102 4.19301 0
M  V30 4888 H 447.45 -0.915876 3.10473 0
M  V30 4889 H 446.357 1.37072 3.48083 0
M  V30 4890 H 447.69 1.78511 4.58688 0
M  V30 4891 N 449.342 -1.36122 0.79427 0
M  V30 4892 C 450.582 -2.00942 0.374376 0
M  V30 4893 C 450.946 -1.61666 -1.03577 0
M  V30 4894 O 452.147 -2.19113 -1.55701 0
M  V30 4895 C 450.418 -3.53323 0.538327 0
M  V30 4896 S 451.977 -4.38311 0.20703 0
M  V30 4897 H 448.795 -0.696515 0.142785 0
M  V30 4898 H 451.397 -1.65929 1.03382 0
M  V30 4899 H 450.101 -3.79395 1.56484 0
M  V30 4900 H 449.632 -3.93162 -0.136882 0
M  V30 4901 H 451.647 -4.8623 -0.989695 0
M  V30 4902 N 450.82 -0.546701 -1.47814 0
M  V30 4903 C 452.069 -0.0166497 -2.01693 0
M  V30 4904 C 452.382 1.33721 -1.42752 0
M  V30 4905 O 453.588 1.95658 -1.8823 0
M  V30 4906 C 452.044 0.0206769 -3.59894 0
M  V30 4907 C 451.652 -1.3293 -4.27824 0
M  V30 4908 C 453.396 0.498674 -4.21561 0
M  V30 4909 C 451.303 -1.25165 -5.78003 0
M  V30 4910 H 450.233 -0.0024541 -0.753996 0
M  V30 4911 H 452.884 -0.692984 -1.69912 0
M  V30 4912 H 451.266 0.76244 -3.88591 0
M  V30 4913 H 452.44 -2.08795 -4.10781 0
M  V30 4914 H 450.755 -1.74438 -3.78101 0
M  V30 4915 H 453.352 0.575 -5.31599 0
M  V30 4916 H 453.695 1.5083 -3.88016 0
M  V30 4917 H 454.228 -0.18791 -3.97356 0
M  V30 4918 H 450.967 -2.23695 -6.1615 0
M  V30 4919 H 450.487 -0.53464 -5.97412 0
M  V30 4920 H 452.166 -0.949299 -6.39998 0
M  V30 4921 N 452.299 1.55045 -0.282633 0
M  V30 4922 C 453.231 2.2023 0.634924 0
M  V30 4923 C 454.244 1.18931 1.11172 0
M  V30 4924 O 455.433 1.4562 1.03233 0
M  V30 4925 C 452.533 2.82041 1.87899 0
M  V30 4926 C 451.706 4.091 1.54776 0
M  V30 4927 C 450.765 4.54887 2.64507 0
M  V30 4928 O 449.791 5.20496 2.30375 0
M  V30 4929 N 450.993 4.25659 3.94709 0
M  V30 4930 H 453.758 2.99601 0.0769811 0
M  V30 4931 H 451.319 1.61565 -0.104048 0
M  V30 4932 H 453.311 3.09613 2.60619 0
M  V30 4933 H 451.881 2.06618 2.3458 0
M  V30 4934 H 451.101 3.88736 0.654049 0
M  V30 4935 H 452.389 4.9187 1.30158 0
M  V30 4936 H 451.787 3.7306 4.25256 0
M  V30 4937 H 450.344 4.57984 4.63782 0
M  V30 4938 N 453.777 0.010035 1.57597 0
M  V30 4939 C 455.025 -0.671371 1.90623 0
M  V30 4940 C 455.346 -1.73753 0.885151 0
M  V30 4941 O 454.616 -1.95752 -0.0760611 0
M  V30 4942 H 453.196 -0.250968 0.703579 0
M  V30 4943 H 455.858 0.0533325 1.94827 0
M  V30 4944 H 454.954 -1.13626 2.90681 0
M  V30 4945 N 455.255 -1.55392 -0.262866 0
M  V30 4946 C 456.187 -1.85392 -1.34768 0
M  V30 4947 C 457.2 -0.739069 -1.45057 0
M  V30 4948 O 458.389 -1.01703 -1.46693 0
M  V30 4949 C 455.489 -2.01088 -2.72795 0
M  V30 4950 C 454.662 -3.31828 -2.84972 0
M  V30 4951 C 453.721 -3.37464 -4.03738 0
M  V30 4952 O 452.747 -4.10778 -3.94018 0
M  V30 4953 N 453.949 -2.65599 -5.16176 0
M  V30 4954 H 456.714 -2.79029 -1.09375 0
M  V30 4955 H 454.275 -1.55434 -0.452981 0
M  V30 4956 H 456.267 -2.02217 -3.50557 0
M  V30 4957 H 454.837 -1.1427 -2.90966 0
M  V30 4958 H 454.057 -3.43152 -1.94012 0
M  V30 4959 H 455.345 -4.18032 -2.90045 0
M  V30 4960 H 454.743 -2.05736 -5.26962 0
M  V30 4961 H 453.3 -2.72439 -5.92132 0
M  V30 4962 N 456.733 0.527833 -1.48498 0
M  V30 4963 C 457.981 1.28101 -1.56316 0
M  V30 4964 C 458.302 1.9352 -0.239781 0
M  V30 4965 O 457.572 1.81433 0.738849 0
M  V30 4966 H 456.152 0.475793 -0.575873 0
M  V30 4967 H 458.814 0.614052 -1.84974 0
M  V30 4968 H 457.91 2.05916 -2.34532 0
M  V30 4969 N 458.211 1.37122 0.776871 0
M  V30 4970 C 459.121 1.34651 1.9211 0
M  V30 4971 C 460.137 0.246824 1.7224 0
M  V30 4972 O 461.313 0.48134 1.95563 0
M  V30 4973 C 458.378 1.14748 3.2716 0
M  V30 4974 C 457.439 2.34308 3.5972 0
M  V30 4975 C 456.672 2.15345 4.88326 0
M  V30 4976 O 456.895 1.13507 5.58992 0
M  V30 4977 O 455.829 3.03414 5.1983 0
M  V30 4978 H 459.655 2.31013 1.97146 0
M  V30 4979 H 457.24 1.17799 0.918901 0
M  V30 4980 H 459.122 1.05616 4.0795 0
M  V30 4981 H 457.797 0.214562 3.22988 0
M  V30 4982 H 456.704 2.49011 2.79185 0
M  V30 4983 H 458.037 3.26149 3.68629 0
M  V30 4984 N 459.689 -1.00246 1.21608 0
M  V30 4985 C 460.937 -1.73717 1.0328 0
M  V30 4986 C 461.258 -1.90102 -0.434318 0
M  V30 4987 O 460.528 -1.45376 -1.31311 0
M  V30 4988 H 459.108 -0.643613 0.379172 0
M  V30 4989 H 461.77 -1.20787 1.52959 0
M  V30 4990 H 460.866 -2.73535 1.50283 0
M  V30 4991 N 461.167 -1.02423 -1.1978 0
M  V30 4992 C 462.397 -0.736387 -1.93031 0
M  V30 4993 C 462.805 0.708023 -1.75453 0
M  V30 4994 O 462.148 1.4927 -1.07071 0
M  V30 4995 C 462.21 -1.00194 -3.45255 0
M  V30 4996 C 461.874 -2.43698 -3.86601 0
M  V30 4997 C 462.871 -3.41814 -3.91738 0
M  V30 4998 C 460.556 -2.77975 -4.18372 0
M  V30 4999 C 462.55 -4.72265 -4.28071 0
M  V30 5000 C 460.237 -4.08636 -4.54378 0
M  V30 5001 C 461.235 -5.05592 -4.59201 0
M  V30 5002 O 460.923 -6.33914 -4.94376 0
M  V30 5003 H 460.655 -0.269116 -0.620123 0
M  V30 5004 H 463.209 -1.37043 -1.52998 0
M  V30 5005 H 461.439 -0.310747 -3.85449 0
M  V30 5006 H 463.128 -0.704488 -3.9974 0
M  V30 5007 H 463.894 -3.16671 -3.67348 0
M  V30 5008 H 459.773 -2.0319 -4.13805 0
M  V30 5009 H 463.317 -5.4794 -4.3175 0
M  V30 5010 H 459.214 -4.33556 -4.78226 0
M  V30 5011 H 459.982 -6.38317 -5.12341 0
M  V30 5012 N 462.645 1.35699 -0.801477 0
M  V30 5013 C 464.061 1.52065 -0.484596 0
M  V30 5014 C 464.261 1.75215 0.995084 0
M  V30 5015 O 463.317 1.79061 1.78026 0
M  V30 5016 C 464.63 2.69908 -1.32552 0
M  V30 5017 C 466.178 2.83784 -1.32044 0
M  V30 5018 C 466.653 4.04646 -2.14536 0
M  V30 5019 N 468.144 4.11814 -2.12046 0
M  V30 5020 C 468.879 5.04437 -2.72636 0
M  V30 5021 N 468.375 6.02426 -3.42133 0
M  V30 5022 N 470.168 4.97144 -2.62305 0
M  V30 5023 H 462.319 1.18928 -1.75983 0
M  V30 5024 H 464.582 0.581455 -0.748741 0
M  V30 5025 H 464.288 2.59363 -2.37537 0
M  V30 5026 H 464.162 3.64376 -0.975181 0
M  V30 5027 H 466.549 2.93783 -0.27846 0
M  V30 5028 H 466.63 1.90188 -1.71062 0
M  V30 5029 H 466.274 3.95407 -3.18772 0
M  V30 5030 H 466.204 4.97413 -1.72882 0
M  V30 5031 H 468.695 3.41664 -1.61476 0
M  V30 5032 H 469.008 6.69688 -3.85666 0
M  V30 5033 H 467.353 6.02615 -3.46237 0
M  V30 5034 H 470.544 4.19546 -2.07603 0
M  V30 5035 H 470.717 5.69138 -3.09815 0
M  V30 5036 N 464.123 0.554532 1.47522 0
M  V30 5037 C 465.371 0.0294208 2.02079 0
M  V30 5038 C 465.692 -1.32411 1.43151 0
M  V30 5039 O 464.962 -1.863 0.605728 0
M  V30 5040 H 463.542 0.00788672 0.746958 0
M  V30 5041 H 466.204 0.723934 1.80956 0
M  V30 5042 H 465.3 -0.0606745 3.12041 0
M  V30 5043 N 465.601 -1.54893 0.290851 0
M  V30 5044 C 466.829 -2.04343 -0.324288 0
M  V30 5045 C 467.244 -1.16859 -1.48289 0
M  V30 5046 O 466.601 -0.192018 -1.81487 0
M  V30 5047 C 466.652 -3.52756 -0.79026 0
M  V30 5048 O 466.373 -4.36913 0.322213 0
M  V30 5049 C 467.874 -4.18161 -1.4716 0
M  V30 5050 H 465.094 -0.667135 -0.0719173 0
M  V30 5051 H 467.638 -1.99981 0.427529 0
M  V30 5052 H 465.793 -3.57511 -1.49213 0
M  V30 5053 H 466.207 -5.24486 -0.0387372 0
M  V30 5054 H 467.681 -5.23562 -1.7489 0
M  V30 5055 H 468.158 -3.67282 -2.40834 0
M  V30 5056 H 468.764 -4.17454 -0.813178 0
M  V30 5057 N 467.08 -0.0183926 -1.57589 0
M  V30 5058 C 468.326 0.663543 -1.91638 0
M  V30 5059 C 468.659 1.72392 -0.894134 0
M  V30 5060 O 467.934 1.94316 0.0846449 0
M  V30 5061 C 468.217 1.28984 -3.36207 0
M  V30 5062 C 468.07 0.239761 -4.49161 0
M  V30 5063 C 469.389 2.2109 -3.80536 0
M  V30 5064 H 466.508 0.239746 -0.696915 0
M  V30 5065 H 469.15 -0.073456 -1.89858 0
M  V30 5066 H 467.3 1.91799 -3.37854 0
M  V30 5067 H 468.972 -0.390119 -4.59647 0
M  V30 5068 H 467.215 -0.435972 -4.31604 0
M  V30 5069 H 467.886 0.717383 -5.47319 0
M  V30 5070 H 470.362 1.68273 -3.80557 0
M  V30 5071 H 469.238 2.61869 -4.82406 0
M  V30 5072 H 469.499 3.09764 -3.15434 0
M  V30 5073 N 468.558 1.5553 0.254621 0
M  V30 5074 C 469.506 1.9048 1.33492 0
M  V30 5075 C 470.5 0.78304 1.50216 0
M  V30 5076 O 471.706 0.967582 1.51782 0
M  V30 5077 H 468.081 0.604846 0.44684 0
M  V30 5078 H 470.052 2.80688 1.01275 0
M  V30 5079 C 468.801 2.20928 2.68489 0
M  V30 5080 H 468.124 3.06742 2.56417 0
M  V30 5081 H 469.564 2.49291 3.42972 0
M  V30 5082 C 468.023 1.023 3.20993 0
M  V30 5083 O 468.553 0.267027 4.00811 0
M  V30 5084 N 466.759 0.815714 2.78917 0
M  V30 5085 H 466.306 1.43217 2.14119 0
M  V30 5086 H 466.264 0.0236532 3.14391 0
M  V30 5087 N 470.036 -0.519951 1.48776 0
M  V30 5088 C 471.264 -1.29971 1.60982 0
M  V30 5089 C 471.679 -1.86803 0.273885 0
M  V30 5090 O 471.036 -1.66904 -0.738193 0
M  V30 5091 C 471.087 -2.44346 2.66415 0
M  V30 5092 O 470.808 -1.89855 3.94825 0
M  V30 5093 C 472.309 -3.36014 2.89153 0
M  V30 5094 H 469.529 -0.394891 0.542496 0
M  V30 5095 H 472.073 -0.626214 1.94676 0
M  V30 5096 H 470.228 -3.07562 2.35552 0
M  V30 5097 H 470.642 -2.64798 4.5275 0
M  V30 5098 H 472.116 -4.12593 3.66703 0
M  V30 5099 H 472.593 -3.91859 1.98351 0
M  V30 5100 H 473.199 -2.78582 3.21359 0
M  V30 5101 N 471.514 -1.37532 -0.769588 0
M  V30 5102 C 472.763 -1.32183 -1.5235 0
M  V30 5103 C 473.076 0.0906555 -1.9539 0
M  V30 5104 O 474.282 0.266628 -2.70188 0
M  V30 5105 C 472.738 -2.32029 -2.75119 0
M  V30 5106 C 472.346 -3.78816 -2.3917 0
M  V30 5107 C 474.09 -2.35694 -3.53056 0
M  V30 5108 C 471.997 -4.70388 -3.58453 0
M  V30 5109 H 470.927 -0.491275 -0.571984 0
M  V30 5110 H 473.578 -1.63004 -0.842739 0
M  V30 5111 H 471.96 -1.94229 -3.45096 0
M  V30 5112 H 473.134 -4.25466 -1.76962 0
M  V30 5113 H 471.449 -3.78117 -1.74402 0
M  V30 5114 H 474.046 -3.01312 -4.41718 0
M  V30 5115 H 474.389 -1.37117 -3.93071 0
M  V30 5116 H 474.922 -2.72212 -2.90078 0
M  V30 5117 H 471.661 -5.70102 -3.23518 0
M  V30 5118 H 471.181 -4.28442 -4.19758 0
M  V30 5119 H 472.86 -4.87628 -4.25239 0
M  V30 5120 N 472.992 0.995999 -1.22138 0
M  V30 5121 C 474.238 1.7386 -1.05567 0
M  V30 5122 C 474.593 1.8808 0.405418 0
M  V30 5123 O 473.886 1.41062 1.29661 0
M  V30 5124 C 474.08 3.14553 -1.6968 0
M  V30 5125 C 473.909 3.14053 -3.21871 0
M  V30 5126 C 472.679 3.20121 -3.90961 0
M  V30 5127 C 474.877 2.98451 -4.18845 0
M  V30 5128 N 472.859 3.09342 -5.30265 0
M  V30 5129 C 474.23 2.95667 -5.4496 0
M  V30 5130 C 476.285 2.8282 -4.09777 0
M  V30 5131 C 474.988 2.78852 -6.63049 0
M  V30 5132 C 477.014 2.67364 -5.27513 0
M  V30 5133 C 476.376 2.65264 -6.52544 0
M  V30 5134 H 472.475 0.645989 -0.440706 0
M  V30 5135 H 475.059 1.1831 -1.54631 0
M  V30 5136 H 473.23 3.68353 -1.2317 0
M  V30 5137 H 474.962 3.77358 -1.4623 0
M  V30 5138 H 471.717 3.27679 -3.4194 0
M  V30 5139 H 472.141 3.0727 -6.03253 0
M  V30 5140 H 476.783 2.83243 -3.139 0
M  V30 5141 H 474.501 2.77175 -7.59078 0
M  V30 5142 H 478.087 2.56256 -5.22326 0
M  V30 5143 H 476.967 2.5345 -7.42114 0
M  V30 5144 N 474.47 1.03057 1.19235 0
M  V30 5145 C 475.418 0.606391 2.24557 0
M  V30 5146 C 476.412 -0.361826 1.65491 0
M  V30 5147 O 477.618 -0.23022 1.78522 0
M  V30 5148 H 473.993 0.177838 0.730669 0
M  V30 5149 H 475.964 1.50529 2.5765 0
M  V30 5150 C 474.713 -0.0252127 3.47691 0
M  V30 5151 H 474.036 0.710838 3.9343 0
M  V30 5152 H 475.476 -0.284931 4.23042 0
M  V30 5153 C 473.935 -1.27229 3.11953 0
M  V30 5154 O 474.465 -2.36416 3.24762 0
M  V30 5155 N 472.671 -1.16169 2.6637 0
M  V30 5156 H 472.218 -0.273189 2.56147 0
M  V30 5157 H 472.176 -1.99703 2.42829 0
M  V30 5158 N 475.948 -1.35272 0.808662 0
M  V30 5159 C 477.196 -1.98316 0.389233 0
M  V30 5160 C 477.517 -1.64465 -1.04767 0
M  V30 5161 O 476.787 -0.928175 -1.72516 0
M  V30 5162 H 475.367 -0.733585 0.140935 0
M  V30 5163 H 478.029 -1.6515 1.03496 0
M  V30 5164 H 477.125 -3.08123 0.496631 0
M  V30 5165 N 477.426 -0.562348 -1.47226 0
M  V30 5166 C 478.675 -0.038041 -2.01664 0
M  V30 5167 C 478.988 1.32199 -1.44162 0
M  V30 5168 O 480.194 1.9365 -1.90294 0
M  V30 5169 C 478.65 -0.0174958 -3.59896 0
M  V30 5170 C 478.258 -1.3746 -4.2639 0
M  V30 5171 C 480.002 0.453934 -4.22066 0
M  V30 5172 C 477.909 -1.31289 -5.76643 0
M  V30 5173 H 476.839 -0.0104511 -0.753928 0
M  V30 5174 H 479.49 -0.710966 -1.69167 0
M  V30 5175 H 477.872 0.721182 -3.89378 0
M  V30 5176 H 479.046 -2.1314 -4.08544 0
M  V30 5177 H 477.361 -1.78438 -3.7623 0
M  V30 5178 H 479.958 0.518584 -5.32179 0
M  V30 5179 H 480.301 1.46706 -3.89594 0
M  V30 5180 H 480.834 -0.230044 -3.97134 0
M  V30 5181 H 477.573 -2.30217 -6.13743 0
M  V30 5182 H 477.093 -0.597973 -5.96812 0
M  V30 5183 H 478.772 -1.01713 -6.38955 0
M  V30 5184 N 478.904 1.54736 -0.299062 0
M  V30 5185 C 480.315 1.8569 0.193971 0
M  V30 5186 C 480.666 1.22101 1.53577 0
M  V30 5187 O 479.791 0.51799 2.10109 0
M  V30 5188 C 480.386 3.36895 0.358733 0
M  V30 5189 C 478.945 3.67887 0.795986 0
M  V30 5190 C 478.092 2.77131 -0.096807 0
M  V30 5191 H 481.043 1.49934 -0.520134 0
M  V30 5192 H 481.064 3.61294 1.19361 0
M  V30 5193 H 480.576 3.83148 -0.617998 0
M  V30 5194 H 478.677 3.27151 1.78334 0
M  V30 5195 H 478.79 4.75114 0.616718 0
M  V30 5196 H 477.154 2.51153 0.423581 0
M  V30 5197 H 477.937 3.26204 -1.06986 0
M  V30 5198 N 480.382 0.0267497 1.57577 0
M  V30 5199 C 481.622 -0.65659 1.93567 0
M  V30 5200 C 481.986 -1.69429 0.903213 0
M  V30 5201 O 483.187 -2.42994 1.14923 0
M  V30 5202 C 481.458 -1.25912 3.34486 0
M  V30 5203 S 483.017 -1.96386 3.924 0
M  V30 5204 H 479.835 -0.216237 0.67732 0
M  V30 5205 H 482.437 0.0898475 1.95293 0
M  V30 5206 H 481.141 -0.491405 4.07447 0
M  V30 5207 H 480.672 -2.04291 3.36198 0
M  V30 5208 H 482.687 -3.24202 3.75643 0
M  V30 5209 N 481.861 -1.55662 -0.24637 0
M  V30 5210 C 482.793 -1.86811 -1.32794 0
M  V30 5211 C 483.806 -0.754413 -1.44265 0
M  V30 5212 O 484.995 -1.03253 -1.45606 0
M  V30 5213 C 482.095 -2.0397 -2.70646 0
M  V30 5214 C 481.268 -3.34832 -2.81436 0
M  V30 5215 C 480.327 -3.41727 -4.00136 0
M  V30 5216 O 479.353 -4.14934 -3.89639 0
M  V30 5217 N 480.555 -2.71058 -5.1333 0
M  V30 5218 H 483.32 -2.80174 -1.06409 0
M  V30 5219 H 480.881 -1.55906 -0.43647 0
M  V30 5220 H 482.873 -2.05924 -3.48393 0
M  V30 5221 H 481.443 -1.1735 -2.89738 0
M  V30 5222 H 480.663 -3.4519 -1.90361 0
M  V30 5223 H 481.951 -4.21085 -2.85595 0
M  V30 5224 H 481.349 -2.11314 -5.2475 0
M  V30 5225 H 479.906 -2.78704 -5.89209 0
M  V30 5226 N 483.339 0.512053 -1.4905 0
M  V30 5227 C 484.755 0.84224 -1.35567 0
M  V30 5228 C 484.955 1.97878 -0.380319 0
M  V30 5229 O 484.011 2.51769 0.19201 0
M  V30 5230 C 485.324 1.19286 -2.76028 0
M  V30 5231 C 486.872 1.30171 -2.84648 0
M  V30 5232 C 487.347 1.68568 -4.25851 0
M  V30 5233 N 488.838 1.75638 -4.28609 0
M  V30 5234 C 489.573 2.06769 -5.34821 0
M  V30 5235 N 489.069 2.36201 -6.51292 0
M  V30 5236 N 490.862 2.07927 -5.22229 0
M  V30 5237 H 483.013 -0.237574 -2.11067 0
M  V30 5238 H 485.276 -0.0436747 -0.946993 0
M  V30 5239 H 484.982 0.431199 -3.49047 0
M  V30 5240 H 484.856 2.13889 -3.10695 0
M  V30 5241 H 487.243 2.05411 -2.11873 0
M  V30 5242 H 487.324 0.336457 -2.53578 0
M  V30 5243 H 486.968 0.938824 -4.99148 0
M  V30 5244 H 486.898 2.66174 -4.54377 0
M  V30 5245 H 489.389 1.55097 -3.44606 0
M  V30 5246 H 489.702 2.59112 -7.28066 0
M  V30 5247 H 488.047 2.33681 -6.54536 0
M  V30 5248 H 491.238 1.84403 -4.30248 0
M  V30 5249 H 491.411 2.31856 -6.05101 0
M  V30 5250 N 484.817 1.37938 0.762283 0
M  V30 5251 C 486.063 1.34873 1.52253 0
M  V30 5252 C 486.418 -0.0635972 1.92295 0
M  V30 5253 O 485.711 -1.02434 1.61919 0
M  V30 5254 C 485.905 2.23042 2.79261 0
M  V30 5255 C 485.734 3.72706 2.51635 0
M  V30 5256 C 484.504 4.41771 2.45289 0
M  V30 5257 C 486.702 4.65345 2.18994 0
M  V30 5258 N 484.684 5.76921 2.09846 0
M  V30 5259 C 486.055 5.88943 1.9377 0
M  V30 5260 C 488.11 4.53636 2.0523 0
M  V30 5261 C 486.813 7.02142 1.5617 0
M  V30 5262 C 488.839 5.6673 1.69031 0
M  V30 5263 C 488.201 6.89383 1.44673 0
M  V30 5264 H 484.3 0.548818 0.557067 0
M  V30 5265 H 486.884 1.73247 0.888458 0
M  V30 5266 H 485.055 1.8687 3.40491 0
M  V30 5267 H 486.787 2.11165 3.45241 0
M  V30 5268 H 483.542 3.94883 2.61465 0
M  V30 5269 H 483.966 6.4837 1.94794 0
M  V30 5270 H 488.608 3.5937 2.2274 0
M  V30 5271 H 486.326 7.96334 1.37399 0
M  V30 5272 H 489.912 5.59645 1.59026 0
M  V30 5273 H 488.792 7.75411 1.17079 0
M  V30 5274 N 486.295 -0.989507 1.22664 0
M  V30 5275 C 487.572 -1.70326 0.961688 0
M  V30 5276 C 487.952 -2.04537 -0.522279 0
M  V30 5277 O 487.3 -1.73136 -1.49118 0
M  V30 5278 C 487.51 -2.95135 1.86269 0
M  V30 5279 C 488.858 -3.67842 2.12078 0
M  V30 5280 O 489.882 -3.0515 1.83745 0
M  V30 5281 O 488.741 -4.80644 2.60083 0
M  V30 5282 H 485.835 -0.743589 0.361946 0
M  V30 5283 H 488.381 -1.04555 1.33665 0
M  V30 5284 H 487.153 -2.66382 2.8663 0
M  V30 5285 H 486.776 -3.68645 1.48952 0
M  V30 5286 N 487.773 -1.03688 -1.18687 0
M  V30 5287 C 488.998 -0.757819 -1.93059 0
M  V30 5288 C 489.423 0.678353 -1.75442 0
M  V30 5289 O 488.781 1.46938 -1.06203 0
M  V30 5290 C 488.829 -1.12423 -3.42627 0
M  V30 5291 O 487.933 -0.247505 -4.11657 0
M  V30 5292 H 487.274 -0.279245 -0.602427 0
M  V30 5293 H 489.804 -1.3857 -1.5053 0
M  V30 5294 H 489.814 -1.08454 -3.93322 0
M  V30 5295 H 488.489 -2.17049 -3.54771 0
M  V30 5296 H 487.066 -0.34649 -3.71287 0
M  V30 5297 N 489.251 1.34841 -0.815825 0
M  V30 5298 C 490.183 2.28409 -0.190265 0
M  V30 5299 C 491.196 1.50705 0.615771 0
M  V30 5300 O 492.385 1.72822 0.446616 0
M  V30 5301 C 489.485 3.30441 0.752446 0
M  V30 5302 C 488.658 4.37399 -0.00922152 0
M  V30 5303 C 487.717 5.19234 0.853351 0
M  V30 5304 O 486.743 5.68404 0.300919 0
M  V30 5305 N 487.945 5.38248 2.17416 0
M  V30 5306 H 490.71 2.82732 -0.994114 0
M  V30 5307 H 488.271 1.47289 -0.672129 0
M  V30 5308 H 490.263 3.82084 1.33394 0
M  V30 5309 H 488.833 2.76565 1.45707 0
M  V30 5310 H 488.053 3.86567 -0.771979 0
M  V30 5311 H 489.341 5.05992 -0.533807 0
M  V30 5312 H 488.739 4.99961 2.6468 0
M  V30 5313 H 487.296 5.93035 2.70467 0
M  V30 5314 N 490.729 0.570148 1.46925 0
M  V30 5315 C 491.959 0.0561151 2.06524 0
M  V30 5316 C 492.367 -1.24874 1.42137 0
M  V30 5317 O 491.71 -1.76292 0.516417 0
M  V30 5318 C 491.772 -0.197035 3.5896 0
M  V30 5319 C 491.436 1.02033 4.45464 0
M  V30 5320 C 492.433 1.92921 4.82781 0
M  V30 5321 C 490.118 1.23864 4.86788 0
M  V30 5322 C 492.112 3.03999 5.60235 0
M  V30 5323 C 489.799 2.35249 5.64004 0
M  V30 5324 C 490.797 3.25146 6.0064 0
M  V30 5325 O 490.485 4.34598 6.76299 0
M  V30 5326 H 490.217 0.0487409 0.674241 0
M  V30 5327 H 492.771 0.786915 1.89728 0
M  V30 5328 H 491.001 -0.982299 3.74016 0
M  V30 5329 H 492.69 -0.658032 4.00531 0
M  V30 5330 H 493.456 1.77265 4.51444 0
M  V30 5331 H 489.335 0.54805 4.57731 0
M  V30 5332 H 492.879 3.74192 5.8875 0
M  V30 5333 H 488.776 2.50873 5.94755 0
M  V30 5334 H 489.544 4.32808 6.94708 0
M  V30 5335 N 492.207 -1.54576 0.307264 0
M  V30 5336 C 493.618 -1.8579 -0.184121 0
M  V30 5337 C 493.969 -1.22914 -1.52927 0
M  V30 5338 O 493.094 -0.529126 -2.09831 0
M  V30 5339 C 493.689 -3.37081 -0.340862 0
M  V30 5340 C 492.248 -3.68304 -0.776465 0
M  V30 5341 C 491.395 -2.77076 0.111503 0
M  V30 5342 H 494.346 -1.49656 0.528078 0
M  V30 5343 H 494.367 -3.61922 -1.17443 0
M  V30 5344 H 493.879 -3.82815 0.638309 0
M  V30 5345 H 491.98 -3.28092 -1.76596 0
M  V30 5346 H 492.093 -4.75434 -0.591512 0
M  V30 5347 H 490.457 -2.51374 -0.410256 0
M  V30 5348 H 491.24 -3.25632 1.08714 0
M  V30 5349 N 493.685 -0.035106 -1.57561 0
M  V30 5350 C 494.635 0.954034 -2.0708 0
M  V30 5351 C 495.619 1.2818 -0.972558 0
M  V30 5352 O 496.811 1.26691 -1.23606 0
M  V30 5353 C 493.94 2.23442 -2.60631 0
M  V30 5354 C 493.026 1.93475 -3.77396 0
M  V30 5355 N 493.417 1.33802 -4.87781 0
M  V30 5356 C 491.715 2.23434 -3.85996 0
M  V30 5357 C 492.416 1.21103 -5.68954 0
M  V30 5358 N 491.392 1.70855 -5.16052 0
M  V30 5359 H 495.194 0.487731 -2.89825 0
M  V30 5360 H 492.708 0.169759 -1.6151 0
M  V30 5361 H 494.705 2.95183 -2.94402 0
M  V30 5362 H 493.365 2.70693 -1.79319 0
M  V30 5363 H 494.376 1.01227 -5.07911 0
M  V30 5364 H 491.053 2.73317 -3.15601 0
M  V30 5365 H 492.443 0.749105 -6.67711 0
M  V30 5366 N 495.163 1.55791 0.238111 0
M  V30 5367 C 496.073 1.94196 1.31625 0
M  V30 5368 C 497.089 0.843545 1.52185 0
M  V30 5369 O 498.265 1.1457 1.65637 0
M  V30 5370 C 495.33 2.2365 2.64918 0
M  V30 5371 C 494.391 3.46971 2.52804 0
M  V30 5372 C 493.624 3.7501 3.79741 0
M  V30 5373 O 493.847 3.04982 4.82019 0
M  V30 5374 O 492.781 4.68525 3.77846 0
M  V30 5375 H 496.607 2.86044 1.02043 0
M  V30 5376 H 494.192 1.42786 0.439603 0
M  V30 5377 H 496.074 2.43863 3.4367 0
M  V30 5378 H 494.749 1.34979 2.94215 0
M  V30 5379 H 493.656 3.32055 1.72309 0
M  V30 5380 H 494.989 4.35971 2.28451 0
M  V30 5381 N 496.642 -0.504142 1.49319 0
M  V30 5382 C 497.592 -1.60284 1.62151 0
M  V30 5383 C 498.576 -1.53657 0.477315 0
M  V30 5384 O 499.768 -1.6124 0.730108 0
M  V30 5385 C 496.897 -2.98909 1.68844 0
M  V30 5386 C 495.983 -3.10544 2.8883 0
M  V30 5387 N 496.374 -2.92078 4.12946 0
M  V30 5388 C 494.672 -3.4164 2.86702 0
M  V30 5389 C 495.373 -3.07812 4.93585 0
M  V30 5390 N 494.349 -3.36549 4.26891 0
M  V30 5391 H 498.151 -1.44656 2.55835 0
M  V30 5392 H 495.665 -0.710198 1.46048 0
M  V30 5393 H 497.662 -3.77865 1.76134 0
M  V30 5394 H 496.322 -3.15609 0.762943 0
M  V30 5395 H 497.333 -2.68316 4.42975 0
M  V30 5396 H 494.01 -3.64537 2.03517 0
M  V30 5397 H 495.4 -2.98054 6.02174 0
M  V30 5398 N 498.12 -1.38341 -0.754957 0
M  V30 5399 C 499.397 -1.24995 -1.50451 0
M  V30 5400 C 499.777 0.149244 -2.10572 0
M  V30 5401 O 499.125 1.15861 -1.96948 0
M  V30 5402 C 499.335 -2.35904 -2.57197 0
M  V30 5403 C 500.683 -2.74262 -3.24138 0
M  V30 5404 O 501.707 -2.35205 -2.67501 0
M  V30 5405 O 500.566 -3.4161 -4.26574 0
M  V30 5406 H 497.66 -0.48872 -0.667144 0
M  V30 5407 H 500.206 -1.50165 -0.790486 0
M  V30 5408 H 498.978 -3.2953 -2.11011 0
M  V30 5409 H 498.601 -2.12291 -3.36182 0
M  V30 5410 N 499.598 0.982988 -1.23187 0
M  V30 5411 C 500.531 2.07302 -0.953993 0
M  V30 5412 C 501.509 1.62249 0.106753 0
M  V30 5413 O 502.693 1.88481 -0.0269525 0
M  V30 5414 C 499.82 3.35873 -0.436716 0
M  V30 5415 C 498.866 3.99862 -1.48367 0
M  V30 5416 S 499.699 4.39443 -3.06023 0
M  V30 5417 C 500.855 5.7117 -2.55959 0
M  V30 5418 H 501.088 2.30554 -1.87702 0
M  V30 5419 H 498.621 1.11883 -1.06403 0
M  V30 5420 H 500.579 4.10244 -0.144872 0
M  V30 5421 H 499.24 3.10634 0.465351 0
M  V30 5422 H 498.433 4.92471 -1.07182 0
M  V30 5423 H 498.035 3.31857 -1.72473 0
M  V30 5424 H 500.327 6.47977 -1.97818 0
M  V30 5425 H 501.27 6.17194 -3.47098 0
M  V30 5426 H 501.678 5.29046 -1.96902 0
M  V30 5427 N 501.076 1.04316 1.18135 0
M  V30 5428 C 502.304 0.768117 1.92113 0
M  V30 5429 C 502.719 -0.675057 1.76319 0
M  V30 5430 O 502.076 -1.46038 1.09449 0
M  V30 5431 C 502.127 1.12808 3.43448 0
M  V30 5432 O 501.848 2.5146 3.58747 0
M  V30 5433 C 503.349 0.8779 4.3452 0
M  V30 5434 H 500.569 0.279937 0.609817 0
M  V30 5435 H 503.113 1.39149 1.49859 0
M  V30 5436 H 501.268 0.549623 3.83481 0
M  V30 5437 H 501.682 2.65313 4.52448 0
M  V30 5438 H 503.156 1.17959 5.39249 0
M  V30 5439 H 503.633 -0.187239 4.38801 0
M  V30 5440 H 504.239 1.43977 4.00188 0
M  V30 5441 N 502.554 -1.34406 0.822964 0
M  V30 5442 C 503.965 -1.8069 0.469879 0
M  V30 5443 C 504.316 -1.68223 -1.00972 0
M  V30 5444 O 503.441 -1.22226 -1.78577 0
M  V30 5445 C 504.036 -3.28064 0.846118 0
M  V30 5446 C 502.595 -3.72428 0.545402 0
M  V30 5447 C 501.742 -2.56116 1.06301 0
M  V30 5448 H 504.693 -1.22153 1.01313 0
M  V30 5449 H 504.714 -3.80205 0.149922 0
M  V30 5450 H 504.226 -3.37107 1.92304 0
M  V30 5451 H 502.327 -3.68924 -0.522109 0
M  V30 5452 H 502.44 -4.66548 1.0895 0
M  V30 5453 H 500.804 -2.50048 0.484554 0
M  V30 5454 H 501.587 -2.67928 2.14638 0
M  V30 5455 N 504.032 -0.577932 -1.46621 0
M  V30 5456 C 504.942 0.160651 -2.34049 0
M  V30 5457 C 505.958 0.890911 -1.49462 0
M  V30 5458 O 507.134 0.855166 -1.82343 0
M  V30 5459 C 504.199 1.16447 -3.26559 0
M  V30 5460 C 503.26 0.4394 -4.27045 0
M  V30 5461 C 502.493 1.3954 -5.15135 0
M  V30 5462 O 502.716 2.63162 -5.06065 0
M  V30 5463 O 501.65 0.908585 -5.95003 0
M  V30 5464 H 505.476 -0.557057 -2.98547 0
M  V30 5465 H 503.061 -0.338369 -1.45518 0
M  V30 5466 H 504.943 1.7434 -3.83645 0
M  V30 5467 H 503.618 1.86373 -2.64663 0
M  V30 5468 H 502.525 -0.181247 -3.73661 0
M  V30 5469 H 503.858 -0.218799 -4.91713 0
M  V30 5470 N 505.51 1.54411 -0.315457 0
M  V30 5471 C 506.458 2.25514 0.569771 0
M  V30 5472 C 507.452 1.2663 1.12522 0
M  V30 5473 O 508.658 1.44434 1.07419 0
M  V30 5474 H 505.033 0.724257 0.202376 0
M  V30 5475 H 507.004 2.98354 -0.0522895 0
M  V30 5476 C 505.753 3.02004 1.72305 0
M  V30 5477 H 505.076 3.77906 1.30488 0
M  V30 5478 H 506.516 3.55014 2.31821 0
M  V30 5479 C 504.975 2.09822 2.63583 0
M  V30 5480 O 505.505 1.67574 3.65078 0
M  V30 5481 N 503.711 1.75478 2.31637 0
M  V30 5482 H 503.258 2.10032 1.49145 0
M  V30 5483 H 503.216 1.14079 2.92973 0
M  V30 5484 N 506.988 0.0434614 1.5754 0
M  V30 5485 C 508.235 -0.632035 1.92384 0
M  V30 5486 C 508.563 -1.71304 0.921157 0
M  V30 5487 O 507.818 -1.95583 -0.067744 0
M  V30 5488 C 508.117 -1.2738 3.3393 0
M  V30 5489 C 507.783 -0.321757 4.49751 0
M  V30 5490 C 506.445 -0.0597611 4.81163 0
M  V30 5491 C 508.797 0.331158 5.20147 0
M  V30 5492 C 506.125 0.862715 5.80322 0
M  V30 5493 C 508.477 1.24178 6.20292 0
M  V30 5494 C 507.141 1.51252 6.50138 0
M  V30 5495 H 506.411 -0.231278 0.703983 0
M  V30 5496 H 509.058 0.108294 1.91194 0
M  V30 5497 H 507.363 -2.08921 3.3145 0
M  V30 5498 H 509.06 -1.80326 3.58167 0
M  V30 5499 H 505.65 -0.53614 4.25233 0
M  V30 5500 H 509.834 0.141826 4.96097 0
M  V30 5501 H 505.09 1.08003 6.01785 0
M  V30 5502 H 509.264 1.75381 6.73954 0
M  V30 5503 H 506.891 2.22897 7.26788 0
M  V30 5504 N 508.466 -1.55915 -0.229846 0
M  V30 5505 C 509.413 -1.91734 -1.28478 0
M  V30 5506 C 510.383 -0.773539 -1.46988 0
M  V30 5507 O 511.568 -1.02871 -1.60693 0
M  V30 5508 C 508.708 -2.23224 -2.63182 0
M  V30 5509 C 507.821 -3.50497 -2.52539 0
M  V30 5510 C 506.956 -3.71474 -3.79711 0
M  V30 5511 C 505.995 -4.92289 -3.63755 0
M  V30 5512 N 505.132 -5.09698 -4.82858 0
M  V30 5513 H 509.972 -2.81692 -0.972308 0
M  V30 5514 H 507.509 -1.39429 -0.468815 0
M  V30 5515 H 509.467 -2.3949 -3.41614 0
M  V30 5516 H 508.097 -1.36451 -2.92542 0
M  V30 5517 H 507.149 -3.4247 -1.65585 0
M  V30 5518 H 508.461 -4.39079 -2.36666 0
M  V30 5519 H 507.615 -3.87791 -4.66586 0
M  V30 5520 H 506.354 -2.81157 -3.985 0
M  V30 5521 H 505.359 -4.7593 -2.75264 0
M  V30 5522 H 506.584 -5.84083 -3.46445 0
M  V30 5523 H 504.53 -4.22322 -5.01976 0
M  V30 5524 H 504.447 -5.92399 -4.69681 0
M  V30 5525 H 505.715 -5.30443 -5.71183 0
M  V30 5526 N 509.944 0.496216 -1.49584 0
M  V30 5527 C 511.184 1.26015 -1.60933 0
M  V30 5528 C 511.548 1.89772 -0.291646 0
M  V30 5529 O 512.749 2.67334 -0.280357 0
M  V30 5530 C 511.02 2.29506 -2.73974 0
M  V30 5531 S 512.579 3.15175 -3.05303 0
M  V30 5532 H 509.397 0.428194 -0.567601 0
M  V30 5533 H 511.999 0.561484 -1.87263 0
M  V30 5534 H 510.703 1.81205 -3.68229 0
M  V30 5535 H 510.234 3.04036 -2.49651 0
M  V30 5536 H 512.249 4.30244 -2.47193 0
M  V30 5537 N 511.423 1.38739 0.74761 0
M  V30 5538 C 512.37 1.36449 1.86146 0
M  V30 5539 C 513.34 0.226098 1.64554 0
M  V30 5540 O 514.525 0.41926 1.86137 0
M  V30 5541 C 511.665 1.2013 3.23516 0
M  V30 5542 C 510.778 2.43407 3.56899 0
M  V30 5543 C 509.913 2.19773 4.83605 0
M  V30 5544 C 508.952 3.3879 5.09792 0
M  V30 5545 N 508.089 3.14553 6.27695 0
M  V30 5546 H 512.929 2.3167 1.87438 0
M  V30 5547 H 510.466 1.15094 0.916063 0
M  V30 5548 H 512.424 1.08683 4.02795 0
M  V30 5549 H 511.054 0.285453 3.21535 0
M  V30 5550 H 510.106 2.65504 2.72418 0
M  V30 5551 H 511.418 3.32094 3.72176 0
M  V30 5552 H 510.572 2.05496 5.70838 0
M  V30 5553 H 509.311 1.28461 4.70478 0
M  V30 5554 H 508.316 3.53579 4.21025 0
M  V30 5555 H 509.541 4.30986 5.24812 0
M  V30 5556 H 507.487 2.25893 6.1588 0
M  V30 5557 H 507.404 3.96791 6.435 0
M  V30 5558 H 508.672 3.03943 7.17801 0
M  V30 5559 N 512.901 -0.976442 1.23707 0
M  V30 5560 C 514.178 -1.69296 0.979699 0
M  V30 5561 C 514.558 -2.0508 -0.500555 0
M  V30 5562 O 513.906 -1.74708 -1.47273 0
M  V30 5563 C 514.116 -2.93143 1.89389 0
M  V30 5564 C 515.464 -3.65572 2.15968 0
M  V30 5565 O 516.488 -3.03184 1.86971 0
M  V30 5566 O 515.347 -4.77859 2.65167 0
M  V30 5567 H 512.441 -0.739708 0.369812 0
M  V30 5568 H 514.987 -1.03131 1.34767 0
M  V30 5569 H 513.759 -2.63327 2.89439 0
M  V30 5570 H 513.382 -3.67044 1.52854 0
M  V30 5571 N 514.379 -1.04941 -1.1758 0
M  V30 5572 C 515.309 -0.669172 -2.23706 0
M  V30 5573 C 516.29 0.331835 -1.66832 0
M  V30 5574 O 517.475 0.209988 -1.93061 0
M  V30 5575 C 514.605 -0.0404889 -3.47276 0
M  V30 5576 C 513.559 -0.965983 -4.16957 0
M  V30 5577 C 512.885 -0.201312 -5.34321 0
M  V30 5578 C 514.185 -2.28902 -4.69469 0
M  V30 5579 H 515.879 -1.55639 -2.55767 0
M  V30 5580 H 513.425 -0.749793 -1.22939 0
M  V30 5581 H 515.378 0.237298 -4.20731 0
M  V30 5582 H 514.102 0.881658 -3.14475 0
M  V30 5583 H 512.761 -1.22829 -3.45411 0
M  V30 5584 H 512.409 0.723519 -4.97769 0
M  V30 5585 H 512.109 -0.817968 -5.81879 0
M  V30 5586 H 513.633 0.0692499 -6.10561 0
M  V30 5587 H 515.047 -2.07132 -5.34574 0
M  V30 5588 H 513.444 -2.85942 -5.27596 0
M  V30 5589 H 514.514 -2.92937 -3.86414 0
M  V30 5590 N 515.857 1.33968 -0.830081 0
M  V30 5591 C 517.273 1.51003 -0.516742 0
M  V30 5592 C 517.473 1.77286 0.957694 0
M  V30 5593 O 516.529 1.82797 1.74188 0
M  V30 5594 C 517.842 2.67036 -1.38247 0
M  V30 5595 C 519.39 2.80919 -1.38034 0
M  V30 5596 C 519.865 4.00004 -2.23071 0
M  V30 5597 N 521.356 4.07224 -2.20733 0
M  V30 5598 C 522.091 4.98541 -2.83275 0
M  V30 5599 N 521.587 5.95033 -3.54835 0
M  V30 5600 N 523.38 4.91469 -2.72791 0
M  V30 5601 H 515.531 1.15168 -1.78466 0
M  V30 5602 H 517.794 0.565443 -0.760906 0
M  V30 5603 H 517.5 2.54266 -2.42985 0
M  V30 5604 H 517.374 3.62226 -1.05225 0
M  V30 5605 H 519.761 2.93127 -0.340713 0
M  V30 5606 H 519.842 1.86517 -1.75057 0
M  V30 5607 H 519.486 3.88557 -3.27087 0
M  V30 5608 H 519.416 4.93634 -1.83394 0
M  V30 5609 H 521.907 3.38162 -1.68687 0
M  V30 5610 H 522.22 6.61357 -3.99784 0
M  V30 5611 H 520.565 5.95135 -3.58942 0
M  V30 5612 H 523.756 4.15048 -2.16456 0
M  V30 5613 H 523.929 5.62439 -3.21818 0
M  V30 5614 N 517.335 0.585699 1.46312 0
M  V30 5615 C 518.245 -0.148236 2.34131 0
M  V30 5616 C 519.261 -0.882972 1.49932 0
M  V30 5617 O 520.437 -0.845484 1.82794 0
M  V30 5618 C 517.502 -1.14714 3.27172 0
M  V30 5619 C 516.563 -0.416746 4.27272 0
M  V30 5620 C 515.796 -1.36806 5.15868 0
M  V30 5621 O 516.019 -2.60475 5.07454 0
M  V30 5622 O 514.953 -0.877018 5.95476 0
M  V30 5623 H 518.779 0.572882 2.98248 0
M  V30 5624 H 516.364 0.346082 1.45336 0
M  V30 5625 H 518.246 -1.72303 3.84564 0
M  V30 5626 H 516.921 -1.84967 2.65648 0
M  V30 5627 H 515.828 0.201061 3.73559 0
M  V30 5628 H 517.161 0.244872 4.9159 0
M  V30 5629 N 518.813 -1.54241 0.323641 0
M  V30 5630 C 519.761 -2.25813 -0.557804 0
M  V30 5631 C 520.755 -1.27225 -1.11849 0
M  V30 5632 O 521.961 -1.45001 -1.06652 0
M  V30 5633 H 518.336 -0.72532 -0.198532 0
M  V30 5634 H 520.307 -2.98322 0.0681112 0
M  V30 5635 C 519.056 -3.02913 -1.70701 0
M  V30 5636 H 518.379 -3.78593 -1.28482 0
M  V30 5637 H 519.819 -3.56238 -2.29935 0
M  V30 5638 C 518.278 -2.11217 -2.62467 0
M  V30 5639 O 518.808 -1.69508 -3.64184 0
M  V30 5640 N 517.014 -1.76704 -2.30703 0
M  V30 5641 H 516.561 -2.1082 -1.48029 0
M  V30 5642 H 516.519 -1.15631 -2.92364 0
M  V30 5643 N 520.291 -0.0518155 -1.57515 0
M  V30 5644 C 521.521 0.63048 -1.96745 0
M  V30 5645 C 521.929 1.64875 -0.928054 0
M  V30 5646 O 521.272 1.83449 0.0960678 0
M  V30 5647 C 521.334 1.37381 -3.32215 0
M  V30 5648 C 520.998 0.511298 -4.54131 0
M  V30 5649 C 521.995 -0.222884 -5.19422 0
M  V30 5650 C 519.68 0.442035 -5.00351 0
M  V30 5651 C 521.674 -1.01476 -6.2927 0
M  V30 5652 C 519.361 -0.35353 -6.10077 0
M  V30 5653 C 520.359 -1.08062 -6.74397 0
M  V30 5654 O 520.047 -1.8631 -7.82013 0
M  V30 5655 H 519.779 0.177126 -0.652382 0
M  V30 5656 H 522.333 -0.114726 -2.05079 0
M  V30 5657 H 520.563 2.16466 -3.20436 0
M  V30 5658 H 522.252 1.9464 -3.56188 0
M  V30 5659 H 523.018 -0.178846 -4.8467 0
M  V30 5660 H 518.897 0.997562 -4.50077 0
M  V30 5661 H 522.441 -1.58279 -6.79407 0
M  V30 5662 H 518.338 -0.399205 -6.44264 0
M  V30 5663 H 519.106 -1.78528 -7.98793 0
M  V30 5664 N 521.769 1.56035 0.221574 0
M  V30 5665 C 523.009 1.80822 0.953038 0
M  V30 5666 C 523.373 0.625316 1.81532 0
M  V30 5667 O 524.574 0.752491 2.58052 0
M  V30 5668 C 522.845 3.10503 1.76983 0
M  V30 5669 S 524.404 3.56604 2.55693 0
M  V30 5670 H 521.222 0.634849 0.320137 0
M  V30 5671 H 523.824 1.94274 0.218619 0
M  V30 5672 H 522.528 3.94636 1.12651 0
M  V30 5673 H 522.059 2.99858 2.54655 0
M  V30 5674 H 524.074 3.1994 3.79279 0
M  V30 5675 N 523.247 -0.488276 1.49845 0
M  V30 5676 C 524.663 -0.820566 1.3689 0
M  V30 5677 C 524.863 -1.97248 0.411752 0
M  V30 5678 O 523.919 -2.52042 -0.151931 0
M  V30 5679 C 525.232 -1.1488 2.77891 0
M  V30 5680 C 526.78 -1.25626 2.86683 0
M  V30 5681 C 527.255 -1.61772 4.28479 0
M  V30 5682 N 528.746 -1.68797 4.31349 0
M  V30 5683 C 529.481 -1.98235 5.38043 0
M  V30 5684 N 528.977 -2.2581 6.54967 0
M  V30 5685 N 530.77 -1.99593 5.2547 0
M  V30 5686 H 522.921 0.271123 2.10662 0
M  V30 5687 H 525.184 0.058735 0.946179 0
M  V30 5688 H 524.89 -0.375614 3.49688 0
M  V30 5689 H 524.764 -2.08919 3.14058 0
M  V30 5690 H 527.151 -2.02014 2.15114 0
M  V30 5691 H 527.232 -0.296072 2.54081 0
M  V30 5692 H 526.876 -0.859295 5.00578 0
M  V30 5693 H 526.806 -2.58912 4.58554 0
M  V30 5694 H 529.297 -1.49595 3.4703 0
M  V30 5695 H 529.61 -2.47497 7.32096 0
M  V30 5696 H 527.955 -2.23239 6.58171 0
M  V30 5697 H 531.146 -1.77535 4.33127 0
M  V30 5698 H 531.319 -2.222 6.08713 0
M  V30 5699 N 524.725 -1.39134 -0.740242 0
M  V30 5700 C 525.673 -1.3757 -1.87556 0
M  V30 5701 C 526.667 -0.259593 -1.67399 0
M  V30 5702 O 527.873 -0.429349 -1.74804 0
M  V30 5703 H 524.248 -0.42947 -0.6173 0
M  V30 5704 H 526.219 -2.33345 -1.85991 0
M  V30 5705 C 524.968 -1.23087 -3.25184 0
M  V30 5706 H 524.291 -2.08237 -3.41288 0
M  V30 5707 H 525.731 -1.26049 -4.0483 0
M  V30 5708 C 524.19 0.0611471 -3.36845 0
M  V30 5709 O 524.72 1.03328 -3.88183 0
M  V30 5710 N 522.926 0.122454 -2.90342 0
M  V30 5711 H 522.473 -0.669329 -2.48752 0
M  V30 5712 H 522.431 0.986463 -2.98523 0
M  V30 5713 N 526.204 0.969867 -1.24223 0
M  V30 5714 C 527.615 1.52717 -1.07399 0
M  V30 5715 C 527.966 1.92956 0.355298 0
M  V30 5716 O 527.091 1.77112 1.2434 0
M  V30 5717 C 527.686 2.77521 -1.94339 0
M  V30 5718 C 526.245 3.29615 -1.81744 0
M  V30 5719 C 525.392 2.02537 -1.89405 0
M  V30 5720 H 528.343 0.788399 -1.37732 0
M  V30 5721 H 528.364 3.50773 -1.47439 0
M  V30 5722 H 527.876 2.48203 -2.98357 0
M  V30 5723 H 525.977 3.63789 -0.805505 0
M  V30 5724 H 526.09 3.98661 -2.65718 0
M  V30 5725 H 524.454 2.17151 -1.33108 0
M  V30 5726 H 525.237 1.75587 -2.94999 0
M  V30 5727 N 527.682 1.05563 1.17022 0
M  V30 5728 C 528.959 0.68165 1.83338 0
M  V30 5729 C 529.339 -0.837665 1.93769 0
M  V30 5730 O 528.687 -1.74507 1.47511 0
M  V30 5731 C 528.897 1.375 3.20772 0
M  V30 5732 C 530.245 1.51545 3.96635 0
M  V30 5733 O 531.269 1.33431 3.30264 0
M  V30 5734 O 530.128 1.812 5.15586 0
M  V30 5735 H 527.222 0.240412 0.791285 0
M  V30 5736 H 529.768 1.15545 1.24288 0
M  V30 5737 H 528.54 2.41135 3.08171 0
M  V30 5738 H 528.163 0.890798 3.87493 0
M  V30 5739 N 529.16 -1.33526 0.837174 0
M  V30 5740 C 530.408 -1.97446 0.431211 0
M  V30 5741 C 530.729 -1.6665 -1.01255 0
M  V30 5742 O 529.999 -0.964559 -1.70508 0
M  V30 5743 H 528.579 -0.73043 0.156463 0
M  V30 5744 H 531.241 -1.62918 1.06976 0
M  V30 5745 H 530.337 -3.07001 0.561877 0
M  V30 5746 N 530.638 -0.59345 -1.46 0
M  V30 5747 C 531.863 -0.0872365 -2.07216 0
M  V30 5748 C 532.288 1.2131 -1.43755 0
M  V30 5749 O 531.646 1.73528 -0.525152 0
M  V30 5750 C 531.694 0.0538197 -3.6056 0
M  V30 5751 O 530.798 1.10765 -3.97247 0
M  V30 5752 H 530.139 -0.0676598 -0.660544 0
M  V30 5753 H 532.669 -0.819445 -1.87473 0
M  V30 5754 H 532.679 0.256567 -4.07193 0
M  V30 5755 H 531.354 -0.895739 -4.0614 0
M  V30 5756 H 529.931 0.882501 -3.62307 0
M  V30 5757 N 532.116 1.54067 -0.331816 0
M  V30 5758 C 533.026 2.28322 0.539104 0
M  V30 5759 C 534.042 1.32985 1.1221 0
M  V30 5760 O 535.218 1.6601 1.1403 0
M  V30 5761 C 532.283 3.03277 1.68 0
M  V30 5762 C 531.344 4.14216 1.12798 0
M  V30 5763 C 530.577 4.85588 2.2145 0
M  V30 5764 O 530.8 4.56536 3.41952 0
M  V30 5765 O 529.734 5.72309 1.86404 0
M  V30 5766 H 533.56 3.03632 -0.0641692 0
M  V30 5767 H 531.145 1.49083 -0.0972365 0
M  V30 5768 H 533.027 3.50189 2.34405 0
M  V30 5769 H 531.702 2.30834 2.2693 0
M  V30 5770 H 530.609 3.71635 0.428782 0
M  V30 5771 H 531.942 4.88727 0.583698 0
M  V30 5772 N 533.594 0.0601682 1.57485 0
M  V30 5773 C 534.819 -0.624416 1.97777 0
M  V30 5774 C 535.244 -1.63051 0.937867 0
M  V30 5775 O 534.602 -1.81036 -0.0978845 0
M  V30 5776 C 534.65 -1.27979 3.37126 0
M  V30 5777 O 533.754 -2.39556 3.35688 0
M  V30 5778 H 533.095 -0.161581 0.64404 0
M  V30 5779 H 535.625 0.131237 2.04179 0
M  V30 5780 H 535.635 -1.62937 3.74053 0
M  V30 5781 H 534.31 -0.542501 4.12347 0
M  V30 5782 H 532.887 -2.06478 3.10517 0
M  V30 5783 N 535.072 -1.5615 -0.213296 0
M  V30 5784 C 536.483 -1.69645 -0.779582 0
M  V30 5785 C 536.834 -0.663615 -1.84636 0
M  V30 5786 O 535.959 0.183633 -2.15619 0
M  V30 5787 C 536.554 -3.07567 -1.42084 0
M  V30 5788 C 535.113 -3.22889 -1.93442 0
M  V30 5789 C 534.26 -2.65581 -0.797612 0
M  V30 5790 H 537.211 -1.58696 0.0114951 0
M  V30 5791 H 537.232 -3.03884 -2.28986 0
M  V30 5792 H 536.744 -3.82716 -0.644187 0
M  V30 5793 H 534.845 -2.52623 -2.73884 0
M  V30 5794 H 534.958 -4.30197 -2.10872 0
M  V30 5795 H 533.322 -2.24278 -1.20712 0
M  V30 5796 H 534.105 -3.43284 -0.033494 0
M  V30 5797 N 536.55 0.480323 -1.50102 0
M  V30 5798 C 537.796 1.23208 -1.61837 0
M  V30 5799 C 538.151 1.89878 -0.310509 0
M  V30 5800 O 537.444 1.7871 0.690897 0
M  V30 5801 C 537.638 2.30708 -2.72963 0
M  V30 5802 C 537.467 1.74583 -4.14428 0
M  V30 5803 C 536.237 1.54964 -4.80951 0
M  V30 5804 C 538.435 1.24597 -4.98979 0
M  V30 5805 N 536.417 0.939855 -6.06663 0
M  V30 5806 C 537.788 0.758834 -6.15339 0
M  V30 5807 C 539.843 1.13365 -4.84822 0
M  V30 5808 C 538.546 0.17046 -7.19098 0
M  V30 5809 C 540.572 0.559221 -5.8875 0
M  V30 5810 C 539.934 0.082415 -7.04352 0
M  V30 5811 H 536.033 0.440065 -0.646426 0
M  V30 5812 H 538.617 0.535632 -1.87187 0
M  V30 5813 H 536.788 2.9779 -2.4935 0
M  V30 5814 H 538.52 2.97738 -2.74106 0
M  V30 5815 H 535.275 1.79926 -4.38091 0
M  V30 5816 H 535.699 0.653641 -6.73837 0
M  V30 5817 H 540.341 1.48823 -3.95742 0
M  V30 5818 H 538.059 -0.196347 -8.07861 0
M  V30 5819 H 541.645 0.474804 -5.79859 0
M  V30 5820 H 540.525 -0.355119 -7.83396 0
M  V30 5821 N 538.028 1.39524 0.732853 0
M  V30 5822 C 539.268 1.383 1.50508 0
M  V30 5823 C 539.632 -0.0208271 1.91989 0
M  V30 5824 O 540.833 -0.158091 2.68335 0
M  V30 5825 C 539.104 2.33007 2.71003 0
M  V30 5826 S 540.663 2.49989 3.60626 0
M  V30 5827 H 537.481 0.490417 0.514794 0
M  V30 5828 H 540.083 1.75641 0.858524 0
M  V30 5829 H 538.787 3.33862 2.38672 0
M  V30 5830 H 538.318 1.96889 3.40585 0
M  V30 5831 H 540.333 1.7394 4.64714 0
M  V30 5832 N 539.506 -0.963266 1.24736 0
M  V30 5833 C 540.753 -1.7068 1.0897 0
M  V30 5834 C 541.081 -1.90934 -0.370751 0
M  V30 5835 O 540.336 -1.47155 -1.29011 0
M  V30 5836 C 540.635 -3.09944 1.7796 0
M  V30 5837 C 540.301 -3.09518 3.27887 0
M  V30 5838 C 538.963 -3.09109 3.68789 0
M  V30 5839 C 541.315 -3.03509 4.23712 0
M  V30 5840 C 538.643 -3.00429 5.03944 0
M  V30 5841 C 540.995 -2.96371 5.5888 0
M  V30 5842 C 539.659 -2.94293 5.99123 0
M  V30 5843 H 538.929 -0.624564 0.398749 0
M  V30 5844 H 541.576 -1.12603 1.54896 0
M  V30 5845 H 539.881 -3.71513 1.2444 0
M  V30 5846 H 541.578 -3.66278 1.63222 0
M  V30 5847 H 538.168 -3.10603 2.95337 0
M  V30 5848 H 542.352 -3.0295 3.93109 0
M  V30 5849 H 537.608 -2.97183 5.34314 0
M  V30 5850 H 541.782 -2.90681 6.32833 0
M  V30 5851 H 539.409 -2.87322 7.03811 0
M  V30 5852 N 540.985 -1.06182 -1.16461 0
M  V30 5853 C 542.213 -0.798583 -1.90867 0
M  V30 5854 C 542.628 0.646921 -1.77371 0
M  V30 5855 O 541.985 1.44279 -1.11758 0
M  V30 5856 C 542.036 -1.18258 -3.4161 0
M  V30 5857 O 541.757 -2.57135 -3.54701 0
M  V30 5858 C 543.258 -0.946917 -4.33069 0
M  V30 5859 H 540.478 -0.289603 -0.605286 0
M  V30 5860 H 543.022 -1.41515 -1.47627 0
M  V30 5861 H 541.177 -0.610562 -3.82558 0
M  V30 5862 H 541.591 -2.72477 -4.4817 0
M  V30 5863 H 543.065 -1.26523 -5.37304 0
M  V30 5864 H 543.542 0.117406 -4.39043 0
M  V30 5865 H 544.148 -1.50326 -3.97847 0
M  V30 5866 N 542.463 1.3308 -0.844243 0
M  V30 5867 C 543.691 2.01808 -0.456203 0
M  V30 5868 C 544.106 1.63498 0.944131 0
M  V30 5869 O 543.463 0.85102 1.61443 0
M  V30 5870 C 543.514 3.56922 -0.573513 0
M  V30 5871 O 543.235 3.93851 -1.91868 0
M  V30 5872 C 544.736 4.42922 -0.183125 0
M  V30 5873 H 541.956 0.646273 -0.180477 0
M  V30 5874 H 544.5 1.69891 -1.1383 0
M  V30 5875 H 542.655 3.87352 0.0607367 0
M  V30 5876 H 543.069 4.88564 -1.90802 0
M  V30 5877 H 544.543 5.51093 -0.316241 0
M  V30 5878 H 545.02 4.30386 0.875477 0
M  V30 5879 H 545.626 4.1786 -0.792027 0
M  V30 5880 N 543.941 0.601185 1.45683 0
M  V30 5881 C 545.218 0.0261659 1.95582 0
M  V30 5882 C 545.598 -1.4399 1.5437 0
M  V30 5883 O 544.946 -2.13919 0.80318 0
M  V30 5884 C 545.156 0.217557 3.48321 0
M  V30 5885 C 546.504 0.0950076 4.24494 0
M  V30 5886 O 547.528 0.147345 3.55895 0
M  V30 5887 O 546.387 -0.025261 5.46494 0
M  V30 5888 H 543.481 -0.0393688 0.826062 0
M  V30 5889 H 546.027 0.670798 1.55879 0
M  V30 5890 H 544.799 1.23601 3.71266 0
M  V30 5891 H 544.422 -0.46264 3.94899 0
M  V30 5892 N 545.419 -1.53889 0.339982 0
M  V30 5893 C 546.83 -1.86139 -0.144671 0
M  V30 5894 C 547.181 -1.2613 -1.50285 0
M  V30 5895 O 546.306 -0.573515 -2.08662 0
M  V30 5896 C 546.901 -3.37728 -0.269285 0
M  V30 5897 C 545.46 -3.69868 -0.698168 0
M  V30 5898 C 544.607 -2.76777 0.170249 0
M  V30 5899 H 547.558 -1.48503 0.559704 0
M  V30 5900 H 547.579 -3.64331 -1.0974 0
M  V30 5901 H 547.091 -3.81375 0.719366 0
M  V30 5902 H 545.192 -3.31764 -1.69597 0
M  V30 5903 H 545.305 -4.76582 -0.490533 0
M  V30 5904 H 543.669 -2.52188 -0.356844 0
M  V30 5905 H 544.452 -3.23253 1.15597 0
M  V30 5906 N 546.897 -0.0685191 -1.57451 0
M  V30 5907 C 547.845 0.917577 -2.13736 0
M  V30 5908 C 548.839 1.31049 -1.07344 0
M  V30 5909 O 550.045 1.28811 -1.25728 0
M  V30 5910 H 546.42 0.313835 -0.683382 0
M  V30 5911 H 548.391 0.417903 -2.95459 0
M  V30 5912 C 547.14 2.17686 -2.71123 0
M  V30 5913 H 546.463 1.88336 -3.52661 0
M  V30 5914 H 547.903 2.84803 -3.14107 0
M  V30 5915 C 546.362 2.9332 -1.65726 0
M  V30 5916 O 546.892 3.86901 -1.08031 0
M  V30 5917 N 545.098 2.56367 -1.36837 0
M  V30 5918 H 544.645 1.80341 -1.83943 0
M  V30 5919 H 544.603 3.07276 -0.665501 0
M  V30 5920 N 548.375 1.56261 0.205012 0
M  V30 5921 C 549.624 1.79236 0.925058 0
M  V30 5922 C 549.937 0.640011 1.84833 0
M  V30 5923 O 551.143 0.753809 2.60826 0
M  V30 5924 C 549.599 3.17475 1.69522 0
M  V30 5925 C 549.207 4.40482 0.817269 0
M  V30 5926 C 550.951 3.49766 2.4055 0
M  V30 5927 C 548.858 5.69744 1.58573 0
M  V30 5928 H 547.788 0.668287 0.349153 0
M  V30 5929 H 550.439 1.82629 0.178544 0
M  V30 5930 H 548.821 3.08304 2.48526 0
M  V30 5931 H 549.995 4.60752 0.0665988 0
M  V30 5932 H 548.31 4.15827 0.218316 0
M  V30 5933 H 550.907 4.43573 2.98575 0
M  V30 5934 H 551.25 2.73041 3.14252 0
M  V30 5935 H 551.783 3.60341 1.68522 0
M  V30 5936 H 548.522 6.49407 0.891679 0
M  V30 5937 H 548.042 5.53509 2.31059 0
M  V30 5938 H 549.721 6.1051 2.14212 0
M  V30 5939 N 549.853 -0.472356 1.50355 0
M  V30 5940 C 551.269 -0.806001 1.37753 0
M  V30 5941 C 551.469 -1.968 0.432649 0
M  V30 5942 O 550.525 -2.52189 -0.12519 0
M  V30 5943 C 551.838 -1.11926 2.79093 0
M  V30 5944 C 553.386 -1.22579 2.87999 0
M  V30 5945 C 553.861 -1.57218 4.3017 0
M  V30 5946 N 555.352 -1.64212 4.33115 0
M  V30 5947 C 556.087 -1.92517 5.40116 0
M  V30 5948 N 555.583 -2.1885 6.57325 0
M  V30 5949 N 557.376 -1.94008 5.27558 0
M  V30 5950 H 549.527 0.293451 2.10363 0
M  V30 5951 H 551.79 0.0687672 0.945503 0
M  V30 5952 H 551.496 -0.338504 3.50067 0
M  V30 5953 H 551.37 -2.05577 3.16256 0
M  V30 5954 H 553.757 -1.99722 2.17245 0
M  V30 5955 H 553.838 -0.269107 2.54381 0
M  V30 5956 H 553.482 -0.806154 5.01461 0
M  V30 5957 H 553.412 -2.54034 4.61275 0
M  V30 5958 H 555.903 -1.45906 3.48597 0
M  V30 5959 H 556.216 -2.39718 7.3468 0
M  V30 5960 H 554.561 -2.16245 6.60502 0
M  V30 5961 H 557.752 -1.72931 4.34986 0
M  V30 5962 H 557.925 -2.15731 6.11035 0
M  V30 5963 N 551.331 -1.39911 -0.725443 0
M  V30 5964 C 552.577 -1.37858 -1.48738 0
M  V30 5965 C 552.91 0.0224187 -1.94187 0
M  V30 5966 O 552.185 0.989204 -1.67466 0
M  V30 5967 C 552.468 -2.3594 -2.72038 0
M  V30 5968 C 552.321 -3.85023 -2.32546 0
M  V30 5969 C 553.64 -2.31704 -3.74167 0
M  V30 5970 H 550.759 -0.502074 -0.539528 0
M  V30 5971 H 553.401 -1.70974 -0.828728 0
M  V30 5972 H 551.551 -2.0783 -3.28236 0
M  V30 5973 H 553.223 -4.2392 -1.81905 0
M  V30 5974 H 551.466 -4.01334 -1.64661 0
M  V30 5975 H 552.137 -4.49152 -3.20884 0
M  V30 5976 H 554.613 -2.5658 -3.27576 0
M  V30 5977 H 553.489 -3.02395 -4.58092 0
M  V30 5978 H 553.75 -1.3253 -4.21768 0
M  V30 5979 N 552.809 0.956637 -1.25245 0
M  V30 5980 C 554.057 1.69764 -1.09657 0
M  V30 5981 C 554.378 1.91583 0.363464 0
M  V30 5982 O 553.648 1.50149 1.25825 0
M  V30 5983 H 552.228 0.629097 -0.402798 0
M  V30 5984 H 554.89 1.15026 -1.57337 0
M  V30 5985 H 553.986 2.67769 -1.60331 0
M  V30 5986 N 554.287 1.06798 1.15896 0
M  V30 5987 C 555.517 0.807522 1.90165 0
M  V30 5988 C 555.925 -0.642417 1.7796 0
M  V30 5989 O 555.268 -1.45193 1.12537 0
M  V30 5990 C 555.33 1.12939 3.41299 0
M  V30 5991 C 554.994 2.57879 3.7729 0
M  V30 5992 C 555.991 3.56118 3.78782 0
M  V30 5993 C 553.676 2.93311 4.07767 0
M  V30 5994 C 555.67 4.87827 4.10248 0
M  V30 5995 C 553.357 4.25219 4.38899 0
M  V30 5996 C 554.355 5.22287 4.4012 0
M  V30 5997 O 554.043 6.51826 4.70508 0
M  V30 5998 H 553.775 0.291946 0.609708 0
M  V30 5999 H 556.329 1.42627 1.47806 0
M  V30 6000 H 554.559 0.45359 3.84031 0
M  V30 6001 H 556.248 0.852363 3.9685 0
M  V30 6002 H 557.014 3.30086 3.55342 0
M  V30 6003 H 552.893 2.18409 4.05979 0
M  V30 6004 H 556.437 5.63586 4.11116 0
M  V30 6005 H 552.334 4.51006 4.61805 0
M  V30 6006 H 553.102 6.56893 4.88298 0
M  V30 6007 N 555.766 -1.3263 0.851289 0
M  V30 6008 C 557.006 -1.99174 0.459266 0
M  V30 6009 C 557.37 -1.65913 -0.966273 0
M  V30 6010 O 558.571 -2.2552 -1.46267 0
M  V30 6011 C 556.842 -3.50721 0.687698 0
M  V30 6012 S 558.401 -4.37039 0.392746 0
M  V30 6013 H 555.219 -0.689832 0.172199 0
M  V30 6014 H 557.821 -1.61395 1.10327 0
M  V30 6015 H 556.525 -3.72417 1.72435 0
M  V30 6016 H 556.056 -3.93389 0.0299949 0
M  V30 6017 H 558.071 -4.8999 -0.782578 0
M  V30 6018 N 557.244 -0.608902 -1.45362 0
M  V30 6019 C 558.469 -0.10921 -2.07112 0
M  V30 6020 C 558.894 1.19779 -1.45033 0
M  V30 6021 O 558.252 1.72961 -0.543527 0
M  V30 6022 C 558.3 0.0155745 -3.60597 0
M  V30 6023 O 557.404 1.06546 -3.98399 0
M  V30 6024 H 556.745 -0.0746619 -0.659789 0
M  V30 6025 H 559.275 -0.839283 -1.86594 0
M  V30 6026 H 559.285 0.213364 -4.07442 0
M  V30 6027 H 557.96 -0.938765 -4.05167 0
M  V30 6028 H 556.537 0.844024 -3.63223 0
M  V30 6029 N 558.722 1.53707 -0.348139 0
M  V30 6030 C 559.654 2.22725 0.540946 0
M  V30 6031 C 560.667 1.2354 1.06027 0
M  V30 6032 O 561.856 1.49867 0.96964 0
M  V30 6033 C 558.956 2.89756 1.75768 0
M  V30 6034 C 558.129 4.15297 1.37285 0
M  V30 6035 C 557.188 4.65697 2.44976 0
M  V30 6036 O 556.214 5.29798 2.08092 0
M  V30 6037 N 557.416 4.42017 3.763 0
M  V30 6038 H 560.181 2.99658 -0.0501592 0
M  V30 6039 H 557.742 1.60979 -0.17248 0
M  V30 6040 H 559.734 3.20388 2.47252 0
M  V30 6041 H 558.304 2.16382 2.25605 0
M  V30 6042 H 557.524 3.9116 0.488584 0
M  V30 6043 H 558.812 4.96948 1.09179 0
M  V30 6044 H 558.21 3.9076 4.09051 0
M  V30 6045 H 556.767 4.77242 4.4394 0
M  V30 6046 N 560.2 0.0768682 1.57412 0
M  V30 6047 C 561.449 -0.590679 1.92857 0
M  V30 6048 C 561.762 -1.70461 0.959293 0
M  V30 6049 O 562.968 -2.43207 1.20675 0
M  V30 6050 C 561.424 -1.10204 3.42612 0
M  V30 6051 C 561.032 -0.0188447 4.47996 0
M  V30 6052 C 562.776 -1.74336 3.87049 0
M  V30 6053 C 560.683 -0.544536 5.88888 0
M  V30 6054 H 559.613 -0.224411 0.71983 0
M  V30 6055 H 562.264 0.149924 1.82887 0
M  V30 6056 H 560.646 -1.89577 3.47673 0
M  V30 6057 H 561.82 0.755936 4.54557 0
M  V30 6058 H 560.135 0.526555 4.13057 0
M  V30 6059 H 562.732 -2.14708 4.89699 0
M  V30 6060 H 563.075 -2.60537 3.24694 0
M  V30 6061 H 563.608 -1.01577 3.84613 0
M  V30 6062 H 560.347 0.280426 6.549 0
M  V30 6063 H 559.867 -1.28673 5.85836 0
M  V30 6064 H 561.546 -1.01933 6.3892 0
M  V30 6065 N 561.678 -1.56367 -0.196722 0
M  V30 6066 C 563.089 -1.70462 -0.761545 0
M  V30 6067 C 563.44 -0.683161 -1.83922 0
M  V30 6068 O 562.565 0.160753 -2.15802 0
M  V30 6069 C 563.16 -3.09057 -1.38814 0
M  V30 6070 C 561.719 -3.24922 -1.90007 0
M  V30 6071 C 560.866 -2.66412 -0.769399 0
M  V30 6072 H 563.817 -1.58675 0.0283263 0
M  V30 6073 H 563.838 -3.06296 -2.2575 0
M  V30 6074 H 563.35 -3.83378 -0.603559 0
M  V30 6075 H 561.451 -2.55514 -2.71189 0
M  V30 6076 H 561.564 -4.3241 -2.06297 0
M  V30 6077 H 559.928 -2.25546 -1.18326 0
M  V30 6078 H 560.711 -3.433 0.00291773 0
M  V30 6079 N 563.156 0.464375 -1.50603 0
M  V30 6080 C 564.104 1.58224 -1.70493 0
M  V30 6081 C 565.098 1.59492 -0.570836 0
M  V30 6082 O 566.304 1.63561 -0.751517 0
M  V30 6083 H 562.679 0.525161 -0.538247 0
M  V30 6084 H 564.65 1.38613 -2.64252 0
M  V30 6085 C 563.399 2.96113 -1.82243 0
M  V30 6086 H 562.722 2.95858 -2.68901 0
M  V30 6087 H 564.162 3.73769 -2.00182 0
M  V30 6088 C 562.621 3.31946 -0.575628 0
M  V30 6089 O 563.151 4.00708 0.282152 0
M  V30 6090 N 561.357 2.87436 -0.427665 0
M  V30 6091 H 560.904 2.31652 -1.12674 0
M  V30 6092 H 560.862 3.11776 0.405379 0
M  V30 6093 N 564.634 1.40294 0.718013 0
M  V30 6094 C 565.874 1.39888 1.49032 0
M  V30 6095 C 566.238 -0.000462935 1.92 0
M  V30 6096 O 567.439 -0.129622 2.68487 0
M  V30 6097 C 565.71 2.35868 2.68516 0
M  V30 6098 S 567.269 2.53799 3.57954 0
M  V30 6099 H 564.087 0.495849 0.509563 0
M  V30 6100 H 566.689 1.76541 0.839846 0
M  V30 6101 H 565.393 3.36375 2.35117 0
M  V30 6102 H 564.924 2.0049 3.38478 0
M  V30 6103 H 566.939 1.78859 4.62843 0
M  V30 6104 N 566.112 -0.949982 1.2575 0
M  V30 6105 C 567.389 -1.6718 1.01539 0
M  V30 6106 C 567.769 -2.06095 -0.456942 0
M  V30 6107 O 567.117 -1.77792 -1.43534 0
M  V30 6108 C 567.327 -2.8906 1.95564 0
M  V30 6109 C 568.675 -3.60909 2.23673 0
M  V30 6110 O 569.699 -2.9915 1.9336 0
M  V30 6111 O 568.558 -4.72127 2.75243 0
M  V30 6112 H 565.652 -0.731697 0.385419 0
M  V30 6113 H 568.198 -1.00249 1.36924 0
M  V30 6114 H 566.97 -2.57128 2.94959 0
M  V30 6115 H 566.593 -3.63719 1.60605 0
M  V30 6116 N 567.59 -1.07411 -1.15328 0
M  V30 6117 C 568.523 -0.63913 -2.19067 0
M  V30 6118 C 569.501 0.343929 -1.58921 0
M  V30 6119 O 570.685 0.250207 -1.86832 0
M  V30 6120 C 567.812 0.0613977 -3.38644 0
M  V30 6121 C 566.858 -0.880201 -4.17318 0
M  V30 6122 S 567.691 -2.38152 -4.79629 0
M  V30 6123 C 568.847 -1.69281 -6.02573 0
M  V30 6124 H 569.08 -1.51799 -2.55626 0
M  V30 6125 H 566.613 -0.888138 -1.26299 0
M  V30 6126 H 568.571 0.459323 -4.07922 0
M  V30 6127 H 567.232 0.916605 -3.00428 0
M  V30 6128 H 566.425 -0.336781 -5.02874 0
M  V30 6129 H 566.027 -1.21854 -3.53592 0
M  V30 6130 H 568.319 -1.00488 -6.70006 0
M  V30 6131 H 569.262 -2.52671 -6.61485 0
M  V30 6132 H 569.67 -1.17053 -5.52231 0
M  V30 6133 N 569.068 1.32177 -0.85831 0
M  V30 6134 C 570.293 2.01847 -0.476718 0
M  V30 6135 C 570.718 1.64065 0.920021 0
M  V30 6136 O 570.076 0.843189 1.60499 0
M  V30 6137 C 570.124 3.55097 -0.627578 0
M  V30 6138 O 569.228 4.11012 0.338086 0
M  V30 6139 H 568.569 0.635907 -0.191099 0
M  V30 6140 H 571.099 1.68641 -1.15851 0
M  V30 6141 H 571.109 4.04718 -0.516476 0
M  V30 6142 H 569.784 3.81938 -1.64609 0
M  V30 6143 H 568.361 3.72451 0.182917 0
M  V30 6144 N 570.547 0.616602 1.45037 0
M  V30 6145 C 571.497 -0.118543 2.27692 0
M  V30 6146 C 572.481 -0.830025 1.37838 0
M  V30 6147 O 573.673 -0.718528 1.6176 0
M  V30 6148 C 570.802 -1.10924 3.24886 0
M  V30 6149 C 569.888 -0.398134 4.22227 0
M  V30 6150 N 570.279 0.565233 5.02632 0
M  V30 6151 C 568.577 -0.644506 4.41319 0
M  V30 6152 C 569.278 0.984043 5.73316 0
M  V30 6153 N 568.254 0.325879 5.42622 0
M  V30 6154 H 572.056 0.621239 2.87259 0
M  V30 6155 H 569.57 0.440968 1.56299 0
M  V30 6156 H 571.567 -1.65038 3.82842 0
M  V30 6157 H 570.227 -1.84948 2.66879 0
M  V30 6158 H 571.238 0.942395 5.09254 0
M  V30 6159 H 567.915 -1.36873 3.94426 0
M  V30 6160 H 569.305 1.77911 6.47918 0
M  V30 6161 N 572.025 -1.5352 0.356285 0
M  V30 6162 C 573.273 -2.00719 -0.235837 0
M  V30 6163 C 573.594 -1.24551 -1.5004 0
M  V30 6164 O 572.864 -0.356185 -1.92635 0
M  V30 6165 H 571.444 -0.741542 -0.0901366 0
M  V30 6166 H 574.106 -1.88887 0.480378 0
M  V30 6167 H 573.202 -3.08551 -0.469357 0
M  V30 6168 N 573.503 -0.0852151 -1.57369 0
M  V30 6169 C 574.435 0.907099 -2.10486 0
M  V30 6170 C 575.448 1.25259 -1.03991 0
M  V30 6171 O 576.637 1.20743 -1.31467 0
M  V30 6172 C 573.737 2.21908 -2.56145 0
M  V30 6173 C 572.91 2.05042 -3.86363 0
M  V30 6174 C 571.969 3.19664 -4.17973 0
M  V30 6175 O 570.995 2.94062 -4.87356 0
M  V30 6176 N 572.197 4.45151 -3.72587 0
M  V30 6177 H 574.962 0.453505 -2.96249 0
M  V30 6178 H 572.523 0.100157 -1.6159 0
M  V30 6179 H 574.515 2.97519 -2.74343 0
M  V30 6180 H 573.085 2.58723 -1.75446 0
M  V30 6181 H 572.305 1.13819 -3.77411 0
M  V30 6182 H 573.593 1.91039 -4.71574 0
M  V30 6183 H 572.991 4.68834 -3.16561 0
M  V30 6184 H 571.548 5.17744 -3.9596 0
M  V30 6185 N 574.981 1.5647 0.188427 0
M  V30 6186 C 576.258 1.71857 0.934058 0
M  V30 6187 C 576.638 0.641867 2.01105 0
M  V30 6188 O 575.986 -0.346098 2.25864 0
M  V30 6189 C 576.196 3.14431 1.5144 0
M  V30 6190 C 577.544 3.74869 1.99396 0
M  V30 6191 O 578.568 3.17601 1.61269 0
M  V30 6192 O 577.427 4.75387 2.69573 0
M  V30 6193 H 574.521 0.701186 0.438483 0
M  V30 6194 H 577.067 1.68768 0.177599 0
M  V30 6195 H 575.839 3.8427 0.738416 0
M  V30 6196 H 575.462 3.21775 2.33552 0
M  V30 6197 N 576.459 -0.456382 1.50847 0
M  V30 6198 C 577.699 -1.21704 1.64218 0
M  V30 6199 C 578.063 -1.88932 0.341859 0
M  V30 6200 O 579.264 -2.66497 0.351137 0
M  V30 6201 C 577.535 -2.22162 2.79962 0
M  V30 6202 S 579.094 -3.0697 3.13552 0
M  V30 6203 H 575.912 -0.412995 0.578754 0
M  V30 6204 H 578.514 -0.511637 1.88686 0
M  V30 6205 H 577.218 -1.71379 3.72904 0
M  V30 6206 H 576.749 -2.9731 2.57624 0
M  V30 6207 H 578.764 -4.23539 2.58513 0
M  V30 6208 N 577.937 -1.40673 -0.710563 0
M  V30 6209 C 579.167 -1.4234 -1.49742 0
M  V30 6210 C 579.575 -0.022821 -1.89186 0
M  V30 6211 O 578.918 0.964773 -1.56326 0
M  V30 6212 C 578.98 -2.25509 -2.79975 0
M  V30 6213 C 578.644 -3.73862 -2.62824 0
M  V30 6214 C 579.641 -4.66379 -2.29752 0
M  V30 6215 C 577.326 -4.17735 -2.78932 0
M  V30 6216 C 579.32 -6.00756 -2.13006 0
M  V30 6217 C 577.007 -5.5218 -2.61802 0
M  V30 6218 C 578.005 -6.43505 -2.28888 0
M  V30 6219 O 577.693 -7.75472 -2.11894 0
M  V30 6220 H 577.425 -0.487311 -0.468513 0
M  V30 6221 H 579.979 -1.8542 -0.883668 0
M  V30 6222 H 578.209 -1.77218 -3.43701 0
M  V30 6223 H 579.898 -2.19058 -3.41714 0
M  V30 6224 H 580.664 -4.33778 -2.16936 0
M  V30 6225 H 576.543 -3.46967 -3.03537 0
M  V30 6226 H 580.087 -6.72003 -1.87237 0
M  V30 6227 H 575.984 -5.84365 -2.74204 0
M  V30 6228 H 576.752 -7.86458 -2.26775 0
M  V30 6229 N 579.415 0.9433 -1.26252 0
M  V30 6230 C 580.831 1.21644 -1.03319 0
M  V30 6231 C 581.031 2.0003 0.242983 0
M  V30 6232 O 580.087 2.33838 0.952688 0
M  V30 6233 C 581.4 1.97978 -2.2633 0
M  V30 6234 C 582.948 2.10978 -2.31209 0
M  V30 6235 C 583.423 2.90713 -3.53907 0
M  V30 6236 N 584.914 2.98287 -3.54371 0
M  V30 6237 C 585.649 3.60406 -4.45976 0
M  V30 6238 N 585.145 4.24043 -5.47868 0
M  V30 6239 N 586.938 3.57658 -4.33633 0
M  V30 6240 H 579.089 0.419221 -2.08222 0
M  V30 6241 H 581.352 0.247995 -0.914988 0
M  V30 6242 H 581.058 1.47788 -3.19142 0
M  V30 6243 H 580.932 2.9865 -2.30408 0
M  V30 6244 H 583.319 2.6036 -1.38913 0
M  V30 6245 H 583.4 1.09575 -2.31143 0
M  V30 6246 H 583.044 2.42018 -4.46531 0
M  V30 6247 H 582.974 3.92367 -3.5122 0
M  V30 6248 H 585.465 2.53044 -2.80673 0
M  V30 6249 H 585.778 4.69334 -6.13959 0
M  V30 6250 H 584.123 4.22637 -5.51728 0
M  V30 6251 H 587.314 3.07134 -3.53251 0
M  V30 6252 H 587.487 4.05782 -5.05218 0
M  V30 6253 N 580.893 1.08022 1.14757 0
M  V30 6254 C 582.141 0.805913 1.85336 0
M  V30 6255 C 582.462 -0.670162 1.83122 0
M  V30 6256 O 581.732 -1.48567 1.2769 0
M  V30 6257 H 580.312 0.295138 0.686223 0
M  V30 6258 H 582.974 1.36538 1.3908 0
M  V30 6259 H 582.07 1.14655 2.90277 0
M  V30 6260 N 582.371 -1.3172 0.865308 0
M  V30 6261 C 583.319 -2.30569 0.306674 0
M  V30 6262 C 584.313 -1.59317 -0.575724 0
M  V30 6263 O 585.519 -1.73961 -0.462343 0
M  V30 6264 H 581.894 -0.747681 0.0804834 0
M  V30 6265 H 583.865 -2.75165 1.15441 0
M  V30 6266 C 582.614 -3.44358 -0.480952 0
M  V30 6267 H 581.937 -3.99354 0.18876 0
M  V30 6268 H 583.377 -4.15652 -0.837241 0
M  V30 6269 C 581.836 -2.92574 -1.67039 0
M  V30 6270 O 582.366 -2.90954 -2.76964 0
M  V30 6271 N 580.572 -2.48835 -1.50097 0
M  V30 6272 H 580.119 -2.50353 -0.606738 0
M  V30 6273 H 580.077 -2.14543 -2.29823 0
M  V30 6274 N 583.85 -0.624285 -1.44708 0
M  V30 6275 C 585.098 -0.125802 -2.01708 0
M  V30 6276 C 585.418 1.2543 -1.49306 0
M  V30 6277 O 584.689 1.83198 -0.693924 0
M  V30 6278 H 583.269 -0.0435161 -0.745731 0
M  V30 6279 H 585.931 -0.809446 -1.77296 0
M  V30 6280 H 585.027 -0.0882734 -3.11975 0
M  V30 6281 N 585.328 1.53329 -0.364422 0
M  V30 6282 C 586.275 2.25698 0.482607 0
M  V30 6283 C 587.245 1.26325 1.07848 0
M  V30 6284 O 588.43 1.55104 1.11119 0
M  V30 6285 C 585.57 3.04873 1.61699 0
M  V30 6286 C 584.683 4.19135 1.0464 0
M  V30 6287 C 583.818 4.85754 2.14979 0
M  V30 6288 C 582.857 5.9205 1.5538 0
M  V30 6289 N 581.994 6.52365 2.59547 0
M  V30 6290 H 586.834 2.97666 -0.141032 0
M  V30 6291 H 584.371 1.46875 -0.0813692 0
M  V30 6292 H 586.329 3.49051 2.28516 0
M  V30 6293 H 584.959 2.35162 2.2113 0
M  V30 6294 H 584.011 3.79451 0.268553 0
M  V30 6295 H 585.323 4.95525 0.570653 0
M  V30 6296 H 584.477 5.3311 2.89619 0
M  V30 6297 H 583.216 4.08834 2.65906 0
M  V30 6298 H 582.221 5.44058 0.792549 0
M  V30 6299 H 583.446 6.7089 1.0528 0
M  V30 6300 H 581.392 5.78298 3.09689 0
M  V30 6301 H 581.309 7.2429 2.16655 0
M  V30 6302 H 582.577 7.0437 3.33892 0
M  V30 6303 N 586.806 0.0935595 1.57322 0
M  V30 6304 C 587.754 -0.883457 2.15169 0
M  V30 6305 C 588.748 -1.29324 1.09415 0
M  V30 6306 O 589.954 -1.26795 1.27762 0
M  V30 6307 H 586.329 -0.302923 0.688289 0
M  V30 6308 H 588.3 -0.370845 2.96087 0
M  V30 6309 C 587.049 -2.13345 2.74552 0
M  V30 6310 H 586.372 -1.82702 3.55612 0
M  V30 6311 H 587.812 -2.7977 3.18598 0
M  V30 6312 C 586.271 -2.90646 1.70371 0
M  V30 6313 O 586.801 -3.85133 1.14173 0
M  V30 6314 N 585.007 -2.54157 1.40899 0
M  V30 6315 H 584.554 -1.77391 1.86789 0
M  V30 6316 H 584.512 -3.06178 0.714301 0
M  V30 6317 N 588.284 -1.56567 -0.180126 0
M  V30 6318 C 589.514 -1.85349 -0.912647 0
M  V30 6319 C 589.922 -0.675795 -1.76719 0
M  V30 6320 O 589.265 0.3645 -1.80047 0
M  V30 6321 C 589.327 -3.08431 -1.84691 0
M  V30 6322 C 588.991 -4.41694 -1.17284 0
M  V30 6323 C 589.988 -5.17062 -0.542532 0
M  V30 6324 C 587.673 -4.8843 -1.17223 0
M  V30 6325 C 589.667 -6.37351 0.0793953 0
M  V30 6326 C 587.354 -6.08652 -0.54647 0
M  V30 6327 C 588.352 -6.82955 0.0782458 0
M  V30 6328 O 588.04 -8.00897 0.694158 0
M  V30 6329 H 587.772 -0.619286 -0.271036 0
M  V30 6330 H 590.326 -2.0454 -0.187768 0
M  V30 6331 H 588.556 -2.85163 -2.61188 0
M  V30 6332 H 590.245 -3.23733 -2.44851 0
M  V30 6333 H 591.011 -4.8204 -0.535045 0
M  V30 6334 H 586.89 -4.30542 -1.64788 0
M  V30 6335 H 590.434 -6.95287 0.567612 0
M  V30 6336 H 586.331 -6.4314 -0.55151 0
M  V30 6337 H 587.099 -8.16352 0.592537 0
M  V30 6338 N 589.762 0.448376 -1.51087 0
M  V30 6339 C 590.695 1.56298 -1.66272 0
M  V30 6340 C 591.673 1.54381 -0.510419 0
M  V30 6341 O 592.857 1.73671 -0.732854 0
M  V30 6342 C 589.984 2.94883 -1.66618 0
M  V30 6343 C 589.03 3.14868 -2.87681 0
M  V30 6344 S 589.863 2.9234 -4.48662 0
M  V30 6345 C 591.019 4.33227 -4.51735 0
M  V30 6346 H 591.252 1.43182 -2.6055 0
M  V30 6347 H 588.785 0.637309 -1.40633 0
M  V30 6348 H 590.743 3.74771 -1.67502 0
M  V30 6349 H 589.404 3.05371 -0.735358 0
M  V30 6350 H 588.597 4.16166 -2.84292 0
M  V30 6351 H 588.199 2.42788 -2.84482 0
M  V30 6352 H 590.491 5.26247 -4.26697 0
M  V30 6353 H 591.434 4.41653 -5.53487 0
M  V30 6354 H 591.842 4.16367 -3.81181 0
M  V30 6355 N 591.24 1.41047 0.703093 0
M  V30 6356 C 592.488 1.39723 1.4602 0
M  V30 6357 C 592.809 0.00461257 1.94999 0
M  V30 6358 O 592.079 -0.952292 1.71196 0
M  V30 6359 H 590.659 0.514281 0.541779 0
M  V30 6360 H 593.321 1.76217 0.832678 0
M  V30 6361 H 592.417 2.07982 2.32701 0
M  V30 6362 N 592.718 -0.936591 1.26751 0
M  V30 6363 C 593.666 -2.0573 1.08527 0
M  V30 6364 C 594.66 -1.69397 0.0108784 0
M  V30 6365 O 595.866 -1.79215 0.167915 0
M  V30 6366 H 592.241 -0.673691 0.334133 0
M  V30 6367 H 594.212 -2.1825 2.03493 0
M  V30 6368 C 592.961 -3.39738 0.739845 0
M  V30 6369 H 592.284 -3.68174 1.55845 0
M  V30 6370 H 593.724 -4.18955 0.652149 0
M  V30 6371 C 592.183 -3.32292 -0.555288 0
M  V30 6372 O 592.713 -3.68794 -1.59229 0
M  V30 6373 N 590.919 -2.85394 -0.54762 0
M  V30 6374 H 590.466 -2.55886 0.296667 0
M  V30 6375 H 590.424 -2.80795 -1.41427 0
M  V30 6376 N 594.196 -1.08629 -1.14182 0
M  V30 6377 C 595.126 -0.740003 -2.21464 0
M  V30 6378 C 596.107 0.278591 -1.67803 0
M  V30 6379 O 597.292 0.148461 -1.93632 0
M  V30 6380 C 594.422 -0.150952 -3.46972 0
M  V30 6381 C 593.376 -1.09815 -4.13672 0
M  V30 6382 C 592.702 -0.3712 -5.3341 0
M  V30 6383 C 594.002 -2.43722 -4.61949 0
M  V30 6384 H 595.696 -1.63697 -2.50686 0
M  V30 6385 H 593.242 -0.788526 -1.20492 0
M  V30 6386 H 595.195 0.103325 -4.21273 0
M  V30 6387 H 593.919 0.781164 -3.1712 0
M  V30 6388 H 592.578 -1.33756 -3.41328 0
M  V30 6389 H 592.226 0.564792 -4.99819 0
M  V30 6390 H 591.926 -1.00267 -5.78982 0
M  V30 6391 H 593.45 -0.12503 -6.10472 0
M  V30 6392 H 594.864 -2.24034 -5.27714 0
M  V30 6393 H 593.261 -3.02582 -5.18232 0
M  V30 6394 H 594.331 -3.05082 -3.76899 0
M  V30 6395 N 595.674 1.31259 -0.872281 0
M  V30 6396 C 596.899 2.0133 -0.498099 0
M  V30 6397 C 597.324 1.65031 0.902568 0
M  V30 6398 O 596.682 0.860164 1.59596 0
M  V30 6399 C 596.73 3.54411 -0.665205 0
M  V30 6400 O 595.834 4.11347 0.294473 0
M  V30 6401 H 595.175 0.633844 -0.197832 0
M  V30 6402 H 597.705 1.67402 -1.17633 0
M  V30 6403 H 597.715 4.04147 -0.559373 0
M  V30 6404 H 596.39 3.80171 -1.68651 0
M  V30 6405 H 594.967 3.72624 0.143403 0
M  V30 6406 N 597.152 0.631951 1.44375 0
M  V30 6407 C 598.084 -0.110911 2.28931 0
M  V30 6408 C 599.097 -0.808086 1.41329 0
M  V30 6409 O 600.286 -0.669396 1.65473 0
M  V30 6410 C 597.386 -1.17928 3.1772 0
M  V30 6411 C 596.559 -0.564458 4.33743 0
M  V30 6412 C 595.618 -1.5269 5.0356 0
M  V30 6413 O 594.644 -1.04372 5.59549 0
M  V30 6414 N 595.846 -2.86123 5.05088 0
M  V30 6415 H 598.611 0.614758 2.93327 0
M  V30 6416 H 596.172 0.473171 1.54831 0
M  V30 6417 H 598.164 -1.82348 3.61291 0
M  V30 6418 H 596.734 -1.80717 2.55069 0
M  V30 6419 H 595.954 0.258373 3.93352 0
M  V30 6420 H 597.242 -0.134355 5.08623 0
M  V30 6421 H 596.64 -3.27959 4.60933 0
M  V30 6422 H 595.197 -3.45901 5.52445 0
M  V30 6423 N 598.631 -1.53133 0.372548 0
M  V30 6424 C 599.859 -2.05774 -0.215515 0
M  V30 6425 C 600.274 -1.24555 -1.41886 0
M  V30 6426 O 599.631 -0.287951 -1.80214 0
M  V30 6427 C 599.682 -3.5645 -0.602161 0
M  V30 6428 O 599.403 -4.34591 0.553359 0
M  V30 6429 C 600.904 -4.25374 -1.24787 0
M  V30 6430 H 598.124 -0.670009 -0.0364529 0
M  V30 6431 H 600.668 -1.97434 0.532934 0
M  V30 6432 H 598.823 -3.64918 -1.30052 0
M  V30 6433 H 599.237 -5.23954 0.239336 0
M  V30 6434 H 600.711 -5.32097 -1.46891 0
M  V30 6435 H 601.188 -3.79531 -2.21026 0
M  V30 6436 H 601.794 -4.21177 -0.590752 0
M  V30 6437 N 600.109 -0.101901 -1.5727 0
M  V30 6438 C 601.525 0.254739 -1.57554 0
M  V30 6439 C 601.725 1.67937 -1.11352 0
M  V30 6440 O 600.781 2.39722 -0.793081 0
M  V30 6441 C 602.094 0.036975 -3.00677 0
M  V30 6442 C 603.642 0.104199 -3.12827 0
M  V30 6443 C 604.117 -0.0856565 -4.5792 0
M  V30 6444 N 605.608 -0.0310498 -4.6319 0
M  V30 6445 C 606.343 -0.153099 -5.73196 0
M  V30 6446 N 605.839 -0.330364 -6.92012 0
M  V30 6447 N 607.632 -0.0938854 -5.62022 0
M  V30 6448 H 599.783 -1.03263 -1.85609 0
M  V30 6449 H 602.046 -0.405251 -0.857016 0
M  V30 6450 H 601.752 -0.947254 -3.38703 0
M  V30 6451 H 601.626 0.776335 -3.69124 0
M  V30 6452 H 604.013 1.07894 -2.74669 0
M  V30 6453 H 604.094 -0.666762 -2.46957 0
M  V30 6454 H 603.738 -1.05729 -4.96773 0
M  V30 6455 H 603.668 0.705082 -5.21858 0
M  V30 6456 H 606.159 0.103141 -3.77759 0
M  V30 6457 H 606.472 -0.41482 -7.71686 0
M  V30 6458 H 604.817 -0.366119 -6.94035 0
M  V30 6459 H 608.008 0.0435168 -4.6808 0
M  V30 6460 H 608.181 -0.19245 -6.47714 0
M  V30 6461 N 601.587 1.56661 0.17182 0
M  V30 6462 C 602.812 1.86459 0.908165 0
M  V30 6463 C 603.237 0.688181 1.75059 0
M  V30 6464 O 602.595 -0.362753 1.77634 0
M  V30 6465 C 602.643 3.14669 1.76112 0
M  V30 6466 O 601.747 2.96858 2.86268 0
M  V30 6467 H 601.088 0.613318 0.254434 0
M  V30 6468 H 603.618 2.03892 0.170113 0
M  V30 6469 H 603.628 3.46061 2.16115 0
M  V30 6470 H 602.303 3.99905 1.14233 0
M  V30 6471 H 600.88 2.76819 2.49852 0
M  V30 6472 N 603.065 -0.440357 1.51323 0
M  V30 6473 C 604.313 -1.18769 1.63518 0
M  V30 6474 C 604.634 -1.91793 0.352201 0
M  V30 6475 O 603.904 -1.85432 -0.631811 0
M  V30 6476 H 602.484 -0.441408 0.602634 0
M  V30 6477 H 605.146 -0.505162 1.8824 0
M  V30 6478 H 604.242 -1.91892 2.46138 0
M  V30 6479 N 604.543 -1.41418 -0.695603 0
M  V30 6480 C 605.473 -1.46035 -1.82197 0
M  V30 6481 C 606.454 -0.319025 -1.67082 0
M  V30 6482 O 607.639 -0.530462 -1.86815 0
M  V30 6483 C 604.769 -1.34179 -3.20333 0
M  V30 6484 C 603.723 -2.46123 -3.50154 0
M  V30 6485 C 603.049 -2.19332 -4.87645 0
M  V30 6486 C 604.349 -3.88463 -3.49133 0
M  V30 6487 H 606.043 -2.40303 -1.78591 0
M  V30 6488 H 603.589 -1.15663 -0.857797 0
M  V30 6489 H 605.542 -1.36021 -3.98844 0
M  V30 6490 H 604.266 -0.363952 -3.24566 0
M  V30 6491 H 602.925 -2.43563 -2.73994 0
M  V30 6492 H 602.573 -1.19891 -4.88503 0
M  V30 6493 H 602.273 -2.94344 -5.08562 0
M  V30 6494 H 603.797 -2.22889 -5.68465 0
M  V30 6495 H 605.211 -3.92738 -4.17648 0
M  V30 6496 H 603.608 -4.63158 -3.81582 0
M  V30 6497 H 604.678 -4.16617 -2.48109 0
M  V30 6498 N 606.021 0.929856 -1.27246 0
M  V30 6499 C 607.249 1.71144 -1.16265 0
M  V30 6500 C 607.664 1.867 0.280786 0
M  V30 6501 O 607.021 1.38249 1.19136 0
M  V30 6502 C 607.072 3.11222 -1.83911 0
M  V30 6503 O 606.793 2.96398 -3.22614 0
M  V30 6504 C 608.294 4.05541 -1.79028 0
M  V30 6505 H 605.514 0.535499 -0.404328 0
M  V30 6506 H 608.058 1.16492 -1.68077 0
M  V30 6507 H 606.213 3.6274 -1.36009 0
M  V30 6508 H 606.627 3.8494 -3.56261 0
M  V30 6509 H 608.101 5.01351 -2.30978 0
M  V30 6510 H 608.578 4.32589 -0.759168 0
M  V30 6511 H 609.184 3.59947 -2.26535 0
M  V30 6512 N 607.499 1.09233 1.13605 0
M  V30 6513 C 608.739 0.836786 1.86487 0
M  V30 6514 C 609.103 -0.626191 1.81502 0
M  V30 6515 O 610.304 -0.99758 2.49603 0
M  V30 6516 C 608.575 1.35476 3.30728 0
M  V30 6517 S 610.134 1.2328 4.21126 0
M  V30 6518 H 606.952 0.302702 0.643345 0
M  V30 6519 H 609.554 1.3953 1.36936 0
M  V30 6520 H 608.258 2.41381 3.31909 0
M  V30 6521 H 607.789 0.792286 3.85339 0
M  V30 6522 H 609.804 0.182468 4.95864 0
M  V30 6523 N 608.977 -1.30795 0.87923 0
M  V30 6524 C 610.202 -2.01063 0.508769 0
M  V30 6525 C 610.627 -1.65508 -0.893803 0
M  V30 6526 O 609.985 -0.868616 -1.59138 0
M  V30 6527 C 610.033 -3.54054 0.683991 0
M  V30 6528 O 609.137 -4.11498 -0.272654 0
M  V30 6529 H 608.478 -0.632786 0.201191 0
M  V30 6530 H 611.008 -1.66776 1.18519 0
M  V30 6531 H 611.018 -4.03845 0.580798 0
M  V30 6532 H 609.693 -3.79271 1.70665 0
M  V30 6533 H 608.27 -3.72695 -0.12364 0
M  V30 6534 N 610.455 -0.639598 -1.44038 0
M  V30 6535 C 611.388 0.109736 -2.27936 0
M  V30 6536 C 612.366 0.843095 -1.39035 0
M  V30 6537 O 613.55 0.845456 -1.68476 0
M  V30 6538 C 610.677 1.16173 -3.18153 0
M  V30 6539 C 609.723 0.527954 -4.2322 0
M  V30 6540 S 610.556 -0.688318 -5.31058 0
M  V30 6541 C 611.712 0.363481 -6.24844 0
M  V30 6542 H 611.945 -0.601986 -2.91142 0
M  V30 6543 H 609.478 -0.42802 -1.48349 0
M  V30 6544 H 611.436 1.76372 -3.7068 0
M  V30 6545 H 610.097 1.84569 -2.54151 0
M  V30 6546 H 609.29 1.32054 -4.86393 0
M  V30 6547 H 608.892 0.000396444 -3.74 0
M  V30 6548 H 611.184 1.23362 -6.66174 0
M  V30 6549 H 612.127 -0.23288 -7.07717 0
M  V30 6550 H 612.535 0.693179 -5.60228 0
M  V30 6551 N 611.933 1.52934 -0.380664 0
M  V30 6552 C 613.179 2.02443 0.197089 0
M  V30 6553 C 613.534 1.26249 1.45186 0
M  V30 6554 O 612.827 0.351964 1.8834 0
M  V30 6555 C 613.021 3.5349 0.527199 0
M  V30 6556 C 612.85 4.44312 -0.694027 0
M  V30 6557 C 611.62 4.90582 -1.21068 0
M  V30 6558 C 613.818 4.8995 -1.56377 0
M  V30 6559 N 611.8 5.65451 -2.39036 0
M  V30 6560 C 613.171 5.63313 -2.58995 0
M  V30 6561 C 615.226 4.72002 -1.58488 0
M  V30 6562 C 613.929 6.20635 -3.63599 0
M  V30 6563 C 615.955 5.30201 -2.61995 0
M  V30 6564 C 615.317 6.03463 -3.63335 0
M  V30 6565 H 611.416 0.781241 0.0344357 0
M  V30 6566 H 614 1.87387 -0.528609 0
M  V30 6567 H 612.171 3.68677 1.22196 0
M  V30 6568 H 613.903 3.89707 1.09135 0
M  V30 6569 H 610.658 4.67249 -0.772995 0
M  V30 6570 H 611.082 6.07541 -2.98701 0
M  V30 6571 H 615.724 4.14873 -0.814891 0
M  V30 6572 H 613.442 6.76852 -4.41472 0
M  V30 6573 H 617.028 5.182 -2.645 0
M  V30 6574 H 615.908 6.47693 -4.42113 0
M  V30 6575 N 613.412 0.11024 1.57214 0
M  V30 6576 C 614.689 -0.592956 1.86396 0
M  V30 6577 C 615.069 -1.85379 1.00985 0
M  V30 6578 O 614.417 -2.28337 0.0863592 0
M  V30 6579 C 614.627 -0.893816 3.3736 0
M  V30 6580 C 615.975 -1.25069 4.05762 0
M  V30 6581 O 616.999 -0.984356 3.42329 0
M  V30 6582 O 615.858 -1.75017 5.17718 0
M  V30 6583 H 612.952 -0.29828 0.771335 0
M  V30 6584 H 615.498 0.144083 1.69087 0
M  V30 6585 H 614.27 2.6031e-05 3.913 0
M  V30 6586 H 613.893 -1.68631 3.60068 0
M  V30 6587 N 614.89 -1.56749 -0.16351 0
M  V30 6588 C 615.837 -1.97011 -1.2023 0
M  V30 6589 C 616.807 -0.835186 -1.43575 0
M  V30 6590 O 617.992 -1.09594 -1.56185 0
M  V30 6591 C 615.132 -2.34186 -2.53478 0
M  V30 6592 C 614.245 -3.60893 -2.37446 0
M  V30 6593 C 613.38 -3.87245 -3.63614 0
M  V30 6594 C 612.419 -5.07274 -3.42548 0
M  V30 6595 N 611.556 -5.29719 -4.60806 0
M  V30 6596 H 616.396 -2.85562 -0.851958 0
M  V30 6597 H 613.933 -1.41292 -0.409257 0
M  V30 6598 H 615.891 -2.53764 -3.31149 0
M  V30 6599 H 614.521 -1.48736 -2.86492 0
M  V30 6600 H 613.573 -3.49185 -1.50911 0
M  V30 6601 H 614.885 -4.48722 -2.1783 0
M  V30 6602 H 614.039 -4.07232 -4.49719 0
M  V30 6603 H 612.778 -2.97806 -3.86216 0
M  V30 6604 H 611.783 -4.87177 -2.5483 0
M  V30 6605 H 613.008 -5.98251 -3.2136 0
M  V30 6606 H 610.954 -4.43233 -4.83612 0
M  V30 6607 H 610.871 -6.11786 -4.44132 0
M  V30 6608 H 612.139 -5.54192 -5.48171 0
M  V30 6609 N 616.368 0.432326 -1.51554 0
M  V30 6610 C 617.316 1.54572 -1.73811 0
M  V30 6611 C 618.31 1.58246 -0.604539 0
M  V30 6612 O 619.516 1.6193 -0.786041 0
M  V30 6613 H 615.891 0.513626 -0.549265 0
M  V30 6614 H 617.862 1.32977 -2.67132 0
M  V30 6615 C 616.611 2.92181 -1.88483 0
M  V30 6616 H 615.934 2.90088 -2.75116 0
M  V30 6617 H 617.374 3.69439 -2.08065 0
M  V30 6618 C 615.833 3.3065 -0.645909 0
M  V30 6619 O 616.363 4.01216 0.197093 0
M  V30 6620 N 614.569 2.86464 -0.488538 0
M  V30 6621 H 614.116 2.29209 -1.17562 0
M  V30 6622 H 614.074 3.12565 0.339156 0
M  V30 6623 N 617.846 1.41785 0.688094 0
M  V30 6624 C 618.779 1.38643 1.81255 0
M  V30 6625 C 619.757 0.252583 1.60626 0
M  V30 6626 O 620.941 0.440691 1.83276 0
M  V30 6627 C 618.068 1.16449 3.18053 0
M  V30 6628 C 617.114 2.32651 3.57457 0
M  V30 6629 S 617.947 3.95152 3.61407 0
M  V30 6630 C 619.103 3.75275 5.00919 0
M  V30 6631 H 619.336 2.33799 1.83644 0
M  V30 6632 H 616.869 1.28398 0.857513 0
M  V30 6633 H 618.827 1.0433 3.97021 0
M  V30 6634 H 617.488 0.229002 3.13264 0
M  V30 6635 H 616.681 2.12835 4.56856 0
M  V30 6636 H 616.283 2.41215 2.85817 0
M  V30 6637 H 618.575 3.35443 5.88629 0
M  V30 6638 H 619.518 4.74302 5.25778 0
M  V30 6639 H 619.926 3.08401 4.7281 0
M  V30 6640 N 619.324 -0.923095 1.27737 0
M  V30 6641 C 620.234 -2.05765 1.12685 0
M  V30 6642 C 621.25 -1.73911 0.0557197 0
M  V30 6643 O 622.426 -1.99674 0.263137 0
M  V30 6644 C 619.491 -3.37804 0.780363 0
M  V30 6645 C 618.552 -3.83326 1.93286 0
M  V30 6646 C 617.785 -5.09064 1.60281 0
M  V30 6647 O 618.008 -5.6809 0.512828 0
M  V30 6648 O 616.942 -5.50071 2.44347 0
M  V30 6649 H 620.768 -2.21378 2.07907 0
M  V30 6650 H 618.353 -1.04299 1.06968 0
M  V30 6651 H 620.235 -4.17097 0.600668 0
M  V30 6652 H 618.91 -3.23387 -0.142291 0
M  V30 6653 H 617.817 -3.049 2.16764 0
M  V30 6654 H 619.15 -4.02292 2.83588 0
M  V30 6655 N 620.802 -1.09834 -1.13024 0
M  V30 6656 C 622.079 -0.749225 -1.80682 0
M  V30 6657 C 622.459 0.765171 -1.96744 0
M  V30 6658 O 621.807 1.68912 -1.53886 0
M  V30 6659 C 622.017 -1.49311 -3.15448 0
M  V30 6660 C 623.365 -1.66162 -3.90737 0
M  V30 6661 O 624.389 -1.45597 -3.25085 0
M  V30 6662 O 623.248 -2.00211 -5.08505 0
M  V30 6663 H 620.342 -0.269614 -0.781817 0
M  V30 6664 H 622.888 -1.20078 -1.19914 0
M  V30 6665 H 621.66 -2.52407 -2.99009 0
M  V30 6666 H 621.283 -1.034 -3.8392 0
M  V30 6667 N 622.28 1.30327 -0.886154 0
M  V30 6668 C 623.21 2.30549 -0.370028 0
M  V30 6669 C 624.191 1.61039 0.547751 0
M  V30 6670 O 625.376 1.8864 0.461353 0
M  V30 6671 C 622.506 3.44808 0.415275 0
M  V30 6672 C 621.46 4.26024 -0.41085 0
M  V30 6673 C 620.786 5.32347 0.501128 0
M  V30 6674 C 622.086 4.95433 -1.65359 0
M  V30 6675 H 623.78 2.73969 -1.20754 0
M  V30 6676 H 621.326 1.3171 -0.582097 0
M  V30 6677 H 623.279 4.13986 0.78699 0
M  V30 6678 H 622.003 3.00197 1.28644 0
M  V30 6679 H 620.662 3.58535 -0.764719 0
M  V30 6680 H 620.31 4.83982 1.37004 0
M  V30 6681 H 620.01 5.87581 -0.0478356 0
M  V30 6682 H 621.534 6.0438 0.869333 0
M  V30 6683 H 622.948 5.5712 -1.35239 0
M  V30 6684 H 621.345 5.60537 -2.14284 0
M  V30 6685 H 622.415 4.21493 -2.39733 0
M  V30 6686 N 623.758 0.647228 1.43697 0
M  V30 6687 C 624.708 -0.0702191 2.27892 0
M  V30 6688 C 625.692 -0.800601 1.39568 0
M  V30 6689 O 626.884 -0.684055 1.63247 0
M  V30 6690 C 624.013 -1.04008 3.27165 0
M  V30 6691 C 623.099 -0.308484 4.22977 0
M  V30 6692 N 623.49 0.671721 5.0132 0
M  V30 6693 C 621.788 -0.550751 4.42586 0
M  V30 6694 C 622.489 1.10543 5.711 0
M  V30 6695 N 621.465 0.440903 5.41809 0
M  V30 6696 H 625.267 0.682031 2.85877 0
M  V30 6697 H 622.781 0.474022 1.55328 0
M  V30 6698 H 624.778 -1.56881 3.86256 0
M  V30 6699 H 623.438 -1.79246 2.70742 0
M  V30 6700 H 624.449 1.0502 5.0714 0
M  V30 6701 H 621.126 -1.28476 3.97241 0
M  V30 6702 H 622.516 1.91614 6.43998 0
M  V30 6703 N 625.236 -1.5273 0.388769 0
M  V30 6704 C 626.652 -1.59553 0.0387049 0
M  V30 6705 C 626.852 -1.40278 -1.44652 0
M  V30 6706 O 625.908 -1.21951 -2.21098 0
M  V30 6707 C 627.221 -2.9625 0.515409 0
M  V30 6708 C 628.769 -3.09426 0.471621 0
M  V30 6709 C 629.244 -4.48572 0.924505 0
M  V30 6710 N 630.735 -4.54754 0.880496 0
M  V30 6711 C 631.47 -5.60653 1.20234 0
M  V30 6712 N 630.966 -6.74198 1.59463 0
M  V30 6713 N 632.759 -5.50755 1.12363 0
M  V30 6714 H 624.91 -1.63508 1.35569 0
M  V30 6715 H 627.173 -0.768097 0.555636 0
M  V30 6716 H 626.879 -3.15569 1.5527 0
M  V30 6717 H 626.753 -3.77102 -0.085792 0
M  V30 6718 H 629.14 -2.89804 -0.556588 0
M  V30 6719 H 629.221 -2.30528 1.10862 0
M  V30 6720 H 628.865 -4.68936 1.95094 0
M  V30 6721 H 628.795 -5.25935 0.264524 0
M  V30 6722 H 631.286 -3.73237 0.591815 0
M  V30 6723 H 631.599 -7.5097 1.82385 0
M  V30 6724 H 629.944 -6.75531 1.63349 0
M  V30 6725 H 633.135 -4.6093 0.816169 0
M  V30 6726 H 633.308 -6.33184 1.37777 0
M  V30 6727 N 626.714 -0.118576 -1.57153 0
M  V30 6728 C 627.664 0.842924 -2.11846 0
M  V30 6729 C 628.648 1.22845 -1.03914 0
M  V30 6730 O 629.84 1.19961 -1.30148 0
M  V30 6731 C 626.969 2.09312 -2.72109 0
M  V30 6732 C 626.055 1.73198 -3.87122 0
M  V30 6733 N 626.446 1.07758 -4.94188 0
M  V30 6734 C 624.744 2.02659 -3.97298 0
M  V30 6735 C 625.445 0.907741 -5.74574 0
M  V30 6736 N 624.421 1.4326 -5.24383 0
M  V30 6737 H 628.223 0.333416 -2.92003 0
M  V30 6738 H 625.737 0.0839073 -1.62183 0
M  V30 6739 H 627.734 2.79162 -3.09635 0
M  V30 6740 H 626.394 2.60807 -1.93416 0
M  V30 6741 H 627.405 0.741613 -5.12563 0
M  V30 6742 H 624.082 2.56204 -3.29645 0
M  V30 6743 H 625.472 0.394112 -6.70743 0
M  V30 6744 N 628.193 1.56834 0.155195 0
M  V30 6745 C 629.442 1.82088 0.867567 0
M  V30 6746 C 629.755 0.69849 1.82703 0
M  V30 6747 O 630.961 0.836407 2.58295 0
M  V30 6748 C 629.417 3.22707 1.59336 0
M  V30 6749 C 629.025 4.42859 0.676719 0
M  V30 6750 C 630.769 3.57242 2.293 0
M  V30 6751 C 628.676 5.74501 1.40367 0
M  V30 6752 H 627.606 0.679057 0.327715 0
M  V30 6753 H 630.257 1.83105 0.120351 0
M  V30 6754 H 628.639 3.16054 2.38591 0
M  V30 6755 H 629.813 4.60731 -0.0800196 0
M  V30 6756 H 628.128 4.16311 0.0859129 0
M  V30 6757 H 630.725 4.52847 2.84312 0
M  V30 6758 H 631.068 2.82901 3.05406 0
M  V30 6759 H 631.601 3.6552 1.56972 0
M  V30 6760 H 628.34 6.51915 0.684623 0
M  V30 6761 H 627.86 5.60579 2.13332 0
M  V30 6762 H 629.539 6.17016 1.94681 0
M  V30 6763 N 629.671 -0.424282 1.51781 0
M  V30 6764 C 630.918 -1.1726 1.65095 0
M  V30 6765 C 631.246 -1.90881 0.373477 0
M  V30 6766 O 630.501 -1.84835 -0.642997 0
M  V30 6767 C 630.8 -2.20418 2.81337 0
M  V30 6768 C 630.466 -1.63715 4.20129 0
M  V30 6769 C 629.128 -1.47975 4.57883 0
M  V30 6770 C 631.48 -1.22157 5.06682 0
M  V30 6771 C 628.808 -0.891703 5.79884 0
M  V30 6772 C 631.16 -0.647767 6.29275 0
M  V30 6773 C 629.824 -0.477371 6.65791 0
M  V30 6774 H 629.094 -0.429085 0.604125 0
M  V30 6775 H 631.741 -0.461852 1.85847 0
M  V30 6776 H 630.046 -2.97581 2.54859 0
M  V30 6777 H 631.743 -2.78163 2.88836 0
M  V30 6778 H 628.333 -1.76946 3.90369 0
M  V30 6779 H 632.517 -1.33133 4.7811 0
M  V30 6780 H 627.773 -0.747563 6.06813 0
M  V30 6781 H 631.947 -0.317291 6.95677 0
M  V30 6782 H 629.574 -0.0195936 7.60197 0
M  V30 6783 N 631.149 -1.42148 -0.680565 0
M  V30 6784 C 632.395 -1.4352 -1.44131 0
M  V30 6785 C 632.75 -0.0486244 -1.92339 0
M  V30 6786 O 632.043 0.92819 -1.67616 0
M  V30 6787 C 632.237 -2.38945 -2.65782 0
M  V30 6788 C 632.066 -3.86743 -2.29477 0
M  V30 6789 C 630.836 -4.5532 -2.19115 0
M  V30 6790 C 633.034 -4.77321 -1.91491 0
M  V30 6791 N 631.016 -5.88174 -1.75853 0
M  V30 6792 C 632.387 -5.99238 -1.59103 0
M  V30 6793 C 634.442 -4.64829 -1.78432 0
M  V30 6794 C 633.145 -7.10053 -1.14968 0
M  V30 6795 C 635.171 -5.75621 -1.35702 0
M  V30 6796 C 634.533 -6.96645 -1.04234 0
M  V30 6797 H 630.632 -0.580363 -0.524121 0
M  V30 6798 H 633.216 -1.78132 -0.785939 0
M  V30 6799 H 631.387 -2.06403 -3.29017 0
M  V30 6800 H 633.119 -2.30935 -3.32342 0
M  V30 6801 H 629.874 -4.09456 -2.37998 0
M  V30 6802 H 630.298 -6.58625 -1.56661 0
M  V30 6803 H 634.94 -3.71745 -2.01409 0
M  V30 6804 H 632.658 -8.0299 -0.907365 0
M  V30 6805 H 636.244 -5.67964 -1.26126 0
M  V30 6806 H 635.124 -7.80918 -0.716707 0
M  V30 6807 N 632.627 0.916307 -1.28225 0
M  V30 6808 C 633.537 2.05165 -1.13775 0
M  V30 6809 C 634.553 1.73879 -0.0649418 0
M  V30 6810 O 635.729 1.99531 -0.273722 0
M  V30 6811 C 632.794 3.37385 -0.798267 0
M  V30 6812 C 631.855 3.82296 -1.95316 0
M  V30 6813 C 631.088 5.08206 -1.62978 0
M  V30 6814 O 631.311 5.6781 -0.542948 0
M  V30 6815 O 630.245 5.48768 -2.47261 0
M  V30 6816 H 634.071 2.20273 -2.09078 0
M  V30 6817 H 631.656 1.0373 -1.07519 0
M  V30 6818 H 633.538 4.16773 -0.62278 0
M  V30 6819 H 632.213 3.23458 0.125139 0
M  V30 6820 H 631.12 3.03746 -2.18378 0
M  V30 6821 H 632.453 4.00782 -2.85718 0
M  V30 6822 N 634.105 1.10431 1.1244 0
M  V30 6823 C 635.516 0.864439 1.65482 0
M  V30 6824 C 635.867 -0.60527 1.8663 0
M  V30 6825 O 634.992 -1.46492 1.59276 0
M  V30 6826 C 635.587 1.56267 3.0061 0
M  V30 6827 C 634.146 1.3695 3.50602 0
M  V30 6828 C 633.293 1.61209 2.25626 0
M  V30 6829 H 636.244 1.26203 0.962209 0
M  V30 6830 H 636.265 1.00166 3.67079 0
M  V30 6831 H 635.777 2.63231 2.85186 0
M  V30 6832 H 633.878 0.321481 3.71211 0
M  V30 6833 H 633.991 2.11143 4.30064 0
M  V30 6834 H 632.355 1.03482 2.32731 0
M  V30 6835 H 633.138 2.69425 2.12756 0
M  V30 6836 N 635.583 -1.29855 0.893053 0
M  V30 6837 C 636.86 -1.90694 0.435336 0
M  V30 6838 C 637.24 -1.8111 -1.08454 0
M  V30 6839 O 636.588 -1.23352 -1.92345 0
M  V30 6840 C 636.798 -3.36033 0.942472 0
M  V30 6841 C 638.146 -4.13083 0.982226 0
M  V30 6842 O 639.17 -3.4491 0.889686 0
M  V30 6843 O 638.029 -5.34896 1.12022 0
M  V30 6844 H 635.123 -0.815978 0.134567 0
M  V30 6845 H 637.669 -1.38367 0.982484 0
M  V30 6846 H 636.441 -3.37132 1.9864 0
M  V30 6847 H 636.064 -3.95828 0.374952 0
M  V30 6848 N 637.061 -0.65484 -1.43351 0
M  V30 6849 C 638.024 0.0263562 -2.29185 0
M  V30 6850 C 639.024 0.748951 -1.42293 0
M  V30 6851 O 640.214 0.589957 -1.63906 0
M  V30 6852 C 637.346 1.04806 -3.2439 0
M  V30 6853 H 638.539 -0.728883 -2.90908 0
M  V30 6854 H 636.092 -0.416149 -1.50658 0
M  V30 6855 H 636.827 1.83247 -2.67565 0
M  V30 6856 H 636.612 0.533554 -3.88453 0
M  V30 6857 H 638.102 1.52372 -3.88809 0
M  V30 6858 N 638.539 1.52521 -0.396863 0
M  V30 6859 C 639.764 2.06571 0.185258 0
M  V30 6860 C 640.189 1.26605 1.39115 0
M  V30 6861 O 639.547 0.293055 1.78916 0
M  V30 6862 C 639.595 3.5674 0.526189 0
M  V30 6863 O 638.699 3.7929 1.61903 0
M  V30 6864 H 638.04 0.663712 0.0195474 0
M  V30 6865 H 640.57 1.966 -0.566519 0
M  V30 6866 H 640.58 4.00311 0.788338 0
M  V30 6867 H 639.255 4.14379 -0.355397 0
M  V30 6868 H 637.832 3.47605 1.35 0
M  V30 6869 N 640.017 0.126909 1.57088 0
M  V30 6870 C 640.964 -0.82036 2.15728 0
M  V30 6871 C 641.934 -1.25811 1.08447 0
M  V30 6872 O 643.119 -1.33422 1.36393 0
M  V30 6873 C 640.259 -2.06199 2.76724 0
M  V30 6874 C 639.372 -1.67188 3.98337 0
M  V30 6875 C 638.507 -2.86378 4.47393 0
M  V30 6876 C 637.546 -2.43644 5.61519 0
M  V30 6877 N 636.683 -3.55775 6.05284 0
M  V30 6878 H 641.523 -0.313472 2.96347 0
M  V30 6879 H 639.06 -0.14303 1.46403 0
M  V30 6880 H 641.018 -2.78959 3.10222 0
M  V30 6881 H 639.648 -2.54333 1.98782 0
M  V30 6882 H 638.7 -0.842714 3.70948 0
M  V30 6883 H 640.012 -1.31789 4.81075 0
M  V30 6884 H 639.166 -3.67353 4.82842 0
M  V30 6885 H 637.905 -3.25009 3.63621 0
M  V30 6886 H 636.91 -1.61104 5.25667 0
M  V30 6887 H 638.135 -2.06122 6.47063 0
M  V30 6888 H 636.081 -3.94065 5.24451 0
M  V30 6889 H 635.998 -3.24325 6.82898 0
M  V30 6890 H 637.266 -4.37166 6.45373 0
M  V30 6891 N 641.495 -1.56914 -0.146875 0
M  V30 6892 C 642.425 -2.01308 -1.1831 0
M  V30 6893 C 643.406 -0.892664 -1.44795 0
M  V30 6894 O 644.591 -1.16048 -1.55713 0
M  V30 6895 C 641.721 -2.3938 -2.51624 0
M  V30 6896 C 640.675 -3.54608 -2.3966 0
M  V30 6897 C 640.001 -3.78493 -3.77686 0
M  V30 6898 C 641.301 -4.87269 -1.88058 0
M  V30 6899 H 642.995 -2.88123 -0.813964 0
M  V30 6900 H 640.541 -1.38615 -0.3901 0
M  V30 6901 H 642.494 -2.69037 -3.24341 0
M  V30 6902 H 641.218 -1.49502 -2.90373 0
M  V30 6903 H 639.877 -3.25116 -1.69396 0
M  V30 6904 H 639.525 -2.85866 -4.13871 0
M  V30 6905 H 639.225 -4.56039 -3.70543 0
M  V30 6906 H 640.749 -4.10576 -4.51951 0
M  V30 6907 H 642.163 -5.15644 -2.50568 0
M  V30 6908 H 640.56 -5.68622 -1.91805 0
M  V30 6909 H 641.63 -4.77634 -0.836277 0
M  V30 6910 N 642.974 0.416227 -1.52004 0
M  V30 6911 C 643.922 1.5272 -1.7544 0
M  V30 6912 C 644.916 1.57596 -0.621289 0
M  V30 6913 O 646.122 1.61087 -0.803172 0
M  V30 6914 H 642.497 0.507772 -0.554682 0
M  V30 6915 H 644.468 1.30136 -2.68528 0
M  V30 6916 C 643.217 2.90165 -1.91571 0
M  V30 6917 H 642.54 2.87154 -2.78178 0
M  V30 6918 H 643.98 3.67211 -2.11972 0
M  V30 6919 C 642.439 3.29947 -0.680942 0
M  V30 6920 O 642.969 4.01403 0.154527 0
M  V30 6921 N 641.175 2.8593 -0.518894 0
M  V30 6922 H 640.722 2.2795 -1.19986 0
M  V30 6923 H 640.68 3.12907 0.305985 0
M  V30 6924 N 644.452 1.42507 0.673017 0
M  V30 6925 C 645.362 1.4853 1.81593 0
M  V30 6926 C 646.378 0.373907 1.69935 0
M  V30 6927 O 647.554 0.625078 1.91454 0
M  V30 6928 C 644.619 1.387 3.17747 0
M  V30 6929 C 643.68 2.60346 3.41348 0
M  V30 6930 C 642.913 2.50975 4.71007 0
M  V30 6931 O 643.136 1.54659 5.49033 0
M  V30 6932 O 642.07 3.41138 4.95892 0
M  V30 6933 H 645.896 2.45001 1.79467 0
M  V30 6934 H 643.481 1.2429 0.82899 0
M  V30 6935 H 645.363 1.35586 3.98992 0
M  V30 6936 H 644.038 0.453555 3.20507 0
M  V30 6937 H 642.945 2.69034 2.59945 0
M  V30 6938 H 644.278 3.52595 3.43421 0
M  V30 6939 N 645.93 -0.909495 1.28709 0
M  V30 6940 C 646.878 -2.03381 1.12866 0
M  V30 6941 C 647.872 -1.69335 0.0468074 0
M  V30 6942 O 649.078 -1.78819 0.205891 0
M  V30 6943 H 645.453 -0.666452 0.348348 0
M  V30 6944 H 647.424 -2.13885 2.08077 0
M  V30 6945 C 646.173 -3.38092 0.811742 0
M  V30 6946 H 645.496 -3.64786 1.63619 0
M  V30 6947 H 646.936 -4.17477 0.740869 0
M  V30 6948 C 645.395 -3.33395 -0.484679 0
M  V30 6949 O 645.925 -3.72089 -1.5137 0
M  V30 6950 N 644.131 -2.86491 -0.486961 0
M  V30 6951 H 643.678 -2.55199 0.350877 0
M  V30 6952 H 643.636 -2.83731 -1.3544 0
M  V30 6953 N 647.408 -1.11026 -1.11852 0
M  V30 6954 C 648.638 -0.877544 -1.87037 0
M  V30 6955 C 649.046 0.575925 -1.80221 0
M  V30 6956 O 648.389 1.40916 -1.17849 0
M  V30 6957 C 648.451 -1.25529 -3.36872 0
M  V30 6958 C 648.115 -2.71704 -3.67459 0
M  V30 6959 C 649.112 -3.69931 -3.65304 0
M  V30 6960 C 646.797 -3.08243 -3.966 0
M  V30 6961 C 648.791 -5.02717 -3.9186 0
M  V30 6962 C 646.478 -4.41215 -4.22815 0
M  V30 6963 C 647.476 -5.38262 -4.20432 0
M  V30 6964 O 647.164 -6.68839 -4.45992 0
M  V30 6965 H 646.896 -0.314374 -0.598452 0
M  V30 6966 H 649.45 -1.48015 -1.42411 0
M  V30 6967 H 647.68 -0.595808 -3.82082 0
M  V30 6968 H 649.369 -0.999064 -3.93413 0
M  V30 6969 H 650.135 -3.43047 -3.42846 0
M  V30 6970 H 646.014 -2.33326 -3.97593 0
M  V30 6971 H 649.558 -5.78456 -3.89916 0
M  V30 6972 H 645.455 -4.67835 -4.44748 0
M  V30 6973 H 646.223 -6.74563 -4.63581 0
M  V30 6974 N 648.886 1.2938 -0.899927 0
M  V30 6975 C 650.126 1.97332 -0.532871 0
M  V30 6976 C 650.49 1.69385 0.904029 0
M  V30 6977 O 651.691 2.30793 1.37797 0
M  V30 6978 C 649.962 3.47927 -0.817393 0
M  V30 6979 S 651.521 4.3528 -0.55468 0
M  V30 6980 H 648.339 0.682966 -0.197683 0
M  V30 6981 H 650.941 1.57189 -1.16241 0
M  V30 6982 H 649.645 3.65761 -1.86138 0
M  V30 6983 H 649.176 3.93006 -0.175978 0
M  V30 6984 H 651.191 4.92557 0.600182 0
M  V30 6985 N 650.364 0.662433 1.43002 0
M  V30 6986 C 651.78 0.330835 1.56133 0
M  V30 6987 C 651.98 -1.16454 1.64441 0
M  V30 6988 O 651.036 -1.94964 1.60453 0
M  V30 6989 C 652.349 1.05029 2.81761 0
M  V30 6990 C 653.897 1.03142 2.95518 0
M  V30 6991 C 654.372 1.73196 4.2399 0
M  V30 6992 N 655.863 1.70004 4.30875 0
M  V30 6993 C 656.598 2.21074 5.29069 0
M  V30 6994 N 656.094 2.80473 6.33488 0
M  V30 6995 N 657.887 2.1152 5.20784 0
M  V30 6996 H 650.038 1.63272 1.35853 0
M  V30 6997 H 652.301 0.687149 0.653092 0
M  V30 6998 H 652.007 2.10542 2.81718 0
M  V30 6999 H 651.881 0.607664 3.72273 0
M  V30 7000 H 654.268 -0.0153339 2.95096 0
M  V30 7001 H 654.349 1.51282 2.0627 0
M  V30 7002 H 653.993 2.77833 4.25172 0
M  V30 7003 H 653.923 1.22515 5.1215 0
M  V30 7004 H 656.414 1.26667 3.56039 0
M  V30 7005 H 656.727 3.17094 7.04749 0
M  V30 7006 H 655.072 2.84538 6.34085 0
M  V30 7007 H 658.263 1.64814 4.38126 0
M  V30 7008 H 658.436 2.51629 5.97149 0
M  V30 7009 N 651.842 -1.52309 0.404946 0
M  V30 7010 C 652.79 -2.28452 -0.437321 0
M  V30 7011 C 653.784 -1.32975 -1.04948 0
M  V30 7012 O 654.99 -1.50451 -0.988159 0
M  V30 7013 H 651.365 -0.734824 -0.159805 0
M  V30 7014 H 653.336 -2.97542 0.22615 0
M  V30 7015 C 652.085 -3.11536 -1.54404 0
M  V30 7016 H 651.408 -3.84871 -1.08233 0
M  V30 7017 H 652.848 -3.67926 -2.10729 0
M  V30 7018 C 651.307 -2.24833 -2.50902 0
M  V30 7019 O 651.837 -1.88574 -3.54687 0
M  V30 7020 N 650.043 -1.88685 -2.21012 0
M  V30 7021 H 649.59 -2.18371 -1.36646 0
M  V30 7022 H 649.548 -1.30966 -2.85824 0
M  V30 7023 N 653.32 -0.135238 -1.57019 0
M  V30 7024 C 654.731 0.387521 -1.82634 0
M  V30 7025 C 655.082 1.65528 -1.05332 0
M  V30 7026 O 654.207 2.14381 -0.294926 0
M  V30 7027 C 654.802 0.709852 -3.3128 0
M  V30 7028 C 653.361 1.17718 -3.57518 0
M  V30 7029 C 652.508 0.194183 -2.76619 0
M  V30 7030 H 655.459 -0.360126 -1.5456 0
M  V30 7031 H 655.48 1.5657 -3.46794 0
M  V30 7032 H 654.992 -0.213024 -3.87515 0
M  V30 7033 H 653.093 2.1164 -3.06658 0
M  V30 7034 H 653.206 1.11128 -4.66034 0
M  V30 7035 H 651.57 0.684478 -2.4533 0
M  V30 7036 H 652.353 -0.722076 -3.3562 0
M  V30 7037 N 654.798 1.5699 0.138552 0
M  V30 7038 C 656.075 1.74741 0.87891 0
M  V30 7039 C 656.455 0.705522 1.98961 0
M  V30 7040 O 655.803 -0.274066 2.2685 0
M  V30 7041 C 656.013 3.1909 1.4136 0
M  V30 7042 C 657.361 3.81023 1.87368 0
M  V30 7043 O 658.385 3.22571 1.51084 0
M  V30 7044 O 657.244 4.83722 2.54312 0
M  V30 7045 H 654.338 0.714781 0.415953 0
M  V30 7046 H 656.884 1.69248 0.123817 0
M  V30 7047 H 655.656 3.86424 0.61579 0
M  V30 7048 H 655.279 3.29043 2.23196 0
M  V30 7049 N 656.276 -0.40816 1.52223 0
M  V30 7050 C 657.553 -1.16807 1.56893 0
M  V30 7051 C 657.933 -2.08169 0.350537 0
M  V30 7052 O 657.281 -2.18684 -0.662536 0
M  V30 7053 C 657.491 -1.94451 2.8981 0
M  V30 7054 C 658.839 -2.50484 3.42845 0
M  V30 7055 O 659.863 -2.0463 2.91556 0
M  V30 7056 O 658.722 -3.34192 4.3241 0
M  V30 7057 H 655.816 -0.533382 0.632007 0
M  V30 7058 H 658.362 -0.414862 1.64551 0
M  V30 7059 H 657.134 -1.27527 3.69936 0
M  V30 7060 H 656.757 -2.76775 2.85449 0
M  V30 7061 N 657.755 -1.42862 -0.66545 0
M  V30 7062 C 659.032 -1.3431 -1.42197 0
M  V30 7063 C 659.412 0.0150265 -2.11095 0
M  V30 7064 O 658.76 1.03101 -2.03918 0
M  V30 7065 C 658.97 -2.51783 -2.41674 0
M  V30 7066 C 660.318 -2.94321 -3.0604 0
M  V30 7067 O 661.342 -2.51741 -2.52001 0
M  V30 7068 O 660.201 -3.68047 -4.03985 0
M  V30 7069 H 657.295 -0.530159 -0.634713 0
M  V30 7070 H 659.841 -1.54888 -0.693386 0
M  V30 7071 H 658.613 -3.42282 -1.89627 0
M  V30 7072 H 658.236 -2.33241 -3.22001 0
M  V30 7073 N 659.233 0.902656 -1.29189 0
M  V30 7074 C 660.196 1.98797 -1.14071 0
M  V30 7075 C 661.196 1.60615 -0.0770549 0
M  V30 7076 O 662.386 1.71165 -0.323753 0
M  V30 7077 C 659.518 3.32688 -0.743739 0
M  V30 7078 H 660.711 2.13637 -2.10473 0
M  V30 7079 H 658.264 1.08678 -1.12334 0
M  V30 7080 H 658.999 3.23549 0.220554 0
M  V30 7081 H 658.784 3.61765 -1.51223 0
M  V30 7082 H 660.274 4.12337 -0.660935 0
M  V30 7083 N 660.711 1.11618 1.11262 0
M  V30 7084 C 661.661 0.745274 2.15475 0
M  V30 7085 C 662.645 -0.251585 1.58921 0
M  V30 7086 O 663.837 -0.0584093 1.76904 0
M  V30 7087 C 660.966 0.192128 3.42762 0
M  V30 7088 C 660.052 1.21676 4.0627 0
M  V30 7089 N 660.443 2.41158 4.44608 0
M  V30 7090 C 658.741 1.06013 4.33217 0
M  V30 7091 C 659.442 3.0652 4.94389 0
M  V30 7092 N 658.418 2.33994 4.9066 0
M  V30 7093 H 662.22 1.65462 2.42898 0
M  V30 7094 H 659.734 0.995695 1.28295 0
M  V30 7095 H 661.731 -0.0917339 4.16799 0
M  V30 7096 H 660.391 -0.711778 3.16802 0
M  V30 7097 H 661.402 2.786 4.3658 0
M  V30 7098 H 658.079 0.212809 4.16957 0
M  V30 7099 H 659.469 4.08225 5.33669 0
M  V30 7100 N 662.189 -1.289 0.906776 0
M  V30 7101 C 663.437 -1.94883 0.535266 0
M  V30 7102 C 663.758 -1.71784 -0.922791 0
M  V30 7103 O 663.028 -1.05359 -1.65156 0
M  V30 7104 H 661.608 -0.721109 0.194962 0
M  V30 7105 H 664.27 -1.57018 1.15461 0
M  V30 7106 H 663.366 -3.03591 0.723821 0
M  V30 7107 N 663.667 -0.670007 -1.42649 0
M  V30 7108 C 665.078 -0.268118 -1.84765 0
M  V30 7109 C 665.429 1.18877 -1.56086 0
M  V30 7110 O 664.554 1.90947 -1.01825 0
M  V30 7111 C 665.149 -0.47984 -3.35385 0
M  V30 7112 C 663.708 -0.132116 -3.76168 0
M  V30 7113 C 662.855 -0.774611 -2.66261 0
M  V30 7114 H 665.806 -0.872509 -1.32563 0
M  V30 7115 H 665.827 0.269522 -3.79544 0
M  V30 7116 H 665.339 -1.54026 -3.56227 0
M  V30 7117 H 663.44 0.92505 -3.60934 0
M  V30 7118 H 663.553 -0.569294 -4.75706 0
M  V30 7119 H 661.917 -0.206353 -2.53863 0
M  V30 7120 H 662.7 -1.83839 -2.89928 0
M  V30 7121 N 665.145 1.52092 -0.413018 0
M  V30 7122 C 666.391 2.02815 0.154104 0
M  V30 7123 C 666.746 1.293 1.42475 0
M  V30 7124 O 666.039 0.391835 1.87551 0
M  V30 7125 C 666.233 3.54529 0.4521 0
M  V30 7126 C 666.062 4.4274 -0.788116 0
M  V30 7127 C 664.832 4.87903 -1.31447 0
M  V30 7128 C 667.03 4.86522 -1.66735 0
M  V30 7129 N 665.012 5.60254 -2.50976 0
M  V30 7130 C 666.383 5.57692 -2.70886 0
M  V30 7131 C 668.438 4.68534 -1.68465 0
M  V30 7132 C 667.141 6.12783 -3.76682 0
M  V30 7133 C 669.167 5.24524 -2.73182 0
M  V30 7134 C 668.529 5.9562 -3.76054 0
M  V30 7135 H 664.628 0.781796 0.0178567 0
M  V30 7136 H 667.212 1.86223 -0.568237 0
M  V30 7137 H 665.383 3.71186 1.14348 0
M  V30 7138 H 667.115 3.91934 1.00844 0
M  V30 7139 H 663.87 4.65504 -0.871931 0
M  V30 7140 H 664.294 6.01069 -3.11521 0
M  V30 7141 H 668.936 4.13051 -0.902708 0
M  V30 7142 H 666.654 6.67335 -4.55729 0
M  V30 7143 H 670.24 5.12473 -2.75433 0
M  V30 7144 H 669.12 6.38169 -4.55752 0
M  V30 7145 N 666.623 0.143563 1.56945 0
M  V30 7146 C 667.863 -0.511198 1.97904 0
M  V30 7147 C 668.227 -1.62262 1.0264 0
M  V30 7148 O 669.428 -2.338 1.32631 0
M  V30 7149 C 667.699 -1.00753 3.42905 0
M  V30 7150 S 669.258 -1.66737 4.05887 0
M  V30 7151 H 666.076 -0.165399 0.691494 0
M  V30 7152 H 668.678 0.234464 1.94089 0
M  V30 7153 H 667.382 -0.187817 4.0997 0
M  V30 7154 H 666.913 -1.7879 3.50425 0
M  V30 7155 H 668.928 -2.95444 3.98657 0
M  V30 7156 N 668.101 -1.57061 -0.130224 0
M  V30 7157 C 669.331 -1.88159 -0.853217 0
M  V30 7158 C 669.739 -0.731675 -1.7448 0
M  V30 7159 O 669.082 0.307035 -1.81116 0
M  V30 7160 C 669.144 -3.1415 -1.74785 0
M  V30 7161 C 668.808 -4.45202 -1.03173 0
M  V30 7162 C 669.805 -5.18526 -0.377759 0
M  V30 7163 C 667.49 -4.91912 -1.01624 0
M  V30 7164 C 669.484 -6.36775 0.282123 0
M  V30 7165 C 667.171 -6.10082 -0.352555 0
M  V30 7166 C 668.169 -6.82361 0.295483 0
M  V30 7167 O 667.857 -7.98284 0.948606 0
M  V30 7168 H 667.589 -0.627596 -0.251197 0
M  V30 7169 H 670.143 -2.05034 -0.1226 0
M  V30 7170 H 668.373 -2.93328 -2.51983 0
M  V30 7171 H 670.062 -3.31359 -2.34427 0
M  V30 7172 H 670.828 -4.83498 -0.381417 0
M  V30 7173 H 666.707 -4.35566 -1.51007 0
M  V30 7174 H 670.251 -6.93129 0.788525 0
M  V30 7175 H 666.148 -6.44569 -0.346621 0
M  V30 7176 H 666.916 -8.14054 0.851954 0
M  V30 7177 N 669.579 0.400081 -1.52437 0
M  V30 7178 C 670.807 1.16768 -1.70801 0
M  V30 7179 C 671.222 1.84036 -0.421462 0
M  V30 7180 O 670.579 1.72242 0.603228 0
M  V30 7181 C 670.63 2.22403 -2.8499 0
M  V30 7182 O 670.351 1.57879 -4.08663 0
M  V30 7183 C 671.852 3.11974 -3.1494 0
M  V30 7184 H 669.072 0.350533 -0.57216 0
M  V30 7185 H 671.616 0.469534 -1.99037 0
M  V30 7186 H 669.771 2.87871 -2.59247 0
M  V30 7187 H 670.185 2.27982 -4.7236 0
M  V30 7188 H 671.659 3.82148 -3.9833 0
M  V30 7189 H 672.136 3.74858 -2.28863 0
M  V30 7190 H 672.742 2.52165 -3.42481 0
M  V30 7191 N 671.057 1.43213 0.657864 0
M  V30 7192 C 672.305 1.44298 1.41501 0
M  V30 7193 C 672.626 0.0666478 1.94886 0
M  V30 7194 O 671.896 -0.897345 1.74139 0
M  V30 7195 H 670.476 0.531257 0.525143 0
M  V30 7196 H 673.138 1.78777 0.776195 0
M  V30 7197 H 672.234 2.1528 2.25966 0
M  V30 7198 N 672.536 -0.895792 1.29666 0
M  V30 7199 C 673.484 -2.02173 1.15017 0
M  V30 7200 C 674.478 -1.69276 0.0647651 0
M  V30 7201 O 675.684 -1.7859 0.224846 0
M  V30 7202 H 672.059 -0.662719 0.355397 0
M  V30 7203 H 674.03 -2.11666 2.10334 0
M  V30 7204 C 672.779 -3.37212 0.847555 0
M  V30 7205 H 672.102 -3.6303 1.67479 0
M  V30 7206 H 673.542 -4.16668 0.785106 0
M  V30 7207 C 672.001 -3.33891 -0.44929 0
M  V30 7208 O 672.531 -3.73673 -1.47415 0
M  V30 7209 N 670.737 -2.86991 -0.456547 0
M  V30 7210 H 670.284 -2.54813 0.377925 0
M  V30 7211 H 670.242 -2.85152 -1.32423 0
M  V30 7212 N 674.014 -1.12206 -1.10668 0
M  V30 7213 C 675.425 -0.890657 -1.64086 0
M  V30 7214 C 675.776 0.575502 -1.8757 0
M  V30 7215 O 674.901 1.4394 -1.61587 0
M  V30 7216 C 675.496 -1.61029 -2.98085 0
M  V30 7217 C 674.055 -1.4251 -3.48379 0
M  V30 7218 C 673.202 -1.64778 -2.23033 0
M  V30 7219 H 676.153 -1.27718 -0.94201 0
M  V30 7220 H 676.174 -1.05993 -3.65439 0
M  V30 7221 H 675.686 -2.67735 -2.80962 0
M  V30 7222 H 673.787 -0.380497 -3.70652 0
M  V30 7223 H 673.9 -2.17959 -4.26651 0
M  V30 7224 H 672.264 -1.07171 -2.31055 0
M  V30 7225 H 673.047 -2.72776 -2.08443 0
M  V30 7226 N 675.492 1.28418 -0.913599 0
M  V30 7227 C 676.422 2.29713 -0.418847 0
M  V30 7228 C 677.403 1.62165 0.513469 0
M  V30 7229 O 678.588 1.89576 0.421235 0
M  V30 7230 C 675.718 3.45612 0.342042 0
M  V30 7231 C 674.672 4.25056 -0.501123 0
M  V30 7232 C 673.998 5.3329 0.388097 0
M  V30 7233 C 675.298 4.91814 -1.75831 0
M  V30 7234 H 676.992 2.71346 -1.26538 0
M  V30 7235 H 674.538 1.30446 -0.609903 0
M  V30 7236 H 676.491 4.15562 0.699 0
M  V30 7237 H 675.215 3.02858 1.22248 0
M  V30 7238 H 673.874 3.56833 -0.840598 0
M  V30 7239 H 673.522 4.8678 1.26707 0
M  V30 7240 H 673.222 5.87347 -0.172459 0
M  V30 7241 H 674.746 6.06088 0.74094 0
M  V30 7242 H 676.16 5.54126 -1.47026 0
M  V30 7243 H 674.557 5.55866 -2.26126 0
M  V30 7244 H 675.627 4.16313 -2.4862 0
M  V30 7245 N 676.97 0.677563 1.42291 0
M  V30 7246 C 678.219 0.198173 2.00724 0
M  V30 7247 C 678.532 -1.20325 1.54211 0
M  V30 7248 O 679.738 -1.77916 2.05081 0
M  V30 7249 C 678.194 0.303432 3.58619 0
M  V30 7250 C 677.802 1.70909 4.14119 0
M  V30 7251 C 679.546 -0.117103 4.24338 0
M  V30 7252 C 677.453 1.76696 5.64387 0
M  V30 7253 H 676.383 0.070329 0.750713 0
M  V30 7254 H 679.034 0.843147 1.62982 0
M  V30 7255 H 677.416 -0.409482 3.93877 0
M  V30 7256 H 678.59 2.44931 3.90315 0
M  V30 7257 H 676.905 2.07771 3.6086 0
M  V30 7258 H 679.502 -0.0940471 5.34617 0
M  V30 7259 H 679.845 -1.15283 4.00019 0
M  V30 7260 H 680.378 0.5449 3.9405 0
M  V30 7261 H 677.117 2.7826 5.93508 0
M  V30 7262 H 676.637 1.07034 5.90173 0
M  V30 7263 H 678.316 1.52166 6.28852 0
M  V30 7264 N 678.448 -1.51871 0.421078 0
M  V30 7265 C 679.859 -1.86644 -0.0457991 0
M  V30 7266 C 680.21 -1.33919 -1.43388 0
M  V30 7267 O 679.335 -0.683316 -2.05328 0
M  V30 7268 C 679.93 -3.38681 -0.0898844 0
M  V30 7269 C 678.489 -3.73049 -0.501127 0
M  V30 7270 C 677.636 -2.75485 0.316723 0
M  V30 7271 H 680.587 -1.45327 0.637635 0
M  V30 7272 H 680.608 -3.69636 -0.902734 0
M  V30 7273 H 680.12 -3.77025 0.920513 0
M  V30 7274 H 678.221 -3.40288 -1.51773 0
M  V30 7275 H 678.334 -4.78512 -0.237217 0
M  V30 7276 H 676.698 -2.53725 -0.222663 0
M  V30 7277 H 677.481 -3.16671 1.32569 0
M  V30 7278 N 679.926 -0.151884 -1.56866 0
M  V30 7279 C 681.172 0.492327 -1.97352 0
M  V30 7280 C 681.527 1.62156 -1.03553 0
M  V30 7281 O 680.82 1.91467 -0.0714872 0
M  V30 7282 C 681.014 1.04074 -3.41911 0
M  V30 7283 C 680.843 -0.0338306 -4.49687 0
M  V30 7284 C 679.613 -0.476914 -5.03044 0
M  V30 7285 C 681.811 -0.827105 -5.07606 0
M  V30 7286 N 679.793 -1.53382 -5.9443 0
M  V30 7287 C 681.164 -1.73439 -5.95247 0
M  V30 7288 C 683.219 -0.874351 -4.90163 0
M  V30 7289 C 681.922 -2.68488 -6.67313 0
M  V30 7290 C 683.948 -1.81269 -5.62935 0
M  V30 7291 C 683.31 -2.70749 -6.50288 0
M  V30 7292 H 679.409 0.148822 -0.767708 0
M  V30 7293 H 681.993 -0.247615 -1.93119 0
M  V30 7294 H 680.164 1.75027 -3.46728 0
M  V30 7295 H 681.896 1.65197 -3.69448 0
M  V30 7296 H 678.651 -0.0782493 -4.73535 0
M  V30 7297 H 679.075 -2.06217 -6.44828 0
M  V30 7298 H 683.717 -0.196628 -4.22343 0
M  V30 7299 H 681.435 -3.37257 -7.34359 0
M  V30 7300 H 685.021 -1.85511 -5.51432 0
M  V30 7301 H 683.901 -3.42175 -7.0561 0
M  V30 7302 N 681.404 1.57128 0.121893 0
M  V30 7303 C 682.681 1.75664 0.860327 0
M  V30 7304 C 683.061 0.726585 1.98202 0
M  V30 7305 O 682.409 -0.24999 2.27128 0
M  V30 7306 C 682.619 3.20571 1.37968 0
M  V30 7307 C 683.967 3.82988 1.83317 0
M  V30 7308 O 684.991 3.24156 1.47654 0
M  V30 7309 O 683.85 4.86393 2.49168 0
M  V30 7310 H 680.944 0.719153 0.408348 0
M  V30 7311 H 683.49 1.6937 0.105859 0
M  V30 7312 H 682.262 3.87056 0.57477 0
M  V30 7313 H 681.885 3.31392 2.19694 0
M  V30 7314 N 682.882 -0.391992 1.52647 0
M  V30 7315 C 684.112 -1.15692 1.71169 0
M  V30 7316 C 684.52 -1.84285 0.428444 0
M  V30 7317 O 683.863 -1.73393 -0.606669 0
M  V30 7318 C 683.925 -2.25033 2.80357 0
M  V30 7319 C 683.589 -1.76433 4.21569 0
M  V30 7320 C 684.586 -1.2427 5.0483 0
M  V30 7321 C 682.271 -1.82746 4.67877 0
M  V30 7322 C 684.265 -0.790657 6.32477 0
M  V30 7323 C 681.952 -1.37153 5.9551 0
M  V30 7324 C 682.95 -0.853997 6.7764 0
M  V30 7325 O 682.638 -0.404708 8.02881 0
M  V30 7326 H 682.37 -0.35297 0.576531 0
M  V30 7327 H 684.924 -0.464994 2.00067 0
M  V30 7328 H 683.154 -2.97641 2.46874 0
M  V30 7329 H 684.843 -2.86718 2.87311 0
M  V30 7330 H 685.609 -1.18752 4.70237 0
M  V30 7331 H 681.488 -2.21971 4.04042 0
M  V30 7332 H 685.032 -0.386024 6.96531 0
M  V30 7333 H 680.929 -1.42356 6.29607 0
M  V30 7334 H 681.697 -0.526459 8.16805 0
M  V30 7335 N 684.36 -1.4356 -0.65026 0
M  V30 7336 C 685.6 -1.46839 -1.42188 0
M  V30 7337 C 685.964 -0.0911433 -1.91784 0
M  V30 7338 O 687.165 0.00137545 -2.688 0
M  V30 7339 C 685.436 -2.48411 -2.56957 0
M  V30 7340 S 686.995 -2.70589 -3.45438 0
M  V30 7341 H 683.813 -0.519596 -0.485325 0
M  V30 7342 H 686.415 -1.80347 -0.75466 0
M  V30 7343 H 685.119 -3.47209 -2.18801 0
M  V30 7344 H 684.65 -2.16411 -3.28527 0
M  V30 7345 H 686.665 -2.00738 -4.53782 0
M  V30 7346 N 685.838 0.888903 -1.30139 0
M  V30 7347 C 687.249 1.45578 -1.16893 0
M  V30 7348 C 687.6 1.94825 0.231866 0
M  V30 7349 O 686.725 1.84661 1.12824 0
M  V30 7350 C 687.32 2.646 -2.11595 0
M  V30 7351 C 685.879 3.17389 -2.02339 0
M  V30 7352 C 685.026 1.90081 -2.01902 0
M  V30 7353 H 687.977 0.69921 -1.42467 0
M  V30 7354 H 687.998 3.40687 -1.69449 0
M  V30 7355 H 687.51 2.28726 -3.13538 0
M  V30 7356 H 685.611 3.5793 -1.03523 0
M  V30 7357 H 685.724 3.80955 -2.90534 0
M  V30 7358 H 684.088 2.08246 -1.46648 0
M  V30 7359 H 684.871 1.5647 -3.05568 0
M  V30 7360 N 687.317 1.12792 1.10072 0
M  V30 7361 C 688.566 0.880232 1.81479 0
M  V30 7362 C 688.879 -0.595575 1.86312 0
M  V30 7363 O 690.085 -0.959979 2.53962 0
M  V30 7364 C 688.541 1.52514 3.25987 0
M  V30 7365 C 688.149 3.036 3.29441 0
M  V30 7366 C 689.893 1.35788 4.02196 0
M  V30 7367 C 687.8 3.61007 4.68431 0
M  V30 7368 H 686.73 0.325654 0.680048 0
M  V30 7369 H 689.381 1.35485 1.23758 0
M  V30 7370 H 687.763 0.978188 3.83728 0
M  V30 7371 H 688.937 3.64819 2.81502 0
M  V30 7372 H 687.252 3.19765 2.66719 0
M  V30 7373 H 689.849 1.76096 5.0487 0
M  V30 7374 H 690.192 0.301972 4.15203 0
M  V30 7375 H 690.725 1.87426 3.50879 0
M  V30 7376 H 687.464 4.66375 4.60625 0
M  V30 7377 H 686.984 3.04564 5.16721 0
M  V30 7378 H 688.663 3.60289 5.37402 0
M  V30 7379 N 688.795 -1.27931 0.920396 0
M  V30 7380 C 690.02 -1.99343 0.572478 0
M  V30 7381 C 690.445 -1.68267 -0.840696 0
M  V30 7382 O 689.803 -0.918805 -1.56294 0
M  V30 7383 C 689.851 -3.51698 0.796284 0
M  V30 7384 O 688.955 -4.12157 -0.141602 0
M  V30 7385 H 688.296 -0.626065 0.221221 0
M  V30 7386 H 690.826 -1.62921 1.23765 0
M  V30 7387 H 690.836 -4.01793 0.708984 0
M  V30 7388 H 689.511 -3.73649 1.82644 0
M  V30 7389 H 688.088 -3.729 -0.005007 0
M  V30 7390 N 690.273 -0.685099 -1.4193 0
M  V30 7391 C 691.689 -0.355632 -1.55587 0
M  V30 7392 C 691.889 1.13823 -1.66273 0
M  V30 7393 O 690.945 1.92387 -1.63534 0
M  V30 7394 C 692.258 -1.09498 -2.80055 0
M  V30 7395 C 693.806 -1.07831 -2.93839 0
M  V30 7396 C 694.281 -1.79919 -4.21181 0
M  V30 7397 N 695.772 -1.76837 -4.28115 0
M  V30 7398 C 696.507 -2.29463 -5.25485 0
M  V30 7399 N 696.003 -2.90516 -6.28945 0
M  V30 7400 N 697.796 -2.19779 -5.17353 0
M  V30 7401 H 689.947 -1.65412 -1.33239 0
M  V30 7402 H 692.21 -0.697453 -0.642078 0
M  V30 7403 H 691.916 -2.14997 -2.78333 0
M  V30 7404 H 691.79 -0.666813 -3.71259 0
M  V30 7405 H 694.177 -0.0316152 -2.95083 0
M  V30 7406 H 694.258 -1.54545 -2.03837 0
M  V30 7407 H 693.902 -2.84562 -4.20698 0
M  V30 7408 H 693.832 -1.30647 -5.10136 0
M  V30 7409 H 696.323 -1.32315 -3.53979 0
M  V30 7410 H 696.636 -3.28266 -6.99615 0
M  V30 7411 H 694.981 -2.94589 -6.29478 0
M  V30 7412 H 698.172 -1.71763 -4.35448 0
M  V30 7413 H 698.345 -2.61097 -5.9307 0
M  V30 7414 N 691.751 1.51645 -0.429126 0
M  V30 7415 C 692.991 2.03924 0.139354 0
M  V30 7416 C 693.355 1.30673 1.40672 0
M  V30 7417 O 694.556 1.73282 2.05491 0
M  V30 7418 C 692.827 3.5557 0.361179 0
M  V30 7419 S 694.386 4.29591 0.894241 0
M  V30 7420 H 691.204 0.710103 0.0356986 0
M  V30 7421 H 693.806 1.86491 -0.586644 0
M  V30 7422 H 692.51 4.06455 -0.567686 0
M  V30 7423 H 692.041 3.77283 1.11449 0
M  V30 7424 H 694.056 4.46102 2.17272 0
M  V30 7425 N 693.229 0.160201 1.56784 0
M  V30 7426 C 694.139 -0.787167 2.21 0
M  V30 7427 C 695.155 -1.26167 1.19825 0
M  V30 7428 O 696.331 -1.31611 1.52448 0
M  V30 7429 C 693.396 -2.00364 2.8294 0
M  V30 7430 C 692.457 -1.5771 3.99282 0
M  V30 7431 C 691.69 -2.73558 4.58259 0
M  V30 7432 O 691.913 -3.90129 4.16119 0
M  V30 7433 O 690.847 -2.48271 5.48311 0
M  V30 7434 H 694.673 -0.270462 3.02493 0
M  V30 7435 H 692.258 -0.0674666 1.49248 0
M  V30 7436 H 694.14 -2.71529 3.22257 0
M  V30 7437 H 692.815 -2.50961 2.04451 0
M  V30 7438 H 691.722 -0.835274 3.64656 0
M  V30 7439 H 693.055 -1.11815 4.79331 0
M  V30 7440 N 694.707 -1.5719 -0.113559 0
M  V30 7441 C 695.955 -1.84772 -0.818761 0
M  V30 7442 C 696.276 -0.746196 -1.80158 0
M  V30 7443 O 695.546 0.229305 -1.94553 0
M  V30 7444 H 694.126 -0.681737 -0.305359 0
M  V30 7445 H 696.788 -1.94645 -0.0995845 0
M  V30 7446 H 695.884 -2.80878 -1.36067 0
M  V30 7447 N 696.185 0.383891 -1.52853 0
M  V30 7448 C 697.462 1.14296 -1.58732 0
M  V30 7449 C 697.842 2.07585 -0.383611 0
M  V30 7450 O 697.19 2.1971 0.627661 0
M  V30 7451 C 697.4 1.89816 -2.92867 0
M  V30 7452 C 698.748 2.44998 -3.46787 0
M  V30 7453 O 699.772 1.99966 -2.94774 0
M  V30 7454 O 698.631 3.2727 -4.37672 0
M  V30 7455 H 695.725 0.52326 -0.640413 0
M  V30 7456 H 698.271 0.388631 -1.6519 0
M  V30 7457 H 697.043 1.21626 -3.71918 0
M  V30 7458 H 696.666 2.72199 -2.89816 0
M  V30 7459 N 697.663 1.43903 0.642637 0
M  V30 7460 C 698.891 1.4954 1.42988 0
M  V30 7461 C 699.306 0.116588 1.8844 0
M  V30 7462 O 698.663 -0.875285 1.60141 0
M  V30 7463 C 698.714 2.45031 2.65785 0
M  V30 7464 O 698.435 3.77551 2.22232 0
M  V30 7465 C 699.936 2.60017 3.59035 0
M  V30 7466 H 697.156 0.507544 0.438907 0
M  V30 7467 H 699.7 1.88752 0.786942 0
M  V30 7468 H 697.855 2.08985 3.26196 0
M  V30 7469 H 698.269 4.29001 3.01759 0
M  V30 7470 H 699.743 3.30887 4.41835 0
M  V30 7471 H 700.22 1.64861 4.07084 0
M  V30 7472 H 700.826 2.96918 3.045 0
M  V30 7473 N 699.141 -0.881989 1.30609 0
M  V30 7474 C 700.369 -1.66711 1.22536 0
M  V30 7475 C 700.784 -1.87614 -0.2113 0
M  V30 7476 O 700.141 -1.42576 -1.13923 0
M  V30 7477 C 700.192 -3.04182 1.95335 0
M  V30 7478 O 699.913 -2.8422 3.33393 0
M  V30 7479 C 701.414 -3.98617 1.93956 0
M  V30 7480 H 698.634 -0.520124 0.423925 0
M  V30 7481 H 701.178 -1.10174 1.72285 0
M  V30 7482 H 699.333 -3.57442 1.49378 0
M  V30 7483 H 699.747 -3.71452 3.70302 0
M  V30 7484 H 701.221 -4.92433 2.49426 0
M  V30 7485 H 701.698 -4.29473 0.919198 0
M  V30 7486 H 702.304 -3.51292 2.39738 0
M  V30 7487 N 700.619 -1.13374 -1.09472 0
M  V30 7488 C 702.03 -0.90801 -1.63132 0
M  V30 7489 C 702.381 0.555576 -1.8817 0
M  V30 7490 O 701.506 1.42218 -1.63104 0
M  V30 7491 C 702.101 -1.64182 -2.96361 0
M  V30 7492 C 700.66 -1.46197 -3.46848 0
M  V30 7493 C 699.807 -1.67134 -2.21273 0
M  V30 7494 H 702.758 -1.2871 -0.928411 0
M  V30 7495 H 702.779 -1.09863 -3.64294 0
M  V30 7496 H 702.291 -2.707 -2.78106 0
M  V30 7497 H 700.392 -0.419788 -3.70228 0
M  V30 7498 H 700.505 -2.22472 -4.24315 0
M  V30 7499 H 698.869 -1.09616 -2.29905 0
M  V30 7500 H 699.652 -2.74971 -2.05538 0
M  V30 7501 N 702.098 1.27442 -0.927168 0
M  V30 7502 C 703.326 1.98498 -0.583622 0
M  V30 7503 C 703.741 1.69171 0.838241 0
M  V30 7504 O 703.098 0.951969 1.55704 0
M  V30 7505 C 703.149 3.52552 -0.799341 0
M  V30 7506 O 702.87 3.80851 -2.16527 0
M  V30 7507 C 704.371 4.4086 -0.464436 0
M  V30 7508 H 701.591 0.633487 -0.221213 0
M  V30 7509 H 704.135 1.62308 -1.24404 0
M  V30 7510 H 702.29 3.86955 -0.185728 0
M  V30 7511 H 702.704 4.75441 -2.21487 0
M  V30 7512 H 704.178 5.47967 -0.666075 0
M  V30 7513 H 704.655 4.35082 0.599995 0
M  V30 7514 H 705.261 4.11977 -1.05617 0
M  V30 7515 N 703.576 0.692616 1.41565 0
M  V30 7516 C 704.825 0.219452 2.00503 0
M  V30 7517 C 705.138 -1.18683 1.55479 0
M  V30 7518 O 706.344 -1.75731 2.06956 0
M  V30 7519 C 704.8 0.341451 3.58277 0
M  V30 7520 C 704.408 1.75291 4.12283 0
M  V30 7521 C 706.152 -0.0720899 4.24439 0
M  V30 7522 C 704.059 1.82673 5.62481 0
M  V30 7523 H 702.989 0.0782874 0.749925 0
M  V30 7524 H 705.64 0.860386 1.62079 0
M  V30 7525 H 704.022 -0.367683 3.94289 0
M  V30 7526 H 705.196 2.49057 3.87695 0
M  V30 7527 H 703.511 2.11587 3.58636 0
M  V30 7528 H 706.108 -0.0373385 5.34687 0
M  V30 7529 H 706.451 -1.11034 4.0122 0
M  V30 7530 H 706.984 0.586663 3.9345 0
M  V30 7531 H 703.723 2.84539 5.90523 0
M  V30 7532 H 703.243 1.13288 5.89004 0
M  V30 7533 H 704.922 1.58827 6.27203 0
M  V30 7534 N 705.054 -1.51416 0.437162 0
M  V30 7535 C 706.3 -2.02386 -0.129555 0
M  V30 7536 C 706.633 -1.32071 -1.42376 0
M  V30 7537 O 705.908 -0.43559 -1.8956 0
M  V30 7538 C 706.191 -3.5841 -0.348487 0
M  V30 7539 C 706.044 -4.39341 0.964352 0
M  V30 7540 C 707.363 -4.25654 -1.11834 0
M  V30 7541 H 704.482 -0.735587 -0.0456109 0
M  V30 7542 H 707.124 -1.81055 0.576124 0
M  V30 7543 H 705.274 -3.76716 -0.949592 0
M  V30 7544 H 706.946 -4.32685 1.59942 0
M  V30 7545 H 705.189 -4.04432 1.56898 0
M  V30 7546 H 705.86 -5.4667 0.765212 0
M  V30 7547 H 708.336 -4.11617 -0.609165 0
M  V30 7548 H 707.212 -5.34704 -1.24029 0
M  V30 7549 H 707.473 -3.86502 -2.14636 0
M  V30 7550 N 706.532 -0.168513 -1.56696 0
M  V30 7551 C 707.48 0.779791 -2.19139 0
M  V30 7552 C 708.474 1.23957 -1.1546 0
M  V30 7553 O 709.68 1.20555 -1.33666 0
M  V30 7554 H 706.055 0.269739 -0.701958 0
M  V30 7555 H 708.026 0.229156 -2.97519 0
M  V30 7556 C 706.775 2.00003 -2.84419 0
M  V30 7557 H 706.098 1.65527 -3.63924 0
M  V30 7558 H 707.538 2.64251 -3.31583 0
M  V30 7559 C 705.997 2.82187 -1.84044 0
M  V30 7560 O 706.527 3.79247 -1.32418 0
M  V30 7561 N 704.733 2.47145 -1.52864 0
M  V30 7562 H 704.28 1.68277 -1.9504 0
M  V30 7563 H 704.238 3.02422 -0.859569 0
M  V30 7564 N 708.01 1.57248 0.105221 0
M  V30 7565 C 708.94 2.04374 1.12931 0
M  V30 7566 C 709.921 0.93074 1.42377 0
M  V30 7567 O 711.106 1.20136 1.52581 0
M  V30 7568 C 708.236 2.45967 2.45189 0
M  V30 7569 C 707.19 3.60838 2.30174 0
M  V30 7570 C 706.516 3.88374 3.67518 0
M  V30 7571 C 707.816 4.92084 1.75073 0
M  V30 7572 H 709.51 2.9018 0.737287 0
M  V30 7573 H 707.056 1.39601 0.353211 0
M  V30 7574 H 709.009 2.77542 3.17094 0
M  V30 7575 H 707.733 1.57148 2.86308 0
M  V30 7576 H 706.392 3.29493 1.60716 0
M  V30 7577 H 706.04 2.96739 4.06147 0
M  V30 7578 H 705.74 4.65703 3.58321 0
M  V30 7579 H 707.264 4.22415 4.40906 0
M  V30 7580 H 708.678 5.22106 2.36809 0
M  V30 7581 H 707.075 5.73507 1.76662 0
M  V30 7582 H 708.145 4.79684 0.709347 0
M  V30 7583 N 709.488 -0.375779 1.53054 0
M  V30 7584 C 710.765 -1.13453 1.59336 0
M  V30 7585 C 711.145 -2.07379 0.394614 0
M  V30 7586 O 710.493 -2.2004 -0.616 0
M  V30 7587 C 710.703 -1.8826 2.93869 0
M  V30 7588 C 712.051 -2.43155 3.48081 0
M  V30 7589 O 713.075 -1.984 2.95831 0
M  V30 7590 O 711.934 -3.24944 4.39401 0
M  V30 7591 H 709.028 -0.519856 0.643179 0
M  V30 7592 H 711.574 -0.379865 1.65394 0
M  V30 7593 H 710.346 -1.19652 3.72558 0
M  V30 7594 H 709.969 -2.70658 2.91256 0
M  V30 7595 N 710.966 -1.44241 -0.634997 0
M  V30 7596 C 711.916 -1.47247 -1.74076 0
M  V30 7597 C 712.9 -0.338708 -1.57295 0
M  V30 7598 O 714.092 -0.583751 -1.67097 0
M  V30 7599 C 711.221 -1.41579 -3.12746 0
M  V30 7600 C 710.307 -2.60055 -3.35011 0
M  V30 7601 N 710.698 -3.85321 -3.27661 0
M  V30 7602 C 708.996 -2.55168 -3.65794 0
M  V30 7603 C 709.697 -4.64241 -3.50508 0
M  V30 7604 N 708.673 -3.95254 -3.73196 0
M  V30 7605 H 712.475 -2.4195 -1.66845 0
M  V30 7606 H 709.989 -1.3915 -0.837326 0
M  V30 7607 H 711.986 -1.41816 -3.92038 0
M  V30 7608 H 710.646 -0.479108 -3.21146 0
M  V30 7609 H 711.657 -4.17345 -3.06665 0
M  V30 7610 H 708.334 -1.70276 -3.81198 0
M  V30 7611 H 709.724 -5.73267 -3.50449 0
M  V30 7612 N 712.444 0.87505 -1.31075 0
M  V30 7613 C 713.855 1.4433 -1.18431 0
M  V30 7614 C 714.206 1.9506 0.211189 0
M  V30 7615 O 713.331 1.85847 1.10859 0
M  V30 7616 C 713.926 2.62341 -2.14389 0
M  V30 7617 C 712.485 3.15225 -2.05694 0
M  V30 7618 C 711.632 1.87929 -2.03907 0
M  V30 7619 H 714.583 0.684061 -1.432 0
M  V30 7620 H 714.604 3.3887 -1.73053 0
M  V30 7621 H 714.116 2.25388 -3.15946 0
M  V30 7622 H 712.217 3.56812 -1.07314 0
M  V30 7623 H 712.33 3.77853 -2.94558 0
M  V30 7624 H 710.694 2.06679 -1.48849 0
M  V30 7625 H 711.477 1.53221 -3.07211 0
M  V30 7626 N 713.922 1.13953 1.08869 0
M  V30 7627 C 715.168 0.906151 1.8143 0
M  V30 7628 C 715.501 -0.566089 1.85766 0
M  V30 7629 O 714.776 -1.41915 1.33006 0
M  V30 7630 C 715.059 1.50183 3.27287 0
M  V30 7631 C 714.912 3.04359 3.31189 0
M  V30 7632 C 716.231 1.17477 4.24131 0
M  V30 7633 H 713.35 0.330624 0.658678 0
M  V30 7634 H 715.992 1.40873 1.27495 0
M  V30 7635 H 714.142 1.07442 3.73348 0
M  V30 7636 H 715.814 3.55896 2.93488 0
M  V30 7637 H 714.057 3.39053 2.70602 0
M  V30 7638 H 714.728 3.41141 4.33966 0
M  V30 7639 H 717.204 1.5442 3.86385 0
M  V30 7640 H 716.08 1.61795 5.24513 0
M  V30 7641 H 716.341 0.0893312 4.4201 0
M  V30 7642 N 715.4 -1.26948 0.933913 0
M  V30 7643 C 716.649 -1.93378 0.573409 0
M  V30 7644 C 716.962 -1.74148 -0.890614 0
M  V30 7645 O 718.168 -2.34971 -1.36017 0
M  V30 7646 C 716.624 -3.46449 0.974747 0
M  V30 7647 C 716.232 -3.74425 2.45988 0
M  V30 7648 C 717.976 -4.18924 0.685791 0
M  V30 7649 C 715.883 -5.209 2.8003 0
M  V30 7650 H 714.813 -0.723952 0.210736 0
M  V30 7651 H 717.464 -1.44143 1.13557 0
M  V30 7652 H 715.846 -3.94528 0.341181 0
M  V30 7653 H 717.02 -3.37079 3.14188 0
M  V30 7654 H 715.335 -3.15167 2.72138 0
M  V30 7655 H 717.932 -5.26786 0.916546 0
M  V30 7656 H 718.275 -4.14587 -0.377217 0
M  V30 7657 H 718.808 -3.76687 1.27874 0
M  V30 7658 H 715.547 -5.30332 3.85264 0
M  V30 7659 H 715.067 -5.59369 2.16485 0
M  V30 7660 H 716.746 -5.88837 2.68105 0
M  V30 7661 N 716.879 -0.700114 -1.41195 0
M  V30 7662 C 718.104 -0.240704 -2.05998 0
M  V30 7663 C 718.529 1.10313 -1.52357 0
M  V30 7664 O 717.887 1.69154 -0.652424 0
M  V30 7665 C 717.935 -0.213783 -3.59966 0
M  V30 7666 O 717.039 0.809933 -4.04368 0
M  V30 7667 H 716.38 -0.116471 -0.653705 0
M  V30 7668 H 718.91 -0.956251 -1.80878 0
M  V30 7669 H 718.92 -0.0461852 -4.07974 0
M  V30 7670 H 717.595 -1.19454 -3.98376 0
M  V30 7671 H 716.172 0.611319 -3.67855 0
M  V30 7672 N 718.357 1.51182 -0.445186 0
M  V30 7673 C 719.597 2.04061 0.117717 0
M  V30 7674 C 719.961 1.32158 1.39278 0
M  V30 7675 O 721.162 1.75452 2.03642 0
M  V30 7676 C 719.433 3.55933 0.323445 0
M  V30 7677 S 720.992 4.30516 0.848627 0
M  V30 7678 H 717.81 0.710442 0.028165 0
M  V30 7679 H 720.412 1.85858 -0.606391 0
M  V30 7680 H 719.116 4.0583 -0.610764 0
M  V30 7681 H 718.647 3.78444 1.07441 0
M  V30 7682 H 720.662 4.48382 2.12528 0
M  V30 7683 N 719.835 0.176821 1.56605 0
M  V30 7684 C 720.798 -0.737429 2.17013 0
M  V30 7685 C 721.798 -1.15414 1.11965 0
M  V30 7686 O 722.988 -1.0702 1.37449 0
M  V30 7687 C 720.12 -2.00445 2.75744 0
M  V30 7688 H 721.313 -0.211455 2.99154 0
M  V30 7689 H 718.866 -0.0727582 1.56131 0
M  V30 7690 H 719.601 -2.57338 1.97352 0
M  V30 7691 H 719.386 -1.71456 3.52626 0
M  V30 7692 H 720.876 -2.65679 3.22187 0
M  V30 7693 N 721.313 -1.57302 -0.09688 0
M  V30 7694 C 722.26 -2.01933 -1.11766 0
M  V30 7695 C 723.23 -0.895329 -1.39904 0
M  V30 7696 O 724.415 -1.16119 -1.51397 0
M  V30 7697 C 721.555 -2.44726 -2.43317 0
M  V30 7698 C 720.668 -3.70639 -2.21925 0
M  V30 7699 C 719.803 -4.02318 -3.46862 0
M  V30 7700 C 718.842 -5.21346 -3.20725 0
M  V30 7701 N 717.979 -5.48787 -4.37924 0
M  V30 7702 H 722.819 -2.88919 -0.730075 0
M  V30 7703 H 720.356 -1.42901 -0.348962 0
M  V30 7704 H 722.314 -2.6758 -3.20088 0
M  V30 7705 H 720.944 -1.60753 -2.79926 0
M  V30 7706 H 719.996 -3.55271 -1.35965 0
M  V30 7707 H 721.308 -4.57557 -1.98603 0
M  V30 7708 H 720.462 -4.25939 -4.32042 0
M  V30 7709 H 719.201 -3.13918 -3.73238 0
M  V30 7710 H 718.206 -4.97547 -2.33938 0
M  V30 7711 H 719.431 -6.11343 -2.95697 0
M  V30 7712 H 717.377 -4.63346 -4.64378 0
M  V30 7713 H 717.294 -6.30073 -4.17785 0
M  V30 7714 H 718.562 -5.76943 -5.24173 0
M  V30 7715 N 722.791 0.367657 -1.53252 0
M  V30 7716 C 724.019 1.13119 -1.73239 0
M  V30 7717 C 724.434 1.831 -0.460404 0
M  V30 7718 O 723.791 1.73483 0.566557 0
M  V30 7719 C 723.842 2.16308 -2.89643 0
M  V30 7720 O 723.563 1.49175 -4.1192 0
M  V30 7721 C 725.064 3.05224 -3.21486 0
M  V30 7722 H 722.284 0.338318 -0.579467 0
M  V30 7723 H 724.828 0.42721 -1.99988 0
M  V30 7724 H 722.983 2.82307 -2.65295 0
M  V30 7725 H 723.397 2.17912 -4.7709 0
M  V30 7726 H 724.871 3.73613 -4.06346 0
M  V30 7727 H 725.348 3.69919 -2.36763 0
M  V30 7728 H 725.954 2.44843 -3.47753 0
M  V30 7729 N 724.269 1.44576 0.627338 0
M  V30 7730 C 725.216 1.51734 1.73912 0
M  V30 7731 C 726.186 0.364745 1.62046 0
M  V30 7732 O 727.371 0.575503 1.81914 0
M  V30 7733 C 724.511 1.47116 3.12171 0
M  V30 7734 C 723.624 2.72778 3.34986 0
M  V30 7735 C 722.759 2.59968 4.63239 0
M  V30 7736 C 721.798 3.80776 4.79245 0
M  V30 7737 N 720.935 3.66618 5.98778 0
M  V30 7738 H 725.775 2.46722 1.6713 0
M  V30 7739 H 723.312 1.22444 0.815224 0
M  V30 7740 H 725.27 1.42429 3.92135 0
M  V30 7741 H 723.9 0.556928 3.17959 0
M  V30 7742 H 722.952 2.87637 2.48936 0
M  V30 7743 H 724.264 3.62441 3.42692 0
M  V30 7744 H 723.418 2.53135 5.51369 0
M  V30 7745 H 722.157 1.67872 4.57898 0
M  V30 7746 H 721.162 3.87989 3.89544 0
M  V30 7747 H 722.387 4.73913 4.86398 0
M  V30 7748 H 720.333 2.77277 5.9452 0
M  V30 7749 H 720.25 4.499 6.07557 0
M  V30 7750 H 721.518 3.63684 6.89459 0
M  V30 7751 N 725.747 -0.868086 1.31537 0
M  V30 7752 C 726.679 -1.98165 1.15166 0
M  V30 7753 C 727.692 -1.6255 0.0902335 0
M  V30 7754 O 728.881 -1.75272 0.33791 0
M  V30 7755 C 725.981 -3.30772 0.737776 0
M  V30 7756 C 725.154 -3.94716 1.88462 0
M  V30 7757 C 724.213 -5.05641 1.45648 0
M  V30 7758 O 723.239 -5.2636 2.16642 0
M  V30 7759 N 724.441 -5.79474 0.34493 0
M  V30 7760 H 727.206 -2.12754 2.11083 0
M  V30 7761 H 724.767 -1.04217 1.23897 0
M  V30 7762 H 726.759 -4.02366 0.434032 0
M  V30 7763 H 725.329 -3.1233 -0.129834 0
M  V30 7764 H 724.549 -3.16079 2.35558 0
M  V30 7765 H 725.837 -4.34175 2.65273 0
M  V30 7766 H 725.235 -5.65164 -0.246259 0
M  V30 7767 H 723.792 -6.51722 0.100728 0
M  V30 7768 N 727.225 -1.14528 -1.08264 0
M  V30 7769 C 728.155 -0.856356 -2.1723 0
M  V30 7770 C 729.136 0.189251 -1.69044 0
M  V30 7771 O 730.321 0.0456119 -1.94146 0
M  V30 7772 C 727.451 -0.334662 -3.45684 0
M  V30 7773 C 726.405 -1.31588 -4.0727 0
M  V30 7774 C 725.731 -0.653428 -5.30692 0
M  V30 7775 C 727.031 -2.67866 -4.48381 0
M  V30 7776 H 728.725 -1.76755 -2.41657 0
M  V30 7777 H 726.271 -0.851287 -1.16143 0
M  V30 7778 H 728.224 -0.120128 -4.21229 0
M  V30 7779 H 726.948 0.611967 -3.20815 0
M  V30 7780 H 725.607 -1.51661 -3.33758 0
M  V30 7781 H 725.255 0.299054 -5.0211 0
M  V30 7782 H 724.955 -1.30817 -5.72853 0
M  V30 7783 H 726.479 -0.448453 -6.08951 0
M  V30 7784 H 727.893 -2.51692 -5.15096 0
M  V30 7785 H 726.29 -3.29627 -5.01464 0
M  V30 7786 H 727.36 -3.24632 -3.60198 0
M  V30 7787 N 728.703 1.26451 -0.940633 0
M  V30 7788 C 730.119 1.4608 -0.642859 0
M  V30 7789 C 730.319 1.84765 0.803998 0
M  V30 7790 O 729.375 1.96902 1.58069 0
M  V30 7791 C 730.688 2.54359 -1.60381 0
M  V30 7792 C 732.236 2.6821 -1.61345 0
M  V30 7793 C 732.711 3.79659 -2.56169 0
M  V30 7794 N 734.202 3.87051 -2.54452 0
M  V30 7795 C 734.937 4.72739 -3.24507 0
M  V30 7796 N 734.433 5.6282 -4.03987 0
M  V30 7797 N 736.226 4.66581 -3.13462 0
M  V30 7798 H 728.377 0.996289 -1.87584 0
M  V30 7799 H 730.64 0.498921 -0.80609 0
M  V30 7800 H 730.346 2.32758 -2.6366 0
M  V30 7801 H 730.22 3.52005 -1.35545 0
M  V30 7802 H 732.607 2.89184 -0.587913 0
M  V30 7803 H 732.688 1.7101 -1.90235 0
M  V30 7804 H 732.332 3.59438 -3.58841 0
M  V30 7805 H 732.262 4.76315 -2.2457 0
M  V30 7806 H 734.753 3.22649 -1.96739 0
M  V30 7807 H 735.066 6.25095 -4.54396 0
M  V30 7808 H 733.411 5.62574 -4.08088 0
M  V30 7809 H 736.602 3.9521 -2.50852 0
M  V30 7810 H 736.775 5.33141 -3.68327 0
M  V30 7811 N 730.181 0.707592 1.40822 0
M  V30 7812 C 731.427 0.244031 2.01326 0
M  V30 7813 C 731.76 -1.15722 1.55955 0
M  V30 7814 O 731.035 -1.78347 0.776044 0
M  V30 7815 C 731.318 0.315128 3.58718 0
M  V30 7816 C 731.171 1.75419 4.14184 0
M  V30 7817 C 732.49 -0.318251 4.38948 0
M  V30 7818 H 729.609 0.0901471 0.731466 0
M  V30 7819 H 732.251 0.898584 1.67408 0
M  V30 7820 H 730.401 -0.242176 3.87744 0
M  V30 7821 H 732.073 2.36626 3.95987 0
M  V30 7822 H 730.316 2.28449 3.68773 0
M  V30 7823 H 730.987 1.75538 5.23345 0
M  V30 7824 H 733.463 0.156514 4.15806 0
M  V30 7825 H 732.339 -0.238019 5.48384 0
M  V30 7826 H 732.6 -1.40067 4.19325 0
M  V30 7827 N 731.66 -1.50943 0.453197 0
M  V30 7828 C 732.906 -2.02512 -0.108082 0
M  V30 7829 C 733.239 -1.33574 -1.40967 0
M  V30 7830 O 732.514 -0.455671 -1.89087 0
M  V30 7831 C 732.797 -3.58759 -0.310453 0
M  V30 7832 C 732.65 -4.38293 1.0109 0
M  V30 7833 C 733.969 -4.26816 -1.07313 0
M  V30 7834 H 731.088 -0.73603 -0.0378064 0
M  V30 7835 H 733.73 -1.80433 0.595295 0
M  V30 7836 H 731.88 -3.77702 -0.909582 0
M  V30 7837 H 733.552 -4.30964 1.64523 0
M  V30 7838 H 731.795 -4.02745 1.61179 0
M  V30 7839 H 732.466 -5.45828 0.82315 0
M  V30 7840 H 734.942 -4.1224 -0.565473 0
M  V30 7841 H 733.818 -5.35989 -1.1835 0
M  V30 7842 H 734.079 -3.88757 -2.10525 0
M  V30 7843 N 733.138 -0.185124 -1.56509 0
M  V30 7844 C 734.086 0.756505 -2.19954 0
M  V30 7845 C 735.08 1.22725 -1.16769 0
M  V30 7846 O 736.286 1.1913 -1.34937 0
M  V30 7847 H 732.661 0.262279 -0.704779 0
M  V30 7848 H 734.632 0.197587 -2.97745 0
M  V30 7849 C 733.381 1.96975 -2.86524 0
M  V30 7850 H 732.704 1.61658 -3.65659 0
M  V30 7851 H 734.144 2.60719 -3.34367 0
M  V30 7852 C 732.603 2.80219 -1.87027 0
M  V30 7853 O 733.133 3.77821 -1.36433 0
M  V30 7854 N 731.339 2.4551 -1.55477 0
M  V30 7855 H 730.886 1.66199 -1.96813 0
M  V30 7856 H 730.844 3.01493 -0.891597 0
M  V30 7857 N 734.616 1.57351 0.0885366 0
M  V30 7858 C 735.864 1.86051 0.789262 0
M  V30 7859 C 736.185 0.774763 1.78948 0
M  V30 7860 O 735.455 -0.198324 1.94894 0
M  V30 7861 H 734.035 0.686508 0.294475 0
M  V30 7862 H 736.697 1.94779 0.0686055 0
M  V30 7863 H 735.793 2.83007 1.31581 0
M  V30 7864 N 736.094 -0.359525 1.53444 0
M  V30 7865 C 737.343 -1.09886 1.69139 0
M  V30 7866 C 737.656 -1.90285 0.452863 0
M  V30 7867 O 738.862 -2.67033 0.490459 0
M  V30 7868 C 737.318 -2.0028 2.99025 0
M  V30 7869 C 736.926 -1.25164 4.30161 0
M  V30 7870 C 738.67 -2.74168 3.24086 0
M  V30 7871 C 736.577 -2.14494 5.51132 0
M  V30 7872 H 735.507 -0.413936 0.630217 0
M  V30 7873 H 738.158 -0.359434 1.79945 0
M  V30 7874 H 736.54 -2.77978 2.82036 0
M  V30 7875 H 737.714 -0.524867 4.57801 0
M  V30 7876 H 736.029 -0.631116 4.11589 0
M  V30 7877 H 738.626 -3.41243 4.11652 0
M  V30 7878 H 738.969 -3.39868 2.40407 0
M  V30 7879 H 739.502 -2.0355 3.41778 0
M  V30 7880 H 736.241 -1.53362 6.37307 0
M  V30 7881 H 735.761 -2.85004 5.27762 0
M  V30 7882 H 737.44 -2.73914 5.86157 0
M  V30 7883 N 737.572 -1.44907 -0.619662 0
M  V30 7884 C 738.983 -1.42905 -1.20146 0
M  V30 7885 C 739.334 -0.150341 -1.95623 0
M  V30 7886 O 738.459 0.748732 -2.03034 0
M  V30 7887 C 739.054 -2.58889 -2.18545 0
M  V30 7888 C 737.613 -2.60046 -2.72127 0
M  V30 7889 C 736.76 -2.3493 -1.4732 0
M  V30 7890 H 739.711 -1.53321 -0.409666 0
M  V30 7891 H 739.732 -2.32298 -3.0136 0
M  V30 7892 H 739.244 -3.51941 -1.63583 0
M  V30 7893 H 737.345 -1.70968 -3.3106 0
M  V30 7894 H 737.458 -3.58893 -3.17384 0
M  V30 7895 H 735.822 -1.84248 -1.75855 0
M  V30 7896 H 736.605 -3.3011 -0.942442 0
M  V30 7897 N 739.05 0.861098 -1.31996 0
M  V30 7898 C 740.278 1.6474 -1.25173 0
M  V30 7899 C 740.693 1.87926 0.181425 0
M  V30 7900 O 740.05 1.4437 1.1164 0
M  V30 7901 C 740.101 3.01036 -2.0015 0
M  V30 7902 O 739.822 2.7888 -3.37872 0
M  V30 7903 C 741.323 3.95481 -2.00273 0
M  V30 7904 H 738.543 0.513314 -0.432146 0
M  V30 7905 H 741.087 1.07419 -1.74016 0
M  V30 7906 H 739.242 3.55021 -1.55046 0
M  V30 7907 H 739.656 3.65514 -3.76165 0
M  V30 7908 H 741.13 4.88403 -2.57229 0
M  V30 7909 H 741.607 4.27957 -0.987407 0
M  V30 7910 H 742.213 3.47433 -2.45296 0
M  V30 7911 N 740.528 1.15101 1.07655 0
M  V30 7912 C 741.944 0.893004 1.32279 0
M  V30 7913 C 742.144 -0.461701 1.96139 0
M  V30 7914 O 741.2 -1.20431 2.21929 0
M  V30 7915 C 742.513 2.03161 2.21689 0
M  V30 7916 C 744.061 2.06579 2.35147 0
M  V30 7917 C 744.536 3.19754 3.27905 0
M  V30 7918 N 746.027 3.19382 3.35484 0
M  V30 7919 C 746.762 4.03592 4.07309 0
M  V30 7920 N 746.258 4.97859 4.81776 0
M  V30 7921 N 748.051 3.91626 4.03219 0
M  V30 7922 H 740.202 2.02341 0.645886 0
M  V30 7923 H 742.465 0.882127 0.347211 0
M  V30 7924 H 742.171 3.00934 1.82021 0
M  V30 7925 H 742.045 1.96132 3.22199 0
M  V30 7926 H 744.432 1.09408 2.74069 0
M  V30 7927 H 744.513 2.17676 1.34353 0
M  V30 7928 H 744.157 4.17175 2.89702 0
M  V30 7929 H 744.087 3.05893 4.28645 0
M  V30 7930 H 746.578 2.51112 2.82403 0
M  V30 7931 H 746.891 5.58563 5.34067 0
M  V30 7932 H 745.236 5.0185 4.80803 0
M  V30 7933 H 748.427 3.17295 3.44154 0
M  V30 7934 H 748.6 4.57479 4.5893 0
M  V30 7935 N 742.006 -1.2595 0.947325 0
M  V30 7936 C 743.234 -1.97544 0.615127 0
M  V30 7937 C 743.649 -1.70484 -0.811221 0
M  V30 7938 O 743.006 -0.97662 -1.5417 0
M  V30 7939 C 743.057 -3.51236 0.855328 0
M  V30 7940 O 742.778 -3.77359 2.22558 0
M  V30 7941 C 744.279 -4.40066 0.534515 0
M  V30 7942 H 741.499 -0.629888 0.231263 0
M  V30 7943 H 744.043 -1.60308 1.26971 0
M  V30 7944 H 742.198 -3.8661 0.247266 0
M  V30 7945 H 742.612 -4.71857 2.29022 0
M  V30 7946 H 744.086 -5.46838 0.753168 0
M  V30 7947 H 744.563 -4.35982 -0.530701 0
M  V30 7948 H 745.169 -4.10245 1.12158 0
M  V30 7949 N 743.484 -0.715051 -1.40445 0
M  V30 7950 C 744.432 -0.0509974 -2.32544 0
M  V30 7951 C 745.426 0.747602 -1.52011 0
M  V30 7952 O 746.632 0.651031 -1.67814 0
M  V30 7953 H 743.007 0.00231113 -0.751996 0
M  V30 7954 H 744.978 -0.84449 -2.86201 0
M  V30 7955 C 743.727 0.857101 -3.3697 0
M  V30 7956 H 743.05 0.252 -3.99005 0
M  V30 7957 H 744.49 1.28971 -4.03909 0
M  V30 7958 C 742.949 1.98231 -2.72408 0
M  V30 7959 O 743.479 3.07309 -2.58697 0
M  V30 7960 N 741.685 1.76577 -2.308 0
M  V30 7961 H 741.232 0.878641 -2.42152 0
M  V30 7962 H 741.19 2.52043 -1.87941 0
M  V30 7963 N 744.962 1.50701 -0.461195 0
M  V30 7964 C 746.211 2.01458 0.0988277 0
M  V30 7965 C 746.524 1.34863 1.41673 0
M  V30 7966 O 747.73 1.76721 2.06111 0
M  V30 7967 C 746.186 3.59186 0.226648 0
M  V30 7968 C 745.794 4.34732 -1.08223 0
M  V30 7969 C 747.538 4.18015 0.73916 0
M  V30 7970 C 745.445 5.8422 -0.918747 0
M  V30 7971 H 744.375 0.7529 0.040709 0
M  V30 7972 H 747.026 1.736 -0.594589 0
M  V30 7973 H 745.408 3.83589 0.983621 0
M  V30 7974 H 746.582 4.22059 -1.84939 0
M  V30 7975 H 744.897 3.87466 -1.52509 0
M  V30 7976 H 747.494 5.27436 0.878347 0
M  V30 7977 H 747.837 3.78746 1.72793 0
M  V30 7978 H 748.37 3.9778 0.0398469 0
M  V30 7979 H 745.109 6.27944 -1.88059 0
M  V30 7980 H 744.629 5.99493 -0.191801 0
M  V30 7981 H 746.308 6.44382 -0.581405 0
M  V30 7982 N 746.441 0.193421 1.56409 0
M  V30 7983 C 747.689 -0.444908 1.97142 0
M  V30 7984 C 748.01 -1.62268 1.08139 0
M  V30 7985 O 747.28 -1.95307 0.152326 0
M  V30 7986 H 745.86 -0.16736 0.728011 0
M  V30 7987 H 748.522 0.279763 1.92882 0
M  V30 7988 H 747.618 -0.790159 3.01932 0
M  V30 7989 N 747.919 -1.57396 -0.0801906 0
M  V30 7990 C 749.165 -1.87979 -0.776884 0
M  V30 7991 C 749.52 -0.786098 -1.75608 0
M  V30 7992 O 748.813 0.210541 -1.9044 0
M  V30 7993 C 749.007 -3.22915 -1.53169 0
M  V30 7994 C 748.836 -4.45306 -0.627099 0
M  V30 7995 C 747.606 -5.04593 -0.267201 0
M  V30 7996 C 749.804 -5.14249 0.0724916 0
M  V30 7997 N 747.786 -6.10513 0.643995 0
M  V30 7998 C 749.157 -6.14267 0.841191 0
M  V30 7999 C 751.212 -4.97689 0.144847 0
M  V30 8000 C 749.915 -6.99514 1.67551 0
M  V30 8001 C 751.941 -5.83455 0.966112 0
M  V30 8002 C 751.303 -6.83005 1.72288 0
M  V30 8003 H 747.402 -0.737519 -0.259979 0
M  V30 8004 H 749.986 -1.94661 -0.0387512 0
M  V30 8005 H 748.157 -3.17256 -2.2406 0
M  V30 8006 H 749.889 -3.41174 -2.17675 0
M  V30 8007 H 746.644 -4.69548 -0.618194 0
M  V30 8008 H 747.068 -6.68125 1.09259 0
M  V30 8009 H 751.71 -4.20649 -0.4259 0
M  V30 8010 H 749.428 -7.75934 2.25726 0
M  V30 8011 H 753.014 -5.727 1.02497 0
M  V30 8012 H 751.894 -7.48219 2.34813 0
M  V30 8013 N 749.397 0.351382 -1.53633 0
M  V30 8014 C 750.33 1.45407 -1.75875 0
M  V30 8015 C 751.308 1.50822 -0.607566 0
M  V30 8016 O 752.492 1.68658 -0.841818 0
M  V30 8017 C 749.619 2.8369 -1.85034 0
M  V30 8018 C 748.665 2.95935 -3.07123 0
M  V30 8019 S 749.498 2.63215 -4.66345 0
M  V30 8020 C 750.654 4.03622 -4.78373 0
M  V30 8021 H 750.887 1.26322 -2.69128 0
M  V30 8022 H 748.42 0.546581 -1.44402 0
M  V30 8023 H 750.378 3.6336 -1.90996 0
M  V30 8024 H 749.039 3.00076 -0.928074 0
M  V30 8025 H 748.232 3.97243 -3.10183 0
M  V30 8026 H 747.834 2.24205 -2.99346 0
M  V30 8027 H 750.126 4.98046 -4.593 0
M  V30 8028 H 751.069 4.05559 -5.80454 0
M  V30 8029 H 751.477 3.91282 -4.06889 0
M  V30 8030 N 750.875 1.45233 0.611969 0
M  V30 8031 C 752.121 1.49242 1.37312 0
M  V30 8032 C 752.454 0.131963 1.93751 0
M  V30 8033 O 751.729 -0.852999 1.74798 0
M  V30 8034 C 752.012 2.56811 2.52428 0
M  V30 8035 C 751.865 4.02284 2.01215 0
M  V30 8036 C 753.184 2.60705 3.54572 0
M  V30 8037 H 750.303 0.54336 0.497925 0
M  V30 8038 H 752.945 1.77019 0.690242 0
M  V30 8039 H 751.095 2.33256 3.10683 0
M  V30 8040 H 752.767 4.37035 1.47643 0
M  V30 8041 H 751.01 4.1315 1.32248 0
M  V30 8042 H 751.681 4.7323 2.84178 0
M  V30 8043 H 754.157 2.81799 3.06151 0
M  V30 8044 H 753.033 3.37841 4.32614 0
M  V30 8045 H 753.294 1.65627 4.09903 0
M  V30 8046 N 752.353 -0.854086 1.3245 0
M  V30 8047 C 753.578 -1.64597 1.26185 0
M  V30 8048 C 754.003 -1.87357 -0.167074 0
M  V30 8049 O 753.361 -1.42675 -1.11864 0
M  V30 8050 C 753.409 -2.98213 2.02734 0
M  V30 8051 O 752.513 -3.88784 1.37554 0
M  V30 8052 H 751.854 -0.50179 0.434859 0
M  V30 8053 H 754.384 -1.06372 1.74775 0
M  V30 8054 H 754.394 -3.4803 2.1293 0
M  V30 8055 H 753.069 -2.80969 3.06642 0
M  V30 8056 H 751.646 -3.4725 1.3591 0
M  V30 8057 N 753.831 -1.1567 -1.07043 0
M  V30 8058 C 754.761 -0.879348 -2.16309 0
M  V30 8059 C 755.742 0.171311 -1.69235 0
M  V30 8060 O 756.927 0.0250175 -1.94184 0
M  V30 8061 C 754.057 -0.371307 -3.45309 0
M  V30 8062 C 753.011 -1.359 -4.05851 0
M  V30 8063 C 752.337 -0.709678 -5.29969 0
M  V30 8064 C 753.637 -2.72606 -4.45514 0
M  V30 8065 H 755.331 -1.79308 -2.39768 0
M  V30 8066 H 752.877 -0.863558 -1.15233 0
M  V30 8067 H 754.83 -0.164798 -4.21078 0
M  V30 8068 H 753.554 0.577906 -3.21446 0
M  V30 8069 H 752.213 -1.55193 -3.32131 0
M  V30 8070 H 751.861 0.245782 -5.02399 0
M  V30 8071 H 751.561 -1.36886 -5.71433 0
M  V30 8072 H 753.085 -0.513015 -6.08441 0
M  V30 8073 H 754.499 -2.57141 -5.12398 0
M  V30 8074 H 752.896 -3.34927 -4.97939 0
M  V30 8075 H 753.966 -3.28434 -3.56734 0
M  V30 8076 N 755.309 1.25446 -0.953992 0
M  V30 8077 C 756.725 1.4539 -0.658316 0
M  V30 8078 C 756.925 1.85607 0.784356 0
M  V30 8079 O 755.981 1.98568 1.55972 0
M  V30 8080 C 757.294 2.52643 -1.6307 0
M  V30 8081 C 758.842 2.66484 -1.64181 0
M  V30 8082 C 759.317 3.76921 -2.60182 0
M  V30 8083 N 760.808 3.84331 -2.58542 0
M  V30 8084 C 761.543 4.69271 -3.29503 0
M  V30 8085 N 761.039 5.58503 -4.09934 0
M  V30 8086 N 762.832 4.6323 -3.18393 0
M  V30 8087 H 754.983 0.976337 -1.8863 0
M  V30 8088 H 757.246 0.490343 -0.811337 0
M  V30 8089 H 756.952 2.29949 -2.66114 0
M  V30 8090 H 756.826 3.50547 -1.39271 0
M  V30 8091 H 759.213 2.88545 -0.618552 0
M  V30 8092 H 759.294 1.68982 -1.92038 0
M  V30 8093 H 758.938 3.55612 -3.62633 0
M  V30 8094 H 758.868 4.73906 -2.29609 0
M  V30 8095 H 761.359 3.20544 -2.0015 0
M  V30 8096 H 761.672 6.20241 -4.61 0
M  V30 8097 H 760.017 5.58214 -4.14032 0
M  V30 8098 H 763.208 3.92527 -2.5503 0
M  V30 8099 H 763.381 5.29204 -3.73961 0
M  V30 8100 N 756.787 0.722489 1.40064 0
M  V30 8101 C 758.017 0.274439 2.04769 0
M  V30 8102 C 758.425 -1.09125 1.54559 0
M  V30 8103 O 757.768 -1.69834 0.700149 0
M  V30 8104 C 757.83 0.184091 3.59028 0
M  V30 8105 C 757.494 1.48619 4.32159 0
M  V30 8106 C 758.491 2.42947 4.59644 0
M  V30 8107 C 756.176 1.74703 4.7094 0
M  V30 8108 C 758.17 3.616 5.24904 0
M  V30 8109 C 755.857 2.93636 5.3593 0
M  V30 8110 C 756.855 3.86907 5.62843 0
M  V30 8111 O 756.543 5.03753 6.26489 0
M  V30 8112 H 756.275 0.119847 0.665292 0
M  V30 8113 H 758.829 0.983352 1.80331 0
M  V30 8114 H 757.059 -0.580821 3.82313 0
M  V30 8115 H 758.748 -0.230306 4.05246 0
M  V30 8116 H 759.514 2.24062 4.30141 0
M  V30 8117 H 755.393 1.02955 4.49356 0
M  V30 8118 H 758.937 4.34418 5.45827 0
M  V30 8119 H 754.834 3.12428 5.64853 0
M  V30 8120 H 755.602 5.03922 6.44984 0
M  V30 8121 N 758.265 -1.50454 0.469181 0
M  V30 8122 C 759.681 -1.59124 0.123226 0
M  V30 8123 C 759.881 -1.47749 -1.37013 0
M  V30 8124 O 758.937 -1.335 -2.14322 0
M  V30 8125 C 760.25 -2.93101 0.67172 0
M  V30 8126 C 761.798 -3.06491 0.634978 0
M  V30 8127 C 762.273 -4.43041 1.16098 0
M  V30 8128 N 763.764 -4.49448 1.12031 0
M  V30 8129 C 764.499 -5.53491 1.49784 0
M  V30 8130 N 763.995 -6.64798 1.94976 0
M  V30 8131 N 765.788 -5.44025 1.41399 0
M  V30 8132 H 757.939 -1.56091 1.44046 0
M  V30 8133 H 760.202 -0.737564 0.59557 0
M  V30 8134 H 759.908 -3.06895 1.7178 0
M  V30 8135 H 759.782 -3.77027 0.114222 0
M  V30 8136 H 762.169 -2.92346 -0.402187 0
M  V30 8137 H 762.25 -2.24328 1.22926 0
M  V30 8138 H 761.894 -4.57935 2.19677 0
M  V30 8139 H 761.824 -5.23794 0.542939 0
M  V30 8140 H 764.315 -3.69575 0.788828 0
M  V30 8141 H 764.628 -7.40246 2.21936 0
M  V30 8142 H 762.973 -6.65923 1.98927 0
M  V30 8143 H 766.164 -4.55955 1.05935 0
M  V30 8144 H 766.337 -6.2499 1.71147 0
M  V30 8145 N 759.743 -0.201713 -1.56304 0
M  V30 8146 C 760.691 0.733133 -2.20744 0
M  V30 8147 C 761.685 1.2148 -1.18064 0
M  V30 8148 O 762.891 1.17692 -1.36193 0
M  V30 8149 H 759.266 0.254789 -0.707521 0
M  V30 8150 H 761.237 0.165996 -2.97938 0
M  V30 8151 C 759.986 1.93925 -2.88597 0
M  V30 8152 H 759.309 1.5777 -3.67353 0
M  V30 8153 H 760.749 2.57158 -3.37114 0
M  V30 8154 C 759.208 2.78219 -1.89989 0
M  V30 8155 O 759.738 3.76353 -1.40432 0
M  V30 8156 N 757.944 2.43847 -1.58072 0
M  V30 8157 H 757.491 1.64103 -1.98565 0
M  V30 8158 H 757.449 3.0053 -0.923524 0
M  V30 8159 N 761.222 1.57436 0.0718424 0
M  V30 8160 C 762.169 2.03686 1.08539 0
M  V30 8161 C 763.139 0.917474 1.38462 0
M  V30 8162 O 764.324 1.18513 1.4953 0
M  V30 8163 C 761.464 2.48566 2.39393 0
M  V30 8164 C 760.577 3.74122 2.16001 0
M  V30 8165 C 759.712 4.07786 3.40418 0
M  V30 8166 C 758.751 5.26383 3.1239 0
M  V30 8167 N 757.888 5.55685 4.29138 0
M  V30 8168 H 762.728 2.90043 0.684018 0
M  V30 8169 H 760.265 1.43438 0.326183 0
M  V30 8170 H 762.223 2.72639 3.15791 0
M  V30 8171 H 760.853 1.65186 2.77333 0
M  V30 8172 H 759.905 3.57389 1.30296 0
M  V30 8173 H 761.217 4.60659 1.91298 0
M  V30 8174 H 760.371 4.32759 4.25211 0
M  V30 8175 H 759.11 3.19817 3.68197 0
M  V30 8176 H 758.115 5.01206 2.25993 0
M  V30 8177 H 759.34 6.1597 2.85934 0
M  V30 8178 H 757.286 4.70675 4.56948 0
M  V30 8179 H 757.203 6.3664 4.07708 0
M  V30 8180 H 758.471 5.85209 5.14928 0
M  V30 8181 N 762.7 -0.34323 1.53817 0
M  V30 8182 C 763.65 -1.42217 1.78208 0
M  V30 8183 C 764.634 -1.4774 0.637304 0
M  V30 8184 O 765.826 -1.52605 0.896705 0
M  V30 8185 C 762.955 -2.79354 1.9954 0
M  V30 8186 C 762.041 -2.78222 3.20084 0
M  V30 8187 N 762.432 -2.46719 4.41547 0
M  V30 8188 C 760.73 -3.09368 3.21259 0
M  V30 8189 C 761.431 -2.53828 5.23399 0
M  V30 8190 N 760.407 -2.89464 4.60121 0
M  V30 8191 H 764.209 -1.16759 2.69712 0
M  V30 8192 H 761.723 -0.551592 1.52746 0
M  V30 8193 H 763.72 -3.57095 2.15148 0
M  V30 8194 H 762.38 -3.05759 1.09278 0
M  V30 8195 H 763.391 -2.19912 4.68891 0
M  V30 8196 H 760.068 -3.40942 2.40966 0
M  V30 8197 H 761.458 -2.32629 6.30344 0
M  V30 8198 N 764.178 -1.45556 -0.604258 0
M  V30 8199 C 765.427 -1.49019 -1.35928 0
M  V30 8200 C 765.74 -0.137409 -1.95117 0
M  V30 8201 O 766.946 -0.0497032 -2.71455 0
M  V30 8202 C 765.402 -2.62477 -2.46239 0
M  V30 8203 C 765.01 -4.04082 -1.93447 0
M  V30 8204 C 766.754 -2.7519 -3.23219 0
M  V30 8205 C 764.661 -5.08917 -3.0126 0
M  V30 8206 H 763.591 -0.554518 -0.510907 0
M  V30 8207 H 766.242 -1.71705 -0.647262 0
M  V30 8208 H 764.624 -2.3308 -3.2014 0
M  V30 8209 H 765.798 -4.43173 -1.26232 0
M  V30 8210 H 764.113 -3.95849 -1.29201 0
M  V30 8211 H 766.71 -3.50683 -4.0364 0
M  V30 8212 H 767.053 -1.81941 -3.74437 0
M  V30 8213 H 767.586 -3.04129 -2.56418 0
M  V30 8214 H 764.325 -6.03886 -2.54955 0
M  V30 8215 H 763.845 -4.74393 -3.67031 0
M  V30 8216 H 765.524 -5.33814 -3.65584 0
M  V30 8217 N 765.656 0.84705 -1.32902 0
M  V30 8218 C 766.896 1.61554 -1.25218 0
M  V30 8219 C 767.26 1.91141 0.18143 0
M  V30 8220 O 768.461 2.6607 0.382106 0
M  V30 8221 C 766.732 2.89553 -2.09509 0
M  V30 8222 S 768.291 3.80283 -2.18931 0
M  V30 8223 H 765.109 0.554031 -0.445613 0
M  V30 8224 H 767.711 1.00251 -1.67839 0
M  V30 8225 H 766.415 2.65776 -3.12716 0
M  V30 8226 H 765.946 3.55868 -1.67694 0
M  V30 8227 H 767.961 4.77641 -1.34438 0
M  V30 8228 N 767.134 1.16236 1.06428 0
M  V30 8229 C 768.382 0.941171 1.78847 0
M  V30 8230 C 768.703 -0.53248 1.87589 0
M  V30 8231 O 767.973 -1.38686 1.38358 0
M  V30 8232 H 766.553 0.345228 0.66244 0
M  V30 8233 H 769.215 1.46479 1.28569 0
M  V30 8234 H 768.311 1.35871 2.80972 0
M  V30 8235 N 768.612 -1.24939 0.960631 0
M  V30 8236 C 769.86 -1.92437 0.617441 0
M  V30 8237 C 770.181 -1.75543 -0.849101 0
M  V30 8238 O 769.451 -1.12269 -1.60538 0
M  V30 8239 H 768.031 -0.712192 0.225371 0
M  V30 8240 H 770.693 -1.5198 1.22017 0
M  V30 8241 H 769.789 -3.00247 0.851933 0
M  V30 8242 N 770.09 -0.729906 -1.39679 0
M  V30 8243 C 771.315 -0.284345 -2.05442 0
M  V30 8244 C 771.74 1.07056 -1.54663 0
M  V30 8245 O 771.098 1.67732 -0.688157 0
M  V30 8246 C 771.146 -0.290089 -3.59431 0
M  V30 8247 O 770.25 0.723978 -4.05995 0
M  V30 8248 H 769.591 -0.130311 -0.651088 0
M  V30 8249 H 772.121 -0.994403 -1.78809 0
M  V30 8250 H 772.131 -0.132712 -4.07784 0
M  V30 8251 H 770.806 -1.27877 -3.95753 0
M  V30 8252 H 769.383 0.533154 -3.69069 0
M  V30 8253 N 771.568 1.50203 -0.477153 0
M  V30 8254 C 772.498 2.31517 0.303646 0
M  V30 8255 C 773.479 1.38696 0.984753 0
M  V30 8256 O 774.664 1.67615 0.980758 0
M  V30 8257 C 771.794 3.18598 1.38249 0
M  V30 8258 C 770.748 4.2002 0.822645 0
M  V30 8259 C 770.074 4.95878 2.00024 0
M  V30 8260 C 771.374 5.22023 -0.170185 0
M  V30 8261 H 773.068 2.97042 -0.375027 0
M  V30 8262 H 770.614 1.42848 -0.181802 0
M  V30 8263 H 772.567 3.74282 1.93625 0
M  V30 8264 H 771.291 2.5097 2.09002 0
M  V30 8265 H 769.95 3.65445 0.290813 0
M  V30 8266 H 769.598 4.24717 2.69489 0
M  V30 8267 H 769.298 5.64487 1.63183 0
M  V30 8268 H 770.822 5.54399 2.55878 0
M  V30 8269 H 772.236 5.72543 0.294606 0
M  V30 8270 H 770.633 5.98386 -0.453181 0
M  V30 8271 H 771.703 4.72396 -1.09408 0
M  V30 8272 N 773.046 0.209999 1.56195 0
M  V30 8273 C 774.295 -0.425106 1.97169 0
M  V30 8274 C 774.608 -1.61718 1.10031 0
M  V30 8275 O 775.814 -2.32105 1.40853 0
M  V30 8276 C 774.27 -0.80771 3.50719 0
M  V30 8277 C 773.878 0.360902 4.46544 0
M  V30 8278 C 775.622 -1.40906 4.00432 0
M  V30 8279 C 773.529 -0.0434919 5.91384 0
M  V30 8280 H 772.459 -0.162598 0.736259 0
M  V30 8281 H 775.11 0.304382 1.80958 0
M  V30 8282 H 773.492 -1.59429 3.62489 0
M  V30 8283 H 774.666 1.13846 4.46515 0
M  V30 8284 H 772.981 0.874729 4.07109 0
M  V30 8285 H 775.578 -1.72433 5.06133 0
M  V30 8286 H 775.921 -2.32081 3.45607 0
M  V30 8287 H 776.454 -0.686154 3.91838 0
M  V30 8288 H 773.193 0.834448 6.50167 0
M  V30 8289 H 772.713 -0.785598 5.94633 0
M  V30 8290 H 774.392 -0.474176 6.4526 0
M  V30 8291 N 774.524 -1.57472 -0.0634922 0
M  V30 8292 C 775.471 -2.04258 -1.07457 0
M  V30 8293 C 776.441 -0.924804 -1.37973 0
M  V30 8294 O 777.626 -1.19305 -1.48899 0
M  V30 8295 C 774.766 -2.49832 -2.38071 0
M  V30 8296 C 773.879 -3.75263 -2.14014 0
M  V30 8297 C 773.014 -4.09585 -3.38251 0
M  V30 8298 C 772.053 -5.28032 -3.09594 0
M  V30 8299 N 771.19 -5.57953 -4.26185 0
M  V30 8300 H 776.03 -2.90402 -0.668626 0
M  V30 8301 H 773.567 -1.43609 -0.318572 0
M  V30 8302 H 775.525 -2.7431 -3.14341 0
M  V30 8303 H 774.155 -1.66654 -2.76453 0
M  V30 8304 H 773.207 -3.58075 -1.28399 0
M  V30 8305 H 774.519 -4.61667 -1.88852 0
M  V30 8306 H 773.673 -4.35008 -4.2291 0
M  V30 8307 H 772.412 -3.21765 -3.66495 0
M  V30 8308 H 771.417 -5.02397 -2.23332 0
M  V30 8309 H 772.642 -6.17477 -2.82663 0
M  V30 8310 H 770.588 -4.73092 -4.54445 0
M  V30 8311 H 770.505 -6.38793 -4.04326 0
M  V30 8312 H 771.773 -5.87931 -5.11817 0
M  V30 8313 N 776.003 0.335068 -1.53997 0
M  V30 8314 C 776.913 1.43511 -1.85585 0
M  V30 8315 C 777.929 1.57162 -0.746726 0
M  V30 8316 O 779.105 1.72477 -1.03988 0
M  V30 8317 C 776.17 2.78386 -2.06646 0
M  V30 8318 C 775.231 2.74007 -3.30483 0
M  V30 8319 C 774.464 4.02449 -3.50529 0
M  V30 8320 O 774.687 5.00147 -2.74242 0
M  V30 8321 O 773.621 4.06405 -4.4398 0
M  V30 8322 H 777.447 1.19731 -2.79102 0
M  V30 8323 H 775.032 0.528033 -1.39758 0
M  V30 8324 H 776.914 3.58247 -2.21894 0
M  V30 8325 H 775.589 3.0208 -1.16317 0
M  V30 8326 H 774.496 1.92736 -3.2063 0
M  V30 8327 H 775.829 2.55267 -4.20832 0
M  V30 8328 N 777.481 1.45874 0.596531 0
M  V30 8329 C 778.706 1.54247 1.38646 0
M  V30 8330 C 779.131 0.179571 1.87241 0
M  V30 8331 O 778.489 -0.837831 1.6078 0
M  V30 8332 C 778.537 2.54015 2.55946 0
M  V30 8333 O 777.641 2.06561 3.5694 0
M  V30 8334 H 776.982 0.519555 0.413471 0
M  V30 8335 H 779.512 1.91327 0.724936 0
M  V30 8336 H 779.522 2.73179 3.03047 0
M  V30 8337 H 778.197 3.52994 2.19928 0
M  V30 8338 H 776.774 1.97324 3.16414 0
M  V30 8339 N 778.959 -0.83999 1.33349 0
M  V30 8340 C 780.205 -1.59724 1.25936 0
M  V30 8341 C 780.56 -1.91616 -0.173563 0
M  V30 8342 O 779.853 -1.55791 -1.11534 0
M  V30 8343 C 780.047 -2.91571 2.06691 0
M  V30 8344 C 779.876 -2.72556 3.57691 0
M  V30 8345 C 778.646 -2.70174 4.27006 0
M  V30 8346 C 780.844 -2.45272 4.52047 0
M  V30 8347 N 778.826 -2.42525 5.63964 0
M  V30 8348 C 780.197 -2.27163 5.76885 0
M  V30 8349 C 782.252 -2.30859 4.41144 0
M  V30 8350 C 780.955 -1.96105 6.92052 0
M  V30 8351 C 782.981 -2.01194 5.56125 0
M  V30 8352 C 782.343 -1.83897 6.79972 0
M  V30 8353 H 778.442 -0.587568 0.516031 0
M  V30 8354 H 781.026 -0.986169 1.67877 0
M  V30 8355 H 779.197 -3.5063 1.67073 0
M  V30 8356 H 780.929 -3.56762 1.91057 0
M  V30 8357 H 777.684 -2.8364 3.7927 0
M  V30 8358 H 778.108 -2.31588 6.36157 0
M  V30 8359 H 782.75 -2.42946 3.46031 0
M  V30 8360 H 780.468 -1.82756 7.87163 0
M  V30 8361 H 784.054 -1.90799 5.49624 0
M  V30 8362 H 782.934 -1.61271 7.67438 0
M  V30 8363 N 780.437 -1.16799 -1.0581 0
M  V30 8364 C 781.683 -0.953935 -1.78963 0
M  V30 8365 C 782.016 0.516638 -1.87202 0
M  V30 8366 O 781.291 1.38338 -1.36721 0
M  V30 8367 C 781.574 -1.58808 -3.23191 0
M  V30 8368 C 781.427 -3.13032 -3.23003 0
M  V30 8369 C 782.746 -1.2868 -4.20867 0
M  V30 8370 H 779.865 -0.347972 -0.64968 0
M  V30 8371 H 782.507 -1.44204 -1.23715 0
M  V30 8372 H 780.657 -1.17303 -3.70368 0
M  V30 8373 H 782.329 -3.63553 -2.83949 0
M  V30 8374 H 780.572 -3.46108 -2.61518 0
M  V30 8375 H 781.243 -3.52527 -4.24769 0
M  V30 8376 H 783.719 -1.6461 -3.82155 0
M  V30 8377 H 782.595 -1.75645 -5.20038 0
M  V30 8378 H 782.856 -0.206491 -4.41618 0
M  V30 8379 N 781.915 1.24427 -0.967243 0
M  V30 8380 C 782.845 2.2773 -0.515899 0
M  V30 8381 C 783.826 1.64197 0.444227 0
M  V30 8382 O 785.011 1.91193 0.340451 0
M  V30 8383 C 782.141 3.46751 0.195149 0
M  V30 8384 C 781.095 4.22548 -0.680953 0
M  V30 8385 C 780.421 5.34456 0.161561 0
M  V30 8386 C 781.721 4.83914 -1.96532 0
M  V30 8387 H 783.415 2.65735 -1.37933 0
M  V30 8388 H 780.961 1.27742 -0.664681 0
M  V30 8389 H 782.914 4.18153 0.522117 0
M  V30 8390 H 781.638 3.07771 1.09292 0
M  V30 8391 H 780.297 3.52946 -0.991186 0
M  V30 8392 H 779.945 4.91716 1.05947 0
M  V30 8393 H 779.645 5.86087 -0.421418 0
M  V30 8394 H 781.169 6.08685 0.483211 0
M  V30 8395 H 782.583 5.47392 -1.70396 0
M  V30 8396 H 780.98 5.45775 -2.49499 0
M  V30 8397 H 782.05 4.05393 -2.66053 0
M  V30 8398 N 783.393 0.737304 1.3929 0
M  V30 8399 C 784.621 0.296573 2.04763 0
M  V30 8400 C 785.036 -1.06941 1.55592 0
M  V30 8401 O 784.393 -1.67619 0.721822 0
M  V30 8402 C 784.444 0.291906 3.6032 0
M  V30 8403 O 784.165 1.60397 4.07682 0
M  V30 8404 C 785.666 -0.164708 4.42994 0
M  V30 8405 H 782.886 0.129251 0.658434 0
M  V30 8406 H 785.43 1.0016 1.78293 0
M  V30 8407 H 783.585 -0.364251 3.85684 0
M  V30 8408 H 783.999 1.51909 5.0202 0
M  V30 8409 H 785.473 -0.116814 5.51876 0
M  V30 8410 H 785.95 -1.21022 4.22197 0
M  V30 8411 H 786.556 0.461968 4.22784 0
M  V30 8412 N 784.871 -1.49948 0.485112 0
M  V30 8413 C 785.834 -2.27351 -0.290546 0
M  V30 8414 C 786.834 -1.32704 -0.908087 0
M  V30 8415 O 788.024 -1.56007 -0.775085 0
M  V30 8416 C 785.156 -3.10135 -1.41524 0
M  V30 8417 H 786.349 -2.97374 0.388454 0
M  V30 8418 H 783.902 -1.54453 0.239586 0
M  V30 8419 H 784.637 -2.44641 -2.12888 0
M  V30 8420 H 784.422 -3.79705 -0.978074 0
M  V30 8421 H 785.912 -3.68638 -1.96204 0
M  V30 8422 N 786.349 -0.21828 -1.56081 0
M  V30 8423 C 787.765 0.137168 -1.59009 0
M  V30 8424 C 787.965 1.59215 -1.23503 0
M  V30 8425 O 787.021 2.33178 -0.968716 0
M  V30 8426 C 788.334 -0.186162 -3.00123 0
M  V30 8427 C 789.882 -0.128135 -3.12738 0
M  V30 8428 C 790.357 -0.425094 -4.56023 0
M  V30 8429 N 791.848 -0.374547 -4.61683 0
M  V30 8430 C 792.583 -0.57786 -5.70481 0
M  V30 8431 N 792.079 -0.842771 -6.87655 0
M  V30 8432 N 793.872 -0.510521 -5.59777 0
M  V30 8433 H 786.023 -1.16746 -1.77437 0
M  V30 8434 H 788.286 -0.467706 -0.824594 0
M  V30 8435 H 787.992 -1.19589 -3.30744 0
M  V30 8436 H 787.866 0.500388 -3.73866 0
M  V30 8437 H 790.253 0.872224 -2.81915 0
M  V30 8438 H 790.334 -0.848112 -2.41331 0
M  V30 8439 H 789.978 -1.42288 -4.87562 0
M  V30 8440 H 789.908 0.316038 -5.25651 0
M  V30 8441 H 792.399 -0.177356 -3.77484 0
M  V30 8442 H 792.712 -0.986095 -7.66483 0
M  V30 8443 H 791.057 -0.879929 -6.89407 0
M  V30 8444 H 794.248 -0.303813 -4.67113 0
M  V30 8445 H 794.421 -0.672378 -6.44502 0
M  V30 8446 N 787.827 1.57504 0.0551401 0
M  V30 8447 C 788.759 2.0158 1.09078 0
M  V30 8448 C 789.772 0.92434 1.34014 0
M  V30 8449 O 790.961 1.20202 1.31961 0
M  V30 8450 C 788.061 2.35385 2.43818 0
M  V30 8451 C 787.234 3.66588 2.38605 0
M  V30 8452 C 786.293 3.87874 3.55585 0
M  V30 8453 O 785.319 4.59259 3.36258 0
M  V30 8454 N 786.521 3.31503 4.76536 0
M  V30 8455 H 789.286 2.91039 0.71529 0
M  V30 8456 H 786.847 1.60058 0.243532 0
M  V30 8457 H 788.839 2.46784 3.20749 0
M  V30 8458 H 787.409 1.51731 2.73307 0
M  V30 8459 H 786.629 3.65787 1.46947 0
M  V30 8460 H 787.917 4.52706 2.32239 0
M  V30 8461 H 787.315 2.73592 4.9514 0
M  V30 8462 H 785.872 3.48324 5.50921 0
M  V30 8463 N 789.305 -0.326896 1.54172 0
M  V30 8464 C 790.545 -1.07349 1.73941 0
M  V30 8465 C 790.909 -1.85355 0.50075 0
M  V30 8466 O 792.11 -2.62562 0.575731 0
M  V30 8467 C 790.381 -1.97636 2.97783 0
M  V30 8468 S 791.94 -2.79292 3.3844 0
M  V30 8469 H 788.758 -0.362459 0.611673 0
M  V30 8470 H 791.36 -0.349884 1.92344 0
M  V30 8471 H 790.064 -1.39158 3.86087 0
M  V30 8472 H 789.595 -2.74406 2.81895 0
M  V30 8473 H 791.61 -4.00106 2.93478 0
M  V30 8474 N 790.784 -1.46188 -0.588786 0
M  V30 8475 C 792.031 -1.51184 -1.34721 0
M  V30 8476 C 792.359 -0.161084 -1.93832 0
M  V30 8477 O 791.614 0.842557 -1.76634 0
M  V30 8478 C 791.913 -2.55364 -2.50048 0
M  V30 8479 C 791.579 -3.99553 -2.08969 0
M  V30 8480 C 790.241 -4.38811 -1.9748 0
M  V30 8481 C 792.593 -4.90156 -1.77191 0
M  V30 8482 C 789.921 -5.66544 -1.52463 0
M  V30 8483 C 792.273 -6.1832 -1.33654 0
M  V30 8484 C 790.937 -6.5649 -1.20738 0
M  V30 8485 H 790.207 -0.55322 -0.49298 0
M  V30 8486 H 792.854 -1.79634 -0.663627 0
M  V30 8487 H 791.159 -2.20552 -3.23827 0
M  V30 8488 H 792.856 -2.5646 -3.08268 0
M  V30 8489 H 789.446 -3.68518 -2.18843 0
M  V30 8490 H 793.63 -4.60549 -1.84955 0
M  V30 8491 H 788.886 -5.94895 -1.411 0
M  V30 8492 H 793.06 -6.87956 -1.08117 0
M  V30 8493 H 790.687 -7.55362 -0.856307 0
M  V30 8494 N 792.262 0.832906 -1.33792 0
M  V30 8495 C 793.673 1.40489 -1.22963 0
M  V30 8496 C 794.024 1.95633 0.149026 0
M  V30 8497 O 793.149 1.8928 1.04891 0
M  V30 8498 C 793.744 2.55387 -2.22627 0
M  V30 8499 C 792.303 3.08522 -2.15618 0
M  V30 8500 C 791.45 1.81347 -2.09782 0
M  V30 8501 H 794.401 0.638156 -1.45304 0
M  V30 8502 H 794.422 3.33193 -1.83746 0
M  V30 8503 H 793.934 2.15222 -3.22957 0
M  V30 8504 H 792.035 3.53217 -1.18611 0
M  V30 8505 H 792.148 3.6829 -3.0643 0
M  V30 8506 H 790.512 2.01839 -1.55349 0
M  V30 8507 H 791.295 1.43369 -3.1193 0
M  V30 8508 N 793.74 1.17359 1.05189 0
M  V30 8509 C 794.965 0.98709 1.82404 0
M  V30 8510 C 795.39 -0.459848 1.82392 0
M  V30 8511 O 794.748 -1.32924 1.23292 0
M  V30 8512 C 794.796 1.53276 3.26403 0
M  V30 8513 O 793.9 0.746541 4.05587 0
M  V30 8514 H 793.241 0.35047 0.563974 0
M  V30 8515 H 795.771 1.55856 1.32552 0
M  V30 8516 H 795.781 1.55504 3.77203 0
M  V30 8517 H 794.456 2.58603 3.25726 0
M  V30 8518 H 793.033 0.795671 3.64312 0
M  V30 8519 N 795.218 -1.23913 0.973828 0
M  V30 8520 C 796.634 -1.44325 0.681363 0
M  V30 8521 C 796.834 -1.86832 -0.754728 0
M  V30 8522 O 795.89 -2.01024 -1.52793 0
M  V30 8523 C 797.203 -2.50017 1.67069 0
M  V30 8524 C 798.751 -2.63838 1.68399 0
M  V30 8525 C 799.226 -3.72734 2.66145 0
M  V30 8526 N 800.717 -3.80169 2.64624 0
M  V30 8527 C 801.452 -4.6397 3.36927 0
M  V30 8528 N 800.948 -5.51911 4.18767 0
M  V30 8529 N 802.741 -4.58106 3.25722 0
M  V30 8530 H 794.892 -0.946204 1.9016 0
M  V30 8531 H 797.155 -0.477374 0.819035 0
M  V30 8532 H 796.861 -2.25686 2.69738 0
M  V30 8533 H 796.735 -3.48287 1.4483 0
M  V30 8534 H 799.122 -2.87524 0.664379 0
M  V30 8535 H 799.203 -1.65906 1.94702 0
M  V30 8536 H 798.847 -3.49797 3.68245 0
M  V30 8537 H 798.777 -4.70193 2.3712 0
M  V30 8538 H 801.268 -3.17319 2.05224 0
M  V30 8539 H 801.581 -6.12828 4.70809 0
M  V30 8540 H 799.926 -5.51556 4.2286 0
M  V30 8541 H 803.117 -3.8842 2.61242 0
M  V30 8542 H 803.29 -5.23188 3.82333 0
M  V30 8543 N 796.696 -0.74468 -1.38897 0
M  V30 8544 C 797.973 -0.222773 -1.94327 0
M  V30 8545 C 798.353 1.27731 -1.68071 0
M  V30 8546 O 797.701 2.04754 -1.01429 0
M  V30 8547 C 797.911 -0.566836 -3.44366 0
M  V30 8548 C 799.259 -0.521531 -4.21385 0
M  V30 8549 O 800.283 -0.504599 -3.52608 0
M  V30 8550 O 799.142 -0.524595 -5.43976 0
M  V30 8551 H 796.236 -0.0439259 -0.825833 0
M  V30 8552 H 798.782 -0.824197 -1.48341 0
M  V30 8553 H 797.554 -1.60321 -3.56949 0
M  V30 8554 H 797.177 0.0630577 -3.9755 0
M  V30 8555 N 798.174 1.49689 -0.493057 0
M  V30 8556 C 799.104 2.31826 0.279073 0
M  V30 8557 C 800.085 1.39733 0.969987 0
M  V30 8558 O 801.27 1.68646 0.962925 0
M  V30 8559 C 798.4 3.20046 1.34862 0
M  V30 8560 C 797.354 4.20869 0.77805 0
M  V30 8561 C 796.68 4.97971 1.94753 0
M  V30 8562 C 797.98 5.21813 -0.225543 0
M  V30 8563 H 799.674 2.96627 -0.406512 0
M  V30 8564 H 797.22 1.42647 -0.196943 0
M  V30 8565 H 799.173 3.76315 1.89645 0
M  V30 8566 H 797.897 2.53172 2.06328 0
M  V30 8567 H 796.556 3.65733 0.252036 0
M  V30 8568 H 796.204 4.27552 2.64969 0
M  V30 8569 H 795.904 5.66186 1.57187 0
M  V30 8570 H 797.428 5.57082 2.49984 0
M  V30 8571 H 798.842 5.72823 0.233864 0
M  V30 8572 H 797.239 5.97872 -0.516622 0
M  V30 8573 H 798.309 4.71209 -1.14412 0
M  V30 8574 N 799.652 0.226554 1.55963 0
M  V30 8575 C 800.599 -0.681504 2.20509 0
M  V30 8576 C 801.569 -1.1866 1.16229 0
M  V30 8577 O 802.754 -1.24478 1.44602 0
M  V30 8578 C 799.894 -1.88183 2.89277 0
M  V30 8579 C 799.007 -1.41517 4.08163 0
M  V30 8580 C 798.142 -2.57346 4.647 0
M  V30 8581 C 797.181 -2.07441 5.75877 0
M  V30 8582 N 796.318 -3.16561 6.26685 0
M  V30 8583 H 801.158 -0.124372 2.9774 0
M  V30 8584 H 798.695 -0.0496333 1.47016 0
M  V30 8585 H 800.653 -2.58666 3.27335 0
M  V30 8586 H 799.283 -2.41177 2.14555 0
M  V30 8587 H 798.335 -0.605099 3.75557 0
M  V30 8588 H 799.647 -1.00928 4.88482 0
M  V30 8589 H 798.801 -3.35903 5.05227 0
M  V30 8590 H 797.54 -3.01227 3.83554 0
M  V30 8591 H 796.545 -1.27347 5.34848 0
M  V30 8592 H 797.77 -1.64554 6.58862 0
M  V30 8593 H 795.716 -3.59914 5.48451 0
M  V30 8594 H 795.633 -2.80239 7.02141 0
M  V30 8595 H 796.901 -3.95238 6.71868 0
M  V30 8596 N 801.13 -1.57531 -0.0467866 0
M  V30 8597 C 802.407 -1.79568 -0.775536 0
M  V30 8598 C 802.787 -0.820322 -1.94509 0
M  V30 8599 O 802.135 0.14134 -2.28062 0
M  V30 8600 C 802.345 -3.26789 -1.22516 0
M  V30 8601 C 803.693 -3.91299 -1.64835 0
M  V30 8602 O 804.717 -3.30831 -1.3202 0
M  V30 8603 O 803.576 -4.97727 -2.25677 0
M  V30 8604 H 800.67 -0.737817 -0.373572 0
M  V30 8605 H 803.216 -1.69682 -0.0249302 0
M  V30 8606 H 801.988 -3.89357 -0.389446 0
M  V30 8607 H 801.611 -3.41496 -2.03633 0
M  V30 8608 N 802.608 0.318715 -1.54344 0
M  V30 8609 C 803.838 1.07394 -1.76494 0
M  V30 8610 C 804.246 1.82031 -0.515881 0
M  V30 8611 O 803.589 1.7609 0.52325 0
M  V30 8612 C 803.651 2.11401 -2.90775 0
M  V30 8613 C 803.315 1.56118 -4.29507 0
M  V30 8614 C 804.312 1.00043 -5.10184 0
M  V30 8615 C 801.997 1.60215 -4.76063 0
M  V30 8616 C 803.991 0.487993 -6.35529 0
M  V30 8617 C 801.678 1.08584 -6.01376 0
M  V30 8618 C 802.676 0.529714 -6.80943 0
M  V30 8619 O 802.364 0.0211823 -8.03897 0
M  V30 8620 H 802.096 0.325061 -0.592715 0
M  V30 8621 H 804.65 0.36901 -2.02058 0
M  V30 8622 H 802.88 2.85524 -2.60793 0
M  V30 8623 H 804.569 2.72683 -3.00664 0
M  V30 8624 H 805.335 0.961811 -4.75367 0
M  V30 8625 H 801.214 2.02441 -4.14172 0
M  V30 8626 H 804.758 0.0532608 -6.9758 0
M  V30 8627 H 800.655 1.12155 -6.35682 0
M  V30 8628 H 801.423 0.136151 -8.18387 0
M  V30 8629 N 804.086 1.46499 0.581025 0
M  V30 8630 C 804.996 1.59778 1.71779 0
M  V30 8631 C 806.012 0.481223 1.67213 0
M  V30 8632 O 807.188 0.74557 1.87091 0
M  V30 8633 C 804.253 1.58626 3.08283 0
M  V30 8634 C 803.314 2.81527 3.241 0
M  V30 8635 C 802.547 2.80421 4.54092 0
M  V30 8636 O 802.77 1.89262 5.38085 0
M  V30 8637 O 801.704 3.71984 4.73193 0
M  V30 8638 H 805.53 2.55918 1.63523 0
M  V30 8639 H 803.115 1.29311 0.748267 0
M  V30 8640 H 804.997 1.60686 3.89561 0
M  V30 8641 H 803.672 0.656467 3.16973 0
M  V30 8642 H 802.579 2.85021 2.42309 0
M  V30 8643 H 803.912 3.73721 3.20302 0
M  V30 8644 N 805.565 -0.825799 1.34232 0
M  V30 8645 C 806.528 -1.91808 1.25468 0
M  V30 8646 C 807.528 -1.59893 0.170567 0
M  V30 8647 O 808.718 -1.68986 0.422996 0
M  V30 8648 C 805.85 -3.27786 0.93644 0
M  V30 8649 H 807.043 -2.01003 2.22571 0
M  V30 8650 H 804.596 -1.01944 1.18479 0
M  V30 8651 H 805.331 -3.24285 -0.0315408 0
M  V30 8652 H 805.116 -3.52333 1.72057 0
M  V30 8653 H 806.606 -4.07782 0.900214 0
M  V30 8654 N 807.043 -1.17915 -1.04565 0
M  V30 8655 C 808.289 -0.982872 -1.78076 0
M  V30 8656 C 808.644 0.482843 -1.86243 0
M  V30 8657 O 807.937 1.35383 -1.3558 0
M  V30 8658 C 808.131 -1.56528 -3.213 0
M  V30 8659 C 807.96 -3.0861 -3.27093 0
M  V30 8660 C 806.73 -3.77389 -3.36014 0
M  V30 8661 C 808.928 -4.06146 -3.15515 0
M  V30 8662 N 806.91 -5.1702 -3.31004 0
M  V30 8663 C 808.281 -5.32268 -3.17948 0
M  V30 8664 C 810.336 -3.97732 -2.99522 0
M  V30 8665 C 809.039 -6.50951 -3.06031 0
M  V30 8666 C 811.065 -5.16007 -2.88948 0
M  V30 8667 C 810.427 -6.41018 -2.9202 0
M  V30 8668 H 806.526 -0.413617 -0.66366 0
M  V30 8669 H 809.11 -1.49607 -1.24603 0
M  V30 8670 H 807.281 -1.07833 -3.73131 0
M  V30 8671 H 809.013 -1.30501 -3.83082 0
M  V30 8672 H 805.768 -3.28098 -3.41538 0
M  V30 8673 H 806.192 -5.90031 -3.31952 0
M  V30 8674 H 810.834 -3.01919 -2.95981 0
M  V30 8675 H 808.552 -7.46968 -3.08326 0
M  V30 8676 H 812.138 -5.11283 -2.77635 0
M  V30 8677 H 811.018 -7.30999 -2.83919 0
M  V30 8678 N 808.521 1.23394 -0.980386 0
M  V30 8679 C 809.451 2.2717 -0.540024 0
M  V30 8680 C 810.432 1.64659 0.426787 0
M  V30 8681 O 811.617 1.91543 0.320153 0
M  V30 8682 C 808.747 3.46939 0.15836 0
M  V30 8683 C 807.701 4.21802 -0.725732 0
M  V30 8684 C 807.027 5.34597 0.104866 0
M  V30 8685 C 808.327 4.81802 -2.01654 0
M  V30 8686 H 810.021 2.64257 -1.40743 0
M  V30 8687 H 807.567 1.2703 -0.678193 0
M  V30 8688 H 809.52 4.18683 0.477737 0
M  V30 8689 H 808.244 3.08912 1.06022 0
M  V30 8690 H 806.903 3.51875 -1.02857 0
M  V30 8691 H 806.551 4.92812 1.00726 0
M  V30 8692 H 806.251 5.85607 -0.483557 0
M  V30 8693 H 807.775 6.09163 0.418624 0
M  V30 8694 H 809.189 5.45554 -1.76193 0
M  V30 8695 H 807.586 5.43098 -2.55273 0
M  V30 8696 H 808.656 4.02549 -2.70338 0
M  V30 8697 N 809.999 0.752036 1.385 0
M  V30 8698 C 811.247 0.306895 1.99756 0
M  V30 8699 C 811.568 -1.11478 1.59992 0
M  V30 8700 O 810.838 -1.76206 0.856045 0
M  V30 8701 H 809.418 0.11048 0.738785 0
M  V30 8702 H 812.08 0.965785 1.69289 0
M  V30 8703 H 811.176 0.368797 3.09913 0
M  V30 8704 N 811.477 -1.49425 0.500989 0
M  V30 8705 C 812.726 -2.01649 -0.04538 0
M  V30 8706 C 813.039 -1.38572 -1.38047 0
M  V30 8707 O 814.245 -1.82124 -2.01353 0
M  V30 8708 C 812.701 -3.5966 -0.131337 0
M  V30 8709 C 812.309 -4.3171 1.19711 0
M  V30 8710 C 814.053 -4.19828 -0.628071 0
M  V30 8711 C 811.96 -5.81579 1.07332 0
M  V30 8712 H 810.89 -0.753715 -0.0207329 0
M  V30 8713 H 813.541 -1.71962 0.640407 0
M  V30 8714 H 811.923 -3.86063 -0.881574 0
M  V30 8715 H 813.097 -4.17008 1.96064 0
M  V30 8716 H 811.412 -3.83286 1.62729 0
M  V30 8717 H 814.009 -5.2958 -0.738198 0
M  V30 8718 H 814.352 -3.83194 -1.6269 0
M  V30 8719 H 814.885 -3.97746 0.0656314 0
M  V30 8720 H 811.624 -6.22738 2.04642 0
M  V30 8721 H 811.144 -5.98774 0.350679 0
M  V30 8722 H 812.823 -6.42614 0.752047 0
M  V30 8723 N 812.955 -0.234822 -1.55841 0
M  V30 8724 C 813.905 0.68346 -2.17515 0
M  V30 8725 C 814.889 1.14798 -1.1274 0
M  V30 8726 O 816.081 1.09976 -1.38688 0
M  V30 8727 C 813.21 1.88551 -2.86886 0
M  V30 8728 C 812.296 1.44006 -3.98903 0
M  V30 8729 N 812.687 0.708034 -5.0082 0
M  V30 8730 C 810.985 1.7263 -4.11236 0
M  V30 8731 C 811.686 0.479036 -5.79724 0
M  V30 8732 N 810.662 1.03968 -5.33565 0
M  V30 8733 H 814.464 0.115897 -2.93671 0
M  V30 8734 H 811.978 -0.0366273 -1.62359 0
M  V30 8735 H 813.975 2.55425 -3.2949 0
M  V30 8736 H 812.635 2.45742 -2.12229 0
M  V30 8737 H 813.646 0.359363 -5.16652 0
M  V30 8738 H 810.323 2.31046 -3.47741 0
M  V30 8739 H 811.713 -0.104514 -6.71819 0
M  V30 8740 N 814.433 1.57553 0.0384317 0
M  V30 8741 C 815.71 1.79977 0.766002 0
M  V30 8742 C 816.09 0.830625 1.94072 0
M  V30 8743 O 815.438 -0.129243 2.28134 0
M  V30 8744 C 815.648 3.27434 1.20781 0
M  V30 8745 C 816.996 3.92167 1.62758 0
M  V30 8746 O 818.02 3.31527 1.30263 0
M  V30 8747 O 816.879 4.98917 2.23035 0
M  V30 8748 H 813.973 0.739787 0.369654 0
M  V30 8749 H 816.519 1.69693 0.0159312 0
M  V30 8750 H 815.291 3.89558 0.368792 0
M  V30 8751 H 814.914 3.42571 2.01819 0
M  V30 8752 N 815.911 -0.310526 1.54511 0
M  V30 8753 C 817.157 -1.04846 1.73595 0
M  V30 8754 C 817.49 -1.87244 0.515118 0
M  V30 8755 O 816.765 -1.88282 -0.48786 0
M  V30 8756 C 817.048 -1.96237 3.01932 0
M  V30 8757 C 816.901 -1.17082 4.34295 0
M  V30 8758 C 818.22 -2.9556 3.26086 0
M  V30 8759 H 815.339 -0.37976 0.631626 0
M  V30 8760 H 817.981 -0.32394 1.87218 0
M  V30 8761 H 816.131 -2.58015 2.90449 0
M  V30 8762 H 817.803 -0.576643 4.57682 0
M  V30 8763 H 816.046 -0.473336 4.3121 0
M  V30 8764 H 816.717 -1.84257 5.20339 0
M  V30 8765 H 819.193 -2.43908 3.37117 0
M  V30 8766 H 818.069 -3.5668 4.17218 0
M  V30 8767 H 818.33 -3.68715 2.4393 0
M  V30 8768 N 817.389 -1.46805 -0.573248 0
M  V30 8769 C 818.339 -1.54497 -1.67674 0
M  V30 8770 C 819.323 -0.405117 -1.55716 0
M  V30 8771 O 820.515 -0.654097 -1.64471 0
M  V30 8772 C 817.644 -1.54717 -3.0646 0
M  V30 8773 C 816.73 -2.7403 -3.2368 0
M  V30 8774 N 817.121 -3.98871 -3.11023 0
M  V30 8775 C 815.419 -2.70453 -3.54642 0
M  V30 8776 C 816.12 -4.78689 -3.30502 0
M  V30 8777 N 815.096 -4.10727 -3.56096 0
M  V30 8778 H 818.898 -2.48809 -1.56433 0
M  V30 8779 H 816.412 -1.42576 -0.777554 0
M  V30 8780 H 818.409 -1.58316 -3.8567 0
M  V30 8781 H 817.069 -0.614886 -3.18825 0
M  V30 8782 H 818.08 -4.29976 -2.88688 0
M  V30 8783 H 814.757 -1.86291 -3.73633 0
M  V30 8784 H 816.147 -5.87615 -3.2582 0
M  V30 8785 N 818.867 0.818669 -1.34668 0
M  V30 8786 C 820.115 1.57201 -1.27013 0
M  V30 8787 C 820.436 1.94354 0.158599 0
M  V30 8788 O 819.706 1.62626 1.09223 0
M  V30 8789 H 818.286 0.582919 -0.467135 0
M  V30 8790 H 820.948 0.977234 -1.6863 0
M  V30 8791 H 820.044 2.49291 -1.87778 0
M  V30 8792 N 820.346 1.18468 1.03938 0
M  V30 8793 C 821.762 0.934635 1.29371 0
M  V30 8794 C 821.962 -0.399067 1.97509 0
M  V30 8795 O 821.018 -1.13309 2.25648 0
M  V30 8796 C 822.331 2.10111 2.15114 0
M  V30 8797 C 823.879 2.13955 2.28456 0
M  V30 8798 C 824.354 3.30024 3.17566 0
M  V30 8799 N 825.845 3.29893 3.25153 0
M  V30 8800 C 826.58 4.16346 3.94263 0
M  V30 8801 N 826.076 5.12934 4.65693 0
M  V30 8802 N 827.869 4.04256 3.90556 0
M  V30 8803 H 820.02 2.04294 0.581185 0
M  V30 8804 H 822.283 0.892727 0.318971 0
M  V30 8805 H 821.989 3.06572 1.72355 0
M  V30 8806 H 821.863 2.06283 3.15796 0
M  V30 8807 H 824.25 1.18072 2.7045 0
M  V30 8808 H 824.331 2.2184 1.2736 0
M  V30 8809 H 823.975 4.26181 2.76283 0
M  V30 8810 H 823.905 3.19376 4.18697 0
M  V30 8811 H 826.396 2.59969 2.74271 0
M  V30 8812 H 826.709 5.75271 5.16026 0
M  V30 8813 H 825.054 5.16893 4.64593 0
M  V30 8814 H 828.245 3.28083 3.33885 0
M  V30 8815 H 828.418 4.71848 4.44144 0
M  V30 8816 N 821.824 -1.22873 0.986916 0
M  V30 8817 C 823.072 -1.91084 0.658121 0
M  V30 8818 C 823.393 -1.77304 -0.811675 0
M  V30 8819 O 822.663 -1.15649 -1.58121 0
M  V30 8820 H 821.243 -0.707251 0.240427 0
M  V30 8821 H 823.905 -1.49357 1.25213 0
M  V30 8822 H 823.001 -2.98373 0.915428 0
M  V30 8823 N 823.302 -0.75937 -1.38099 0
M  V30 8824 C 824.579 -0.243371 -1.9408 0
M  V30 8825 C 824.959 1.25942 -1.69416 0
M  V30 8826 O 824.307 2.03667 -1.03595 0
M  V30 8827 C 824.517 -0.603328 -3.43745 0
M  V30 8828 C 825.865 -0.566195 -4.20808 0
M  V30 8829 O 826.889 -0.541969 -3.52053 0
M  V30 8830 O 825.748 -0.582261 -5.43389 0
M  V30 8831 H 822.842 -0.0526825 -0.82532 0
M  V30 8832 H 825.388 -0.839884 -1.47459 0
M  V30 8833 H 824.16 -1.64098 -3.55229 0
M  V30 8834 H 823.783 0.0208887 -3.97595 0
M  V30 8835 N 824.78 1.49157 -0.508906 0
M  V30 8836 C 825.69 2.33045 0.269656 0
M  V30 8837 C 826.706 1.45143 0.959662 0
M  V30 8838 O 827.882 1.78155 0.939295 0
M  V30 8839 C 824.947 3.20772 1.31554 0
M  V30 8840 C 824.008 4.24531 0.638131 0
M  V30 8841 C 823.241 5.08065 1.63418 0
M  V30 8842 O 823.464 4.93238 2.86483 0
M  V30 8843 O 822.398 5.90117 1.18516 0
M  V30 8844 H 826.224 3.00821 -0.417183 0
M  V30 8845 H 823.809 1.46938 -0.270119 0
M  V30 8846 H 825.691 3.75095 1.92047 0
M  V30 8847 H 824.366 2.55681 1.98516 0
M  V30 8848 H 823.273 3.74099 -0.00674357 0
M  V30 8849 H 824.606 4.92199 0.0108155 0
M  V30 8850 N 826.258 0.243083 1.55714 0
M  V30 8851 C 827.205 -0.658078 2.21219 0
M  V30 8852 C 828.175 -1.1742 1.17481 0
M  V30 8853 O 829.36 -1.22937 1.45915 0
M  V30 8854 C 826.5 -1.85104 2.91257 0
M  V30 8855 C 825.613 -1.3718 4.09641 0
M  V30 8856 C 824.748 -2.52403 4.67404 0
M  V30 8857 C 823.787 -2.01321 5.78045 0
M  V30 8858 N 822.924 -3.09896 6.30007 0
M  V30 8859 H 827.764 -0.0927854 2.97856 0
M  V30 8860 H 825.301 -0.0340375 1.47061 0
M  V30 8861 H 827.259 -2.55179 3.3006 0
M  V30 8862 H 825.889 -2.38887 2.17101 0
M  V30 8863 H 824.941 -0.565232 3.76177 0
M  V30 8864 H 826.253 -0.957409 4.89525 0
M  V30 8865 H 825.407 -3.30525 5.08761 0
M  V30 8866 H 824.146 -2.97142 3.86728 0
M  V30 8867 H 823.151 -1.21667 5.36169 0
M  V30 8868 H 824.376 -1.57556 6.6057 0
M  V30 8869 H 822.322 -3.54077 5.52237 0
M  V30 8870 H 822.239 -2.72776 7.05074 0
M  V30 8871 H 823.507 -3.8809 6.76023 0
M  V30 8872 N 827.736 -1.57571 -0.0300757 0
M  V30 8873 C 828.976 -1.91074 -0.725946 0
M  V30 8874 C 829.34 -0.841545 -1.72575 0
M  V30 8875 O 830.541 -1.06088 -2.46979 0
M  V30 8876 C 828.812 -3.2973 -1.37888 0
M  V30 8877 S 830.371 -3.85065 -2.10405 0
M  V30 8878 H 827.189 -0.669084 -0.240515 0
M  V30 8879 H 829.791 -1.9549 0.019384 0
M  V30 8880 H 828.495 -4.05411 -0.637974 0
M  V30 8881 H 828.026 -3.28614 -2.16278 0
M  V30 8882 H 830.041 -3.63711 -3.37533 0
M  V30 8883 N 829.214 0.302327 -1.54673 0
M  V30 8884 C 830.161 1.37282 -1.85532 0
M  V30 8885 C 831.131 1.50437 -0.704129 0
M  V30 8886 O 832.316 1.65317 -0.952627 0
M  V30 8887 C 829.456 2.73309 -2.10704 0
M  V30 8888 C 828.569 2.68614 -3.38335 0
M  V30 8889 C 827.704 3.96626 -3.53357 0
M  V30 8890 C 826.743 3.86324 -4.74784 0
M  V30 8891 N 825.88 5.06109 -4.86619 0
M  V30 8892 H 830.72 1.10265 -2.76849 0
M  V30 8893 H 828.257 0.533346 -1.37091 0
M  V30 8894 H 830.215 3.52414 -2.23294 0
M  V30 8895 H 828.845 2.98589 -1.22656 0
M  V30 8896 H 827.897 1.81381 -3.34373 0
M  V30 8897 H 829.209 2.56891 -4.27561 0
M  V30 8898 H 828.363 4.84168 -3.65604 0
M  V30 8899 H 827.102 4.11182 -2.62261 0
M  V30 8900 H 826.107 2.97166 -4.62572 0
M  V30 8901 H 827.332 3.73315 -5.67286 0
M  V30 8902 H 825.278 5.2113 -3.98446 0
M  V30 8903 H 825.195 4.96804 -5.69844 0
M  V30 8904 H 826.463 5.95306 -5.03221 0
M  V30 8905 N 830.692 1.47107 0.565454 0
M  V30 8906 C 831.624 1.55024 1.6882 0
M  V30 8907 C 832.637 0.4371 1.56822 0
M  V30 8908 O 833.826 0.706315 1.63931 0
M  V30 8909 C 830.926 1.43069 3.0722 0
M  V30 8910 C 830.099 2.68807 3.45053 0
M  V30 8911 C 829.158 2.50806 4.62583 0
M  V30 8912 O 828.184 3.24593 4.67577 0
M  V30 8913 N 829.386 1.58093 5.58558 0
M  V30 8914 H 832.151 2.51836 1.62477 0
M  V30 8915 H 829.712 1.43382 0.751885 0
M  V30 8916 H 831.704 1.28773 3.83666 0
M  V30 8917 H 830.274 0.543721 3.07835 0
M  V30 8918 H 829.494 2.97923 2.58138 0
M  V30 8919 H 830.782 3.52298 3.67101 0
M  V30 8920 H 830.18 0.972807 5.57273 0
M  V30 8921 H 828.737 1.49753 6.34364 0
M  V30 8922 N 832.17 -0.811516 1.35101 0
M  V30 8923 C 833.416 -1.57068 1.28287 0
M  V30 8924 C 833.749 -1.93667 -0.143808 0
M  V30 8925 O 833.024 -1.60953 -1.09199 0
M  V30 8926 C 833.307 -2.86259 2.18466 0
M  V30 8927 C 833.16 -2.56168 3.69727 0
M  V30 8928 C 834.479 -3.87924 2.07852 0
M  V30 8929 H 831.598 -0.569869 0.467353 0
M  V30 8930 H 834.24 -0.934023 1.65457 0
M  V30 8931 H 832.39 -3.4059 1.86898 0
M  V30 8932 H 834.062 -2.08059 4.11715 0
M  V30 8933 H 832.305 -1.89436 3.90252 0
M  V30 8934 H 832.976 -3.48344 4.28206 0
M  V30 8935 H 835.452 -3.4298 2.35593 0
M  V30 8936 H 834.328 -4.76106 2.73157 0
M  V30 8937 H 834.589 -4.2923 1.05896 0
M  V30 8938 N 833.648 -1.19017 -1.03309 0
M  V30 8939 C 834.578 -0.94772 -2.13402 0
M  V30 8940 C 835.559 0.117383 -1.69694 0
M  V30 8941 O 836.744 -0.0367733 -1.94165 0
M  V30 8942 C 833.874 -0.480977 -3.43953 0
M  V30 8943 C 832.828 -1.48743 -4.01322 0
M  V30 8944 C 832.154 -0.877924 -5.27443 0
M  V30 8945 C 833.454 -2.86642 -4.36616 0
M  V30 8946 H 835.148 -1.86846 -2.33942 0
M  V30 8947 H 832.694 -0.899781 -1.12427 0
M  V30 8948 H 834.647 -0.298677 -4.2034 0
M  V30 8949 H 833.371 0.475348 -3.23122 0
M  V30 8950 H 832.03 -1.65681 -3.27025 0
M  V30 8951 H 831.678 0.0858232 -5.02927 0
M  V30 8952 H 831.378 -1.54996 -5.66789 0
M  V30 8953 H 832.902 -0.706326 -6.06501 0
M  V30 8954 H 834.316 -2.73312 -5.03958 0
M  V30 8955 H 832.713 -3.50599 -4.87032 0
M  V30 8956 H 833.783 -3.39617 -3.46105 0
M  V30 8957 N 835.127 1.22348 -0.993418 0
M  V30 8958 C 836.075 2.26315 -0.537052 0
M  V30 8959 C 837.069 1.643 0.412545 0
M  V30 8960 O 838.275 1.77729 0.285008 0
M  V30 8961 H 834.65 0.735792 -0.155286 0
M  V30 8962 H 836.621 2.62157 -1.42535 0
M  V30 8963 C 835.37 3.47449 0.132118 0
M  V30 8964 H 834.693 3.9543 -0.589519 0
M  V30 8965 H 836.133 4.21965 0.414884 0
M  V30 8966 C 834.592 3.07893 1.36761 0
M  V30 8967 O 835.122 3.17338 2.46291 0
M  V30 8968 N 833.328 2.62672 1.24305 0
M  V30 8969 H 832.875 2.55186 0.351826 0
M  V30 8970 H 832.833 2.36574 2.07076 0
M  V30 8971 N 836.605 0.766683 1.37694 0
M  V30 8972 C 837.851 0.329201 2.0011 0
M  V30 8973 C 838.184 -1.09004 1.60723 0
M  V30 8974 O 837.459 -1.74895 0.850989 0
M  V30 8975 C 837.742 0.466989 3.57059 0
M  V30 8976 C 837.595 1.92828 4.06371 0
M  V30 8977 C 838.914 -0.131792 4.39903 0
M  V30 8978 H 836.033 0.12109 0.726984 0
M  V30 8979 H 838.675 0.968779 1.63446 0
M  V30 8980 H 836.825 -0.0775023 3.88423 0
M  V30 8981 H 838.497 2.53208 3.85595 0
M  V30 8982 H 836.74 2.43884 3.58752 0
M  V30 8983 H 837.411 1.97577 5.15429 0
M  V30 8984 H 839.887 0.332731 4.14768 0
M  V30 8985 H 838.763 -0.005217 5.489 0
M  V30 8986 H 839.024 -1.22156 4.24889 0
M  V30 8987 N 838.083 -1.48885 0.516809 0
M  V30 8988 C 839.308 -2.0739 -0.0205201 0
M  V30 8989 C 839.733 -1.37259 -1.28614 0
M  V30 8990 O 839.091 -0.434304 -1.76021 0
M  V30 8991 C 839.139 -3.59793 -0.24104 0
M  V30 8992 O 838.243 -3.90957 -1.31251 0
M  V30 8993 H 837.584 -0.663167 0.0332564 0
M  V30 8994 H 840.114 -1.91477 0.720956 0
M  V30 8995 H 840.124 -4.0531 -0.467737 0
M  V30 8996 H 838.799 -4.10244 0.68356 0
M  V30 8997 H 837.376 -3.57234 -1.06951 0
M  V30 8998 N 839.561 -0.251338 -1.55583 0
M  V30 8999 C 840.493 0.679167 -2.18906 0
M  V30 9000 C 841.506 1.13545 -1.16667 0
M  V30 9001 O 842.695 1.06146 -1.4351 0
M  V30 9002 C 839.795 1.93544 -2.78198 0
M  V30 9003 C 838.968 1.62987 -4.05899 0
M  V30 9004 C 838.027 2.73618 -4.49466 0
M  V30 9005 O 837.053 2.40815 -5.15749 0
M  V30 9006 N 838.255 4.03204 -4.1762 0
M  V30 9007 H 841.02 0.137328 -2.99385 0
M  V30 9008 H 838.581 -0.0714754 -1.61742 0
M  V30 9009 H 840.573 2.66804 -3.04299 0
M  V30 9010 H 839.143 2.38695 -2.0185 0
M  V30 9011 H 838.363 0.732237 -3.8734 0
M  V30 9012 H 839.651 1.40041 -4.89148 0
M  V30 9013 H 839.049 4.32686 -3.64416 0
M  V30 9014 H 837.606 4.72916 -4.48547 0
M  V30 9015 N 841.039 1.57585 0.0217189 0
M  V30 9016 C 841.969 2.10073 1.01939 0
M  V30 9017 C 842.95 1.0049 1.37243 0
M  V30 9018 O 844.135 1.28055 1.45999 0
M  V30 9019 C 841.265 2.58618 2.31806 0
M  V30 9020 C 840.219 3.72531 2.10724 0
M  V30 9021 C 839.545 4.07309 3.46415 0
M  V30 9022 C 840.845 5.00672 1.48743 0
M  V30 9023 H 842.539 2.9368 0.582432 0
M  V30 9024 H 840.085 1.41277 0.278715 0
M  V30 9025 H 842.038 2.9396 3.01936 0
M  V30 9026 H 840.762 1.72104 2.77575 0
M  V30 9027 H 839.421 3.37549 1.43025 0
M  V30 9028 H 839.069 3.17851 3.89846 0
M  V30 9029 H 838.769 4.84042 3.33132 0
M  V30 9030 H 840.293 4.45192 4.17895 0
M  V30 9031 H 841.707 5.33925 2.088 0
M  V30 9032 H 840.104 5.82065 1.46013 0
M  V30 9033 H 841.174 4.82769 0.45408 0
M  V30 9034 N 842.517 -0.29412 1.54831 0
M  V30 9035 C 843.763 -1.02999 1.74697 0
M  V30 9036 C 844.096 -1.86687 0.534949 0
M  V30 9037 O 843.371 -1.88789 -0.467863 0
M  V30 9038 C 843.654 -1.93024 3.03996 0
M  V30 9039 C 843.507 -1.1247 4.35512 0
M  V30 9040 C 844.826 -2.92085 3.29203 0
M  V30 9041 H 841.945 -0.373039 0.635618 0
M  V30 9042 H 844.587 -0.304065 1.87551 0
M  V30 9043 H 842.737 -2.5492 2.93169 0
M  V30 9044 H 844.409 -0.528067 4.58268 0
M  V30 9045 H 842.652 -0.427574 4.31688 0
M  V30 9046 H 843.323 -1.78728 5.22265 0
M  V30 9047 H 845.799 -2.40319 3.39685 0
M  V30 9048 H 844.675 -3.52234 4.20978 0
M  V30 9049 H 844.936 -3.66107 2.47827 0
M  V30 9050 N 843.995 -1.47404 -0.557645 0
M  V30 9051 C 845.225 -1.57393 -1.33832 0
M  V30 9052 C 845.633 -0.222978 -1.87881 0
M  V30 9053 O 844.976 0.793854 -1.65661 0
M  V30 9054 C 845.038 -2.53882 -2.54528 0
M  V30 9055 C 844.702 -3.99585 -2.21767 0
M  V30 9056 C 845.699 -4.88082 -1.79087 0
M  V30 9057 C 843.384 -4.44917 -2.3314 0
M  V30 9058 C 845.378 -6.1993 -1.48209 0
M  V30 9059 C 843.065 -5.76793 -2.01874 0
M  V30 9060 C 844.063 -6.64121 -1.59476 0
M  V30 9061 O 843.751 -7.93546 -1.28607 0
M  V30 9062 H 843.483 -0.534172 -0.41429 0
M  V30 9063 H 846.037 -1.93733 -0.682404 0
M  V30 9064 H 844.267 -2.12609 -3.23009 0
M  V30 9065 H 845.956 -2.54003 -3.16603 0
M  V30 9066 H 846.722 -4.54307 -1.69794 0
M  V30 9067 H 842.601 -3.77152 -2.65099 0
M  V30 9068 H 846.145 -6.88049 -1.15043 0
M  V30 9069 H 842.042 -6.1011 -2.10799 0
M  V30 9070 H 842.81 -8.06046 -1.42241 0
M  V30 9071 N 845.473 0.80434 -1.35529 0
M  V30 9072 C 846.721 1.55845 -1.28673 0
M  V30 9073 C 847.042 1.94511 0.137976 0
M  V30 9074 O 846.312 1.63775 1.07492 0
M  V30 9075 H 844.892 0.577931 -0.473291 0
M  V30 9076 H 847.554 0.959293 -1.69657 0
M  V30 9077 H 846.65 2.47285 -1.90411 0
M  V30 9078 N 846.951 1.19563 1.02676 0
M  V30 9079 C 848.362 1.00158 1.57561 0
M  V30 9080 C 848.713 -0.444922 1.91089 0
M  V30 9081 O 847.838 -1.32466 1.71119 0
M  V30 9082 C 848.433 1.81181 2.86284 0
M  V30 9083 C 846.992 1.66171 3.37734 0
M  V30 9084 C 846.139 1.7975 2.11152 0
M  V30 9085 H 849.09 1.33904 0.85179 0
M  V30 9086 H 849.111 1.30916 3.57269 0
M  V30 9087 H 848.623 2.86454 2.6185 0
M  V30 9088 H 846.724 0.634927 3.6715 0
M  V30 9089 H 846.837 2.46832 4.10622 0
M  V30 9090 H 845.201 1.22833 2.23123 0
M  V30 9091 H 845.984 2.86487 1.89157 0
M  V30 9092 N 848.429 -1.21819 0.999893 0
M  V30 9093 C 849.339 -2.27691 0.565159 0
M  V30 9094 C 850.355 -1.69587 -0.389398 0
M  V30 9095 O 851.531 -1.99786 -0.254499 0
M  V30 9096 C 848.596 -3.46537 -0.106432 0
M  V30 9097 C 847.657 -4.19932 0.891964 0
M  V30 9098 C 846.89 -5.33103 0.252327 0
M  V30 9099 O 847.113 -5.62398 -0.952103 0
M  V30 9100 O 846.047 -5.94184 0.960698 0
M  V30 9101 H 849.873 -2.67059 1.44613 0
M  V30 9102 H 847.458 -1.28119 0.768499 0
M  V30 9103 H 849.34 -4.18631 -0.482301 0
M  V30 9104 H 848.015 -3.09079 -0.961865 0
M  V30 9105 H 846.922 -3.5008 1.3189 0
M  V30 9106 H 848.255 -4.61287 1.71682 0
M  V30 9107 N 849.908 -0.773975 -1.37286 0
M  V30 9108 C 851.156 -0.338636 -1.99243 0
M  V30 9109 C 851.477 1.08919 -1.61746 0
M  V30 9110 O 850.747 1.74822 -0.88397 0
M  V30 9111 H 849.327 -0.12222 -0.736934 0
M  V30 9112 H 851.989 -0.992595 -1.67731 0
M  V30 9113 H 851.085 -0.418055 -3.09287 0
M  V30 9114 N 851.386 1.48609 -0.524698 0
M  V30 9115 C 852.611 2.07398 0.00952139 0
M  V30 9116 C 853.036 1.37939 1.27884 0
M  V30 9117 O 852.394 0.443633 1.75788 0
M  V30 9118 C 852.442 3.59916 0.221956 0
M  V30 9119 O 851.546 3.91647 1.29175 0
M  V30 9120 H 850.887 0.662981 -0.0367729 0
M  V30 9121 H 853.417 1.91092 -0.7311 0
M  V30 9122 H 853.427 4.05552 0.446236 0
M  V30 9123 H 852.102 4.09876 -0.705306 0
M  V30 9124 H 850.679 3.57796 1.05055 0
M  V30 9125 N 852.864 0.259585 1.55447 0
M  V30 9126 C 854.141 -0.412595 1.91199 0
M  V30 9127 C 854.521 -1.74909 1.18194 0
M  V30 9128 O 853.869 -2.26474 0.303603 0
M  V30 9129 C 854.079 -0.568195 3.44344 0
M  V30 9130 C 855.427 -0.858253 4.15836 0
M  V30 9131 O 856.451 -0.653588 3.50152 0
M  V30 9132 O 855.31 -1.24874 5.32042 0
M  V30 9133 H 852.404 -0.223403 0.796254 0
M  V30 9134 H 854.95 0.30459 1.66944 0
M  V30 9135 H 853.722 0.372989 3.89518 0
M  V30 9136 H 853.345 -1.33544 3.74502 0
M  V30 9137 N 854.342 -1.57594 -0.0133615 0
M  V30 9138 C 855.272 -2.10611 -1.00823 0
M  V30 9139 C 856.253 -1.01217 -1.36708 0
M  V30 9140 O 857.438 -1.28827 -1.45318 0
M  V30 9141 C 854.568 -2.59844 -2.30431 0
M  V30 9142 C 853.522 -3.73644 -2.08745 0
M  V30 9143 C 852.848 -4.09141 -3.4425 0
M  V30 9144 C 854.148 -5.01454 -1.46086 0
M  V30 9145 H 855.842 -2.93985 -0.566849 0
M  V30 9146 H 853.388 -1.41423 -0.271219 0
M  V30 9147 H 855.341 -2.95557 -3.00373 0
M  V30 9148 H 854.065 -1.73573 -2.76658 0
M  V30 9149 H 852.724 -3.38303 -1.41232 0
M  V30 9150 H 852.372 -3.19914 -3.88155 0
M  V30 9151 H 852.072 -4.85802 -3.3056 0
M  V30 9152 H 853.596 -4.47402 -4.15528 0
M  V30 9153 H 855.01 -5.35024 -2.05966 0
M  V30 9154 H 853.407 -5.82832 -1.42924 0
M  V30 9155 H 854.477 -4.83003 -0.428471 0
M  V30 9156 N 855.82 0.285905 -1.54985 0
M  V30 9157 C 857.066 1.02071 -1.75241 0
M  V30 9158 C 857.399 1.864 -0.544842 0
M  V30 9159 O 856.674 1.89034 0.457844 0
M  V30 9160 C 856.957 1.91409 -3.05016 0
M  V30 9161 C 856.81 1.10158 -4.36102 0
M  V30 9162 C 858.129 2.90335 -3.30747 0
M  V30 9163 H 855.248 0.369663 -0.637588 0
M  V30 9164 H 857.89 0.294114 -1.8771 0
M  V30 9165 H 856.04 2.53362 -2.94517 0
M  V30 9166 H 857.712 0.503756 -4.58541 0
M  V30 9167 H 855.955 0.404675 -4.31908 0
M  V30 9168 H 856.626 1.75956 -5.23205 0
M  V30 9169 H 859.102 2.38514 -3.40955 0
M  V30 9170 H 857.978 3.49997 -4.2284 0
M  V30 9171 H 858.239 3.64787 -2.49765 0
M  V30 9172 N 857.298 1.47698 0.54982 0
M  V30 9173 C 858.228 1.63622 1.66583 0
M  V30 9174 C 859.209 0.485477 1.63025 0
M  V30 9175 O 860.394 0.715692 1.80531 0
M  V30 9176 C 857.524 1.65721 3.05211 0
M  V30 9177 C 856.478 2.80097 3.2362 0
M  V30 9178 C 855.804 2.67272 4.63109 0
M  V30 9179 C 857.104 4.21612 3.08286 0
M  V30 9180 H 858.798 2.57049 1.53512 0
M  V30 9181 H 856.344 1.23705 0.737099 0
M  V30 9182 H 858.297 1.75451 3.83138 0
M  V30 9183 H 857.021 0.688593 3.19258 0
M  V30 9184 H 855.68 2.69889 2.48104 0
M  V30 9185 H 855.328 1.68422 4.73965 0
M  V30 9186 H 855.028 3.44008 4.76374 0
M  V30 9187 H 856.552 2.78942 5.43161 0
M  V30 9188 H 857.966 4.32758 3.76024 0
M  V30 9189 H 856.363 4.99193 3.33057 0
M  V30 9190 H 857.433 4.39462 2.04942 0
M  V30 9191 N 858.776 -0.797141 1.35954 0
M  V30 9192 C 859.709 -1.91567 1.24005 0
M  V30 9193 C 860.687 -1.62112 0.125868 0
M  V30 9194 O 861.871 -1.86167 0.295638 0
M  V30 9195 C 858.998 -3.26204 0.911535 0
M  V30 9196 C 858.044 -3.74598 2.03909 0
M  V30 9197 S 858.877 -3.91276 3.656 0
M  V30 9198 C 860.033 -5.288 3.34846 0
M  V30 9199 H 860.266 -2.0141 2.18681 0
M  V30 9200 H 857.799 -0.955542 1.2128 0
M  V30 9201 H 859.757 -4.03979 0.728805 0
M  V30 9202 H 858.418 -3.14095 -0.0173159 0
M  V30 9203 H 857.611 -4.72137 1.7636 0
M  V30 9204 H 857.213 -3.03849 2.18064 0
M  V30 9205 H 859.505 -6.13117 2.8826 0
M  V30 9206 H 860.448 -5.61347 4.31619 0
M  V30 9207 H 860.856 -4.95534 2.70382 0
M  V30 9208 N 860.254 -1.20106 -1.0204 0
M  V30 9209 C 861.201 -0.946468 -2.10501 0
M  V30 9210 C 862.171 0.121902 -1.65652 0
M  V30 9211 O 863.356 -0.0220244 -1.90787 0
M  V30 9212 C 860.496 -0.500499 -3.41451 0
M  V30 9213 C 859.609 -1.63659 -3.998 0
M  V30 9214 C 858.744 -1.14131 -5.18794 0
M  V30 9215 C 857.783 -2.25074 -5.69217 0
M  V30 9216 N 856.92 -1.76791 -6.79477 0
M  V30 9217 H 861.76 -1.87506 -2.31615 0
M  V30 9218 H 859.297 -0.934693 -1.13587 0
M  V30 9219 H 861.255 -0.223276 -4.16602 0
M  V30 9220 H 859.885 0.391099 -3.20422 0
M  V30 9221 H 858.937 -2.02882 -3.21781 0
M  V30 9222 H 860.249 -2.47213 -4.33229 0
M  V30 9223 H 859.403 -0.819826 -6.01135 0
M  V30 9224 H 858.142 -0.275615 -4.86921 0
M  V30 9225 H 857.147 -2.58043 -4.85483 0
M  V30 9226 H 858.372 -3.12114 -6.03127 0
M  V30 9227 H 856.318 -0.925428 -6.4944 0
M  V30 9228 H 856.235 -2.53928 -7.12079 0
M  V30 9229 H 857.503 -1.47631 -7.65392 0
M  V30 9230 N 861.732 1.21287 -1.00634 0
M  V30 9231 C 862.662 2.25973 -0.588089 0
M  V30 9232 C 863.643 1.65527 0.391764 0
M  V30 9233 O 864.828 1.92179 0.279452 0
M  V30 9234 C 861.958 3.47197 0.0847336 0
M  V30 9235 C 860.912 4.20168 -0.815039 0
M  V30 9236 C 860.238 5.34699 -0.00855393 0
M  V30 9237 C 861.538 4.77416 -2.11828 0
M  V30 9238 H 863.232 2.61212 -1.46317 0
M  V30 9239 H 860.778 1.25563 -0.704985 0
M  V30 9240 H 862.731 4.19602 0.388821 0
M  V30 9241 H 861.455 3.11092 0.994456 0
M  V30 9242 H 860.114 3.49614 -1.10297 0
M  V30 9243 H 859.762 4.94837 0.902499 0
M  V30 9244 H 859.462 5.84449 -0.607664 0
M  V30 9245 H 860.986 6.09914 0.289317 0
M  V30 9246 H 862.4 5.41694 -1.87725 0
M  V30 9247 H 860.797 5.37561 -2.66736 0
M  V30 9248 H 861.867 3.96724 -2.78816 0
M  V30 9249 N 863.21 0.781244 1.36873 0
M  V30 9250 C 864.173 0.180094 2.28491 0
M  V30 9251 C 865.173 -0.617798 1.48458 0
M  V30 9252 O 866.363 -0.439991 1.68552 0
M  V30 9253 C 863.495 -0.751741 3.32508 0
M  V30 9254 H 864.688 0.987837 2.83164 0
M  V30 9255 H 862.241 0.550102 1.463 0
M  V30 9256 H 862.976 -1.58413 2.82977 0
M  V30 9257 H 862.761 -0.181649 3.91679 0
M  V30 9258 H 864.251 -1.16748 4.00949 0
M  V30 9259 N 864.689 -1.48329 0.532571 0
M  V30 9260 C 866.105 -1.58458 0.190605 0
M  V30 9261 C 866.305 -1.53427 -1.30623 0
M  V30 9262 O 865.361 -1.4247 -2.08467 0
M  V30 9263 C 866.674 -2.89989 0.79543 0
M  V30 9264 C 868.222 -3.03523 0.7644 0
M  V30 9265 C 868.697 -4.37718 1.34785 0
M  V30 9266 N 870.188 -4.44292 1.30993 0
M  V30 9267 C 870.923 -5.4664 1.73124 0
M  V30 9268 N 870.419 -6.5593 2.22997 0
M  V30 9269 N 872.212 -5.37538 1.64346 0
M  V30 9270 H 864.363 -1.49842 1.50537 0
M  V30 9271 H 866.626 -0.71164 0.626316 0
M  V30 9272 H 866.332 -2.99333 1.84642 0
M  V30 9273 H 866.206 -3.76203 0.27403 0
M  V30 9274 H 868.593 -2.93789 -0.277831 0
M  V30 9275 H 868.674 -2.18912 1.3233 0
M  V30 9276 H 868.318 -4.48206 2.38902 0
M  V30 9277 H 868.248 -5.21019 0.764609 0
M  V30 9278 H 870.739 -3.65897 0.944868 0
M  V30 9279 H 871.052 -7.30167 2.53133 0
M  V30 9280 H 869.397 -6.56886 2.26992 0
M  V30 9281 H 872.588 -4.51052 1.25178 0
M  V30 9282 H 872.761 -6.17169 1.97501 0
M  V30 9283 N 866.167 -0.267825 -1.55308 0
M  V30 9284 C 867.578 0.231344 -1.85261 0
M  V30 9285 C 867.929 1.56006 -1.18982 0
M  V30 9286 O 867.054 2.1111 -0.475554 0
M  V30 9287 C 867.649 0.426537 -3.36104 0
M  V30 9288 C 866.208 0.869945 -3.66209 0
M  V30 9289 C 865.355 -0.0409522 -2.7727 0
M  V30 9290 H 868.306 -0.489821 -1.50952 0
M  V30 9291 H 868.327 1.26616 -3.58816 0
M  V30 9292 H 867.839 -0.540678 -3.84315 0
M  V30 9293 H 865.94 1.84889 -3.23492 0
M  V30 9294 H 866.053 0.712316 -4.73775 0
M  V30 9295 H 864.417 0.474097 -2.50249 0
M  V30 9296 H 865.2 -1.00392 -3.28293 0
M  V30 9297 N 867.645 1.57599 0.00500368 0
M  V30 9298 C 868.608 2.07058 0.982832 0
M  V30 9299 C 869.608 0.979045 1.27559 0
M  V30 9300 O 870.798 1.24187 1.22161 0
M  V30 9301 C 867.93 2.50782 2.30914 0
M  V30 9302 H 869.123 2.94718 0.555119 0
M  V30 9303 H 866.676 1.54249 0.25237 0
M  V30 9304 H 867.411 1.66351 2.78385 0
M  V30 9305 H 867.196 3.30495 2.10987 0
M  V30 9306 H 868.686 2.89391 3.0107 0
M  V30 9307 N 869.123 -0.277682 1.55134 0
M  V30 9308 C 870.369 -1.0114 1.7578 0
M  V30 9309 C 870.702 -1.86109 0.554719 0
M  V30 9310 O 869.977 -1.89275 -0.447813 0
M  V30 9311 C 870.26 -1.89789 3.06027 0
M  V30 9312 C 870.113 -1.07844 4.3668 0
M  V30 9313 C 871.432 -2.88577 3.32282 0
M  V30 9314 H 868.551 -0.366277 0.639539 0
M  V30 9315 H 871.193 -0.284155 1.87863 0
M  V30 9316 H 869.343 -2.51796 2.95856 0
M  V30 9317 H 871.015 -0.479432 4.58802 0
M  V30 9318 H 869.258 -0.381764 4.32117 0
M  V30 9319 H 869.929 -1.73179 5.24131 0
M  V30 9320 H 872.405 -2.36702 3.42215 0
M  V30 9321 H 871.281 -3.47749 4.2469 0
M  V30 9322 H 871.542 -3.63458 2.51696 0
M  V30 9323 N 870.601 -1.47988 -0.541979 0
M  V30 9324 C 871.531 -1.64503 -1.65713 0
M  V30 9325 C 872.512 -0.494116 -1.62765 0
M  V30 9326 O 873.697 -0.725256 -1.80149 0
M  V30 9327 C 870.827 -1.67337 -3.04328 0
M  V30 9328 C 869.781 -2.81809 -3.2213 0
M  V30 9329 C 869.107 -2.69724 -4.61685 0
M  V30 9330 C 870.407 -4.23241 -3.06046 0
M  V30 9331 H 872.101 -2.5786 -1.52147 0
M  V30 9332 H 869.647 -1.24094 -0.730529 0
M  V30 9333 H 871.6 -1.77481 -3.82202 0
M  V30 9334 H 870.324 -0.705514 -3.18889 0
M  V30 9335 H 868.983 -2.71201 -2.46669 0
M  V30 9336 H 868.631 -1.70934 -4.73065 0
M  V30 9337 H 868.331 -3.4653 -4.74543 0
M  V30 9338 H 869.855 -2.81818 -5.41674 0
M  V30 9339 H 871.269 -4.34746 -3.73723 0
M  V30 9340 H 869.666 -5.00952 -3.30405 0
M  V30 9341 H 870.736 -4.40543 -2.02609 0
M  V30 9342 N 872.079 0.78992 -1.36375 0
M  V30 9343 C 873.356 1.53584 -1.21126 0
M  V30 9344 C 873.736 2.10124 0.202785 0
M  V30 9345 O 873.084 1.93936 1.20835 0
M  V30 9346 C 873.294 2.63117 -2.29282 0
M  V30 9347 C 874.642 3.31013 -2.65924 0
M  V30 9348 O 875.666 2.734 -2.28321 0
M  V30 9349 O 874.525 4.35129 -3.30643 0
M  V30 9350 H 871.619 0.679366 -0.471583 0
M  V30 9351 H 874.165 0.828446 -1.48104 0
M  V30 9352 H 872.937 2.19329 -3.24053 0
M  V30 9353 H 872.56 3.41476 -2.03666 0
M  V30 9354 N 873.557 1.20646 1.01402 0
M  V30 9355 C 874.834 0.927176 1.72229 0
M  V30 9356 C 875.214 -0.563382 2.03443 0
M  V30 9357 O 874.562 -1.52576 1.70096 0
M  V30 9358 C 874.772 1.80285 2.98828 0
M  V30 9359 C 876.12 2.04624 3.72041 0
M  V30 9360 O 877.144 1.77559 3.0879 0
M  V30 9361 O 876.003 2.50347 4.85787 0
M  V30 9362 H 873.097 0.346891 0.75073 0
M  V30 9363 H 875.643 1.31532 1.07227 0
M  V30 9364 H 874.415 2.81204 2.72102 0
M  V30 9365 H 874.038 1.41495 3.71571 0
M  V30 9366 N 875.035 -1.20752 1.01276 0
M  V30 9367 C 876.282 -1.90021 0.699887 0
M  V30 9368 C 876.61 -1.78604 -0.770113 0
M  V30 9369 O 875.865 -1.16195 -1.57471 0
M  V30 9370 C 876.164 -3.40808 1.07633 0
M  V30 9371 C 875.83 -3.72423 2.54189 0
M  V30 9372 C 874.492 -3.80762 2.94234 0
M  V30 9373 C 876.844 -3.87025 3.49086 0
M  V30 9374 C 874.172 -4.01158 4.28123 0
M  V30 9375 C 876.524 -4.0893 4.82658 0
M  V30 9376 C 875.188 -4.15498 5.22415 0
M  V30 9377 H 874.458 -0.695335 0.256107 0
M  V30 9378 H 877.105 -1.43096 1.27263 0
M  V30 9379 H 875.41 -3.89521 0.421944 0
M  V30 9380 H 877.107 -3.92693 0.811997 0
M  V30 9381 H 873.697 -3.66529 2.22158 0
M  V30 9382 H 877.881 -3.79942 3.19309 0
M  V30 9383 H 873.137 -4.04476 4.58486 0
M  V30 9384 H 877.311 -4.19172 5.56119 0
M  V30 9385 H 874.938 -4.31055 6.26176 0
M  V30 9386 N 876.513 -0.788492 -1.36457 0
M  V30 9387 C 877.759 -0.360995 -1.99561 0
M  V30 9388 C 878.092 1.06433 -1.62437 0
M  V30 9389 O 877.367 1.7352 -0.878705 0
M  V30 9390 C 877.65 -0.523735 -3.56271 0
M  V30 9391 C 877.503 -1.99268 -4.03252 0
M  V30 9392 C 878.822 0.0617908 -4.40057 0
M  V30 9393 H 875.941 -0.13264 -0.724966 0
M  V30 9394 H 878.583 -0.994659 -1.61884 0
M  V30 9395 H 876.733 0.0156979 -3.88497 0
M  V30 9396 H 878.405 -2.59311 -3.81518 0
M  V30 9397 H 876.648 -2.49561 -3.54826 0
M  V30 9398 H 877.319 -2.05752 -5.12221 0
M  V30 9399 H 879.795 -0.398674 -4.14186 0
M  V30 9400 H 878.671 -0.0821089 -5.48839 0
M  V30 9401 H 878.932 1.15381 -4.26778 0
M  V30 9402 N 877.991 1.48044 -0.54043 0
M  V30 9403 C 879.216 2.07396 -0.0124765 0
M  V30 9404 C 879.641 1.39288 1.26414 0
M  V30 9405 O 878.999 0.462252 1.75308 0
M  V30 9406 C 879.047 3.60131 0.18377 0
M  V30 9407 O 878.151 3.92995 1.25014 0
M  V30 9408 H 877.492 0.662554 -0.0438026 0
M  V30 9409 H 880.022 1.90306 -0.751327 0
M  V30 9410 H 880.032 4.06003 0.403197 0
M  V30 9411 H 878.707 4.09105 -0.74874 0
M  V30 9412 H 877.284 3.5889 1.01254 0
M  V30 9413 N 879.47 0.276058 1.55163 0
M  V30 9414 C 880.698 -0.343772 2.04024 0
M  V30 9415 C 881.113 -1.49397 1.15438 0
M  V30 9416 O 880.47 -1.81662 0.174692 0
M  V30 9417 C 880.521 -0.823885 3.51986 0
M  V30 9418 O 880.242 0.280507 4.37201 0
M  V30 9419 C 881.743 -1.51143 4.16738 0
M  V30 9420 H 878.963 -0.07828 0.666418 0
M  V30 9421 H 881.507 0.408427 2.0038 0
M  V30 9422 H 879.662 -1.52617 3.56071 0
M  V30 9423 H 880.076 -0.0887831 5.24425 0
M  V30 9424 H 881.55 -1.79878 5.2187 0
M  V30 9425 H 882.027 -2.44327 3.64967 0
M  V30 9426 H 882.633 -0.852975 4.16659 0
M  V30 9427 N 880.948 -1.576 0.00335426 0
M  V30 9428 C 882.197 -1.89892 -0.680001 0
M  V30 9429 C 882.51 -0.878731 -1.7475 0
M  V30 9430 O 883.716 -1.09199 -2.48572 0
M  V30 9431 C 882.172 -3.37098 -1.26066 0
M  V30 9432 C 881.78 -4.4742 -0.227807 0
M  V30 9433 C 883.524 -3.78495 -1.92202 0
M  V30 9434 C 881.431 -5.85706 -0.81865 0
M  V30 9435 H 880.361 -0.708578 -0.257746 0
M  V30 9436 H 883.012 -1.83387 0.0644472 0
M  V30 9437 H 881.394 -3.38451 -2.05589 0
M  V30 9438 H 882.568 -4.57589 0.54307 0
M  V30 9439 H 880.883 -4.15064 0.333297 0
M  V30 9440 H 883.48 -4.7915 -2.37318 0
M  V30 9441 H 883.823 -3.12187 -2.75399 0
M  V30 9442 H 884.356 -3.79456 -1.19408 0
M  V30 9443 H 881.095 -6.55495 -0.0253787 0
M  V30 9444 H 880.615 -5.79196 -1.55861 0
M  V30 9445 H 882.294 -6.33469 -1.31627 0
M  V30 9446 N 882.426 0.269451 -1.5528 0
M  V30 9447 C 883.703 1.02207 -1.66773 0
M  V30 9448 C 884.083 2.04168 -0.536536 0
M  V30 9449 O 883.431 2.23761 0.462956 0
M  V30 9450 C 883.641 1.67569 -3.0614 0
M  V30 9451 C 884.989 2.18599 -3.64005 0
M  V30 9452 O 886.013 1.7755 -3.08795 0
M  V30 9453 O 884.872 2.93903 -4.60742 0
M  V30 9454 H 881.966 0.474314 -0.677462 0
M  V30 9455 H 884.512 0.265026 -1.67618 0
M  V30 9456 H 883.284 0.937029 -3.79915 0
M  V30 9457 H 882.907 2.49951 -3.09209 0
M  V30 9458 N 883.904 1.48273 0.534124 0
M  V30 9459 C 884.834 1.6538 1.64839 0
M  V30 9460 C 885.815 0.502741 1.62501 0
M  V30 9461 O 887 0.734799 1.79762 0
M  V30 9462 C 884.13 1.68949 3.03436 0
M  V30 9463 C 883.084 2.83513 3.20631 0
M  V30 9464 C 882.41 2.72169 4.60248 0
M  V30 9465 C 883.71 4.24858 3.03797 0
M  V30 9466 H 885.404 2.58663 1.50777 0
M  V30 9467 H 882.95 1.24479 0.723937 0
M  V30 9468 H 884.903 1.79505 3.81256 0
M  V30 9469 H 883.627 0.722415 3.1851 0
M  V30 9470 H 882.286 2.72505 2.45227 0
M  V30 9471 H 881.934 1.7344 4.72152 0
M  V30 9472 H 881.634 3.49042 4.72698 0
M  V30 9473 H 883.158 2.84687 5.40172 0
M  V30 9474 H 884.572 4.36721 3.71413 0
M  V30 9475 H 882.969 5.02697 3.27743 0
M  V30 9476 H 884.039 4.41611 2.0027 0
M  V30 9477 N 885.382 -0.782676 1.36792 0
M  V30 9478 C 886.793 -1.35828 1.28092 0
M  V30 9479 C 887.144 -1.96052 -0.076315 0
M  V30 9480 O 886.269 -1.93042 -0.977935 0
M  V30 9481 C 886.864 -2.46949 2.31952 0
M  V30 9482 C 885.423 -3.00307 2.2692 0
M  V30 9483 C 884.57 -1.73436 2.16368 0
M  V30 9484 H 887.521 -0.583788 1.47572 0
M  V30 9485 H 887.542 -3.26144 1.95986 0
M  V30 9486 H 887.054 -2.03087 3.30722 0
M  V30 9487 H 885.155 -3.48571 1.31639 0
M  V30 9488 H 885.268 -3.56663 3.19887 0
M  V30 9489 H 883.632 -1.95934 1.62733 0
M  V30 9490 H 884.415 -1.31693 3.17036 0
M  V30 9491 N 886.86 -1.21182 -1.00761 0
M  V30 9492 C 887.808 -0.965728 -2.11604 0
M  V30 9493 C 888.802 0.0861028 -1.69181 0
M  V30 9494 O 890.008 -0.0650558 -1.79882 0
M  V30 9495 H 886.383 -0.295023 -0.691712 0
M  V30 9496 H 888.354 -1.90667 -2.2954 0
M  V30 9497 C 887.103 -0.544164 -3.43415 0
M  V30 9498 H 886.426 -1.34515 -3.76491 0
M  V30 9499 H 887.866 -0.411268 -4.22001 0
M  V30 9500 C 886.325 0.744583 -3.28569 0
M  V30 9501 O 886.855 1.80078 -3.59075 0
M  V30 9502 N 885.061 0.710083 -2.81791 0
M  V30 9503 H 884.608 -0.14971 -2.57165 0
M  V30 9504 H 884.566 1.57268 -2.72239 0
M  V30 9505 N 888.338 1.20213 -1.01915 0
M  V30 9506 C 889.568 1.93341 -0.728197 0
M  V30 9507 C 889.976 1.75151 0.715454 0
M  V30 9508 O 889.319 1.06437 1.49722 0
M  V30 9509 C 889.381 3.45677 -0.9873 0
M  V30 9510 C 889.045 3.8763 -2.42057 0
M  V30 9511 C 890.042 3.93184 -3.40151 0
M  V30 9512 C 887.727 4.19547 -2.76199 0
M  V30 9513 C 889.721 4.30069 -4.70446 0
M  V30 9514 C 887.408 4.56106 -4.06707 0
M  V30 9515 C 888.406 4.6134 -5.03641 0
M  V30 9516 O 888.094 4.97059 -6.31813 0
M  V30 9517 H 887.826 0.621258 -0.266485 0
M  V30 9518 H 890.38 1.53577 -1.36393 0
M  V30 9519 H 888.61 3.85578 -0.294405 0
M  V30 9520 H 890.299 4.00035 -0.687536 0
M  V30 9521 H 891.065 3.68687 -3.15111 0
M  V30 9522 H 886.944 4.14663 -2.01434 0
M  V30 9523 H 890.488 4.34069 -5.46105 0
M  V30 9524 H 886.385 4.80059 -4.31525 0
M  V30 9525 H 887.153 5.15043 -6.36139 0
M  V30 9526 N 889.816 0.795718 1.36037 0
M  V30 9527 C 891.064 0.370291 1.98679 0
M  V30 9528 C 891.385 -1.06332 1.63458 0
M  V30 9529 O 890.655 -1.73394 0.911671 0
M  V30 9530 H 889.235 0.133928 0.734896 0
M  V30 9531 H 891.897 1.01915 1.6613 0
M  V30 9532 H 890.993 0.467207 3.08583 0
M  V30 9533 N 891.294 -1.47756 0.548274 0
M  V30 9534 C 892.534 -2.04387 0.0231354 0
M  V30 9535 C 892.898 -1.41438 -1.29843 0
M  V30 9536 O 894.099 -1.89064 -1.91072 0
M  V30 9537 C 892.37 -3.57316 -0.077482 0
M  V30 9538 S 893.929 -4.35339 -0.550038 0
M  V30 9539 H 890.747 -0.710694 0.0208428 0
M  V30 9540 H 893.349 -1.81239 0.732984 0
M  V30 9541 H 892.053 -4.00658 0.88888 0
M  V30 9542 H 891.584 -3.84947 -0.811157 0
M  V30 9543 H 893.599 -4.61957 -1.81135 0
M  V30 9544 N 892.772 -0.284283 -1.55015 0
M  V30 9545 C 894 0.332948 -2.04203 0
M  V30 9546 C 894.415 1.48783 -1.16229 0
M  V30 9547 O 893.772 1.81567 -0.184323 0
M  V30 9548 C 893.823 0.805207 -3.52418 0
M  V30 9549 O 893.544 -0.303689 -4.37046 0
M  V30 9550 C 895.045 1.48931 -4.17534 0
M  V30 9551 H 892.265 0.0747447 -0.666824 0
M  V30 9552 H 894.809 -0.419048 -2.00161 0
M  V30 9553 H 892.964 1.50727 -3.56876 0
M  V30 9554 H 893.378 0.0609703 -5.24465 0
M  V30 9555 H 894.852 1.77108 -5.22816 0
M  V30 9556 H 895.329 2.42389 -3.66257 0
M  V30 9557 H 895.935 0.830867 -4.17105 0
M  V30 9558 N 894.251 1.57596 -0.0117121 0
M  V30 9559 C 895.5 1.9025 0.669921 0
M  V30 9560 C 895.813 0.887986 1.74282 0
M  V30 9561 O 897.019 1.10516 2.47989 0
M  V30 9562 C 895.475 3.37762 1.24277 0
M  V30 9563 C 895.083 4.47535 0.204076 0
M  V30 9564 C 896.827 3.79509 1.90192 0
M  V30 9565 C 894.734 5.86132 0.787577 0
M  V30 9566 H 893.664 0.709935 0.253984 0
M  V30 9567 H 896.315 1.8335 -0.0741718 0
M  V30 9568 H 894.697 3.39537 2.03791 0
M  V30 9569 H 895.871 4.57294 -0.56733 0
M  V30 9570 H 894.186 4.14881 -0.355305 0
M  V30 9571 H 896.783 4.80402 2.34773 0
M  V30 9572 H 897.126 3.13643 2.7374 0
M  V30 9573 H 897.659 3.80084 1.17394 0
M  V30 9574 H 894.398 6.55499 -0.00938418 0
M  V30 9575 H 893.918 5.80014 1.52787 0
M  V30 9576 H 895.597 6.34158 1.28265 0
M  V30 9577 N 895.729 -0.261212 1.5542 0
M  V30 9578 C 897.14 -0.83138 1.67167 0
M  V30 9579 C 897.491 -1.8659 0.606525 0
M  V30 9580 O 896.616 -2.14953 -0.24985 0
M  V30 9581 C 897.211 -1.51475 3.03052 0
M  V30 9582 C 895.77 -2.0328 3.16787 0
M  V30 9583 C 894.917 -0.878903 2.63003 0
M  V30 9584 H 897.868 -0.0373102 1.58656 0
M  V30 9585 H 897.889 -2.38222 2.96699 0
M  V30 9586 H 897.401 -0.76157 3.80554 0
M  V30 9587 H 895.502 -2.81523 2.44082 0
M  V30 9588 H 895.615 -2.24001 4.2351 0
M  V30 9589 H 893.979 -1.27551 2.2046 0
M  V30 9590 H 894.762 -0.13904 3.43018 0
M  V30 9591 N 897.207 -1.48554 -0.526253 0
M  V30 9592 C 898.117 -1.66044 -1.65731 0
M  V30 9593 C 899.133 -0.542951 -1.65312 0
M  V30 9594 O 900.309 -0.814495 -1.84195 0
M  V30 9595 C 897.374 -1.69959 -3.02184 0
M  V30 9596 C 896.435 -2.93362 -3.13428 0
M  V30 9597 C 895.668 -2.97081 -4.43372 0
M  V30 9598 O 895.891 -2.09103 -5.3069 0
M  V30 9599 O 894.825 -3.8929 -4.59061 0
M  V30 9600 H 898.651 -2.61811 -1.53912 0
M  V30 9601 H 896.236 -1.31999 -0.699759 0
M  V30 9602 H 898.118 -1.75033 -3.83329 0
M  V30 9603 H 896.793 -0.773658 -3.14319 0
M  V30 9604 H 895.7 -2.93818 -2.31564 0
M  V30 9605 H 897.033 -3.85352 -3.06211 0
M  V30 9606 N 898.685 0.775411 -1.37205 0
M  V30 9607 C 899.632 1.88857 -1.32671 0
M  V30 9608 C 900.602 1.64976 -0.192899 0
M  V30 9609 O 901.787 1.86944 -0.381673 0
M  V30 9610 C 898.927 3.25871 -1.13588 0
M  V30 9611 C 898.04 3.61731 -2.36167 0
M  V30 9612 C 897.175 4.87934 -2.09985 0
M  V30 9613 C 896.214 5.16514 -3.2845 0
M  V30 9614 N 895.351 6.33905 -3.01842 0
M  V30 9615 H 900.191 1.92068 -2.27846 0
M  V30 9616 H 897.728 0.939066 -1.13225 0
M  V30 9617 H 899.686 4.04903 -1.00546 0
M  V30 9618 H 898.316 3.22045 -0.220613 0
M  V30 9619 H 897.368 2.77712 -2.59962 0
M  V30 9620 H 898.68 3.78792 -3.24528 0
M  V30 9621 H 897.834 5.74863 -1.93953 0
M  V30 9622 H 896.573 4.7297 -1.18956 0
M  V30 9623 H 895.578 4.28063 -3.45025 0
M  V30 9624 H 896.803 5.33389 -4.20325 0
M  V30 9625 H 894.749 6.20306 -2.13439 0
M  V30 9626 H 894.666 6.51364 -3.83746 0
M  V30 9627 H 895.934 7.23779 -2.8942 0
M  V30 9628 N 900.163 1.21714 1.00117 0
M  V30 9629 C 901.391 1.06278 1.77518 0
M  V30 9630 C 901.806 -0.387193 1.84787 0
M  V30 9631 O 901.163 -1.26854 1.31203 0
M  V30 9632 C 901.214 1.65795 3.21239 0
M  V30 9633 O 900.935 3.05119 3.14378 0
M  V30 9634 C 902.436 1.55521 4.15124 0
M  V30 9635 H 899.656 0.373013 0.557765 0
M  V30 9636 H 902.2 1.61133 1.25922 0
M  V30 9637 H 900.355 1.15022 3.69931 0
M  V30 9638 H 900.769 3.33643 4.04701 0
M  V30 9639 H 902.243 2.01902 5.13751 0
M  V30 9640 H 902.72 0.510307 4.36225 0
M  V30 9641 H 903.326 2.0556 3.72324 0
M  V30 9642 N 901.641 -1.19671 1.02551 0
M  V30 9643 C 902.866 -1.93774 0.739363 0
M  V30 9644 C 903.291 -1.74787 -0.695064 0
M  V30 9645 O 902.649 -1.04796 -1.47944 0
M  V30 9646 C 902.697 -3.43684 1.09149 0
M  V30 9647 O 901.801 -4.11874 0.208213 0
M  V30 9648 H 901.142 -0.605064 0.273484 0
M  V30 9649 H 903.672 -1.51846 1.37128 0
M  V30 9650 H 903.682 -3.94339 1.04695 0
M  V30 9651 H 902.357 -3.56826 2.13654 0
M  V30 9652 H 900.934 -3.716 0.311045 0
M  V30 9653 N 903.119 -0.802921 -1.35613 0
M  V30 9654 C 904.359 -0.387163 -2.007 0
M  V30 9655 C 904.723 1.02546 -1.62322 0
M  V30 9656 O 905.924 1.54303 -2.201 0
M  V30 9657 C 904.195 -0.560813 -3.52973 0
M  V30 9658 S 905.754 -0.234935 -4.38171 0
M  V30 9659 H 902.572 -0.147218 -0.695592 0
M  V30 9660 H 905.174 -1.04437 -1.65267 0
M  V30 9661 H 903.878 -1.58897 -3.78391 0
M  V30 9662 H 903.409 0.111845 -3.93241 0
M  V30 9663 H 905.424 0.958715 -4.8685 0
M  V30 9664 N 904.597 1.47463 -0.556102 0
M  V30 9665 C 905.822 2.07371 -0.0344729 0
M  V30 9666 C 906.247 1.40621 1.2493 0
M  V30 9667 O 905.605 0.48082 1.74808 0
M  V30 9668 C 905.653 3.60306 0.145563 0
M  V30 9669 O 904.757 3.94299 1.20839 0
M  V30 9670 H 904.098 0.662052 -0.0508274 0
M  V30 9671 H 906.628 1.89498 -0.771469 0
M  V30 9672 H 906.638 4.06408 0.360112 0
M  V30 9673 H 905.313 4.08288 -0.792089 0
M  V30 9674 H 903.89 3.59944 0.97442 0
M  V30 9675 N 906.075 0.2925 1.54862 0
M  V30 9676 C 907.321 -0.319736 2.00264 0
M  V30 9677 C 907.654 -1.5419 1.18064 0
M  V30 9678 O 906.929 -1.92821 0.254983 0
M  V30 9679 C 907.212 -0.684753 3.5353 0
M  V30 9680 C 907.065 0.545961 4.46474 0
M  V30 9681 C 908.384 -1.51456 4.13218 0
M  V30 9682 H 905.503 -0.11474 0.728014 0
M  V30 9683 H 908.145 0.402907 1.85679 0
M  V30 9684 H 906.295 -1.30044 3.66089 0
M  V30 9685 H 907.967 1.18448 4.45834 0
M  V30 9686 H 906.21 1.1808 4.1742 0
M  V30 9687 H 906.881 0.246544 5.51449 0
M  V30 9688 H 909.357 -0.994421 4.04043 0
M  V30 9689 H 908.233 -1.73875 5.20633 0
M  V30 9690 H 908.494 -2.5011 3.64551 0
M  V30 9691 N 907.553 -1.57587 0.0200696 0
M  V30 9692 C 908.783 -1.95435 -0.669991 0
M  V30 9693 C 909.191 -0.894647 -1.66711 0
M  V30 9694 O 908.534 0.133009 -1.83218 0
M  V30 9695 C 908.596 -3.29379 -1.44047 0
M  V30 9696 C 908.26 -4.53008 -0.602691 0
M  V30 9697 C 909.257 -5.19766 0.118188 0
M  V30 9698 C 906.942 -4.99359 -0.542754 0
M  V30 9699 C 908.936 -6.31187 0.887774 0
M  V30 9700 C 906.623 -6.10665 0.230543 0
M  V30 9701 C 907.621 -6.76438 0.944522 0
M  V30 9702 O 907.309 -7.85608 1.70516 0
M  V30 9703 H 907.041 -0.648681 -0.190234 0
M  V30 9704 H 909.595 -2.05269 0.0733838 0
M  V30 9705 H 907.825 -3.1601 -2.22878 0
M  V30 9706 H 909.514 -3.52194 -2.01777 0
M  V30 9707 H 910.28 -4.84932 0.0811604 0
M  V30 9708 H 906.159 -4.47976 -1.08804 0
M  V30 9709 H 909.703 -6.82458 1.44558 0
M  V30 9710 H 905.6 -6.44938 0.26932 0
M  V30 9711 H 906.368 -8.02228 1.62398 0
M  V30 9712 N 909.032 0.252966 -1.55557 0
M  V30 9713 C 910.28 0.979912 -1.76754 0
M  V30 9714 C 910.601 1.86083 -0.582944 0
M  V30 9715 O 909.871 1.91742 0.401497 0
M  V30 9716 H 908.451 0.364805 -0.651864 0
M  V30 9717 H 911.113 0.272372 -1.92987 0
M  V30 9718 H 910.209 1.60518 -2.67657 0
M  V30 9719 N 910.51 1.48831 0.518367 0
M  V30 9720 C 911.756 1.58649 1.27287 0
M  V30 9721 C 912.111 0.262085 1.90607 0
M  V30 9722 O 911.404 -0.736154 1.76894 0
M  V30 9723 C 911.598 2.67003 2.3758 0
M  V30 9724 C 911.427 4.09851 1.85073 0
M  V30 9725 C 910.197 4.76852 1.67154 0
M  V30 9726 C 912.395 4.95646 1.37256 0
M  V30 9727 N 910.377 6.04075 1.09394 0
M  V30 9728 C 911.748 6.13208 0.915189 0
M  V30 9729 C 913.803 4.8178 1.25666 0
M  V30 9730 C 912.506 7.18431 0.353411 0
M  V30 9731 C 914.532 5.87136 0.708873 0
M  V30 9732 C 913.894 7.03914 0.261642 0
M  V30 9733 H 909.993 0.635017 0.456374 0
M  V30 9734 H 912.577 1.85763 0.583097 0
M  V30 9735 H 910.748 2.41691 3.04039 0
M  V30 9736 H 912.48 2.6644 3.04617 0
M  V30 9737 H 909.235 4.3337 1.91017 0
M  V30 9738 H 909.659 6.71955 0.824917 0
M  V30 9739 H 914.301 3.91826 1.58846 0
M  V30 9740 H 912.019 8.08099 0.00931313 0
M  V30 9741 H 915.605 5.78463 0.622221 0
M  V30 9742 H 914.485 7.84046 -0.155634 0
M  V30 9743 N 911.988 -0.768124 1.37614 0
M  V30 9744 C 913.236 -1.52379 1.3276 0
M  V30 9745 C 913.557 -1.94809 -0.0863564 0
M  V30 9746 O 912.827 -1.66568 -1.03112 0
M  V30 9747 H 911.407 -0.565179 0.488448 0
M  V30 9748 H 914.069 -0.913974 1.72141 0
M  V30 9749 H 913.165 -2.4215 1.96901 0
M  V30 9750 N 913.466 -1.22244 -0.994698 0
M  V30 9751 C 914.696 -1.07062 -1.76695 0
M  V30 9752 C 915.104 0.381895 -1.85306 0
M  V30 9753 O 914.447 1.27648 -1.32105 0
M  V30 9754 C 914.509 -1.60487 -3.2169 0
M  V30 9755 C 914.173 -3.09079 -3.36629 0
M  V30 9756 C 915.17 -4.06526 -3.24088 0
M  V30 9757 C 912.855 -3.48497 -3.61739 0
M  V30 9758 C 914.849 -5.41377 -3.36437 0
M  V30 9759 C 912.536 -4.83498 -3.73729 0
M  V30 9760 C 913.534 -5.79747 -3.61086 0
M  V30 9761 O 913.222 -7.12297 -3.72678 0
M  V30 9762 H 912.954 -0.375963 -0.561807 0
M  V30 9763 H 915.508 -1.62259 -1.25941 0
M  V30 9764 H 913.738 -0.996957 -3.73628 0
M  V30 9765 H 915.427 -1.40994 -3.80625 0
M  V30 9766 H 916.193 -3.77415 -3.04602 0
M  V30 9767 H 912.072 -2.74106 -3.70657 0
M  V30 9768 H 915.616 -6.16485 -3.26485 0
M  V30 9769 H 911.513 -5.1229 -3.92721 0
M  V30 9770 H 912.281 -7.1985 -3.89562 0
M  V30 9771 N 914.944 1.19125 -1.03184 0
M  V30 9772 C 916.172 1.92838 -0.74975 0
M  V30 9773 C 916.587 1.75667 0.691851 0
M  V30 9774 O 915.944 1.0805 1.47076 0
M  V30 9775 C 915.995 3.44509 -1.09525 0
M  V30 9776 O 915.716 3.6113 -2.48025 0
M  V30 9777 C 917.217 4.35338 -0.836397 0
M  V30 9778 H 914.437 0.61246 -0.274105 0
M  V30 9779 H 916.981 1.5118 -1.37712 0
M  V30 9780 H 915.136 3.83988 -0.513006 0
M  V30 9781 H 915.55 4.54959 -2.60984 0
M  V30 9782 H 917.024 5.4035 -1.12808 0
M  V30 9783 H 917.501 4.38602 0.229102 0
M  V30 9784 H 918.107 4.01544 -1.40152 0
M  V30 9785 N 916.422 0.810101 1.35185 0
M  V30 9786 C 917.67 0.391343 1.98275 0
M  V30 9787 C 917.991 -1.04592 1.64577 0
M  V30 9788 O 917.261 -1.72417 0.93001 0
M  V30 9789 H 915.841 0.141715 0.733434 0
M  V30 9790 H 918.503 1.03672 1.6504 0
M  V30 9791 H 917.599 0.49991 3.0807 0
M  V30 9792 N 917.9 -1.47166 0.563914 0
M  V30 9793 C 918.83 -2.32894 -0.168148 0
M  V30 9794 C 919.811 -1.44202 -0.902214 0
M  V30 9795 O 920.996 -1.73048 -0.881365 0
M  V30 9796 C 918.126 -3.26116 -1.19439 0
M  V30 9797 C 917.08 -4.24101 -0.576363 0
M  V30 9798 C 916.406 -5.06696 -1.70772 0
M  V30 9799 C 917.706 -5.20142 0.47425 0
M  V30 9800 H 919.4 -2.9435 0.547573 0
M  V30 9801 H 916.946 -1.41545 0.264778 0
M  V30 9802 H 918.899 -3.84935 -1.71474 0
M  V30 9803 H 917.623 -2.62728 -1.94014 0
M  V30 9804 H 916.282 -3.66519 -0.0772534 0
M  V30 9805 H 915.93 -4.39707 -2.44268 0
M  V30 9806 H 915.63 -5.7304 -1.29994 0
M  V30 9807 H 917.154 -5.68375 -2.2312 0
M  V30 9808 H 918.568 -5.73286 0.0397035 0
M  V30 9809 H 916.965 -5.94726 0.801287 0
M  V30 9810 H 918.035 -4.65214 1.36764 0
M  V30 9811 N 919.378 -0.300708 -1.54705 0
M  V30 9812 C 920.627 0.309428 -1.99312 0
M  V30 9813 C 920.94 1.55027 -1.19272 0
M  V30 9814 O 922.146 2.23498 -1.54146 0
M  V30 9815 C 920.602 0.601856 -3.54832 0
M  V30 9816 C 920.21 -0.620636 -4.4368 0
M  V30 9817 C 921.954 1.1732 -4.07966 0
M  V30 9818 C 919.861 -0.301376 -5.90632 0
M  V30 9819 H 918.791 0.119395 -0.744487 0
M  V30 9820 H 921.442 -0.409368 -1.78875 0
M  V30 9821 H 919.824 1.38024 -3.71168 0
M  V30 9822 H 920.998 -1.39685 -4.39118 0
M  V30 9823 H 919.313 -1.1106 -4.01316 0
M  V30 9824 H 921.91 1.42631 -5.15326 0
M  V30 9825 H 922.253 2.11537 -3.5855 0
M  V30 9826 H 922.786 0.456534 -3.95172 0
M  V30 9827 H 919.525 -1.21209 -6.44196 0
M  V30 9828 H 919.045 0.437574 -5.98202 0
M  V30 9829 H 920.724 0.097164 -6.46927 0
M  V30 9830 N 920.856 1.57574 -0.0284266 0
M  V30 9831 C 921.804 2.11332 0.971675 0
M  V30 9832 C 922.798 1.03974 1.33738 0
M  V30 9833 O 924.004 1.22409 1.31969 0
M  V30 9834 H 920.379 0.675174 0.331125 0
M  V30 9835 H 922.35 2.943 0.49296 0
M  V30 9836 C 921.099 2.65496 2.24516 0
M  V30 9837 H 920.422 3.47753 1.9725 0
M  V30 9838 H 921.862 3.06757 2.92705 0
M  V30 9839 C 920.321 1.58207 2.97443 0
M  V30 9840 O 920.851 0.981496 3.89525 0
M  V30 9841 N 919.057 1.30269 2.59766 0
M  V30 9842 H 918.604 1.79294 1.84963 0
M  V30 9843 H 918.562 0.587085 3.0887 0
M  V30 9844 N 922.334 -0.244713 1.55689 0
M  V30 9845 C 923.564 -0.988508 1.81417 0
M  V30 9846 C 923.972 -1.79362 0.602143 0
M  V30 9847 O 923.315 -1.78386 -0.438639 0
M  V30 9848 C 923.377 -1.97287 3.0053 0
M  V30 9849 C 923.041 -1.35448 4.36466 0
M  V30 9850 C 924.038 -0.755874 5.14376 0
M  V30 9851 C 921.723 -1.37319 4.83165 0
M  V30 9852 C 923.717 -0.184218 6.37134 0
M  V30 9853 C 921.404 -0.797681 6.05871 0
M  V30 9854 C 922.402 -0.204224 6.82695 0
M  V30 9855 O 922.09 0.362392 8.03083 0
M  V30 9856 H 921.822 -0.296412 0.607549 0
M  V30 9857 H 924.376 -0.272185 2.03589 0
M  V30 9858 H 922.606 -2.72756 2.74119 0
M  V30 9859 H 924.295 -2.58028 3.13331 0
M  V30 9860 H 925.061 -0.733912 4.79415 0
M  V30 9861 H 920.94 -1.8245 4.23359 0
M  V30 9862 H 924.484 0.279624 6.97039 0
M  V30 9863 H 920.381 -0.816978 6.40309 0
M  V30 9864 H 921.149 0.254467 8.18104 0
M  V30 9865 N 923.813 -1.49104 -0.510467 0
M  V30 9866 C 925.09 -1.48609 -1.27179 0
M  V30 9867 C 925.47 -0.208537 -2.10067 0
M  V30 9868 O 924.818 0.809335 -2.13687 0
M  V30 9869 C 925.028 -2.75953 -2.1366 0
M  V30 9870 C 926.376 -3.25067 -2.73161 0
M  V30 9871 O 927.4 -2.77005 -2.23934 0
M  V30 9872 O 926.259 -4.08747 -3.62751 0
M  V30 9873 H 923.353 -0.594374 -0.57502 0
M  V30 9874 H 925.899 -1.61358 -0.525515 0
M  V30 9875 H 924.671 -3.60434 -1.52325 0
M  V30 9876 H 924.294 -2.66019 -2.95499 0
M  V30 9877 N 925.291 0.760815 -1.38019 0
M  V30 9878 C 926.539 1.51673 -1.33566 0
M  V30 9879 C 926.86 1.94852 0.076024 0
M  V30 9880 O 926.13 1.67112 1.02227 0
M  V30 9881 H 924.71 0.562581 -0.491438 0
M  V30 9882 H 927.372 0.904832 -1.72623 0
M  V30 9883 H 926.468 2.41102 -1.98182 0
M  V30 9884 N 926.769 1.22769 0.988202 0
M  V30 9885 C 927.699 1.02627 2.09738 0
M  V30 9886 C 928.68 -0.0543211 1.70013 0
M  V30 9887 O 929.865 0.108811 1.93895 0
M  V30 9888 C 926.995 0.608302 3.41931 0
M  V30 9889 C 925.949 1.63536 3.95525 0
M  V30 9890 C 925.275 1.07308 5.23822 0
M  V30 9891 C 926.575 3.02649 4.25677 0
M  V30 9892 H 928.269 1.954 2.26847 0
M  V30 9893 H 925.815 0.940888 1.09011 0
M  V30 9894 H 927.768 0.454478 4.18942 0
M  V30 9895 H 926.492 -0.355095 3.24664 0
M  V30 9896 H 925.151 1.77704 3.20651 0
M  V30 9897 H 924.799 0.100894 5.02899 0
M  V30 9898 H 924.499 1.75925 5.60646 0
M  V30 9899 H 926.023 0.930938 6.03462 0
M  V30 9900 H 927.437 2.91828 4.93467 0
M  V30 9901 H 925.834 3.68434 4.73684 0
M  V30 9902 H 926.904 3.52228 3.33262 0
M  V30 9903 N 928.247 -1.18576 1.03814 0
M  V30 9904 C 929.177 -2.24334 0.647795 0
M  V30 9905 C 930.158 -1.66508 -0.34774 0
M  V30 9906 O 931.343 -1.92852 -0.228401 0
M  V30 9907 C 928.473 -3.47299 0.00734922 0
M  V30 9908 C 927.427 -4.17859 0.926152 0
M  V30 9909 C 926.753 -5.34489 0.150317 0
M  V30 9910 C 928.053 -4.71632 2.24411 0
M  V30 9911 H 929.747 -2.57241 1.53191 0
M  V30 9912 H 927.293 -1.23649 0.738028 0
M  V30 9913 H 929.246 -4.20486 -0.277434 0
M  V30 9914 H 927.97 -3.13619 -0.911626 0
M  V30 9915 H 926.629 -3.46567 1.19528 0
M  V30 9916 H 926.277 -4.97056 -0.770985 0
M  V30 9917 H 925.977 -5.82633 0.762407 0
M  V30 9918 H 927.501 -6.10467 -0.127508 0
M  V30 9919 H 928.915 -5.36526 2.02021 0
M  V30 9920 H 927.312 -5.303 2.80894 0
M  V30 9921 H 928.382 -3.89192 2.89236 0
M  V30 9922 N 929.725 -0.817259 -1.34754 0
M  V30 9923 C 931.141 -0.502309 -1.51489 0
M  V30 9924 C 931.341 0.974568 -1.76364 0
M  V30 9925 O 930.397 1.75924 -1.81127 0
M  V30 9926 C 931.71 -1.35693 -2.68343 0
M  V30 9927 C 933.258 -1.35347 -2.82224 0
M  V30 9928 C 933.733 -2.19244 -4.02114 0
M  V30 9929 N 935.224 -2.16837 -4.09311 0
M  V30 9930 C 935.959 -2.78505 -5.01221 0
M  V30 9931 N 935.455 -3.4914 -5.98392 0
M  V30 9932 N 937.248 -2.68089 -4.94049 0
M  V30 9933 H 929.399 -1.77359 -1.16866 0
M  V30 9934 H 931.662 -0.755476 -0.572678 0
M  V30 9935 H 931.368 -2.40548 -2.56573 0
M  V30 9936 H 931.242 -1.01764 -3.63213 0
M  V30 9937 H 933.629 -0.312727 -2.93438 0
M  V30 9938 H 933.71 -1.7327 -1.88179 0
M  V30 9939 H 933.354 -3.23365 -3.9166 0
M  V30 9940 H 933.284 -1.78675 -4.95361 0
M  V30 9941 H 935.775 -1.65452 -3.39756 0
M  V30 9942 H 936.088 -3.93455 -6.65141 0
M  V30 9943 H 934.433 -3.53246 -5.98533 0
M  V30 9944 H 937.624 -2.12485 -4.17094 0
M  V30 9945 H 937.797 -3.16436 -5.65484 0
M  V30 9946 N 931.203 1.46865 -0.571711 0
M  V30 9947 C 932.449 2.0273 -0.0531858 0
M  V30 9948 C 932.782 1.44353 1.29907 0
M  V30 9949 O 932.057 0.604488 1.84868 0
M  V30 9950 C 932.34 3.60092 0.0243831 0
M  V30 9951 C 932.193 4.28874 -1.35599 0
M  V30 9952 C 933.512 4.33994 0.730563 0
M  V30 9953 H 930.631 0.736706 -0.0208018 0
M  V30 9954 H 933.273 1.75132 -0.736794 0
M  V30 9955 H 931.423 3.83736 0.606565 0
M  V30 9956 H 933.095 4.16527 -1.98249 0
M  V30 9957 H 931.338 3.88664 -1.92674 0
M  V30 9958 H 932.009 5.37561 -1.25429 0
M  V30 9959 H 934.485 4.1543 0.236098 0
M  V30 9960 H 933.361 5.43699 0.753836 0
M  V30 9961 H 933.622 4.04257 1.78967 0
M  V30 9962 N 932.681 0.308908 1.54543 0
M  V30 9963 C 933.644 -0.550857 2.22482 0
M  V30 9964 C 934.644 -1.0551 1.21344 0
M  V30 9965 O 935.834 -0.949866 1.46025 0
M  V30 9966 C 932.966 -1.76354 2.9174 0
M  V30 9967 H 934.159 0.0428395 2.99869 0
M  V30 9968 H 931.712 0.059825 1.56185 0
M  V30 9969 H 932.447 -2.39686 2.18451 0
M  V30 9970 H 932.232 -1.40954 3.65889 0
M  V30 9971 H 933.722 -2.37417 3.43545 0
M  V30 9972 N 934.159 -1.57557 0.0367827 0
M  V30 9973 C 935.109 -2.07182 -0.95183 0
M  V30 9974 C 936.093 -0.973921 -1.28076 0
M  V30 9975 O 937.285 -1.23741 -1.26559 0
M  V30 9976 C 934.414 -2.60869 -2.23164 0
M  V30 9977 C 933.5 -3.77602 -1.93074 0
M  V30 9978 N 933.891 -4.87923 -1.33283 0
M  V30 9979 C 932.189 -3.86234 -2.23023 0
M  V30 9980 C 932.89 -5.69083 -1.20498 0
M  V30 9981 N 931.866 -5.16233 -1.70306 0
M  V30 9982 H 935.668 -2.89876 -0.484647 0
M  V30 9983 H 933.182 -1.61528 -0.16804 0
M  V30 9984 H 935.179 -2.94716 -2.9487 0
M  V30 9985 H 933.839 -1.79607 -2.70502 0
M  V30 9986 H 934.85 -5.08018 -1.00686 0
M  V30 9987 H 931.527 -3.15891 -2.72981 0
M  V30 9988 H 932.917 -6.6779 -0.741999 0
M  V30 9989 N 935.637 0.236453 -1.55816 0
M  V30 9990 C 936.567 1.29639 -1.94206 0
M  V30 9991 C 937.548 1.49667 -0.808319 0
M  V30 9992 O 938.733 1.621 -1.06945 0
M  V30 9993 C 935.863 2.64914 -2.24584 0
M  V30 9994 C 934.817 2.59565 -3.40308 0
M  V30 9995 C 934.143 3.98732 -3.56254 0
M  V30 9996 C 935.443 2.15642 -4.75706 0
M  V30 9997 H 937.137 0.977552 -2.82992 0
M  V30 9998 H 934.683 0.468804 -1.36155 0
M  V30 9999 H 936.636 3.39209 -2.50031 0
M  V30 10000 H 935.36 2.98455 -1.32636 0
M  V30 10001 H 934.019 1.87728 -3.14887 0
M  V30 10002 H 933.667 4.29556 -2.61707 0
M  V30 10003 H 933.367 3.96039 -4.34082 0
M  V30 10004 H 934.891 4.74711 -3.84033 0
M  V30 10005 H 936.305 2.79673 -5.00456 0
M  V30 10006 H 934.702 2.24039 -5.56711 0
M  V30 10007 H 935.772 1.10831 -4.72064 0
M  V30 10008 N 937.115 1.49373 0.502552 0
M  V30 10009 C 938.345 1.62252 1.27898 0
M  V30 10010 C 938.753 0.292555 1.86924 0
M  V30 10011 O 938.096 -0.731823 1.68493 0
M  V30 10012 C 938.158 2.63153 2.4493 0
M  V30 10013 C 937.822 4.07541 2.06784 0
M  V30 10014 C 938.819 4.94392 1.60849 0
M  V30 10015 C 936.504 4.53263 2.16466 0
M  V30 10016 C 938.498 6.25003 1.25098 0
M  V30 10017 C 936.185 5.83888 1.80327 0
M  V30 10018 C 937.183 6.69582 1.34718 0
M  V30 10019 O 936.871 7.97773 0.990661 0
M  V30 10020 H 936.603 0.54918 0.394179 0
M  V30 10021 H 939.157 1.96132 0.610031 0
M  V30 10022 H 937.387 2.2445 3.14895 0
M  V30 10023 H 939.076 2.65578 3.06957 0
M  V30 10024 H 939.842 4.60296 1.52816 0
M  V30 10025 H 935.721 3.86731 2.50919 0
M  V30 10026 H 939.265 6.91844 0.894269 0
M  V30 10027 H 935.162 6.17513 1.8801 0
M  V30 10028 H 935.93 8.1077 1.12227 0
M  V30 10029 N 938.594 -0.753485 1.38421 0
M  V30 10030 C 939.843 -1.50797 1.33952 0
M  V30 10031 C 940.156 -1.95482 -0.0678464 0
M  V30 10032 O 941.362 -2.7048 -0.235078 0
M  V30 10033 C 939.818 -2.72393 2.35224 0
M  V30 10034 C 939.426 -2.34733 3.81582 0
M  V30 10035 C 941.17 -3.50281 2.39798 0
M  V30 10036 C 939.077 -3.52939 4.7454 0
M  V30 10037 H 938.007 -0.566211 0.497916 0
M  V30 10038 H 940.658 -0.823659 1.63976 0
M  V30 10039 H 939.04 -3.42806 1.98243 0
M  V30 10040 H 940.214 -1.71985 4.27502 0
M  V30 10041 H 938.529 -1.69978 3.80127 0
M  V30 10042 H 941.126 -4.38172 3.06447 0
M  V30 10043 H 941.469 -3.91444 1.41695 0
M  V30 10044 H 942.002 -2.86881 2.75579 0
M  V30 10045 H 938.741 -3.16843 5.73839 0
M  V30 10046 H 938.261 -4.1473 4.33312 0
M  V30 10047 H 939.94 -4.19519 4.92557 0
M  V30 10048 N 940.072 -1.23292 -0.981677 0
M  V30 10049 C 941.005 -0.956198 -2.07201 0
M  V30 10050 C 941.983 0.105027 -1.6226 0
M  V30 10051 O 943.167 -0.0289582 -1.88478 0
M  V30 10052 C 940.294 -0.44029 -3.35826 0
M  V30 10053 C 939.34 -1.48792 -3.99704 0
M  V30 10054 S 940.173 -3.06491 -4.39117 0
M  V30 10055 C 941.329 -2.56567 -5.70898 0
M  V30 10056 H 941.562 -1.87947 -2.30355 0
M  V30 10057 H 939.095 -1.06522 -1.1177 0
M  V30 10058 H 941.053 -0.149237 -4.10229 0
M  V30 10059 H 939.714 0.462045 -3.10683 0
M  V30 10060 H 938.907 -1.07706 -4.92357 0
M  V30 10061 H 938.509 -1.72826 -3.31673 0
M  V30 10062 H 940.801 -1.98508 -6.47766 0
M  V30 10063 H 941.744 -3.47755 -6.16824 0
M  V30 10064 H 942.152 -1.97465 -5.28836 0
M  V30 10065 N 941.55 1.18024 -1.04442 0
M  V30 10066 C 942.798 1.87727 -0.74854 0
M  V30 10067 C 943.119 1.80975 0.726156 0
M  V30 10068 O 942.389 1.23061 1.52423 0
M  V30 10069 H 940.969 0.694974 -0.273897 0
M  V30 10070 H 943.631 1.43213 -1.32197 0
M  V30 10071 H 942.727 2.93665 -1.05674 0
M  V30 10072 N 943.028 0.824394 1.34319 0
M  V30 10073 C 943.976 0.235628 2.31403 0
M  V30 10074 C 944.97 -0.624443 1.57471 0
M  V30 10075 O 946.176 -0.515618 1.72457 0
M  V30 10076 H 942.551 0.0574537 0.749802 0
M  V30 10077 H 944.522 1.06925 2.78585 0
M  V30 10078 C 943.271 -0.586617 3.42716 0
M  V30 10079 H 942.594 0.0658669 3.99746 0
M  V30 10080 H 944.034 -0.964661 4.1288 0
M  V30 10081 C 942.493 -1.75957 2.87299 0
M  V30 10082 O 943.023 -2.8578 2.82299 0
M  V30 10083 N 941.229 -1.57678 2.44102 0
M  V30 10084 H 940.776 -0.683436 2.48369 0
M  V30 10085 H 940.734 -2.36311 2.07375 0
M  V30 10086 N 944.506 -1.46559 0.579492 0
M  V30 10087 C 945.416 -2.34066 -0.15816 0
M  V30 10088 C 946.432 -1.49556 -0.88932 0
M  V30 10089 O 947.608 -1.82434 -0.853226 0
M  V30 10090 C 944.673 -3.26683 -1.161 0
M  V30 10091 C 943.734 -4.27092 -0.434855 0
M  V30 10092 C 942.967 -5.15283 -1.38992 0
M  V30 10093 O 943.19 -5.06345 -2.62623 0
M  V30 10094 O 942.124 -5.95099 -0.902253 0
M  V30 10095 H 945.95 -2.98488 0.560234 0
M  V30 10096 H 943.535 -1.45482 0.339918 0
M  V30 10097 H 945.417 -3.8383 -1.73932 0
M  V30 10098 H 944.092 -2.64862 -1.86091 0
M  V30 10099 H 942.999 -3.73641 0.185224 0
M  V30 10100 H 944.332 -4.9169 0.224031 0
M  V30 10101 N 945.984 -0.3171 -1.54377 0
M  V30 10102 C 946.931 0.551782 -2.24107 0
M  V30 10103 C 947.901 1.11681 -1.22949 0
M  V30 10104 O 949.086 1.15836 -1.51614 0
M  V30 10105 C 946.226 1.70997 -2.99756 0
M  V30 10106 C 945.339 1.17479 -4.15719 0
M  V30 10107 C 944.474 2.29815 -4.78914 0
M  V30 10108 C 943.513 1.73513 -5.86992 0
M  V30 10109 N 942.65 2.79485 -6.44075 0
M  V30 10110 H 947.49 -0.049431 -2.97959 0
M  V30 10111 H 945.027 -0.0361658 -1.47056 0
M  V30 10112 H 946.985 2.39141 -3.41859 0
M  V30 10113 H 945.615 2.28257 -2.28251 0
M  V30 10114 H 944.667 0.385109 -3.78446 0
M  V30 10115 H 945.979 0.72276 -4.93536 0
M  V30 10116 H 945.133 3.05875 -5.23952 0
M  V30 10117 H 943.872 2.78352 -4.00464 0
M  V30 10118 H 942.877 0.959475 -5.41363 0
M  V30 10119 H 944.102 1.2586 -6.67335 0
M  V30 10120 H 942.048 3.27325 -5.68502 0
M  V30 10121 H 941.965 2.38825 -7.17286 0
M  V30 10122 H 943.233 3.55394 -6.93769 0
M  V30 10123 N 947.462 1.57535 -0.0451378 0
M  V30 10124 C 948.702 1.9432 0.633955 0
M  V30 10125 C 949.066 0.922924 1.68363 0
M  V30 10126 O 950.267 1.17751 2.41636 0
M  V30 10127 C 948.538 3.35933 1.21999 0
M  V30 10128 S 950.097 3.94666 1.91793 0
M  V30 10129 H 946.915 0.679798 0.208318 0
M  V30 10130 H 949.517 1.95175 -0.112633 0
M  V30 10131 H 948.221 4.07993 0.443821 0
M  V30 10132 H 947.752 3.38559 2.00353 0
M  V30 10133 H 949.767 3.79401 3.19796 0
M  V30 10134 N 948.94 -0.228186 1.55939 0
M  V30 10135 C 950.165 -0.974795 1.83064 0
M  V30 10136 C 950.59 -1.77426 0.624624 0
M  V30 10137 O 949.948 -1.76211 -0.426556 0
M  V30 10138 C 949.996 -1.87342 3.08116 0
M  V30 10139 O 949.1 -2.96784 2.86344 0
M  V30 10140 H 948.441 -0.276379 0.603747 0
M  V30 10141 H 950.971 -0.243507 2.03146 0
M  V30 10142 H 950.981 -2.28451 3.38045 0
M  V30 10143 H 949.656 -1.28575 3.95526 0
M  V30 10144 H 948.233 -2.59669 2.67631 0
M  V30 10145 N 950.418 -1.49637 -0.494624 0
M  V30 10146 C 951.35 -1.62902 -1.61231 0
M  V30 10147 C 952.363 -0.511425 -1.54558 0
M  V30 10148 O 953.552 -0.783724 -1.60375 0
M  V30 10149 C 950.652 -1.57564 -3.00045 0
M  V30 10150 C 949.825 -2.84964 -3.31835 0
M  V30 10151 C 948.884 -2.72591 -4.5009 0
M  V30 10152 O 947.91 -3.46532 -4.51558 0
M  V30 10153 N 949.112 -1.84563 -5.50379 0
M  V30 10154 H 951.877 -2.59301 -1.50276 0
M  V30 10155 H 949.438 -1.46806 -0.68262 0
M  V30 10156 H 951.43 -1.46932 -3.77085 0
M  V30 10157 H 950 -0.689974 -3.0489 0
M  V30 10158 H 949.22 -3.099 -2.4363 0
M  V30 10159 H 950.508 -3.69412 -3.49875 0
M  V30 10160 H 949.906 -1.23758 -5.51997 0
M  V30 10161 H 948.463 -1.79849 -6.26496 0
M  V30 10162 N 951.896 0.746133 -1.38819 0
M  V30 10163 C 952.846 1.85085 -1.33145 0
M  V30 10164 C 953.83 1.59466 -0.214339 0
M  V30 10165 O 955.022 1.71159 -0.450943 0
M  V30 10166 C 952.151 3.22884 -1.16623 0
M  V30 10167 C 951.237 3.54369 -2.32988 0
M  V30 10168 N 951.628 3.56863 -3.58445 0
M  V30 10169 C 949.926 3.84674 -2.25703 0
M  V30 10170 C 950.627 3.85827 -4.3533 0
M  V30 10171 N 949.603 4.03037 -3.64777 0
M  V30 10172 H 953.405 1.85301 -2.28124 0
M  V30 10173 H 950.919 0.943847 -1.32156 0
M  V30 10174 H 952.916 4.0195 -1.10642 0
M  V30 10175 H 951.576 3.23914 -0.225841 0
M  V30 10176 H 952.587 3.38443 -3.92017 0
M  V30 10177 H 949.264 3.93375 -1.39864 0
M  V30 10178 H 950.654 3.94317 -5.44025 0
M  V30 10179 N 953.375 1.23811 0.975125 0
M  V30 10180 C 954.325 0.991036 2.05335 0
M  V30 10181 C 955.309 -0.0648793 1.60769 0
M  V30 10182 O 956.501 0.147917 1.76381 0
M  V30 10183 C 953.63 0.589822 3.38195 0
M  V30 10184 C 952.716 1.68142 3.89344 0
M  V30 10185 N 953.107 2.91274 4.13513 0
M  V30 10186 C 951.405 1.55722 4.17931 0
M  V30 10187 C 952.106 3.61987 4.55347 0
M  V30 10188 N 951.082 2.8952 4.60086 0
M  V30 10189 H 954.884 1.92612 2.21986 0
M  V30 10190 H 952.398 1.13827 1.15832 0
M  V30 10191 H 954.395 0.394075 4.15033 0
M  V30 10192 H 953.055 -0.338157 3.22934 0
M  V30 10193 H 954.066 3.27528 4.01181 0
M  V30 10194 H 950.743 0.696732 4.11645 0
M  V30 10195 H 952.133 4.67572 4.8252 0
M  V30 10196 N 954.853 -1.17469 1.05066 0
M  V30 10197 C 956.269 -1.39699 0.771769 0
M  V30 10198 C 956.469 -1.91253 -0.634382 0
M  V30 10199 O 955.525 -2.10334 -1.39699 0
M  V30 10200 C 956.838 -2.38886 1.82631 0
M  V30 10201 C 958.386 -2.52595 1.84838 0
M  V30 10202 C 958.861 -3.55054 2.89311 0
M  V30 10203 N 960.352 -3.6257 2.88266 0
M  V30 10204 C 961.087 -4.41603 3.65752 0
M  V30 10205 N 960.583 -5.24162 4.53019 0
M  V30 10206 N 962.376 -4.36464 3.54197 0
M  V30 10207 H 954.527 -0.823355 1.95792 0
M  V30 10208 H 956.79 -0.42432 0.847736 0
M  V30 10209 H 956.496 -2.08075 2.83545 0
M  V30 10210 H 956.37 -3.38371 1.66687 0
M  V30 10211 H 958.757 -2.82717 0.845888 0
M  V30 10212 H 958.838 -1.53188 2.04859 0
M  V30 10213 H 958.482 -3.2567 3.89745 0
M  V30 10214 H 958.412 -4.54162 2.66542 0
M  V30 10215 H 960.903 -3.03625 2.24989 0
M  V30 10216 H 961.216 -5.81646 5.0883 0
M  V30 10217 H 959.561 -5.23547 4.57081 0
M  V30 10218 H 962.752 -3.7102 2.85416 0
M  V30 10219 H 962.925 -4.97814 4.14832 0
M  V30 10220 N 956.331 -0.831506 -1.3388 0
M  V30 10221 C 957.579 -0.422837 -1.97627 0
M  V30 10222 C 957.9 1.01961 -1.6622 0
M  V30 10223 O 957.17 1.70916 -0.957323 0
M  V30 10224 H 955.75 -0.153365 -0.731087 0
M  V30 10225 H 958.412 -1.06284 -1.6337 0
M  V30 10226 H 957.508 -0.548858 -3.07236 0
M  V30 10227 N 957.809 1.4625 -0.587256 0
M  V30 10228 C 958.756 2.30354 0.143384 0
M  V30 10229 C 959.726 1.40891 0.879716 0
M  V30 10230 O 960.911 1.69837 0.869486 0
M  V30 10231 C 958.051 3.25441 1.14815 0
M  V30 10232 C 957.164 4.30004 0.414792 0
M  V30 10233 C 956.299 5.12214 1.40748 0
M  V30 10234 C 955.338 6.08523 0.660786 0
M  V30 10235 N 954.475 6.83585 1.60176 0
M  V30 10236 H 959.315 2.92304 -0.579866 0
M  V30 10237 H 956.852 1.44055 -0.29777 0
M  V30 10238 H 958.81 3.79018 1.7436 0
M  V30 10239 H 957.44 2.6529 1.83906 0
M  V30 10240 H 956.492 3.79248 -0.295787 0
M  V30 10241 H 957.804 4.98515 -0.168738 0
M  V30 10242 H 956.958 5.70091 2.0756 0
M  V30 10243 H 955.697 4.43675 2.02494 0
M  V30 10244 H 954.702 5.49796 -0.0210864 0
M  V30 10245 H 955.927 6.79083 0.0486551 0
M  V30 10246 H 953.873 6.17752 2.20724 0
M  V30 10247 H 953.79 7.48373 1.07115 0
M  V30 10248 H 955.058 7.46016 2.26009 0
M  V30 10249 N 959.287 0.325282 1.54207 0
M  V30 10250 C 960.533 -0.277185 2.00897 0
M  V30 10251 C 960.866 -1.51651 1.21308 0
M  V30 10252 O 960.141 -1.92237 0.295825 0
M  V30 10253 C 960.424 -0.60961 3.54902 0
M  V30 10254 C 960.277 0.640542 4.45216 0
M  V30 10255 C 961.596 -1.42656 4.16338 0
M  V30 10256 H 958.715 -0.0992722 0.730284 0
M  V30 10257 H 961.357 0.442201 1.84783 0
M  V30 10258 H 959.507 -1.22249 3.68765 0
M  V30 10259 H 961.179 1.27878 4.43221 0
M  V30 10260 H 959.422 1.26908 4.14821 0
M  V30 10261 H 960.093 0.363459 5.50802 0
M  V30 10262 H 962.569 -0.908494 4.06061 0
M  V30 10263 H 961.445 -1.62792 5.24204 0
M  V30 10264 H 961.706 -2.42321 3.69774 0
M  V30 10265 N 960.765 -1.57509 0.0534917 0
M  V30 10266 C 961.993 -1.97098 -0.629298 0
M  V30 10267 C 962.408 -0.931128 -1.64242 0
M  V30 10268 O 961.765 0.0843866 -1.82305 0
M  V30 10269 C 961.816 -3.36767 -1.31415 0
M  V30 10270 O 961.537 -4.36766 -0.341599 0
M  V30 10271 C 963.038 -3.91127 -2.08649 0
M  V30 10272 H 960.258 -0.648611 -0.171886 0
M  V30 10273 H 962.802 -2.04145 0.120479 0
M  V30 10274 H 960.957 -3.30863 -2.01515 0
M  V30 10275 H 961.371 -5.1788 -0.830715 0
M  V30 10276 H 962.845 -4.91129 -2.51985 0
M  V30 10277 H 963.322 -3.26679 -2.9356 0
M  V30 10278 H 963.928 -4.00376 -1.43456 0
M  V30 10279 N 962.243 0.219913 -1.56058 0
M  V30 10280 C 963.173 1.27572 -1.9557 0
M  V30 10281 C 964.154 1.48801 -0.824148 0
M  V30 10282 O 965.339 1.60957 -1.08658 0
M  V30 10283 C 962.469 2.62517 -2.27381 0
M  V30 10284 C 961.423 2.55941 -3.43042 0
M  V30 10285 C 960.749 3.94931 -3.60463 0
M  V30 10286 C 962.049 2.10584 -4.77966 0
M  V30 10287 H 963.743 0.947482 -2.84013 0
M  V30 10288 H 961.289 0.454337 -1.36645 0
M  V30 10289 H 963.242 3.36538 -2.53615 0
M  V30 10290 H 961.966 2.97031 -1.35794 0
M  V30 10291 H 960.625 1.84377 -3.1686 0
M  V30 10292 H 960.273 4.26756 -2.66249 0
M  V30 10293 H 959.973 3.91413 -4.38258 0
M  V30 10294 H 961.497 4.70611 -3.89046 0
M  V30 10295 H 962.911 2.74349 -5.03394 0
M  V30 10296 H 961.308 2.18122 -5.59055 0
M  V30 10297 H 962.378 1.05818 -4.73213 0
M  V30 10298 N 963.721 1.49897 0.486681 0
M  V30 10299 C 964.669 1.68125 1.60738 0
M  V30 10300 C 965.663 0.547097 1.60322 0
M  V30 10301 O 966.869 0.727153 1.64659 0
M  V30 10302 H 963.244 0.530391 0.533094 0
M  V30 10303 H 965.215 2.62165 1.42521 0
M  V30 10304 C 963.964 1.77827 2.98786 0
M  V30 10305 H 963.287 2.6448 2.99818 0
M  V30 10306 H 964.727 1.94611 3.76699 0
M  V30 10307 C 963.186 0.526287 3.32764 0
M  V30 10308 O 963.716 -0.341607 4.00245 0
M  V30 10309 N 961.922 0.384947 2.88039 0
M  V30 10310 H 961.469 1.09222 2.33299 0
M  V30 10311 H 961.427 -0.451618 3.11139 0
M  V30 10312 N 965.199 -0.738761 1.39212 0
M  V30 10313 C 966.109 -1.88324 1.39897 0
M  V30 10314 C 967.125 -1.71494 0.294229 0
M  V30 10315 O 968.301 -1.94162 0.535087 0
M  V30 10316 C 965.366 -3.23871 1.23726 0
M  V30 10317 C 964.427 -3.53121 2.44139 0
M  V30 10318 C 963.66 -4.82202 2.2873 0
M  V30 10319 O 963.883 -5.55649 1.28879 0
M  V30 10320 O 962.817 -5.11265 3.17634 0
M  V30 10321 H 966.643 -1.90701 2.36362 0
M  V30 10322 H 964.228 -0.886067 1.20288 0
M  V30 10323 H 966.11 -4.04882 1.16826 0
M  V30 10324 H 964.785 -3.22274 0.303551 0
M  V30 10325 H 963.692 -2.72212 2.56615 0
M  V30 10326 H 965.025 -3.59495 3.36191 0
M  V30 10327 N 966.677 -1.24326 -0.968545 0
M  V30 10328 C 967.902 -1.1104 -1.75171 0
M  V30 10329 C 968.327 0.333109 -1.85127 0
M  V30 10330 O 967.685 1.24115 -1.32156 0
M  V30 10331 C 967.733 -1.75397 -3.15068 0
M  V30 10332 O 966.837 -1.02417 -3.9948 0
M  V30 10333 H 966.178 -0.388488 -0.538491 0
M  V30 10334 H 968.708 -1.64617 -1.215 0
M  V30 10335 H 968.718 -1.8112 -3.65595 0
M  V30 10336 H 967.393 -2.80427 -3.07138 0
M  V30 10337 H 965.97 -1.04475 -3.57966 0
M  V30 10338 N 968.156 1.1691 -1.05688 0
M  V30 10339 C 969.066 2.24735 -0.67315 0
M  V30 10340 C 970.082 1.71252 0.308043 0
M  V30 10341 O 971.258 2.00772 0.158889 0
M  V30 10342 C 968.323 3.4665 -0.059026 0
M  V30 10343 C 967.384 4.15198 -1.0913 0
M  V30 10344 C 966.617 5.31292 -0.50639 0
M  V30 10345 O 966.84 5.663 0.682692 0
M  V30 10346 O 965.774 5.88923 -1.2431 0
M  V30 10347 H 969.6 2.59855 -1.57191 0
M  V30 10348 H 967.185 1.24306 -0.828751 0
M  V30 10349 H 969.067 4.20455 0.282018 0
M  V30 10350 H 967.742 3.13316 0.813304 0
M  V30 10351 H 966.649 3.43389 -1.48442 0
M  V30 10352 H 967.982 4.52571 -1.93495 0
M  V30 10353 N 969.634 0.838594 1.33437 0
M  V30 10354 C 970.883 0.430484 1.97053 0
M  V30 10355 C 971.196 -1.01556 1.6717 0
M  V30 10356 O 972.402 -1.52834 2.24397 0
M  V30 10357 C 970.858 0.718828 3.52648 0
M  V30 10358 C 970.466 2.17953 3.91408 0
M  V30 10359 C 972.21 0.377654 4.22817 0
M  V30 10360 C 970.117 2.41194 5.39981 0
M  V30 10361 H 969.047 0.157239 0.737422 0
M  V30 10362 H 971.698 1.02714 1.5206 0
M  V30 10363 H 970.08 0.0518042 3.95966 0
M  V30 10364 H 971.254 2.88701 3.59149 0
M  V30 10365 H 969.569 2.48366 3.34221 0
M  V30 10366 H 972.166 0.528926 5.32077 0
M  V30 10367 H 972.509 -0.679338 4.1072 0
M  V30 10368 H 973.042 0.999899 3.85028 0
M  V30 10369 H 969.781 3.45457 5.57081 0
M  V30 10370 H 969.301 1.75007 5.73701 0
M  V30 10371 H 970.98 2.24334 6.06863 0
M  V30 10372 N 971.112 -1.45937 0.595003 0
M  V30 10373 C 972.352 -2.0421 0.0881479 0
M  V30 10374 C 972.716 -1.45498 -1.25277 0
M  V30 10375 O 973.917 -1.95047 -1.8496 0
M  V30 10376 C 972.188 -3.57382 0.0362346 0
M  V30 10377 S 973.747 -4.36869 -0.41126 0
M  V30 10378 H 970.565 -0.709672 0.0434424 0
M  V30 10379 H 973.167 -1.78815 0.790273 0
M  V30 10380 H 971.871 -3.97628 1.0159 0
M  V30 10381 H 971.402 -3.87332 -0.688278 0
M  V30 10382 H 973.417 -4.67486 -1.66347 0
M  V30 10383 N 972.59 -0.333456 -1.54032 0
M  V30 10384 C 973.553 0.515392 -2.2333 0
M  V30 10385 C 974.553 1.03566 -1.23007 0
M  V30 10386 O 975.743 0.926514 -1.47517 0
M  V30 10387 C 972.875 1.7169 -2.94508 0
M  V30 10388 H 974.068 -0.0905407 -2.99763 0
M  V30 10389 H 971.621 -0.0846651 -1.56071 0
M  V30 10390 H 972.356 2.3618 -2.22237 0
M  V30 10391 H 972.141 1.35115 -3.68085 0
M  V30 10392 H 973.631 2.31922 -3.47278 0
M  V30 10393 N 974.068 1.57479 -0.061844 0
M  V30 10394 C 975.316 1.92727 0.608336 0
M  V30 10395 C 975.637 0.941799 1.70749 0
M  V30 10396 O 974.907 -0.0116608 1.95897 0
M  V30 10397 H 973.487 0.71145 0.2277 0
M  V30 10398 H 976.149 1.94546 -0.117359 0
M  V30 10399 H 975.245 2.9426 1.04007 0
M  V30 10400 N 975.546 -0.211634 1.56173 0
M  V30 10401 C 976.509 -1.24588 1.92381 0
M  V30 10402 C 977.509 -1.39297 0.803311 0
M  V30 10403 O 978.699 -1.37392 1.07094 0
M  V30 10404 C 975.831 -2.61807 2.18335 0
M  V30 10405 H 977.024 -0.936814 2.84893 0
M  V30 10406 H 974.577 -0.452471 1.49607 0
M  V30 10407 H 975.312 -2.97795 1.28407 0
M  V30 10408 H 975.097 -2.52506 2.99972 0
M  V30 10409 H 976.587 -3.3642 2.4741 0
M  V30 10410 N 977.024 -1.50153 -0.478725 0
M  V30 10411 C 977.934 -1.71232 -1.60364 0
M  V30 10412 C 978.95 -0.595269 -1.63501 0
M  V30 10413 O 980.126 -0.872683 -1.81511 0
M  V30 10414 C 977.191 -1.79487 -2.96623 0
M  V30 10415 C 976.252 -3.03185 -3.03937 0
M  V30 10416 C 975.485 -3.11036 -4.33696 0
M  V30 10417 O 975.708 -2.2588 -5.23769 0
M  V30 10418 O 974.642 -4.03698 -4.46443 0
M  V30 10419 H 978.468 -2.66575 -1.45505 0
M  V30 10420 H 976.053 -1.34158 -0.65741 0
M  V30 10421 H 977.935 -1.8714 -3.77567 0
M  V30 10422 H 976.61 -0.873264 -3.11698 0
M  V30 10423 H 975.517 -3.01036 -2.22099 0
M  V30 10424 H 976.85 -3.94898 -2.93796 0
M  V30 10425 N 978.502 0.731368 -1.39602 0
M  V30 10426 C 979.449 1.84541 -1.38612 0
M  V30 10427 C 980.419 1.64279 -0.245287 0
M  V30 10428 O 981.604 1.85635 -0.440954 0
M  V30 10429 C 978.744 3.22092 -1.23897 0
M  V30 10430 C 977.857 3.54034 -2.47555 0
M  V30 10431 C 976.992 4.81007 -2.25402 0
M  V30 10432 C 976.031 5.05804 -3.44716 0
M  V30 10433 N 975.168 6.23981 -3.21857 0
M  V30 10434 H 980.008 1.84722 -2.33841 0
M  V30 10435 H 977.545 0.902569 -1.16156 0
M  V30 10436 H 979.503 4.01499 -1.13376 0
M  V30 10437 H 978.133 3.2118 -0.322958 0
M  V30 10438 H 977.185 2.69301 -2.68665 0
M  V30 10439 H 978.497 3.68275 -3.36415 0
M  V30 10440 H 977.651 5.68401 -2.12143 0
M  V30 10441 H 976.39 4.68946 -1.33943 0
M  V30 10442 H 975.395 4.1687 -3.58468 0
M  V30 10443 H 976.62 5.19747 -4.37081 0
M  V30 10444 H 974.566 6.13202 -2.33065 0
M  V30 10445 H 974.483 6.38826 -4.04274 0
M  V30 10446 H 975.751 7.14205 -3.123 0
M  V30 10447 N 979.98 1.24838 0.961938 0
M  V30 10448 C 981.229 1.0855 1.69999 0
M  V30 10449 C 981.542 -0.374645 1.91979 0
M  V30 10450 O 982.748 -0.657822 2.6341 0
M  V30 10451 C 981.204 1.89424 3.06017 0
M  V30 10452 C 980.812 3.39885 2.9186 0
M  V30 10453 C 982.556 1.81684 3.83655 0
M  V30 10454 C 980.463 4.13082 4.23223 0
M  V30 10455 H 979.393 0.402603 0.637516 0
M  V30 10456 H 982.044 1.4897 1.07146 0
M  V30 10457 H 980.426 1.41823 3.69733 0
M  V30 10458 H 981.6 3.95108 2.37121 0
M  V30 10459 H 979.915 3.4864 2.27683 0
M  V30 10460 H 982.512 2.3367 4.80939 0
M  V30 10461 H 982.855 0.783247 4.08865 0
M  V30 10462 H 983.388 2.26997 3.26676 0
M  V30 10463 H 980.127 5.16824 4.03204 0
M  V30 10464 H 979.647 3.62644 4.77755 0
M  V30 10465 H 981.326 4.20397 4.91808 0
M  V30 10466 N 981.458 -1.16348 1.06306 0
M  V30 10467 C 982.706 -1.86512 0.778311 0
M  V30 10468 C 983.027 -1.82107 -0.697273 0
M  V30 10469 O 982.297 -1.2547 -1.50446 0
M  V30 10470 H 980.877 -0.690529 0.284919 0
M  V30 10471 H 983.539 -1.41092 1.34458 0
M  V30 10472 H 982.635 -2.91947 1.10333 0
M  V30 10473 N 982.937 -0.845659 -1.3299 0
M  V30 10474 C 984.162 -0.457435 -2.02293 0
M  V30 10475 C 984.587 0.935634 -1.63179 0
M  V30 10476 O 983.945 1.61297 -0.827835 0
M  V30 10477 C 983.993 -0.593665 -3.5568 0
M  V30 10478 O 983.097 0.37729 -4.10671 0
M  V30 10479 H 982.438 -0.185022 -0.637701 0
M  V30 10480 H 984.968 -1.14237 -1.69738 0
M  V30 10481 H 984.978 -0.477834 -4.05192 0
M  V30 10482 H 983.653 -1.60957 -3.83491 0
M  V30 10483 H 982.23 0.218448 -3.7226 0
M  V30 10484 N 984.415 1.45619 -0.602734 0
M  V30 10485 C 985.663 2.01873 -0.095844 0
M  V30 10486 C 985.984 1.47427 1.27633 0
M  V30 10487 O 985.254 0.666652 1.84208 0
M  V30 10488 H 983.834 0.746295 -0.0324408 0
M  V30 10489 H 986.496 1.78478 -0.783037 0
M  V30 10490 H 985.592 3.12072 -0.0419507 0
M  V30 10491 N 985.893 0.34162 1.53853 0
M  V30 10492 C 987.304 -0.14269 1.86154 0
M  V30 10493 C 987.655 -1.50151 1.2629 0
M  V30 10494 O 986.78 -2.08601 0.575735 0
M  V30 10495 C 987.375 -0.265691 3.37757 0
M  V30 10496 C 985.934 -0.694231 3.69942 0
M  V30 10497 C 985.081 0.173195 2.76759 0
M  V30 10498 H 988.032 0.561284 1.48443 0
M  V30 10499 H 988.053 -1.09352 3.64448 0
M  V30 10500 H 987.565 0.723424 3.81298 0
M  V30 10501 H 985.666 -1.69244 3.31945 0
M  V30 10502 H 985.779 -0.485461 4.76634 0
M  V30 10503 H 984.143 -0.35416 2.52226 0
M  V30 10504 H 984.926 1.15941 3.23129 0
M  V30 10505 N 987.371 -1.57444 0.0701946 0
M  V30 10506 C 988.611 -1.95304 -0.60296 0
M  V30 10507 C 988.975 -0.949592 -1.66873 0
M  V30 10508 O 990.176 -1.2158 -2.39733 0
M  V30 10509 C 988.447 -3.37831 -1.16639 0
M  V30 10510 S 990.006 -3.97667 -1.8549 0
M  V30 10511 H 986.824 -0.683026 -0.197476 0
M  V30 10512 H 989.426 -1.94971 0.143669 0
M  V30 10513 H 988.13 -4.08648 -0.378856 0
M  V30 10514 H 987.661 -3.41704 -1.94942 0
M  V30 10515 H 989.676 -3.84441 -3.13719 0
M  V30 10516 N 988.849 0.203349 -1.56283 0
M  V30 10517 C 989.759 1.27266 -1.9708 0
M  V30 10518 C 990.775 1.50268 -0.877236 0
M  V30 10519 O 991.951 1.63044 -1.18231 0
M  V30 10520 C 989.016 2.59871 -2.29495 0
M  V30 10521 C 988.077 2.45012 -3.52516 0
M  V30 10522 C 987.31 3.71293 -3.83376 0
M  V30 10523 O 987.533 4.75106 -3.15643 0
M  V30 10524 O 986.467 3.67316 -4.76826 0
M  V30 10525 H 990.293 0.956461 -2.88246 0
M  V30 10526 H 987.878 0.407688 -1.4373 0
M  V30 10527 H 989.76 3.38152 -2.51458 0
M  V30 10528 H 988.435 2.91135 -1.415 0
M  V30 10529 H 987.342 1.6487 -3.35811 0
M  V30 10530 H 988.675 2.18683 -4.40952 0
M  V30 10531 N 990.327 1.50405 0.470755 0
M  V30 10532 C 991.575 1.61092 1.2204 0
M  V30 10533 C 991.896 0.313487 1.92464 0
M  V30 10534 O 991.166 -0.669043 1.84121 0
M  V30 10535 H 989.746 0.593618 0.45346 0
M  V30 10536 H 992.408 1.87184 0.542985 0
M  V30 10537 H 991.504 2.42222 1.96812 0
M  V30 10538 N 991.805 -0.723954 1.39988 0
M  V30 10539 C 993.082 -1.4763 1.28316 0
M  V30 10540 C 993.462 -2.10852 -0.102302 0
M  V30 10541 O 992.81 -1.9948 -1.11445 0
M  V30 10542 C 993.02 -2.51878 2.41574 0
M  V30 10543 C 994.368 -3.17948 2.81415 0
M  V30 10544 O 995.392 -2.62195 2.41106 0
M  V30 10545 O 994.251 -4.18858 3.51027 0
M  V30 10546 H 991.345 -0.656092 0.50346 0
M  V30 10547 H 993.891 -0.75684 1.51888 0
M  V30 10548 H 992.663 -2.03618 3.34149 0
M  V30 10549 H 992.286 -3.3137 2.19727 0
M  V30 10550 N 993.283 -1.25346 -0.955304 0
M  V30 10551 C 994.513 -1.12629 -1.732 0
M  V30 10552 C 994.921 0.322748 -1.86427 0
M  V30 10553 O 994.264 1.23381 -1.36099 0
M  V30 10554 C 994.326 -1.7064 -3.16421 0
M  V30 10555 C 993.99 -3.19632 -3.26626 0
M  V30 10556 C 994.987 -4.1663 -3.10991 0
M  V30 10557 C 992.672 -3.59829 -3.50468 0
M  V30 10558 C 994.666 -5.51806 -3.19043 0
M  V30 10559 C 992.353 -4.95143 -3.58157 0
M  V30 10560 C 993.351 -5.90941 -3.42459 0
M  V30 10561 O 993.039 -7.23792 -3.49828 0
M  V30 10562 H 992.771 -0.393646 -0.549562 0
M  V30 10563 H 995.325 -1.66184 -1.20715 0
M  V30 10564 H 993.555 -1.11532 -3.70267 0
M  V30 10565 H 995.244 -1.53032 -3.75947 0
M  V30 10566 H 996.01 -3.86915 -2.92441 0
M  V30 10567 H 991.889 -2.8576 -3.61749 0
M  V30 10568 H 995.433 -6.26559 -3.06707 0
M  V30 10569 H 991.33 -5.24525 -3.76224 0
M  V30 10570 H 992.098 -7.31879 -3.66463 0
M  V30 10571 N 994.761 1.15782 -1.06922 0
M  V30 10572 C 996.009 1.86097 -0.788192 0
M  V30 10573 C 996.33 1.82475 0.687606 0
M  V30 10574 O 995.6 1.26266 1.49778 0
M  V30 10575 H 994.18 0.689008 -0.288577 0
M  V30 10576 H 996.842 1.40377 -1.35205 0
M  V30 10577 H 995.938 2.91358 -1.1188 0
M  V30 10578 N 996.239 0.8527 1.3254 0
M  V30 10579 C 997.487 0.454224 1.96929 0
M  V30 10580 C 997.808 -0.993034 1.67821 0
M  V30 10581 O 997.078 -1.69371 0.984393 0
M  V30 10582 H 995.658 0.164977 0.728554 0
M  V30 10583 H 998.32 1.0887 1.61658 0
M  V30 10584 H 997.416 0.597667 3.06324 0
M  V30 10585 N 997.718 -1.45297 0.610449 0
M  V30 10586 C 999.129 -1.85715 0.191488 0
M  V30 10587 C 999.48 -1.51036 -1.25229 0
M  V30 10588 O 998.605 -0.938422 -1.94994 0
M  V30 10589 C 999.2 -3.37082 0.340747 0
M  V30 10590 C 997.759 -3.76393 -0.0235433 0
M  V30 10591 C 996.906 -2.69237 0.663849 0
M  V30 10592 H 999.857 -1.36058 0.816948 0
M  V30 10593 H 999.878 -3.78105 -0.426233 0
M  V30 10594 H 999.39 -3.62291 1.39164 0
M  V30 10595 H 997.491 -3.56801 -1.07351 0
M  V30 10596 H 997.604 -4.77653 0.372102 0
M  V30 10597 H 995.968 -2.54499 0.101204 0
M  V30 10598 H 996.751 -2.97281 1.71694 0
M  V30 10599 N 999.196 -0.349774 -1.5367 0
M  V30 10600 C 1000.13 0.496338 -2.28164 0
M  V30 10601 C 1001.11 1.09737 -1.29968 0
M  V30 10602 O 1002.29 1.11759 -1.58819 0
M  V30 10603 C 999.422 1.64428 -3.0591 0
M  V30 10604 C 998.376 1.17127 -4.11661 0
M  V30 10605 C 997.702 2.40822 -4.77398 0
M  V30 10606 C 999.002 0.267293 -5.21616 0
M  V30 10607 H 1000.7 -0.125117 -2.99138 0
M  V30 10608 H 998.242 -0.0616152 -1.43868 0
M  V30 10609 H 1000.19 2.2427 -3.56765 0
M  V30 10610 H 998.919 2.29272 -2.32598 0
M  V30 10611 H 997.578 0.595634 -3.61729 0
M  V30 10612 H 997.226 3.04088 -4.00674 0
M  V30 10613 H 996.926 2.09852 -5.48849 0
M  V30 10614 H 998.45 3.01378 -5.3104 0
M  V30 10615 H 999.864 0.772734 -5.68068 0
M  V30 10616 H 998.261 0.0491991 -6.0008 0
M  V30 10617 H 999.331 -0.694892 -4.79895 0
M  V30 10618 N 1000.67 1.57404 -0.0785433 0
M  V30 10619 C 1001.92 1.94031 0.589896 0
M  V30 10620 C 1002.25 0.959297 1.68852 0
M  V30 10621 O 1001.53 -0.0103978 1.94497 0
M  V30 10622 C 1001.81 3.40886 1.16055 0
M  V30 10623 C 1001.66 4.49748 0.0681072 0
M  V30 10624 C 1002.98 3.88699 2.06401 0
M  V30 10625 H 1000.1 0.70556 0.212965 0
M  V30 10626 H 1002.74 1.89439 -0.145886 0
M  V30 10627 H 1000.89 3.4493 1.78761 0
M  V30 10628 H 1002.57 4.57823 -0.565318 0
M  V30 10629 H 1000.81 4.29625 -0.600431 0
M  V30 10630 H 1001.48 5.49658 0.507906 0
M  V30 10631 H 1003.96 3.86703 1.53622 0
M  V30 10632 H 1002.83 4.92052 2.43261 0
M  V30 10633 H 1003.09 3.2703 2.97496 0
M  V30 10634 N 1002.15 -0.195058 1.56388 0
M  V30 10635 C 1003.39 -0.92221 1.82413 0
M  V30 10636 C 1003.76 -1.80444 0.656037 0
M  V30 10637 O 1004.96 -2.56738 0.796182 0
M  V30 10638 C 1003.23 -1.71687 3.13462 0
M  V30 10639 S 1004.79 -2.49604 3.60892 0
M  V30 10640 H 1001.6 -0.309316 0.640191 0
M  V30 10641 H 1004.21 -0.185613 1.94617 0
M  V30 10642 H 1002.91 -1.05936 3.96492 0
M  V30 10643 H 1002.44 -2.49529 3.04137 0
M  V30 10644 H 1004.46 -3.73794 3.26332 0
M  V30 10645 N 1003.63 -1.50653 -0.462772 0
M  V30 10646 C 1004.54 -1.72923 -1.58539 0
M  V30 10647 C 1005.56 -0.612577 -1.6286 0
M  V30 10648 O 1006.73 -0.891885 -1.80575 0
M  V30 10649 C 1003.8 -1.82623 -2.94703 0
M  V30 10650 C 1002.86 -3.06392 -3.00704 0
M  V30 10651 C 1002.09 -3.15618 -4.30373 0
M  V30 10652 O 1002.31 -2.31423 -5.21344 0
M  V30 10653 O 1001.25 -4.0841 -4.42136 0
M  V30 10654 H 1005.07 -2.68103 -1.42669 0
M  V30 10655 H 1002.66 -1.34848 -0.643144 0
M  V30 10656 H 1004.54 -1.91134 -3.7556 0
M  V30 10657 H 1003.22 -0.906275 -3.10754 0
M  V30 10658 H 1002.12 -3.03375 -2.18894 0
M  V30 10659 H 1003.46 -3.97992 -2.89591 0
M  V30 10660 N 1005.11 0.71652 -1.4037 0
M  V30 10661 C 1006.04 1.84138 -1.36477 0
M  V30 10662 C 1007.05 1.6054 -0.27033 0
M  V30 10663 O 1008.24 1.70431 -0.530612 0
M  V30 10664 C 1005.34 3.20523 -1.10082 0
M  V30 10665 C 1004.52 3.71326 -2.31162 0
M  V30 10666 C 1003.57 4.86322 -2.00942 0
M  V30 10667 O 1002.6 4.99022 -2.73799 0
M  V30 10668 N 1003.8 5.72051 -0.986812 0
M  V30 10669 H 1006.57 1.87977 -2.3342 0
M  V30 10670 H 1004.13 0.89802 -1.34712 0
M  V30 10671 H 1006.12 3.95049 -0.878526 0
M  V30 10672 H 1004.69 3.11838 -0.21809 0
M  V30 10673 H 1003.91 2.87941 -2.69227 0
M  V30 10674 H 1005.2 4.02003 -3.11883 0
M  V30 10675 H 1004.6 5.64399 -0.383381 0
M  V30 10676 H 1003.15 6.46565 -0.824419 0
M  V30 10677 N 1006.59 1.25851 0.948643 0
M  V30 10678 C 1007.54 1.03437 2.03187 0
M  V30 10679 C 1008.52 -0.0307632 1.60871 0
M  V30 10680 O 1009.71 0.185296 1.76027 0
M  V30 10681 C 1006.84 0.661426 3.36868 0
M  V30 10682 C 1005.93 1.76363 3.8569 0
M  V30 10683 N 1006.32 2.9998 4.07241 0
M  V30 10684 C 1004.62 1.64552 4.14534 0
M  V30 10685 C 1005.32 3.71564 4.47566 0
M  V30 10686 N 1004.29 2.99214 4.53841 0
M  V30 10687 H 1008.1 1.97277 2.17851 0
M  V30 10688 H 1005.61 1.16258 1.13392 0
M  V30 10689 H 1007.61 0.482021 4.14104 0
M  V30 10690 H 1006.27 -0.269582 3.23579 0
M  V30 10691 H 1007.28 3.35963 3.94143 0
M  V30 10692 H 1003.95 0.783891 4.10075 0
M  V30 10693 H 1005.34 4.77702 4.72494 0
M  V30 10694 N 1008.06 -1.15214 1.07534 0
M  V30 10695 C 1009.01 -2.20013 0.697337 0
M  V30 10696 C 1009.98 -1.6314 -0.312168 0
M  V30 10697 O 1011.17 -1.89768 -0.198196 0
M  V30 10698 C 1008.31 -3.44945 0.103293 0
M  V30 10699 C 1007.42 -4.16009 1.1645 0
M  V30 10700 C 1006.55 -5.28496 0.535261 0
M  V30 10701 C 1005.59 -5.9138 1.57912 0
M  V30 10702 N 1004.73 -6.95335 0.972332 0
M  V30 10703 H 1009.57 -2.51698 1.59538 0
M  V30 10704 H 1007.11 -1.2361 0.797431 0
M  V30 10705 H 1009.07 -4.16397 -0.258766 0
M  V30 10706 H 1007.7 -3.13772 -0.758096 0
M  V30 10707 H 1006.75 -3.43035 1.64411 0
M  V30 10708 H 1008.06 -4.58853 1.9559 0
M  V30 10709 H 1007.21 -6.06579 0.120942 0
M  V30 10710 H 1005.95 -4.8685 -0.287889 0
M  V30 10711 H 1004.96 -5.12008 2.0032 0
M  V30 10712 H 1006.18 -6.35103 2.40459 0
M  V30 10713 H 1004.13 -6.55779 0.170119 0
M  V30 10714 H 1004.05 -7.36616 1.70095 0
M  V30 10715 H 1005.31 -7.77312 0.583577 0
M  V30 10716 N 1009.54 -0.859717 -1.32086 0
M  V30 10717 C 1010.48 -0.252764 -2.26796 0
M  V30 10718 C 1011.45 0.612178 -1.50636 0
M  V30 10719 O 1012.64 0.567865 -1.79743 0
M  V30 10720 C 1009.76 0.643017 -3.3254 0
M  V30 10721 C 1008.81 -0.149211 -4.26239 0
M  V30 10722 S 1009.64 -1.52097 -5.13446 0
M  V30 10723 C 1010.8 -0.631035 -6.22711 0
M  V30 10724 H 1011.03 -1.05563 -2.77928 0
M  V30 10725 H 1008.57 -0.657639 -1.39694 0
M  V30 10726 H 1010.52 1.15418 -3.9394 0
M  V30 10727 H 1009.18 1.41974 -2.80183 0
M  V30 10728 H 1008.38 0.53328 -5.01171 0
M  V30 10729 H 1007.98 -0.592128 -3.69283 0
M  V30 10730 H 1010.27 0.162638 -6.77305 0
M  V30 10731 H 1011.21 -1.35116 -6.95089 0
M  V30 10732 H 1011.62 -0.203131 -5.64134 0
M  V30 10733 N 1011.02 1.44971 -0.618145 0
M  V30 10734 C 1012.44 1.57077 -0.282666 0
M  V30 10735 C 1012.64 1.60782 1.21456 0
M  V30 10736 O 1011.69 1.54382 1.99806 0
M  V30 10737 C 1013.01 2.84858 -0.963148 0
M  V30 10738 C 1014.55 2.9855 -0.940062 0
M  V30 10739 C 1015.03 4.29115 -1.60076 0
M  V30 10740 N 1016.52 4.35899 -1.56674 0
M  V30 10741 C 1017.25 5.35617 -2.04701 0
M  V30 10742 N 1016.75 6.41813 -2.6086 0
M  V30 10743 N 1018.54 5.27042 -1.95406 0
M  V30 10744 H 1010.69 1.4081 -1.59017 0
M  V30 10745 H 1012.96 0.673914 -0.666741 0
M  V30 10746 H 1012.66 2.88059 -2.0178 0
M  V30 10747 H 1012.54 3.73966 -0.492901 0
M  V30 10748 H 1014.92 2.94909 0.10607 0
M  V30 10749 H 1015.01 2.10825 -1.44868 0
M  V30 10750 H 1014.65 4.33514 -2.64627 0
M  V30 10751 H 1014.58 5.15675 -1.06708 0
M  V30 10752 H 1017.07 3.59766 -1.15659 0
M  V30 10753 H 1017.38 7.14166 -2.95273 0
M  V30 10754 H 1015.73 6.42534 -2.64905 0
M  V30 10755 H 1018.92 4.42987 -1.51263 0
M  V30 10756 H 1019.09 6.04604 -2.33147 0
M  V30 10757 N 1012.5 0.357919 1.53482 0
M  V30 10758 C 1013.43 -0.535553 2.21827 0
M  V30 10759 C 1014.41 -1.08904 1.20742 0
M  V30 10760 O 1015.59 -1.14661 1.49616 0
M  V30 10761 C 1012.72 -1.73817 2.90698 0
M  V30 10762 C 1011.77 -1.31283 4.05792 0
M  V30 10763 S 1012.6 -0.320548 5.3454 0
M  V30 10764 C 1013.76 -1.52967 6.0692 0
M  V30 10765 H 1013.99 0.0449045 2.97266 0
M  V30 10766 H 1011.52 0.142009 1.53746 0
M  V30 10767 H 1013.48 -2.42803 3.30994 0
M  V30 10768 H 1012.14 -2.28987 2.14998 0
M  V30 10769 H 1011.33 -2.20989 4.52968 0
M  V30 10770 H 1010.94 -0.702275 3.67347 0
M  V30 10771 H 1013.23 -2.46191 6.31186 0
M  V30 10772 H 1014.17 -1.09943 6.99513 0
M  V30 10773 H 1014.58 -1.73224 5.37265 0
M  V30 10774 N 1013.98 -1.5736 0.0868897 0
M  V30 10775 C 1015.22 -1.94341 -0.579598 0
M  V30 10776 C 1015.56 -0.968238 -1.68341 0
M  V30 10777 O 1014.83 8.29649e-05 -1.945 0
M  V30 10778 C 1015.11 -3.41497 -1.14245 0
M  V30 10779 C 1014.97 -4.49778 -0.044255 0
M  V30 10780 C 1016.29 -3.89788 -2.04336 0
M  V30 10781 H 1013.4 -0.70668 -0.20922 0
M  V30 10782 H 1016.05 -1.89359 0.15593 0
M  V30 10783 H 1014.2 -3.45873 -1.76929 0
M  V30 10784 H 1015.87 -4.57517 0.58959 0
M  V30 10785 H 1014.11 -4.293 0.623207 0
M  V30 10786 H 1014.78 -5.4992 -0.478749 0
M  V30 10787 H 1017.26 -3.87513 -1.51569 0
M  V30 10788 H 1016.13 -4.93335 -2.40648 0
M  V30 10789 H 1016.4 -3.28603 -2.95757 0
M  V30 10790 N 1015.45 0.186762 -1.56489 0
M  V30 10791 C 1016.38 1.23395 -1.98232 0
M  V30 10792 C 1017.37 1.4702 -0.855526 0
M  V30 10793 O 1018.55 1.58616 -1.12048 0
M  V30 10794 C 1015.68 2.57635 -2.32898 0
M  V30 10795 C 1014.63 2.48607 -3.48394 0
M  V30 10796 C 1013.96 3.87196 -3.68759 0
M  V30 10797 C 1015.26 2.00398 -4.82325 0
M  V30 10798 H 1016.95 0.887026 -2.85958 0
M  V30 10799 H 1014.5 0.42525 -1.37578 0
M  V30 10800 H 1016.45 3.31082 -2.60696 0
M  V30 10801 H 1015.18 2.94084 -1.42064 0
M  V30 10802 H 1013.84 1.77615 -3.207 0
M  V30 10803 H 1013.48 4.21012 -2.75241 0
M  V30 10804 H 1013.18 3.82029 -4.46462 0
M  V30 10805 H 1014.71 4.62253 -3.98941 0
M  V30 10806 H 1016.12 2.6361 -5.091 0
M  V30 10807 H 1014.52 2.06214 -5.63556 0
M  V30 10808 H 1015.59 0.957562 -4.75351 0
M  V30 10809 N 1016.93 1.50896 0.454776 0
M  V30 10810 C 1018.18 1.62378 1.20324 0
M  V30 10811 C 1018.5 0.333883 1.9212 0
M  V30 10812 O 1017.77 -0.649477 1.8482 0
M  V30 10813 H 1016.35 0.598395 0.447139 0
M  V30 10814 H 1019.01 1.87749 0.523102 0
M  V30 10815 H 1018.11 2.44296 1.94232 0
M  V30 10816 N 1018.41 -0.709066 1.40748 0
M  V30 10817 C 1019.66 -1.47119 1.39585 0
M  V30 10818 C 1019.99 -1.942 0.000245323 0
M  V30 10819 O 1019.26 -1.68609 -0.969593 0
M  V30 10820 C 1019.55 -2.69266 2.39099 0
M  V30 10821 C 1019.4 -2.28037 3.8771 0
M  V30 10822 C 1020.72 -3.71438 2.36055 0
M  V30 10823 H 1017.84 -0.533632 0.508336 0
M  V30 10824 H 1020.48 -0.808718 1.7193 0
M  V30 10825 H 1018.63 -3.25788 2.11647 0
M  V30 10826 H 1020.3 -1.76946 4.26014 0
M  V30 10827 H 1018.55 -1.59966 4.03229 0
M  V30 10828 H 1019.22 -3.15621 4.52866 0
M  V30 10829 H 1021.69 -3.24559 2.60385 0
M  V30 10830 H 1020.57 -4.54532 3.07721 0
M  V30 10831 H 1020.83 -4.20193 1.37443 0
M  V30 10832 N 1019.89 -1.26353 -0.941956 0
M  V30 10833 C 1021.14 -1.11241 -1.68251 0
M  V30 10834 C 1021.45 0.344055 -1.9255 0
M  V30 10835 O 1022.66 0.615832 -2.64423 0
M  V30 10836 C 1021.11 -1.94269 -3.02965 0
M  V30 10837 C 1020.72 -3.44485 -2.86415 0
M  V30 10838 C 1022.47 -1.87764 -3.80716 0
M  V30 10839 C 1020.37 -4.19763 -4.16597 0
M  V30 10840 H 1019.3 -0.412694 -0.63103 0
M  V30 10841 H 1021.95 -1.50656 -1.04762 0
M  V30 10842 H 1020.34 -1.47687 -3.6743 0
M  V30 10843 H 1021.51 -3.9883 -2.30805 0
M  V30 10844 H 1019.82 -3.52218 -2.22107 0
M  V30 10845 H 1022.42 -2.41292 -4.77161 0
M  V30 10846 H 1022.76 -0.848195 -4.07568 0
M  V30 10847 H 1023.3 -2.32165 -3.23024 0
M  V30 10848 H 1020.04 -5.23173 -3.9493 0
M  V30 10849 H 1019.56 -3.70198 -4.71925 0
M  V30 10850 H 1021.24 -4.28168 -4.85058 0
M  V30 10851 N 1021.37 1.14642 -1.08144 0
M  V30 10852 C 1022.61 1.85892 -0.810683 0
M  V30 10853 C 1022.95 1.82575 0.661821 0
M  V30 10854 O 1022.22 1.25454 1.48632 0
M  V30 10855 C 1022.5 3.34647 -1.32979 0
M  V30 10856 C 1022.36 3.46551 -2.86744 0
M  V30 10857 C 1023.68 4.29661 -0.952864 0
M  V30 10858 H 1020.8 0.674963 -0.295963 0
M  V30 10859 H 1023.44 1.3464 -1.3406 0
M  V30 10860 H 1021.59 3.78425 -0.87903 0
M  V30 10861 H 1023.26 3.11579 -3.40171 0
M  V30 10862 H 1021.5 2.87849 -3.24539 0
M  V30 10863 H 1022.17 4.51101 -3.18138 0
M  V30 10864 H 1024.65 3.93885 -1.34141 0
M  V30 10865 H 1023.53 5.32209 -1.34331 0
M  V30 10866 H 1023.79 4.41877 0.140392 0
M  V30 10867 N 1022.85 0.866709 1.31628 0
M  V30 10868 C 1024.26 0.529032 1.79048 0
M  V30 10869 C 1024.61 -0.953871 1.71452 0
M  V30 10870 O 1023.73 -1.74462 1.28031 0
M  V30 10871 C 1024.33 0.953522 3.25105 0
M  V30 10872 C 1022.89 0.667554 3.70433 0
M  V30 10873 C 1022.03 1.14664 2.52483 0
M  V30 10874 H 1024.98 1.05275 1.18756 0
M  V30 10875 H 1025.01 0.274844 3.79506 0
M  V30 10876 H 1024.52 2.03283 3.30602 0
M  V30 10877 H 1022.62 -0.400532 3.70441 0
M  V30 10878 H 1022.73 1.2423 4.62714 0
M  V30 10879 H 1021.1 0.566502 2.4832 0
M  V30 10880 H 1021.88 2.2333 2.60727 0
M  V30 10881 N 1024.32 -1.44642 0.625825 0
M  V30 10882 C 1025.57 -2.01695 0.127948 0
M  V30 10883 C 1025.89 -1.49439 -1.25271 0
M  V30 10884 O 1025.16 -0.695873 -1.83124 0
M  V30 10885 H 1023.74 -0.745685 0.0443096 0
M  V30 10886 H 1026.4 -1.7721 0.811332 0
M  V30 10887 H 1025.5 -3.11966 0.0915933 0
M  V30 10888 N 1025.8 -0.366053 -1.5329 0
M  V30 10889 C 1027.22 -0.0150149 -1.59593 0
M  V30 10890 C 1027.42 1.46719 -1.38116 0
M  V30 10891 O 1026.47 2.22884 -1.18656 0
M  V30 10892 C 1027.79 -0.471374 -2.96982 0
M  V30 10893 C 1029.33 -0.425634 -3.10092 0
M  V30 10894 C 1029.81 -0.857812 -4.49895 0
M  V30 10895 N 1031.3 -0.81289 -4.56011 0
M  V30 10896 C 1032.04 -1.11898 -5.62376 0
M  V30 10897 N 1031.53 -1.49436 -6.76491 0
M  V30 10898 N 1033.32 -1.04174 -5.52362 0
M  V30 10899 H 1025.48 -1.33127 -1.65502 0
M  V30 10900 H 1027.74 -0.544172 -0.776261 0
M  V30 10901 H 1027.44 -1.50569 -3.1784 0
M  V30 10902 H 1027.32 0.141764 -3.76934 0
M  V30 10903 H 1029.71 0.599548 -2.88945 0
M  V30 10904 H 1029.79 -1.07427 -2.32149 0
M  V30 10905 H 1029.43 -1.88111 -4.7178 0
M  V30 10906 H 1029.36 -0.186419 -5.2627 0
M  V30 10907 H 1031.85 -0.536343 -3.74075 0
M  V30 10908 H 1032.16 -1.71217 -7.53594 0
M  V30 10909 H 1030.51 -1.53302 -6.77882 0
M  V30 10910 H 1033.7 -0.747654 -4.62091 0
M  V30 10911 H 1033.87 -1.28362 -6.35159 0
M  V30 10912 N 1027.28 1.57312 -0.0952337 0
M  V30 10913 C 1028.53 1.93974 0.567319 0
M  V30 10914 C 1028.85 0.977805 1.68713 0
M  V30 10915 O 1028.12 0.0298944 1.95877 0
M  V30 10916 H 1026.7 0.71612 0.212558 0
M  V30 10917 H 1029.36 1.94254 -0.158598 0
M  V30 10918 H 1028.46 2.964 0.977423 0
M  V30 10919 N 1028.76 -0.17846 1.56586 0
M  V30 10920 C 1030 -0.90281 1.83381 0
M  V30 10921 C 1030.36 -1.79738 0.675139 0
M  V30 10922 O 1031.56 -2.55879 0.823368 0
M  V30 10923 C 1029.83 -1.68353 3.15265 0
M  V30 10924 S 1031.39 -2.45762 3.6352 0
M  V30 10925 H 1028.21 -0.302508 0.643436 0
M  V30 10926 H 1030.81 -0.164961 1.94803 0
M  V30 10927 H 1029.52 -1.01725 3.97593 0
M  V30 10928 H 1029.05 -2.46289 3.06766 0
M  V30 10929 H 1031.06 -3.70312 3.30278 0
M  V30 10930 N 1030.24 -1.51135 -0.446768 0
M  V30 10931 C 1031.2 -1.71187 -1.52406 0
M  V30 10932 C 1032.2 -0.582037 -1.49897 0
M  V30 10933 O 1033.39 -0.849452 -1.52085 0
M  V30 10934 C 1030.52 -1.75962 -2.91976 0
M  V30 10935 H 1031.71 -2.67324 -1.35934 0
M  V30 10936 H 1029.27 -1.40982 -0.674813 0
M  V30 10937 H 1030 -0.816065 -3.13864 0
M  V30 10938 H 1029.79 -2.58065 -2.95203 0
M  V30 10939 H 1031.28 -1.93347 -3.70144 0
M  V30 10940 N 1031.71 0.701592 -1.41122 0
M  V30 10941 C 1032.96 1.45722 -1.39456 0
M  V30 10942 C 1033.28 1.95599 -0.00475228 0
M  V30 10943 O 1034.48 2.71166 0.134529 0
M  V30 10944 C 1032.94 2.63475 -2.45172 0
M  V30 10945 C 1032.55 2.20409 -3.90031 0
M  V30 10946 C 1034.29 3.4114 -2.52633 0
M  V30 10947 C 1032.2 3.35084 -4.87312 0
M  V30 10948 H 1031.13 0.547341 -0.518588 0
M  V30 10949 H 1033.78 0.762233 -1.6692 0
M  V30 10950 H 1032.16 3.35212 -2.10829 0
M  V30 10951 H 1033.33 1.56 -4.3359 0
M  V30 10952 H 1031.65 1.55752 -3.86174 0
M  V30 10953 H 1034.25 4.26496 -3.22498 0
M  V30 10954 H 1034.59 3.85915 -1.56125 0
M  V30 10955 H 1035.12 2.76456 -2.86037 0
M  V30 10956 H 1031.86 2.95327 -5.85203 0
M  V30 10957 H 1031.38 3.98362 -4.48406 0
M  V30 10958 H 1033.06 4.00949 -5.07788 0
M  V30 10959 N 1033.19 1.2685 0.935242 0
M  V30 10960 C 1034.6 1.11569 1.49697 0
M  V30 10961 C 1034.95 -0.301952 1.93863 0
M  V30 10962 O 1034.08 -1.19408 1.80473 0
M  V30 10963 C 1034.67 2.01918 2.72056 0
M  V30 10964 C 1033.23 1.90765 3.24477 0
M  V30 10965 C 1032.38 1.94918 1.97237 0
M  V30 10966 H 1035.33 1.39853 0.750116 0
M  V30 10967 H 1035.35 1.57056 3.46574 0
M  V30 10968 H 1034.86 3.05088 2.39881 0
M  V30 10969 H 1032.96 0.905521 3.61429 0
M  V30 10970 H 1033.08 2.76611 3.91182 0
M  V30 10971 H 1031.44 1.39046 2.13397 0
M  V30 10972 H 1032.22 2.99729 1.67385 0
M  V30 10973 N 1034.67 -1.14067 1.0875 0
M  V30 10974 C 1035.62 -2.21332 0.715195 0
M  V30 10975 C 1036.61 -1.67059 -0.280679 0
M  V30 10976 O 1037.82 -1.79432 -0.142874 0
M  V30 10977 H 1034.19 -0.721126 0.213264 0
M  V30 10978 H 1036.16 -2.50002 1.62916 0
M  V30 10979 C 1034.91 -3.474 0.144401 0
M  V30 10980 H 1034.24 -3.89495 0.901884 0
M  V30 10981 H 1035.68 -4.23928 -0.0782564 0
M  V30 10982 C 1034.14 -3.17787 -1.11862 0
M  V30 10983 O 1034.67 -3.35906 -2.20295 0
M  V30 10984 N 1032.87 -2.71719 -1.03039 0
M  V30 10985 H 1032.42 -2.57175 -0.14793 0
M  V30 10986 H 1032.38 -2.52281 -1.87621 0
M  V30 10987 N 1036.15 -0.873678 -1.31166 0
M  V30 10988 C 1037.56 -0.566109 -1.49223 0
M  V30 10989 C 1037.76 0.898889 -1.80339 0
M  V30 10990 O 1036.82 1.68084 -1.88425 0
M  V30 10991 C 1038.13 -1.46952 -2.62346 0
M  V30 10992 C 1039.68 -1.47195 -2.76229 0
M  V30 10993 C 1040.16 -2.36102 -3.92454 0
M  V30 10994 N 1041.65 -2.34003 -3.99746 0
M  V30 10995 C 1042.38 -2.99513 -4.88958 0
M  V30 10996 N 1041.88 -3.74206 -5.83045 0
M  V30 10997 N 1043.67 -2.88802 -4.82234 0
M  V30 10998 H 1035.82 -1.82156 -1.09239 0
M  V30 10999 H 1038.09 -0.779086 -0.54012 0
M  V30 11000 H 1037.79 -2.51213 -2.4614 0
M  V30 11001 H 1037.67 -1.17077 -3.5857 0
M  V30 11002 H 1040.05 -0.436902 -2.91848 0
M  V30 11003 H 1040.13 -1.81095 -1.80661 0
M  V30 11004 H 1039.78 -3.39685 -3.77593 0
M  V30 11005 H 1039.71 -1.99524 -4.87337 0
M  V30 11006 H 1042.2 -1.79713 -3.32433 0
M  V30 11007 H 1042.51 -4.21312 -6.47855 0
M  V30 11008 H 1040.86 -3.78314 -5.83012 0
M  V30 11009 H 1044.05 -2.29984 -4.07707 0
M  V30 11010 H 1044.22 -3.40136 -5.51554 0
M  V30 11011 N 1037.63 1.44308 -0.633487 0
M  V30 11012 C 1039.04 1.85387 -0.221009 0
M  V30 11013 C 1039.39 1.5301 1.22811 0
M  V30 11014 O 1038.51 0.969325 1.93476 0
M  V30 11015 C 1039.11 3.36497 -0.394331 0
M  V30 11016 C 1037.67 3.76382 -0.0363405 0
M  V30 11017 C 1036.81 2.68146 -0.706598 0
M  V30 11018 H 1039.77 1.34741 -0.83849 0
M  V30 11019 H 1039.79 3.78735 0.366026 0
M  V30 11020 H 1039.3 3.60031 -1.44911 0
M  V30 11021 H 1037.4 3.58463 1.01661 0
M  V30 11022 H 1037.51 4.77 -0.448045 0
M  V30 11023 H 1035.88 2.54306 -0.14168 0
M  V30 11024 H 1036.66 2.94512 -1.76401 0
M  V30 11025 N 1039.1 0.374177 1.53094 0
M  V30 11026 C 1040.35 -0.212396 2.00981 0
M  V30 11027 C 1040.67 -1.48576 1.26293 0
M  V30 11028 O 1039.94 -1.92206 0.378642 0
M  V30 11029 H 1038.52 -0.0814763 0.742543 0
M  V30 11030 H 1041.19 0.502389 1.88314 0
M  V30 11031 H 1040.28 -0.433316 3.09077 0
M  V30 11032 N 1040.58 -1.57259 0.103575 0
M  V30 11033 C 1041.83 -1.93832 -0.55786 0
M  V30 11034 C 1042.14 -0.988087 -1.68808 0
M  V30 11035 O 1043.35 -1.24786 -2.41124 0
M  V30 11036 C 1041.81 -3.44433 -1.04373 0
M  V30 11037 C 1041.41 -4.47963 0.0571971 0
M  V30 11038 C 1043.16 -3.89953 -1.67742 0
M  V30 11039 C 1041.07 -5.89727 -0.444505 0
M  V30 11040 H 1040 -0.723536 -0.212161 0
M  V30 11041 H 1042.65 -1.82606 0.180944 0
M  V30 11042 H 1041.03 -3.50841 -1.83648 0
M  V30 11043 H 1042.2 -4.53209 0.83298 0
M  V30 11044 H 1040.52 -4.12104 0.596588 0
M  V30 11045 H 1043.11 -4.93272 -2.06365 0
M  V30 11046 H 1043.46 -3.2907 -2.54988 0
M  V30 11047 H 1043.99 -3.86281 -0.950342 0
M  V30 11048 H 1040.73 -6.5433 0.391543 0
M  V30 11049 H 1040.25 -5.87935 -1.18711 0
M  V30 11050 H 1041.93 -6.40558 -0.910739 0
M  V30 11051 N 1042.06 0.170153 -1.56679 0
M  V30 11052 C 1043.31 0.886592 -1.8206 0
M  V30 11053 C 1043.64 1.82194 -0.680839 0
M  V30 11054 O 1042.89 1.92866 0.331822 0
M  V30 11055 C 1043.19 1.71402 -3.13618 0
M  V30 11056 C 1042.86 0.927489 -4.41258 0
M  V30 11057 C 1041.52 0.710417 -4.75927 0
M  V30 11058 C 1043.87 0.375855 -5.19843 0
M  V30 11059 C 1041.2 -0.0693691 -5.86659 0
M  V30 11060 C 1043.55 -0.390849 -6.31391 0
M  V30 11061 C 1042.21 -0.61871 -6.64626 0
M  V30 11062 H 1041.48 0.324427 -0.666204 0
M  V30 11063 H 1044.13 0.151464 -1.909 0
M  V30 11064 H 1042.44 2.51858 -3.00125 0
M  V30 11065 H 1044.13 2.27141 -3.30466 0
M  V30 11066 H 1040.72 1.10672 -4.14065 0
M  V30 11067 H 1044.91 0.530897 -4.93452 0
M  V30 11068 H 1040.16 -0.255637 -6.10865 0
M  V30 11069 H 1044.34 -0.825544 -6.9149 0
M  V30 11070 H 1041.96 -1.22482 -7.50268 0
M  V30 11071 N 1043.54 1.5137 0.438746 0
M  V30 11072 C 1044.78 1.64211 1.19006 0
M  V30 11073 C 1045.12 0.356607 1.90898 0
M  V30 11074 O 1044.39 -0.643722 1.83539 0
M  V30 11075 C 1044.68 2.8445 2.20817 0
M  V30 11076 C 1044.53 4.22972 1.53018 0
M  V30 11077 C 1045.85 3.00207 3.21813 0
M  V30 11078 H 1042.97 0.597628 0.431288 0
M  V30 11079 H 1045.61 1.8385 0.479487 0
M  V30 11080 H 1043.76 2.67836 2.81418 0
M  V30 11081 H 1045.43 4.5125 0.957654 0
M  V30 11082 H 1043.67 4.25736 0.832556 0
M  V30 11083 H 1044.34 5.03094 2.27158 0
M  V30 11084 H 1046.82 3.15522 2.71266 0
M  V30 11085 H 1045.7 3.85904 3.90345 0
M  V30 11086 H 1045.96 2.12216 3.87836 0
M  V30 11087 N 1045.02 -0.694098 1.41492 0
M  V30 11088 C 1046.43 -1.00487 1.23994 0
M  V30 11089 C 1046.63 -2.01078 0.130346 0
M  V30 11090 O 1045.69 -2.47403 -0.504775 0
M  V30 11091 C 1047 -1.52808 2.58979 0
M  V30 11092 C 1048.55 -1.64684 2.66173 0
M  V30 11093 C 1049.02 -2.20406 4.01479 0
M  V30 11094 N 1050.52 -2.27765 4.03333 0
M  V30 11095 C 1051.25 -2.7191 5.04829 0
M  V30 11096 N 1050.75 -3.1565 6.16714 0
M  V30 11097 N 1052.54 -2.71487 4.9219 0
M  V30 11098 H 1044.69 -0.027746 2.12382 0
M  V30 11099 H 1046.95 -0.0748741 0.945039 0
M  V30 11100 H 1046.66 -0.863519 3.40934 0
M  V30 11101 H 1046.53 -2.50998 2.81566 0
M  V30 11102 H 1048.92 -2.30251 1.84576 0
M  V30 11103 H 1049 -0.65035 2.47395 0
M  V30 11104 H 1048.65 -1.55454 4.83525 0
M  V30 11105 H 1048.58 -3.2081 4.17599 0
M  V30 11106 H 1051.07 -1.96899 3.22551 0
M  V30 11107 H 1051.38 -3.47966 6.90029 0
M  V30 11108 H 1049.72 -3.13555 6.20248 0
M  V30 11109 H 1052.92 -2.36666 4.03865 0
M  V30 11110 H 1053.09 -3.05573 5.71427 0
M  V30 11111 N 1046.49 -1.27344 -0.928501 0
M  V30 11112 C 1047.74 -1.13804 -1.67859 0
M  V30 11113 C 1048.07 0.31555 -1.91619 0
M  V30 11114 O 1047.35 1.23087 -1.50599 0
M  V30 11115 C 1047.63 -1.9213 -3.04562 0
M  V30 11116 C 1047.48 -3.45468 -2.88048 0
M  V30 11117 C 1048.8 -1.72513 -4.04879 0
M  V30 11118 H 1045.92 -0.414796 -0.609191 0
M  V30 11119 H 1048.56 -1.5649 -1.07753 0
M  V30 11120 H 1046.71 -1.55853 -3.55868 0
M  V30 11121 H 1048.39 -3.9157 -2.43865 0
M  V30 11122 H 1046.63 -3.71849 -2.23407 0
M  V30 11123 H 1047.3 -3.95515 -3.85061 0
M  V30 11124 H 1049.78 -2.04143 -3.62581 0
M  V30 11125 H 1048.65 -2.29713 -4.98521 0
M  V30 11126 H 1048.91 -0.672856 -4.3695 0
M  V30 11127 N 1047.97 1.13488 -1.09353 0
M  V30 11128 C 1048.94 2.17066 -0.735863 0
M  V30 11129 C 1049.94 1.59086 0.234181 0
M  V30 11130 O 1051.13 1.74196 0.012463 0
M  V30 11131 C 1048.26 3.40786 -0.0880975 0
M  V30 11132 H 1049.45 2.50221 -1.65316 0
M  V30 11133 H 1047 1.28304 -0.89263 0
M  V30 11134 H 1047.74 3.1322 0.840462 0
M  V30 11135 H 1047.52 3.8414 -0.786073 0
M  V30 11136 H 1049.01 4.17342 0.146775 0
M  V30 11137 N 1049.45 0.880621 1.30701 0
M  V30 11138 C 1050.68 0.51094 2.00182 0
M  V30 11139 C 1051.09 -0.903914 1.66211 0
M  V30 11140 O 1050.43 -1.60529 0.893089 0
M  V30 11141 C 1050.49 0.600775 3.54445 0
M  V30 11142 C 1050.16 1.97915 4.1192 0
M  V30 11143 C 1051.16 2.94802 4.28238 0
M  V30 11144 C 1048.84 2.28336 4.47401 0
M  V30 11145 C 1050.83 4.20245 4.79242 0
M  V30 11146 C 1048.52 3.54026 4.98105 0
M  V30 11147 C 1049.52 4.49796 5.13978 0
M  V30 11148 O 1049.21 5.73256 5.63589 0
M  V30 11149 H 1048.94 0.196477 0.646818 0
M  V30 11150 H 1051.49 1.18659 1.67658 0
M  V30 11151 H 1049.72 -0.131832 3.86475 0
M  V30 11152 H 1051.41 0.242996 4.05172 0
M  V30 11153 H 1052.18 2.7261 4.01134 0
M  V30 11154 H 1048.06 1.54564 4.34317 0
M  V30 11155 H 1051.6 4.95003 4.91546 0
M  V30 11156 H 1047.5 3.76057 5.24644 0
M  V30 11157 H 1048.27 5.75577 5.81939 0
M  V30 11158 N 1050.93 -1.4397 0.641131 0
M  V30 11159 C 1052.16 -2.06004 0.156779 0
M  V30 11160 C 1052.57 -1.48059 -1.17793 0
M  V30 11161 O 1051.91 -0.601788 -1.73563 0
M  V30 11162 C 1051.97 -3.59493 -0.0217203 0
M  V30 11163 C 1051.64 -4.39957 1.23639 0
M  V30 11164 C 1052.63 -4.72797 2.16239 0
M  V30 11165 C 1050.32 -4.80168 1.4746 0
M  V30 11166 C 1052.31 -5.44741 3.30962 0
M  V30 11167 C 1050 -5.51859 2.62478 0
M  V30 11168 C 1051 -5.84067 3.54055 0
M  V30 11169 O 1050.69 -6.54296 4.67067 0
M  V30 11170 H 1050.42 -0.671061 0.0815685 0
M  V30 11171 H 1052.97 -1.85664 0.878517 0
M  V30 11172 H 1051.2 -3.78362 -0.798707 0
M  V30 11173 H 1052.89 -4.03263 -0.461893 0
M  V30 11174 H 1053.66 -4.42261 1.99073 0
M  V30 11175 H 1049.54 -4.54513 0.770652 0
M  V30 11176 H 1053.08 -5.69798 4.02462 0
M  V30 11177 H 1048.98 -5.81811 2.79583 0
M  V30 11178 H 1049.74 -6.72772 4.66177 0
M  V30 11179 N 1052.41 -0.382291 -1.52893 0
M  V30 11180 C 1053.37 0.44408 -2.24857 0
M  V30 11181 C 1054.37 0.996004 -1.26239 0
M  V30 11182 O 1055.56 0.879114 -1.5039 0
M  V30 11183 C 1052.69 1.62234 -2.99822 0
M  V30 11184 H 1053.89 -0.185862 -2.99324 0
M  V30 11185 H 1051.44 -0.134275 -1.55722 0
M  V30 11186 H 1052.17 2.28991 -2.29638 0
M  V30 11187 H 1051.96 1.23336 -3.72197 0
M  V30 11188 H 1053.45 2.20756 -3.54481 0
M  V30 11189 N 1053.89 1.57202 -0.111913 0
M  V30 11190 C 1054.83 2.14936 0.840908 0
M  V30 11191 C 1055.8 1.07242 1.2684 0
M  V30 11192 O 1056.99 1.35114 1.34718 0
M  V30 11193 C 1054.13 2.74743 2.0883 0
M  V30 11194 C 1053.24 3.96723 1.70982 0
M  V30 11195 C 1052.38 4.4464 2.90634 0
M  V30 11196 C 1051.41 5.59169 2.48992 0
M  V30 11197 N 1050.55 6.01862 3.61534 0
M  V30 11198 H 1055.39 2.96034 0.341735 0
M  V30 11199 H 1052.93 1.4626 0.156993 0
M  V30 11200 H 1054.89 3.07546 2.81907 0
M  V30 11201 H 1053.52 1.96346 2.56218 0
M  V30 11202 H 1052.57 3.70127 0.878072 0
M  V30 11203 H 1053.88 4.79795 1.36373 0
M  V30 11204 H 1053.03 4.79315 3.71944 0
M  V30 11205 H 1051.77 3.60503 3.28464 0
M  V30 11206 H 1050.78 5.24106 1.66113 0
M  V30 11207 H 1052 6.45067 2.12287 0
M  V30 11208 H 1049.95 5.20667 3.99051 0
M  V30 11209 H 1049.87 6.79772 3.30827 0
M  V30 11210 H 1051.13 6.41172 4.43305 0
M  V30 11211 N 1055.36 -0.161842 1.56767 0
M  V30 11212 C 1056.61 -0.873481 1.8369 0
M  V30 11213 C 1056.96 -1.79455 0.693817 0
M  V30 11214 O 1056.26 -1.89089 -0.309181 0
M  V30 11215 C 1056.45 -1.69736 3.14522 0
M  V30 11216 C 1056.28 -0.857568 4.41447 0
M  V30 11217 C 1055.05 -0.528952 5.02524 0
M  V30 11218 C 1057.25 -0.194734 5.13931 0
M  V30 11219 N 1055.23 0.325994 6.13034 0
M  V30 11220 C 1056.6 0.520973 6.17807 0
M  V30 11221 C 1058.66 -0.113874 4.9777 0
M  V30 11222 C 1057.36 1.30988 7.07273 0
M  V30 11223 C 1059.39 0.661731 5.87686 0
M  V30 11224 C 1058.75 1.36577 6.91033 0
M  V30 11225 H 1054.85 -0.297939 0.723019 0
M  V30 11226 H 1057.43 -0.139816 1.94197 0
M  V30 11227 H 1055.6 -2.40238 3.05189 0
M  V30 11228 H 1057.33 -2.35103 3.29407 0
M  V30 11229 H 1054.09 -0.861267 4.65703 0
M  V30 11230 H 1054.51 0.744055 6.72899 0
M  V30 11231 H 1059.15 -0.643832 4.17869 0
M  V30 11232 H 1056.87 1.85115 7.86612 0
M  V30 11233 H 1060.46 0.726092 5.77251 0
M  V30 11234 H 1059.34 1.9563 7.59407 0
M  V30 11235 N 1056.84 -1.516 -0.430713 0
M  V30 11236 C 1058.09 -1.63829 -1.17657 0
M  V30 11237 C 1058.4 -0.363605 -1.92191 0
M  V30 11238 O 1059.61 -0.365358 -2.6903 0
M  V30 11239 C 1058.07 -2.89357 -2.14011 0
M  V30 11240 C 1057.67 -4.23854 -1.45094 0
M  V30 11241 C 1059.42 -3.10944 -2.88988 0
M  V30 11242 C 1057.32 -5.40526 -2.3997 0
M  V30 11243 H 1056.25 -0.610221 -0.442884 0
M  V30 11244 H 1058.91 -1.78073 -0.442984 0
M  V30 11245 H 1057.29 -2.68762 -2.90832 0
M  V30 11246 H 1058.46 -4.54854 -0.737853 0
M  V30 11247 H 1056.78 -4.08197 -0.822429 0
M  V30 11248 H 1059.37 -3.95286 -3.60074 0
M  V30 11249 H 1059.72 -2.24291 -3.50712 0
M  V30 11250 H 1060.25 -3.3191 -2.19272 0
M  V30 11251 H 1056.99 -6.29459 -1.82925 0
M  V30 11252 H 1056.51 -5.13893 -3.09313 0
M  V30 11253 H 1058.19 -5.72741 -3.00959 0
M  V30 11254 N 1058.32 0.686584 -1.41858 0
M  V30 11255 C 1059.27 1.79271 -1.40875 0
M  V30 11256 C 1060.25 1.58413 -0.281782 0
M  V30 11257 O 1061.45 1.69093 -0.523132 0
M  V30 11258 C 1058.57 3.17647 -1.30213 0
M  V30 11259 C 1057.66 3.44168 -2.47808 0
M  V30 11260 N 1058.05 3.41339 -3.73258 0
M  V30 11261 C 1056.35 3.74755 -2.41815 0
M  V30 11262 C 1057.05 3.67016 -4.51303 0
M  V30 11263 N 1056.03 3.87203 -3.81543 0
M  V30 11264 H 1059.83 1.75459 -2.35778 0
M  V30 11265 H 1057.34 0.886946 -1.36041 0
M  V30 11266 H 1059.34 3.96896 -1.2759 0
M  V30 11267 H 1058 3.22664 -0.363021 0
M  V30 11268 H 1059.01 3.21511 -4.06018 0
M  V30 11269 H 1055.69 3.87089 -1.56423 0
M  V30 11270 H 1057.08 3.70888 -5.6026 0
M  V30 11271 N 1059.8 1.27835 0.921735 0
M  V30 11272 C 1060.74 1.11075 2.02314 0
M  V30 11273 C 1061.71 0.0101195 1.66097 0
M  V30 11274 O 1062.9 0.173564 1.90009 0
M  V30 11275 C 1060.04 0.770251 3.36394 0
M  V30 11276 C 1059.15 1.94912 3.8553 0
M  V30 11277 C 1058.29 1.54996 5.08084 0
M  V30 11278 C 1057.33 2.69595 5.49531 0
M  V30 11279 N 1056.46 2.30227 6.6328 0
M  V30 11280 H 1061.3 2.05319 2.15982 0
M  V30 11281 H 1058.84 1.022 1.058 0
M  V30 11282 H 1060.8 0.553624 4.1351 0
M  V30 11283 H 1059.43 -0.135238 3.22517 0
M  V30 11284 H 1058.48 2.27811 3.04641 0
M  V30 11285 H 1059.79 2.80858 4.12214 0
M  V30 11286 H 1058.95 1.29493 5.9272 0
M  V30 11287 H 1057.69 0.661676 4.83191 0
M  V30 11288 H 1056.69 2.95806 4.63442 0
M  V30 11289 H 1057.92 3.59054 5.76417 0
M  V30 11290 H 1055.86 1.43858 6.40032 0
M  V30 11291 H 1055.78 3.09711 6.89649 0
M  V30 11292 H 1057.05 2.07987 7.5124 0
M  V30 11293 N 1061.28 -1.12907 1.09954 0
M  V30 11294 C 1062.52 -1.83661 0.833761 0
M  V30 11295 C 1062.84 -1.84736 -0.642798 0
M  V30 11296 O 1064.04 -2.51437 -1.0243 0
M  V30 11297 C 1062.5 -3.29763 1.44168 0
M  V30 11298 C 1062.11 -3.3706 2.95118 0
M  V30 11299 C 1063.85 -4.05522 1.25509 0
M  V30 11300 C 1061.76 -4.77467 3.48969 0
M  V30 11301 H 1060.69 -0.688115 0.308242 0
M  V30 11302 H 1063.34 -1.27166 1.32291 0
M  V30 11303 H 1061.72 -3.86094 0.880215 0
M  V30 11304 H 1062.9 -2.90695 3.57537 0
M  V30 11305 H 1061.21 -2.7477 3.12874 0
M  V30 11306 H 1063.81 -5.09188 1.63191 0
M  V30 11307 H 1064.15 -4.15837 0.196208 0
M  V30 11308 H 1064.68 -3.55536 1.78435 0
M  V30 11309 H 1061.42 -4.72344 4.54501 0
M  V30 11310 H 1060.94 -5.24305 2.91315 0
M  V30 11311 H 1062.62 -5.46397 3.46495 0
M  V30 11312 N 1062.75 -0.88754 -1.30232 0
M  V30 11313 C 1064 -0.503322 -1.95319 0
M  V30 11314 C 1064.32 0.952817 -1.70824 0
M  V30 11315 O 1065.52 1.444 -2.29915 0
M  V30 11316 C 1063.98 -0.849216 -3.49738 0
M  V30 11317 C 1063.59 -2.3233 -3.83049 0
M  V30 11318 C 1065.33 -0.53432 -4.21124 0
M  V30 11319 C 1063.24 -2.61069 -5.30657 0
M  V30 11320 H 1062.17 -0.1845 -0.731078 0
M  V30 11321 H 1064.82 -1.08287 -1.48143 0
M  V30 11322 H 1063.2 -0.198729 -3.95501 0
M  V30 11323 H 1064.37 -3.01832 -3.48187 0
M  V30 11324 H 1062.69 -2.60599 -3.24773 0
M  V30 11325 H 1065.29 -0.726039 -5.29748 0
M  V30 11326 H 1065.63 0.526434 -4.12958 0
M  V30 11327 H 1066.16 -1.14211 -3.81052 0
M  V30 11328 H 1062.9 -3.65895 -5.43876 0
M  V30 11329 H 1062.42 -1.96179 -5.6681 0
M  V30 11330 H 1064.1 -2.46703 -5.98119 0
M  V30 11331 N 1064.23 1.43628 -0.648757 0
M  V30 11332 C 1065.16 2.33478 0.0320785 0
M  V30 11333 C 1066.14 1.49217 0.816605 0
M  V30 11334 O 1067.33 1.77892 0.778974 0
M  V30 11335 C 1064.46 3.32525 1.00222 0
M  V30 11336 C 1063.41 4.2674 0.328119 0
M  V30 11337 C 1062.74 5.15791 1.4094 0
M  V30 11338 C 1064.04 5.16493 -0.776701 0
M  V30 11339 H 1065.73 2.90657 -0.718257 0
M  V30 11340 H 1063.28 1.3976 -0.346852 0
M  V30 11341 H 1065.23 3.94277 1.4874 0
M  V30 11342 H 1063.96 2.73593 1.78366 0
M  V30 11343 H 1062.61 3.66346 -0.136569 0
M  V30 11344 H 1062.26 4.53201 2.18216 0
M  V30 11345 H 1061.96 5.79645 0.963631 0
M  V30 11346 H 1063.49 5.80416 1.89603 0
M  V30 11347 H 1064.9 5.7208 -0.373878 0
M  V30 11348 H 1063.3 5.89043 -1.14667 0
M  V30 11349 H 1064.37 4.56448 -1.63654 0
M  V30 11350 N 1065.71 0.390394 1.52688 0
M  V30 11351 C 1066.94 -0.191485 2.06012 0
M  V30 11352 C 1067.35 -1.40422 1.26202 0
M  V30 11353 O 1066.71 -1.79866 0.308963 0
M  V30 11354 C 1066.76 -0.560521 3.57128 0
M  V30 11355 O 1066.48 0.60404 4.33916 0
M  V30 11356 C 1067.98 -1.19814 4.26801 0
M  V30 11357 H 1065.2 -0.0286311 0.670389 0
M  V30 11358 H 1067.75 0.555939 1.96798 0
M  V30 11359 H 1065.9 -1.25784 3.66411 0
M  V30 11360 H 1066.32 0.300467 5.23639 0
M  V30 11361 H 1067.79 -1.40672 5.33775 0
M  V30 11362 H 1068.27 -2.16582 3.82085 0
M  V30 11363 H 1068.87 -0.541558 4.21838 0
M  V30 11364 N 1067.19 -1.57141 0.120249 0
M  V30 11365 C 1068.42 -1.993 -0.544346 0
M  V30 11366 C 1068.83 -0.998858 -1.60684 0
M  V30 11367 O 1068.17 0.0162197 -1.83693 0
M  V30 11368 C 1068.23 -3.37874 -1.22808 0
M  V30 11369 C 1067.9 -4.55924 -0.313374 0
M  V30 11370 C 1068.89 -5.17962 0.448501 0
M  V30 11371 C 1066.58 -5.018 -0.224082 0
M  V30 11372 C 1068.57 -6.24264 1.28739 0
M  V30 11373 C 1066.26 -6.07963 0.618437 0
M  V30 11374 C 1067.26 -6.69061 1.3728 0
M  V30 11375 O 1066.94 -7.73173 2.20133 0
M  V30 11376 H 1066.68 -0.659466 -0.148596 0
M  V30 11377 H 1069.23 -2.04387 0.203779 0
M  V30 11378 H 1067.46 -3.29545 -2.02329 0
M  V30 11379 H 1069.15 -3.64314 -1.7897 0
M  V30 11380 H 1069.92 -4.83434 0.389395 0
M  V30 11381 H 1065.79 -4.53989 -0.80094 0
M  V30 11382 H 1069.34 -6.71883 1.87667 0
M  V30 11383 H 1065.24 -6.4192 0.678932 0
M  V30 11384 H 1066 -7.90276 2.13088 0
M  V30 11385 N 1068.67 0.153526 -1.5685 0
M  V30 11386 C 1069.61 1.18973 -1.97773 0
M  V30 11387 C 1070.58 1.43041 -0.844311 0
M  V30 11388 O 1071.77 1.55484 -1.10586 0
M  V30 11389 C 1068.91 2.51981 -2.35795 0
M  V30 11390 C 1068.02 2.35143 -3.62397 0
M  V30 11391 C 1067.16 3.61141 -3.89552 0
M  V30 11392 C 1066.2 3.39311 -5.09445 0
M  V30 11393 N 1065.33 4.57423 -5.32643 0
M  V30 11394 H 1070.17 0.833758 -2.86099 0
M  V30 11395 H 1067.71 0.400252 -1.4155 0
M  V30 11396 H 1069.67 3.29527 -2.55867 0
M  V30 11397 H 1068.3 2.85539 -1.50557 0
M  V30 11398 H 1067.35 1.48684 -3.50139 0
M  V30 11399 H 1068.66 2.14969 -4.501 0
M  V30 11400 H 1067.82 4.47117 -4.10087 0
M  V30 11401 H 1066.55 3.84312 -3.00259 0
M  V30 11402 H 1065.56 2.51723 -4.8879 0
M  V30 11403 H 1066.78 3.17545 -6.00285 0
M  V30 11404 H 1064.73 4.8078 -4.46303 0
M  V30 11405 H 1064.65 4.40228 -6.14602 0
M  V30 11406 H 1065.92 5.44632 -5.57671 0
M  V30 11407 N 1070.14 1.51827 0.422667 0
M  V30 11408 C 1071.39 1.65464 1.17258 0
M  V30 11409 C 1071.72 0.376834 1.90509 0
M  V30 11410 O 1071 -0.624219 1.84211 0
M  V30 11411 C 1071.28 2.86776 2.17788 0
M  V30 11412 C 1071.13 4.24571 1.48523 0
M  V30 11413 C 1072.45 3.03603 3.18611 0
M  V30 11414 H 1069.57 0.602169 0.424925 0
M  V30 11415 H 1072.21 1.84349 0.45996 0
M  V30 11416 H 1070.36 2.70806 2.78561 0
M  V30 11417 H 1072.04 4.5224 0.909739 0
M  V30 11418 H 1070.28 4.26595 0.787354 0
M  V30 11419 H 1070.95 5.05475 2.2181 0
M  V30 11420 H 1073.43 3.18381 2.67904 0
M  V30 11421 H 1072.3 3.90022 3.8623 0
M  V30 11422 H 1072.56 2.16318 3.85563 0
M  V30 11423 N 1071.62 -0.679052 1.4222 0
M  V30 11424 C 1073.03 -1.25953 1.37815 0
M  V30 11425 C 1073.38 -1.96077 0.0693215 0
M  V30 11426 O 1072.51 -1.99765 -0.832047 0
M  V30 11427 C 1073.1 -2.29063 2.49631 0
M  V30 11428 C 1071.66 -2.82647 2.48571 0
M  V30 11429 C 1070.81 -1.56909 2.28637 0
M  V30 11430 H 1073.76 -0.472714 1.51496 0
M  V30 11431 H 1073.78 -3.10708 2.19638 0
M  V30 11432 H 1073.29 -1.77996 3.44876 0
M  V30 11433 H 1071.4 -3.37846 1.57132 0
M  V30 11434 H 1071.51 -3.31952 3.45463 0
M  V30 11435 H 1069.87 -1.83323 1.76819 0
M  V30 11436 H 1070.66 -1.07814 3.25931 0
M  V30 11437 N 1073.1 -1.28322 -0.914942 0
M  V30 11438 C 1074.03 -1.07947 -2.02188 0
M  V30 11439 C 1075.05 -0.0315743 -1.62769 0
M  V30 11440 O 1076.23 -0.274503 -1.76377 0
M  V30 11441 C 1073.33 -0.61805 -3.33217 0
M  V30 11442 C 1072.51 -1.74109 -4.01254 0
M  V30 11443 C 1071.57 -1.27325 -5.10563 0
M  V30 11444 O 1070.59 -1.97526 -5.33828 0
M  V30 11445 N 1071.79 -0.1358 -5.80341 0
M  V30 11446 H 1074.56 -2.03275 -2.20225 0
M  V30 11447 H 1072.12 -1.20059 -1.08616 0
M  V30 11448 H 1074.11 -0.288693 -4.03669 0
M  V30 11449 H 1072.68 0.242348 -3.11659 0
M  V30 11450 H 1071.9 -2.2401 -3.24366 0
M  V30 11451 H 1073.19 -2.49448 -4.43456 0
M  V30 11452 H 1072.59 0.449846 -5.63909 0
M  V30 11453 H 1071.15 0.134289 -6.51662 0
M  V30 11454 N 1074.58 1.12322 -1.10551 0
M  V30 11455 C 1075.8 1.8822 -0.871093 0
M  V30 11456 C 1076.23 1.7916 0.573005 0
M  V30 11457 O 1075.59 1.14738 1.40374 0
M  V30 11458 C 1075.63 3.35349 -1.32565 0
M  V30 11459 O 1074.74 4.09461 -0.49145 0
M  V30 11460 H 1074.08 0.584787 -0.314516 0
M  V30 11461 H 1076.61 1.42039 -1.47262 0
M  V30 11462 H 1076.62 3.86189 -1.31612 0
M  V30 11463 H 1075.29 3.4126 -2.37728 0
M  V30 11464 H 1073.87 3.68575 -0.566294 0
M  V30 11465 O 1076.1 1.02707 1.24633 0
M  V30 11466 H 1076.79 0.69186 1.80923 0
M  V30 END ATOM
M  V30 BEGIN BOND
M  V30 END BOND
M  V30 END CTAB
M  END
$$$$
