drugbank_target|P14385 Modification methylase TaqI (DB01752; DB01910)
 OpenBabel12092120223D

  0  0  0     0  0            999 V3000
M  V30 BEGIN CTAB
M  V30 COUNTS 6794 6904 0 0 0
M  V30 BEGIN ATOM
M  V30 1 H -0.908 1.98254 -0.117106 0
M  V30 2 N 0 1.576 0 0
M  V30 3 C 0.933 2.03868 1.02534 0
M  V30 4 C 1.911 0.928543 1.3348 0
M  V30 5 O 3.095 1.19667 1.45644 0
M  V30 6 C 0.222 2.43627 2.35294 0
M  V30 7 C -0.732 3.65373 2.2001 0
M  V30 8 S 0.101 5.13292 1.52614 0
M  V30 9 C 1.257 5.56322 2.86805 0
M  V30 10 H 1.49 2.90518 0.631377 0
M  V30 11 H -0.977 1.52953 0.210867 0
M  V30 12 H 0.981 2.67203 3.11629 0
M  V30 13 H -0.358 1.57376 2.7183 0
M  V30 14 H -1.165 3.90944 3.18086 0
M  V30 15 H -1.563 3.418 1.51819 0
M  V30 16 H 0.729 5.58782 3.83104 0
M  V30 17 H 1.672 6.56266 2.65933 0
M  V30 18 H 2.08 4.83886 2.90714 0
M  V30 19 N 1.4781 -0.272755 1.55222 0
M  V30 20 C 2.7261 -1.00234 1.75492 0
M  V30 21 C 3.0471 -1.8681 0.5592 0
M  V30 22 O 2.3171 -1.91215 -0.425882 0
M  V30 23 H 0.8971 -0.373076 0.647166 0
M  V30 24 H 3.5591 -0.296926 1.92625 0
M  V30 25 H 2.6551 -1.63913 2.65592 0
M  V30 26 N 2.9562 -1.48159 -0.537278 0
M  V30 27 C 3.8862 -1.65029 -1.6519 0
M  V30 28 C 4.8672 -0.499281 -1.62607 0
M  V30 29 O 6.0522 -0.730972 -1.79918 0
M  V30 30 C 3.1822 -1.68303 -3.03795 0
M  V30 31 C 2.1362 -2.8283 -3.21234 0
M  V30 32 C 1.4622 -2.71189 -4.60826 0
M  V30 33 C 2.7622 -4.24211 -3.04701 0
M  V30 34 H 4.4562 -2.58341 -1.51328 0
M  V30 35 H 2.0022 -1.24325 -0.726585 0
M  V30 36 H 3.9552 -1.78693 -3.81637 0
M  V30 37 H 2.6792 -0.715635 -3.18663 0
M  V30 38 H 1.3382 -2.71983 -2.45807 0
M  V30 39 H 0.9862 -1.72435 -4.7252 0
M  V30 40 H 0.6862 -3.48035 -4.7344 0
M  V30 41 H 2.2102 -2.83537 -5.40777 0
M  V30 42 H 3.6242 -4.3593 -3.72341 0
M  V30 43 H 2.0212 -5.01998 -3.28813 0
M  V30 44 H 3.0912 -4.41184 -2.01209 0
M  V30 45 N 4.4343 0.785586 -1.36625 0
M  V30 46 C 5.8453 1.36101 -1.27803 0
M  V30 47 C 6.1963 1.96035 0.0804875 0
M  V30 48 O 5.3213 1.92834 0.982042 0
M  V30 49 C 5.9163 2.47442 -2.31426 0
M  V30 50 C 4.4753 3.00789 -2.26281 0
M  V30 51 C 3.6223 1.73896 -2.15999 0
M  V30 52 H 6.5733 0.586928 -1.47448 0
M  V30 53 H 6.5943 3.2656 -1.95291 0
M  V30 54 H 6.1063 2.03791 -3.30289 0
M  V30 55 H 4.2073 3.48851 -1.30896 0
M  V30 56 H 4.3203 3.57343 -3.19128 0
M  V30 57 H 2.6843 1.9628 -1.62316 0
M  V30 58 H 3.4673 1.32368 -3.16755 0
M  V30 59 N 5.9124 1.20967 1.01018 0
M  V30 60 C 7.3234 1.02319 1.56165 0
M  V30 61 C 7.6744 -0.418546 1.91684 0
M  V30 62 O 6.7994 -1.30096 1.72928 0
M  V30 63 C 7.3944 1.85109 2.8376 0
M  V30 64 C 5.9534 1.70809 3.35412 0
M  V30 65 C 5.1004 1.82643 2.08655 0
M  V30 66 H 8.0514 1.35065 0.833255 0
M  V30 67 H 8.0724 1.35827 3.55431 0
M  V30 68 H 7.5844 2.90035 2.57878 0
M  V30 69 H 5.6854 0.685464 3.66241 0
M  V30 70 H 5.7984 2.52467 4.07182 0
M  V30 71 H 4.1624 1.25896 2.21409 0
M  V30 72 H 4.9454 2.89066 1.85191 0
M  V30 73 N 7.3905 -1.2043 1.01659 0
M  V30 74 C 8.3205 -2.25466 0.607226 0
M  V30 75 C 9.3015 -1.65853 -0.377716 0
M  V30 76 O 10.4865 -1.92409 -0.263149 0
M  V30 77 C 7.6165 -3.47256 -0.0552949 0
M  V30 78 C 6.5705 -4.19462 0.850632 0
M  V30 79 C 5.8965 -5.34673 0.0538859 0
M  V30 80 C 7.1965 -4.75603 2.15868 0
M  V30 81 H 8.8905 -2.59962 1.48526 0
M  V30 82 H 6.4365 -1.2496 0.715605 0
M  V30 83 H 8.3895 -4.19917 -0.353233 0
M  V30 84 H 7.1135 -3.11924 -0.968045 0
M  V30 85 H 5.7725 -3.48667 1.13257 0
M  V30 86 H 5.4205 -4.95585 -0.860514 0
M  V30 87 H 5.1205 -5.83913 0.657192 0
M  V30 88 H 6.6445 -6.10138 -0.237598 0
M  V30 89 H 8.0585 -5.40083 1.92311 0
M  V30 90 H 6.4555 -5.3528 2.71284 0
M  V30 91 H 7.5255 -3.94346 2.82169 0
M  V30 92 N 8.8686 -0.792821 -1.36206 0
M  V30 93 C 9.7986 -0.207853 -2.32573 0
M  V30 94 C 10.7796 0.659055 -1.56813 0
M  V30 95 O 11.9646 0.592176 -1.84951 0
M  V30 96 C 9.0946 0.655449 -3.41059 0
M  V30 97 C 8.0486 -0.111842 -4.27854 0
M  V30 98 C 7.3746 0.872274 -5.27537 0
M  V30 99 C 8.6746 -1.30299 -5.05786 0
M  V30 100 H 10.3686 -1.01294 -2.81744 0
M  V30 101 H 7.9146 -0.48854 -1.3546 0
M  V30 102 H 9.8676 1.07464 -4.07467 0
M  V30 103 H 8.5916 1.49328 -2.90463 0
M  V30 104 H 7.2506 -0.512053 -3.63006 0
M  V30 105 H 6.8986 1.70523 -4.73214 0
M  V30 106 H 6.5986 0.363291 -5.86476 0
M  V30 107 H 8.1226 1.28996 -5.96818 0
M  V30 108 H 9.5366 -0.959379 -5.65216 0
M  V30 109 H 7.9336 -1.7455 -5.74154 0
M  V30 110 H 9.0036 -2.09663 -4.37229 0
M  V30 111 N 10.3467 1.47872 -0.545128 0
M  V30 112 C 11.5717 2.07391 -0.0190611 0
M  V30 113 C 11.9967 1.39688 1.25971 0
M  V30 114 O 11.3547 0.467816 1.7516 0
M  V30 115 C 11.4027 3.60188 0.172335 0
M  V30 116 O 10.5067 3.9339 1.23766 0
M  V30 117 H 9.8477 0.662411 -0.0459059 0
M  V30 118 H 12.3777 1.90066 -0.757365 0
M  V30 119 H 12.3877 4.06129 0.390305 0
M  V30 120 H 11.0627 4.08865 -0.761725 0
M  V30 121 H 9.6397 3.5921 1.00114 0
M  V30 122 N 11.8248 0.280983 1.55075 0
M  V30 123 C 12.7548 -0.597469 2.25727 0
M  V30 124 C 13.7358 -1.15417 1.24952 0
M  V30 125 O 14.9208 -1.18722 1.53684 0
M  V30 126 C 12.0508 -1.7789 2.98283 0
M  V30 127 C 11.0048 -1.35347 4.06036 0
M  V30 128 C 10.3308 -2.61846 4.66198 0
M  V30 129 C 11.6308 -0.499354 5.19907 0
M  V30 130 H 13.3248 -0.00824265 2.99399 0
M  V30 131 H 10.8708 -0.0025244 1.44 0
M  V30 132 H 12.8238 -2.39937 3.46422 0
M  V30 133 H 11.5478 -2.39405 2.22155 0
M  V30 134 H 10.2068 -0.756156 3.58717 0
M  V30 135 H 9.8548 -3.21632 3.86732 0
M  V30 136 H 9.5548 -2.3409 5.38958 0
M  V30 137 H 11.0788 -3.24732 5.1709 0
M  V30 138 H 12.4928 -1.02498 5.64063 0
M  V30 139 H 10.8898 -0.316424 5.99265 0
M  V30 140 H 11.9598 0.480459 4.82514 0
M  V30 141 N 13.3029 -1.57598 0.00835791 0
M  V30 142 C 14.7139 -1.7892 -0.53333 0
M  V30 143 C 15.0649 -0.916609 -1.73473 0
M  V30 144 O 14.1899 -0.121336 -2.1606 0
M  V30 145 C 14.7849 -3.24488 -0.974313 0
M  V30 146 C 13.3439 -3.46878 -1.46125 0
M  V30 147 C 12.4909 -2.74157 -0.416302 0
M  V30 148 H 15.4419 -1.56958 0.234495 0
M  V30 149 H 15.4629 -3.3306 -1.83988 0
M  V30 150 H 14.9749 -3.87972 -0.099718 0
M  V30 151 H 13.0759 -2.8862 -2.35646 0
M  V30 152 H 13.1889 -4.55572 -1.48295 0
M  V30 153 H 11.5529 -2.39022 -0.87981 0
M  V30 154 H 12.3359 -3.40345 0.44947 0
M  V30 155 N 14.781 0.264519 -1.55364 0
M  V30 156 C 16.006 1.01726 -1.80739 0
M  V30 157 C 16.431 1.78836 -0.583044 0
M  V30 158 O 15.789 1.75167 0.467566 0
M  V30 159 C 15.837 1.94482 -3.03659 0
M  V30 160 O 14.941 3.03386 -2.7934 0
M  V30 161 H 14.282 0.290395 -0.597132 0
M  V30 162 H 16.812 0.290854 -2.02522 0
M  V30 163 H 16.822 2.36278 -3.32621 0
M  V30 164 H 15.497 1.37772 -3.92418 0
M  V30 165 H 14.074 2.65844 -2.61498 0
M  V30 166 N 16.2591 1.48442 0.529413 0
M  V30 167 C 17.2071 1.63452 1.65487 0
M  V30 168 C 18.2011 0.500955 1.61823 0
M  V30 169 O 19.4071 0.679695 1.66674 0
M  V30 170 H 15.7821 0.514905 0.548066 0
M  V30 171 H 17.7531 2.57975 1.49971 0
M  V30 172 C 16.5021 1.69196 3.03756 0
M  V30 173 H 15.8251 2.55784 3.07269 0
M  V30 174 H 17.2651 1.83743 3.82119 0
M  V30 175 C 15.7241 0.430765 3.34135 0
M  V30 176 O 16.2541 -0.4561 3.99102 0
M  V30 177 N 14.4601 0.302293 2.89023 0
M  V30 178 H 14.0071 1.02496 2.36331 0
M  V30 179 H 13.9651 -0.540546 3.09718 0
M  V30 180 N 17.7372 -0.778329 1.37039 0
M  V30 181 C 18.9622 -1.57248 1.35233 0
M  V30 182 C 19.3872 -1.87999 -0.0615568 0
M  V30 183 O 18.7452 -1.48734 -1.03672 0
M  V30 184 C 18.7932 -2.86353 2.19167 0
M  V30 185 O 17.8972 -3.80442 1.59178 0
M  V30 186 H 17.2382 -0.476569 0.462362 0
M  V30 187 H 19.7682 -0.963853 1.80474 0
M  V30 188 H 19.7782 -3.35519 2.32145 0
M  V30 189 H 18.4532 -2.63299 3.21942 0
M  V30 190 H 17.0302 -3.39067 1.55203 0
M  V30 191 N 19.2153 -1.21501 -1.00376 0
M  V30 192 C 20.1783 -0.976927 -2.07337 0
M  V30 193 C 21.1783 0.0525322 -1.60714 0
M  V30 194 O 22.3683 -0.184869 -1.73216 0
M  V30 195 C 19.5003 -0.473423 -3.37597 0
M  V30 196 H 20.6933 -1.92587 -2.29892 0
M  V30 197 H 18.2463 -1.03217 -1.17371 0
M  V30 198 H 18.9813 0.480379 -3.20722 0
M  V30 199 H 18.7663 -1.216 -3.72768 0
M  V30 200 H 20.2563 -0.32675 -4.1632 0
M  V30 201 N 20.6934 1.19889 -1.02296 0
M  V30 202 C 22.1044 1.71124 -0.746568 0
M  V30 203 C 22.4554 1.81939 0.734335 0
M  V30 204 O 21.5804 1.48639 1.57275 0
M  V30 205 C 22.1754 3.10804 -1.34857 0
M  V30 206 C 20.7344 3.59323 -1.1209 0
M  V30 207 C 19.8814 2.3635 -1.45031 0
M  V30 208 H 22.8324 1.04813 -1.19163 0
M  V30 209 H 22.8534 3.73186 -0.742437 0
M  V30 210 H 22.3654 3.029 -2.42638 0
M  V30 211 H 20.4664 3.7255 -0.0610337 0
M  V30 212 H 20.5794 4.4378 -1.80544 0
M  V30 213 H 18.9434 2.39399 -0.869487 0
M  V30 214 H 19.7264 2.31081 -2.53883 0
M  V30 215 N 22.1715 0.800033 1.35784 0
M  V30 216 C 23.5875 0.482977 1.52117 0
M  V30 217 C 23.7875 -0.996948 1.75109 0
M  V30 218 O 22.8435 -1.78216 1.78872 0
M  V30 219 C 24.1565 1.32264 2.70049 0
M  V30 220 C 25.7045 1.31742 2.83924 0
M  V30 221 C 26.1795 2.14106 4.04874 0
M  V30 222 N 27.6705 2.11607 4.12039 0
M  V30 223 C 28.4055 2.72099 5.04727 0
M  V30 224 N 27.9015 3.41492 6.02789 0
M  V30 225 N 29.6945 2.61776 4.97423 0
M  V30 226 H 21.8455 1.75856 1.19115 0
M  V30 227 H 24.1085 0.748122 0.582252 0
M  V30 228 H 23.8145 2.37261 2.59616 0
M  V30 229 H 23.6885 0.971303 3.6448 0
M  V30 230 H 26.0755 0.275333 2.93813 0
M  V30 231 H 26.1565 1.70859 1.9037 0
M  V30 232 H 25.8005 3.18351 3.95746 0
M  V30 233 H 25.7305 1.72353 4.97596 0
M  V30 234 H 28.2215 1.61112 3.41835 0
M  V30 235 H 28.5345 3.84953 6.70098 0
M  V30 236 H 26.8795 3.45596 6.02983 0
M  V30 237 H 30.0705 2.07157 4.19766 0
M  V30 238 H 30.2435 3.0921 5.69468 0
M  V30 239 N 23.6496 -1.47581 0.552962 0
M  V30 240 C 24.8746 -2.07378 0.0300593 0
M  V30 241 C 25.2996 -1.40355 -1.25229 0
M  V30 242 O 24.6576 -0.477099 -1.7491 0
M  V30 243 C 24.7056 -3.60274 -0.153231 0
M  V30 244 O 23.8096 -3.94041 -1.21678 0
M  V30 245 H 23.1506 -0.662158 0.0494182 0
M  V30 246 H 25.6806 -1.89662 0.767434 0
M  V30 247 H 25.6906 -4.0633 -0.368761 0
M  V30 248 H 24.3656 -4.08455 0.783397 0
M  V30 249 H 22.9426 -3.59735 -0.982079 0
M  V30 250 N 25.1277 -0.289203 -1.54924 0
M  V30 251 C 26.0577 0.58549 -2.2604 0
M  V30 252 C 27.0387 1.14753 -1.25562 0
M  V30 253 O 28.2237 1.17906 -1.54311 0
M  V30 254 C 25.3537 1.76305 -2.99222 0
M  V30 255 C 24.3077 1.33191 -4.06748 0
M  V30 256 C 23.6337 2.5937 -4.6758 0
M  V30 257 C 24.9337 0.471775 -5.20165 0
M  V30 258 H 26.6277 -0.00763532 -2.99399 0
M  V30 259 H 24.1737 -0.00511229 -1.43999 0
M  V30 260 H 26.1267 2.38097 -3.47689 0
M  V30 261 H 24.8507 2.38223 -2.23422 0
M  V30 262 H 23.5097 0.737121 -3.59113 0
M  V30 263 H 23.1577 3.19576 -3.88433 0
M  V30 264 H 22.8577 2.31228 -5.40192 0
M  V30 265 H 24.3817 3.21985 -5.18804 0
M  V30 266 H 25.7957 0.995056 -5.64599 0
M  V30 267 H 24.1927 0.284639 -5.99425 0
M  V30 268 H 25.2627 -0.506041 -4.82252 0
M  V30 269 N 26.6058 1.57591 -0.0167156 0
M  V30 270 C 27.8538 1.90906 0.663285 0
M  V30 271 C 28.1748 0.892509 1.73376 0
M  V30 272 O 27.4448 -0.0677623 1.95783 0
M  V30 273 H 26.0248 0.704637 0.247983 0
M  V30 274 H 28.6868 1.94803 -0.0615909 0
M  V30 275 H 27.7828 2.9116 1.12393 0
M  V30 276 N 28.0839 -0.256276 1.55502 0
M  V30 277 C 29.4999 -0.604325 1.47716 0
M  V30 278 C 29.6999 -1.88763 0.705039 0
M  V30 279 O 28.7559 -2.51445 0.230613 0
M  V30 280 C 30.0689 -0.715756 2.92057 0
M  V30 281 C 31.6169 -0.808706 3.02372 0
M  V30 282 C 32.0919 -0.951777 4.48001 0
M  V30 283 N 33.5829 -1.01688 4.519 0
M  V30 284 C 34.3179 -1.14668 5.61817 0
M  V30 285 N 33.8139 -1.24261 6.81565 0
M  V30 286 N 35.6069 -1.1791 5.49594 0
M  V30 287 H 27.7579 0.586291 2.04148 0
M  V30 288 H 30.0209 0.201015 0.926443 0
M  V30 289 H 29.7269 0.157027 3.51349 0
M  V30 290 H 29.6009 -1.59071 3.42018 0
M  V30 291 H 31.9879 -1.67195 2.43166 0
M  V30 292 H 32.0689 0.0912063 2.55637 0
M  V30 293 H 31.7129 -0.0931291 5.07815 0
M  V30 294 H 31.6429 -1.86659 4.92408 0
M  V30 295 H 34.1339 -0.954468 3.65648 0
M  V30 296 H 34.4469 -1.34046 7.61086 0
M  V30 297 H 32.7919 -1.21236 6.84344 0
M  V30 298 H 35.9829 -1.10057 4.54978 0
M  V30 299 H 36.1559 -1.27681 6.35296 0
M  V30 300 N 29.562 -1.4872 -0.521534 0
M  V30 301 C 30.808 -1.574 -1.27879 0
M  V30 302 C 31.141 -0.250817 -1.92573 0
M  V30 303 O 30.416 0.743934 -1.79711 0
M  V30 304 C 30.699 -2.71843 -2.36164 0
M  V30 305 C 30.552 -4.13893 -1.76105 0
M  V30 306 C 31.871 -2.82008 -3.37875 0
M  V30 307 H 28.99 -0.572941 -0.463581 0
M  V30 308 H 31.632 -1.80927 -0.580119 0
M  V30 309 H 29.782 -2.51914 -2.95756 0
M  V30 310 H 31.454 -4.45284 -1.20499 0
M  V30 311 H 29.697 -4.20498 -1.06601 0
M  V30 312 H 30.368 -4.89804 -2.5455 0
M  V30 313 H 32.844 -3.00086 -2.88249 0
M  V30 314 H 31.72 -3.63796 -4.11028 0
M  V30 315 H 31.981 -1.90511 -3.98946 0
M  V30 316 N 31.0401 0.771051 -1.3745 0
M  V30 317 C 31.9501 1.91538 -1.35464 0
M  V30 318 C 32.9661 1.72134 -0.254123 0
M  V30 319 O 34.1421 1.95358 -0.489626 0
M  V30 320 C 31.2071 3.26671 -1.16134 0
M  V30 321 C 30.2681 3.58723 -2.35831 0
M  V30 322 C 29.5011 4.87409 -2.17413 0
M  V30 323 O 29.7241 5.58506 -1.15876 0
M  V30 324 O 28.6581 5.18539 -3.05615 0
M  V30 325 H 32.4841 1.96165 -2.31847 0
M  V30 326 H 30.0691 0.9139 -1.18187 0
M  V30 327 H 31.9511 4.07499 -1.07345 0
M  V30 328 H 30.6261 3.22894 -0.228251 0
M  V30 329 H 29.5331 2.78127 -2.50192 0
M  V30 330 H 30.8661 3.67243 -3.27709 0
M  V30 331 N 32.5182 1.22032 0.997298 0
M  V30 332 C 33.7462 1.06841 1.7718 0
M  V30 333 C 34.1612 -0.381325 1.84909 0
M  V30 334 O 33.5182 -1.26437 1.31605 0
M  V30 335 C 33.5692 1.66814 3.20711 0
M  V30 336 O 33.2902 3.06116 3.13408 0
M  V30 337 C 34.7912 1.56838 4.14628 0
M  V30 338 H 32.0112 0.374782 0.556578 0
M  V30 339 H 34.5552 1.61532 1.2541 0
M  V30 340 H 32.7102 1.16196 3.69564 0
M  V30 341 H 33.1242 3.34926 4.0364 0
M  V30 342 H 34.5982 2.03532 5.13107 0
M  V30 343 H 35.0752 0.524155 4.36061 0
M  V30 344 H 35.6812 2.06741 3.7167 0
M  V30 345 N 33.9963 -1.19345 1.0293 0
M  V30 346 C 35.4073 -1.70725 0.755633 0
M  V30 347 C 35.7583 -1.82326 -0.724676 0
M  V30 348 O 34.8833 -1.49471 -1.56484 0
M  V30 349 C 35.4783 -3.10084 1.36503 0
M  V30 350 C 34.0373 -3.58723 1.13994 0
M  V30 351 C 33.1843 -2.35577 1.46283 0
M  V30 352 H 36.1353 -1.0418 1.19718 0
M  V30 353 H 36.1563 -3.72787 0.762217 0
M  V30 354 H 35.6683 -3.01609 2.44241 0
M  V30 355 H 33.7693 -3.72512 0.0807901 0
M  V30 356 H 33.8823 -4.42816 1.82894 0
M  V30 357 H 32.2463 -2.38935 0.88217 0
M  V30 358 H 33.0293 -2.29731 2.55105 0
M  V30 359 N 35.4744 -0.807222 -1.35358 0
M  V30 360 C 36.8854 -0.44876 -1.81226 0
M  V30 361 C 37.2364 1.02929 -1.67033 0
M  V30 362 O 36.3614 1.79991 -1.20133 0
M  V30 363 C 36.9564 -0.807774 -3.2903 0
M  V30 364 C 35.5154 -0.501901 -3.73039 0
M  V30 365 C 34.6624 -1.03304 -2.57339 0
M  V30 366 H 37.6134 -0.998808 -1.23327 0
M  V30 367 H 37.6344 -0.10554 -3.80354 0
M  V30 368 H 37.1464 -1.88357 -3.39328 0
M  V30 369 H 35.2474 0.565128 -3.68289 0
M  V30 370 H 35.3604 -1.03497 -4.67787 0
M  V30 371 H 33.7244 -0.455339 -2.50597 0
M  V30 372 H 34.5074 -2.11496 -2.70415 0
M  V30 373 N 36.9525 1.47285 -0.560781 0
M  V30 374 C 37.8625 2.33846 0.187954 0
M  V30 375 C 38.8785 1.48412 0.908293 0
M  V30 376 O 40.0545 1.81332 0.876388 0
M  V30 377 C 37.1195 3.25178 1.2025 0
M  V30 378 C 36.1805 4.26504 0.489208 0
M  V30 379 C 35.4135 5.13472 1.45542 0
M  V30 380 O 35.6365 5.02959 2.6905 0
M  V30 381 O 34.5705 5.93902 0.977963 0
M  V30 382 H 38.3965 2.99177 -0.522177 0
M  V30 383 H 35.9815 1.45903 -0.321364 0
M  V30 384 H 37.8635 3.81584 1.78805 0
M  V30 385 H 36.5385 2.6247 1.89449 0
M  V30 386 H 35.4455 3.73847 -0.137627 0
M  V30 387 H 36.7785 4.91935 -0.161399 0
M  V30 388 N 38.4306 0.297415 1.54768 0
M  V30 389 C 39.6766 -0.313376 2.00364 0
M  V30 390 C 40.0096 -1.53815 1.18553 0
M  V30 391 O 39.2846 -1.92739 0.261103 0
M  V30 392 C 39.5676 -0.673525 3.53745 0
M  V30 393 C 39.4206 0.560133 4.46299 0
M  V30 394 C 40.7396 -1.50143 4.13697 0
M  V30 395 H 37.8586 -0.112428 0.728374 0
M  V30 396 H 40.5006 0.4088 1.8555 0
M  V30 397 H 38.6506 -1.28881 3.665 0
M  V30 398 H 40.3226 1.19863 4.45455 0
M  V30 399 H 38.5656 1.19405 4.17043 0
M  V30 400 H 39.2366 0.26405 5.51368 0
M  V30 401 H 41.7126 -0.981588 4.04356 0
M  V30 402 H 40.5886 -1.72221 5.21182 0
M  V30 403 H 40.8496 -2.48952 3.65343 0
M  V30 404 N 39.9087 -1.5758 0.0250728 0
M  V30 405 C 41.1547 -1.91917 -0.655413 0
M  V30 406 C 41.4877 -0.901433 -1.72011 0
M  V30 407 O 40.7627 0.0764069 -1.9435 0
M  V30 408 C 41.0457 -3.36751 -1.27558 0
M  V30 409 C 40.8987 -4.49258 -0.220719 0
M  V30 410 C 42.2177 -3.81469 -2.19475 0
M  V30 411 H 39.3367 -0.697925 -0.23679 0
M  V30 412 H 41.9787 -1.89825 0.0815036 0
M  V30 413 H 40.1287 -3.38664 -1.90365 0
M  V30 414 H 41.8007 -4.59478 0.409601 0
M  V30 415 H 40.0437 -4.31415 0.454264 0
M  V30 416 H 40.7147 -5.47618 -0.694175 0
M  V30 417 H 43.1907 -3.81266 -1.66659 0
M  V30 418 H 42.0667 -4.83512 -2.59822 0
M  V30 419 H 42.3277 -3.16744 -3.08424 0
M  V30 420 N 41.3868 0.248026 -1.55636 0
M  V30 421 C 42.6638 0.998988 -1.68165 0
M  V30 422 C 43.0438 2.03409 -0.564621 0
M  V30 423 O 42.3918 2.24378 0.432076 0
M  V30 424 C 42.6018 1.63334 -3.0842 0
M  V30 425 C 43.9498 2.13562 -3.66983 0
M  V30 426 O 44.9738 1.73277 -3.11213 0
M  V30 427 O 43.8328 2.87526 -4.64749 0
M  V30 428 H 40.9268 0.464933 -0.683935 0
M  V30 429 H 43.4728 0.241902 -1.67967 0
M  V30 430 H 42.2448 0.884583 -3.8117 0
M  V30 431 H 41.8678 2.45666 -3.12624 0
M  V30 432 N 42.8649 1.48995 0.513639 0
M  V30 433 C 44.1119 1.57843 1.26854 0
M  V30 434 C 44.4399 0.259501 1.92761 0
M  V30 435 O 43.6949 -0.75159 1.80692 0
M  V30 436 C 43.9939 2.67756 2.36731 0
M  V30 437 C 43.6599 4.09669 1.88368 0
M  V30 438 C 42.3219 4.48291 1.74896 0
M  V30 439 C 44.6739 4.98537 1.52021 0
M  V30 440 C 42.0019 5.73568 1.23438 0
M  V30 441 C 44.3539 6.24319 1.0202 0
M  V30 442 C 43.0179 6.61783 0.871778 0
M  V30 443 H 42.2879 0.577587 0.464192 0
M  V30 444 H 44.9349 1.82778 0.571366 0
M  V30 445 H 43.2399 2.36743 3.12185 0
M  V30 446 H 44.9369 2.71813 2.9482 0
M  V30 447 H 41.5269 3.79176 1.99808 0
M  V30 448 H 45.7109 4.69363 1.61281 0
M  V30 449 H 40.9669 6.01304 1.10648 0
M  V30 450 H 45.1409 6.92566 0.729722 0
M  V30 451 H 42.7679 7.5874 0.470852 0
M  V30 452 N 44.343 -0.763751 1.37857 0
M  V30 453 C 45.276 -1.88486 1.28639 0
M  V30 454 C 46.254 -1.61757 0.165363 0
M  V30 455 O 47.438 -1.85391 0.340948 0
M  V30 456 C 44.565 -3.23884 0.990811 0
M  V30 457 C 43.611 -3.69514 2.12983 0
M  V30 458 S 44.444 -3.82244 3.75033 0
M  V30 459 C 45.6 -5.20477 3.47641 0
M  V30 460 H 45.833 -1.96017 2.23527 0
M  V30 461 H 43.366 -0.925684 1.23574 0
M  V30 462 H 45.324 -4.02081 0.827101 0
M  V30 463 H 43.985 -3.14044 0.0592832 0
M  V30 464 H 43.178 -4.67696 1.87821 0
M  V30 465 H 42.78 -2.98441 2.25408 0
M  V30 466 H 45.072 -6.05905 3.03125 0
M  V30 467 H 46.015 -5.50655 4.4518 0
M  V30 468 H 46.423 -4.88793 2.82385 0
M  V30 469 N 45.8211 -1.22559 -0.990812 0
M  V30 470 C 47.0671 -1.05297 -1.73322 0
M  V30 471 C 47.4001 0.410655 -1.89808 0
M  V30 472 O 46.6751 1.30439 -1.44277 0
M  V30 473 C 46.9581 -1.76713 -3.13759 0
M  V30 474 C 46.8111 -3.30684 -3.04907 0
M  V30 475 C 48.1301 -1.52121 -4.12974 0
M  V30 476 H 45.2491 -0.38392 -0.629106 0
M  V30 477 H 47.8911 -1.50926 -1.15418 0
M  V30 478 H 46.0411 -1.37924 -3.63193 0
M  V30 479 H 47.7131 -3.7893 -2.63077 0
M  V30 480 H 45.9561 -3.60253 -2.41661 0
M  V30 481 H 46.6271 -3.75833 -4.04294 0
M  V30 482 H 49.1031 -1.85819 -3.72304 0
M  V30 483 H 47.9791 -2.04582 -5.0935 0
M  V30 484 H 48.2401 -0.454257 -4.3976 0
M  V30 485 N 47.2992 1.18797 -1.03562 0
M  V30 486 C 48.5242 1.9314 -0.755764 0
M  V30 487 C 48.9492 1.7537 0.68022 0
M  V30 488 O 48.3072 1.06046 1.47051 0
M  V30 489 C 48.3552 3.42747 -1.12058 0
M  V30 490 O 47.4592 4.11683 -0.243124 0
M  V30 491 H 46.8002 0.602724 -0.278604 0
M  V30 492 H 49.3302 1.50678 -1.3841 0
M  V30 493 H 49.3402 3.93437 -1.08035 0
M  V30 494 H 48.0152 3.55002 -2.16672 0
M  V30 495 H 46.5922 3.71323 -0.342539 0
M  V30 496 N 48.7773 0.814389 1.34928 0
M  V30 497 C 49.7073 0.244827 2.32213 0
M  V30 498 C 50.6883 -0.634024 1.57842 0
M  V30 499 O 51.8733 -0.562676 1.8587 0
M  V30 500 C 49.0033 -0.601106 3.42058 0
M  V30 501 C 47.9573 0.179896 4.27622 0
M  V30 502 C 47.2833 -0.788237 5.28858 0
M  V30 503 C 48.5833 1.38329 5.03649 0
M  V30 504 H 50.2773 1.05763 2.80097 0
M  V30 505 H 47.8233 0.510029 1.34665 0
M  V30 506 H 49.7763 -1.00968 4.09125 0
M  V30 507 H 48.5003 -1.44688 2.92802 0
M  V30 508 H 47.1593 0.569739 3.62146 0
M  V30 509 H 46.8073 -1.62973 4.75866 0
M  V30 510 H 46.5073 -0.269942 5.8698 0
M  V30 511 H 48.0313 -1.19485 5.98795 0
M  V30 512 H 49.4453 1.04918 5.63618 0
M  V30 513 H 47.8423 1.83662 5.71304 0
M  V30 514 H 48.9123 2.16592 4.33839 0
M  V30 515 N 50.2554 -1.46986 0.568584 0
M  V30 516 C 51.2184 -2.28624 -0.162366 0
M  V30 517 C 52.2184 -1.37596 -0.832103 0
M  V30 518 O 53.4084 -1.60115 -0.68622 0
M  V30 519 C 50.5404 -3.17596 -1.23878 0
M  V30 520 H 51.7334 -2.94722 0.554899 0
M  V30 521 H 49.2864 -1.52863 0.325976 0
M  V30 522 H 50.0214 -2.56214 -1.98808 0
M  V30 523 H 49.8064 -3.846 -0.763219 0
M  V30 524 H 51.2964 -3.79078 -1.75185 0
M  V30 525 N 51.7335 -0.305618 -1.54608 0
M  V30 526 C 52.6435 0.57778 -2.27374 0
M  V30 527 C 53.6595 1.14451 -1.31061 0
M  V30 528 O 54.8355 1.16831 -1.6405 0
M  V30 529 C 51.9005 1.73123 -3.00382 0
M  V30 530 C 50.9615 1.19812 -4.12242 0
M  V30 531 C 50.1945 2.2966 -4.81759 0
M  V30 532 O 50.4175 3.49651 -4.50666 0
M  V30 533 O 49.3515 1.96091 -5.69062 0
M  V30 534 H 53.1775 -0.012624 -3.03697 0
M  V30 535 H 50.7625 -0.0719184 -1.49227 0
M  V30 536 H 52.6445 2.40315 -3.4616 0
M  V30 537 H 51.3195 2.30815 -2.26949 0
M  V30 538 H 50.2265 0.491798 -3.70853 0
M  V30 539 H 51.5595 0.666566 -4.87666 0
M  V30 540 N 53.2116 1.57565 -0.0334293 0
M  V30 541 C 54.1746 2.09393 0.932048 0
M  V30 542 C 55.1746 1.00986 1.25134 0
M  V30 543 O 56.3646 1.27129 1.19096 0
M  V30 544 C 53.4966 2.56338 2.2473 0
M  V30 545 H 54.6896 2.95984 0.483085 0
M  V30 546 H 52.2426 1.54819 0.21468 0
M  V30 547 H 52.9776 1.7309 2.74245 0
M  V30 548 H 52.7626 3.35542 2.02865 0
M  V30 549 H 54.2526 2.96646 2.93923 0
M  V30 550 N 54.6897 -0.239769 1.55765 0
M  V30 551 C 56.1007 -0.808263 1.68297 0
M  V30 552 C 56.4517 -1.85736 0.632181 0
M  V30 553 O 55.5767 -2.15277 -0.220204 0
M  V30 554 C 56.1717 -1.47284 3.05111 0
M  V30 555 C 54.7307 -1.98895 3.19559 0
M  V30 556 C 53.8777 -0.842575 2.64189 0
M  V30 557 H 56.8287 -0.0154422 1.58692 0
M  V30 558 H 56.8497 -2.34111 2.99954 0
M  V30 559 H 56.3617 -0.709053 3.81568 0
M  V30 560 H 54.4627 -2.78132 2.47938 0
M  V30 561 H 54.5757 -2.18143 4.26556 0
M  V30 562 H 52.9397 -1.24501 2.22197 0
M  V30 563 H 53.7227 -0.0917552 3.43177 0
M  V30 564 N 56.1678 -1.49265 -0.50573 0
M  V30 565 C 57.5838 -1.35923 -0.836486 0
M  V30 566 C 57.7838 -0.388704 -1.97715 0
M  V30 567 O 56.8398 0.181336 -2.51848 0
M  V30 568 C 58.1528 -2.76531 -1.18115 0
M  V30 569 C 59.7008 -2.85197 -1.28964 0
M  V30 570 C 60.1758 -4.26561 -1.66761 0
M  V30 571 N 61.6668 -4.2935 -1.73819 0
M  V30 572 C 62.4018 -5.35693 -2.045 0
M  V30 573 N 61.8978 -6.52287 -2.33438 0
M  V30 574 N 63.6908 -5.23105 -2.05711 0
M  V30 575 H 55.8418 -2.10965 0.246519 0
M  V30 576 H 58.1048 -0.9468 0.0476887 0
M  V30 577 H 57.8108 -3.49226 -0.416398 0
M  V30 578 H 57.6848 -3.11599 -2.1257 0
M  V30 579 H 60.0718 -2.12742 -2.04511 0
M  V30 580 H 60.1528 -2.53718 -0.325704 0
M  V30 581 H 59.7968 -4.99541 -0.917656 0
M  V30 582 H 59.7268 -4.55502 -2.64246 0
M  V30 583 H 62.2178 -3.4526 -1.53635 0
M  V30 584 H 62.5308 -7.29158 -2.56024 0
M  V30 585 H 60.8758 -6.55521 -2.30905 0
M  V30 586 H 64.0668 -4.31026 -1.82577 0
M  V30 587 H 64.2398 -6.06078 -2.29289 0
M  V30 588 N 57.6459 0.756429 -1.3826 0
M  V30 589 C 58.8939 1.51248 -1.34047 0
M  V30 590 C 59.2149 1.94875 0.0698372 0
M  V30 591 O 58.4849 1.67436 1.01696 0
M  V30 592 H 57.0649 0.561018 -0.493222 0
M  V30 593 H 59.7269 0.899347 -1.7291 0
M  V30 594 H 58.8229 2.40472 -1.98947 0
M  V30 595 N 59.124 1.23083 0.984299 0
M  V30 596 C 60.372 1.05848 1.72165 0
M  V30 597 C 60.693 -0.406049 1.90726 0
M  V30 598 O 59.963 -1.29139 1.47309 0
M  V30 599 H 58.543 0.388685 0.637913 0
M  V30 600 H 61.205 1.54736 1.18503 0
M  V30 601 H 60.301 1.54327 2.71274 0
M  V30 602 N 60.6021 -1.18246 1.0419 0
M  V30 603 C 62.0181 -1.40269 0.761366 0
M  V30 604 C 62.2181 -1.90777 -0.648578 0
M  V30 605 O 61.2741 -2.0929 -1.41258 0
M  V30 606 C 62.5871 -2.40237 1.8085 0
M  V30 607 C 64.1351 -2.53961 1.82955 0
M  V30 608 C 64.6101 -3.57194 2.86664 0
M  V30 609 N 66.1011 -3.64702 2.85563 0
M  V30 610 C 66.8361 -4.44309 3.6246 0
M  V30 611 N 66.3321 -5.27514 4.49111 0
M  V30 612 N 68.1251 -4.39084 3.50944 0
M  V30 613 H 60.2761 -0.837882 1.95175 0
M  V30 614 H 62.5391 -0.430608 0.84456 0
M  V30 615 H 62.2451 -2.10176 2.81991 0
M  V30 616 H 62.1191 -3.39601 1.64168 0
M  V30 617 H 64.5061 -2.83338 0.824855 0
M  V30 618 H 64.5871 -1.54706 2.03715 0
M  V30 619 H 64.2311 -3.28558 3.87314 0
M  V30 620 H 64.1611 -4.5613 2.6316 0
M  V30 621 H 66.6521 -3.05289 2.22727 0
M  V30 622 H 66.9651 -5.85411 5.04493 0
M  V30 623 H 65.3101 -5.2693 4.53178 0
M  V30 624 H 68.5011 -3.7313 2.82651 0
M  V30 625 H 68.6741 -5.00883 4.11121 0
M  V30 626 N 62.0802 -0.821533 -1.34494 0
M  V30 627 C 63.3262 -0.409552 -1.98622 0
M  V30 628 C 63.6592 1.0244 -1.64984 0
M  V30 629 O 62.9342 1.71325 -0.920758 0
M  V30 630 C 63.2172 -0.610458 -3.54888 0
M  V30 631 C 63.0702 -2.09043 -3.98273 0
M  V30 632 C 64.3892 -0.0455379 -4.40076 0
M  V30 633 H 61.5082 -0.15028 -0.721516 0
M  V30 634 H 64.1502 -1.03384 -1.59411 0
M  V30 635 H 62.3002 -0.079044 -3.8842 0
M  V30 636 H 63.9722 -2.68537 -3.75081 0
M  V30 637 H 62.2152 -2.58139 -3.48635 0
M  V30 638 H 62.8862 -2.18182 -5.07051 0
M  V30 639 H 65.3622 -0.499557 -4.1309 0
M  V30 640 H 64.2382 -0.215922 -5.48475 0
M  V30 641 H 64.4992 1.04939 -4.29465 0
M  V30 642 N 63.5583 1.46682 -0.576371 0
M  V30 643 C 64.4883 2.33028 0.148397 0
M  V30 644 C 65.4693 1.44961 0.889956 0
M  V30 645 O 66.6543 1.73789 0.866662 0
M  V30 646 C 63.7843 3.27117 1.1667 0
M  V30 647 C 62.7383 4.24575 0.540386 0
M  V30 648 C 62.0643 5.08126 1.6647 0
M  V30 649 C 63.3643 5.19722 -0.518331 0
M  V30 650 H 65.0583 2.93875 -0.572509 0
M  V30 651 H 62.6043 1.41315 -0.276768 0
M  V30 652 H 64.5573 3.86374 1.68204 0
M  V30 653 H 63.2813 2.64364 1.9178 0
M  V30 654 H 61.9403 3.66571 0.0461769 0
M  V30 655 H 61.5883 4.41762 2.40531 0
M  V30 656 H 61.2883 5.74122 1.25131 0
M  V30 657 H 62.8123 5.70246 2.18293 0
M  V30 658 H 64.2263 5.73232 -0.0883058 0
M  V30 659 H 62.6233 5.94026 -0.851679 0
M  V30 660 H 63.6933 4.64037 -1.40703 0
M  V30 661 N 65.0364 0.313813 1.54444 0
M  V30 662 C 65.9464 -0.565714 2.27677 0
M  V30 663 C 66.9624 -1.13754 1.31666 0
M  V30 664 O 68.1384 -1.15959 1.64668 0
M  V30 665 C 65.2034 -1.71528 3.01296 0
M  V30 666 C 64.2644 -1.17624 4.12872 0
M  V30 667 C 63.4974 -2.27102 4.8297 0
M  V30 668 O 63.7204 -3.47256 4.52514 0
M  V30 669 O 62.6544 -1.9307 5.70094 0
M  V30 670 H 66.4804 0.0287296 3.03686 0
M  V30 671 H 64.0654 0.0798312 1.49187 0
M  V30 672 H 65.9474 -2.38476 3.4743 0
M  V30 673 H 64.6224 -2.29608 2.2817 0
M  V30 674 H 63.5294 -0.472124 3.71109 0
M  V30 675 H 64.8624 -0.640695 4.88012 0
M  V30 676 N 66.5145 -1.57545 0.0417849 0
M  V30 677 C 67.9255 -1.80011 -0.495259 0
M  V30 678 C 68.2765 -0.953199 -1.71489 0
M  V30 679 O 67.4015 -0.167138 -2.15754 0
M  V30 680 C 67.9965 -3.26482 -0.905265 0
M  V30 681 C 66.5555 -3.499 -1.38734 0
M  V30 682 C 65.7025 -2.74979 -0.358056 0
M  V30 683 H 68.6535 -1.56425 0.267736 0
M  V30 684 H 68.6745 -3.36887 -1.76882 0
M  V30 685 H 68.1865 -3.88096 -0.017401 0
M  V30 686 H 66.2875 -2.93553 -2.29471 0
M  V30 687 H 66.4005 -4.58615 -1.38598 0
M  V30 688 H 64.7645 -2.40834 -0.828912 0
M  V30 689 H 65.5475 -3.39315 0.521561 0
M  V30 690 N 67.9926 0.231505 -1.5589 0
M  V30 691 C 68.9556 1.27028 -1.90779 0
M  V30 692 C 69.9556 1.40308 -0.785507 0
M  V30 693 O 71.1456 1.38744 -1.05336 0
M  V30 694 C 68.2776 2.64566 -2.14983 0
M  V30 695 H 69.4706 0.973017 -2.83677 0
M  V30 696 H 67.0236 0.471486 -1.49019 0
M  V30 697 H 67.7586 2.99406 -1.24604 0
M  V30 698 H 67.5436 2.56305 -2.96732 0
M  V30 699 H 69.0336 3.39543 -2.43105 0
M  V30 700 N 69.4707 1.49531 0.497807 0
M  V30 701 C 70.7107 1.60799 1.26187 0
M  V30 702 C 71.0747 0.289627 1.89803 0
M  V30 703 O 72.2757 0.277512 2.67364 0
M  V30 704 C 70.5467 2.73729 2.29798 0
M  V30 705 S 72.1057 3.04968 3.155 0
M  V30 706 H 68.9237 0.567145 0.428798 0
M  V30 707 H 71.5257 1.87204 0.563477 0
M  V30 708 H 70.2297 3.68036 1.81597 0
M  V30 709 H 69.7607 2.49328 3.04301 0
M  V30 710 H 71.7757 2.46735 4.30507 0
M  V30 711 N 70.9488 -0.749086 1.3866 0
M  V30 712 C 71.9118 -1.84457 1.36045 0
M  V30 713 C 72.9118 -1.58682 0.260122 0
M  V30 714 O 74.1018 -1.66343 0.517261 0
M  V30 715 C 71.2338 -3.22008 1.11911 0
M  V30 716 H 72.4268 -1.88182 2.33512 0
M  V30 717 H 69.9798 -0.951266 1.24019 0
M  V30 718 H 70.7148 -3.2395 0.150686 0
M  V30 719 H 70.4998 -3.42111 1.91579 0
M  V30 720 H 71.9898 -4.0208 1.12788 0
M  V30 721 N 72.4269 -1.23603 -0.977757 0
M  V30 722 C 73.3769 -0.986664 -2.05545 0
M  V30 723 C 74.3609 0.0683009 -1.60755 0
M  V30 724 O 75.5529 -0.144162 -1.76412 0
M  V30 725 C 72.6819 -0.582623 -3.3832 0
M  V30 726 C 71.7679 -1.67313 -3.89701 0
M  V30 727 N 72.1589 -2.90394 -4.14132 0
M  V30 728 C 70.4569 -1.54832 -4.18262 0
M  V30 729 C 71.1579 -3.61017 -4.56116 0
M  V30 730 N 70.1339 -2.8854 -4.60701 0
M  V30 731 H 73.9359 -1.92139 -2.22396 0
M  V30 732 H 71.4499 -1.1358 -1.16074 0
M  V30 733 H 73.4469 -0.38524 -4.15116 0
M  V30 734 H 72.1069 0.34503 -3.22862 0
M  V30 735 H 73.1179 -3.26673 -4.01877 0
M  V30 736 H 69.7949 -0.687969 -4.11793 0
M  V30 737 H 71.1849 -4.66544 -4.83514 0
M  V30 738 N 73.905 1.17692 -1.04816 0
M  V30 739 C 75.153 1.87488 -0.754497 0
M  V30 740 C 75.474 1.81205 0.720407 0
M  V30 741 O 74.744 1.23544 1.52032 0
M  V30 742 H 73.324 0.694101 -0.276102 0
M  V30 743 H 75.986 1.42793 -1.32651 0
M  V30 744 H 75.082 2.93328 -1.06606 0
M  V30 745 N 75.3831 0.828654 1.34056 0
M  V30 746 C 76.7941 0.477534 1.8049 0
M  V30 747 C 77.1451 -1.00258 1.6865 0
M  V30 748 O 76.2701 -1.78057 1.22982 0
M  V30 749 C 76.8651 0.860018 3.27703 0
M  V30 750 C 75.4241 0.561185 3.72193 0
M  V30 751 C 74.5711 1.07385 2.55663 0
M  V30 752 H 77.5221 1.0183 1.21722 0
M  V30 753 H 77.5431 0.166038 3.80138 0
M  V30 754 H 77.0551 1.93731 3.36288 0
M  V30 755 H 75.1561 -0.506465 3.69142 0
M  V30 756 H 75.2691 1.10926 4.66082 0
M  V30 757 H 73.6331 0.495149 2.49841 0
M  V30 758 H 74.4161 2.15771 2.67016 0
M  V30 759 N 76.8612 -1.46375 0.584142 0
M  V30 760 C 78.1082 -2.02378 0.0702675 0
M  V30 761 C 78.4362 -1.45545 -1.29023 0
M  V30 762 O 77.6912 -0.610967 -1.85918 0
M  V30 763 C 77.9902 -3.57373 -0.0439342 0
M  V30 764 C 77.6562 -4.33252 1.24915 0
M  V30 765 C 76.3182 -4.53701 1.60341 0
M  V30 766 C 78.6702 -4.7681 2.1048 0
M  V30 767 C 75.9982 -5.1496 2.81128 0
M  V30 768 C 78.3502 -5.39404 3.30494 0
M  V30 769 C 77.0142 -5.5808 3.66201 0
M  V30 770 H 76.2842 -0.740554 0.0257127 0
M  V30 771 H 78.9312 -1.75727 0.761065 0
M  V30 772 H 77.2362 -3.83169 -0.817869 0
M  V30 773 H 78.9332 -3.98384 -0.457318 0
M  V30 774 H 75.5232 -4.17633 0.963364 0
M  V30 775 H 79.7072 -4.60766 1.84414 0
M  V30 776 H 74.9632 -5.27611 3.08928 0
M  V30 777 H 79.1372 -5.72114 3.97063 0
M  V30 778 H 76.7642 -6.05318 4.59885 0
M  V30 779 N 78.3393 -0.321999 -1.54275 0
M  V30 780 C 79.2693 0.537411 -2.27231 0
M  V30 781 C 80.2503 1.12064 -1.27968 0
M  V30 782 O 81.4353 1.14606 -1.56777 0
M  V30 783 C 78.5653 1.69919 -3.02894 0
M  V30 784 C 77.5193 1.24534 -4.09482 0
M  V30 785 C 76.8453 2.49394 -4.72977 0
M  V30 786 C 78.1453 0.361335 -5.21049 0
M  V30 787 H 79.8393 -0.0711406 -2.99315 0
M  V30 788 H 77.3853 -0.0356555 -1.43956 0
M  V30 789 H 79.3383 2.30668 -3.52662 0
M  V30 790 H 78.0623 2.33431 -2.28424 0
M  V30 791 H 76.7213 0.660782 -3.60596 0
M  V30 792 H 76.3693 3.11265 -3.95124 0
M  V30 793 H 76.0693 2.19718 -5.44975 0
M  V30 794 H 77.5933 3.10908 -5.25517 0
M  V30 795 H 79.0073 0.875072 -5.66582 0
M  V30 796 H 77.4043 0.157428 -5.99893 0
M  V30 797 H 78.4743 -0.60822 -4.8107 0
M  V30 798 N 79.8174 1.5752 -0.0501392 0
M  V30 799 C 81.2334 1.56631 0.306402 0
M  V30 800 C 81.4334 1.0577 1.71508 0
M  V30 801 O 80.4894 0.713837 2.422 0
M  V30 802 C 81.8024 3.00393 0.135811 0
M  V30 803 C 83.3504 3.12315 0.206993 0
M  V30 804 C 83.8254 4.57954 0.064944 0
M  V30 805 N 85.3164 4.63041 0.121254 0
M  V30 806 C 86.0514 5.73389 0.0354381 0
M  V30 807 N 85.5474 6.92724 -0.102666 0
M  V30 808 N 87.3404 5.62026 0.090946 0
M  V30 809 H 79.4914 1.88903 -0.971046 0
M  V30 810 H 81.7544 0.869876 -0.376855 0
M  V30 811 H 81.4604 3.41635 -0.835384 0
M  V30 812 H 81.3344 3.66373 0.897275 0
M  V30 813 H 83.7214 2.70973 1.16866 0
M  V30 814 H 83.8024 2.49016 -0.585208 0
M  V30 815 H 83.4464 4.99981 -0.893394 0
M  V30 816 H 83.3764 5.19258 0.876277 0
M  V30 817 H 85.8674 3.77216 0.227284 0
M  V30 818 H 86.1804 7.72633 -0.160882 0
M  V30 819 H 84.5254 6.94864 -0.137737 0
M  V30 820 H 87.7164 4.67684 0.197388 0
M  V30 821 H 87.8894 6.47997 0.0206089 0
M  V30 822 N 81.2955 -0.223234 1.56011 0
M  V30 823 C 82.2585 -1.26014 1.9145 0
M  V30 824 C 83.2585 -1.3989 0.792937 0
M  V30 825 O 84.4485 -1.38184 1.0607 0
M  V30 826 C 81.5805 -2.63422 2.16383 0
M  V30 827 H 82.7735 -0.95796 2.84189 0
M  V30 828 H 80.3265 -0.463576 1.49267 0
M  V30 829 H 81.0615 -2.98741 1.2619 0
M  V30 830 H 80.8465 -2.54728 2.98088 0
M  V30 831 H 82.3365 -3.38249 2.44903 0
M  V30 832 N 82.7736 -1.49793 -0.48987 0
M  V30 833 C 84.0206 -1.59841 -1.24327 0
M  V30 834 C 84.3486 -0.290135 -1.92324 0
M  V30 835 O 83.6036 0.722749 -1.81865 0
M  V30 836 C 83.9026 -2.71488 -2.32441 0
M  V30 837 C 83.5686 -4.12614 -1.81826 0
M  V30 838 C 82.2306 -4.51017 -1.67742 0
M  V30 839 C 84.5826 -5.00892 -1.4407 0
M  V30 840 C 81.9106 -5.75459 -1.14297 0
M  V30 841 C 84.2626 -6.25863 -0.920742 0
M  V30 842 C 82.9266 -6.63086 -0.766383 0
M  V30 843 H 82.1966 -0.584899 -0.454944 0
M  V30 844 H 84.8436 -1.83663 -0.542215 0
M  V30 845 H 83.1486 -2.4168 -3.0838 0
M  V30 846 H 84.8456 -2.76469 -2.90458 0
M  V30 847 H 81.4356 -3.82307 -1.93751 0
M  V30 848 H 85.6196 -4.7187 -1.53794 0
M  V30 849 H 80.8756 -6.02989 -1.01068 0
M  V30 850 H 85.0496 -6.9364 -0.619448 0
M  V30 851 H 82.6766 -7.59393 -0.350083 0
M  V30 852 N 84.2517 0.741722 -1.39055 0
M  V30 853 C 85.6677 1.04638 -1.20512 0
M  V30 854 C 85.8677 2.01405 -0.0620218 0
M  V30 855 O 84.9237 2.45547 0.588457 0
M  V30 856 C 86.2367 1.6151 -2.53643 0
M  V30 857 C 87.7847 1.73623 -2.6043 0
M  V30 858 C 88.2597 2.33906 -3.93767 0
M  V30 859 N 89.7507 2.41323 -3.9537 0
M  V30 860 C 90.4857 2.88888 -4.95309 0
M  V30 861 N 89.9817 3.36401 -6.05645 0
M  V30 862 N 91.7747 2.88037 -4.82692 0
M  V30 863 H 83.9257 0.0998155 -2.12165 0
M  V30 864 H 86.1887 0.106907 -0.941953 0
M  V30 865 H 85.8947 0.978739 -3.37807 0
M  V30 866 H 85.7687 2.60411 -2.72885 0
M  V30 867 H 88.1557 2.36384 -1.76655 0
M  V30 868 H 88.2367 0.733945 -2.45045 0
M  V30 869 H 87.8807 1.71776 -4.7797 0
M  V30 870 H 87.8107 3.34799 -4.06469 0
M  V30 871 H 90.3017 2.07734 -3.15682 0
M  V30 872 H 90.6147 3.71186 -6.77821 0
M  V30 873 H 88.9597 3.34427 -6.09248 0
M  V30 874 H 92.1507 2.50237 -3.95599 0
M  V30 875 H 92.3237 3.24792 -5.60726 0
M  V30 876 N 85.7298 1.2412 0.971189 0
M  V30 877 C 86.6398 1.04747 2.09917 0
M  V30 878 C 87.6558 -0.0107162 1.73997 0
M  V30 879 O 88.8318 0.186714 2.00533 0
M  V30 880 C 85.8968 0.650828 3.40537 0
M  V30 881 C 84.9578 1.7851 3.90426 0
M  V30 882 C 84.1908 1.40729 5.14812 0
M  V30 883 O 84.4138 0.29557 5.69634 0
M  V30 884 O 83.3478 2.23168 5.58999 0
M  V30 885 H 87.1738 1.99304 2.29154 0
M  V30 886 H 84.7588 1.02908 1.08307 0
M  V30 887 H 86.6408 0.440992 4.19086 0
M  V30 888 H 85.3158 -0.265649 3.22608 0
M  V30 889 H 84.2228 2.04966 3.12953 0
M  V30 890 H 85.5558 2.68023 4.12825 0
M  V30 891 N 87.2079 -1.17134 1.05439 0
M  V30 892 C 88.1709 -2.19439 0.661764 0
M  V30 893 C 89.1709 -1.58199 -0.288042 0
M  V30 894 O 90.3609 -1.74053 -0.0715803 0
M  V30 895 C 87.4929 -3.40889 -0.0276209 0
M  V30 896 H 88.6859 -2.55688 1.56728 0
M  V30 897 H 86.2389 -1.31259 0.848567 0
M  V30 898 H 86.9739 -3.10187 -0.94629 0
M  V30 899 H 86.7589 -3.86586 0.655238 0
M  V30 900 H 88.2489 -4.16603 -0.288342 0
M  V30 901 N 88.686 -0.835752 -1.33615 0
M  V30 902 C 89.636 -0.238856 -2.26745 0
M  V30 903 C 90.62 0.604343 -1.49119 0
M  V30 904 O 91.812 0.456822 -1.71003 0
M  V30 905 C 88.941 0.587725 -3.38232 0
M  V30 906 C 88.027 -0.266811 -4.2326 0
M  V30 907 N 88.418 -1.34403 -4.87616 0
M  V30 908 C 86.716 -0.0533131 -4.45968 0
M  V30 909 C 87.417 -1.86819 -5.50884 0
M  V30 910 N 86.393 -1.17013 -5.30857 0
M  V30 911 H 90.195 -1.06266 -2.74016 0
M  V30 912 H 87.709 -0.679881 -1.47483 0
M  V30 913 H 89.706 1.03161 -4.03935 0
M  V30 914 H 88.366 1.40954 -2.9251 0
M  V30 915 H 89.377 -1.7269 -4.88261 0
M  V30 916 H 86.054 0.735312 -4.10974 0
M  V30 917 H 87.444 -2.7701 -6.1214 0
M  V30 918 N 90.1641 1.46063 -0.591896 0
M  V30 919 C 91.4121 2.01938 -0.0808391 0
M  V30 920 C 91.7331 1.46475 1.28725 0
M  V30 921 O 91.0031 0.652944 1.84698 0
M  V30 922 H 89.5831 0.746516 -0.0268938 0
M  V30 923 H 92.2451 1.79055 -0.769752 0
M  V30 924 H 91.3411 3.12094 -0.0187578 0
M  V30 925 N 91.6422 0.330177 1.54103 0
M  V30 926 C 92.8702 -0.272179 2.05102 0
M  V30 927 C 93.2852 -1.45267 1.20595 0
M  V30 928 O 92.6422 -1.8094 0.238144 0
M  V30 929 C 92.6932 -0.70023 3.54653 0
M  V30 930 O 92.4142 0.433301 4.35952 0
M  V30 931 C 93.9152 -1.3647 4.21771 0
M  V30 932 H 91.1352 -0.0549159 0.668749 0
M  V30 933 H 93.6792 0.478285 1.98828 0
M  V30 934 H 91.8342 -1.40066 3.61193 0
M  V30 935 H 92.2482 0.0947539 5.24414 0
M  V30 936 H 93.7222 -1.61509 5.27843 0
M  V30 937 H 94.1992 -2.31409 3.73292 0
M  V30 938 H 94.8052 -0.706675 4.19388 0
M  V30 939 N 93.1203 -1.57491 0.0584922 0
M  V30 940 C 94.0833 -2.1085 -0.898617 0
M  V30 941 C 95.0833 -1.02964 -1.23511 0
M  V30 942 O 96.2733 -1.29007 -1.17059 0
M  V30 943 C 93.4053 -2.59881 -2.20623 0
M  V30 944 H 94.5983 -2.96715 -0.435936 0
M  V30 945 H 92.1513 -1.55141 -0.190023 0
M  V30 946 H 92.8863 -1.77431 -2.71457 0
M  V30 947 H 92.6713 -3.38727 -1.97501 0
M  V30 948 H 94.1613 -3.01285 -2.89166 0
M  V30 949 N 94.5984 0.214957 -1.56127 0
M  V30 950 C 95.8284 0.953707 -1.8327 0
M  V30 951 C 96.2364 1.78181 -0.636262 0
M  V30 952 O 95.5794 1.79191 0.404516 0
M  V30 953 C 95.6414 1.91516 -3.0424 0
M  V30 954 C 95.3054 1.27094 -4.38972 0
M  V30 955 C 96.3024 0.657575 -5.15725 0
M  V30 956 C 93.9874 1.28073 -4.85698 0
M  V30 957 C 95.9814 0.0625968 -6.37369 0
M  V30 958 C 93.6684 0.681914 -6.07283 0
M  V30 959 C 94.6664 0.0739046 -6.8296 0
M  V30 960 O 94.3544 -0.515582 -8.02245 0
M  V30 961 H 94.0864 0.284764 -0.613095 0
M  V30 962 H 96.6404 0.233283 -2.04071 0
M  V30 963 H 94.8704 2.67475 -2.79274 0
M  V30 964 H 96.5594 2.52001 -3.18198 0
M  V30 965 H 97.3254 0.642288 -4.80728 0
M  V30 966 H 93.2044 1.74337 -4.26764 0
M  V30 967 H 96.7484 -0.412593 -6.96379 0
M  V30 968 H 92.6454 0.694636 -6.41752 0
M  V30 969 H 93.4134 -0.410544 -8.1747 0
M  V30 970 N 96.0765 1.50051 0.48192 0
M  V30 971 C 97.4925 1.37237 0.814756 0
M  V30 972 C 97.6925 0.420109 1.97072 0
M  V30 973 O 96.7485 -0.141246 2.52105 0
M  V30 974 C 98.0615 2.78375 1.13701 0
M  V30 975 C 99.6095 2.87213 1.2441 0
M  V30 976 C 100.084 4.29161 1.59954 0
M  V30 977 N 101.575 4.32061 1.66967 0
M  V30 978 C 102.31 5.38879 1.95952 0
M  V30 979 N 101.806 6.55918 2.23031 0
M  V30 980 N 103.599 5.26312 1.97363 0
M  V30 981 H 95.7505 2.10546 -0.28005 0
M  V30 982 H 98.0135 0.945921 -0.0627454 0
M  V30 983 H 97.7195 3.49845 0.360787 0
M  V30 984 H 97.5935 3.14941 2.07586 0
M  V30 985 H 99.9805 2.15969 2.01101 0
M  V30 986 H 100.061 2.54204 0.285299 0
M  V30 987 H 99.7055 5.00938 0.838067 0
M  V30 988 H 99.6355 4.59648 2.56966 0
M  V30 989 H 102.126 3.47661 1.48123 0
M  V30 990 H 102.439 7.33139 2.44391 0
M  V30 991 H 100.784 6.59112 2.20447 0
M  V30 992 H 103.975 4.33876 1.75697 0
M  V30 993 H 104.148 6.09649 2.19618 0
M  V30 994 N 97.5546 -0.734337 1.39446 0
M  V30 995 C 98.8016 -1.49391 1.36706 0
M  V30 996 C 99.1296 -1.94465 -0.0367813 0
M  V30 997 O 98.3846 -1.67154 -1.01774 0
M  V30 998 C 98.6836 -2.74711 2.28623 0
M  V30 999 C 98.3496 -2.48501 3.76242 0
M  V30 1000 C 97.0116 -2.41062 4.16464 0
M  V30 1001 C 99.3636 -2.26098 4.69606 0
M  V30 1002 C 96.6916 -2.09262 5.48112 0
M  V30 1003 C 99.0436 -1.95814 6.01531 0
M  V30 1004 C 97.7076 -1.86845 6.40816 0
M  V30 1005 H 96.9776 -0.546661 0.500243 0
M  V30 1006 H 99.6246 -0.842788 1.71957 0
M  V30 1007 H 97.9296 -3.44569 1.86492 0
M  V30 1008 H 99.6266 -3.32741 2.23796 0
M  V30 1009 H 96.2166 -2.55169 3.44364 0
M  V30 1010 H 100.401 -2.30812 4.39363 0
M  V30 1011 H 95.6566 -2.00841 5.77471 0
M  V30 1012 H 99.8306 -1.77488 6.73403 0
M  V30 1013 H 97.4576 -1.6197 7.42745 0
M  V30 1014 N 99.0327 -1.24633 -0.964593 0
M  V30 1015 C 100.279 -1.08949 -1.71049 0
M  V30 1016 C 100.612 0.370302 -1.90637 0
M  V30 1017 O 99.8867 1.27349 -1.47011 0
M  V30 1018 C 100.17 -1.83329 -3.0994 0
M  V30 1019 C 100.023 -3.37077 -2.97824 0
M  V30 1020 C 101.342 -1.60846 -4.09654 0
M  V30 1021 H 98.4607 -0.397178 -0.620821 0
M  V30 1022 H 101.103 -1.5334 -1.12191 0
M  V30 1023 H 99.2527 -1.45597 -3.60186 0
M  V30 1024 H 100.925 -3.84425 -2.5498 0
M  V30 1025 H 99.1677 -3.65298 -2.33965 0
M  V30 1026 H 99.8387 -3.84324 -3.96231 0
M  V30 1027 H 102.315 -1.93674 -3.68279 0
M  V30 1028 H 101.191 -2.1534 -5.04896 0
M  V30 1029 H 101.452 -0.547434 -4.38698 0
M  V30 1030 N 100.511 1.16574 -1.06058 0
M  V30 1031 C 101.759 1.86677 -0.77434 0
M  V30 1032 C 102.08 1.81959 0.701147 0
M  V30 1033 O 101.35 1.2515 1.50713 0
M  V30 1034 H 99.9298 0.691134 -0.283449 0
M  V30 1035 H 102.592 1.41378 -1.34158 0
M  V30 1036 H 101.688 2.92181 -1.09711 0
M  V30 1037 N 101.989 0.842826 1.3317 0
M  V30 1038 C 103.235 0.441099 1.97945 0
M  V30 1039 C 103.568 -0.998024 1.66593 0
M  V30 1040 O 102.843 -1.69839 0.947898 0
M  V30 1041 C 103.126 0.666841 3.53872 0
M  V30 1042 C 102.979 2.15352 3.94897 0
M  V30 1043 C 104.298 0.115544 4.39948 0
M  V30 1044 H 101.417 0.161739 0.719034 0
M  V30 1045 H 104.059 1.05907 1.57746 0
M  V30 1046 H 102.209 0.140828 3.88245 0
M  V30 1047 H 103.881 2.7447 3.70761 0
M  V30 1048 H 102.124 2.63653 3.44484 0
M  V30 1049 H 102.795 2.26221 5.03516 0
M  V30 1050 H 105.271 0.565213 4.12243 0
M  V30 1051 H 104.147 0.303152 5.48062 0
M  V30 1052 H 104.408 -0.980935 4.3108 0
M  V30 1053 N 103.467 -1.45747 0.599634 0
M  V30 1054 C 104.377 -2.34262 -0.125888 0
M  V30 1055 C 105.393 -1.50768 -0.868625 0
M  V30 1056 O 106.569 -1.83592 -0.828003 0
M  V30 1057 C 103.634 -3.28252 -1.11587 0
M  V30 1058 C 102.695 -4.27651 -0.375956 0
M  V30 1059 C 101.928 -5.1715 -1.31877 0
M  V30 1060 O 102.151 -5.09916 -2.55621 0
M  V30 1061 O 101.085 -5.96286 -0.820157 0
M  V30 1062 H 104.911 -2.97688 0.601315 0
M  V30 1063 H 102.496 -1.44999 0.359934 0
M  V30 1064 H 104.378 -3.86191 -1.68626 0
M  V30 1065 H 103.053 -2.67401 -1.82424 0
M  V30 1066 H 101.96 -3.7335 0.236698 0
M  V30 1067 H 103.293 -4.91334 0.29177 0
M  V30 1068 N 104.945 -0.338344 -1.53925 0
M  V30 1069 C 106.194 0.260732 -2.00008 0
M  V30 1070 C 106.507 1.52073 -1.23017 0
M  V30 1071 O 107.713 2.19672 -1.5955 0
M  V30 1072 C 106.169 0.51515 -3.56194 0
M  V30 1073 C 105.777 -0.728645 -4.42035 0
M  V30 1074 C 107.521 1.07337 -4.10706 0
M  V30 1075 C 105.428 -0.445315 -5.89721 0
M  V30 1076 H 104.358 0.101205 -0.747177 0
M  V30 1077 H 107.009 -0.452866 -1.77824 0
M  V30 1078 H 105.391 1.28932 -3.74423 0
M  V30 1079 H 106.565 -1.50352 -4.35581 0
M  V30 1080 H 104.88 -1.20813 -3.98489 0
M  V30 1081 H 107.477 1.30022 -5.18651 0
M  V30 1082 H 107.82 2.0273 -3.63602 0
M  V30 1083 H 108.353 0.360034 -3.96167 0
M  V30 1084 H 105.092 -1.36883 -6.41049 0
M  V30 1085 H 104.612 0.291569 -5.99091 0
M  V30 1086 H 106.291 -0.0606218 -6.46972 0
M  V30 1087 N 106.423 1.57458 -0.0668435 0
M  V30 1088 C 107.7 1.8469 0.644132 0
M  V30 1089 C 108.08 0.958343 1.88093 0
M  V30 1090 O 107.428 0.0233579 2.28488 0
M  V30 1091 C 107.638 3.34767 0.986509 0
M  V30 1092 C 108.986 4.02159 1.36212 0
M  V30 1093 O 110.01 3.39484 1.07839 0
M  V30 1094 O 108.869 5.12694 1.89227 0
M  V30 1095 H 105.963 0.762816 0.319437 0
M  V30 1096 H 108.509 1.6942 -0.0973986 0
M  V30 1097 H 107.281 3.91151 0.107883 0
M  V30 1098 H 106.904 3.55281 1.78497 0
M  V30 1099 N 107.901 -0.206675 1.56239 0
M  V30 1100 C 109.312 -0.772383 1.69974 0
M  V30 1101 C 109.663 -1.84353 0.671436 0
M  V30 1102 O 108.788 -2.15695 -0.174491 0
M  V30 1103 C 109.383 -1.40779 3.08167 0
M  V30 1104 C 107.942 -1.92072 3.23706 0
M  V30 1105 C 107.089 -0.786347 2.65917 0
M  V30 1106 H 110.04 0.0182223 1.5869 0
M  V30 1107 H 110.061 -2.27696 3.04852 0
M  V30 1108 H 109.573 -0.627958 3.82986 0
M  V30 1109 H 107.674 -2.7281 2.53782 0
M  V30 1110 H 107.787 -2.09046 4.31087 0
M  V30 1111 H 106.151 -1.1976 2.24788 0
M  V30 1112 H 106.934 -0.0189416 3.43295 0
M  V30 1113 N 109.379 -1.50304 -0.473955 0
M  V30 1114 C 110.326 -1.68959 -1.57231 0
M  V30 1115 C 111.296 -0.530899 -1.57387 0
M  V30 1116 O 112.481 -0.761133 -1.74961 0
M  V30 1117 C 109.621 -1.7871 -2.95223 0
M  V30 1118 C 108.734 -3.06061 -3.04878 0
M  V30 1119 C 107.869 -3.06626 -4.33767 0
M  V30 1120 C 106.908 -4.28443 -4.37154 0
M  V30 1121 N 106.045 -4.26763 -5.5751 0
M  V30 1122 H 110.885 -2.6273 -1.40631 0
M  V30 1123 H 108.422 -1.30241 -0.683789 0
M  V30 1124 H 110.38 -1.82344 -3.75242 0
M  V30 1125 H 109.01 -0.883806 -3.10465 0
M  V30 1126 H 108.062 -3.11911 -2.17751 0
M  V30 1127 H 109.374 -3.96039 -3.0324 0
M  V30 1128 H 108.528 -3.08973 -5.22131 0
M  V30 1129 H 107.267 -2.14473 -4.3801 0
M  V30 1130 H 106.272 -4.2631 -3.47188 0
M  V30 1131 H 107.497 -5.2182 -4.34605 0
M  V30 1132 H 105.443 -3.37462 -5.62544 0
M  V30 1133 H 105.36 -5.10507 -5.57601 0
M  V30 1134 H 106.628 -4.33253 -6.48006 0
M  V30 1135 N 110.857 0.726932 -1.39834 0
M  V30 1136 C 111.82 1.82269 -1.38962 0
M  V30 1137 C 112.82 1.58248 -0.285334 0
M  V30 1138 O 114.01 1.65499 -0.54366 0
M  V30 1139 C 111.142 3.20186 -1.17019 0
M  V30 1140 H 112.335 1.84443 -2.36476 0
M  V30 1141 H 109.888 0.931416 -1.25516 0
M  V30 1142 H 110.623 3.23669 -0.202204 0
M  V30 1143 H 110.408 3.3902 -1.96998 0
M  V30 1144 H 111.898 4.00235 -1.1917 0
M  V30 1145 N 112.336 1.25143 0.95797 0
M  V30 1146 C 113.266 1.07711 2.07173 0
M  V30 1147 C 114.247 -0.0128462 1.70095 0
M  V30 1148 O 115.432 0.156061 1.93572 0
M  V30 1149 C 112.562 0.691503 3.40346 0
M  V30 1150 C 111.516 1.73132 3.9142 0
M  V30 1151 C 110.842 1.20049 5.21049 0
M  V30 1152 C 112.142 3.1294 4.1817 0
M  V30 1153 H 113.836 2.00873 2.22014 0
M  V30 1154 H 111.382 0.967191 1.06684 0
M  V30 1155 H 113.335 0.556505 4.17709 0
M  V30 1156 H 112.059 -0.275819 3.25433 0
M  V30 1157 H 110.718 1.8547 3.16222 0
M  V30 1158 H 110.366 0.223499 5.02503 0
M  V30 1159 H 110.066 1.89545 5.56189 0
M  V30 1160 H 111.59 1.07782 6.01012 0
M  V30 1161 H 113.004 3.03775 4.86203 0
M  V30 1162 H 111.401 3.79875 4.64559 0
M  V30 1163 H 112.471 3.6025 3.24573 0
M  V30 1164 N 113.814 -1.1601 1.06675 0
M  V30 1165 C 115.091 -1.82679 0.699114 0
M  V30 1166 C 115.471 -1.94559 -0.819137 0
M  V30 1167 O 114.819 -1.49169 -1.73092 0
M  V30 1168 C 115.029 -3.19445 1.40555 0
M  V30 1169 C 116.377 -3.95171 1.55323 0
M  V30 1170 O 117.401 -3.28976 1.36577 0
M  V30 1171 O 116.26 -5.13833 1.86112 0
M  V30 1172 H 113.354 -0.788954 0.247951 0
M  V30 1173 H 115.9 -1.23179 1.16726 0
M  V30 1174 H 114.672 -3.05856 2.44065 0
M  V30 1175 H 114.295 -3.86625 0.927733 0
M  V30 1176 N 115.292 -0.849877 -1.32721 0
M  V30 1177 C 116.222 -0.306308 -2.31482 0
M  V30 1178 C 117.203 0.591952 -1.59468 0
M  V30 1179 O 118.388 0.513199 -1.87296 0
M  V30 1180 C 115.518 0.510204 -3.43532 0
M  V30 1181 C 114.472 -0.293209 -4.26994 0
M  V30 1182 C 113.798 0.647743 -5.30762 0
M  V30 1183 C 115.098 -1.51634 -4.99804 0
M  V30 1184 H 116.792 -1.13153 -2.77195 0
M  V30 1185 H 114.338 -0.545553 -1.33266 0
M  V30 1186 H 116.291 0.900856 -4.11658 0
M  V30 1187 H 115.015 1.36874 -2.96535 0
M  V30 1188 H 113.674 -0.665555 -3.60508 0
M  V30 1189 H 113.322 1.50299 -4.8002 0
M  V30 1190 H 113.022 0.11422 -5.87489 0
M  V30 1191 H 114.546 1.03567 -6.01753 0
M  V30 1192 H 115.96 -1.19824 -5.60638 0
M  V30 1193 H 114.357 -1.98745 -5.66234 0
M  V30 1194 H 115.427 -2.28018 -4.27943 0
M  V30 1195 N 116.77 1.45427 -0.607355 0
M  V30 1196 C 118.181 1.85756 -0.187535 0
M  V30 1197 C 118.532 1.5077 1.25551 0
M  V30 1198 O 117.657 0.93427 1.95193 0
M  V30 1199 C 118.252 3.37154 -0.333572 0
M  V30 1200 C 116.811 3.76387 0.0315542 0
M  V30 1201 C 115.958 2.69377 -0.658117 0
M  V30 1202 H 118.909 1.36231 -0.81405 0
M  V30 1203 H 118.93 3.78014 0.43428 0
M  V30 1204 H 118.442 3.62586 -1.38393 0
M  V30 1205 H 116.543 3.56571 1.0811 0
M  V30 1206 H 116.656 4.77731 -0.361935 0
M  V30 1207 H 115.02 2.5452 -0.0957873 0
M  V30 1208 H 115.803 2.97646 -1.7106 0
M  V30 1209 N 118.248 0.346503 1.53744 0
M  V30 1210 C 119.659 -0.136779 1.86198 0
M  V30 1211 C 120.01 -1.49749 1.26766 0
M  V30 1212 O 119.135 -2.08417 0.582355 0
M  V30 1213 C 119.73 -0.254966 3.37839 0
M  V30 1214 C 118.289 -0.682482 3.70161 0
M  V30 1215 C 117.436 0.181981 2.76702 0
M  V30 1216 H 120.387 0.565994 1.48264 0
M  V30 1217 H 120.408 -1.08195 3.64793 0
M  V30 1218 H 119.92 0.735526 3.81066 0
M  V30 1219 H 118.021 -1.68189 3.3248 0
M  V30 1220 H 118.134 -0.470326 4.76786 0
M  V30 1221 H 116.498 -0.34615 2.52337 0
M  V30 1222 H 117.281 1.16966 3.2276 0
M  V30 1223 N 119.726 -1.57421 0.075193 0
M  V30 1224 C 120.972 -1.94716 -0.587998 0
M  V30 1225 C 121.327 -0.955205 -1.67014 0
M  V30 1226 O 120.62 0.0219842 -1.91587 0
M  V30 1227 C 120.814 -3.36428 -1.20626 0
M  V30 1228 C 120.643 -4.49317 -0.185541 0
M  V30 1229 C 119.413 -5.04772 0.23099 0
M  V30 1230 C 121.611 -5.11036 0.57854 0
M  V30 1231 N 119.593 -6.01204 1.24206 0
M  V30 1232 C 120.964 -6.02998 1.44199 0
M  V30 1233 C 123.019 -4.93844 0.634237 0
M  V30 1234 C 121.722 -6.79614 2.3562 0
M  V30 1235 C 123.748 -5.71106 1.53597 0
M  V30 1236 C 123.11 -6.6272 2.38709 0
M  V30 1237 H 119.209 -0.759536 -0.186089 0
M  V30 1238 H 121.793 -1.94097 0.153128 0
M  V30 1239 H 119.964 -3.37778 -1.9173 0
M  V30 1240 H 121.696 -3.60951 -1.8302 0
M  V30 1241 H 118.451 -4.73353 -0.152807 0
M  V30 1242 H 118.875 -6.54119 1.74521 0
M  V30 1243 H 123.517 -4.22799 -0.00960004 0
M  V30 1244 H 121.235 -7.49934 3.01038 0
M  V30 1245 H 124.821 -5.59824 1.58394 0
M  V30 1246 H 123.701 -7.2146 3.07352 0
M  V30 1247 N 121.204 0.198386 -1.56346 0
M  V30 1248 C 122.167 1.22952 -1.93431 0
M  V30 1249 C 123.167 1.38611 -0.815092 0
M  V30 1250 O 124.357 1.36479 -1.08255 0
M  V30 1251 C 121.489 2.59946 -2.20546 0
M  V30 1252 H 122.682 0.912626 -2.85677 0
M  V30 1253 H 120.235 0.43977 -1.49986 0
M  V30 1254 H 120.97 2.96696 -1.30927 0
M  V30 1255 H 120.755 2.49953 -3.02102 0
M  V30 1256 H 122.245 3.3431 -2.50253 0
M  V30 1257 N 122.682 1.50554 0.465978 0
M  V30 1258 C 123.592 1.72585 1.58907 0
M  V30 1259 C 124.608 0.60911 1.6299 0
M  V30 1260 O 125.784 0.88804 1.80765 0
M  V30 1261 C 122.849 1.81995 2.95091 0
M  V30 1262 C 121.91 3.05751 3.01355 0
M  V30 1263 C 121.143 3.14702 4.31043 0
M  V30 1264 O 121.366 2.30313 5.21835 0
M  V30 1265 O 120.3 4.07468 4.43005 0
M  V30 1266 H 124.126 2.67799 1.43239 0
M  V30 1267 H 121.711 1.34711 0.646013 0
M  V30 1268 H 123.593 1.90335 3.75966 0
M  V30 1269 H 122.268 0.899659 3.10947 0
M  V30 1270 H 121.175 3.02908 2.19539 0
M  V30 1271 H 122.508 3.97375 2.90437 0
M  V30 1272 N 124.16 -0.719506 1.40217 0
M  V30 1273 C 125.408 -1.47641 1.3801 0
M  V30 1274 C 125.729 -1.94992 -0.018145 0
M  V30 1275 O 124.999 -1.70073 -0.972207 0
M  V30 1276 H 123.579 -0.547744 0.507923 0
M  V30 1277 H 126.241 -0.853187 1.75233 0
M  V30 1278 H 125.337 -2.35112 2.05253 0
M  V30 1279 N 125.638 -1.25649 -0.95132 0
M  V30 1280 C 126.887 -1.09988 -1.69073 0
M  V30 1281 C 127.2 0.358355 -1.92289 0
M  V30 1282 O 128.406 0.635466 -2.63958 0
M  V30 1283 C 126.862 -1.92012 -3.044 0
M  V30 1284 C 126.47 -3.42347 -2.88968 0
M  V30 1285 C 128.214 -1.8493 -3.82101 0
M  V30 1286 C 126.121 -4.16655 -4.19705 0
M  V30 1287 H 125.051 -0.407993 -0.63408 0
M  V30 1288 H 127.702 -1.49873 -1.05879 0
M  V30 1289 H 126.084 -1.44952 -3.68517 0
M  V30 1290 H 127.258 -3.97104 -2.33762 0
M  V30 1291 H 125.573 -3.50557 -2.24719 0
M  V30 1292 H 128.17 -2.37739 -4.78941 0
M  V30 1293 H 128.513 -0.817883 -4.08187 0
M  V30 1294 H 129.046 -2.29758 -3.2474 0
M  V30 1295 H 125.785 -5.20224 -3.98807 0
M  V30 1296 H 125.305 -3.66681 -4.74663 0
M  V30 1297 H 126.984 -4.24551 -4.88227 0
M  V30 1298 N 127.117 1.15442 -1.07289 0
M  V30 1299 C 128.047 2.22312 -0.714107 0
M  V30 1300 C 129.028 1.67467 0.298155 0
M  V30 1301 O 130.213 1.93445 0.171048 0
M  V30 1302 C 127.343 3.47124 -0.110448 0
M  V30 1303 C 126.297 4.14926 -1.04979 0
M  V30 1304 C 125.623 5.33807 -0.308924 0
M  V30 1305 C 126.923 4.64762 -2.38314 0
M  V30 1306 H 128.617 2.5258 -1.6076 0
M  V30 1307 H 126.163 1.21404 -0.77441 0
M  V30 1308 H 128.116 4.21124 0.152482 0
M  V30 1309 H 126.84 3.16187 0.81812 0
M  V30 1310 H 125.499 3.42866 -1.29764 0
M  V30 1311 H 125.147 4.99126 0.623084 0
M  V30 1312 H 124.847 5.80113 -0.935036 0
M  V30 1313 H 126.371 6.10576 -0.0537771 0
M  V30 1314 H 127.785 5.30292 -2.1786 0
M  V30 1315 H 126.182 5.21728 -2.96514 0
M  V30 1316 H 127.252 3.80434 -3.00663 0
M  V30 1317 N 128.595 0.856903 1.32268 0
M  V30 1318 C 129.558 0.308171 2.27119 0
M  V30 1319 C 130.558 -0.533421 1.51695 0
M  V30 1320 O 131.748 -0.344607 1.70757 0
M  V30 1321 C 128.88 -0.563757 3.36206 0
M  V30 1322 H 130.073 1.14535 2.77167 0
M  V30 1323 H 127.626 0.631421 1.42978 0
M  V30 1324 H 128.361 -1.42266 2.91429 0
M  V30 1325 H 128.146 0.0386749 3.92081 0
M  V30 1326 H 129.636 -0.940386 4.06874 0
M  V30 1327 N 130.073 -1.45103 0.615059 0
M  V30 1328 C 131.35 -1.95549 0.0448276 0
M  V30 1329 C 131.73 -1.55737 -1.4251 0
M  V30 1330 O 131.078 -0.823556 -2.13143 0
M  V30 1331 C 131.288 -3.48098 0.250785 0
M  V30 1332 C 132.636 -4.24384 0.135509 0
M  V30 1333 O 133.66 -3.55738 0.181299 0
M  V30 1334 O 132.519 -5.46493 0.0268878 0
M  V30 1335 H 129.613 -0.8264 -0.0314845 0
M  V30 1336 H 132.159 -1.55232 0.685642 0
M  V30 1337 H 130.931 -3.7007 1.27139 0
M  V30 1338 H 130.554 -3.95323 -0.424937 0
M  V30 1339 N 131.551 -0.354651 -1.53558 0
M  V30 1340 C 132.798 0.238443 -2.01091 0
M  V30 1341 C 133.126 1.49663 -1.24222 0
M  V30 1342 O 132.381 1.93049 -0.321003 0
M  V30 1343 C 132.68 0.587121 -3.52545 0
M  V30 1344 C 132.346 -0.575472 -4.47213 0
M  V30 1345 C 131.008 -0.894497 -4.72813 0
M  V30 1346 C 133.36 -1.35489 -5.03281 0
M  V30 1347 C 130.688 -1.99511 -5.51736 0
M  V30 1348 C 133.04 -2.44583 -5.83405 0
M  V30 1349 C 131.704 -2.77033 -6.07296 0
M  V30 1350 H 130.974 0.0872526 -0.735845 0
M  V30 1351 H 133.621 -0.484859 -1.8526 0
M  V30 1352 H 131.926 1.39129 -3.66265 0
M  V30 1353 H 133.623 1.05809 -3.86789 0
M  V30 1354 H 130.213 -0.316774 -4.27428 0
M  V30 1355 H 134.397 -1.12167 -4.83459 0
M  V30 1356 H 129.653 -2.25063 -5.68469 0
M  V30 1357 H 133.827 -3.05401 -6.25862 0
M  V30 1358 H 131.454 -3.6244 -6.68237 0
M  V30 1359 N 133.029 1.57378 -0.0835403 0
M  V30 1360 C 133.959 2.1641 0.87686 0
M  V30 1361 C 134.94 1.09429 1.30228 0
M  V30 1362 O 136.125 1.37516 1.37124 0
M  V30 1363 C 133.255 2.73517 2.14022 0
M  V30 1364 C 132.209 3.85769 1.85381 0
M  V30 1365 C 131.535 4.29529 3.18448 0
M  V30 1366 C 132.835 5.09486 1.14984 0
M  V30 1367 H 134.529 2.96914 0.385059 0
M  V30 1368 H 132.075 1.42823 0.18377 0
M  V30 1369 H 134.028 3.13463 2.81636 0
M  V30 1370 H 132.752 1.90252 2.65465 0
M  V30 1371 H 131.411 3.46345 1.20169 0
M  V30 1372 H 131.059 3.43169 3.67755 0
M  V30 1373 H 130.759 5.05204 3.00071 0
M  V30 1374 H 132.283 4.72099 3.8724 0
M  V30 1375 H 133.697 5.46674 1.72687 0
M  V30 1376 H 132.094 5.90515 1.06826 0
M  V30 1377 H 133.164 4.84724 0.130749 0
M  V30 1378 N 134.507 -0.190092 1.56449 0
M  V30 1379 C 135.437 -1.23816 1.97969 0
M  V30 1380 C 136.418 -1.47201 0.852395 0
M  V30 1381 O 137.603 -1.58854 1.1171 0
M  V30 1382 C 134.733 -2.5813 2.3235 0
M  V30 1383 C 133.687 -2.49348 3.47864 0
M  V30 1384 C 133.013 -3.8798 3.67934 0
M  V30 1385 C 134.313 -2.01424 4.81898 0
M  V30 1386 H 136.007 -0.89311 2.85769 0
M  V30 1387 H 133.553 -0.428177 1.37487 0
M  V30 1388 H 135.506 -3.31637 2.59991 0
M  V30 1389 H 134.23 -2.94386 1.41438 0
M  V30 1390 H 132.889 -1.78297 3.20321 0
M  V30 1391 H 132.537 -4.21597 2.74344 0
M  V30 1392 H 132.237 -3.82978 4.45648 0
M  V30 1393 H 133.761 -4.63101 3.97957 0
M  V30 1394 H 135.175 -2.64693 5.08538 0
M  V30 1395 H 133.572 -2.07413 5.63116 0
M  V30 1396 H 134.642 -0.967677 4.75146 0
M  V30 1397 N 135.985 -1.50799 -0.457987 0
M  V30 1398 C 137.231 -1.63648 -1.20792 0
M  V30 1399 C 137.586 -0.338662 -1.89396 0
M  V30 1400 O 136.879 0.664291 -1.79716 0
M  V30 1401 C 137.073 -2.76358 -2.2663 0
M  V30 1402 C 136.902 -4.16974 -1.68411 0
M  V30 1403 C 135.672 -4.83199 -1.47807 0
M  V30 1404 C 137.87 -5.00774 -1.17176 0
M  V30 1405 N 135.852 -6.07991 -0.849692 0
M  V30 1406 C 137.223 -6.16397 -0.667403 0
M  V30 1407 C 139.278 -4.86452 -1.06155 0
M  V30 1408 C 137.981 -7.19272 -0.0636908 0
M  V30 1409 C 140.007 -5.89515 -0.471759 0
M  V30 1410 C 139.369 -7.04397 0.0221557 0
M  V30 1411 H 135.468 -0.652888 -0.43042 0
M  V30 1412 H 138.052 -1.87962 -0.507785 0
M  V30 1413 H 136.223 -2.53744 -2.94056 0
M  V30 1414 H 137.955 -2.78496 -2.93636 0
M  V30 1415 H 134.71 -4.40714 -1.73403 0
M  V30 1416 H 135.134 -6.74733 -0.553537 0
M  V30 1417 H 139.776 -3.97907 -1.42932 0
M  V30 1418 H 137.494 -8.07481 0.316253 0
M  V30 1419 H 141.08 -5.805 -0.388671 0
M  V30 1420 H 139.96 -7.82782 0.471375 0
M  V30 1421 N 137.463 0.71206 -1.40597 0
M  V30 1422 C 138.373 1.8562 -1.43466 0
M  V30 1423 C 139.389 1.70902 -0.326902 0
M  V30 1424 O 140.565 1.93105 -0.572043 0
M  V30 1425 C 137.63 3.21451 -1.29884 0
M  V30 1426 C 136.691 3.48398 -2.50833 0
M  V30 1427 C 135.924 4.77749 -2.3789 0
M  V30 1428 O 136.147 5.53089 -1.39459 0
M  V30 1429 O 135.081 5.05111 -3.27333 0
M  V30 1430 H 138.907 1.86155 -2.39958 0
M  V30 1431 H 136.492 0.86295 -1.21957 0
M  V30 1432 H 138.374 4.02579 -1.24531 0
M  V30 1433 H 137.049 3.21636 -0.364997 0
M  V30 1434 H 135.956 2.67265 -2.61763 0
M  V30 1435 H 137.289 3.53014 -3.4299 0
M  V30 1436 N 138.941 1.26152 0.944643 0
M  V30 1437 C 140.352 1.10454 1.50522 0
M  V30 1438 C 140.703 -0.31635 1.93633 0
M  V30 1439 O 139.828 -1.20746 1.79581 0
M  V30 1440 C 140.423 1.99891 2.73549 0
M  V30 1441 C 138.982 1.88348 3.25886 0
M  V30 1442 C 138.129 1.93447 1.9868 0
M  V30 1443 H 141.08 1.39292 0.760489 0
M  V30 1444 H 141.101 1.54477 3.47732 0
M  V30 1445 H 140.613 3.03297 2.42141 0
M  V30 1446 H 138.714 0.878636 3.62092 0
M  V30 1447 H 138.827 2.73696 3.93227 0
M  V30 1448 H 137.191 1.37456 2.14425 0
M  V30 1449 H 137.974 2.98476 1.69607 0
M  V30 1450 N 140.419 -1.14872 1.07899 0
M  V30 1451 C 141.667 -1.85422 0.803941 0
M  V30 1452 C 141.988 -1.83051 -0.67211 0
M  V30 1453 O 141.258 -1.27532 -1.48703 0
M  V30 1454 H 139.838 -0.686537 0.294408 0
M  V30 1455 H 142.5 -1.39226 1.3639 0
M  V30 1456 H 141.596 -2.90399 1.14346 0
M  V30 1457 N 141.898 -0.863906 -1.31812 0
M  V30 1458 C 142.808 -0.318461 -2.32428 0
M  V30 1459 C 143.824 0.568496 -1.64451 0
M  V30 1460 O 145 0.46666 -1.95919 0
M  V30 1461 C 142.065 0.476355 -3.43412 0
M  V30 1462 C 141.126 -0.43784 -4.27061 0
M  V30 1463 C 140.359 0.319138 -5.32745 0
M  V30 1464 O 140.582 1.54799 -5.48993 0
M  V30 1465 O 139.516 -0.319861 -6.01049 0
M  V30 1466 H 143.342 -1.15229 -2.80991 0
M  V30 1467 H 140.927 -0.627103 -1.35602 0
M  V30 1468 H 142.809 0.927156 -4.11074 0
M  V30 1469 H 141.484 1.28683 -2.97022 0
M  V30 1470 H 140.391 -0.937013 -3.62175 0
M  V30 1471 H 141.724 -1.21375 -4.77 0
M  V30 1472 N 143.376 1.44774 -0.622745 0
M  V30 1473 C 144.339 2.29069 0.0774015 0
M  V30 1474 C 145.339 1.4059 0.780461 0
M  V30 1475 O 146.529 1.62551 0.626322 0
M  V30 1476 C 143.661 3.21974 1.12006 0
M  V30 1477 H 144.854 2.92459 -0.663901 0
M  V30 1478 H 142.407 1.51548 -0.382486 0
M  V30 1479 H 143.142 2.63417 1.89162 0
M  V30 1480 H 142.927 3.87168 0.619951 0
M  V30 1481 H 144.417 3.85318 1.60995 0
M  V30 1482 N 144.854 0.36279 1.53368 0
M  V30 1483 C 146.101 -0.227776 2.01215 0
M  V30 1484 C 146.429 -1.49003 1.25014 0
M  V30 1485 O 145.684 -1.92876 0.331236 0
M  V30 1486 C 145.983 -0.568417 3.52851 0
M  V30 1487 C 145.649 0.59918 4.46901 0
M  V30 1488 C 144.311 0.919559 4.72332 0
M  V30 1489 C 146.663 1.38156 5.02556 0
M  V30 1490 C 143.991 2.02434 5.5067 0
M  V30 1491 C 146.343 2.47674 5.821 0
M  V30 1492 C 145.007 2.8025 6.05819 0
M  V30 1493 H 144.277 -0.083349 0.736297 0
M  V30 1494 H 146.924 0.494677 1.85001 0
M  V30 1495 H 145.229 -1.37185 3.66998 0
M  V30 1496 H 146.926 -1.03756 3.87344 0
M  V30 1497 H 143.516 0.339437 4.27254 0
M  V30 1498 H 147.7 1.14729 4.82857 0
M  V30 1499 H 142.956 2.28075 5.67267 0
M  V30 1500 H 147.13 3.08716 6.24234 0
M  V30 1501 H 144.757 3.65979 6.66306 0
M  V30 1502 N 146.332 -1.57332 0.0918853 0
M  V30 1503 C 147.609 -1.85691 -0.614668 0
M  V30 1504 C 147.989 -0.988146 -1.86545 0
M  V30 1505 O 147.337 -0.0597055 -2.28422 0
M  V30 1506 C 147.547 -3.36294 -0.933126 0
M  V30 1507 C 148.895 -4.04275 -1.29796 0
M  V30 1508 O 149.919 -3.41157 -1.02424 0
M  V30 1509 O 148.778 -5.1564 -1.81047 0
M  V30 1510 H 145.872 -0.767802 -0.307261 0
M  V30 1511 H 148.418 -1.69244 0.12434 0
M  V30 1512 H 147.19 -3.91273 -0.0456404 0
M  V30 1513 H 146.813 -3.58076 -1.72822 0
M  V30 1514 N 147.81 0.181792 -1.56548 0
M  V30 1515 C 148.74 1.22765 -1.98623 0
M  V30 1516 C 149.721 1.46747 -0.860189 0
M  V30 1517 O 150.906 1.58259 -1.12551 0
M  V30 1518 C 148.036 2.56894 -2.33715 0
M  V30 1519 C 146.99 2.475 -3.49182 0
M  V30 1520 C 146.316 3.86023 -3.69986 0
M  V30 1521 C 147.616 1.98866 -4.82959 0
M  V30 1522 H 149.31 0.877942 -2.86239 0
M  V30 1523 H 146.856 0.42088 -1.37712 0
M  V30 1524 H 148.809 3.30253 -2.61746 0
M  V30 1525 H 147.533 2.93632 -1.42997 0
M  V30 1526 H 146.192 1.76596 -3.21262 0
M  V30 1527 H 145.84 4.20136 -2.76576 0
M  V30 1528 H 145.54 3.80609 -4.47672 0
M  V30 1529 H 147.064 4.60984 -4.00407 0
M  V30 1530 H 148.478 2.61992 -5.09934 0
M  V30 1531 H 146.875 2.04424 -5.64208 0
M  V30 1532 H 147.945 0.942465 -4.75653 0
M  V30 1533 N 149.288 1.51039 0.449983 0
M  V30 1534 C 150.537 1.62317 1.19733 0
M  V30 1535 C 150.85 0.339101 1.92638 0
M  V30 1536 O 152.056 0.331069 2.69474 0
M  V30 1537 C 150.512 2.86608 2.17678 0
M  V30 1538 C 150.12 4.21972 1.50479 0
M  V30 1539 C 151.864 3.07239 2.92924 0
M  V30 1540 C 149.771 5.37426 2.46834 0
M  V30 1541 H 148.701 0.604532 0.450619 0
M  V30 1542 H 151.352 1.77494 0.465625 0
M  V30 1543 H 149.734 2.65037 2.94231 0
M  V30 1544 H 150.908 4.53878 0.795716 0
M  V30 1545 H 149.223 4.07117 0.874344 0
M  V30 1546 H 151.82 3.90668 3.65079 0
M  V30 1547 H 152.163 2.19807 3.5354 0
M  V30 1548 H 152.696 3.29091 2.23481 0
M  V30 1549 H 149.435 6.27079 1.90926 0
M  V30 1550 H 148.955 5.09912 3.15832 0
M  V30 1551 H 150.634 5.68862 3.08228 0
M  V30 1552 N 150.766 -0.704594 1.40972 0
M  V30 1553 C 151.696 -1.83124 1.44872 0
M  V30 1554 C 152.677 -1.67281 0.30838 0
M  V30 1555 O 153.862 -1.87149 0.518556 0
M  V30 1556 C 150.992 -3.21181 1.32136 0
M  V30 1557 C 149.946 -3.51714 2.43888 0
M  V30 1558 C 149.272 -4.89032 2.16222 0
M  V30 1559 C 150.572 -3.516 3.86232 0
M  V30 1560 H 152.266 -1.80117 2.39161 0
M  V30 1561 H 149.812 -0.865145 1.15114 0
M  V30 1562 H 151.765 -3.99702 1.33479 0
M  V30 1563 H 150.489 -3.24791 0.343279 0
M  V30 1564 H 149.148 -2.75539 2.41813 0
M  V30 1565 H 148.796 -4.89256 1.16778 0
M  V30 1566 H 148.496 -5.10426 2.911 0
M  V30 1567 H 150.02 -5.69873 2.19265 0
M  V30 1568 H 151.434 -4.2014 3.9007 0
M  V30 1569 H 149.831 -3.84523 4.60719 0
M  V30 1570 H 150.901 -2.50757 4.15029 0
M  V30 1571 N 152.244 -1.26651 -0.937939 0
M  V30 1572 C 153.492 -1.12165 -1.68118 0
M  V30 1573 C 153.813 0.334983 -1.92101 0
M  V30 1574 O 153.083 1.23583 -1.52 0
M  V30 1575 H 151.663 -0.412093 -0.623048 0
M  V30 1576 H 154.325 -1.59027 -1.12678 0
M  V30 1577 H 153.421 -1.64289 -2.6536 0
M  V30 1578 N 153.722 1.14298 -1.08507 0
M  V30 1579 C 154.67 2.21483 -0.710483 0
M  V30 1580 C 155.664 1.66998 0.284234 0
M  V30 1581 O 156.87 1.79401 0.146692 0
M  V30 1582 H 153.245 0.721578 -0.211729 0
M  V30 1583 H 155.216 2.50348 -1.62384 0
M  V30 1584 C 153.965 3.4743 -0.137007 0
M  V30 1585 H 153.288 3.89686 -0.893592 0
M  V30 1586 H 154.728 4.2391 0.0872789 0
M  V30 1587 C 153.187 3.17548 1.12538 0
M  V30 1588 O 153.717 3.35437 2.21009 0
M  V30 1589 N 151.923 2.71499 1.03617 0
M  V30 1590 H 151.47 2.57143 0.153403 0
M  V30 1591 H 151.428 2.51881 1.88158 0
M  V30 1592 N 155.201 0.870884 1.31352 0
M  V30 1593 C 156.612 0.534714 1.78879 0
M  V30 1594 C 156.963 -0.948423 1.71754 0
M  V30 1595 O 156.088 -1.74055 1.28584 0
M  V30 1596 C 156.683 0.963839 3.24801 0
M  V30 1597 C 155.242 0.679311 3.70219 0
M  V30 1598 C 154.389 1.15465 2.52117 0
M  V30 1599 H 157.34 1.05651 1.18421 0
M  V30 1600 H 157.361 0.286892 3.79417 0
M  V30 1601 H 156.873 2.04332 3.29955 0
M  V30 1602 H 154.974 -0.388769 3.70566 0
M  V30 1603 H 155.087 1.25698 4.62317 0
M  V30 1604 H 153.451 0.574383 2.48139 0
M  V30 1605 H 154.234 2.24157 2.60016 0
M  V30 1606 N 156.679 -1.44442 0.630414 0
M  V30 1607 C 158.09 -1.85434 0.217063 0
M  V30 1608 C 158.441 -1.52748 -1.23136 0
M  V30 1609 O 157.566 -0.965205 -1.93682 0
M  V30 1610 C 158.161 -3.36581 0.387168 0
M  V30 1611 C 156.72 -3.76389 0.0283297 0
M  V30 1612 C 155.867 -2.68296 0.700889 0
M  V30 1613 H 158.818 -1.34919 0.83562 0
M  V30 1614 H 158.839 -3.78657 -0.374086 0
M  V30 1615 H 158.351 -3.60339 1.44144 0
M  V30 1616 H 156.452 -3.58246 -1.02423 0
M  V30 1617 H 156.565 -4.77095 0.437892 0
M  V30 1618 H 154.929 -2.54335 0.136267 0
M  V30 1619 H 155.712 -2.94887 1.75774 0
M  V30 1620 N 158.157 -0.370918 -1.53173 0
M  V30 1621 C 159.387 0.217389 -2.05453 0
M  V30 1622 C 159.795 1.42568 -1.24382 0
M  V30 1623 O 159.138 1.81571 -0.278839 0
M  V30 1624 C 159.2 0.669827 -3.53205 0
M  V30 1625 C 158.864 -0.4225 -4.55043 0
M  V30 1626 C 159.861 -1.27407 -5.04047 0
M  V30 1627 C 157.546 -0.58427 -4.9889 0
M  V30 1628 C 159.54 -2.27271 -5.95505 0
M  V30 1629 C 157.227 -1.58627 -5.90153 0
M  V30 1630 C 158.225 -2.42892 -6.38351 0
M  V30 1631 O 157.913 -3.41382 -7.27814 0
M  V30 1632 H 157.645 0.0408171 -0.674767 0
M  V30 1633 H 160.199 -0.5292 -1.98466 0
M  V30 1634 H 158.429 1.4681 -3.57748 0
M  V30 1635 H 160.118 1.18173 -3.88317 0
M  V30 1636 H 160.884 -1.16031 -4.70916 0
M  V30 1637 H 156.763 0.061851 -4.60959 0
M  V30 1638 H 160.307 -2.93079 -6.33049 0
M  V30 1639 H 156.204 -1.70048 -6.22699 0
M  V30 1640 H 156.972 -3.37173 -7.45826 0
M  V30 1641 N 159.635 1.57281 -0.100228 0
M  V30 1642 C 160.883 1.94153 0.561157 0
M  V30 1643 C 161.204 0.983157 1.68401 0
M  V30 1644 O 160.474 0.0361132 1.95867 0
M  V30 1645 H 159.054 0.716791 0.210283 0
M  V30 1646 H 161.716 1.94202 -0.164765 0
M  V30 1647 H 160.812 2.96709 0.968008 0
M  V30 1648 N 161.113 -0.173488 1.56642 0
M  V30 1649 C 162.362 -0.888758 1.81063 0
M  V30 1650 C 162.675 -1.83506 0.67712 0
M  V30 1651 O 163.881 -2.59254 0.806206 0
M  V30 1652 C 162.337 -1.63091 3.20826 0
M  V30 1653 C 161.945 -0.728357 4.4204 0
M  V30 1654 C 163.689 -2.33454 3.54541 0
M  V30 1655 C 161.596 -1.47062 5.72823 0
M  V30 1656 H 160.526 -0.335618 0.675186 0
M  V30 1657 H 163.177 -0.141712 1.82952 0
M  V30 1658 H 161.559 -2.42263 3.13248 0
M  V30 1659 H 162.733 0.0262449 4.60793 0
M  V30 1660 H 161.048 -0.134492 4.16183 0
M  V30 1661 H 163.645 -2.89578 4.49498 0
M  V30 1662 H 163.988 -3.08687 2.79317 0
M  V30 1663 H 164.521 -1.61227 3.63663 0
M  V30 1664 H 161.26 -0.760658 6.51072 0
M  V30 1665 H 160.78 -2.1986 5.58052 0
M  V30 1666 H 162.459 -2.01868 6.14702 0
M  V30 1667 N 162.591 -1.51276 -0.441967 0
M  V30 1668 C 163.837 -1.63958 -1.19355 0
M  V30 1669 C 164.17 -0.352543 -1.90973 0
M  V30 1670 O 163.445 0.647627 -1.83401 0
M  V30 1671 C 163.728 -2.83979 -2.21422 0
M  V30 1672 C 163.581 -4.22646 -1.53918 0
M  V30 1673 C 164.9 -2.99521 -3.22451 0
M  V30 1674 H 162.019 -0.596709 -0.432559 0
M  V30 1675 H 164.661 -1.83748 -0.483398 0
M  V30 1676 H 162.811 -2.67237 -2.81987 0
M  V30 1677 H 164.483 -4.51045 -0.967256 0
M  V30 1678 H 162.726 -4.25558 -0.841615 0
M  V30 1679 H 163.397 -5.02609 -2.28229 0
M  V30 1680 H 165.873 -3.14944 -2.71937 0
M  V30 1681 H 164.749 -3.85072 -3.91166 0
M  V30 1682 H 165.01 -2.11391 -3.88287 0
M  V30 1683 N 164.069 0.697108 -1.41344 0
M  V30 1684 C 165.317 1.45426 -1.40341 0
M  V30 1685 C 165.638 1.94996 -0.0128787 0
M  V30 1686 O 164.908 1.71599 0.945027 0
M  V30 1687 H 163.488 0.539594 -0.516573 0
M  V30 1688 H 166.15 0.825201 -1.76569 0
M  V30 1689 H 165.246 2.31817 -2.08967 0
M  V30 1690 N 165.547 1.27147 0.931209 0
M  V30 1691 C 166.457 1.11372 2.06478 0
M  V30 1692 C 167.473 0.044645 1.73943 0
M  V30 1693 O 168.649 0.250417 1.99837 0
M  V30 1694 C 165.714 0.758838 3.38294 0
M  V30 1695 C 164.775 1.90841 3.84549 0
M  V30 1696 C 164.008 1.57036 5.10074 0
M  V30 1697 O 164.231 0.476645 5.68405 0
M  V30 1698 O 163.165 2.40839 5.51616 0
M  V30 1699 H 166.991 2.06493 2.22698 0
M  V30 1700 H 164.576 1.06301 1.04978 0
M  V30 1701 H 166.458 0.574098 4.17471 0
M  V30 1702 H 165.133 -0.162879 3.2329 0
M  V30 1703 H 164.04 2.14819 3.06274 0
M  V30 1704 H 165.373 2.81021 4.04089 0
M  V30 1705 N 167.025 -1.13721 1.09112 0
M  V30 1706 C 167.988 -2.17222 0.731241 0
M  V30 1707 C 168.988 -1.59035 -0.237566 0
M  V30 1708 O 170.178 -1.74192 -0.0161704 0
M  V30 1709 C 167.31 -3.40804 0.0808443 0
M  V30 1710 H 168.503 -2.50573 1.64783 0
M  V30 1711 H 166.056 -1.28493 0.889897 0
M  V30 1712 H 166.791 -3.1304 -0.847127 0
M  V30 1713 H 166.576 -3.84306 0.777896 0
M  V30 1714 H 168.066 -4.1731 -0.155657 0
M  V30 1715 N 168.503 -0.877838 -1.30888 0
M  V30 1716 C 169.728 -0.506629 -2.01117 0
M  V30 1717 C 170.153 0.895564 -1.65412 0
M  V30 1718 O 169.511 1.5923 -0.866922 0
M  V30 1719 C 169.559 -0.680223 -3.54126 0
M  V30 1720 O 168.663 0.277033 -4.11468 0
M  V30 1721 H 168.004 -0.200518 -0.633 0
M  V30 1722 H 170.534 -1.18342 -1.66902 0
M  V30 1723 H 170.544 -0.5765 -4.03907 0
M  V30 1724 H 169.219 -1.70261 -3.79452 0
M  V30 1725 H 167.796 0.127606 -3.72682 0
M  V30 1726 N 169.982 1.44106 -0.638065 0
M  V30 1727 C 170.929 2.30715 0.062701 0
M  V30 1728 C 171.899 1.43882 0.829883 0
M  V30 1729 O 173.084 1.72775 0.809532 0
M  V30 1730 C 170.224 3.29258 1.03358 0
M  V30 1731 C 169.337 4.31192 0.26409 0
M  V30 1732 C 168.472 5.16825 1.22741 0
M  V30 1733 C 167.511 6.10462 0.447475 0
M  V30 1734 N 166.648 6.8877 1.36161 0
M  V30 1735 H 171.488 2.90096 -0.681781 0
M  V30 1736 H 169.025 1.42925 -0.347988 0
M  V30 1737 H 170.983 3.84886 1.60992 0
M  V30 1738 H 169.613 2.71562 1.74511 0
M  V30 1739 H 168.665 3.77981 -0.428295 0
M  V30 1740 H 169.977 4.97619 -0.343052 0
M  V30 1741 H 169.131 5.77004 1.87487 0
M  V30 1742 H 167.87 4.50488 1.86847 0
M  V30 1743 H 166.875 5.49386 -0.213433 0
M  V30 1744 H 168.1 6.78837 -0.188968 0
M  V30 1745 H 166.046 6.25096 1.98975 0
M  V30 1746 H 165.963 7.51663 0.808656 0
M  V30 1747 H 167.231 7.53467 1.99769 0
M  V30 1748 N 171.46 0.379036 1.52974 0
M  V30 1749 C 172.69 -0.20649 2.05566 0
M  V30 1750 C 173.098 -1.41906 1.25137 0
M  V30 1751 O 172.441 -1.81421 0.288464 0
M  V30 1752 C 172.503 -0.651086 3.53555 0
M  V30 1753 C 172.167 0.446626 4.54812 0
M  V30 1754 C 173.164 1.30079 5.03364 0
M  V30 1755 C 170.849 0.610719 4.98573 0
M  V30 1756 C 172.843 2.30426 5.94292 0
M  V30 1757 C 170.53 1.61754 5.89304 0
M  V30 1758 C 171.528 2.46274 6.37054 0
M  V30 1759 O 171.216 3.45237 7.25994 0
M  V30 1760 H 170.948 -0.0372381 0.674974 0
M  V30 1761 H 173.502 0.539718 1.98182 0
M  V30 1762 H 171.732 -1.44911 3.58522 0
M  V30 1763 H 173.421 -1.16112 3.88938 0
M  V30 1764 H 174.187 1.18527 4.70294 0
M  V30 1765 H 170.066 -0.0374044 4.60985 0
M  V30 1766 H 173.61 2.96432 6.31485 0
M  V30 1767 H 169.507 1.73348 6.21788 0
M  V30 1768 H 170.275 3.41124 7.44027 0
M  V30 1769 N 172.938 -1.57226 0.108567 0
M  V30 1770 C 174.349 -1.8195 -0.418464 0
M  V30 1771 C 174.7 -1.02508 -1.67292 0
M  V30 1772 O 173.825 -0.258496 -2.14851 0
M  V30 1773 C 174.42 -3.30028 -0.765979 0
M  V30 1774 C 172.979 -3.55469 -1.23769 0
M  V30 1775 C 172.126 -2.7625 -0.241106 0
M  V30 1776 H 175.077 -1.55149 0.33384 0
M  V30 1777 H 175.098 -3.44086 -1.62434 0
M  V30 1778 H 174.61 -3.87821 0.147219 0
M  V30 1779 H 172.711 -3.03022 -2.16814 0
M  V30 1780 H 172.824 -4.6408 -1.19022 0
M  V30 1781 H 171.188 -2.44133 -0.72602 0
M  V30 1782 H 171.971 -3.36797 0.665007 0
M  V30 1783 N 174.416 0.165178 -1.56732 0
M  V30 1784 C 175.665 0.879143 -1.81532 0
M  V30 1785 C 175.978 1.83144 -0.686842 0
M  V30 1786 O 177.184 2.58823 -0.819944 0
M  V30 1787 C 175.64 1.61388 -3.21686 0
M  V30 1788 C 175.248 0.704904 -4.4242 0
M  V30 1789 C 176.992 2.3157 -3.55774 0
M  V30 1790 C 174.899 1.44022 -5.73595 0
M  V30 1791 H 173.829 0.332033 -0.676957 0
M  V30 1792 H 176.48 0.132008 -1.83025 0
M  V30 1793 H 174.862 2.40599 -3.14529 0
M  V30 1794 H 176.036 -0.0506815 -4.60772 0
M  V30 1795 H 174.351 0.112419 -4.16248 0
M  V30 1796 H 176.948 2.8719 -4.51028 0
M  V30 1797 H 177.291 3.07201 -2.8095 0
M  V30 1798 H 177.824 1.59297 -3.64513 0
M  V30 1799 H 174.563 0.72612 -6.51466 0
M  V30 1800 H 174.083 2.16898 -5.5921 0
M  V30 1801 H 175.762 1.98606 -6.15764 0
M  V30 1802 N 175.894 1.51508 0.433938 0
M  V30 1803 C 176.844 1.69451 1.52546 0
M  V30 1804 C 177.828 0.548474 1.51263 0
M  V30 1805 O 179.02 0.804529 1.57659 0
M  V30 1806 C 176.149 1.82604 2.90707 0
M  V30 1807 C 175.235 3.03002 2.96733 0
M  V30 1808 N 175.626 4.26121 2.72496 0
M  V30 1809 C 173.924 3.02327 3.27894 0
M  V30 1810 C 174.625 5.07407 2.84452 0
M  V30 1811 N 173.601 4.42126 3.16269 0
M  V30 1812 H 177.403 2.62305 1.32564 0
M  V30 1813 H 174.917 1.49202 0.641297 0
M  V30 1814 H 176.914 1.93569 3.69238 0
M  V30 1815 H 175.574 0.909339 3.11707 0
M  V30 1816 H 176.585 4.55009 2.4736 0
M  V30 1817 H 173.262 2.20301 3.54646 0
M  V30 1818 H 174.652 6.15422 2.69639 0
M  V30 1819 N 177.372 -0.689602 1.41712 0
M  V30 1820 C 178.618 -1.45181 1.41599 0
M  V30 1821 C 178.951 -1.94181 0.0270081 0
M  V30 1822 O 178.226 -1.6993 -0.946265 0
M  V30 1823 C 178.509 -2.65945 2.42787 0
M  V30 1824 C 178.362 -2.22672 3.90816 0
M  V30 1825 C 179.681 -3.68149 2.41151 0
M  V30 1826 H 176.8 -0.526576 0.515642 0
M  V30 1827 H 179.442 -0.784947 1.73028 0
M  V30 1828 H 177.592 -3.2284 2.16116 0
M  V30 1829 H 179.264 -1.71058 4.28412 0
M  V30 1830 H 177.507 -1.54394 4.05395 0
M  V30 1831 H 178.178 -3.0935 4.57172 0
M  V30 1832 H 180.654 -3.2094 2.64834 0
M  V30 1833 H 179.53 -4.50248 3.13955 0
M  V30 1834 H 179.791 -4.18259 1.43221 0
M  V30 1835 N 178.85 -1.27639 -0.924453 0
M  V30 1836 C 180.097 -1.14167 -1.67249 0
M  V30 1837 C 180.425 0.311863 -1.91984 0
M  V30 1838 O 179.68 1.24425 -1.51053 0
M  V30 1839 C 179.979 -1.87407 -3.04325 0
M  V30 1840 C 179.645 -3.37249 -2.99289 0
M  V30 1841 C 178.307 -3.7812 -2.97622 0
M  V30 1842 C 180.659 -4.32845 -2.90336 0
M  V30 1843 C 177.987 -5.12944 -2.8479 0
M  V30 1844 C 180.339 -5.6773 -2.79045 0
M  V30 1845 C 179.003 -6.07889 -2.7573 0
M  V30 1846 H 178.273 -0.417766 -0.612007 0
M  V30 1847 H 180.92 -1.58286 -1.07786 0
M  V30 1848 H 179.225 -1.35805 -3.67511 0
M  V30 1849 H 180.922 -1.74408 -3.61086 0
M  V30 1850 H 177.512 -3.04748 -3.01374 0
M  V30 1851 H 181.696 -4.02239 -2.90719 0
M  V30 1852 H 176.952 -5.432 -2.80612 0
M  V30 1853 H 181.126 -6.41472 -2.71083 0
M  V30 1854 H 178.753 -7.12314 -2.65544 0
M  V30 1855 N 180.328 1.1314 -1.09713 0
M  V30 1856 C 181.275 2.18642 -0.739196 0
M  V30 1857 C 182.245 1.63706 0.280978 0
M  V30 1858 O 183.43 1.90111 0.161946 0
M  V30 1859 C 180.57 3.44685 -0.169102 0
M  V30 1860 C 179.683 4.13711 -1.24367 0
M  V30 1861 C 178.818 5.27379 -0.636019 0
M  V30 1862 C 177.857 5.88259 -1.69169 0
M  V30 1863 N 176.994 6.93352 -1.10485 0
M  V30 1864 H 181.834 2.48607 -1.64312 0
M  V30 1865 H 179.371 1.22066 -0.820875 0
M  V30 1866 H 181.329 4.16815 0.179256 0
M  V30 1867 H 179.959 3.15161 0.698079 0
M  V30 1868 H 179.011 3.39835 -1.70927 0
M  V30 1869 H 180.323 4.55037 -2.04311 0
M  V30 1870 H 179.477 6.06238 -0.236677 0
M  V30 1871 H 178.216 4.8731 0.194928 0
M  V30 1872 H 177.221 5.08092 -2.10055 0
M  V30 1873 H 178.446 6.30399 -2.52536 0
M  V30 1874 H 176.392 6.55335 -0.295234 0
M  V30 1875 H 176.309 7.33236 -1.84121 0
M  V30 1876 H 177.577 7.76057 -0.73181 0
M  V30 1877 N 181.806 0.884767 1.30421 0
M  V30 1878 C 182.769 0.356277 2.26414 0
M  V30 1879 C 183.769 -0.501124 1.52792 0
M  V30 1880 O 184.959 -0.30831 1.7145 0
M  V30 1881 C 182.091 -0.492316 3.37326 0
M  V30 1882 H 183.284 1.20389 2.74675 0
M  V30 1883 H 180.837 0.661607 1.41607 0
M  V30 1884 H 181.572 -1.36052 2.94381 0
M  V30 1885 H 181.357 0.121832 3.91911 0
M  V30 1886 H 182.847 -0.853871 4.08777 0
M  V30 1887 N 183.284 -1.43765 0.645699 0
M  V30 1888 C 184.53 -2.02197 0.156271 0
M  V30 1889 C 184.863 -1.50776 -1.22393 0
M  V30 1890 O 184.138 -0.697771 -1.81553 0
M  V30 1891 C 184.421 -3.59749 0.158872 0
M  V30 1892 C 184.274 -4.21419 1.57245 0
M  V30 1893 C 185.593 -4.37149 -0.50879 0
M  V30 1894 H 182.712 -0.734694 0.0582602 0
M  V30 1895 H 185.354 -1.71157 0.824951 0
M  V30 1896 H 183.504 -3.86325 -0.410525 0
M  V30 1897 H 185.176 -4.059 2.19186 0
M  V30 1898 H 183.419 -3.78356 2.122 0
M  V30 1899 H 184.09 -5.30482 1.52619 0
M  V30 1900 H 186.566 -4.16093 -0.024412 0
M  V30 1901 H 185.442 -5.4683 -0.476213 0
M  V30 1902 H 185.703 -4.12839 -1.58165 0
M  V30 1903 N 184.763 -0.387143 -1.52771 0
M  V30 1904 C 185.71 0.449048 -2.26389 0
M  V30 1905 C 186.68 1.05961 -1.27912 0
M  V30 1906 O 187.865 1.08804 -1.56737 0
M  V30 1907 C 185.005 1.57155 -3.0724 0
M  V30 1908 C 184.118 0.984066 -4.20643 0
M  V30 1909 C 183.253 2.07745 -4.88892 0
M  V30 1910 C 182.292 1.46574 -5.94292 0
M  V30 1911 N 181.429 2.49834 -6.56146 0
M  V30 1912 H 186.269 -0.185205 -2.97424 0
M  V30 1913 H 183.806 -0.103164 -1.46738 0
M  V30 1914 H 185.764 2.23309 -3.52405 0
M  V30 1915 H 184.394 2.17615 -2.38419 0
M  V30 1916 H 183.446 0.212193 -3.79808 0
M  V30 1917 H 184.758 0.497029 -4.96318 0
M  V30 1918 H 183.912 2.81673 -5.3735 0
M  V30 1919 H 182.651 2.59807 -4.12737 0
M  V30 1920 H 181.656 0.711696 -5.45174 0
M  V30 1921 H 182.881 0.953088 -6.72379 0
M  V30 1922 H 180.827 3.0107 -5.82832 0
M  V30 1923 H 180.744 2.05879 -7.27427 0
M  V30 1924 H 182.012 3.23399 -7.09249 0
M  V30 1925 N 186.241 1.57166 -0.116904 0
M  V30 1926 C 187.518 1.86645 0.585049 0
M  V30 1927 C 187.898 1.0177 1.84949 0
M  V30 1928 O 187.246 0.0960379 2.28298 0
M  V30 1929 C 187.456 3.37736 0.879507 0
M  V30 1930 C 188.804 4.06289 1.23348 0
M  V30 1931 O 189.828 3.42743 0.969836 0
M  V30 1932 O 188.687 5.18455 1.7282 0
M  V30 1933 H 185.781 0.772593 0.295007 0
M  V30 1934 H 188.327 1.69025 -0.151249 0
M  V30 1935 H 187.099 3.91296 -0.0166136 0
M  V30 1936 H 186.722 3.6078 1.67103 0
M  V30 1937 N 187.719 -0.156864 1.56817 0
M  V30 1938 C 188.649 -1.19589 2.00551 0
M  V30 1939 C 189.63 -1.4536 0.883426 0
M  V30 1940 O 190.815 -1.56449 1.15054 0
M  V30 1941 C 187.945 -2.53143 2.37773 0
M  V30 1942 C 186.899 -2.41913 3.53075 0
M  V30 1943 C 186.225 -3.80088 3.76081 0
M  V30 1944 C 187.525 -1.91157 4.86062 0
M  V30 1945 H 189.219 -0.832293 2.87599 0
M  V30 1946 H 186.765 -0.398918 1.38364 0
M  V30 1947 H 188.718 -3.26047 2.66967 0
M  V30 1948 H 187.442 -2.91319 1.4765 0
M  V30 1949 H 186.101 -1.71462 3.24031 0
M  V30 1950 H 185.749 -4.15683 2.83225 0
M  V30 1951 H 185.449 -3.73439 4.53671 0
M  V30 1952 H 186.973 -4.54556 4.0769 0
M  V30 1953 H 188.387 -2.53846 5.14038 0
M  V30 1954 H 186.784 -1.95422 5.67389 0
M  V30 1955 H 187.854 -0.866673 4.77092 0
M  V30 1956 N 189.197 -1.51736 -0.425897 0
M  V30 1957 C 190.427 -1.68549 -1.19476 0
M  V30 1958 C 190.835 -0.387288 -1.85194 0
M  V30 1959 O 190.178 0.645142 -1.71999 0
M  V30 1960 C 190.24 -2.75275 -2.31223 0
M  V30 1961 C 189.904 -4.17534 -1.8578 0
M  V30 1962 C 190.901 -5.01936 -1.35485 0
M  V30 1963 C 188.586 -4.6369 -1.93123 0
M  V30 1964 C 190.58 -6.30559 -0.931347 0
M  V30 1965 C 188.267 -5.92307 -1.50384 0
M  V30 1966 C 189.265 -6.75569 -1.00473 0
M  V30 1967 O 188.953 -8.0178 -0.583452 0
M  V30 1968 H 188.685 -0.568525 -0.365725 0
M  V30 1969 H 191.239 -1.98982 -0.509444 0
M  V30 1970 H 189.469 -2.40182 -3.03067 0
M  V30 1971 H 191.158 -2.80853 -2.93047 0
M  V30 1972 H 191.924 -4.67475 -1.29197 0
M  V30 1973 H 187.803 -3.98997 -2.30916 0
M  V30 1974 H 191.347 -6.95498 -0.541084 0
M  V30 1975 H 187.244 -6.2628 -1.56346 0
M  V30 1976 H 188.012 -8.1543 -0.708275 0
M  V30 1977 N 190.675 0.682077 -1.42076 0
M  V30 1978 C 191.622 1.79578 -1.44984 0
M  V30 1979 C 192.592 1.6332 -0.302614 0
M  V30 1980 O 193.777 1.83978 -0.505633 0
M  V30 1981 C 190.917 3.1756 -1.35091 0
M  V30 1982 C 190.03 3.45156 -2.59791 0
M  V30 1983 C 189.165 4.72826 -2.42093 0
M  V30 1984 C 188.204 4.93433 -3.62202 0
M  V30 1985 N 187.341 6.12338 -3.43491 0
M  V30 1986 H 192.181 1.76427 -2.40161 0
M  V30 1987 H 189.718 0.861376 -1.19242 0
M  V30 1988 H 191.676 3.97287 -1.27354 0
M  V30 1989 H 190.306 3.19854 -0.435133 0
M  V30 1990 H 189.358 2.59736 -2.77923 0
M  V30 1991 H 190.67 3.5628 -3.49094 0
M  V30 1992 H 189.824 5.60631 -2.319 0
M  V30 1993 H 188.563 4.63973 -1.50268 0
M  V30 1994 H 187.568 4.04073 -3.72834 0
M  V30 1995 H 188.793 5.04136 -4.54998 0
M  V30 1996 H 186.739 6.04672 -2.54377 0
M  V30 1997 H 186.656 6.2429 -4.26377 0
M  V30 1998 H 187.924 7.02841 -3.37097 0
M  V30 1999 N 192.153 1.28127 0.917671 0
M  V30 2000 C 193.1 1.11717 2.0196 0
M  V30 2001 C 194.07 0.0153929 1.66093 0
M  V30 2002 O 195.255 0.179596 1.89953 0
M  V30 2003 C 192.395 0.780927 3.36148 0
M  V30 2004 C 191.508 1.96135 3.84909 0
M  V30 2005 C 190.643 1.56609 5.0759 0
M  V30 2006 C 189.682 2.71339 5.48673 0
M  V30 2007 N 188.819 2.32332 6.62545 0
M  V30 2008 H 193.659 2.06003 2.15329 0
M  V30 2009 H 191.196 1.02535 1.05475 0
M  V30 2010 H 193.154 0.56675 4.13333 0
M  V30 2011 H 191.784 -0.124998 3.22558 0
M  V30 2012 H 190.836 2.28777 3.03916 0
M  V30 2013 H 192.148 2.82165 4.1132 0
M  V30 2014 H 191.302 1.31374 5.92305 0
M  V30 2015 H 190.041 0.677014 4.82978 0
M  V30 2016 H 189.046 2.97276 4.62501 0
M  V30 2017 H 190.271 3.60882 5.75274 0
M  V30 2018 H 188.217 1.45889 6.39572 0
M  V30 2019 H 188.134 3.11899 6.88662 0
M  V30 2020 H 189.402 2.10371 7.50576 0
M  V30 2021 N 193.631 -1.12557 1.10312 0
M  V30 2022 C 194.594 -2.16434 0.75424 0
M  V30 2023 C 195.594 -1.59278 -0.220685 0
M  V30 2024 O 196.784 -1.742 0.00230591 0
M  V30 2025 C 193.916 -3.40699 0.116987 0
M  V30 2026 H 195.109 -2.48811 1.67431 0
M  V30 2027 H 192.662 -1.27542 0.903475 0
M  V30 2028 H 193.397 -3.13921 -0.813877 0
M  V30 2029 H 193.182 -3.83459 0.818613 0
M  V30 2030 H 194.672 -4.17451 -0.111387 0
M  V30 2031 N 195.109 -0.891671 -1.2995 0
M  V30 2032 C 196.356 -0.513501 -1.95881 0
M  V30 2033 C 196.684 0.938655 -1.70351 0
M  V30 2034 O 195.939 1.67936 -1.00478 0
M  V30 2035 C 196.238 -0.742868 -3.49594 0
M  V30 2036 C 195.904 -2.17114 -3.95186 0
M  V30 2037 C 194.566 -2.56169 -4.07346 0
M  V30 2038 C 196.918 -3.10162 -4.18866 0
M  V30 2039 C 194.246 -3.87469 -4.4055 0
M  V30 2040 C 196.598 -4.41001 -4.53542 0
M  V30 2041 C 195.262 -4.79941 -4.63911 0
M  V30 2042 H 194.532 -0.187903 -0.71678 0
M  V30 2043 H 197.179 -1.1288 -1.54694 0
M  V30 2044 H 195.484 -0.044586 -3.91775 0
M  V30 2045 H 197.181 -0.429767 -3.9869 0
M  V30 2046 H 193.771 -1.85801 -3.86233 0
M  V30 2047 H 197.955 -2.81206 -4.08946 0
M  V30 2048 H 193.211 -4.17371 -4.46779 0
M  V30 2049 H 197.385 -5.13133 -4.70815 0
M  V30 2050 H 195.012 -5.81719 -4.89395 0
M  V30 2051 N 196.587 1.43421 -0.653314 0
M  V30 2052 C 197.812 2.06678 -0.172846 0
M  V30 2053 C 198.237 1.48648 1.15262 0
M  V30 2054 O 197.595 0.596457 1.71208 0
M  V30 2055 C 197.643 3.60474 -0.0953184 0
M  V30 2056 O 196.747 4.01487 0.942442 0
M  V30 2057 H 196.088 0.657181 -0.0949155 0
M  V30 2058 H 198.618 1.83925 -0.896265 0
M  V30 2059 H 198.628 4.07905 0.0879728 0
M  V30 2060 H 197.303 4.02088 -1.06291 0
M  V30 2061 H 195.88 3.65646 0.731932 0
M  V30 2062 N 198.065 0.39524 1.52563 0
M  V30 2063 C 199.293 -0.184943 2.06072 0
M  V30 2064 C 199.708 -1.40021 1.26647 0
M  V30 2065 O 199.065 -1.79767 0.314672 0
M  V30 2066 C 199.116 -0.549179 3.57304 0
M  V30 2067 O 198.837 0.617813 4.33722 0
M  V30 2068 C 200.338 -1.18459 4.2718 0
M  V30 2069 H 197.558 -0.0265025 0.670476 0
M  V30 2070 H 200.102 0.562184 1.96621 0
M  V30 2071 H 198.257 -1.2462 3.66809 0
M  V30 2072 H 198.671 0.317091 5.23541 0
M  V30 2073 H 200.145 -1.38976 5.34219 0
M  V30 2074 H 200.622 -2.15368 3.82771 0
M  V30 2075 H 201.228 -0.528163 4.22008 0
M  V30 2076 N 199.544 -1.57102 0.125237 0
M  V30 2077 C 200.79 -1.96488 -0.525753 0
M  V30 2078 C 201.145 -1.00786 -1.6389 0
M  V30 2079 O 200.438 -0.038979 -1.9156 0
M  V30 2080 C 200.632 -3.40096 -1.09862 0
M  V30 2081 C 200.461 -4.4968 -0.0425004 0
M  V30 2082 C 199.231 -5.03781 0.391463 0
M  V30 2083 C 201.429 -5.08936 0.740829 0
M  V30 2084 N 199.411 -5.96948 1.4327 0
M  V30 2085 C 200.782 -5.98105 1.6331 0
M  V30 2086 C 202.837 -4.91576 0.791029 0
M  V30 2087 C 201.54 -6.71774 2.57122 0
M  V30 2088 C 203.566 -5.6593 1.71688 0
M  V30 2089 C 202.928 -6.5479 2.59672 0
M  V30 2090 H 199.027 -0.765072 -0.161831 0
M  V30 2091 H 201.611 -1.93511 0.214801 0
M  V30 2092 H 199.782 -3.43707 -1.80887 0
M  V30 2093 H 201.514 -3.66591 -1.71444 0
M  V30 2094 H 198.269 -4.736 -0.00213584 0
M  V30 2095 H 198.693 -6.48236 1.95243 0
M  V30 2096 H 203.335 -4.22615 0.124915 0
M  V30 2097 H 201.053 -7.39977 3.24744 0
M  V30 2098 H 204.639 -5.54501 1.76125 0
M  V30 2099 H 203.519 -7.11316 3.30149 0
M  V30 2100 N 201.022 0.148545 -1.56898 0
M  V30 2101 C 201.969 1.18345 -1.98149 0
M  V30 2102 C 202.939 1.42772 -0.848848 0
M  V30 2103 O 204.124 1.55132 -1.11079 0
M  V30 2104 C 201.264 2.51231 -2.36594 0
M  V30 2105 C 200.377 2.33991 -3.63142 0
M  V30 2106 C 199.512 3.59902 -3.90697 0
M  V30 2107 C 198.551 3.37692 -5.1052 0
M  V30 2108 N 197.688 4.5573 -5.34092 0
M  V30 2109 H 202.528 0.82467 -2.86362 0
M  V30 2110 H 200.065 0.395756 -1.41676 0
M  V30 2111 H 202.023 3.28713 -2.56912 0
M  V30 2112 H 200.653 2.85059 -1.51463 0
M  V30 2113 H 199.705 1.47572 -3.50609 0
M  V30 2114 H 201.017 2.13539 -4.5078 0
M  V30 2115 H 200.171 4.45813 -4.11505 0
M  V30 2116 H 198.91 3.83357 -3.01477 0
M  V30 2117 H 197.915 2.5017 -4.89587 0
M  V30 2118 H 199.14 3.15637 -6.0129 0
M  V30 2119 H 197.086 4.79361 -4.47827 0
M  V30 2120 H 197.003 4.38274 -6.15996 0
M  V30 2121 H 198.271 5.42858 -5.59397 0
M  V30 2122 N 202.5 1.5196 0.417844 0
M  V30 2123 C 203.748 1.65263 1.16329 0
M  V30 2124 C 204.069 0.380634 1.91249 0
M  V30 2125 O 203.339 -0.604214 1.86349 0
M  V30 2126 H 201.919 0.60912 0.432414 0
M  V30 2127 H 204.581 1.88969 0.477162 0
M  V30 2128 H 203.677 2.4896 1.88217 0
M  V30 2129 N 203.978 -0.674533 1.42435 0
M  V30 2130 C 204.925 -1.78807 1.45934 0
M  V30 2131 C 205.895 -1.63157 0.311271 0
M  V30 2132 O 207.08 -1.83707 0.515383 0
M  V30 2133 C 204.22 -3.16839 1.36773 0
M  V30 2134 C 203.333 -3.43774 2.61617 0
M  V30 2135 C 202.468 -4.71536 2.44597 0
M  V30 2136 C 201.507 -4.91505 3.64814 0
M  V30 2137 N 200.644 -6.10508 3.46734 0
M  V30 2138 H 205.484 -1.75151 2.41093 0
M  V30 2139 H 203.021 -0.85504 1.19697 0
M  V30 2140 H 204.979 -3.96606 1.29459 0
M  V30 2141 H 203.609 -3.19619 0.452089 0
M  V30 2142 H 202.661 -2.58259 2.79297 0
M  V30 2143 H 203.973 -3.54423 3.50978 0
M  V30 2144 H 203.127 -5.59393 2.3487 0
M  V30 2145 H 201.866 -4.6317 1.52726 0
M  V30 2146 H 200.871 -4.0209 3.74972 0
M  V30 2147 H 202.096 -5.01716 4.57665 0
M  V30 2148 H 200.042 -6.03315 2.5758 0
M  V30 2149 H 199.959 -6.2202 4.29682 0
M  V30 2150 H 201.227 -7.01044 3.40819 0
M  V30 2151 N 205.456 -1.28612 -0.910864 0
M  V30 2152 C 206.686 -1.1862 -1.69153 0
M  V30 2153 C 207.094 0.257324 -1.87442 0
M  V30 2154 O 206.437 1.18543 -1.40332 0
M  V30 2155 C 206.499 -1.81606 -3.10257 0
M  V30 2156 C 206.163 -3.30864 -3.15243 0
M  V30 2157 C 207.16 -4.27256 -2.96223 0
M  V30 2158 C 204.845 -3.71871 -3.37664 0
M  V30 2159 C 206.839 -5.62631 -2.99541 0
M  V30 2160 C 204.526 -5.07371 -3.40614 0
M  V30 2161 C 205.524 -6.02561 -3.21573 0
M  V30 2162 O 205.212 -7.35589 -3.2429 0
M  V30 2163 H 204.944 -0.412633 -0.535453 0
M  V30 2164 H 207.498 -1.70306 -1.14827 0
M  V30 2165 H 205.728 -1.24418 -3.66138 0
M  V30 2166 H 207.417 -1.66092 -3.70362 0
M  V30 2167 H 208.183 -3.9691 -2.78725 0
M  V30 2168 H 204.062 -2.98241 -3.5153 0
M  V30 2169 H 207.606 -6.36907 -2.84597 0
M  V30 2170 H 203.503 -5.37366 -3.57642 0
M  V30 2171 H 204.271 -7.44252 -3.40633 0
M  V30 2172 N 206.934 1.1197 -1.10907 0
M  V30 2173 C 207.882 2.19927 -0.757303 0
M  V30 2174 C 208.876 1.67564 0.248747 0
M  V30 2175 O 210.082 1.79672 0.108605 0
M  V30 2176 H 206.457 0.716925 -0.226987 0
M  V30 2177 H 208.428 2.46847 -1.67658 0
M  V30 2178 C 207.177 3.47061 -0.210671 0
M  V30 2179 H 206.5 3.87703 -0.976049 0
M  V30 2180 H 207.94 4.24 -0.0026584 0
M  V30 2181 C 206.399 3.19864 1.05777 0
M  V30 2182 O 206.929 3.40049 2.13845 0
M  V30 2183 N 205.135 2.73636 0.978349 0
M  V30 2184 H 204.682 2.5741 0.0988246 0
M  V30 2185 H 204.64 2.55815 1.82773 0
M  V30 2186 N 208.412 0.89855 1.29475 0
M  V30 2187 C 209.342 0.39201 2.30186 0
M  V30 2188 C 210.323 -0.532359 1.61555 0
M  V30 2189 O 211.508 -0.443331 1.89072 0
M  V30 2190 C 208.638 -0.382353 3.45189 0
M  V30 2191 C 207.592 0.451483 4.25612 0
M  V30 2192 C 206.918 -0.450307 5.328 0
M  V30 2193 C 208.218 1.70079 4.93832 0
M  V30 2194 H 209.912 1.23362 2.72804 0
M  V30 2195 H 207.458 0.594638 1.31149 0
M  V30 2196 H 209.411 -0.747451 4.14718 0
M  V30 2197 H 208.135 -1.25774 3.01411 0
M  V30 2198 H 206.794 0.798897 3.57789 0
M  V30 2199 H 206.442 -1.32379 4.85268 0
M  V30 2200 H 206.142 0.103902 5.87508 0
M  V30 2201 H 207.666 -0.811623 6.05182 0
M  V30 2202 H 209.08 1.40549 5.55805 0
M  V30 2203 H 207.477 2.19623 5.58467 0
M  V30 2204 H 208.547 2.43744 4.19186 0
M  V30 2205 N 209.89 -1.43072 0.660911 0
M  V30 2206 C 211.12 -2.05769 0.185153 0
M  V30 2207 C 211.528 -1.49668 -1.15742 0
M  V30 2208 O 210.871 -0.625649 -1.72717 0
M  V30 2209 C 210.933 -3.59489 0.0278237 0
M  V30 2210 C 210.597 -4.38212 1.2969 0
M  V30 2211 C 211.594 -4.69772 2.22734 0
M  V30 2212 C 209.279 -4.7809 1.54063 0
M  V30 2213 C 211.273 -5.40129 3.38437 0
M  V30 2214 C 208.96 -5.4819 2.70058 0
M  V30 2215 C 209.958 -5.79132 3.62071 0
M  V30 2216 O 209.646 -6.47798 4.76039 0
M  V30 2217 H 209.378 -0.669873 0.0908086 0
M  V30 2218 H 211.932 -1.84436 0.90402 0
M  V30 2219 H 210.162 -3.79426 -0.746489 0
M  V30 2220 H 211.851 -4.03862 -0.406275 0
M  V30 2221 H 212.617 -4.39476 2.05149 0
M  V30 2222 H 208.496 -4.53408 0.833215 0
M  V30 2223 H 212.04 -5.64198 4.10277 0
M  V30 2224 H 207.937 -5.77902 2.87574 0
M  V30 2225 H 208.705 -6.66283 4.75404 0
M  V30 2226 N 211.368 -0.403325 -1.52352 0
M  V30 2227 C 212.616 0.174003 -2.0135 0
M  V30 2228 C 212.937 1.46139 -1.29106 0
M  V30 2229 O 212.207 1.91448 -0.415253 0
M  V30 2230 H 210.787 0.0672911 -0.743963 0
M  V30 2231 H 213.449 -0.538235 -1.87321 0
M  V30 2232 H 212.545 0.374254 -3.09848 0
M  V30 2233 N 212.846 1.57033 -0.133567 0
M  V30 2234 C 213.809 2.14897 0.796995 0
M  V30 2235 C 214.809 1.0874 1.18458 0
M  V30 2236 O 215.999 1.34446 1.1077 0
M  V30 2237 C 213.131 2.70112 2.07973 0
M  V30 2238 H 214.324 2.98457 0.293873 0
M  V30 2239 H 211.877 1.55871 0.115787 0
M  V30 2240 H 212.612 1.9018 2.62682 0
M  V30 2241 H 212.397 3.47764 1.81115 0
M  V30 2242 H 213.887 3.14738 2.74462 0
M  V30 2243 N 214.325 -0.140222 1.56975 0
M  V30 2244 C 215.572 -0.851687 1.83719 0
M  V30 2245 C 215.9 -1.80862 0.715485 0
M  V30 2246 O 215.155 -1.93464 -0.294956 0
M  V30 2247 C 215.454 -1.65386 3.16832 0
M  V30 2248 C 215.12 -0.843112 4.42947 0
M  V30 2249 C 213.782 -0.619464 4.77196 0
M  V30 2250 C 216.134 -0.276582 5.20466 0
M  V30 2251 C 213.462 0.181312 5.8642 0
M  V30 2252 C 215.814 0.51127 6.30531 0
M  V30 2253 C 214.478 0.745432 6.63325 0
M  V30 2254 H 213.748 -0.311654 0.672274 0
M  V30 2255 H 216.395 -0.115006 1.91154 0
M  V30 2256 H 214.7 -2.46084 3.04877 0
M  V30 2257 H 216.397 -2.20793 3.34741 0
M  V30 2258 H 212.987 -1.0275 4.16101 0
M  V30 2259 H 217.171 -0.436632 4.94376 0
M  V30 2260 H 212.427 0.372165 6.10266 0
M  V30 2261 H 216.601 0.957354 6.89788 0
M  V30 2262 H 214.228 1.36778 7.47794 0
M  V30 2263 N 215.803 -1.52179 -0.40978 0
M  V30 2264 C 216.733 -1.78435 -1.5061 0
M  V30 2265 C 217.714 -0.635295 -1.57791 0
M  V30 2266 O 218.899 -0.880823 -1.73076 0
M  V30 2267 C 216.029 -1.93444 -2.88439 0
M  V30 2268 C 214.983 -3.09038 -2.96108 0
M  V30 2269 C 214.309 -3.09268 -4.36185 0
M  V30 2270 C 215.609 -4.48508 -2.67652 0
M  V30 2271 H 217.303 -2.70237 -1.28889 0
M  V30 2272 H 214.849 -1.30036 -0.618605 0
M  V30 2273 H 216.802 -2.10394 -3.65119 0
M  V30 2274 H 215.526 -0.983129 -3.11452 0
M  V30 2275 H 214.185 -2.91837 -2.21872 0
M  V30 2276 H 213.833 -2.11861 -4.56206 0
M  V30 2277 H 213.533 -3.86907 -4.42241 0
M  V30 2278 H 215.057 -3.28348 -5.14801 0
M  V30 2279 H 216.471 -4.65918 -3.34056 0
M  V30 2280 H 214.868 -5.28059 -2.85085 0
M  V30 2281 H 215.938 -4.56649 -1.63095 0
M  V30 2282 N 217.281 0.66697 -1.42791 0
M  V30 2283 C 218.191 1.80962 -1.49299 0
M  V30 2284 C 219.207 1.69775 -0.381108 0
M  V30 2285 O 220.383 1.91188 -0.633188 0
M  V30 2286 C 217.448 3.17156 -1.40045 0
M  V30 2287 C 216.509 3.40242 -2.6179 0
M  V30 2288 C 215.742 4.69939 -2.52969 0
M  V30 2289 O 215.965 5.48372 -1.56985 0
M  V30 2290 O 214.899 4.94441 -3.43237 0
M  V30 2291 H 218.725 1.78427 -2.45759 0
M  V30 2292 H 216.31 0.823713 -1.24641 0
M  V30 2293 H 218.192 3.98413 -1.37276 0
M  V30 2294 H 216.867 3.20312 -0.467138 0
M  V30 2295 H 215.774 2.58802 -2.70134 0
M  V30 2296 H 217.107 3.41923 -3.54047 0
M  V30 2297 N 218.759 1.29093 0.90403 0
M  V30 2298 C 219.706 1.13853 2.00764 0
M  V30 2299 C 220.676 0.0330084 1.66067 0
M  V30 2300 O 221.861 0.199733 1.89752 0
M  V30 2301 C 219.001 0.816537 3.35301 0
M  V30 2302 C 218.114 2.00206 3.82807 0
M  V30 2303 C 217.249 1.61983 5.059 0
M  V30 2304 C 216.288 2.77143 5.45764 0
M  V30 2305 N 215.425 2.39346 6.60044 0
M  V30 2306 H 220.265 2.08276 2.13132 0
M  V30 2307 H 217.802 1.03648 1.04381 0
M  V30 2308 H 219.76 0.610557 4.12708 0
M  V30 2309 H 218.39 -0.090779 3.22672 0
M  V30 2310 H 217.442 2.31988 3.01473 0
M  V30 2311 H 218.754 2.86512 4.08304 0
M  V30 2312 H 217.908 1.37649 5.90879 0
M  V30 2313 H 216.647 0.728202 4.82233 0
M  V30 2314 H 215.652 3.02165 4.59322 0
M  V30 2315 H 216.877 3.66964 5.71414 0
M  V30 2316 H 214.823 1.52665 6.37989 0
M  V30 2317 H 214.74 3.19185 6.85315 0
M  V30 2318 H 216.008 2.1832 7.48303 0
M  V30 2319 N 220.237 -1.11381 1.11499 0
M  V30 2320 C 221.2 -2.15622 0.777153 0
M  V30 2321 C 222.2 -1.59504 -0.203779 0
M  V30 2322 O 223.39 -1.74188 0.020782 0
M  V30 2323 C 220.522 -3.40556 0.153116 0
M  V30 2324 H 221.715 -2.47021 1.70061 0
M  V30 2325 H 219.268 -1.26577 0.916952 0
M  V30 2326 H 220.003 -3.14767 -0.780536 0
M  V30 2327 H 219.788 -3.8257 0.859238 0
M  V30 2328 H 221.278 -4.17546 -0.0671044 0
M  V30 2329 N 221.715 -0.905404 -1.28997 0
M  V30 2330 C 222.961 -0.535039 -1.95615 0
M  V30 2331 C 223.294 0.917404 -1.71165 0
M  V30 2332 O 222.569 1.65123 -1.02785 0
M  V30 2333 C 222.852 -0.834918 -3.50287 0
M  V30 2334 C 222.705 -2.33948 -3.84172 0
M  V30 2335 C 224.024 -0.325318 -4.38896 0
M  V30 2336 H 221.143 -0.195861 -0.710498 0
M  V30 2337 H 223.785 -1.13313 -1.52513 0
M  V30 2338 H 221.935 -0.325904 -3.87131 0
M  V30 2339 H 223.607 -2.91847 -3.57243 0
M  V30 2340 H 221.85 -2.79789 -3.31513 0
M  V30 2341 H 222.521 -2.49987 -4.92149 0
M  V30 2342 H 224.997 -0.761256 -4.09077 0
M  V30 2343 H 223.873 -0.564295 -5.45992 0
M  V30 2344 H 224.134 0.774144 -4.35269 0
M  V30 2345 N 223.193 1.4272 -0.668489 0
M  V30 2346 C 224.609 1.55992 -0.33745 0
M  V30 2347 C 224.809 1.64933 1.15756 0
M  V30 2348 O 223.865 1.61278 1.94282 0
M  V30 2349 C 225.178 2.81314 -1.06222 0
M  V30 2350 C 226.726 2.95078 -1.04394 0
M  V30 2351 C 227.201 4.23252 -1.74991 0
M  V30 2352 N 228.692 4.3015 -1.71829 0
M  V30 2353 C 229.427 5.28127 -2.23315 0
M  V30 2354 N 228.923 6.32293 -2.83156 0
M  V30 2355 N 230.716 5.19882 -2.13726 0
M  V30 2356 H 222.867 1.3516 -1.63846 0
M  V30 2357 H 225.13 0.650174 -0.689912 0
M  V30 2358 H 224.836 2.80823 -2.11734 0
M  V30 2359 H 224.71 3.72012 -0.62344 0
M  V30 2360 H 227.097 2.951 0.0028244 0
M  V30 2361 H 227.178 2.05627 -1.52155 0
M  V30 2362 H 226.822 4.2399 -2.79633 0
M  V30 2363 H 226.752 5.11626 -1.24685 0
M  V30 2364 H 229.243 3.55499 -1.28175 0
M  V30 2365 H 229.556 7.03398 -3.20079 0
M  V30 2366 H 227.901 6.32873 -2.87223 0
M  V30 2367 H 231.092 4.37423 -1.66669 0
M  V30 2368 H 231.265 5.96077 -2.54158 0
M  V30 2369 N 224.671 0.411399 1.52136 0
M  V30 2370 C 225.601 -0.404015 2.29978 0
M  V30 2371 C 226.582 -1.04412 1.34284 0
M  V30 2372 O 227.767 -1.0527 1.63192 0
M  V30 2373 C 224.897 -1.5197 3.12286 0
M  V30 2374 C 223.851 -1.00448 4.16046 0
M  V30 2375 C 223.177 -2.21393 4.86712 0
M  V30 2376 C 224.477 -0.0569336 5.22269 0
M  V30 2377 H 226.171 0.245529 2.98392 0
M  V30 2378 H 223.717 0.119525 1.43503 0
M  V30 2379 H 225.67 -2.09715 3.6551 0
M  V30 2380 H 224.394 -2.19716 2.41646 0
M  V30 2381 H 223.053 -0.449421 3.63835 0
M  V30 2382 H 222.701 -2.87699 4.12599 0
M  V30 2383 H 222.401 -1.87571 5.56858 0
M  V30 2384 H 223.925 -2.7974 5.4275 0
M  V30 2385 H 225.339 -0.54325 5.7072 0
M  V30 2386 H 223.736 0.192594 5.99791 0
M  V30 2387 H 224.806 0.887663 4.76706 0
M  V30 2388 N 226.149 -1.5696 0.141893 0
M  V30 2389 C 227.079 -2.19516 -0.795936 0
M  V30 2390 C 228.06 -1.14187 -1.26077 0
M  V30 2391 O 229.245 -1.42511 -1.31925 0
M  V30 2392 C 226.375 -2.81272 -2.03723 0
M  V30 2393 C 225.329 -3.92384 -1.70936 0
M  V30 2394 C 224.655 -4.41052 -3.02287 0
M  V30 2395 C 225.955 -5.13403 -0.959954 0
M  V30 2396 H 227.649 -2.98138 -0.274596 0
M  V30 2397 H 225.195 -1.43406 -0.130636 0
M  V30 2398 H 227.148 -3.237 -2.69808 0
M  V30 2399 H 225.872 -1.99973 -2.58221 0
M  V30 2400 H 224.531 -3.50566 -1.07232 0
M  V30 2401 H 224.179 -3.56582 -3.54765 0
M  V30 2402 H 223.879 -5.15993 -2.81114 0
M  V30 2403 H 225.403 -4.86146 -3.69451 0
M  V30 2404 H 226.817 -5.52706 -1.52279 0
M  V30 2405 H 225.214 -5.94073 -0.848357 0
M  V30 2406 H 226.284 -4.84875 0.0492434 0
M  V30 2407 N 227.627 0.131896 -1.57047 0
M  V30 2408 C 228.574 1.16236 -1.99393 0
M  V30 2409 C 229.544 1.41863 -0.863943 0
M  V30 2410 O 230.729 1.53946 -1.12718 0
M  V30 2411 C 227.869 2.48708 -2.39245 0
M  V30 2412 C 226.982 2.30127 -3.65603 0
M  V30 2413 C 226.117 3.55738 -3.94492 0
M  V30 2414 C 225.156 3.32259 -5.14073 0
M  V30 2415 N 224.293 4.50039 -5.38896 0
M  V30 2416 H 229.133 0.794251 -2.87221 0
M  V30 2417 H 226.67 0.380707 -1.42088 0
M  V30 2418 H 228.628 3.25969 -2.60384 0
M  V30 2419 H 227.258 2.83437 -1.54478 0
M  V30 2420 H 226.31 1.43845 -3.52154 0
M  V30 2421 H 227.622 2.08746 -4.5302 0
M  V30 2422 H 226.776 4.41423 -4.1621 0
M  V30 2423 H 225.515 3.80138 -3.05526 0
M  V30 2424 H 224.52 2.44963 -4.92212 0
M  V30 2425 H 225.745 3.09242 -6.04604 0
M  V30 2426 H 223.691 4.74584 -4.52886 0
M  V30 2427 H 223.608 4.31716 -6.2061 0
M  V30 2428 H 224.876 5.36895 -5.65123 0
M  V30 2429 N 229.106 1.52395 0.401703 0
M  V30 2430 C 230.517 1.58899 0.980202 0
M  V30 2431 C 230.868 0.434032 1.91339 0
M  V30 2432 O 229.993 -0.444619 2.11783 0
M  V30 2433 C 230.588 2.87994 1.78451 0
M  V30 2434 C 229.147 2.96953 2.31292 0
M  V30 2435 C 228.294 2.53903 1.11483 0
M  V30 2436 H 231.245 1.57657 0.18168 0
M  V30 2437 H 231.266 2.73765 2.64259 0
M  V30 2438 H 230.778 3.72035 1.10506 0
M  V30 2439 H 228.879 2.17422 3.02586 0
M  V30 2440 H 228.992 4.01344 2.61649 0
M  V30 2441 H 227.356 2.07925 1.47104 0
M  V30 2442 H 228.139 3.40326 0.450928 0
M  V30 2443 N 230.584 -0.659388 1.43143 0
M  V30 2444 C 231.832 -1.41654 1.44147 0
M  V30 2445 C 232.153 -1.94893 0.0645739 0
M  V30 2446 O 231.423 -1.74044 -0.899198 0
M  V30 2447 H 230.003 -0.525708 0.530697 0
M  V30 2448 H 232.665 -0.778097 1.78694 0
M  V30 2449 H 231.761 -2.26195 2.1504 0
M  V30 2450 N 232.062 -1.29571 -0.897171 0
M  V30 2451 C 233.31 -1.17456 -1.64464 0
M  V30 2452 C 233.631 0.273698 -1.9307 0
M  V30 2453 O 232.901 1.18684 -1.55855 0
M  V30 2454 H 231.481 -0.431706 -0.609622 0
M  V30 2455 H 234.143 -1.62531 -1.07562 0
M  V30 2456 H 233.239 -1.72648 -2.59998 0
M  V30 2457 N 233.54 1.10788 -1.12088 0
M  V30 2458 C 234.786 1.82942 -0.875226 0
M  V30 2459 C 235.119 1.84779 0.597538 0
M  V30 2460 O 234.394 1.30578 1.44152 0
M  V30 2461 C 234.677 3.29789 -1.44606 0
M  V30 2462 C 234.53 3.36307 -2.98693 0
M  V30 2463 C 235.849 4.26064 -1.10261 0
M  V30 2464 H 232.968 0.664195 -0.319397 0
M  V30 2465 H 235.61 1.29867 -1.38689 0
M  V30 2466 H 233.76 3.75118 -1.01089 0
M  V30 2467 H 235.432 2.99487 -3.50864 0
M  V30 2468 H 233.675 2.76318 -3.34411 0
M  V30 2469 H 234.346 4.39694 -3.33726 0
M  V30 2470 H 236.822 3.88951 -1.4784 0
M  V30 2471 H 235.698 5.27183 -1.52869 0
M  V30 2472 H 235.959 4.42098 -0.0142953 0
M  V30 2473 N 235.018 0.912232 1.28515 0
M  V30 2474 C 235.948 0.416403 2.29757 0
M  V30 2475 C 236.929 -0.515194 1.6211 0
M  V30 2476 O 238.114 -0.423253 1.89532 0
M  V30 2477 C 235.244 -0.34572 3.45575 0
M  V30 2478 C 234.198 0.496599 4.25109 0
M  V30 2479 C 233.524 -0.393771 5.33248 0
M  V30 2480 C 234.824 1.75307 4.92001 0
M  V30 2481 H 236.518 1.26249 2.7148 0
M  V30 2482 H 234.064 0.608515 1.30511 0
M  V30 2483 H 236.017 -0.703422 4.15488 0
M  V30 2484 H 234.741 -1.2257 3.02728 0
M  V30 2485 H 233.4 0.8368 3.56922 0
M  V30 2486 H 233.048 -1.27225 4.86644 0
M  V30 2487 H 232.748 0.166209 5.87365 0
M  V30 2488 H 234.272 -0.747389 6.06009 0
M  V30 2489 H 235.686 1.46437 5.54283 0
M  V30 2490 H 234.083 2.25534 5.56106 0
M  V30 2491 H 235.153 2.48176 4.16577 0
M  V30 2492 N 236.496 -1.42363 0.676048 0
M  V30 2493 C 237.742 -2.0182 0.199125 0
M  V30 2494 C 238.075 -1.53339 -1.19168 0
M  V30 2495 O 237.35 -0.736124 -1.80032 0
M  V30 2496 C 237.633 -3.59331 0.235144 0
M  V30 2497 C 237.486 -4.17989 1.66149 0
M  V30 2498 C 238.805 -4.3813 -0.41595 0
M  V30 2499 H 235.924 -0.733293 0.0738311 0
M  V30 2500 H 238.566 -1.69368 0.86107 0
M  V30 2501 H 236.716 -3.87109 -0.328487 0
M  V30 2502 H 238.388 -4.0116 2.27747 0
M  V30 2503 H 236.631 -3.7377 2.20178 0
M  V30 2504 H 237.302 -5.27126 1.63837 0
M  V30 2505 H 239.778 -4.16051 0.0638529 0
M  V30 2506 H 238.654 -5.47717 -0.360115 0
M  V30 2507 H 238.915 -4.16101 -1.49373 0
M  V30 2508 N 237.974 -0.419461 -1.51915 0
M  V30 2509 C 239.221 0.152939 -2.01922 0
M  V30 2510 C 239.549 1.4426 -1.30458 0
M  V30 2511 O 238.804 1.91514 -0.402593 0
M  V30 2512 C 239.103 0.437067 -3.54717 0
M  V30 2513 C 238.769 -0.764632 -4.44369 0
M  V30 2514 C 237.431 -1.09423 -4.68594 0
M  V30 2515 C 239.783 -1.56713 -4.97082 0
M  V30 2516 C 237.111 -2.22732 -5.42777 0
M  V30 2517 C 239.463 -2.69107 -5.72507 0
M  V30 2518 C 238.127 -3.02541 -5.95 0
M  V30 2519 H 237.397 0.0559644 -0.738884 0
M  V30 2520 H 240.044 -0.562998 -1.83037 0
M  V30 2521 H 238.349 1.23469 -3.71837 0
M  V30 2522 H 240.046 0.893083 -3.90928 0
M  V30 2523 H 236.636 -0.497775 -4.257 0
M  V30 2524 H 240.82 -1.32571 -4.78266 0
M  V30 2525 H 236.076 -2.48971 -5.58411 0
M  V30 2526 H 240.25 -3.31671 -6.12346 0
M  V30 2527 H 237.877 -3.90457 -6.52264 0
M  V30 2528 N 239.452 1.56882 -0.150215 0
M  V30 2529 C 240.698 1.96518 0.500834 0
M  V30 2530 C 241.031 1.03527 1.64304 0
M  V30 2531 O 240.306 0.0782751 1.94342 0
M  V30 2532 C 240.589 3.45822 1.00395 0
M  V30 2533 C 240.442 4.49591 -0.136983 0
M  V30 2534 C 241.761 3.97704 1.88467 0
M  V30 2535 H 238.88 0.714535 0.18058 0
M  V30 2536 H 241.522 1.88577 -0.232091 0
M  V30 2537 H 239.672 3.5272 1.62851 0
M  V30 2538 H 241.344 4.5477 -0.77343 0
M  V30 2539 H 239.587 4.26441 -0.795652 0
M  V30 2540 H 240.258 5.51402 0.256815 0
M  V30 2541 H 242.734 3.93304 1.35834 0
M  V30 2542 H 241.61 5.0263 2.20578 0
M  V30 2543 H 241.871 3.40252 2.82279 0
M  V30 2544 N 240.93 -0.123565 1.57115 0
M  V30 2545 C 242.176 -0.833386 1.84885 0
M  V30 2546 C 242.509 -1.79742 0.735292 0
M  V30 2547 O 241.784 -1.92764 -0.25925 0
M  V30 2548 C 242.067 -1.5873 3.23228 0
M  V30 2549 C 241.92 -0.643183 4.45178 0
M  V30 2550 C 243.239 -2.54453 3.59085 0
M  V30 2551 H 240.358 -0.301518 0.6725 0
M  V30 2552 H 243 -0.097778 1.89748 0
M  V30 2553 H 241.15 -2.21438 3.19214 0
M  V30 2554 H 242.822 -0.0253015 4.61293 0
M  V30 2555 H 241.065 0.0456139 4.33776 0
M  V30 2556 H 241.736 -1.20724 5.38637 0
M  V30 2557 H 244.212 -2.01853 3.63861 0
M  V30 2558 H 243.088 -3.04238 4.5687 0
M  V30 2559 H 243.349 -3.36906 2.86264 0
M  V30 2560 N 242.408 -1.52605 -0.393616 0
M  V30 2561 C 243.819 -1.59417 -0.971761 0
M  V30 2562 C 244.17 -0.444173 -1.91106 0
M  V30 2563 O 243.295 0.433382 -2.12016 0
M  V30 2564 C 243.89 -2.88936 -1.76921 0
M  V30 2565 C 242.449 -2.98175 -2.29714 0
M  V30 2566 C 241.596 -2.54491 -1.10135 0
M  V30 2567 H 244.547 -1.57751 -0.173317 0
M  V30 2568 H 244.568 -2.75163 -2.62804 0
M  V30 2569 H 244.08 -3.72616 -1.08532 0
M  V30 2570 H 242.181 -2.19024 -3.01429 0
M  V30 2571 H 242.294 -4.02726 -2.59517 0
M  V30 2572 H 240.658 -2.08702 -1.45999 0
M  V30 2573 H 241.441 -3.4056 -0.432874 0
M  V30 2574 N 243.887 0.651787 -1.4349 0
M  V30 2575 C 244.85 1.74647 -1.48429 0
M  V30 2576 C 245.85 1.56513 -0.368817 0
M  V30 2577 O 247.04 1.62385 -0.630623 0
M  V30 2578 C 244.172 3.13533 -1.33827 0
M  V30 2579 H 245.365 1.71649 -2.4592 0
M  V30 2580 H 242.918 0.863573 -1.30277 0
M  V30 2581 H 243.653 3.22142 -0.37349 0
M  V30 2582 H 243.438 3.28101 -2.14691 0
M  V30 2583 H 244.928 3.93356 -1.40218 0
M  V30 2584 N 245.365 1.30045 0.890287 0
M  V30 2585 C 246.593 1.21472 1.67487 0
M  V30 2586 C 247.008 -0.223241 1.87476 0
M  V30 2587 O 246.365 -1.14828 1.41847 0
M  V30 2588 C 246.416 1.93394 3.05419 0
M  V30 2589 O 246.137 3.31576 2.86337 0
M  V30 2590 C 247.638 1.91414 3.99844 0
M  V30 2591 H 244.858 0.420604 0.522813 0
M  V30 2592 H 247.402 1.7158 1.11268 0
M  V30 2593 H 245.557 1.47099 3.58386 0
M  V30 2594 H 245.971 3.67929 3.73802 0
M  V30 2595 H 247.445 2.46285 4.94012 0
M  V30 2596 H 247.922 0.891833 4.3005 0
M  V30 2597 H 248.528 2.37496 3.52811 0
M  V30 2598 N 246.843 -1.10192 1.12674 0
M  V30 2599 C 248.089 -1.82658 0.894847 0
M  V30 2600 C 248.444 -1.83666 -0.573107 0
M  V30 2601 O 247.737 -1.28816 -1.41835 0
M  V30 2602 C 247.931 -3.28552 1.4067 0
M  V30 2603 C 247.76 -3.41756 2.92289 0
M  V30 2604 C 246.53 -3.54021 3.60551 0
M  V30 2605 C 248.728 -3.34949 3.90274 0
M  V30 2606 N 246.71 -3.55827 5.0026 0
M  V30 2607 C 248.081 -3.43531 5.16127 0
M  V30 2608 C 250.136 -3.18565 3.8265 0
M  V30 2609 C 248.839 -3.37416 6.3525 0
M  V30 2610 C 250.865 -3.13772 5.01299 0
M  V30 2611 C 250.227 -3.22938 6.26012 0
M  V30 2612 H 246.326 -0.683044 0.380756 0
M  V30 2613 H 248.91 -1.31752 1.43351 0
M  V30 2614 H 247.081 -3.77946 0.895055 0
M  V30 2615 H 248.813 -3.88991 1.11661 0
M  V30 2616 H 245.568 -3.57135 3.1105 0
M  V30 2617 H 245.992 -3.60335 5.73138 0
M  V30 2618 H 250.634 -3.10354 2.87124 0
M  V30 2619 H 248.352 -3.44391 7.3104 0
M  V30 2620 H 251.938 -3.02242 4.97133 0
M  V30 2621 H 250.818 -3.19235 7.16281 0
M  V30 2622 N 248.321 -0.919034 -1.28029 0
M  V30 2623 C 249.251 -0.428581 -2.29533 0
M  V30 2624 C 250.232 0.50659 -1.62381 0
M  V30 2625 O 251.417 0.413195 -1.89753 0
M  V30 2626 C 248.547 0.327388 -3.45753 0
M  V30 2627 C 247.501 -0.519137 -4.2484 0
M  V30 2628 C 246.827 0.365486 -5.33449 0
M  V30 2629 C 248.127 -1.77914 -4.91064 0
M  V30 2630 H 249.821 -1.27687 -2.70807 0
M  V30 2631 H 247.367 -0.615428 -1.30186 0
M  V30 2632 H 249.32 0.681378 -4.15855 0
M  V30 2633 H 248.044 1.20963 -3.03374 0
M  V30 2634 H 246.703 -0.855717 -3.56473 0
M  V30 2635 H 246.351 1.24642 -4.87312 0
M  V30 2636 H 246.051 -0.197356 -5.87268 0
M  V30 2637 H 247.575 0.715241 -6.06396 0
M  V30 2638 H 248.989 -1.49374 -5.53498 0
M  V30 2639 H 247.386 -2.2848 -5.54903 0
M  V30 2640 H 248.456 -2.50382 -4.15255 0
M  V30 2641 N 249.799 1.42003 -0.683588 0
M  V30 2642 C 251.045 2.01712 -0.209825 0
M  V30 2643 C 251.378 1.53968 1.18353 0
M  V30 2644 O 250.653 0.745661 1.79639 0
M  V30 2645 C 250.936 3.59202 -0.254197 0
M  V30 2646 C 250.789 4.17102 -1.68363 0
M  V30 2647 C 252.108 4.38344 0.392709 0
M  V30 2648 H 249.227 0.732891 -0.0777189 0
M  V30 2649 H 251.869 1.68909 -0.87004 0
M  V30 2650 H 250.019 3.87278 0.307954 0
M  V30 2651 H 251.691 3.99946 -2.29871 0
M  V30 2652 H 249.934 3.72597 -2.22157 0
M  V30 2653 H 250.605 5.26249 -1.6663 0
M  V30 2654 H 253.081 4.16011 -0.0859162 0
M  V30 2655 H 251.957 5.47901 0.331063 0
M  V30 2656 H 252.218 4.16887 1.47164 0
M  V30 2657 N 251.277 0.427512 1.51691 0
M  V30 2658 C 252.207 -0.3796 2.30394 0
M  V30 2659 C 253.188 -1.02982 1.35384 0
M  V30 2660 O 254.373 -1.03534 1.643 0
M  V30 2661 C 251.503 -1.48649 3.1388 0
M  V30 2662 C 250.457 -0.960294 4.17088 0
M  V30 2663 C 249.783 -2.16219 4.89033 0
M  V30 2664 C 251.083 -0.00153679 5.223 0
M  V30 2665 H 252.777 0.277164 2.98114 0
M  V30 2666 H 250.323 0.134739 1.43368 0
M  V30 2667 H 252.276 -2.05826 3.67714 0
M  V30 2668 H 251 -2.1714 2.43962 0
M  V30 2669 H 249.659 -0.410806 3.64291 0
M  V30 2670 H 249.307 -2.83307 4.15628 0
M  V30 2671 H 249.007 -1.81654 5.58816 0
M  V30 2672 H 250.531 -2.73968 5.45687 0
M  V30 2673 H 251.945 -0.482687 5.71264 0
M  V30 2674 H 250.342 0.256199 5.99553 0
M  V30 2675 H 251.412 0.938174 4.75738 0
M  V30 2676 N 252.755 -1.56801 0.158532 0
M  V30 2677 C 253.665 -2.20916 -0.789518 0
M  V30 2678 C 254.681 -1.1969 -1.26294 0
M  V30 2679 O 255.857 -1.52308 -1.31773 0
M  V30 2680 C 252.922 -2.82727 -2.00665 0
M  V30 2681 C 251.983 -3.99114 -1.58134 0
M  V30 2682 C 251.216 -4.57968 -2.74045 0
M  V30 2683 O 251.439 -4.15704 -3.90572 0
M  V30 2684 O 250.373 -5.48047 -2.48855 0
M  V30 2685 H 254.199 -3.02464 -0.273681 0
M  V30 2686 H 251.784 -1.4924 -0.0690548 0
M  V30 2687 H 253.666 -3.21968 -2.71872 0
M  V30 2688 H 252.341 -2.04184 -2.51179 0
M  V30 2689 H 251.248 -3.64567 -0.839155 0
M  V30 2690 H 252.581 -4.79212 -1.12325 0
M  V30 2691 N 254.233 0.115231 -1.57178 0
M  V30 2692 C 255.51 0.852873 -1.76027 0
M  V30 2693 C 255.89 1.97892 -0.73498 0
M  V30 2694 O 255.238 2.27232 0.24036 0
M  V30 2695 C 255.448 1.36608 -3.21153 0
M  V30 2696 C 256.796 1.81692 -3.83762 0
M  V30 2697 O 257.82 1.46278 -3.24779 0
M  V30 2698 O 256.679 2.47104 -4.87444 0
M  V30 2699 H 253.773 0.405296 -0.720877 0
M  V30 2700 H 256.319 0.0986785 -1.69413 0
M  V30 2701 H 255.091 0.558357 -3.87296 0
M  V30 2702 H 254.714 2.18287 -3.3232 0
M  V30 2703 N 255.711 1.52812 0.385517 0
M  V30 2704 C 256.958 1.68026 1.1302 0
M  V30 2705 C 257.286 0.421934 1.89868 0
M  V30 2706 O 256.541 -0.595749 1.86412 0
M  V30 2707 C 256.84 2.86856 2.13187 0
M  V30 2708 C 256.506 4.24159 1.5297 0
M  V30 2709 C 255.168 4.61501 1.36274 0
M  V30 2710 C 257.52 5.09627 1.09223 0
M  V30 2711 C 254.848 5.81966 0.743837 0
M  V30 2712 C 257.2 6.30719 0.487411 0
M  V30 2713 C 255.864 6.6679 0.307777 0
M  V30 2714 H 255.134 0.614849 0.413571 0
M  V30 2715 H 257.781 1.86962 0.414405 0
M  V30 2716 H 256.086 2.6235 2.90998 0
M  V30 2717 H 257.783 2.95821 2.70722 0
M  V30 2718 H 254.373 3.94746 1.66954 0
M  V30 2719 H 258.557 4.81343 1.20922 0
M  V30 2720 H 253.813 6.08519 0.592891 0
M  V30 2721 H 257.987 6.96259 0.140143 0
M  V30 2722 H 255.614 7.60001 -0.173879 0
M  V30 2723 N 257.189 -0.644168 1.43834 0
M  V30 2724 C 258.152 -1.73857 1.49353 0
M  V30 2725 C 259.152 -1.56315 0.377112 0
M  V30 2726 O 260.342 -1.62048 0.639226 0
M  V30 2727 C 257.474 -3.12819 1.35488 0
M  V30 2728 H 258.667 -1.70342 2.46827 0
M  V30 2729 H 256.22 -0.856652 1.30733 0
M  V30 2730 H 256.955 -3.2194 0.390569 0
M  V30 2731 H 256.74 -3.26958 2.16428 0
M  V30 2732 H 258.23 -3.92606 1.42302 0
M  V30 2733 N 258.668 -1.30515 -0.883378 0
M  V30 2734 C 259.598 -1.19607 -2.00541 0
M  V30 2735 C 260.579 -0.086346 -1.69881 0
M  V30 2736 O 261.764 -0.268654 -1.92333 0
M  V30 2737 C 258.894 -0.888758 -3.35736 0
M  V30 2738 C 257.848 -1.95659 -3.8066 0
M  V30 2739 C 257.174 -1.50224 -5.13164 0
M  V30 2740 C 258.474 -3.36788 -3.99213 0
M  V30 2741 H 260.168 -2.13476 -2.09925 0
M  V30 2742 H 257.714 -1.02775 -1.00863 0
M  V30 2743 H 259.667 -0.799094 -4.13754 0
M  V30 2744 H 258.391 0.0856125 -3.26488 0
M  V30 2745 H 257.05 -2.03591 -3.04871 0
M  V30 2746 H 256.698 -0.516092 -5.00345 0
M  V30 2747 H 256.398 -2.2165 -5.44192 0
M  V30 2748 H 257.922 -1.42639 -5.93706 0
M  V30 2749 H 259.336 -3.31605 -4.67665 0
M  V30 2750 H 257.733 -4.06314 -4.41621 0
M  V30 2751 H 258.803 -3.78561 -3.03017 0
M  V30 2752 N 260.146 1.09593 -1.13257 0
M  V30 2753 C 261.076 2.18214 -0.830946 0
M  V30 2754 C 262.057 1.68812 0.208966 0
M  V30 2755 O 263.242 1.9408 0.0682666 0
M  V30 2756 C 260.372 3.46051 -0.294296 0
M  V30 2757 C 259.326 4.08778 -1.26826 0
M  V30 2758 C 258.652 5.31419 -0.591449 0
M  V30 2759 C 259.952 4.51476 -2.62615 0
M  V30 2760 H 261.646 2.43703 -1.73923 0
M  V30 2761 H 259.192 1.17128 -0.837675 0
M  V30 2762 H 261.145 4.2134 -0.0709606 0
M  V30 2763 H 259.869 3.20079 0.649366 0
M  V30 2764 H 258.528 3.35505 -1.47756 0
M  V30 2765 H 258.176 5.01727 0.357633 0
M  V30 2766 H 257.876 5.74341 -1.24123 0
M  V30 2767 H 259.4 6.09433 -0.377355 0
M  V30 2768 H 260.814 5.17999 -2.45663 0
M  V30 2769 H 259.211 5.05277 -3.23752 0
M  V30 2770 H 260.281 3.63962 -3.20406 0
M  V30 2771 N 261.624 0.925811 1.2754 0
M  V30 2772 C 263.04 0.625767 1.46821 0
M  V30 2773 C 263.24 -0.825506 1.83814 0
M  V30 2774 O 262.296 -1.60356 1.95044 0
M  V30 2775 C 263.609 1.57402 2.56213 0
M  V30 2776 C 265.157 1.58204 2.70075 0
M  V30 2777 C 265.632 2.51721 3.82623 0
M  V30 2778 N 267.123 2.49917 3.89994 0
M  V30 2779 C 267.858 3.18968 4.76494 0
M  V30 2780 N 267.354 3.97391 5.67496 0
M  V30 2781 N 269.147 3.07996 4.70208 0
M  V30 2782 H 261.298 1.86409 1.01811 0
M  V30 2783 H 263.561 0.800213 0.508295 0
M  V30 2784 H 263.267 2.60925 2.35819 0
M  V30 2785 H 263.141 1.31428 3.53563 0
M  V30 2786 H 265.528 0.554124 2.89851 0
M  V30 2787 H 265.609 1.88226 1.73218 0
M  V30 2788 H 265.253 3.54622 3.63601 0
M  V30 2789 H 265.183 2.18996 4.78903 0
M  V30 2790 H 267.674 1.9296 3.24923 0
M  V30 2791 H 267.987 4.4707 6.30356 0
M  V30 2792 H 266.332 4.01495 5.67298 0
M  V30 2793 H 269.523 2.46223 3.9811 0
M  V30 2794 H 269.696 3.6208 5.37403 0
M  V30 2795 N 263.102 -1.41638 0.69111 0
M  V30 2796 C 264.012 -2.34588 0.0233487 0
M  V30 2797 C 265.028 -1.55987 -0.770984 0
M  V30 2798 O 266.204 -1.88486 -0.709569 0
M  V30 2799 C 263.269 -3.34684 -0.904851 0
M  V30 2800 C 262.33 -4.29176 -0.103225 0
M  V30 2801 C 261.563 -5.2449 -0.987216 0
M  V30 2802 O 261.786 -5.2514 -2.22674 0
M  V30 2803 O 260.72 -6.00295 -0.439281 0
M  V30 2804 H 264.546 -2.93261 0.789416 0
M  V30 2805 H 262.131 -1.42417 0.45142 0
M  V30 2806 H 264.013 -3.96133 -1.43724 0
M  V30 2807 H 262.688 -2.78461 -1.65049 0
M  V30 2808 H 261.595 -3.71089 0.473655 0
M  V30 2809 H 262.928 -4.88484 0.60365 0
M  V30 2810 N 264.58 -0.43555 -1.51462 0
M  V30 2811 C 265.827 0.131514 -2.02072 0
M  V30 2812 C 266.155 1.42868 -1.31981 0
M  V30 2813 O 265.41 1.91076 -0.422883 0
M  V30 2814 C 265.709 0.39942 -3.55161 0
M  V30 2815 C 265.375 -0.81172 -4.43533 0
M  V30 2816 C 264.037 -1.14387 -4.67407 0
M  V30 2817 C 266.389 -1.61976 -4.95392 0
M  V30 2818 C 263.717 -2.28477 -5.40384 0
M  V30 2819 C 266.069 -2.75164 -5.6962 0
M  V30 2820 C 264.733 -3.08835 -5.91758 0
M  V30 2821 H 264.003 0.0481244 -0.739436 0
M  V30 2822 H 266.65 -0.58238 -1.8243 0
M  V30 2823 H 264.955 1.19519 -3.73125 0
M  V30 2824 H 266.652 0.85157 -3.91854 0
M  V30 2825 H 263.242 -0.542898 -4.25148 0
M  V30 2826 H 267.426 -1.37637 -4.76833 0
M  V30 2827 H 262.682 -2.5488 -5.55739 0
M  V30 2828 H 266.856 -3.38147 -6.08793 0
M  V30 2829 H 264.483 -3.97353 -6.48086 0
M  V30 2830 N 266.058 1.56714 -0.166846 0
M  V30 2831 C 266.988 2.20754 0.760913 0
M  V30 2832 C 267.969 1.16178 1.24244 0
M  V30 2833 O 269.154 1.44592 1.29641 0
M  V30 2834 C 266.284 2.84478 1.99223 0
M  V30 2835 C 265.238 3.95053 1.64672 0
M  V30 2836 C 264.564 4.45805 2.95232 0
M  V30 2837 C 265.864 5.14865 0.878155 0
M  V30 2838 H 267.558 2.98537 0.22713 0
M  V30 2839 H 265.104 1.43596 0.107805 0
M  V30 2840 H 267.057 3.27951 2.64624 0
M  V30 2841 H 265.781 2.04056 2.55007 0
M  V30 2842 H 264.44 3.52228 1.01641 0
M  V30 2843 H 264.088 3.62181 3.49047 0
M  V30 2844 H 263.788 5.204 2.7287 0
M  V30 2845 H 265.312 4.91962 3.6167 0
M  V30 2846 H 266.726 5.55059 1.43466 0
M  V30 2847 H 265.123 5.95348 0.753738 0
M  V30 2848 H 266.193 4.84735 -0.126377 0
M  V30 2849 N 267.536 -0.106894 1.57237 0
M  V30 2850 C 268.499 -1.11466 2.0027 0
M  V30 2851 C 269.499 -1.33623 0.894519 0
M  V30 2852 O 270.689 -1.29935 1.16028 0
M  V30 2853 C 267.821 -2.46646 2.35327 0
M  V30 2854 H 269.014 -0.744516 2.90512 0
M  V30 2855 H 266.567 -0.351576 1.52295 0
M  V30 2856 H 267.302 -2.88558 1.48003 0
M  V30 2857 H 267.087 -2.31915 3.16161 0
M  V30 2858 H 268.577 -3.19151 2.69318 0
M  V30 2859 N 269.014 -1.53014 -0.377408 0
M  V30 2860 C 270.43 -1.42523 -0.718281 0
M  V30 2861 C 270.63 -0.55487 -1.9371 0
M  V30 2862 O 269.686 -0.0327593 -2.52479 0
M  V30 2863 C 270.999 -2.85546 -0.942539 0
M  V30 2864 C 272.547 -2.95101 -1.04329 0
M  V30 2865 C 273.022 -4.3916 -1.3001 0
M  V30 2866 N 274.513 -4.42536 -1.36806 0
M  V30 2867 C 275.248 -5.51097 -1.58364 0
M  V30 2868 N 274.744 -6.69724 -1.77317 0
M  V30 2869 N 276.537 -5.38657 -1.60638 0
M  V30 2870 H 268.688 -2.08116 0.424426 0
M  V30 2871 H 270.951 -0.939352 0.127759 0
M  V30 2872 H 270.657 -3.51499 -0.118929 0
M  V30 2873 H 270.531 -3.28493 -1.85397 0
M  V30 2874 H 272.918 -2.29309 -1.85745 0
M  V30 2875 H 272.999 -2.55566 -0.109505 0
M  V30 2876 H 272.643 -5.05521 -0.490991 0
M  V30 2877 H 272.573 -4.76258 -2.24691 0
M  V30 2878 H 275.064 -3.57039 -1.23821 0
M  V30 2879 H 275.377 -7.48233 -1.93306 0
M  V30 2880 H 273.722 -6.72732 -1.74518 0
M  V30 2881 H 276.913 -4.44948 -1.45391 0
M  V30 2882 H 277.086 -6.2333 -1.77098 0
M  V30 2883 N 270.492 0.636531 -1.44174 0
M  V30 2884 C 271.402 1.77754 -1.53103 0
M  V30 2885 C 272.418 1.68928 -0.417034 0
M  V30 2886 O 273.594 1.89801 -0.6736 0
M  V30 2887 C 270.659 3.14115 -1.46741 0
M  V30 2888 C 269.72 3.34612 -2.68948 0
M  V30 2889 C 268.953 4.64467 -2.6288 0
M  V30 2890 O 269.176 5.44919 -1.68581 0
M  V30 2891 O 268.11 4.87049 -3.53648 0
M  V30 2892 H 271.936 1.73174 -2.49489 0
M  V30 2893 H 269.521 0.79709 -1.2636 0
M  V30 2894 H 271.403 3.95412 -1.45696 0
M  V30 2895 H 270.078 3.19249 -0.534975 0
M  V30 2896 H 268.985 2.53014 -2.75562 0
M  V30 2897 H 270.318 3.34336 -3.61221 0
M  V30 2898 N 271.97 1.30982 0.876444 0
M  V30 2899 C 273.218 1.20058 1.62575 0
M  V30 2900 C 273.539 -0.242947 1.93481 0
M  V30 2901 O 272.809 -1.1619 1.57724 0
M  V30 2902 H 271.389 0.44135 0.602677 0
M  V30 2903 H 274.051 1.64222 1.04962 0
M  V30 2904 H 273.147 1.76762 2.57219 0
M  V30 2905 N 273.449 -1.08991 1.13837 0
M  V30 2906 C 274.396 -2.15748 0.819835 0
M  V30 2907 C 275.366 -1.64636 -0.220026 0
M  V30 2908 O 276.551 -1.90582 -0.0912757 0
M  V30 2909 C 273.691 -3.4382 0.296913 0
M  V30 2910 C 272.804 -4.0881 1.39636 0
M  V30 2911 C 271.939 -5.24655 0.831314 0
M  V30 2912 C 270.978 -5.81575 1.90886 0
M  V30 2913 N 270.115 -6.88774 1.36142 0
M  V30 2914 H 274.955 -2.42338 1.73426 0
M  V30 2915 H 272.492 -1.18935 0.865613 0
M  V30 2916 H 274.45 -4.17193 -0.0244339 0
M  V30 2917 H 273.08 -3.17535 -0.580628 0
M  V30 2918 H 272.132 -3.33258 1.83422 0
M  V30 2919 H 273.444 -4.47141 2.21058 0
M  V30 2920 H 272.598 -6.04942 0.461515 0
M  V30 2921 H 271.337 -4.87698 -0.013932 0
M  V30 2922 H 270.342 -4.99946 2.28767 0
M  V30 2923 H 271.567 -6.20592 2.75758 0
M  V30 2924 H 269.513 -6.53788 0.538254 0
M  V30 2925 H 269.43 -7.25898 2.11208 0
M  V30 2926 H 270.698 -7.72806 1.01933 0
M  V30 2927 N 274.927 -0.932562 -1.27047 0
M  V30 2928 C 276.155 -0.592031 -1.98249 0
M  V30 2929 C 276.57 0.831062 -1.69525 0
M  V30 2930 O 275.927 1.55299 -0.958561 0
M  V30 2931 C 275.978 -0.814279 -3.5221 0
M  V30 2932 O 275.699 -2.18139 -3.7993 0
M  V30 2933 C 277.2 -0.483121 -4.4066 0
M  V30 2934 H 274.42 -0.223896 -0.632544 0
M  V30 2935 H 276.964 -1.25091 -1.61779 0
M  V30 2936 H 275.119 -0.20213 -3.86872 0
M  V30 2937 H 275.533 -2.235 -4.74498 0
M  V30 2938 H 277.007 -0.689298 -5.47679 0
M  V30 2939 H 277.484 0.581546 -4.35333 0
M  V30 2940 H 278.09 -1.07362 -4.11526 0
M  V30 2941 N 276.405 1.4127 -0.698611 0
M  V30 2942 C 277.63 2.06024 -0.238512 0
M  V30 2943 C 278.055 1.5224 1.10475 0
M  V30 2944 O 277.413 0.650623 1.69223 0
M  V30 2945 C 277.461 3.59988 -0.209952 0
M  V30 2946 O 276.565 4.04282 0.814235 0
M  V30 2947 H 275.906 0.653829 -0.115775 0
M  V30 2948 H 278.436 1.8098 -0.954326 0
M  V30 2949 H 278.446 4.07979 -0.0418436 0
M  V30 2950 H 277.121 3.98503 -1.1903 0
M  V30 2951 H 275.698 3.6779 0.615234 0
M  V30 2952 N 277.883 0.443576 1.51229 0
M  V30 2953 C 279.129 -0.120975 2.02439 0
M  V30 2954 C 279.462 -1.41815 1.32674 0
M  V30 2955 O 278.737 -1.89373 0.443622 0
M  V30 2956 C 279.02 -0.333291 3.58554 0
M  V30 2957 C 278.873 0.982968 4.38928 0
M  V30 2958 C 280.192 -1.10028 4.26124 0
M  V30 2959 H 277.311 -0.0424923 0.735774 0
M  V30 2960 H 279.953 0.583794 1.80809 0
M  V30 2961 H 278.103 -0.933614 3.77115 0
M  V30 2962 H 279.775 1.61775 4.32003 0
M  V30 2963 H 278.018 1.58611 4.03763 0
M  V30 2964 H 278.689 0.788379 5.46341 0
M  V30 2965 H 281.165 -0.591711 4.11871 0
M  V30 2966 H 280.041 -1.21761 5.35225 0
M  V30 2967 H 280.302 -2.12996 3.87408 0
M  V30 2968 N 279.361 -1.56624 0.175154 0
M  V30 2969 C 280.591 -2.01082 -0.474283 0
M  V30 2970 C 280.999 -1.05447 -1.57091 0
M  V30 2971 O 280.342 -0.0480595 -1.83637 0
M  V30 2972 C 280.404 -3.41963 -1.10911 0
M  V30 2973 C 280.068 -4.56742 -0.153666 0
M  V30 2974 C 281.065 -5.16076 0.629448 0
M  V30 2975 C 278.75 -5.02277 -0.0483776 0
M  V30 2976 C 280.744 -6.19377 1.50501 0
M  V30 2977 C 278.431 -6.05427 0.830768 0
M  V30 2978 C 279.429 -6.63849 1.60605 0
M  V30 2979 O 279.117 -7.64998 2.47049 0
M  V30 2980 H 278.849 -0.664261 -0.125432 0
M  V30 2981 H 281.403 -2.03549 0.275163 0
M  V30 2982 H 279.633 -3.36422 -1.90676 0
M  V30 2983 H 281.322 -3.70352 -1.66114 0
M  V30 2984 H 282.088 -4.81776 0.558297 0
M  V30 2985 H 277.967 -4.56513 -0.641611 0
M  V30 2986 H 281.511 -6.64906 2.1106 0
M  V30 2987 H 277.408 -6.39151 0.903107 0
M  V30 2988 H 278.176 -7.82336 2.40607 0
M  V30 2989 N 280.839 0.0985539 -1.57292 0
M  V30 2990 C 282.069 0.815135 -1.8984 0
M  V30 2991 C 282.477 1.7297 -0.766679 0
M  V30 2992 O 281.82 1.81698 0.270483 0
M  V30 2993 C 281.882 1.6842 -3.17608 0
M  V30 2994 C 281.546 0.94182 -4.4719 0
M  V30 2995 C 282.543 0.273212 -5.19182 0
M  V30 2996 C 280.228 0.916927 -4.9386 0
M  V30 2997 C 282.222 -0.410361 -6.36078 0
M  V30 2998 C 279.909 0.229567 -6.10669 0
M  V30 2999 C 280.907 -0.432902 -6.81627 0
M  V30 3000 O 280.595 -1.10925 -7.9621 0
M  V30 3001 H 280.327 0.238501 -0.632529 0
M  V30 3002 H 282.881 0.0812659 -2.05239 0
M  V30 3003 H 281.111 2.46022 -2.98345 0
M  V30 3004 H 282.8 2.27704 -3.36015 0
M  V30 3005 H 283.566 0.283927 -4.84168 0
M  V30 3006 H 279.445 1.42201 -4.3852 0
M  V30 3007 H 282.989 -0.928013 -6.914 0
M  V30 3008 H 278.886 0.216686 -6.45136 0
M  V30 3009 H 279.654 -1.01579 -8.12172 0
M  V30 3010 N 282.317 1.53212 0.369288 0
M  V30 3011 C 283.247 1.82365 1.45826 0
M  V30 3012 C 284.228 0.676907 1.56051 0
M  V30 3013 O 285.413 0.926401 1.70679 0
M  V30 3014 C 282.543 2.01023 2.83208 0
M  V30 3015 C 281.497 3.1678 2.8781 0
M  V30 3016 C 280.823 3.20724 4.27832 0
M  V30 3017 C 282.123 4.55447 2.55667 0
M  V30 3018 H 283.817 2.73559 1.21678 0
M  V30 3019 H 281.363 1.3163 0.583911 0
M  V30 3020 H 283.316 2.20001 3.59413 0
M  V30 3021 H 282.04 1.06536 3.08736 0
M  V30 3022 H 280.699 2.97616 2.14056 0
M  V30 3023 H 280.347 2.23882 4.50429 0
M  V30 3024 H 280.047 3.98496 4.31827 0
M  V30 3025 H 281.571 3.41881 5.05915 0
M  V30 3026 H 282.985 4.74611 3.21586 0
M  V30 3027 H 281.382 5.35432 2.70984 0
M  V30 3028 H 282.452 4.60812 1.5093 0
M  V30 3029 N 283.795 -0.628877 1.44509 0
M  V30 3030 C 285.043 -1.38565 1.4712 0
M  V30 3031 C 285.364 -1.94712 0.105899 0
M  V30 3032 O 284.634 -1.75912 -0.862079 0
M  V30 3033 H 283.214 -0.514333 0.541729 0
M  V30 3034 H 285.876 -0.740018 1.80305 0
M  V30 3035 H 284.972 -2.21583 2.19789 0
M  V30 3036 N 285.273 -1.31445 -0.869486 0
M  V30 3037 C 286.183 -1.21097 -2.0093 0
M  V30 3038 C 287.199 -0.127584 -1.73532 0
M  V30 3039 O 288.375 -0.345477 -1.98415 0
M  V30 3040 C 285.44 -0.919378 -3.34288 0
M  V30 3041 C 284.501 -2.08971 -3.75006 0
M  V30 3042 C 283.734 -1.81194 -5.02001 0
M  V30 3043 O 283.957 -0.747296 -5.65484 0
M  V30 3044 O 282.891 -2.66883 -5.39497 0
M  V30 3045 H 286.717 -2.16883 -2.12592 0
M  V30 3046 H 284.302 -1.11189 -0.997868 0
M  V30 3047 H 286.184 -0.772625 -4.14257 0
M  V30 3048 H 284.859 0.00844772 -3.23699 0
M  V30 3049 H 283.766 -2.29187 -2.95676 0
M  V30 3050 H 285.099 -2.9998 -3.90221 0
M  V30 3051 N 286.751 1.08385 -1.14413 0
M  V30 3052 C 287.997 1.81044 -0.913834 0
M  V30 3053 C 288.33 1.86004 0.558209 0
M  V30 3054 O 287.605 1.33606 1.4135 0
M  V30 3055 C 287.888 3.26648 -1.51569 0
M  V30 3056 C 287.741 3.29895 -3.0576 0
M  V30 3057 C 289.06 4.23629 -1.19273 0
M  V30 3058 H 286.179 0.65727 -0.333414 0
M  V30 3059 H 288.821 1.26896 -1.41412 0
M  V30 3060 H 286.971 3.72889 -1.09023 0
M  V30 3061 H 288.643 2.91977 -3.57137 0
M  V30 3062 H 286.886 2.69163 -3.40197 0
M  V30 3063 H 287.557 4.32516 -3.42977 0
M  V30 3064 H 290.033 3.85727 -1.56057 0
M  V30 3065 H 288.909 5.23822 -1.64017 0
M  V30 3066 H 289.17 4.41968 -0.108068 0
M  V30 3067 N 288.23 0.939286 1.26551 0
M  V30 3068 C 289.477 0.585847 1.9384 0
M  V30 3069 C 289.805 -0.874784 1.73718 0
M  V30 3070 O 289.06 -1.64092 1.06642 0
M  V30 3071 C 289.359 0.872106 3.46596 0
M  V30 3072 C 289.025 2.31632 3.86856 0
M  V30 3073 C 287.687 2.71111 3.97558 0
M  V30 3074 C 290.039 3.25494 4.07066 0
M  V30 3075 C 287.367 4.03553 4.25866 0
M  V30 3076 C 289.719 4.57531 4.36862 0
M  V30 3077 C 288.383 4.96828 4.45778 0
M  V30 3078 H 287.653 0.214377 0.709312 0
M  V30 3079 H 290.3 1.18544 1.50398 0
M  V30 3080 H 288.605 0.18996 3.91339 0
M  V30 3081 H 290.302 0.577442 3.96821 0
M  V30 3082 H 286.892 2.00008 3.79071 0
M  V30 3083 H 291.076 2.9619 3.98227 0
M  V30 3084 H 286.332 4.33665 4.30981 0
M  V30 3085 H 290.506 5.30254 4.51446 0
M  V30 3086 H 288.133 5.99482 4.67468 0
M  V30 3087 N 289.708 -1.40897 0.706093 0
M  V30 3088 C 291.119 -1.84023 0.315052 0
M  V30 3089 C 291.47 -1.5906 -1.14866 0
M  V30 3090 O 290.595 -1.06651 -1.88293 0
M  V30 3091 C 291.19 -3.34055 0.565038 0
M  V30 3092 C 289.749 -3.7571 0.227806 0
M  V30 3093 C 288.896 -2.64204 0.842122 0
M  V30 3094 H 291.847 -1.303 0.905963 0
M  V30 3095 H 291.868 -3.80107 -0.172843 0
M  V30 3096 H 291.38 -3.52192 1.63042 0
M  V30 3097 H 289.481 -3.63172 -0.832895 0
M  V30 3098 H 289.594 -4.74103 0.690174 0
M  V30 3099 H 287.958 -2.53255 0.270893 0
M  V30 3100 H 288.741 -2.85155 1.91158 0
M  V30 3101 N 291.186 -0.45159 -1.50991 0
M  V30 3102 C 292.118 0.388634 -2.25881 0
M  V30 3103 C 293.131 0.974041 -1.30446 0
M  V30 3104 O 294.32 0.865758 -1.56099 0
M  V30 3105 C 291.42 1.5571 -3.01011 0
M  V30 3106 C 290.593 1.08801 -4.23652 0
M  V30 3107 C 289.652 2.12825 -4.8124 0
M  V30 3108 O 288.678 1.71678 -5.42693 0
M  V30 3109 N 289.88 3.45453 -4.66522 0
M  V30 3110 H 292.645 -0.25329 -2.98628 0
M  V30 3111 H 290.206 -0.281268 -1.59438 0
M  V30 3112 H 292.198 2.24952 -3.3642 0
M  V30 3113 H 290.768 2.10409 -2.31186 0
M  V30 3114 H 289.988 0.22215 -3.93574 0
M  V30 3115 H 291.276 0.752213 -5.03209 0
M  V30 3116 H 290.674 3.81605 -4.17605 0
M  V30 3117 H 289.231 4.10549 -5.06254 0
M  V30 3118 N 292.664 1.56529 -0.183458 0
M  V30 3119 C 293.611 2.18546 0.742055 0
M  V30 3120 C 294.581 1.12912 1.2182 0
M  V30 3121 O 295.766 1.41115 1.28418 0
M  V30 3122 C 292.906 2.83977 1.96089 0
M  V30 3123 C 292.019 4.04105 1.52719 0
M  V30 3124 C 291.154 4.57427 2.70063 0
M  V30 3125 C 290.193 5.69938 2.23243 0
M  V30 3126 N 289.33 6.17717 3.33722 0
M  V30 3127 H 294.17 2.97284 0.206432 0
M  V30 3128 H 291.707 1.46823 0.0901571 0
M  V30 3129 H 293.665 3.20077 2.67594 0
M  V30 3130 H 292.295 2.07822 2.47002 0
M  V30 3131 H 291.347 3.73745 0.708436 0
M  V30 3132 H 292.659 4.85513 1.1436 0
M  V30 3133 H 291.813 4.95772 3.49708 0
M  V30 3134 H 290.552 3.75101 3.11689 0
M  V30 3135 H 289.557 5.31133 1.42048 0
M  V30 3136 H 290.782 6.54073 1.82661 0
M  V30 3137 H 288.728 5.38317 3.74902 0
M  V30 3138 H 288.645 6.94146 2.99495 0
M  V30 3139 H 289.913 6.60713 4.13616 0
M  V30 3140 N 294.142 -0.090211 1.57342 0
M  V30 3141 C 295.089 -1.10909 2.02405 0
M  V30 3142 C 296.059 -1.39523 0.901252 0
M  V30 3143 O 297.244 -1.50903 1.1676 0
M  V30 3144 C 294.384 -2.42277 2.45755 0
M  V30 3145 C 293.497 -2.20352 3.71576 0
M  V30 3146 C 292.632 -3.45154 4.03785 0
M  V30 3147 C 291.671 -3.18512 5.22701 0
M  V30 3148 N 290.808 -4.35593 5.50639 0
M  V30 3149 H 295.648 -0.71782 2.89225 0
M  V30 3150 H 293.185 -0.342901 1.43048 0
M  V30 3151 H 295.143 -3.18951 2.68935 0
M  V30 3152 H 293.773 -2.79242 1.61938 0
M  V30 3153 H 292.825 -1.34458 3.55844 0
M  V30 3154 H 294.137 -1.96661 4.58395 0
M  V30 3155 H 293.291 -4.30233 4.27767 0
M  V30 3156 H 292.03 -3.71904 3.15498 0
M  V30 3157 H 291.035 -2.31827 4.98534 0
M  V30 3158 H 292.26 -2.93103 6.12591 0
M  V30 3159 H 290.206 -4.6241 4.6531 0
M  V30 3160 H 290.123 -4.1511 6.31838 0
M  V30 3161 H 291.391 -5.21723 5.7916 0
M  V30 3162 N 295.62 -1.53406 -0.361157 0
M  V30 3163 C 296.866 -1.70054 -1.10496 0
M  V30 3164 C 297.199 -0.453278 -1.88836 0
M  V30 3165 O 296.474 0.5495 -1.86576 0
M  V30 3166 C 296.757 -2.95317 -2.06058 0
M  V30 3167 C 296.61 -4.3021 -1.31298 0
M  V30 3168 C 297.929 -3.16193 -3.06121 0
M  V30 3169 H 295.048 -0.618799 -0.400321 0
M  V30 3170 H 297.69 -1.86052 -0.385318 0
M  V30 3171 H 295.84 -2.81809 -2.67425 0
M  V30 3172 H 297.512 -4.55538 -0.726807 0
M  V30 3173 H 295.755 -4.29421 -0.614853 0
M  V30 3174 H 296.426 -5.14 -2.01265 0
M  V30 3175 H 298.902 -3.28916 -2.5486 0
M  V30 3176 H 297.778 -4.05266 -3.70204 0
M  V30 3177 H 298.039 -2.31676 -3.76535 0
M  V30 3178 N 297.098 0.621204 -1.44841 0
M  V30 3179 C 298.323 1.41244 -1.51871 0
M  V30 3180 C 298.748 1.87519 -0.147764 0
M  V30 3181 O 298.106 1.59334 0.865 0
M  V30 3182 C 298.154 2.60221 -2.49634 0
M  V30 3183 O 297.258 3.60395 -2.00473 0
M  V30 3184 H 296.599 0.42223 -0.512463 0
M  V30 3185 H 299.129 0.757305 -1.90069 0
M  V30 3186 H 299.139 3.0764 -2.67996 0
M  V30 3187 H 297.814 2.25887 -3.4921 0
M  V30 3188 H 296.391 3.19717 -1.91925 0
M  V30 3189 N 298.576 1.31904 0.862503 0
M  V30 3190 C 299.539 1.20131 1.95195 0
M  V30 3191 C 300.539 0.126409 1.60302 0
M  V30 3192 O 301.729 0.376234 1.70089 0
M  V30 3193 C 298.861 0.845691 3.30244 0
M  V30 3194 H 300.054 2.16943 2.07064 0
M  V30 3195 H 297.607 1.15622 1.05172 0
M  V30 3196 H 298.342 -0.120957 3.24074 0
M  V30 3197 H 298.127 1.62276 3.56944 0
M  V30 3198 H 299.617 0.787418 4.10109 0
M  V30 3199 N 300.054 -1.07777 1.14986 0
M  V30 3200 C 301.3 -1.80557 0.923422 0
M  V30 3201 C 301.633 -1.86298 -0.548337 0
M  V30 3202 O 300.908 -1.34354 -1.40639 0
M  V30 3203 C 301.191 -3.25839 1.53299 0
M  V30 3204 C 301.044 -3.28269 3.07505 0
M  V30 3205 C 302.363 -4.22991 1.21518 0
M  V30 3206 H 299.482 -0.655493 0.336894 0
M  V30 3207 H 302.124 -1.26144 1.42083 0
M  V30 3208 H 300.274 -3.72306 1.10999 0
M  V30 3209 H 301.946 -2.90079 3.58681 0
M  V30 3210 H 300.189 -2.67355 3.4162 0
M  V30 3211 H 300.86 -4.30691 3.45266 0
M  V30 3212 H 303.336 -3.84894 1.581 0
M  V30 3213 H 302.212 -5.22945 1.66793 0
M  V30 3214 H 302.473 -4.41904 0.131505 0
M  V30 3215 N 301.532 -0.945985 -1.26051 0
M  V30 3216 C 302.778 -0.597002 -1.93814 0
M  V30 3217 C 303.111 0.862484 -1.73997 0
M  V30 3218 O 302.386 1.61769 -1.07986 0
M  V30 3219 C 302.669 -0.945937 -3.47454 0
M  V30 3220 C 302.522 -2.46052 -3.76535 0
M  V30 3221 C 303.841 -0.464785 -4.37639 0
M  V30 3222 H 300.96 -0.218366 -0.703907 0
M  V30 3223 H 303.602 -1.18107 -1.48831 0
M  V30 3224 H 301.752 -0.448902 -3.85898 0
M  V30 3225 H 303.424 -3.03065 -3.47778 0
M  V30 3226 H 301.667 -2.90194 -3.22444 0
M  V30 3227 H 302.338 -2.65517 -4.83947 0
M  V30 3228 H 304.814 -0.891016 -4.06448 0
M  V30 3229 H 303.69 -0.737712 -5.4392 0
M  V30 3230 H 303.951 0.635274 -4.37512 0
M  V30 3231 N 303.011 1.40521 -0.713556 0
M  V30 3232 C 304.26 2.00155 -0.249192 0
M  V30 3233 C 304.573 1.57224 1.16362 0
M  V30 3234 O 305.779 2.09542 1.72639 0
M  V30 3235 C 304.235 3.5773 -0.3946 0
M  V30 3236 C 303.843 4.09635 -1.81392 0
M  V30 3237 C 305.587 4.24499 0.00907364 0
M  V30 3238 C 303.494 5.59707 -1.91003 0
M  V30 3239 H 302.424 0.74868 -0.0894114 0
M  V30 3240 H 305.075 1.60784 -0.884352 0
M  V30 3241 H 303.457 3.94792 0.30911 0
M  V30 3242 H 304.631 3.83955 -2.54785 0
M  V30 3243 H 302.946 3.55456 -2.16888 0
M  V30 3244 H 305.543 5.34683 -0.0420404 0
M  V30 3245 H 305.886 4.02824 1.05065 0
M  V30 3246 H 306.419 3.92536 -0.645007 0
M  V30 3247 H 303.158 5.86234 -2.93275 0
M  V30 3248 H 302.678 5.87258 -1.22019 0
M  V30 3249 H 304.357 6.24776 -1.6812 0
M  V30 3250 N 304.489 0.459591 1.5075 0
M  V30 3251 C 305.905 0.113092 1.59199 0
M  V30 3252 C 306.105 -1.37951 1.46874 0
M  V30 3253 O 305.161 -2.15168 1.32132 0
M  V30 3254 C 306.474 0.653043 2.93523 0
M  V30 3255 C 308.022 0.615449 3.0689 0
M  V30 3256 C 308.497 1.13275 4.43771 0
M  V30 3257 N 309.988 1.09167 4.50152 0
M  V30 3258 C 310.723 1.46256 5.54434 0
M  V30 3259 N 310.219 1.90739 6.66026 0
M  V30 3260 N 312.012 1.37932 5.44914 0
M  V30 3261 H 304.163 1.43049 1.57005 0
M  V30 3262 H 306.426 0.590861 0.741341 0
M  V30 3263 H 306.132 1.69822 3.07983 0
M  V30 3264 H 306.006 0.0902132 3.77092 0
M  V30 3265 H 308.393 -0.420793 2.92084 0
M  V30 3266 H 308.474 1.21495 2.25106 0
M  V30 3267 H 308.118 2.16757 4.59324 0
M  V30 3268 H 308.048 0.509576 5.24129 0
M  V30 3269 H 310.539 0.76528 3.7007 0
M  V30 3270 H 310.852 2.17218 7.41644 0
M  V30 3271 H 309.197 1.94683 6.67176 0
M  V30 3272 H 312.388 1.0303 4.56621 0
M  V30 3273 H 312.561 1.67164 6.26067 0
M  V30 3274 N 305.967 -1.56429 0.191757 0
M  V30 3275 C 307.214 -1.97485 -0.447891 0
M  V30 3276 C 307.542 -1.07852 -1.61859 0
M  V30 3277 O 306.797 -0.116903 -1.95351 0
M  V30 3278 C 307.096 -3.44449 -0.953384 0
M  V30 3279 C 306.762 -4.50781 0.103586 0
M  V30 3280 C 305.424 -4.79584 0.394023 0
M  V30 3281 C 307.776 -5.1471 0.819946 0
M  V30 3282 C 305.104 -5.69607 1.40585 0
M  V30 3283 C 307.456 -6.05827 1.8209 0
M  V30 3284 C 306.12 -6.32987 2.11857 0
M  V30 3285 H 305.39 -0.722648 -0.163895 0
M  V30 3286 H 308.037 -1.89322 0.28802 0
M  V30 3287 H 306.342 -3.49666 -1.76751 0
M  V30 3288 H 308.039 -3.73569 -1.45765 0
M  V30 3289 H 304.629 -4.28394 -0.132951 0
M  V30 3290 H 308.813 -4.92552 0.608789 0
M  V30 3291 H 304.069 -5.88926 1.64243 0
M  V30 3292 H 308.243 -6.54424 2.38123 0
M  V30 3293 H 305.87 -7.02544 2.90407 0
M  V30 3294 N 307.445 0.0818655 -1.57387 0
M  V30 3295 C 308.377 1.12484 -1.997 0
M  V30 3296 C 309.39 1.35564 -0.90146 0
M  V30 3297 O 310.579 1.33982 -1.17945 0
M  V30 3298 C 307.679 2.47778 -2.31213 0
M  V30 3299 C 306.852 2.44793 -3.62485 0
M  V30 3300 C 305.911 3.62117 -3.81782 0
M  V30 3301 O 304.937 3.44005 -4.53486 0
M  V30 3302 N 306.139 4.82094 -3.23367 0
M  V30 3303 H 308.904 0.764585 -2.89783 0
M  V30 3304 H 306.465 0.270664 -1.59621 0
M  V30 3305 H 308.457 3.24891 -2.41304 0
M  V30 3306 H 307.027 2.75843 -1.4707 0
M  V30 3307 H 306.247 1.53134 -3.6324 0
M  V30 3308 H 307.535 2.39889 -4.48699 0
M  V30 3309 H 306.933 4.99713 -2.65148 0
M  V30 3310 H 305.49 5.56753 -3.38923 0
M  V30 3311 N 308.923 1.53595 0.353017 0
M  V30 3312 C 309.87 1.80919 1.43308 0
M  V30 3313 C 310.84 0.654288 1.5267 0
M  V30 3314 O 312.025 0.897759 1.6836 0
M  V30 3315 C 309.165 2.01605 2.80089 0
M  V30 3316 C 308.278 3.29321 2.79593 0
M  V30 3317 C 307.413 3.40125 4.0803 0
M  V30 3318 C 306.452 4.61826 4.01725 0
M  V30 3319 N 305.589 4.69716 5.21834 0
M  V30 3320 H 310.429 2.73074 1.19308 0
M  V30 3321 H 307.966 1.35263 0.578131 0
M  V30 3322 H 309.924 2.11586 3.59565 0
M  V30 3323 H 308.554 1.12772 3.0246 0
M  V30 3324 H 307.606 3.28229 1.92276 0
M  V30 3325 H 308.918 4.18884 2.70809 0
M  V30 3326 H 308.072 3.49488 4.95927 0
M  V30 3327 H 306.811 2.48601 4.19582 0
M  V30 3328 H 305.816 4.52552 3.12213 0
M  V30 3329 H 307.041 5.54705 3.91764 0
M  V30 3330 H 304.987 3.81097 5.33948 0
M  V30 3331 H 304.904 5.53202 5.1527 0
M  V30 3332 H 306.172 4.83376 6.11529 0
M  V30 3333 N 310.401 -0.613514 1.45168 0
M  V30 3334 C 311.626 -1.40437 1.52618 0
M  V30 3335 C 312.051 -1.87438 0.157707 0
M  V30 3336 O 311.409 -1.59791 -0.856537 0
M  V30 3337 C 311.457 -2.58894 2.51011 0
M  V30 3338 O 310.561 -3.59326 2.02382 0
M  V30 3339 H 309.902 -0.419506 0.514695 0
M  V30 3340 H 312.432 -0.747215 1.90467 0
M  V30 3341 H 312.442 -3.06214 2.69624 0
M  V30 3342 H 311.117 -2.24032 3.50403 0
M  V30 3343 H 309.694 -3.18695 1.93618 0
M  V30 3344 N 311.879 -1.3236 -0.855495 0
M  V30 3345 C 313.127 -1.22629 -1.60644 0
M  V30 3346 C 313.448 0.212136 -1.93843 0
M  V30 3347 O 312.718 1.13666 -1.59552 0
M  V30 3348 H 311.298 -0.450882 -0.595579 0
M  V30 3349 H 313.96 -1.65871 -1.02337 0
M  V30 3350 H 313.056 -1.80832 -2.54374 0
M  V30 3351 N 313.357 1.07166 -1.15556 0
M  V30 3352 C 314.304 2.14417 -0.854055 0
M  V30 3353 C 315.274 1.64965 0.193806 0
M  V30 3354 O 316.459 1.90703 0.0609443 0
M  V30 3355 C 313.599 3.43304 -0.351574 0
M  V30 3356 C 312.712 4.06537 -1.46123 0
M  V30 3357 C 311.847 5.23266 -0.914677 0
M  V30 3358 C 310.886 5.78464 -2.00114 0
M  V30 3359 N 310.023 6.86521 -1.47083 0
M  V30 3360 H 314.863 2.39548 -1.77259 0
M  V30 3361 H 312.4 1.17543 -0.884425 0
M  V30 3362 H 314.358 4.17179 -0.0419409 0
M  V30 3363 H 312.988 3.18419 0.530037 0
M  V30 3364 H 312.04 3.30297 -1.88701 0
M  V30 3365 H 313.352 4.43567 -2.28144 0
M  V30 3366 H 312.506 6.04131 -0.557698 0
M  V30 3367 H 311.245 4.87658 -0.0636583 0
M  V30 3368 H 310.25 4.96243 -2.36692 0
M  V30 3369 H 311.475 6.16126 -2.85597 0
M  V30 3370 H 309.421 6.52849 -0.642198 0
M  V30 3371 H 309.338 7.22446 -2.22729 0
M  V30 3372 H 310.606 7.71087 -1.14215 0
M  V30 3373 N 314.835 0.952656 1.25548 0
M  V30 3374 C 316.083 0.605176 1.92826 0
M  V30 3375 C 316.404 -0.860261 1.74999 0
M  V30 3376 O 315.674 -1.6125 1.11244 0
M  V30 3377 H 314.254 0.220832 0.713612 0
M  V30 3378 H 316.916 1.21047 1.52754 0
M  V30 3379 H 316.012 0.832798 3.00784 0
M  V30 3380 N 316.313 -1.40141 0.720998 0
M  V30 3381 C 317.243 -2.33339 0.0867621 0
M  V30 3382 C 318.224 -1.53178 -0.739622 0
M  V30 3383 O 319.409 -1.81625 -0.687449 0
M  V30 3384 C 316.539 -3.37194 -0.831728 0
M  V30 3385 C 315.493 -4.27857 -0.110558 0
M  V30 3386 C 314.819 -5.22294 -1.14513 0
M  V30 3387 C 316.119 -5.11872 1.0385 0
M  V30 3388 H 317.813 -2.86626 0.865219 0
M  V30 3389 H 315.359 -1.37814 0.417516 0
M  V30 3390 H 317.312 -4.01335 -1.28485 0
M  V30 3391 H 316.036 -2.82314 -1.64214 0
M  V30 3392 H 314.695 -3.65176 0.322797 0
M  V30 3393 H 314.343 -4.63717 -1.94874 0
M  V30 3394 H 314.043 -5.83797 -0.667446 0
M  V30 3395 H 315.567 -5.89312 -1.59824 0
M  V30 3396 H 316.981 -5.69436 0.664482 0
M  V30 3397 H 315.378 -5.82445 1.4449 0
M  V30 3398 H 316.448 -4.4753 1.86668 0
M  V30 3399 N 317.792 -0.46758 -1.50504 0
M  V30 3400 C 319.017 0.0886943 -2.0721 0
M  V30 3401 C 319.442 1.33057 -1.32956 0
M  V30 3402 O 318.8 1.77354 -0.376197 0
M  V30 3403 C 318.848 0.359202 -3.58806 0
M  V30 3404 O 317.952 1.44034 -3.8643 0
M  V30 3405 H 317.293 -0.0114349 -0.663902 0
M  V30 3406 H 319.823 -0.657613 -1.93744 0
M  V30 3407 H 319.833 0.600742 -4.03553 0
M  V30 3408 H 318.508 -0.548311 -4.1227 0
M  V30 3409 H 317.085 1.18638 -3.53524 0
M  V30 3410 N 319.27 1.56325 -0.20005 0
M  V30 3411 C 320.2 2.22318 0.713916 0
M  V30 3412 C 321.181 1.18788 1.21752 0
M  V30 3413 O 322.366 1.47309 1.26545 0
M  V30 3414 C 319.496 2.88639 1.93144 0
M  V30 3415 C 318.45 3.98457 1.56255 0
M  V30 3416 C 317.776 4.51967 2.85709 0
M  V30 3417 C 319.076 5.16612 0.768747 0
M  V30 3418 H 320.77 2.98952 0.163755 0
M  V30 3419 H 318.316 1.43792 0.0773219 0
M  V30 3420 H 320.269 3.33491 2.57608 0
M  V30 3421 H 318.993 2.09419 2.50621 0
M  V30 3422 H 317.652 3.54305 0.941471 0
M  V30 3423 H 317.3 3.69503 3.41287 0
M  V30 3424 H 317 5.26071 2.6177 0
M  V30 3425 H 318.524 4.99523 3.51154 0
M  V30 3426 H 319.938 5.57977 1.3166 0
M  V30 3427 H 318.335 5.96812 0.627286 0
M  V30 3428 H 319.405 4.84358 -0.229168 0
M  V30 3429 N 320.748 -0.0735177 1.57428 0
M  V30 3430 C 321.994 -0.768909 1.88307 0
M  V30 3431 C 322.349 -1.75273 0.793535 0
M  V30 3432 O 321.642 -1.90527 -0.202466 0
M  V30 3433 C 321.836 -1.51799 3.23561 0
M  V30 3434 C 321.665 -0.608217 4.45568 0
M  V30 3435 C 320.435 -0.245808 5.04702 0
M  V30 3436 C 322.633 0.0942904 5.14214 0
M  V30 3437 N 320.615 0.66987 6.10234 0
M  V30 3438 C 321.986 0.867222 6.13905 0
M  V30 3439 C 324.041 0.165943 4.97623 0
M  V30 3440 C 322.744 1.70515 6.98797 0
M  V30 3441 C 324.77 0.990837 5.83041 0
M  V30 3442 C 324.132 1.75182 6.82269 0
M  V30 3443 H 320.231 -0.25685 0.738615 0
M  V30 3444 H 322.815 -0.030499 1.94676 0
M  V30 3445 H 320.986 -2.22713 3.18203 0
M  V30 3446 H 322.718 -2.16226 3.42094 0
M  V30 3447 H 319.473 -0.598284 4.69806 0
M  V30 3448 H 319.897 1.1209 6.67656 0
M  V30 3449 H 324.539 -0.408064 4.20826 0
M  V30 3450 H 322.257 2.29013 7.7497 0
M  V30 3451 H 325.843 1.04923 5.72261 0
M  V30 3452 H 324.723 2.37983 7.47217 0
M  V30 3453 N 322.226 -1.5378 -0.344866 0
M  V30 3454 C 323.503 -1.61589 -1.10219 0
M  V30 3455 C 323.883 -0.436316 -2.06542 0
M  V30 3456 O 323.231 0.571543 -2.21237 0
M  V30 3457 C 323.441 -2.97602 -1.82301 0
M  V30 3458 C 324.789 -3.5291 -2.36093 0
M  V30 3459 O 325.813 -2.99768 -1.924 0
M  V30 3460 O 324.672 -4.45859 -3.16026 0
M  V30 3461 H 321.766 -0.653522 -0.506792 0
M  V30 3462 H 324.312 -1.66126 -0.346465 0
M  V30 3463 H 323.084 -3.74893 -1.12121 0
M  V30 3464 H 322.707 -2.9665 -2.64735 0
M  V30 3465 N 323.704 0.605807 -1.45491 0
M  V30 3466 C 324.932 1.39136 -1.5313 0
M  V30 3467 C 325.347 1.88082 -0.164507 0
M  V30 3468 O 324.704 1.62316 0.834247 0
M  V30 3469 C 324.755 2.59463 -2.51716 0
M  V30 3470 O 324.476 2.12551 -3.83084 0
M  V30 3471 C 325.977 3.52301 -2.6907 0
M  V30 3472 H 323.197 0.425849 -0.51855 0
M  V30 3473 H 325.741 0.73865 -1.90694 0
M  V30 3474 H 323.896 3.20772 -2.17219 0
M  V30 3475 H 324.31 2.90744 -4.36541 0
M  V30 3476 H 325.784 4.33271 -3.42024 0
M  V30 3477 H 326.261 4.02757 -1.75167 0
M  V30 3478 H 326.867 2.96845 -3.04571 0
M  V30 3479 N 325.182 1.32811 0.848464 0
M  V30 3480 C 326.114 1.18095 1.96433 0
M  V30 3481 C 327.127 0.114354 1.62398 0
M  V30 3482 O 328.316 0.363892 1.74751 0
M  V30 3483 C 325.416 0.786798 3.2964 0
M  V30 3484 C 324.589 1.943 3.91875 0
M  V30 3485 C 323.648 1.53138 5.03423 0
M  V30 3486 O 322.674 2.24432 5.23086 0
M  V30 3487 N 323.876 0.430915 5.78898 0
M  V30 3488 H 326.641 2.14218 2.09597 0
M  V30 3489 H 324.202 1.2543 1.02367 0
M  V30 3490 H 326.194 0.493715 4.01677 0
M  V30 3491 H 324.764 -0.0834541 3.12489 0
M  V30 3492 H 323.984 2.40224 3.12547 0
M  V30 3493 H 325.272 2.71689 4.30189 0
M  V30 3494 H 324.67 -0.162333 5.65467 0
M  V30 3495 H 323.227 0.197466 6.51501 0
M  V30 3496 N 326.66 -1.06551 1.16123 0
M  V30 3497 C 327.57 -2.17484 0.879662 0
M  V30 3498 C 328.586 -1.73377 -0.147104 0
M  V30 3499 O 329.762 -2.01379 0.0289128 0
M  V30 3500 C 326.827 -3.44591 0.381829 0
M  V30 3501 C 325.888 -4.0322 1.4735 0
M  V30 3502 C 325.121 -5.24261 0.999324 0
M  V30 3503 O 325.344 -5.70198 -0.151957 0
M  V30 3504 O 324.278 -5.74775 1.78653 0
M  V30 3505 H 328.104 -2.44075 1.80724 0
M  V30 3506 H 325.689 -1.16042 0.940992 0
M  V30 3507 H 327.571 -4.21254 0.111053 0
M  V30 3508 H 326.246 -3.19532 -0.51777 0
M  V30 3509 H 325.153 -3.2806 1.79798 0
M  V30 3510 H 326.486 -4.32568 2.34831 0
M  V30 3511 N 328.138 -0.959301 -1.25041 0
M  V30 3512 C 329.363 -0.633507 -1.97488 0
M  V30 3513 C 329.788 0.788555 -1.70773 0
M  V30 3514 O 329.146 1.53394 -0.966431 0
M  V30 3515 C 329.194 -0.904057 -3.49083 0
M  V30 3516 O 328.298 0.0147939 -4.12397 0
M  V30 3517 H 327.639 -0.240368 -0.618966 0
M  V30 3518 H 330.169 -1.28717 -1.59038 0
M  V30 3519 H 330.179 -0.832203 -3.99423 0
M  V30 3520 H 328.854 -1.94048 -3.67856 0
M  V30 3521 H 327.431 -0.109664 -3.72739 0
M  V30 3522 N 329.616 1.39756 -0.72842 0
M  V30 3523 C 330.526 2.34444 -0.0855374 0
M  V30 3524 C 331.542 1.57976 0.729356 0
M  V30 3525 O 332.718 1.90301 0.659346 0
M  V30 3526 C 329.783 3.36965 0.815798 0
M  V30 3527 C 328.844 4.29299 -0.0105996 0
M  V30 3528 C 328.077 5.26923 0.84781 0
M  V30 3529 O 328.3 5.30859 2.08673 0
M  V30 3530 O 327.234 6.01249 0.279969 0
M  V30 3531 H 331.06 2.91065 -0.866892 0
M  V30 3532 H 328.645 1.4117 -0.48902 0
M  V30 3533 H 330.527 3.99804 1.33171 0
M  V30 3534 H 329.202 2.82739 1.57608 0
M  V30 3535 H 328.109 3.69703 -0.571877 0
M  V30 3536 H 329.442 4.86712 -0.73295 0
M  V30 3537 N 331.094 0.475555 1.50254 0
M  V30 3538 C 332.319 -0.0777042 2.07254 0
M  V30 3539 C 332.744 -1.3235 1.3366 0
M  V30 3540 O 332.102 -1.77152 0.385597 0
M  V30 3541 C 332.15 -0.340169 3.58992 0
M  V30 3542 O 331.254 -1.41982 3.87188 0
M  V30 3543 H 330.595 0.0149556 0.663832 0
M  V30 3544 H 333.125 0.667878 1.93392 0
M  V30 3545 H 333.135 -0.579332 4.03866 0
M  V30 3546 H 331.81 0.570167 4.11973 0
M  V30 3547 H 330.387 -1.16762 3.54148 0
M  V30 3548 N 332.573 -1.56217 0.208337 0
M  V30 3549 C 333.821 -1.97558 -0.426076 0
M  V30 3550 C 334.142 -1.09683 -1.61229 0
M  V30 3551 O 333.412 -0.170956 -1.95153 0
M  V30 3552 H 331.992 -0.729575 -0.160405 0
M  V30 3553 H 334.654 -1.92606 0.298155 0
M  V30 3554 H 333.75 -3.02672 -0.761312 0
M  V30 3555 N 334.051 0.0651679 -1.57465 0
M  V30 3556 C 335.298 0.763063 -1.87573 0
M  V30 3557 C 335.626 1.77242 -0.800961 0
M  V30 3558 O 334.881 1.94651 0.202316 0
M  V30 3559 C 335.18 1.50081 -3.24362 0
M  V30 3560 C 334.846 0.630816 -4.46466 0
M  V30 3561 C 333.508 0.391082 -4.79608 0
M  V30 3562 C 335.86 0.0279465 -5.21193 0
M  V30 3563 C 333.188 -0.460894 -5.84887 0
M  V30 3564 C 335.54 -0.811522 -6.27373 0
M  V30 3565 C 334.204 -1.06106 -6.59013 0
M  V30 3566 H 333.474 0.279224 -0.686378 0
M  V30 3567 H 336.121 0.0236726 -1.91485 0
M  V30 3568 H 334.426 2.31258 -3.16271 0
M  V30 3569 H 336.123 2.04571 -3.44894 0
M  V30 3570 H 332.713 0.8278 -4.2053 0
M  V30 3571 H 336.897 0.200262 -4.95896 0
M  V30 3572 H 332.153 -0.662907 -6.07796 0
M  V30 3573 H 336.327 -1.28537 -6.84435 0
M  V30 3574 H 333.954 -1.723 -7.40417 0
M  V30 3575 N 335.529 1.53961 0.336706 0
M  V30 3576 C 336.757 1.75483 1.09605 0
M  V30 3577 C 337.172 0.4972 1.82136 0
M  V30 3578 O 336.529 -0.53149 1.74589 0
M  V30 3579 C 336.58 2.93943 2.10428 0
M  V30 3580 O 336.301 4.14842 1.40846 0
M  V30 3581 C 337.802 3.27571 2.98684 0
M  V30 3582 H 335.022 0.586166 0.326574 0
M  V30 3583 H 337.566 2.00808 0.38683 0
M  V30 3584 H 335.721 2.70929 2.76905 0
M  V30 3585 H 336.135 4.81383 2.08255 0
M  V30 3586 H 337.609 4.13791 3.6535 0
M  V30 3587 H 338.086 2.44168 3.65074 0
M  V30 3588 H 338.692 3.52615 2.37787 0
M  V30 3589 N 337.007 -0.598083 1.45811 0
M  V30 3590 C 338.418 -1.18011 1.44673 0
M  V30 3591 C 338.769 -1.95378 0.179364 0
M  V30 3592 O 337.894 -2.04124 -0.718509 0
M  V30 3593 C 338.489 -2.14677 2.62105 0
M  V30 3594 C 337.048 -2.68236 2.64057 0
M  V30 3595 C 336.195 -1.43816 2.37091 0
M  V30 3596 H 339.146 -0.38686 1.53913 0
M  V30 3597 H 339.167 -2.97878 2.36746 0
M  V30 3598 H 338.679 -1.5834 3.5433 0
M  V30 3599 H 336.78 -3.28486 1.75864 0
M  V30 3600 H 336.893 -3.12021 3.63566 0
M  V30 3601 H 335.257 -1.731 1.86838 0
M  V30 3602 H 336.04 -0.893333 3.31473 0
M  V30 3603 N 338.485 -1.33259 -0.841409 0
M  V30 3604 C 339.734 -1.23921 -1.59143 0
M  V30 3605 C 340.047 0.1941 -1.94635 0
M  V30 3606 O 341.253 0.409474 -2.68394 0
M  V30 3607 C 339.709 -2.17119 -2.87032 0
M  V30 3608 C 339.317 -3.65606 -2.58914 0
M  V30 3609 C 341.061 -2.16648 -3.65053 0
M  V30 3610 C 338.968 -4.50726 -3.82884 0
M  V30 3611 H 337.898 -0.460264 -0.597221 0
M  V30 3612 H 340.549 -1.58307 -0.927959 0
M  V30 3613 H 338.931 -1.75663 -3.54906 0
M  V30 3614 H 340.105 -4.15487 -1.99267 0
M  V30 3615 H 338.42 -3.68341 -1.942 0
M  V30 3616 H 341.017 -2.77474 -4.57069 0
M  V30 3617 H 341.36 -1.16088 -3.99787 0
M  V30 3618 H 341.893 -2.56453 -3.041 0
M  V30 3619 H 338.632 -5.52151 -3.53283 0
M  V30 3620 H 338.152 -4.0559 -4.41879 0
M  V30 3621 H 339.831 -4.64401 -4.50489 0
M  V30 3622 N 339.963 1.05934 -1.16686 0
M  V30 3623 C 340.893 2.1546 -0.899949 0
M  V30 3624 C 341.874 1.69391 0.155154 0
M  V30 3625 O 343.059 1.94199 0.00648693 0
M  V30 3626 C 340.189 3.44939 -0.404241 0
M  V30 3627 C 339.143 4.04536 -1.39767 0
M  V30 3628 C 338.469 5.29268 -0.760216 0
M  V30 3629 C 339.769 4.42893 -2.76845 0
M  V30 3630 H 341.463 2.38046 -1.81588 0
M  V30 3631 H 339.009 1.14404 -0.874514 0
M  V30 3632 H 340.962 4.20901 -0.204971 0
M  V30 3633 H 339.686 3.21983 0.547206 0
M  V30 3634 H 338.345 3.30635 -1.58355 0
M  V30 3635 H 337.993 5.02611 0.197831 0
M  V30 3636 H 337.693 5.70101 -1.42332 0
M  V30 3637 H 339.217 6.07924 -0.57105 0
M  V30 3638 H 340.631 5.09921 -2.62019 0
M  V30 3639 H 339.028 4.94721 -3.39663 0
M  V30 3640 H 340.098 3.53584 -3.31823 0
M  V30 3641 N 341.441 0.965919 1.2453 0
M  V30 3642 C 342.687 0.637349 1.93156 0
M  V30 3643 C 343.042 -0.818261 1.74133 0
M  V30 3644 O 342.335 -1.58079 1.08266 0
M  V30 3645 C 342.529 0.945428 3.44669 0
M  V30 3646 C 342.358 2.42944 3.78429 0
M  V30 3647 C 341.128 3.08895 3.9989 0
M  V30 3648 C 343.326 3.40941 3.8505 0
M  V30 3649 N 341.308 4.47052 4.20735 0
M  V30 3650 C 342.679 4.64448 4.10717 0
M  V30 3651 C 344.734 3.35624 3.67779 0
M  V30 3652 C 343.437 5.83292 4.20907 0
M  V30 3653 C 345.463 4.53818 3.79214 0
M  V30 3654 C 344.825 5.76114 4.05304 0
M  V30 3655 H 340.924 0.284034 0.728594 0
M  V30 3656 H 343.508 1.24041 1.50073 0
M  V30 3657 H 341.679 0.371193 3.86622 0
M  V30 3658 H 343.411 0.575613 4.00586 0
M  V30 3659 H 340.166 2.59432 3.96222 0
M  V30 3660 H 340.59 5.18634 4.35141 0
M  V30 3661 H 345.232 2.4211 3.46616 0
M  V30 3662 H 342.95 6.77236 4.40883 0
M  V30 3663 H 346.536 4.51263 3.67224 0
M  V30 3664 H 345.416 6.66045 4.13949 0
M  V30 3665 N 342.919 -1.39368 0.735821 0
M  V30 3666 C 343.882 -2.2896 0.104874 0
M  V30 3667 C 344.882 -1.46347 -0.666274 0
M  V30 3668 O 346.072 -1.67014 -0.49517 0
M  V30 3669 C 343.204 -3.29857 -0.860656 0
M  V30 3670 H 344.397 -2.86259 0.894205 0
M  V30 3671 H 341.95 -1.48029 0.501704 0
M  V30 3672 H 342.685 -2.77615 -1.67631 0
M  V30 3673 H 342.47 -3.9087 -0.310327 0
M  V30 3674 H 343.96 -3.96893 -1.29867 0
M  V30 3675 N 344.397 -0.483516 -1.5 0
M  V30 3676 C 345.307 0.309172 -2.32554 0
M  V30 3677 C 346.323 0.984159 -1.43493 0
M  V30 3678 O 347.499 0.969399 -1.76535 0
M  V30 3679 C 344.564 1.36979 -3.18493 0
M  V30 3680 C 343.625 0.710095 -4.23387 0
M  V30 3681 C 342.858 1.72018 -5.05218 0
M  V30 3682 O 343.081 2.94813 -4.88305 0
M  V30 3683 O 342.015 1.28515 -5.8802 0
M  V30 3684 H 345.841 -0.366064 -3.01486 0
M  V30 3685 H 343.426 -0.24514 -1.47375 0
M  V30 3686 H 345.308 1.98385 -3.71781 0
M  V30 3687 H 343.983 2.02828 -2.52275 0
M  V30 3688 H 342.89 0.0567539 -3.74057 0
M  V30 3689 H 344.223 0.0943557 -4.9211 0
M  V30 3690 N 345.875 1.56104 -0.216619 0
M  V30 3691 C 347.105 2.02269 0.420802 0
M  V30 3692 C 347.513 1.09575 1.5424 0
M  V30 3693 O 346.856 0.0967308 1.83445 0
M  V30 3694 C 346.918 3.44784 1.01806 0
M  V30 3695 C 346.582 4.56988 0.0325154 0
M  V30 3696 C 347.579 5.14225 -0.766055 0
M  V30 3697 C 345.264 5.02228 -0.0848092 0
M  V30 3698 C 347.258 6.15169 -1.6687 0
M  V30 3699 C 344.945 6.03011 -0.990994 0
M  V30 3700 C 345.943 6.59357 -1.78149 0
M  V30 3701 O 345.631 7.58179 -2.67245 0
M  V30 3702 H 345.363 0.667353 0.107776 0
M  V30 3703 H 347.917 2.02747 -0.329034 0
M  V30 3704 H 346.147 3.41359 1.81689 0
M  V30 3705 H 347.836 3.74626 1.56237 0
M  V30 3706 H 348.602 4.80126 -0.685836 0
M  V30 3707 H 344.481 4.58054 0.520349 0
M  V30 3708 H 348.025 6.59076 -2.28615 0
M  V30 3709 H 343.922 6.36532 -1.07225 0
M  V30 3710 H 344.69 7.75682 -2.61265 0
M  V30 3711 N 347.353 -0.0568162 1.57498 0
M  V30 3712 C 348.764 -0.606858 1.76562 0
M  V30 3713 C 349.115 -1.77114 0.844094 0
M  V30 3714 O 348.24 -2.16376 0.0318911 0
M  V30 3715 C 348.835 -1.10766 3.20182 0
M  V30 3716 C 347.394 -1.60344 3.40539 0
M  V30 3717 C 346.541 -0.529311 2.72201 0
M  V30 3718 H 349.492 0.169393 1.57793 0
M  V30 3719 H 349.513 -1.97602 3.25167 0
M  V30 3720 H 349.025 -0.26006 3.87228 0
M  V30 3721 H 347.126 -2.47379 2.78629 0
M  V30 3722 H 347.239 -1.67006 4.4905 0
M  V30 3723 H 345.603 -0.977893 2.35179 0
M  V30 3724 H 346.386 0.308352 3.41912 0
M  V30 3725 N 348.832 -1.54138 -0.328536 0
M  V30 3726 C 349.782 -1.79557 -1.4051 0
M  V30 3727 C 350.766 -0.651373 -1.47126 0
M  V30 3728 O 351.958 -0.911226 -1.51742 0
M  V30 3729 C 349.087 -2.02196 -2.77438 0
M  V30 3730 C 348.173 -3.22724 -2.75155 0
M  V30 3731 N 348.564 -4.43881 -2.42494 0
M  V30 3732 C 346.862 -3.24196 -3.06289 0
M  V30 3733 C 347.563 -5.25797 -2.48822 0
M  V30 3734 N 346.539 -4.62862 -2.8506 0
M  V30 3735 H 350.341 -2.70814 -1.1418 0
M  V30 3736 H 347.855 -1.53265 -0.536991 0
M  V30 3737 H 349.852 -2.18546 -3.55026 0
M  V30 3738 H 348.512 -1.12191 -3.04702 0
M  V30 3739 H 349.523 -4.70969 -2.15428 0
M  V30 3740 H 346.2 -2.44208 -3.38627 0
M  V30 3741 H 347.59 -6.32535 -2.26603 0
M  V30 3742 N 350.31 0.590341 -1.46126 0
M  V30 3743 C 351.556 1.34874 -1.52252 0
M  V30 3744 C 351.911 1.91658 -0.168807 0
M  V30 3745 O 351.204 1.73093 0.821556 0
M  V30 3746 C 351.398 2.5032 -2.55097 0
M  V30 3747 C 351.227 2.04843 -4.00337 0
M  V30 3748 C 349.997 1.90213 -4.68132 0
M  V30 3749 C 352.195 1.61267 -4.88362 0
M  V30 3750 N 350.177 1.38727 -5.9802 0
M  V30 3751 C 351.548 1.21319 -6.08015 0
M  V30 3752 C 353.603 1.49015 -4.75078 0
M  V30 3753 C 352.306 0.7034 -7.15852 0
M  V30 3754 C 354.332 0.994401 -5.8298 0
M  V30 3755 C 353.694 0.604659 -7.018 0
M  V30 3756 H 349.793 0.486803 -0.612002 0
M  V30 3757 H 352.377 0.673007 -1.82698 0
M  V30 3758 H 350.548 3.15466 -2.26574 0
M  V30 3759 H 352.28 3.1725 -2.51266 0
M  V30 3760 H 349.035 2.11927 -4.23537 0
M  V30 3761 H 349.459 1.15168 -6.67132 0
M  V30 3762 H 354.101 1.77768 -3.83612 0
M  V30 3763 H 351.819 0.403446 -8.07092 0
M  V30 3764 H 355.405 0.903621 -5.7474 0
M  V30 3765 H 354.285 0.226963 -7.83871 0
M  V30 3766 N 351.788 1.33704 0.83433 0
M  V30 3767 C 352.698 1.26382 1.97648 0
M  V30 3768 C 353.714 0.173548 1.73132 0
M  V30 3769 O 354.89 0.397962 1.97429 0
M  V30 3770 C 351.955 1.00769 3.31733 0
M  V30 3771 C 351.016 2.1884 3.69334 0
M  V30 3772 C 350.249 1.9444 4.9702 0
M  V30 3773 O 350.472 0.896961 5.63303 0
M  V30 3774 O 349.406 2.81093 5.32231 0
M  V30 3775 H 353.232 2.22444 2.06767 0
M  V30 3776 H 350.817 1.13795 0.968037 0
M  V30 3777 H 352.699 0.882186 4.12062 0
M  V30 3778 H 351.374 0.0773783 3.23608 0
M  V30 3779 H 350.281 2.36946 2.89495 0
M  V30 3780 H 351.614 3.10221 3.82131 0
M  V30 3781 N 353.266 -1.05314 1.17247 0
M  V30 3782 C 354.514 -1.77941 0.958194 0
M  V30 3783 C 354.835 -1.88089 -0.514556 0
M  V30 3784 O 354.105 -1.39676 -1.37359 0
M  V30 3785 H 352.685 -0.659116 0.351533 0
M  V30 3786 H 355.347 -1.27166 1.47699 0
M  V30 3787 H 354.443 -2.79663 1.38546 0
M  V30 3788 N 354.744 -0.972509 -1.24016 0
M  V30 3789 C 355.654 -0.5143 -2.28893 0
M  V30 3790 C 356.67 0.427078 -1.68677 0
M  V30 3791 O 357.846 0.298939 -1.99169 0
M  V30 3792 C 354.911 0.183598 -3.46214 0
M  V30 3793 C 353.972 -0.798202 -4.21814 0
M  V30 3794 C 353.205 -0.133514 -5.33533 0
M  V30 3795 O 353.428 1.07714 -5.60137 0
M  V30 3796 O 352.362 -0.828103 -5.96176 0
M  V30 3797 H 356.188 -1.38629 -2.70214 0
M  V30 3798 H 353.773 -0.739769 -1.29799 0
M  V30 3799 H 355.655 0.575433 -4.17453 0
M  V30 3800 H 354.33 1.03048 -3.0686 0
M  V30 3801 H 353.237 -1.24059 -3.52931 0
M  V30 3802 H 354.57 -1.61364 -4.64997 0
M  V30 3803 N 356.222 1.38976 -0.743202 0
M  V30 3804 C 357.471 1.99581 -0.291592 0
M  V30 3805 C 357.784 1.59656 1.13001 0
M  V30 3806 O 358.99 2.13157 1.68156 0
M  V30 3807 C 357.446 3.56813 -0.470391 0
M  V30 3808 C 357.054 4.05695 -1.90041 0
M  V30 3809 C 358.798 4.24423 -0.0809709 0
M  V30 3810 C 356.705 5.5553 -2.02832 0
M  V30 3811 H 355.635 0.746615 -0.105272 0
M  V30 3812 H 358.286 1.58872 -0.918258 0
M  V30 3813 H 356.668 3.95359 0.225299 0
M  V30 3814 H 357.842 3.78464 -2.62872 0
M  V30 3815 H 356.157 3.50775 -2.24379 0
M  V30 3816 H 358.754 5.34474 -0.155445 0
M  V30 3817 H 359.097 4.04962 0.96497 0
M  V30 3818 H 359.63 3.9108 -0.728124 0
M  V30 3819 H 356.369 5.79881 -3.05643 0
M  V30 3820 H 355.889 5.84537 -1.34448 0
M  V30 3821 H 357.568 6.21069 -1.81335 0
M  V30 3822 N 357.7 0.491464 1.49741 0
M  V30 3823 C 358.949 -0.0582189 2.01616 0
M  V30 3824 C 359.262 -1.38927 1.3769 0
M  V30 3825 O 360.468 -2.02509 1.80838 0
M  V30 3826 C 358.924 -0.154235 3.59569 0
M  V30 3827 C 358.532 1.1696 4.32463 0
M  V30 3828 C 360.276 -0.65479 4.1942 0
M  V30 3829 C 358.183 1.03627 5.8225 0
M  V30 3830 H 357.113 -0.0255317 0.753568 0
M  V30 3831 H 359.764 0.629445 1.72367 0
M  V30 3832 H 358.146 -0.906138 3.85493 0
M  V30 3833 H 359.32 1.93405 4.18248 0
M  V30 3834 H 357.635 1.60285 3.84315 0
M  V30 3835 H 360.232 -0.771903 5.29099 0
M  V30 3836 H 360.575 -1.65127 3.8215 0
M  V30 3837 H 361.108 0.040304 3.9778 0
M  V30 3838 H 357.847 2.00672 6.24028 0
M  V30 3839 H 357.367 0.312546 5.98985 0
M  V30 3840 H 359.046 0.711114 6.4308 0
M  V30 3841 N 359.178 -1.55987 0.224894 0
M  V30 3842 C 360.594 -1.59066 -0.130426 0
M  V30 3843 C 360.794 -1.24176 -1.5869 0
M  V30 3844 O 359.85 -0.978592 -2.32766 0
M  V30 3845 C 361.163 -3.00042 0.198883 0
M  V30 3846 C 362.711 -3.1268 0.141391 0
M  V30 3847 C 363.186 -4.55839 0.444422 0
M  V30 3848 N 364.677 -4.6152 0.394115 0
M  V30 3849 C 365.412 -5.70231 0.602038 0
M  V30 3850 N 364.908 -6.87291 0.871914 0
M  V30 3851 N 366.701 -5.59555 0.534245 0
M  V30 3852 H 358.852 -1.76941 1.17497 0
M  V30 3853 H 361.115 -0.822604 0.471197 0
M  V30 3854 H 360.821 -3.30234 1.2099 0
M  V30 3855 H 360.695 -3.74075 -0.484535 0
M  V30 3856 H 363.082 -2.82283 -0.860265 0
M  V30 3857 H 363.163 -2.40969 0.858335 0
M  V30 3858 H 362.807 -4.86954 1.44353 0
M  V30 3859 H 362.737 -5.2578 -0.293752 0
M  V30 3860 H 365.228 -3.77405 0.193356 0
M  V30 3861 H 365.541 -7.66058 1.01858 0
M  V30 3862 H 363.886 -6.89028 0.909145 0
M  V30 3863 H 367.077 -4.6698 0.323612 0
M  V30 3864 H 367.25 -6.44211 0.699693 0
M  V30 3865 N 360.656 0.0484629 -1.57525 0
M  V30 3866 C 361.903 0.743125 -1.88372 0
M  V30 3867 C 362.231 1.76383 -0.819715 0
M  V30 3868 O 361.486 1.94855 0.181659 0
M  V30 3869 C 361.785 1.46632 -3.25935 0
M  V30 3870 C 361.451 0.583427 -4.4711 0
M  V30 3871 C 360.113 0.340191 -4.79996 0
M  V30 3872 C 362.465 -0.0273345 -5.21193 0
M  V30 3873 C 359.793 -0.522903 -5.84365 0
M  V30 3874 C 362.145 -0.878017 -6.26477 0
M  V30 3875 C 360.809 -1.1309 -6.5785 0
M  V30 3876 H 360.079 0.271929 -0.689301 0
M  V30 3877 H 362.726 0.00336166 -1.915 0
M  V30 3878 H 361.031 2.2789 -3.18706 0
M  V30 3879 H 362.728 2.00902 -3.47044 0
M  V30 3880 H 359.318 0.783151 -4.21384 0
M  V30 3881 H 363.502 0.147654 -4.9608 0
M  V30 3882 H 358.758 -0.727335 -6.07058 0
M  V30 3883 H 362.932 -1.35789 -6.83033 0
M  V30 3884 H 360.559 -1.80144 -7.38547 0
M  V30 3885 N 362.134 1.5431 0.320358 0
M  V30 3886 C 363.044 1.86946 1.41734 0
M  V30 3887 C 364.06 0.761689 1.56443 0
M  V30 3888 O 365.236 1.05629 1.71477 0
M  V30 3889 C 362.301 2.09293 2.76401 0
M  V30 3890 C 361.362 3.33082 2.70841 0
M  V30 3891 C 360.595 3.54353 3.99086 0
M  V30 3892 O 360.818 2.79002 4.97508 0
M  V30 3893 O 359.752 4.47838 4.0215 0
M  V30 3894 H 363.578 2.80232 1.17062 0
M  V30 3895 H 361.163 1.40255 0.514673 0
M  V30 3896 H 363.045 2.25303 3.56113 0
M  V30 3897 H 361.72 1.19194 3.00956 0
M  V30 3898 H 360.627 3.22454 1.89668 0
M  V30 3899 H 361.96 4.23249 2.5124 0
M  V30 3900 N 363.613 -0.582584 1.46437 0
M  V30 3901 C 364.841 -1.36682 1.55324 0
M  V30 3902 C 365.256 -1.87796 0.194409 0
M  V30 3903 O 364.613 -1.63623 -0.808318 0
M  V30 3904 C 364.664 -2.55426 2.55812 0
M  V30 3905 O 364.385 -2.0643 3.86417 0
M  V30 3906 C 365.886 -3.47976 2.74641 0
M  V30 3907 H 363.106 -0.417545 0.525259 0
M  V30 3908 H 365.65 -0.708219 1.91845 0
M  V30 3909 H 363.805 -3.17275 2.22295 0
M  V30 3910 H 364.219 -2.83762 4.41111 0
M  V30 3911 H 365.693 -4.27775 3.48874 0
M  V30 3912 H 366.17 -3.99919 1.81553 0
M  V30 3913 H 366.776 -2.91962 3.09255 0
M  V30 3914 N 365.091 -1.34144 -0.827227 0
M  V30 3915 C 366.001 -1.27428 -1.96975 0
M  V30 3916 C 367.017 -0.182728 -1.73038 0
M  V30 3917 O 368.193 -0.408426 -1.97215 0
M  V30 3918 C 365.258 -1.02526 -3.31194 0
M  V30 3919 C 364.319 -2.20796 -3.68168 0
M  V30 3920 C 363.552 -1.97073 -4.95982 0
M  V30 3921 O 363.775 -0.926822 -5.6282 0
M  V30 3922 O 362.709 -2.83912 -5.30733 0
M  V30 3923 H 366.535 -2.23537 -2.05584 0
M  V30 3924 H 364.12 -1.14307 -0.961989 0
M  V30 3925 H 366.002 -0.904026 -4.11589 0
M  V30 3926 H 364.677 -0.0945389 -3.23562 0
M  V30 3927 H 363.584 -2.38477 -2.88235 0
M  V30 3928 H 364.917 -3.12243 -3.8048 0
M  V30 3929 N 366.569 1.04691 -1.17803 0
M  V30 3930 C 367.479 2.16057 -0.914151 0
M  V30 3931 C 368.495 1.73589 0.119503 0
M  V30 3932 O 369.671 2.01308 -0.0609468 0
M  V30 3933 C 366.736 3.4394 -0.436603 0
M  V30 3934 C 365.797 4.00825 -1.53746 0
M  V30 3935 C 365.03 5.22604 -1.0826 0
M  V30 3936 O 365.253 5.70367 0.0612244 0
M  V30 3937 O 364.187 5.7186 -1.87775 0
M  V30 3938 H 368.013 2.41169 -1.84584 0
M  V30 3939 H 365.598 1.1453 -0.959334 0
M  V30 3940 H 367.48 4.21024 -0.178057 0
M  V30 3941 H 366.155 3.20316 0.466869 0
M  V30 3942 H 365.062 3.25158 -1.84995 0
M  V30 3943 H 366.395 4.28778 -2.41683 0
M  V30 3944 N 368.047 0.979072 1.23499 0
M  V30 3945 C 369.275 0.665202 1.95915 0
M  V30 3946 C 369.69 -0.767571 1.72493 0
M  V30 3947 O 369.047 -1.51635 1.01554 0
M  V30 3948 C 369.098 0.944438 3.48945 0
M  V30 3949 O 368.819 2.3209 3.71572 0
M  V30 3950 C 370.32 0.646336 4.38563 0
M  V30 3951 H 367.54 0.247218 0.623798 0
M  V30 3952 H 370.084 1.31009 1.57025 0
M  V30 3953 H 368.239 0.345575 3.85856 0
M  V30 3954 H 368.653 2.40957 4.65876 0
M  V30 3955 H 370.127 0.892091 5.44744 0
M  V30 3956 H 370.604 -0.419575 4.37191 0
M  V30 3957 H 371.21 1.22562 4.07258 0
M  V30 3958 N 369.525 -1.3858 0.750561 0
M  V30 3959 C 370.941 -1.53759 0.427824 0
M  V30 3960 C 371.141 -1.71401 -1.05943 0
M  V30 3961 O 370.197 -1.72331 -1.84549 0
M  V30 3962 C 371.51 -2.74642 1.22443 0
M  V30 3963 C 373.058 -2.88489 1.2142 0
M  V30 3964 C 373.533 -4.12329 1.9937 0
M  V30 3965 N 375.024 -4.194 1.96616 0
M  V30 3966 C 375.759 -5.14209 2.53727 0
M  V30 3967 N 375.255 -6.14709 3.19539 0
M  V30 3968 N 377.048 -5.06537 2.43673 0
M  V30 3969 H 369.199 -1.25377 1.71447 0
M  V30 3970 H 371.462 -0.608844 0.726645 0
M  V30 3971 H 371.168 -2.68 2.27747 0
M  V30 3972 H 371.042 -3.67745 0.839273 0
M  V30 3973 H 373.429 -2.94614 0.169232 0
M  V30 3974 H 373.51 -1.96406 1.63885 0
M  V30 3975 H 373.154 -4.06966 3.03877 0
M  V30 3976 H 373.084 -5.03486 1.54302 0
M  V30 3977 H 375.575 -3.47421 1.48684 0
M  V30 3978 H 375.888 -6.8354 3.60545 0
M  V30 3979 H 374.233 -6.1505 3.23633 0
M  V30 3980 H 377.424 -4.26962 1.91889 0
M  V30 3981 H 377.597 -5.80245 2.88479 0
M  V30 3982 N 371.003 -0.499398 -1.49478 0
M  V30 3983 C 371.95 0.279881 -2.29097 0
M  V30 3984 C 372.92 0.961805 -1.3542 0
M  V30 3985 O 374.105 0.968777 -1.64376 0
M  V30 3986 C 371.245 1.33932 -3.18051 0
M  V30 3987 C 370.358 0.669333 -4.26783 0
M  V30 3988 C 369.493 1.70907 -5.02955 0
M  V30 3989 C 368.532 1.02087 -6.03527 0
M  V30 3990 N 367.669 2.00474 -6.7287 0
M  V30 3991 H 372.509 -0.405317 -2.95231 0
M  V30 3992 H 370.046 -0.211726 -1.45568 0
M  V30 3993 H 372.004 1.96553 -3.67998 0
M  V30 3994 H 370.634 1.9933 -2.53904 0
M  V30 3995 H 369.686 -0.0701234 -3.80335 0
M  V30 3996 H 370.998 0.127503 -4.98637 0
M  V30 3997 H 370.152 2.41037 -5.56764 0
M  V30 3998 H 368.891 2.28476 -4.30871 0
M  V30 3999 H 367.896 0.305338 -5.48951 0
M  V30 4000 H 369.121 0.451708 -6.77596 0
M  V30 4001 H 367.067 2.57007 -6.03559 0
M  V30 4002 H 366.984 1.51353 -7.40694 0
M  V30 4003 H 368.252 2.69897 -7.31284 0
M  V30 4004 N 372.481 1.55866 -0.233164 0
M  V30 4005 C 373.411 2.23783 0.666599 0
M  V30 4006 C 374.392 1.21343 1.19205 0
M  V30 4007 O 375.577 1.4996 1.23392 0
M  V30 4008 C 372.707 2.92671 1.86978 0
M  V30 4009 C 371.661 4.01682 1.47768 0
M  V30 4010 C 370.987 4.57926 2.76058 0
M  V30 4011 C 372.287 5.18126 0.658993 0
M  V30 4012 H 373.981 2.99232 0.100306 0
M  V30 4013 H 371.527 1.43924 0.046804 0
M  V30 4014 H 373.48 3.3888 2.50476 0
M  V30 4015 H 372.204 2.14688 2.46123 0
M  V30 4016 H 370.863 3.56222 0.866106 0
M  V30 4017 H 370.511 3.76659 3.33372 0
M  V30 4018 H 370.211 5.31505 2.50552 0
M  V30 4019 H 371.735 5.06859 3.40479 0
M  V30 4020 H 373.149 5.60644 1.19795 0
M  V30 4021 H 371.546 5.98009 0.500552 0
M  V30 4022 H 372.616 4.83763 -0.331856 0
M  V30 4023 N 373.959 -0.0401083 1.57549 0
M  V30 4024 C 374.869 -1.06133 2.0922 0
M  V30 4025 C 375.885 -1.40356 1.0284 0
M  V30 4026 O 377.061 -1.49897 1.34509 0
M  V30 4027 C 374.126 -2.34658 2.55218 0
M  V30 4028 C 373.187 -2.07117 3.76033 0
M  V30 4029 C 372.42 -3.29514 4.19829 0
M  V30 4030 O 372.643 -4.39794 3.63232 0
M  V30 4031 O 371.577 -3.15863 5.12362 0
M  V30 4032 H 375.403 -0.652244 2.96613 0
M  V30 4033 H 372.988 -0.256368 1.47184 0
M  V30 4034 H 374.87 -3.10239 2.85184 0
M  V30 4035 H 373.545 -2.74883 1.70941 0
M  V30 4036 H 372.452 -1.29139 3.51104 0
M  V30 4037 H 373.785 -1.71754 4.61261 0
M  V30 4038 N 375.437 -1.54477 -0.31217 0
M  V30 4039 C 376.686 -1.72438 -1.04633 0
M  V30 4040 C 376.999 -0.511163 -1.88803 0
M  V30 4041 O 378.205 -0.572341 -2.65399 0
M  V30 4042 C 376.661 -3.05043 -1.9099 0
M  V30 4043 C 376.269 -4.33806 -1.11877 0
M  V30 4044 C 378.013 -3.32364 -2.64073 0
M  V30 4045 C 375.92 -5.57467 -1.97445 0
M  V30 4046 H 374.85 -0.642647 -0.394361 0
M  V30 4047 H 377.501 -1.80966 -0.303929 0
M  V30 4048 H 375.883 -2.90451 -2.69173 0
M  V30 4049 H 377.057 -4.59199 -0.383843 0
M  V30 4050 H 375.372 -4.13336 -0.504252 0
M  V30 4051 H 377.969 -4.21951 -3.28423 0
M  V30 4052 H 378.312 -2.50745 -3.32314 0
M  V30 4053 H 378.845 -3.47875 -1.92944 0
M  V30 4054 H 375.584 -6.41722 -1.33692 0
M  V30 4055 H 375.104 -5.36277 -2.6864 0
M  V30 4056 H 376.783 -5.94303 -2.5576 0
M  V30 4057 N 376.915 0.57481 -1.46744 0
M  V30 4058 C 378.14 1.36341 -1.56288 0
M  V30 4059 C 378.565 1.86954 -0.207347 0
M  V30 4060 O 377.923 1.62006 0.813871 0
M  V30 4061 C 377.971 2.52147 -2.57787 0
M  V30 4062 O 377.075 3.53834 -2.11838 0
M  V30 4063 H 376.416 0.405713 -0.525636 0
M  V30 4064 H 378.946 0.696453 -1.92382 0
M  V30 4065 H 378.956 2.98958 -2.77648 0
M  V30 4066 H 377.631 2.14663 -3.5622 0
M  V30 4067 H 376.208 3.1345 -2.01999 0
M  V30 4068 N 378.394 1.34581 0.820102 0
M  V30 4069 C 379.642 1.26845 1.57336 0
M  V30 4070 C 379.963 -0.160667 1.94337 0
M  V30 4071 O 379.233 -1.09396 1.6251 0
M  V30 4072 H 377.813 0.466514 0.583415 0
M  V30 4073 H 380.475 1.68526 0.979027 0
M  V30 4074 H 379.571 1.87513 2.4949 0
M  V30 4075 N 379.872 -1.04064 1.18357 0
M  V30 4076 C 380.805 -2.11618 0.854 0
M  V30 4077 C 381.783 -1.61555 -0.184043 0
M  V30 4078 O 382.967 -1.88395 -0.0630048 0
M  V30 4079 C 380.094 -3.37574 0.27597 0
M  V30 4080 C 379.14 -4.06485 1.2912 0
M  V30 4081 S 379.973 -4.53543 2.84709 0
M  V30 4082 C 381.129 -5.82732 2.28417 0
M  V30 4083 H 381.362 -2.39247 1.76488 0
M  V30 4084 H 378.895 -1.16832 1.00944 0
M  V30 4085 H 380.853 -4.10468 -0.051026 0
M  V30 4086 H 379.514 -3.0806 -0.613028 0
M  V30 4087 H 378.707 -4.97024 0.835633 0
M  V30 4088 H 378.309 -3.39708 1.56443 0
M  V30 4089 H 380.601 -6.56677 1.66677 0
M  V30 4090 H 381.544 -6.33052 3.17256 0
M  V30 4091 H 381.952 -5.37838 1.71436 0
M  V30 4092 N 381.35 -0.985608 -1.22978 0
M  V30 4093 C 382.761 -0.693593 -1.73338 0
M  V30 4094 C 383.112 0.789935 -1.79595 0
M  V30 4095 O 382.237 1.61771 -1.43733 0
M  V30 4096 C 382.832 -1.25235 -3.14804 0
M  V30 4097 C 381.391 -1.00987 -3.626 0
M  V30 4098 C 380.538 -1.37695 -2.40698 0
M  V30 4099 H 383.489 -1.15884 -1.08428 0
M  V30 4100 H 383.51 -0.627329 -3.75293 0
M  V30 4101 H 383.022 -2.33209 -3.10218 0
M  V30 4102 H 381.123 0.0535565 -3.72562 0
M  V30 4103 H 381.236 -1.66812 -4.49122 0
M  V30 4104 H 379.6 -0.795459 -2.4196 0
M  V30 4105 H 380.383 -2.46657 -2.38779 0
M  V30 4106 N 382.828 1.3818 -0.7579 0
M  V30 4107 C 383.758 2.33027 -0.148597 0
M  V30 4108 C 384.739 1.55085 0.69875 0
M  V30 4109 O 385.924 1.83384 0.639053 0
M  V30 4110 C 383.054 3.3928 0.742034 0
M  V30 4111 C 382.008 4.28 -0.00291946 0
M  V30 4112 C 381.334 5.25146 1.00625 0
M  V30 4113 C 382.634 5.08938 -1.17385 0
M  V30 4114 H 384.328 2.84231 -0.940909 0
M  V30 4115 H 381.874 1.36659 -0.453908 0
M  V30 4116 H 383.827 4.046 1.17799 0
M  V30 4117 H 382.551 2.86569 1.56671 0
M  V30 4118 H 381.21 3.64192 -0.419504 0
M  V30 4119 H 380.858 4.68721 1.8251 0
M  V30 4120 H 380.558 5.85361 0.512428 0
M  V30 4121 H 382.082 5.93342 1.44143 0
M  V30 4122 H 383.496 5.67474 -0.815224 0
M  V30 4123 H 381.893 5.7841 -1.59882 0
M  V30 4124 H 382.963 4.42424 -1.98468 0
M  V30 4125 N 384.306 0.507319 1.49211 0
M  V30 4126 C 385.554 -0.0348839 2.0207 0
M  V30 4127 C 385.875 -1.36898 1.38866 0
M  V30 4128 O 385.145 -1.88133 0.546151 0
M  V30 4129 H 383.725 -0.0158812 0.746831 0
M  V30 4130 H 386.387 0.665998 1.83168 0
M  V30 4131 H 385.483 -0.159917 3.1169 0
M  V30 4132 N 385.784 -1.5574 0.241426 0
M  V30 4133 C 387.061 -1.90704 -0.434881 0
M  V30 4134 C 387.441 -1.16145 -1.76277 0
M  V30 4135 O 386.789 -0.277152 -2.26813 0
M  V30 4136 C 386.999 -3.43657 -0.608343 0
M  V30 4137 C 388.347 -4.14806 -0.906725 0
M  V30 4138 O 389.371 -3.49366 -0.694408 0
M  V30 4139 O 388.23 -5.30548 -1.31075 0
M  V30 4140 H 385.324 -0.793592 -0.23268 0
M  V30 4141 H 387.87 -1.67288 0.285086 0
M  V30 4142 H 386.642 -3.89927 0.327505 0
M  V30 4143 H 386.265 -3.72918 -1.37906 0
M  V30 4144 N 387.262 0.0317525 -1.57568 0
M  V30 4145 C 388.192 1.03274 -2.0942 0
M  V30 4146 C 389.173 1.3788 -0.996143 0
M  V30 4147 O 390.358 1.46811 -1.27122 0
M  V30 4148 C 387.488 2.33448 -2.57137 0
M  V30 4149 C 386.442 2.13091 -3.71182 0
M  V30 4150 C 385.768 3.49001 -4.05095 0
M  V30 4151 C 387.068 1.51928 -4.99715 0
M  V30 4152 H 388.762 0.60112 -2.93303 0
M  V30 4153 H 386.308 0.287705 -1.41097 0
M  V30 4154 H 388.261 3.03802 -2.92032 0
M  V30 4155 H 386.985 2.78665 -1.70333 0
M  V30 4156 H 385.644 1.45171 -3.36632 0
M  V30 4157 H 385.292 3.91862 -3.15362 0
M  V30 4158 H 384.992 3.36207 -4.81911 0
M  V30 4159 H 386.516 4.20721 -4.42522 0
M  V30 4160 H 387.93 2.12196 -5.32584 0
M  V30 4161 H 386.327 1.49716 -5.81124 0
M  V30 4162 H 387.397 0.484811 -4.8247 0
M  V30 4163 N 388.74 1.54641 0.303973 0
M  V30 4164 C 389.987 1.7378 1.03955 0
M  V30 4165 C 390.315 0.521986 1.87365 0
M  V30 4166 O 389.57 -0.496099 1.89308 0
M  V30 4167 C 389.869 2.97753 1.97681 0
M  V30 4168 C 389.535 4.31671 1.30271 0
M  V30 4169 C 388.197 4.68075 1.11619 0
M  V30 4170 C 390.549 5.147 0.82055 0
M  V30 4171 C 387.877 5.8509 0.434304 0
M  V30 4172 C 390.229 6.32416 0.152395 0
M  V30 4173 C 388.893 6.67484 -0.0461067 0
M  V30 4174 H 388.163 0.635908 0.380398 0
M  V30 4175 H 390.81 1.88896 0.314718 0
M  V30 4176 H 389.115 2.77406 2.76682 0
M  V30 4177 H 390.812 3.09756 2.54661 0
M  V30 4178 H 387.402 4.03041 1.45795 0
M  V30 4179 H 391.586 4.87077 0.952374 0
M  V30 4180 H 386.842 6.10806 0.269495 0
M  V30 4181 H 391.016 6.96023 -0.229126 0
M  V30 4182 H 388.643 7.58011 -0.576494 0
M  V30 4183 N 390.218 -0.567019 1.47046 0
M  V30 4184 C 391.168 -1.67018 1.55207 0
M  V30 4185 C 392.152 -1.55543 0.411714 0
M  V30 4186 O 393.344 -1.64192 0.661064 0
M  V30 4187 C 390.473 -3.05801 1.56014 0
M  V30 4188 C 389.559 -3.22515 2.75399 0
M  V30 4189 N 389.95 -3.09329 4.00186 0
M  V30 4190 C 388.248 -3.53493 2.71954 0
M  V30 4191 C 388.949 -3.2847 4.80086 0
M  V30 4192 N 387.925 -3.54352 4.12233 0
M  V30 4193 H 391.727 -1.55377 2.4947 0
M  V30 4194 H 389.241 -0.771503 1.42904 0
M  V30 4195 H 391.238 -3.84996 1.59949 0
M  V30 4196 H 389.898 -3.18561 0.628396 0
M  V30 4197 H 390.909 -2.86863 4.31196 0
M  V30 4198 H 387.586 -3.7284 1.87873 0
M  V30 4199 H 388.976 -3.23326 5.88991 0
M  V30 4200 N 391.696 -1.35014 -0.812953 0
M  V30 4201 C 392.945 -1.27269 -1.56479 0
M  V30 4202 C 393.258 0.152771 -1.95002 0
M  V30 4203 O 394.464 0.352451 -2.69203 0
M  V30 4204 C 392.92 -2.23159 -2.82362 0
M  V30 4205 C 392.528 -3.71016 -2.511 0
M  V30 4206 C 394.272 -2.24342 -3.60376 0
M  V30 4207 C 392.179 -4.58746 -3.73237 0
M  V30 4208 H 391.109 -0.472829 -0.587324 0
M  V30 4209 H 393.76 -1.6024 -0.894171 0
M  V30 4210 H 392.142 -1.83151 -3.51101 0
M  V30 4211 H 393.316 -4.1962 -1.90409 0
M  V30 4212 H 391.631 -3.72378 -1.86343 0
M  V30 4213 H 394.228 -2.87107 -4.51081 0
M  V30 4214 H 394.571 -1.24542 -3.97234 0
M  V30 4215 H 395.104 -2.62846 -2.98591 0
M  V30 4216 H 391.843 -5.59521 -3.41492 0
M  V30 4217 H 391.363 -4.14871 -4.33176 0
M  V30 4218 H 393.042 -4.73852 -4.40537 0
M  V30 4219 N 393.175 1.03435 -1.18907 0
M  V30 4220 C 394.591 1.28973 -0.940111 0
M  V30 4221 C 394.791 1.97676 0.390691 0
M  V30 4222 O 393.847 2.26127 1.12352 0
M  V30 4223 C 395.16 2.14221 -2.11021 0
M  V30 4224 C 396.708 2.27547 -2.14922 0
M  V30 4225 C 397.183 3.16164 -3.31367 0
M  V30 4226 N 398.674 3.23752 -3.31269 0
M  V30 4227 C 399.409 3.92495 -4.18014 0
M  V30 4228 N 398.905 4.63515 -5.14904 0
M  V30 4229 N 400.698 3.88838 -4.05908 0
M  V30 4230 H 392.849 0.57252 -2.04538 0
M  V30 4231 H 395.112 0.315184 -0.894071 0
M  V30 4232 H 394.818 1.71054 -3.073 0
M  V30 4233 H 394.692 3.14919 -2.0762 0
M  V30 4234 H 397.079 2.69947 -1.19217 0
M  V30 4235 H 397.16 1.26418 -2.22378 0
M  V30 4236 H 396.804 2.74474 -4.27348 0
M  V30 4237 H 396.734 4.17339 -3.21148 0
M  V30 4238 H 399.225 2.73167 -2.61129 0
M  V30 4239 H 399.538 5.13583 -5.77453 0
M  V30 4240 H 397.883 4.62398 -5.18857 0
M  V30 4241 H 401.074 3.32491 -3.29495 0
M  V30 4242 H 401.247 4.4214 -4.73726 0
M  V30 4243 N 394.653 0.992116 1.22453 0
M  V30 4244 C 395.9 0.667534 1.91181 0
M  V30 4245 C 396.228 -0.800317 1.77271 0
M  V30 4246 O 395.483 -1.59421 1.13505 0
M  V30 4247 C 395.782 1.01832 3.42586 0
M  V30 4248 C 395.448 2.47831 3.76684 0
M  V30 4249 C 394.11 2.87729 3.85701 0
M  V30 4250 C 396.462 3.42466 3.92895 0
M  V30 4251 C 393.79 4.21252 4.08367 0
M  V30 4252 C 396.142 4.75648 4.17064 0
M  V30 4253 C 394.806 5.15288 4.24305 0
M  V30 4254 H 394.076 0.244268 0.699581 0
M  V30 4255 H 396.723 1.24816 1.45235 0
M  V30 4256 H 395.028 0.355769 3.90181 0
M  V30 4257 H 396.725 0.745228 3.94014 0
M  V30 4258 H 393.315 2.15905 3.70247 0
M  V30 4259 H 397.499 3.12814 3.85307 0
M  V30 4260 H 392.755 4.51554 4.122 0
M  V30 4261 H 396.929 5.48924 4.2855 0
M  V30 4262 H 394.556 6.18769 4.41621 0
M  V30 4263 N 396.131 -1.37776 0.765217 0
M  V30 4264 C 397.094 -2.28686 0.153416 0
M  V30 4265 C 398.094 -1.47727 -0.635081 0
M  V30 4266 O 399.284 -1.68027 -0.459632 0
M  V30 4267 C 396.416 -3.31608 -0.790495 0
M  V30 4268 H 397.609 -2.84297 0.954723 0
M  V30 4269 H 395.162 -1.46932 0.53299 0
M  V30 4270 H 395.897 -2.81109 -1.61705 0
M  V30 4271 H 395.682 -3.9144 -0.227348 0
M  V30 4272 H 397.172 -3.99559 -1.21419 0
M  V30 4273 N 397.609 -0.515225 -1.4894 0
M  V30 4274 C 398.572 0.244681 -2.2789 0
M  V30 4275 C 399.572 0.881166 -1.34507 0
M  V30 4276 O 400.762 0.743497 -1.57537 0
M  V30 4277 C 397.894 1.35247 -3.12923 0
M  V30 4278 H 399.087 -0.448289 -2.96531 0
M  V30 4279 H 396.64 -0.270656 -1.53939 0
M  V30 4280 H 397.375 2.07916 -2.48881 0
M  V30 4281 H 397.16 0.901374 -3.81599 0
M  V30 4282 H 398.65 1.88737 -3.72516 0
M  V30 4283 N 399.087 1.5561 -0.249682 0
M  V30 4284 C 400.503 1.59254 0.105103 0
M  V30 4285 C 400.703 1.26685 1.56694 0
M  V30 4286 O 399.759 1.0155 2.31179 0
M  V30 4287 C 401.072 2.99687 -0.246592 0
M  V30 4288 C 402.62 3.12416 -0.191118 0
M  V30 4289 C 403.095 4.55074 -0.516885 0
M  V30 4290 N 404.586 4.60835 -0.467489 0
M  V30 4291 C 405.321 5.69201 -0.69268 0
M  V30 4292 N 404.817 6.85817 -0.981146 0
M  V30 4293 N 406.61 5.58635 -0.623198 0
M  V30 4294 H 398.761 1.75049 -1.20298 0
M  V30 4295 H 401.024 0.815003 -0.484225 0
M  V30 4296 H 400.73 3.28267 -1.26228 0
M  V30 4297 H 400.604 3.74798 0.424962 0
M  V30 4298 H 402.991 2.83615 0.815247 0
M  V30 4299 H 403.072 2.39573 -0.896563 0
M  V30 4300 H 402.716 4.84596 -1.52082 0
M  V30 4301 H 402.646 5.26181 0.210068 0
M  V30 4302 H 405.137 3.7705 -0.253373 0
M  V30 4303 H 405.45 7.64341 -1.14032 0
M  V30 4304 H 403.795 6.87494 -1.01865 0
M  V30 4305 H 406.986 4.66406 -0.397863 0
M  V30 4306 H 407.159 6.43017 -0.802093 0
M  V30 4307 N 400.565 -0.0233959 1.57583 0
M  V30 4308 C 401.79 -0.728376 1.94189 0
M  V30 4309 C 402.215 -1.67793 0.850119 0
M  V30 4310 O 401.573 -1.80262 -0.19371 0
M  V30 4311 C 401.621 -1.45669 3.29868 0
M  V30 4312 O 400.725 -2.57013 3.22518 0
M  V30 4313 H 400.066 -0.195493 0.63457 0
M  V30 4314 H 402.596 0.0228214 2.04587 0
M  V30 4315 H 402.606 -1.82535 3.6489 0
M  V30 4316 H 401.281 -0.760314 4.08891 0
M  V30 4317 H 399.858 -2.22648 2.99136 0
M  V30 4318 N 402.043 -1.548 -0.295768 0
M  V30 4319 C 403.454 -1.65274 -0.868411 0
M  V30 4320 C 403.805 -0.56481 -1.87894 0
M  V30 4321 O 402.93 0.29767 -2.14343 0
M  V30 4322 C 403.525 -2.99603 -1.58188 0
M  V30 4323 C 402.084 -3.12181 -2.10286 0
M  V30 4324 C 401.231 -2.6098 -0.93727 0
M  V30 4325 H 404.182 -1.58534 -0.0726422 0
M  V30 4326 H 404.203 -2.91319 -2.44772 0
M  V30 4327 H 403.715 -3.78764 -0.846151 0
M  V30 4328 H 401.816 -2.3775 -2.8689 0
M  V30 4329 H 401.929 -4.18415 -2.33379 0
M  V30 4330 H 400.293 -2.17564 -1.32431 0
M  V30 4331 H 401.076 -3.42623 -0.215414 0
M  V30 4332 N 403.521 0.559213 -1.47345 0
M  V30 4333 C 404.431 1.69388 -1.62311 0
M  V30 4334 C 405.447 1.6648 -0.505993 0
M  V30 4335 O 406.623 1.85964 -0.773262 0
M  V30 4336 C 403.688 3.05894 -1.63185 0
M  V30 4337 C 402.749 3.19885 -2.86307 0
M  V30 4338 C 401.982 4.49879 -2.87131 0
M  V30 4339 O 402.205 5.35217 -1.97229 0
M  V30 4340 O 401.139 4.67618 -3.78968 0
M  V30 4341 H 404.965 1.59706 -2.58317 0
M  V30 4342 H 402.55 0.728989 -1.30407 0
M  V30 4343 H 404.432 3.87133 -1.66451 0
M  V30 4344 H 403.107 3.15964 -0.70345 0
M  V30 4345 H 402.014 2.38052 -2.88587 0
M  V30 4346 H 403.347 3.14718 -3.78435 0
M  V30 4347 N 404.999 1.35443 0.805782 0
M  V30 4348 C 406.246 1.28761 1.56291 0
M  V30 4349 C 406.574 -0.137747 1.94012 0
M  V30 4350 O 405.829 -1.1032 1.61642 0
M  V30 4351 C 406.128 2.14045 2.86216 0
M  V30 4352 C 405.794 3.62826 2.67709 0
M  V30 4353 C 404.456 4.0338 2.6237 0
M  V30 4354 C 406.808 4.57227 2.50186 0
M  V30 4355 C 404.136 5.36501 2.37451 0
M  V30 4356 C 406.488 5.90547 2.26797 0
M  V30 4357 C 405.152 6.30245 2.1988 0
M  V30 4358 H 404.422 0.471171 0.571908 0
M  V30 4359 H 407.069 1.67347 0.930974 0
M  V30 4360 H 405.374 1.68342 3.53791 0
M  V30 4361 H 407.071 2.0621 3.43917 0
M  V30 4362 H 403.661 3.30644 2.72713 0
M  V30 4363 H 407.845 4.2678 2.53323 0
M  V30 4364 H 403.101 5.66259 2.30567 0
M  V30 4365 H 407.275 6.63274 2.12228 0
M  V30 4366 H 404.902 7.33328 2.00333 0
M  V30 4367 N 406.477 -1.02803 1.19454 0
M  V30 4368 C 407.424 -2.11099 0.933046 0
M  V30 4369 C 408.394 -1.65571 -0.132447 0
M  V30 4370 O 409.579 -1.90797 0.00987576 0
M  V30 4371 C 406.719 -3.41763 0.478747 0
M  V30 4372 C 405.832 -4.00833 1.6111 0
M  V30 4373 C 404.967 -5.19511 1.10825 0
M  V30 4374 C 404.006 -5.70639 2.21445 0
M  V30 4375 N 403.143 -6.80589 1.72461 0
M  V30 4376 H 407.983 -2.32804 1.86028 0
M  V30 4377 H 405.52 -1.14179 0.927441 0
M  V30 4378 H 407.478 -4.16736 0.196745 0
M  V30 4379 H 406.108 -3.20166 -0.411493 0
M  V30 4380 H 405.16 -3.23066 2.00829 0
M  V30 4381 H 406.472 -4.34794 2.4445 0
M  V30 4382 H 405.626 -6.01645 0.781533 0
M  V30 4383 H 404.365 -4.87086 0.244606 0
M  V30 4384 H 403.37 -4.87116 2.54947 0
M  V30 4385 H 404.595 -6.05102 3.08267 0
M  V30 4386 H 402.541 -6.50016 0.884056 0
M  V30 4387 H 402.458 -7.13681 2.49389 0
M  V30 4388 H 403.726 -7.66317 1.42755 0
M  V30 4389 N 407.956 -0.998596 -1.21925 0
M  V30 4390 C 408.903 -0.553621 -2.24062 0
M  V30 4391 C 409.873 0.416999 -1.6078 0
M  V30 4392 O 411.058 0.320482 -1.88089 0
M  V30 4393 C 408.198 0.119959 -3.44891 0
M  V30 4394 C 407.311 -0.893077 -4.22668 0
M  V30 4395 C 406.446 -0.192424 -5.30851 0
M  V30 4396 C 405.485 -1.19344 -6.00353 0
M  V30 4397 N 404.622 -0.520707 -7.00166 0
M  V30 4398 H 409.462 -1.4293 -2.61486 0
M  V30 4399 H 406.999 -0.715838 -1.28507 0
M  V30 4400 H 408.957 0.527459 -4.13852 0
M  V30 4401 H 407.587 0.959389 -3.08214 0
M  V30 4402 H 406.639 -1.41886 -3.52948 0
M  V30 4403 H 407.951 -1.65512 -4.70539 0
M  V30 4404 H 407.105 0.271515 -6.06092 0
M  V30 4405 H 405.844 0.602075 -4.83969 0
M  V30 4406 H 404.849 -1.66795 -5.23889 0
M  V30 4407 H 406.074 -1.98891 -6.49322 0
M  V30 4408 H 404.02 0.254252 -6.55507 0
M  V30 4409 H 403.937 -1.2211 -7.46073 0
M  V30 4410 H 405.205 -0.0797596 -7.79459 0
M  V30 4411 N 409.434 1.37368 -0.772513 0
M  V30 4412 C 410.384 2.27613 -0.132823 0
M  V30 4413 C 411.368 1.46138 0.673247 0
M  V30 4414 O 412.56 1.68686 0.536095 0
M  V30 4415 C 409.689 3.35122 0.744864 0
M  V30 4416 C 408.775 4.24044 -0.0690771 0
M  V30 4417 N 409.166 4.93355 -1.1151 0
M  V30 4418 C 407.464 4.45731 0.154782 0
M  V30 4419 C 408.165 5.59 -1.60917 0
M  V30 4420 N 407.141 5.35737 -0.921222 0
M  V30 4421 H 410.943 2.78675 -0.933681 0
M  V30 4422 H 408.457 1.50494 -0.610342 0
M  V30 4423 H 410.454 3.98683 1.21892 0
M  V30 4424 H 409.114 2.85616 1.54446 0
M  V30 4425 H 410.125 4.95785 -1.49726 0
M  V30 4426 H 406.802 4.07096 0.926224 0
M  V30 4427 H 408.192 6.24395 -2.48153 0
M  V30 4428 N 410.912 0.523116 1.48665 0
M  V30 4429 C 412.323 0.0808997 1.86525 0
M  V30 4430 C 412.674 -1.33975 1.43336 0
M  V30 4431 O 411.799 -2.00221 0.821009 0
M  V30 4432 C 412.394 0.140037 3.3851 0
M  V30 4433 C 410.953 -0.246948 3.75589 0
M  V30 4434 C 410.1 0.502845 2.72703 0
M  V30 4435 H 413.051 0.734736 1.40667 0
M  V30 4436 H 413.072 -0.649945 3.74908 0
M  V30 4437 H 412.584 1.17412 3.69914 0
M  V30 4438 H 410.685 -1.28343 3.49798 0
M  V30 4439 H 410.798 0.0878859 4.79019 0
M  V30 4440 H 409.162 -0.0500581 2.54651 0
M  V30 4441 H 409.945 1.53743 3.0695 0
M  V30 4442 N 412.39 -1.55475 0.257931 0
M  V30 4443 C 413.353 -2.20551 -0.623706 0
M  V30 4444 C 414.353 -1.17809 -1.09443 0
M  V30 4445 O 415.543 -1.42823 -0.997362 0
M  V30 4446 C 412.675 -2.85784 -1.8585 0
M  V30 4447 H 413.868 -2.99848 -0.0557743 0
M  V30 4448 H 411.421 -1.56298 0.0084422 0
M  V30 4449 H 412.156 -2.10453 -2.46739 0
M  V30 4450 H 411.941 -3.61057 -1.52907 0
M  V30 4451 H 413.431 -3.35553 -2.48584 0
M  V30 4452 N 413.868 0.0150385 -1.57593 0
M  V30 4453 C 415.114 0.704043 -1.90187 0
M  V30 4454 C 415.447 1.74249 -0.857366 0
M  V30 4455 O 414.722 1.94092 0.125843 0
M  V30 4456 C 415.005 1.36087 -3.33395 0
M  V30 4457 C 414.858 0.334981 -4.48551 0
M  V30 4458 C 416.177 2.29112 -3.7576 0
M  V30 4459 H 413.296 0.254475 -0.691673 0
M  V30 4460 H 415.938 -0.0331678 -1.89971 0
M  V30 4461 H 414.088 1.98922 -3.3371 0
M  V30 4462 H 415.76 -0.292534 -4.60372 0
M  V30 4463 H 414.003 -0.344325 -4.32431 0
M  V30 4464 H 414.674 0.833316 -5.45674 0
M  V30 4465 H 417.15 1.76308 -3.76902 0
M  V30 4466 H 416.026 2.72043 -4.76743 0
M  V30 4467 H 416.287 3.16385 -3.08793 0
M  V30 4468 N 415.346 1.54954 0.287554 0
M  V30 4469 C 416.762 1.46469 0.633964 0
M  V30 4470 C 416.962 0.666865 1.90145 0
M  V30 4471 O 416.018 0.179906 2.51858 0
M  V30 4472 C 417.331 2.90556 0.774454 0
M  V30 4473 C 418.879 3.00681 0.869462 0
M  V30 4474 C 419.354 4.45993 1.04184 0
M  V30 4475 N 420.845 4.4976 1.10772 0
M  V30 4476 C 421.58 5.59393 1.25964 0
M  V30 4477 N 421.076 6.78923 1.37968 0
M  V30 4478 N 422.869 5.47107 1.28959 0
M  V30 4479 H 415.02 2.05288 -0.545041 0
M  V30 4480 H 417.283 0.930305 -0.182308 0
M  V30 4481 H 416.989 3.51594 -0.086207 0
M  V30 4482 H 416.863 3.38743 1.6593 0
M  V30 4483 H 419.25 2.39749 1.7206 0
M  V30 4484 H 419.331 2.55769 -0.0396831 0
M  V30 4485 H 418.975 5.07524 0.195422 0
M  V30 4486 H 418.905 4.88548 1.96542 0
M  V30 4487 H 421.396 3.63651 1.02794 0
M  V30 4488 H 421.709 7.58231 1.49353 0
M  V30 4489 H 420.054 6.81763 1.34999 0
M  V30 4490 H 423.245 4.52668 1.19202 0
M  V30 4491 H 423.418 6.32595 1.40455 0
M  V30 4492 N 416.824 -0.551391 1.4764 0
M  V30 4493 C 417.771 -1.65796 1.60563 0
M  V30 4494 C 418.741 -1.59932 0.448428 0
M  V30 4495 O 419.926 -1.78679 0.669222 0
M  V30 4496 C 417.066 -3.04108 1.63133 0
M  V30 4497 C 416.179 -3.20365 2.89811 0
M  V30 4498 C 415.314 -4.49109 2.8368 0
M  V30 4499 C 414.353 -4.58819 4.05156 0
M  V30 4500 N 413.49 -5.78926 3.97227 0
M  V30 4501 H 418.33 -1.54088 2.5507 0
M  V30 4502 H 415.867 -0.75052 1.26513 0
M  V30 4503 H 417.825 -3.84207 1.62606 0
M  V30 4504 H 416.455 -3.14637 0.721341 0
M  V30 4505 H 415.507 -2.33659 3.00179 0
M  V30 4506 H 416.819 -3.23402 3.79753 0
M  V30 4507 H 415.973 -5.37475 2.81434 0
M  V30 4508 H 414.712 -4.4856 1.91431 0
M  V30 4509 H 413.717 -3.68864 4.077 0
M  V30 4510 H 414.942 -4.61124 4.98539 0
M  V30 4511 H 412.888 -5.79314 3.07785 0
M  V30 4512 H 412.805 -5.83367 4.80853 0
M  V30 4513 H 414.073 -6.69637 3.99007 0
M  V30 4514 N 418.302 -1.35869 -0.798587 0
M  V30 4515 C 419.212 -1.31578 -1.94228 0
M  V30 4516 C 420.228 -0.21939 -1.72611 0
M  V30 4517 O 421.404 -0.450167 -1.96305 0
M  V30 4518 C 418.469 -1.09528 -3.28944 0
M  V30 4519 C 417.53 -2.28556 -3.63402 0
M  V30 4520 C 416.763 -2.07549 -4.9169 0
M  V30 4521 O 416.986 -1.046 -5.60727 0
M  V30 4522 O 415.92 -2.95106 -5.24591 0
M  V30 4523 H 419.746 -2.27847 -2.00796 0
M  V30 4524 H 417.331 -1.16322 -0.937526 0
M  V30 4525 H 419.213 -0.991127 -4.09579 0
M  V30 4526 H 417.888 -0.16315 -3.23289 0
M  V30 4527 H 416.795 -2.44538 -2.83112 0
M  V30 4528 H 418.128 -3.20244 -3.73771 0
M  V30 4529 N 419.78 1.02168 -1.19998 0
M  V30 4530 C 421.191 1.57135 -1.00825 0
M  V30 4531 C 421.542 1.91276 0.436818 0
M  V30 4532 O 420.667 1.71679 1.3174 0
M  V30 4533 C 421.262 2.85514 -1.82393 0
M  V30 4534 C 419.821 3.37027 -1.67601 0
M  V30 4535 C 418.968 2.10388 -1.80644 0
M  V30 4536 H 421.919 0.846106 -1.34264 0
M  V30 4537 H 421.94 3.56711 -1.32429 0
M  V30 4538 H 421.452 2.60634 -2.87561 0
M  V30 4539 H 419.553 3.66878 -0.650485 0
M  V30 4540 H 419.666 4.09572 -2.4857 0
M  V30 4541 H 418.03 2.22601 -1.23778 0
M  V30 4542 H 418.813 1.8794 -2.87286 0
M  V30 4543 N 421.258 1.00505 1.21394 0
M  V30 4544 C 422.506 0.686415 1.90086 0
M  V30 4545 C 422.827 -0.785264 1.7849 0
M  V30 4546 O 422.097 -1.56387 1.17983 0
M  V30 4547 H 420.677 0.2509 0.703604 0
M  V30 4548 H 423.339 1.27417 1.47482 0
M  V30 4549 H 422.435 0.959621 2.96981 0
M  V30 4550 N 422.737 -1.36956 0.779787 0
M  V30 4551 C 424.148 -1.82094 0.412156 0
M  V30 4552 C 424.499 -1.64926 -1.06273 0
M  V30 4553 O 423.624 -1.16483 -1.82375 0
M  V30 4554 C 424.219 -3.3059 0.741319 0
M  V30 4555 C 422.778 -3.73974 0.426641 0
M  V30 4556 C 421.925 -2.59368 0.980987 0
M  V30 4557 H 424.876 -1.25314 0.973758 0
M  V30 4558 H 424.897 -3.80489 0.028887 0
M  V30 4559 H 424.409 -3.43054 1.81482 0
M  V30 4560 H 422.51 -3.67076 -0.639215 0
M  V30 4561 H 422.623 -4.69778 0.940515 0
M  V30 4562 H 420.987 -2.51463 0.404757 0
M  V30 4563 H 421.77 -2.74621 2.06005 0
M  V30 4564 N 424.215 -0.530993 -1.48385 0
M  V30 4565 C 425.463 0.00273189 -2.021 0
M  V30 4566 C 425.784 1.34672 -1.41027 0
M  V30 4567 O 425.054 1.8724 -0.576012 0
M  V30 4568 H 423.634 0.00399774 -0.746989 0
M  V30 4569 H 426.296 -0.695054 -1.82085 0
M  V30 4570 H 425.392 0.11031 -3.11905 0
M  V30 4571 N 425.693 1.55336 -0.266172 0
M  V30 4572 C 426.623 2.25146 0.618981 0
M  V30 4573 C 427.604 1.23845 1.16604 0
M  V30 4574 O 428.789 1.52544 1.20183 0
M  V30 4575 C 425.919 2.96572 1.80728 0
M  V30 4576 C 424.873 4.04726 1.39215 0
M  V30 4577 C 424.199 4.63678 2.66283 0
M  V30 4578 C 425.499 5.19407 0.548942 0
M  V30 4579 H 427.193 2.99377 0.0368116 0
M  V30 4580 H 424.739 1.43991 0.0162651 0
M  V30 4581 H 426.692 3.44116 2.43232 0
M  V30 4582 H 425.416 2.19861 2.41514 0
M  V30 4583 H 424.075 3.57979 0.790351 0
M  V30 4584 H 423.723 3.83646 3.25308 0
M  V30 4585 H 423.423 5.367 2.39222 0
M  V30 4586 H 424.947 5.13967 3.29651 0
M  V30 4587 H 426.361 5.63059 1.07876 0
M  V30 4588 H 424.758 5.98936 0.373593 0
M  V30 4589 H 425.828 4.8295 -0.434394 0
M  V30 4590 N 427.171 -0.0066808 1.57599 0
M  V30 4591 C 428.417 -0.693947 1.90558 0
M  V30 4592 C 428.75 -1.73792 0.866594 0
M  V30 4593 O 428.025 -1.94156 -0.115548 0
M  V30 4594 C 428.308 -1.34317 3.34112 0
M  V30 4595 C 428.161 -0.311189 4.48722 0
M  V30 4596 C 429.48 -2.27116 3.7697 0
M  V30 4597 H 426.599 -0.250803 0.693013 0
M  V30 4598 H 429.241 0.043242 1.89951 0
M  V30 4599 H 427.391 -1.9715 3.3476 0
M  V30 4600 H 429.063 0.316944 4.6021 0
M  V30 4601 H 427.306 0.367253 4.32243 0
M  V30 4602 H 427.977 -0.804366 5.46108 0
M  V30 4603 H 430.453 -1.74306 3.77831 0
M  V30 4604 H 429.329 -2.69511 4.78179 0
M  V30 4605 H 429.59 -3.14743 3.10466 0
M  V30 4606 N 428.649 -1.55105 -0.279332 0
M  V30 4607 C 430.06 -1.66186 -0.850832 0
M  V30 4608 C 430.411 -0.584707 -1.87285 0
M  V30 4609 O 429.536 0.274919 -2.14647 0
M  V30 4610 C 430.131 -3.01264 -1.55001 0
M  V30 4611 C 428.69 -3.14394 -2.06963 0
M  V30 4612 C 427.837 -2.61959 -0.909536 0
M  V30 4613 H 430.788 -1.58602 -0.0558235 0
M  V30 4614 H 430.809 -2.93899 -2.41669 0
M  V30 4615 H 430.321 -3.7964 -0.805931 0
M  V30 4616 H 428.422 -2.4078 -2.84352 0
M  V30 4617 H 428.535 -4.20867 -2.28928 0
M  V30 4618 H 426.899 -2.18957 -1.30116 0
M  V30 4619 H 427.682 -3.42833 -0.179062 0
M  V30 4620 N 430.127 0.543554 -1.4793 0
M  V30 4621 C 431.373 1.30201 -1.55485 0
M  V30 4622 C 431.706 1.92925 -0.222201 0
M  V30 4623 O 430.981 1.78586 0.77053 0
M  V30 4624 C 431.264 2.40174 -2.68307 0
M  V30 4625 C 431.117 1.8223 -4.11233 0
M  V30 4626 C 432.436 3.42024 -2.76961 0
M  V30 4627 H 429.555 0.472036 -0.565996 0
M  V30 4628 H 432.197 0.606914 -1.80046 0
M  V30 4629 H 430.347 2.99463 -2.47495 0
M  V30 4630 H 432.019 1.27096 -4.43446 0
M  V30 4631 H 430.262 1.12832 -4.18869 0
M  V30 4632 H 430.933 2.61793 -4.85972 0
M  V30 4633 H 433.409 2.92672 -2.95774 0
M  V30 4634 H 432.285 4.16383 -3.57654 0
M  V30 4635 H 432.546 4.0173 -1.84568 0
M  V30 4636 N 431.605 1.3629 0.791371 0
M  V30 4637 C 432.535 1.33137 1.91825 0
M  V30 4638 C 433.516 0.203168 1.68882 0
M  V30 4639 O 434.701 0.400509 1.90025 0
M  V30 4640 C 431.831 1.11793 3.28816 0
M  V30 4641 C 430.785 2.21417 3.66277 0
M  V30 4642 C 430.111 1.85218 5.01596 0
M  V30 4643 C 431.411 3.63489 3.75064 0
M  V30 4644 H 433.105 2.2743 1.9472 0
M  V30 4645 H 430.651 1.09479 0.935437 0
M  V30 4646 H 432.604 1.08222 4.07266 0
M  V30 4647 H 431.328 0.139501 3.26302 0
M  V30 4648 H 429.987 2.2411 2.90121 0
M  V30 4649 H 429.635 0.859544 4.95602 0
M  V30 4650 H 429.335 2.58611 5.27631 0
M  V30 4651 H 430.859 1.832 5.82469 0
M  V30 4652 H 432.273 3.63034 4.43711 0
M  V30 4653 H 430.67 4.35771 4.12582 0
M  V30 4654 H 431.74 3.98536 2.76219 0
M  V30 4655 N 433.083 -1.0153 1.20538 0
M  V30 4656 C 434.311 -1.78746 1.04199 0
M  V30 4657 C 434.726 -1.84323 -0.408733 0
M  V30 4658 O 434.083 -1.29714 -1.28377 0
M  V30 4659 C 434.134 -3.23152 1.62035 0
M  V30 4660 O 433.855 -3.17918 3.0143 0
M  V30 4661 C 435.356 -4.16911 1.50666 0
M  V30 4662 H 432.576 -0.56208 0.366479 0
M  V30 4663 H 435.12 -1.27794 1.59653 0
M  V30 4664 H 433.275 -3.71248 1.10697 0
M  V30 4665 H 433.689 -4.08567 3.28897 0
M  V30 4666 H 435.163 -5.16072 1.95892 0
M  V30 4667 H 435.64 -4.36791 0.459363 0
M  V30 4668 H 436.246 -3.74698 2.01201 0
M  V30 4669 N 434.561 -1.01147 -1.20859 0
M  V30 4670 C 435.809 -0.696486 -1.89719 0
M  V30 4671 C 436.13 0.775788 -1.78904 0
M  V30 4672 O 435.4 1.55759 -1.18811 0
M  V30 4673 H 433.98 -0.254628 -0.702263 0
M  V30 4674 H 436.642 -1.28197 -1.46804 0
M  V30 4675 H 435.738 -0.975357 -2.96468 0
M  V30 4676 N 436.039 1.36541 -0.78704 0
M  V30 4677 C 437.455 1.52571 -0.46844 0
M  V30 4678 C 437.655 1.7415 1.01361 0
M  V30 4679 O 436.711 1.77163 1.79915 0
M  V30 4680 C 438.024 2.71299 -1.29682 0
M  V30 4681 C 439.572 2.85169 -1.29027 0
M  V30 4682 C 440.047 4.06898 -2.10233 0
M  V30 4683 N 441.538 4.1404 -2.07666 0
M  V30 4684 C 442.273 5.07301 -2.67271 0
M  V30 4685 N 441.769 6.06021 -3.35724 0
M  V30 4686 N 443.562 4.99898 -2.57018 0
M  V30 4687 H 435.713 1.20788 -1.74711 0
M  V30 4688 H 437.976 0.589364 -0.742532 0
M  V30 4689 H 437.682 2.61868 -2.34773 0
M  V30 4690 H 437.556 3.6539 -0.936479 0
M  V30 4691 H 439.943 2.94062 -0.247284 0
M  V30 4692 H 440.024 1.91992 -1.69035 0
M  V30 4693 H 439.668 3.98766 -3.1456 0
M  V30 4694 H 439.598 4.99218 -1.67597 0
M  V30 4695 H 442.089 3.43357 -1.57843 0
M  V30 4696 H 442.402 6.73741 -3.78541 0
M  V30 4697 H 440.747 6.06253 -3.39826 0
M  V30 4698 H 443.938 4.21724 -2.03142 0
M  V30 4699 H 444.111 5.72392 -3.03761 0
M  V30 4700 N 437.518 0.538854 1.48102 0
M  V30 4701 C 438.466 -0.232325 2.31437 0
M  V30 4702 C 439.46 -0.927004 1.41785 0
M  V30 4703 O 440.666 -0.850378 1.58646 0
M  V30 4704 H 437.041 -0.0937916 0.746128 0
M  V30 4705 H 439.012 0.489986 2.9435 0
M  V30 4706 C 437.761 -1.26074 3.24038 0
M  V30 4707 H 437.084 -0.735609 3.92974 0
M  V30 4708 H 438.524 -1.77157 3.85216 0
M  V30 4709 C 436.983 -2.29902 2.46265 0
M  V30 4710 O 437.513 -3.36502 2.19384 0
M  V30 4711 N 435.719 -2.03348 2.07601 0
M  V30 4712 H 435.266 -1.16675 2.29662 0
M  V30 4713 H 435.224 -2.73038 1.55877 0
M  V30 4714 N 438.996 -1.55193 0.274407 0
M  V30 4715 C 439.926 -2.25471 -0.607032 0
M  V30 4716 C 440.907 -1.24461 -1.15946 0
M  V30 4717 O 442.092 -1.53179 -1.19373 0
M  V30 4718 C 439.222 -2.97526 -1.79153 0
M  V30 4719 C 438.176 -4.05459 -1.37067 0
M  V30 4720 C 437.502 -4.65084 -2.6382 0
M  V30 4721 C 438.802 -5.19691 -0.521389 0
M  V30 4722 H 440.496 -2.99393 -0.0209343 0
M  V30 4723 H 438.042 -1.43997 -0.00862866 0
M  V30 4724 H 439.995 -3.45402 -2.41404 0
M  V30 4725 H 438.719 -2.21138 -2.40344 0
M  V30 4726 H 437.378 -3.58393 -0.771355 0
M  V30 4727 H 437.026 -3.85365 -3.23268 0
M  V30 4728 H 436.726 -5.37961 -2.36372 0
M  V30 4729 H 438.25 -5.15708 -3.26921 0
M  V30 4730 H 439.664 -5.63623 -1.04889 0
M  V30 4731 H 438.061 -5.99126 -0.341825 0
M  V30 4732 H 439.131 -4.82713 0.46 0
M  V30 4733 N 440.474 -0.00167713 -1.576 0
M  V30 4734 C 441.421 0.989195 -2.08527 0
M  V30 4735 C 442.391 1.34031 -0.981065 0
M  V30 4736 O 443.576 1.43839 -1.2536 0
M  V30 4737 C 440.716 2.27537 -2.59463 0
M  V30 4738 C 439.829 1.98314 -3.83791 0
M  V30 4739 C 438.964 3.21025 -4.23222 0
M  V30 4740 C 438.003 2.87495 -5.40382 0
M  V30 4741 N 437.14 4.02749 -5.75098 0
M  V30 4742 H 441.98 0.547973 -2.92919 0
M  V30 4743 H 439.517 0.258917 -1.44803 0
M  V30 4744 H 441.475 3.02729 -2.87073 0
M  V30 4745 H 440.105 2.69325 -1.77943 0
M  V30 4746 H 439.157 1.13482 -3.63078 0
M  V30 4747 H 440.469 1.69601 -4.69081 0
M  V30 4748 H 439.623 4.04561 -4.52123 0
M  V30 4749 H 438.362 3.52877 -3.36644 0
M  V30 4750 H 437.367 2.02367 -5.11202 0
M  V30 4751 H 438.592 2.56889 -6.28637 0
M  V30 4752 H 436.538 4.34494 -4.91478 0
M  V30 4753 H 436.455 3.77566 -6.54966 0
M  V30 4754 H 437.723 4.87068 -6.08592 0
M  V30 4755 N 441.952 1.55251 0.271103 0
M  V30 4756 C 443.363 1.66635 0.842007 0
M  V30 4757 C 443.714 0.594631 1.86972 0
M  V30 4758 O 442.839 -0.263532 2.14789 0
M  V30 4759 C 443.434 3.02082 1.53401 0
M  V30 4760 C 441.993 3.15487 2.05293 0
M  V30 4761 C 441.14 2.62438 0.895631 0
M  V30 4762 H 444.091 1.58629 0.0474117 0
M  V30 4763 H 444.112 2.95176 2.40107 0
M  V30 4764 H 443.624 3.80062 0.785786 0
M  V30 4765 H 441.725 2.42284 2.83071 0
M  V30 4766 H 441.838 4.22075 2.26693 0
M  V30 4767 H 440.202 2.19644 1.28953 0
M  V30 4768 H 440.985 3.42923 0.160878 0
M  V30 4769 N 443.43 -0.535701 1.48216 0
M  V30 4770 C 444.678 -1.28928 1.55634 0
M  V30 4771 C 444.999 -1.93645 0.229514 0
M  V30 4772 O 444.269 -1.81038 -0.74846 0
M  V30 4773 H 442.849 -0.47884 0.573342 0
M  V30 4774 H 445.511 -0.623853 1.84646 0
M  V30 4775 H 444.607 -2.07157 2.33436 0
M  V30 4776 N 444.908 -1.36708 -0.784132 0
M  V30 4777 C 446.154 -1.32433 -1.54379 0
M  V30 4778 C 446.509 0.0941816 -1.92169 0
M  V30 4779 O 445.802 1.04997 -1.60269 0
M  V30 4780 C 445.996 -2.18571 -2.82774 0
M  V30 4781 C 445.825 -3.68656 -2.57533 0
M  V30 4782 C 444.595 -4.37813 -2.52286 0
M  V30 4783 C 446.793 -4.61802 -2.2637 0
M  V30 4784 N 444.775 -5.7351 -2.18997 0
M  V30 4785 C 446.146 -5.85785 -2.03115 0
M  V30 4786 C 448.201 -4.50313 -2.12421 0
M  V30 4787 C 446.904 -6.99569 -1.67321 0
M  V30 4788 C 448.93 -5.63969 -1.78026 0
M  V30 4789 C 448.292 -6.86994 -1.55622 0
M  V30 4790 H 444.391 -0.539886 -0.565727 0
M  V30 4791 H 446.975 -1.71812 -0.915908 0
M  V30 4792 H 445.146 -1.81429 -3.43421 0
M  V30 4793 H 446.878 -2.05646 -3.48557 0
M  V30 4794 H 443.633 -3.90674 -2.67714 0
M  V30 4795 H 444.057 -6.45189 -2.05084 0
M  V30 4796 H 448.699 -3.55781 -2.28429 0
M  V30 4797 H 446.417 -7.94047 -1.5005 0
M  V30 4798 H 450.003 -5.57044 -1.67909 0
M  V30 4799 H 448.883 -7.7345 -1.294 0
M  V30 4800 N 446.386 1.0089 -1.21074 0
M  V30 4801 C 447.632 1.74866 -1.02712 0
M  V30 4802 C 447.965 1.89178 0.438787 0
M  V30 4803 O 447.24 1.42325 1.32567 0
M  V30 4804 C 447.523 3.16347 -1.72036 0
M  V30 4805 C 447.376 3.09782 -3.26121 0
M  V30 4806 C 448.695 4.15187 -1.45973 0
M  V30 4807 H 445.814 0.634736 -0.374539 0
M  V30 4808 H 448.456 1.17646 -1.49196 0
M  V30 4809 H 446.606 3.65201 -1.32517 0
M  V30 4810 H 448.278 2.68673 -3.74983 0
M  V30 4811 H 446.521 2.46982 -3.56626 0
M  V30 4812 H 447.192 4.09829 -3.6979 0
M  V30 4813 H 449.668 3.75022 -1.80272 0
M  V30 4814 H 448.544 5.12331 -1.96999 0
M  V30 4815 H 448.805 4.40386 -0.388924 0
M  V30 4816 N 447.864 1.01787 1.20321 0
M  V30 4817 C 449.141 0.622978 1.85414 0
M  V30 4818 C 449.521 -0.898887 1.91006 0
M  V30 4819 O 448.869 -1.79112 1.41884 0
M  V30 4820 C 449.079 1.27226 3.24984 0
M  V30 4821 C 450.427 1.3885 4.01255 0
M  V30 4822 O 451.451 1.22857 3.34342 0
M  V30 4823 O 450.31 1.64705 5.2109 0
M  V30 4824 H 447.404 0.215116 0.798533 0
M  V30 4825 H 449.95 1.11533 1.27901 0
M  V30 4826 H 448.722 2.31209 3.15687 0
M  V30 4827 H 448.345 0.767069 3.90131 0
M  V30 4828 N 449.342 -1.36122 0.79427 0
M  V30 4829 C 450.572 -2.03067 0.380437 0
M  V30 4830 C 450.98 -1.60018 -1.00949 0
M  V30 4831 O 450.323 -0.787425 -1.65968 0
M  V30 4832 C 450.385 -3.57587 0.37034 0
M  V30 4833 C 450.049 -4.23855 1.70867 0
M  V30 4834 C 451.046 -4.46404 2.66496 0
M  V30 4835 C 448.731 -4.61229 1.9893 0
M  V30 4836 C 450.725 -5.05412 3.88378 0
M  V30 4837 C 448.412 -5.19953 3.21079 0
M  V30 4838 C 449.41 -5.41985 4.15621 0
M  V30 4839 O 449.098 -5.99475 5.35616 0
M  V30 4840 H 448.83 -0.658168 0.154243 0
M  V30 4841 H 451.384 -1.7498 1.0757 0
M  V30 4842 H 449.614 -3.84814 -0.381444 0
M  V30 4843 H 451.303 -4.05895 -0.0194894 0
M  V30 4844 H 452.069 -4.17921 2.46103 0
M  V30 4845 H 447.948 -4.43402 1.26158 0
M  V30 4846 H 451.492 -5.22524 4.62185 0
M  V30 4847 H 447.389 -5.47862 3.41347 0
M  V30 4848 H 448.157 -6.17937 5.36745 0
M  V30 4849 N 450.82 -0.546701 -1.47814 0
M  V30 4850 C 451.73 0.21026 -2.33656 0
M  V30 4851 C 452.746 0.922413 -1.47538 0
M  V30 4852 O 453.922 0.893652 -1.80488 0
M  V30 4853 C 450.987 1.23348 -3.24016 0
M  V30 4854 C 450.048 0.529883 -4.26017 0
M  V30 4855 C 449.281 1.50435 -5.12059 0
M  V30 4856 O 449.504 2.73837 -5.00369 0
M  V30 4857 O 448.438 1.03459 -5.92942 0
M  V30 4858 H 452.264 -0.493605 -2.99662 0
M  V30 4859 H 449.849 -0.307427 -1.46203 0
M  V30 4860 H 451.731 1.82438 -3.79861 0
M  V30 4861 H 450.406 1.91945 -2.60651 0
M  V30 4862 H 449.313 -0.101948 -3.73961 0
M  V30 4863 H 450.646 -0.11445 -4.92067 0
M  V30 4864 N 452.299 1.55045 -0.282633 0
M  V30 4865 C 453.246 2.22822 0.601566 0
M  V30 4866 C 454.216 1.20431 1.14392 0
M  V30 4867 O 455.401 1.48996 1.19184 0
M  V30 4868 C 452.541 2.95873 1.77632 0
M  V30 4869 C 451.654 4.12999 1.26711 0
M  V30 4870 C 450.789 4.73676 2.40426 0
M  V30 4871 C 449.828 5.82981 1.86545 0
M  V30 4872 N 448.965 6.3769 2.93762 0
M  V30 4873 H 453.805 2.97995 0.0169528 0
M  V30 4874 H 451.342 1.471 -0.00339964 0
M  V30 4875 H 453.3 3.36447 2.46697 0
M  V30 4876 H 451.93 2.2311 2.33285 0
M  V30 4877 H 450.982 3.77494 0.469314 0
M  V30 4878 H 452.294 4.91803 0.832518 0
M  V30 4879 H 451.448 5.17008 3.17471 0
M  V30 4880 H 450.187 3.94164 2.87203 0
M  V30 4881 H 449.192 5.39092 1.07983 0
M  V30 4882 H 450.417 6.64366 1.40694 0
M  V30 4883 H 448.363 5.61069 3.39908 0
M  V30 4884 H 448.28 7.11788 2.54744 0
M  V30 4885 H 449.548 6.8568 3.7076 0
M  V30 4886 N 453.777 0.010035 1.57597 0
M  V30 4887 C 454.725 -0.996272 2.10184 0
M  V30 4888 C 455.719 -1.34942 1.02406 0
M  V30 4889 O 456.925 -1.33389 1.20861 0
M  V30 4890 H 453.3 -0.338982 0.671264 0
M  V30 4891 H 455.271 -0.527272 2.93705 0
M  V30 4892 C 454.02 -2.27599 2.62857 0
M  V30 4893 H 453.343 -2.01295 3.45428 0
M  V30 4894 H 454.783 -2.96265 3.0332 0
M  V30 4895 C 453.242 -2.99269 1.54725 0
M  V30 4896 O 453.772 -3.90644 0.93597 0
M  V30 4897 N 451.978 -2.61269 1.27228 0
M  V30 4898 H 451.525 -1.87043 1.77123 0
M  V30 4899 H 451.483 -3.09534 0.550999 0
M  V30 4900 N 455.255 -1.55392 -0.262866 0
M  V30 4901 C 456.205 -1.85355 -1.32768 0
M  V30 4902 C 457.189 -0.713188 -1.44231 0
M  V30 4903 O 458.381 -0.974765 -1.47741 0
M  V30 4904 C 455.51 -2.13781 -2.68612 0
M  V30 4905 C 454.596 -3.34104 -2.61219 0
M  V30 4906 N 454.987 -4.53766 -2.2345 0
M  V30 4907 C 453.285 -3.36895 -2.92263 0
M  V30 4908 C 453.986 -5.35877 -2.26298 0
M  V30 4909 N 452.962 -4.74536 -2.65172 0
M  V30 4910 H 456.764 -2.75413 -1.02591 0
M  V30 4911 H 454.278 -1.55405 -0.471503 0
M  V30 4912 H 456.275 -2.33407 -3.45437 0
M  V30 4913 H 454.935 -1.25013 -2.99669 0
M  V30 4914 H 455.946 -4.79682 -1.95258 0
M  V30 4915 H 452.623 -2.58351 -3.27965 0
M  V30 4916 H 454.013 -6.41577 -1.99572 0
M  V30 4917 N 456.733 0.527833 -1.48498 0
M  V30 4918 C 457.958 1.313 -1.60546 0
M  V30 4919 C 458.383 1.86199 -0.26672 0
M  V30 4920 O 457.741 1.64513 0.761918 0
M  V30 4921 C 457.789 2.43818 -2.65678 0
M  V30 4922 O 456.893 3.46916 -2.22987 0
M  V30 4923 H 456.234 0.388784 -0.538277 0
M  V30 4924 H 458.764 0.634896 -1.945 0
M  V30 4925 H 458.774 2.89973 -2.87018 0
M  V30 4926 H 457.449 2.03222 -3.62869 0
M  V30 4927 H 456.026 3.06864 -2.11869 0
M  V30 4928 N 458.211 1.37122 0.776871 0
M  V30 4929 C 459.459 1.31787 1.53221 0
M  V30 4930 C 459.78 -0.0987589 1.9475 0
M  V30 4931 O 459.05 -1.0417 1.65908 0
M  V30 4932 H 457.63 0.484839 0.568278 0
M  V30 4933 H 460.292 1.71556 0.924917 0
M  V30 4934 H 459.388 1.95355 2.43398 0
M  V30 4935 N 459.689 -1.00246 1.21608 0
M  V30 4936 C 460.619 -2.10921 1.00172 0
M  V30 4937 C 461.6 -1.69938 -0.0741587 0
M  V30 4938 O 462.785 -1.94009 0.0861753 0
M  V30 4939 C 459.915 -3.42618 0.568355 0
M  V30 4940 C 458.869 -3.97407 1.58909 0
M  V30 4941 C 458.195 -5.25038 1.01187 0
M  V30 4942 C 459.495 -4.2918 2.97661 0
M  V30 4943 H 461.189 -2.29112 1.92739 0
M  V30 4944 H 458.735 -1.10101 0.928102 0
M  V30 4945 H 460.688 -4.19444 0.405555 0
M  V30 4946 H 459.412 -3.24227 -0.392961 0
M  V30 4947 H 458.071 -3.22703 1.73949 0
M  V30 4948 H 457.719 -5.02982 0.0421965 0
M  V30 4949 H 457.419 -5.62661 1.6937 0
M  V30 4950 H 458.943 -6.04507 0.860448 0
M  V30 4951 H 460.357 -4.96839 2.86049 0
M  V30 4952 H 458.754 -4.77952 3.6288 0
M  V30 4953 H 459.824 -3.3735 3.48315 0
M  V30 4954 N 461.167 -1.02423 -1.1978 0
M  V30 4955 C 462.413 -0.72878 -1.89896 0
M  V30 4956 C 462.768 0.734248 -1.77839 0
M  V30 4957 O 462.061 1.52733 -1.15685 0
M  V30 4958 C 462.255 -1.1088 -3.39765 0
M  V30 4959 C 462.084 -2.60722 -3.66407 0
M  V30 4960 C 460.854 -3.27623 -3.84696 0
M  V30 4961 C 463.052 -3.58924 -3.68345 0
M  V30 4962 N 461.034 -4.66617 -3.98926 0
M  V30 4963 C 462.405 -4.83514 -3.8809 0
M  V30 4964 C 464.46 -3.52788 -3.51347 0
M  V30 4965 C 463.163 -6.0271 -3.92598 0
M  V30 4966 C 465.189 -4.71394 -3.5713 0
M  V30 4967 C 464.551 -5.94796 -3.77356 0
M  V30 4968 H 460.65 -0.318473 -0.714212 0
M  V30 4969 H 463.234 -1.3106 -1.43984 0
M  V30 4970 H 461.405 -0.555233 -3.84411 0
M  V30 4971 H 463.137 -0.766082 -3.97383 0
M  V30 4972 H 459.892 -2.7804 -3.83393 0
M  V30 4973 H 460.316 -5.38805 -4.099 0
M  V30 4974 H 464.958 -2.58372 -3.3467 0
M  V30 4975 H 462.676 -6.97499 -4.08069 0
M  V30 4976 H 466.262 -4.6827 -3.45275 0
M  V30 4977 H 465.142 -6.85037 -3.81699 0
M  V30 4978 N 462.645 1.35699 -0.801477 0
M  V30 4979 C 463.578 2.2768 -0.153922 0
M  V30 4980 C 464.556 1.47832 0.67709 0
M  V30 4981 O 465.74 1.77104 0.645474 0
M  V30 4982 C 462.867 3.2943 0.786986 0
M  V30 4983 C 461.913 4.26485 0.0362447 0
M  V30 4984 S 462.746 5.19573 -1.2963 0
M  V30 4985 C 463.902 6.24866 -0.359705 0
M  V30 4986 H 464.135 2.82254 -0.9338 0
M  V30 4987 H 461.668 1.42421 -0.596283 0
M  V30 4988 H 463.626 3.8855 1.32436 0
M  V30 4989 H 462.287 2.73745 1.54021 0
M  V30 4990 H 461.48 4.98378 0.750668 0
M  V30 4991 H 461.082 3.71508 -0.431017 0
M  V30 4992 H 463.374 6.75957 0.456954 0
M  V30 4993 H 464.317 7.00307 -1.04768 0
M  V30 4994 H 464.725 5.64484 0.0423274 0
M  V30 4995 N 464.123 0.554532 1.47522 0
M  V30 4996 C 465.534 0.120446 1.86311 0
M  V30 4997 C 465.885 -1.30904 1.46145 0
M  V30 4998 O 465.01 -1.98434 0.863294 0
M  V30 4999 C 465.605 0.211808 3.38137 0
M  V30 5000 C 464.164 -0.167224 3.76028 0
M  V30 5001 C 463.311 0.560576 2.71575 0
M  V30 5002 H 466.262 0.764408 1.39077 0
M  V30 5003 H 466.283 -0.570275 3.76202 0
M  V30 5004 H 465.795 1.25232 3.6734 0
M  V30 5005 H 463.896 -1.20894 3.52442 0
M  V30 5006 H 464.009 0.189473 4.78725 0
M  V30 5007 H 462.373 0.00396836 2.547 0
M  V30 5008 H 463.156 1.60219 3.0362 0
M  V30 5009 N 465.601 -1.54893 0.290851 0
M  V30 5010 C 466.548 -2.23138 -0.58974 0
M  V30 5011 C 467.518 -1.21036 -1.13752 0
M  V30 5012 O 468.703 -1.49626 -1.18392 0
M  V30 5013 C 465.843 -2.96811 -1.76061 0
M  V30 5014 C 464.956 -4.13665 -1.24519 0
M  V30 5015 C 464.091 -4.74944 -2.3791 0
M  V30 5016 C 463.13 -5.83963 -1.83451 0
M  V30 5017 N 462.267 -6.39239 -2.90376 0
M  V30 5018 H 467.107 -2.98 -0.00114915 0
M  V30 5019 H 464.644 -1.47096 0.0112006 0
M  V30 5020 H 466.602 -3.37751 -2.44909 0
M  V30 5021 H 465.232 -2.24344 -2.32098 0
M  V30 5022 H 464.284 -3.77737 -0.449288 0
M  V30 5023 H 465.596 -4.92238 -0.806424 0
M  V30 5024 H 464.75 -5.18684 -3.14724 0
M  V30 5025 H 463.489 -3.95682 -2.85109 0
M  V30 5026 H 462.494 -5.39657 -1.05122 0
M  V30 5027 H 463.719 -6.65103 -1.37169 0
M  V30 5028 H 461.665 -5.62864 -3.36927 0
M  V30 5029 H 461.582 -7.13129 -2.50965 0
M  V30 5030 H 462.85 -6.87637 -3.67118 0
M  V30 5031 N 467.08 -0.0183926 -1.57589 0
M  V30 5032 C 467.99 0.982943 -2.13015 0
M  V30 5033 C 469.006 1.36443 -1.07979 0
M  V30 5034 O 470.182 1.44802 -1.3998 0
M  V30 5035 C 467.247 2.25024 -2.63752 0
M  V30 5036 C 466.308 1.93018 -3.83461 0
M  V30 5037 C 465.541 3.13706 -4.31769 0
M  V30 5038 O 465.764 4.2601 -3.79305 0
M  V30 5039 O 464.698 2.96629 -5.23732 0
M  V30 5040 H 468.524 0.541709 -2.9883 0
M  V30 5041 H 466.109 0.201565 -1.48034 0
M  V30 5042 H 467.991 2.99441 -2.96502 0
M  V30 5043 H 466.666 2.68349 -1.81026 0
M  V30 5044 H 465.573 1.16019 -3.55655 0
M  V30 5045 H 466.906 1.54516 -4.67317 0
M  V30 5046 N 468.558 1.5553 0.254621 0
M  V30 5047 C 469.974 1.4778 0.602753 0
M  V30 5048 C 470.174 0.707047 1.88688 0
M  V30 5049 O 469.23 0.233288 2.5142 0
M  V30 5050 C 470.543 2.92133 0.712648 0
M  V30 5051 C 472.091 3.02458 0.805488 0
M  V30 5052 C 472.566 4.48102 0.947009 0
M  V30 5053 N 474.057 4.52008 1.01207 0
M  V30 5054 C 474.792 5.61939 1.1407 0
M  V30 5055 N 474.288 6.81697 1.23536 0
M  V30 5056 N 476.081 5.49719 1.17325 0
M  V30 5057 H 468.232 2.04085 -0.588463 0
M  V30 5058 H 470.495 0.926229 -0.202001 0
M  V30 5059 H 470.201 3.51332 -0.160766 0
M  V30 5060 H 470.075 3.42187 1.58707 0
M  V30 5061 H 472.462 2.43344 1.66936 0
M  V30 5062 H 472.543 2.55627 -0.0939266 0
M  V30 5063 H 472.187 5.07824 0.087725 0
M  V30 5064 H 472.117 4.92607 1.86135 0
M  V30 5065 H 474.608 3.65749 0.950577 0
M  V30 5066 H 474.921 7.61228 1.33236 0
M  V30 5067 H 473.266 6.84473 1.20508 0
M  V30 5068 H 476.457 4.55095 1.09573 0
M  V30 5069 H 476.63 6.35432 1.27005 0
M  V30 5070 N 470.036 -0.519951 1.48776 0
M  V30 5071 C 470.999 -1.60574 1.6355 0
M  V30 5072 C 471.999 -1.52557 0.508234 0
M  V30 5073 O 473.189 -1.56047 0.774262 0
M  V30 5074 C 470.321 -3.00211 1.61512 0
M  V30 5075 H 471.514 -1.4881 2.60376 0
M  V30 5076 H 469.067 -0.742772 1.37523 0
M  V30 5077 H 469.802 -3.17471 0.662009 0
M  V30 5078 H 469.587 -3.07439 2.43359 0
M  V30 5079 H 471.077 -3.79134 1.75064 0
M  V30 5080 N 471.514 -1.37532 -0.769588 0
M  V30 5081 C 472.461 -1.3347 -1.88293 0
M  V30 5082 C 473.431 -0.199891 -1.64893 0
M  V30 5083 O 474.616 -0.389594 -1.8678 0
M  V30 5084 C 471.756 -1.14968 -3.25387 0
M  V30 5085 C 470.869 -2.37698 -3.60727 0
M  V30 5086 C 470.004 -2.12051 -4.8704 0
M  V30 5087 C 469.043 -3.30636 -5.15117 0
M  V30 5088 N 468.18 -3.04527 -6.3262 0
M  V30 5089 H 473.02 -2.28658 -1.911 0
M  V30 5090 H 470.557 -1.13622 -0.934257 0
M  V30 5091 H 472.515 -1.02261 -4.04473 0
M  V30 5092 H 471.145 -0.234263 -3.21949 0
M  V30 5093 H 470.197 -2.61137 -2.76608 0
M  V30 5094 H 471.509 -3.26131 -3.77413 0
M  V30 5095 H 470.663 -1.96388 -5.74035 0
M  V30 5096 H 469.402 -1.20959 -4.72462 0
M  V30 5097 H 468.407 -3.46836 -4.26597 0
M  V30 5098 H 469.632 -4.22582 -5.31603 0
M  V30 5099 H 467.578 -2.16067 -6.19396 0
M  V30 5100 H 467.495 -3.86503 -6.49732 0
M  V30 5101 H 468.763 -2.92485 -7.22546 0
M  V30 5102 N 472.992 0.995999 -1.22138 0
M  V30 5103 C 473.902 2.11985 -1.00496 0
M  V30 5104 C 474.918 1.7394 0.0457701 0
M  V30 5105 O 476.094 2.00868 -0.146273 0
M  V30 5106 C 473.159 3.41779 -0.582086 0
M  V30 5107 C 472.22 3.93943 -1.70608 0
M  V30 5108 C 471.453 5.17542 -1.30328 0
M  V30 5109 O 471.676 5.70114 -0.180743 0
M  V30 5110 O 470.61 5.63382 -2.11861 0
M  V30 5111 H 474.436 2.33123 -1.94647 0
M  V30 5112 H 472.021 1.10358 -1.00705 0
M  V30 5113 H 473.903 4.1989 -0.356467 0
M  V30 5114 H 472.578 3.22007 0.330592 0
M  V30 5115 H 471.485 3.17019 -1.98619 0
M  V30 5116 H 472.818 4.18141 -2.59651 0
M  V30 5117 N 474.47 1.03057 1.19235 0
M  V30 5118 C 475.4 0.633497 2.24742 0
M  V30 5119 C 476.381 -0.358335 1.66283 0
M  V30 5120 O 477.566 -0.240676 1.92703 0
M  V30 5121 C 474.696 -0.0147648 3.47297 0
M  V30 5122 C 473.65 0.899527 4.18441 0
M  V30 5123 C 472.976 0.116281 5.34574 0
M  V30 5124 C 474.276 2.21404 4.73051 0
M  V30 5125 H 475.97 1.5155 2.58211 0
M  V30 5126 H 473.516 0.73014 1.24117 0
M  V30 5127 H 475.469 -0.304202 4.20301 0
M  V30 5128 H 474.193 -0.931577 3.13032 0
M  V30 5129 H 472.852 1.17319 3.47321 0
M  V30 5130 H 472.5 -0.802619 4.96555 0
M  V30 5131 H 472.2 0.725293 5.83107 0
M  V30 5132 H 473.724 -0.166376 6.10373 0
M  V30 5133 H 475.138 1.98601 5.37802 0
M  V30 5134 H 473.535 2.77512 5.32078 0
M  V30 5135 H 474.605 2.86752 3.91026 0
M  V30 5136 N 475.948 -1.35272 0.808662 0
M  V30 5137 C 477.364 -1.51806 0.492653 0
M  V30 5138 C 477.564 -1.7574 -0.985778 0
M  V30 5139 O 476.62 -1.80003 -1.77074 0
M  V30 5140 C 477.933 -2.69202 1.33981 0
M  V30 5141 C 479.481 -2.8308 1.33547 0
M  V30 5142 C 479.956 -4.03502 2.16679 0
M  V30 5143 N 481.447 -4.10684 2.14227 0
M  V30 5144 C 482.182 -5.02984 2.75308 0
M  V30 5145 N 481.678 -6.00603 3.45323 0
M  V30 5146 N 483.471 -4.95746 2.64938 0
M  V30 5147 H 475.622 -1.17993 1.76611 0
M  V30 5148 H 477.885 -0.577476 0.751814 0
M  V30 5149 H 477.591 -2.581 2.38909 0
M  V30 5150 H 477.465 -3.63854 0.994491 0
M  V30 5151 H 479.852 -2.93631 0.294036 0
M  V30 5152 H 479.933 -1.89278 1.72068 0
M  V30 5153 H 479.577 -3.93711 3.20864 0
M  V30 5154 H 479.507 -4.96489 1.75517 0
M  V30 5155 H 481.998 -3.40802 1.63285 0
M  V30 5156 H 482.311 -6.67633 3.89212 0
M  V30 5157 H 480.656 -6.0077 3.49428 0
M  V30 5158 H 483.847 -4.18439 2.09825 0
M  V30 5159 H 484.02 -5.67487 3.12829 0
M  V30 5160 N 477.426 -0.562348 -1.47226 0
M  V30 5161 C 478.703 0.0256985 -1.95583 0
M  V30 5162 C 479.083 1.48032 -1.50498 0
M  V30 5163 O 478.431 2.15973 -0.746181 0
M  V30 5164 C 478.641 -0.125129 -3.48776 0
M  V30 5165 C 479.989 0.0175728 -4.24596 0
M  V30 5166 O 481.013 -0.0529341 -3.56161 0
M  V30 5167 O 479.872 0.170145 -5.46235 0
M  V30 5168 H 476.966 0.0612565 -0.824728 0
M  V30 5169 H 479.512 -0.629233 -1.57603 0
M  V30 5170 H 478.284 -1.13715 -3.74412 0
M  V30 5171 H 477.907 0.567178 -3.93534 0
M  V30 5172 N 478.904 1.54736 -0.299062 0
M  V30 5173 C 480.151 2.00101 0.310784 0
M  V30 5174 C 480.479 1.18746 1.54045 0
M  V30 5175 O 479.734 0.251198 1.94081 0
M  V30 5176 C 480.033 3.50199 0.713835 0
M  V30 5177 C 479.699 4.48997 -0.413873 0
M  V30 5178 C 478.361 4.7573 -0.723462 0
M  V30 5179 C 480.713 5.07839 -1.17257 0
M  V30 5180 C 478.041 5.5857 -1.79491 0
M  V30 5181 C 480.393 5.91844 -2.23392 0
M  V30 5182 C 479.057 6.16889 -2.54959 0
M  V30 5183 H 478.327 0.732221 0.113724 0
M  V30 5184 H 480.974 1.86888 -0.417756 0
M  V30 5185 H 479.279 3.61012 1.52243 0
M  V30 5186 H 480.976 3.82723 1.19684 0
M  V30 5187 H 477.566 4.28292 -0.162476 0
M  V30 5188 H 481.75 4.87188 -0.946651 0
M  V30 5189 H 477.006 5.76213 -2.04423 0
M  V30 5190 H 481.18 6.36465 -2.8264 0
M  V30 5191 H 478.807 6.80869 -3.38114 0
M  V30 5192 N 480.382 0.0267497 1.57577 0
M  V30 5193 C 481.612 -0.6617 1.95717 0
M  V30 5194 C 482.02 -1.66331 0.901706 0
M  V30 5195 O 481.363 -1.83273 -0.125241 0
M  V30 5196 C 481.425 -1.42649 3.29987 0
M  V30 5197 C 481.089 -0.583482 4.5326 0
M  V30 5198 C 482.086 0.140221 5.19711 0
M  V30 5199 C 479.771 -0.521581 4.99585 0
M  V30 5200 C 481.765 0.914523 6.30805 0
M  V30 5201 C 479.452 0.256428 6.10562 0
M  V30 5202 C 480.45 0.973189 6.76031 0
M  V30 5203 O 480.138 1.73845 7.84878 0
M  V30 5204 H 479.87 -0.187483 0.649481 0
M  V30 5205 H 482.424 0.0820847 2.05236 0
M  V30 5206 H 480.654 -2.21536 3.16952 0
M  V30 5207 H 482.343 -2.00282 3.53047 0
M  V30 5208 H 483.109 0.101716 4.84893 0
M  V30 5209 H 478.988 -1.06904 4.48433 0
M  V30 5210 H 482.532 1.4745 6.81839 0
M  V30 5211 H 478.429 0.296657 6.44818 0
M  V30 5212 H 479.197 1.65797 8.01532 0
M  V30 5213 N 481.861 -1.55662 -0.24637 0
M  V30 5214 C 482.824 -1.89558 -1.28842 0
M  V30 5215 C 483.824 -0.772082 -1.41052 0
M  V30 5216 O 485.014 -1.04007 -1.39743 0
M  V30 5217 C 482.146 -2.12449 -2.66605 0
M  V30 5218 H 483.339 -2.82735 -1.00004 0
M  V30 5219 H 480.892 -1.48562 -0.485684 0
M  V30 5220 H 481.627 -1.21742 -3.00582 0
M  V30 5221 H 481.412 -2.94273 -2.59125 0
M  V30 5222 H 482.902 -2.39854 -3.41847 0
M  V30 5223 N 483.339 0.512053 -1.4905 0
M  V30 5224 C 484.567 1.29116 -1.61669 0
M  V30 5225 C 484.982 1.86655 -0.283787 0
M  V30 5226 O 484.339 1.67293 0.729331 0
M  V30 5227 C 484.39 2.4293 -2.67707 0
M  V30 5228 O 484.111 1.87758 -3.95826 0
M  V30 5229 C 485.612 3.34476 -2.90931 0
M  V30 5230 H 482.832 0.392009 -0.544583 0
M  V30 5231 H 485.376 0.615881 -1.95006 0
M  V30 5232 H 483.531 3.06308 -2.37179 0
M  V30 5233 H 483.945 2.62393 -4.54148 0
M  V30 5234 H 485.419 4.10642 -3.68886 0
M  V30 5235 H 485.896 3.90801 -2.00427 0
M  V30 5236 H 486.502 2.76874 -3.22832 0
M  V30 5237 N 484.817 1.37938 0.762283 0
M  V30 5238 C 486.228 1.30094 1.33912 0
M  V30 5239 C 486.579 -0.0472026 1.96143 0
M  V30 5240 O 485.704 -0.94917 1.94473 0
M  V30 5241 C 486.299 2.35592 2.43478 0
M  V30 5242 C 484.858 2.31353 2.96905 0
M  V30 5243 C 484.005 2.18919 1.70205 0
M  V30 5244 H 486.956 1.48423 0.561816 0
M  V30 5245 H 486.977 2.00806 3.23199 0
M  V30 5246 H 486.489 3.33701 1.98155 0
M  V30 5247 H 484.59 1.36799 3.46579 0
M  V30 5248 H 484.703 3.25147 3.51875 0
M  V30 5249 H 483.067 1.65624 1.93496 0
M  V30 5250 H 483.85 3.18956 1.26973 0
M  V30 5251 N 486.295 -0.989507 1.22664 0
M  V30 5252 C 487.245 -2.06478 0.967005 0
M  V30 5253 C 488.229 -1.60682 -0.0836374 0
M  V30 5254 O 489.421 -1.76541 0.127322 0
M  V30 5255 C 486.55 -3.38861 0.550313 0
M  V30 5256 C 485.636 -3.9128 1.63587 0
M  V30 5257 N 486.027 -4.16884 2.86429 0
M  V30 5258 C 484.325 -4.1972 1.50834 0
M  V30 5259 C 485.026 -4.5954 3.56648 0
M  V30 5260 N 484.002 -4.63434 2.84131 0
M  V30 5261 H 487.804 -2.24219 1.90008 0
M  V30 5262 H 485.318 -1.17153 1.12467 0
M  V30 5263 H 487.315 -4.15465 0.345612 0
M  V30 5264 H 485.975 -3.22518 -0.375822 0
M  V30 5265 H 486.986 -4.04976 3.22823 0
M  V30 5266 H 483.663 -4.1243 0.648643 0
M  V30 5267 H 485.053 -4.87944 4.61909 0
M  V30 5268 N 487.773 -1.03688 -1.18687 0
M  V30 5269 C 488.703 -0.645407 -2.24403 0
M  V30 5270 C 489.684 0.349511 -1.66471 0
M  V30 5271 O 490.869 0.230453 -1.92828 0
M  V30 5272 C 487.999 -0.00365337 -3.473 0
M  V30 5273 C 486.953 -0.921705 -4.17958 0
M  V30 5274 C 486.279 -0.144629 -5.34504 0
M  V30 5275 C 487.579 -2.23909 -4.71871 0
M  V30 5276 H 489.273 -1.52917 -2.57404 0
M  V30 5277 H 486.819 -0.736711 -1.23728 0
M  V30 5278 H 488.772 0.281908 -4.20456 0
M  V30 5279 H 487.496 0.914963 -3.13522 0
M  V30 5280 H 486.155 -1.19159 -3.46694 0
M  V30 5281 H 485.803 0.776274 -4.96974 0
M  V30 5282 H 485.503 -0.756206 -5.82714 0
M  V30 5283 H 487.027 0.134004 -6.10453 0
M  V30 5284 H 488.441 -2.0145 -5.36741 0
M  V30 5285 H 486.838 -2.8033 -5.30599 0
M  V30 5286 H 487.908 -2.88822 -3.895 0
M  V30 5287 N 489.251 1.34841 -0.815825 0
M  V30 5288 C 490.497 1.98793 -0.401129 0
M  V30 5289 C 490.83 1.64548 1.03139 0
M  V30 5290 O 490.105 0.913487 1.71714 0
M  V30 5291 C 490.388 3.55143 -0.595409 0
M  V30 5292 C 490.241 3.99155 -2.07352 0
M  V30 5293 C 491.56 4.40092 -0.0268823 0
M  V30 5294 H 488.679 0.722146 -0.14722 0
M  V30 5295 H 491.321 1.59847 -1.02707 0
M  V30 5296 H 489.471 3.8845 -0.0625779 0
M  V30 5297 H 491.143 3.76216 -2.66945 0
M  V30 5298 H 489.386 3.49726 -2.56659 0
M  V30 5299 H 490.057 5.07971 -2.1603 0
M  V30 5300 H 492.533 4.13298 -0.482042 0
M  V30 5301 H 491.409 5.48562 -0.19267 0
M  V30 5302 H 491.67 4.29016 1.06759 0
M  V30 5303 N 490.729 0.570148 1.46925 0
M  V30 5304 C 491.975 0.0510284 2.02736 0
M  V30 5305 C 492.308 -1.3006 1.44215 0
M  V30 5306 O 491.583 -1.84932 0.602521 0
M  V30 5307 C 491.866 -0.028215 3.60089 0
M  V30 5308 C 491.719 1.35142 4.29018 0
M  V30 5309 C 493.038 -0.735181 4.33916 0
M  V30 5310 H 490.157 0.0200178 0.736728 0
M  V30 5311 H 492.799 0.73493 1.75211 0
M  V30 5312 H 490.949 -0.610648 3.83671 0
M  V30 5313 H 492.621 1.97806 4.16738 0
M  V30 5314 H 490.864 1.9226 3.88868 0
M  V30 5315 H 491.535 1.24857 5.37694 0
M  V30 5316 H 494.011 -0.240519 4.15404 0
M  V30 5317 H 492.887 -0.759622 5.43618 0
M  V30 5318 H 493.148 -1.79397 4.04066 0
M  V30 5319 N 492.207 -1.54576 0.307264 0
M  V30 5320 C 493.17 -2.22423 -0.553224 0
M  V30 5321 C 494.17 -1.21231 -1.05639 0
M  V30 5322 O 495.36 -1.45923 -0.951419 0
M  V30 5323 C 492.492 -2.91552 -1.76664 0
M  V30 5324 H 493.685 -2.99874 0.0396484 0
M  V30 5325 H 491.238 -1.56192 0.0581629 0
M  V30 5326 H 491.973 -2.18196 -2.39918 0
M  V30 5327 H 491.758 -3.65738 -1.41343 0
M  V30 5328 H 493.248 -3.43292 -2.37783 0
M  V30 5329 N 493.685 -0.035106 -1.57561 0
M  V30 5330 C 494.635 0.954034 -2.0708 0
M  V30 5331 C 495.619 1.2818 -0.972558 0
M  V30 5332 O 496.811 1.26691 -1.23606 0
M  V30 5333 C 493.94 2.23442 -2.60631 0
M  V30 5334 C 493.026 1.93475 -3.77396 0
M  V30 5335 N 493.417 1.33802 -4.87781 0
M  V30 5336 C 491.715 2.23434 -3.85996 0
M  V30 5337 C 492.416 1.21103 -5.68954 0
M  V30 5338 N 491.392 1.70855 -5.16052 0
M  V30 5339 H 495.194 0.487731 -2.89825 0
M  V30 5340 H 492.708 0.169759 -1.6151 0
M  V30 5341 H 494.705 2.95183 -2.94402 0
M  V30 5342 H 493.365 2.70693 -1.79319 0
M  V30 5343 H 494.376 1.01227 -5.07911 0
M  V30 5344 H 491.053 2.73317 -3.15601 0
M  V30 5345 H 492.443 0.749105 -6.67711 0
M  V30 5346 N 495.163 1.55791 0.238111 0
M  V30 5347 C 496.391 1.82098 0.982233 0
M  V30 5348 C 496.806 0.612025 1.78605 0
M  V30 5349 O 496.163 -0.419381 1.77616 0
M  V30 5350 C 496.214 3.0673 1.91309 0
M  V30 5351 O 495.935 4.2296 1.14179 0
M  V30 5352 C 497.436 3.45903 2.77248 0
M  V30 5353 H 494.656 0.605748 0.288635 0
M  V30 5354 H 497.2 2.02862 0.258341 0
M  V30 5355 H 495.355 2.87991 2.59114 0
M  V30 5356 H 495.769 4.93653 1.7722 0
M  V30 5357 H 497.243 4.36189 3.38295 0
M  V30 5358 H 497.72 2.66891 3.48806 0
M  V30 5359 H 498.326 3.67024 2.14881 0
M  V30 5360 N 496.642 -0.504142 1.49319 0
M  V30 5361 C 497.589 -1.60603 1.65756 0
M  V30 5362 C 498.559 -1.58425 0.499082 0
M  V30 5363 O 499.744 -1.76459 0.725728 0
M  V30 5364 C 496.884 -2.98764 1.72726 0
M  V30 5365 C 495.997 -3.10982 2.99857 0
M  V30 5366 C 495.132 -4.39857 2.97824 0
M  V30 5367 C 494.171 -4.45697 4.19548 0
M  V30 5368 N 493.308 -5.65995 4.15444 0
M  V30 5369 H 498.148 -1.45895 2.59843 0
M  V30 5370 H 495.685 -0.709891 1.28837 0
M  V30 5371 H 497.643 -3.78839 1.74747 0
M  V30 5372 H 496.273 -3.12183 0.821075 0
M  V30 5373 H 495.325 -2.23991 3.07461 0
M  V30 5374 H 496.637 -3.11157 3.89849 0
M  V30 5375 H 495.791 -5.2825 2.98391 0
M  V30 5376 H 494.53 -4.42242 2.05604 0
M  V30 5377 H 493.535 -3.55707 4.19229 0
M  V30 5378 H 494.76 -4.4503 5.12957 0
M  V30 5379 H 492.706 -5.69229 3.26059 0
M  V30 5380 H 492.623 -5.67773 4.99169 0
M  V30 5381 H 493.891 -6.56604 4.20109 0
M  V30 5382 N 498.12 -1.38341 -0.754957 0
M  V30 5383 C 499.368 -1.34208 -1.51105 0
M  V30 5384 C 499.689 0.0677634 -1.94882 0
M  V30 5385 O 498.959 1.01517 -1.67544 0
M  V30 5386 H 497.539 -0.493819 -0.560493 0
M  V30 5387 H 500.201 -1.73005 -0.897507 0
M  V30 5388 H 499.297 -1.99203 -2.4026 0
M  V30 5389 N 499.598 0.982988 -1.23187 0
M  V30 5390 C 500.826 1.75921 -1.08901 0
M  V30 5391 C 501.241 1.85341 0.359719 0
M  V30 5392 O 500.598 1.33072 1.24892 0
M  V30 5393 C 500.649 3.18742 -1.70545 0
M  V30 5394 O 500.37 3.09814 -3.09753 0
M  V30 5395 C 501.871 4.1277 -1.61667 0
M  V30 5396 H 499.091 0.552166 -0.381252 0
M  V30 5397 H 501.635 1.23516 -1.62985 0
M  V30 5398 H 499.79 3.68182 -1.20501 0
M  V30 5399 H 500.204 3.99703 -3.39614 0
M  V30 5400 H 501.678 5.10697 -2.09506 0
M  V30 5401 H 502.155 4.3542 -0.575009 0
M  V30 5402 H 502.761 3.69232 -2.11064 0
M  V30 5403 N 501.076 1.04316 1.18135 0
M  V30 5404 C 502.492 0.762858 1.40188 0
M  V30 5405 C 502.692 -0.646547 1.90846 0
M  V30 5406 O 501.748 -1.41036 2.0944 0
M  V30 5407 C 503.061 1.81106 2.40044 0
M  V30 5408 C 504.609 1.83226 2.53766 0
M  V30 5409 C 505.084 2.87044 3.56889 0
M  V30 5410 N 506.575 2.85951 3.64398 0
M  V30 5411 C 507.31 3.62932 4.43923 0
M  V30 5412 N 506.806 4.49672 5.27036 0
M  V30 5413 N 508.599 3.51411 4.38711 0
M  V30 5414 H 500.75 1.95264 0.835805 0
M  V30 5415 H 503.013 0.845017 0.429709 0
M  V30 5416 H 502.719 2.82214 2.09876 0
M  V30 5417 H 502.593 1.64529 3.39426 0
M  V30 5418 H 504.98 0.827869 2.8325 0
M  V30 5419 H 505.061 2.03879 1.54489 0
M  V30 5420 H 504.705 3.87663 3.28145 0
M  V30 5421 H 504.635 2.63645 4.5585 0
M  V30 5422 H 507.126 2.23051 3.05052 0
M  V30 5423 H 507.439 5.05116 5.84874 0
M  V30 5424 H 505.784 4.53738 5.26447 0
M  V30 5425 H 508.975 2.83047 3.72829 0
M  V30 5426 H 509.148 4.11654 5.00445 0
M  V30 5427 N 502.554 -1.34406 0.822964 0
M  V30 5428 C 503.8 -1.98578 0.411666 0
M  V30 5429 C 504.133 -1.65093 -1.02264 0
M  V30 5430 O 503.408 -0.92258 -1.71227 0
M  V30 5431 C 503.691 -3.54823 0.614235 0
M  V30 5432 C 503.544 -3.9805 2.09466 0
M  V30 5433 C 504.863 -4.40071 0.050221 0
M  V30 5434 H 501.982 -0.721355 0.151047 0
M  V30 5435 H 504.624 -1.59301 1.03554 0
M  V30 5436 H 502.774 -3.88411 0.0831774 0
M  V30 5437 H 504.446 -3.74795 2.68936 0
M  V30 5438 H 502.689 -3.4836 2.5851 0
M  V30 5439 H 503.36 -5.06819 2.18721 0
M  V30 5440 H 505.836 -4.13037 0.503953 0
M  V30 5441 H 504.712 -5.48452 0.221759 0
M  V30 5442 H 504.973 -4.29576 -1.04482 0
M  V30 5443 N 504.032 -0.577932 -1.46621 0
M  V30 5444 C 505.278 -0.0617793 -2.02706 0
M  V30 5445 C 505.611 1.29294 -1.44903 0
M  V30 5446 O 504.886 1.8461 -0.61232 0
M  V30 5447 C 505.169 0.00911824 -3.60099 0
M  V30 5448 C 505.022 -1.37416 -4.28295 0
M  V30 5449 C 506.341 0.712159 -4.343 0
M  V30 5450 H 503.46 -0.0239246 -0.736612 0
M  V30 5451 H 506.102 -0.744211 -1.74818 0
M  V30 5452 H 504.252 0.590292 -3.83989 0
M  V30 5453 H 505.924 -2.00013 -4.15683 0
M  V30 5454 H 504.167 -1.94319 -3.87843 0
M  V30 5455 H 504.838 -1.27707 -5.37024 0
M  V30 5456 H 507.314 0.218486 -4.15526 0
M  V30 5457 H 506.19 0.730782 -5.44014 0
M  V30 5458 H 506.451 1.77251 -4.05012 0
M  V30 5459 N 505.51 1.54411 -0.315457 0
M  V30 5460 C 506.473 2.22713 0.54142 0
M  V30 5461 C 507.473 1.2179 1.04995 0
M  V30 5462 O 508.663 1.46426 0.943667 0
M  V30 5463 C 505.795 2.92485 1.75116 0
M  V30 5464 H 506.988 2.99849 -0.0555508 0
M  V30 5465 H 504.541 1.56159 -0.0664453 0
M  V30 5466 H 505.276 2.19466 2.38758 0
M  V30 5467 H 505.061 3.66483 1.39401 0
M  V30 5468 H 506.551 3.44548 2.35959 0
M  V30 5469 N 506.988 0.0434614 1.5754 0
M  V30 5470 C 507.951 -0.918696 2.09982 0
M  V30 5471 C 508.951 -1.24488 1.01781 0
M  V30 5472 O 510.141 -1.18284 1.27885 0
M  V30 5473 C 507.273 -2.23093 2.57764 0
M  V30 5474 H 508.466 -0.464229 2.96285 0
M  V30 5475 H 506.019 -0.204818 1.54952 0
M  V30 5476 H 506.754 -2.73137 1.74832 0
M  V30 5477 H 506.539 -2.00724 3.36827 0
M  V30 5478 H 508.029 -2.92028 2.98512 0
M  V30 5479 N 508.466 -1.55915 -0.229846 0
M  V30 5480 C 509.712 -1.79718 -0.952517 0
M  V30 5481 C 510.067 -0.61514 -1.82301 0
M  V30 5482 O 509.36 0.391098 -1.87566 0
M  V30 5483 C 509.554 -3.06845 -1.8325 0
M  V30 5484 C 509.383 -4.37302 -1.04868 0
M  V30 5485 C 508.153 -4.99749 -0.746932 0
M  V30 5486 C 510.351 -5.12599 -0.417989 0
M  V30 5487 N 508.333 -6.13871 0.0591596 0
M  V30 5488 C 509.704 -6.19488 0.251879 0
M  V30 5489 C 511.759 -4.96804 -0.33018 0
M  V30 5490 C 510.462 -7.12299 1.00115 0
M  V30 5491 C 512.488 -5.90007 0.4056 0
M  V30 5492 C 511.85 -6.96317 1.06404 0
M  V30 5493 H 507.949 -0.709382 -0.329091 0
M  V30 5494 H 510.533 -1.93406 -0.224114 0
M  V30 5495 H 508.704 -2.94456 -2.53279 0
M  V30 5496 H 510.436 -3.18874 -2.49202 0
M  V30 5497 H 507.191 -4.61518 -1.06292 0
M  V30 5498 H 507.615 -6.75497 0.450798 0
M  V30 5499 H 512.257 -4.14675 -0.824898 0
M  V30 5500 H 509.975 -7.93916 1.50741 0
M  V30 5501 H 513.561 -5.79862 0.474436 0
M  V30 5502 H 512.441 -7.67194 1.62429 0
M  V30 5503 N 509.944 0.496216 -1.49584 0
M  V30 5504 C 511.221 1.25755 -1.49816 0
M  V30 5505 C 511.601 2.09859 -0.228572 0
M  V30 5506 O 510.949 2.14449 0.788908 0
M  V30 5507 C 511.159 2.11017 -2.7798 0
M  V30 5508 C 512.507 2.70047 -3.27658 0
M  V30 5509 O 513.531 2.21281 -2.79129 0
M  V30 5510 O 512.39 3.58834 -4.1219 0
M  V30 5511 H 509.484 0.569322 -0.599834 0
M  V30 5512 H 512.03 0.510094 -1.61852 0
M  V30 5513 H 510.802 1.48879 -3.61871 0
M  V30 5514 H 510.425 2.92947 -2.68827 0
M  V30 5515 N 511.423 1.38739 0.74761 0
M  V30 5516 C 512.333 1.38696 1.89211 0
M  V30 5517 C 513.349 0.283303 1.71678 0
M  V30 5518 O 514.525 0.522713 1.94498 0
M  V30 5519 C 511.59 1.21662 3.24653 0
M  V30 5520 C 510.651 2.41886 3.54669 0
M  V30 5521 C 509.884 2.25655 4.83648 0
M  V30 5522 O 510.107 1.25339 5.56459 0
M  V30 5523 O 509.041 3.14372 5.13277 0
M  V30 5524 H 512.867 2.35143 1.92202 0
M  V30 5525 H 510.452 1.19721 0.893708 0
M  V30 5526 H 512.334 1.14246 4.05618 0
M  V30 5527 H 511.009 0.283024 3.2246 0
M  V30 5528 H 509.916 2.54877 2.73841 0
M  V30 5529 H 511.249 3.33895 3.61628 0
M  V30 5530 N 512.901 -0.976442 1.23707 0
M  V30 5531 C 514.317 -1.24341 1.00058 0
M  V30 5532 C 514.517 -1.99315 -0.295932 0
M  V30 5533 O 513.573 -2.3123 -1.01435 0
M  V30 5534 C 514.886 -2.03909 2.21001 0
M  V30 5535 C 516.434 -2.17034 2.25534 0
M  V30 5536 C 516.909 -2.99994 3.46075 0
M  V30 5537 N 518.4 -3.07578 3.46338 0
M  V30 5538 C 519.135 -3.72104 4.36264 0
M  V30 5539 N 518.631 -4.3842 5.36432 0
M  V30 5540 N 520.424 -3.69029 4.23998 0
M  V30 5541 H 512.575 -0.47428 2.07037 0
M  V30 5542 H 514.838 -0.272167 0.908091 0
M  V30 5543 H 514.544 -1.56198 3.15111 0
M  V30 5544 H 514.418 -3.04654 2.22409 0
M  V30 5545 H 516.805 -2.63951 1.31961 0
M  V30 5546 H 516.886 -1.15664 2.28156 0
M  V30 5547 H 516.53 -2.53772 4.39957 0
M  V30 5548 H 516.46 -4.01541 3.40694 0
M  V30 5549 H 518.951 -2.60397 2.73865 0
M  V30 5550 H 519.264 -4.85447 6.013 0
M  V30 5551 H 517.609 -4.37116 5.40328 0
M  V30 5552 H 520.8 -3.16392 3.44984 0
M  V30 5553 H 520.973 -4.19034 4.94282 0
M  V30 5554 N 514.379 -1.04941 -1.1758 0
M  V30 5555 C 515.342 -0.652456 -2.19717 0
M  V30 5556 C 516.342 0.294745 -1.58076 0
M  V30 5557 O 517.532 0.0789579 -1.74021 0
M  V30 5558 C 514.664 0.0420712 -3.40874 0
M  V30 5559 H 515.857 -1.55642 -2.5635 0
M  V30 5560 H 513.41 -0.842995 -1.31618 0
M  V30 5561 H 514.145 0.95943 -3.09783 0
M  V30 5562 H 513.93 -0.638844 -3.86861 0
M  V30 5563 H 515.42 0.306 -4.16477 0
M  V30 5564 N 515.857 1.33968 -0.830081 0
M  V30 5565 C 517.087 2.01987 -0.434142 0
M  V30 5566 C 517.495 1.62639 0.96671 0
M  V30 5567 O 516.838 0.831151 1.63822 0
M  V30 5568 C 516.9 3.5648 -0.465018 0
M  V30 5569 C 516.564 4.19176 -1.82045 0
M  V30 5570 C 517.561 4.39181 -2.78237 0
M  V30 5571 C 515.246 4.55792 -2.11089 0
M  V30 5572 C 517.24 4.94937 -4.01642 0
M  V30 5573 C 514.927 5.11258 -3.34752 0
M  V30 5574 C 515.925 5.30775 -4.29845 0
M  V30 5575 O 515.613 5.85064 -5.51322 0
M  V30 5576 H 515.345 0.653847 -0.171639 0
M  V30 5577 H 517.899 1.72066 -1.12171 0
M  V30 5578 H 516.129 3.8569 0.279284 0
M  V30 5579 H 517.818 4.05804 -0.0881334 0
M  V30 5580 H 518.584 4.11249 -2.57097 0
M  V30 5581 H 514.463 4.39901 -1.3787 0
M  V30 5582 H 518.007 5.10086 -4.75876 0
M  V30 5583 H 513.904 5.38619 -3.55753 0
M  V30 5584 H 514.672 6.03489 -5.5294 0
M  V30 5585 N 517.335 0.585699 1.46312 0
M  V30 5586 C 518.746 0.159938 1.86014 0
M  V30 5587 C 519.097 -1.27775 1.48889 0
M  V30 5588 O 518.222 -1.96559 0.90519 0
M  V30 5589 C 518.817 0.283485 3.37612 0
M  V30 5590 C 517.376 -0.0874256 3.76298 0
M  V30 5591 C 516.523 0.618055 2.70325 0
M  V30 5592 H 519.474 0.793737 1.37425 0
M  V30 5593 H 519.495 -0.490348 3.77327 0
M  V30 5594 H 519.007 1.32995 3.64601 0
M  V30 5595 H 517.108 -1.13391 3.54927 0
M  V30 5596 H 517.221 0.290975 4.78216 0
M  V30 5597 H 515.585 0.057993 2.54634 0
M  V30 5598 H 516.368 1.66623 3.00153 0
M  V30 5599 N 518.813 -1.54241 0.323641 0
M  V30 5600 C 520.059 -2.01572 -0.272089 0
M  V30 5601 C 520.414 -1.20774 -1.49771 0
M  V30 5602 O 519.707 -0.281821 -1.89516 0
M  V30 5603 C 519.901 -3.5129 -0.658031 0
M  V30 5604 C 519.73 -4.46582 0.528645 0
M  V30 5605 C 518.5 -4.94737 1.02777 0
M  V30 5606 C 520.698 -4.95416 1.38086 0
M  V30 5607 N 518.68 -5.73933 2.17885 0
M  V30 5608 C 520.051 -5.72537 2.3791 0
M  V30 5609 C 522.106 -4.77559 1.40861 0
M  V30 5610 C 520.809 -6.33702 3.40314 0
M  V30 5611 C 522.835 -5.39559 2.42136 0
M  V30 5612 C 522.197 -6.16532 3.40688 0
M  V30 5613 H 518.296 -0.779425 -0.0634072 0
M  V30 5614 H 520.88 -1.8922 0.458697 0
M  V30 5615 H 519.051 -3.63888 -1.35795 0
M  V30 5616 H 520.783 -3.85388 -1.23524 0
M  V30 5617 H 517.538 -4.69796 0.599046 0
M  V30 5618 H 517.962 -6.18209 2.75947 0
M  V30 5619 H 522.604 -4.17611 0.660352 0
M  V30 5620 H 520.322 -6.9277 4.16047 0
M  V30 5621 H 523.908 -5.27659 2.45086 0
M  V30 5622 H 522.788 -6.63655 4.1777 0
M  V30 5623 N 520.291 -0.0518155 -1.57515 0
M  V30 5624 C 521.707 0.304735 -1.56664 0
M  V30 5625 C 521.907 1.71395 -1.05953 0
M  V30 5626 O 520.963 2.42123 -0.716414 0
M  V30 5627 C 522.276 0.132614 -3.00407 0
M  V30 5628 C 523.824 0.20367 -3.12337 0
M  V30 5629 C 524.299 0.0600706 -4.57961 0
M  V30 5630 N 525.79 0.116326 -4.63054 0
M  V30 5631 C 526.525 0.0293363 -5.73392 0
M  V30 5632 N 526.021 -0.110038 -6.92713 0
M  V30 5633 N 527.814 0.0849651 -5.62036 0
M  V30 5634 H 519.965 -0.973056 -1.888 0
M  V30 5635 H 522.228 -0.377781 -0.869474 0
M  V30 5636 H 521.934 -0.839019 -3.41546 0
M  V30 5637 H 521.808 0.893376 -3.66468 0
M  V30 5638 H 524.195 1.16578 -2.71097 0
M  V30 5639 H 524.276 -0.587857 -2.48954 0
M  V30 5640 H 523.92 -0.898715 -4.99886 0
M  V30 5641 H 523.85 0.87075 -5.19351 0
M  V30 5642 H 526.341 0.22327 -3.7724 0
M  V30 5643 H 526.654 -0.169104 -7.72615 0
M  V30 5644 H 524.999 -0.145132 -6.94848 0
M  V30 5645 H 528.19 0.192411 -4.67704 0
M  V30 5646 H 528.363 0.0137131 -6.47999 0
M  V30 5647 N 521.769 1.56035 0.221574 0
M  V30 5648 C 522.679 1.95581 1.29558 0
M  V30 5649 C 523.695 0.859639 1.51282 0
M  V30 5650 O 524.871 1.16321 1.64413 0
M  V30 5651 C 521.936 2.26447 2.62531 0
M  V30 5652 C 520.997 3.49632 2.4911 0
M  V30 5653 C 520.23 3.79017 3.75742 0
M  V30 5654 O 520.453 3.10077 4.78757 0
M  V30 5655 O 519.387 4.72507 3.72855 0
M  V30 5656 H 523.213 2.8711 0.990035 0
M  V30 5657 H 520.798 1.43244 0.424434 0
M  V30 5658 H 522.68 2.47494 3.41064 0
M  V30 5659 H 521.355 1.38092 2.92766 0
M  V30 5660 H 520.262 3.33864 1.68777 0
M  V30 5661 H 521.595 4.3837 2.23814 0
M  V30 5662 N 523.247 -0.488276 1.49845 0
M  V30 5663 C 524.157 -1.61451 1.70207 0
M  V30 5664 C 525.173 -1.63877 0.584846 0
M  V30 5665 O 526.349 -1.82063 0.861107 0
M  V30 5666 C 523.414 -2.9776 1.77594 0
M  V30 5667 C 522.475 -3.05861 3.01243 0
M  V30 5668 C 521.708 -4.35668 3.08268 0
M  V30 5669 O 521.931 -5.25197 2.22541 0
M  V30 5670 O 520.865 -4.49005 4.00847 0
M  V30 5671 H 524.691 -1.47199 2.65643 0
M  V30 5672 H 522.276 -0.665939 1.33737 0
M  V30 5673 H 524.158 -3.7875 1.84732 0
M  V30 5674 H 522.833 -3.12248 0.8534 0
M  V30 5675 H 521.74 -2.24012 2.99616 0
M  V30 5676 H 523.073 -2.96304 3.9302 0
M  V30 5677 N 524.725 -1.39134 -0.740242 0
M  V30 5678 C 525.972 -1.36071 -1.49969 0
M  V30 5679 C 526.3 0.0450245 -1.94448 0
M  V30 5680 O 525.555 1.02482 -1.66721 0
M  V30 5681 C 525.854 -2.27457 -2.75678 0
M  V30 5682 C 525.52 -3.75185 -2.50094 0
M  V30 5683 C 524.182 -4.15439 -2.42825 0
M  V30 5684 C 526.534 -4.68643 -2.28086 0
M  V30 5685 C 523.862 -5.4722 -2.11584 0
M  V30 5686 C 526.214 -6.00695 -1.98363 0
M  V30 5687 C 524.878 -6.40018 -1.8956 0
M  V30 5688 H 524.148 -0.497921 -0.548777 0
M  V30 5689 H 526.795 -1.71599 -0.85007 0
M  V30 5690 H 525.1 -1.8503 -3.45356 0
M  V30 5691 H 526.797 -2.22384 -3.33686 0
M  V30 5692 H 523.387 -3.43279 -2.56627 0
M  V30 5693 H 527.571 -4.3838 -2.32672 0
M  V30 5694 H 522.827 -5.76615 -2.03287 0
M  V30 5695 H 527.001 -6.72644 -1.80341 0
M  V30 5696 H 524.628 -7.42051 -1.65117 0
M  V30 5697 N 526.204 0.969867 -1.24223 0
M  V30 5698 C 527.154 2.04913 -0.999732 0
M  V30 5699 C 528.138 1.60795 0.0580636 0
M  V30 5700 O 529.33 1.76317 -0.155392 0
M  V30 5701 C 526.459 3.37942 -0.604154 0
M  V30 5702 C 525.545 3.88628 -1.69791 0
M  V30 5703 N 525.936 4.12274 -2.93025 0
M  V30 5704 C 524.234 4.17268 -1.57492 0
M  V30 5705 C 524.935 4.53808 -3.63914 0
M  V30 5706 N 523.911 4.58855 -2.91468 0
M  V30 5707 H 527.713 2.21168 -1.93551 0
M  V30 5708 H 525.227 1.15349 -1.14317 0
M  V30 5709 H 527.224 4.14863 -0.411665 0
M  V30 5710 H 525.884 3.23075 0.324465 0
M  V30 5711 H 526.895 3.99789 -3.29225 0
M  V30 5712 H 523.572 4.11346 -0.714175 0
M  V30 5713 H 524.962 4.80534 -4.69614 0
M  V30 5714 N 527.682 1.05563 1.17022 0
M  V30 5715 C 528.612 0.681026 2.23348 0
M  V30 5716 C 529.593 -0.322983 1.67005 0
M  V30 5717 O 530.778 -0.199746 1.9317 0
M  V30 5718 C 527.908 0.0589053 3.4725 0
M  V30 5719 C 526.862 0.988082 4.16438 0
M  V30 5720 C 526.188 0.229646 5.34207 0
M  V30 5721 C 527.488 2.31388 4.68249 0
M  V30 5722 H 529.182 1.56993 2.54938 0
M  V30 5723 H 526.728 0.756302 1.2254 0
M  V30 5724 H 528.681 -0.214982 4.20851 0
M  V30 5725 H 527.405 -0.864968 3.14938 0
M  V30 5726 H 526.064 1.24659 3.44754 0
M  V30 5727 H 525.712 -0.697111 4.98146 0
M  V30 5728 H 525.412 0.848815 5.81437 0
M  V30 5729 H 526.936 -0.0368694 6.10589 0
M  V30 5730 H 528.35 2.09964 5.33468 0
M  V30 5731 H 526.747 2.88736 5.26072 0
M  V30 5732 H 527.817 2.94982 3.84855 0
M  V30 5733 N 529.16 -1.33526 0.837174 0
M  V30 5734 C 530.09 -2.31764 0.284206 0
M  V30 5735 C 531.071 -1.58896 -0.607142 0
M  V30 5736 O 532.256 -1.86798 -0.531047 0
M  V30 5737 C 529.386 -3.43029 -0.542962 0
M  V30 5738 C 528.34 -4.27255 0.252451 0
M  V30 5739 C 527.666 -5.3012 -0.69836 0
M  V30 5740 C 528.966 -5.01229 1.46858 0
M  V30 5741 H 530.66 -2.78262 1.10502 0
M  V30 5742 H 528.206 -1.3378 0.532812 0
M  V30 5743 H 530.159 -4.1078 -0.940096 0
M  V30 5744 H 528.883 -2.95216 -1.39697 0
M  V30 5745 H 527.542 -3.61127 0.631124 0
M  V30 5746 H 527.19 -4.78564 -1.54872 0
M  V30 5747 H 526.89 -5.87353 -0.170274 0
M  V30 5748 H 528.414 -6.00737 -1.09305 0
M  V30 5749 H 529.828 -5.61756 1.14469 0
M  V30 5750 H 528.225 -5.68104 1.93333 0
M  V30 5751 H 529.295 -4.301 2.23924 0
M  V30 5752 N 530.638 -0.59345 -1.46 0
M  V30 5753 C 532.049 -0.169801 -1.85926 0
M  V30 5754 C 532.4 1.26984 -1.49565 0
M  V30 5755 O 531.525 1.96076 -0.915602 0
M  V30 5756 C 532.12 -0.301385 -3.37457 0
M  V30 5757 C 530.679 0.0674684 -3.7634 0
M  V30 5758 C 529.826 -0.632383 -2.69993 0
M  V30 5759 H 532.777 -0.801014 -1.37002 0
M  V30 5760 H 532.798 0.470331 -3.77582 0
M  V30 5761 H 532.31 -1.34927 -3.63891 0
M  V30 5762 H 530.411 1.11507 -3.55523 0
M  V30 5763 H 530.524 -0.316332 -4.78055 0
M  V30 5764 H 528.888 -0.0714961 -2.546 0
M  V30 5765 H 529.671 -1.68212 -2.99265 0
M  V30 5766 N 532.116 1.54067 -0.331816 0
M  V30 5767 C 533.063 2.24623 0.530372 0
M  V30 5768 C 534.033 1.24009 1.10503 0
M  V30 5769 O 535.218 1.52712 1.14384 0
M  V30 5770 C 532.358 3.01374 1.68129 0
M  V30 5771 C 531.471 4.16821 1.13507 0
M  V30 5772 C 530.606 4.81085 2.25234 0
M  V30 5773 C 529.645 5.88621 1.67903 0
M  V30 5774 N 528.782 6.46713 2.73326 0
M  V30 5775 H 533.622 2.97898 -0.0778607 0
M  V30 5776 H 531.159 1.47014 -0.0501965 0
M  V30 5777 H 533.117 3.44125 2.35868 0
M  V30 5778 H 531.747 2.30419 2.26069 0
M  V30 5779 H 530.799 3.78796 0.348979 0
M  V30 5780 H 532.111 4.94203 0.675633 0
M  V30 5781 H 531.265 5.26846 3.00862 0
M  V30 5782 H 530.004 4.03102 2.74518 0
M  V30 5783 H 529.009 5.42254 0.907773 0
M  V30 5784 H 530.234 6.68506 1.19487 0
M  V30 5785 H 528.18 5.71599 3.21886 0
M  V30 5786 H 528.097 7.19532 2.3197 0
M  V30 5787 H 529.365 6.97129 3.48758 0
M  V30 5788 N 533.594 0.0601682 1.57485 0
M  V30 5789 C 534.504 -0.926121 2.15546 0
M  V30 5790 C 535.52 -1.33532 1.11558 0
M  V30 5791 O 536.696 -1.4104 1.4377 0
M  V30 5792 C 533.761 -2.17952 2.69625 0
M  V30 5793 C 532.822 -1.82783 3.88444 0
M  V30 5794 C 532.055 -3.02148 4.39935 0
M  V30 5795 O 532.278 -4.15803 3.90466 0
M  V30 5796 O 531.212 -2.82639 5.31412 0
M  V30 5797 H 535.038 -0.462289 3.00161 0
M  V30 5798 H 532.623 -0.162246 1.48516 0
M  V30 5799 H 534.505 -2.91474 3.04337 0
M  V30 5800 H 533.18 -2.63456 1.88077 0
M  V30 5801 H 532.087 -1.06549 3.58606 0
M  V30 5802 H 533.42 -1.42072 4.7125 0
M  V30 5803 N 535.072 -1.5615 -0.213296 0
M  V30 5804 C 536.32 -1.79191 -0.934612 0
M  V30 5805 C 536.641 -0.630112 -1.84539 0
M  V30 5806 O 535.911 0.35257 -1.92701 0
M  V30 5807 H 534.491 -0.660937 -0.348097 0
M  V30 5808 H 537.153 -1.93618 -0.22317 0
M  V30 5809 H 536.249 -2.71656 -1.53654 0
M  V30 5810 N 536.55 0.480323 -1.50102 0
M  V30 5811 C 537.796 1.23489 -1.60867 0
M  V30 5812 C 538.129 1.91809 -0.303827 0
M  V30 5813 O 537.404 1.81694 0.694092 0
M  V30 5814 C 537.687 2.28578 -2.78252 0
M  V30 5815 C 537.54 1.64624 -4.18592 0
M  V30 5816 C 538.859 3.2997 -2.91218 0
M  V30 5817 H 535.978 0.447605 -0.585507 0
M  V30 5818 H 538.62 0.530005 -1.82458 0
M  V30 5819 H 536.77 2.88697 -2.59974 0
M  V30 5820 H 538.442 1.08173 -4.48438 0
M  V30 5821 H 536.685 0.949645 -4.23278 0
M  V30 5822 H 537.356 2.40946 -4.96638 0
M  V30 5823 H 539.832 2.79864 -3.07921 0
M  V30 5824 H 538.708 4.00839 -3.74993 0
M  V30 5825 H 538.969 3.93541 -2.0144 0
M  V30 5826 N 538.028 1.39524 0.732853 0
M  V30 5827 C 539.444 1.21176 1.03868 0
M  V30 5828 C 539.644 0.0748448 2.01361 0
M  V30 5829 O 538.7 -0.57281 2.45917 0
M  V30 5830 C 540.013 2.54667 1.59892 0
M  V30 5831 C 541.561 2.6153 1.71962 0
M  V30 5832 C 542.036 3.95248 2.31394 0
M  V30 5833 N 543.527 3.96899 2.38801 0
M  V30 5834 C 544.262 4.97138 2.85729 0
M  V30 5835 N 543.758 6.07775 3.32537 0
M  V30 5836 N 545.551 4.84516 2.84957 0
M  V30 5837 H 537.702 2.12225 0.086304 0
M  V30 5838 H 539.965 0.942614 0.100907 0
M  V30 5839 H 539.671 3.38423 0.95721 0
M  V30 5840 H 539.545 2.74538 2.58668 0
M  V30 5841 H 541.932 1.78156 2.35254 0
M  V30 5842 H 542.013 2.45507 0.718327 0
M  V30 5843 H 541.657 4.79054 1.68729 0
M  V30 5844 H 541.587 4.08593 3.32204 0
M  V30 5845 H 544.078 3.16998 2.05719 0
M  V30 5846 H 544.391 6.8017 3.66862 0
M  V30 5847 H 542.736 6.11366 3.30541 0
M  V30 5848 H 545.927 3.97185 2.47713 0
M  V30 5849 H 546.1 5.62783 3.21215 0
M  V30 5850 N 539.506 -0.963266 1.24736 0
M  V30 5851 C 540.436 -2.07628 1.06832 0
M  V30 5852 C 541.417 -1.70088 -0.0200566 0
M  V30 5853 O 542.602 -1.93636 0.147854 0
M  V30 5854 C 539.732 -3.40636 0.677069 0
M  V30 5855 C 538.686 -3.9215 1.71471 0
M  V30 5856 C 538.012 -5.21553 1.1784 0
M  V30 5857 C 539.312 -4.19493 3.11164 0
M  V30 5858 H 541.006 -2.22864 1.9993 0
M  V30 5859 H 538.552 -1.07093 0.96266 0
M  V30 5860 H 540.505 -4.17941 0.538792 0
M  V30 5861 H 539.229 -3.25313 -0.289612 0
M  V30 5862 H 537.888 -3.17005 1.84128 0
M  V30 5863 H 537.536 -5.02593 0.202195 0
M  V30 5864 H 537.236 -5.56988 1.87185 0
M  V30 5865 H 538.76 -6.01463 1.05233 0
M  V30 5866 H 540.174 -4.87487 3.01711 0
M  V30 5867 H 538.571 -4.66165 3.77902 0
M  V30 5868 H 539.641 -3.26097 3.58871 0
M  V30 5869 N 540.985 -1.06182 -1.16461 0
M  V30 5870 C 542.262 -0.691364 -1.82974 0
M  V30 5871 C 542.642 0.827377 -1.9421 0
M  V30 5872 O 541.99 1.73723 -1.48434 0
M  V30 5873 C 542.2 -1.39199 -3.20038 0
M  V30 5874 C 543.548 -1.53647 -3.95825 0
M  V30 5875 O 544.572 -1.35181 -3.29552 0
M  V30 5876 O 543.431 -1.83932 -5.14618 0
M  V30 5877 H 540.525 -0.244605 -0.789998 0
M  V30 5878 H 543.071 -1.16203 -1.23673 0
M  V30 5879 H 541.843 -2.42766 -3.06888 0
M  V30 5880 H 541.466 -0.911335 -3.87015 0
M  V30 5881 N 542.463 1.3308 -0.844243 0
M  V30 5882 C 543.874 1.7992 -0.498566 0
M  V30 5883 C 544.225 1.69808 0.982834 0
M  V30 5884 O 543.35 1.25051 1.7661 0
M  V30 5885 C 543.945 3.26677 -0.898204 0
M  V30 5886 C 542.504 3.71513 -0.604583 0
M  V30 5887 C 541.651 2.54393 -1.10362 0
M  V30 5888 H 544.602 1.20526 -1.03244 0
M  V30 5889 H 544.623 3.79918 -0.21039 0
M  V30 5890 H 544.135 3.34004 -1.97643 0
M  V30 5891 H 542.236 3.69708 0.46335 0
M  V30 5892 H 542.349 4.64755 -1.16358 0
M  V30 5893 H 540.713 2.49246 -0.524273 0
M  V30 5894 H 541.496 2.6448 -2.18873 0
M  V30 5895 N 543.941 0.601185 1.45683 0
M  V30 5896 C 545.166 0.0982245 2.07167 0
M  V30 5897 C 545.591 -1.20546 1.44396 0
M  V30 5898 O 544.949 -1.73247 0.534347 0
M  V30 5899 C 544.997 -0.0346976 3.60583 0
M  V30 5900 O 544.101 -1.08657 3.97828 0
M  V30 5901 H 543.442 0.0711618 0.660176 0
M  V30 5902 H 545.972 0.829376 1.87036 0
M  V30 5903 H 545.982 -0.234969 4.07323 0
M  V30 5904 H 544.657 0.917265 4.05659 0
M  V30 5905 H 543.234 -0.863275 3.6277 0
M  V30 5906 N 545.419 -1.53889 0.339982 0
M  V30 5907 C 546.644 -2.05741 -0.261798 0
M  V30 5908 C 547.069 -1.21354 -1.43718 0
M  V30 5909 O 546.427 -0.22645 -1.7988 0
M  V30 5910 C 546.475 -3.54542 -0.658228 0
M  V30 5911 O 545.579 -3.7302 -1.75869 0
M  V30 5912 H 544.92 -0.662529 -0.0441672 0
M  V30 5913 H 547.45 -1.98568 0.493161 0
M  V30 5914 H 547.46 -3.9711 -0.936368 0
M  V30 5915 H 546.135 -4.15412 0.201358 0
M  V30 5916 H 544.712 -3.42355 -1.47809 0
M  V30 5917 N 546.897 -0.0685191 -1.57451 0
M  V30 5918 C 547.827 0.89747 -2.15564 0
M  V30 5919 C 548.808 1.31266 -1.08181 0
M  V30 5920 O 549.993 1.38429 -1.36202 0
M  V30 5921 C 547.123 2.16623 -2.71463 0
M  V30 5922 C 546.077 1.89054 -3.83982 0
M  V30 5923 C 545.403 3.22532 -4.26471 0
M  V30 5924 C 546.703 1.1984 -5.08366 0
M  V30 5925 H 548.397 0.413373 -2.96533 0
M  V30 5926 H 545.943 0.197391 -1.42641 0
M  V30 5927 H 547.896 2.84614 -3.10761 0
M  V30 5928 H 546.62 2.67269 -1.8771 0
M  V30 5929 H 545.279 1.23469 -3.45183 0
M  V30 5930 H 544.927 3.71013 -3.39644 0
M  V30 5931 H 544.627 3.04879 -5.02317 0
M  V30 5932 H 546.151 3.91727 -4.68383 0
M  V30 5933 H 547.565 1.77896 -5.45001 0
M  V30 5934 H 545.962 1.12456 -5.89469 0
M  V30 5935 H 547.032 0.176996 -4.84577 0
M  V30 5936 N 548.375 1.56261 0.205012 0
M  V30 5937 C 549.621 1.80306 0.9283 0
M  V30 5938 C 549.954 0.640932 1.83319 0
M  V30 5939 O 549.229 -0.359032 1.91158 0
M  V30 5940 C 549.512 3.14547 1.75306 0
M  V30 5941 C 549.365 4.41236 0.873562 0
M  V30 5942 C 550.684 3.45382 2.72762 0
M  V30 5943 H 547.803 0.655929 0.336044 0
M  V30 5944 H 550.445 1.88984 0.196211 0
M  V30 5945 H 548.595 3.0728 2.37721 0
M  V30 5946 H 550.267 4.60539 0.264887 0
M  V30 5947 H 548.51 4.33427 0.179773 0
M  V30 5948 H 549.181 5.31639 1.48541 0
M  V30 5949 H 551.657 3.52884 2.20481 0
M  V30 5950 H 550.533 4.40449 3.2756 0
M  V30 5951 H 550.794 2.68377 3.51321 0
M  V30 5952 N 549.853 -0.472356 1.50355 0
M  V30 5953 C 550.785 -1.58795 1.65278 0
M  V30 5954 C 551.798 -1.53782 0.534313 0
M  V30 5955 O 552.987 -1.59193 0.807446 0
M  V30 5956 C 550.087 -2.97672 1.62001 0
M  V30 5957 C 549.26 -3.27568 2.89859 0
M  V30 5958 C 548.319 -4.45993 2.79242 0
M  V30 5959 O 547.345 -4.46364 3.53197 0
M  V30 5960 N 548.547 -5.47578 1.92713 0
M  V30 5961 H 551.312 -1.46411 2.61503 0
M  V30 5962 H 548.873 -0.660751 1.47803 0
M  V30 5963 H 550.865 -3.74862 1.52513 0
M  V30 5964 H 549.435 -3.03832 0.735159 0
M  V30 5965 H 548.655 -2.39003 3.13483 0
M  V30 5966 H 549.943 -3.44352 3.74565 0
M  V30 5967 H 549.341 -5.50099 1.31939 0
M  V30 5968 H 547.898 -6.23757 1.8913 0
M  V30 5969 N 551.331 -1.39911 -0.725443 0
M  V30 5970 C 552.577 -1.38862 -1.48624 0
M  V30 5971 C 552.932 0.0125913 -1.92396 0
M  V30 5972 O 552.225 0.981046 -1.64578 0
M  V30 5973 C 552.419 -2.30368 -2.7325 0
M  V30 5974 C 552.248 -3.79247 -2.41665 0
M  V30 5975 C 551.018 -4.48119 -2.3349 0
M  V30 5976 C 553.216 -4.70988 -2.06579 0
M  V30 5977 N 551.198 -5.82282 -1.94476 0
M  V30 5978 C 552.569 -5.93873 -1.78087 0
M  V30 5979 C 554.624 -4.58917 -1.9313 0
M  V30 5980 C 553.327 -7.06036 -1.37499 0
M  V30 5981 C 555.353 -5.71012 -1.53946 0
M  V30 5982 C 554.715 -6.92976 -1.26345 0
M  V30 5983 H 550.814 -0.563394 -0.54232 0
M  V30 5984 H 553.398 -1.75542 -0.842213 0
M  V30 5985 H 551.569 -1.95831 -3.35417 0
M  V30 5986 H 553.301 -2.20245 -3.39521 0
M  V30 5987 H 550.056 -4.01677 -2.50904 0
M  V30 5988 H 550.48 -6.53307 -1.77535 0
M  V30 5989 H 555.122 -3.65149 -2.13134 0
M  V30 5990 H 552.84 -7.99697 -1.16237 0
M  V30 5991 H 556.426 -5.63664 -1.44132 0
M  V30 5992 H 555.306 -7.78243 -0.964787 0
M  V30 5993 N 552.809 0.956637 -1.25245 0
M  V30 5994 C 553.739 2.07058 -1.07931 0
M  V30 5995 C 554.72 1.70096 0.0110361 0
M  V30 5996 O 555.905 1.93555 -0.158121 0
M  V30 5997 C 553.035 3.40272 -0.695124 0
M  V30 5998 C 551.989 3.91235 -1.73549 0
M  V30 5999 C 551.315 5.20921 -1.20604 0
M  V30 6000 C 552.615 4.17837 -3.13385 0
M  V30 6001 H 554.309 2.218 -2.01109 0
M  V30 6002 H 551.855 1.06581 -0.968326 0
M  V30 6003 H 553.808 4.1765 -0.560949 0
M  V30 6004 H 552.532 3.25462 0.272355 0
M  V30 6005 H 551.191 3.16025 -1.85807 0
M  V30 6006 H 550.839 5.02479 -0.228846 0
M  V30 6007 H 550.539 5.55987 -1.90136 0
M  V30 6008 H 552.063 6.00897 -1.08421 0
M  V30 6009 H 553.477 4.8588 -3.04292 0
M  V30 6010 H 551.874 4.64154 -3.80369 0
M  V30 6011 H 552.944 3.2419 -3.60595 0
M  V30 6012 N 554.287 1.06798 1.15896 0
M  V30 6013 C 555.235 0.677525 2.22514 0
M  V30 6014 C 556.229 -0.308994 1.66558 0
M  V30 6015 O 557.435 -0.173308 1.79164 0
M  V30 6016 H 553.81 0.200994 0.724642 0
M  V30 6017 H 555.781 1.5865 2.52731 0
M  V30 6018 C 554.53 0.0854153 3.47595 0
M  V30 6019 H 553.853 0.835645 3.90969 0
M  V30 6020 H 555.293 -0.150199 4.23734 0
M  V30 6021 C 553.752 -1.1724 3.15843 0
M  V30 6022 O 554.282 -2.25965 3.32119 0
M  V30 6023 N 552.488 -1.07636 2.69931 0
M  V30 6024 H 552.035 -0.191559 2.56887 0
M  V30 6025 H 551.993 -1.91876 2.4906 0
M  V30 6026 N 555.766 -1.3263 0.851289 0
M  V30 6027 C 556.991 -2.02097 0.466006 0
M  V30 6028 C 557.416 -1.63574 -0.928709 0
M  V30 6029 O 556.774 -0.834665 -1.60944 0
M  V30 6030 C 556.822 -3.55425 0.608737 0
M  V30 6031 O 555.926 -4.10827 -0.359878 0
M  V30 6032 H 555.267 -0.636911 0.187724 0
M  V30 6033 H 557.797 -1.69253 1.14955 0
M  V30 6034 H 557.807 -4.04986 0.495006 0
M  V30 6035 H 556.482 -3.82806 1.62581 0
M  V30 6036 H 555.059 -3.72349 -0.202666 0
M  V30 6037 N 557.244 -0.608902 -1.45362 0
M  V30 6038 C 558.154 0.110969 -2.34337 0
M  V30 6039 C 559.17 0.859007 -1.51318 0
M  V30 6040 O 560.346 0.816296 -1.84116 0
M  V30 6041 C 557.411 1.09494 -3.28956 0
M  V30 6042 C 556.472 0.348718 -4.27881 0
M  V30 6043 C 555.705 1.28582 -5.17979 0
M  V30 6044 O 555.928 2.52369 -5.11533 0
M  V30 6045 O 554.862 0.782172 -5.96796 0
M  V30 6046 H 558.688 -0.620258 -2.97299 0
M  V30 6047 H 556.273 -0.36916 -1.44767 0
M  V30 6048 H 558.155 1.66163 -3.87257 0
M  V30 6049 H 556.83 1.80717 -2.68557 0
M  V30 6050 H 555.737 -0.260465 -3.73192 0
M  V30 6051 H 557.07 -0.323049 -4.91139 0
M  V30 6052 N 558.722 1.53707 -0.348139 0
M  V30 6053 C 559.685 2.23812 0.494058 0
M  V30 6054 C 560.685 1.23989 1.02388 0
M  V30 6055 O 561.875 1.48395 0.912396 0
M  V30 6056 C 559.007 2.96133 1.68872 0
M  V30 6057 H 560.2 2.99663 -0.119141 0
M  V30 6058 H 557.753 1.55983 -0.0995539 0
M  V30 6059 H 558.488 2.24481 2.34049 0
M  V30 6060 H 558.273 3.69357 1.31596 0
M  V30 6061 H 559.763 3.49475 2.28597 0
M  V30 6062 N 560.2 0.0768682 1.57412 0
M  V30 6063 C 561.133 -0.924685 2.08626 0
M  V30 6064 C 562.111 -1.28792 0.992542 0
M  V30 6065 O 563.295 -1.39634 1.26628 0
M  V30 6066 C 560.422 -2.23131 2.54814 0
M  V30 6067 C 559.468 -2.01928 3.75669 0
M  V30 6068 S 560.301 -1.27397 5.20125 0
M  V30 6069 C 561.457 -2.59329 5.69648 0
M  V30 6070 H 561.69 -0.488928 2.93252 0
M  V30 6071 H 559.223 -0.136014 1.538 0
M  V30 6072 H 561.181 -2.98226 2.82084 0
M  V30 6073 H 559.842 -2.63831 1.70447 0
M  V30 6074 H 559.035 -2.98639 4.05993 0
M  V30 6075 H 558.637 -1.34967 3.48798 0
M  V30 6076 H 560.929 -3.55394 5.76803 0
M  V30 6077 H 561.872 -2.33608 6.68456 0
M  V30 6078 H 562.28 -2.66767 4.9749 0
M  V30 6079 N 561.678 -1.56367 -0.196722 0
M  V30 6080 C 562.61 -1.90941 -1.26784 0
M  V30 6081 C 563.623 -0.799928 -1.41792 0
M  V30 6082 O 564.812 -1.07833 -1.42247 0
M  V30 6083 C 561.912 -2.12477 -2.6402 0
M  V30 6084 C 561.085 -3.43616 -2.70641 0
M  V30 6085 C 560.144 -3.54284 -3.89062 0
M  V30 6086 O 559.17 -4.2712 -3.76241 0
M  V30 6087 N 560.372 -2.87252 -5.04447 0
M  V30 6088 H 563.137 -2.83417 -0.974417 0
M  V30 6089 H 560.698 -1.57215 -0.386649 0
M  V30 6090 H 562.69 -2.16904 -3.41665 0
M  V30 6091 H 561.26 -1.26508 -2.85857 0
M  V30 6092 H 560.48 -3.51072 -1.79283 0
M  V30 6093 H 561.768 -4.29958 -2.72054 0
M  V30 6094 H 561.166 -2.27901 -5.17762 0
M  V30 6095 H 559.723 -2.97308 -5.80044 0
M  V30 6096 N 563.156 0.464375 -1.50603 0
M  V30 6097 C 564.103 1.56152 -1.69956 0
M  V30 6098 C 565.073 1.57046 -0.54091 0
M  V30 6099 O 566.258 1.74473 -0.772258 0
M  V30 6100 C 563.398 2.94079 -1.80586 0
M  V30 6101 C 562.511 3.02923 -3.07996 0
M  V30 6102 C 561.646 4.31806 -3.09382 0
M  V30 6103 C 560.685 4.34417 -4.31218 0
M  V30 6104 N 559.822 5.54782 -4.30304 0
M  V30 6105 H 564.662 1.38955 -2.6362 0
M  V30 6106 H 562.199 0.675482 -1.30674 0
M  V30 6107 H 564.157 3.74073 -1.8473 0
M  V30 6108 H 562.787 3.09896 -0.903556 0
M  V30 6109 H 561.839 2.1576 -3.13292 0
M  V30 6110 H 563.151 3.00712 -3.97962 0
M  V30 6111 H 562.305 5.20153 -3.12292 0
M  V30 6112 H 561.044 4.36636 -2.17257 0
M  V30 6113 H 560.049 3.44467 -4.28512 0
M  V30 6114 H 561.274 4.31273 -5.24576 0
M  V30 6115 H 559.22 5.60384 -3.41037 0
M  V30 6116 H 559.137 5.54339 -5.14047 0
M  V30 6117 H 560.405 6.45235 -4.3737 0
M  V30 6118 N 564.634 1.40294 0.718013 0
M  V30 6119 C 565.584 1.36847 1.82365 0
M  V30 6120 C 566.568 0.246424 1.59002 0
M  V30 6121 O 567.76 0.485336 1.70216 0
M  V30 6122 C 564.889 1.23105 3.20469 0
M  V30 6123 C 563.975 2.4008 3.49603 0
M  V30 6124 N 564.366 3.65562 3.49568 0
M  V30 6125 C 562.664 2.33407 3.80049 0
M  V30 6126 C 563.365 4.43015 3.76978 0
M  V30 6127 N 562.341 3.72823 3.95606 0
M  V30 6128 H 566.143 2.31811 1.80668 0
M  V30 6129 H 563.657 1.34031 0.91703 0
M  V30 6130 H 565.654 1.18718 3.9964 0
M  V30 6131 H 564.314 0.291056 3.23393 0
M  V30 6132 H 565.325 3.98756 3.30476 0
M  V30 6133 H 562.002 1.47762 3.90478 0
M  V30 6134 H 563.392 5.51859 3.83276 0
M  V30 6135 N 566.112 -0.949982 1.2575 0
M  V30 6136 C 567.358 -1.69766 1.10938 0
M  V30 6137 C 567.691 -1.91056 -0.348028 0
M  V30 6138 O 566.966 -1.48488 -1.25625 0
M  V30 6139 C 567.249 -3.07779 1.86933 0
M  V30 6140 C 567.102 -2.9387 3.4053 0
M  V30 6141 C 568.421 -4.07749 1.65616 0
M  V30 6142 H 565.54 -0.616144 0.404396 0
M  V30 6143 H 568.182 -1.10394 1.54639 0
M  V30 6144 H 566.332 -3.58462 1.4979 0
M  V30 6145 H 568.004 -2.50476 3.87375 0
M  V30 6146 H 566.247 -2.29686 3.68004 0
M  V30 6147 H 566.918 -3.91719 3.88922 0
M  V30 6148 H 569.394 -3.65994 1.97959 0
M  V30 6149 H 568.27 -5.02348 2.21218 0
M  V30 6150 H 568.531 -4.38029 0.598595 0
M  V30 6151 N 567.59 -1.07411 -1.15328 0
M  V30 6152 C 569.006 -0.799759 -1.38116 0
M  V30 6153 C 569.206 0.59572 -1.92493 0
M  V30 6154 O 568.262 1.35433 -2.13106 0
M  V30 6155 C 569.575 -1.87407 -2.35158 0
M  V30 6156 C 571.123 -1.89889 -2.48819 0
M  V30 6157 C 571.598 -2.96406 -3.49153 0
M  V30 6158 N 573.089 -2.95512 -3.56689 0
M  V30 6159 C 573.824 -3.74575 -4.34144 0
M  V30 6160 N 573.32 -4.63488 -5.14928 0
M  V30 6161 N 575.113 -3.62919 -4.29239 0
M  V30 6162 H 567.264 -1.97411 -0.78374 0
M  V30 6163 H 569.527 -0.856113 -0.407154 0
M  V30 6164 H 569.233 -2.8768 -2.0232 0
M  V30 6165 H 569.107 -1.73471 -3.34944 0
M  V30 6166 H 571.494 -0.902677 -2.80955 0
M  V30 6167 H 571.575 -2.07904 -1.49029 0
M  V30 6168 H 571.219 -3.96227 -3.17752 0
M  V30 6169 H 571.149 -2.75638 -4.48699 0
M  V30 6170 H 573.64 -2.31061 -2.99031 0
M  V30 6171 H 573.953 -5.20445 -5.71276 0
M  V30 6172 H 572.298 -4.67537 -5.14232 0
M  V30 6173 H 575.489 -2.92833 -3.65194 0
M  V30 6174 H 575.662 -4.24777 -4.89355 0
M  V30 6175 N 569.068 1.32177 -0.85831 0
M  V30 6176 C 570.296 2.01313 -0.477582 0
M  V30 6177 C 570.711 1.6449 0.926736 0
M  V30 6178 O 570.068 0.868096 1.60531 0
M  V30 6179 C 570.119 3.56293 -0.611337 0
M  V30 6180 O 569.84 3.91794 -1.96034 0
M  V30 6181 C 571.341 4.42702 -0.230093 0
M  V30 6182 H 568.561 0.644323 -0.187322 0
M  V30 6183 H 571.105 1.68674 -1.15626 0
M  V30 6184 H 569.26 3.87395 0.0196494 0
M  V30 6185 H 569.674 4.86513 -1.95973 0
M  V30 6186 H 571.148 5.50727 -0.374674 0
M  V30 6187 H 571.625 4.3129 0.829779 0
M  V30 6188 H 572.231 4.16997 -0.836302 0
M  V30 6189 N 570.547 0.616602 1.45037 0
M  V30 6190 C 571.477 -0.0840787 2.33349 0
M  V30 6191 C 572.458 -0.849641 1.4736 0
M  V30 6192 O 573.643 -0.818407 1.76113 0
M  V30 6193 C 570.773 -1.07604 3.3021 0
M  V30 6194 C 569.727 -0.423096 4.25904 0
M  V30 6195 C 569.053 -1.52394 5.12523 0
M  V30 6196 C 570.353 0.661457 5.18095 0
M  V30 6197 H 572.047 0.653333 2.92185 0
M  V30 6198 H 569.593 0.315634 1.40498 0
M  V30 6199 H 571.546 -1.57485 3.90866 0
M  V30 6200 H 570.27 -1.84416 2.69552 0
M  V30 6201 H 568.929 0.05493 3.66559 0
M  V30 6202 H 568.577 -2.28257 4.48227 0
M  V30 6203 H 568.277 -1.09251 5.77354 0
M  V30 6204 H 569.801 -2.02485 5.76049 0
M  V30 6205 H 571.215 0.246353 5.7277 0
M  V30 6206 H 569.612 1.01517 5.91451 0
M  V30 6207 H 570.682 1.53446 4.59981 0
M  V30 6208 N 572.025 -1.5352 0.356285 0
M  V30 6209 C 573.255 -2.05236 -0.236983 0
M  V30 6210 C 573.663 -1.23016 -1.43749 0
M  V30 6211 O 573.006 -0.2615 -1.81829 0
M  V30 6212 C 573.068 -3.52549 -0.7035 0
M  V30 6213 C 572.732 -4.55425 0.379059 0
M  V30 6214 C 573.729 -5.0524 1.22592 0
M  V30 6215 C 571.414 -4.99425 0.536638 0
M  V30 6216 C 573.408 -5.97647 2.21578 0
M  V30 6217 C 571.095 -5.9164 1.52988 0
M  V30 6218 C 572.093 -6.4064 2.3679 0
M  V30 6219 O 571.781 -7.31039 3.34421 0
M  V30 6220 H 571.513 -0.674346 -0.047254 0
M  V30 6221 H 574.067 -1.98962 0.510238 0
M  V30 6222 H 572.297 -3.56331 -1.50217 0
M  V30 6223 H 573.986 -3.87171 -1.21873 0
M  V30 6224 H 574.752 -4.72002 1.11532 0
M  V30 6225 H 570.631 -4.60879 -0.105834 0
M  V30 6226 H 574.175 -6.35816 2.87025 0
M  V30 6227 H 570.072 -6.24293 1.64099 0
M  V30 6228 H 570.84 -7.49009 3.30041 0
M  V30 6229 N 573.503 -0.0852151 -1.57369 0
M  V30 6230 C 574.919 0.271436 -1.57275 0
M  V30 6231 C 575.119 1.69109 -1.09565 0
M  V30 6232 O 574.175 2.40549 -0.767611 0
M  V30 6233 C 575.488 0.0688638 -3.00621 0
M  V30 6234 C 577.036 0.137373 -3.12698 0
M  V30 6235 C 577.511 -0.0370832 -4.57985 0
M  V30 6236 N 579.002 0.0180794 -4.63196 0
M  V30 6237 C 579.737 -0.0922953 -5.73326 0
M  V30 6238 N 579.233 -0.256948 -6.92323 0
M  V30 6239 N 581.026 -0.0342702 -5.6209 0
M  V30 6240 H 573.177 -1.01288 -1.86693 0
M  V30 6241 H 575.44 -0.396138 -0.861266 0
M  V30 6242 H 575.146 -0.911277 -3.39689 0
M  V30 6243 H 575.02 0.815442 -3.6828 0
M  V30 6244 H 577.407 1.10801 -2.73509 0
M  V30 6245 H 577.488 -0.640532 -2.47651 0
M  V30 6246 H 577.132 -1.00455 -4.97867 0
M  V30 6247 H 577.062 0.760392 -5.21081 0
M  V30 6248 H 579.553 0.143202 -3.77629 0
M  V30 6249 H 579.866 -0.332949 -7.72082 0
M  V30 6250 H 578.211 -0.292487 -6.94384 0
M  V30 6251 H 581.402 0.0931605 -4.68007 0
M  V30 6252 H 581.575 -0.12374 -6.47882 0
M  V30 6253 N 574.981 1.5647 0.188427 0
M  V30 6254 C 576.258 1.71857 0.934058 0
M  V30 6255 C 576.638 0.641867 2.01105 0
M  V30 6256 O 575.986 -0.346098 2.25864 0
M  V30 6257 C 576.196 3.14431 1.5144 0
M  V30 6258 C 577.544 3.74869 1.99396 0
M  V30 6259 O 578.568 3.17601 1.61269 0
M  V30 6260 O 577.427 4.75387 2.69573 0
M  V30 6261 H 574.521 0.701186 0.438483 0
M  V30 6262 H 577.067 1.68768 0.177599 0
M  V30 6263 H 575.839 3.8427 0.738416 0
M  V30 6264 H 575.462 3.21775 2.33552 0
M  V30 6265 N 576.459 -0.456382 1.50847 0
M  V30 6266 C 577.706 -1.20736 1.62571 0
M  V30 6267 C 578.034 -1.9163 0.332904 0
M  V30 6268 O 577.289 -1.8343 -0.682058 0
M  V30 6269 C 577.588 -2.26336 2.76599 0
M  V30 6270 C 577.254 -1.7259 4.16562 0
M  V30 6271 C 575.916 -1.57654 4.54641 0
M  V30 6272 C 578.268 -1.32877 5.03977 0
M  V30 6273 C 575.596 -1.0145 5.77862 0
M  V30 6274 C 577.948 -0.7811 6.27759 0
M  V30 6275 C 576.612 -0.618488 6.64628 0
M  V30 6276 H 575.882 -0.441803 0.594888 0
M  V30 6277 H 578.529 -0.501169 1.84826 0
M  V30 6278 H 576.834 -3.0292 2.48489 0
M  V30 6279 H 578.531 -2.84227 2.82871 0
M  V30 6280 H 575.121 -1.85187 3.86528 0
M  V30 6281 H 579.305 -1.43245 4.75179 0
M  V30 6282 H 574.561 -0.876109 6.0509 0
M  V30 6283 H 578.735 -0.464783 6.94847 0
M  V30 6284 H 576.362 -0.180838 7.59985 0
M  V30 6285 N 577.937 -1.40673 -0.710563 0
M  V30 6286 C 579.183 -1.39428 -1.47267 0
M  V30 6287 C 579.516 0.00182129 -1.942 0
M  V30 6288 O 578.791 0.971387 -1.68506 0
M  V30 6289 C 579.074 -2.38812 -2.6952 0
M  V30 6290 C 578.927 -3.87467 -2.28449 0
M  V30 6291 C 580.246 -2.3566 -3.71689 0
M  V30 6292 H 577.365 -0.507768 -0.534173 0
M  V30 6293 H 580.007 -1.71843 -0.810547 0
M  V30 6294 H 578.157 -2.113 -3.26013 0
M  V30 6295 H 579.829 -4.25825 -1.77399 0
M  V30 6296 H 578.072 -4.03058 -1.60395 0
M  V30 6297 H 578.743 -4.5253 -3.16103 0
M  V30 6298 H 581.219 -2.6004 -3.24836 0
M  V30 6299 H 580.095 -3.07237 -4.54859 0
M  V30 6300 H 580.356 -1.36996 -4.20339 0
M  V30 6301 N 579.415 0.9433 -1.26252 0
M  V30 6302 C 580.826 1.50404 -1.10614 0
M  V30 6303 C 581.177 1.93666 0.31429 0
M  V30 6304 O 580.302 1.79709 1.20555 0
M  V30 6305 C 580.897 2.73336 -2.00182 0
M  V30 6306 C 579.456 3.25686 -1.88695 0
M  V30 6307 C 578.603 1.98474 -1.93658 0
M  V30 6308 H 581.554 0.759006 -1.39373 0
M  V30 6309 H 581.575 3.47567 -1.54847 0
M  V30 6310 H 581.087 2.41818 -3.03555 0
M  V30 6311 H 579.188 3.61998 -0.882489 0
M  V30 6312 H 579.301 3.92935 -2.74115 0
M  V30 6313 H 577.665 2.14278 -1.37684 0
M  V30 6314 H 578.448 1.6929 -2.98657 0
M  V30 6315 N 580.893 1.08022 1.14757 0
M  V30 6316 C 581.843 0.676345 2.17737 0
M  V30 6317 C 582.827 -0.302018 1.5804 0
M  V30 6318 O 584.019 -0.11466 1.76628 0
M  V30 6319 C 581.148 0.082984 3.432 0
M  V30 6320 C 580.234 1.0869 4.09936 0
M  V30 6321 N 580.625 2.26891 4.52055 0
M  V30 6322 C 578.923 0.921768 4.36371 0
M  V30 6323 C 579.624 2.90636 5.0389 0
M  V30 6324 N 578.6 2.18266 4.97856 0
M  V30 6325 H 582.402 1.5765 2.4804 0
M  V30 6326 H 579.916 0.954374 1.31398 0
M  V30 6327 H 581.913 -0.224289 4.16296 0
M  V30 6328 H 580.573 -0.812206 3.14378 0
M  V30 6329 H 581.584 2.6457 4.45223 0
M  V30 6330 H 578.261 0.0800499 4.17423 0
M  V30 6331 H 579.651 3.9104 5.46386 0
M  V30 6332 N 582.371 -1.3172 0.865308 0
M  V30 6333 C 583.301 -2.31109 0.333302 0
M  V30 6334 C 584.282 -1.60148 -0.573301 0
M  V30 6335 O 585.467 -1.87882 -0.491305 0
M  V30 6336 C 582.597 -3.44104 -0.470078 0
M  V30 6337 C 581.551 -4.26623 0.343021 0
M  V30 6338 C 580.877 -5.31482 -0.585756 0
M  V30 6339 C 582.177 -4.98001 1.57456 0
M  V30 6340 H 583.871 -2.75855 1.1638 0
M  V30 6341 H 581.417 -1.3262 0.561069 0
M  V30 6342 H 583.37 -4.12682 -0.852752 0
M  V30 6343 H 582.094 -2.98112 -1.33404 0
M  V30 6344 H 580.753 -3.59707 0.707583 0
M  V30 6345 H 580.401 -4.81741 -1.44686 0
M  V30 6346 H 580.101 -5.87582 -0.0456494 0
M  V30 6347 H 581.625 -6.0292 -0.965375 0
M  V30 6348 H 583.039 -5.59201 1.26359 0
M  V30 6349 H 581.436 -5.63876 2.05339 0
M  V30 6350 H 582.506 -4.25253 2.32997 0
M  V30 6351 N 583.85 -0.624285 -1.44708 0
M  V30 6352 C 585.077 -0.132919 -2.06473 0
M  V30 6353 C 585.493 1.18967 -1.46602 0
M  V30 6354 O 584.85 1.72824 -0.586341 0
M  V30 6355 C 584.901 -0.00465418 -3.615 0
M  V30 6356 O 584.622 -1.27494 -4.19138 0
M  V30 6357 C 586.123 0.516213 -4.40284 0
M  V30 6358 H 583.343 -0.0765201 -0.666623 0
M  V30 6359 H 585.887 -0.856751 -1.85688 0
M  V30 6360 H 584.042 0.669583 -3.8157 0
M  V30 6361 H 584.456 -1.11536 -5.12504 0
M  V30 6362 H 585.93 0.554994 -5.49203 0
M  V30 6363 H 586.407 1.5419 -4.11245 0
M  V30 6364 H 587.013 -0.124542 -4.25118 0
M  V30 6365 N 585.328 1.53329 -0.364422 0
M  V30 6366 C 586.258 2.28627 0.474543 0
M  V30 6367 C 587.239 1.31009 1.08492 0
M  V30 6368 O 588.424 1.59878 1.10239 0
M  V30 6369 C 585.554 3.07465 1.61501 0
M  V30 6370 C 584.508 4.1276 1.13194 0
M  V30 6371 C 583.834 4.79674 2.36255 0
M  V30 6372 C 585.134 5.21847 0.217507 0
M  V30 6373 H 586.828 2.99005 -0.153656 0
M  V30 6374 H 584.374 1.43803 -0.0753406 0
M  V30 6375 H 586.327 3.58889 2.20855 0
M  V30 6376 H 585.051 2.34775 2.27042 0
M  V30 6377 H 583.71 3.62281 0.56109 0
M  V30 6378 H 583.358 4.03557 3.00251 0
M  V30 6379 H 583.058 5.50827 2.04606 0
M  V30 6380 H 584.582 5.33892 2.96297 0
M  V30 6381 H 585.996 5.6878 0.718493 0
M  V30 6382 H 584.393 6.00099 -0.00806408 0
M  V30 6383 H 585.463 4.7921 -0.740653 0
M  V30 6384 N 586.806 0.0935595 1.57322 0
M  V30 6385 C 588.222 -0.263091 1.57417 0
M  V30 6386 C 588.422 -1.68526 1.1046 0
M  V30 6387 O 587.478 -2.40139 0.780357 0
M  V30 6388 C 588.791 -0.0529201 3.00653 0
M  V30 6389 C 590.339 -0.120788 3.12767 0
M  V30 6390 C 590.814 0.0613707 4.57959 0
M  V30 6391 N 592.305 0.00648534 4.632 0
M  V30 6392 C 593.04 0.122699 5.73269 0
M  V30 6393 N 592.536 0.29366 6.92177 0
M  V30 6394 N 594.329 0.0640787 5.62063 0
M  V30 6395 H 586.48 1.02277 1.86154 0
M  V30 6396 H 588.743 0.4007 0.859153 0
M  V30 6397 H 588.449 0.929279 3.39201 0
M  V30 6398 H 588.323 -0.795899 3.68708 0
M  V30 6399 H 590.71 -1.09349 2.74093 0
M  V30 6400 H 590.791 0.653656 2.47307 0
M  V30 6401 H 590.435 1.03093 4.97327 0
M  V30 6402 H 590.365 -0.732748 5.21477 0
M  V30 6403 H 592.856 -0.123173 3.77699 0
M  V30 6404 H 593.169 0.37389 7.71895 0
M  V30 6405 H 591.514 0.329307 6.94219 0
M  V30 6406 H 594.705 -0.0683396 4.6805 0
M  V30 6407 H 594.878 0.158097 6.47807 0
M  V30 6408 N 588.284 -1.56567 -0.180126 0
M  V30 6409 C 589.217 -1.90813 -1.25163 0
M  V30 6410 C 590.195 -0.7699 -1.43218 0
M  V30 6411 O 591.379 -1.02236 -1.58367 0
M  V30 6412 C 588.506 -2.15138 -2.61597 0
M  V30 6413 C 587.552 -3.37834 -2.60328 0
M  V30 6414 S 588.385 -4.92486 -2.1028 0
M  V30 6415 C 589.541 -5.19896 -3.48509 0
M  V30 6416 H 589.774 -2.81398 -0.959283 0
M  V30 6417 H 587.307 -1.49541 -0.3843 0
M  V30 6418 H 589.265 -2.29835 -3.40127 0
M  V30 6419 H 587.926 -1.25276 -2.88036 0
M  V30 6420 H 587.119 -3.52027 -3.60684 0
M  V30 6421 H 586.721 -3.22208 -1.8989 0
M  V30 6422 H 589.013 -5.11334 -4.44459 0
M  V30 6423 H 589.956 -6.21571 -3.39198 0
M  V30 6424 H 590.364 -4.47489 -3.44114 0
M  V30 6425 N 589.762 0.448376 -1.51087 0
M  V30 6426 C 590.692 1.55102 -1.74544 0
M  V30 6427 C 591.673 1.59357 -0.594932 0
M  V30 6428 O 592.858 1.75261 -0.836491 0
M  V30 6429 C 589.988 2.93268 -1.86041 0
M  V30 6430 C 588.942 3.03877 -3.01402 0
M  V30 6431 C 588.268 4.43914 -2.98068 0
M  V30 6432 C 589.568 2.7898 -4.41551 0
M  V30 6433 H 591.262 1.35724 -2.66869 0
M  V30 6434 H 588.808 0.651498 -1.28419 0
M  V30 6435 H 590.761 3.70356 -2.01034 0
M  V30 6436 H 589.485 3.13853 -0.903548 0
M  V30 6437 H 588.144 2.29227 -2.86096 0
M  V30 6438 H 587.792 4.6145 -2.00182 0
M  V30 6439 H 587.492 4.51944 -3.75527 0
M  V30 6440 H 589.016 5.22991 -3.1514 0
M  V30 6441 H 590.43 3.45805 -4.57265 0
M  V30 6442 H 588.827 2.98431 -5.20633 0
M  V30 6443 H 589.897 1.74663 -4.5235 0
M  V30 6444 N 591.24 1.41047 0.703093 0
M  V30 6445 C 592.15 1.44645 1.84703 0
M  V30 6446 C 593.166 0.337778 1.7069 0
M  V30 6447 O 594.342 0.584327 1.92737 0
M  V30 6448 C 591.407 1.31928 3.20618 0
M  V30 6449 C 590.468 2.53047 3.46794 0
M  V30 6450 C 589.701 2.40927 4.76224 0
M  V30 6451 O 589.924 1.42978 5.5219 0
M  V30 6452 O 588.858 3.30543 5.03016 0
M  V30 6453 H 592.684 2.41139 1.84624 0
M  V30 6454 H 590.269 1.22504 0.855167 0
M  V30 6455 H 592.151 1.27092 4.01778 0
M  V30 6456 H 590.826 0.385469 3.21397 0
M  V30 6457 H 589.733 2.6346 2.65593 0
M  V30 6458 H 591.066 3.45231 3.50822 0
M  V30 6459 N 592.718 -0.936591 1.26751 0
M  V30 6460 C 594.134 -1.21095 1.03963 0
M  V30 6461 C 594.334 -2.00156 -0.232372 0
M  V30 6462 O 593.39 -2.3434 -0.940274 0
M  V30 6463 C 594.703 -1.96775 2.27377 0
M  V30 6464 C 596.251 -2.09749 2.32324 0
M  V30 6465 C 596.726 -2.88832 3.55443 0
M  V30 6466 N 598.217 -2.96404 3.55948 0
M  V30 6467 C 598.952 -3.58036 4.47881 0
M  V30 6468 N 598.448 -4.21132 5.50109 0
M  V30 6469 N 600.241 -3.55353 4.35523 0
M  V30 6470 H 592.392 -0.408173 2.08441 0
M  V30 6471 H 594.655 -0.243139 0.91629 0
M  V30 6472 H 594.361 -1.46094 3.19921 0
M  V30 6473 H 594.235 -2.97424 2.31989 0
M  V30 6474 H 596.622 -2.5962 1.40291 0
M  V30 6475 H 596.703 -1.08347 2.31721 0
M  V30 6476 H 596.347 -2.39647 4.47808 0
M  V30 6477 H 596.277 -3.90499 3.53296 0
M  V30 6478 H 598.768 -2.51552 2.82011 0
M  V30 6479 H 599.081 -4.66071 6.16439 0
M  V30 6480 H 597.426 -4.19705 5.53961 0
M  V30 6481 H 600.617 -3.05256 3.54875 0
M  V30 6482 H 600.79 -4.03097 5.07363 0
M  V30 6483 N 594.196 -1.08629 -1.14182 0
M  V30 6484 C 595.126 -0.740003 -2.21464 0
M  V30 6485 C 596.107 0.278591 -1.67803 0
M  V30 6486 O 597.292 0.148461 -1.93632 0
M  V30 6487 C 594.422 -0.150952 -3.46972 0
M  V30 6488 C 593.376 -1.09815 -4.13672 0
M  V30 6489 C 592.702 -0.3712 -5.3341 0
M  V30 6490 C 594.002 -2.43722 -4.61949 0
M  V30 6491 H 595.696 -1.63697 -2.50686 0
M  V30 6492 H 593.242 -0.788526 -1.20492 0
M  V30 6493 H 595.195 0.103325 -4.21273 0
M  V30 6494 H 593.919 0.781164 -3.1712 0
M  V30 6495 H 592.578 -1.33756 -3.41328 0
M  V30 6496 H 592.226 0.564792 -4.99819 0
M  V30 6497 H 591.926 -1.00267 -5.78982 0
M  V30 6498 H 593.45 -0.12503 -6.10472 0
M  V30 6499 H 594.864 -2.24034 -5.27714 0
M  V30 6500 H 593.261 -3.02582 -5.18232 0
M  V30 6501 H 594.331 -3.05082 -3.76899 0
M  V30 6502 N 595.674 1.31259 -0.872281 0
M  V30 6503 C 597.085 1.78822 -0.536617 0
M  V30 6504 C 597.436 1.71855 0.946594 0
M  V30 6505 O 596.561 1.28769 1.73918 0
M  V30 6506 C 597.156 3.24698 -0.967294 0
M  V30 6507 C 595.715 3.70147 -0.683251 0
M  V30 6508 C 594.862 2.51994 -1.15733 0
M  V30 6509 H 597.813 1.18308 -1.05777 0
M  V30 6510 H 597.834 3.79386 -0.290929 0
M  V30 6511 H 597.346 3.29737 -2.04683 0
M  V30 6512 H 595.447 3.70607 0.384825 0
M  V30 6513 H 595.56 4.62183 -1.2619 0
M  V30 6514 H 593.924 2.48078 -0.577024 0
M  V30 6515 H 594.707 2.59778 -2.24434 0
M  V30 6516 N 597.152 0.631951 1.44375 0
M  V30 6517 C 598.398 0.13697 2.02337 0
M  V30 6518 C 598.731 -1.23826 1.49602 0
M  V30 6519 O 598.006 -1.8221 0.680415 0
M  V30 6520 C 598.289 0.124536 3.59885 0
M  V30 6521 C 598.142 1.53217 4.229 0
M  V30 6522 C 599.461 -0.550481 4.36644 0
M  V30 6523 H 596.58 0.051247 0.735216 0
M  V30 6524 H 599.222 0.808581 1.71936 0
M  V30 6525 H 597.372 -0.44737 3.85916 0
M  V30 6526 H 599.044 2.15303 4.07973 0
M  V30 6527 H 597.287 2.0858 3.80364 0
M  V30 6528 H 597.958 1.4755 5.31914 0
M  V30 6529 H 600.434 -0.0641154 4.16051 0
M  V30 6530 H 599.31 -0.528371 5.46351 0
M  V30 6531 H 599.571 -1.62097 4.11311 0
M  V30 6532 N 598.631 -1.53133 0.372548 0
M  V30 6533 C 600.047 -1.59585 0.02178 0
M  V30 6534 C 600.247 -1.38736 -1.46132 0
M  V30 6535 O 599.303 -1.19599 -2.22379 0
M  V30 6536 C 600.616 -2.9678 0.483959 0
M  V30 6537 C 602.164 -3.09909 0.438775 0
M  V30 6538 C 602.639 -4.49527 0.876876 0
M  V30 6539 N 604.13 -4.55663 0.832214 0
M  V30 6540 C 604.865 -5.61896 1.14281 0
M  V30 6541 N 604.361 -6.75852 1.52303 0
M  V30 6542 N 606.154 -5.51916 1.06515 0
M  V30 6543 H 598.305 -1.64936 1.33827 0
M  V30 6544 H 600.568 -0.773947 0.547458 0
M  V30 6545 H 600.274 -3.17198 1.51915 0
M  V30 6546 H 600.148 -3.7699 -0.125784 0
M  V30 6547 H 602.535 -2.89197 -0.587294 0
M  V30 6548 H 602.616 -2.31691 1.0841 0
M  V30 6549 H 602.26 -4.70979 1.90109 0
M  V30 6550 H 602.19 -5.26186 0.208727 0
M  V30 6551 H 604.681 -3.73844 0.552195 0
M  V30 6552 H 604.994 -7.52862 1.7441 0
M  V30 6553 H 603.339 -6.77226 1.56175 0
M  V30 6554 H 606.53 -4.6177 0.767235 0
M  V30 6555 H 606.703 -6.34609 1.31053 0
M  V30 6556 N 600.109 -0.101901 -1.5727 0
M  V30 6557 C 601.525 0.254739 -1.57554 0
M  V30 6558 C 601.725 1.67937 -1.11352 0
M  V30 6559 O 600.781 2.39722 -0.793081 0
M  V30 6560 C 602.094 0.036975 -3.00677 0
M  V30 6561 C 603.642 0.104199 -3.12827 0
M  V30 6562 C 604.117 -0.0856565 -4.5792 0
M  V30 6563 N 605.608 -0.0310498 -4.6319 0
M  V30 6564 C 606.343 -0.153099 -5.73196 0
M  V30 6565 N 605.839 -0.330364 -6.92012 0
M  V30 6566 N 607.632 -0.0938854 -5.62022 0
M  V30 6567 H 599.783 -1.03263 -1.85609 0
M  V30 6568 H 602.046 -0.405251 -0.857016 0
M  V30 6569 H 601.752 -0.947254 -3.38703 0
M  V30 6570 H 601.626 0.776335 -3.69124 0
M  V30 6571 H 604.013 1.07894 -2.74669 0
M  V30 6572 H 604.094 -0.666762 -2.46957 0
M  V30 6573 H 603.738 -1.05729 -4.96773 0
M  V30 6574 H 603.668 0.705082 -5.21858 0
M  V30 6575 H 606.159 0.103141 -3.77759 0
M  V30 6576 H 606.472 -0.41482 -7.71686 0
M  V30 6577 H 604.817 -0.366119 -6.94035 0
M  V30 6578 H 608.008 0.0435168 -4.6808 0
M  V30 6579 H 608.181 -0.19245 -6.47714 0
M  V30 6580 N 601.587 1.56661 0.17182 0
M  V30 6581 C 602.497 1.99604 1.2327 0
M  V30 6582 C 603.513 0.907333 1.4847 0
M  V30 6583 O 604.689 1.21492 1.60629 0
M  V30 6584 C 601.754 2.34685 2.55194 0
M  V30 6585 C 600.815 3.57381 2.3786 0
M  V30 6586 C 600.048 3.90779 3.63494 0
M  V30 6587 O 600.271 3.25152 4.6865 0
M  V30 6588 O 599.205 4.84129 3.57634 0
M  V30 6589 H 603.031 2.90114 0.898192 0
M  V30 6590 H 600.616 1.44522 0.378647 0
M  V30 6591 H 602.498 2.5822 3.33017 0
M  V30 6592 H 601.173 1.47336 2.88225 0
M  V30 6593 H 600.08 3.39064 1.5807 0
M  V30 6594 H 601.413 4.45268 2.09754 0
M  V30 6595 N 603.065 -0.440357 1.51323 0
M  V30 6596 C 604.295 -1.21079 1.67402 0
M  V30 6597 C 604.703 -1.85555 0.369599 0
M  V30 6598 O 604.046 -1.71375 -0.661525 0
M  V30 6599 C 604.108 -2.33839 2.73056 0
M  V30 6600 C 603.772 -1.89755 4.15743 0
M  V30 6601 C 604.769 -1.40268 5.0062 0
M  V30 6602 C 602.454 -1.97539 4.61826 0
M  V30 6603 C 604.448 -0.991474 6.29642 0
M  V30 6604 C 602.135 -1.56029 5.90845 0
M  V30 6605 C 603.133 -1.06915 6.7458 0
M  V30 6606 O 602.821 -0.659933 8.01187 0
M  V30 6607 H 602.553 -0.371133 0.56501 0
M  V30 6608 H 605.107 -0.528409 1.98487 0
M  V30 6609 H 603.337 -3.05345 2.37279 0
M  V30 6610 H 605.026 -2.95713 2.78044 0
M  V30 6611 H 605.792 -1.33652 4.66221 0
M  V30 6612 H 601.671 -2.34713 3.96776 0
M  V30 6613 H 605.215 -0.607425 6.9495 0
M  V30 6614 H 601.112 -1.62315 6.24759 0
M  V30 6615 H 601.88 -0.786052 8.14717 0
M  V30 6616 N 604.543 -1.41418 -0.695603 0
M  V30 6617 C 605.791 -1.40496 -1.45277 0
M  V30 6618 C 606.112 -0.0149538 -1.94994 0
M  V30 6619 O 605.382 0.9432 -1.71699 0
M  V30 6620 H 603.962 -0.517147 -0.539044 0
M  V30 6621 H 606.624 -1.76656 -0.823321 0
M  V30 6622 H 605.72 -2.09214 -2.31595 0
M  V30 6623 N 606.021 0.929856 -1.27246 0
M  V30 6624 C 607.268 1.67731 -1.13457 0
M  V30 6625 C 607.596 1.9185 0.319998 0
M  V30 6626 O 606.851 1.50524 1.25064 0
M  V30 6627 C 607.15 3.05116 -1.86115 0
M  V30 6628 C 606.816 3.00715 -3.35978 0
M  V30 6629 C 605.478 2.99222 -3.76855 0
M  V30 6630 C 607.83 2.92168 -4.3161 0
M  V30 6631 C 605.158 2.86962 -5.11732 0
M  V30 6632 C 607.51 2.81449 -5.66542 0
M  V30 6633 C 606.174 2.78305 -6.06715 0
M  V30 6634 H 605.444 0.613772 -0.415168 0
M  V30 6635 H 608.091 1.08456 -1.57827 0
M  V30 6636 H 606.396 3.68083 -1.34246 0
M  V30 6637 H 608.093 3.61822 -1.72876 0
M  V30 6638 H 604.683 3.02664 -3.03468 0
M  V30 6639 H 608.867 2.92421 -4.01003 0
M  V30 6640 H 604.123 2.82913 -5.42006 0
M  V30 6641 H 608.297 2.738 -6.40317 0
M  V30 6642 H 605.924 2.68561 -7.11181 0
M  V30 6643 N 607.499 1.09233 1.13605 0
M  V30 6644 C 608.449 0.6994 2.17008 0
M  V30 6645 C 609.433 -0.285238 1.58352 0
M  V30 6646 O 610.625 -0.09592 1.7674 0
M  V30 6647 C 607.754 0.11938 3.43092 0
M  V30 6648 C 606.84 1.13031 4.0876 0
M  V30 6649 N 607.231 2.31673 4.49623 0
M  V30 6650 C 605.529 0.967999 4.35369 0
M  V30 6651 C 606.23 2.95964 5.00779 0
M  V30 6652 N 605.206 2.23534 4.95513 0
M  V30 6653 H 609.008 1.60272 2.46354 0
M  V30 6654 H 606.522 0.968257 1.30378 0
M  V30 6655 H 608.519 -0.180122 4.16511 0
M  V30 6656 H 607.179 -0.778816 3.15221 0
M  V30 6657 H 608.19 2.69277 4.42391 0
M  V30 6658 H 604.867 0.124319 4.17315 0
M  V30 6659 H 606.257 3.96813 5.42208 0
M  V30 6660 N 608.977 -1.30795 0.87923 0
M  V30 6661 C 610.205 -2.00527 0.509548 0
M  V30 6662 C 610.62 -1.65944 -0.90045 0
M  V30 6663 O 609.977 -0.893525 -1.5913 0
M  V30 6664 C 610.028 -3.55276 0.667943 0
M  V30 6665 O 609.749 -3.88625 2.02242 0
M  V30 6666 C 611.25 -4.4228 0.300494 0
M  V30 6667 H 608.47 -0.641261 0.197549 0
M  V30 6668 H 611.014 -1.66813 1.18295 0
M  V30 6669 H 609.169 -3.87377 0.0419843 0
M  V30 6670 H 609.583 -4.83334 2.03688 0
M  V30 6671 H 611.057 -5.50061 0.462242 0
M  V30 6672 H 611.534 -4.32556 -0.76106 0
M  V30 6673 H 612.14 -4.15613 0.902536 0
M  V30 6674 N 610.455 -0.639598 -1.44038 0
M  V30 6675 C 611.68 -0.153117 -2.06834 0
M  V30 6676 C 612.105 1.16676 -1.47541 0
M  V30 6677 O 611.463 1.71769 -0.580093 0
M  V30 6678 C 611.511 -0.0609169 -3.60549 0
M  V30 6679 O 610.615 0.98071 -4.00569 0
M  V30 6680 H 609.956 -0.0886402 -0.658057 0
M  V30 6681 H 612.486 -0.878674 -1.84771 0
M  V30 6682 H 612.496 0.126892 -4.07803 0
M  V30 6683 H 611.171 -1.0245 -4.03084 0
M  V30 6684 H 609.748 0.766789 -3.64931 0
M  V30 6685 N 611.933 1.52934 -0.380664 0
M  V30 6686 C 613.344 1.86457 0.0952684 0
M  V30 6687 C 613.695 1.3007 1.46889 0
M  V30 6688 O 612.82 0.628636 2.07068 0
M  V30 6689 C 613.415 3.38323 0.179648 0
M  V30 6690 C 611.974 3.71589 0.599858 0
M  V30 6691 C 611.121 2.76228 -0.243572 0
M  V30 6692 H 614.072 1.46966 -0.59888 0
M  V30 6693 H 614.093 3.67113 1.00042 0
M  V30 6694 H 613.605 3.79333 -0.820228 0
M  V30 6695 H 611.706 3.36144 1.60742 0
M  V30 6696 H 611.819 4.77715 0.364003 0
M  V30 6697 H 610.183 2.53045 0.289855 0
M  V30 6698 H 610.966 3.20074 -1.24127 0
M  V30 6699 N 613.412 0.11024 1.57214 0
M  V30 6700 C 614.322 -0.857077 2.18383 0
M  V30 6701 C 615.338 -1.29915 1.1575 0
M  V30 6702 O 616.514 -1.36394 1.48184 0
M  V30 6703 C 613.579 -2.09264 2.76423 0
M  V30 6704 C 612.64 -1.70333 3.94063 0
M  V30 6705 C 611.873 -2.87999 4.49324 0
M  V30 6706 O 612.096 -4.0317 4.03497 0
M  V30 6707 O 611.03 -2.6559 5.40135 0
M  V30 6708 H 614.856 -0.366561 3.0148 0
M  V30 6709 H 612.441 -0.114914 1.48957 0
M  V30 6710 H 614.323 -2.81644 3.13456 0
M  V30 6711 H 612.998 -2.57339 1.96363 0
M  V30 6712 H 611.905 -0.950864 3.61814 0
M  V30 6713 H 613.238 -1.27007 4.75531 0
M  V30 6714 N 614.89 -1.56749 -0.16351 0
M  V30 6715 C 616.115 -1.86938 -0.898264 0
M  V30 6716 C 616.54 -0.697456 -1.74692 0
M  V30 6717 O 615.898 0.353327 -1.77824 0
M  V30 6718 C 615.946 -3.15599 -1.74441 0
M  V30 6719 O 615.05 -2.98371 -2.8469 0
M  V30 6720 H 614.391 -0.614659 -0.251178 0
M  V30 6721 H 616.921 -2.03979 -0.159298 0
M  V30 6722 H 616.931 -3.47202 -2.14277 0
M  V30 6723 H 615.606 -4.00505 -1.1211 0
M  V30 6724 H 614.183 -2.7814 -2.4838 0
M  V30 6725 N 616.368 0.432326 -1.51554 0
M  V30 6726 C 617.331 1.50765 -1.72634 0
M  V30 6727 C 618.331 1.49334 -0.596314 0
M  V30 6728 O 619.521 1.51268 -0.863925 0
M  V30 6729 C 616.653 2.90284 -1.7874 0
M  V30 6730 H 617.846 1.33377 -2.68609 0
M  V30 6731 H 615.399 0.661329 -1.4162 0
M  V30 6732 H 616.134 3.13071 -0.845977 0
M  V30 6733 H 615.919 2.92727 -2.6087 0
M  V30 6734 H 617.409 3.68282 -1.96871 0
M  V30 6735 N 617.846 1.41785 0.688094 0
M  V30 6736 C 619.262 1.24419 0.999608 0
M  V30 6737 C 619.462 0.138868 2.01021 0
M  V30 6738 O 618.518 -0.494283 2.47615 0
M  V30 6739 C 619.831 2.59625 1.51709 0
M  V30 6740 C 621.379 2.66869 1.63554 0
M  V30 6741 C 621.854 4.0241 2.18702 0
M  V30 6742 N 623.345 4.04295 2.26053 0
M  V30 6743 C 624.08 5.05977 2.69768 0
M  V30 6744 N 623.576 6.18047 3.13033 0
M  V30 6745 N 625.369 4.93336 2.69398 0
M  V30 6746 H 617.52 2.12392 0.0187427 0
M  V30 6747 H 619.783 0.945347 0.0708673 0
M  V30 6748 H 619.489 3.41297 0.849059 0
M  V30 6749 H 619.363 2.82628 2.49803 0
M  V30 6750 H 621.75 1.8555 2.29467 0
M  V30 6751 H 621.831 2.47668 0.639857 0
M  V30 6752 H 621.475 4.8418 1.53402 0
M  V30 6753 H 621.405 4.18955 3.19037 0
M  V30 6754 H 623.896 3.23383 1.9553 0
M  V30 6755 H 624.209 6.91498 3.45038 0
M  V30 6756 H 622.554 6.21572 3.10923 0
M  V30 6757 H 625.745 4.04865 2.34952 0
M  V30 6758 H 625.918 5.72717 3.03148 0
M  V30 6759 N 619.324 -0.923095 1.27737 0
M  V30 6760 C 620.272 -2.04567 1.10703 0
M  V30 6761 C 621.266 -1.69375 0.0288445 0
M  V30 6762 O 622.472 -1.79027 0.186913 0
M  V30 6763 H 618.847 -0.670109 0.34126 0
M  V30 6764 H 620.818 -2.1608 2.05796 0
M  V30 6765 C 619.567 -3.38934 0.775837 0
M  V30 6766 H 618.89 -3.66501 1.59741 0
M  V30 6767 H 620.33 -4.18239 0.696548 0
M  V30 6768 C 618.789 -3.32863 -0.520012 0
M  V30 6769 O 619.319 -3.70462 -1.55308 0
M  V30 6770 N 617.525 -2.85958 -0.51732 0
M  V30 6771 H 617.072 -2.55557 0.32379 0
M  V30 6772 H 617.03 -2.82279 -1.38441 0
M  V30 6773 N 620.802 -1.09834 -1.13024 0
M  V30 6774 C 622.049 -0.83695 -1.84395 0
M  V30 6775 C 622.377 0.637463 -1.83757 0
M  V30 6776 O 621.632 1.48554 -1.27398 0
M  V30 6777 C 621.931 -1.32263 -3.32026 0
M  V30 6778 C 621.597 -2.80739 -3.52841 0
M  V30 6779 C 620.259 -3.21286 -3.5823 0
M  V30 6780 C 622.611 -3.76449 -3.60466 0
M  V30 6781 C 619.939 -4.56308 -3.68781 0
M  V30 6782 C 622.291 -5.11266 -3.72546 0
M  V30 6783 C 620.955 -5.51397 -3.76189 0
M  V30 6784 H 620.225 -0.306262 -0.674748 0
M  V30 6785 H 622.872 -1.37385 -1.33408 0
M  V30 6786 H 621.177 -0.705618 -3.85394 0
M  V30 6787 H 622.874 -1.09695 -3.85705 0
M  V30 6788 H 619.464 -2.48363 -3.49305 0
M  V30 6789 H 623.648 -3.46234 -3.55578 0
M  V30 6790 H 618.904 -4.86832 -3.69871 0
M  V30 6791 H 623.078 -5.85279 -3.77388 0
M  V30 6792 H 620.705 -6.56017 -3.84117 0
M  V30 6793 O 622.319 1.25285 -1.01911 0
M  V30 6794 H 623.01 1.81359 -0.680326 0
M  V30 END ATOM
M  V30 BEGIN BOND
M  V30 END BOND
M  V30 END CTAB
M  END
$$$$
