drugbank_target|P14410 Sucrase-isomaltase, intestinal (DB00284; DB00747)
 OpenBabel12092119493D

  0  0  0     0  0            999 V3000
M  V30 BEGIN CTAB
M  V30 COUNTS 28972 29398 0 0 0
M  V30 BEGIN ATOM
M  V30 1 H -0.908 1.98254 -0.117106 0
M  V30 2 N 0 1.576 0 0
M  V30 3 C 0.933 2.03868 1.02534 0
M  V30 4 C 1.911 0.928543 1.3348 0
M  V30 5 O 3.095 1.19667 1.45644 0
M  V30 6 C 0.222 2.43627 2.35294 0
M  V30 7 C -0.732 3.65373 2.2001 0
M  V30 8 S 0.101 5.13292 1.52614 0
M  V30 9 C 1.257 5.56322 2.86805 0
M  V30 10 H 1.49 2.90518 0.631377 0
M  V30 11 H -0.977 1.52953 0.210867 0
M  V30 12 H 0.981 2.67203 3.11629 0
M  V30 13 H -0.358 1.57376 2.7183 0
M  V30 14 H -1.165 3.90944 3.18086 0
M  V30 15 H -1.563 3.418 1.51819 0
M  V30 16 H 0.729 5.58782 3.83104 0
M  V30 17 H 1.672 6.56266 2.65933 0
M  V30 18 H 2.08 4.83886 2.90714 0
M  V30 19 N 1.4781 -0.272755 1.55222 0
M  V30 20 C 2.4411 -1.32041 1.87344 0
M  V30 21 C 3.4411 -1.42342 0.74803 0
M  V30 22 O 4.6311 -1.41488 1.0162 0
M  V30 23 C 1.7631 -2.70173 2.07893 0
M  V30 24 H 2.9561 -1.04789 2.80997 0
M  V30 25 H 0.5091 -0.51083 1.47717 0
M  V30 26 H 1.2441 -3.02605 1.16622 0
M  V30 27 H 1.0291 -2.64082 2.89833 0
M  V30 28 H 2.5191 -3.45869 2.34017 0
M  V30 29 N 2.9562 -1.48159 -0.537278 0
M  V30 30 C 4.3722 -1.34118 -0.865129 0
M  V30 31 C 4.5722 -0.346678 -1.98495 0
M  V30 32 O 3.6282 0.234715 -2.51407 0
M  V30 33 C 4.9412 -2.73963 -1.23954 0
M  V30 34 C 6.4892 -2.82397 -1.34984 0
M  V30 35 C 6.9642 -4.22928 -1.75772 0
M  V30 36 N 8.4552 -4.25566 -1.82887 0
M  V30 37 C 9.1902 -5.31235 -2.15817 0
M  V30 38 N 8.6862 -6.47189 -2.47222 0
M  V30 39 N 10.4792 -5.18624 -2.16761 0
M  V30 40 H 2.6302 -2.1144 0.201715 0
M  V30 41 H 4.8932 -0.947598 0.0275949 0
M  V30 42 H 4.5992 -3.48264 -0.490381 0
M  V30 43 H 4.4732 -3.0702 -2.19132 0
M  V30 44 H 6.8602 -2.08356 -2.08978 0
M  V30 45 H 6.9412 -2.5297 -0.379448 0
M  V30 46 H 6.5852 -4.97482 -1.02341 0
M  V30 47 H 6.5152 -4.49794 -2.73848 0
M  V30 48 H 9.0062 -3.41924 -1.60924 0
M  V30 49 H 9.3192 -7.23564 -2.71433 0
M  V30 50 H 7.6642 -6.50476 -2.44757 0
M  V30 51 H 10.8552 -4.27056 -1.91679 0
M  V30 52 H 11.0282 -6.01078 -2.42093 0
M  V30 53 N 4.4343 0.785586 -1.36625 0
M  V30 54 C 5.3813 1.89838 -1.31264 0
M  V30 55 C 6.3513 1.65115 -0.180633 0
M  V30 56 O 7.5363 1.87222 -0.36777 0
M  V30 57 C 4.6763 3.26706 -1.11163 0
M  V30 58 C 3.7893 3.63476 -2.33472 0
M  V30 59 C 2.9243 4.89481 -2.06353 0
M  V30 60 C 1.9633 5.18941 -3.24602 0
M  V30 61 N 1.1003 6.36131 -2.97123 0
M  V30 62 H 5.9403 1.93756 -2.26413 0
M  V30 63 H 3.4773 0.947454 -1.12524 0
M  V30 64 H 5.4353 4.05639 -0.975337 0
M  V30 65 H 4.0653 3.222 -0.196674 0
M  V30 66 H 3.1173 2.79636 -2.57891 0
M  V30 67 H 4.4293 3.81193 -3.21704 0
M  V30 68 H 3.5833 5.76288 -1.89675 0
M  V30 69 H 2.3223 4.73841 -1.15437 0
M  V30 70 H 1.3273 4.30615 -3.41834 0
M  V30 71 H 2.5523 5.36498 -4.16349 0
M  V30 72 H 0.4983 6.21875 -2.08823 0
M  V30 73 H 0.4153 6.54198 -3.78894 0
M  V30 74 H 1.6833 7.2591 -2.84033 0
M  V30 75 N 5.9124 1.20967 1.01018 0
M  V30 76 C 6.8594 0.964281 2.09691 0
M  V30 77 C 7.8294 -0.107853 1.65749 0
M  V30 78 O 9.0144 0.0381987 1.90762 0
M  V30 79 C 6.1544 0.52943 3.41015 0
M  V30 80 C 5.2674 1.67043 3.98398 0
M  V30 81 C 4.4024 1.18525 5.17808 0
M  V30 82 C 3.4414 2.29892 5.67288 0
M  V30 83 N 2.5784 1.82546 6.77954 0
M  V30 84 H 7.4184 1.89463 2.30017 0
M  V30 85 H 4.9554 0.944289 1.1279 0
M  V30 86 H 6.9134 0.258588 4.16398 0
M  V30 87 H 5.5434 -0.363919 3.20742 0
M  V30 88 H 4.5954 2.05603 3.20049 0
M  V30 89 H 5.9074 2.50877 4.31117 0
M  V30 90 H 5.0614 0.870762 6.00419 0
M  V30 91 H 3.8004 0.316887 4.86669 0
M  V30 92 H 2.8054 2.6215 4.83278 0
M  V30 93 H 4.0304 3.17216 6.00459 0
M  V30 94 H 1.9764 0.980454 6.48632 0
M  V30 95 H 1.8934 2.59956 7.09901 0
M  V30 96 H 3.1614 1.54115 7.64113 0
M  V30 97 N 7.3905 -1.2043 1.01659 0
M  V30 98 C 8.6375 -1.89797 0.705917 0
M  V30 99 C 8.9655 -1.78848 -0.764439 0
M  V30 100 O 8.2205 -1.16694 -1.57102 0
M  V30 101 C 8.5195 -3.40464 1.08714 0
M  V30 102 C 8.1855 -3.71614 2.5537 0
M  V30 103 C 6.8475 -3.79826 2.95441 0
M  V30 104 C 9.1995 -3.85915 3.50313 0
M  V30 105 C 6.5275 -3.99797 4.29394 0
M  V30 106 C 8.8795 -4.07396 4.83954 0
M  V30 107 C 7.5435 -4.13837 5.23732 0
M  V30 108 H 6.8135 -0.694518 0.258313 0
M  V30 109 H 9.4605 -1.42691 1.27717 0
M  V30 110 H 7.7655 -3.89385 0.434309 0
M  V30 111 H 9.4625 -3.92433 0.824461 0
M  V30 112 H 6.0525 -3.65822 2.23321 0
M  V30 113 H 10.2365 -3.78926 3.20513 0
M  V30 114 H 5.4925 -4.03018 4.59768 0
M  V30 115 H 9.6665 -4.17404 5.57447 0
M  V30 116 H 7.2935 -4.29064 6.27541 0
M  V30 117 N 8.8686 -0.792821 -1.36206 0
M  V30 118 C 10.0936 -0.377701 -2.03932 0
M  V30 119 C 10.5186 0.998947 -1.59382 0
M  V30 120 O 9.8766 1.64421 -0.763903 0
M  V30 121 C 9.9246 -0.453635 -3.57735 0
M  V30 122 O 9.0286 0.538151 -4.08874 0
M  V30 123 H 8.3696 -0.159855 -0.644471 0
M  V30 124 H 10.8996 -1.07488 -1.7409 0
M  V30 125 H 10.9096 -0.318464 -4.06755 0
M  V30 126 H 9.5846 -1.45784 -3.89512 0
M  V30 127 H 8.1616 0.364359 -3.71116 0
M  V30 128 N 10.3467 1.47872 -0.545128 0
M  V30 129 C 11.5947 2.02093 -0.016553 0
M  V30 130 C 11.9157 1.42305 1.3332 0
M  V30 131 O 11.1857 0.593853 1.86682 0
M  V30 132 H 9.7657 0.746993 -0.00313038 0
M  V30 133 H 12.4277 1.81414 -0.712397 0
M  V30 134 H 11.5237 3.11996 0.0805422 0
M  V30 135 N 11.8248 0.280983 1.55075 0
M  V30 136 C 12.7548 -0.597469 2.25727 0
M  V30 137 C 13.7358 -1.15417 1.24952 0
M  V30 138 O 14.9208 -1.18722 1.53684 0
M  V30 139 C 12.0508 -1.7789 2.98283 0
M  V30 140 C 11.0048 -1.35347 4.06036 0
M  V30 141 C 10.3308 -2.61846 4.66198 0
M  V30 142 C 11.6308 -0.499354 5.19907 0
M  V30 143 H 13.3248 -0.00824265 2.99399 0
M  V30 144 H 10.8708 -0.0025244 1.44 0
M  V30 145 H 12.8238 -2.39937 3.46422 0
M  V30 146 H 11.5478 -2.39405 2.22155 0
M  V30 147 H 10.2068 -0.756156 3.58717 0
M  V30 148 H 9.8548 -3.21632 3.86732 0
M  V30 149 H 9.5548 -2.3409 5.38958 0
M  V30 150 H 11.0788 -3.24732 5.1709 0
M  V30 151 H 12.4928 -1.02498 5.64063 0
M  V30 152 H 10.8898 -0.316424 5.99265 0
M  V30 153 H 11.9598 0.480459 4.82514 0
M  V30 154 N 13.3029 -1.57598 0.00835791 0
M  V30 155 C 14.2129 -2.12385 -0.996487 0
M  V30 156 C 15.2289 -1.07108 -1.37127 0
M  V30 157 O 16.4049 -1.39055 -1.4569 0
M  V30 158 C 13.4699 -2.62314 -2.26699 0
M  V30 159 C 12.5309 -3.82225 -1.95456 0
M  V30 160 C 11.7639 -4.29763 -3.16449 0
M  V30 161 O 11.9869 -3.76584 -4.28416 0
M  V30 162 O 10.9209 -5.21832 -2.99958 0
M  V30 163 H 14.7469 -2.98479 -0.560725 0
M  V30 164 H 12.3319 -1.47903 -0.210987 0
M  V30 165 H 14.2139 -2.94589 -3.01322 0
M  V30 166 H 12.8889 -1.79313 -2.69497 0
M  V30 167 H 11.7959 -3.54909 -1.18282 0
M  V30 168 H 13.1289 -4.66324 -1.57489 0
M  V30 169 N 14.781 0.264519 -1.55364 0
M  V30 170 C 16.03 0.992812 -1.75574 0
M  V30 171 C 16.343 1.87142 -0.568979 0
M  V30 172 O 17.549 2.63513 -0.653682 0
M  V30 173 C 16.005 1.81519 -3.10771 0
M  V30 174 C 15.613 0.984839 -4.37041 0
M  V30 175 C 17.357 2.53727 -3.40327 0
M  V30 176 C 15.264 1.80209 -5.63275 0
M  V30 177 H 14.194 0.374412 -0.65447 0
M  V30 178 H 16.845 0.248138 -1.81815 0
M  V30 179 H 15.227 2.60115 -2.98591 0
M  V30 180 H 16.401 0.242455 -4.60162 0
M  V30 181 H 14.716 0.37691 -4.14691 0
M  V30 182 H 17.313 3.15292 -4.3185 0
M  V30 183 H 17.656 3.24447 -2.60845 0
M  V30 184 H 18.189 1.82156 -3.53644 0
M  V30 185 H 14.928 1.13896 -6.45529 0
M  V30 186 H 14.448 2.52022 -5.44284 0
M  V30 187 H 16.127 2.37364 -6.01887 0
M  V30 188 N 16.2591 1.48442 0.529413 0
M  V30 189 C 17.4841 1.60406 1.31471 0
M  V30 190 C 17.9091 0.264738 1.86228 0
M  V30 191 O 17.2671 -0.763668 1.64432 0
M  V30 192 C 17.3151 2.65419 2.44101 0
M  V30 193 O 16.4191 2.22618 3.47153 0
M  V30 194 H 15.7601 0.537863 0.389357 0
M  V30 195 H 18.2901 1.94432 0.636965 0
M  V30 196 H 18.3001 2.86709 2.90279 0
M  V30 197 H 16.9751 3.62652 2.03608 0
M  V30 198 H 15.5521 2.11543 3.0709 0
M  V30 199 N 17.7372 -0.778329 1.37039 0
M  V30 200 C 18.6672 -1.90546 1.34962 0
M  V30 201 C 19.6482 -1.68681 0.219274 0
M  V30 202 O 20.8332 -1.89634 0.418624 0
M  V30 203 C 17.9632 -3.27734 1.14925 0
M  V30 204 C 16.9172 -3.64147 2.24902 0
M  V30 205 C 16.2432 -4.99806 1.89996 0
M  V30 206 C 17.5432 -3.71579 3.67051 0
M  V30 207 H 19.2372 -1.92541 2.29277 0
M  V30 208 H 16.7832 -0.924948 1.10366 0
M  V30 209 H 18.7362 -4.06215 1.12104 0
M  V30 210 H 17.4602 -3.26154 0.170631 0
M  V30 211 H 16.1192 -2.8797 2.26868 0
M  V30 212 H 15.7672 -4.94759 0.906796 0
M  V30 213 H 15.4672 -5.25139 2.63634 0
M  V30 214 H 16.9912 -5.80694 1.88749 0
M  V30 215 H 18.4052 -4.40227 3.67251 0
M  V30 216 H 16.8022 -4.08405 4.39688 0
M  V30 217 H 17.8722 -2.72404 4.01154 0
M  V30 218 N 19.2153 -1.21501 -1.00376 0
M  V30 219 C 20.4643 -1.02718 -1.73586 0
M  V30 220 C 20.7773 0.439589 -1.90596 0
M  V30 221 O 21.9833 0.746848 -2.61026 0
M  V30 222 C 20.4393 -1.78929 -3.1227 0
M  V30 223 C 20.0473 -3.29783 -3.03228 0
M  V30 224 C 21.7913 -1.68557 -3.89601 0
M  V30 225 C 19.6983 -3.98479 -4.36999 0
M  V30 226 H 18.6283 -0.380733 -0.650814 0
M  V30 227 H 21.2793 -1.45248 -1.1214 0
M  V30 228 H 19.6613 -1.29192 -3.74333 0
M  V30 229 H 20.8353 -3.86832 -2.50395 0
M  V30 230 H 19.1503 -3.40711 -2.39385 0
M  V30 231 H 21.7473 -2.17211 -4.88593 0
M  V30 232 H 22.0903 -0.644021 -4.11288 0
M  V30 233 H 22.6233 -2.15778 -3.34193 0
M  V30 234 H 19.3623 -5.02841 -4.20513 0
M  V30 235 H 18.8823 -3.46219 -4.89788 0
M  V30 236 H 20.5613 -4.03462 -5.05794 0
M  V30 237 N 20.6934 1.19889 -1.02296 0
M  V30 238 C 21.9394 1.89701 -0.717033 0
M  V30 239 C 22.2724 1.7905 0.751989 0
M  V30 240 O 21.5474 1.17891 1.547 0
M  V30 241 C 21.8304 3.40858 -1.16136 0
M  V30 242 C 21.6834 3.60411 -2.69117 0
M  V30 243 C 23.0024 4.33876 -0.737549 0
M  V30 244 H 20.1214 0.688874 -0.261957 0
M  V30 245 H 22.7634 1.41154 -1.27183 0
M  V30 246 H 20.9134 3.82335 -0.689342 0
M  V30 247 H 22.5854 3.28145 -3.2422 0
M  V30 248 H 20.8284 3.03665 -3.0979 0
M  V30 249 H 21.4994 4.66396 -2.95261 0
M  V30 250 H 23.9754 4.00081 -1.14344 0
M  V30 251 H 22.8514 5.38242 -1.0764 0
M  V30 252 H 23.1124 4.40628 0.360436 0
M  V30 253 N 22.1715 0.800033 1.35784 0
M  V30 254 C 23.1015 0.220184 2.3246 0
M  V30 255 C 24.0825 -0.65073 1.57161 0
M  V30 256 O 25.2675 -0.582359 1.85263 0
M  V30 257 C 22.3975 -0.637353 3.41402 0
M  V30 258 C 21.3515 0.134531 4.27789 0
M  V30 259 C 20.6775 -0.844285 5.27992 0
M  V30 260 C 21.9775 1.32979 5.05088 0
M  V30 261 H 23.6715 1.02787 2.81203 0
M  V30 262 H 21.2175 0.495717 1.35199 0
M  V30 263 H 23.1705 -1.05302 4.08031 0
M  V30 264 H 21.8945 -1.47785 2.91251 0
M  V30 265 H 20.5535 0.531296 3.6273 0
M  V30 266 H 20.2015 -1.68011 4.74111 0
M  V30 267 H 19.9015 -0.332184 5.8666 0
M  V30 268 H 21.4255 -1.2583 5.97494 0
M  V30 269 H 22.8395 0.98934 5.64699 0
M  V30 270 H 21.2365 1.77593 5.7322 0
M  V30 271 H 22.3065 2.11978 4.36111 0
M  V30 272 N 23.6496 -1.47581 0.552962 0
M  V30 273 C 24.8966 -2.02482 0.0273243 0
M  V30 274 C 25.2246 -1.42776 -1.32081 0
M  V30 275 O 24.4796 -0.571393 -1.87173 0
M  V30 276 C 24.7786 -3.57199 -0.119728 0
M  V30 277 C 24.4446 -4.35804 1.15697 0
M  V30 278 C 23.1066 -4.57 1.50681 0
M  V30 279 C 25.4586 -4.81167 2.00319 0
M  V30 280 C 22.7866 -5.20807 2.70142 0
M  V30 281 C 25.1386 -5.46293 3.18978 0
M  V30 282 C 23.8026 -5.65722 3.54281 0
M  V30 283 H 23.0726 -0.740933 0.00999866 0
M  V30 284 H 25.7196 -1.77302 0.72362 0
M  V30 285 H 24.0246 -3.81348 -0.89896 0
M  V30 286 H 25.7216 -3.97324 -0.541718 0
M  V30 287 H 22.3116 -4.19582 0.874561 0
M  V30 288 H 26.4956 -4.64574 1.74599 0
M  V30 289 H 21.7516 -5.34045 2.97668 0
M  V30 290 H 25.9256 -5.80407 3.84838 0
M  V30 291 H 23.5526 -6.14936 4.46942 0
M  V30 292 N 25.1277 -0.289203 -1.54924 0
M  V30 293 C 26.3737 0.323998 -2.00195 0
M  V30 294 C 26.7067 1.54441 -1.17735 0
M  V30 295 O 25.9817 1.92875 -0.250878 0
M  V30 296 C 26.2647 0.692276 -3.53383 0
M  V30 297 C 26.1177 -0.536457 -4.46589 0
M  V30 298 C 27.4367 1.52335 -4.12895 0
M  V30 299 H 24.5557 0.116289 -0.727768 0
M  V30 300 H 27.1977 -0.398954 -1.85764 0
M  V30 301 H 25.3477 1.30822 -3.65811 0
M  V30 302 H 27.0197 -1.17499 -4.46085 0
M  V30 303 H 25.2627 -1.17192 -4.1767 0
M  V30 304 H 25.9337 -0.234806 -5.515 0
M  V30 305 H 28.4097 1.00302 -4.0383 0
M  V30 306 H 27.2857 1.74982 -5.20262 0
M  V30 307 H 27.5467 2.50886 -3.64018 0
M  V30 308 N 26.6058 1.57591 -0.0167156 0
M  V30 309 C 27.8548 1.90461 0.663877 0
M  V30 310 C 28.1678 0.893515 1.73999 0
M  V30 311 O 29.3738 1.11302 2.47637 0
M  V30 312 C 27.8298 3.38155 1.23204 0
M  V30 313 C 27.4378 4.47597 0.189866 0
M  V30 314 C 29.1818 3.80111 1.88986 0
M  V30 315 C 27.0888 5.86379 0.768964 0
M  V30 316 H 26.0188 0.710738 0.251729 0
M  V30 317 H 28.6698 1.83326 -0.0799926 0
M  V30 318 H 27.0518 3.40182 2.02712 0
M  V30 319 H 28.2258 4.57112 -0.581846 0
M  V30 320 H 26.5408 4.14766 -0.368475 0
M  V30 321 H 29.1378 4.81145 2.33247 0
M  V30 322 H 29.4808 3.14511 2.72743 0
M  V30 323 H 30.0138 3.80454 1.16187 0
M  V30 324 H 26.7528 6.55493 -0.0301957 0
M  V30 325 H 26.2728 5.80496 1.50945 0
M  V30 326 H 27.9518 6.34563 1.26251 0
M  V30 327 N 28.0839 -0.256276 1.55502 0
M  V30 328 C 29.3299 -0.987079 1.77157 0
M  V30 329 C 29.6629 -1.85327 0.580315 0
M  V30 330 O 28.9379 -1.89874 -0.421686 0
M  V30 331 C 29.2209 -1.85553 3.08613 0
M  V30 332 C 29.0739 -1.01816 4.38125 0
M  V30 333 C 30.3929 -2.8397 3.36228 0
M  V30 334 H 27.5119 -0.357428 0.644526 0
M  V30 335 H 30.1539 -0.258239 1.88237 0
M  V30 336 H 28.3039 -2.47695 2.99298 0
M  V30 337 H 29.9759 -0.416159 4.59419 0
M  V30 338 H 28.2189 -0.322178 4.32602 0
M  V30 339 H 28.8899 -1.65939 5.26468 0
M  V30 340 H 31.3659 -2.31964 3.45445 0
M  V30 341 H 30.2419 -3.41864 4.29442 0
M  V30 342 H 30.5029 -3.59955 2.56681 0
M  V30 343 N 29.562 -1.4872 -0.521534 0
M  V30 344 C 30.79 -1.60843 -1.30142 0
M  V30 345 C 31.205 -0.271897 -1.86832 0
M  V30 346 O 30.562 0.739969 -1.66825 0
M  V30 347 C 30.613 -2.66155 -2.4463 0
M  V30 348 O 30.334 -3.94623 -1.90275 0
M  V30 349 C 31.835 -2.88795 -3.36322 0
M  V30 350 H 29.055 -0.542075 -0.395468 0
M  V30 351 H 31.599 -1.94609 -0.628285 0
M  V30 352 H 29.754 -2.35224 -3.07812 0
M  V30 353 H 30.168 -4.52468 -2.65279 0
M  V30 354 H 31.642 -3.66264 -4.12983 0
M  V30 355 H 32.119 -1.97934 -3.9207 0
M  V30 356 H 32.725 -3.21063 -2.78924 0
M  V30 357 N 31.0401 0.771051 -1.3745 0
M  V30 358 C 32.2891 1.52491 -1.3202 0
M  V30 359 C 32.6021 1.9538 0.0927347 0
M  V30 360 O 33.8081 2.70159 0.269503 0
M  V30 361 C 32.2641 2.75366 -2.31736 0
M  V30 362 C 31.8721 2.39573 -3.78562 0
M  V30 363 C 33.6161 3.53307 -2.35318 0
M  V30 364 C 31.5231 3.58954 -4.70007 0
M  V30 365 H 30.4531 0.572506 -0.490666 0
M  V30 366 H 33.1041 0.844474 -1.62914 0
M  V30 367 H 31.4861 3.45303 -1.93861 0
M  V30 368 H 32.6601 1.77415 -4.25277 0
M  V30 369 H 30.9751 1.74805 -3.77932 0
M  V30 370 H 33.5721 4.42039 -3.00842 0
M  V30 371 H 33.9151 3.93217 -1.36698 0
M  V30 372 H 34.4481 2.90367 -2.71904 0
M  V30 373 H 31.1871 3.24125 -5.69757 0
M  V30 374 H 30.7071 4.20214 -4.27996 0
M  V30 375 H 32.3861 4.25758 -4.87175 0
M  V30 376 N 32.5182 1.22032 0.997298 0
M  V30 377 C 33.7672 1.03637 1.73038 0
M  V30 378 C 34.0802 -0.429475 1.90827 0
M  V30 379 O 35.2862 -0.732995 2.61418 0
M  V30 380 C 33.7422 1.80582 3.11317 0
M  V30 381 C 33.3502 3.31387 3.01474 0
M  V30 382 C 35.0942 1.70621 3.88701 0
M  V30 383 C 33.0012 4.00791 4.3488 0
M  V30 384 H 31.9312 0.384179 0.648785 0
M  V30 385 H 34.5822 1.4584 1.11368 0
M  V30 386 H 32.9642 1.31175 3.73643 0
M  V30 387 H 34.1382 3.88155 2.4834 0
M  V30 388 H 32.4532 3.41976 2.37575 0
M  V30 389 H 35.0502 2.19799 4.87434 0
M  V30 390 H 35.3932 0.665823 4.10941 0
M  V30 391 H 35.9262 2.17547 3.33044 0
M  V30 392 H 32.6652 5.05064 4.1784 0
M  V30 393 H 32.1852 3.48811 4.87945 0
M  V30 394 H 33.8642 4.06139 5.03647 0
M  V30 395 N 33.9963 -1.19345 1.0293 0
M  V30 396 C 34.9593 -2.20793 0.615069 0
M  V30 397 C 35.9593 -1.57553 -0.321533 0
M  V30 398 O 37.1493 -1.73862 -0.108483 0
M  V30 399 C 34.2813 -3.40754 -0.0999222 0
M  V30 400 H 35.4743 -2.58955 1.51269 0
M  V30 401 H 33.0273 -1.3303 0.820534 0
M  V30 402 H 33.7623 -3.0811 -1.01187 0
M  V30 403 H 33.5473 -3.87889 0.57309 0
M  V30 404 H 35.0373 -4.15898 -0.376645 0
M  V30 405 N 35.4744 -0.807222 -1.35358 0
M  V30 406 C 36.7234 -0.384376 -1.98004 0
M  V30 407 C 37.0364 1.0543 -1.64754 0
M  V30 408 O 38.2424 1.58029 -2.20769 0
M  V30 409 C 36.6984 -0.636326 -3.5423 0
M  V30 410 C 36.3064 -2.08759 -3.96388 0
M  V30 411 C 38.0504 -0.278869 -4.23583 0
M  V30 412 C 35.9574 -2.28525 -5.45463 0
M  V30 413 H 34.8874 -0.139986 -0.740891 0
M  V30 414 H 37.5384 -0.991369 -1.54415 0
M  V30 415 H 35.9204 0.0406256 -3.95979 0
M  V30 416 H 37.0944 -2.8024 -3.6579 0
M  V30 417 H 35.4094 -2.40497 -3.39926 0
M  V30 418 H 38.0064 -0.404599 -5.33167 0
M  V30 419 H 38.3494 0.775012 -4.09022 0
M  V30 420 H 38.8824 -0.909764 -3.87257 0
M  V30 421 H 35.6214 -3.32361 -5.64992 0
M  V30 422 H 35.1414 -1.61569 -5.77629 0
M  V30 423 H 36.8204 -2.10109 -6.11934 0
M  V30 424 N 36.9525 1.47285 -0.560781 0
M  V30 425 C 37.9155 2.28535 0.174488 0
M  V30 426 C 38.9155 1.37153 0.839388 0
M  V30 427 O 40.1055 1.59748 0.694702 0
M  V30 428 C 37.2375 3.16934 1.25561 0
M  V30 429 H 38.4305 2.95012 -0.539262 0
M  V30 430 H 35.9835 1.53034 -0.317865 0
M  V30 431 H 36.7185 2.55157 2.00164 0
M  V30 432 H 36.5035 3.8419 0.783604 0
M  V30 433 H 37.9935 3.78143 1.77193 0
M  V30 434 N 38.4306 0.297415 1.54768 0
M  V30 435 C 39.3606 -0.573494 2.26348 0
M  V30 436 C 40.3416 -1.14085 1.26169 0
M  V30 437 O 41.5266 -1.17086 1.54934 0
M  V30 438 C 38.6566 -1.74716 3.00153 0
M  V30 439 C 37.6106 -1.31032 4.07449 0
M  V30 440 C 36.9366 -2.56887 4.68949 0
M  V30 441 C 38.2366 -0.444183 5.20408 0
M  V30 442 H 39.9306 0.0235131 2.99391 0
M  V30 443 H 37.4766 0.0127488 1.43994 0
M  V30 444 H 39.4296 -2.3625 3.48947 0
M  V30 445 H 38.1536 -2.37035 2.24682 0
M  V30 446 H 36.8126 -0.718066 3.59499 0
M  V30 447 H 36.4606 -3.17512 3.90122 0
M  V30 448 H 36.1606 -2.2836 5.41411 0
M  V30 449 H 37.6846 -3.19229 5.20505 0
M  V30 450 H 39.0986 -0.9651 5.65118 0
M  V30 451 H 37.4956 -0.252846 5.99567 0
M  V30 452 H 38.5656 0.531609 4.81977 0
M  V30 453 N 39.9087 -1.5758 0.0250728 0
M  V30 454 C 41.1577 -1.90811 -0.653767 0
M  V30 455 C 41.4707 -0.90273 -1.73523 0
M  V30 456 O 42.6767 -1.12614 -2.47043 0
M  V30 457 C 41.1327 -3.38804 -1.21409 0
M  V30 458 C 40.7407 -4.47692 -0.166126 0
M  V30 459 C 42.4847 -3.81108 -1.86967 0
M  V30 460 C 40.3917 -5.86779 -0.737856 0
M  V30 461 H 39.3217 -0.712063 -0.247956 0
M  V30 462 H 41.9727 -1.83281 0.0897137 0
M  V30 463 H 40.3547 -3.41252 -2.00905 0
M  V30 464 H 41.5287 -4.56797 0.606079 0
M  V30 465 H 39.8437 -4.14565 0.390466 0
M  V30 466 H 42.4407 -4.82375 -2.30692 0
M  V30 467 H 42.7837 -3.15953 -2.71071 0
M  V30 468 H 43.3167 -3.81065 -1.14167 0
M  V30 469 H 40.0557 -6.55468 0.0649577 0
M  V30 470 H 39.5757 -5.81288 -1.47864 0
M  V30 471 H 41.2547 -6.35223 -1.22884 0
M  V30 472 N 41.3868 0.248026 -1.55636 0
M  V30 473 C 42.6328 0.97767 -1.77678 0
M  V30 474 C 42.9658 1.85016 -0.590135 0
M  V30 475 O 42.2408 1.90095 0.411611 0
M  V30 476 C 42.5238 1.83914 -3.09593 0
M  V30 477 C 42.3768 0.99491 -4.38659 0
M  V30 478 C 43.6958 2.82183 -3.37729 0
M  V30 479 H 40.8148 0.354005 -0.646413 0
M  V30 480 H 43.4568 0.248253 -1.88371 0
M  V30 481 H 41.6068 2.46104 -3.00608 0
M  V30 482 H 43.2788 0.391789 -4.59633 0
M  V30 483 H 41.5218 0.299231 -4.32767 0
M  V30 484 H 42.1928 1.63145 -5.2734 0
M  V30 485 H 44.6688 2.30129 -3.4667 0
M  V30 486 H 43.5448 3.39582 -4.31249 0
M  V30 487 H 43.8058 3.58588 -2.58586 0
M  V30 488 N 42.8649 1.48995 0.513639 0
M  V30 489 C 44.1109 1.58076 1.27042 0
M  V30 490 C 44.4439 0.261026 1.92438 0
M  V30 491 O 43.7189 -0.734393 1.80103 0
M  V30 492 C 44.0019 2.73091 2.34719 0
M  V30 493 C 43.8549 4.14821 1.73907 0
M  V30 494 C 45.1739 2.83796 3.36375 0
M  V30 495 H 42.2929 0.575391 0.460536 0
M  V30 496 H 44.9349 1.81232 0.570516 0
M  V30 497 H 43.0849 2.53479 2.94416 0
M  V30 498 H 44.7569 4.45917 1.18135 0
M  V30 499 H 42.9999 4.21058 1.0437 0
M  V30 500 H 43.6709 4.91147 2.51949 0
M  V30 501 H 46.1469 3.01611 2.86653 0
M  V30 502 H 45.0229 3.65971 4.09093 0
M  V30 503 H 45.2839 1.92624 3.9793 0
M  V30 504 N 44.343 -0.763751 1.37857 0
M  V30 505 C 45.273 -1.89103 1.36975 0
M  V30 506 C 46.254 -1.68439 0.237152 0
M  V30 507 O 47.439 -1.8918 0.438713 0
M  V30 508 C 44.569 -3.26496 1.18395 0
M  V30 509 C 43.523 -3.61741 2.28751 0
M  V30 510 C 42.849 -4.97762 1.95286 0
M  V30 511 C 44.149 -3.67665 3.70972 0
M  V30 512 H 45.843 -1.90099 2.31307 0
M  V30 513 H 43.389 -0.91319 1.11341 0
M  V30 514 H 45.342 -4.05003 1.16406 0
M  V30 515 H 44.066 -3.25955 0.205215 0
M  V30 516 H 42.725 -2.85547 2.29909 0
M  V30 517 H 42.373 -4.93769 0.959221 0
M  V30 518 H 42.073 -5.22313 2.69189 0
M  V30 519 H 43.597 -5.7866 1.94898 0
M  V30 520 H 45.011 -4.36307 3.719 0
M  V30 521 H 43.408 -4.03718 4.43995 0
M  V30 522 H 44.478 -2.68134 4.0402 0
M  V30 523 N 45.8211 -1.22559 -0.990812 0
M  V30 524 C 46.7841 -0.998863 -2.0629 0
M  V30 525 C 47.7841 0.0354834 -1.60761 0
M  V30 526 O 48.9741 -0.203231 -1.7301 0
M  V30 527 C 46.1061 -0.509203 -3.37076 0
M  V30 528 H 47.2991 -1.95014 -2.27837 0
M  V30 529 H 44.8521 -1.04456 -1.16269 0
M  V30 530 H 45.5871 0.446335 -3.21214 0
M  V30 531 H 45.3721 -1.25547 -3.71457 0
M  V30 532 H 46.8621 -0.370888 -4.1595 0
M  V30 533 N 47.2992 1.18797 -1.03562 0
M  V30 534 C 48.5272 1.92599 -0.755869 0
M  V30 535 C 48.9422 1.75886 0.686271 0
M  V30 536 O 48.2992 1.08517 1.46732 0
M  V30 537 C 48.3502 3.44159 -1.10619 0
M  V30 538 O 48.0712 3.60341 -2.4917 0
M  V30 539 C 49.5722 4.3507 -0.850214 0
M  V30 540 H 46.7922 0.611587 -0.276048 0
M  V30 541 H 49.3362 1.50742 -1.38192 0
M  V30 542 H 47.4912 3.83823 -0.525194 0
M  V30 543 H 47.9052 4.54128 -2.62427 0
M  V30 544 H 49.3792 5.39989 -1.14523 0
M  V30 545 H 49.8562 4.38673 0.215176 0
M  V30 546 H 50.4622 4.01097 -1.41426 0
M  V30 547 N 48.7773 0.814389 1.34928 0
M  V30 548 C 49.7243 0.22822 2.29669 0
M  V30 549 C 50.6943 -0.642164 1.53184 0
M  V30 550 O 51.8793 -0.585605 1.81591 0
M  V30 551 C 49.0193 -0.61089 3.3965 0
M  V30 552 C 48.1323 0.280792 4.31086 0
M  V30 553 C 47.2673 -0.567067 5.28165 0
M  V30 554 C 46.3063 0.324531 6.11239 0
M  V30 555 N 45.4433 -0.483756 7.00431 0
M  V30 556 H 50.2833 1.04153 2.79206 0
M  V30 557 H 47.8203 0.525133 1.37407 0
M  V30 558 H 49.7783 -1.11263 4.0209 0
M  V30 559 H 48.4083 -1.38939 2.91369 0
M  V30 560 H 47.4603 0.900688 3.69583 0
M  V30 561 H 48.7723 0.966723 4.89342 0
M  V30 562 H 47.9263 -1.13363 5.96015 0
M  V30 563 H 46.6653 -1.28654 4.70425 0
M  V30 564 H 45.6703 0.903298 5.42329 0
M  V30 565 H 46.8953 1.04198 6.71059 0
M  V30 566 H 44.8413 -1.18706 6.45171 0
M  V30 567 H 44.7583 0.143965 7.55863 0
M  V30 568 H 46.0263 -1.03334 7.7262 0
M  V30 569 N 50.2554 -1.46986 0.568584 0
M  V30 570 C 51.4834 -2.0683 0.0539956 0
M  V30 571 C 51.8984 -1.41953 -1.24478 0
M  V30 572 O 51.2554 -0.519933 -1.74937 0
M  V30 573 C 51.3064 -3.61254 -0.133362 0
M  V30 574 O 51.0274 -4.237 1.11399 0
M  V30 575 C 52.5284 -4.37992 -0.683927 0
M  V30 576 H 49.7484 -0.669058 0.0510141 0
M  V30 577 H 52.2924 -1.88824 0.785234 0
M  V30 578 H 50.4474 -3.78735 -0.81477 0
M  V30 579 H 50.8614 -5.16388 0.91888 0
M  V30 580 H 52.3354 -5.46684 -0.764263 0
M  V30 581 H 52.8124 -4.05058 -1.69778 0
M  V30 582 H 53.4184 -4.25283 -0.0378494 0
M  V30 583 N 51.7335 -0.305618 -1.54608 0
M  V30 584 C 53.1445 0.186098 -1.8577 0
M  V30 585 C 53.4955 1.53058 -1.22751 0
M  V30 586 O 52.6205 2.09888 -0.526893 0
M  V30 587 C 53.2155 0.344449 -3.37044 0
M  V30 588 C 51.7745 0.780384 -3.68221 0
M  V30 589 C 50.9215 -0.108554 -2.77087 0
M  V30 590 H 53.8725 -0.526485 -1.49712 0
M  V30 591 H 53.8935 1.17828 -3.61796 0
M  V30 592 H 53.4055 -0.634235 -3.82883 0
M  V30 593 H 51.5065 1.76945 -3.27904 0
M  V30 594 H 51.6195 0.596572 -4.75371 0
M  V30 595 H 49.9835 0.412931 -2.5133 0
M  V30 596 H 50.7665 -1.08368 -3.25747 0
M  V30 597 N 53.2116 1.57565 -0.0334293 0
M  V30 598 C 54.1746 2.09393 0.932048 0
M  V30 599 C 55.1746 1.00986 1.25134 0
M  V30 600 O 56.3646 1.27129 1.19096 0
M  V30 601 C 53.4966 2.56338 2.2473 0
M  V30 602 H 54.6896 2.95984 0.483085 0
M  V30 603 H 52.2426 1.54819 0.21468 0
M  V30 604 H 52.9776 1.7309 2.74245 0
M  V30 605 H 52.7626 3.35542 2.02865 0
M  V30 606 H 54.2526 2.96646 2.93923 0
M  V30 607 N 54.6897 -0.239769 1.55765 0
M  V30 608 C 55.9357 -0.968234 1.78194 0
M  V30 609 C 56.2687 -1.84701 0.599938 0
M  V30 610 O 55.5437 -1.9031 -0.401524 0
M  V30 611 C 55.8267 -1.8227 3.10564 0
M  V30 612 C 55.6797 -0.971633 4.3918 0
M  V30 613 C 56.9987 -2.80388 3.39221 0
M  V30 614 H 54.1177 -0.350572 0.648281 0
M  V30 615 H 56.7597 -0.238259 1.885 0
M  V30 616 H 54.9097 -2.44507 3.01908 0
M  V30 617 H 56.5817 -0.367408 4.59835 0
M  V30 618 H 54.8247 -0.276276 4.32919 0
M  V30 619 H 55.4957 -1.60346 5.28198 0
M  V30 620 H 57.9717 -2.28287 3.47885 0
M  V30 621 H 56.8477 -3.3729 4.33044 0
M  V30 622 H 57.1087 -3.57212 2.60484 0
M  V30 623 N 56.1678 -1.49265 -0.50573 0
M  V30 624 C 57.4448 -1.49012 -1.26707 0
M  V30 625 C 57.8248 -0.215205 -2.1 0
M  V30 626 O 57.1728 0.802547 -2.13943 0
M  V30 627 C 57.3828 -2.7663 -2.12783 0
M  V30 628 C 58.7308 -3.25932 -2.72127 0
M  V30 629 O 59.7548 -2.77715 -2.23054 0
M  V30 630 O 58.6138 -4.09897 -3.61451 0
M  V30 631 H 55.7078 -0.596197 -0.57313 0
M  V30 632 H 58.2538 -1.61524 -0.52039 0
M  V30 633 H 57.0258 -3.60916 -1.5118 0
M  V30 634 H 56.6488 -2.66956 -2.94653 0
M  V30 635 N 57.6459 0.756429 -1.3826 0
M  V30 636 C 58.5559 1.9009 -1.37488 0
M  V30 637 C 59.5719 1.71855 -0.272366 0
M  V30 638 O 60.7479 1.94827 -0.510318 0
M  V30 639 C 57.8129 3.25421 -1.19592 0
M  V30 640 C 56.8739 3.56202 -2.39622 0
M  V30 641 C 56.1069 4.85075 -2.2257 0
M  V30 642 O 56.3299 5.57246 -1.21793 0
M  V30 643 O 55.2639 5.15269 -3.11098 0
M  V30 644 H 59.0899 1.93695 -2.33914 0
M  V30 645 H 56.6749 0.901313 -1.1915 0
M  V30 646 H 58.5569 4.06337 -1.11661 0
M  V30 647 H 57.2319 3.22634 -0.262486 0
M  V30 648 H 56.1389 2.75458 -2.53128 0
M  V30 649 H 57.4719 3.63747 -3.31586 0
M  V30 650 N 59.124 1.23083 0.984299 0
M  V30 651 C 60.373 1.05466 1.71929 0
M  V30 652 C 60.686 -0.409211 1.91272 0
M  V30 653 O 61.892 -0.705226 2.62181 0
M  V30 654 C 60.348 1.83874 3.09384 0
M  V30 655 C 59.956 3.34566 2.97943 0
M  V30 656 C 61.7 1.74734 3.8687 0
M  V30 657 C 59.607 4.05381 4.30605 0
M  V30 658 H 58.537 0.391039 0.644674 0
M  V30 659 H 61.188 1.47013 1.09815 0
M  V30 660 H 59.57 1.35131 3.72231 0
M  V30 661 H 60.744 3.90767 2.44209 0
M  V30 662 H 59.059 3.44476 2.33934 0
M  V30 663 H 61.656 2.24957 4.85076 0
M  V30 664 H 61.999 0.709372 4.10212 0
M  V30 665 H 62.532 2.21067 3.30717 0
M  V30 666 H 59.271 5.09467 4.1246 0
M  V30 667 H 58.791 3.53967 4.84218 0
M  V30 668 H 60.47 4.11458 4.99311 0
M  V30 669 N 60.6021 -1.18246 1.0419 0
M  V30 670 C 61.8271 -1.92736 0.765996 0
M  V30 671 C 62.2521 -1.75728 -0.67091 0
M  V30 672 O 61.6101 -1.06825 -1.46486 0
M  V30 673 C 61.6581 -3.42148 1.13875 0
M  V30 674 O 60.7621 -4.11548 0.264954 0
M  V30 675 H 60.1031 -0.601238 0.281797 0
M  V30 676 H 62.6331 -1.49942 1.39207 0
M  V30 677 H 62.6431 -3.92858 1.1012 0
M  V30 678 H 61.3181 -3.53848 2.18551 0
M  V30 679 H 59.8951 -3.71137 0.362226 0
M  V30 680 N 62.0802 -0.821533 -1.34494 0
M  V30 681 C 63.3572 -0.33159 -1.92769 0
M  V30 682 C 63.7372 1.18088 -1.74981 0
M  V30 683 O 63.0852 1.98733 -1.12772 0
M  V30 684 C 63.2952 -0.759398 -3.40638 0
M  V30 685 C 64.6432 -0.757433 -4.1779 0
M  V30 686 O 65.6672 -0.70189 -3.49216 0
M  V30 687 O 64.5262 -0.829361 -5.4017 0
M  V30 688 H 61.6202 -0.0902502 -0.822061 0
M  V30 689 H 64.1662 -0.906231 -1.43477 0
M  V30 690 H 62.9382 -1.8012 -3.47379 0
M  V30 691 H 62.5612 -0.160378 -3.97276 0
M  V30 692 N 63.5583 1.46682 -0.576371 0
M  V30 693 C 64.7833 2.07304 -0.0630475 0
M  V30 694 C 65.2083 1.42329 1.2298 0
M  V30 695 O 64.5663 0.504865 1.74129 0
M  V30 696 C 64.6143 3.60472 0.095895 0
M  V30 697 O 63.7183 3.95927 1.15394 0
M  V30 698 H 63.0593 0.661288 -0.0599463 0
M  V30 699 H 65.5893 1.88417 -0.797511 0
M  V30 700 H 65.5993 4.06865 0.304071 0
M  V30 701 H 64.2743 4.07157 -0.84828 0
M  V30 702 H 62.8513 3.61252 0.924724 0
M  V30 703 N 65.0364 0.313813 1.54444 0
M  V30 704 C 66.2644 -0.293918 2.04802 0
M  V30 705 C 66.6794 -1.46537 1.19047 0
M  V30 706 O 66.0364 -1.81182 0.218939 0
M  V30 707 C 66.0874 -0.737806 3.53891 0
M  V30 708 O 65.8084 0.387038 4.36387 0
M  V30 709 C 67.3094 -1.40936 4.203 0
M  V30 710 H 64.5294 -0.0620057 0.668129 0
M  V30 711 H 67.0734 0.457169 1.99324 0
M  V30 712 H 65.2284 -1.43889 3.59687 0
M  V30 713 H 65.6424 0.0391274 5.24485 0
M  V30 714 H 67.1164 -1.67099 5.26101 0
M  V30 715 H 67.5934 -2.35355 3.70816 0
M  V30 716 H 68.1994 -0.751117 4.18615 0
M  V30 717 N 66.5145 -1.57545 0.0417849 0
M  V30 718 C 67.7395 -1.97035 -0.647455 0
M  V30 719 C 68.1645 -0.918775 -1.64135 0
M  V30 720 O 67.5225 0.119006 -1.80909 0
M  V30 721 C 67.5705 -3.35609 -1.31905 0
M  V30 722 O 66.6745 -3.3287 -2.43457 0
M  V30 723 H 66.0155 -0.64211 -0.169086 0
M  V30 724 H 68.5455 -2.04318 0.107399 0
M  V30 725 H 68.5555 -3.72126 -1.67291 0
M  V30 726 H 67.2305 -4.11685 -0.590586 0
M  V30 727 H 65.8075 -3.08087 -2.10088 0
M  V30 728 N 67.9926 0.231505 -1.5589 0
M  V30 729 C 69.2206 0.974505 -1.82513 0
M  V30 730 C 69.6356 1.78344 -0.619591 0
M  V30 731 O 68.9926 1.77792 0.411848 0
M  V30 732 C 69.0436 1.90007 -3.07538 0
M  V30 733 O 68.7646 1.12385 -4.2344 0
M  V30 734 C 70.2656 2.75779 -3.47075 0
M  V30 735 H 67.4856 0.286065 -0.606966 0
M  V30 736 H 70.0296 0.249739 -2.02969 0
M  V30 737 H 68.1846 2.57891 -2.89086 0
M  V30 738 H 68.5986 1.75125 -4.944 0
M  V30 739 H 70.0726 3.36443 -4.37619 0
M  V30 740 H 70.5496 3.47672 -2.68367 0
M  V30 741 H 71.1556 2.13323 -3.67931 0
M  V30 742 N 69.4707 1.49531 0.497807 0
M  V30 743 C 70.8817 1.52344 1.07927 0
M  V30 744 C 71.2327 0.311469 1.93712 0
M  V30 745 O 70.3577 -0.578405 2.08527 0
M  V30 746 C 70.9527 2.76062 1.96405 0
M  V30 747 C 69.5117 2.81643 2.49709 0
M  V30 748 C 68.6587 2.46299 1.27404 0
M  V30 749 H 71.6097 1.56182 0.281576 0
M  V30 750 H 71.6307 2.56405 2.81135 0
M  V30 751 H 71.1427 3.64254 1.33943 0
M  V30 752 H 69.2437 1.97739 3.15801 0
M  V30 753 H 69.3567 3.83891 2.86643 0
M  V30 754 H 67.7207 1.98148 1.60029 0
M  V30 755 H 68.5037 3.36769 0.66645 0
M  V30 756 N 70.9488 -0.749086 1.3866 0
M  V30 757 C 71.9118 -1.84457 1.36045 0
M  V30 758 C 72.9118 -1.58682 0.260122 0
M  V30 759 O 74.1018 -1.66343 0.517261 0
M  V30 760 C 71.2338 -3.22008 1.11911 0
M  V30 761 H 72.4268 -1.88182 2.33512 0
M  V30 762 H 69.9798 -0.951266 1.24019 0
M  V30 763 H 70.7148 -3.2395 0.150686 0
M  V30 764 H 70.4998 -3.42111 1.91579 0
M  V30 765 H 71.9898 -4.0208 1.12788 0
M  V30 766 N 72.4269 -1.23603 -0.977757 0
M  V30 767 C 73.6549 -1.09646 -1.75458 0
M  V30 768 C 74.0699 0.351859 -1.85492 0
M  V30 769 O 73.4269 1.24327 -1.336 0
M  V30 770 C 73.4779 -1.71895 -3.18016 0
M  V30 771 O 73.1989 -3.11063 -3.08498 0
M  V30 772 C 74.6999 -1.63415 -4.12081 0
M  V30 773 H 71.9199 -0.38359 -0.550545 0
M  V30 774 H 74.4639 -1.63507 -1.22824 0
M  V30 775 H 72.6189 -1.22061 -3.67668 0
M  V30 776 H 73.0329 -3.41305 -3.9826 0
M  V30 777 H 74.5069 -2.11669 -5.09804 0
M  V30 778 H 74.9839 -0.593462 -4.35172 0
M  V30 779 H 75.5899 -2.12628 -3.68334 0
M  V30 780 N 73.905 1.17692 -1.04816 0
M  V30 781 C 75.133 1.91786 -0.776254 0
M  V30 782 C 75.548 1.76604 0.667577 0
M  V30 783 O 74.905 1.10067 1.45573 0
M  V30 784 C 74.956 3.42967 -1.14263 0
M  V30 785 O 74.677 3.57678 -2.52978 0
M  V30 786 C 76.178 4.34144 -0.896311 0
M  V30 787 H 73.398 0.608624 -0.282519 0
M  V30 788 H 75.942 1.49268 -1.39783 0
M  V30 789 H 74.097 3.83245 -0.565874 0
M  V30 790 H 74.511 4.51319 -2.67229 0
M  V30 791 H 75.985 5.38744 -1.20244 0
M  V30 792 H 76.462 4.38876 0.168636 0
M  V30 793 H 77.068 3.99574 -1.45672 0
M  V30 794 N 75.3831 0.828654 1.34056 0
M  V30 795 C 76.7991 0.515135 1.51058 0
M  V30 796 C 76.9991 -0.959581 1.77184 0
M  V30 797 O 76.0551 -1.74382 1.82612 0
M  V30 798 C 77.3681 1.37963 2.67183 0
M  V30 799 C 78.9161 1.37735 2.81066 0
M  V30 800 C 79.3911 2.22645 4.00241 0
M  V30 801 N 80.8821 2.203 4.07458 0
M  V30 802 C 81.6171 2.82744 4.98842 0
M  V30 803 N 81.1131 3.54201 5.9541 0
M  V30 804 N 82.9061 2.72268 4.91759 0
M  V30 805 H 75.0571 1.78343 1.15358 0
M  V30 806 H 77.3201 0.760304 0.566252 0
M  V30 807 H 77.0261 2.42714 2.54525 0
M  V30 808 H 76.9001 1.0484 3.62338 0
M  V30 809 H 79.2871 0.337593 2.93163 0
M  V30 810 H 79.3681 1.74859 1.86703 0
M  V30 811 H 79.0121 3.26674 3.88905 0
M  V30 812 H 78.9421 1.82869 4.93829 0
M  V30 813 H 81.4331 1.68327 3.38341 0
M  V30 814 H 81.7461 3.9908 6.61782 0
M  V30 815 H 80.0911 3.58308 5.95517 0
M  V30 816 H 83.2821 2.16014 4.15278 0
M  V30 817 H 83.4551 3.21219 5.62781 0
M  V30 818 N 76.8612 -1.46375 0.584142 0
M  V30 819 C 78.1072 -2.02678 0.0703716 0
M  V30 820 C 78.4402 -1.4545 -1.28678 0
M  V30 821 O 77.7152 -0.62014 -1.84349 0
M  V30 822 C 77.9982 -3.60099 0.00614674 0
M  V30 823 C 77.8512 -4.27709 1.3923 0
M  V30 824 C 79.1702 -4.34598 -0.693742 0
M  V30 825 H 76.2892 -0.736504 0.027047 0
M  V30 826 H 78.9312 -1.74501 0.751615 0
M  V30 827 H 77.0812 -3.84236 -0.574009 0
M  V30 828 H 78.7532 -4.14832 2.01773 0
M  V30 829 H 76.9962 -3.87016 1.95962 0
M  V30 830 H 77.6672 -5.36478 1.29982 0
M  V30 831 H 80.1432 -4.15615 -0.200869 0
M  V30 832 H 79.0192 -5.44318 -0.707714 0
M  V30 833 H 79.2802 -4.05759 -1.75533 0
M  V30 834 N 78.3393 -0.321999 -1.54275 0
M  V30 835 C 79.5673 0.283052 -2.04955 0
M  V30 836 C 79.9823 1.45904 -1.19823 0
M  V30 837 O 79.3393 1.81063 -0.228545 0
M  V30 838 C 79.3903 0.719028 -3.54277 0
M  V30 839 O 79.1113 -0.410175 -4.36176 0
M  V30 840 C 80.6123 1.38705 -4.21041 0
M  V30 841 H 77.8323 0.0584616 -0.668448 0
M  V30 842 H 80.3763 -0.467734 -1.99079 0
M  V30 843 H 78.5313 1.41979 -3.60445 0
M  V30 844 H 78.9453 -0.0669416 -5.24457 0
M  V30 845 H 80.4193 1.64306 -5.2698 0
M  V30 846 H 80.8963 2.33385 -3.72059 0
M  V30 847 H 81.5023 0.728906 -4.19007 0
M  V30 848 N 79.8174 1.5752 -0.0501392 0
M  V30 849 C 81.0454 1.96963 0.633492 0
M  V30 850 C 81.4604 0.927631 1.6444 0
M  V30 851 O 80.8174 -0.0882665 1.82286 0
M  V30 852 C 80.8684 3.36487 1.32132 0
M  V30 853 O 80.5894 4.36693 0.350894 0
M  V30 854 C 82.0904 3.90682 2.09481 0
M  V30 855 H 79.3104 0.648244 0.173266 0
M  V30 856 H 81.8544 2.0417 -0.116134 0
M  V30 857 H 80.0094 3.30434 2.02218 0
M  V30 858 H 80.4234 5.17702 0.841735 0
M  V30 859 H 81.8974 4.90591 2.5303 0
M  V30 860 H 82.3744 3.26053 2.94255 0
M  V30 861 H 82.9804 4.00069 1.44307 0
M  V30 862 N 81.2955 -0.223234 1.56011 0
M  V30 863 C 82.2435 -1.29627 1.93131 0
M  V30 864 C 83.2375 -1.48608 0.813146 0
M  V30 865 O 84.4435 -1.49802 0.997966 0
M  V30 866 H 80.8185 -0.434563 0.613726 0
M  V30 867 H 82.7895 -0.955995 2.82672 0
M  V30 868 C 81.5385 -2.63983 2.26292 0
M  V30 869 H 80.8615 -2.50185 3.11846 0
M  V30 870 H 82.3015 -3.3788 2.56151 0
M  V30 871 C 80.7605 -3.18866 1.08747 0
M  V30 872 O 81.2905 -4.00192 0.347727 0
M  V30 873 N 79.4965 -2.77217 0.871743 0
M  V30 874 H 79.0435 -2.1119 1.47501 0
M  V30 875 H 79.0015 -3.1428 0.0869905 0
M  V30 876 N 82.7736 -1.49793 -0.48987 0
M  V30 877 C 84.1846 -1.52914 -1.07118 0
M  V30 878 C 84.5356 -0.321738 -1.93544 0
M  V30 879 O 83.6606 0.567338 -2.08831 0
M  V30 880 C 84.2556 -2.771 -1.94938 0
M  V30 881 C 82.8146 -2.82963 -2.48212 0
M  V30 882 C 81.9616 -2.46972 -1.26096 0
M  V30 883 H 84.9126 -1.56329 -0.273289 0
M  V30 884 H 84.9336 -2.57892 -2.79771 0
M  V30 885 H 84.4456 -3.64959 -1.32009 0
M  V30 886 H 82.5466 -1.99411 -3.14748 0
M  V30 887 H 82.6596 -3.85406 -2.84603 0
M  V30 888 H 81.0236 -1.98994 -1.58976 0
M  V30 889 H 81.8066 -3.37118 -0.648581 0
M  V30 890 N 84.2517 0.741722 -1.39055 0
M  V30 891 C 85.4767 1.53607 -1.39354 0
M  V30 892 C 85.9017 1.88096 0.0116905 0
M  V30 893 O 85.2597 1.5143 0.996924 0
M  V30 894 C 85.3077 2.80441 -2.26682 0
M  V30 895 O 84.4117 3.76088 -1.69208 0
M  V30 896 H 83.7527 0.464142 -0.474835 0
M  V30 897 H 86.2827 0.915665 -1.82967 0
M  V30 898 H 86.2927 3.29246 -2.40959 0
M  V30 899 H 84.9677 2.5467 -3.2881 0
M  V30 900 H 83.5447 3.34833 -1.64138 0
M  V30 901 N 85.7298 1.2412 0.971189 0
M  V30 902 C 87.0068 0.986867 1.6888 0
M  V30 903 C 87.3868 -0.491857 2.0529 0
M  V30 904 O 86.7348 -1.46531 1.75331 0
M  V30 905 C 86.9448 1.9063 2.92338 0
M  V30 906 C 88.2928 2.17515 3.64654 0
M  V30 907 O 89.3168 1.88254 3.02388 0
M  V30 908 O 88.1758 2.6719 4.7673 0
M  V30 909 H 85.2698 0.372944 0.738134 0
M  V30 910 H 87.8158 1.35203 1.02559 0
M  V30 911 H 86.5878 2.90552 2.62097 0
M  V30 912 H 86.2108 1.54408 3.66393 0
M  V30 913 N 87.2079 -1.17134 1.05439 0
M  V30 914 C 88.4329 -1.91913 0.786396 0
M  V30 915 C 88.8579 -1.7643 -0.652234 0
M  V30 916 O 88.2159 -1.08372 -1.45345 0
M  V30 917 C 88.2639 -3.40921 1.17497 0
M  V30 918 O 87.3679 -4.11244 0.308589 0
M  V30 919 H 86.7089 -0.598215 0.288158 0
M  V30 920 H 89.2389 -1.48457 1.4079 0
M  V30 921 H 89.2489 -3.91668 1.14281 0
M  V30 922 H 87.9239 -3.5151 2.22292 0
M  V30 923 H 86.5009 -3.70731 0.40157 0
M  V30 924 N 88.686 -0.835752 -1.33615 0
M  V30 925 C 89.934 -0.429109 -1.97492 0
M  V30 926 C 90.255 1.01433 -1.66543 0
M  V30 927 O 89.525 1.70611 -0.962744 0
M  V30 928 H 88.105 -0.155686 -0.730596 0
M  V30 929 H 90.767 -1.06802 -1.63031 0
M  V30 930 H 89.863 -0.55861 -3.0706 0
M  V30 931 N 90.1641 1.46063 -0.591896 0
M  V30 932 C 91.1111 2.30399 0.136069 0
M  V30 933 C 92.0811 1.41169 0.875238 0
M  V30 934 O 93.2661 1.70112 0.86409 0
M  V30 935 C 90.4061 3.25804 1.13781 0
M  V30 936 C 89.5191 4.30134 0.401137 0
M  V30 937 C 88.6541 5.12659 1.39121 0
M  V30 938 C 87.6931 6.0873 0.641462 0
M  V30 939 N 86.8301 6.8409 1.58004 0
M  V30 940 H 91.6701 2.92118 -0.589144 0
M  V30 941 H 89.2071 1.43959 -0.302342 0
M  V30 942 H 91.1651 3.79569 1.73156 0
M  V30 943 H 89.7951 2.65872 1.83062 0
M  V30 944 H 88.8471 3.79152 -0.307826 0
M  V30 945 H 90.1591 4.98458 -0.184565 0
M  V30 946 H 89.3131 5.70747 2.05749 0
M  V30 947 H 88.0521 4.44316 2.01084 0
M  V30 948 H 87.0571 5.49786 -0.0385419 0
M  V30 949 H 88.2821 6.79095 0.0270945 0
M  V30 950 H 86.2281 6.18449 2.18761 0
M  V30 951 H 86.1451 7.48709 1.04738 0
M  V30 952 H 87.4131 7.4673 2.23639 0
M  V30 953 N 91.6422 0.330177 1.54103 0
M  V30 954 C 92.8822 -0.270916 2.02597 0
M  V30 955 C 93.2462 -1.48826 1.21304 0
M  V30 956 O 94.4472 -2.16266 1.59633 0
M  V30 957 C 92.7182 -0.590328 3.52491 0
M  V30 958 S 94.2772 -1.17014 4.2291 0
M  V30 959 H 91.0952 -0.0815379 0.706309 0
M  V30 960 H 93.6972 0.464835 1.89893 0
M  V30 961 H 92.4012 0.303691 4.09275 0
M  V30 962 H 91.9322 -1.3561 3.69288 0
M  V30 963 H 93.9472 -2.45662 4.3112 0
M  V30 964 N 93.1203 -1.57491 0.0584922 0
M  V30 965 C 94.5313 -1.80526 -0.476138 0
M  V30 966 C 94.8823 -0.971334 -1.70469 0
M  V30 967 O 94.0073 -0.190012 -2.15564 0
M  V30 968 C 94.6023 -3.27424 -0.870587 0
M  V30 969 C 93.1613 -3.51351 -1.35015 0
M  V30 970 C 92.3083 -2.75343 -0.32887 0
M  V30 971 H 95.2593 -1.56133 0.284312 0
M  V30 972 H 95.2803 -3.38745 -1.73299 0
M  V30 973 H 94.7923 -3.88093 0.0237627 0
M  V30 974 H 92.8933 -2.95971 -2.26345 0
M  V30 975 H 93.0063 -4.60059 -1.33726 0
M  V30 976 H 91.3703 -2.417 -0.803321 0
M  V30 977 H 92.1533 -3.38743 0.557521 0
M  V30 978 N 94.5984 0.214957 -1.56127 0
M  V30 979 C 95.5464 1.28601 -1.93816 0
M  V30 980 C 96.5404 1.48175 -0.821016 0
M  V30 981 O 97.7464 1.49271 -1.0059 0
M  V30 982 H 94.1214 0.431302 -0.616022 0
M  V30 983 H 96.0924 0.940991 -2.83175 0
M  V30 984 C 94.8414 2.62779 -2.27689 0
M  V30 985 H 94.1644 2.48527 -3.13168 0
M  V30 986 H 95.6044 3.36517 -2.57939 0
M  V30 987 C 94.0634 3.18285 -1.10436 0
M  V30 988 O 94.5934 4.00002 -0.368945 0
M  V30 989 N 92.7994 2.7675 -0.886433 0
M  V30 990 H 92.3464 2.10404 -1.48619 0
M  V30 991 H 92.3044 3.14229 -0.103656 0
M  V30 992 N 96.0765 1.50051 0.48192 0
M  V30 993 C 97.3225 1.60736 1.2366 0
M  V30 994 C 97.6555 0.301786 1.91841 0
M  V30 995 O 96.9305 -0.696025 1.8162 0
M  V30 996 C 97.2135 2.78009 2.28874 0
M  V30 997 C 97.0665 4.18416 1.65069 0
M  V30 998 C 98.3855 2.90867 3.30279 0
M  V30 999 H 95.5045 0.585031 0.448228 0
M  V30 1000 H 98.1465 1.82402 0.531946 0
M  V30 1001 H 96.2965 2.59667 2.88973 0
M  V30 1002 H 97.9685 4.48322 1.0865 0
M  V30 1003 H 96.2115 4.23177 0.954148 0
M  V30 1004 H 96.8825 4.96381 2.41474 0
M  V30 1005 H 99.3585 3.07623 2.80191 0
M  V30 1006 H 98.2345 3.74566 4.01238 0
M  V30 1007 H 98.4955 2.01021 3.93755 0
M  V30 1008 N 97.5546 -0.734337 1.39446 0
M  V30 1009 C 98.4846 -1.86155 1.40955 0
M  V30 1010 C 99.4656 -1.67898 0.272827 0
M  V30 1011 O 100.651 -1.88207 0.478743 0
M  V30 1012 C 97.7806 -3.23912 1.25294 0
M  V30 1013 C 96.7346 -3.56808 2.36373 0
M  V30 1014 C 96.0606 -4.93508 2.058 0
M  V30 1015 C 97.3606 -3.59713 3.78687 0
M  V30 1016 H 99.0546 -1.8515 2.35287 0
M  V30 1017 H 96.6006 -0.889367 1.13253 0
M  V30 1018 H 98.5536 -4.02443 1.2497 0
M  V30 1019 H 97.2776 -3.25446 0.274308 0
M  V30 1020 H 95.9366 -2.80606 2.35914 0
M  V30 1021 H 95.5846 -4.91623 1.06374 0
M  V30 1022 H 95.2846 -5.16486 2.80208 0
M  V30 1023 H 96.8086 -5.74396 2.07128 0
M  V30 1024 H 98.2226 -4.2832 3.81071 0
M  V30 1025 H 96.6196 -3.94209 4.52459 0
M  V30 1026 H 97.6896 -2.59504 4.09617 0
M  V30 1027 N 99.0327 -1.24633 -0.964593 0
M  V30 1028 C 99.9807 -1.03917 -2.08096 0
M  V30 1029 C 100.975 0.0268581 -1.69379 0
M  V30 1030 O 102.181 -0.127952 -1.79545 0
M  V30 1031 H 98.5557 -0.319044 -0.680966 0
M  V30 1032 H 100.527 -1.98581 -2.22729 0
M  V30 1033 C 99.2757 -0.663983 -3.41301 0
M  V30 1034 H 98.5987 -1.47605 -3.71555 0
M  V30 1035 H 100.039 -0.558663 -4.20303 0
M  V30 1036 C 98.4977 0.629169 -3.30973 0
M  V30 1037 O 99.0277 1.67404 -3.65156 0
M  V30 1038 N 97.2337 0.611057 -2.84103 0
M  V30 1039 H 96.7807 -0.239593 -2.56483 0
M  V30 1040 H 96.7387 1.47647 -2.77575 0
M  V30 1041 N 100.511 1.16574 -1.06058 0
M  V30 1042 C 101.788 1.83048 -0.689416 0
M  V30 1043 C 102.168 1.94122 0.829443 0
M  V30 1044 O 101.516 1.48249 1.7388 0
M  V30 1045 C 101.726 3.20186 -1.38859 0
M  V30 1046 C 103.074 3.95989 -1.53226 0
M  V30 1047 O 104.098 3.29696 -1.3483 0
M  V30 1048 O 102.957 5.14813 -1.83384 0
M  V30 1049 H 100.051 0.790258 -0.243764 0
M  V30 1050 H 102.597 1.23797 -1.16071 0
M  V30 1051 H 101.369 3.07146 -2.4244 0
M  V30 1052 H 100.992 3.87112 -0.907216 0
M  V30 1053 N 101.989 0.842826 1.3317 0
M  V30 1054 C 103.4 0.496651 1.79973 0
M  V30 1055 C 103.751 -0.984641 1.69703 0
M  V30 1056 O 102.876 -1.76743 1.24863 0
M  V30 1057 C 103.471 0.894727 3.26772 0
M  V30 1058 C 102.03 0.600629 3.71577 0
M  V30 1059 C 101.177 1.10091 2.5451 0
M  V30 1060 H 104.128 1.03116 1.20635 0
M  V30 1061 H 104.149 0.206347 3.7994 0
M  V30 1062 H 103.661 1.97287 3.34215 0
M  V30 1063 H 101.762 -0.467284 3.69658 0
M  V30 1064 H 101.875 1.15863 4.64879 0
M  V30 1065 H 100.239 0.52162 2.49301 0
M  V30 1066 H 101.022 2.18591 2.64713 0
M  V30 1067 N 103.467 -1.45747 0.599634 0
M  V30 1068 C 104.713 -2.02592 0.0918643 0
M  V30 1069 C 105.046 -1.46806 -1.27128 0
M  V30 1070 O 104.321 -0.639658 -1.83681 0
M  V30 1071 C 104.604 -3.60073 0.0443398 0
M  V30 1072 C 104.457 -4.26208 1.43759 0
M  V30 1073 C 105.776 -4.35309 -0.647608 0
M  V30 1074 H 102.895 -0.736175 0.034857 0
M  V30 1075 H 105.537 -1.73694 0.770081 0
M  V30 1076 H 103.687 -3.84823 -0.533224 0
M  V30 1077 H 105.359 -4.12668 2.06162 0
M  V30 1078 H 103.602 -3.84916 2.00056 0
M  V30 1079 H 104.273 -5.35069 1.35665 0
M  V30 1080 H 106.749 -4.15805 -0.156776 0
M  V30 1081 H 105.625 -5.45038 -0.649942 0
M  V30 1082 H 105.886 -4.07598 -1.71219 0
M  V30 1083 N 104.945 -0.338344 -1.53925 0
M  V30 1084 C 105.893 0.536231 -2.26335 0
M  V30 1085 C 106.887 1.1063 -1.28286 0
M  V30 1086 O 108.093 1.05264 -1.46012 0
M  V30 1087 H 104.468 0.191602 -0.727181 0
M  V30 1088 H 106.439 -0.0965747 -2.98244 0
M  V30 1089 C 105.188 1.67803 -3.04528 0
M  V30 1090 H 104.511 1.24864 -3.79801 0
M  V30 1091 H 105.951 2.26526 -3.58416 0
M  V30 1092 C 104.41 2.60439 -2.13712 0
M  V30 1093 O 104.94 3.6255 -1.72975 0
M  V30 1094 N 103.146 2.29006 -1.78898 0
M  V30 1095 H 102.693 1.46011 -2.12223 0
M  V30 1096 H 102.651 2.91248 -1.18416 0
M  V30 1097 N 106.423 1.57458 -0.0668435 0
M  V30 1098 C 107.669 1.93587 0.6043 0
M  V30 1099 C 108.002 0.946722 1.69561 0
M  V30 1100 O 107.277 -0.0248516 1.94484 0
M  V30 1101 C 107.56 3.40014 1.18585 0
M  V30 1102 C 107.413 4.49685 0.101529 0
M  V30 1103 C 108.732 3.87154 2.09284 0
M  V30 1104 H 105.851 0.703958 0.218202 0
M  V30 1105 H 108.493 1.89542 -0.131804 0
M  V30 1106 H 106.643 3.43592 1.81319 0
M  V30 1107 H 108.315 4.5823 -0.531279 0
M  V30 1108 H 106.558 4.30059 -0.568487 0
M  V30 1109 H 107.229 5.49266 0.54874 0
M  V30 1110 H 109.705 3.85551 1.56491 0
M  V30 1111 H 108.581 4.90231 2.46911 0
M  V30 1112 H 108.842 3.2481 2.99918 0
M  V30 1113 N 107.901 -0.206675 1.56239 0
M  V30 1114 C 109.317 -0.557025 1.49564 0
M  V30 1115 C 109.517 -1.86424 0.764735 0
M  V30 1116 O 108.573 -2.50584 0.310491 0
M  V30 1117 C 109.886 -0.622478 2.94186 0
M  V30 1118 C 111.434 -0.712099 3.04792 0
M  V30 1119 C 111.909 -0.808767 4.50803 0
M  V30 1120 N 113.4 -0.8726 4.54907 0
M  V30 1121 C 114.135 -0.967365 5.65181 0
M  V30 1122 N 113.631 -1.02515 6.85173 0
M  V30 1123 N 115.424 -1.00366 5.53067 0
M  V30 1124 H 107.575 0.650943 2.02179 0
M  V30 1125 H 109.838 0.230387 0.919579 0
M  V30 1126 H 109.544 0.268727 3.50672 0
M  V30 1127 H 109.418 -1.4811 3.46905 0
M  V30 1128 H 111.805 -1.59374 2.48363 0
M  V30 1129 H 111.886 0.172489 2.55218 0
M  V30 1130 H 111.53 0.0684754 5.07854 0
M  V30 1131 H 111.46 -1.70899 4.98098 0
M  V30 1132 H 113.951 -0.837657 3.68499 0
M  V30 1133 H 114.264 -1.09765 7.64965 0
M  V30 1134 H 112.609 -0.994026 6.87855 0
M  V30 1135 H 115.8 -0.95527 4.58249 0
M  V30 1136 H 115.973 -1.07405 6.39037 0
M  V30 1137 N 109.379 -1.50304 -0.473955 0
M  V30 1138 C 110.628 -1.60392 -1.22301 0
M  V30 1139 C 110.941 -0.308411 -1.93153 0
M  V30 1140 O 112.147 -0.288156 -2.69966 0
M  V30 1141 C 110.603 -2.83109 -2.2221 0
M  V30 1142 C 110.211 -4.19524 -1.57173 0
M  V30 1143 C 111.955 -3.0254 -2.97775 0
M  V30 1144 C 109.862 -5.33431 -2.55353 0
M  V30 1145 H 108.792 -0.597286 -0.460179 0
M  V30 1146 H 111.443 -1.76731 -0.493803 0
M  V30 1147 H 109.825 -2.60322 -2.9841 0
M  V30 1148 H 110.999 -4.52554 -0.867824 0
M  V30 1149 H 109.314 -4.05674 -0.939002 0
M  V30 1150 H 111.911 -3.84811 -3.71248 0
M  V30 1151 H 112.254 -2.14154 -3.56992 0
M  V30 1152 H 112.787 -3.25494 -2.28688 0
M  V30 1153 H 109.526 -6.23962 -2.00878 0
M  V30 1154 H 109.046 -5.04823 -3.23904 0
M  V30 1155 H 110.725 -5.63887 -3.17239 0
M  V30 1156 N 110.857 0.726932 -1.39834 0
M  V30 1157 C 111.805 1.86235 -1.39353 0
M  V30 1158 C 112.799 1.67144 -0.275555 0
M  V30 1159 O 114.005 1.74387 -0.44601 0
M  V30 1160 H 110.38 0.613174 -0.43534 0
M  V30 1161 H 112.351 1.83756 -2.35109 0
M  V30 1162 C 111.1 3.23995 -1.26185 0
M  V30 1163 H 110.423 3.39285 -2.11484 0
M  V30 1164 H 111.863 4.03609 -1.29907 0
M  V30 1165 C 110.322 3.36888 0.0290018 0
M  V30 1166 O 110.852 3.89152 0.99619 0
M  V30 1167 N 109.058 2.90446 0.0947437 0
M  V30 1168 H 108.605 2.48102 -0.693035 0
M  V30 1169 H 108.563 2.99451 0.957932 0
M  V30 1170 N 112.336 1.25143 0.95797 0
M  V30 1171 C 113.576 1.10893 1.71703 0
M  V30 1172 C 113.94 -0.34478 1.88879 0
M  V30 1173 O 115.141 -0.609014 2.6181 0
M  V30 1174 C 113.412 1.83889 3.06463 0
M  V30 1175 S 114.971 1.85491 3.97666 0
M  V30 1176 H 111.789 0.396428 0.590226 0
M  V30 1177 H 114.391 1.58618 1.14283 0
M  V30 1178 H 113.095 2.88756 2.9163 0
M  V30 1179 H 112.626 1.36538 3.68946 0
M  V30 1180 H 114.641 0.929553 4.87415 0
M  V30 1181 N 113.814 -1.1601 1.06675 0
M  V30 1182 C 115.063 -1.85973 0.780818 0
M  V30 1183 C 115.376 -1.82819 -0.695444 0
M  V30 1184 O 116.582 -2.484 -1.09589 0
M  V30 1185 C 115.038 -3.33757 1.34665 0
M  V30 1186 C 114.646 -3.45374 2.85343 0
M  V30 1187 C 116.39 -4.0895 1.13843 0
M  V30 1188 C 114.297 -4.87266 3.35151 0
M  V30 1189 H 113.227 -0.696661 0.288407 0
M  V30 1190 H 115.878 -1.30903 1.28595 0
M  V30 1191 H 114.26 -3.88456 0.769274 0
M  V30 1192 H 115.434 -3.00816 3.49065 0
M  V30 1193 H 113.749 -2.83619 3.04876 0
M  V30 1194 H 116.346 -5.13654 1.4854 0
M  V30 1195 H 116.689 -4.16229 0.0770282 0
M  V30 1196 H 117.222 -3.605 1.68179 0
M  V30 1197 H 113.961 -4.85168 4.40786 0
M  V30 1198 H 113.481 -5.32433 2.76179 0
M  V30 1199 H 115.16 -5.56097 3.30704 0
M  V30 1200 N 115.292 -0.849877 -1.32721 0
M  V30 1201 C 116.703 -0.506188 -1.79707 0
M  V30 1202 C 117.054 0.975627 -1.70223 0
M  V30 1203 O 116.179 1.76078 -1.25799 0
M  V30 1204 C 116.774 -0.912044 -3.26293 0
M  V30 1205 C 115.333 -0.620326 -3.71253 0
M  V30 1206 C 114.48 -1.11439 -2.53922 0
M  V30 1207 H 117.431 -1.03754 -1.20087 0
M  V30 1208 H 117.452 -0.226493 -3.79825 0
M  V30 1209 H 116.964 -1.99057 -3.33164 0
M  V30 1210 H 115.065 0.447674 -3.69901 0
M  V30 1211 H 115.178 -1.18327 -4.64258 0
M  V30 1212 H 113.542 -0.534834 -2.49021 0
M  V30 1213 H 114.325 -2.19992 -2.6355 0
M  V30 1214 N 116.77 1.45427 -0.607355 0
M  V30 1215 C 117.68 2.34325 0.113463 0
M  V30 1216 C 118.696 1.51226 0.860617 0
M  V30 1217 O 119.872 1.84029 0.818255 0
M  V30 1218 C 116.937 3.28839 1.09844 0
M  V30 1219 C 115.998 4.27844 0.353271 0
M  V30 1220 C 115.231 5.17842 1.29133 0
M  V30 1221 O 115.454 5.11264 2.52913 0
M  V30 1222 O 114.388 5.96713 0.788523 0
M  V30 1223 H 118.214 2.97364 -0.617094 0
M  V30 1224 H 115.799 1.44807 -0.367619 0
M  V30 1225 H 117.681 3.8708 1.66575 0
M  V30 1226 H 116.356 2.68365 1.81003 0
M  V30 1227 H 115.263 3.7322 -0.256494 0
M  V30 1228 H 116.596 4.91173 -0.317822 0
M  V30 1229 N 118.248 0.346503 1.53744 0
M  V30 1230 C 119.18 -0.543316 2.22667 0
M  V30 1231 C 120.193 -1.06159 1.23427 0
M  V30 1232 O 121.382 -0.971235 1.49764 0
M  V30 1233 C 118.482 -1.76076 2.89569 0
M  V30 1234 C 117.655 -1.37727 4.15151 0
M  V30 1235 C 116.714 -2.45471 4.65436 0
M  V30 1236 O 115.74 -2.08655 5.29577 0
M  V30 1237 N 116.942 -3.7677 4.41616 0
M  V30 1238 H 119.707 0.0469703 2.99663 0
M  V30 1239 H 117.268 0.170766 1.60997 0
M  V30 1240 H 119.26 -2.47593 3.20125 0
M  V30 1241 H 117.83 -2.25835 2.16142 0
M  V30 1242 H 117.05 -0.492746 3.91108 0
M  V30 1243 H 118.338 -1.09708 4.96832 0
M  V30 1244 H 117.736 -4.09467 3.90325 0
M  V30 1245 H 116.293 -4.44448 4.7677 0
M  V30 1246 N 119.726 -1.57421 0.075193 0
M  V30 1247 C 120.973 -1.93618 -0.593146 0
M  V30 1248 C 121.301 -0.955484 -1.69413 0
M  V30 1249 O 120.556 0.0283251 -1.9568 0
M  V30 1250 C 120.855 -3.36428 -1.20626 0
M  V30 1251 C 120.521 -4.50307 -0.231078 0
M  V30 1252 C 119.183 -4.81186 0.0371936 0
M  V30 1253 C 121.535 -5.19374 0.435888 0
M  V30 1254 C 118.863 -5.78466 0.979461 0
M  V30 1255 C 121.215 -6.17665 1.3665 0
M  V30 1256 C 119.879 -6.46958 1.6432 0
M  V30 1257 H 119.149 -0.708499 -0.217047 0
M  V30 1258 H 121.796 -1.90937 0.146793 0
M  V30 1259 H 120.101 -3.35592 -2.02201 0
M  V30 1260 H 121.798 -3.61727 -1.73073 0
M  V30 1261 H 118.388 -4.26227 -0.450357 0
M  V30 1262 H 122.572 -4.95711 0.241748 0
M  V30 1263 H 117.828 -5.99487 1.20106 0
M  V30 1264 H 122.002 -6.70284 1.88924 0
M  V30 1265 H 119.629 -7.2215 2.37494 0
M  V30 1266 N 121.204 0.198386 -1.56346 0
M  V30 1267 C 122.615 0.763358 -1.70381 0
M  V30 1268 C 122.966 1.83995 -0.681203 0
M  V30 1269 O 122.091 2.15785 0.16305 0
M  V30 1270 C 122.686 1.39143 -3.08909 0
M  V30 1271 C 121.245 1.90352 -3.2472 0
M  V30 1272 C 120.392 0.772233 -2.6633 0
M  V30 1273 H 123.343 -0.0266377 -1.58678 0
M  V30 1274 H 123.364 2.26076 -3.06055 0
M  V30 1275 H 122.876 0.607638 -3.83314 0
M  V30 1276 H 120.977 2.71461 -2.55225 0
M  V30 1277 H 121.09 2.06757 -4.3219 0
M  V30 1278 H 119.454 1.18566 -2.2542 0
M  V30 1279 H 120.237 0.00073556 -3.433 0
M  V30 1280 N 122.682 1.50554 0.465978 0
M  V30 1281 C 123.91 1.65563 1.24083 0
M  V30 1282 C 124.325 0.341051 1.85694 0
M  V30 1283 O 123.682 -0.677543 1.69457 0
M  V30 1284 C 123.733 2.75051 2.34583 0
M  V30 1285 O 123.454 4.01413 1.75497 0
M  V30 1286 C 124.955 3.01078 3.25372 0
M  V30 1287 H 122.175 0.55638 0.375077 0
M  V30 1288 H 124.719 1.96807 0.555624 0
M  V30 1289 H 122.874 2.46486 2.9887 0
M  V30 1290 H 123.288 4.62002 2.48303 0
M  V30 1291 H 124.762 3.81339 3.99105 0
M  V30 1292 H 125.239 2.12349 3.84453 0
M  V30 1293 H 125.845 3.31194 2.66816 0
M  V30 1294 N 124.16 -0.719506 1.40217 0
M  V30 1295 C 125.07 -1.86378 1.42479 0
M  V30 1296 C 126.086 -1.71073 0.317834 0
M  V30 1297 O 127.262 -1.93406 0.561794 0
M  V30 1298 C 124.327 -3.22136 1.28178 0
M  V30 1299 C 123.388 -3.49723 2.48982 0
M  V30 1300 C 122.621 -4.79004 2.35353 0
M  V30 1301 O 122.844 -5.53821 1.36524 0
M  V30 1302 O 121.778 -5.06839 3.2465 0
M  V30 1303 H 125.604 -1.87425 2.38968 0
M  V30 1304 H 123.189 -0.869405 1.21498 0
M  V30 1305 H 125.071 -4.03234 1.22395 0
M  V30 1306 H 123.746 -3.21825 0.347934 0
M  V30 1307 H 122.653 -2.6865 2.60342 0
M  V30 1308 H 123.986 -3.54828 3.41113 0
M  V30 1309 N 125.638 -1.25649 -0.95132 0
M  V30 1310 C 126.886 -1.10375 -1.69298 0
M  V30 1311 C 127.207 0.355339 -1.91735 0
M  V30 1312 O 126.477 1.25188 -1.50681 0
M  V30 1313 H 125.057 -0.405461 -0.627384 0
M  V30 1314 H 127.719 -1.57823 -1.14358 0
M  V30 1315 H 126.815 -1.61465 -2.67087 0
M  V30 1316 N 127.117 1.15442 -1.07289 0
M  V30 1317 C 128.366 1.85557 -0.790669 0
M  V30 1318 C 128.679 1.83186 0.685739 0
M  V30 1319 O 129.885 2.48977 1.0827 0
M  V30 1320 C 128.341 3.33038 -1.36433 0
M  V30 1321 C 127.949 3.43856 -2.8717 0
M  V30 1322 C 129.693 4.0834 -1.1601 0
M  V30 1323 C 127.6 4.85482 -3.3773 0
M  V30 1324 H 126.53 0.695122 -0.292098 0
M  V30 1325 H 129.181 1.30219 -1.29287 0
M  V30 1326 H 127.563 3.88043 -0.789864 0
M  V30 1327 H 128.737 2.98961 -3.50655 0
M  V30 1328 H 127.052 2.81998 -3.06376 0
M  V30 1329 H 129.649 5.12859 -1.51262 0
M  V30 1330 H 129.992 4.16182 -0.0991007 0
M  V30 1331 H 130.525 3.59603 -1.70089 0
M  V30 1332 H 127.264 4.82823 -4.43353 0
M  V30 1333 H 126.784 5.30961 -2.78999 0
M  V30 1334 H 128.463 5.54335 -3.33648 0
M  V30 1335 N 128.595 0.856903 1.32268 0
M  V30 1336 C 129.835 0.467705 1.98977 0
M  V30 1337 C 130.199 -0.959231 1.66321 0
M  V30 1338 O 131.4 -1.4531 2.26138 0
M  V30 1339 C 129.671 0.70256 3.50427 0
M  V30 1340 S 131.23 0.411269 4.36868 0
M  V30 1341 H 128.048 0.175121 0.689096 0
M  V30 1342 H 130.65 1.1101 1.60925 0
M  V30 1343 H 129.354 1.74012 3.71683 0
M  V30 1344 H 128.885 0.0466707 3.93372 0
M  V30 1345 H 130.9 -0.761799 4.90317 0
M  V30 1346 N 130.073 -1.45103 0.615059 0
M  V30 1347 C 131.036 -2.29025 -0.0895485 0
M  V30 1348 C 132.036 -1.40174 -0.787906 0
M  V30 1349 O 133.226 -1.62217 -0.634933 0
M  V30 1350 C 130.358 -3.21376 -1.13711 0
M  V30 1351 H 131.551 -2.92807 0.648382 0
M  V30 1352 H 129.104 -1.51749 0.374444 0
M  V30 1353 H 129.839 -2.6241 -1.90556 0
M  V30 1354 H 129.624 -3.86834 -0.640475 0
M  V30 1355 H 131.114 -3.84459 -1.63036 0
M  V30 1356 N 131.551 -0.354651 -1.53558 0
M  V30 1357 C 132.483 0.5315 -2.22952 0
M  V30 1358 C 133.496 1.05503 -1.23988 0
M  V30 1359 O 134.685 0.963279 -1.50277 0
M  V30 1360 C 131.785 1.74538 -2.90499 0
M  V30 1361 C 130.958 1.35524 -4.15875 0
M  V30 1362 C 130.017 2.42999 -4.66731 0
M  V30 1363 O 129.043 2.05844 -5.30676 0
M  V30 1364 N 130.245 3.74423 -4.43608 0
M  V30 1365 H 133.01 -0.0628615 -2.99634 0
M  V30 1366 H 130.571 -0.179302 -1.60904 0
M  V30 1367 H 132.563 2.45892 -3.21433 0
M  V30 1368 H 131.133 2.24686 -2.17336 0
M  V30 1369 H 130.353 0.471998 -3.91364 0
M  V30 1370 H 131.641 1.07071 -4.97406 0
M  V30 1371 H 131.039 4.07391 -3.92491 0
M  V30 1372 H 129.596 4.41913 -4.7912 0
M  V30 1373 N 133.029 1.57378 -0.0835403 0
M  V30 1374 C 134.445 1.57246 0.273109 0
M  V30 1375 C 134.645 1.09385 1.69225 0
M  V30 1376 O 133.701 0.765051 2.40631 0
M  V30 1377 C 135.014 3.00614 0.0720628 0
M  V30 1378 C 136.562 3.12684 0.1407 0
M  V30 1379 C 137.037 4.57989 -0.0322094 0
M  V30 1380 N 138.528 4.63194 0.0230085 0
M  V30 1381 C 139.263 5.73335 -0.0861941 0
M  V30 1382 N 138.759 6.9235 -0.24958 0
M  V30 1383 N 140.552 5.62093 -0.0282886 0
M  V30 1384 H 132.703 1.86801 -1.0109 0
M  V30 1385 H 134.966 0.861687 -0.395222 0
M  V30 1386 H 134.672 3.39786 -0.907662 0
M  V30 1387 H 134.546 3.68193 0.81936 0
M  V30 1388 H 136.933 2.73391 1.11092 0
M  V30 1389 H 137.014 2.47719 -0.637896 0
M  V30 1390 H 136.658 4.97973 -0.999247 0
M  V30 1391 H 136.588 5.21 0.765937 0
M  V30 1392 H 139.079 3.77613 0.14722 0
M  V30 1393 H 139.392 7.72117 -0.324733 0
M  V30 1394 H 137.737 6.94415 -0.285097 0
M  V30 1395 H 140.928 4.67997 0.0981408 0
M  V30 1396 H 141.101 6.47895 -0.116845 0
M  V30 1397 N 134.507 -0.190092 1.56449 0
M  V30 1398 C 135.755 -0.907908 1.80559 0
M  V30 1399 C 136.076 -1.83583 0.657438 0
M  V30 1400 O 135.346 -1.93203 -0.323924 0
M  V30 1401 H 133.926 -0.338247 0.666032 0
M  V30 1402 H 136.588 -0.194403 1.93928 0
M  V30 1403 H 135.684 -1.49604 2.73907 0
M  V30 1404 N 135.985 -1.50799 -0.457987 0
M  V30 1405 C 137.225 -1.64088 -1.21879 0
M  V30 1406 C 137.589 -0.339848 -1.88968 0
M  V30 1407 O 138.79 -0.348301 -2.66534 0
M  V30 1408 C 137.061 -2.79726 -2.2246 0
M  V30 1409 S 138.62 -3.13225 -3.07303 0
M  V30 1410 H 135.438 -0.578314 -0.41361 0
M  V30 1411 H 138.04 -1.88632 -0.513645 0
M  V30 1412 H 136.744 -3.72722 -1.71775 0
M  V30 1413 H 136.275 -2.57308 -2.97584 0
M  V30 1414 H 138.29 -2.58062 -4.23814 0
M  V30 1415 N 137.463 0.71206 -1.40597 0
M  V30 1416 C 138.703 1.48438 -1.40519 0
M  V30 1417 C 139.067 1.91998 -0.00767611 0
M  V30 1418 O 140.268 2.6854 0.118239 0
M  V30 1419 C 138.539 2.67514 -2.37004 0
M  V30 1420 S 140.098 3.56875 -2.55315 0
M  V30 1421 H 136.916 0.507457 -0.498005 0
M  V30 1422 H 139.518 0.832355 -1.76896 0
M  V30 1423 H 138.222 2.33689 -3.37368 0
M  V30 1424 H 137.753 3.37625 -2.01923 0
M  V30 1425 H 139.768 4.62081 -1.8082 0
M  V30 1426 N 138.941 1.26152 0.944643 0
M  V30 1427 C 140.187 1.12665 1.69346 0
M  V30 1428 C 140.542 -0.3273 1.89596 0
M  V30 1429 O 139.835 -1.23717 1.46303 0
M  V30 1430 C 140.029 1.82541 3.07268 0
M  V30 1431 C 139.858 3.34582 3.00475 0
M  V30 1432 C 138.628 4.03863 3.03681 0
M  V30 1433 C 140.826 4.30828 2.80877 0
M  V30 1434 N 138.808 5.42603 2.87151 0
M  V30 1435 C 140.179 5.5672 2.7288 0
M  V30 1436 C 142.234 4.21122 2.65633 0
M  V30 1437 C 140.937 6.74013 2.51196 0
M  V30 1438 C 142.963 5.38118 2.45323 0
M  V30 1439 C 142.325 6.62955 2.38055 0
M  V30 1440 H 138.424 0.467041 0.627214 0
M  V30 1441 H 141.008 1.59391 1.11815 0
M  V30 1442 H 139.179 1.38296 3.62945 0
M  V30 1443 H 140.911 1.61708 3.70989 0
M  V30 1444 H 137.666 3.55198 3.1326 0
M  V30 1445 H 138.09 6.15443 2.82063 0
M  V30 1446 H 142.732 3.25344 2.70021 0
M  V30 1447 H 140.45 7.6989 2.4555 0
M  V30 1448 H 144.036 5.32475 2.34439 0
M  V30 1449 H 142.916 7.51959 2.22546 0
M  V30 1450 N 140.419 -1.14872 1.07899 0
M  V30 1451 C 141.835 -1.37776 0.805606 0
M  V30 1452 C 142.035 -1.92743 -0.587555 0
M  V30 1453 O 141.091 -2.13678 -1.34528 0
M  V30 1454 C 142.404 -2.34361 1.88402 0
M  V30 1455 C 143.952 -2.48012 1.90942 0
M  V30 1456 C 144.427 -3.47893 2.97883 0
M  V30 1457 N 145.918 -3.55433 2.97021 0
M  V30 1458 C 146.653 -4.32553 3.76412 0
M  V30 1459 N 146.149 -5.12959 4.65666 0
M  V30 1460 N 147.942 -4.27697 3.64735 0
M  V30 1461 H 140.093 -0.775365 1.97742 0
M  V30 1462 H 142.356 -0.403521 0.857831 0
M  V30 1463 H 142.062 -2.01098 2.88535 0
M  V30 1464 H 141.936 -3.34206 1.74889 0
M  V30 1465 H 144.323 -2.8057 0.914579 0
M  V30 1466 H 144.404 -1.48147 2.08534 0
M  V30 1467 H 144.048 -3.16069 3.97571 0
M  V30 1468 H 143.978 -4.47527 2.77538 0
M  V30 1469 H 146.469 -2.98048 2.32326 0
M  V30 1470 H 146.782 -5.69065 5.22862 0
M  V30 1471 H 145.127 -5.12245 4.69712 0
M  V30 1472 H 148.318 -3.63949 2.94378 0
M  V30 1473 H 148.491 -4.8755 4.26848 0
M  V30 1474 N 141.898 -0.863906 -1.31812 0
M  V30 1475 C 143.309 -0.52522 -1.7916 0
M  V30 1476 C 143.66 0.957518 -1.71248 0
M  V30 1477 O 142.785 1.74734 -1.27659 0
M  V30 1478 C 143.38 -0.9466 -3.25307 0
M  V30 1479 C 141.939 -0.659668 -3.70574 0
M  V30 1480 C 141.086 -1.14126 -2.52726 0
M  V30 1481 H 144.037 -1.05022 -1.1898 0
M  V30 1482 H 144.058 -0.266766 -3.79564 0
M  V30 1483 H 143.57 -2.02579 -3.31034 0
M  V30 1484 H 141.671 0.408416 -3.70355 0
M  V30 1485 H 141.784 -1.23245 -4.62977 0
M  V30 1486 H 140.148 -0.561216 -2.4844 0
M  V30 1487 H 140.931 -2.22775 -2.61201 0
M  V30 1488 N 143.376 1.44774 -0.622745 0
M  V30 1489 C 144.622 2.02968 -0.13257 0
M  V30 1490 C 144.977 1.48047 1.22881 0
M  V30 1491 O 144.27 0.651625 1.80179 0
M  V30 1492 C 144.464 3.57364 -0.0508323 0
M  V30 1493 C 144.293 4.27262 -1.40275 0
M  V30 1494 C 143.063 4.64577 -1.98737 0
M  V30 1495 C 145.261 4.58248 -2.3348 0
M  V30 1496 N 143.243 5.19404 -3.27251 0
M  V30 1497 C 144.614 5.14069 -3.46603 0
M  V30 1498 C 146.669 4.40195 -2.32664 0
M  V30 1499 C 145.372 5.53738 -4.59093 0
M  V30 1500 C 147.398 4.80907 -3.44213 0
M  V30 1501 C 146.76 5.36834 -4.56058 0
M  V30 1502 H 142.859 0.776541 -0.0922354 0
M  V30 1503 H 145.443 1.76385 -0.82441 0
M  V30 1504 H 143.614 3.83576 0.610265 0
M  V30 1505 H 145.346 4.02219 0.447397 0
M  V30 1506 H 142.101 4.48622 -1.51774 0
M  V30 1507 H 142.525 5.51301 -3.92933 0
M  V30 1508 H 147.167 3.96257 -1.47446 0
M  V30 1509 H 144.885 5.96635 -5.45025 0
M  V30 1510 H 148.471 4.68659 -3.44747 0
M  V30 1511 H 147.351 5.67755 -5.40947 0
M  V30 1512 N 144.854 0.36279 1.53368 0
M  V30 1513 C 145.802 -0.500155 2.27159 0
M  V30 1514 C 146.796 -1.08575 1.3003 0
M  V30 1515 O 148.002 -1.02927 1.47668 0
M  V30 1516 H 144.377 -0.180009 0.730138 0
M  V30 1517 H 146.348 0.14401 2.98052 0
M  V30 1518 C 145.097 -1.62937 3.07159 0
M  V30 1519 H 144.42 -1.18806 3.8174 0
M  V30 1520 H 145.86 -2.20795 3.61975 0
M  V30 1521 C 144.319 -2.57007 2.17829 0
M  V30 1522 O 144.849 -3.59752 1.78721 0
M  V30 1523 N 143.055 -2.26131 1.82518 0
M  V30 1524 H 142.602 -1.42616 2.14519 0
M  V30 1525 H 142.56 -2.89327 1.23034 0
M  V30 1526 N 146.332 -1.57332 0.0918853 0
M  V30 1527 C 147.609 -1.85691 -0.614668 0
M  V30 1528 C 147.989 -0.988146 -1.86545 0
M  V30 1529 O 147.337 -0.0597055 -2.28422 0
M  V30 1530 C 147.547 -3.36294 -0.933126 0
M  V30 1531 C 148.895 -4.04275 -1.29796 0
M  V30 1532 O 149.919 -3.41157 -1.02424 0
M  V30 1533 O 148.778 -5.1564 -1.81047 0
M  V30 1534 H 145.872 -0.767802 -0.307261 0
M  V30 1535 H 148.418 -1.69244 0.12434 0
M  V30 1536 H 147.19 -3.91273 -0.0456404 0
M  V30 1537 H 146.813 -3.58076 -1.72822 0
M  V30 1538 N 147.81 0.181792 -1.56548 0
M  V30 1539 C 149.035 0.920019 -1.85877 0
M  V30 1540 C 149.46 1.75494 -0.677021 0
M  V30 1541 O 148.818 1.77399 0.374056 0
M  V30 1542 C 148.866 1.78112 -3.13542 0
M  V30 1543 O 147.97 2.88152 -2.95029 0
M  V30 1544 H 147.311 0.258334 -0.611686 0
M  V30 1545 H 149.841 0.183092 -2.03779 0
M  V30 1546 H 149.851 2.18314 -3.44678 0
M  V30 1547 H 148.526 1.16777 -3.99169 0
M  V30 1548 H 147.103 2.51609 -2.75222 0
M  V30 1549 N 149.288 1.51039 0.449983 0
M  V30 1550 C 150.218 1.74379 1.55288 0
M  V30 1551 C 151.199 0.593236 1.5942 0
M  V30 1552 O 152.384 0.834625 1.7535 0
M  V30 1553 C 149.514 1.85728 2.93466 0
M  V30 1554 C 148.468 3.01078 3.04197 0
M  V30 1555 C 147.794 2.97595 4.44231 0
M  V30 1556 C 149.094 4.41254 2.7945 0
M  V30 1557 H 150.788 2.66725 1.36008 0
M  V30 1558 H 148.334 1.2835 0.652864 0
M  V30 1559 H 150.287 2.0064 3.70569 0
M  V30 1560 H 149.011 0.900207 3.13949 0
M  V30 1561 H 147.67 2.85851 2.29531 0
M  V30 1562 H 147.318 1.99691 4.61663 0
M  V30 1563 H 147.018 3.75046 4.52343 0
M  V30 1564 H 148.542 3.14583 5.23326 0
M  V30 1565 H 149.956 4.56897 3.46292 0
M  V30 1566 H 148.353 5.20315 2.98985 0
M  V30 1567 H 149.423 4.52164 1.75144 0
M  V30 1568 N 150.766 -0.704594 1.40972 0
M  V30 1569 C 152.015 -1.46018 1.39146 0
M  V30 1570 C 152.328 -1.956 0.000589254 0
M  V30 1571 O 153.534 -2.71137 -0.1403 0
M  V30 1572 C 151.99 -2.63996 2.4461 0
M  V30 1573 C 151.598 -2.21238 3.89561 0
M  V30 1574 C 153.342 -3.41677 2.51907 0
M  V30 1575 C 151.249 -3.3612 4.86598 0
M  V30 1576 H 150.179 -0.548444 0.517422 0
M  V30 1577 H 152.83 -0.765784 1.66757 0
M  V30 1578 H 151.212 -3.3566 2.10115 0
M  V30 1579 H 152.386 -1.56923 4.33257 0
M  V30 1580 H 150.701 -1.56574 3.85841 0
M  V30 1581 H 153.298 -4.27182 3.2159 0
M  V30 1582 H 153.641 -3.86247 1.55303 0
M  V30 1583 H 154.174 -2.77064 2.85448 0
M  V30 1584 H 150.913 -2.96572 5.84573 0
M  V30 1585 H 150.433 -3.99315 4.47557 0
M  V30 1586 H 152.112 -4.02029 5.06934 0
M  V30 1587 N 152.244 -1.26651 -0.937939 0
M  V30 1588 C 153.655 -1.1125 -1.49934 0
M  V30 1589 C 154.006 0.306077 -1.93798 0
M  V30 1590 O 153.131 1.19792 -1.80219 0
M  V30 1591 C 153.726 -2.01339 -2.72485 0
M  V30 1592 C 152.285 -1.90074 -3.24883 0
M  V30 1593 C 151.432 -1.94498 -1.97651 0
M  V30 1594 H 154.383 -1.39693 -0.753091 0
M  V30 1595 H 154.404 -1.56319 -3.46907 0
M  V30 1596 H 153.916 -3.04577 -2.40529 0
M  V30 1597 H 152.017 -0.897827 -3.61621 0
M  V30 1598 H 152.13 -2.75778 -3.9177 0
M  V30 1599 H 150.494 -1.38591 -2.13693 0
M  V30 1600 H 151.277 -2.99372 -1.68022 0
M  V30 1601 N 153.722 1.14298 -1.08507 0
M  V30 1602 C 154.968 1.85854 -0.826438 0
M  V30 1603 C 155.323 1.81413 0.640878 0
M  V30 1604 O 154.616 1.23463 1.46518 0
M  V30 1605 C 154.81 3.33547 -1.28379 0
M  V30 1606 C 154.639 3.52369 -2.79403 0
M  V30 1607 C 153.409 3.67159 -3.47164 0
M  V30 1608 C 155.607 3.49203 -3.77573 0
M  V30 1609 N 153.589 3.74149 -4.86709 0
M  V30 1610 C 154.96 3.6245 -5.03021 0
M  V30 1611 C 157.015 3.32547 -3.70563 0
M  V30 1612 C 155.718 3.60761 -6.2229 0
M  V30 1613 C 157.744 3.32162 -4.89308 0
M  V30 1614 C 157.106 3.45949 -6.13595 0
M  V30 1615 H 153.205 0.696705 -0.355143 0
M  V30 1616 H 155.789 1.36981 -1.38362 0
M  V30 1617 H 153.96 3.81008 -0.754166 0
M  V30 1618 H 155.692 3.92867 -0.971469 0
M  V30 1619 H 152.447 3.68433 -2.9758 0
M  V30 1620 H 152.871 3.81359 -5.5937 0
M  V30 1621 H 157.513 3.20797 -2.75407 0
M  V30 1622 H 155.231 3.71286 -7.17755 0
M  V30 1623 H 158.817 3.20485 -4.85573 0
M  V30 1624 H 157.697 3.456 -7.03939 0
M  V30 1625 N 155.201 0.870884 1.31352 0
M  V30 1626 C 156.441 0.488783 1.9847 0
M  V30 1627 C 156.805 -0.941536 1.67329 0
M  V30 1628 O 158.006 -1.42903 2.27667 0
M  V30 1629 C 156.277 0.739688 3.49662 0
M  V30 1630 S 157.836 0.457582 4.36408 0
M  V30 1631 H 154.654 0.18242 0.6872 0
M  V30 1632 H 157.256 1.12711 1.59739 0
M  V30 1633 H 155.96 1.77944 3.69816 0
M  V30 1634 H 155.491 0.0883905 3.93301 0
M  V30 1635 H 157.506 -0.709752 4.91098 0
M  V30 1636 N 156.679 -1.44442 0.630414 0
M  V30 1637 C 157.926 -2.02052 0.134617 0
M  V30 1638 C 158.254 -1.49576 -1.24327 0
M  V30 1639 O 157.509 -0.669806 -1.83881 0
M  V30 1640 C 157.808 -3.57332 0.0697835 0
M  V30 1641 C 157.474 -4.29058 1.38635 0
M  V30 1642 C 156.136 -4.4837 1.74694 0
M  V30 1643 C 158.488 -4.69872 2.25543 0
M  V30 1644 C 155.816 -5.05756 2.97369 0
M  V30 1645 C 158.168 -5.28616 3.47487 0
M  V30 1646 C 156.832 -5.46147 3.8377 0
M  V30 1647 H 156.102 -0.739361 0.0492598 0
M  V30 1648 H 158.749 -1.73217 0.816586 0
M  V30 1649 H 157.054 -3.85577 -0.695553 0
M  V30 1650 H 158.751 -3.99637 -0.330344 0
M  V30 1651 H 155.341 -4.14357 1.09574 0
M  V30 1652 H 159.525 -4.54666 1.98979 0
M  V30 1653 H 154.781 -5.17515 3.25558 0
M  V30 1654 H 158.955 -5.59192 4.15063 0
M  V30 1655 H 156.582 -5.9038 4.7891 0
M  V30 1656 N 158.157 -0.370918 -1.53173 0
M  V30 1657 C 159.404 0.217102 -2.01333 0
M  V30 1658 C 159.732 1.48338 -1.25802 0
M  V30 1659 O 158.987 1.92698 -0.34146 0
M  V30 1660 C 159.286 0.549696 -3.53147 0
M  V30 1661 C 158.952 -0.622872 -4.46577 0
M  V30 1662 C 157.614 -0.944595 -4.71838 0
M  V30 1663 C 159.966 -1.40819 -5.01816 0
M  V30 1664 C 157.294 -2.05351 -5.49589 0
M  V30 1665 C 159.646 -2.50757 -5.80778 0
M  V30 1666 C 158.31 -2.83458 -6.04324 0
M  V30 1667 H 157.58 0.0794431 -0.736729 0
M  V30 1668 H 160.227 -0.504481 -1.84736 0
M  V30 1669 H 158.532 1.35237 -3.6772 0
M  V30 1670 H 160.229 1.017 -3.87889 0
M  V30 1671 H 156.819 -0.36209 -4.27068 0
M  V30 1672 H 161.003 -1.17289 -4.82242 0
M  V30 1673 H 156.259 -2.3108 -5.6605 0
M  V30 1674 H 160.433 -3.12022 -6.22588 0
M  V30 1675 H 158.06 -3.69508 -6.64355 0
M  V30 1676 N 159.635 1.57281 -0.100228 0
M  V30 1677 C 160.881 1.94826 0.563101 0
M  V30 1678 C 161.214 0.982475 1.67514 0
M  V30 1679 O 160.489 0.0164069 1.94493 0
M  V30 1680 C 160.772 3.42453 1.11346 0
M  V30 1681 C 160.625 4.498 0.00612081 0
M  V30 1682 C 161.944 3.91506 2.01024 0
M  V30 1683 H 159.063 0.708428 0.203221 0
M  V30 1684 H 161.705 1.8922 -0.171979 0
M  V30 1685 H 159.855 3.47361 1.7399 0
M  V30 1686 H 161.527 4.57 -0.628357 0
M  V30 1687 H 159.77 4.28756 -0.659581 0
M  V30 1688 H 160.441 5.50306 0.432109 0
M  V30 1689 H 162.917 3.88784 1.48278 0
M  V30 1690 H 161.793 4.95358 2.36457 0
M  V30 1691 H 162.054 3.31099 2.92961 0
M  V30 1692 N 161.113 -0.173488 1.56642 0
M  V30 1693 C 162.39 -0.917617 1.7274 0
M  V30 1694 C 162.77 -2.00484 0.661027 0
M  V30 1695 O 162.118 -2.26184 -0.32453 0
M  V30 1696 C 162.328 -1.48433 3.15862 0
M  V30 1697 C 163.676 -1.95809 3.76754 0
M  V30 1698 O 164.7 -1.58231 3.19126 0
M  V30 1699 O 163.559 -2.65024 4.77938 0
M  V30 1700 H 160.653 -0.431772 0.705338 0
M  V30 1701 H 163.199 -0.161487 1.6893 0
M  V30 1702 H 161.971 -0.701715 3.84957 0
M  V30 1703 H 161.594 -2.30471 3.23989 0
M  V30 1704 N 162.591 -1.51276 -0.441967 0
M  V30 1705 C 163.539 -1.72823 -1.55676 0
M  V30 1706 C 164.533 -0.59445 -1.58627 0
M  V30 1707 O 165.739 -0.775715 -1.62427 0
M  V30 1708 H 162.114 -0.545983 -0.517113 0
M  V30 1709 H 164.085 -2.6628 -1.34675 0
M  V30 1710 C 162.834 -1.86619 -2.93375 0
M  V30 1711 H 162.157 -2.73264 -2.91834 0
M  V30 1712 H 163.597 -2.05709 -3.70756 0
M  V30 1713 C 162.056 -0.624842 -3.31055 0
M  V30 1714 O 162.586 0.222636 -4.01083 0
M  V30 1715 N 160.792 -0.470288 -2.86769 0
M  V30 1716 H 160.339 -1.161 -2.29953 0
M  V30 1717 H 160.297 0.359051 -3.12343 0
M  V30 1718 N 164.069 0.697108 -1.41344 0
M  V30 1719 C 165.019 1.80313 -1.39539 0
M  V30 1720 C 166.003 1.58618 -0.270001 0
M  V30 1721 O 167.195 1.69477 -0.510551 0
M  V30 1722 C 164.324 3.18606 -1.27848 0
M  V30 1723 C 163.41 3.46001 -2.45244 0
M  V30 1724 N 163.801 3.44103 -3.70711 0
M  V30 1725 C 162.099 3.76542 -2.39023 0
M  V30 1726 C 162.8 3.7036 -4.48563 0
M  V30 1727 N 161.776 3.90027 -3.78655 0
M  V30 1728 H 165.578 1.77207 -2.34468 0
M  V30 1729 H 163.092 0.897031 -1.35378 0
M  V30 1730 H 165.089 3.97833 -1.24637 0
M  V30 1731 H 163.749 3.22925 -0.339032 0
M  V30 1732 H 164.76 3.2452 -4.03618 0
M  V30 1733 H 161.437 3.88241 -1.53542 0
M  V30 1734 H 162.827 3.75042 -5.57488 0
M  V30 1735 N 165.547 1.27147 0.931209 0
M  V30 1736 C 166.795 1.13055 1.6752 0
M  V30 1737 C 167.116 -0.324791 1.92276 0
M  V30 1738 O 166.386 -1.22775 1.52654 0
M  V30 1739 H 164.966 0.415391 0.620854 0
M  V30 1740 H 167.628 1.59623 1.11833 0
M  V30 1741 H 166.724 1.65694 2.64485 0
M  V30 1742 N 167.025 -1.13721 1.09112 0
M  V30 1743 C 168.255 -1.88499 0.845671 0
M  V30 1744 C 168.663 -1.79218 -0.606432 0
M  V30 1745 O 168.006 -1.1544 -1.42896 0
M  V30 1746 C 168.068 -3.38954 1.19793 0
M  V30 1747 C 167.732 -3.72018 2.65428 0
M  V30 1748 C 168.729 -3.7153 3.63677 0
M  V30 1749 C 166.414 -4.01775 3.01467 0
M  V30 1750 C 168.408 -4.00336 4.95994 0
M  V30 1751 C 166.095 -4.30243 4.33975 0
M  V30 1752 C 167.093 -4.29508 5.31048 0
M  V30 1753 O 166.781 -4.5728 6.61173 0
M  V30 1754 H 166.513 -0.603702 0.304171 0
M  V30 1755 H 169.067 -1.44903 1.45576 0
M  V30 1756 H 167.297 -3.83039 0.530871 0
M  V30 1757 H 168.986 -3.95052 0.932146 0
M  V30 1758 H 169.752 -3.4862 3.37179 0
M  V30 1759 H 165.631 -4.01496 2.26544 0
M  V30 1760 H 169.175 -3.99678 5.71755 0
M  V30 1761 H 165.072 -4.52625 4.60219 0
M  V30 1762 H 165.84 -4.74964 6.66597 0
M  V30 1763 N 168.503 -0.877838 -1.30888 0
M  V30 1764 C 169.451 -0.328662 -2.30266 0
M  V30 1765 C 170.445 0.560496 -1.59859 0
M  V30 1766 O 171.651 0.445722 -1.74394 0
M  V30 1767 H 168.026 -0.0876142 -0.746879 0
M  V30 1768 H 169.997 -1.18061 -2.74051 0
M  V30 1769 C 168.746 0.448071 -3.44801 0
M  V30 1770 H 168.069 -0.226859 -3.99156 0
M  V30 1771 H 169.509 0.797541 -4.16432 0
M  V30 1772 C 167.968 1.64239 -2.94155 0
M  V30 1773 O 168.498 2.74175 -2.93583 0
M  V30 1774 N 166.704 1.47716 -2.50256 0
M  V30 1775 H 166.251 0.582821 -2.5092 0
M  V30 1776 H 166.209 2.27765 -2.16727 0
M  V30 1777 N 169.982 1.44106 -0.638065 0
M  V30 1778 C 171.228 2.02277 -0.145546 0
M  V30 1779 C 171.561 1.50125 1.23191 0
M  V30 1780 O 170.836 0.688133 1.8192 0
M  V30 1781 C 171.119 3.59829 -0.139791 0
M  V30 1782 C 170.972 4.22247 -1.55008 0
M  V30 1783 C 172.291 4.36873 0.531966 0
M  V30 1784 H 169.41 0.734992 -0.0543632 0
M  V30 1785 H 172.052 1.71592 -0.815863 0
M  V30 1786 H 170.202 3.86102 0.431007 0
M  V30 1787 H 171.874 4.07057 -2.1703 0
M  V30 1788 H 170.117 3.79476 -2.10191 0
M  V30 1789 H 170.788 5.31284 -1.49804 0
M  V30 1790 H 173.264 4.16074 0.0464781 0
M  V30 1791 H 172.14 5.4657 0.505206 0
M  V30 1792 H 172.401 4.11995 1.60352 0
M  V30 1793 N 171.46 0.379036 1.52974 0
M  V30 1794 C 172.392 -0.495963 2.2377 0
M  V30 1795 C 173.405 -1.03517 1.25651 0
M  V30 1796 O 174.594 -0.939249 1.51791 0
M  V30 1797 C 171.694 -1.69894 2.93239 0
M  V30 1798 C 170.867 -1.2889 4.17979 0
M  V30 1799 C 169.926 -2.35543 4.70538 0
M  V30 1800 O 168.952 -1.97375 5.33883 0
M  V30 1801 N 170.154 -3.67318 4.49508 0
M  V30 1802 H 172.919 0.110523 2.99496 0
M  V30 1803 H 170.48 0.204878 1.60598 0
M  V30 1804 H 172.472 -2.40747 3.25304 0
M  V30 1805 H 171.042 -2.212 2.20883 0
M  V30 1806 H 170.262 -0.409676 3.92065 0
M  V30 1807 H 171.55 -0.991443 4.99047 0
M  V30 1808 H 170.948 -4.01095 3.98923 0
M  V30 1809 H 169.505 -4.34235 4.8609 0
M  V30 1810 N 172.938 -1.57226 0.108567 0
M  V30 1811 C 174.215 -1.86333 -0.594939 0
M  V30 1812 C 174.595 -1.00788 -1.85486 0
M  V30 1813 O 173.943 -0.0839293 -2.28346 0
M  V30 1814 C 174.153 -3.37265 -0.897405 0
M  V30 1815 C 175.501 -4.05629 -1.25501 0
M  V30 1816 O 176.525 -3.42224 -0.987998 0
M  V30 1817 O 175.384 -5.17531 -1.75567 0
M  V30 1818 H 172.478 -0.771018 -0.2991 0
M  V30 1819 H 175.024 -1.69102 0.142283 0
M  V30 1820 H 173.796 -3.913 -0.00413806 0
M  V30 1821 H 173.419 -3.59889 -1.69014 0
M  V30 1822 N 174.416 0.165178 -1.56732 0
M  V30 1823 C 175.349 1.23336 -1.91998 0
M  V30 1824 C 176.327 1.42476 -0.783531 0
M  V30 1825 O 177.511 1.57384 -1.03743 0
M  V30 1826 C 174.638 2.59533 -2.17625 0
M  V30 1827 C 173.684 2.57093 -3.40302 0
M  V30 1828 S 174.517 2.05571 -4.9447 0
M  V30 1829 C 175.673 3.43532 -5.23198 0
M  V30 1830 H 175.906 0.932387 -2.82301 0
M  V30 1831 H 173.439 0.370013 -1.49901 0
M  V30 1832 H 175.397 3.37918 -2.3307 0
M  V30 1833 H 174.058 2.86827 -1.28019 0
M  V30 1834 H 173.251 3.57308 -3.55453 0
M  V30 1835 H 172.853 1.86806 -3.24005 0
M  V30 1836 H 175.145 4.39559 -5.15552 0
M  V30 1837 H 176.088 3.33251 -6.2478 0
M  V30 1838 H 176.496 3.39828 -4.50752 0
M  V30 1839 N 175.894 1.51508 0.433938 0
M  V30 1840 C 177.122 1.68157 1.20543 0
M  V30 1841 C 177.537 0.380362 1.84929 0
M  V30 1842 O 176.894 -0.641446 1.70856 0
M  V30 1843 C 176.945 2.79965 2.28696 0
M  V30 1844 O 176.666 4.05045 1.66943 0
M  V30 1845 C 178.167 3.07912 3.18912 0
M  V30 1846 H 175.387 0.56421 0.363191 0
M  V30 1847 H 177.931 1.97941 0.513754 0
M  V30 1848 H 176.086 2.5277 2.93574 0
M  V30 1849 H 176.5 4.67165 2.38448 0
M  V30 1850 H 177.974 3.89719 3.90926 0
M  V30 1851 H 178.451 2.20456 3.79863 0
M  V30 1852 H 179.057 3.36779 2.59731 0
M  V30 1853 N 177.372 -0.689602 1.41712 0
M  V30 1854 C 178.6 -1.47827 1.44758 0
M  V30 1855 C 179.015 -1.88721 0.0545703 0
M  V30 1856 O 178.372 -1.57176 -0.927463 0
M  V30 1857 C 178.423 -2.73698 2.3616 0
M  V30 1858 O 178.144 -2.34524 3.7004 0
M  V30 1859 C 179.645 -3.67389 2.48072 0
M  V30 1860 H 176.865 -0.455357 0.49284 0
M  V30 1861 H 179.409 -0.848574 1.86063 0
M  V30 1862 H 177.564 -3.32891 1.98148 0
M  V30 1863 H 177.978 -3.15701 4.18847 0
M  V30 1864 H 179.452 -4.52475 3.16181 0
M  V30 1865 H 179.929 -4.12284 1.51388 0
M  V30 1866 H 180.535 -3.14097 2.86746 0
M  V30 1867 N 178.85 -1.27639 -0.924453 0
M  V30 1868 C 180.078 -1.16989 -1.70649 0
M  V30 1869 C 180.493 0.272869 -1.86818 0
M  V30 1870 O 179.85 1.18549 -1.38753 0
M  V30 1871 C 179.901 -1.85229 -3.10439 0
M  V30 1872 O 179.622 -3.23868 -2.95028 0
M  V30 1873 C 181.123 -1.80746 -4.04779 0
M  V30 1874 H 178.343 -0.406595 -0.53378 0
M  V30 1875 H 180.887 -1.68569 -1.15778 0
M  V30 1876 H 179.042 -1.37545 -3.6216 0
M  V30 1877 H 179.456 -3.57889 -3.83426 0
M  V30 1878 H 180.93 -2.33101 -5.00368 0
M  V30 1879 H 181.407 -0.777499 -4.32263 0
M  V30 1880 H 182.013 -2.28059 -3.58984 0
M  V30 1881 N 180.328 1.1314 -1.09713 0
M  V30 1882 C 181.553 1.88862 -0.857081 0
M  V30 1883 C 181.978 1.78729 0.586304 0
M  V30 1884 O 181.336 1.13692 1.41222 0
M  V30 1885 C 181.384 3.36325 -1.30069 0
M  V30 1886 O 180.488 4.09815 -0.461007 0
M  V30 1887 H 179.829 0.587108 -0.310162 0
M  V30 1888 H 182.359 1.43129 -1.46203 0
M  V30 1889 H 182.369 3.87157 -1.28738 0
M  V30 1890 H 181.044 3.43017 -2.35185 0
M  V30 1891 H 179.621 3.68986 -0.538888 0
M  V30 1892 N 181.806 0.884767 1.30421 0
M  V30 1893 C 183.055 0.499164 1.95426 0
M  V30 1894 C 183.368 -0.95645 1.70621 0
M  V30 1895 O 184.574 -1.44889 2.29607 0
M  V30 1896 C 183.03 0.84177 3.49917 0
M  V30 1897 C 182.638 2.31514 3.83543 0
M  V30 1898 C 184.382 0.525355 4.21237 0
M  V30 1899 C 182.289 2.59939 5.31212 0
M  V30 1900 H 181.219 0.182944 0.73147 0
M  V30 1901 H 183.87 1.07971 1.48373 0
M  V30 1902 H 182.252 0.190311 3.95542 0
M  V30 1903 H 183.426 3.0109 3.48829 0
M  V30 1904 H 181.741 2.59907 3.25326 0
M  V30 1905 H 184.338 0.714762 5.29901 0
M  V30 1906 H 184.681 -0.535222 4.12845 0
M  V30 1907 H 185.214 1.134 3.81294 0
M  V30 1908 H 181.953 3.64736 5.44654 0
M  V30 1909 H 181.473 1.94972 5.67227 0
M  V30 1910 H 183.152 2.45429 5.98643 0
M  V30 1911 N 183.284 -1.43765 0.645699 0
M  V30 1912 C 184.532 -2.01499 0.155731 0
M  V30 1913 C 184.853 -1.51151 -1.232 0
M  V30 1914 O 184.123 -0.721044 -1.82148 0
M  V30 1915 H 182.703 -0.745003 0.0545817 0
M  V30 1916 H 185.365 -1.76075 0.835677 0
M  V30 1917 H 184.461 -3.1181 0.134577 0
M  V30 1918 N 184.763 -0.387143 -1.52771 0
M  V30 1919 C 186.009 0.196025 -2.0185 0
M  V30 1920 C 186.342 1.46641 -1.27319 0
M  V30 1921 O 185.617 1.90889 -0.373032 0
M  V30 1922 C 185.9 0.466136 -3.5707 0
M  V30 1923 C 185.753 -0.819385 -4.42274 0
M  V30 1924 C 187.072 1.25768 -4.21747 0
M  V30 1925 H 184.191 0.0697708 -0.73369 0
M  V30 1926 H 186.833 -0.516286 -1.82851 0
M  V30 1927 H 184.983 1.07293 -3.7339 0
M  V30 1928 H 186.655 -1.4563 -4.37709 0
M  V30 1929 H 184.898 -1.43517 -4.09372 0
M  V30 1930 H 185.569 -0.585065 -5.48891 0
M  V30 1931 H 188.045 0.744167 -4.09391 0
M  V30 1932 H 186.921 1.41541 -5.30337 0
M  V30 1933 H 187.182 2.27228 -3.79236 0
M  V30 1934 N 186.241 1.57166 -0.116904 0
M  V30 1935 C 187.151 2.18745 0.847812 0
M  V30 1936 C 188.167 1.163 1.29423 0
M  V30 1937 O 189.343 1.48761 1.35765 0
M  V30 1938 C 186.408 2.77307 2.0809 0
M  V30 1939 C 185.469 3.94781 1.68661 0
M  V30 1940 C 184.702 4.50541 2.86091 0
M  V30 1941 O 184.925 4.05202 4.01456 0
M  V30 1942 O 183.859 5.41256 2.63298 0
M  V30 1943 H 187.685 3.01632 0.353778 0
M  V30 1944 H 185.27 1.49005 0.108599 0
M  V30 1945 H 187.152 3.14647 2.80313 0
M  V30 1946 H 185.827 1.97452 2.56504 0
M  V30 1947 H 184.734 3.62214 0.935518 0
M  V30 1948 H 186.067 4.76065 1.24991 0
M  V30 1949 N 187.719 -0.156864 1.56817 0
M  V30 1950 C 188.682 -1.17781 1.96622 0
M  V30 1951 C 189.682 -1.36401 0.851555 0
M  V30 1952 O 190.872 -1.33561 1.11836 0
M  V30 1953 C 188.004 -2.54008 2.27361 0
M  V30 1954 H 189.197 -0.836564 2.87996 0
M  V30 1955 H 186.75 -0.39985 1.51099 0
M  V30 1956 H 187.485 -2.9312 1.38748 0
M  V30 1957 H 187.27 -2.41856 3.08623 0
M  V30 1958 H 188.76 -3.27558 2.59029 0
M  V30 1959 N 189.197 -1.51736 -0.425897 0
M  V30 1960 C 190.144 -1.73875 -1.51776 0
M  V30 1961 C 191.114 -0.580702 -1.55618 0
M  V30 1962 O 192.299 -0.81641 -1.72451 0
M  V30 1963 C 189.439 -1.88012 -2.89388 0
M  V30 1964 C 188.552 -3.15606 -2.94986 0
M  V30 1965 C 187.687 -3.20271 -4.23793 0
M  V30 1966 C 186.726 -4.42134 -4.23302 0
M  V30 1967 N 185.863 -4.44284 -5.43651 0
M  V30 1968 H 190.703 -2.67071 -1.32201 0
M  V30 1969 H 188.24 -1.32351 -0.642008 0
M  V30 1970 H 190.198 -1.9419 -3.69251 0
M  V30 1971 H 188.828 -0.98213 -3.07496 0
M  V30 1972 H 187.88 -3.18681 -2.07717 0
M  V30 1973 H 189.192 -4.05486 -2.90486 0
M  V30 1974 H 188.346 -3.25428 -5.12036 0
M  V30 1975 H 187.085 -2.28299 -4.30965 0
M  V30 1976 H 186.09 -4.3714 -3.3345 0
M  V30 1977 H 187.315 -5.35382 -4.17783 0
M  V30 1978 H 185.261 -3.55188 -5.51523 0
M  V30 1979 H 185.178 -5.27988 -5.41078 0
M  V30 1980 H 186.446 -4.53649 -6.33895 0
M  V30 1981 N 190.675 0.682077 -1.42076 0
M  V30 1982 C 191.605 1.80796 -1.47767 0
M  V30 1983 C 192.586 1.6677 -0.334954 0
M  V30 1984 O 193.771 1.863 -0.548264 0
M  V30 1985 C 190.901 3.19038 -1.37229 0
M  V30 1986 C 189.855 3.47789 -2.49453 0
M  V30 1987 C 189.181 4.8553 -2.23975 0
M  V30 1988 C 190.481 3.45411 -3.91776 0
M  V30 1989 H 192.175 1.7629 -2.41997 0
M  V30 1990 H 189.721 0.846721 -1.16476 0
M  V30 1991 H 191.674 3.97528 -1.39821 0
M  V30 1992 H 190.398 3.24204 -0.394907 0
M  V30 1993 H 189.057 2.71657 -2.46166 0
M  V30 1994 H 188.705 4.87337 -1.24547 0
M  V30 1995 H 188.405 5.0573 -2.99184 0
M  V30 1996 H 189.929 5.66312 -2.28304 0
M  V30 1997 H 191.343 4.13882 -3.96705 0
M  V30 1998 H 189.74 3.77145 -4.66778 0
M  V30 1999 H 190.81 2.44122 -4.18966 0
M  V30 2000 N 192.153 1.28127 0.917671 0
M  V30 2001 C 193.101 1.11569 2.04096 0
M  V30 2002 C 194.095 0.0360242 1.69362 0
M  V30 2003 O 195.301 0.194501 1.78946 0
M  V30 2004 H 191.676 0.344097 0.668656 0
M  V30 2005 H 193.647 2.06711 2.15205 0
M  V30 2006 C 192.396 0.790197 3.38602 0
M  V30 2007 H 191.719 1.61293 3.6582 0
M  V30 2008 H 193.159 0.714271 4.1794 0
M  V30 2009 C 191.618 -0.505897 3.3308 0
M  V30 2010 O 192.148 -1.53736 3.71117 0
M  V30 2011 N 190.354 -0.505193 2.86175 0
M  V30 2012 H 189.901 0.334621 2.55417 0
M  V30 2013 H 189.859 -1.37243 2.82863 0
M  V30 2014 N 193.631 -1.12557 1.10312 0
M  V30 2015 C 195.047 -1.36036 0.834649 0
M  V30 2016 C 195.247 -1.93946 -0.546539 0
M  V30 2017 O 194.303 -2.16484 -1.29966 0
M  V30 2018 C 195.616 -2.30312 1.9333 0
M  V30 2019 C 197.164 -2.43906 1.9616 0
M  V30 2020 C 197.639 -3.41496 3.05195 0
M  V30 2021 N 199.13 -3.49053 3.04494 0
M  V30 2022 C 199.865 -4.24471 3.85502 0
M  V30 2023 N 199.361 -5.02966 4.76442 0
M  V30 2024 N 201.154 -4.19864 3.73725 0
M  V30 2025 H 193.305 -0.733246 1.99342 0
M  V30 2026 H 195.568 -0.385234 0.866198 0
M  V30 2027 H 195.274 -1.94933 2.92735 0
M  V30 2028 H 195.148 -3.30421 1.81939 0
M  V30 2029 H 197.535 -2.78567 0.973886 0
M  V30 2030 H 197.616 -1.4369 2.11629 0
M  V30 2031 H 197.26 -3.07565 4.04186 0
M  V30 2032 H 197.19 -4.41539 2.86968 0
M  V30 2033 H 199.681 -2.93053 2.38596 0
M  V30 2034 H 199.994 -5.57846 5.34815 0
M  V30 2035 H 198.339 -5.02167 4.80472 0
M  V30 2036 H 201.53 -3.57623 3.02032 0
M  V30 2037 H 201.703 -4.78386 4.37093 0
M  V30 2038 N 195.109 -0.891671 -1.2995 0
M  V30 2039 C 196.358 -0.509521 -1.95158 0
M  V30 2040 C 196.671 0.947388 -1.71125 0
M  V30 2041 O 197.877 1.43669 -2.30372 0
M  V30 2042 C 196.333 -0.860315 -3.49466 0
M  V30 2043 C 195.941 -2.33545 -3.8231 0
M  V30 2044 C 197.685 -0.547687 -4.20952 0
M  V30 2045 C 195.592 -2.62752 -5.29826 0
M  V30 2046 H 194.522 -0.18682 -0.730489 0
M  V30 2047 H 197.173 -1.08756 -1.47798 0
M  V30 2048 H 195.555 -0.211285 -3.95436 0
M  V30 2049 H 196.729 -3.02936 -3.47227 0
M  V30 2050 H 195.044 -2.61629 -3.23944 0
M  V30 2051 H 197.641 -0.742854 -5.29515 0
M  V30 2052 H 197.984 0.51332 -4.13123 0
M  V30 2053 H 198.517 -1.1542 -3.80688 0
M  V30 2054 H 195.256 -3.6762 -5.42712 0
M  V30 2055 H 194.776 -1.97977 -5.66185 0
M  V30 2056 H 196.455 -2.48601 -5.97333 0
M  V30 2057 N 196.587 1.43421 -0.653314 0
M  V30 2058 C 197.998 1.85065 -0.246537 0
M  V30 2059 C 198.349 1.54688 1.2069 0
M  V30 2060 O 197.474 0.995896 1.92122 0
M  V30 2061 C 198.069 3.35922 -0.440666 0
M  V30 2062 C 196.628 3.76297 -0.0882064 0
M  V30 2063 C 195.775 2.67147 -0.743484 0
M  V30 2064 H 198.726 1.33572 -0.856979 0
M  V30 2065 H 198.747 3.79204 0.313798 0
M  V30 2066 H 198.259 3.58 -1.49858 0
M  V30 2067 H 196.36 3.5983 0.96711 0
M  V30 2068 H 196.473 4.76338 -0.513738 0
M  V30 2069 H 194.837 2.54086 -0.176712 0
M  V30 2070 H 195.62 2.92053 -1.80443 0
M  V30 2071 N 198.065 0.39524 1.52563 0
M  V30 2072 C 199.29 -0.187456 2.06551 0
M  V30 2073 C 199.715 -1.39249 1.26457 0
M  V30 2074 O 199.073 -1.78947 0.291151 0
M  V30 2075 C 199.121 -0.529985 3.56684 0
M  V30 2076 O 198.225 -1.62307 3.79118 0
M  V30 2077 H 197.566 -0.0202537 0.663691 0
M  V30 2078 H 200.096 0.564426 1.96661 0
M  V30 2079 H 200.106 -0.792598 4.00227 0
M  V30 2080 H 198.781 0.350987 4.14416 0
M  V30 2081 H 197.358 -1.3537 3.47461 0
M  V30 2082 N 199.544 -1.57102 0.125237 0
M  V30 2083 C 200.955 -1.82384 -0.399142 0
M  V30 2084 C 201.306 -1.04276 -1.66195 0
M  V30 2085 O 200.431 -0.281269 -2.14564 0
M  V30 2086 C 201.026 -3.30821 -0.730932 0
M  V30 2087 C 199.585 -3.56762 -1.19992 0
M  V30 2088 C 198.732 -2.7649 -0.211792 0
M  V30 2089 H 201.683 -1.54786 0.350277 0
M  V30 2090 H 201.704 -3.4579 -1.58775 0
M  V30 2091 H 201.216 -3.87643 0.188345 0
M  V30 2092 H 199.317 -3.05305 -2.13588 0
M  V30 2093 H 199.43 -4.65317 -1.14093 0
M  V30 2094 H 197.794 -2.4489 -0.700085 0
M  V30 2095 H 198.577 -3.36073 0.700691 0
M  V30 2096 N 201.022 0.148545 -1.56898 0
M  V30 2097 C 202.25 0.876389 -1.87422 0
M  V30 2098 C 202.665 1.74809 -0.713256 0
M  V30 2099 O 202.022 1.79725 0.317025 0
M  V30 2100 C 202.073 1.73438 -3.17178 0
M  V30 2101 O 201.794 0.897809 -4.28802 0
M  V30 2102 C 203.295 2.56993 -3.61205 0
M  V30 2103 H 200.515 0.253489 -0.621277 0
M  V30 2104 H 203.059 0.141798 -2.04008 0
M  V30 2105 H 201.214 2.42205 -3.0235 0
M  V30 2106 H 201.628 1.48672 -5.02988 0
M  V30 2107 H 203.102 3.12773 -4.54838 0
M  V30 2108 H 203.579 3.32958 -2.86419 0
M  V30 2109 H 204.185 1.9352 -3.78722 0
M  V30 2110 N 202.5 1.5196 0.417844 0
M  V30 2111 C 203.43 1.77634 1.51554 0
M  V30 2112 C 204.411 0.626918 1.58126 0
M  V30 2113 O 205.596 0.871632 1.7354 0
M  V30 2114 C 202.726 1.91911 2.8946 0
M  V30 2115 C 201.68 3.07463 2.97743 0
M  V30 2116 C 201.006 3.06951 4.37819 0
M  V30 2117 C 202.306 4.47082 2.70027 0
M  V30 2118 H 204 2.6955 1.3032 0
M  V30 2119 H 201.546 1.29706 0.625492 0
M  V30 2120 H 203.499 2.08455 3.6623 0
M  V30 2121 H 202.223 0.966598 3.11969 0
M  V30 2122 H 200.882 2.90656 2.23416 0
M  V30 2123 H 200.53 2.09438 4.57323 0
M  V30 2124 H 200.23 3.84556 4.44286 0
M  V30 2125 H 201.754 3.25613 5.16535 0
M  V30 2126 H 203.168 4.6414 3.36522 0
M  V30 2127 H 201.565 5.2654 2.87881 0
M  V30 2128 H 202.635 4.55777 1.65514 0
M  V30 2129 N 203.978 -0.674533 1.42435 0
M  V30 2130 C 205.225 -1.43459 1.42919 0
M  V30 2131 C 205.553 -1.94446 0.0457312 0
M  V30 2132 O 204.808 -1.7132 -0.94593 0
M  V30 2133 C 205.107 -2.64767 2.40069 0
M  V30 2134 C 204.773 -2.3232 3.86443 0
M  V30 2135 C 203.435 -2.23182 4.26314 0
M  V30 2136 C 205.787 -2.05977 4.78773 0
M  V30 2137 C 203.115 -1.85827 5.56494 0
M  V30 2138 C 205.467 -1.70125 6.09295 0
M  V30 2139 C 204.131 -1.59498 6.48164 0
M  V30 2140 H 203.401 -0.524952 0.522978 0
M  V30 2141 H 206.048 -0.769097 1.75377 0
M  V30 2142 H 204.353 -3.36349 2.00939 0
M  V30 2143 H 206.05 -3.22949 2.37707 0
M  V30 2144 H 202.64 -2.40334 3.54877 0
M  V30 2145 H 206.824 -2.11969 4.48757 0
M  V30 2146 H 202.08 -1.76168 5.8547 0
M  V30 2147 H 206.254 -1.48767 6.80324 0
M  V30 2148 H 203.881 -1.30322 7.48946 0
M  V30 2149 N 205.456 -1.28612 -0.910864 0
M  V30 2150 C 206.704 -1.15705 -1.65701 0
M  V30 2151 C 207.025 0.29416 -1.92769 0
M  V30 2152 O 206.295 1.20331 -1.54588 0
M  V30 2153 H 204.875 -0.425216 -0.614167 0
M  V30 2154 H 207.537 -1.61381 -1.0928 0
M  V30 2155 H 206.633 -1.6988 -2.61815 0
M  V30 2156 N 206.934 1.1197 -1.10907 0
M  V30 2157 C 207.882 2.19927 -0.757303 0
M  V30 2158 C 208.876 1.67564 0.248747 0
M  V30 2159 O 210.082 1.79672 0.108605 0
M  V30 2160 H 206.457 0.716925 -0.226987 0
M  V30 2161 H 208.428 2.46847 -1.67658 0
M  V30 2162 C 207.177 3.47061 -0.210671 0
M  V30 2163 H 206.5 3.87703 -0.976049 0
M  V30 2164 H 207.94 4.24 -0.0026584 0
M  V30 2165 C 206.399 3.19864 1.05777 0
M  V30 2166 O 206.929 3.40049 2.13845 0
M  V30 2167 N 205.135 2.73636 0.978349 0
M  V30 2168 H 204.682 2.5741 0.0988246 0
M  V30 2169 H 204.64 2.55815 1.82773 0
M  V30 2170 N 208.412 0.89855 1.29475 0
M  V30 2171 C 209.689 0.443416 1.90508 0
M  V30 2172 C 210.069 -1.07685 1.81569 0
M  V30 2173 O 209.417 -1.9182 1.24166 0
M  V30 2174 C 209.627 0.956708 3.35631 0
M  V30 2175 C 210.975 0.999728 4.12663 0
M  V30 2176 O 211.999 0.904299 3.4453 0
M  V30 2177 O 210.858 1.14289 5.34416 0
M  V30 2178 H 207.952 0.138025 0.815401 0
M  V30 2179 H 210.498 0.98834 1.37949 0
M  V30 2180 H 209.27 2.00067 3.36287 0
M  V30 2181 H 208.893 0.391728 3.95666 0
M  V30 2182 N 209.89 -1.43072 0.660911 0
M  V30 2183 C 211.139 -2.00942 0.174735 0
M  V30 2184 C 211.452 -1.52797 -1.22117 0
M  V30 2185 O 212.658 -2.02991 -1.80297 0
M  V30 2186 C 211.114 -3.58948 0.261559 0
M  V30 2187 C 210.722 -4.16085 1.66064 0
M  V30 2188 C 212.466 -4.24173 -0.166617 0
M  V30 2189 C 210.373 -5.6641 1.70098 0
M  V30 2190 H 209.303 -0.751483 0.0615631 0
M  V30 2191 H 211.954 -1.63955 0.824069 0
M  V30 2192 H 210.336 -3.93372 -0.455421 0
M  V30 2193 H 211.51 -3.93147 2.40359 0
M  V30 2194 H 209.825 -3.6326 2.03546 0
M  V30 2195 H 212.422 -5.34471 -0.156433 0
M  V30 2196 H 212.765 -3.98647 -1.19943 0
M  V30 2197 H 213.298 -3.94659 0.498875 0
M  V30 2198 H 210.037 -5.96715 2.71315 0
M  V30 2199 H 209.557 -5.91382 1.00139 0
M  V30 2200 H 211.236 -6.30585 1.44816 0
M  V30 2201 N 211.368 -0.403325 -1.52352 0
M  V30 2202 C 212.316 0.439752 -2.28405 0
M  V30 2203 C 213.31 1.05089 -1.32863 0
M  V30 2204 O 214.516 0.989759 -1.50345 0
M  V30 2205 H 210.891 0.160587 -0.734653 0
M  V30 2206 H 212.862 -0.222983 -2.97566 0
M  V30 2207 C 211.611 1.54736 -3.11371 0
M  V30 2208 H 210.934 1.08643 -3.84755 0
M  V30 2209 H 212.374 2.1112 -3.67701 0
M  V30 2210 C 210.833 2.51141 -2.24566 0
M  V30 2211 O 211.363 3.54887 -1.88196 0
M  V30 2212 N 209.569 2.21213 -1.8845 0
M  V30 2213 H 209.116 1.36878 -2.18225 0
M  V30 2214 H 209.074 2.85963 -1.30662 0
M  V30 2215 N 212.846 1.57033 -0.133567 0
M  V30 2216 C 214.071 2.00475 0.531477 0
M  V30 2217 C 214.496 1.01291 1.58499 0
M  V30 2218 O 213.854 -0.0133279 1.81295 0
M  V30 2219 C 213.902 3.42729 1.12113 0
M  V30 2220 O 213.006 3.46498 2.23636 0
M  V30 2221 H 212.347 0.650876 0.131362 0
M  V30 2222 H 214.877 2.03344 -0.22634 0
M  V30 2223 H 214.887 3.81246 1.4531 0
M  V30 2224 H 213.562 4.14428 0.349557 0
M  V30 2225 H 212.139 3.19811 1.91769 0
M  V30 2226 N 214.325 -0.140222 1.56975 0
M  V30 2227 C 215.571 -0.852949 1.83991 0
M  V30 2228 C 215.904 -1.80512 0.716187 0
M  V30 2229 O 215.179 -1.92479 -0.279681 0
M  V30 2230 C 215.462 -1.6215 3.21527 0
M  V30 2231 C 215.315 -0.690363 4.4447 0
M  V30 2232 C 216.634 -2.58247 3.56366 0
M  V30 2233 H 213.753 -0.308634 0.669264 0
M  V30 2234 H 216.395 -0.117898 1.89634 0
M  V30 2235 H 214.545 -2.24812 3.16847 0
M  V30 2236 H 216.217 -0.0742264 4.6124 0
M  V30 2237 H 214.46 -0.000396433 4.338 0
M  V30 2238 H 215.131 -1.2643 5.37326 0
M  V30 2239 H 217.607 -2.05701 3.61699 0
M  V30 2240 H 216.483 -3.09067 4.53617 0
M  V30 2241 H 216.744 -3.39923 2.82674 0
M  V30 2242 N 215.803 -1.52179 -0.40978 0
M  V30 2243 C 216.733 -1.78435 -1.5061 0
M  V30 2244 C 217.714 -0.635295 -1.57791 0
M  V30 2245 O 218.899 -0.880823 -1.73076 0
M  V30 2246 C 216.029 -1.93444 -2.88439 0
M  V30 2247 C 214.983 -3.09038 -2.96108 0
M  V30 2248 C 214.309 -3.09268 -4.36185 0
M  V30 2249 C 215.609 -4.48508 -2.67652 0
M  V30 2250 H 217.303 -2.70237 -1.28889 0
M  V30 2251 H 214.849 -1.30036 -0.618605 0
M  V30 2252 H 216.802 -2.10394 -3.65119 0
M  V30 2253 H 215.526 -0.983129 -3.11452 0
M  V30 2254 H 214.185 -2.91837 -2.21872 0
M  V30 2255 H 213.833 -2.11861 -4.56206 0
M  V30 2256 H 213.533 -3.86907 -4.42241 0
M  V30 2257 H 215.057 -3.28348 -5.14801 0
M  V30 2258 H 216.471 -4.65918 -3.34056 0
M  V30 2259 H 214.868 -5.28059 -2.85085 0
M  V30 2260 H 215.938 -4.56649 -1.63095 0
M  V30 2261 N 217.281 0.66697 -1.42791 0
M  V30 2262 C 218.528 1.42699 -1.43678 0
M  V30 2263 C 218.856 1.94419 -0.0560425 0
M  V30 2264 O 218.111 1.7182 0.936831 0
M  V30 2265 C 218.41 2.6349 -2.4147 0
M  V30 2266 C 218.076 2.30267 -3.8767 0
M  V30 2267 C 216.738 2.20918 -4.27491 0
M  V30 2268 C 219.09 2.03435 -4.79858 0
M  V30 2269 C 216.418 1.82873 -5.57471 0
M  V30 2270 C 218.77 1.66892 -6.10188 0
M  V30 2271 C 217.434 1.56058 -6.49001 0
M  V30 2272 H 216.704 0.522171 -0.525755 0
M  V30 2273 H 219.351 0.759785 -1.75783 0
M  V30 2274 H 217.656 3.35279 -2.0272 0
M  V30 2275 H 219.353 3.21684 -2.39417 0
M  V30 2276 H 215.943 2.38449 -3.56146 0
M  V30 2277 H 220.127 2.09586 -4.49875 0
M  V30 2278 H 215.383 1.7306 -5.86396 0
M  V30 2279 H 219.557 1.45157 -6.81104 0
M  V30 2280 H 217.184 1.26348 -7.49627 0
M  V30 2281 N 218.759 1.29093 0.90403 0
M  V30 2282 C 219.987 1.19689 1.68766 0
M  V30 2283 C 220.402 -0.243113 1.87228 0
M  V30 2284 O 219.759 -1.16326 1.40621 0
M  V30 2285 C 219.81 1.90144 3.07453 0
M  V30 2286 O 219.531 3.2852 2.89838 0
M  V30 2287 C 221.032 1.87162 4.01852 0
M  V30 2288 H 218.252 0.415035 0.527244 0
M  V30 2289 H 220.796 1.7039 1.13082 0
M  V30 2290 H 218.951 1.43289 3.59926 0
M  V30 2291 H 219.365 3.63944 3.77684 0
M  V30 2292 H 220.839 2.41032 4.96596 0
M  V30 2293 H 221.316 0.84617 4.30972 0
M  V30 2294 H 221.922 2.33741 3.5531 0
M  V30 2295 N 220.237 -1.11381 1.11499 0
M  V30 2296 C 221.465 -1.86934 0.88675 0
M  V30 2297 C 221.88 -1.80195 -0.563476 0
M  V30 2298 O 221.237 -1.18367 -1.38908 0
M  V30 2299 C 221.288 -3.35722 1.34064 0
M  V30 2300 O 221.009 -3.4232 2.73401 0
M  V30 2301 C 222.51 -4.2818 1.14791 0
M  V30 2302 H 219.73 -0.591117 0.317523 0
M  V30 2303 H 222.274 -1.40865 1.48248 0
M  V30 2304 H 220.429 -3.79294 0.788355 0
M  V30 2305 H 220.843 -4.34971 2.93087 0
M  V30 2306 H 222.317 -5.30817 1.5145 0
M  V30 2307 H 222.794 -4.39113 0.0875279 0
M  V30 2308 H 223.4 -3.90402 1.68721 0
M  V30 2309 N 221.715 -0.905404 -1.28997 0
M  V30 2310 C 222.647 -0.344748 -2.26592 0
M  V30 2311 C 223.66 0.512135 -1.54535 0
M  V30 2312 O 224.849 0.328368 -1.75454 0
M  V30 2313 C 221.949 0.526587 -3.34784 0
M  V30 2314 C 221.122 -0.305871 -4.36329 0
M  V30 2315 C 220.181 0.499209 -5.23827 0
M  V30 2316 O 219.207 -0.0853004 -5.69136 0
M  V30 2317 N 220.409 1.80408 -5.51755 0
M  V30 2318 H 223.174 -1.18359 -2.75338 0
M  V30 2319 H 220.735 -0.770481 -1.42391 0
M  V30 2320 H 222.727 1.07171 -3.90252 0
M  V30 2321 H 221.297 1.26613 -2.85811 0
M  V30 2322 H 220.517 -1.0324 -3.80441 0
M  V30 2323 H 221.805 -0.875773 -5.01206 0
M  V30 2324 H 221.203 2.3016 -5.16762 0
M  V30 2325 H 219.76 2.29621 -6.10014 0
M  V30 2326 N 223.193 1.4272 -0.668489 0
M  V30 2327 C 224.141 2.32586 0.0254857 0
M  V30 2328 C 225.135 1.49471 0.797176 0
M  V30 2329 O 226.341 1.65583 0.705853 0
M  V30 2330 H 222.716 0.751514 0.0270339 0
M  V30 2331 H 224.687 2.88823 -0.749936 0
M  V30 2332 C 223.436 3.3397 0.967427 0
M  V30 2333 H 222.759 3.97961 0.383048 0
M  V30 2334 H 224.199 3.9945 1.42181 0
M  V30 2335 C 222.658 2.65744 2.0708 0
M  V30 2336 O 223.188 2.48454 3.15648 0
M  V30 2337 N 221.394 2.2487 1.8407 0
M  V30 2338 H 220.941 2.39132 0.95778 0
M  V30 2339 H 220.899 1.79552 2.58086 0
M  V30 2340 N 224.671 0.411399 1.52136 0
M  V30 2341 C 225.603 -0.448386 2.24771 0
M  V30 2342 C 226.616 -1.00828 1.27818 0
M  V30 2343 O 227.805 -0.906841 1.53749 0
M  V30 2344 C 224.905 -1.63636 2.96777 0
M  V30 2345 C 224.078 -1.19995 4.20618 0
M  V30 2346 C 223.137 -2.25509 4.75428 0
M  V30 2347 O 222.163 -1.86007 5.3795 0
M  V30 2348 N 223.365 -3.577 4.57199 0
M  V30 2349 H 226.13 0.174025 2.99194 0
M  V30 2350 H 223.691 0.238897 1.60128 0
M  V30 2351 H 225.683 -2.33793 3.30338 0
M  V30 2352 H 224.253 -2.16465 2.25526 0
M  V30 2353 H 223.473 -0.326421 3.92846 0
M  V30 2354 H 224.761 -0.885365 5.01038 0
M  V30 2355 H 224.159 -3.92543 4.07341 0
M  V30 2356 H 222.716 -4.23827 4.95191 0
M  V30 2357 N 226.149 -1.5696 0.141893 0
M  V30 2358 C 227.377 -2.00322 -0.517579 0
M  V30 2359 C 227.792 -1.02193 -1.58752 0
M  V30 2360 O 227.149 -0.0181619 -1.82491 0
M  V30 2361 C 227.2 -3.43618 -1.12289 0
M  V30 2362 O 226.921 -4.37995 -0.0956929 0
M  V30 2363 C 228.422 -4.02231 -1.86347 0
M  V30 2364 H 225.642 -0.657243 -0.135177 0
M  V30 2365 H 228.186 -2.03146 0.234973 0
M  V30 2366 H 226.341 -3.41662 -1.82609 0
M  V30 2367 H 226.755 -5.21729 -0.538469 0
M  V30 2368 H 228.229 -5.04509 -2.23997 0
M  V30 2369 H 228.706 -3.42655 -2.74744 0
M  V30 2370 H 229.312 -4.07802 -1.20737 0
M  V30 2371 N 227.627 0.131896 -1.57047 0
M  V30 2372 C 229.038 0.690407 -1.73465 0
M  V30 2373 C 229.389 1.8094 -0.758629 0
M  V30 2374 O 228.514 2.16282 0.0713813 0
M  V30 2375 C 229.109 1.25916 -3.14532 0
M  V30 2376 C 227.668 1.76409 -3.32501 0
M  V30 2377 C 226.815 0.658579 -2.69366 0
M  V30 2378 H 229.766 -0.0939144 -1.58422 0
M  V30 2379 H 229.787 2.12892 -3.15369 0
M  V30 2380 H 229.299 0.444515 -3.85546 0
M  V30 2381 H 227.4 2.60391 -2.66509 0
M  V30 2382 H 227.513 1.88241 -4.4057 0
M  V30 2383 H 225.877 1.08899 -2.30246 0
M  V30 2384 H 226.66 -0.14487 -3.42994 0
M  V30 2385 N 229.106 1.52395 0.401703 0
M  V30 2386 C 230.054 1.7689 1.51039 0
M  V30 2387 C 231.048 0.636298 1.56996 0
M  V30 2388 O 232.254 0.818507 1.60314 0
M  V30 2389 H 228.629 0.559502 0.502456 0
M  V30 2390 H 230.6 2.69757 1.27568 0
M  V30 2391 C 229.349 1.94331 2.88324 0
M  V30 2392 H 228.672 2.80905 2.84486 0
M  V30 2393 H 230.112 2.15466 3.65172 0
M  V30 2394 C 228.571 0.712396 3.29282 0
M  V30 2395 O 229.101 -0.116218 4.01532 0
M  V30 2396 N 227.307 0.546154 2.85422 0
M  V30 2397 H 226.854 1.22156 2.26794 0
M  V30 2398 H 226.812 -0.276113 3.13185 0
M  V30 2399 N 230.584 -0.659388 1.43143 0
M  V30 2400 C 232 -0.974337 1.26407 0
M  V30 2401 C 232.2 -2.007 0.179341 0
M  V30 2402 O 231.256 -2.4856 -0.444295 0
M  V30 2403 C 232.569 -1.46447 2.62628 0
M  V30 2404 C 234.117 -1.58144 2.7011 0
M  V30 2405 C 234.592 -2.1055 4.06734 0
M  V30 2406 N 236.083 -2.17861 4.08767 0
M  V30 2407 C 236.818 -2.59519 5.1131 0
M  V30 2408 N 236.314 -3.00518 6.24228 0
M  V30 2409 N 238.107 -2.59404 4.98664 0
M  V30 2410 H 230.258 0.0240528 2.12386 0
M  V30 2411 H 232.521 -0.0518065 0.946583 0
M  V30 2412 H 232.227 -0.780123 3.42939 0
M  V30 2413 H 232.101 -2.44058 2.87603 0
M  V30 2414 H 234.488 -2.25682 1.90136 0
M  V30 2415 H 234.569 -0.589828 2.48907 0
M  V30 2416 H 234.213 -1.43616 4.87172 0
M  V30 2417 H 234.143 -3.10531 4.25298 0
M  V30 2418 H 236.634 -1.88975 3.27257 0
M  V30 2419 H 236.947 -3.31036 6.98309 0
M  V30 2420 H 235.292 -2.98337 6.2771 0
M  V30 2421 H 238.483 -2.26747 4.09516 0
M  V30 2422 H 238.656 -2.91548 5.78709 0
M  V30 2423 N 232.062 -1.29571 -0.897171 0
M  V30 2424 C 233.309 -1.17689 -1.6479 0
M  V30 2425 C 233.637 0.27107 -1.92602 0
M  V30 2426 O 232.892 1.21193 -1.53658 0
M  V30 2427 C 233.191 -1.9382 -3.00281 0
M  V30 2428 C 232.857 -3.43522 -2.92068 0
M  V30 2429 C 231.519 -3.84348 -2.89535 0
M  V30 2430 C 233.871 -4.38906 -2.81089 0
M  V30 2431 C 231.199 -5.18869 -2.73846 0
M  V30 2432 C 233.551 -5.73521 -2.66939 0
M  V30 2433 C 232.215 -6.13601 -2.62774 0
M  V30 2434 H 231.485 -0.430654 -0.603008 0
M  V30 2435 H 234.132 -1.60536 -1.04404 0
M  V30 2436 H 232.437 -1.4357 -3.64547 0
M  V30 2437 H 234.134 -1.82028 -3.57305 0
M  V30 2438 H 230.724 -3.11072 -2.94842 0
M  V30 2439 H 234.908 -4.08315 -2.82121 0
M  V30 2440 H 230.164 -5.4903 -2.69027 0
M  V30 2441 H 234.338 -6.47078 -2.57416 0
M  V30 2442 H 231.965 -7.17786 -2.50375 0
M  V30 2443 N 233.54 1.10788 -1.12088 0
M  V30 2444 C 234.956 1.34691 -0.856186 0
M  V30 2445 C 235.156 1.94791 0.515615 0
M  V30 2446 O 234.212 2.18524 1.26505 0
M  V30 2447 C 235.525 2.27208 -1.9697 0
M  V30 2448 C 237.073 2.40755 -2.00016 0
M  V30 2449 C 237.548 3.36598 -3.1059 0
M  V30 2450 N 239.039 3.44164 -3.10008 0
M  V30 2451 C 239.774 4.18284 -3.92206 0
M  V30 2452 N 239.27 4.95322 -4.84384 0
M  V30 2453 N 241.063 4.13865 -3.80357 0
M  V30 2454 H 233.214 0.70144 -2.00483 0
M  V30 2455 H 235.477 0.371405 -0.872217 0
M  V30 2456 H 235.183 1.90251 -2.958 0
M  V30 2457 H 235.057 3.27485 -1.87172 0
M  V30 2458 H 237.444 2.76982 -1.01808 0
M  V30 2459 H 237.525 1.40305 -2.13888 0
M  V30 2460 H 237.169 3.01096 -4.09028 0
M  V30 2461 H 237.099 4.36918 -2.93956 0
M  V30 2462 H 239.59 2.8922 -2.43228 0
M  V30 2463 H 239.903 5.49267 -5.43623 0
M  V30 2464 H 238.248 4.94459 -4.884 0
M  V30 2465 H 241.439 3.52773 -3.07683 0
M  V30 2466 H 241.612 4.71372 -4.44649 0
M  V30 2467 N 235.018 0.912232 1.28515 0
M  V30 2468 C 236.265 0.544599 1.95039 0
M  V30 2469 C 236.593 -0.911435 1.71823 0
M  V30 2470 O 235.848 -1.66317 1.03137 0
M  V30 2471 C 236.147 0.798392 3.48368 0
M  V30 2472 C 235.813 2.23374 3.91682 0
M  V30 2473 C 234.475 2.62617 4.03219 0
M  V30 2474 C 236.827 3.16786 4.13879 0
M  V30 2475 C 234.155 3.94429 4.3433 0
M  V30 2476 C 236.507 4.48161 4.46469 0
M  V30 2477 C 235.171 4.8726 4.56217 0
M  V30 2478 H 234.441 0.199283 0.7137 0
M  V30 2479 H 237.088 1.15327 1.52879 0
M  V30 2480 H 235.393 0.106908 3.91654 0
M  V30 2481 H 237.09 0.493141 3.97956 0
M  V30 2482 H 233.68 1.91922 3.83228 0
M  V30 2483 H 237.864 2.87677 4.0442 0
M  V30 2484 H 233.12 4.24426 4.40082 0
M  V30 2485 H 237.294 5.20559 4.62592 0
M  V30 2486 H 234.921 5.89431 4.80078 0
M  V30 2487 N 236.496 -1.42363 0.676048 0
M  V30 2488 C 237.443 -2.308 -0.00150904 0
M  V30 2489 C 238.413 -1.46032 -0.791444 0
M  V30 2490 O 239.598 -1.74861 -0.76344 0
M  V30 2491 C 236.738 -3.31883 -0.945919 0
M  V30 2492 C 235.851 -4.31741 -0.149675 0
M  V30 2493 C 234.986 -5.19898 -1.08995 0
M  V30 2494 C 234.025 -6.11434 -0.285465 0
M  V30 2495 N 233.162 -6.92138 -1.17851 0
M  V30 2496 H 238.002 -2.88187 0.758455 0
M  V30 2497 H 235.539 -1.41952 0.38576 0
M  V30 2498 H 237.497 -3.89019 -1.50731 0
M  V30 2499 H 236.127 -2.76093 -1.6725 0
M  V30 2500 H 235.179 -3.76713 0.528359 0
M  V30 2501 H 236.491 -4.96534 0.474866 0
M  V30 2502 H 235.645 -5.81772 -1.72123 0
M  V30 2503 H 234.384 -4.55284 -1.74837 0
M  V30 2504 H 233.389 -5.48627 0.359018 0
M  V30 2505 H 234.614 -6.78097 0.368883 0
M  V30 2506 H 232.56 -6.30152 -1.82332 0
M  V30 2507 H 232.477 -7.53542 -0.609082 0
M  V30 2508 H 233.745 -7.58499 -1.79722 0
M  V30 2509 N 237.974 -0.419461 -1.51915 0
M  V30 2510 C 239.223 0.154346 -2.01109 0
M  V30 2511 C 239.536 1.45338 -1.30905 0
M  V30 2512 O 240.742 2.10906 -1.7097 0
M  V30 2513 C 239.198 0.325615 -3.58424 0
M  V30 2514 C 238.806 -0.961934 -4.37551 0
M  V30 2515 C 240.55 0.854155 -4.15818 0
M  V30 2516 C 238.457 -0.757287 -5.86531 0
M  V30 2517 H 237.387 0.0614563 -0.751491 0
M  V30 2518 H 240.038 -0.54649 -1.75173 0
M  V30 2519 H 238.42 1.08903 -3.80731 0
M  V30 2520 H 239.594 -1.7323 -4.26999 0
M  V30 2521 H 237.909 -1.41766 -3.91524 0
M  V30 2522 H 240.506 1.02346 -5.24814 0
M  V30 2523 H 240.849 1.83172 -3.73837 0
M  V30 2524 H 241.382 0.149528 -3.97519 0
M  V30 2525 H 238.121 -1.70671 -6.32892 0
M  V30 2526 H 237.641 -0.0264061 -5.99794 0
M  V30 2527 H 239.32 -0.403482 -6.45741 0
M  V30 2528 N 239.452 1.56882 -0.150215 0
M  V30 2529 C 240.68 2.00593 0.506948 0
M  V30 2530 C 241.095 1.03033 1.58208 0
M  V30 2531 O 240.452 0.0278396 1.82479 0
M  V30 2532 C 240.503 3.44209 1.10465 0
M  V30 2533 O 240.224 4.3804 0.0724636 0
M  V30 2534 C 241.725 4.03214 1.84211 0
M  V30 2535 H 238.945 0.65795 0.13169 0
M  V30 2536 H 241.489 2.03018 -0.245743 0
M  V30 2537 H 239.644 3.42625 1.80795 0
M  V30 2538 H 240.058 5.22007 0.510793 0
M  V30 2539 H 241.532 5.0569 2.21318 0
M  V30 2540 H 242.009 3.44107 2.72923 0
M  V30 2541 H 242.615 4.08437 1.18572 0
M  V30 2542 N 240.93 -0.123565 1.57115 0
M  V30 2543 C 242.207 -0.862196 1.75572 0
M  V30 2544 C 242.587 -1.98279 0.724475 0
M  V30 2545 O 241.935 -2.27102 -0.252407 0
M  V30 2546 C 242.145 -1.38309 3.20424 0
M  V30 2547 C 243.493 -1.83724 3.82793 0
M  V30 2548 O 244.517 -1.47999 3.23998 0
M  V30 2549 O 243.376 -2.49685 4.86127 0
M  V30 2550 H 240.47 -0.409113 0.718718 0
M  V30 2551 H 243.016 -0.107661 1.69358 0
M  V30 2552 H 241.788 -0.578889 3.86994 0
M  V30 2553 H 241.411 -2.20046 3.31158 0
M  V30 2554 N 242.408 -1.52605 -0.393616 0
M  V30 2555 C 243.819 -1.59417 -0.971761 0
M  V30 2556 C 244.17 -0.444173 -1.91106 0
M  V30 2557 O 243.295 0.433382 -2.12016 0
M  V30 2558 C 243.89 -2.88936 -1.76921 0
M  V30 2559 C 242.449 -2.98175 -2.29714 0
M  V30 2560 C 241.596 -2.54491 -1.10135 0
M  V30 2561 H 244.547 -1.57751 -0.173317 0
M  V30 2562 H 244.568 -2.75163 -2.62804 0
M  V30 2563 H 244.08 -3.72616 -1.08532 0
M  V30 2564 H 242.181 -2.19024 -3.01429 0
M  V30 2565 H 242.294 -4.02726 -2.59517 0
M  V30 2566 H 240.658 -2.08702 -1.45999 0
M  V30 2567 H 241.441 -3.4056 -0.432874 0
M  V30 2568 N 243.887 0.651787 -1.4349 0
M  V30 2569 C 244.835 1.78586 -1.49029 0
M  V30 2570 C 245.829 1.65448 -0.363767 0
M  V30 2571 O 247.035 1.71777 -0.537821 0
M  V30 2572 H 243.41 0.589236 -0.467231 0
M  V30 2573 H 245.381 1.71035 -2.44519 0
M  V30 2574 C 244.13 3.16851 -1.43181 0
M  V30 2575 H 243.453 3.27598 -2.29171 0
M  V30 2576 H 244.893 3.96156 -1.51118 0
M  V30 2577 C 243.352 3.36568 -0.149616 0
M  V30 2578 O 243.882 3.93885 0.788509 0
M  V30 2579 N 242.088 2.90539 -0.0593484 0
M  V30 2580 H 241.635 2.4408 -0.823575 0
M  V30 2581 H 241.593 3.04108 0.797853 0
M  V30 2582 N 245.365 1.30045 0.890287 0
M  V30 2583 C 246.313 1.15873 2.01683 0
M  V30 2584 C 247.307 0.0719403 1.69247 0
M  V30 2585 O 248.513 0.232414 1.78493 0
M  V30 2586 H 244.888 0.358203 0.661207 0
M  V30 2587 H 246.859 2.11229 2.10772 0
M  V30 2588 C 245.608 0.861842 3.36849 0
M  V30 2589 H 244.931 1.69016 3.62317 0
M  V30 2590 H 246.371 0.802762 4.16331 0
M  V30 2591 C 244.83 -0.435132 3.34078 0
M  V30 2592 O 245.36 -1.4583 3.74295 0
M  V30 2593 N 243.566 -0.444377 2.87182 0
M  V30 2594 H 243.113 0.388723 2.5465 0
M  V30 2595 H 243.071 -1.31213 2.85711 0
M  V30 2596 N 246.843 -1.10192 1.12674 0
M  V30 2597 C 248.259 -1.34235 0.863317 0
M  V30 2598 C 248.459 -1.95062 -0.505277 0
M  V30 2599 O 247.515 -2.19192 -1.25345 0
M  V30 2600 C 248.828 -2.2616 1.98172 0
M  V30 2601 C 250.376 -2.3969 2.0129 0
M  V30 2602 C 250.851 -3.34946 3.1237 0
M  V30 2603 N 252.342 -3.42515 3.11829 0
M  V30 2604 C 253.077 -4.16199 3.94419 0
M  V30 2605 N 252.573 -4.92747 4.87004 0
M  V30 2606 N 254.366 -4.11843 3.82547 0
M  V30 2607 H 246.517 -0.690798 2.00853 0
M  V30 2608 H 248.78 -0.366774 0.874174 0
M  V30 2609 H 248.486 -1.8868 2.96804 0
M  V30 2610 H 248.36 -3.26488 1.88906 0
M  V30 2611 H 250.747 -2.76438 1.03276 0
M  V30 2612 H 250.828 -1.39169 2.14629 0
M  V30 2613 H 250.472 -2.98923 4.10619 0
M  V30 2614 H 250.402 -4.35353 2.96269 0
M  V30 2615 H 252.893 -2.87926 2.44759 0
M  V30 2616 H 253.206 -5.46376 5.46528 0
M  V30 2617 H 251.551 -4.91862 4.91016 0
M  V30 2618 H 254.742 -3.51136 3.0955 0
M  V30 2619 H 254.915 -4.69007 4.47142 0
M  V30 2620 N 248.321 -0.919034 -1.28029 0
M  V30 2621 C 249.737 -0.617972 -1.4715 0
M  V30 2622 C 249.937 0.835242 -1.83374 0
M  V30 2623 O 248.993 1.61388 -1.94191 0
M  V30 2624 C 250.306 -1.56041 -2.57044 0
M  V30 2625 C 251.854 -1.56769 -2.7091 0
M  V30 2626 C 252.329 -2.49688 -3.83953 0
M  V30 2627 N 253.82 -2.47845 -3.91314 0
M  V30 2628 C 254.555 -3.16437 -4.78179 0
M  V30 2629 N 254.051 -3.94376 -5.69596 0
M  V30 2630 N 255.844 -3.05498 -4.71834 0
M  V30 2631 H 247.995 -1.85866 -1.02798 0
M  V30 2632 H 250.258 -0.797506 -0.512531 0
M  V30 2633 H 249.964 -2.59671 -2.372 0
M  V30 2634 H 249.838 -1.29551 -3.54255 0
M  V30 2635 H 252.225 -0.538745 -2.90141 0
M  V30 2636 H 252.306 -1.87305 -1.74214 0
M  V30 2637 H 251.95 -3.52688 -3.65477 0
M  V30 2638 H 251.88 -2.16453 -4.80058 0
M  V30 2639 H 254.371 -1.91234 -3.25941 0
M  V30 2640 H 254.684 -4.43721 -6.32718 0
M  V30 2641 H 253.029 -3.98481 -5.69419 0
M  V30 2642 H 256.22 -2.44108 -3.99411 0
M  V30 2643 H 256.393 -3.59225 -5.39316 0
M  V30 2644 N 249.799 1.42003 -0.683588 0
M  V30 2645 C 251.029 2.05448 -0.217866 0
M  V30 2646 C 251.437 1.51491 1.13346 0
M  V30 2647 O 250.78 0.653048 1.717 0
M  V30 2648 C 250.842 3.59399 -0.0850118 0
M  V30 2649 C 250.506 4.36093 -1.36645 0
M  V30 2650 C 251.503 4.66169 -2.30179 0
M  V30 2651 C 249.188 4.75578 -1.61649 0
M  V30 2652 C 251.182 5.34676 -3.46988 0
M  V30 2653 C 248.869 5.43824 -2.78745 0
M  V30 2654 C 249.867 5.73299 -3.71238 0
M  V30 2655 O 249.555 6.40142 -4.86285 0
M  V30 2656 H 249.287 0.668344 -0.101454 0
M  V30 2657 H 251.841 1.82974 -0.933248 0
M  V30 2658 H 250.071 3.80566 0.686031 0
M  V30 2659 H 251.76 4.04457 0.341973 0
M  V30 2660 H 252.526 4.36156 -2.12115 0
M  V30 2661 H 248.405 4.52025 -0.905243 0
M  V30 2662 H 251.949 5.57599 -4.19201 0
M  V30 2663 H 247.846 5.73254 -2.96732 0
M  V30 2664 H 248.614 6.58636 -4.85944 0
M  V30 2665 N 251.277 0.427512 1.51691 0
M  V30 2666 C 252.187 -0.39527 2.31246 0
M  V30 2667 C 253.203 -1.03674 1.39742 0
M  V30 2668 O 254.379 -1.03425 1.72816 0
M  V30 2669 C 251.444 -1.48706 3.13189 0
M  V30 2670 C 250.505 -0.866743 4.20459 0
M  V30 2671 C 249.738 -1.90651 4.98486 0
M  V30 2672 O 249.961 -3.12733 4.77026 0
M  V30 2673 O 248.895 -1.5025 5.82845 0
M  V30 2674 H 252.721 0.253918 3.02637 0
M  V30 2675 H 250.306 0.190274 1.48183 0
M  V30 2676 H 252.188 -2.12047 3.64162 0
M  V30 2677 H 250.863 -2.12051 2.44573 0
M  V30 2678 H 249.77 -0.195544 3.73589 0
M  V30 2679 H 251.103 -0.276934 4.9142 0
M  V30 2680 N 252.755 -1.56801 0.158532 0
M  V30 2681 C 254.001 -1.96781 -0.490405 0
M  V30 2682 C 254.334 -1.04397 -1.63753 0
M  V30 2683 O 253.609 -0.0885805 -1.94298 0
M  V30 2684 C 253.892 -3.4635 -0.985594 0
M  V30 2685 C 253.745 -4.49512 0.160824 0
M  V30 2686 C 255.064 -3.98697 -1.86355 0
M  V30 2687 H 252.183 -0.715482 -0.176788 0
M  V30 2688 H 254.825 -1.88451 0.242088 0
M  V30 2689 H 252.975 -3.53579 -1.60978 0
M  V30 2690 H 254.647 -4.54353 0.797537 0
M  V30 2691 H 252.89 -4.26013 0.818256 0
M  V30 2692 H 253.561 -5.51531 -0.227569 0
M  V30 2693 H 256.037 -3.94019 -1.33746 0
M  V30 2694 H 254.913 -5.03792 -2.17909 0
M  V30 2695 H 255.174 -3.41744 -2.8047 0
M  V30 2696 N 254.233 0.115231 -1.57178 0
M  V30 2697 C 255.644 0.67197 -1.74188 0
M  V30 2698 C 255.995 1.80125 -0.777777 0
M  V30 2699 O 255.12 2.16346 0.0484376 0
M  V30 2700 C 255.715 1.22573 -3.1585 0
M  V30 2701 C 254.274 1.72872 -3.34353 0
M  V30 2702 C 253.421 0.629972 -2.70049 0
M  V30 2703 H 256.372 -0.110712 -1.58313 0
M  V30 2704 H 256.393 2.09535 -3.17609 0
M  V30 2705 H 255.905 0.403598 -3.85996 0
M  V30 2706 H 254.006 2.5755 -2.69256 0
M  V30 2707 H 254.119 1.83557 -4.42542 0
M  V30 2708 H 252.483 1.0645 -2.31388 0
M  V30 2709 H 253.266 -0.181241 -3.42821 0
M  V30 2710 N 255.711 1.52812 0.385517 0
M  V30 2711 C 256.661 1.74219 1.47078 0
M  V30 2712 C 257.645 0.59632 1.49442 0
M  V30 2713 O 258.837 0.85428 1.5502 0
M  V30 2714 C 255.966 1.9176 2.84751 0
M  V30 2715 C 255.052 3.12289 2.86943 0
M  V30 2716 N 255.443 4.34575 2.58802 0
M  V30 2717 C 253.741 3.12605 3.1811 0
M  V30 2718 C 254.442 5.162 2.68166 0
M  V30 2719 N 253.418 4.51964 3.02043 0
M  V30 2720 H 257.22 2.6639 1.24152 0
M  V30 2721 H 254.734 1.51166 0.593504 0
M  V30 2722 H 256.731 2.05218 3.62893 0
M  V30 2723 H 255.391 1.00805 3.08656 0
M  V30 2724 H 256.402 4.62649 2.32759 0
M  V30 2725 H 253.079 2.31472 3.47458 0
M  V30 2726 H 254.469 6.23689 2.49923 0
M  V30 2727 N 257.189 -0.644168 1.43834 0
M  V30 2728 C 258.121 -1.76955 1.45669 0
M  V30 2729 C 259.134 -1.58956 0.351666 0
M  V30 2730 O 260.323 -1.6751 0.616644 0
M  V30 2731 C 257.423 -3.14507 1.26248 0
M  V30 2732 C 256.596 -3.59083 2.49757 0
M  V30 2733 C 255.655 -4.75467 2.25427 0
M  V30 2734 O 254.681 -4.84444 2.98836 0
M  V30 2735 N 255.883 -5.66289 1.27661 0
M  V30 2736 H 258.648 -1.75856 2.42682 0
M  V30 2737 H 256.209 -0.828312 1.39106 0
M  V30 2738 H 258.201 -3.90067 1.0784 0
M  V30 2739 H 256.771 -3.10325 0.376478 0
M  V30 2740 H 255.991 -2.7387 2.8353 0
M  V30 2741 H 257.279 -3.85613 3.31934 0
M  V30 2742 H 256.677 -5.61718 0.670064 0
M  V30 2743 H 255.234 -6.41533 1.15234 0
M  V30 2744 N 258.668 -1.30515 -0.883378 0
M  V30 2745 C 259.898 -1.22182 -1.66599 0
M  V30 2746 C 260.306 0.217507 -1.87946 0
M  V30 2747 O 259.649 1.1554 -1.42815 0
M  V30 2748 C 259.711 -1.88146 -3.06335 0
M  V30 2749 C 259.375 -3.37476 -3.08154 0
M  V30 2750 C 260.372 -4.33443 -2.87094 0
M  V30 2751 C 258.057 -3.7895 -3.29701 0
M  V30 2752 C 260.051 -5.68858 -2.8754 0
M  V30 2753 C 257.738 -5.14482 -3.29776 0
M  V30 2754 C 258.736 -6.09246 -3.0872 0
M  V30 2755 O 258.424 -7.42302 -3.08615 0
M  V30 2756 H 258.156 -0.423898 -0.52658 0
M  V30 2757 H 260.71 -1.72703 -1.11188 0
M  V30 2758 H 258.94 -1.32157 -3.63416 0
M  V30 2759 H 260.629 -1.7391 -3.66756 0
M  V30 2760 H 261.395 -4.02733 -2.70243 0
M  V30 2761 H 257.274 -3.05631 -3.45124 0
M  V30 2762 H 260.818 -6.428 -2.71024 0
M  V30 2763 H 256.715 -5.44832 -3.46163 0
M  V30 2764 H 257.483 -7.5131 -3.24769 0
M  V30 2765 N 260.146 1.09593 -1.13257 0
M  V30 2766 C 261.392 1.82003 -0.89458 0
M  V30 2767 C 261.725 1.85402 0.577906 0
M  V30 2768 O 261 1.32099 1.42759 0
M  V30 2769 C 261.283 3.28237 -1.48096 0
M  V30 2770 C 261.136 3.3312 -3.02244 0
M  V30 2771 C 262.455 4.24871 -1.14774 0
M  V30 2772 H 259.574 0.66077 -0.326424 0
M  V30 2773 H 262.216 1.28389 -1.40058 0
M  V30 2774 H 260.366 3.74024 -1.05062 0
M  V30 2775 H 262.038 2.95748 -3.54021 0
M  V30 2776 H 260.281 2.72756 -3.37323 0
M  V30 2777 H 260.952 4.3613 -3.38371 0
M  V30 2778 H 263.428 3.87361 -1.51957 0
M  V30 2779 H 262.304 5.25532 -1.58452 0
M  V30 2780 H 262.565 4.42058 -0.0611849 0
M  V30 2781 N 261.624 0.925811 1.2754 0
M  V30 2782 C 262.571 0.422045 2.26908 0
M  V30 2783 C 263.541 -0.510029 1.58076 0
M  V30 2784 O 264.726 -0.429599 1.85901 0
M  V30 2785 C 261.866 -0.320837 3.43605 0
M  V30 2786 C 260.979 0.64513 4.27156 0
M  V30 2787 C 260.114 -0.117405 5.3107 0
M  V30 2788 C 259.153 0.841391 6.0629 0
M  V30 2789 N 258.29 0.111604 7.02011 0
M  V30 2790 H 263.13 1.27441 2.69375 0
M  V30 2791 H 260.667 0.639697 1.32462 0
M  V30 2792 H 262.625 -0.76785 4.10073 0
M  V30 2793 H 261.255 -1.13745 3.02096 0
M  V30 2794 H 260.307 1.21067 3.6062 0
M  V30 2795 H 261.619 1.37797 4.79389 0
M  V30 2796 H 260.773 -0.624422 6.03478 0
M  V30 2797 H 259.512 -0.883219 4.79636 0
M  V30 2798 H 258.517 1.35967 5.32722 0
M  V30 2799 H 259.742 1.60696 6.59813 0
M  V30 2800 H 257.688 -0.635999 6.5291 0
M  V30 2801 H 257.605 0.784044 7.51923 0
M  V30 2802 H 258.873 -0.374823 7.78598 0
M  V30 2803 N 263.102 -1.41638 0.69111 0
M  V30 2804 C 264.012 -2.34588 0.0233487 0
M  V30 2805 C 265.028 -1.55987 -0.770984 0
M  V30 2806 O 266.204 -1.88486 -0.709569 0
M  V30 2807 C 263.269 -3.34684 -0.904851 0
M  V30 2808 C 262.33 -4.29176 -0.103225 0
M  V30 2809 C 261.563 -5.2449 -0.987216 0
M  V30 2810 O 261.786 -5.2514 -2.22674 0
M  V30 2811 O 260.72 -6.00295 -0.439281 0
M  V30 2812 H 264.546 -2.93261 0.789416 0
M  V30 2813 H 262.131 -1.42417 0.45142 0
M  V30 2814 H 264.013 -3.96133 -1.43724 0
M  V30 2815 H 262.688 -2.78461 -1.65049 0
M  V30 2816 H 261.595 -3.71089 0.473655 0
M  V30 2817 H 262.928 -4.88484 0.60365 0
M  V30 2818 N 264.58 -0.43555 -1.51462 0
M  V30 2819 C 265.827 0.131514 -2.02072 0
M  V30 2820 C 266.155 1.42868 -1.31981 0
M  V30 2821 O 265.41 1.91076 -0.422883 0
M  V30 2822 C 265.709 0.39942 -3.55161 0
M  V30 2823 C 265.375 -0.81172 -4.43533 0
M  V30 2824 C 264.037 -1.14387 -4.67407 0
M  V30 2825 C 266.389 -1.61976 -4.95392 0
M  V30 2826 C 263.717 -2.28477 -5.40384 0
M  V30 2827 C 266.069 -2.75164 -5.6962 0
M  V30 2828 C 264.733 -3.08835 -5.91758 0
M  V30 2829 H 264.003 0.0481244 -0.739436 0
M  V30 2830 H 266.65 -0.58238 -1.8243 0
M  V30 2831 H 264.955 1.19519 -3.73125 0
M  V30 2832 H 266.652 0.85157 -3.91854 0
M  V30 2833 H 263.242 -0.542898 -4.25148 0
M  V30 2834 H 267.426 -1.37637 -4.76833 0
M  V30 2835 H 262.682 -2.5488 -5.55739 0
M  V30 2836 H 266.856 -3.38147 -6.08793 0
M  V30 2837 H 264.483 -3.97353 -6.48086 0
M  V30 2838 N 266.058 1.56714 -0.166846 0
M  V30 2839 C 267.286 2.0112 0.485644 0
M  V30 2840 C 267.701 1.04705 1.57106 0
M  V30 2841 O 267.058 0.0471923 1.82439 0
M  V30 2842 C 267.109 3.45361 1.06808 0
M  V30 2843 O 266.83 4.38092 0.0259995 0
M  V30 2844 C 268.331 4.05145 1.79924 0
M  V30 2845 H 265.551 0.65931 0.124704 0
M  V30 2846 H 268.095 2.02746 -0.267262 0
M  V30 2847 H 266.25 3.44524 1.7715 0
M  V30 2848 H 266.664 5.22519 0.455398 0
M  V30 2849 H 268.138 5.08009 2.15942 0
M  V30 2850 H 268.615 3.46982 2.69258 0
M  V30 2851 H 269.221 4.09672 1.14234 0
M  V30 2852 N 267.536 -0.106894 1.57237 0
M  V30 2853 C 268.784 -0.810921 1.85117 0
M  V30 2854 C 269.105 -1.7984 0.753827 0
M  V30 2855 O 268.375 -1.94649 -0.221056 0
M  V30 2856 H 266.955 -0.302466 0.683025 0
M  V30 2857 H 269.617 -0.0913324 1.94686 0
M  V30 2858 H 268.713 -1.34875 2.81452 0
M  V30 2859 N 269.014 -1.53014 -0.377408 0
M  V30 2860 C 270.425 -1.60438 -0.954798 0
M  V30 2861 C 270.776 -0.464418 -1.90624 0
M  V30 2862 O 269.901 0.41087 -2.12464 0
M  V30 2863 C 270.496 -2.90797 -1.73847 0
M  V30 2864 C 269.055 -3.00595 -2.26538 0
M  V30 2865 C 268.202 -2.55645 -1.07429 0
M  V30 2866 H 271.153 -1.57926 -0.156575 0
M  V30 2867 H 271.174 -2.77935 -2.5987 0
M  V30 2868 H 270.686 -3.73746 -1.04574 0
M  V30 2869 H 268.787 -2.22208 -2.99089 0
M  V30 2870 H 268.9 -4.05456 -2.5523 0
M  V30 2871 H 267.264 -2.10239 -1.43777 0
M  V30 2872 H 268.047 -3.41 -0.396728 0
M  V30 2873 N 270.492 0.636531 -1.44174 0
M  V30 2874 C 271.72 1.42353 -1.50144 0
M  V30 2875 C 272.135 1.88389 -0.124575 0
M  V30 2876 O 271.492 1.6051 0.868489 0
M  V30 2877 C 271.543 2.64744 -2.46156 0
M  V30 2878 O 271.264 2.20629 -3.7849 0
M  V30 2879 C 272.765 3.57929 -2.61537 0
M  V30 2880 H 269.985 0.436752 -0.5094 0
M  V30 2881 H 272.529 0.778933 -1.89084 0
M  V30 2882 H 270.684 3.25307 -2.10366 0
M  V30 2883 H 271.098 2.99938 -4.30276 0
M  V30 2884 H 272.572 4.40428 -3.32757 0
M  V30 2885 H 273.049 4.06382 -1.66585 0
M  V30 2886 H 273.655 3.03238 -2.98206 0
M  V30 2887 N 271.97 1.30982 0.876444 0
M  V30 2888 C 273.216 1.20474 1.63138 0
M  V30 2889 C 273.549 -0.238096 1.92735 0
M  V30 2890 O 272.824 -1.1692 1.55435 0
M  V30 2891 C 273.107 2.04244 2.96574 0
M  V30 2892 C 272.96 3.56793 2.73896 0
M  V30 2893 C 274.279 1.88684 3.97601 0
M  V30 2894 H 271.398 0.439001 0.591985 0
M  V30 2895 H 274.04 1.60704 1.01361 0
M  V30 2896 H 272.19 1.70063 3.493 0
M  V30 2897 H 273.862 4.01077 2.27892 0
M  V30 2898 H 272.105 3.80548 2.08245 0
M  V30 2899 H 272.776 4.10706 3.68815 0
M  V30 2900 H 275.252 2.18584 3.54062 0
M  V30 2901 H 274.128 2.4961 4.88862 0
M  V30 2902 H 274.389 0.848343 4.33884 0
M  V30 2903 N 273.449 -1.08991 1.13837 0
M  V30 2904 C 274.674 -1.85551 0.926585 0
M  V30 2905 C 275.099 -1.80782 -0.519566 0
M  V30 2906 O 274.457 -1.18855 -1.36906 0
M  V30 2907 C 274.505 -3.31266 1.42462 0
M  V30 2908 O 273.609 -4.07822 0.612789 0
M  V30 2909 H 272.95 -0.575192 0.331738 0
M  V30 2910 H 275.48 -1.37604 1.51414 0
M  V30 2911 H 275.49 -3.82112 1.43019 0
M  V30 2912 H 274.165 -3.34052 2.47754 0
M  V30 2913 H 272.742 -3.66731 0.675463 0
M  V30 2914 N 274.927 -0.932562 -1.27047 0
M  V30 2915 C 276.204 -0.49377 -1.89265 0
M  V30 2916 C 276.584 1.02833 -1.8436 0
M  V30 2917 O 275.932 1.88461 -1.29209 0
M  V30 2918 C 276.142 -1.04536 -3.32976 0
M  V30 2919 C 277.49 -1.10879 -4.09867 0
M  V30 2920 O 278.514 -0.995327 -3.42011 0
M  V30 2921 O 277.373 -1.28417 -5.31198 0
M  V30 2922 H 274.467 -0.159596 -0.811454 0
M  V30 2923 H 277.013 -1.02457 -1.3528 0
M  V30 2924 H 275.785 -2.08913 -3.30864 0
M  V30 2925 H 275.408 -0.496494 -3.94488 0
M  V30 2926 N 276.405 1.4127 -0.698611 0
M  V30 2927 C 277.633 2.05503 -0.239992 0
M  V30 2928 C 278.048 1.52584 1.11191 0
M  V30 2929 O 277.405 0.675323 1.69545 0
M  V30 2930 C 277.456 3.60987 -0.192429 0
M  V30 2931 O 277.177 4.1195 -1.49094 0
M  V30 2932 C 278.678 4.42371 0.28681 0
M  V30 2933 H 275.898 0.661748 -0.111045 0
M  V30 2934 H 278.442 1.80987 -0.95205 0
M  V30 2935 H 276.597 3.84533 0.470472 0
M  V30 2936 H 277.011 5.06018 -1.38007 0
M  V30 2937 H 278.485 5.51344 0.26896 0
M  V30 2938 H 278.962 4.18699 1.32619 0
M  V30 2939 H 279.568 4.23897 -0.345201 0
M  V30 2940 N 277.883 0.443576 1.51229 0
M  V30 2941 C 278.813 -0.355142 2.30783 0
M  V30 2942 C 279.794 -1.0154 1.36468 0
M  V30 2943 O 280.979 -1.01785 1.65389 0
M  V30 2944 C 278.109 -1.45312 3.15439 0
M  V30 2945 C 277.063 -0.916002 4.18083 0
M  V30 2946 C 276.389 -2.1102 4.91299 0
M  V30 2947 C 277.689 0.0538602 5.22272 0
M  V30 2948 H 279.383 0.308767 2.97804 0
M  V30 2949 H 276.929 0.149937 1.43217 0
M  V30 2950 H 278.882 -2.01914 3.69876 0
M  V30 2951 H 277.606 -2.14541 2.46252 0
M  V30 2952 H 276.265 -0.372145 3.64706 0
M  V30 2953 H 275.913 -2.78882 4.18609 0
M  V30 2954 H 275.613 -1.75717 5.60712 0
M  V30 2955 H 277.137 -2.68164 5.48562 0
M  V30 2956 H 278.551 -0.422069 5.71744 0
M  V30 2957 H 276.948 0.319776 5.99247 0
M  V30 2958 H 278.018 0.98858 4.74716 0
M  V30 2959 N 279.361 -1.56624 0.175154 0
M  V30 2960 C 280.591 -2.01082 -0.474283 0
M  V30 2961 C 280.999 -1.05447 -1.57091 0
M  V30 2962 O 280.342 -0.0480595 -1.83637 0
M  V30 2963 C 280.404 -3.41963 -1.10911 0
M  V30 2964 C 280.068 -4.56742 -0.153666 0
M  V30 2965 C 281.065 -5.16076 0.629448 0
M  V30 2966 C 278.75 -5.02277 -0.0483776 0
M  V30 2967 C 280.744 -6.19377 1.50501 0
M  V30 2968 C 278.431 -6.05427 0.830768 0
M  V30 2969 C 279.429 -6.63849 1.60605 0
M  V30 2970 O 279.117 -7.64998 2.47049 0
M  V30 2971 H 278.849 -0.664261 -0.125432 0
M  V30 2972 H 281.403 -2.03549 0.275163 0
M  V30 2973 H 279.633 -3.36422 -1.90676 0
M  V30 2974 H 281.322 -3.70352 -1.66114 0
M  V30 2975 H 282.088 -4.81776 0.558297 0
M  V30 2976 H 277.967 -4.56513 -0.641611 0
M  V30 2977 H 281.511 -6.64906 2.1106 0
M  V30 2978 H 277.408 -6.39151 0.903107 0
M  V30 2979 H 278.176 -7.82336 2.40607 0
M  V30 2980 N 280.839 0.0985539 -1.57292 0
M  V30 2981 C 282.116 0.834155 -1.76921 0
M  V30 2982 C 282.496 1.97101 -0.755928 0
M  V30 2983 O 281.844 2.27474 0.216245 0
M  V30 2984 C 282.054 1.33194 -3.22584 0
M  V30 2985 C 283.402 1.77611 -3.85668 0
M  V30 2986 O 284.426 1.42825 -3.26312 0
M  V30 2987 O 283.285 2.4192 -4.90038 0
M  V30 2988 H 280.379 0.397628 -0.725135 0
M  V30 2989 H 282.925 0.0807044 -1.69508 0
M  V30 2990 H 281.697 0.517248 -3.87866 0
M  V30 2991 H 281.32 2.1475 -3.34616 0
M  V30 2992 N 282.317 1.53212 0.369288 0
M  V30 2993 C 283.563 1.69466 1.11397 0
M  V30 2994 C 283.896 0.443257 1.89074 0
M  V30 2995 O 283.171 -0.559386 1.86282 0
M  V30 2996 C 283.454 2.9422 2.07621 0
M  V30 2997 C 283.307 4.29508 1.33577 0
M  V30 2998 C 284.626 3.14565 3.07794 0
M  V30 2999 H 281.745 0.616667 0.403597 0
M  V30 3000 H 284.387 1.85845 0.395179 0
M  V30 3001 H 282.537 2.80387 2.68916 0
M  V30 3002 H 284.209 4.55147 0.750955 0
M  V30 3003 H 282.452 4.29088 0.637618 0
M  V30 3004 H 283.123 5.12926 2.03989 0
M  V30 3005 H 285.599 3.2756 2.56601 0
M  V30 3006 H 284.475 4.03297 3.72348 0
M  V30 3007 H 284.736 2.29675 3.77759 0
M  V30 3008 N 283.795 -0.628877 1.44509 0
M  V30 3009 C 284.742 -1.74074 1.51549 0
M  V30 3010 C 285.712 -1.62084 0.363021 0
M  V30 3011 O 286.897 -1.81975 0.573567 0
M  V30 3012 C 284.037 -3.12328 1.46784 0
M  V30 3013 C 283.15 -3.35277 2.72422 0
M  V30 3014 C 282.285 -4.63515 2.59475 0
M  V30 3015 C 281.324 -4.7965 3.80266 0
M  V30 3016 N 280.461 -5.99168 3.65981 0
M  V30 3017 H 285.301 -1.67392 2.46544 0
M  V30 3018 H 282.838 -0.816527 1.22357 0
M  V30 3019 H 284.796 -3.92286 1.42012 0
M  V30 3020 H 283.426 -3.18018 0.553544 0
M  V30 3021 H 282.478 -2.49242 2.87372 0
M  V30 3022 H 283.79 -3.43078 3.62076 0
M  V30 3023 H 282.944 -5.51638 2.52548 0
M  V30 3024 H 281.683 -4.58076 1.67384 0
M  V30 3025 H 280.688 -3.89957 3.87574 0
M  V30 3026 H 281.913 -4.86902 4.73395 0
M  V30 3027 H 279.859 -5.94814 2.76644 0
M  V30 3028 H 279.776 -6.08035 4.49254 0
M  V30 3029 H 281.044 -6.89846 3.6295 0
M  V30 3030 N 285.273 -1.31445 -0.869486 0
M  V30 3031 C 286.519 -1.21337 -1.62496 0
M  V30 3032 C 286.852 0.227872 -1.92858 0
M  V30 3033 O 286.127 1.16094 -1.56053 0
M  V30 3034 C 286.41 -2.05814 -2.95487 0
M  V30 3035 C 286.263 -3.5824 -2.72 0
M  V30 3036 C 287.582 -1.9079 -3.96594 0
M  V30 3037 H 284.701 -0.442135 -0.589649 0
M  V30 3038 H 287.343 -1.6124 -1.00507 0
M  V30 3039 H 285.493 -1.71913 -3.48394 0
M  V30 3040 H 287.165 -4.0228 -2.25762 0
M  V30 3041 H 285.408 -3.81647 -2.06224 0
M  V30 3042 H 286.079 -4.12657 -3.66631 0
M  V30 3043 H 288.555 -2.20459 -3.52898 0
M  V30 3044 H 287.431 -2.52199 -4.87531 0
M  V30 3045 H 287.692 -0.871341 -4.33428 0
M  V30 3046 N 286.751 1.08385 -1.14413 0
M  V30 3047 C 287.714 2.13486 -0.834048 0
M  V30 3048 C 288.714 1.59988 0.161418 0
M  V30 3049 O 289.904 1.74071 -0.0669575 0
M  V30 3050 C 287.036 3.4003 -0.243354 0
M  V30 3051 H 288.229 2.42425 -1.7655 0
M  V30 3052 H 285.782 1.24101 -0.950189 0
M  V30 3053 H 286.517 3.16726 0.696807 0
M  V30 3054 H 286.302 3.80157 -0.960367 0
M  V30 3055 H 287.792 4.17577 -0.0436242 0
M  V30 3056 N 288.23 0.939286 1.26551 0
M  V30 3057 C 289.162 0.404704 2.25599 0
M  V30 3058 C 290.175 -0.470983 1.55838 0
M  V30 3059 O 291.364 -0.281734 1.76263 0
M  V30 3060 C 288.464 -0.43764 3.36062 0
M  V30 3061 C 287.637 0.421449 4.35365 0
M  V30 3062 C 286.696 -0.36015 5.24966 0
M  V30 3063 O 285.722 0.236167 5.6871 0
M  V30 3064 N 286.924 -1.65715 5.56344 0
M  V30 3065 H 289.689 1.25618 2.72103 0
M  V30 3066 H 287.25 0.807963 1.40298 0
M  V30 3067 H 289.242 -0.967866 3.92956 0
M  V30 3068 H 287.812 -1.18991 2.89067 0
M  V30 3069 H 287.032 1.1329 3.7757 0
M  V30 3070 H 288.32 1.00835 4.98708 0
M  V30 3071 H 287.718 -2.16378 5.22682 0
M  V30 3072 H 286.275 -2.13366 6.15888 0
M  V30 3073 N 289.708 -1.40897 0.706093 0
M  V30 3074 C 290.656 -2.32572 0.0361893 0
M  V30 3075 C 291.65 -1.51532 -0.757266 0
M  V30 3076 O 292.856 -1.67396 -0.661703 0
M  V30 3077 H 289.231 -0.751966 -0.00709935 0
M  V30 3078 H 291.202 -2.86733 0.826249 0
M  V30 3079 C 289.951 -3.36418 -0.87854 0
M  V30 3080 H 289.274 -3.98836 -0.277401 0
M  V30 3081 H 290.714 -4.0308 -1.3154 0
M  V30 3082 C 289.173 -2.71141 -1.99961 0
M  V30 3083 O 289.703 -2.56735 -3.0895 0
M  V30 3084 N 287.909 -2.29671 -1.78043 0
M  V30 3085 H 287.456 -2.41588 -0.894042 0
M  V30 3086 H 287.414 -1.86332 -2.53235 0
M  V30 3087 N 291.186 -0.45159 -1.50991 0
M  V30 3088 C 292.597 0.00818571 -1.86698 0
M  V30 3089 C 292.948 1.40661 -1.3678 0
M  V30 3090 O 292.073 2.0391 -0.724546 0
M  V30 3091 C 292.668 0.0216303 -3.38793 0
M  V30 3092 C 291.227 0.425865 -3.73983 0
M  V30 3093 C 290.374 -0.372163 -2.74791 0
M  V30 3094 H 293.325 -0.666785 -1.44013 0
M  V30 3095 H 293.346 0.828078 -3.7138 0
M  V30 3096 H 292.858 -0.996288 -3.75094 0
M  V30 3097 H 290.959 1.44886 -3.43277 0
M  V30 3098 H 291.072 0.140761 -4.78893 0
M  V30 3099 H 289.436 0.171498 -2.54122 0
M  V30 3100 H 290.219 -1.38922 -3.13935 0
M  V30 3101 N 292.664 1.56529 -0.183458 0
M  V30 3102 C 293.911 1.97244 0.458357 0
M  V30 3103 C 294.239 1.06992 1.62428 0
M  V30 3104 O 293.494 0.106542 1.9541 0
M  V30 3105 C 293.793 3.43939 0.971637 0
M  V30 3106 C 293.459 4.5083 -0.0796784 0
M  V30 3107 C 292.121 4.79786 -0.368584 0
M  V30 3108 C 294.473 5.15138 -0.792638 0
M  V30 3109 C 291.801 5.70345 -1.37563 0
M  V30 3110 C 294.153 6.06784 -1.78875 0
M  V30 3111 C 292.817 6.34102 -2.08497 0
M  V30 3112 H 292.087 0.721768 0.167725 0
M  V30 3113 H 294.734 1.89472 -0.277976 0
M  V30 3114 H 293.039 3.48724 1.78602 0
M  V30 3115 H 294.736 3.72791 1.47744 0
M  V30 3116 H 291.326 4.28317 0.155668 0
M  V30 3117 H 295.51 4.92868 -0.582659 0
M  V30 3118 H 290.766 5.89789 -1.61118 0
M  V30 3119 H 294.94 6.55677 -2.3465 0
M  V30 3120 H 292.567 7.04074 -2.86678 0
M  V30 3121 N 294.142 -0.090211 1.57342 0
M  V30 3122 C 295.367 -0.810082 1.90925 0
M  V30 3123 C 295.792 -1.71248 0.778187 0
M  V30 3124 O 295.15 -1.79278 -0.269991 0
M  V30 3125 C 295.198 -1.59529 3.23393 0
M  V30 3126 O 294.302 -2.70461 3.11327 0
M  V30 3127 H 293.643 -0.222231 0.625707 0
M  V30 3128 H 296.173 -0.0639716 2.045 0
M  V30 3129 H 296.183 -1.97847 3.5682 0
M  V30 3130 H 294.858 -0.933055 4.05299 0
M  V30 3131 H 293.435 -2.35135 2.89423 0
M  V30 3132 N 295.62 -1.53406 -0.361157 0
M  V30 3133 C 296.869 -1.69022 -1.10066 0
M  V30 3134 C 297.182 -0.450838 -1.90333 0
M  V30 3135 O 298.388 -0.487617 -2.67085 0
M  V30 3136 C 296.844 -2.98812 -2.00598 0
M  V30 3137 C 296.452 -4.30027 -1.25621 0
M  V30 3138 C 298.196 -3.23795 -2.74513 0
M  V30 3139 C 296.103 -5.50903 -2.1508 0
M  V30 3140 H 295.033 -0.629776 -0.414606 0
M  V30 3141 H 297.684 -1.79907 -0.361348 0
M  V30 3142 H 296.066 -2.8174 -2.78278 0
M  V30 3143 H 297.24 -4.57745 -0.529739 0
M  V30 3144 H 295.555 -4.11522 -0.635496 0
M  V30 3145 H 298.152 -4.11289 -3.41681 0
M  V30 3146 H 298.495 -2.40045 -3.40123 0
M  V30 3147 H 299.028 -3.41561 -2.03914 0
M  V30 3148 H 295.767 -6.37143 -1.54041 0
M  V30 3149 H 295.287 -5.27459 -2.85565 0
M  V30 3150 H 296.966 -5.85865 -2.74538 0
M  V30 3151 N 297.098 0.621204 -1.44841 0
M  V30 3152 C 298.03 1.74615 -1.48466 0
M  V30 3153 C 299.043 1.58377 -0.37691 0
M  V30 3154 O 300.232 1.66508 -0.643215 0
M  V30 3155 C 297.332 3.12459 -1.31236 0
M  V30 3156 C 296.505 3.55064 -2.55438 0
M  V30 3157 C 295.564 4.71821 -2.32963 0
M  V30 3158 O 294.59 4.79628 -3.06505 0
M  V30 3159 N 295.792 5.64186 -1.36654 0
M  V30 3160 H 298.557 1.71973 -2.45449 0
M  V30 3161 H 296.118 0.806077 -1.40407 0
M  V30 3162 H 298.11 3.88302 -1.14032 0
M  V30 3163 H 296.68 3.09686 -0.4258 0
M  V30 3164 H 295.9 2.69324 -2.87851 0
M  V30 3165 H 297.188 3.80284 -3.38026 0
M  V30 3166 H 296.586 5.6058 -0.759344 0
M  V30 3167 H 295.143 6.39618 -1.25425 0
M  V30 3168 N 298.576 1.31904 0.862503 0
M  V30 3169 C 299.822 1.22197 1.61851 0
M  V30 3170 C 300.155 -0.217641 1.92977 0
M  V30 3171 O 299.43 -1.15264 1.56666 0
M  V30 3172 C 299.713 2.07378 2.94391 0
M  V30 3173 C 299.566 3.59678 2.70096 0
M  V30 3174 C 300.885 1.92891 3.95577 0
M  V30 3175 H 298.004 0.445255 0.587296 0
M  V30 3176 H 300.646 1.6177 0.99651 0
M  V30 3177 H 298.796 1.73758 3.47477 0
M  V30 3178 H 300.468 4.03472 2.23625 0
M  V30 3179 H 298.711 3.82735 2.04197 0
M  V30 3180 H 299.382 4.14595 3.64438 0
M  V30 3181 H 301.858 2.22327 3.51724 0
M  V30 3182 H 300.734 2.54781 4.86187 0
M  V30 3183 H 300.995 0.894315 4.3296 0
M  V30 3184 N 300.054 -1.07777 1.14986 0
M  V30 3185 C 301.303 -1.79669 0.916617 0
M  V30 3186 C 301.616 -1.87474 -0.557917 0
M  V30 3187 O 302.822 -2.55845 -0.908617 0
M  V30 3188 C 301.278 -3.22848 1.59051 0
M  V30 3189 C 300.886 -3.23257 3.10176 0
M  V30 3190 C 302.63 -3.99379 1.43864 0
M  V30 3191 C 300.537 -4.61063 3.70372 0
M  V30 3192 H 299.467 -0.673349 0.33929 0
M  V30 3193 H 302.118 -1.21003 1.37951 0
M  V30 3194 H 300.5 -3.8168 1.0553 0
M  V30 3195 H 301.674 -2.74095 3.70417 0
M  V30 3196 H 299.989 -2.60222 3.25074 0
M  V30 3197 H 302.586 -5.0122 1.86232 0
M  V30 3198 H 302.929 -4.14511 0.385564 0
M  V30 3199 H 303.462 -3.47032 1.94457 0
M  V30 3200 H 300.201 -4.51135 4.7556 0
M  V30 3201 H 299.721 -5.1048 3.14913 0
M  V30 3202 H 301.4 -5.30034 3.71043 0
M  V30 3203 N 301.532 -0.945985 -1.26051 0
M  V30 3204 C 302.948 -0.649045 -1.45807 0
M  V30 3205 C 303.148 0.796158 -1.85104 0
M  V30 3206 O 302.204 1.57233 -1.97571 0
M  V30 3207 C 303.517 -1.61458 -2.53677 0
M  V30 3208 C 305.065 -1.62481 -2.67524 0
M  V30 3209 C 305.54 -2.57776 -3.7857 0
M  V30 3210 N 307.031 -2.5609 -3.85969 0
M  V30 3211 C 307.766 -3.26508 -4.7136 0
M  V30 3212 N 307.262 -4.0637 -5.61102 0
M  V30 3213 N 309.055 -3.15437 -4.65248 0
M  V30 3214 H 301.206 -1.88005 -0.988328 0
M  V30 3215 H 303.469 -0.808198 -0.4955 0
M  V30 3216 H 303.175 -2.64644 -2.31638 0
M  V30 3217 H 303.049 -1.37036 -3.51427 0
M  V30 3218 H 305.436 -0.600167 -2.88933 0
M  V30 3219 H 305.517 -1.90958 -1.70202 0
M  V30 3220 H 305.161 -3.60361 -3.57913 0
M  V30 3221 H 305.091 -2.26587 -4.75359 0
M  V30 3222 H 307.582 -1.98105 -3.21812 0
M  V30 3223 H 307.895 -4.57042 -6.23164 0
M  V30 3224 H 306.24 -4.10469 -5.60839 0
M  V30 3225 H 309.431 -2.52525 -3.94143 0
M  V30 3226 H 309.604 -3.70584 -5.31575 0
M  V30 3227 N 303.011 1.40521 -0.713556 0
M  V30 3228 C 303.958 2.30723 -0.059684 0
M  V30 3229 C 304.928 1.48079 0.752448 0
M  V30 3230 O 306.113 1.76823 0.71681 0
M  V30 3231 C 303.253 3.34274 0.857594 0
M  V30 3232 C 302.366 4.31986 0.0351536 0
M  V30 3233 C 301.501 5.22605 0.951724 0
M  V30 3234 C 300.54 6.11976 0.123253 0
M  V30 3235 N 299.677 6.9502 0.99459 0
M  V30 3236 H 304.517 2.86074 -0.834596 0
M  V30 3237 H 302.054 1.40879 -0.42326 0
M  V30 3238 H 304.012 3.92879 1.40364 0
M  V30 3239 H 302.642 2.8043 1.59871 0
M  V30 3240 H 301.694 3.7518 -0.628052 0
M  V30 3241 H 303.006 4.95101 -0.606347 0
M  V30 3242 H 302.16 5.86131 1.56638 0
M  V30 3243 H 300.899 4.59759 1.62705 0
M  V30 3244 H 299.904 5.47482 -0.50435 0
M  V30 3245 H 301.129 6.76881 -0.548539 0
M  V30 3246 H 299.075 6.34764 1.6556 0
M  V30 3247 H 298.992 7.54892 0.40908 0
M  V30 3248 H 300.26 7.62997 1.59549 0
M  V30 3249 N 304.489 0.459591 1.5075 0
M  V30 3250 C 305.714 -0.0996819 2.0716 0
M  V30 3251 C 306.139 -1.33761 1.32249 0
M  V30 3252 O 305.497 -1.77551 0.366786 0
M  V30 3253 C 305.545 -0.378226 3.58611 0
M  V30 3254 O 304.649 -1.46081 3.85661 0
M  V30 3255 H 303.99 0.00791392 0.663953 0
M  V30 3256 H 306.52 0.647329 1.9409 0
M  V30 3257 H 306.53 -0.622135 4.03229 0
M  V30 3258 H 305.205 0.526439 4.12555 0
M  V30 3259 H 303.782 -1.20511 3.5289 0
M  V30 3260 N 305.967 -1.56429 0.191757 0
M  V30 3261 C 306.915 -2.20273 -0.747174 0
M  V30 3262 C 307.909 -1.17288 -1.22229 0
M  V30 3263 O 309.115 -1.35441 -1.18557 0
M  V30 3264 H 305.49 -0.705885 -0.259289 0
M  V30 3265 H 307.461 -2.97826 -0.184963 0
M  V30 3266 C 306.21 -2.87356 -1.95759 0
M  V30 3267 H 305.533 -3.66341 -1.60106 0
M  V30 3268 H 306.973 -3.3547 -2.59299 0
M  V30 3269 C 305.432 -1.88213 -2.79423 0
M  V30 3270 O 305.962 -1.38033 -3.7724 0
M  V30 3271 N 304.168 -1.56516 -2.44849 0
M  V30 3272 H 303.715 -1.97516 -1.65364 0
M  V30 3273 H 303.673 -0.904369 -3.01112 0
M  V30 3274 N 307.445 0.0818655 -1.57387 0
M  V30 3275 C 308.693 0.781368 -1.86384 0
M  V30 3276 C 309.014 1.78618 -0.782342 0
M  V30 3277 O 308.284 1.94976 0.190061 0
M  V30 3278 H 306.864 0.291562 -0.687751 0
M  V30 3279 H 309.526 0.060348 -1.94807 0
M  V30 3280 H 308.622 1.3038 -2.83562 0
M  V30 3281 N 308.923 1.53595 0.353017 0
M  V30 3282 C 309.87 1.80919 1.43308 0
M  V30 3283 C 310.84 0.654288 1.5267 0
M  V30 3284 O 312.025 0.897759 1.6836 0
M  V30 3285 C 309.165 2.01605 2.80089 0
M  V30 3286 C 308.278 3.29321 2.79593 0
M  V30 3287 C 307.413 3.40125 4.0803 0
M  V30 3288 C 306.452 4.61826 4.01725 0
M  V30 3289 N 305.589 4.69716 5.21834 0
M  V30 3290 H 310.429 2.73074 1.19308 0
M  V30 3291 H 307.966 1.35263 0.578131 0
M  V30 3292 H 309.924 2.11586 3.59565 0
M  V30 3293 H 308.554 1.12772 3.0246 0
M  V30 3294 H 307.606 3.28229 1.92276 0
M  V30 3295 H 308.918 4.18884 2.70809 0
M  V30 3296 H 308.072 3.49488 4.95927 0
M  V30 3297 H 306.811 2.48601 4.19582 0
M  V30 3298 H 305.816 4.52552 3.12213 0
M  V30 3299 H 307.041 5.54705 3.91764 0
M  V30 3300 H 304.987 3.81097 5.33948 0
M  V30 3301 H 304.904 5.53202 5.1527 0
M  V30 3302 H 306.172 4.83376 6.11529 0
M  V30 3303 N 310.401 -0.613514 1.45168 0
M  V30 3304 C 311.629 -1.39946 1.5239 0
M  V30 3305 C 312.044 -1.88167 0.154531 0
M  V30 3306 O 311.401 -1.61872 -0.842843 0
M  V30 3307 C 311.452 -2.60795 2.50337 0
M  V30 3308 O 311.173 -2.1458 3.81952 0
M  V30 3309 C 312.674 -3.53723 2.67198 0
M  V30 3310 H 309.894 -0.428593 0.516284 0
M  V30 3311 H 312.438 -0.748753 1.903 0
M  V30 3312 H 310.593 -3.21919 2.15515 0
M  V30 3313 H 311.007 -2.93055 4.34993 0
M  V30 3314 H 312.481 -4.35079 3.39721 0
M  V30 3315 H 312.958 -4.0368 1.73029 0
M  V30 3316 H 313.564 -2.98456 3.02992 0
M  V30 3317 N 311.879 -1.3236 -0.855495 0
M  V30 3318 C 312.809 -1.23833 -1.97958 0
M  V30 3319 C 313.79 -0.122361 -1.69659 0
M  V30 3320 O 314.975 -0.30939 -1.9172 0
M  V30 3321 C 312.105 -0.959772 -3.33775 0
M  V30 3322 C 311.059 -2.03689 -3.76424 0
M  V30 3323 C 310.385 -1.61075 -5.09862 0
M  V30 3324 C 311.685 -3.4518 -3.9198 0
M  V30 3325 H 313.379 -2.1788 -2.0535 0
M  V30 3326 H 310.925 -1.04891 -0.986605 0
M  V30 3327 H 312.878 -0.886678 -4.11966 0
M  V30 3328 H 311.602 0.0163404 -3.26596 0
M  V30 3329 H 310.261 -2.10012 -3.00484 0
M  V30 3330 H 309.909 -0.622107 -4.99138 0
M  V30 3331 H 309.609 -2.33143 -5.39368 0
M  V30 3332 H 311.133 -1.55201 -5.90546 0
M  V30 3333 H 312.547 -3.4145 -4.60526 0
M  V30 3334 H 310.944 -4.1559 -4.32903 0
M  V30 3335 H 312.014 -3.84903 -2.94919 0
M  V30 3336 N 313.357 1.07166 -1.15556 0
M  V30 3337 C 314.604 1.79798 -0.931604 0
M  V30 3338 C 314.932 1.8682 0.54115 0
M  V30 3339 O 314.187 1.34942 1.41736 0
M  V30 3340 C 314.486 3.24707 -1.49332 0
M  V30 3341 C 314.152 3.37781 -2.98688 0
M  V30 3342 C 312.814 3.41057 -3.39461 0
M  V30 3343 C 315.166 3.40424 -3.94665 0
M  V30 3344 C 312.494 3.4458 -4.74849 0
M  V30 3345 C 314.846 3.45485 -5.29927 0
M  V30 3346 C 313.51 3.47039 -5.70193 0
M  V30 3347 H 312.78 0.657928 -0.340898 0
M  V30 3348 H 315.427 1.26091 -1.44129 0
M  V30 3349 H 313.732 3.81208 -0.904859 0
M  V30 3350 H 315.429 3.79486 -1.29582 0
M  V30 3351 H 312.019 3.35932 -2.66172 0
M  V30 3352 H 316.203 3.37113 -3.64237 0
M  V30 3353 H 311.459 3.44083 -5.05388 0
M  V30 3354 H 315.633 3.46476 -6.04092 0
M  V30 3355 H 313.26 3.49522 -6.75084 0
M  V30 3356 N 314.835 0.952656 1.25548 0
M  V30 3357 C 316.112 0.523818 1.88456 0
M  V30 3358 C 316.492 -0.998871 1.85973 0
M  V30 3359 O 315.84 -1.86381 1.3219 0
M  V30 3360 C 316.05 1.0982 3.31271 0
M  V30 3361 C 317.398 1.17385 4.08051 0
M  V30 3362 O 318.422 1.04961 3.40384 0
M  V30 3363 O 317.281 1.36852 5.29088 0
M  V30 3364 H 314.375 0.172485 0.808813 0
M  V30 3365 H 316.921 1.04596 1.33633 0
M  V30 3366 H 315.693 2.1415 3.27499 0
M  V30 3367 H 315.316 0.559191 3.93648 0
M  V30 3368 N 316.313 -1.40141 0.720998 0
M  V30 3369 C 317.541 -2.05096 0.272656 0
M  V30 3370 C 317.956 -1.54334 -1.0875 0
M  V30 3371 O 317.313 -0.702211 -1.6845 0
M  V30 3372 C 317.364 -3.60636 0.249835 0
M  V30 3373 O 317.085 -4.09526 1.55629 0
M  V30 3374 C 318.586 -4.42772 -0.216396 0
M  V30 3375 H 315.806 -0.659897 0.121558 0
M  V30 3376 H 318.35 -1.79449 0.980723 0
M  V30 3377 H 316.505 -3.85232 -0.409237 0
M  V30 3378 H 316.919 -5.03758 1.4604 0
M  V30 3379 H 318.393 -5.51702 -0.181212 0
M  V30 3380 H 318.87 -4.20756 -1.25941 0
M  V30 3381 H 319.476 -4.23294 0.412596 0
M  V30 3382 N 317.792 -0.46758 -1.50504 0
M  V30 3383 C 319.017 0.0886943 -2.0721 0
M  V30 3384 C 319.442 1.33057 -1.32956 0
M  V30 3385 O 318.8 1.77354 -0.376197 0
M  V30 3386 C 318.848 0.359202 -3.58806 0
M  V30 3387 O 317.952 1.44034 -3.8643 0
M  V30 3388 H 317.293 -0.0114349 -0.663902 0
M  V30 3389 H 319.823 -0.657613 -1.93744 0
M  V30 3390 H 319.833 0.600742 -4.03553 0
M  V30 3391 H 318.508 -0.548311 -4.1227 0
M  V30 3392 H 317.085 1.18638 -3.53524 0
M  V30 3393 N 319.27 1.56325 -0.20005 0
M  V30 3394 C 320.519 1.96895 0.437652 0
M  V30 3395 C 320.832 1.08999 1.62415 0
M  V30 3396 O 322.038 1.39372 2.32997 0
M  V30 3397 C 320.494 3.50198 0.830025 0
M  V30 3398 C 320.102 4.46765 -0.332461 0
M  V30 3399 C 321.846 3.99526 1.43453 0
M  V30 3400 C 319.753 5.91344 0.0811468 0
M  V30 3401 H 318.683 0.735209 0.167282 0
M  V30 3402 H 321.334 1.81148 -0.292853 0
M  V30 3403 H 319.716 3.61467 1.61734 0
M  V30 3404 H 320.89 4.47231 -1.11 0
M  V30 3405 H 319.205 4.07657 -0.848789 0
M  V30 3406 H 321.802 5.05025 1.75652 0
M  V30 3407 H 322.145 3.44122 2.34277 0
M  V30 3408 H 322.678 3.91393 0.71109 0
M  V30 3409 H 319.417 6.50685 -0.793033 0
M  V30 3410 H 318.937 5.94121 0.823445 0
M  V30 3411 H 320.616 6.44945 0.515252 0
M  V30 3412 N 320.748 -0.0735177 1.57428 0
M  V30 3413 C 321.996 -0.771472 1.86796 0
M  V30 3414 C 322.317 -1.78201 0.791804 0
M  V30 3415 O 321.587 -1.95074 -0.179718 0
M  V30 3416 H 320.167 -0.28791 0.689287 0
M  V30 3417 H 322.829 -0.0500161 1.94836 0
M  V30 3418 H 321.925 -1.28874 2.8425 0
M  V30 3419 N 322.226 -1.5378 -0.344866 0
M  V30 3420 C 323.637 -1.62428 -0.920552 0
M  V30 3421 C 323.988 -0.504747 -1.89596 0
M  V30 3422 O 323.113 0.365711 -2.13287 0
M  V30 3423 C 323.708 -2.94419 -1.67639 0
M  V30 3424 C 322.267 -3.05333 -2.20111 0
M  V30 3425 C 321.414 -2.57866 -1.01982 0
M  V30 3426 H 324.365 -1.58222 -0.123042 0
M  V30 3427 H 324.386 -2.83384 -2.53917 0
M  V30 3428 H 323.898 -3.7588 -0.966224 0
M  V30 3429 H 321.999 -2.28502 -2.94308 0
M  V30 3430 H 322.112 -4.10778 -2.46573 0
M  V30 3431 H 320.476 -2.13241 -1.39285 0
M  V30 3432 H 321.259 -3.41765 -0.324308 0
M  V30 3433 N 323.704 0.605807 -1.45491 0
M  V30 3434 C 324.634 1.72709 -1.57143 0
M  V30 3435 C 325.615 1.6476 -0.422884 0
M  V30 3436 O 326.8 1.83132 -0.646247 0
M  V30 3437 C 323.93 3.11316 -1.53948 0
M  V30 3438 C 322.884 3.34077 -2.67537 0
M  V30 3439 C 322.21 4.72975 -2.49397 0
M  V30 3440 C 323.51 3.24158 -4.09535 0
M  V30 3441 H 325.204 1.63214 -2.51001 0
M  V30 3442 H 322.75 0.78379 -1.208 0
M  V30 3443 H 324.703 3.89557 -1.60696 0
M  V30 3444 H 323.427 3.21655 -0.566205 0
M  V30 3445 H 322.086 2.58227 -2.6022 0
M  V30 3446 H 321.734 4.8005 -1.50205 0
M  V30 3447 H 321.434 4.8916 -3.25571 0
M  V30 3448 H 322.958 5.53414 -2.58002 0
M  V30 3449 H 324.372 3.92271 -4.18086 0
M  V30 3450 H 322.769 3.51872 -4.86113 0
M  V30 3451 H 323.839 2.2157 -4.31317 0
M  V30 3452 N 325.182 1.32811 0.848464 0
M  V30 3453 C 326.428 1.23907 1.60546 0
M  V30 3454 C 326.761 -0.197161 1.93197 0
M  V30 3455 O 326.036 -1.13596 1.5788 0
M  V30 3456 C 326.319 2.10489 2.92175 0
M  V30 3457 C 326.172 3.62522 2.66266 0
M  V30 3458 C 327.491 1.97075 3.93509 0
M  V30 3459 H 324.61 0.451459 0.58254 0
M  V30 3460 H 327.252 1.62818 0.979296 0
M  V30 3461 H 325.402 1.77434 3.45614 0
M  V30 3462 H 327.074 4.05821 2.19334 0
M  V30 3463 H 325.317 3.84879 2.00126 0
M  V30 3464 H 325.988 4.18437 3.6002 0
M  V30 3465 H 328.464 2.26045 3.49346 0
M  V30 3466 H 327.34 2.59923 4.83457 0
M  V30 3467 H 327.601 0.940186 4.31987 0
M  V30 3468 N 326.66 -1.06551 1.16123 0
M  V30 3469 C 327.89 -1.8274 0.963838 0
M  V30 3470 C 328.298 -1.82712 -0.491228 0
M  V30 3471 O 327.641 -1.24294 -1.35265 0
M  V30 3472 C 327.703 -3.3065 1.41106 0
M  V30 3473 C 327.367 -3.54384 2.88549 0
M  V30 3474 C 328.364 -3.4765 3.86569 0
M  V30 3475 C 326.049 -3.81789 3.26408 0
M  V30 3476 C 328.043 -3.67982 5.2045 0
M  V30 3477 C 325.73 -4.01772 4.60459 0
M  V30 3478 C 326.728 -3.94866 5.57288 0
M  V30 3479 O 326.416 -4.14306 6.88916 0
M  V30 3480 H 326.148 -0.583136 0.341948 0
M  V30 3481 H 328.702 -1.35351 1.54497 0
M  V30 3482 H 326.932 -3.78887 0.773394 0
M  V30 3483 H 328.621 -3.88324 1.1815 0
M  V30 3484 H 329.387 -3.2647 3.58667 0
M  V30 3485 H 325.266 -3.86276 2.51619 0
M  V30 3486 H 328.81 -3.62507 5.96015 0
M  V30 3487 H 324.707 -4.2244 4.88072 0
M  V30 3488 H 325.475 -4.31609 6.95454 0
M  V30 3489 N 328.138 -0.959301 -1.25041 0
M  V30 3490 C 329.363 -0.633507 -1.97488 0
M  V30 3491 C 329.788 0.788555 -1.70773 0
M  V30 3492 O 329.146 1.53394 -0.966431 0
M  V30 3493 C 329.194 -0.904057 -3.49083 0
M  V30 3494 O 328.298 0.0147939 -4.12397 0
M  V30 3495 H 327.639 -0.240368 -0.618966 0
M  V30 3496 H 330.169 -1.28717 -1.59038 0
M  V30 3497 H 330.179 -0.832203 -3.99423 0
M  V30 3498 H 328.854 -1.94048 -3.67856 0
M  V30 3499 H 327.431 -0.109664 -3.72739 0
M  V30 3500 N 329.616 1.39756 -0.72842 0
M  V30 3501 C 330.893 1.94574 -0.200079 0
M  V30 3502 C 331.273 1.66569 1.29684 0
M  V30 3503 O 330.621 0.990326 2.05924 0
M  V30 3504 C 330.831 3.45004 -0.526608 0
M  V30 3505 C 332.179 4.21965 -0.472318 0
M  V30 3506 O 333.203 3.53173 -0.463413 0
M  V30 3507 O 332.062 5.44552 -0.461075 0
M  V30 3508 H 329.156 0.826289 -0.0342851 0
M  V30 3509 H 331.702 1.49293 -0.806829 0
M  V30 3510 H 330.474 3.58796 -1.56144 0
M  V30 3511 H 330.097 3.97449 0.109449 0
M  V30 3512 N 331.094 0.475555 1.50254 0
M  V30 3513 C 332.026 -0.352649 2.26471 0
M  V30 3514 C 333.039 -0.953165 1.3198 0
M  V30 3515 O 334.228 -0.840815 1.57457 0
M  V30 3516 C 331.328 -1.50902 3.0345 0
M  V30 3517 C 330.501 -1.02047 4.25329 0
M  V30 3518 C 329.56 -2.05142 4.84565 0
M  V30 3519 O 328.586 -1.63023 5.45355 0
M  V30 3520 N 329.788 -3.37987 4.71959 0
M  V30 3521 H 332.553 0.300767 2.98187 0
M  V30 3522 H 330.114 0.306598 1.5897 0
M  V30 3523 H 332.106 -2.19572 3.39956 0
M  V30 3524 H 330.676 -2.06705 2.34504 0
M  V30 3525 H 329.896 -0.159507 3.93877 0
M  V30 3526 H 331.184 -0.672061 5.04342 0
M  V30 3527 H 330.582 -3.74913 4.23623 0
M  V30 3528 H 329.139 -4.02443 5.12721 0
M  V30 3529 N 332.573 -1.56217 0.208337 0
M  V30 3530 C 333.803 -2.02043 -0.431523 0
M  V30 3531 C 334.211 -1.08755 -1.54819 0
M  V30 3532 O 333.554 -0.0870009 -1.83494 0
M  V30 3533 C 333.616 -3.44239 -1.03633 0
M  V30 3534 C 333.28 -4.56965 -0.0567502 0
M  V30 3535 C 334.277 -5.14624 0.738773 0
M  V30 3536 C 331.962 -5.02266 0.0581736 0
M  V30 3537 C 333.956 -6.16045 1.63605 0
M  V30 3538 C 331.643 -6.03528 0.959001 0
M  V30 3539 C 332.641 -6.60293 1.7465 0
M  V30 3540 O 332.329 -7.59586 2.6322 0
M  V30 3541 H 332.061 -0.666772 -0.111313 0
M  V30 3542 H 334.615 -2.02919 0.318277 0
M  V30 3543 H 332.845 -3.40391 -1.83497 0
M  V30 3544 H 334.534 -3.73793 -1.58221 0
M  V30 3545 H 335.3 -4.80483 0.660364 0
M  V30 3546 H 331.179 -4.57771 -0.544633 0
M  V30 3547 H 334.723 -6.60279 2.25116 0
M  V30 3548 H 330.62 -6.37092 1.03848 0
M  V30 3549 H 331.388 -7.77057 2.57148 0
M  V30 3550 N 334.051 0.0651679 -1.57465 0
M  V30 3551 C 334.981 1.07693 -2.07182 0
M  V30 3552 C 335.962 1.39962 -0.966673 0
M  V30 3553 O 337.147 1.49475 -1.2398 0
M  V30 3554 C 334.277 2.3885 -2.52127 0
M  V30 3555 C 333.231 2.20917 -3.66579 0
M  V30 3556 C 332.557 3.57515 -3.97601 0
M  V30 3557 C 333.857 1.62493 -4.9638 0
M  V30 3558 H 335.551 0.663199 -2.91962 0
M  V30 3559 H 333.097 0.317569 -1.40455 0
M  V30 3560 H 335.05 3.09928 -2.85522 0
M  V30 3561 H 333.774 2.82215 -1.64384 0
M  V30 3562 H 332.433 1.52279 -3.33477 0
M  V30 3563 H 332.081 3.98463 -3.06979 0
M  V30 3564 H 331.781 3.46353 -4.74672 0
M  V30 3565 H 333.305 4.30013 -4.33499 0
M  V30 3566 H 334.719 2.23445 -5.27963 0
M  V30 3567 H 333.116 1.62009 -5.77818 0
M  V30 3568 H 334.186 0.587041 -4.81333 0
M  V30 3569 N 335.529 1.53961 0.336706 0
M  V30 3570 C 336.461 1.78751 1.4346 0
M  V30 3571 C 337.474 0.669019 1.48418 0
M  V30 3572 O 338.663 0.945884 1.51378 0
M  V30 3573 C 335.763 1.87844 2.82078 0
M  V30 3574 C 334.936 3.17854 3.00479 0
M  V30 3575 C 333.995 3.17816 4.19379 0
M  V30 3576 O 333.021 3.91511 4.13168 0
M  V30 3577 N 334.223 2.40669 5.2826 0
M  V30 3578 H 336.988 2.73493 1.22563 0
M  V30 3579 H 334.549 1.53096 0.526625 0
M  V30 3580 H 336.541 1.85261 3.59806 0
M  V30 3581 H 335.111 1.00257 2.96086 0
M  V30 3582 H 334.331 3.33504 2.10163 0
M  V30 3583 H 335.619 4.03718 3.0966 0
M  V30 3584 H 335.017 1.8036 5.36178 0
M  V30 3585 H 333.574 2.43877 6.04456 0
M  V30 3586 N 337.007 -0.598083 1.45811 0
M  V30 3587 C 338.256 -1.35295 1.49594 0
M  V30 3588 C 338.569 -1.95057 0.145679 0
M  V30 3589 O 339.775 -2.71431 0.0612099 0
M  V30 3590 C 338.231 -2.45124 2.63519 0
M  V30 3591 C 337.839 -1.91732 4.04899 0
M  V30 3592 C 339.583 -3.2205 2.76558 0
M  V30 3593 C 337.49 -2.991 5.1019 0
M  V30 3594 H 336.42 -0.508552 0.556679 0
M  V30 3595 H 339.071 -0.639977 1.71978 0
M  V30 3596 H 337.453 -3.19149 2.34435 0
M  V30 3597 H 338.627 -1.24352 4.43704 0
M  V30 3598 H 336.942 -1.27522 3.96393 0
M  V30 3599 H 339.539 -4.0215 3.52391 0
M  V30 3600 H 339.882 -3.73663 1.83526 0
M  V30 3601 H 340.415 -2.55127 3.05213 0
M  V30 3602 H 337.154 -2.52393 6.04961 0
M  V30 3603 H 336.674 -3.65017 4.75944 0
M  V30 3604 H 338.353 -3.63318 5.35359 0
M  V30 3605 N 338.485 -1.33259 -0.841409 0
M  V30 3606 C 339.71 -1.2775 -1.63385 0
M  V30 3607 C 340.135 0.149188 -1.87507 0
M  V30 3608 O 339.493 1.10498 -1.43736 0
M  V30 3609 C 339.541 -2.05571 -2.96265 0
M  V30 3610 O 338.645 -1.41257 -3.87453 0
M  V30 3611 H 337.986 -0.439627 -0.497618 0
M  V30 3612 H 340.516 -1.75782 -1.04699 0
M  V30 3613 H 340.526 -2.16241 -3.45982 0
M  V30 3614 H 339.201 -3.09309 -2.7803 0
M  V30 3615 H 337.778 -1.39217 -3.45938 0
M  V30 3616 N 339.963 1.05934 -1.16686 0
M  V30 3617 C 341.191 1.8249 -0.974929 0
M  V30 3618 C 341.606 1.82679 0.476861 0
M  V30 3619 O 340.963 1.2486 1.33103 0
M  V30 3620 C 341.014 3.28943 -1.49929 0
M  V30 3621 O 340.735 3.28886 -2.89423 0
M  V30 3622 C 342.236 4.22215 -1.35089 0
M  V30 3623 H 339.456 0.575295 -0.345365 0
M  V30 3624 H 342 1.33631 -1.548 0
M  V30 3625 H 340.155 3.751 -0.968423 0
M  V30 3626 H 340.569 4.20493 -3.13506 0
M  V30 3627 H 342.043 5.22987 -1.76603 0
M  V30 3628 H 342.52 4.38195 -0.296935 0
M  V30 3629 H 343.126 3.81907 -1.87155 0
M  V30 3630 N 341.441 0.965919 1.2453 0
M  V30 3631 C 342.857 0.67216 1.44756 0
M  V30 3632 C 343.057 -0.766609 1.86347 0
M  V30 3633 O 342.113 -1.5407 2.00047 0
M  V30 3634 C 343.426 1.65473 2.51076 0
M  V30 3635 C 344.974 1.66716 2.64905 0
M  V30 3636 C 345.449 2.63766 3.74421 0
M  V30 3637 N 346.94 2.62198 3.81846 0
M  V30 3638 C 347.675 3.33966 4.66106 0
M  V30 3639 N 347.171 4.15245 5.54566 0
M  V30 3640 N 348.964 3.22799 4.60171 0
M  V30 3641 H 341.115 1.89553 0.958293 0
M  V30 3642 H 343.378 0.815979 0.482579 0
M  V30 3643 H 343.084 2.68296 2.27399 0
M  V30 3644 H 342.958 1.4261 3.49202 0
M  V30 3645 H 345.345 0.646057 2.87941 0
M  V30 3646 H 345.426 1.93642 1.67142 0
M  V30 3647 H 345.07 3.6601 3.52135 0
M  V30 3648 H 345 2.34121 4.71694 0
M  V30 3649 H 347.491 2.032 3.18619 0
M  V30 3650 H 347.804 4.66898 6.15814 0
M  V30 3651 H 346.149 4.1934 5.54237 0
M  V30 3652 H 349.34 2.58764 3.90075 0
M  V30 3653 H 349.513 3.78994 5.25612 0
M  V30 3654 N 342.919 -1.39368 0.735821 0
M  V30 3655 C 343.849 -2.33234 0.111506 0
M  V30 3656 C 344.83 -1.53954 -0.723334 0
M  V30 3657 O 346.015 -1.82344 -0.668147 0
M  V30 3658 C 343.145 -3.38057 -0.795917 0
M  V30 3659 C 342.099 -4.2795 -0.065172 0
M  V30 3660 C 341.425 -5.23479 -1.08967 0
M  V30 3661 C 342.725 -5.10741 1.09273 0
M  V30 3662 H 344.419 -2.85692 0.895571 0
M  V30 3663 H 341.965 -1.37364 0.432109 0
M  V30 3664 H 343.918 -4.02675 -1.24221 0
M  V30 3665 H 342.642 -2.8404 -1.61211 0
M  V30 3666 H 341.301 -3.64813 0.361511 0
M  V30 3667 H 340.949 -4.65758 -1.89944 0
M  V30 3668 H 340.649 -5.84472 -0.605489 0
M  V30 3669 H 342.173 -5.90974 -1.53565 0
M  V30 3670 H 343.587 -5.68699 0.724841 0
M  V30 3671 H 341.984 -5.8088 1.50659 0
M  V30 3672 H 343.054 -4.45525 1.91404 0
M  V30 3673 N 344.397 -0.483516 -1.5 0
M  V30 3674 C 345.808 -0.0314176 -1.86674 0
M  V30 3675 C 346.159 1.37728 -1.39733 0
M  V30 3676 O 345.284 2.02327 -0.767635 0
M  V30 3677 C 345.879 -0.0502376 -3.38763 0
M  V30 3678 C 344.438 0.346442 -3.74802 0
M  V30 3679 C 343.585 -0.430366 -2.7394 0
M  V30 3680 H 346.536 -0.697182 -1.42566 0
M  V30 3681 H 346.557 0.749116 -3.73053 0
M  V30 3682 H 346.069 -1.07563 -3.72897 0
M  V30 3683 H 344.17 1.37572 -3.46273 0
M  V30 3684 H 344.283 0.0391486 -4.79084 0
M  V30 3685 H 342.647 0.117557 -2.54429 0
M  V30 3686 H 343.43 -1.4555 -3.10918 0
M  V30 3687 N 345.875 1.56104 -0.216619 0
M  V30 3688 C 347.1 2.0301 0.424462 0
M  V30 3689 C 347.525 1.0955 1.52907 0
M  V30 3690 O 346.883 0.0827914 1.81111 0
M  V30 3691 C 346.931 3.4819 0.937883 0
M  V30 3692 O 346.035 3.57865 2.04955 0
M  V30 3693 H 345.376 0.656925 0.0966755 0
M  V30 3694 H 347.906 2.01859 -0.33381 0
M  V30 3695 H 347.916 3.88413 1.24897 0
M  V30 3696 H 346.591 4.15699 0.129387 0
M  V30 3697 H 345.168 3.29527 1.74546 0
M  V30 3698 N 347.353 -0.0568162 1.57498 0
M  V30 3699 C 348.63 -0.786954 1.79071 0
M  V30 3700 C 349.01 -1.95028 0.80792 0
M  V30 3701 O 348.358 -2.27968 -0.155858 0
M  V30 3702 C 348.568 -1.24594 3.26002 0
M  V30 3703 C 349.916 -1.67323 3.90241 0
M  V30 3704 O 350.94 -1.34124 3.29984 0
M  V30 3705 O 349.799 -2.28842 4.9628 0
M  V30 3706 H 346.893 -0.378262 0.735423 0
M  V30 3707 H 349.439 -0.035734 1.69662 0
M  V30 3708 H 348.211 -0.41423 3.89101 0
M  V30 3709 H 347.834 -2.05803 3.40192 0
M  V30 3710 N 348.832 -1.54138 -0.328536 0
M  V30 3711 C 350.062 -1.75807 -1.08516 0
M  V30 3712 C 350.47 -0.50428 -1.82356 0
M  V30 3713 O 349.813 0.534451 -1.75754 0
M  V30 3714 C 349.875 -2.89423 -2.13248 0
M  V30 3715 C 349.539 -4.28504 -1.5885 0
M  V30 3716 C 350.536 -5.09536 -1.03289 0
M  V30 3717 C 348.221 -4.75034 -1.63243 0
M  V30 3718 C 350.215 -6.35206 -0.52845 0
M  V30 3719 C 347.902 -6.00672 -1.12411 0
M  V30 3720 C 348.9 -6.80592 -0.573062 0
M  V30 3721 O 348.588 -8.03867 -0.0723692 0
M  V30 3722 H 348.32 -0.590633 -0.328829 0
M  V30 3723 H 350.874 -2.01819 -0.381868 0
M  V30 3724 H 349.104 -2.5897 -2.87178 0
M  V30 3725 H 350.793 -2.98921 -2.74592 0
M  V30 3726 H 351.559 -4.74745 -0.99206 0
M  V30 3727 H 347.438 -4.12875 -2.05074 0
M  V30 3728 H 350.982 -6.97532 -0.0976774 0
M  V30 3729 H 346.879 -6.34955 -1.162 0
M  V30 3730 H 347.647 -8.18283 -0.188258 0
M  V30 3731 N 350.31 0.590341 -1.46126 0
M  V30 3732 C 351.559 1.34499 -1.50309 0
M  V30 3733 C 351.872 1.94977 -0.156021 0
M  V30 3734 O 353.078 2.71395 -0.0756037 0
M  V30 3735 C 351.534 2.43723 -2.64815 0
M  V30 3736 C 351.142 1.89582 -4.0591 0
M  V30 3737 C 352.886 3.20579 -2.78262 0
M  V30 3738 C 350.793 2.9639 -5.11769 0
M  V30 3739 H 349.723 0.505593 -0.559368 0
M  V30 3740 H 352.374 0.630848 -1.72315 0
M  V30 3741 H 350.756 3.17902 -2.36124 0
M  V30 3742 H 351.93 1.21997 -4.44357 0
M  V30 3743 H 350.245 1.25418 -3.97063 0
M  V30 3744 H 352.842 4.00276 -3.54519 0
M  V30 3745 H 353.185 3.72684 -1.85505 0
M  V30 3746 H 353.718 2.53505 -3.06562 0
M  V30 3747 H 350.457 2.49181 -6.06291 0
M  V30 3748 H 349.977 3.62487 -4.77873 0
M  V30 3749 H 351.656 3.60474 -5.37278 0
M  V30 3750 N 351.788 1.33704 0.83433 0
M  V30 3751 C 353.018 1.28281 1.6195 0
M  V30 3752 C 353.426 -0.147603 1.88623 0
M  V30 3753 O 352.769 -1.1016 1.47005 0
M  V30 3754 C 352.831 1.99386 2.99141 0
M  V30 3755 C 352.495 3.48681 2.95416 0
M  V30 3756 C 353.492 4.438 2.70809 0
M  V30 3757 C 351.177 3.90925 3.15409 0
M  V30 3758 C 353.171 5.79138 2.66229 0
M  V30 3759 C 350.858 5.26366 3.10454 0
M  V30 3760 C 351.856 6.20284 2.85895 0
M  V30 3761 O 351.544 7.53245 2.80852 0
M  V30 3762 H 351.276 0.44315 0.510484 0
M  V30 3763 H 353.83 1.76711 1.04702 0
M  V30 3764 H 352.06 1.45554 3.58261 0
M  V30 3765 H 353.749 1.87403 3.60049 0
M  V30 3766 H 354.515 4.12485 2.5511 0
M  V30 3767 H 350.394 3.18229 3.33543 0
M  V30 3768 H 353.938 6.52416 2.4698 0
M  V30 3769 H 349.835 5.57304 3.25703 0
M  V30 3770 H 350.603 7.62846 2.96661 0
M  V30 3771 N 353.266 -1.05314 1.17247 0
M  V30 3772 C 354.514 -1.77941 0.958194 0
M  V30 3773 C 354.835 -1.88089 -0.514556 0
M  V30 3774 O 354.105 -1.39676 -1.37359 0
M  V30 3775 H 352.685 -0.659116 0.351533 0
M  V30 3776 H 355.347 -1.27166 1.47699 0
M  V30 3777 H 354.443 -2.79663 1.38546 0
M  V30 3778 N 354.744 -0.972509 -1.24016 0
M  V30 3779 C 355.993 -0.632603 -1.91523 0
M  V30 3780 C 356.306 0.836641 -1.76804 0
M  V30 3781 O 357.512 1.28728 -2.39043 0
M  V30 3782 C 355.968 -1.08082 -3.43287 0
M  V30 3783 C 355.576 -2.57386 -3.66683 0
M  V30 3784 C 357.32 -0.814288 -4.16617 0
M  V30 3785 C 355.227 -2.95915 -5.12043 0
M  V30 3786 H 354.157 -0.232898 -0.717129 0
M  V30 3787 H 356.808 -1.17936 -1.40582 0
M  V30 3788 H 355.19 -0.462339 -3.93292 0
M  V30 3789 H 356.364 -3.24405 -3.27258 0
M  V30 3790 H 354.679 -2.81701 -3.06649 0
M  V30 3791 H 357.276 -1.0781 -5.23718 0
M  V30 3792 H 357.619 0.24955 -4.15551 0
M  V30 3793 H 358.152 -1.39397 -3.72577 0
M  V30 3794 H 354.891 -4.0139 -5.18234 0
M  V30 3795 H 354.411 -2.33584 -5.52448 0
M  V30 3796 H 356.09 -2.86086 -5.80314 0
M  V30 3797 N 356.222 1.38976 -0.743202 0
M  V30 3798 C 357.47 1.99948 -0.29417 0
M  V30 3799 C 357.791 1.59279 1.12495 0
M  V30 3800 O 357.061 0.844808 1.76748 0
M  V30 3801 H 355.641 0.739473 -0.105774 0
M  V30 3802 H 358.303 1.699 -0.954986 0
M  V30 3803 H 357.399 3.10142 -0.349056 0
M  V30 3804 N 357.7 0.491464 1.49741 0
M  V30 3805 C 358.61 -0.296835 2.32715 0
M  V30 3806 C 359.626 -0.976536 1.44013 0
M  V30 3807 O 360.802 -0.960023 1.77047 0
M  V30 3808 C 357.867 -1.35288 3.19215 0
M  V30 3809 C 356.928 -0.687632 4.23757 0
M  V30 3810 C 356.161 -1.69336 5.06123 0
M  V30 3811 O 356.384 -2.92219 4.89861 0
M  V30 3812 O 355.318 -1.25394 5.88693 0
M  V30 3813 H 359.144 0.382048 3.01287 0
M  V30 3814 H 356.729 0.252953 1.47243 0
M  V30 3815 H 358.611 -1.96411 3.72828 0
M  V30 3816 H 357.286 -2.01487 2.53347 0
M  V30 3817 H 356.193 -0.0369159 3.74082 0
M  V30 3818 H 357.526 -0.0682566 4.92153 0
M  V30 3819 N 359.178 -1.55987 0.224894 0
M  V30 3820 C 360.11 -2.17722 -0.716224 0
M  V30 3821 C 361.123 -1.14723 -1.15509 0
M  V30 3822 O 362.312 -1.41688 -1.08567 0
M  V30 3823 C 359.412 -2.74873 -1.98238 0
M  V30 3824 C 358.585 -4.03074 -1.69853 0
M  V30 3825 C 357.644 -4.44757 -2.81208 0
M  V30 3826 O 356.67 -5.11587 -2.49534 0
M  V30 3827 N 357.872 -4.10716 -4.10235 0
M  V30 3828 H 360.637 -2.99109 -0.188123 0
M  V30 3829 H 358.198 -1.6184 0.0440123 0
M  V30 3830 H 360.19 -2.99727 -2.7193 0
M  V30 3831 H 358.76 -1.9777 -2.42086 0
M  V30 3832 H 357.98 -3.86041 -0.797875 0
M  V30 3833 H 359.268 -4.86701 -1.48324 0
M  V30 3834 H 358.666 -3.57019 -4.38809 0
M  V30 3835 H 357.223 -4.40455 -4.80461 0
M  V30 3836 N 360.656 0.0484629 -1.57525 0
M  V30 3837 C 361.902 0.744226 -1.88651 0
M  V30 3838 C 362.235 1.76029 -0.820212 0
M  V30 3839 O 361.51 1.93782 0.166985 0
M  V30 3840 C 361.793 1.43128 -3.30434 0
M  V30 3841 C 361.646 0.43005 -4.47739 0
M  V30 3842 C 362.965 2.37031 -3.70816 0
M  V30 3843 H 360.084 0.269089 -0.68612 0
M  V30 3844 H 362.726 0.00713532 -1.89999 0
M  V30 3845 H 360.876 2.05956 -3.29415 0
M  V30 3846 H 362.548 -0.194816 -4.60888 0
M  V30 3847 H 360.791 -0.252522 -4.33064 0
M  V30 3848 H 361.462 0.948874 -5.43783 0
M  V30 3849 H 363.938 1.84263 -3.73077 0
M  V30 3850 H 362.814 2.82094 -4.70865 0
M  V30 3851 H 363.075 3.22864 -3.02012 0
M  V30 3852 N 362.134 1.5431 0.320358 0
M  V30 3853 C 363.084 1.803 1.39556 0
M  V30 3854 C 364.068 0.659166 1.46778 0
M  V30 3855 O 365.26 0.91926 1.51257 0
M  V30 3856 C 362.389 2.03665 2.76361 0
M  V30 3857 C 361.475 3.24178 2.73439 0
M  V30 3858 N 361.866 4.4516 2.40137 0
M  V30 3859 C 360.164 3.25816 3.04565 0
M  V30 3860 C 360.865 5.27109 2.4603 0
M  V30 3861 N 359.841 4.64368 2.82601 0
M  V30 3862 H 363.643 2.71416 1.12742 0
M  V30 3863 H 361.157 1.53548 0.528856 0
M  V30 3864 H 363.154 2.20425 3.53862 0
M  V30 3865 H 361.814 1.13805 3.04103 0
M  V30 3866 H 362.825 4.72104 2.12927 0
M  V30 3867 H 359.502 2.46001 3.37328 0
M  V30 3868 H 360.892 6.33728 2.23246 0
M  V30 3869 N 363.613 -0.582584 1.46437 0
M  V30 3870 C 364.56 -1.69164 1.5701 0
M  V30 3871 C 365.53 -1.60847 0.414403 0
M  V30 3872 O 366.715 -1.80058 0.631171 0
M  V30 3873 C 363.855 -3.075 1.56646 0
M  V30 3874 C 362.968 -3.2644 2.82951 0
M  V30 3875 C 362.103 -4.55026 2.7409 0
M  V30 3876 C 361.142 -4.6731 3.95333 0
M  V30 3877 N 360.279 -5.87221 3.84858 0
M  V30 3878 H 365.119 -1.59464 2.51744 0
M  V30 3879 H 362.656 -0.777186 1.24893 0
M  V30 3880 H 364.614 -3.8757 1.5442 0
M  V30 3881 H 363.244 -3.16096 0.654439 0
M  V30 3882 H 362.296 -2.39974 2.95155 0
M  V30 3883 H 363.608 -3.31385 3.72808 0
M  V30 3884 H 362.762 -5.43324 2.6997 0
M  V30 3885 H 361.501 -4.52519 1.81873 0
M  V30 3886 H 360.506 -3.77429 3.99784 0
M  V30 3887 H 361.731 -4.71595 4.88646 0
M  V30 3888 H 359.677 -5.85712 2.95427 0
M  V30 3889 H 359.594 -5.93435 4.6837 0
M  V30 3890 H 360.862 -6.7795 3.84713 0
M  V30 3891 N 365.091 -1.34144 -0.827227 0
M  V30 3892 C 366.507 -1.13732 -1.11969 0
M  V30 3893 C 366.707 0.0640463 -2.01398 0
M  V30 3894 O 365.763 0.740856 -2.41387 0
M  V30 3895 C 367.076 -2.43047 -1.77055 0
M  V30 3896 C 368.624 -2.49063 -1.89569 0
M  V30 3897 C 369.099 -3.78369 -2.58072 0
M  V30 3898 N 370.59 -3.79505 -2.65575 0
M  V30 3899 C 371.325 -4.76274 -3.19297 0
M  V30 3900 N 370.821 -5.83424 -3.73616 0
M  V30 3901 N 372.614 -4.63735 -3.17658 0
M  V30 3902 H 364.765 -2.11126 -0.232296 0
M  V30 3903 H 367.028 -0.933424 -0.165602 0
M  V30 3904 H 366.734 -3.31025 -1.18807 0
M  V30 3905 H 366.608 -2.56066 -2.76966 0
M  V30 3906 H 368.995 -1.61527 -2.46968 0
M  V30 3907 H 369.076 -2.39975 -0.885745 0
M  V30 3908 H 368.72 -4.66293 -2.01329 0
M  V30 3909 H 368.65 -3.84737 -3.59562 0
M  V30 3910 H 371.141 -3.02074 -2.27068 0
M  V30 3911 H 371.454 -6.53282 -4.12846 0
M  V30 3912 H 369.799 -5.87143 -3.71871 0
M  V30 3913 H 372.99 -3.79177 -2.74486 0
M  V30 3914 H 373.163 -5.39318 -3.59221 0
M  V30 3915 N 366.569 1.04691 -1.17803 0
M  V30 3916 C 367.816 1.77782 -0.969532 0
M  V30 3917 C 368.144 1.87926 0.501401 0
M  V30 3918 O 367.399 1.37918 1.38842 0
M  V30 3919 C 367.698 3.21467 -1.56186 0
M  V30 3920 C 367.364 3.3137 -3.05786 0
M  V30 3921 C 366.026 3.3378 -3.46619 0
M  V30 3922 C 368.378 3.31976 -4.01797 0
M  V30 3923 C 365.706 3.34431 -4.82051 0
M  V30 3924 C 368.058 3.34167 -5.37136 0
M  V30 3925 C 366.722 3.34866 -5.77426 0
M  V30 3926 H 365.992 0.650549 -0.354777 0
M  V30 3927 H 368.639 1.23006 -1.46772 0
M  V30 3928 H 366.944 3.79203 -0.985515 0
M  V30 3929 H 368.641 3.76652 -1.37602 0
M  V30 3930 H 365.231 3.3021 -2.73238 0
M  V30 3931 H 369.415 3.29311 -3.71306 0
M  V30 3932 H 364.671 3.33285 -5.12573 0
M  V30 3933 H 368.845 3.33585 -6.11305 0
M  V30 3934 H 366.472 3.35124 -6.82346 0
M  V30 3935 N 368.047 0.979072 1.23499 0
M  V30 3936 C 369.463 0.687475 1.44034 0
M  V30 3937 C 369.663 -0.746801 1.8715 0
M  V30 3938 O 368.719 -1.51939 2.0167 0
M  V30 3939 C 370.032 1.68127 2.49307 0
M  V30 3940 C 371.58 1.69516 2.63122 0
M  V30 3941 C 372.055 2.67723 3.71603 0
M  V30 3942 N 373.546 2.66233 3.79044 0
M  V30 3943 C 374.281 3.38891 4.62537 0
M  V30 3944 N 373.777 4.21103 5.50131 0
M  V30 3945 N 375.57 3.27661 4.56721 0
M  V30 3946 H 367.721 1.90559 0.938135 0
M  V30 3947 H 369.984 0.821051 0.473897 0
M  V30 3948 H 369.69 2.70693 2.2454 0
M  V30 3949 H 369.564 1.46306 3.4767 0
M  V30 3950 H 371.951 0.676561 2.8724 0
M  V30 3951 H 372.032 1.95404 1.65079 0
M  V30 3952 H 371.676 3.69724 3.48233 0
M  V30 3953 H 371.606 2.39111 4.69184 0
M  V30 3954 H 374.097 2.06568 3.16446 0
M  V30 3955 H 374.41 4.73403 6.10827 0
M  V30 3956 H 372.755 4.25195 5.49759 0
M  V30 3957 H 375.946 2.62887 3.87309 0
M  V30 3958 H 376.119 3.84547 5.21562 0
M  V30 3959 N 369.525 -1.3858 0.750561 0
M  V30 3960 C 370.475 -2.27795 0.0965949 0
M  V30 3961 C 371.459 -1.45048 -0.696411 0
M  V30 3962 O 372.651 -1.67812 -0.562863 0
M  V30 3963 C 369.78 -3.33894 -0.798085 0
M  V30 3964 C 368.866 -4.241 0.0016067 0
M  V30 3965 N 369.257 -4.95067 1.03647 0
M  V30 3966 C 367.555 -4.45429 -0.225674 0
M  V30 3967 C 368.256 -5.61489 1.52004 0
M  V30 3968 N 367.232 -5.37135 0.835874 0
M  V30 3969 H 371.034 -2.80125 0.889228 0
M  V30 3970 H 368.548 -1.51446 0.586323 0
M  V30 3971 H 370.545 -3.96693 -1.28219 0
M  V30 3972 H 369.205 -2.83123 -1.5897 0
M  V30 3973 H 370.216 -4.98104 1.41819 0
M  V30 3974 H 366.893 -4.05571 -0.990872 0
M  V30 3975 H 368.283 -6.28264 2.38188 0
M  V30 3976 N 371.003 -0.499398 -1.49478 0
M  V30 3977 C 372.28 0.108629 -1.95298 0
M  V30 3978 C 372.66 1.54282 -1.44084 0
M  V30 3979 O 372.008 2.18944 -0.653908 0
M  V30 3980 C 372.218 0.0229111 -3.48992 0
M  V30 3981 C 373.566 0.197643 -4.2414 0
M  V30 3982 O 374.59 0.0981735 -3.56065 0
M  V30 3983 O 373.449 0.401669 -5.45022 0
M  V30 3984 H 370.543 0.096181 -0.821388 0
M  V30 3985 H 373.089 -0.561822 -1.6013 0
M  V30 3986 H 371.861 -0.977321 -3.78899 0
M  V30 3987 H 371.484 0.733579 -3.90774 0
M  V30 3988 N 372.481 1.55866 -0.233164 0
M  V30 3989 C 373.411 2.23783 0.666599 0
M  V30 3990 C 374.392 1.21343 1.19205 0
M  V30 3991 O 375.577 1.4996 1.23392 0
M  V30 3992 C 372.707 2.92671 1.86978 0
M  V30 3993 C 371.661 4.01682 1.47768 0
M  V30 3994 C 370.987 4.57926 2.76058 0
M  V30 3995 C 372.287 5.18126 0.658993 0
M  V30 3996 H 373.981 2.99232 0.100306 0
M  V30 3997 H 371.527 1.43924 0.046804 0
M  V30 3998 H 373.48 3.3888 2.50476 0
M  V30 3999 H 372.204 2.14688 2.46123 0
M  V30 4000 H 370.863 3.56222 0.866106 0
M  V30 4001 H 370.511 3.76659 3.33372 0
M  V30 4002 H 370.211 5.31505 2.50552 0
M  V30 4003 H 371.735 5.06859 3.40479 0
M  V30 4004 H 373.149 5.60644 1.19795 0
M  V30 4005 H 371.546 5.98009 0.500552 0
M  V30 4006 H 372.616 4.83763 -0.331856 0
M  V30 4007 N 373.959 -0.0401083 1.57549 0
M  V30 4008 C 375.184 -0.748931 1.93406 0
M  V30 4009 C 375.609 -1.68686 0.832274 0
M  V30 4010 O 374.967 -1.80047 -0.212818 0
M  V30 4011 C 375.015 -1.4916 3.28304 0
M  V30 4012 O 374.119 -2.6042 3.19774 0
M  V30 4013 H 373.46 -0.202212 0.63246 0
M  V30 4014 H 375.99 0.00112086 2.046 0
M  V30 4015 H 376 -1.86395 3.62934 0
M  V30 4016 H 374.675 -0.80364 4.08062 0
M  V30 4017 H 373.252 -2.25808 2.96758 0
M  V30 4018 N 375.437 -1.54477 -0.31217 0
M  V30 4019 C 376.683 -1.74417 -1.04644 0
M  V30 4020 C 377.038 -0.517641 -1.85306 0
M  V30 4021 O 376.331 0.489973 -1.85229 0
M  V30 4022 C 376.525 -2.967 -1.99258 0
M  V30 4023 C 376.354 -4.31128 -1.27901 0
M  V30 4024 C 375.124 -4.95087 -1.01079 0
M  V30 4025 C 377.322 -5.09662 -0.689119 0
M  V30 4026 N 375.304 -6.13322 -0.266323 0
M  V30 4027 C 376.675 -6.19952 -0.0768523 0
M  V30 4028 C 378.73 -4.94355 -0.593061 0
M  V30 4029 C 377.433 -7.16604 0.622165 0
M  V30 4030 C 379.459 -5.91328 0.0922792 0
M  V30 4031 C 378.821 -7.00978 0.693443 0
M  V30 4032 H 374.92 -0.69094 -0.366231 0
M  V30 4033 H 377.504 -1.91946 -0.326319 0
M  V30 4034 H 375.675 -2.80616 -2.68532 0
M  V30 4035 H 377.407 -3.05216 -2.65755 0
M  V30 4036 H 374.162 -4.55235 -1.30607 0
M  V30 4037 H 374.586 -6.76937 0.0920973 0
M  V30 4038 H 379.228 -4.09719 -1.04355 0
M  V30 4039 H 376.946 -8.0079 1.08445 0
M  V30 4040 H 380.532 -5.81562 0.166396 0
M  V30 4041 H 379.412 -7.74725 1.21533 0
M  V30 4042 N 376.915 0.57481 -1.46744 0
M  V30 4043 C 377.862 1.68329 -1.57905 0
M  V30 4044 C 378.832 1.60625 -0.422927 0
M  V30 4045 O 380.017 1.79721 -0.640711 0
M  V30 4046 C 377.157 3.06665 -1.58274 0
M  V30 4047 C 376.27 3.24935 -2.84678 0
M  V30 4048 C 375.405 4.53566 -2.76499 0
M  V30 4049 C 374.444 4.65207 -3.97806 0
M  V30 4050 N 373.581 5.85172 -3.87967 0
M  V30 4051 H 378.421 1.58127 -2.52587 0
M  V30 4052 H 375.958 0.770552 -1.25303 0
M  V30 4053 H 377.916 3.86745 -1.56473 0
M  V30 4054 H 376.546 3.15745 -0.671194 0
M  V30 4055 H 375.598 2.38405 -2.96424 0
M  V30 4056 H 376.91 3.29403 -3.7456 0
M  V30 4057 H 376.064 5.41885 -2.72848 0
M  V30 4058 H 374.803 4.51548 -1.8427 0
M  V30 4059 H 373.808 3.75304 -4.0178 0
M  V30 4060 H 375.033 4.68997 -4.9114 0
M  V30 4061 H 372.979 5.84137 -2.98529 0
M  V30 4062 H 372.896 5.90943 -4.71511 0
M  V30 4063 H 374.164 6.759 -3.88303 0
M  V30 4064 N 378.394 1.34581 0.820102 0
M  V30 4065 C 379.622 1.3018 1.60813 0
M  V30 4066 C 380.037 -0.123551 1.88395 0
M  V30 4067 O 379.394 -1.07148 1.47735 0
M  V30 4068 C 379.445 2.09312 2.94739 0
M  V30 4069 O 379.166 3.46288 2.68358 0
M  V30 4070 C 380.667 2.1234 3.89136 0
M  V30 4071 H 377.887 0.447726 0.499782 0
M  V30 4072 H 380.431 1.77237 1.02017 0
M  V30 4073 H 378.586 1.65889 3.50085 0
M  V30 4074 H 379 3.87227 3.53774 0
M  V30 4075 H 380.474 2.72126 4.80262 0
M  V30 4076 H 380.951 1.11854 4.24718 0
M  V30 4077 H 381.557 2.55864 3.39726 0
M  V30 4078 N 379.872 -1.04064 1.18357 0
M  V30 4079 C 381.118 -1.77658 0.990412 0
M  V30 4080 C 381.473 -1.86446 -0.474944 0
M  V30 4081 O 380.766 -1.36153 -1.34807 0
M  V30 4082 C 380.96 -3.20634 1.57888 0
M  V30 4083 C 380.789 -3.25782 3.09994 0
M  V30 4084 C 379.559 -3.34411 3.7881 0
M  V30 4085 C 381.757 -3.13791 4.0748 0
M  V30 4086 N 379.739 -3.28809 5.18418 0
M  V30 4087 C 381.11 -3.15689 5.33611 0
M  V30 4088 C 383.165 -2.97833 3.98998 0
M  V30 4089 C 381.868 -3.03268 6.52243 0
M  V30 4090 C 383.894 -2.86759 5.17227 0
M  V30 4091 C 383.256 -2.893 6.4225 0
M  V30 4092 H 379.355 -0.661901 0.416427 0
M  V30 4093 H 381.939 -1.23968 1.50133 0
M  V30 4094 H 380.11 -3.7267 1.09414 0
M  V30 4095 H 381.842 -3.82525 1.32124 0
M  V30 4096 H 378.597 -3.40144 3.29543 0
M  V30 4097 H 379.021 -3.29448 5.91433 0
M  V30 4098 H 383.663 -2.94698 3.03171 0
M  V30 4099 H 381.381 -3.05156 7.48268 0
M  V30 4100 H 384.967 -2.75465 5.12455 0
M  V30 4101 H 383.847 -2.80818 7.32196 0
M  V30 4102 N 381.35 -0.985608 -1.22978 0
M  V30 4103 C 382.761 -0.693593 -1.73338 0
M  V30 4104 C 383.112 0.789935 -1.79595 0
M  V30 4105 O 382.237 1.61771 -1.43733 0
M  V30 4106 C 382.832 -1.25235 -3.14804 0
M  V30 4107 C 381.391 -1.00987 -3.626 0
M  V30 4108 C 380.538 -1.37695 -2.40698 0
M  V30 4109 H 383.489 -1.15884 -1.08428 0
M  V30 4110 H 383.51 -0.627329 -3.75293 0
M  V30 4111 H 383.022 -2.33209 -3.10218 0
M  V30 4112 H 381.123 0.0535565 -3.72562 0
M  V30 4113 H 381.236 -1.66812 -4.49122 0
M  V30 4114 H 379.6 -0.795459 -2.4196 0
M  V30 4115 H 380.383 -2.46657 -2.38779 0
M  V30 4116 N 382.828 1.3818 -0.7579 0
M  V30 4117 C 384.077 1.99261 -0.312744 0
M  V30 4118 C 384.39 1.60846 1.11301 0
M  V30 4119 O 385.596 2.14929 1.65885 0
M  V30 4120 C 384.052 3.56294 -0.50821 0
M  V30 4121 C 383.66 4.03657 -1.94333 0
M  V30 4122 C 385.404 4.24313 -0.125982 0
M  V30 4123 C 383.311 5.53347 -2.08712 0
M  V30 4124 H 382.241 0.745456 -0.113185 0
M  V30 4125 H 384.892 1.57889 -0.935056 0
M  V30 4126 H 383.274 3.95575 0.183353 0
M  V30 4127 H 384.448 3.75655 -2.66871 0
M  V30 4128 H 382.763 3.48376 -2.28086 0
M  V30 4129 H 385.36 5.34279 -0.212125 0
M  V30 4130 H 385.703 4.05962 0.921964 0
M  V30 4131 H 386.236 3.90285 -0.769563 0
M  V30 4132 H 382.975 5.76607 -3.11777 0
M  V30 4133 H 382.495 5.83078 -1.4064 0
M  V30 4134 H 384.174 6.19111 -1.87912 0
M  V30 4135 N 384.306 0.507319 1.49211 0
M  V30 4136 C 385.553 -0.0349529 2.0247 0
M  V30 4137 C 385.881 -1.36409 1.38647 0
M  V30 4138 O 385.136 -1.88841 0.513566 0
M  V30 4139 C 385.435 -0.229513 3.56662 0
M  V30 4140 C 385.101 1.02241 4.39156 0
M  V30 4141 C 383.763 1.36557 4.61417 0
M  V30 4142 C 386.115 1.85428 4.871 0
M  V30 4143 C 383.443 2.53999 5.28868 0
M  V30 4144 C 385.795 3.02028 5.55843 0
M  V30 4145 C 384.459 3.36717 5.76349 0
M  V30 4146 H 383.729 -0.0127902 0.74089 0
M  V30 4147 H 386.376 0.668756 1.79443 0
M  V30 4148 H 384.681 -1.0158 3.78403 0
M  V30 4149 H 386.378 -0.663641 3.9547 0
M  V30 4150 H 382.968 0.745124 4.22073 0
M  V30 4151 H 387.152 1.6023 4.69723 0
M  V30 4152 H 382.408 2.81105 5.42946 0
M  V30 4153 H 386.582 3.66808 5.91967 0
M  V30 4154 H 384.209 4.27821 6.28389 0
M  V30 4155 N 385.784 -1.5574 0.241426 0
M  V30 4156 C 387.012 -2.03208 -0.389134 0
M  V30 4157 C 387.427 -1.12082 -1.51931 0
M  V30 4158 O 386.784 -0.134183 -1.82006 0
M  V30 4159 C 386.835 -3.50064 -0.902087 0
M  V30 4160 O 386.556 -4.37717 0.18305 0
M  V30 4161 C 388.057 -4.13268 -1.60389 0
M  V30 4162 H 385.277 -0.664509 -0.0931053 0
M  V30 4163 H 387.821 -2.0124 0.36369 0
M  V30 4164 H 385.976 -3.52583 -1.60511 0
M  V30 4165 H 386.39 -5.24097 -0.205579 0
M  V30 4166 H 387.864 -5.17733 -1.91458 0
M  V30 4167 H 388.341 -3.59434 -2.52397 0
M  V30 4168 H 388.947 -4.14655 -0.945576 0
M  V30 4169 N 387.262 0.0317525 -1.57568 0
M  V30 4170 C 388.678 0.38735 -1.54828 0
M  V30 4171 C 388.878 1.7677 -0.967187 0
M  V30 4172 O 387.934 2.45581 -0.587063 0
M  V30 4173 C 389.247 0.291667 -2.99282 0
M  V30 4174 C 390.795 0.368946 -3.10818 0
M  V30 4175 C 391.27 0.302741 -4.56998 0
M  V30 4176 N 392.761 0.361617 -4.61786 0
M  V30 4177 C 393.496 0.333238 -5.72431 0
M  V30 4178 N 392.992 0.257308 -6.92322 0
M  V30 4179 N 394.785 0.382769 -5.60795 0
M  V30 4180 H 386.936 -0.871609 -1.93692 0
M  V30 4181 H 389.199 -0.331161 -0.888277 0
M  V30 4182 H 388.905 -0.656794 -3.45513 0
M  V30 4183 H 388.779 1.08638 -3.61217 0
M  V30 4184 H 391.166 1.30784 -2.64536 0
M  V30 4185 H 391.247 -0.455066 -2.5172 0
M  V30 4186 H 390.891 -0.632473 -5.03947 0
M  V30 4187 H 390.821 1.14482 -5.14005 0
M  V30 4188 H 393.312 0.422923 -3.75526 0
M  V30 4189 H 393.625 0.24068 -7.72425 0
M  V30 4190 H 391.97 0.223396 -6.94641 0
M  V30 4191 H 395.161 0.44006 -4.66027 0
M  V30 4192 H 395.334 0.357184 -6.47015 0
M  V30 4193 N 388.74 1.54641 0.303973 0
M  V30 4194 C 390.017 1.64455 1.05896 0
M  V30 4195 C 390.397 0.490923 2.05312 0
M  V30 4196 O 389.745 -0.512685 2.22674 0
M  V30 4197 C 389.955 3.02331 1.74347 0
M  V30 4198 C 391.303 3.59045 2.26653 0
M  V30 4199 O 392.327 3.04764 1.84384 0
M  V30 4200 O 391.186 4.54081 3.04093 0
M  V30 4201 H 388.28 0.666729 0.489287 0
M  V30 4202 H 390.826 1.66986 0.302298 0
M  V30 4203 H 389.598 3.77734 1.02142 0
M  V30 4204 H 389.221 3.03565 2.56777 0
M  V30 4205 N 390.218 -0.567019 1.47046 0
M  V30 4206 C 391.15 -1.68985 1.54844 0
M  V30 4207 C 392.163 -1.56869 0.435431 0
M  V30 4208 O 393.352 -1.64006 0.70457 0
M  V30 4209 C 390.452 -3.07373 1.42742 0
M  V30 4210 C 389.625 -3.45339 2.6844 0
M  V30 4211 C 388.684 -4.62849 2.50314 0
M  V30 4212 O 387.71 -4.67922 3.24095 0
M  V30 4213 N 388.912 -5.58726 1.57499 0
M  V30 4214 H 391.677 -1.62745 2.51663 0
M  V30 4215 H 389.238 -0.753411 1.43302 0
M  V30 4216 H 391.23 -3.83803 1.28365 0
M  V30 4217 H 389.8 -3.07893 0.540445 0
M  V30 4218 H 389.02 -2.58455 2.97648 0
M  V30 4219 H 390.308 -3.67476 3.51907 0
M  V30 4220 H 389.706 -5.57376 0.966876 0
M  V30 4221 H 388.263 -6.34523 1.49078 0
M  V30 4222 N 391.696 -1.35014 -0.812953 0
M  V30 4223 C 392.626 -1.30069 -1.93919 0
M  V30 4224 C 393.607 -0.176275 -1.69184 0
M  V30 4225 O 394.792 -0.370227 -1.90638 0
M  V30 4226 C 391.922 -1.06547 -3.30552 0
M  V30 4227 C 390.876 -2.15561 -3.69753 0
M  V30 4228 C 390.202 -1.77214 -5.04479 0
M  V30 4229 C 391.502 -3.57476 -3.808 0
M  V30 4230 H 393.196 -2.24303 -1.98314 0
M  V30 4231 H 390.742 -1.07977 -0.952736 0
M  V30 4232 H 392.695 -1.01729 -4.08937 0
M  V30 4233 H 391.419 -0.0875719 -3.26483 0
M  V30 4234 H 390.078 -2.19466 -2.9365 0
M  V30 4235 H 389.726 -0.780589 -4.96906 0
M  V30 4236 H 389.426 -2.50184 -5.31678 0
M  V30 4237 H 390.95 -1.7391 -5.8531 0
M  V30 4238 H 392.364 -3.55929 -4.4943 0
M  V30 4239 H 390.761 -4.29152 -4.19462 0
M  V30 4240 H 391.831 -3.94091 -2.82525 0
M  V30 4241 N 393.175 1.03435 -1.18907 0
M  V30 4242 C 394.586 1.58195 -0.991523 0
M  V30 4243 C 394.937 1.90801 0.457081 0
M  V30 4244 O 394.062 1.70272 1.33553 0
M  V30 4245 C 394.657 2.87432 -1.79355 0
M  V30 4246 C 393.216 3.38785 -1.64017 0
M  V30 4247 C 392.363 2.12292 -1.78402 0
M  V30 4248 H 395.314 0.860299 -1.33359 0
M  V30 4249 H 395.335 3.58096 -1.28638 0
M  V30 4250 H 394.847 2.63669 -2.84781 0
M  V30 4251 H 392.948 3.67547 -0.611536 0
M  V30 4252 H 393.061 4.12186 -2.44212 0
M  V30 4253 H 391.425 2.23901 -1.2141 0
M  V30 4254 H 392.208 1.90977 -2.85277 0
M  V30 4255 N 394.653 0.992116 1.22453 0
M  V30 4256 C 395.901 0.666215 1.90804 0
M  V30 4257 C 396.222 -0.804152 1.77647 0
M  V30 4258 O 395.492 -1.57629 1.16318 0
M  V30 4259 H 394.072 0.243423 0.706225 0
M  V30 4260 H 396.734 1.25845 1.48825 0
M  V30 4261 H 395.83 0.928069 2.97982 0
M  V30 4262 N 396.131 -1.37776 0.765217 0
M  V30 4263 C 397.408 -1.93975 0.251596 0
M  V30 4264 C 397.788 -1.69949 -1.25222 0
M  V30 4265 O 397.136 -1.04457 -2.03226 0
M  V30 4266 C 397.346 -3.43487 0.617895 0
M  V30 4267 C 398.694 -4.20564 0.584029 0
M  V30 4268 O 399.718 -3.5182 0.556888 0
M  V30 4269 O 398.577 -5.43138 0.605291 0
M  V30 4270 H 395.671 -0.82509 0.0561806 0
M  V30 4271 H 398.217 -1.47101 0.846128 0
M  V30 4272 H 396.989 -3.5453 1.65602 0
M  V30 4273 H 396.612 -3.976 -0.00403411 0
M  V30 4274 N 397.609 -0.515225 -1.4894 0
M  V30 4275 C 398.557 0.269115 -2.31038 0
M  V30 4276 C 399.551 0.949443 -1.40292 0
M  V30 4277 O 400.757 0.87551 -1.57273 0
M  V30 4278 H 397.132 0.10565 -0.744542 0
M  V30 4279 H 399.103 -0.443096 -2.95092 0
M  V30 4280 C 397.852 1.31213 -3.21991 0
M  V30 4281 H 397.175 0.798034 -3.91754 0
M  V30 4282 H 398.615 1.83263 -3.82349 0
M  V30 4283 C 397.074 2.33791 -2.42576 0
M  V30 4284 O 397.604 3.3995 -2.14003 0
M  V30 4285 N 395.81 2.06625 -2.0434 0
M  V30 4286 H 395.357 1.20314 -2.27777 0
M  V30 4287 H 395.315 2.75483 -1.51514 0
M  V30 4288 N 399.087 1.5561 -0.249682 0
M  V30 4289 C 400.035 2.22894 0.664906 0
M  V30 4290 C 401.029 1.21743 1.17792 0
M  V30 4291 O 402.235 1.39748 1.13449 0
M  V30 4292 H 398.61 0.715022 0.232912 0
M  V30 4293 H 400.581 2.98307 0.0742998 0
M  V30 4294 C 399.33 2.94424 1.84959 0
M  V30 4295 H 398.653 3.72031 1.46399 0
M  V30 4296 H 400.093 3.44862 2.4667 0
M  V30 4297 C 398.552 1.98454 2.72245 0
M  V30 4298 O 399.082 1.51939 3.71857 0
M  V30 4299 N 397.288 1.65496 2.38871 0
M  V30 4300 H 396.835 2.03517 1.57919 0
M  V30 4301 H 396.793 1.0155 2.97548 0
M  V30 4302 N 400.565 -0.0233959 1.57583 0
M  V30 4303 C 401.513 -1.04063 2.08023 0
M  V30 4304 C 402.507 -1.37084 0.995204 0
M  V30 4305 O 403.713 -1.35923 1.18004 0
M  V30 4306 H 400.088 -0.353144 0.663922 0
M  V30 4307 H 402.059 -0.589453 2.9252 0
M  V30 4308 C 400.808 -2.33123 2.57971 0
M  V30 4309 H 400.131 -2.08577 3.4108 0
M  V30 4310 H 401.571 -3.02632 2.96967 0
M  V30 4311 C 400.03 -3.02483 1.48342 0
M  V30 4312 O 400.56 -3.92541 0.852898 0
M  V30 4313 N 398.766 -2.63909 1.21658 0
M  V30 4314 H 398.313 -1.90758 1.73116 0
M  V30 4315 H 398.271 -3.10633 0.485218 0
M  V30 4316 N 402.043 -1.548 -0.295768 0
M  V30 4317 C 402.991 -1.86874 -1.38495 0
M  V30 4318 C 403.985 -0.742938 -1.52239 0
M  V30 4319 O 405.191 -0.926999 -1.54294 0
M  V30 4320 H 401.566 -0.592786 -0.462719 0
M  V30 4321 H 403.537 -2.77904 -1.08682 0
M  V30 4322 C 402.286 -2.13732 -2.74252 0
M  V30 4323 H 401.609 -2.99835 -2.64459 0
M  V30 4324 H 403.049 -2.4011 -3.49461 0
M  V30 4325 C 401.508 -0.937539 -3.23592 0
M  V30 4326 O 402.038 -0.160665 -4.01379 0
M  V30 4327 N 400.244 -0.741478 -2.80981 0
M  V30 4328 H 399.791 -1.37489 -2.1784 0
M  V30 4329 H 399.749 0.0597103 -3.14343 0
M  V30 4330 N 403.521 0.559213 -1.47345 0
M  V30 4331 C 404.451 1.67622 -1.62558 0
M  V30 4332 C 405.432 1.63331 -0.475087 0
M  V30 4333 O 406.617 1.80983 -0.704182 0
M  V30 4334 C 403.747 3.0626 -1.63774 0
M  V30 4335 C 402.701 3.25397 -2.7803 0
M  V30 4336 C 402.027 4.64801 -2.64318 0
M  V30 4337 C 403.327 3.10965 -4.19641 0
M  V30 4338 H 405.021 1.55146 -2.56067 0
M  V30 4339 H 402.567 0.744961 -1.23233 0
M  V30 4340 H 404.52 3.84247 -1.73008 0
M  V30 4341 H 403.244 3.1969 -0.66825 0
M  V30 4342 H 401.903 2.49817 -2.68304 0
M  V30 4343 H 401.551 4.75028 -1.65401 0
M  V30 4344 H 401.251 4.78555 -3.40968 0
M  V30 4345 H 402.775 5.44926 -2.75478 0
M  V30 4346 H 404.189 3.78772 -4.30354 0
M  V30 4347 H 402.586 3.36229 -4.97062 0
M  V30 4348 H 403.656 2.07736 -4.38148 0
M  V30 4349 N 404.999 1.35443 0.805782 0
M  V30 4350 C 406.229 1.31687 1.59192 0
M  V30 4351 C 406.637 -0.10756 1.88894 0
M  V30 4352 O 405.98 -1.07017 1.49309 0
M  V30 4353 C 406.042 2.05686 2.94845 0
M  V30 4354 C 405.706 3.54868 2.87954 0
M  V30 4355 C 406.703 4.49444 2.61335 0
M  V30 4356 C 404.388 3.97528 3.07046 0
M  V30 4357 C 406.382 5.84655 2.53885 0
M  V30 4358 C 404.069 5.32833 2.99219 0
M  V30 4359 C 405.067 6.26209 2.72674 0
M  V30 4360 O 404.755 7.59032 2.64811 0
M  V30 4361 H 404.487 0.453878 0.50097 0
M  V30 4362 H 407.041 1.78892 1.0093 0
M  V30 4363 H 405.271 1.5312 3.55093 0
M  V30 4364 H 406.96 1.94998 3.55993 0
M  V30 4365 H 407.726 4.17804 2.46303 0
M  V30 4366 H 403.605 3.25233 3.26718 0
M  V30 4367 H 407.149 6.57508 2.33086 0
M  V30 4368 H 403.046 5.64087 3.13809 0
M  V30 4369 H 403.814 7.68967 2.80413 0
M  V30 4370 N 406.477 -1.02803 1.19454 0
M  V30 4371 C 407.725 -1.75869 0.995722 0
M  V30 4372 C 408.046 -1.89138 -0.474543 0
M  V30 4373 O 407.316 -1.42558 -1.34366 0
M  V30 4374 H 405.896 -0.651511 0.365435 0
M  V30 4375 H 408.558 -1.24004 1.50363 0
M  V30 4376 H 407.654 -2.76661 1.44447 0
M  V30 4377 N 407.956 -0.998596 -1.21925 0
M  V30 4378 C 408.906 -0.524743 -2.21879 0
M  V30 4379 C 409.89 0.41017 -1.55584 0
M  V30 4380 O 411.082 0.236063 -1.75419 0
M  V30 4381 C 408.211 0.153636 -3.42956 0
M  V30 4382 C 407.297 -0.801918 -4.16449 0
M  V30 4383 N 407.688 -1.95211 -4.66611 0
M  V30 4384 C 405.986 -0.618972 -4.41684 0
M  V30 4385 C 406.687 -2.55234 -5.22715 0
M  V30 4386 N 405.663 -1.83451 -5.1171 0
M  V30 4387 H 409.465 -1.40189 -2.58311 0
M  V30 4388 H 406.979 -0.86159 -1.3766 0
M  V30 4389 H 408.976 0.510534 -4.13762 0
M  V30 4390 H 407.636 1.02684 -3.08036 0
M  V30 4391 H 408.647 -2.33271 -4.62391 0
M  V30 4392 H 405.324 0.207694 -4.16983 0
M  V30 4393 H 406.714 -3.52471 -5.72026 0
M  V30 4394 N 409.434 1.37368 -0.772513 0
M  V30 4395 C 410.366 2.28899 -0.117502 0
M  V30 4396 C 411.379 1.4867 0.663405 0
M  V30 4397 O 412.568 1.71314 0.501372 0
M  V30 4398 C 409.668 3.2788 0.857192 0
M  V30 4399 C 408.841 4.37207 0.129938 0
M  V30 4400 C 407.9 5.16257 1.01811 0
M  V30 4401 O 406.926 5.67159 0.481601 0
M  V30 4402 N 408.128 5.31058 2.3443 0
M  V30 4403 H 410.893 2.85752 -0.903662 0
M  V30 4404 H 408.454 1.49353 -0.62493 0
M  V30 4405 H 410.446 3.77647 1.45482 0
M  V30 4406 H 409.016 2.7179 1.54432 0
M  V30 4407 H 408.236 3.88827 -0.648605 0
M  V30 4408 H 409.524 5.07434 -0.372559 0
M  V30 4409 H 408.922 4.91287 2.80452 0
M  V30 4410 H 407.479 5.84131 2.89197 0
M  V30 4411 N 410.912 0.523116 1.48665 0
M  V30 4412 C 412.14 -0.0096312 2.06898 0
M  V30 4413 C 412.555 -1.28784 1.38059 0
M  V30 4414 O 411.912 -1.76453 0.465893 0
M  V30 4415 C 411.963 -0.244386 3.60673 0
M  V30 4416 O 411.684 0.983172 4.26925 0
M  V30 4417 C 413.185 -0.818289 4.35682 0
M  V30 4418 H 410.405 0.0304161 0.67031 0
M  V30 4419 H 412.949 0.726799 1.91149 0
M  V30 4420 H 411.104 -0.930847 3.76051 0
M  V30 4421 H 411.518 0.759653 5.1897 0
M  V30 4422 H 412.992 -0.93201 5.44075 0
M  V30 4423 H 413.469 -1.82153 3.99646 0
M  V30 4424 H 414.075 -0.168609 4.24966 0
M  V30 4425 N 412.39 -1.55475 0.257931 0
M  V30 4426 C 413.637 -1.99207 -0.363728 0
M  V30 4427 C 413.965 -1.1462 -1.57139 0
M  V30 4428 O 413.22 -0.199653 -1.94679 0
M  V30 4429 C 413.519 -3.48183 -0.806433 0
M  V30 4430 C 413.185 -4.49936 0.294684 0
M  V30 4431 C 411.847 -4.77481 0.597076 0
M  V30 4432 C 414.199 -5.10769 1.03751 0
M  V30 4433 C 411.527 -5.63132 1.64618 0
M  V30 4434 C 413.879 -5.97558 2.07622 0
M  V30 4435 C 412.543 -6.23432 2.38514 0
M  V30 4436 H 411.813 -0.728949 -0.133097 0
M  V30 4437 H 414.46 -1.8793 0.368059 0
M  V30 4438 H 412.765 -3.56848 -1.61761 0
M  V30 4439 H 414.462 -3.79415 -1.29789 0
M  V30 4440 H 411.052 -4.28572 0.0488649 0
M  V30 4441 H 415.236 -4.89527 0.817149 0
M  V30 4442 H 410.492 -5.8143 1.89074 0
M  V30 4443 H 414.666 -6.43735 2.65666 0
M  V30 4444 H 412.293 -6.89594 3.19943 0
M  V30 4445 N 413.868 0.0150385 -1.57593 0
M  V30 4446 C 415.115 0.703001 -1.89906 0
M  V30 4447 C 415.443 1.74604 -0.856944 0
M  V30 4448 O 414.698 1.95197 0.140287 0
M  V30 4449 C 414.997 1.39686 -3.28972 0
M  V30 4450 C 414.663 0.488457 -4.48246 0
M  V30 4451 C 413.325 0.2383 -4.8061 0
M  V30 4452 C 415.677 -0.137881 -5.21018 0
M  V30 4453 C 413.005 -0.646738 -5.83125 0
M  V30 4454 C 415.357 -1.0107 -6.24474 0
M  V30 4455 C 414.021 -1.27019 -6.55303 0
M  V30 4456 H 413.291 0.257246 -0.694914 0
M  V30 4457 H 415.938 -0.037259 -1.91464 0
M  V30 4458 H 414.243 2.21079 -3.23468 0
M  V30 4459 H 415.94 1.93495 -3.51227 0
M  V30 4460 H 412.53 0.693593 -4.22951 0
M  V30 4461 H 416.714 0.0423953 -4.96282 0
M  V30 4462 H 411.97 -0.855937 -6.05379 0
M  V30 4463 H 416.144 -1.50247 -6.79999 0
M  V30 4464 H 413.771 -1.95769 -7.3456 0
M  V30 4465 N 415.346 1.54954 0.287554 0
M  V30 4466 C 416.279 1.81737 1.3801 0
M  V30 4467 C 417.257 0.669412 1.48181 0
M  V30 4468 O 418.441 0.910839 1.65033 0
M  V30 4469 C 415.568 1.96606 2.75796 0
M  V30 4470 C 414.614 3.19098 2.82982 0
M  V30 4471 S 415.447 4.7683 2.43707 0
M  V30 4472 C 416.603 4.94653 3.83496 0
M  V30 4473 H 416.836 2.74122 1.15085 0
M  V30 4474 H 414.369 1.46538 0.486403 0
M  V30 4475 H 416.327 2.05858 3.55152 0
M  V30 4476 H 414.988 1.05136 2.95982 0
M  V30 4477 H 414.181 3.26344 3.84077 0
M  V30 4478 H 413.783 3.08361 2.11635 0
M  V30 4479 H 416.075 4.79502 4.78628 0
M  V30 4480 H 417.018 5.96728 3.8121 0
M  V30 4481 H 417.426 4.2272 3.74123 0
M  V30 4482 N 416.824 -0.551391 1.4764 0
M  V30 4483 C 418.064 -1.31901 1.56145 0
M  V30 4484 C 418.428 -1.90724 0.221013 0
M  V30 4485 O 419.629 -2.6819 0.180945 0
M  V30 4486 C 417.9 -2.39517 2.65267 0
M  V30 4487 S 419.459 -3.26289 2.93395 0
M  V30 4488 H 416.277 -0.448965 0.551318 0
M  V30 4489 H 418.879 -0.630599 1.85051 0
M  V30 4490 H 417.583 -1.94747 3.6125 0
M  V30 4491 H 417.114 -3.13092 2.38195 0
M  V30 4492 H 419.129 -4.39122 2.31055 0
M  V30 4493 N 418.302 -1.35869 -0.798587 0
M  V30 4494 C 419.551 -1.28921 -1.5512 0
M  V30 4495 C 419.864 0.13208 -1.95154 0
M  V30 4496 O 421.07 0.323879 -2.69561 0
M  V30 4497 C 419.526 -2.26141 -2.79979 0
M  V30 4498 C 419.134 -3.73658 -2.47151 0
M  V30 4499 C 420.878 -2.28152 -3.57976 0
M  V30 4500 C 418.785 -4.62679 -3.6835 0
M  V30 4501 H 417.715 -0.479031 -0.582276 0
M  V30 4502 H 420.366 -1.61179 -0.877125 0
M  V30 4503 H 418.748 -1.86865 -3.49138 0
M  V30 4504 H 419.922 -4.21616 -1.85947 0
M  V30 4505 H 418.237 -3.74333 -1.82383 0
M  V30 4506 H 420.834 -2.91875 -4.4801 0
M  V30 4507 H 421.177 -1.28748 -3.95891 0
M  V30 4508 H 421.71 -2.65998 -2.95787 0
M  V30 4509 H 418.449 -5.63111 -3.35538 0
M  V30 4510 H 417.969 -4.19442 -4.28752 0
M  V30 4511 H 419.648 -4.78498 -4.35487 0
M  V30 4512 N 419.78 1.02168 -1.19998 0
M  V30 4513 C 420.69 2.14069 -0.959774 0
M  V30 4514 C 421.706 1.73804 0.082655 0
M  V30 4515 O 422.882 2.01133 -0.103633 0
M  V30 4516 C 419.947 3.42936 -0.509459 0
M  V30 4517 C 419.008 3.97474 -1.62213 0
M  V30 4518 C 418.241 5.2019 -1.19321 0
M  V30 4519 O 418.464 5.70369 -0.0597726 0
M  V30 4520 O 417.398 5.67749 -1.99863 0
M  V30 4521 H 421.224 2.37199 -1.89658 0
M  V30 4522 H 418.809 1.12469 -0.983411 0
M  V30 4523 H 420.691 4.20551 -0.267322 0
M  V30 4524 H 419.366 3.21234 0.398821 0
M  V30 4525 H 418.273 3.21161 -1.9185 0
M  V30 4526 H 419.606 4.23555 -2.50723 0
M  V30 4527 N 421.258 1.00505 1.21394 0
M  V30 4528 C 422.535 0.603277 1.86064 0
M  V30 4529 C 422.915 -0.919095 1.90042 0
M  V30 4530 O 422.263 -1.80607 1.39977 0
M  V30 4531 C 422.473 1.23772 3.26315 0
M  V30 4532 C 423.821 1.34586 4.02705 0
M  V30 4533 O 424.845 1.19304 3.35626 0
M  V30 4534 O 423.704 1.59169 5.22807 0
M  V30 4535 H 420.798 0.206634 0.800769 0
M  V30 4536 H 423.344 1.1017 1.29076 0
M  V30 4537 H 422.116 2.27848 3.18121 0
M  V30 4538 H 421.739 0.725648 3.90922 0
M  V30 4539 N 422.737 -1.36956 0.779787 0
M  V30 4540 C 423.965 -2.03755 0.359398 0
M  V30 4541 C 424.38 -1.58807 -1.02106 0
M  V30 4542 O 423.737 -0.773024 -1.6532 0
M  V30 4543 C 423.788 -3.59251 0.402568 0
M  V30 4544 O 423.509 -4.02557 1.72858 0
M  V30 4545 C 425.01 -4.43291 -0.0284068 0
M  V30 4546 H 422.23 -0.654148 0.149437 0
M  V30 4547 H 424.774 -1.75128 1.05595 0
M  V30 4548 H 422.929 -3.86621 -0.245478 0
M  V30 4549 H 423.343 -4.97111 1.67275 0
M  V30 4550 H 424.817 -5.51975 0.0529466 0
M  V30 4551 H 425.294 -4.25719 -1.07982 0
M  V30 4552 H 425.9 -4.21163 0.591758 0
M  V30 4553 N 424.215 -0.530993 -1.48385 0
M  V30 4554 C 425.44 0.000729535 -2.074 0
M  V30 4555 C 425.865 1.27298 -1.3848 0
M  V30 4556 O 425.223 1.75599 -0.451081 0
M  V30 4557 C 425.271 0.206697 -3.60007 0
M  V30 4558 O 424.375 1.27514 -3.92191 0
M  V30 4559 H 423.716 -0.039583 -0.662819 0
M  V30 4560 H 426.246 -0.739194 -1.9078 0
M  V30 4561 H 426.256 0.42904 -4.05738 0
M  V30 4562 H 424.931 -0.722675 -4.09573 0
M  V30 4563 H 423.508 1.03537 -3.58238 0
M  V30 4564 N 425.693 1.55336 -0.266172 0
M  V30 4565 C 426.941 1.99003 0.35246 0
M  V30 4566 C 427.262 1.15591 1.57047 0
M  V30 4567 O 426.532 0.243268 1.94384 0
M  V30 4568 H 425.112 0.735025 0.133217 0
M  V30 4569 H 427.774 1.91367 -0.369434 0
M  V30 4570 H 426.87 3.05289 0.648453 0
M  V30 4571 N 427.171 -0.0066808 1.57599 0
M  V30 4572 C 428.118 -1.00024 2.08 0
M  V30 4573 C 429.088 -1.34549 0.973943 0
M  V30 4574 O 430.273 -1.44502 1.24595 0
M  V30 4575 C 427.413 -2.2891 2.58252 0
M  V30 4576 C 426.526 -2.00346 3.82734 0
M  V30 4577 C 425.661 -3.23265 4.21513 0
M  V30 4578 C 424.7 -2.90357 5.3885 0
M  V30 4579 N 423.837 -4.05793 5.72954 0
M  V30 4580 H 428.677 -0.563499 2.92624 0
M  V30 4581 H 426.214 -0.266592 1.44664 0
M  V30 4582 H 428.172 -3.04247 2.85464 0
M  V30 4583 H 426.802 -2.70265 1.76512 0
M  V30 4584 H 425.854 -1.15406 3.62471 0
M  V30 4585 H 427.166 -1.72086 4.68175 0
M  V30 4586 H 426.32 -4.06953 4.49971 0
M  V30 4587 H 425.059 -3.54657 3.34768 0
M  V30 4588 H 424.064 -2.05075 5.10122 0
M  V30 4589 H 425.289 -2.60219 6.27266 0
M  V30 4590 H 423.235 -4.37094 4.89167 0
M  V30 4591 H 423.152 -3.81034 6.52954 0
M  V30 4592 H 424.42 -4.90289 6.06001 0
M  V30 4593 N 428.649 -1.55105 -0.279332 0
M  V30 4594 C 429.874 -1.7976 -1.03446 0
M  V30 4595 C 430.299 -0.565952 -1.79384 0
M  V30 4596 O 429.657 0.484259 -1.74713 0
M  V30 4597 C 429.705 -3.0179 -1.97371 0
M  V30 4598 O 428.809 -2.76432 -3.06038 0
M  V30 4599 H 428.15 -0.594334 -0.29608 0
M  V30 4600 H 430.68 -2.02235 -0.310165 0
M  V30 4601 H 430.69 -3.30351 -2.39441 0
M  V30 4602 H 429.365 -3.91085 -1.4151 0
M  V30 4603 H 427.942 -2.58949 -2.68328 0
M  V30 4604 N 430.127 0.543554 -1.4793 0
M  V30 4605 C 431.374 1.30008 -1.55255 0
M  V30 4606 C 431.702 1.93245 -0.220612 0
M  V30 4607 O 430.957 1.79141 0.787843 0
M  V30 4608 C 431.256 2.42078 -2.62932 0
M  V30 4609 C 430.922 1.96583 -4.0579 0
M  V30 4610 C 429.584 1.83893 -4.44676 0
M  V30 4611 C 431.936 1.62034 -4.95373 0
M  V30 4612 C 429.264 1.34969 -5.70964 0
M  V30 4613 C 431.616 1.14577 -6.22137 0
M  V30 4614 C 430.28 1.00493 -6.59892 0
M  V30 4615 H 429.55 0.475735 -0.568117 0
M  V30 4616 H 432.197 0.608075 -1.81589 0
M  V30 4617 H 430.502 3.16892 -2.30406 0
M  V30 4618 H 432.199 3.00236 -2.65818 0
M  V30 4619 H 428.789 2.07407 -3.75074 0
M  V30 4620 H 432.973 1.70705 -4.66019 0
M  V30 4621 H 428.229 1.2274 -5.98953 0
M  V30 4622 H 432.403 0.869109 -6.90955 0
M  V30 4623 H 430.03 0.623624 -7.57638 0
M  V30 4624 N 431.605 1.3629 0.791371 0
M  V30 4625 C 432.853 1.30154 1.5461 0
M  V30 4626 C 433.174 -0.119409 1.94634 0
M  V30 4627 O 432.444 -1.05924 1.64794 0
M  V30 4628 H 431.024 0.478784 0.573389 0
M  V30 4629 H 433.686 1.70565 0.94306 0
M  V30 4630 H 432.782 1.92762 2.45457 0
M  V30 4631 N 433.083 -1.0153 1.20538 0
M  V30 4632 C 434.329 -1.75408 1.01783 0
M  V30 4633 C 434.662 -1.88943 -0.448814 0
M  V30 4634 O 433.937 -1.4162 -1.33319 0
M  V30 4635 C 434.22 -3.17255 1.70356 0
M  V30 4636 C 434.073 -3.11508 3.24473 0
M  V30 4637 C 435.392 -4.15955 1.43769 0
M  V30 4638 H 432.511 -0.636713 0.371167 0
M  V30 4639 H 435.153 -1.18436 1.4857 0
M  V30 4640 H 433.303 -3.65898 1.30578 0
M  V30 4641 H 434.975 -2.70658 3.73553 0
M  V30 4642 H 433.218 -2.4887 3.55311 0
M  V30 4643 H 433.889 -4.11784 3.67611 0
M  V30 4644 H 436.365 -3.75973 1.7828 0
M  V30 4645 H 435.241 -5.13368 1.94279 0
M  V30 4646 H 435.502 -4.40586 0.365564 0
M  V30 4647 N 434.561 -1.01147 -1.20859 0
M  V30 4648 C 435.808 -0.697865 -1.90095 0
M  V30 4649 C 436.136 0.772014 -1.78522 0
M  V30 4650 O 435.391 1.57595 -1.16027 0
M  V30 4651 C 435.69 -1.0727 -3.40922 0
M  V30 4652 C 435.356 -2.53792 -3.72693 0
M  V30 4653 C 434.018 -2.93829 -3.81075 0
M  V30 4654 C 436.37 -3.48674 -3.87397 0
M  V30 4655 C 433.698 -4.27696 -4.01613 0
M  V30 4656 C 436.05 -4.82223 -4.09444 0
M  V30 4657 C 434.714 -5.21973 -4.16054 0
M  V30 4658 H 433.984 -0.255367 -0.695607 0
M  V30 4659 H 436.631 -1.27111 -1.43231 0
M  V30 4660 H 434.936 -0.417799 -3.89566 0
M  V30 4661 H 436.633 -0.807818 -3.92779 0
M  V30 4662 H 433.223 -2.21768 -3.66765 0
M  V30 4663 H 437.407 -3.18904 -3.80281 0
M  V30 4664 H 432.663 -4.58055 -4.04964 0
M  V30 4665 H 436.837 -5.55672 -4.19763 0
M  V30 4666 H 434.464 -6.25717 -4.31721 0
M  V30 4667 N 436.039 1.36541 -0.78704 0
M  V30 4668 C 436.969 2.32659 -0.197992 0
M  V30 4669 C 437.95 1.56533 0.665697 0
M  V30 4670 O 439.135 1.84698 0.60001 0
M  V30 4671 C 436.265 3.40778 0.669901 0
M  V30 4672 C 435.219 4.27897 -0.0937039 0
M  V30 4673 C 434.545 5.27163 0.894629 0
M  V30 4674 C 435.845 5.06334 -1.28154 0
M  V30 4675 H 437.539 2.82171 -1.00099 0
M  V30 4676 H 435.085 1.35665 -0.482793 0
M  V30 4677 H 437.038 4.07008 1.09191 0
M  V30 4678 H 435.762 2.89827 1.50558 0
M  V30 4679 H 434.421 3.6322 -0.49666 0
M  V30 4680 H 434.069 4.72486 1.72527 0
M  V30 4681 H 433.769 5.86317 0.388149 0
M  V30 4682 H 435.293 5.96266 1.31525 0
M  V30 4683 H 436.707 5.65617 -0.93541 0
M  V30 4684 H 435.104 5.74888 -1.72115 0
M  V30 4685 H 436.174 4.38114 -2.07807 0
M  V30 4686 N 437.518 0.538854 1.48102 0
M  V30 4687 C 438.451 -0.266495 2.26639 0
M  V30 4688 C 439.429 -0.93687 1.32897 0
M  V30 4689 O 440.613 -0.959507 1.62252 0
M  V30 4690 C 437.74 -1.37814 3.09394 0
M  V30 4691 C 436.786 -0.818247 4.18577 0
M  V30 4692 S 437.619 0.320848 5.34538 0
M  V30 4693 C 438.775 -0.793059 6.20855 0
M  V30 4694 H 439.008 0.399994 2.94597 0
M  V30 4695 H 436.541 0.324808 1.50945 0
M  V30 4696 H 438.499 -2.01488 3.57649 0
M  V30 4697 H 437.16 -2.01639 2.40833 0
M  V30 4698 H 436.353 -1.65247 4.7614 0
M  V30 4699 H 435.955 -0.258036 3.73109 0
M  V30 4700 H 438.247 -1.68961 6.56093 0
M  V30 4701 H 439.19 -0.255204 7.0764 0
M  V30 4702 H 439.598 -1.07746 5.54122 0
M  V30 4703 N 438.996 -1.55193 0.274407 0
M  V30 4704 C 439.944 -2.23924 -0.629362 0
M  V30 4705 C 440.938 -1.23602 -1.1584 0
M  V30 4706 O 442.144 -1.41535 -1.11211 0
M  V30 4707 H 438.519 -0.718637 -0.221507 0
M  V30 4708 H 440.49 -2.98388 -0.0268322 0
M  V30 4709 C 439.239 -2.97329 -1.80252 0
M  V30 4710 H 438.562 -3.74313 -1.40462 0
M  V30 4711 H 440.002 -3.48743 -2.41152 0
M  V30 4712 C 438.461 -2.0276 -2.69054 0
M  V30 4713 O 438.991 -1.57836 -3.69392 0
M  V30 4714 N 437.197 -1.69275 -2.36208 0
M  V30 4715 H 436.744 -2.06004 -1.54661 0
M  V30 4716 H 436.702 -1.06271 -2.95895 0
M  V30 4717 N 440.474 -0.00167713 -1.576 0
M  V30 4718 C 441.699 0.69739 -1.95323 0
M  V30 4719 C 442.124 1.6642 -0.876706 0
M  V30 4720 O 441.482 1.80548 0.165007 0
M  V30 4721 C 441.53 1.40403 -3.32144 0
M  V30 4722 O 440.634 2.5185 -3.26566 0
M  V30 4723 H 439.975 0.185373 -0.637599 0
M  V30 4724 H 442.505 -0.0553665 -2.04525 0
M  V30 4725 H 442.515 1.76707 -3.67748 0
M  V30 4726 H 441.19 0.695167 -4.10049 0
M  V30 4727 H 439.767 2.17861 -3.0264 0
M  V30 4728 N 441.952 1.55251 0.271103 0
M  V30 4729 C 442.9 1.89054 1.35504 0
M  V30 4730 C 443.894 0.767064 1.51038 0
M  V30 4731 O 445.1 0.951429 1.528 0
M  V30 4732 H 441.475 0.600072 0.45323 0
M  V30 4733 H 443.446 2.79598 1.04247 0
M  V30 4734 C 442.195 2.18068 2.70817 0
M  V30 4735 H 441.518 3.04005 2.59656 0
M  V30 4736 H 442.958 2.4564 3.45597 0
M  V30 4737 C 441.417 0.988901 3.2206 0
M  V30 4738 O 441.947 0.224501 4.01072 0
M  V30 4739 N 440.153 0.786085 2.79766 0
M  V30 4740 H 439.7 1.40937 2.15626 0
M  V30 4741 H 439.658 -0.00969349 3.14399 0
M  V30 4742 N 443.43 -0.535701 1.48216 0
M  V30 4743 C 444.393 -1.623 1.61838 0
M  V30 4744 C 445.393 -1.53087 0.492024 0
M  V30 4745 O 446.583 -1.5686 0.757668 0
M  V30 4746 C 443.715 -3.01907 1.58319 0
M  V30 4747 H 444.908 -1.51564 2.58783 0
M  V30 4748 H 442.461 -0.757317 1.36727 0
M  V30 4749 H 443.196 -3.18155 0.628299 0
M  V30 4750 H 442.981 -3.10003 2.40085 0
M  V30 4751 H 444.471 -3.80969 1.71033 0
M  V30 4752 N 444.908 -1.36708 -0.784132 0
M  V30 4753 C 445.841 -1.25827 -1.90375 0
M  V30 4754 C 446.819 -0.141331 -1.61985 0
M  V30 4755 O 448.003 -0.313389 -1.85877 0
M  V30 4756 C 445.13 -0.942621 -3.25319 0
M  V30 4757 C 444.176 -2.07474 -3.72635 0
M  V30 4758 S 445.009 -3.69317 -3.8777 0
M  V30 4759 C 446.165 -3.39876 -5.25581 0
M  V30 4760 H 446.398 -2.20593 -1.99314 0
M  V30 4761 H 443.931 -1.22186 -0.943926 0
M  V30 4762 H 445.889 -0.767321 -4.03265 0
M  V30 4763 H 444.55 -0.0126566 -3.14097 0
M  V30 4764 H 443.743 -1.80858 -4.70432 0
M  V30 4765 H 443.345 -2.20953 -3.01754 0
M  V30 4766 H 445.637 -2.94097 -6.10339 0
M  V30 4767 H 446.58 -4.36956 -5.57203 0
M  V30 4768 H 446.988 -2.75098 -4.92931 0
M  V30 4769 N 446.386 1.0089 -1.21074 0
M  V30 4770 C 447.296 2.13039 -0.982425 0
M  V30 4771 C 448.312 1.73881 0.0642161 0
M  V30 4772 O 449.488 2.01012 -0.12496 0
M  V30 4773 C 446.553 3.42377 -0.545803 0
M  V30 4774 C 445.614 3.95731 -1.6642 0
M  V30 4775 C 444.847 5.18896 -1.24832 0
M  V30 4776 O 445.07 5.70273 -0.120265 0
M  V30 4777 O 444.004 5.65597 -2.05873 0
M  V30 4778 H 447.83 2.35175 -1.92163 0
M  V30 4779 H 445.415 1.1142 -0.995285 0
M  V30 4780 H 447.297 4.20244 -0.311912 0
M  V30 4781 H 445.972 3.21639 0.364727 0
M  V30 4782 H 444.879 3.19108 -1.95246 0
M  V30 4783 H 446.212 4.20872 -2.55201 0
M  V30 4784 N 447.864 1.01787 1.20321 0
M  V30 4785 C 449.113 0.703249 1.89043 0
M  V30 4786 C 449.426 -0.770445 1.79787 0
M  V30 4787 O 450.632 -1.19767 2.43656 0
M  V30 4788 C 449.088 1.20749 3.3904 0
M  V30 4789 C 448.696 2.70817 3.56878 0
M  V30 4790 C 450.44 0.968352 4.13308 0
M  V30 4791 C 448.347 3.14716 5.00708 0
M  V30 4792 H 447.277 0.259354 0.707991 0
M  V30 4793 H 449.928 1.23072 1.36108 0
M  V30 4794 H 448.31 0.607989 3.91305 0
M  V30 4795 H 449.484 3.36327 3.14993 0
M  V30 4796 H 447.799 2.92888 2.95983 0
M  V30 4797 H 450.396 1.27173 5.19356 0
M  V30 4798 H 450.739 -0.095149 4.16191 0
M  V30 4799 H 451.272 1.53129 3.67146 0
M  V30 4800 H 448.011 4.20347 5.02979 0
M  V30 4801 H 447.531 2.53927 5.43398 0
M  V30 4802 H 449.21 3.07426 5.69296 0
M  V30 4803 N 449.342 -1.36122 0.79427 0
M  V30 4804 C 450.589 -1.99111 0.368905 0
M  V30 4805 C 450.917 -1.63032 -1.0607 0
M  V30 4806 O 450.172 -0.879303 -1.74833 0
M  V30 4807 C 450.471 -3.5409 0.48527 0
M  V30 4808 C 450.137 -4.10003 1.87638 0
M  V30 4809 C 448.799 -4.24986 2.257 0
M  V30 4810 C 451.151 -4.40423 2.78706 0
M  V30 4811 C 448.479 -4.67701 3.54221 0
M  V30 4812 C 450.831 -4.84573 4.0666 0
M  V30 4813 C 449.495 -4.97761 4.44737 0
M  V30 4814 H 448.765 -0.7286 0.134992 0
M  V30 4815 H 451.412 -1.62534 1.01267 0
M  V30 4816 H 449.717 -3.91052 -0.241984 0
M  V30 4817 H 451.414 -4.00766 0.137109 0
M  V30 4818 H 448.004 -3.98784 1.57064 0
M  V30 4819 H 452.188 -4.28412 2.50553 0
M  V30 4820 H 447.444 -4.761 3.83587 0
M  V30 4821 H 451.618 -5.07074 4.77336 0
M  V30 4822 H 449.245 -5.30618 5.44379 0
M  V30 4823 N 450.82 -0.546701 -1.47814 0
M  V30 4824 C 452.069 -0.0166497 -2.01693 0
M  V30 4825 C 452.382 1.33721 -1.42752 0
M  V30 4826 O 453.588 1.95658 -1.8823 0
M  V30 4827 C 452.044 0.0206769 -3.59894 0
M  V30 4828 C 451.652 -1.3293 -4.27824 0
M  V30 4829 C 453.396 0.498674 -4.21561 0
M  V30 4830 C 451.303 -1.25165 -5.78003 0
M  V30 4831 H 450.233 -0.0024541 -0.753996 0
M  V30 4832 H 452.884 -0.692984 -1.69912 0
M  V30 4833 H 451.266 0.76244 -3.88591 0
M  V30 4834 H 452.44 -2.08795 -4.10781 0
M  V30 4835 H 450.755 -1.74438 -3.78101 0
M  V30 4836 H 453.352 0.575 -5.31599 0
M  V30 4837 H 453.695 1.5083 -3.88016 0
M  V30 4838 H 454.228 -0.18791 -3.97356 0
M  V30 4839 H 450.967 -2.23695 -6.1615 0
M  V30 4840 H 450.487 -0.53464 -5.97412 0
M  V30 4841 H 452.166 -0.949299 -6.39998 0
M  V30 4842 N 452.299 1.55045 -0.282633 0
M  V30 4843 C 453.231 2.2023 0.634924 0
M  V30 4844 C 454.244 1.18931 1.11172 0
M  V30 4845 O 455.433 1.4562 1.03233 0
M  V30 4846 C 452.533 2.82041 1.87899 0
M  V30 4847 C 451.706 4.091 1.54776 0
M  V30 4848 C 450.765 4.54887 2.64507 0
M  V30 4849 O 449.791 5.20496 2.30375 0
M  V30 4850 N 450.993 4.25659 3.94709 0
M  V30 4851 H 453.758 2.99601 0.0769811 0
M  V30 4852 H 451.319 1.61565 -0.104048 0
M  V30 4853 H 453.311 3.09613 2.60619 0
M  V30 4854 H 451.881 2.06618 2.3458 0
M  V30 4855 H 451.101 3.88736 0.654049 0
M  V30 4856 H 452.389 4.9187 1.30158 0
M  V30 4857 H 451.787 3.7306 4.25256 0
M  V30 4858 H 450.344 4.57984 4.63782 0
M  V30 4859 N 453.777 0.010035 1.57597 0
M  V30 4860 C 455.188 -0.531426 1.78977 0
M  V30 4861 C 455.539 -1.73375 0.918454 0
M  V30 4862 O 454.664 -2.16047 0.123635 0
M  V30 4863 C 455.259 -0.97086 3.24592 0
M  V30 4864 C 453.818 -1.45756 3.47033 0
M  V30 4865 C 452.965 -0.413384 2.74201 0
M  V30 4866 H 455.916 0.236166 1.56933 0
M  V30 4867 H 455.937 -1.83633 3.33255 0
M  V30 4868 H 455.449 -0.0955893 3.87982 0
M  V30 4869 H 453.55 -2.35339 2.88871 0
M  V30 4870 H 453.663 -1.4781 4.55729 0
M  V30 4871 H 452.027 -0.877266 2.39115 0
M  V30 4872 H 452.81 0.453092 3.40297 0
M  V30 4873 N 455.255 -1.55392 -0.262866 0
M  V30 4874 C 456.483 -1.80513 -1.01108 0
M  V30 4875 C 456.898 -0.583533 -1.79556 0
M  V30 4876 O 456.255 0.447585 -1.76926 0
M  V30 4877 C 456.306 -3.03648 -1.96164 0
M  V30 4878 O 456.027 -4.2109 -1.20893 0
M  V30 4879 C 457.528 -3.41448 -2.82715 0
M  V30 4880 H 454.748 -0.601079 -0.298236 0
M  V30 4881 H 457.292 -2.02425 -0.290582 0
M  V30 4882 H 455.447 -2.83832 -2.63663 0
M  V30 4883 H 455.861 -4.90771 -1.85051 0
M  V30 4884 H 457.335 -4.30751 -3.45192 0
M  V30 4885 H 457.812 -2.61308 -3.53008 0
M  V30 4886 H 458.418 -3.63559 -2.20693 0
M  V30 4887 N 456.733 0.527833 -1.48498 0
M  V30 4888 C 458.144 1.10975 -1.50138 0
M  V30 4889 C 458.495 1.943 -0.272378 0
M  V30 4890 O 457.62 2.07319 0.620301 0
M  V30 4891 C 458.215 2.01927 -2.72049 0
M  V30 4892 C 456.774 2.55332 -2.76554 0
M  V30 4893 C 455.921 1.32341 -2.43683 0
M  V30 4894 H 458.872 0.312986 -1.55583 0
M  V30 4895 H 458.893 2.86244 -2.50689 0
M  V30 4896 H 458.405 1.41254 -3.61481 0
M  V30 4897 H 456.506 3.19721 -1.91336 0
M  V30 4898 H 456.619 2.94319 -3.78038 0
M  V30 4899 H 454.983 1.63989 -1.94884 0
M  V30 4900 H 455.766 0.734165 -3.35358 0
M  V30 4901 N 458.211 1.37122 0.776871 0
M  V30 4902 C 459.46 1.31373 1.53049 0
M  V30 4903 C 459.773 -0.101016 1.95339 0
M  V30 4904 O 460.979 -0.280953 2.70042 0
M  V30 4905 C 459.435 2.30567 2.76346 0
M  V30 4906 C 459.043 3.77543 2.41175 0
M  V30 4907 C 460.787 2.33818 3.54301 0
M  V30 4908 C 458.694 4.68481 3.60943 0
M  V30 4909 H 457.624 0.488234 0.574581 0
M  V30 4910 H 460.275 1.62554 0.851372 0
M  V30 4911 H 458.657 1.92396 3.46121 0
M  V30 4912 H 459.831 4.24521 1.79216 0
M  V30 4913 H 458.146 3.77187 1.76405 0
M  V30 4914 H 460.743 2.98965 4.4331 0
M  V30 4915 H 461.086 1.3503 3.93793 0
M  V30 4916 H 461.619 2.7067 2.91518 0
M  V30 4917 H 458.358 5.68378 3.26537 0
M  V30 4918 H 457.878 4.2621 4.22025 0
M  V30 4919 H 459.557 4.85366 4.27819 0
M  V30 4920 N 459.689 -1.00246 1.21608 0
M  V30 4921 C 460.935 -1.74319 1.03638 0
M  V30 4922 C 461.268 -1.89408 -0.428749 0
M  V30 4923 O 460.543 -1.43026 -1.3181 0
M  V30 4924 C 460.826 -3.15431 1.73711 0
M  V30 4925 C 460.679 -3.08049 3.27759 0
M  V30 4926 C 461.998 -4.14407 1.48173 0
M  V30 4927 H 459.117 -0.632741 0.377899 0
M  V30 4928 H 461.759 -1.16853 1.49818 0
M  V30 4929 H 459.909 -3.64493 1.34452 0
M  V30 4930 H 461.581 -2.66681 3.76403 0
M  V30 4931 H 459.824 -2.45088 3.57931 0
M  V30 4932 H 460.495 -4.07862 3.71958 0
M  V30 4933 H 462.971 -3.74061 1.82258 0
M  V30 4934 H 461.847 -5.11279 1.99713 0
M  V30 4935 H 462.108 -4.40174 0.412273 0
M  V30 4936 N 461.167 -1.02423 -1.1978 0
M  V30 4937 C 462.395 -0.737456 -1.93311 0
M  V30 4938 C 462.81 0.703023 -1.75223 0
M  V30 4939 O 462.167 1.47761 -1.07112 0
M  V30 4940 C 462.218 -1.0733 -3.45199 0
M  V30 4941 O 461.939 -2.4572 -3.62702 0
M  V30 4942 C 463.44 -0.80866 -4.35862 0
M  V30 4943 H 460.66 -0.2702 -0.614193 0
M  V30 4944 H 463.204 -1.36747 -1.52054 0
M  V30 4945 H 461.359 -0.488545 -3.84307 0
M  V30 4946 H 461.773 -2.58081 -4.56612 0
M  V30 4947 H 463.247 -1.09365 -5.41057 0
M  V30 4948 H 463.724 0.257025 -4.38447 0
M  V30 4949 H 464.33 -1.37592 -4.02428 0
M  V30 4950 N 462.645 1.35699 -0.801477 0
M  V30 4951 C 463.875 2.02862 -0.3912 0
M  V30 4952 C 464.283 1.60552 1.00099 0
M  V30 4953 O 463.626 0.796215 1.65548 0
M  V30 4954 C 463.688 3.57386 -0.389299 0
M  V30 4955 C 463.352 4.22943 -1.73113 0
M  V30 4956 C 464.349 4.44984 -2.68859 0
M  V30 4957 C 462.034 4.60167 -2.01373 0
M  V30 4958 C 464.028 5.03345 -3.91053 0
M  V30 4959 C 461.715 5.18243 -3.23832 0
M  V30 4960 C 462.713 5.39773 -4.1849 0
M  V30 4961 O 462.401 5.96626 -5.38788 0
M  V30 4962 H 462.133 0.657341 -0.157732 0
M  V30 4963 H 464.687 1.74407 -1.08496 0
M  V30 4964 H 462.917 3.85011 0.361031 0
M  V30 4965 H 464.606 4.059 -0.0020365 0
M  V30 4966 H 465.372 4.1661 -2.48316 0
M  V30 4967 H 461.251 4.42726 -1.28508 0
M  V30 4968 H 464.795 5.20065 -4.64949 0
M  V30 4969 H 460.692 5.46044 -3.44248 0
M  V30 4970 H 461.46 6.15082 -5.40015 0
M  V30 4971 N 464.123 0.554532 1.47522 0
M  V30 4972 C 465.539 0.214107 1.58157 0
M  V30 4973 C 465.739 -1.28331 1.55349 0
M  V30 4974 O 464.795 -2.06329 1.45549 0
M  V30 4975 C 466.108 0.838391 2.88776 0
M  V30 4976 C 467.656 0.809374 3.02354 0
M  V30 4977 C 468.131 1.41268 4.35669 0
M  V30 4978 N 469.622 1.37574 4.42298 0
M  V30 4979 C 470.357 1.8122 5.4401 0
M  V30 4980 N 469.853 2.3271 6.52547 0
M  V30 4981 N 471.646 1.72307 5.35039 0
M  V30 4982 H 463.797 1.52744 1.4759 0
M  V30 4983 H 466.06 0.636812 0.702264 0
M  V30 4984 H 465.766 1.89065 2.96559 0
M  V30 4985 H 465.64 0.329847 3.75755 0
M  V30 4986 H 468.027 -0.234187 2.94169 0
M  V30 4987 H 468.108 1.35565 2.16924 0
M  V30 4988 H 467.752 2.45529 4.4461 0
M  V30 4989 H 467.682 0.841871 5.19827 0
M  V30 4990 H 470.173 0.999081 3.64454 0
M  V30 4991 H 470.486 2.63944 7.26329 0
M  V30 4992 H 468.831 2.36719 6.53444 0
M  V30 4993 H 472.022 1.3186 4.49144 0
M  V30 4994 H 472.195 2.06641 6.14169 0
M  V30 4995 N 465.601 -1.54893 0.290851 0
M  V30 4996 C 466.847 -2.0023 -0.321867 0
M  V30 4997 C 467.18 -1.179 -1.54316 0
M  V30 4998 O 466.455 -0.25293 -1.92848 0
M  V30 4999 C 466.738 -3.53456 -0.688515 0
M  V30 5000 C 466.591 -4.46532 0.541209 0
M  V30 5001 C 467.91 -4.13057 -1.51895 0
M  V30 5002 H 465.029 -0.727891 -0.115515 0
M  V30 5003 H 467.671 -1.85722 0.400931 0
M  V30 5004 H 465.821 -3.6595 -1.30433 0
M  V30 5005 H 467.493 -4.4596 1.17973 0
M  V30 5006 H 465.736 -4.17545 1.17636 0
M  V30 5007 H 466.407 -5.51475 0.240675 0
M  V30 5008 H 468.883 -4.03937 -0.99872 0
M  V30 5009 H 467.759 -5.20448 -1.74429 0
M  V30 5010 H 468.02 -3.64284 -2.50498 0
M  V30 5011 N 467.08 -0.0183926 -1.57589 0
M  V30 5012 C 468.308 0.673046 -1.95647 0
M  V30 5013 C 468.723 1.66275 -0.894312 0
M  V30 5014 O 468.08 1.82072 0.124975 0
M  V30 5015 C 468.131 1.38884 -3.33756 0
M  V30 5016 O 467.852 0.438806 -4.35897 0
M  V30 5017 C 469.353 2.1731 -3.86383 0
M  V30 5018 H 466.573 0.186292 -0.644621 0
M  V30 5019 H 469.117 -0.0749748 -2.04363 0
M  V30 5020 H 467.272 2.08835 -3.26293 0
M  V30 5021 H 467.686 0.945869 -5.15901 0
M  V30 5022 H 469.16 2.62863 -4.85394 0
M  V30 5023 H 469.637 3.00764 -3.20059 0
M  V30 5024 H 470.243 1.52339 -3.97081 0
M  V30 5025 N 468.558 1.5553 0.254621 0
M  V30 5026 C 469.806 1.7665 0.981793 0
M  V30 5027 C 470.127 0.580963 1.86145 0
M  V30 5028 O 469.397 -0.403537 1.91699 0
M  V30 5029 H 467.977 0.651475 0.365498 0
M  V30 5030 H 470.639 1.92958 0.274426 0
M  V30 5031 H 469.735 2.67486 1.60802 0
M  V30 5032 N 470.036 -0.519951 1.48776 0
M  V30 5033 C 471.284 -1.2727 1.56993 0
M  V30 5034 C 471.605 -1.9339 0.25004 0
M  V30 5035 O 470.875 -1.81822 -0.729216 0
M  V30 5036 H 469.455 -0.472732 0.578389 0
M  V30 5037 H 472.117 -0.604234 1.85297 0
M  V30 5038 H 471.213 -2.04669 2.3562 0
M  V30 5039 N 471.514 -1.37532 -0.769588 0
M  V30 5040 C 472.763 -1.32183 -1.5235 0
M  V30 5041 C 473.076 0.0906555 -1.9539 0
M  V30 5042 O 474.282 0.266628 -2.70188 0
M  V30 5043 C 472.738 -2.32029 -2.75119 0
M  V30 5044 C 472.346 -3.78816 -2.3917 0
M  V30 5045 C 474.09 -2.35694 -3.53056 0
M  V30 5046 C 471.997 -4.70388 -3.58453 0
M  V30 5047 H 470.927 -0.491275 -0.571984 0
M  V30 5048 H 473.578 -1.63004 -0.842739 0
M  V30 5049 H 471.96 -1.94229 -3.45096 0
M  V30 5050 H 473.134 -4.25466 -1.76962 0
M  V30 5051 H 471.449 -3.78117 -1.74402 0
M  V30 5052 H 474.046 -3.01312 -4.41718 0
M  V30 5053 H 474.389 -1.37117 -3.93071 0
M  V30 5054 H 474.922 -2.72212 -2.90078 0
M  V30 5055 H 471.661 -5.70102 -3.23518 0
M  V30 5056 H 471.181 -4.28442 -4.19758 0
M  V30 5057 H 472.86 -4.87628 -4.25239 0
M  V30 5058 N 472.992 0.995999 -1.22138 0
M  V30 5059 C 473.922 2.10387 -1.01289 0
M  V30 5060 C 474.903 1.69975 0.0651454 0
M  V30 5061 O 476.088 1.9396 -0.0964628 0
M  V30 5062 C 473.218 3.42312 -0.586517 0
M  V30 5063 C 472.172 3.96558 -1.61014 0
M  V30 5064 C 471.498 5.24494 -1.0397 0
M  V30 5065 C 472.798 4.27595 -2.99933 0
M  V30 5066 H 474.492 2.28086 -1.93951 0
M  V30 5067 H 472.038 1.09607 -0.933928 0
M  V30 5068 H 473.991 4.19223 -0.427793 0
M  V30 5069 H 472.715 3.24431 0.375761 0
M  V30 5070 H 471.374 3.21776 -1.75658 0
M  V30 5071 H 471.022 5.02953 -0.0688703 0
M  V30 5072 H 470.722 5.61755 -1.72352 0
M  V30 5073 H 472.246 6.04042 -0.892494 0
M  V30 5074 H 473.66 4.95315 -2.8868 0
M  V30 5075 H 472.057 4.76021 -3.6541 0
M  V30 5076 H 473.127 3.35498 -3.50099 0
M  V30 5077 N 474.47 1.03057 1.19235 0
M  V30 5078 C 475.747 0.642608 1.84743 0
M  V30 5079 C 476.127 -0.878577 1.91948 0
M  V30 5080 O 475.475 -1.77597 1.43776 0
M  V30 5081 C 475.685 1.30665 3.23616 0
M  V30 5082 C 477.033 1.43098 3.9976 0
M  V30 5083 O 478.057 1.26396 3.3302 0
M  V30 5084 O 476.916 1.70223 5.19313 0
M  V30 5085 H 474.01 0.223573 0.796206 0
M  V30 5086 H 476.556 1.12883 1.26711 0
M  V30 5087 H 475.328 2.34544 3.13217 0
M  V30 5088 H 474.951 0.808405 3.89295 0
M  V30 5089 N 475.948 -1.35272 0.808662 0
M  V30 5090 C 477.195 -1.98709 0.390003 0
M  V30 5091 C 477.523 -1.64148 -1.04335 0
M  V30 5092 O 476.778 -0.897797 -1.73891 0
M  V30 5093 C 477.077 -3.53556 0.522798 0
M  V30 5094 C 476.743 -4.0799 1.91977 0
M  V30 5095 C 475.405 -4.22568 2.30195 0
M  V30 5096 C 477.757 -4.37442 2.83361 0
M  V30 5097 C 475.085 -4.63918 3.59162 0
M  V30 5098 C 477.437 -4.80232 4.11776 0
M  V30 5099 C 476.101 -4.93016 4.49991 0
M  V30 5100 H 475.371 -0.727127 0.142712 0
M  V30 5101 H 478.018 -1.6145 1.02985 0
M  V30 5102 H 476.323 -3.91287 -0.200494 0
M  V30 5103 H 478.02 -4.00598 0.179608 0
M  V30 5104 H 474.61 -3.97096 1.61284 0
M  V30 5105 H 478.794 -4.25731 2.55083 0
M  V30 5106 H 474.05 -4.72005 3.88615 0
M  V30 5107 H 478.224 -5.01982 4.82687 0
M  V30 5108 H 475.851 -5.24814 5.49976 0
M  V30 5109 N 477.426 -0.562348 -1.47226 0
M  V30 5110 C 478.656 -0.0451619 -2.06551 0
M  V30 5111 C 479.064 1.25626 -1.41473 0
M  V30 5112 O 478.407 1.76563 -0.507061 0
M  V30 5113 C 478.469 0.216068 -3.5885 0
M  V30 5114 C 478.133 -0.996691 -4.45999 0
M  V30 5115 C 479.13 -1.90358 -4.83797 0
M  V30 5116 C 476.815 -1.21281 -4.87438 0
M  V30 5117 C 478.809 -3.01023 -5.6184 0
M  V30 5118 C 476.496 -2.32255 -5.65244 0
M  V30 5119 C 477.494 -3.21956 -6.02356 0
M  V30 5120 O 477.182 -4.31005 -6.78594 0
M  V30 5121 H 476.914 -0.0451646 -0.67449 0
M  V30 5122 H 479.468 -0.776842 -1.90143 0
M  V30 5123 H 477.698 1.00212 -3.7349 0
M  V30 5124 H 479.387 0.679264 -4.00176 0
M  V30 5125 H 480.153 -1.74868 -4.52378 0
M  V30 5126 H 476.032 -0.523767 -4.58015 0
M  V30 5127 H 479.576 -3.71064 -5.90726 0
M  V30 5128 H 475.473 -2.47715 -5.96077 0
M  V30 5129 H 476.241 -4.29118 -6.96994 0
M  V30 5130 N 478.904 1.54736 -0.299062 0
M  V30 5131 C 480.153 1.99279 0.311549 0
M  V30 5132 C 480.466 1.19107 1.55154 0
M  V30 5133 O 481.672 1.53908 2.23662 0
M  V30 5134 C 480.128 3.54768 0.605632 0
M  V30 5135 C 479.736 4.43746 -0.615914 0
M  V30 5136 C 481.48 4.07841 1.17754 0
M  V30 5137 C 479.387 5.90663 -0.29509 0
M  V30 5138 H 478.317 0.744359 0.120187 0
M  V30 5139 H 480.968 1.78919 -0.407464 0
M  V30 5140 H 479.35 3.71021 1.38419 0
M  V30 5141 H 480.524 4.39267 -1.39218 0
M  V30 5142 H 478.839 4.01434 -1.10633 0
M  V30 5143 H 481.436 5.15174 1.43179 0
M  V30 5144 H 481.779 3.58324 2.11918 0
M  V30 5145 H 482.312 3.95123 0.460739 0
M  V30 5146 H 479.051 6.44325 -1.20524 0
M  V30 5147 H 478.571 5.98155 0.44394 0
M  V30 5148 H 480.25 6.46916 0.104048 0
M  V30 5149 N 480.382 0.0267497 1.57577 0
M  V30 5150 C 481.312 -0.954308 2.13108 0
M  V30 5151 C 482.293 -1.34088 1.04663 0
M  V30 5152 O 483.478 -1.41992 1.32484 0
M  V30 5153 C 480.608 -2.23744 2.65624 0
M  V30 5154 C 479.562 -1.99168 3.78835 0
M  V30 5155 C 478.888 -3.33726 4.17769 0
M  V30 5156 C 480.188 -1.33277 5.0501 0
M  V30 5157 H 481.882 -0.491848 2.95332 0
M  V30 5158 H 479.428 -0.23514 1.42067 0
M  V30 5159 H 481.381 -2.92754 3.03106 0
M  V30 5160 H 480.105 -2.72151 1.80558 0
M  V30 5161 H 478.764 -1.32577 3.41788 0
M  V30 5162 H 478.412 -3.79888 3.29688 0
M  V30 5163 H 478.112 -3.18089 4.94058 0
M  V30 5164 H 479.636 -4.04008 4.57832 0
M  V30 5165 H 481.05 -1.92283 5.40093 0
M  V30 5166 H 479.447 -1.28045 5.8628 0
M  V30 5167 H 480.517 -0.305411 4.83937 0
M  V30 5168 N 481.861 -1.55662 -0.24637 0
M  V30 5169 C 482.791 -1.93377 -1.30873 0
M  V30 5170 C 483.772 -0.798773 -1.50179 0
M  V30 5171 O 484.957 -1.0591 -1.62778 0
M  V30 5172 C 482.087 -2.22893 -2.66338 0
M  V30 5173 C 481.041 -3.38649 -2.61727 0
M  V30 5174 C 480.367 -3.53708 -4.00992 0
M  V30 5175 C 481.667 -4.74323 -2.18666 0
M  V30 5176 H 483.361 -2.82363 -0.995552 0
M  V30 5177 H 480.907 -1.35854 -0.477464 0
M  V30 5178 H 482.86 -2.47866 -3.40794 0
M  V30 5179 H 481.584 -1.30733 -2.99293 0
M  V30 5180 H 480.243 -3.13685 -1.89729 0
M  V30 5181 H 479.891 -2.58967 -4.31214 0
M  V30 5182 H 479.591 -4.31551 -3.98795 0
M  V30 5183 H 481.115 -3.81003 -4.77147 0
M  V30 5184 H 482.529 -4.98665 -2.82854 0
M  V30 5185 H 480.926 -5.55273 -2.27579 0
M  V30 5186 H 481.996 -4.71349 -1.13834 0
M  V30 5187 N 483.339 0.512053 -1.4905 0
M  V30 5188 C 484.587 1.26436 -1.57665 0
M  V30 5189 C 484.908 1.93255 -0.260293 0
M  V30 5190 O 484.178 1.82206 0.719564 0
M  V30 5191 H 482.758 0.469658 -0.580888 0
M  V30 5192 H 485.42 0.594398 -1.85615 0
M  V30 5193 H 484.516 2.03417 -2.36702 0
M  V30 5194 N 484.817 1.37938 0.762283 0
M  V30 5195 C 486.094 1.24196 1.51112 0
M  V30 5196 C 486.474 -0.160409 2.1049 0
M  V30 5197 O 485.822 -1.16904 1.96331 0
M  V30 5198 C 486.032 2.34537 2.58445 0
M  V30 5199 C 487.38 2.7254 3.25588 0
M  V30 5200 O 488.404 2.33783 2.68745 0
M  V30 5201 O 487.263 3.39343 4.28379 0
M  V30 5202 H 484.357 0.485175 0.669727 0
M  V30 5203 H 486.903 1.49743 0.798438 0
M  V30 5204 H 485.675 3.28406 2.12756 0
M  V30 5205 H 485.298 2.10505 3.37303 0
M  V30 5206 N 486.295 -0.989507 1.22664 0
M  V30 5207 C 487.523 -1.76496 1.07967 0
M  V30 5208 C 487.938 -1.85148 -0.369543 0
M  V30 5209 O 487.295 -1.32408 -1.25596 0
M  V30 5210 C 487.346 -3.19642 1.68853 0
M  V30 5211 O 487.067 -3.11453 3.08105 0
M  V30 5212 C 488.568 -4.13621 1.59475 0
M  V30 5213 H 485.788 -0.55418 0.378319 0
M  V30 5214 H 488.332 -1.24378 1.62328 0
M  V30 5215 H 486.487 -3.68816 1.18547 0
M  V30 5216 H 486.901 -4.01499 3.37489 0
M  V30 5217 H 488.375 -5.11801 2.06795 0
M  V30 5218 H 488.852 -4.35718 0.55191 0
M  V30 5219 H 489.458 -3.70346 2.09103 0
M  V30 5220 N 487.773 -1.03688 -1.18687 0
M  V30 5221 C 489.184 -0.766488 -1.70241 0
M  V30 5222 C 489.535 0.713052 -1.82784 0
M  V30 5223 O 488.66 1.55529 -1.50465 0
M  V30 5224 C 489.255 -1.38475 -3.09209 0
M  V30 5225 C 487.814 -1.16276 -3.5799 0
M  V30 5226 C 486.961 -1.4778 -2.34641 0
M  V30 5227 H 489.912 -1.20378 -1.03415 0
M  V30 5228 H 489.933 -0.785939 -3.72295 0
M  V30 5229 H 489.445 -2.46157 -3.00048 0
M  V30 5230 H 487.546 -0.104508 -3.72453 0
M  V30 5231 H 487.659 -1.8571 -4.41643 0
M  V30 5232 H 486.023 -0.897366 -2.38368 0
M  V30 5233 H 486.806 -2.56562 -2.28102 0
M  V30 5234 N 489.251 1.34841 -0.815825 0
M  V30 5235 C 490.161 2.33425 -0.234462 0
M  V30 5236 C 491.177 1.62295 0.627413 0
M  V30 5237 O 492.353 1.94109 0.536987 0
M  V30 5238 C 489.418 3.41471 0.599849 0
M  V30 5239 C 488.479 4.28362 -0.283596 0
M  V30 5240 C 487.712 5.31248 0.51099 0
M  V30 5241 O 487.935 5.43056 1.7449 0
M  V30 5242 O 486.869 6.01812 -0.10297 0
M  V30 5243 H 490.695 2.84962 -1.05024 0
M  V30 5244 H 488.28 1.37774 -0.577809 0
M  V30 5245 H 490.162 4.07464 1.07475 0
M  V30 5246 H 488.837 2.9219 1.39308 0
M  V30 5247 H 487.744 3.65318 -0.805836 0
M  V30 5248 H 489.077 4.81066 -1.041 0
M  V30 5249 N 490.729 0.570148 1.46925 0
M  V30 5250 C 491.661 -0.207909 2.28255 0
M  V30 5251 C 492.674 -0.867301 1.37774 0
M  V30 5252 O 493.863 -0.738976 1.62485 0
M  V30 5253 C 490.963 -1.31298 3.12433 0
M  V30 5254 C 490.136 -0.747915 4.30958 0
M  V30 5255 C 489.195 -1.7391 4.9663 0
M  V30 5256 O 488.221 -1.2801 5.54619 0
M  V30 5257 N 489.423 -3.07288 4.92498 0
M  V30 5258 H 492.188 0.489794 2.95671 0
M  V30 5259 H 489.749 0.407076 1.56699 0
M  V30 5260 H 491.741 -1.97507 3.53232 0
M  V30 5261 H 490.311 -1.91373 2.47175 0
M  V30 5262 H 489.531 0.0913066 3.94094 0
M  V30 5263 H 490.819 -0.349958 5.07595 0
M  V30 5264 H 490.217 -3.47213 4.46609 0
M  V30 5265 H 488.774 -3.69021 5.37277 0
M  V30 5266 N 492.207 -1.54576 0.307264 0
M  V30 5267 C 493.453 -2.0056 -0.300612 0
M  V30 5268 C 493.786 -1.1953 -1.53057 0
M  V30 5269 O 493.061 -0.27337 -1.92569 0
M  V30 5270 C 493.344 -3.54167 -0.650987 0
M  V30 5271 C 493.197 -4.45933 0.588539 0
M  V30 5272 C 494.516 -4.14645 -1.47506 0
M  V30 5273 H 491.635 -0.729075 -0.107788 0
M  V30 5274 H 494.277 -1.85286 0.420606 0
M  V30 5275 H 492.427 -3.67313 -1.26544 0
M  V30 5276 H 494.099 -4.44683 1.22697 0
M  V30 5277 H 492.342 -4.16274 1.22058 0
M  V30 5278 H 493.013 -5.51189 0.299153 0
M  V30 5279 H 495.489 -4.04973 -0.955821 0
M  V30 5280 H 494.365 -5.22269 -1.68899 0
M  V30 5281 H 494.626 -3.66921 -2.4662 0
M  V30 5282 N 493.685 -0.035106 -1.57561 0
M  V30 5283 C 494.931 0.64318 -1.92331 0
M  V30 5284 C 495.264 1.71434 -0.912368 0
M  V30 5285 O 494.539 1.94395 0.0640303 0
M  V30 5286 C 494.822 1.25411 -3.37556 0
M  V30 5287 C 494.675 0.192109 -4.4939 0
M  V30 5288 C 495.994 2.17041 -3.82859 0
M  V30 5289 H 493.113 0.232341 -0.699419 0
M  V30 5290 H 495.755 -0.0935889 -1.89769 0
M  V30 5291 H 493.905 1.88205 -3.39869 0
M  V30 5292 H 495.577 -0.438849 -4.59208 0
M  V30 5293 H 493.82 -0.481725 -4.31117 0
M  V30 5294 H 494.491 0.659292 -5.48049 0
M  V30 5295 H 496.967 1.64228 -3.8232 0
M  V30 5296 H 495.843 2.56738 -4.85157 0
M  V30 5297 H 496.104 3.06401 -3.18702 0
M  V30 5298 N 495.163 1.55791 0.238111 0
M  V30 5299 C 496.095 1.87513 1.31802 0
M  V30 5300 C 497.108 0.762053 1.43863 0
M  V30 5301 O 498.297 1.04024 1.45056 0
M  V30 5302 C 495.397 2.05402 2.69561 0
M  V30 5303 C 494.57 3.3632 2.79656 0
M  V30 5304 C 493.629 3.43844 3.98319 0
M  V30 5305 O 492.655 4.16994 3.87433 0
M  V30 5306 N 493.857 2.73777 5.11885 0
M  V30 5307 H 496.622 2.80734 1.04922 0
M  V30 5308 H 494.183 1.56135 0.428196 0
M  V30 5309 H 496.175 2.07769 3.47296 0
M  V30 5310 H 494.745 1.18884 2.89111 0
M  V30 5311 H 493.965 3.46195 1.88528 0
M  V30 5312 H 495.253 4.22594 2.83358 0
M  V30 5313 H 494.651 2.14094 5.23622 0
M  V30 5314 H 493.208 2.81825 5.87723 0
M  V30 5315 N 496.642 -0.504142 1.49319 0
M  V30 5316 C 497.574 -1.62265 1.61872 0
M  V30 5317 C 498.587 -1.54881 0.501573 0
M  V30 5318 O 499.776 -1.6087 0.773497 0
M  V30 5319 C 496.876 -3.01042 1.55651 0
M  V30 5320 C 496.049 -3.33642 2.82845 0
M  V30 5321 C 495.108 -4.51816 2.69719 0
M  V30 5322 O 494.134 -4.53755 3.4365 0
M  V30 5323 N 495.336 -5.51543 1.81055 0
M  V30 5324 H 498.101 -1.51924 2.58339 0
M  V30 5325 H 495.662 -0.691954 1.46368 0
M  V30 5326 H 497.654 -3.78013 1.44528 0
M  V30 5327 H 496.224 -3.05323 0.670546 0
M  V30 5328 H 495.444 -2.45598 3.08343 0
M  V30 5329 H 496.732 -3.5222 3.67177 0
M  V30 5330 H 496.13 -5.52774 1.20241 0
M  V30 5331 H 494.687 -6.27629 1.75856 0
M  V30 5332 N 498.12 -1.38341 -0.754957 0
M  V30 5333 C 499.35 -1.37504 -1.54195 0
M  V30 5334 C 499.758 0.0373787 -1.89163 0
M  V30 5335 O 499.101 1.01402 -1.53178 0
M  V30 5336 C 499.163 -2.16488 -2.87008 0
M  V30 5337 C 498.827 -3.65311 -2.74585 0
M  V30 5338 C 499.824 -4.58834 -2.44474 0
M  V30 5339 C 497.509 -4.08649 -2.9208 0
M  V30 5340 C 499.503 -5.93675 -2.32011 0
M  V30 5341 C 497.19 -5.43571 -2.79237 0
M  V30 5342 C 498.188 -6.35898 -2.49245 0
M  V30 5343 O 497.876 -7.68338 -2.36458 0
M  V30 5344 H 497.608 -0.472159 -0.483779 0
M  V30 5345 H 500.162 -1.82515 -0.94221 0
M  V30 5346 H 498.392 -1.66194 -3.49166 0
M  V30 5347 H 500.081 -2.08076 -3.4851 0
M  V30 5348 H 500.847 -4.26657 -2.30627 0
M  V30 5349 H 496.726 -3.37134 -3.14422 0
M  V30 5350 H 500.27 -6.65706 -2.08522 0
M  V30 5351 H 496.167 -5.75345 -2.92657 0
M  V30 5352 H 496.935 -7.78845 -2.5168 0
M  V30 5353 N 499.598 0.982988 -1.23187 0
M  V30 5354 C 500.53 2.07729 -0.968572 0
M  V30 5355 C 501.543 1.62702 0.0564821 0
M  V30 5356 O 502.732 1.77603 -0.178733 0
M  V30 5357 C 499.832 3.36071 -0.436974 0
M  V30 5358 C 499.005 4.10081 -1.52159 0
M  V30 5359 C 498.064 5.16701 -0.99532 0
M  V30 5360 O 497.09 5.43727 -1.68373 0
M  V30 5361 N 498.292 5.80226 0.178192 0
M  V30 5362 H 501.057 2.30894 -1.9107 0
M  V30 5363 H 498.618 1.14949 -1.1401 0
M  V30 5364 H 500.61 4.04639 -0.0700051 0
M  V30 5365 H 499.18 3.09893 0.410509 0
M  V30 5366 H 498.4 3.36004 -2.06144 0
M  V30 5367 H 499.688 4.56295 -2.25105 0
M  V30 5368 H 499.086 5.60651 0.754096 0
M  V30 5369 H 497.643 6.49982 0.486449 0
M  V30 5370 N 501.076 1.04316 1.18135 0
M  V30 5371 C 502.008 0.594444 2.21357 0
M  V30 5372 C 503.021 -0.337215 1.59269 0
M  V30 5373 O 504.21 -0.131337 1.78016 0
M  V30 5374 C 501.31 -0.151251 3.38562 0
M  V30 5375 C 500.483 0.788907 4.30227 0
M  V30 5376 C 499.542 0.0860572 5.2613 0
M  V30 5377 O 498.568 0.717302 5.64662 0
M  V30 5378 N 499.77 -1.17969 5.68387 0
M  V30 5379 H 502.535 1.48227 2.60478 0
M  V30 5380 H 500.096 0.92396 1.32946 0
M  V30 5381 H 502.088 -0.631352 3.99745 0
M  V30 5382 H 500.658 -0.940639 2.98112 0
M  V30 5383 H 499.878 1.44882 3.6661 0
M  V30 5384 H 501.166 1.42738 4.88368 0
M  V30 5385 H 500.564 -1.71302 5.3914 0
M  V30 5386 H 499.121 -1.60402 6.31755 0
M  V30 5387 N 502.554 -1.34406 0.822964 0
M  V30 5388 C 503.484 -2.32052 0.259608 0
M  V30 5389 C 504.465 -1.58243 -0.623961 0
M  V30 5390 O 505.65 -1.86224 -0.55083 0
M  V30 5391 C 502.78 -3.42434 -0.579314 0
M  V30 5392 C 501.734 -4.27499 0.20712 0
M  V30 5393 C 501.06 -5.29349 -0.754547 0
M  V30 5394 C 502.36 -5.02758 1.41533 0
M  V30 5395 H 504.054 -2.79418 1.07545 0
M  V30 5396 H 501.6 -1.34338 0.518593 0
M  V30 5397 H 503.553 -4.0976 -0.983612 0
M  V30 5398 H 502.277 -2.93717 -1.4282 0
M  V30 5399 H 500.936 -3.61776 0.592787 0
M  V30 5400 H 500.584 -4.76895 -1.59939 0
M  V30 5401 H 500.284 -5.8714 -0.232561 0
M  V30 5402 H 501.808 -5.99544 -1.1567 0
M  V30 5403 H 503.222 -5.62938 1.08504 0
M  V30 5404 H 501.619 -5.70123 1.87296 0
M  V30 5405 H 502.689 -4.32451 2.1935 0
M  V30 5406 N 504.032 -0.577932 -1.46621 0
M  V30 5407 C 505.278 -0.0617793 -2.02706 0
M  V30 5408 C 505.611 1.29294 -1.44903 0
M  V30 5409 O 504.886 1.8461 -0.61232 0
M  V30 5410 C 505.169 0.00911824 -3.60099 0
M  V30 5411 C 505.022 -1.37416 -4.28295 0
M  V30 5412 C 506.341 0.712159 -4.343 0
M  V30 5413 H 503.46 -0.0239246 -0.736612 0
M  V30 5414 H 506.102 -0.744211 -1.74818 0
M  V30 5415 H 504.252 0.590292 -3.83989 0
M  V30 5416 H 505.924 -2.00013 -4.15683 0
M  V30 5417 H 504.167 -1.94319 -3.87843 0
M  V30 5418 H 504.838 -1.27707 -5.37024 0
M  V30 5419 H 507.314 0.218486 -4.15526 0
M  V30 5420 H 506.19 0.730782 -5.44014 0
M  V30 5421 H 506.451 1.77251 -4.05012 0
M  V30 5422 N 505.51 1.54411 -0.315457 0
M  V30 5423 C 506.758 2.00023 0.288971 0
M  V30 5424 C 507.079 1.20529 1.5329 0
M  V30 5425 O 506.349 0.304986 1.93511 0
M  V30 5426 H 504.929 0.738891 0.109766 0
M  V30 5427 H 507.591 1.90094 -0.430129 0
M  V30 5428 H 506.687 3.07198 0.550999 0
M  V30 5429 N 506.988 0.0434614 1.5754 0
M  V30 5430 C 507.918 -0.931651 2.14109 0
M  V30 5431 C 508.899 -1.32971 1.06079 0
M  V30 5432 O 510.084 -1.40579 1.33982 0
M  V30 5433 C 507.214 -2.20914 2.67982 0
M  V30 5434 C 506.168 -1.95139 3.80926 0
M  V30 5435 C 505.494 -3.29276 4.21285 0
M  V30 5436 C 506.794 -1.27913 5.06395 0
M  V30 5437 H 508.488 -0.460497 2.95837 0
M  V30 5438 H 506.034 -0.220058 1.42309 0
M  V30 5439 H 507.987 -2.89522 3.06194 0
M  V30 5440 H 506.711 -2.70221 1.83434 0
M  V30 5441 H 505.37 -1.28945 3.43175 0
M  V30 5442 H 505.018 -3.76369 3.33699 0
M  V30 5443 H 504.718 -3.12831 4.97404 0
M  V30 5444 H 506.242 -3.99129 4.62091 0
M  V30 5445 H 507.656 -1.86544 5.42102 0
M  V30 5446 H 506.053 -1.2182 5.87605 0
M  V30 5447 H 507.123 -0.254066 4.84234 0
M  V30 5448 N 508.466 -1.55915 -0.229846 0
M  V30 5449 C 509.877 -1.68809 -0.797531 0
M  V30 5450 C 510.228 -0.643995 -1.8533 0
M  V30 5451 O 509.353 0.206492 -2.15413 0
M  V30 5452 C 509.948 -3.06043 -1.45338 0
M  V30 5453 C 508.507 -3.20819 -1.96856 0
M  V30 5454 C 507.654 -2.6472 -0.825736 0
M  V30 5455 H 510.605 -1.58699 -0.00533733 0
M  V30 5456 H 510.626 -3.01438 -2.32196 0
M  V30 5457 H 510.138 -3.82012 -0.684743 0
M  V30 5458 H 508.239 -2.49704 -2.76548 0
M  V30 5459 H 508.352 -4.27937 -2.15423 0
M  V30 5460 H 506.716 -2.22985 -1.23084 0
M  V30 5461 H 507.499 -3.43229 -0.0699019 0
M  V30 5462 N 509.944 0.496216 -1.49584 0
M  V30 5463 C 510.907 1.57952 -1.66084 0
M  V30 5464 C 511.907 1.51729 -0.53244 0
M  V30 5465 O 513.097 1.54796 -0.79899 0
M  V30 5466 C 510.229 2.97604 -1.66268 0
M  V30 5467 H 511.422 1.44649 -2.6271 0
M  V30 5468 H 508.975 0.7208 -1.38687 0
M  V30 5469 H 509.71 3.16378 -0.712432 0
M  V30 5470 H 509.495 3.03528 -2.4822 0
M  V30 5471 H 510.985 3.76301 -1.81073 0
M  V30 5472 N 511.423 1.38739 0.74761 0
M  V30 5473 C 512.356 1.3083 1.86972 0
M  V30 5474 C 513.334 0.184229 1.61553 0
M  V30 5475 O 514.518 0.36256 1.8498 0
M  V30 5476 C 511.645 1.02854 3.22705 0
M  V30 5477 C 510.691 2.17281 3.67003 0
M  V30 5478 S 511.524 3.79468 3.77842 0
M  V30 5479 C 512.68 3.53692 5.16385 0
M  V30 5480 H 512.913 2.258 1.93395 0
M  V30 5481 H 510.446 1.24646 0.911199 0
M  V30 5482 H 512.404 0.87397 4.01089 0
M  V30 5483 H 511.065 0.0959295 3.13953 0
M  V30 5484 H 510.258 1.93267 4.65472 0
M  V30 5485 H 509.86 2.28876 2.9579 0
M  V30 5486 H 512.152 3.10176 6.02327 0
M  V30 5487 H 513.095 4.51576 5.45422 0
M  V30 5488 H 513.503 2.8807 4.85464 0
M  V30 5489 N 512.901 -0.976442 1.23707 0
M  V30 5490 C 514.312 -1.53284 1.06587 0
M  V30 5491 C 514.663 -1.92765 -0.365526 0
M  V30 5492 O 513.788 -1.7645 -1.25277 0
M  V30 5493 C 514.383 -2.78548 1.92864 0
M  V30 5494 C 512.942 -3.30574 1.79994 0
M  V30 5495 C 512.089 -2.03538 1.88328 0
M  V30 5496 H 515.04 -0.795692 1.37311 0
M  V30 5497 H 515.061 -3.5155 1.45577 0
M  V30 5498 H 514.573 -2.49782 2.97037 0
M  V30 5499 H 512.674 -3.64211 0.786202 0
M  V30 5500 H 512.787 -4.00065 2.636 0
M  V30 5501 H 511.151 -2.17853 1.31954 0
M  V30 5502 H 511.934 -1.77149 2.94063 0
M  V30 5503 N 514.379 -1.04941 -1.1758 0
M  V30 5504 C 515.342 -0.652456 -2.19717 0
M  V30 5505 C 516.342 0.294745 -1.58076 0
M  V30 5506 O 517.532 0.0789579 -1.74021 0
M  V30 5507 C 514.664 0.0420712 -3.40874 0
M  V30 5508 H 515.857 -1.55642 -2.5635 0
M  V30 5509 H 513.41 -0.842995 -1.31618 0
M  V30 5510 H 514.145 0.95943 -3.09783 0
M  V30 5511 H 513.93 -0.638844 -3.86861 0
M  V30 5512 H 515.42 0.306 -4.16477 0
M  V30 5513 N 515.857 1.33968 -0.830081 0
M  V30 5514 C 517.087 2.01987 -0.434142 0
M  V30 5515 C 517.495 1.62639 0.96671 0
M  V30 5516 O 516.838 0.831151 1.63822 0
M  V30 5517 C 516.9 3.5648 -0.465018 0
M  V30 5518 C 516.564 4.19176 -1.82045 0
M  V30 5519 C 517.561 4.39181 -2.78237 0
M  V30 5520 C 515.246 4.55792 -2.11089 0
M  V30 5521 C 517.24 4.94937 -4.01642 0
M  V30 5522 C 514.927 5.11258 -3.34752 0
M  V30 5523 C 515.925 5.30775 -4.29845 0
M  V30 5524 O 515.613 5.85064 -5.51322 0
M  V30 5525 H 515.345 0.653847 -0.171639 0
M  V30 5526 H 517.899 1.72066 -1.12171 0
M  V30 5527 H 516.129 3.8569 0.279284 0
M  V30 5528 H 517.818 4.05804 -0.0881334 0
M  V30 5529 H 518.584 4.11249 -2.57097 0
M  V30 5530 H 514.463 4.39901 -1.3787 0
M  V30 5531 H 518.007 5.10086 -4.75876 0
M  V30 5532 H 513.904 5.38619 -3.55753 0
M  V30 5533 H 514.672 6.03489 -5.5294 0
M  V30 5534 N 517.335 0.585699 1.46312 0
M  V30 5535 C 518.581 0.0808731 2.03239 0
M  V30 5536 C 518.936 -1.26609 1.44872 0
M  V30 5537 O 518.229 -1.81779 0.60556 0
M  V30 5538 C 518.423 -0.0401312 3.57377 0
M  V30 5539 C 518.252 1.29356 4.30694 0
M  V30 5540 C 517.022 1.86849 4.69484 0
M  V30 5541 C 519.22 2.21742 4.64042 0
M  V30 5542 N 517.202 3.13926 5.27564 0
M  V30 5543 C 518.573 3.33408 5.22723 0
M  V30 5544 C 520.628 2.21386 4.45974 0
M  V30 5545 C 519.331 4.44852 5.65242 0
M  V30 5546 C 521.357 3.31862 4.89511 0
M  V30 5547 C 520.719 4.42248 5.48266 0
M  V30 5548 H 516.818 0.072443 0.778637 0
M  V30 5549 H 519.402 0.779254 1.78426 0
M  V30 5550 H 517.573 -0.707686 3.81898 0
M  V30 5551 H 519.305 -0.549615 4.00951 0
M  V30 5552 H 516.06 1.40307 4.52339 0
M  V30 5553 H 516.484 3.78775 5.61122 0
M  V30 5554 H 521.126 1.37314 3.99881 0
M  V30 5555 H 518.844 5.29665 6.10312 0
M  V30 5556 H 522.43 3.32708 4.7728 0
M  V30 5557 H 521.31 5.26323 5.81338 0
M  V30 5558 N 518.813 -1.54241 0.323641 0
M  V30 5559 C 519.761 -2.25813 -0.557804 0
M  V30 5560 C 520.755 -1.27225 -1.11849 0
M  V30 5561 O 521.961 -1.45001 -1.06652 0
M  V30 5562 H 518.336 -0.72532 -0.198532 0
M  V30 5563 H 520.307 -2.98322 0.0681112 0
M  V30 5564 C 519.056 -3.02913 -1.70701 0
M  V30 5565 H 518.379 -3.78593 -1.28482 0
M  V30 5566 H 519.819 -3.56238 -2.29935 0
M  V30 5567 C 518.278 -2.11217 -2.62467 0
M  V30 5568 O 518.808 -1.69508 -3.64184 0
M  V30 5569 N 517.014 -1.76704 -2.30703 0
M  V30 5570 H 516.561 -2.1082 -1.48029 0
M  V30 5571 H 516.519 -1.15631 -2.92364 0
M  V30 5572 N 520.291 -0.0518155 -1.57515 0
M  V30 5573 C 521.221 0.920283 -2.146 0
M  V30 5574 C 522.202 1.32406 -1.06783 0
M  V30 5575 O 523.387 1.39866 -1.34726 0
M  V30 5576 C 520.517 2.1949 -2.6915 0
M  V30 5577 C 519.471 1.93116 -3.81956 0
M  V30 5578 C 518.797 3.27037 -4.23026 0
M  V30 5579 C 520.097 1.25225 -5.07066 0
M  V30 5580 H 521.791 0.444801 -2.96077 0
M  V30 5581 H 519.337 0.212508 -1.42423 0
M  V30 5582 H 521.29 2.87894 -3.07725 0
M  V30 5583 H 520.014 2.69244 -1.84865 0
M  V30 5584 H 518.673 1.27123 -3.43854 0
M  V30 5585 H 518.321 3.74595 -3.3569 0
M  V30 5586 H 518.021 3.10189 -4.99056 0
M  V30 5587 H 519.545 3.96673 -4.64202 0
M  V30 5588 H 520.959 1.83666 -5.43083 0
M  V30 5589 H 519.356 1.18702 -5.88243 0
M  V30 5590 H 520.426 0.228382 -4.84362 0
M  V30 5591 N 521.769 1.56035 0.221574 0
M  V30 5592 C 523.017 1.78693 0.944102 0
M  V30 5593 C 523.338 0.620317 1.8487 0
M  V30 5594 O 522.608 -0.362784 1.92512 0
M  V30 5595 H 521.188 0.659082 0.351597 0
M  V30 5596 H 523.85 1.93497 0.233435 0
M  V30 5597 H 522.946 2.70837 1.55093 0
M  V30 5598 N 523.247 -0.488276 1.49845 0
M  V30 5599 C 524.494 -1.24157 1.59973 0
M  V30 5600 C 524.822 -1.92293 0.292182 0
M  V30 5601 O 524.077 -1.81942 -0.720813 0
M  V30 5602 C 524.376 -2.32152 2.71735 0
M  V30 5603 C 524.042 -1.81387 4.12807 0
M  V30 5604 C 522.704 -1.67262 4.51195 0
M  V30 5605 C 525.056 -1.43537 5.01045 0
M  V30 5606 C 522.384 -1.13685 5.7558 0
M  V30 5607 C 524.736 -0.914081 6.25961 0
M  V30 5608 C 523.4 -0.759327 6.63167 0
M  V30 5609 H 522.67 -0.454322 0.585383 0
M  V30 5610 H 525.317 -0.540261 1.83721 0
M  V30 5611 H 523.622 -3.08122 2.42008 0
M  V30 5612 H 525.319 -2.90164 2.76778 0
M  V30 5613 H 521.909 -1.93344 3.82513 0
M  V30 5614 H 526.093 -1.53292 4.72033 0
M  V30 5615 H 521.349 -1.00426 6.03096 0
M  V30 5616 H 525.523 -0.612066 6.93705 0
M  V30 5617 H 523.15 -0.342002 7.5943 0
M  V30 5618 N 524.725 -1.39134 -0.740242 0
M  V30 5619 C 525.657 -1.33332 -1.86428 0
M  V30 5620 C 526.67 -0.243042 -1.60976 0
M  V30 5621 O 527.859 -0.501608 -1.71307 0
M  V30 5622 C 524.959 -1.04626 -3.22346 0
M  V30 5623 C 524.132 -2.24826 -3.75196 0
M  V30 5624 C 523.191 -1.92659 -4.89662 0
M  V30 5625 O 522.217 -2.6529 -5.03597 0
M  V30 5626 N 523.419 -0.889575 -5.73643 0
M  V30 5627 H 526.184 -2.30196 -1.91911 0
M  V30 5628 H 523.745 -1.33168 -0.920756 0
M  V30 5629 H 525.737 -0.811347 -3.96484 0
M  V30 5630 H 524.307 -0.165129 -3.12164 0
M  V30 5631 H 523.527 -2.64301 -2.9247 0
M  V30 5632 H 524.815 -3.05015 -4.07239 0
M  V30 5633 H 524.213 -0.287529 -5.64969 0
M  V30 5634 H 522.77 -0.714557 -6.47871 0
M  V30 5635 N 526.204 0.969867 -1.24223 0
M  V30 5636 C 527.134 2.08191 -1.05729 0
M  V30 5637 C 528.115 1.70075 0.0290765 0
M  V30 5638 O 529.3 1.93712 -0.137583 0
M  V30 5639 C 526.43 3.40991 -0.658995 0
M  V30 5640 C 525.384 3.93054 -1.69389 0
M  V30 5641 C 524.71 5.22171 -1.15072 0
M  V30 5642 C 526.01 4.21137 -3.08935 0
M  V30 5643 H 527.704 2.23921 -1.98746 0
M  V30 5644 H 525.25 1.07602 -0.956967 0
M  V30 5645 H 527.203 4.18221 -0.51662 0
M  V30 5646 H 525.927 3.25155 0.30686 0
M  V30 5647 H 524.586 3.17977 -1.82444 0
M  V30 5648 H 524.234 5.02694 -0.175539 0
M  V30 5649 H 523.934 5.57973 -1.84229 0
M  V30 5650 H 525.458 6.02013 -1.02042 0
M  V30 5651 H 526.872 4.8908 -2.99121 0
M  V30 5652 H 525.269 4.68163 -3.75425 0
M  V30 5653 H 526.339 3.27996 -3.57137 0
M  V30 5654 N 527.682 1.05563 1.17022 0
M  V30 5655 C 528.907 0.788437 1.91829 0
M  V30 5656 C 529.332 -0.650356 1.76499 0
M  V30 5657 O 528.69 -1.45229 1.08527 0
M  V30 5658 C 528.738 1.1786 3.40795 0
M  V30 5659 O 527.842 0.312965 4.11211 0
M  V30 5660 H 527.183 0.288794 0.597908 0
M  V30 5661 H 529.713 1.40948 1.48307 0
M  V30 5662 H 529.723 1.14697 3.91546 0
M  V30 5663 H 528.398 2.22666 3.51273 0
M  V30 5664 H 526.975 0.405515 3.70689 0
M  V30 5665 N 529.16 -1.33526 0.837174 0
M  V30 5666 C 530.576 -1.50727 0.524743 0
M  V30 5667 C 530.776 -1.77792 -0.948279 0
M  V30 5668 O 529.832 -1.83719 -1.73216 0
M  V30 5669 C 531.145 -2.66299 1.39661 0
M  V30 5670 C 532.693 -2.80183 1.39521 0
M  V30 5671 C 533.168 -3.98815 2.25189 0
M  V30 5672 N 534.659 -4.06047 2.2289 0
M  V30 5673 C 535.394 -4.97032 2.85915 0
M  V30 5674 N 534.89 -5.93143 3.57985 0
M  V30 5675 N 536.683 -4.90015 2.75394 0
M  V30 5676 H 528.834 -1.1422 1.79074 0
M  V30 5677 H 531.097 -0.561399 0.763894 0
M  V30 5678 H 530.803 -2.52974 2.4433 0
M  V30 5679 H 530.677 -3.61663 1.07145 0
M  V30 5680 H 533.064 -2.92942 0.356253 0
M  V30 5681 H 533.145 -1.85586 1.76044 0
M  V30 5682 H 532.789 -3.86817 3.29143 0
M  V30 5683 H 532.719 -4.92654 1.86009 0
M  V30 5684 H 535.21 -3.37262 1.70478 0
M  V30 5685 H 535.523 -6.59227 4.03286 0
M  V30 5686 H 533.868 -5.93223 3.62093 0
M  V30 5687 H 537.059 -4.13894 2.18654 0
M  V30 5688 H 537.232 -5.60724 3.24796 0
M  V30 5689 N 530.638 -0.59345 -1.46 0
M  V30 5690 C 531.884 -0.0916503 -2.03193 0
M  V30 5691 C 532.239 1.25839 -1.45541 0
M  V30 5692 O 531.532 1.81455 -0.615191 0
M  V30 5693 C 531.726 0.021178 -3.57394 0
M  V30 5694 C 531.555 -1.31638 -4.30002 0
M  V30 5695 C 530.325 -1.89336 -4.68487 0
M  V30 5696 C 532.523 -2.242 -4.62859 0
M  V30 5697 N 530.505 -3.1672 -5.25891 0
M  V30 5698 C 531.876 -3.36175 -5.20948 0
M  V30 5699 C 533.931 -2.23748 -4.44794 0
M  V30 5700 C 532.634 -4.47844 -5.62875 0
M  V30 5701 C 534.66 -3.34454 -4.87744 0
M  V30 5702 C 534.022 -4.4515 -5.45913 0
M  V30 5703 H 530.121 -0.0765713 -0.778242 0
M  V30 5704 H 532.705 -0.788705 -1.7801 0
M  V30 5705 H 530.876 0.687423 -3.82268 0
M  V30 5706 H 532.608 0.528343 -4.01236 0
M  V30 5707 H 529.363 -1.42704 -4.51589 0
M  V30 5708 H 529.787 -3.81746 -5.59106 0
M  V30 5709 H 534.429 -1.39433 -3.99147 0
M  V30 5710 H 532.147 -5.32894 -6.07495 0
M  V30 5711 H 535.733 -3.35234 -4.75509 0
M  V30 5712 H 534.613 -5.29398 -5.78539 0
M  V30 5713 N 532.116 1.54067 -0.331816 0
M  V30 5714 C 533.064 2.26105 0.54582 0
M  V30 5715 C 534.058 1.27816 1.11173 0
M  V30 5716 O 535.264 1.45565 1.05882 0
M  V30 5717 H 531.639 0.726363 0.194683 0
M  V30 5718 H 533.61 2.98282 -0.083931 0
M  V30 5719 C 532.359 3.03814 1.69092 0
M  V30 5720 H 531.682 3.79269 1.26473 0
M  V30 5721 H 533.122 3.57453 2.28043 0
M  V30 5722 C 531.581 2.12606 2.61343 0
M  V30 5723 O 532.111 1.71437 3.6328 0
M  V30 5724 N 530.317 1.77925 2.29763 0
M  V30 5725 H 529.864 2.11602 1.46909 0
M  V30 5726 H 529.822 1.1718 2.91747 0
M  V30 5727 N 533.594 0.0601682 1.57485 0
M  V30 5728 C 534.824 -0.620037 1.97076 0
M  V30 5729 C 535.232 -1.64381 0.936784 0
M  V30 5730 O 534.575 -1.83497 -0.0863377 0
M  V30 5731 C 534.637 -1.35617 3.32939 0
M  V30 5732 C 534.301 -0.487208 4.54396 0
M  V30 5733 C 535.298 0.250428 5.19297 0
M  V30 5734 C 532.983 -0.415494 5.00579 0
M  V30 5735 C 534.977 1.04812 6.28723 0
M  V30 5736 C 532.664 0.385879 6.0988 0
M  V30 5737 C 533.662 1.11637 6.73815 0
M  V30 5738 O 533.35 1.90454 7.81014 0
M  V30 5739 H 533.082 -0.173664 0.653312 0
M  V30 5740 H 535.636 0.1256 2.05016 0
M  V30 5741 H 533.866 -2.14763 3.2158 0
M  V30 5742 H 535.555 -1.92749 3.57215 0
M  V30 5743 H 536.321 0.204546 4.84568 0
M  V30 5744 H 532.2 -0.973679 4.506 0
M  V30 5745 H 535.744 1.6188 6.78558 0
M  V30 5746 H 531.641 0.433366 6.44044 0
M  V30 5747 H 532.409 1.82762 7.97835 0
M  V30 5748 N 535.072 -1.5615 -0.213296 0
M  V30 5749 C 536.019 -1.93086 -1.26437 0
M  V30 5750 C 536.989 -0.789086 -1.4616 0
M  V30 5751 O 538.174 -1.04569 -1.59593 0
M  V30 5752 C 535.314 -2.26003 -2.608 0
M  V30 5753 C 534.427 -3.53156 -2.48807 0
M  V30 5754 C 533.562 -3.7548 -3.7575 0
M  V30 5755 C 532.601 -4.96119 -3.58514 0
M  V30 5756 N 531.738 -5.14791 -4.77425 0
M  V30 5757 H 536.578 -2.82707 -0.942376 0
M  V30 5758 H 534.115 -1.39919 -0.454001 0
M  V30 5759 H 536.073 -2.431 -3.39055 0
M  V30 5760 H 534.703 -1.39546 -2.91079 0
M  V30 5761 H 533.755 -3.44207 -1.61944 0
M  V30 5762 H 535.067 -4.41565 -2.31996 0
M  V30 5763 H 534.221 -3.92718 -4.62447 0
M  V30 5764 H 532.96 -2.85368 -3.95495 0
M  V30 5765 H 531.965 -4.78823 -2.70201 0
M  V30 5766 H 533.19 -5.87724 -3.40231 0
M  V30 5767 H 531.136 -4.27623 -4.97468 0
M  V30 5768 H 531.053 -5.97347 -4.63371 0
M  V30 5769 H 532.321 -5.36471 -5.65525 0
M  V30 5770 N 536.55 0.480323 -1.50102 0
M  V30 5771 C 537.775 1.26126 -1.64642 0
M  V30 5772 C 538.2 1.85257 -0.325823 0
M  V30 5773 O 537.558 1.66854 0.709194 0
M  V30 5774 C 537.606 2.35243 -2.73301 0
M  V30 5775 O 536.71 3.39646 -2.33911 0
M  V30 5776 H 536.051 0.371463 -0.550374 0
M  V30 5777 H 538.581 0.572696 -1.96421 0
M  V30 5778 H 538.591 2.80695 -2.96098 0
M  V30 5779 H 537.266 1.91574 -3.6915 0
M  V30 5780 H 535.843 2.99969 -2.21525 0
M  V30 5781 N 538.028 1.39524 0.732853 0
M  V30 5782 C 538.958 1.41153 1.86005 0
M  V30 5783 C 539.939 0.274614 1.67869 0
M  V30 5784 O 541.124 0.480745 1.88155 0
M  V30 5785 C 538.254 1.25638 3.23778 0
M  V30 5786 C 537.208 2.36752 3.56556 0
M  V30 5787 C 536.534 2.06326 4.93289 0
M  V30 5788 C 537.834 3.79069 3.5931 0
M  V30 5789 H 539.528 2.35484 1.84899 0
M  V30 5790 H 537.074 1.13348 0.888162 0
M  V30 5791 H 539.027 1.25398 4.0231 0
M  V30 5792 H 537.751 0.277772 3.25417 0
M  V30 5793 H 536.41 2.36213 2.80355 0
M  V30 5794 H 536.058 1.06897 4.9151 0
M  V30 5795 H 535.758 2.80757 5.16187 0
M  V30 5796 H 537.282 2.07739 5.74175 0
M  V30 5797 H 538.696 3.81526 4.27914 0
M  V30 5798 H 537.093 4.52878 3.93728 0
M  V30 5799 H 538.163 4.09893 2.59068 0
M  V30 5800 N 539.506 -0.963266 1.24736 0
M  V30 5801 C 540.783 -1.68248 0.9976 0
M  V30 5802 C 541.163 -2.05599 -0.478776 0
M  V30 5803 O 540.511 -1.7626 -1.45412 0
M  V30 5804 C 540.721 -2.91118 1.92487 0
M  V30 5805 C 542.069 -3.63261 2.19833 0
M  V30 5806 O 543.093 -3.01184 1.90176 0
M  V30 5807 O 541.952 -4.75019 2.7022 0
M  V30 5808 H 539.046 -0.735744 0.377637 0
M  V30 5809 H 541.592 -1.01696 1.35853 0
M  V30 5810 H 540.364 -2.60242 2.92215 0
M  V30 5811 H 539.987 -3.65402 1.56738 0
M  V30 5812 N 540.985 -1.06182 -1.16461 0
M  V30 5813 C 542.231 -0.779015 -1.87241 0
M  V30 5814 C 542.564 0.692715 -1.81425 0
M  V30 5815 O 541.839 1.5074 -1.22913 0
M  V30 5816 C 542.122 -1.2728 -3.36856 0
M  V30 5817 C 541.975 -2.80821 -3.51368 0
M  V30 5818 C 543.294 -0.879799 -4.31216 0
M  V30 5819 H 540.413 -0.284464 -0.679889 0
M  V30 5820 H 543.055 -1.31755 -1.36896 0
M  V30 5821 H 541.205 -0.814673 -3.79862 0
M  V30 5822 H 542.877 -3.34833 -3.17308 0
M  V30 5823 H 541.12 -3.19606 -2.93316 0
M  V30 5824 H 541.791 -3.10435 -4.56436 0
M  V30 5825 H 544.267 -1.27436 -3.96105 0
M  V30 5826 H 543.143 -1.25278 -5.34412 0
M  V30 5827 H 543.404 0.215372 -4.41575 0
M  V30 5828 N 542.463 1.3308 -0.844243 0
M  V30 5829 C 543.709 1.97898 -0.443206 0
M  V30 5830 C 544.042 1.66699 0.99625 0
M  V30 5831 O 543.317 0.949704 1.69738 0
M  V30 5832 C 543.6 3.53801 -0.670606 0
M  V30 5833 C 543.453 3.94667 -2.15772 0
M  V30 5834 C 544.772 4.39936 -0.120226 0
M  V30 5835 H 541.891 0.718861 -0.162504 0
M  V30 5836 H 544.533 1.57633 -1.06075 0
M  V30 5837 H 542.683 3.88229 -0.14496 0
M  V30 5838 H 544.355 3.70469 -2.74865 0
M  V30 5839 H 542.598 3.44203 -2.6402 0
M  V30 5840 H 543.269 5.03275 -2.26757 0
M  V30 5841 H 545.745 4.12183 -0.5696 0
M  V30 5842 H 544.621 5.4803 -0.308984 0
M  V30 5843 H 544.882 4.31184 0.976347 0
M  V30 5844 N 543.941 0.601185 1.45683 0
M  V30 5845 C 544.888 -0.121396 2.30481 0
M  V30 5846 C 545.858 -0.866232 1.41724 0
M  V30 5847 O 547.043 -0.85324 1.70659 0
M  V30 5848 C 544.183 -1.11704 3.26521 0
M  V30 5849 C 543.296 -0.373741 4.3038 0
M  V30 5850 C 542.431 -1.35854 5.13534 0
M  V30 5851 C 541.47 -0.602689 6.09126 0
M  V30 5852 N 540.607 -1.53645 6.85082 0
M  V30 5853 H 545.447 0.607732 2.91737 0
M  V30 5854 H 542.984 0.311502 1.43764 0
M  V30 5855 H 544.942 -1.70735 3.80664 0
M  V30 5856 H 543.572 -1.81366 2.67032 0
M  V30 5857 H 542.624 0.331962 3.78949 0
M  V30 5858 H 543.936 0.2163 4.98331 0
M  V30 5859 H 543.09 -2.02111 5.72046 0
M  V30 5860 H 541.829 -1.98251 4.45587 0
M  V30 5861 H 540.834 0.0735482 5.49751 0
M  V30 5862 H 542.059 0.0161467 6.79098 0
M  V30 5863 H 540.005 -2.14819 6.1983 0
M  V30 5864 H 539.922 -0.999688 7.49361 0
M  V30 5865 H 541.19 -2.1888 7.48139 0
M  V30 5866 N 545.419 -1.53889 0.339982 0
M  V30 5867 C 546.329 -2.28604 -0.526988 0
M  V30 5868 C 547.345 -1.33578 -1.11503 0
M  V30 5869 O 548.521 -1.66612 -1.13148 0
M  V30 5870 C 545.586 -3.04164 -1.66389 0
M  V30 5871 C 544.647 -4.14809 -1.10599 0
M  V30 5872 C 543.88 -4.86756 -2.18871 0
M  V30 5873 O 544.103 -4.58343 -3.39526 0
M  V30 5874 O 543.037 -5.73289 -1.83366 0
M  V30 5875 H 546.863 -3.03594 0.0802707 0
M  V30 5876 H 544.448 -1.4903 0.105141 0
M  V30 5877 H 546.33 -3.51427 -2.32544 0
M  V30 5878 H 545.005 -2.32035 -2.25703 0
M  V30 5879 H 543.912 -3.71857 -0.409067 0
M  V30 5880 H 545.245 -4.89029 -0.557771 0
M  V30 5881 N 546.897 -0.0685191 -1.57451 0
M  V30 5882 C 548.143 0.602239 -1.93652 0
M  V30 5883 C 548.476 1.6946 -0.948526 0
M  V30 5884 O 547.751 1.94487 0.022782 0
M  V30 5885 C 548.034 1.18223 -3.4014 0
M  V30 5886 C 547.887 0.0967431 -4.49696 0
M  V30 5887 C 549.206 2.08872 -3.87377 0
M  V30 5888 H 546.325 0.217453 -0.70419 0
M  V30 5889 H 548.967 -0.133821 -1.89528 0
M  V30 5890 H 547.117 1.80953 -3.43785 0
M  V30 5891 H 548.789 -0.536155 -4.58174 0
M  V30 5892 H 547.032 -0.573063 -4.29998 0
M  V30 5893 H 547.703 0.542894 -5.49324 0
M  V30 5894 H 550.179 1.56081 -3.85717 0
M  V30 5895 H 549.055 2.46389 -4.90493 0
M  V30 5896 H 549.316 2.99572 -3.25129 0
M  V30 5897 N 548.375 1.56261 0.205012 0
M  V30 5898 C 549.621 1.80306 0.9283 0
M  V30 5899 C 549.954 0.640932 1.83319 0
M  V30 5900 O 549.229 -0.359032 1.91158 0
M  V30 5901 C 549.512 3.14547 1.75306 0
M  V30 5902 C 549.365 4.41236 0.873562 0
M  V30 5903 C 550.684 3.45382 2.72762 0
M  V30 5904 H 547.803 0.655929 0.336044 0
M  V30 5905 H 550.445 1.88984 0.196211 0
M  V30 5906 H 548.595 3.0728 2.37721 0
M  V30 5907 H 550.267 4.60539 0.264887 0
M  V30 5908 H 548.51 4.33427 0.179773 0
M  V30 5909 H 549.181 5.31639 1.48541 0
M  V30 5910 H 551.657 3.52884 2.20481 0
M  V30 5911 H 550.533 4.40449 3.2756 0
M  V30 5912 H 550.794 2.68377 3.51321 0
M  V30 5913 N 549.853 -0.472356 1.50355 0
M  V30 5914 C 551.269 -0.806001 1.37753 0
M  V30 5915 C 551.469 -1.968 0.432649 0
M  V30 5916 O 550.525 -2.52189 -0.12519 0
M  V30 5917 C 551.838 -1.11926 2.79093 0
M  V30 5918 C 553.386 -1.22579 2.87999 0
M  V30 5919 C 553.861 -1.57218 4.3017 0
M  V30 5920 N 555.352 -1.64212 4.33115 0
M  V30 5921 C 556.087 -1.92517 5.40116 0
M  V30 5922 N 555.583 -2.1885 6.57325 0
M  V30 5923 N 557.376 -1.94008 5.27558 0
M  V30 5924 H 549.527 0.293451 2.10363 0
M  V30 5925 H 551.79 0.0687672 0.945503 0
M  V30 5926 H 551.496 -0.338504 3.50067 0
M  V30 5927 H 551.37 -2.05577 3.16256 0
M  V30 5928 H 553.757 -1.99722 2.17245 0
M  V30 5929 H 553.838 -0.269107 2.54381 0
M  V30 5930 H 553.482 -0.806154 5.01461 0
M  V30 5931 H 553.412 -2.54034 4.61275 0
M  V30 5932 H 555.903 -1.45906 3.48597 0
M  V30 5933 H 556.216 -2.39718 7.3468 0
M  V30 5934 H 554.561 -2.16245 6.60502 0
M  V30 5935 H 557.752 -1.72931 4.34986 0
M  V30 5936 H 557.925 -2.15731 6.11035 0
M  V30 5937 N 551.331 -1.39911 -0.725443 0
M  V30 5938 C 552.747 -1.21725 -1.03224 0
M  V30 5939 C 552.947 -0.0855224 -2.01318 0
M  V30 5940 O 552.003 0.55976 -2.46217 0
M  V30 5941 C 553.316 -2.55511 -1.58539 0
M  V30 5942 C 554.864 -2.62439 -1.70572 0
M  V30 5943 C 555.339 -3.9647 -2.29294 0
M  V30 5944 N 556.83 -3.98159 -2.36692 0
M  V30 5945 C 557.565 -4.98647 -2.83088 0
M  V30 5946 N 557.061 -6.0953 -3.2931 0
M  V30 5947 N 558.854 -4.8602 -2.82384 0
M  V30 5948 H 551.005 -2.12267 -0.075048 0
M  V30 5949 H 553.268 -0.943136 -0.0959066 0
M  V30 5950 H 552.974 -3.38926 -0.939249 0
M  V30 5951 H 552.848 -2.75905 -2.57208 0
M  V30 5952 H 555.235 -1.79401 -2.34306 0
M  V30 5953 H 555.316 -2.45885 -0.705297 0
M  V30 5954 H 554.96 -4.79942 -1.66186 0
M  V30 5955 H 554.89 -4.10349 -3.30032 0
M  V30 5956 H 557.381 -3.18085 -2.04035 0
M  V30 5957 H 557.694 -6.82106 -3.6325 0
M  V30 5958 H 556.039 -6.1311 -3.27294 0
M  V30 5959 H 559.23 -3.98493 -2.45603 0
M  V30 5960 H 559.403 -5.64478 -3.18226 0
M  V30 5961 N 552.809 0.956637 -1.25245 0
M  V30 5962 C 553.757 2.0743 -1.0524 0
M  V30 5963 C 554.751 1.69392 0.0160725 0
M  V30 5964 O 555.957 1.7946 -0.139382 0
M  V30 5965 H 552.332 0.678921 -0.323373 0
M  V30 5966 H 554.303 2.2146 -1.99995 0
M  V30 5967 C 553.052 3.40872 -0.685702 0
M  V30 5968 H 552.375 3.70607 -1.49968 0
M  V30 5969 H 553.815 4.19939 -0.585415 0
M  V30 5970 C 552.274 3.31367 0.608082 0
M  V30 5971 O 552.804 3.66214 1.65076 0
M  V30 5972 N 551.01 2.84486 0.592955 0
M  V30 5973 H 550.557 2.56326 -0.25592 0
M  V30 5974 H 550.515 2.78509 1.45877 0
M  V30 5975 N 554.287 1.06798 1.15896 0
M  V30 5976 C 555.703 0.792423 1.38538 0
M  V30 5977 C 555.903 -0.60592 1.92174 0
M  V30 5978 O 554.959 -1.36561 2.12385 0
M  V30 5979 C 556.272 1.86157 2.36149 0
M  V30 5980 C 557.82 1.88567 2.49823 0
M  V30 5981 C 558.295 2.9455 3.5072 0
M  V30 5982 N 559.786 2.93616 3.58251 0
M  V30 5983 C 560.521 3.72267 4.36125 0
M  V30 5984 N 560.017 4.60751 5.17379 0
M  V30 5985 N 561.81 3.60637 4.31158 0
M  V30 5986 H 553.961 1.96993 0.794198 0
M  V30 5987 H 556.224 0.853942 0.411688 0
M  V30 5988 H 555.93 2.86603 2.03843 0
M  V30 5989 H 555.804 1.71692 3.3586 0
M  V30 5990 H 558.191 0.887765 2.8143 0
M  V30 5991 H 558.272 2.0711 1.5013 0
M  V30 5992 H 557.916 3.94537 3.19849 0
M  V30 5993 H 557.846 2.73255 4.50155 0
M  V30 5994 H 560.337 2.29472 3.00252 0
M  V30 5995 H 560.65 5.17408 5.74028 0
M  V30 5996 H 558.995 4.64803 5.16704 0
M  V30 5997 H 562.186 2.90892 3.66742 0
M  V30 5998 H 562.359 4.22176 4.91601 0
M  V30 5999 N 555.766 -1.3263 0.851289 0
M  V30 6000 C 556.676 -2.32722 0.296268 0
M  V30 6001 C 557.692 -1.63901 -0.584162 0
M  V30 6002 O 558.868 -1.95465 -0.485334 0
M  V30 6003 C 555.933 -3.42942 -0.509103 0
M  V30 6004 C 554.994 -4.2746 0.397069 0
M  V30 6005 C 554.227 -5.32416 -0.36996 0
M  V30 6006 O 554.45 -5.47491 -1.6003 0
M  V30 6007 O 553.384 -6.01327 0.262493 0
M  V30 6008 H 557.21 -2.82078 1.12543 0
M  V30 6009 H 554.795 -1.36194 0.614135 0
M  V30 6010 H 556.677 -4.1017 -0.96634 0
M  V30 6011 H 555.352 -2.95781 -1.31512 0
M  V30 6012 H 554.259 -3.63053 0.902411 0
M  V30 6013 H 555.592 -4.78136 1.16818 0
M  V30 6014 N 557.244 -0.608902 -1.45362 0
M  V30 6015 C 558.207 0.0992563 -2.28985 0
M  V30 6016 C 559.207 0.793841 -1.39838 0
M  V30 6017 O 560.397 0.641804 -1.61946 0
M  V30 6018 C 557.529 1.15073 -3.20891 0
M  V30 6019 H 558.722 -0.635964 -2.93079 0
M  V30 6020 H 556.275 -0.368007 -1.51906 0
M  V30 6021 H 557.01 1.91667 -2.616 0
M  V30 6022 H 556.795 0.656867 -3.86559 0
M  V30 6023 H 558.285 1.64665 -3.83765 0
M  V30 6024 N 558.722 1.53707 -0.348139 0
M  V30 6025 C 559.97 2.00591 0.246478 0
M  V30 6026 C 560.291 1.23753 1.50699 0
M  V30 6027 O 559.561 0.345964 1.92821 0
M  V30 6028 H 558.141 0.741053 0.0940679 0
M  V30 6029 H 560.803 1.89139 -0.470354 0
M  V30 6030 H 559.899 3.08297 0.485714 0
M  V30 6031 N 560.2 0.0768682 1.57412 0
M  V30 6032 C 561.449 -0.590679 1.92857 0
M  V30 6033 C 561.762 -1.70461 0.959293 0
M  V30 6034 O 562.968 -2.43207 1.20675 0
M  V30 6035 C 561.424 -1.10204 3.42612 0
M  V30 6036 C 561.032 -0.0188447 4.47996 0
M  V30 6037 C 562.776 -1.74336 3.87049 0
M  V30 6038 C 560.683 -0.544536 5.88888 0
M  V30 6039 H 559.613 -0.224411 0.71983 0
M  V30 6040 H 562.264 0.149924 1.82887 0
M  V30 6041 H 560.646 -1.89577 3.47673 0
M  V30 6042 H 561.82 0.755936 4.54557 0
M  V30 6043 H 560.135 0.526555 4.13057 0
M  V30 6044 H 562.732 -2.14708 4.89699 0
M  V30 6045 H 563.075 -2.60537 3.24694 0
M  V30 6046 H 563.608 -1.01577 3.84613 0
M  V30 6047 H 560.347 0.280426 6.549 0
M  V30 6048 H 559.867 -1.28673 5.85836 0
M  V30 6049 H 561.546 -1.01933 6.3892 0
M  V30 6050 N 561.678 -1.56367 -0.196722 0
M  V30 6051 C 563.089 -1.70462 -0.761545 0
M  V30 6052 C 563.44 -0.683161 -1.83922 0
M  V30 6053 O 562.565 0.160753 -2.15802 0
M  V30 6054 C 563.16 -3.09057 -1.38814 0
M  V30 6055 C 561.719 -3.24922 -1.90007 0
M  V30 6056 C 560.866 -2.66412 -0.769399 0
M  V30 6057 H 563.817 -1.58675 0.0283263 0
M  V30 6058 H 563.838 -3.06296 -2.2575 0
M  V30 6059 H 563.35 -3.83378 -0.603559 0
M  V30 6060 H 561.451 -2.55514 -2.71189 0
M  V30 6061 H 561.564 -4.3241 -2.06297 0
M  V30 6062 H 559.928 -2.25546 -1.18326 0
M  V30 6063 H 560.711 -3.433 0.00291773 0
M  V30 6064 N 563.156 0.464375 -1.50603 0
M  V30 6065 C 564.403 1.21596 -1.61928 0
M  V30 6066 C 564.731 1.91804 -0.322737 0
M  V30 6067 O 563.986 1.83065 0.691776 0
M  V30 6068 C 564.285 2.278 -2.75394 0
M  V30 6069 C 563.951 1.74797 -4.1564 0
M  V30 6070 C 562.613 1.60063 -4.53799 0
M  V30 6071 C 564.965 1.35548 -5.03266 0
M  V30 6072 C 562.293 1.04514 -5.77316 0
M  V30 6073 C 564.645 0.814381 -6.27336 0
M  V30 6074 C 563.309 0.653726 -6.64291 0
M  V30 6075 H 562.579 0.444951 -0.592536 0
M  V30 6076 H 565.226 0.510964 -1.84557 0
M  V30 6077 H 563.531 3.04233 -2.46879 0
M  V30 6078 H 565.228 2.85723 -2.81359 0
M  V30 6079 H 561.818 1.87234 -3.8554 0
M  V30 6080 H 566.002 1.45763 -4.74412 0
M  V30 6081 H 561.258 0.908186 -6.04617 0
M  V30 6082 H 565.432 0.501626 -6.94591 0
M  V30 6083 H 563.059 0.22114 -7.59878 0
M  V30 6084 N 564.634 1.40294 0.718013 0
M  V30 6085 C 565.911 1.2894 1.47084 0
M  V30 6086 C 566.291 -0.0933625 2.10893 0
M  V30 6087 O 565.639 -1.10598 1.99951 0
M  V30 6088 C 565.849 2.4264 2.50852 0
M  V30 6089 C 567.197 2.8276 3.16752 0
M  V30 6090 O 568.221 2.42215 2.61171 0
M  V30 6091 O 567.08 3.528 4.17366 0
M  V30 6092 H 564.174 0.506236 0.653952 0
M  V30 6093 H 566.72 1.52208 0.750394 0
M  V30 6094 H 565.492 3.35009 2.022 0
M  V30 6095 H 565.115 2.21129 3.30435 0
M  V30 6096 N 566.112 -0.949982 1.2575 0
M  V30 6097 C 567.34 -1.72972 1.13527 0
M  V30 6098 C 567.755 -1.8623 -0.310453 0
M  V30 6099 O 567.112 -1.36336 -1.2132 0
M  V30 6100 C 567.163 -3.14108 1.78936 0
M  V30 6101 O 566.884 -3.01493 3.17858 0
M  V30 6102 C 568.385 -4.08338 1.72554 0
M  V30 6103 H 565.605 -0.541864 0.395758 0
M  V30 6104 H 568.149 -1.19151 1.66202 0
M  V30 6105 H 566.304 -3.64858 1.30221 0
M  V30 6106 H 566.718 -3.90559 3.50092 0
M  V30 6107 H 568.192 -5.04963 2.22973 0
M  V30 6108 H 568.669 -4.33742 0.690251 0
M  V30 6109 H 569.275 -3.63506 2.2078 0
M  V30 6110 N 567.59 -1.07411 -1.15328 0
M  V30 6111 C 568.522 -0.652924 -2.19703 0
M  V30 6112 C 569.535 0.294869 -1.60107 0
M  V30 6113 O 570.724 0.0840932 -1.78302 0
M  V30 6114 C 567.824 0.061434 -3.38844 0
M  V30 6115 C 566.997 -0.902696 -4.27984 0
M  V30 6116 C 566.056 -0.225521 -5.25717 0
M  V30 6117 O 565.082 -0.86676 -5.62562 0
M  V30 6118 N 566.284 1.02858 -5.71315 0
M  V30 6119 H 569.049 -1.55081 -2.56457 0
M  V30 6120 H 566.61 -0.958883 -1.30449 0
M  V30 6121 H 568.602 0.525145 -4.01278 0
M  V30 6122 H 567.172 0.861269 -3.00501 0
M  V30 6123 H 566.392 -1.54551 -3.6264 0
M  V30 6124 H 567.68 -1.55636 -4.84412 0
M  V30 6125 H 567.078 1.56948 -5.43492 0
M  V30 6126 H 565.635 1.43596 -6.35786 0
M  V30 6127 N 569.068 1.32177 -0.85831 0
M  V30 6128 C 570.314 1.97417 -0.46417 0
M  V30 6129 C 570.647 1.67746 0.978514 0
M  V30 6130 O 569.922 0.967654 1.68721 0
M  V30 6131 C 570.205 3.53069 -0.708094 0
M  V30 6132 C 570.058 3.92357 -2.19946 0
M  V30 6133 C 571.377 4.39783 -0.166881 0
M  V30 6134 H 568.496 0.717097 -0.17012 0
M  V30 6135 H 571.138 1.56499 -1.07741 0
M  V30 6136 H 569.288 3.88054 -0.186128 0
M  V30 6137 H 570.96 3.67533 -2.78779 0
M  V30 6138 H 569.203 3.41384 -2.67656 0
M  V30 6139 H 569.874 5.00841 -2.32082 0
M  V30 6140 H 572.35 4.11556 -0.613285 0
M  V30 6141 H 571.226 5.47671 -0.367093 0
M  V30 6142 H 571.487 4.32196 0.930559 0
M  V30 6143 N 570.547 0.616602 1.45037 0
M  V30 6144 C 571.775 0.121968 2.0654 0
M  V30 6145 C 572.19 -1.19743 1.45969 0
M  V30 6146 O 571.547 -1.73133 0.577168 0
M  V30 6147 C 571.598 -0.0145171 3.61497 0
M  V30 6148 O 571.319 1.25269 4.19809 0
M  V30 6149 C 572.82 -0.539555 4.40004 0
M  V30 6150 H 570.04 0.0729837 0.667019 0
M  V30 6151 H 572.584 0.846891 1.8614 0
M  V30 6152 H 570.739 -0.689809 3.81209 0
M  V30 6153 H 571.153 1.08816 5.13088 0
M  V30 6154 H 572.627 -0.584112 5.48901 0
M  V30 6155 H 573.104 -1.56368 4.10421 0
M  V30 6156 H 573.71 0.101995 4.25178 0
M  V30 6157 N 572.025 -1.5352 0.356285 0
M  V30 6158 C 573.302 -1.93405 -0.292223 0
M  V30 6159 C 573.682 -1.28901 -1.67176 0
M  V30 6160 O 573.03 -0.444632 -2.24132 0
M  V30 6161 C 573.24 -3.47223 -0.35175 0
M  V30 6162 C 574.588 -4.20389 -0.596534 0
M  V30 6163 O 575.612 -3.53554 -0.433344 0
M  V30 6164 O 574.471 -5.3881 -0.913589 0
M  V30 6165 H 571.565 -0.808666 -0.173172 0
M  V30 6166 H 574.111 -1.64713 0.408391 0
M  V30 6167 H 572.883 -3.86423 0.615841 0
M  V30 6168 H 572.506 -3.8212 -1.09864 0
M  V30 6169 N 573.503 -0.0852151 -1.57369 0
M  V30 6170 C 574.752 0.580443 -1.93168 0
M  V30 6171 C 575.065 1.6995 -0.968319 0
M  V30 6172 O 576.271 2.42564 -1.21963 0
M  V30 6173 C 574.727 1.08386 -3.43192 0
M  V30 6174 C 574.335 -0.00491388 -4.48 0
M  V30 6175 C 576.079 1.72281 -3.87968 0
M  V30 6176 C 573.986 0.513299 -5.89168 0
M  V30 6177 H 572.916 0.22059 -0.72101 0
M  V30 6178 H 575.567 -0.159621 -1.82804 0
M  V30 6179 H 573.949 1.8773 -3.48674 0
M  V30 6180 H 575.123 -0.780032 -4.5415 0
M  V30 6181 H 573.438 -0.548453 -4.12772 0
M  V30 6182 H 576.035 2.12108 -4.9083 0
M  V30 6183 H 576.378 2.58811 -3.26071 0
M  V30 6184 H 576.911 0.995359 -3.85146 0
M  V30 6185 H 573.65 -0.315153 -6.54742 0
M  V30 6186 H 573.17 1.25564 -5.8651 0
M  V30 6187 H 574.849 0.985433 -6.39451 0
M  V30 6188 N 574.981 1.5647 0.188427 0
M  V30 6189 C 576.258 1.71857 0.934058 0
M  V30 6190 C 576.638 0.641867 2.01105 0
M  V30 6191 O 575.986 -0.346098 2.25864 0
M  V30 6192 C 576.196 3.14431 1.5144 0
M  V30 6193 C 577.544 3.74869 1.99396 0
M  V30 6194 O 578.568 3.17601 1.61269 0
M  V30 6195 O 577.427 4.75387 2.69573 0
M  V30 6196 H 574.521 0.701186 0.438483 0
M  V30 6197 H 577.067 1.68768 0.177599 0
M  V30 6198 H 575.839 3.8427 0.738416 0
M  V30 6199 H 575.462 3.21775 2.33552 0
M  V30 6200 N 576.459 -0.456382 1.50847 0
M  V30 6201 C 577.689 -1.22848 1.66108 0
M  V30 6202 C 578.097 -1.85936 0.349897 0
M  V30 6203 O 577.44 -1.70664 -0.679665 0
M  V30 6204 C 577.502 -2.36722 2.70561 0
M  V30 6205 C 577.166 -1.94154 4.13707 0
M  V30 6206 C 578.163 -1.4557 4.99105 0
M  V30 6207 C 575.848 -2.02426 4.59705 0
M  V30 6208 C 577.842 -1.0582 6.28555 0
M  V30 6209 C 575.529 -1.62287 5.89157 0
M  V30 6210 C 576.527 -1.14064 6.73408 0
M  V30 6211 O 576.215 -0.744873 8.00442 0
M  V30 6212 H 575.947 -0.377105 0.561042 0
M  V30 6213 H 578.501 -0.549431 1.97915 0
M  V30 6214 H 576.731 -3.07844 2.34027 0
M  V30 6215 H 578.42 -2.98646 2.74892 0
M  V30 6216 H 579.186 -1.38589 4.64777 0
M  V30 6217 H 575.065 -2.38908 3.94264 0
M  V30 6218 H 578.609 -0.6811 6.94267 0
M  V30 6219 H 574.506 -1.68932 6.23003 0
M  V30 6220 H 575.274 -0.87242 8.13837 0
M  V30 6221 N 577.937 -1.40673 -0.710563 0
M  V30 6222 C 578.87 -1.35742 -1.83438 0
M  V30 6223 C 579.848 -0.226997 -1.61008 0
M  V30 6224 O 581.032 -0.411477 -1.83954 0
M  V30 6225 C 578.159 -1.11374 -3.19865 0
M  V30 6226 C 577.205 -2.26935 -3.61113 0
M  V30 6227 S 578.038 -3.89352 -3.67648 0
M  V30 6228 C 579.194 -3.67258 -5.06826 0
M  V30 6229 H 579.427 -2.30848 -1.87341 0
M  V30 6230 H 576.96 -1.27018 -0.877831 0
M  V30 6231 H 578.918 -0.980004 -3.9863 0
M  V30 6232 H 577.579 -0.179135 -3.13589 0
M  V30 6233 H 576.772 -2.0554 -4.60184 0
M  V30 6234 H 576.374 -2.36638 -2.89618 0
M  V30 6235 H 578.666 -3.26036 -5.93891 0
M  V30 6236 H 579.609 -4.65878 -5.33257 0
M  V30 6237 H 580.017 -3.0084 -4.77656 0
M  V30 6238 N 579.415 0.9433 -1.26252 0
M  V30 6239 C 580.325 2.07532 -1.09397 0
M  V30 6240 C 581.341 1.73977 -0.0280449 0
M  V30 6241 O 582.517 2.00067 -0.231337 0
M  V30 6242 C 579.582 3.39002 -0.726523 0
M  V30 6243 C 578.643 3.86353 -1.87163 0
M  V30 6244 C 577.876 5.11549 -1.52162 0
M  V30 6245 O 578.099 5.68834 -0.422385 0
M  V30 6246 O 577.033 5.53889 -2.35565 0
M  V30 6247 H 580.859 2.24658 -2.04359 0
M  V30 6248 H 578.444 1.05988 -1.05295 0
M  V30 6249 H 580.326 4.18 -0.534236 0
M  V30 6250 H 579.001 3.2312 0.193721 0
M  V30 6251 H 577.908 3.0831 -2.11886 0
M  V30 6252 H 579.241 4.06752 -2.77152 0
M  V30 6253 N 580.893 1.08022 1.14757 0
M  V30 6254 C 582.17 0.720386 1.81851 0
M  V30 6255 C 582.55 -0.796375 1.95502 0
M  V30 6256 O 581.898 -1.71339 1.51179 0
M  V30 6257 C 582.108 1.44273 3.17783 0
M  V30 6258 C 583.456 1.59925 3.93331 0
M  V30 6259 O 584.48 1.40407 3.2736 0
M  V30 6260 O 583.339 1.92096 5.11626 0
M  V30 6261 H 580.433 0.257142 0.786007 0
M  V30 6262 H 582.979 1.18155 1.21809 0
M  V30 6263 H 581.751 2.47618 3.02987 0
M  V30 6264 H 581.374 0.97279 3.85516 0
M  V30 6265 N 582.371 -1.3172 0.865308 0
M  V30 6266 C 583.318 -2.2863 0.315736 0
M  V30 6267 C 584.288 -1.55524 -0.583213 0
M  V30 6268 O 585.473 -1.83694 -0.51585 0
M  V30 6269 C 582.613 -3.41735 -0.480773 0
M  V30 6270 C 581.726 -4.297 0.445167 0
M  V30 6271 C 580.861 -5.29944 -0.365012 0
M  V30 6272 C 579.9 -6.09554 0.557651 0
M  V30 6273 N 579.037 -7.01768 -0.215994 0
M  V30 6274 H 583.877 -2.75026 1.14736 0
M  V30 6275 H 581.414 -1.35302 0.577209 0
M  V30 6276 H 583.372 -4.06045 -0.958306 0
M  V30 6277 H 582.002 -2.96461 -1.27714 0
M  V30 6278 H 581.054 -3.65875 1.04113 0
M  V30 6279 H 582.366 -4.85295 1.15284 0
M  V30 6280 H 581.52 -5.99908 -0.905255 0
M  V30 6281 H 580.259 -4.74994 -1.106 0
M  V30 6282 H 579.264 -5.38485 1.10969 0
M  V30 6283 H 580.489 -6.66591 1.29742 0
M  V30 6284 H 578.435 -6.49232 -0.939878 0
M  V30 6285 H 578.352 -7.54762 0.432431 0
M  V30 6286 H 579.62 -7.76002 -0.737618 0
M  V30 6287 N 583.85 -0.624285 -1.44708 0
M  V30 6288 C 584.797 0.0847135 -2.30644 0
M  V30 6289 C 585.767 0.843575 -1.43084 0
M  V30 6290 O 586.952 0.825982 -1.71995 0
M  V30 6291 C 584.091 1.06495 -3.28257 0
M  V30 6292 C 583.205 0.305224 -4.3092 0
M  V30 6293 C 582.34 1.27667 -5.1563 0
M  V30 6294 C 581.379 0.505706 -6.10007 0
M  V30 6295 N 580.516 1.42727 -6.8744 0
M  V30 6296 H 585.356 -0.654068 -2.90733 0
M  V30 6297 H 582.893 -0.334334 -1.4325 0
M  V30 6298 H 584.851 1.64658 -3.83332 0
M  V30 6299 H 583.481 1.77094 -2.69884 0
M  V30 6300 H 582.533 -0.392207 -3.78373 0
M  V30 6301 H 583.845 -0.295553 -4.97924 0
M  V30 6302 H 582.999 1.92984 -5.75189 0
M  V30 6303 H 581.738 1.91137 -4.48685 0
M  V30 6304 H 580.743 -0.160999 -5.49564 0
M  V30 6305 H 581.968 -0.124183 -6.78986 0
M  V30 6306 H 579.913 2.04931 -6.23169 0
M  V30 6307 H 579.831 0.880345 -7.50857 0
M  V30 6308 H 581.099 2.0695 -7.51526 0
M  V30 6309 N 585.328 1.53329 -0.364422 0
M  V30 6310 C 586.605 1.93557 0.281962 0
M  V30 6311 C 586.985 1.29786 1.6649 0
M  V30 6312 O 586.333 0.456512 2.23893 0
M  V30 6313 C 586.543 3.47405 0.333331 0
M  V30 6314 C 587.891 4.20699 0.574231 0
M  V30 6315 O 588.915 3.53779 0.414588 0
M  V30 6316 O 587.774 5.39287 0.885002 0
M  V30 6317 H 584.868 0.809573 0.168881 0
M  V30 6318 H 587.414 1.64494 -0.417121 0
M  V30 6319 H 586.186 3.86091 -0.636326 0
M  V30 6320 H 585.809 3.82697 1.07836 0
M  V30 6321 N 586.806 0.0935595 1.57322 0
M  V30 6322 C 588.053 -0.570509 1.94297 0
M  V30 6323 C 588.381 -1.68286 0.97519 0
M  V30 6324 O 587.636 -1.95699 -0.00548655 0
M  V30 6325 C 587.935 -1.16692 3.37813 0
M  V30 6326 C 587.601 -0.178509 4.50547 0
M  V30 6327 C 586.263 0.0933475 4.81109 0
M  V30 6328 C 588.615 0.496472 5.1883 0
M  V30 6329 C 585.943 1.0469 5.77284 0
M  V30 6330 C 588.295 1.43849 6.16028 0
M  V30 6331 C 586.959 1.71859 6.44997 0
M  V30 6332 H 586.229 -0.208764 0.710984 0
M  V30 6333 H 588.876 0.169066 1.90752 0
M  V30 6334 H 587.181 -1.98271 3.37929 0
M  V30 6335 H 588.878 -1.6884 3.63722 0
M  V30 6336 H 585.468 -0.400584 4.26724 0
M  V30 6337 H 589.652 0.299584 4.95395 0
M  V30 6338 H 584.908 1.27094 5.98044 0
M  V30 6339 H 589.082 1.96734 6.68034 0
M  V30 6340 H 586.709 2.45906 7.19329 0
M  V30 6341 N 588.284 -1.56567 -0.180126 0
M  V30 6342 C 589.512 -1.85618 -0.913972 0
M  V30 6343 C 589.927 -0.677892 -1.7621 0
M  V30 6344 O 589.284 0.353171 -1.7905 0
M  V30 6345 C 589.335 -3.13619 -1.79793 0
M  V30 6346 O 589.056 -4.26906 -0.98402 0
M  V30 6347 C 590.557 -3.55954 -2.64219 0
M  V30 6348 H 587.777 -0.616043 -0.265954 0
M  V30 6349 H 590.321 -2.03681 -0.182872 0
M  V30 6350 H 588.476 -2.97409 -2.48247 0
M  V30 6351 H 588.89 -4.9989 -1.58776 0
M  V30 6352 H 590.364 -4.48444 -3.21873 0
M  V30 6353 H 590.841 -2.79653 -3.38661 0
M  V30 6354 H 591.447 -3.74746 -2.01111 0
M  V30 6355 N 589.762 0.448376 -1.51087 0
M  V30 6356 C 590.992 1.21965 -1.66757 0
M  V30 6357 C 591.4 1.85748 -0.359753 0
M  V30 6358 O 590.743 1.71022 0.670604 0
M  V30 6359 C 590.805 2.35284 -2.71812 0
M  V30 6360 C 590.469 1.91957 -4.1473 0
M  V30 6361 C 591.466 1.42921 -4.9987 0
M  V30 6362 C 589.151 1.99985 -4.60772 0
M  V30 6363 C 591.145 1.02485 -6.29107 0
M  V30 6364 C 588.832 1.5916 -5.90009 0
M  V30 6365 C 589.83 1.10491 -6.74004 0
M  V30 6366 O 589.518 0.702413 -8.00825 0
M  V30 6367 H 589.25 0.374125 -0.563034 0
M  V30 6368 H 591.804 0.538927 -1.98204 0
M  V30 6369 H 590.034 3.06599 -2.35657 0
M  V30 6370 H 591.723 2.97184 -2.76472 0
M  V30 6371 H 592.489 1.36123 -4.65506 0
M  V30 6372 H 588.368 2.36814 -3.95525 0
M  V30 6373 H 591.912 0.644271 -6.94619 0
M  V30 6374 H 587.809 1.65626 -6.2389 0
M  V30 6375 H 588.577 0.829248 -8.14288 0
M  V30 6376 N 591.24 1.41047 0.703093 0
M  V30 6377 C 592.517 1.30493 1.45708 0
M  V30 6378 C 592.897 -0.0709892 2.10981 0
M  V30 6379 O 592.245 -1.08471 2.01113 0
M  V30 6380 C 592.455 2.45287 2.48265 0
M  V30 6381 C 593.803 2.86104 3.13735 0
M  V30 6382 O 594.827 2.44971 2.58587 0
M  V30 6383 O 593.686 3.57206 4.13601 0
M  V30 6384 H 590.78 0.513144 0.648546 0
M  V30 6385 H 593.326 1.52995 0.734208 0
M  V30 6386 H 592.098 3.37135 1.98635 0
M  V30 6387 H 591.721 2.24622 3.28071 0
M  V30 6388 N 592.718 -0.936591 1.26751 0
M  V30 6389 C 593.65 -2.03991 1.045 0
M  V30 6390 C 594.663 -1.628 0.00394261 0
M  V30 6391 O 595.852 -1.76817 0.244526 0
M  V30 6392 C 592.952 -3.34218 0.561403 0
M  V30 6393 C 592.125 -4.04151 1.67274 0
M  V30 6394 C 591.184 -5.12651 1.1864 0
M  V30 6395 O 590.21 -5.37104 1.88437 0
M  V30 6396 N 591.412 -5.80488 0.037278 0
M  V30 6397 H 594.177 -2.23644 1.99508 0
M  V30 6398 H 591.738 -1.10638 1.18198 0
M  V30 6399 H 593.73 -4.04101 0.220136 0
M  V30 6400 H 592.3 -3.11203 -0.295211 0
M  V30 6401 H 591.52 -3.28121 2.18472 0
M  V30 6402 H 592.808 -4.47626 2.41885 0
M  V30 6403 H 592.206 -5.63064 -0.545494 0
M  V30 6404 H 590.763 -6.5134 -0.244877 0
M  V30 6405 N 594.196 -1.08629 -1.14182 0
M  V30 6406 C 595.442 -0.818556 -1.85546 0
M  V30 6407 C 595.775 0.654076 -1.82854 0
M  V30 6408 O 595.05 1.48099 -1.26083 0
M  V30 6409 C 595.333 -1.34397 -3.3408 0
M  V30 6410 C 595.186 -2.8821 -3.45333 0
M  V30 6411 C 596.505 -0.971069 -4.29253 0
M  V30 6412 H 593.624 -0.298821 -0.673702 0
M  V30 6413 H 596.266 -1.34629 -1.34071 0
M  V30 6414 H 594.416 -0.895064 -3.78049 0
M  V30 6415 H 596.088 -3.41488 -3.10134 0
M  V30 6416 H 594.331 -3.25756 -2.86471 0
M  V30 6417 H 595.002 -3.20047 -4.49749 0
M  V30 6418 H 597.478 -1.35809 -3.93313 0
M  V30 6419 H 596.354 -1.36586 -5.31635 0
M  V30 6420 H 596.615 0.121659 -4.41933 0
M  V30 6421 N 595.674 1.31259 -0.872281 0
M  V30 6422 C 596.637 2.26744 -0.334656 0
M  V30 6423 C 597.637 1.52307 0.515681 0
M  V30 6424 O 598.827 1.71148 0.324656 0
M  V30 6425 C 595.959 3.36841 0.524482 0
M  V30 6426 H 597.152 2.75812 -1.17762 0
M  V30 6427 H 594.705 1.42232 -0.648064 0
M  V30 6428 H 595.44 2.93069 1.38855 0
M  V30 6429 H 595.225 3.92009 -0.0844299 0
M  V30 6430 H 596.715 4.07944 0.892838 0
M  V30 6431 N 597.152 0.631951 1.44375 0
M  V30 6432 C 598.399 0.136767 2.02038 0
M  V30 6433 C 598.727 -1.24168 1.49709 0
M  V30 6434 O 597.982 -1.83809 0.671763 0
M  V30 6435 C 598.281 0.0735861 3.57324 0
M  V30 6436 C 597.947 1.39092 4.28911 0
M  V30 6437 C 596.609 1.75171 4.48184 0
M  V30 6438 C 598.961 2.26042 4.69632 0
M  V30 6439 C 596.289 2.97907 5.05439 0
M  V30 6440 C 598.641 3.4805 5.28246 0
M  V30 6441 C 597.305 3.84351 5.45738 0
M  V30 6442 H 596.575 0.0500466 0.739308 0
M  V30 6443 H 599.222 0.818429 1.7313 0
M  V30 6444 H 597.527 -0.691449 3.8565 0
M  V30 6445 H 599.224 -0.326091 3.99672 0
M  V30 6446 H 595.814 1.10015 4.1424 0
M  V30 6447 H 599.998 1.99463 4.54454 0
M  V30 6448 H 595.254 3.26108 5.17169 0
M  V30 6449 H 599.428 4.15658 5.5875 0
M  V30 6450 H 597.055 4.79538 5.8987 0
M  V30 6451 N 598.631 -1.53133 0.372548 0
M  V30 6452 C 599.579 -2.27473 -0.485681 0
M  V30 6453 C 600.573 -1.30719 -1.07745 0
M  V30 6454 O 601.779 -1.48321 -1.01985 0
M  V30 6455 H 598.154 -0.731269 -0.175356 0
M  V30 6456 H 600.125 -2.97955 0.162986 0
M  V30 6457 C 598.874 -3.08191 -1.60978 0
M  V30 6458 H 598.197 -3.82488 -1.16373 0
M  V30 6459 H 599.637 -3.63373 -2.18485 0
M  V30 6460 C 598.096 -2.19461 -2.55614 0
M  V30 6461 O 598.626 -1.81008 -3.58607 0
M  V30 6462 N 596.832 -1.83955 -2.24965 0
M  V30 6463 H 596.379 -2.15423 -1.41247 0
M  V30 6464 H 596.337 -1.24874 -2.88538 0
M  V30 6465 N 600.109 -0.101901 -1.5727 0
M  V30 6466 C 601.357 0.559091 -1.94213 0
M  V30 6467 C 601.678 1.68297 -0.984948 0
M  V30 6468 O 600.948 1.95863 -0.0381975 0
M  V30 6469 H 599.528 0.20952 -0.717015 0
M  V30 6470 H 602.19 -0.166831 -1.94185 0
M  V30 6471 H 601.286 0.96485 -2.96811 0
M  V30 6472 N 601.587 1.56661 0.17182 0
M  V30 6473 C 602.517 1.99401 1.21498 0
M  V30 6474 C 603.498 0.869516 1.46197 0
M  V30 6475 O 604.683 1.13556 1.57539 0
M  V30 6476 C 601.813 2.35346 2.55401 0
M  V30 6477 C 600.767 3.5075 2.45272 0
M  V30 6478 C 600.093 3.72437 3.8366 0
M  V30 6479 C 601.393 4.84216 1.95787 0
M  V30 6480 H 603.087 2.86792 0.859699 0
M  V30 6481 H 600.633 1.37977 0.412103 0
M  V30 6482 H 602.586 2.63843 3.2858 0
M  V30 6483 H 601.31 1.44864 2.92715 0
M  V30 6484 H 599.969 3.2238 1.74547 0
M  V30 6485 H 599.617 2.79246 4.18367 0
M  V30 6486 H 599.317 4.50087 3.77751 0
M  V30 6487 H 600.841 4.03334 4.58426 0
M  V30 6488 H 602.255 5.11592 2.5874 0
M  V30 6489 H 600.652 5.65498 2.00827 0
M  V30 6490 H 601.722 4.76243 0.912159 0
M  V30 6491 N 603.065 -0.440357 1.51323 0
M  V30 6492 C 604.476 -1.02032 1.56353 0
M  V30 6493 C 604.827 -1.92382 0.385197 0
M  V30 6494 O 603.952 -2.10583 -0.498373 0
M  V30 6495 C 604.547 -1.85723 2.83359 0
M  V30 6496 C 603.106 -2.38774 2.90971 0
M  V30 6497 C 602.253 -1.17908 2.50984 0
M  V30 6498 H 605.204 -0.221744 1.57143 0
M  V30 6499 H 605.225 -2.71141 2.66951 0
M  V30 6500 H 604.737 -1.19939 3.69102 0
M  V30 6501 H 602.838 -3.08021 2.09651 0
M  V30 6502 H 602.951 -2.71778 3.94555 0
M  V30 6503 H 601.315 -1.52347 2.04114 0
M  V30 6504 H 602.098 -0.537393 3.39068 0
M  V30 6505 N 604.543 -1.41418 -0.695603 0
M  V30 6506 C 605.475 -1.39195 -1.82092 0
M  V30 6507 C 606.488 -0.294132 -1.60121 0
M  V30 6508 O 607.677 -0.555854 -1.69625 0
M  V30 6509 C 604.777 -1.14828 -3.18854 0
M  V30 6510 C 603.95 -2.36649 -3.67853 0
M  V30 6511 C 603.009 -2.08139 -4.83285 0
M  V30 6512 O 602.035 -2.81177 -4.94902 0
M  V30 6513 N 603.237 -1.07162 -5.70523 0
M  V30 6514 H 606.002 -2.36185 -1.84491 0
M  V30 6515 H 603.563 -1.3603 -0.877923 0
M  V30 6516 H 605.555 -0.937075 -3.93702 0
M  V30 6517 H 604.125 -0.264358 -3.1148 0
M  V30 6518 H 603.345 -2.73472 -2.83913 0
M  V30 6519 H 604.633 -3.17816 -3.97329 0
M  V30 6520 H 604.031 -0.467124 -5.63768 0
M  V30 6521 H 602.588 -0.920311 -6.4527 0
M  V30 6522 N 606.021 0.929856 -1.27246 0
M  V30 6523 C 607.268 1.67731 -1.13457 0
M  V30 6524 C 607.596 1.9185 0.319998 0
M  V30 6525 O 606.851 1.50524 1.25064 0
M  V30 6526 C 607.15 3.05116 -1.86115 0
M  V30 6527 C 606.816 3.00715 -3.35978 0
M  V30 6528 C 605.478 2.99222 -3.76855 0
M  V30 6529 C 607.83 2.92168 -4.3161 0
M  V30 6530 C 605.158 2.86962 -5.11732 0
M  V30 6531 C 607.51 2.81449 -5.66542 0
M  V30 6532 C 606.174 2.78305 -6.06715 0
M  V30 6533 H 605.444 0.613772 -0.415168 0
M  V30 6534 H 608.091 1.08456 -1.57827 0
M  V30 6535 H 606.396 3.68083 -1.34246 0
M  V30 6536 H 608.093 3.61822 -1.72876 0
M  V30 6537 H 604.683 3.02664 -3.03468 0
M  V30 6538 H 608.867 2.92421 -4.01003 0
M  V30 6539 H 604.123 2.82913 -5.42006 0
M  V30 6540 H 608.297 2.738 -6.40317 0
M  V30 6541 H 605.924 2.68561 -7.11181 0
M  V30 6542 N 607.499 1.09233 1.13605 0
M  V30 6543 C 608.745 0.828385 1.8511 0
M  V30 6544 C 609.078 -0.64437 1.83198 0
M  V30 6545 O 608.353 -1.47428 1.26867 0
M  V30 6546 C 608.636 1.36167 3.33363 0
M  V30 6547 C 608.489 2.90038 3.438 0
M  V30 6548 C 609.808 0.993819 4.28732 0
M  V30 6549 H 606.927 0.30239 0.672108 0
M  V30 6550 H 609.569 1.35339 1.33355 0
M  V30 6551 H 607.719 0.9151 3.77569 0
M  V30 6552 H 609.391 3.43128 3.08319 0
M  V30 6553 H 607.634 3.27271 2.84739 0
M  V30 6554 H 608.305 3.22428 4.48045 0
M  V30 6555 H 610.781 1.37893 3.92587 0
M  V30 6556 H 609.657 1.39403 5.30903 0
M  V30 6557 H 609.918 -0.0982206 4.41991 0
M  V30 6558 N 608.977 -1.30795 0.87923 0
M  V30 6559 C 609.909 -2.27241 0.299025 0
M  V30 6560 C 610.922 -1.53472 -0.543166 0
M  V30 6561 O 612.111 -1.74756 -0.363651 0
M  V30 6562 C 609.211 -3.33655 -0.593931 0
M  V30 6563 C 608.384 -4.36857 0.2179 0
M  V30 6564 C 607.443 -5.22715 -0.604646 0
M  V30 6565 O 606.469 -5.69192 -0.0293838 0
M  V30 6566 N 607.671 -5.48008 -1.91488 0
M  V30 6567 H 610.436 -2.77667 1.12788 0
M  V30 6568 H 607.997 -1.43914 0.741637 0
M  V30 6569 H 609.989 -3.88013 -1.15012 0
M  V30 6570 H 608.559 -2.83202 -1.32346 0
M  V30 6571 H 607.779 -3.82444 0.955536 0
M  V30 6572 H 609.067 -5.02869 0.774614 0
M  V30 6573 H 608.465 -5.1202 -2.40525 0
M  V30 6574 H 607.022 -6.05264 -2.41864 0
M  V30 6575 N 610.455 -0.639598 -1.44038 0
M  V30 6576 C 611.732 -0.078012 -1.95444 0
M  V30 6577 C 612.112 1.39847 -1.58133 0
M  V30 6578 O 611.46 2.11714 -0.859614 0
M  V30 6579 C 611.67 -0.309832 -3.47622 0
M  V30 6580 C 613.018 -0.207521 -4.24093 0
M  V30 6581 O 614.042 -0.241653 -3.55379 0
M  V30 6582 O 612.901 -0.119641 -5.46369 0
M  V30 6583 H 609.995 0.0174534 -0.826816 0
M  V30 6584 H 612.541 -0.711891 -1.54046 0
M  V30 6585 H 611.313 -1.33401 -3.67858 0
M  V30 6586 H 610.936 0.357777 -3.95987 0
M  V30 6587 N 611.933 1.52934 -0.380664 0
M  V30 6588 C 612.863 2.29118 0.450268 0
M  V30 6589 C 613.844 1.32153 1.07096 0
M  V30 6590 O 615.029 1.61038 1.08537 0
M  V30 6591 C 612.159 3.09161 1.58231 0
M  V30 6592 C 611.113 4.13938 1.0881 0
M  V30 6593 C 610.439 4.82153 2.31155 0
M  V30 6594 C 611.739 5.22048 0.162146 0
M  V30 6595 H 613.433 2.98826 -0.185361 0
M  V30 6596 H 610.979 1.43715 -0.0905886 0
M  V30 6597 H 612.932 3.61211 2.17036 0
M  V30 6598 H 611.656 2.3717 2.2454 0
M  V30 6599 H 610.315 3.62855 0.522633 0
M  V30 6600 H 609.963 4.06719 2.95953 0
M  V30 6601 H 609.663 5.52966 1.98752 0
M  V30 6602 H 611.187 5.37004 2.90618 0
M  V30 6603 H 612.601 5.6951 0.658126 0
M  V30 6604 H 610.998 6.00057 -0.0717122 0
M  V30 6605 H 612.068 4.78398 -0.791438 0
M  V30 6606 N 613.412 0.11024 1.57214 0
M  V30 6607 C 614.362 -0.854147 2.11396 0
M  V30 6608 C 615.346 -1.23394 1.03261 0
M  V30 6609 O 616.538 -1.20649 1.2951 0
M  V30 6610 C 613.667 -2.10752 2.70995 0
M  V30 6611 C 612.753 -1.75249 3.86198 0
M  V30 6612 N 613.144 -1.10377 4.9361 0
M  V30 6613 C 611.442 -2.04763 3.96217 0
M  V30 6614 C 612.143 -0.938199 5.74084 0
M  V30 6615 N 611.119 -1.46039 5.23616 0
M  V30 6616 H 614.921 -0.348897 2.91822 0
M  V30 6617 H 612.435 -0.0925071 1.62136 0
M  V30 6618 H 614.432 -2.80801 3.0815 0
M  V30 6619 H 613.092 -2.61829 1.9203 0
M  V30 6620 H 614.103 -0.768785 5.12162 0
M  V30 6621 H 610.78 -2.57948 3.28282 0
M  V30 6622 H 612.17 -0.429678 6.70525 0
M  V30 6623 N 614.89 -1.56749 -0.16351 0
M  V30 6624 C 616.167 -1.73321 -0.906599 0
M  V30 6625 C 616.547 -0.673779 -2.00059 0
M  V30 6626 O 615.895 0.310121 -2.26386 0
M  V30 6627 C 616.105 -3.168 -1.46419 0
M  V30 6628 C 617.453 -3.77993 -1.93407 0
M  V30 6629 O 618.477 -3.20127 -1.56196 0
M  V30 6630 O 617.336 -4.79615 -2.61976 0
M  V30 6631 H 614.43 -0.708073 -0.427272 0
M  V30 6632 H 616.976 -1.69029 -0.150727 0
M  V30 6633 H 615.748 -3.85396 -0.677189 0
M  V30 6634 H 615.371 -3.2545 -2.28403 0
M  V30 6635 N 616.368 0.432326 -1.51554 0
M  V30 6636 C 617.318 1.52366 -1.69614 0
M  V30 6637 C 618.302 1.51205 -0.550083 0
M  V30 6638 O 619.494 1.57573 -0.806206 0
M  V30 6639 C 616.623 2.90513 -1.82913 0
M  V30 6640 C 615.709 2.9641 -3.03318 0
M  V30 6641 N 616.1 2.72043 -4.26411 0
M  V30 6642 C 614.398 3.27572 -3.02675 0
M  V30 6643 C 615.099 2.83912 -5.07709 0
M  V30 6644 N 614.075 3.15798 -4.42462 0
M  V30 6645 H 617.877 1.32285 -2.62446 0
M  V30 6646 H 615.391 0.639708 -1.4927 0
M  V30 6647 H 617.388 3.69032 -1.93962 0
M  V30 6648 H 616.048 3.1161 -0.912655 0
M  V30 6649 H 617.059 2.46876 -4.55272 0
M  V30 6650 H 613.736 3.54411 -2.20678 0
M  V30 6651 H 615.126 2.68984 -6.15709 0
M  V30 6652 N 617.846 1.41785 0.688094 0
M  V30 6653 C 619.094 1.41264 1.4453 0
M  V30 6654 C 619.415 0.0252946 1.94984 0
M  V30 6655 O 618.685 -0.934081 1.72197 0
M  V30 6656 H 617.265 0.519998 0.536294 0
M  V30 6657 H 619.927 1.7709 0.813941 0
M  V30 6658 H 619.023 2.10439 2.30482 0
M  V30 6659 N 619.324 -0.923095 1.27737 0
M  V30 6660 C 620.256 -2.02871 1.06658 0
M  V30 6661 C 621.269 -1.62786 0.0212095 0
M  V30 6662 O 622.458 -1.76548 0.263267 0
M  V30 6663 C 619.558 -3.33603 0.59682 0
M  V30 6664 C 618.731 -4.02354 1.71551 0
M  V30 6665 C 617.79 -5.11364 1.24071 0
M  V30 6666 O 616.816 -5.35075 1.94123 0
M  V30 6667 N 618.018 -5.80416 0.0988444 0
M  V30 6668 H 620.783 -2.21515 2.01869 0
M  V30 6669 H 618.344 -1.09378 1.19365 0
M  V30 6670 H 620.336 -4.03845 0.262984 0
M  V30 6671 H 618.906 -3.11499 -0.262187 0
M  V30 6672 H 618.126 -3.25786 2.2194 0
M  V30 6673 H 619.414 -4.45035 2.46619 0
M  V30 6674 H 618.812 -5.63611 -0.485743 0
M  V30 6675 H 617.369 -6.51563 -0.17578 0
M  V30 6676 N 620.802 -1.09834 -1.13024 0
M  V30 6677 C 621.749 -0.741522 -2.18564 0
M  V30 6678 C 622.719 0.279236 -1.63736 0
M  V30 6679 O 623.904 0.159923 -1.90129 0
M  V30 6680 C 621.044 -0.17277 -3.44667 0
M  V30 6681 C 620.157 -1.24808 -4.13578 0
M  V30 6682 C 619.292 -0.641631 -5.27311 0
M  V30 6683 C 618.331 -1.69795 -5.88078 0
M  V30 6684 N 617.468 -1.11223 -6.93234 0
M  V30 6685 H 622.308 -1.64576 -2.48432 0
M  V30 6686 H 619.845 -0.822174 -1.21978 0
M  V30 6687 H 621.803 0.17482 -4.16834 0
M  V30 6688 H 620.433 0.694725 -3.15235 0
M  V30 6689 H 619.485 -1.71288 -3.39653 0
M  V30 6690 H 620.797 -2.04795 -4.54819 0
M  V30 6691 H 619.951 -0.243128 -6.06213 0
M  V30 6692 H 618.69 0.189742 -4.87331 0
M  V30 6693 H 617.695 -2.10595 -5.07868 0
M  V30 6694 H 618.92 -2.53206 -6.3013 0
M  V30 6695 H 616.866 -0.302208 -6.55304 0
M  V30 6696 H 616.783 -1.84901 -7.3304 0
M  V30 6697 H 618.051 -0.740068 -7.75979 0
M  V30 6698 N 622.28 1.30327 -0.886154 0
M  V30 6699 C 623.51 1.99964 -0.519421 0
M  V30 6700 C 623.918 1.66593 0.89686 0
M  V30 6701 O 623.261 0.899886 1.60149 0
M  V30 6702 C 623.323 3.54187 -0.615795 0
M  V30 6703 C 622.987 4.11078 -1.9966 0
M  V30 6704 C 623.984 4.26985 -2.96614 0
M  V30 6705 C 621.669 4.46429 -2.30231 0
M  V30 6706 C 623.663 4.77456 -4.22273 0
M  V30 6707 C 621.35 4.966 -3.56135 0
M  V30 6708 C 622.348 5.12066 -4.5197 0
M  V30 6709 O 622.036 5.61154 -5.7564 0
M  V30 6710 H 621.768 0.645979 -0.199217 0
M  V30 6711 H 624.322 1.67154 -1.19368 0
M  V30 6712 H 622.552 3.86528 0.115448 0
M  V30 6713 H 624.241 4.05065 -0.26017 0
M  V30 6714 H 625.007 3.99975 -2.74308 0
M  V30 6715 H 620.886 4.33658 -1.56404 0
M  V30 6716 H 624.43 4.89444 -4.97082 0
M  V30 6717 H 620.327 5.23045 -3.78277 0
M  V30 6718 H 621.095 5.79494 -5.78039 0
M  V30 6719 N 623.758 0.647228 1.43697 0
M  V30 6720 C 625.004 0.158422 2.0218 0
M  V30 6721 C 625.337 -1.22233 1.50907 0
M  V30 6722 O 624.612 -1.81478 0.699702 0
M  V30 6723 C 624.895 0.1627 3.59732 0
M  V30 6724 C 624.748 1.57694 4.21251 0
M  V30 6725 C 626.067 -0.504138 4.37203 0
M  V30 6726 H 623.186 0.059042 0.734631 0
M  V30 6727 H 625.828 0.826772 1.71069 0
M  V30 6728 H 623.978 -0.406414 3.86368 0
M  V30 6729 H 625.65 2.19618 4.05667 0
M  V30 6730 H 623.893 2.12603 3.7813 0
M  V30 6731 H 624.564 1.53183 5.3032 0
M  V30 6732 H 627.04 -0.0199841 4.16095 0
M  V30 6733 H 625.916 -0.470394 5.46881 0
M  V30 6734 H 626.177 -1.57726 4.13007 0
M  V30 6735 N 625.236 -1.5273 0.388769 0
M  V30 6736 C 626.485 -2.00757 -0.194833 0
M  V30 6737 C 626.798 -1.27951 -1.47946 0
M  V30 6738 O 628.004 -1.66686 -2.14308 0
M  V30 6739 C 626.46 -3.57695 -0.397762 0
M  V30 6740 C 626.068 -4.394 0.873583 0
M  V30 6741 C 627.812 -4.14012 -0.937759 0
M  V30 6742 C 625.719 -5.87938 0.638962 0
M  V30 6743 H 624.649 -0.750101 -0.0765845 0
M  V30 6744 H 627.3 -1.76239 0.511086 0
M  V30 6745 H 625.682 -3.7846 -1.16552 0
M  V30 6746 H 626.856 -4.30403 1.64591 0
M  V30 6747 H 625.171 -3.94301 1.33849 0
M  V30 6748 H 627.768 -5.22645 -1.12899 0
M  V30 6749 H 628.111 -3.7007 -1.90666 0
M  V30 6750 H 628.644 -3.97137 -0.229588 0
M  V30 6751 H 625.383 -6.36202 1.57885 0
M  V30 6752 H 624.903 -5.99726 -0.094443 0
M  V30 6753 H 626.582 -6.46423 0.273299 0
M  V30 6754 N 626.714 -0.118576 -1.57153 0
M  V30 6755 C 627.963 0.539339 -1.94355 0
M  V30 6756 C 628.276 1.67858 -1.00415 0
M  V30 6757 O 629.482 2.39922 -1.27081 0
M  V30 6758 C 627.938 1.01082 -3.45414 0
M  V30 6759 C 627.546 -0.0999402 -4.47889 0
M  V30 6760 C 629.29 1.64013 -3.91535 0
M  V30 6761 C 627.197 0.388212 -5.90124 0
M  V30 6762 H 626.127 0.205247 -0.725527 0
M  V30 6763 H 628.778 -0.19836 -1.82425 0
M  V30 6764 H 627.16 1.80292 -3.52577 0
M  V30 6765 H 628.334 -0.876189 -4.52393 0
M  V30 6766 H 626.649 -0.635885 -4.11516 0
M  V30 6767 H 629.246 2.01649 -4.95219 0
M  V30 6768 H 629.589 2.51836 -3.31488 0
M  V30 6769 H 630.122 0.913439 -3.87171 0
M  V30 6770 H 626.861 -0.453963 -6.53926 0
M  V30 6771 H 626.381 1.13095 -5.89041 0
M  V30 6772 H 628.06 0.849574 -6.41398 0
M  V30 6773 N 628.193 1.56834 0.155195 0
M  V30 6774 C 629.123 2.00678 1.19376 0
M  V30 6775 C 630.104 0.884973 1.45266 0
M  V30 6776 O 631.289 1.1522 1.56326 0
M  V30 6777 C 628.419 2.38042 2.5289 0
M  V30 6778 C 627.373 3.53332 2.41538 0
M  V30 6779 C 626.699 3.76485 3.79688 0
M  V30 6780 C 627.999 4.86265 1.9064 0
M  V30 6781 H 629.693 2.87688 0.829232 0
M  V30 6782 H 627.239 1.38407 0.397445 0
M  V30 6783 H 629.192 2.67314 3.25763 0
M  V30 6784 H 627.916 1.4796 2.91162 0
M  V30 6785 H 626.575 3.24213 1.71117 0
M  V30 6786 H 626.223 2.83667 4.15382 0
M  V30 6787 H 625.923 4.54068 3.72956 0
M  V30 6788 H 627.447 4.08174 4.54122 0
M  V30 6789 H 628.861 5.14308 2.53299 0
M  V30 6790 H 627.258 5.67597 1.94818 0
M  V30 6791 H 628.328 4.77184 0.861596 0
M  V30 6792 N 629.671 -0.424282 1.51781 0
M  V30 6793 C 630.948 -1.18464 1.55646 0
M  V30 6794 C 631.328 -2.08529 0.328438 0
M  V30 6795 O 630.676 -2.17969 -0.685693 0
M  V30 6796 C 630.886 -1.97514 2.87731 0
M  V30 6797 C 632.234 -2.54106 3.40169 0
M  V30 6798 O 633.258 -2.07711 2.89369 0
M  V30 6799 O 632.117 -3.38759 4.28841 0
M  V30 6800 H 629.211 -0.540055 0.626314 0
M  V30 6801 H 631.757 -0.432291 1.64102 0
M  V30 6802 H 630.529 -1.31444 3.68562 0
M  V30 6803 H 630.152 -2.79787 2.82498 0
M  V30 6804 N 631.149 -1.42148 -0.680565 0
M  V30 6805 C 632.56 -1.3768 -1.26099 0
M  V30 6806 C 632.911 -0.0672348 -1.96085 0
M  V30 6807 O 632.036 0.834172 -1.99676 0
M  V30 6808 C 632.631 -2.49387 -2.29328 0
M  V30 6809 C 631.19 -2.4827 -2.82911 0
M  V30 6810 C 630.337 -2.2847 -1.57152 0
M  V30 6811 H 633.288 -1.51446 -0.474326 0
M  V30 6812 H 633.309 -2.19307 -3.10941 0
M  V30 6813 H 632.821 -3.44686 -1.78363 0
M  V30 6814 H 630.922 -1.56773 -3.38013 0
M  V30 6815 H 631.035 -3.45109 -3.3232 0
M  V30 6816 H 629.399 -1.76623 -1.83511 0
M  V30 6817 H 630.182 -3.25816 -1.0816 0
M  V30 6818 N 632.627 0.916307 -1.28225 0
M  V30 6819 C 633.59 1.99996 -1.11957 0
M  V30 6820 C 634.59 1.60688 -0.0600152 0
M  V30 6821 O 635.78 1.71499 -0.30558 0
M  V30 6822 C 632.912 3.33458 -0.708411 0
M  V30 6823 H 634.105 2.15858 -2.08196 0
M  V30 6824 H 631.658 1.09863 -1.11175 0
M  V30 6825 H 632.393 3.23297 0.254859 0
M  V30 6826 H 632.178 3.63349 -1.47377 0
M  V30 6827 H 633.668 4.13014 -0.617164 0
M  V30 6828 N 634.105 1.10431 1.1244 0
M  V30 6829 C 635.354 0.841539 1.83306 0
M  V30 6830 C 635.667 -0.634961 1.85007 0
M  V30 6831 O 636.873 -1.01363 2.51869 0
M  V30 6832 C 635.329 1.45565 3.29149 0
M  V30 6833 C 634.937 2.96544 3.35806 0
M  V30 6834 C 636.681 1.27227 4.04986 0
M  V30 6835 C 634.588 3.5099 4.75983 0
M  V30 6836 H 633.518 0.311156 0.686803 0
M  V30 6837 H 636.169 1.32829 1.26604 0
M  V30 6838 H 634.551 0.896574 3.85717 0
M  V30 6839 H 635.725 3.58766 2.89177 0
M  V30 6840 H 634.04 3.14036 2.73442 0
M  V30 6841 H 636.637 1.65348 5.08492 0
M  V30 6842 H 636.98 0.213834 4.1575 0
M  V30 6843 H 637.513 1.79941 3.54776 0
M  V30 6844 H 634.252 4.56499 4.70413 0
M  V30 6845 H 633.772 2.93535 5.23065 0
M  V30 6846 H 635.451 3.48808 5.44924 0
M  V30 6847 N 635.583 -1.29855 0.893053 0
M  V30 6848 C 636.808 -2.00512 0.530066 0
M  V30 6849 C 637.233 -1.66446 -0.876199 0
M  V30 6850 O 636.591 -0.885446 -1.58207 0
M  V30 6851 C 636.639 -3.53308 0.721505 0
M  V30 6852 O 635.743 -4.11764 -0.228994 0
M  V30 6853 H 635.084 -0.630617 0.207891 0
M  V30 6854 H 637.614 -1.6551 1.20282 0
M  V30 6855 H 637.624 -4.03206 0.623599 0
M  V30 6856 H 636.299 -3.77439 1.74678 0
M  V30 6857 H 634.876 -3.72805 -0.0841034 0
M  V30 6858 N 637.061 -0.65484 -1.43351 0
M  V30 6859 C 638.31 -0.166215 -2.01014 0
M  V30 6860 C 638.623 1.22764 -1.52278 0
M  V30 6861 O 639.829 1.81156 -2.02224 0
M  V30 6862 C 638.285 -0.246341 -3.59056 0
M  V30 6863 C 637.893 -1.64299 -4.16785 0
M  V30 6864 C 639.637 0.184597 -4.24098 0
M  V30 6865 C 637.544 -1.67695 -5.67126 0
M  V30 6866 H 636.474 -0.0583769 -0.751737 0
M  V30 6867 H 639.125 -0.817111 -1.64303 0
M  V30 6868 H 637.507 0.472092 -3.93176 0
M  V30 6869 H 638.681 -2.3869 -3.94162 0
M  V30 6870 H 636.996 -2.02004 -3.6412 0
M  V30 6871 H 639.593 0.179088 -5.344 0
M  V30 6872 H 639.936 1.21632 -3.98135 0
M  V30 6873 H 640.469 -0.482141 -3.94867 0
M  V30 6874 H 637.208 -2.68783 -5.9786 0
M  V30 6875 H 636.728 -0.976313 -5.91801 0
M  V30 6876 H 638.407 -1.42142 -6.31193 0
M  V30 6877 N 638.539 1.52521 -0.396863 0
M  V30 6878 C 639.787 2.01274 0.182536 0
M  V30 6879 C 640.108 1.28485 1.46685 0
M  V30 6880 O 639.378 0.407134 1.91623 0
M  V30 6881 H 637.958 0.743671 0.0704442 0
M  V30 6882 H 640.62 1.87547 -0.530289 0
M  V30 6883 H 639.716 3.09687 0.387385 0
M  V30 6884 N 640.017 0.126909 1.57088 0
M  V30 6885 C 641.433 -0.229641 1.57939 0
M  V30 6886 C 641.633 -1.66145 1.1401 0
M  V30 6887 O 640.689 -2.3843 0.831119 0
M  V30 6888 C 642.002 0.0108648 3.00698 0
M  V30 6889 C 643.55 -0.054418 3.12953 0
M  V30 6890 C 644.025 0.158497 4.57726 0
M  V30 6891 N 645.516 0.104735 4.63082 0
M  V30 6892 C 646.251 0.24427 5.72879 0
M  V30 6893 N 645.747 0.440415 6.91399 0
M  V30 6894 N 647.54 0.183286 5.61801 0
M  V30 6895 H 639.691 1.06203 1.83942 0
M  V30 6896 H 641.954 0.418834 0.85046 0
M  V30 6897 H 641.66 1.00102 3.37154 0
M  V30 6898 H 641.534 -0.717512 3.70313 0
M  V30 6899 H 643.921 -1.0351 2.7635 0
M  V30 6900 H 644.002 0.705967 2.45865 0
M  V30 6901 H 643.646 1.13619 4.95028 0
M  V30 6902 H 643.576 -0.62197 5.22914 0
M  V30 6903 H 646.067 -0.0430298 3.77876 0
M  V30 6904 H 646.38 0.537536 7.70928 0
M  V30 6905 H 644.725 0.476488 6.93365 0
M  V30 6906 H 647.916 0.0309561 4.6809 0
M  V30 6907 H 648.089 0.295471 6.47326 0
M  V30 6908 N 641.495 -1.56914 -0.146875 0
M  V30 6909 C 642.911 -1.51582 -0.499518 0
M  V30 6910 C 643.111 -0.83535 -1.83369 0
M  V30 6911 O 642.167 -0.405932 -2.49216 0
M  V30 6912 C 643.48 -2.96349 -0.509711 0
M  V30 6913 C 645.028 -3.07288 -0.595217 0
M  V30 6914 C 645.503 -4.53562 -0.636071 0
M  V30 6915 N 646.994 -4.57906 -0.69829 0
M  V30 6916 C 647.729 -5.68462 -0.750886 0
M  V30 6917 N 647.225 -6.88588 -0.76282 0
M  V30 6918 N 649.018 -5.56496 -0.791777 0
M  V30 6919 H 641.169 -1.99547 0.727656 0
M  V30 6920 H 643.432 -0.910113 0.265327 0
M  V30 6921 H 643.138 -3.4939 0.402409 0
M  V30 6922 H 643.012 -3.52307 -1.34758 0
M  V30 6923 H 645.399 -2.54266 -1.49776 0
M  V30 6924 H 645.48 -2.54373 0.2698 0
M  V30 6925 H 645.124 -5.07222 0.262313 0
M  V30 6926 H 645.054 -5.04259 -1.51758 0
M  V30 6927 H 647.545 -3.71429 -0.696362 0
M  V30 6928 H 647.858 -7.68598 -0.804804 0
M  V30 6929 H 646.203 -6.91148 -0.730694 0
M  V30 6930 H 649.394 -4.61562 -0.779624 0
M  V30 6931 H 649.567 -6.42671 -0.829301 0
M  V30 6932 N 642.974 0.416227 -1.52004 0
M  V30 6933 C 643.937 1.48926 -1.74223 0
M  V30 6934 C 644.937 1.48693 -0.612119 0
M  V30 6935 O 646.127 1.50343 -0.879921 0
M  V30 6936 C 643.259 2.88372 -1.81809 0
M  V30 6937 H 644.452 1.3052 -2.70008 0
M  V30 6938 H 642.005 0.646271 -1.42313 0
M  V30 6939 H 642.74 3.12157 -0.879135 0
M  V30 6940 H 642.525 2.89944 -2.6396 0
M  V30 6941 H 644.015 3.66173 -2.00766 0
M  V30 6942 N 644.452 1.42507 0.673017 0
M  V30 6943 C 645.4 1.46362 1.80779 0
M  V30 6944 C 646.394 0.339166 1.6597 0
M  V30 6945 O 647.6 0.512262 1.72557 0
M  V30 6946 H 643.975 0.458433 0.596107 0
M  V30 6947 H 645.946 2.41953 1.74646 0
M  V30 6948 C 644.695 1.38462 3.18941 0
M  V30 6949 H 644.018 2.24283 3.30964 0
M  V30 6950 H 645.458 1.45221 3.98355 0
M  V30 6951 C 643.917 0.0996354 3.36753 0
M  V30 6952 O 644.447 -0.846894 3.92671 0
M  V30 6953 N 642.653 0.016211 2.90595 0
M  V30 6954 H 642.2 0.78725 2.45276 0
M  V30 6955 H 642.158 -0.84291 3.0289 0
M  V30 6956 N 645.93 -0.909495 1.28709 0
M  V30 6957 C 647.178 -1.65577 1.15882 0
M  V30 6958 C 647.499 -1.928 -0.292108 0
M  V30 6959 O 646.769 -1.54716 -1.20166 0
M  V30 6960 H 645.349 -0.613714 0.425869 0
M  V30 6961 H 648.011 -1.09108 1.61498 0
M  V30 6962 H 647.107 -2.61634 1.70159 0
M  V30 6963 N 647.408 -1.11026 -1.11852 0
M  V30 6964 C 648.636 -0.878818 -1.87308 0
M  V30 6965 C 649.051 0.57111 -1.79955 0
M  V30 6966 O 648.408 1.39409 -1.17777 0
M  V30 6967 C 648.459 -1.3264 -3.36287 0
M  V30 6968 O 648.18 -2.71948 -3.43476 0
M  V30 6969 C 649.681 -1.12974 -4.28663 0
M  V30 6970 H 646.901 -0.315015 -0.592458 0
M  V30 6971 H 649.445 -1.47649 -1.41492 0
M  V30 6972 H 647.6 -0.772269 -3.79625 0
M  V30 6973 H 648.014 -2.91241 -4.3621 0
M  V30 6974 H 649.488 -1.49198 -5.31454 0
M  V30 6975 H 649.965 -0.0689127 -4.39146 0
M  V30 6976 H 650.571 -1.67064 -3.91113 0
M  V30 6977 N 648.886 1.2938 -0.899927 0
M  V30 6978 C 650.114 1.99691 -0.541386 0
M  V30 6979 C 650.529 1.67355 0.873936 0
M  V30 6980 O 649.886 0.918728 1.57688 0
M  V30 6981 C 649.937 3.54168 -0.72438 0
M  V30 6982 O 649.658 3.85359 -2.08399 0
M  V30 6983 C 651.159 4.41746 -0.370819 0
M  V30 6984 H 648.379 0.638037 -0.207726 0
M  V30 6985 H 650.923 1.6491 -1.20934 0
M  V30 6986 H 649.078 3.87261 -0.103607 0
M  V30 6987 H 649.492 4.80032 -2.11352 0
M  V30 6988 H 650.966 5.49256 -0.549693 0
M  V30 6989 H 651.443 4.33712 0.692148 0
M  V30 6990 H 652.049 4.14125 -0.968543 0
M  V30 6991 N 650.364 0.662433 1.43002 0
M  V30 6992 C 651.594 0.187343 2.05749 0
M  V30 6993 C 652.002 -1.15582 1.49791 0
M  V30 6994 O 651.345 -1.72651 0.627487 0
M  V30 6995 C 651.407 0.0316493 3.59486 0
M  V30 6996 C 651.071 1.30156 4.38073 0
M  V30 6997 C 652.068 2.23234 4.69535 0
M  V30 6998 C 649.753 1.54572 4.77926 0
M  V30 6999 C 651.747 3.39012 5.39768 0
M  V30 7000 C 649.434 2.70641 5.47902 0
M  V30 7001 C 650.432 3.62687 5.78746 0
M  V30 7002 O 650.12 4.76728 6.47291 0
M  V30 7003 H 649.852 0.0915214 0.669776 0
M  V30 7004 H 652.406 0.905982 1.8434 0
M  V30 7005 H 650.636 -0.742451 3.79506 0
M  V30 7006 H 652.325 -0.401977 4.03905 0
M  V30 7007 H 653.091 2.05616 4.39257 0
M  V30 7008 H 648.97 0.83804 4.53319 0
M  V30 7009 H 652.514 4.10877 5.63761 0
M  V30 7010 H 648.411 2.88189 5.77596 0
M  V30 7011 H 649.179 4.76113 6.65777 0
M  V30 7012 N 651.842 -1.52309 0.404946 0
M  V30 7013 C 652.805 -2.25491 -0.410651 0
M  V30 7014 C 653.805 -1.27704 -0.977154 0
M  V30 7015 O 654.995 -1.51679 -0.856691 0
M  V30 7016 C 652.127 -3.02197 -1.57765 0
M  V30 7017 H 653.32 -2.99015 0.230277 0
M  V30 7018 H 650.873 -1.55506 0.157377 0
M  V30 7019 H 651.608 -2.33013 -2.25556 0
M  V30 7020 H 651.393 -3.73987 -1.17797 0
M  V30 7021 H 652.883 -3.57719 -2.15469 0
M  V30 7022 N 653.32 -0.135238 -1.57019 0
M  V30 7023 C 654.548 0.526066 -2.001 0
M  V30 7024 C 654.963 1.59184 -1.01519 0
M  V30 7025 O 654.32 1.82497 -0.0104258 0
M  V30 7026 C 654.371 1.13744 -3.43139 0
M  V30 7027 O 654.092 0.114259 -4.37951 0
M  V30 7028 C 655.593 1.8805 -4.01438 0
M  V30 7029 H 652.813 0.137962 -0.656664 0
M  V30 7030 H 655.357 -0.226359 -2.03243 0
M  V30 7031 H 653.512 1.84056 -3.40885 0
M  V30 7032 H 653.926 0.56058 -5.21496 0
M  V30 7033 H 655.4 2.26133 -5.03555 0
M  V30 7034 H 655.877 2.76194 -3.41487 0
M  V30 7035 H 656.483 1.22464 -4.07287 0
M  V30 7036 N 654.798 1.5699 0.138552 0
M  V30 7037 C 656.028 1.87704 0.863184 0
M  V30 7038 C 656.436 0.722411 1.74865 0
M  V30 7039 O 655.779 -0.316636 1.80951 0
M  V30 7040 C 655.841 3.13219 1.76449 0
M  V30 7041 C 655.505 4.44648 1.05532 0
M  V30 7042 C 656.502 5.18318 0.405252 0
M  V30 7043 C 654.187 4.91367 1.04231 0
M  V30 7044 C 656.181 6.36916 -0.24835 0
M  V30 7045 C 653.868 6.09887 0.384904 0
M  V30 7046 C 654.866 6.82508 -0.259292 0
M  V30 7047 O 654.554 7.98775 -0.906258 0
M  V30 7048 H 654.286 0.626255 0.254521 0
M  V30 7049 H 656.84 2.04966 0.133472 0
M  V30 7050 H 655.07 2.91988 2.53535 0
M  V30 7051 H 656.759 3.30111 2.36181 0
M  V30 7052 H 657.525 4.83289 0.407053 0
M  V30 7053 H 653.404 4.34759 1.53315 0
M  V30 7054 H 656.948 6.93538 -0.751755 0
M  V30 7055 H 652.845 6.44376 0.380799 0
M  V30 7056 H 653.613 8.14494 -0.80877 0
M  V30 7057 N 656.276 -0.40816 1.52223 0
M  V30 7058 C 657.186 -1.52202 1.78526 0
M  V30 7059 C 658.202 -1.60546 0.670892 0
M  V30 7060 O 659.378 -1.77242 0.956404 0
M  V30 7061 C 656.443 -2.87928 1.93128 0
M  V30 7062 C 655.504 -2.89463 3.17033 0
M  V30 7063 C 654.737 -4.18715 3.30929 0
M  V30 7064 O 654.96 -5.12662 2.50067 0
M  V30 7065 O 653.894 -4.27125 4.24084 0
M  V30 7066 H 657.72 -1.32911 2.73072 0
M  V30 7067 H 655.305 -0.594112 1.37079 0
M  V30 7068 H 657.187 -3.68426 2.04549 0
M  V30 7069 H 655.862 -3.07285 1.01772 0
M  V30 7070 H 654.769 -2.07815 3.11069 0
M  V30 7071 H 656.102 -2.75055 4.08174 0
M  V30 7072 N 657.755 -1.42862 -0.66545 0
M  V30 7073 C 659.171 -1.25993 -0.979687 0
M  V30 7074 C 659.371 -0.170831 -2.00775 0
M  V30 7075 O 658.427 0.454827 -2.4837 0
M  V30 7076 C 659.74 -2.62005 -1.47559 0
M  V30 7077 C 661.288 -2.69437 -1.59288 0
M  V30 7078 C 661.763 -4.05838 -2.12272 0
M  V30 7079 N 663.254 -4.0784 -2.19592 0
M  V30 7080 C 663.989 -5.10205 -2.61684 0
M  V30 7081 N 663.485 -6.22949 -3.03161 0
M  V30 7082 N 665.278 -4.9756 -2.61516 0
M  V30 7083 H 657.429 -2.12395 0.0150493 0
M  V30 7084 H 659.692 -0.946355 -0.0558187 0
M  V30 7085 H 659.398 -3.42605 -0.794654 0
M  V30 7086 H 659.272 -2.86566 -2.45275 0
M  V30 7087 H 661.659 -1.89178 -2.26486 0
M  V30 7088 H 661.74 -2.48655 -0.600374 0
M  V30 7089 H 661.384 -4.86559 -1.4568 0
M  V30 7090 H 661.314 -4.23977 -3.12331 0
M  V30 7091 H 663.805 -3.26452 -1.90361 0
M  V30 7092 H 664.118 -6.96899 -3.33993 0
M  V30 7093 H 662.463 -6.2644 -3.00995 0
M  V30 7094 H 665.654 -4.08551 -2.28481 0
M  V30 7095 H 665.827 -5.77468 -2.93999 0
M  V30 7096 N 659.233 0.902656 -1.29189 0
M  V30 7097 C 660.481 1.6496 -1.16758 0
M  V30 7098 C 660.802 1.92952 0.28188 0
M  V30 7099 O 660.072 1.55351 1.19344 0
M  V30 7100 H 658.652 0.611447 -0.429118 0
M  V30 7101 H 661.314 1.0825 -1.62074 0
M  V30 7102 H 660.41 2.60728 -1.71544 0
M  V30 7103 N 660.711 1.11618 1.11262 0
M  V30 7104 C 661.659 0.771291 2.1944 0
M  V30 7105 C 662.653 -0.238073 1.67719 0
M  V30 7106 O 663.859 -0.0971628 1.79738 0
M  V30 7107 H 660.234 0.231548 0.715465 0
M  V30 7108 H 662.205 1.69226 2.45775 0
M  V30 7109 C 660.954 0.232765 3.4692 0
M  V30 7110 H 660.277 1.00072 3.87073 0
M  V30 7111 H 661.717 0.0296561 4.2399 0
M  V30 7112 C 660.176 -1.03738 3.20531 0
M  V30 7113 O 660.706 -2.11675 3.41404 0
M  V30 7114 N 658.912 -0.960906 2.74253 0
M  V30 7115 H 658.459 -0.0824323 2.57468 0
M  V30 7116 H 658.417 -1.8114 2.56974 0
M  V30 7117 N 662.189 -1.289 0.906776 0
M  V30 7118 C 663.417 -1.99401 0.551969 0
M  V30 7119 C 663.832 -1.67816 -0.865048 0
M  V30 7120 O 663.189 -0.927078 -1.57199 0
M  V30 7121 C 663.24 -3.53779 0.743152 0
M  V30 7122 O 662.961 -3.84248 2.1044 0
M  V30 7123 C 664.462 -4.41543 0.39424 0
M  V30 7124 H 661.682 -0.636926 0.211106 0
M  V30 7125 H 664.226 -1.64266 1.21807 0
M  V30 7126 H 662.381 -3.87201 0.124143 0
M  V30 7127 H 662.795 -4.78904 2.13895 0
M  V30 7128 H 664.269 -5.48957 0.578814 0
M  V30 7129 H 664.746 -4.34073 -0.669137 0
M  V30 7130 H 665.352 -4.13605 0.990491 0
M  V30 7131 N 663.667 -0.670007 -1.42649 0
M  V30 7132 C 664.599 0.0501746 -2.29145 0
M  V30 7133 C 665.612 0.770331 -1.43422 0
M  V30 7134 O 666.801 0.625288 -1.6719 0
M  V30 7135 C 663.901 1.09463 -3.20735 0
M  V30 7136 C 663.074 0.44926 -4.35087 0
M  V30 7137 C 662.133 1.39285 -5.07431 0
M  V30 7138 O 661.159 0.894997 -5.6212 0
M  V30 7139 N 662.361 2.72631 -5.12496 0
M  V30 7140 H 665.126 -0.692312 -2.91594 0
M  V30 7141 H 662.687 -0.514056 -1.53522 0
M  V30 7142 H 664.679 1.72705 -3.65999 0
M  V30 7143 H 663.249 1.73891 -2.59771 0
M  V30 7144 H 662.469 -0.362573 -3.92529 0
M  V30 7145 H 663.757 -0.000544776 -5.088 0
M  V30 7146 H 663.155 3.15623 -4.69467 0
M  V30 7147 H 661.712 3.31132 -5.61422 0
M  V30 7148 N 665.145 1.52092 -0.413018 0
M  V30 7149 C 666.095 2.23947 0.427993 0
M  V30 7150 C 667.079 1.25229 1.01027 0
M  V30 7151 O 668.271 1.50448 0.932444 0
M  V30 7152 C 665.4 3.0672 1.542 0
M  V30 7153 C 664.486 4.12851 0.970307 0
M  V30 7154 N 664.877 5.05644 0.125611 0
M  V30 7155 C 663.175 4.28404 1.24042 0
M  V30 7156 C 663.876 5.8138 -0.192876 0
M  V30 7157 N 662.852 5.41996 0.417273 0
M  V30 7158 H 666.654 2.93048 -0.223628 0
M  V30 7159 H 664.168 1.60852 -0.223664 0
M  V30 7160 H 666.165 3.56754 2.15714 0
M  V30 7161 H 664.825 2.39159 2.19621 0
M  V30 7162 H 665.836 5.17348 -0.238995 0
M  V30 7163 H 662.513 3.72071 1.89391 0
M  V30 7164 H 663.903 6.66129 -0.878762 0
M  V30 7165 N 666.623 0.143563 1.56945 0
M  V30 7166 C 667.869 -0.50916 1.96304 0
M  V30 7167 C 668.202 -1.64741 1.0283 0
M  V30 7168 O 667.477 -1.94374 0.0700361 0
M  V30 7169 C 667.76 -1.0186 3.45393 0
M  V30 7170 C 667.613 0.117923 4.49645 0
M  V30 7171 C 668.932 -1.90151 3.96901 0
M  V30 7172 H 666.051 -0.183608 0.713763 0
M  V30 7173 H 668.693 0.224095 1.88674 0
M  V30 7174 H 666.843 -1.64345 3.52027 0
M  V30 7175 H 668.515 0.754145 4.55094 0
M  V30 7176 H 666.758 0.777568 4.26774 0
M  V30 7177 H 667.429 -0.280187 5.51288 0
M  V30 7178 H 669.905 -1.375 3.92725 0
M  V30 7179 H 668.781 -2.22707 5.0169 0
M  V30 7180 H 669.042 -2.83718 3.39052 0
M  V30 7181 N 668.101 -1.57061 -0.130224 0
M  V30 7182 C 669.347 -1.85412 -0.836295 0
M  V30 7183 C 669.702 -0.729831 -1.7802 0
M  V30 7184 O 668.995 0.271021 -1.89673 0
M  V30 7185 C 669.189 -3.17878 -1.63365 0
M  V30 7186 C 669.018 -4.43086 -0.768453 0
M  V30 7187 C 667.788 -5.03488 -0.427598 0
M  V30 7188 C 669.986 -5.14219 -0.0911495 0
M  V30 7189 N 667.968 -6.12253 0.449439 0
M  V30 7190 C 669.339 -6.16632 0.645341 0
M  V30 7191 C 671.394 -4.97898 -0.0135625 0
M  V30 7192 C 670.097 -7.0449 1.45212 0
M  V30 7193 C 672.123 -5.86234 0.780001 0
M  V30 7194 C 671.485 -6.88141 1.50472 0
M  V30 7195 H 667.584 -0.728875 -0.283311 0
M  V30 7196 H 670.168 -1.9444 -0.100662 0
M  V30 7197 H 668.339 -3.09967 -2.3404 0
M  V30 7198 H 670.071 -3.34076 -2.28419 0
M  V30 7199 H 666.826 -4.67344 -0.767264 0
M  V30 7200 H 667.25 -6.71263 0.879476 0
M  V30 7201 H 671.892 -4.19082 -0.559511 0
M  V30 7202 H 669.61 -7.82722 2.00926 0
M  V30 7203 H 673.196 -5.75671 0.842246 0
M  V30 7204 H 672.076 -7.55311 2.1089 0
M  V30 7205 N 669.579 0.400081 -1.52437 0
M  V30 7206 C 670.828 1.14332 -1.66166 0
M  V30 7207 C 671.141 1.91419 -0.402253 0
M  V30 7208 O 672.347 2.6824 -0.419487 0
M  V30 7209 C 670.803 2.08137 -2.9361 0
M  V30 7210 C 670.411 1.36524 -4.26691 0
M  V30 7211 C 672.155 2.82664 -3.16703 0
M  V30 7212 C 670.062 2.29031 -5.45251 0
M  V30 7213 H 668.992 0.430499 -0.61902 0
M  V30 7214 H 671.643 0.407017 -1.78929 0
M  V30 7215 H 670.025 2.85358 -2.74567 0
M  V30 7216 H 671.199 0.646061 -4.56249 0
M  V30 7217 H 669.514 0.74002 -4.09771 0
M  V30 7218 H 672.111 3.52037 -4.0246 0
M  V30 7219 H 672.454 3.46122 -2.31312 0
M  V30 7220 H 672.987 2.12541 -3.36261 0
M  V30 7221 H 669.726 1.70206 -6.33017 0
M  V30 7222 H 669.246 2.98896 -5.2002 0
M  V30 7223 H 670.925 2.89359 -5.78689 0
M  V30 7224 N 671.057 1.43213 0.657864 0
M  V30 7225 C 672.005 1.48271 1.79216 0
M  V30 7226 C 672.999 0.35675 1.65601 0
M  V30 7227 O 674.205 0.530535 1.72004 0
M  V30 7228 H 670.58 0.464729 0.591211 0
M  V30 7229 H 672.551 2.43792 1.7207 0
M  V30 7230 C 671.3 1.41837 3.17455 0
M  V30 7231 H 670.623 2.27781 3.28567 0
M  V30 7232 H 672.063 1.49438 3.96793 0
M  V30 7233 C 670.522 0.135347 3.36628 0
M  V30 7234 O 671.052 -0.805199 3.93547 0
M  V30 7235 N 669.258 0.0470316 2.90562 0
M  V30 7236 H 668.805 0.813221 2.44427 0
M  V30 7237 H 668.763 -0.810737 3.03767 0
M  V30 7238 N 672.536 -0.895792 1.29666 0
M  V30 7239 C 673.446 -2.03329 1.17024 0
M  V30 7240 C 674.462 -1.73753 0.0925962 0
M  V30 7241 O 675.638 -1.99071 0.305431 0
M  V30 7242 C 672.703 -3.36072 0.851841 0
M  V30 7243 C 671.764 -3.7914 2.01373 0
M  V30 7244 C 670.997 -5.05549 1.71043 0
M  V30 7245 O 671.22 -5.66874 0.633213 0
M  V30 7246 O 670.154 -5.44764 2.5596 0
M  V30 7247 H 673.98 -2.16918 2.12556 0
M  V30 7248 H 671.565 -1.02007 1.09156 0
M  V30 7249 H 673.447 -4.15729 0.689006 0
M  V30 7250 H 672.122 -3.23616 -0.0736634 0
M  V30 7251 H 671.029 -3.00233 2.23183 0
M  V30 7252 H 672.362 -3.96186 2.92058 0
M  V30 7253 N 674.014 -1.12206 -1.10668 0
M  V30 7254 C 675.239 -0.898938 -1.86906 0
M  V30 7255 C 675.664 0.546346 -1.79991 0
M  V30 7256 O 675.022 1.38655 -1.1681 0
M  V30 7257 C 675.07 -1.37529 -3.33344 0
M  V30 7258 O 674.174 -0.55218 -4.08687 0
M  V30 7259 H 673.515 -0.323163 -0.580053 0
M  V30 7260 H 676.045 -1.49355 -1.39837 0
M  V30 7261 H 676.055 -1.3733 -3.84193 0
M  V30 7262 H 674.73 -2.42767 -3.37693 0
M  V30 7263 H 673.307 -0.620947 -3.67694 0
M  V30 7264 N 675.492 1.28418 -0.913599 0
M  V30 7265 C 676.769 1.89977 -0.465619 0
M  V30 7266 C 677.149 1.82813 1.05559 0
M  V30 7267 O 676.497 1.26397 1.90358 0
M  V30 7268 C 676.707 3.34492 -0.995813 0
M  V30 7269 C 678.055 4.11468 -1.04782 0
M  V30 7270 O 679.079 3.43451 -0.944445 0
M  V30 7271 O 677.938 5.33046 -1.20518 0
M  V30 7272 H 675.032 0.813734 -0.147532 0
M  V30 7273 H 677.578 1.36786 -1.00437 0
M  V30 7274 H 676.35 3.33929 -2.03978 0
M  V30 7275 H 675.973 3.95181 -0.437878 0
M  V30 7276 N 676.97 0.677563 1.42291 0
M  V30 7277 C 678.218 0.200578 2.01102 0
M  V30 7278 C 678.539 -1.19803 1.53858 0
M  V30 7279 O 677.809 -1.80496 0.761439 0
M  V30 7280 H 676.389 0.0711634 0.743603 0
M  V30 7281 H 679.051 0.874691 1.7417 0
M  V30 7282 H 678.147 0.204 3.11433 0
M  V30 7283 N 678.448 -1.51871 0.421078 0
M  V30 7284 C 679.673 -2.0684 -0.152371 0
M  V30 7285 C 680.098 -1.28802 -1.37083 0
M  V30 7286 O 679.456 -0.321482 -1.78427 0
M  V30 7287 C 679.504 -3.57532 -0.469368 0
M  V30 7288 O 678.608 -3.81818 -1.55848 0
M  V30 7289 H 677.949 -0.663939 -0.00898586 0
M  V30 7290 H 680.479 -1.95674 0.597724 0
M  V30 7291 H 680.489 -4.01515 -0.724553 0
M  V30 7292 H 679.164 -4.13761 0.421276 0
M  V30 7293 H 677.741 -3.49709 -1.29453 0
M  V30 7294 N 679.926 -0.151884 -1.56866 0
M  V30 7295 C 681.154 0.504813 -2.00647 0
M  V30 7296 C 681.569 1.58098 -1.03201 0
M  V30 7297 O 680.926 1.82476 -0.0297814 0
M  V30 7298 C 680.977 1.10099 -3.44326 0
M  V30 7299 O 680.698 0.0678021 -4.38048 0
M  V30 7300 C 682.199 1.83782 -4.03409 0
M  V30 7301 H 679.419 0.130989 -0.65809 0
M  V30 7302 H 681.963 -0.247903 -2.02992 0
M  V30 7303 H 680.118 1.8043 -3.42817 0
M  V30 7304 H 680.532 0.505237 -5.22061 0
M  V30 7305 H 682.006 2.2078 -5.05925 0
M  V30 7306 H 682.483 2.72557 -3.44397 0
M  V30 7307 H 683.089 1.18138 -4.08563 0
M  V30 7308 N 681.404 1.57128 0.121893 0
M  V30 7309 C 682.815 1.73902 0.679348 0
M  V30 7310 C 683.166 0.770135 1.80453 0
M  V30 7311 O 682.291 -0.0576083 2.16323 0
M  V30 7312 C 682.886 3.15328 1.2391 0
M  V30 7313 C 681.445 3.33618 1.74288 0
M  V30 7314 C 680.592 2.6978 0.641414 0
M  V30 7315 H 683.543 1.58359 -0.104 0
M  V30 7316 H 683.564 3.16718 2.10879 0
M  V30 7317 H 683.076 3.85821 0.419957 0
M  V30 7318 H 681.177 2.68162 2.58689 0
M  V30 7319 H 681.29 4.4176 1.85432 0
M  V30 7320 H 679.654 2.30935 1.0743 0
M  V30 7321 H 680.437 3.42895 -0.166707 0
M  V30 7322 N 682.882 -0.391992 1.52647 0
M  V30 7323 C 684.131 -1.13449 1.6677 0
M  V30 7324 C 684.444 -1.91203 0.412399 0
M  V30 7325 O 685.65 -2.68013 0.433707 0
M  V30 7326 C 684.106 -2.06577 2.9471 0
M  V30 7327 C 683.714 -1.3426 4.27409 0
M  V30 7328 C 685.458 -2.80981 3.18198 0
M  V30 7329 C 683.365 -2.26136 5.46458 0
M  V30 7330 H 682.295 -0.427211 0.621295 0
M  V30 7331 H 684.946 -0.397522 1.79142 0
M  V30 7332 H 683.328 -2.83898 2.76076 0
M  V30 7333 H 684.502 -0.621856 4.56585 0
M  V30 7334 H 682.817 -0.718279 4.10158 0
M  V30 7335 H 685.414 -3.49898 4.04321 0
M  V30 7336 H 685.757 -3.44891 2.33144 0
M  V30 7337 H 686.29 -2.10754 3.37383 0
M  V30 7338 H 683.029 -1.66846 6.33911 0
M  V30 7339 H 682.549 -2.96134 5.21598 0
M  V30 7340 H 684.228 -2.86286 5.80215 0
M  V30 7341 N 684.36 -1.4356 -0.65026 0
M  V30 7342 C 685.609 -1.44619 -1.406 0
M  V30 7343 C 685.922 -0.0752645 -1.95455 0
M  V30 7344 O 687.128 0.0366832 -2.71475 0
M  V30 7345 C 685.584 -2.54511 -2.54465 0
M  V30 7346 C 685.192 -3.97723 -2.06204 0
M  V30 7347 C 686.936 -2.64768 -3.31811 0
M  V30 7348 C 684.843 -4.99075 -3.17298 0
M  V30 7349 H 683.773 -0.537983 -0.52829 0
M  V30 7350 H 686.424 -1.69559 -0.701561 0
M  V30 7351 H 684.806 -2.22777 -3.27393 0
M  V30 7352 H 685.98 -4.38932 -1.40267 0
M  V30 7353 H 684.295 -3.91538 -1.41729 0
M  V30 7354 H 686.892 -3.37664 -4.14593 0
M  V30 7355 H 687.235 -1.69936 -3.80036 0
M  V30 7356 H 687.768 -2.95817 -2.65964 0
M  V30 7357 H 684.507 -5.95469 -2.74038 0
M  V30 7358 H 684.027 -4.62476 -3.81937 0
M  V30 7359 H 685.706 -5.21913 -3.82382 0
M  V30 7360 N 685.838 0.888903 -1.30139 0
M  V30 7361 C 687.086 1.63713 -1.18501 0
M  V30 7362 C 687.407 1.9324 0.261399 0
M  V30 7363 O 686.677 1.56608 1.17689 0
M  V30 7364 H 685.257 0.606861 -0.435579 0
M  V30 7365 H 687.919 1.06525 -1.63213 0
M  V30 7366 H 687.015 2.58894 -1.743 0
M  V30 7367 N 687.317 1.12792 1.10072 0
M  V30 7368 C 688.227 0.812369 2.20086 0
M  V30 7369 C 689.243 -0.200349 1.72843 0
M  V30 7370 O 690.419 -0.0330262 2.01373 0
M  V30 7371 C 687.484 0.275685 3.45602 0
M  V30 7372 C 686.545 1.34881 4.07561 0
M  V30 7373 C 685.778 0.837639 5.27086 0
M  V30 7374 O 686.001 -0.327224 5.69461 0
M  V30 7375 O 684.935 1.60894 5.79997 0
M  V30 7376 H 688.761 1.73133 2.49517 0
M  V30 7377 H 686.346 0.904863 1.18881 0
M  V30 7378 H 688.228 -0.0185375 4.21396 0
M  V30 7379 H 686.903 -0.615783 3.17789 0
M  V30 7380 H 685.81 1.69625 3.33434 0
M  V30 7381 H 687.143 2.21418 4.39585 0
M  V30 7382 N 688.795 -1.27931 0.920396 0
M  V30 7383 C 690.041 -1.94977 0.557832 0
M  V30 7384 C 690.374 -1.72224 -0.897365 0
M  V30 7385 O 689.649 -1.04705 -1.63912 0
M  V30 7386 C 689.932 -3.49289 0.875741 0
M  V30 7387 C 689.785 -3.81416 2.38416 0
M  V30 7388 C 691.104 -4.38486 0.376517 0
M  V30 7389 H 688.223 -0.708164 0.20414 0
M  V30 7390 H 690.865 -1.5118 1.15085 0
M  V30 7391 H 689.015 -3.86724 0.371062 0
M  V30 7392 H 690.687 -3.53813 2.95997 0
M  V30 7393 H 688.93 -3.28225 2.83639 0
M  V30 7394 H 689.601 -4.89198 2.55713 0
M  V30 7395 H 692.077 -4.08161 0.808945 0
M  V30 7396 H 690.953 -5.45296 0.627976 0
M  V30 7397 H 691.214 -4.36143 -0.723293 0
M  V30 7398 N 690.273 -0.685099 -1.4193 0
M  V30 7399 C 691.519 -0.220688 -2.02199 0
M  V30 7400 C 691.874 1.16329 -1.5325 0
M  V30 7401 O 691.167 1.77175 -0.729345 0
M  V30 7402 C 691.361 -0.206154 -3.56805 0
M  V30 7403 C 691.19 -1.58718 -4.2076 0
M  V30 7404 C 689.96 -2.18747 -4.55497 0
M  V30 7405 C 692.158 -2.53182 -4.47664 0
M  V30 7406 N 690.14 -3.49523 -5.04685 0
M  V30 7407 C 691.511 -3.68625 -4.98514 0
M  V30 7408 C 693.566 -2.51582 -4.29664 0
M  V30 7409 C 692.269 -4.82734 -5.33255 0
M  V30 7410 C 694.295 -3.64795 -4.65487 0
M  V30 7411 C 693.657 -4.78967 -5.16498 0
M  V30 7412 H 689.756 -0.12591 -0.771797 0
M  V30 7413 H 692.34 -0.900316 -1.72634 0
M  V30 7414 H 690.511 0.442923 -3.85866 0
M  V30 7415 H 692.243 0.272103 -4.03784 0
M  V30 7416 H 688.998 -1.71135 -4.41599 0
M  V30 7417 H 689.422 -4.1653 -5.33696 0
M  V30 7418 H 694.064 -1.64535 -3.89472 0
M  V30 7419 H 691.782 -5.7045 -5.72375 0
M  V30 7420 H 695.368 -3.64796 -4.53227 0
M  V30 7421 H 694.248 -5.6512 -5.437 0
M  V30 7422 N 691.751 1.51645 -0.429126 0
M  V30 7423 C 693.162 1.86665 0.0359003 0
M  V30 7424 C 693.513 1.34677 1.42676 0
M  V30 7425 O 692.638 0.694195 2.04963 0
M  V30 7426 C 693.233 3.38724 0.0719221 0
M  V30 7427 C 691.792 3.7331 0.481336 0
M  V30 7428 C 690.939 2.75313 -0.331329 0
M  V30 7429 H 693.89 1.44987 -0.645333 0
M  V30 7430 H 693.911 3.7011 0.883118 0
M  V30 7431 H 693.423 3.76532 -0.940495 0
M  V30 7432 H 691.524 3.41088 1.49966 0
M  V30 7433 H 691.637 4.78631 0.211837 0
M  V30 7434 H 690.001 2.53839 0.209204 0
M  V30 7435 H 690.784 3.15963 -1.34247 0
M  V30 7436 N 693.229 0.160201 1.56784 0
M  V30 7437 C 694.477 -0.486625 1.96154 0
M  V30 7438 C 694.798 -1.64525 1.04673 0
M  V30 7439 O 694.068 -1.95586 0.110864 0
M  V30 7440 H 692.648 -0.182764 0.724297 0
M  V30 7441 H 695.31 0.238787 1.93432 0
M  V30 7442 H 694.406 -0.854025 3.00188 0
M  V30 7443 N 694.707 -1.5719 -0.113559 0
M  V30 7444 C 695.637 -2.03772 -1.14013 0
M  V30 7445 C 696.618 -0.923176 -1.42869 0
M  V30 7446 O 697.803 -1.19325 -1.53216 0
M  V30 7447 C 694.933 -2.44663 -2.4649 0
M  V30 7448 C 693.887 -3.59612 -2.32085 0
M  V30 7449 C 693.213 -3.8642 -3.69573 0
M  V30 7450 C 694.513 -4.91149 -1.7768 0
M  V30 7451 H 696.207 -2.89785 -0.752665 0
M  V30 7452 H 693.753 -1.39412 -0.360609 0
M  V30 7453 H 695.706 -2.75857 -3.18561 0
M  V30 7454 H 694.43 -1.55628 -2.87137 0
M  V30 7455 H 693.089 -3.28636 -1.62461 0
M  V30 7456 H 692.737 -2.94581 -4.07715 0
M  V30 7457 H 692.437 -4.63797 -3.60786 0
M  V30 7458 H 693.961 -4.2007 -4.4314 0
M  V30 7459 H 695.375 -5.20843 -2.39574 0
M  V30 7460 H 693.772 -5.72562 -1.79701 0
M  V30 7461 H 694.842 -4.79301 -0.734776 0
M  V30 7462 N 696.185 0.383891 -1.52853 0
M  V30 7463 C 697.413 1.1495 -1.7203 0
M  V30 7464 C 697.828 1.83578 -0.440957 0
M  V30 7465 O 697.185 1.72872 0.584925 0
M  V30 7466 C 697.236 2.19368 -2.87333 0
M  V30 7467 O 696.957 1.53536 -4.10315 0
M  V30 7468 C 698.458 3.08616 -3.18231 0
M  V30 7469 H 695.678 0.344445 -0.575846 0
M  V30 7470 H 698.222 0.448397 -1.99524 0
M  V30 7471 H 696.377 2.85105 -2.62286 0
M  V30 7472 H 696.791 2.2296 -4.74752 0
M  V30 7473 H 698.265 3.77902 -4.02361 0
M  V30 7474 H 698.742 3.72409 -2.32826 0
M  V30 7475 H 699.348 2.48518 -3.45136 0
M  V30 7476 N 697.663 1.43903 0.642637 0
M  V30 7477 C 698.909 1.46296 1.40447 0
M  V30 7478 C 699.242 0.0908361 1.93987 0
M  V30 7479 O 698.517 -0.889884 1.72949 0
M  V30 7480 C 698.8 2.51399 2.57819 0
M  V30 7481 C 698.653 3.97926 2.09702 0
M  V30 7482 C 699.972 2.53125 3.60022 0
M  V30 7483 H 697.091 0.532676 0.509338 0
M  V30 7484 H 699.733 1.75515 0.727635 0
M  V30 7485 H 697.883 2.26614 3.1556 0
M  V30 7486 H 699.555 4.33804 1.5688 0
M  V30 7487 H 697.798 4.10252 1.40982 0
M  V30 7488 H 698.469 4.67096 2.94152 0
M  V30 7489 H 700.945 2.75242 3.12059 0
M  V30 7490 H 699.821 3.28589 4.39682 0
M  V30 7491 H 700.082 1.56895 4.13324 0
M  V30 7492 N 699.141 -0.881989 1.30609 0
M  V30 7493 C 700.371 -1.66469 1.22359 0
M  V30 7494 C 700.779 -1.87969 -0.215507 0
M  V30 7495 O 700.122 -1.42938 -1.15388 0
M  V30 7496 C 700.184 -3.06135 1.88472 0
M  V30 7497 C 699.848 -3.07795 3.37804 0
M  V30 7498 C 700.845 -2.86633 4.33749 0
M  V30 7499 C 698.53 -3.29297 3.793 0
M  V30 7500 C 700.524 -2.86934 5.69164 0
M  V30 7501 C 698.211 -3.29228 5.14832 0
M  V30 7502 C 699.209 -3.08071 6.09574 0
M  V30 7503 O 698.897 -3.07824 7.4263 0
M  V30 7504 H 698.629 -0.526129 0.424458 0
M  V30 7505 H 701.183 -1.11004 1.72821 0
M  V30 7506 H 699.413 -3.63276 1.32543 0
M  V30 7507 H 701.102 -3.66571 1.74301 0
M  V30 7508 H 701.868 -2.69814 4.0302 0
M  V30 7509 H 697.747 -3.44799 3.05998 0
M  V30 7510 H 701.291 -2.70339 6.43088 0
M  V30 7511 H 697.188 -3.45583 5.452 0
M  V30 7512 H 697.956 -3.2397 7.51656 0
M  V30 7513 N 700.619 -1.13374 -1.09472 0
M  V30 7514 C 702.03 -0.90801 -1.63132 0
M  V30 7515 C 702.381 0.555576 -1.8817 0
M  V30 7516 O 701.506 1.42218 -1.63104 0
M  V30 7517 C 702.101 -1.64182 -2.96361 0
M  V30 7518 C 700.66 -1.46197 -3.46848 0
M  V30 7519 C 699.807 -1.67134 -2.21273 0
M  V30 7520 H 702.758 -1.2871 -0.928411 0
M  V30 7521 H 702.779 -1.09863 -3.64294 0
M  V30 7522 H 702.291 -2.707 -2.78106 0
M  V30 7523 H 700.392 -0.419788 -3.70228 0
M  V30 7524 H 700.505 -2.22472 -4.24315 0
M  V30 7525 H 698.869 -1.09616 -2.29905 0
M  V30 7526 H 699.652 -2.74971 -2.05538 0
M  V30 7527 N 702.098 1.27442 -0.927168 0
M  V30 7528 C 703.375 1.89473 -0.485742 0
M  V30 7529 C 703.755 1.83922 1.03614 0
M  V30 7530 O 703.103 1.28409 1.89007 0
M  V30 7531 C 703.313 3.33417 -1.03123 0
M  V30 7532 C 704.661 4.10333 -1.0914 0
M  V30 7533 O 705.685 3.4243 -0.98082 0
M  V30 7534 O 704.544 5.31737 -1.26165 0
M  V30 7535 H 701.638 0.812124 -0.156154 0
M  V30 7536 H 704.184 1.35713 -1.01882 0
M  V30 7537 H 702.956 3.31747 -2.07508 0
M  V30 7538 H 702.579 3.94695 -0.479767 0
M  V30 7539 N 703.576 0.692616 1.41565 0
M  V30 7540 C 704.823 0.222335 2.01276 0
M  V30 7541 C 705.151 -1.17706 1.5484 0
M  V30 7542 O 704.406 -1.80795 0.749118 0
M  V30 7543 C 704.705 0.225073 3.56691 0
M  V30 7544 C 704.371 1.57158 4.22625 0
M  V30 7545 C 703.033 1.94022 4.40351 0
M  V30 7546 C 705.385 2.45758 4.59622 0
M  V30 7547 C 702.713 3.19076 4.92349 0
M  V30 7548 C 705.065 3.70141 5.13009 0
M  V30 7549 C 703.729 4.07152 5.28946 0
M  V30 7550 H 702.999 0.0813581 0.73652 0
M  V30 7551 H 705.646 0.891123 1.69503 0
M  V30 7552 H 703.951 -0.527259 3.88236 0
M  V30 7553 H 705.648 -0.156283 4.00695 0
M  V30 7554 H 702.238 1.27486 4.09201 0
M  V30 7555 H 706.422 2.18558 4.45585 0
M  V30 7556 H 701.678 3.4775 5.02872 0
M  V30 7557 H 705.852 4.38983 5.40617 0
M  V30 7558 H 703.479 5.04125 5.69001 0
M  V30 7559 N 705.054 -1.51416 0.437162 0
M  V30 7560 C 706.282 -2.06503 -0.128045 0
M  V30 7561 C 706.697 -1.30461 -1.36475 0
M  V30 7562 O 706.054 -0.364127 -1.78831 0
M  V30 7563 C 706.105 -3.58683 -0.450437 0
M  V30 7564 O 705.826 -4.31853 0.737186 0
M  V30 7565 C 707.327 -4.30284 -1.06633 0
M  V30 7566 H 704.547 -0.670952 -0.00800269 0
M  V30 7567 H 707.091 -1.94996 0.616193 0
M  V30 7568 H 705.246 -3.70106 -1.14457 0
M  V30 7569 H 705.66 -5.22467 0.461347 0
M  V30 7570 H 707.134 -5.37848 -1.24191 0
M  V30 7571 H 707.611 -3.88564 -2.0473 0
M  V30 7572 H 708.217 -4.23304 -0.411585 0
M  V30 7573 N 706.532 -0.168513 -1.56696 0
M  V30 7574 C 707.48 0.779791 -2.19139 0
M  V30 7575 C 708.474 1.23957 -1.1546 0
M  V30 7576 O 709.68 1.20555 -1.33666 0
M  V30 7577 H 706.055 0.269739 -0.701958 0
M  V30 7578 H 708.026 0.229156 -2.97519 0
M  V30 7579 C 706.775 2.00003 -2.84419 0
M  V30 7580 H 706.098 1.65527 -3.63924 0
M  V30 7581 H 707.538 2.64251 -3.31583 0
M  V30 7582 C 705.997 2.82187 -1.84044 0
M  V30 7583 O 706.527 3.79247 -1.32418 0
M  V30 7584 N 704.733 2.47145 -1.52864 0
M  V30 7585 H 704.28 1.68277 -1.9504 0
M  V30 7586 H 704.238 3.02422 -0.859569 0
M  V30 7587 N 708.01 1.57248 0.105221 0
M  V30 7588 C 709.421 1.74612 0.660865 0
M  V30 7589 C 709.772 0.789231 1.79626 0
M  V30 7590 O 708.897 -0.0346611 2.16372 0
M  V30 7591 C 709.492 3.16624 1.20559 0
M  V30 7592 C 708.051 3.35447 1.7074 0
M  V30 7593 C 707.198 2.70445 0.612764 0
M  V30 7594 H 710.149 1.5824 -0.12079 0
M  V30 7595 H 710.17 3.18937 2.07508 0
M  V30 7596 H 709.682 3.86245 0.379012 0
M  V30 7597 H 707.783 2.7089 2.5583 0
M  V30 7598 H 707.896 4.43702 1.80736 0
M  V30 7599 H 706.26 2.32061 1.04975 0
M  V30 7600 H 707.043 3.42699 -0.203066 0
M  V30 7601 N 709.488 -0.375779 1.53054 0
M  V30 7602 C 710.436 -1.48015 1.79428 0
M  V30 7603 C 711.43 -1.55893 0.662854 0
M  V30 7604 O 712.636 -1.58901 0.845599 0
M  V30 7605 H 709.011 -0.492887 0.56795 0
M  V30 7606 H 710.982 -1.22971 2.71884 0
M  V30 7607 C 709.731 -2.84984 1.99197 0
M  V30 7608 H 709.054 -2.79677 2.85693 0
M  V30 7609 H 710.494 -3.61462 2.21633 0
M  V30 7610 C 708.953 -3.28025 0.768183 0
M  V30 7611 O 709.483 -4.01671 -0.0480482 0
M  V30 7612 N 707.689 -2.84454 0.594521 0
M  V30 7613 H 707.236 -2.24688 1.25988 0
M  V30 7614 H 707.194 -3.13609 -0.222916 0
M  V30 7615 N 710.966 -1.44241 -0.634997 0
M  V30 7616 C 712.206 -1.48339 -1.40623 0
M  V30 7617 C 712.57 -0.111479 -1.91676 0
M  V30 7618 O 713.771 -0.0271345 -2.68786 0
M  V30 7619 C 712.042 -2.51122 -2.54308 0
M  V30 7620 S 713.601 -2.74237 -3.42548 0
M  V30 7621 H 710.419 -0.524715 -0.479787 0
M  V30 7622 H 713.021 -1.81138 -0.735489 0
M  V30 7623 H 711.725 -3.49511 -2.15106 0
M  V30 7624 H 711.256 -2.19883 -3.26213 0
M  V30 7625 H 713.271 -2.0554 -4.51628 0
M  V30 7626 N 712.444 0.87505 -1.31075 0
M  V30 7627 C 713.693 1.62245 -1.19831 0
M  V30 7628 C 714.006 1.94078 0.24357 0
M  V30 7629 O 715.212 2.67265 0.477646 0
M  V30 7630 C 713.668 2.92464 -2.09744 0
M  V30 7631 C 713.276 2.68134 -3.58898 0
M  V30 7632 C 715.02 3.70449 -2.07287 0
M  V30 7633 C 712.927 3.9423 -4.40836 0
M  V30 7634 H 711.857 0.608741 -0.444916 0
M  V30 7635 H 714.508 0.967947 -1.55894 0
M  V30 7636 H 712.89 3.59262 -1.66574 0
M  V30 7637 H 714.064 2.09776 -4.10281 0
M  V30 7638 H 712.379 2.03511 -3.6328 0
M  V30 7639 H 714.976 4.63983 -2.65752 0
M  V30 7640 H 715.319 4.02611 -1.05876 0
M  V30 7641 H 715.852 3.10528 -2.48631 0
M  V30 7642 H 712.591 3.67221 -5.42982 0
M  V30 7643 H 712.111 4.52058 -3.94213 0
M  V30 7644 H 713.79 4.62162 -4.52786 0
M  V30 7645 N 713.922 1.13953 1.08869 0
M  V30 7646 C 715.199 0.815768 1.77777 0
M  V30 7647 C 715.579 -0.691624 1.99449 0
M  V30 7648 O 714.927 -1.63085 1.60049 0
M  V30 7649 C 715.137 1.60916 3.09689 0
M  V30 7650 C 716.485 1.80549 3.84301 0
M  V30 7651 O 717.509 1.57562 3.19457 0
M  V30 7652 O 716.368 2.18946 5.00724 0
M  V30 7653 H 713.462 0.298445 0.771271 0
M  V30 7654 H 716.008 1.24446 1.15374 0
M  V30 7655 H 714.78 2.6333 2.89435 0
M  V30 7656 H 714.403 1.17578 3.79817 0
M  V30 7657 N 715.4 -1.26948 0.933913 0
M  V30 7658 C 716.646 -1.94716 0.587985 0
M  V30 7659 C 717.001 -1.71994 -0.862312 0
M  V30 7660 O 716.294 -1.04208 -1.60783 0
M  V30 7661 C 716.488 -3.46963 0.857406 0
M  V30 7662 C 716.317 -3.84489 2.33234 0
M  V30 7663 C 715.087 -4.07621 2.98618 0
M  V30 7664 C 717.285 -3.93602 3.31031 0
M  V30 7665 N 715.267 -4.31976 4.362 0
M  V30 7666 C 716.638 -4.22404 4.53845 0
M  V30 7667 C 718.693 -3.76201 3.26155 0
M  V30 7668 C 717.396 -4.35615 5.72391 0
M  V30 7669 C 719.422 -3.90641 4.4402 0
M  V30 7670 C 718.784 -4.19835 5.65613 0
M  V30 7671 H 714.883 -0.735586 0.2654 0
M  V30 7672 H 717.467 -1.53181 1.20182 0
M  V30 7673 H 715.638 -3.87442 0.27268 0
M  V30 7674 H 717.37 -4.01921 0.47348 0
M  V30 7675 H 714.125 -4.02696 2.49264 0
M  V30 7676 H 714.549 -4.48199 5.07392 0
M  V30 7677 H 719.191 -3.52665 2.3321 0
M  V30 7678 H 716.909 -4.57975 6.65796 0
M  V30 7679 H 720.495 -3.78589 4.41771 0
M  V30 7680 H 719.375 -4.30765 6.55295 0
M  V30 7681 N 716.879 -0.700114 -1.41195 0
M  V30 7682 C 718.125 -0.242122 -2.01954 0
M  V30 7683 C 718.48 1.14697 -1.54475 0
M  V30 7684 O 717.773 1.76392 -0.748095 0
M  V30 7685 C 717.967 -0.243986 -3.56566 0
M  V30 7686 C 717.796 -1.63172 -4.19053 0
M  V30 7687 C 716.566 -2.23566 -4.53152 0
M  V30 7688 C 718.764 -2.57916 -4.44954 0
M  V30 7689 N 716.746 -3.54856 -5.00949 0
M  V30 7690 C 718.117 -3.73892 -4.94576 0
M  V30 7691 C 720.172 -2.56125 -4.26971 0
M  V30 7692 C 718.875 -4.88363 -5.28104 0
M  V30 7693 C 720.901 -3.69712 -4.61592 0
M  V30 7694 C 720.263 -4.84418 -5.11389 0
M  V30 7695 H 716.362 -0.134088 -0.770418 0
M  V30 7696 H 718.946 -0.918576 -1.71669 0
M  V30 7697 H 717.117 0.401971 -3.86314 0
M  V30 7698 H 718.849 0.229261 -4.0405 0
M  V30 7699 H 715.604 -1.75809 -4.39759 0
M  V30 7700 H 716.028 -4.22167 -5.29249 0
M  V30 7701 H 720.67 -1.68656 -3.87705 0
M  V30 7702 H 718.388 -5.76488 -5.66292 0
M  V30 7703 H 721.974 -3.69583 -4.49332 0
M  V30 7704 H 720.854 -5.70855 -5.37675 0
M  V30 7705 N 718.357 1.51182 -0.445186 0
M  V30 7706 C 719.32 2.26501 0.350722 0
M  V30 7707 C 720.32 1.3025 0.942952 0
M  V30 7708 O 721.51 1.53897 0.816175 0
M  V30 7709 C 718.642 3.06274 1.49697 0
M  V30 7710 H 719.835 2.98299 -0.309474 0
M  V30 7711 H 717.388 1.55034 -0.198551 0
M  V30 7712 H 718.123 2.38911 2.19299 0
M  V30 7713 H 717.908 3.76979 1.0784 0
M  V30 7714 H 719.398 3.63306 2.05909 0
M  V30 7715 N 719.835 0.176821 1.56605 0
M  V30 7716 C 720.783 -0.768159 2.1955 0
M  V30 7717 C 721.777 -1.23343 1.16116 0
M  V30 7718 O 722.983 -1.19844 1.34303 0
M  V30 7719 H 719.358 -0.266013 0.703378 0
M  V30 7720 H 721.329 -0.213374 2.97636 0
M  V30 7721 C 720.078 -1.98492 2.85475 0
M  V30 7722 H 719.401 -1.63595 3.64797 0
M  V30 7723 H 720.841 -2.62489 3.3298 0
M  V30 7724 C 719.3 -2.81207 1.85538 0
M  V30 7725 O 719.83 -3.7854 1.34427 0
M  V30 7726 N 718.036 -2.46331 1.54173 0
M  V30 7727 H 717.583 -1.67241 1.95929 0
M  V30 7728 H 717.541 -3.01961 0.875595 0
M  V30 7729 N 721.313 -1.57302 -0.09688 0
M  V30 7730 C 722.223 -2.05258 -1.13606 0
M  V30 7731 C 723.239 -0.977137 -1.43972 0
M  V30 7732 O 724.415 -1.29018 -1.54649 0
M  V30 7733 C 721.48 -2.46593 -2.43706 0
M  V30 7734 C 720.541 -3.68322 -2.20538 0
M  V30 7735 C 719.774 -4.07676 -3.44435 0
M  V30 7736 O 719.997 -3.47141 -4.52603 0
M  V30 7737 O 718.931 -5.00641 -3.34129 0
M  V30 7738 H 722.757 -2.94069 -0.758752 0
M  V30 7739 H 720.342 -1.46164 -0.309263 0
M  V30 7740 H 722.224 -2.73814 -3.20318 0
M  V30 7741 H 720.899 -1.6092 -2.80867 0
M  V30 7742 H 719.806 -3.4622 -1.41713 0
M  V30 7743 H 721.139 -4.54769 -1.88271 0
M  V30 7744 N 722.791 0.367657 -1.53252 0
M  V30 7745 C 724.031 1.11923 -1.71034 0
M  V30 7746 C 724.395 1.86618 -0.45143 0
M  V30 7747 O 725.596 2.63996 -0.505915 0
M  V30 7748 C 723.867 2.05461 -2.92439 0
M  V30 7749 S 725.426 2.88167 -3.30916 0
M  V30 7750 H 722.244 0.378549 -0.601848 0
M  V30 7751 H 724.846 0.400757 -1.91348 0
M  V30 7752 H 723.55 1.49346 -3.82262 0
M  V30 7753 H 723.081 2.81784 -2.7452 0
M  V30 7754 H 725.096 4.07746 -2.82767 0
M  V30 7755 N 724.269 1.44576 0.627338 0
M  V30 7756 C 725.494 1.51271 1.41887 0
M  V30 7757 C 725.919 0.139814 1.8758 0
M  V30 7758 O 725.277 -0.871746 1.58966 0
M  V30 7759 C 725.325 2.48529 2.61277 0
M  V30 7760 O 724.429 1.98944 3.61241 0
M  V30 7761 H 723.77 0.510668 0.424399 0
M  V30 7762 H 726.3 1.89746 0.765356 0
M  V30 7763 H 726.31 2.66689 3.08773 0
M  V30 7764 H 724.985 3.48249 2.27366 0
M  V30 7765 H 723.562 1.90568 3.20528 0
M  V30 7766 N 725.747 -0.868086 1.31537 0
M  V30 7767 C 726.996 -1.61607 1.20689 0
M  V30 7768 C 727.309 -1.94204 -0.233275 0
M  V30 7769 O 728.515 -2.67515 -0.463465 0
M  V30 7770 C 726.971 -2.91348 2.11292 0
M  V30 7771 C 726.579 -2.66227 3.60315 0
M  V30 7772 C 728.323 -3.69344 2.09249 0
M  V30 7773 C 726.23 -3.91887 4.42921 0
M  V30 7774 H 725.16 -0.606373 0.448138 0
M  V30 7775 H 727.811 -0.959666 1.56405 0
M  V30 7776 H 726.193 -3.58374 1.68477 0
M  V30 7777 H 727.367 -2.07597 4.11388 0
M  V30 7778 H 725.682 -2.01582 3.64354 0
M  V30 7779 H 728.279 -4.62567 2.68209 0
M  V30 7780 H 728.622 -4.02044 1.0801 0
M  V30 7781 H 729.155 -3.09205 2.50274 0
M  V30 7782 H 725.894 -3.64336 5.44922 0
M  V30 7783 H 725.414 -4.49961 3.96605 0
M  V30 7784 H 727.093 -4.59754 4.55231 0
M  V30 7785 N 727.225 -1.14528 -1.08264 0
M  V30 7786 C 728.472 -0.914405 -1.80679 0
M  V30 7787 C 728.8 0.558952 -1.86295 0
M  V30 7788 O 728.055 1.43017 -1.33584 0
M  V30 7789 C 728.354 -1.46226 -3.26117 0
M  V30 7790 C 728.02 -2.95451 -3.40616 0
M  V30 7791 C 726.682 -3.36191 -3.4428 0
M  V30 7792 C 729.034 -3.91399 -3.44175 0
M  V30 7793 C 726.362 -4.71539 -3.49096 0
M  V30 7794 C 728.714 -5.26606 -3.50526 0
M  V30 7795 C 727.378 -5.66856 -3.52464 0
M  V30 7796 H 726.648 -0.334604 -0.661151 0
M  V30 7797 H 729.295 -1.4292 -1.27461 0
M  V30 7798 H 727.6 -0.868442 -3.82054 0
M  V30 7799 H 729.297 -1.25955 -3.80705 0
M  V30 7800 H 725.887 -2.62955 -3.38456 0
M  V30 7801 H 730.071 -3.61004 -3.40573 0
M  V30 7802 H 725.327 -5.02082 -3.4889 0
M  V30 7803 H 729.501 -6.00758 -3.52225 0
M  V30 7804 H 727.128 -6.71718 -3.55948 0
M  V30 7805 N 728.703 1.26451 -0.940633 0
M  V30 7806 C 729.653 2.24086 -0.420669 0
M  V30 7807 C 730.637 1.53501 0.482301 0
M  V30 7808 O 731.829 1.74127 0.317636 0
M  V30 7809 C 728.958 3.41866 0.313452 0
M  V30 7810 C 728.044 4.19737 -0.606779 0
M  V30 7811 N 728.435 4.7521 -1.73232 0
M  V30 7812 C 726.733 4.44091 -0.41226 0
M  V30 7813 C 727.434 5.34052 -2.30572 0
M  V30 7814 N 726.41 5.1971 -1.59381 0
M  V30 7815 H 730.212 2.64569 -1.27986 0
M  V30 7816 H 727.726 1.4153 -0.796436 0
M  V30 7817 H 729.723 4.1093 0.702991 0
M  V30 7818 H 728.383 3.0291 1.16942 0
M  V30 7819 H 729.394 4.72769 -2.11447 0
M  V30 7820 H 726.071 4.1556 0.401984 0
M  V30 7821 H 727.461 5.87845 -3.25404 0
M  V30 7822 N 730.181 0.707592 1.40822 0
M  V30 7823 C 731.113 0.0105968 2.29198 0
M  V30 7824 C 732.126 -0.732035 1.45414 0
M  V30 7825 O 733.315 -0.580741 1.68789 0
M  V30 7826 C 730.415 -1.00921 3.23525 0
M  V30 7827 C 729.588 -0.333747 4.36125 0
M  V30 7828 C 728.647 -1.25783 5.10945 0
M  V30 7829 O 727.673 -0.745646 5.64295 0
M  V30 7830 N 728.875 -2.58947 5.19545 0
M  V30 7831 H 731.64 0.76938 2.89656 0
M  V30 7832 H 729.201 0.554579 1.52105 0
M  V30 7833 H 731.193 -1.6294 3.70449 0
M  V30 7834 H 729.763 -1.66942 2.6429 0
M  V30 7835 H 728.983 0.466518 3.9143 0
M  V30 7836 H 730.271 0.135444 5.0862 0
M  V30 7837 H 729.669 -3.03065 4.7767 0
M  V30 7838 H 728.226 -3.16131 5.70004 0
M  V30 7839 N 731.66 -1.50943 0.453197 0
M  V30 7840 C 732.57 -2.31884 -0.355963 0
M  V30 7841 C 733.586 -1.41481 -1.01287 0
M  V30 7842 O 734.762 -1.74546 -1.00477 0
M  V30 7843 C 731.827 -3.15668 -1.43369 0
M  V30 7844 C 730.888 -4.2187 -0.795253 0
M  V30 7845 C 730.121 -5.0165 -1.82162 0
M  V30 7846 O 730.344 -4.82266 -3.04592 0
M  V30 7847 O 729.278 -5.85311 -1.40336 0
M  V30 7848 H 733.104 -3.02162 0.305248 0
M  V30 7849 H 730.689 -1.47839 0.215398 0
M  V30 7850 H 732.571 -3.67709 -2.05836 0
M  V30 7851 H 731.246 -2.48137 -2.07869 0
M  V30 7852 H 730.153 -3.73867 -0.132106 0
M  V30 7853 H 731.486 -4.9182 -0.193484 0
M  V30 7854 N 733.138 -0.185124 -1.56509 0
M  V30 7855 C 734.384 0.456934 -1.97585 0
M  V30 7856 C 734.717 1.61957 -1.07161 0
M  V30 7857 O 733.992 1.9412 -0.121546 0
M  V30 7858 C 734.275 0.926666 -3.47973 0
M  V30 7859 C 734.128 -0.237097 -4.49175 0
M  V30 7860 C 735.447 1.79561 -4.01803 0
M  V30 7861 H 732.566 0.164619 -0.71838 0
M  V30 7862 H 735.208 -0.274039 -1.88013 0
M  V30 7863 H 733.358 1.54954 -3.56261 0
M  V30 7864 H 735.03 -0.87454 -4.52934 0
M  V30 7865 H 733.273 -0.890446 -4.24563 0
M  V30 7866 H 733.944 0.133924 -5.51838 0
M  V30 7867 H 736.42 1.27039 -3.96232 0
M  V30 7868 H 735.296 2.09327 -5.07418 0
M  V30 7869 H 735.557 2.74629 -3.46455 0
M  V30 7870 N 734.616 1.57351 0.0885366 0
M  V30 7871 C 735.548 1.99221 1.13329 0
M  V30 7872 C 736.561 0.895705 1.35945 0
M  V30 7873 O 737.75 1.17376 1.34481 0
M  V30 7874 C 734.85 2.3016 2.48756 0
M  V30 7875 C 734.023 3.61444 2.46327 0
M  V30 7876 C 733.082 3.80244 3.63732 0
M  V30 7877 O 732.108 4.52024 3.45924 0
M  V30 7878 N 733.31 3.2132 4.8346 0
M  V30 7879 H 736.075 2.89456 0.776862 0
M  V30 7880 H 733.636 1.59505 0.277428 0
M  V30 7881 H 735.628 2.39925 3.25911 0
M  V30 7882 H 734.198 1.459 2.76464 0
M  V30 7883 H 733.418 3.62588 1.54673 0
M  V30 7884 H 734.706 4.47678 2.41789 0
M  V30 7885 H 734.104 2.63028 5.00832 0
M  V30 7886 H 732.661 3.3656 5.58185 0
M  V30 7887 N 736.094 -0.359525 1.53444 0
M  V30 7888 C 737.324 -1.12036 1.73585 0
M  V30 7889 C 737.732 -1.83335 0.467438 0
M  V30 7890 O 737.075 -1.74641 -0.569753 0
M  V30 7891 C 737.137 -2.19036 2.85068 0
M  V30 7892 C 736.801 -1.67451 4.25217 0
M  V30 7893 C 737.798 -1.13534 5.07352 0
M  V30 7894 C 735.483 -1.72781 4.71648 0
M  V30 7895 C 737.477 -0.656321 6.34012 0
M  V30 7896 C 735.164 -1.2449 5.98285 0
M  V30 7897 C 736.162 -0.710068 6.79299 0
M  V30 7898 O 735.85 -0.234314 8.03558 0
M  V30 7899 H 735.582 -0.340662 0.583888 0
M  V30 7900 H 738.136 -0.422452 2.01009 0
M  V30 7901 H 736.366 -2.92338 2.53131 0
M  V30 7902 H 738.055 -2.80559 2.93328 0
M  V30 7903 H 738.821 -1.08751 4.7265 0
M  V30 7904 H 734.7 -2.13351 4.08659 0
M  V30 7905 H 738.244 -0.238193 6.97193 0
M  V30 7906 H 734.141 -1.28969 6.32485 0
M  V30 7907 H 734.909 -0.353084 8.17738 0
M  V30 7908 N 737.572 -1.44907 -0.619662 0
M  V30 7909 C 738.849 -1.38766 -1.37852 0
M  V30 7910 C 739.229 -0.0521393 -2.11036 0
M  V30 7911 O 738.577 0.965613 -2.07095 0
M  V30 7912 C 738.787 -2.59344 -2.33541 0
M  V30 7913 C 740.135 -3.03909 -2.96521 0
M  V30 7914 O 741.159 -2.59631 -2.43865 0
M  V30 7915 O 740.018 -3.80713 -3.92071 0
M  V30 7916 H 737.112 -0.550083 -0.617525 0
M  V30 7917 H 739.658 -1.57015 -0.643759 0
M  V30 7918 H 738.43 -3.48142 -1.78642 0
M  V30 7919 H 738.053 -2.43367 -3.14417 0
M  V30 7920 N 739.05 0.861098 -1.31996 0
M  V30 7921 C 740.298 1.61162 -1.21947 0
M  V30 7922 C 740.619 1.93751 0.220351 0
M  V30 7923 O 739.889 1.59069 1.14341 0
M  V30 7924 H 738.469 0.597485 -0.448353 0
M  V30 7925 H 741.131 1.03039 -1.65436 0
M  V30 7926 H 740.227 2.55138 -1.79752 0
M  V30 7927 N 740.528 1.15101 1.07655 0
M  V30 7928 C 741.458 0.867864 2.16773 0
M  V30 7929 C 742.439 -0.180283 1.69142 0
M  V30 7930 O 743.624 -0.0353152 1.94168 0
M  V30 7931 C 740.754 0.35299 3.45501 0
M  V30 7932 C 739.708 1.33746 4.06566 0
M  V30 7933 C 739.034 0.681562 5.30338 0
M  V30 7934 C 740.334 2.7024 4.46954 0
M  V30 7935 H 742.028 1.78034 2.40716 0
M  V30 7936 H 739.574 0.857435 1.15689 0
M  V30 7937 H 741.527 0.142465 4.21159 0
M  V30 7938 H 740.251 -0.594945 3.21135 0
M  V30 7939 H 738.91 1.53429 3.32949 0
M  V30 7940 H 738.558 -0.272422 5.02262 0
M  V30 7941 H 738.258 1.33853 5.72151 0
M  V30 7942 H 739.782 0.48074 6.08705 0
M  V30 7943 H 741.196 2.5442 5.13754 0
M  V30 7944 H 739.593 3.32282 4.99709 0
M  V30 7945 H 740.663 3.26537 3.58471 0
M  V30 7946 N 742.006 -1.2595 0.947325 0
M  V30 7947 C 743.252 -1.94081 0.608604 0
M  V30 7948 C 743.607 -1.72899 -0.844021 0
M  V30 7949 O 742.9 -1.05908 -1.59669 0
M  V30 7950 C 743.094 -3.46034 0.894158 0
M  V30 7951 C 742.923 -3.81994 2.37299 0
M  V30 7952 C 741.693 -4.04431 3.02925 0
M  V30 7953 C 743.891 -3.90069 3.35188 0
M  V30 7954 N 741.873 -4.27325 4.40757 0
M  V30 7955 C 743.244 -4.17567 4.58299 0
M  V30 7956 C 745.299 -3.72721 3.30127 0
M  V30 7957 C 744.002 -4.2952 5.76979 0
M  V30 7958 C 746.028 -3.8591 4.48138 0
M  V30 7959 C 745.39 -4.13812 5.70034 0
M  V30 7960 H 741.489 -0.73273 0.273187 0
M  V30 7961 H 744.073 -1.51898 1.218 0
M  V30 7962 H 742.244 -3.87131 0.313758 0
M  V30 7963 H 743.976 -4.01396 0.516082 0
M  V30 7964 H 740.731 -4.0003 2.53521 0
M  V30 7965 H 741.155 -4.42792 5.12118 0
M  V30 7966 H 745.797 -3.50172 2.36938 0
M  V30 7967 H 743.515 -4.50888 6.70616 0
M  V30 7968 H 747.101 -3.73882 4.45762 0
M  V30 7969 H 745.981 -4.23791 6.59827 0
M  V30 7970 N 743.484 -0.715051 -1.40445 0
M  V30 7971 C 744.733 -0.251322 -2.00128 0
M  V30 7972 C 745.046 1.16194 -1.57347 0
M  V30 7973 O 746.252 1.72416 -2.09726 0
M  V30 7974 C 744.708 -0.398407 -3.57688 0
M  V30 7975 C 744.316 -1.81828 -4.09442 0
M  V30 7976 C 746.06 0.00455625 -4.245 0
M  V30 7977 C 743.967 -1.91598 -5.59503 0
M  V30 7978 H 742.897 -0.0902081 -0.748584 0
M  V30 7979 H 745.548 -0.886062 -1.6069 0
M  V30 7980 H 743.93 0.304908 -3.94824 0
M  V30 7981 H 745.104 -2.55193 -3.83684 0
M  V30 7982 H 743.419 -2.17266 -3.55225 0
M  V30 7983 H 746.016 -0.0477303 -5.34679 0
M  V30 7984 H 746.359 1.04636 -4.02935 0
M  V30 7985 H 746.892 -0.649184 -3.92467 0
M  V30 7986 H 743.631 -2.93898 -5.85922 0
M  V30 7987 H 743.151 -1.22644 -5.87127 0
M  V30 7988 H 744.83 -1.68785 -6.24596 0
M  V30 7989 N 744.962 1.50701 -0.461195 0
M  V30 7990 C 746.239 1.94958 0.158296 0
M  V30 7991 C 746.619 1.40111 1.57899 0
M  V30 7992 O 745.967 0.597976 2.20537 0
M  V30 7993 C 746.177 3.48821 0.11172 0
M  V30 7994 C 747.525 4.23499 0.30552 0
M  V30 7995 O 748.549 3.557 0.188758 0
M  V30 7996 O 747.408 5.43823 0.540244 0
M  V30 7997 H 744.502 0.818674 0.117054 0
M  V30 7998 H 747.048 1.61508 -0.520888 0
M  V30 7999 H 745.82 3.81263 -0.880577 0
M  V30 8000 H 745.443 3.88781 0.832791 0
M  V30 8001 N 746.441 0.193421 1.56409 0
M  V30 8002 C 747.374 -0.767384 2.1491 0
M  V30 8003 C 748.352 -1.21075 1.08534 0
M  V30 8004 O 749.536 -1.29856 1.36637 0
M  V30 8005 C 746.663 -2.03615 2.70663 0
M  V30 8006 C 745.709 -1.73505 3.89613 0
M  V30 8007 S 746.542 -0.884645 5.28142 0
M  V30 8008 C 747.698 -2.1636 5.87315 0
M  V30 8009 H 747.931 -0.270053 2.96071 0
M  V30 8010 H 745.464 -0.0215546 1.54385 0
M  V30 8011 H 747.422 -2.7648 3.03429 0
M  V30 8012 H 746.083 -2.50461 1.89547 0
M  V30 8013 H 745.276 -2.67701 4.27027 0
M  V30 8014 H 744.878 -1.08723 3.57848 0
M  V30 8015 H 747.17 -3.11629 6.01576 0
M  V30 8016 H 748.113 -1.8338 6.83943 0
M  V30 8017 H 748.521 -2.29129 5.15907 0
M  V30 8018 N 747.919 -1.57396 -0.0801906 0
M  V30 8019 C 748.867 -2.04136 -1.11495 0
M  V30 8020 C 749.861 -0.945137 -1.40583 0
M  V30 8021 O 751.067 -1.13028 -1.40088 0
M  V30 8022 H 747.442 -0.65076 -0.37685 0
M  V30 8023 H 749.413 -2.90205 -0.694526 0
M  V30 8024 C 748.162 -2.49399 -2.42272 0
M  V30 8025 H 747.485 -3.33339 -2.20737 0
M  V30 8026 H 748.925 -2.85864 -3.13142 0
M  V30 8027 C 747.384 -1.37341 -3.07635 0
M  V30 8028 O 747.914 -0.710829 -3.95361 0
M  V30 8029 N 746.12 -1.12064 -2.68123 0
M  V30 8030 H 745.667 -1.66126 -1.96875 0
M  V30 8031 H 745.625 -0.372916 -3.12181 0
M  V30 8032 N 749.397 0.351382 -1.53633 0
M  V30 8033 C 750.307 1.45471 -1.84052 0
M  V30 8034 C 751.323 1.57945 -0.730015 0
M  V30 8035 O 752.499 1.73571 -1.02153 0
M  V30 8036 C 749.564 2.80562 -2.03681 0
M  V30 8037 C 748.625 2.77497 -3.27558 0
M  V30 8038 C 747.858 4.06144 -3.46241 0
M  V30 8039 O 748.081 5.03028 -2.68922 0
M  V30 8040 O 747.015 4.11092 -4.39645 0
M  V30 8041 H 750.841 1.22684 -2.77817 0
M  V30 8042 H 748.426 0.542827 -1.3919 0
M  V30 8043 H 750.308 3.6058 -2.18082 0
M  V30 8044 H 748.983 3.03296 -1.13106 0
M  V30 8045 H 747.89 1.96126 -3.18568 0
M  V30 8046 H 749.223 2.59716 -4.18101 0
M  V30 8047 N 750.875 1.45233 0.611969 0
M  V30 8048 C 752.121 1.49242 1.37312 0
M  V30 8049 C 752.454 0.131963 1.93751 0
M  V30 8050 O 751.729 -0.852999 1.74798 0
M  V30 8051 C 752.012 2.56811 2.52428 0
M  V30 8052 C 751.865 4.02284 2.01215 0
M  V30 8053 C 753.184 2.60705 3.54572 0
M  V30 8054 H 750.303 0.54336 0.497925 0
M  V30 8055 H 752.945 1.77019 0.690242 0
M  V30 8056 H 751.095 2.33256 3.10683 0
M  V30 8057 H 752.767 4.37035 1.47643 0
M  V30 8058 H 751.01 4.1315 1.32248 0
M  V30 8059 H 751.681 4.7323 2.84178 0
M  V30 8060 H 754.157 2.81799 3.06151 0
M  V30 8061 H 753.033 3.37841 4.32614 0
M  V30 8062 H 753.294 1.65627 4.09903 0
M  V30 8063 N 752.353 -0.854086 1.3245 0
M  V30 8064 C 753.578 -1.64597 1.26185 0
M  V30 8065 C 754.003 -1.87357 -0.167074 0
M  V30 8066 O 753.361 -1.42675 -1.11864 0
M  V30 8067 C 753.409 -2.98213 2.02734 0
M  V30 8068 O 752.513 -3.88784 1.37554 0
M  V30 8069 H 751.854 -0.50179 0.434859 0
M  V30 8070 H 754.384 -1.06372 1.74775 0
M  V30 8071 H 754.394 -3.4803 2.1293 0
M  V30 8072 H 753.069 -2.80969 3.06642 0
M  V30 8073 H 751.646 -3.4725 1.3591 0
M  V30 8074 N 753.831 -1.1567 -1.07043 0
M  V30 8075 C 755.056 -0.957946 -1.83952 0
M  V30 8076 C 755.481 0.488807 -1.81638 0
M  V30 8077 O 754.839 1.34869 -1.21162 0
M  V30 8078 C 754.887 -1.48064 -3.288 0
M  V30 8079 O 753.991 -0.681921 -4.06723 0
M  V30 8080 H 753.332 -0.341453 -0.569479 0
M  V30 8081 H 755.862 -1.53728 -1.35015 0
M  V30 8082 H 755.872 -1.49484 -3.7963 0
M  V30 8083 H 754.547 -2.53388 -3.29799 0
M  V30 8084 H 753.124 -0.737612 -3.65532 0
M  V30 8085 N 755.309 1.25446 -0.953992 0
M  V30 8086 C 756.556 1.93143 -0.608429 0
M  V30 8087 C 756.884 1.74727 0.854451 0
M  V30 8088 O 756.139 1.0855 1.62836 0
M  V30 8089 C 756.438 3.45555 -0.912496 0
M  V30 8090 C 756.104 3.84126 -2.36131 0
M  V30 8091 C 754.766 3.94367 -2.75732 0
M  V30 8092 C 757.118 4.0324 -3.30223 0
M  V30 8093 C 754.446 4.21127 -4.08496 0
M  V30 8094 C 756.798 4.31493 -4.62598 0
M  V30 8095 C 755.462 4.3995 -5.01996 0
M  V30 8096 H 754.732 0.706762 -0.22264 0
M  V30 8097 H 757.379 1.49005 -1.20291 0
M  V30 8098 H 755.684 3.91091 -0.235618 0
M  V30 8099 H 757.381 3.9612 -0.623714 0
M  V30 8100 H 753.971 3.76711 -2.04418 0
M  V30 8101 H 758.155 3.94744 -3.00817 0
M  V30 8102 H 753.411 4.2589 -4.38665 0
M  V30 8103 H 757.585 4.45227 -5.35486 0
M  V30 8104 H 755.212 4.60439 -6.04896 0
M  V30 8105 N 756.787 0.722489 1.40064 0
M  V30 8106 C 758.036 0.261932 1.99992 0
M  V30 8107 C 758.349 -1.15358 1.57961 0
M  V30 8108 O 759.555 -1.71301 2.10637 0
M  V30 8109 C 758.011 0.41737 3.57472 0
M  V30 8110 C 757.619 1.83997 4.08472 0
M  V30 8111 C 759.363 0.0179561 4.24496 0
M  V30 8112 C 757.27 1.94563 5.5848 0
M  V30 8113 H 756.2 0.0941768 0.748095 0
M  V30 8114 H 758.851 0.894572 1.60218 0
M  V30 8115 H 757.233 -0.283965 3.94981 0
M  V30 8116 H 758.407 2.57224 3.82325 0
M  V30 8117 H 756.722 2.19147 3.54067 0
M  V30 8118 H 759.319 0.076085 5.34646 0
M  V30 8119 H 759.662 -1.02498 4.03485 0
M  V30 8120 H 760.195 0.669988 3.92117 0
M  V30 8121 H 756.934 2.97001 5.84355 0
M  V30 8122 H 756.454 1.25756 5.86469 0
M  V30 8123 H 758.133 1.72095 6.23692 0
M  V30 8124 N 758.265 -1.50454 0.469181 0
M  V30 8125 C 759.197 -2.26319 -0.362247 0
M  V30 8126 C 760.21 -1.31574 -0.958751 0
M  V30 8127 O 761.399 -1.57099 -0.847482 0
M  V30 8128 C 758.499 -3.02808 -1.52187 0
M  V30 8129 C 757.672 -4.24893 -1.03849 0
M  V30 8130 C 756.731 -4.83691 -2.07194 0
M  V30 8131 O 755.757 -5.44659 -1.65333 0
M  V30 8132 N 756.959 -4.70522 -3.39985 0
M  V30 8133 H 759.724 -2.98312 0.288124 0
M  V30 8134 H 757.285 -1.59099 0.299856 0
M  V30 8135 H 759.277 -3.39023 -2.21011 0
M  V30 8136 H 757.847 -2.33625 -2.07697 0
M  V30 8137 H 757.067 -3.93806 -0.176203 0
M  V30 8138 H 758.355 -5.04053 -0.693435 0
M  V30 8139 H 757.753 -4.2203 -3.76706 0
M  V30 8140 H 756.31 -5.11011 -4.04612 0
M  V30 8141 N 759.743 -0.201713 -1.56304 0
M  V30 8142 C 760.991 0.434447 -1.97375 0
M  V30 8143 C 761.312 1.61692 -1.08998 0
M  V30 8144 O 760.582 1.95223 -0.162682 0
M  V30 8145 H 759.162 0.163497 -0.728888 0
M  V30 8146 H 761.824 -0.289988 -1.92731 0
M  V30 8147 H 760.92 0.774136 -3.02347 0
M  V30 8148 N 761.222 1.57436 0.0718424 0
M  V30 8149 C 762.447 1.91858 0.787745 0
M  V30 8150 C 762.872 0.798119 1.70328 0
M  V30 8151 O 762.23 -0.24905 1.79581 0
M  V30 8152 C 762.278 3.25232 1.55744 0
M  V30 8153 O 761.382 3.14462 2.6681 0
M  V30 8154 H 760.723 0.628258 0.214914 0
M  V30 8155 H 763.253 2.04561 0.0401012 0
M  V30 8156 H 763.263 3.59105 1.9367 0
M  V30 8157 H 761.938 4.0636 0.885691 0
M  V30 8158 H 760.515 2.92148 2.31741 0
M  V30 8159 N 762.7 -0.34323 1.53817 0
M  V30 8160 C 763.928 -1.10348 1.75017 0
M  V30 8161 C 764.343 -1.82345 0.489475 0
M  V30 8162 O 763.7 -1.74362 -0.538886 0
M  V30 8163 C 763.751 -2.11672 2.93048 0
M  V30 8164 O 763.472 -1.42603 4.14241 0
M  V30 8165 C 764.973 -3.0007 3.26301 0
M  V30 8166 H 762.193 -0.329056 0.584776 0
M  V30 8167 H 764.737 -0.395339 2.00642 0
M  V30 8168 H 762.892 -2.78051 2.69753 0
M  V30 8169 H 763.306 -2.10294 4.80496 0
M  V30 8170 H 764.78 -3.67101 4.12239 0
M  V30 8171 H 765.257 -3.66105 2.42618 0
M  V30 8172 H 765.863 -2.3928 3.51604 0
M  V30 8173 N 764.178 -1.45556 -0.604258 0
M  V30 8174 C 765.125 -1.54482 -1.71476 0
M  V30 8175 C 766.095 -0.390479 -1.61445 0
M  V30 8176 O 767.28 -0.604371 -1.80975 0
M  V30 8177 C 764.42 -1.52064 -3.09791 0
M  V30 8178 C 763.533 -2.78073 -3.30604 0
M  V30 8179 C 762.668 -2.67304 -4.59044 0
M  V30 8180 C 761.707 -3.88352 -4.73127 0
M  V30 8181 N 760.844 -3.76098 -5.9287 0
M  V30 8182 H 765.684 -2.49349 -1.63184 0
M  V30 8183 H 763.221 -1.23725 -0.795641 0
M  V30 8184 H 765.179 -1.48649 -3.89819 0
M  V30 8185 H 763.809 -0.607442 -3.17033 0
M  V30 8186 H 762.861 -2.91561 -2.44329 0
M  V30 8187 H 764.173 -3.67847 -3.36883 0
M  V30 8188 H 763.327 -2.61875 -5.47272 0
M  V30 8189 H 762.066 -1.75135 -4.55169 0
M  V30 8190 H 761.071 -3.94137 -3.83322 0
M  V30 8191 H 762.296 -4.81591 -4.78797 0
M  V30 8192 H 760.242 -2.867 -5.90033 0
M  V30 8193 H 760.159 -4.59509 -6.00323 0
M  V30 8194 H 761.427 -3.74607 -6.83586 0
M  V30 8195 N 765.656 0.84705 -1.32902 0
M  V30 8196 C 766.904 1.5986 -1.2365 0
M  V30 8197 C 767.225 1.93974 0.199789 0
M  V30 8198 O 766.495 1.60273 1.12648 0
M  V30 8199 H 765.075 0.592696 -0.454665 0
M  V30 8200 H 767.737 1.01278 -1.66519 0
M  V30 8201 H 766.833 2.53218 -1.82448 0
M  V30 8202 N 767.134 1.16236 1.06428 0
M  V30 8203 C 768.374 0.95369 1.80787 0
M  V30 8204 C 768.738 -0.509495 1.85117 0
M  V30 8205 O 769.939 -0.836822 2.55442 0
M  V30 8206 C 768.21 1.56235 3.21443 0
M  V30 8207 S 769.769 1.49812 4.12434 0
M  V30 8208 H 766.587 0.343004 0.622792 0
M  V30 8209 H 769.189 1.47957 1.27785 0
M  V30 8210 H 767.893 2.62 3.15886 0
M  V30 8211 H 767.424 1.03574 3.79521 0
M  V30 8212 H 769.439 0.49745 4.937 0
M  V30 8213 N 768.612 -1.24939 0.960631 0
M  V30 8214 C 769.56 -2.27659 0.47686 0
M  V30 8215 C 770.554 -1.63148 -0.455961 0
M  V30 8216 O 771.76 -1.76911 -0.332029 0
M  V30 8217 H 768.135 -0.739651 0.135723 0
M  V30 8218 H 770.106 -2.65844 1.35534 0
M  V30 8219 C 768.855 -3.46976 -0.224191 0
M  V30 8220 H 768.178 -3.96854 0.484471 0
M  V30 8221 H 769.618 -4.20717 -0.526615 0
M  V30 8222 C 768.077 -3.04159 -1.44876 0
M  V30 8223 O 768.607 -3.10697 -2.54618 0
M  V30 8224 N 766.813 -2.59284 -1.31226 0
M  V30 8225 H 766.36 -2.54164 -0.419361 0
M  V30 8226 H 766.318 -2.31 -2.13275 0
M  V30 8227 N 770.09 -0.729906 -1.39679 0
M  V30 8228 C 771.336 -0.27603 -2.00913 0
M  V30 8229 C 771.669 1.13227 -1.57776 0
M  V30 8230 O 770.944 1.7709 -0.804319 0
M  V30 8231 C 771.227 -0.372157 -3.58172 0
M  V30 8232 C 771.08 -1.81986 -4.11341 0
M  V30 8233 C 772.399 0.248378 -4.39399 0
M  V30 8234 H 769.518 -0.101773 -0.729939 0
M  V30 8235 H 772.16 -0.925104 -1.65957 0
M  V30 8236 H 770.31 0.180459 -3.88081 0
M  V30 8237 H 771.982 -2.42896 -3.92172 0
M  V30 8238 H 770.225 -2.34287 -3.65092 0
M  V30 8239 H 770.896 -1.83842 -5.20486 0
M  V30 8240 H 773.372 -0.222645 -4.15504 0
M  V30 8241 H 772.248 0.150746 -5.48693 0
M  V30 8242 H 772.509 1.33378 -4.21501 0
M  V30 8243 N 771.568 1.50203 -0.477153 0
M  V30 8244 C 772.516 2.30278 0.327826 0
M  V30 8245 C 773.51 1.37831 0.984839 0
M  V30 8246 O 774.716 1.54994 0.915251 0
M  V30 8247 H 771.091 0.741612 0.124564 0
M  V30 8248 H 773.062 2.96124 -0.367853 0
M  V30 8249 C 771.811 3.18548 1.39365 0
M  V30 8250 H 771.134 3.89596 0.897475 0
M  V30 8251 H 772.574 3.77561 1.92934 0
M  V30 8252 C 771.033 2.36548 2.39889 0
M  V30 8253 O 771.563 2.05282 3.45286 0
M  V30 8254 N 769.769 1.99015 2.11758 0
M  V30 8255 H 769.316 2.24641 1.26071 0
M  V30 8256 H 769.274 1.44454 2.7925 0
M  V30 8257 N 773.046 0.209999 1.56195 0
M  V30 8258 C 773.993 -0.704854 2.19774 0
M  V30 8259 C 774.963 -1.19886 1.14964 0
M  V30 8260 O 776.148 -1.26005 1.43274 0
M  V30 8261 C 773.288 -1.91241 2.87265 0
M  V30 8262 C 772.401 -1.45838 4.06639 0
M  V30 8263 C 771.536 -2.6226 4.61945 0
M  V30 8264 C 770.575 -2.13537 5.73645 0
M  V30 8265 N 769.712 -3.2319 6.23292 0
M  V30 8266 H 774.552 -0.155944 2.97592 0
M  V30 8267 H 772.089 -0.0652235 1.46955 0
M  V30 8268 H 774.047 -2.62123 3.24573 0
M  V30 8269 H 772.677 -2.43439 2.11985 0
M  V30 8270 H 771.729 -0.644897 3.74894 0
M  V30 8271 H 773.041 -1.06103 4.87384 0
M  V30 8272 H 772.195 -3.41243 5.01636 0
M  V30 8273 H 770.934 -3.05278 3.80338 0
M  V30 8274 H 769.939 -1.33013 5.33468 0
M  V30 8275 H 771.164 -1.71533 6.57079 0
M  V30 8276 H 769.11 -3.65711 5.44602 0
M  V30 8277 H 769.027 -2.8767 6.99129 0
M  V30 8278 H 770.295 -4.02342 6.67639 0
M  V30 8279 N 774.524 -1.57472 -0.0634922 0
M  V30 8280 C 775.454 -2.07297 -1.07473 0
M  V30 8281 C 776.435 -0.968162 -1.39859 0
M  V30 8282 O 777.62 -1.24139 -1.49343 0
M  V30 8283 C 774.75 -2.52381 -2.38581 0
M  V30 8284 C 773.704 -3.66813 -2.20526 0
M  V30 8285 C 773.03 -3.97982 -3.57092 0
M  V30 8286 C 774.33 -4.96553 -1.61965 0
M  V30 8287 H 776.024 -2.92033 -0.660092 0
M  V30 8288 H 773.57 -1.40488 -0.316074 0
M  V30 8289 H 775.523 -2.85852 -3.09624 0
M  V30 8290 H 774.247 -1.64684 -2.8204 0
M  V30 8291 H 772.906 -3.33639 -1.51924 0
M  V30 8292 H 772.554 -3.07403 -3.98136 0
M  V30 8293 H 772.254 -4.7504 -3.45848 0
M  V30 8294 H 773.778 -4.33956 -4.29552 0
M  V30 8295 H 775.192 -5.28201 -2.22883 0
M  V30 8296 H 773.589 -5.7799 -1.61394 0
M  V30 8297 H 774.659 -4.81396 -0.581918 0
M  V30 8298 N 776.003 0.335068 -1.53997 0
M  V30 8299 C 776.951 1.43206 -1.83289 0
M  V30 8300 C 777.945 1.54081 -0.703953 0
M  V30 8301 O 779.151 1.56603 -0.887432 0
M  V30 8302 H 775.526 0.477655 -0.580818 0
M  V30 8303 H 777.497 1.15719 -2.75049 0
M  V30 8304 C 776.246 2.79602 -2.06683 0
M  V30 8305 H 775.569 2.72004 -2.93008 0
M  V30 8306 H 777.009 3.55459 -2.31139 0
M  V30 8307 C 775.468 3.25873 -0.854883 0
M  V30 8308 O 775.998 4.01657 -0.0584648 0
M  V30 8309 N 774.204 2.82777 -0.669729 0
M  V30 8310 H 773.751 2.21269 -1.31901 0
M  V30 8311 H 773.709 3.1409 0.13969 0
M  V30 8312 N 777.481 1.45874 0.596531 0
M  V30 8313 C 778.711 1.5379 1.37958 0
M  V30 8314 C 779.119 0.173086 1.88407 0
M  V30 8315 O 778.462 -0.837498 1.63498 0
M  V30 8316 C 778.524 2.47044 2.61169 0
M  V30 8317 C 778.188 3.93565 2.32283 0
M  V30 8318 C 779.185 4.83162 1.91965 0
M  V30 8319 C 776.87 4.38579 2.44854 0
M  V30 8320 C 778.864 6.15782 1.64593 0
M  V30 8321 C 776.551 5.71238 2.17095 0
M  V30 8322 C 777.549 6.59659 1.77028 0
M  V30 8323 O 777.237 7.89857 1.49601 0
M  V30 8324 H 776.969 0.523 0.428307 0
M  V30 8325 H 779.523 1.91855 0.733529 0
M  V30 8326 H 777.753 2.0397 3.28532 0
M  V30 8327 H 779.442 2.4552 3.23226 0
M  V30 8328 H 780.208 4.49646 1.8178 0
M  V30 8329 H 776.087 3.6999 2.75006 0
M  V30 8330 H 779.631 6.84757 1.33245 0
M  V30 8331 H 775.528 6.04306 2.26901 0
M  V30 8332 H 776.296 8.01991 1.63561 0
M  V30 8333 N 778.959 -0.83999 1.33349 0
M  V30 8334 C 780.37 -1.41139 1.22216 0
M  V30 8335 C 780.721 -1.95551 -0.159398 0
M  V30 8336 O 779.846 -1.88721 -1.05893 0
M  V30 8337 C 780.441 -2.56564 2.21269 0
M  V30 8338 C 779 -3.09661 2.13979 0
M  V30 8339 C 778.147 -1.82457 2.08818 0
M  V30 8340 H 781.098 -0.645853 1.44964 0
M  V30 8341 H 781.119 -3.34163 1.81976 0
M  V30 8342 H 780.631 -2.16932 3.21811 0
M  V30 8343 H 778.732 -3.53841 1.16736 0
M  V30 8344 H 778.845 -3.6991 3.04472 0
M  V30 8345 H 777.209 -2.0266 1.54276 0
M  V30 8346 H 777.992 -1.45022 3.11165 0
M  V30 8347 N 780.437 -1.16799 -1.0581 0
M  V30 8348 C 781.848 -0.95945 -1.60161 0
M  V30 8349 C 782.199 0.49543 -1.89842 0
M  V30 8350 O 781.324 1.36957 -1.67546 0
M  V30 8351 C 781.919 -1.73527 -2.90987 0
M  V30 8352 C 780.478 -1.57158 -3.42021 0
M  V30 8353 C 779.625 -1.74089 -2.15843 0
M  V30 8354 H 782.576 -1.31598 -0.886992 0
M  V30 8355 H 782.597 -1.21397 -3.60615 0
M  V30 8356 H 782.109 -2.79411 -2.69353 0
M  V30 8357 H 780.21 -0.537361 -3.68705 0
M  V30 8358 H 780.323 -2.35858 -4.17022 0
M  V30 8359 H 778.687 -1.16874 -2.26302 0
M  V30 8360 H 779.47 -2.81371 -1.96686 0
M  V30 8361 N 781.915 1.24427 -0.967243 0
M  V30 8362 C 783.162 1.92487 -0.62888 0
M  V30 8363 C 783.49 1.75623 0.835871 0
M  V30 8364 O 782.745 1.1027 1.61675 0
M  V30 8365 C 783.044 3.44568 -0.949096 0
M  V30 8366 C 782.71 3.816 -2.40192 0
M  V30 8367 C 781.372 3.9142 -2.799 0
M  V30 8368 C 783.724 3.99715 -3.34481 0
M  V30 8369 C 781.052 4.16771 -4.12939 0
M  V30 8370 C 783.404 4.26562 -4.67148 0
M  V30 8371 C 782.068 4.34601 -5.06634 0
M  V30 8372 H 781.338 0.704361 -0.230124 0
M  V30 8373 H 783.985 1.4772 -1.21864 0
M  V30 8374 H 782.29 3.90819 -0.277085 0
M  V30 8375 H 783.987 3.95436 -0.665692 0
M  V30 8376 H 780.577 3.74522 -2.08402 0
M  V30 8377 H 784.761 3.91531 -3.04987 0
M  V30 8378 H 780.017 4.21214 -4.43158 0
M  V30 8379 H 784.191 4.39523 -5.40178 0
M  V30 8380 H 781.818 4.53998 -6.09746 0
M  V30 8381 N 783.393 0.737304 1.3929 0
M  V30 8382 C 784.621 0.296573 2.04763 0
M  V30 8383 C 785.036 -1.06941 1.55592 0
M  V30 8384 O 784.393 -1.67619 0.721822 0
M  V30 8385 C 784.444 0.291906 3.6032 0
M  V30 8386 O 784.165 1.60397 4.07682 0
M  V30 8387 C 785.666 -0.164708 4.42994 0
M  V30 8388 H 782.886 0.129251 0.658434 0
M  V30 8389 H 785.43 1.0016 1.78293 0
M  V30 8390 H 783.585 -0.364251 3.85684 0
M  V30 8391 H 783.999 1.51909 5.0202 0
M  V30 8392 H 785.473 -0.116814 5.51876 0
M  V30 8393 H 785.95 -1.21022 4.22197 0
M  V30 8394 H 786.556 0.461968 4.22784 0
M  V30 8395 N 784.871 -1.49948 0.485112 0
M  V30 8396 C 786.282 -1.8667 0.0334041 0
M  V30 8397 C 786.633 -1.3988 -1.37579 0
M  V30 8398 O 785.758 -0.769788 -2.02245 0
M  V30 8399 C 786.353 -3.38757 0.0538426 0
M  V30 8400 C 784.912 -3.74839 -0.342453 0
M  V30 8401 C 784.059 -2.73894 0.433281 0
M  V30 8402 H 787.01 -1.42492 0.698699 0
M  V30 8403 H 787.031 -3.73132 -0.745146 0
M  V30 8404 H 786.543 -3.72782 1.07959 0
M  V30 8405 H 784.644 -3.46419 -1.37203 0
M  V30 8406 H 784.757 -4.79088 -0.0340503 0
M  V30 8407 H 783.121 -2.54441 -0.114849 0
M  V30 8408 H 783.904 -3.10763 1.45881 0
M  V30 8409 N 786.349 -0.21828 -1.56081 0
M  V30 8410 C 787.626 0.463143 -1.90038 0
M  V30 8411 C 788.006 1.77982 -1.13515 0
M  V30 8412 O 787.354 2.27199 -0.24345 0
M  V30 8413 C 787.564 0.659292 -3.42716 0
M  V30 8414 C 788.912 0.968203 -4.13414 0
M  V30 8415 O 789.936 0.746195 -3.48296 0
M  V30 8416 O 788.795 1.38936 -5.28544 0
M  V30 8417 H 785.889 0.244435 -0.790051 0
M  V30 8418 H 788.435 -0.260221 -1.67693 0
M  V30 8419 H 787.207 -0.269584 -3.9037 0
M  V30 8420 H 786.83 1.43426 -3.7083 0
M  V30 8421 N 787.827 1.57504 0.0551401 0
M  V30 8422 C 789.076 1.87237 0.750009 0
M  V30 8423 C 789.389 0.813268 1.77891 0
M  V30 8424 O 790.595 0.99898 2.52453 0
M  V30 8425 C 789.051 3.32187 1.38491 0
M  V30 8426 C 788.659 4.46267 0.393707 0
M  V30 8427 C 790.403 3.71101 2.06117 0
M  V30 8428 C 788.31 5.82265 1.03547 0
M  V30 8429 H 787.24 0.698524 0.283866 0
M  V30 8430 H 789.891 1.835 0.00365997 0
M  V30 8431 H 788.273 3.30588 2.18008 0
M  V30 8432 H 789.447 4.59289 -0.372865 0
M  V30 8433 H 787.762 4.16015 -0.17902 0
M  V30 8434 H 790.359 4.70012 2.54937 0
M  V30 8435 H 790.702 3.01751 2.86796 0
M  V30 8436 H 791.235 3.74762 1.33409 0
M  V30 8437 H 787.974 6.54949 0.268644 0
M  V30 8438 H 787.494 5.73012 1.7725 0
M  V30 8439 H 789.173 6.28148 1.55047 0
M  V30 8440 N 789.305 -0.326896 1.54172 0
M  V30 8441 C 790.235 -1.40741 1.86317 0
M  V30 8442 C 791.216 -1.54125 0.719684 0
M  V30 8443 O 792.401 -1.6806 0.973117 0
M  V30 8444 C 789.531 -2.77557 2.08757 0
M  V30 8445 C 788.485 -2.78965 3.24596 0
M  V30 8446 C 787.811 -4.18824 3.32401 0
M  V30 8447 C 789.111 -2.4301 4.62324 0
M  V30 8448 H 790.805 -1.14088 2.76811 0
M  V30 8449 H 788.351 -0.547389 1.3319 0
M  V30 8450 H 790.304 -3.53209 2.29829 0
M  V30 8451 H 789.028 -3.0568 1.15009 0
M  V30 8452 H 787.687 -2.05767 3.03406 0
M  V30 8453 H 787.335 -4.44083 2.36218 0
M  V30 8454 H 787.035 -4.20673 4.10253 0
M  V30 8455 H 788.559 -4.96294 3.55703 0
M  V30 8456 H 789.973 -3.08375 4.83299 0
M  V30 8457 H 788.37 -2.56116 5.42701 0
M  V30 8458 H 789.44 -1.38165 4.64799 0
M  V30 8459 N 790.784 -1.46188 -0.588786 0
M  V30 8460 C 792.061 -1.41659 -1.34878 0
M  V30 8461 C 792.441 -0.0968913 -2.10878 0
M  V30 8462 O 791.789 0.921468 -2.09096 0
M  V30 8463 C 791.999 -2.6424 -2.27988 0
M  V30 8464 C 793.347 -3.1013 -2.90008 0
M  V30 8465 O 794.371 -2.64745 -2.38303 0
M  V30 8466 O 793.23 -3.88944 -3.83908 0
M  V30 8467 H 790.324 -0.563058 -0.605718 0
M  V30 8468 H 792.87 -1.58346 -0.610309 0
M  V30 8469 H 791.642 -3.51853 -1.71217 0
M  V30 8470 H 791.265 -2.49982 -3.09184 0
M  V30 8471 N 792.262 0.832906 -1.33792 0
M  V30 8472 C 793.209 1.94314 -1.24541 0
M  V30 8473 C 794.179 1.65646 -0.122753 0
M  V30 8474 O 795.364 1.88394 -0.30204 0
M  V30 8475 C 792.504 3.30395 -0.996641 0
M  V30 8476 C 791.617 3.71422 -2.20612 0
M  V30 8477 C 790.752 4.96401 -1.89101 0
M  V30 8478 C 789.791 5.2998 -3.06247 0
M  V30 8479 N 788.928 6.46137 -2.74685 0
M  V30 8480 H 793.768 2.01559 -2.19495 0
M  V30 8481 H 791.305 0.986243 -1.09141 0
M  V30 8482 H 793.263 4.08803 -0.832817 0
M  V30 8483 H 791.893 3.22691 -0.0838242 0
M  V30 8484 H 790.945 2.88488 -2.47949 0
M  V30 8485 H 792.257 3.92215 -3.0817 0
M  V30 8486 H 791.411 5.82572 -1.69396 0
M  V30 8487 H 790.15 4.7759 -0.987882 0
M  V30 8488 H 789.155 4.42312 -3.26559 0
M  V30 8489 H 790.38 5.50737 -3.97323 0
M  V30 8490 H 788.326 6.28801 -1.86938 0
M  V30 8491 H 788.243 6.67054 -3.55774 0
M  V30 8492 H 789.511 7.35403 -2.58461 0
M  V30 8493 N 793.74 1.17359 1.05189 0
M  V30 8494 C 794.67 0.91365 2.14883 0
M  V30 8495 C 795.651 -0.144365 1.69486 0
M  V30 8496 O 796.836 0.00587861 1.94199 0
M  V30 8497 C 793.966 0.426196 3.44675 0
M  V30 8498 C 792.92 1.4234 4.03638 0
M  V30 8499 C 792.246 0.793902 5.28773 0
M  V30 8500 C 793.546 2.7966 4.41121 0
M  V30 8501 H 795.24 1.831 2.36885 0
M  V30 8502 H 792.786 0.881781 1.13845 0
M  V30 8503 H 794.739 0.231767 4.20762 0
M  V30 8504 H 793.463 -0.526693 3.22325 0
M  V30 8505 H 792.122 1.60457 3.2962 0
M  V30 8506 H 791.77 -0.165824 5.02727 0
M  V30 8507 H 791.47 1.45959 5.69183 0
M  V30 8508 H 792.994 0.609747 6.07548 0
M  V30 8509 H 794.408 2.6526 5.08242 0
M  V30 8510 H 792.805 3.42807 4.92548 0
M  V30 8511 H 793.875 3.34068 3.51464 0
M  V30 8512 N 795.218 -1.23913 0.973828 0
M  V30 8513 C 796.151 -2.23647 0.45355 0
M  V30 8514 C 797.129 -1.55485 -0.475724 0
M  V30 8515 O 798.313 -1.84083 -0.405689 0
M  V30 8516 C 795.44 -3.36942 -0.344594 0
M  V30 8517 C 794.486 -4.23221 0.527859 0
M  V30 8518 S 795.319 -4.97877 1.97177 0
M  V30 8519 C 796.475 -6.14627 1.18258 0
M  V30 8520 H 796.708 -2.67433 1.29873 0
M  V30 8521 H 794.241 -1.33289 0.779322 0
M  V30 8522 H 796.199 -4.02647 -0.799103 0
M  V30 8523 H 794.86 -2.91703 -1.16482 0
M  V30 8524 H 794.053 -5.03928 -0.0852555 0
M  V30 8525 H 793.655 -3.6255 0.918344 0
M  V30 8526 H 795.947 -6.76066 0.440629 0
M  V30 8527 H 796.89 -6.80311 1.96425 0
M  V30 8528 H 797.298 -5.6009 0.704256 0
M  V30 8529 N 796.696 -0.74468 -1.38897 0
M  V30 8530 C 797.926 -0.306982 -2.04307 0
M  V30 8531 C 798.334 1.06652 -1.56275 0
M  V30 8532 O 797.677 1.68699 -0.72708 0
M  V30 8533 C 797.739 -0.241186 -3.5869 0
M  V30 8534 C 797.403 -1.55476 -4.2974 0
M  V30 8535 C 798.4 -2.50229 -4.55721 0
M  V30 8536 C 796.085 -1.82173 -4.68101 0
M  V30 8537 C 798.079 -3.69905 -5.19085 0
M  V30 8538 C 795.766 -3.02125 -5.31191 0
M  V30 8539 C 796.764 -3.95812 -5.56616 0
M  V30 8540 O 796.452 -5.13656 -6.18395 0
M  V30 8541 H 796.184 -0.130416 -0.663301 0
M  V30 8542 H 798.738 -1.01192 -1.78744 0
M  V30 8543 H 796.968 0.519925 -3.83189 0
M  V30 8544 H 798.657 0.165806 -4.05561 0
M  V30 8545 H 799.423 -2.30877 -4.26522 0
M  V30 8546 H 795.302 -1.10091 -4.47662 0
M  V30 8547 H 798.846 -4.43047 -5.38846 0
M  V30 8548 H 794.743 -3.21374 -5.59811 0
M  V30 8549 H 795.511 -5.14119 -6.36886 0
M  V30 8550 N 798.174 1.49689 -0.493057 0
M  V30 8551 C 799.399 2.07331 0.0535114 0
M  V30 8552 C 799.824 1.35196 1.30781 0
M  V30 8553 O 799.182 0.406246 1.7669 0
M  V30 8554 C 799.23 3.59364 0.29825 0
M  V30 8555 O 798.334 3.88819 1.37454 0
M  V30 8556 H 797.675 0.663612 -0.0227018 0
M  V30 8557 H 800.205 1.926 -0.690402 0
M  V30 8558 H 800.215 4.04515 0.532159 0
M  V30 8559 H 798.89 4.1128 -0.618207 0
M  V30 8560 H 797.467 3.55487 1.12621 0
M  V30 8561 N 799.652 0.226554 1.55963 0
M  V30 8562 C 800.599 -0.681504 2.20509 0
M  V30 8563 C 801.569 -1.1866 1.16229 0
M  V30 8564 O 802.754 -1.24478 1.44602 0
M  V30 8565 C 799.894 -1.88183 2.89277 0
M  V30 8566 C 799.007 -1.41517 4.08163 0
M  V30 8567 C 798.142 -2.57346 4.647 0
M  V30 8568 C 797.181 -2.07441 5.75877 0
M  V30 8569 N 796.318 -3.16561 6.26685 0
M  V30 8570 H 801.158 -0.124372 2.9774 0
M  V30 8571 H 798.695 -0.0496333 1.47016 0
M  V30 8572 H 800.653 -2.58666 3.27335 0
M  V30 8573 H 799.283 -2.41177 2.14555 0
M  V30 8574 H 798.335 -0.605099 3.75557 0
M  V30 8575 H 799.647 -1.00928 4.88482 0
M  V30 8576 H 798.801 -3.35903 5.05227 0
M  V30 8577 H 797.54 -3.01227 3.83554 0
M  V30 8578 H 796.545 -1.27347 5.34848 0
M  V30 8579 H 797.77 -1.64554 6.58862 0
M  V30 8580 H 795.716 -3.59914 5.48451 0
M  V30 8581 H 795.633 -2.80239 7.02141 0
M  V30 8582 H 796.901 -3.95238 6.71868 0
M  V30 8583 N 801.13 -1.57531 -0.0467866 0
M  V30 8584 C 802.358 -1.92696 -0.753371 0
M  V30 8585 C 802.773 -0.824792 -1.69831 0
M  V30 8586 O 802.13 0.200155 -1.81399 0
M  V30 8587 C 802.181 -3.27728 -1.52566 0
M  V30 8588 O 801.902 -4.3371 -0.618674 0
M  V30 8589 C 803.403 -3.77066 -2.33101 0
M  V30 8590 H 800.623 -0.636367 -0.212788 0
M  V30 8591 H 803.167 -2.04498 -0.00959361 0
M  V30 8592 H 801.322 -3.17378 -2.22148 0
M  V30 8593 H 801.736 -5.11548 -1.15839 0
M  V30 8594 H 803.21 -4.74109 -2.82709 0
M  V30 8595 H 803.687 -3.07348 -3.13741 0
M  V30 8596 H 804.293 -3.90442 -1.68628 0
M  V30 8597 N 802.608 0.318715 -1.54344 0
M  V30 8598 C 803.857 1.05363 -1.71993 0
M  V30 8599 C 804.17 1.89018 -0.503155 0
M  V30 8600 O 805.376 2.65639 -0.561085 0
M  V30 8601 C 803.832 1.92281 -3.0423 0
M  V30 8602 C 803.44 1.13715 -4.33328 0
M  V30 8603 C 805.184 2.65479 -3.31242 0
M  V30 8604 C 803.091 1.99806 -5.56625 0
M  V30 8605 H 802.021 0.397081 -0.64097 0
M  V30 8606 H 804.672 0.311598 -1.80835 0
M  V30 8607 H 803.054 2.70402 -2.89307 0
M  V30 8608 H 804.228 0.403305 -4.59032 0
M  V30 8609 H 802.543 0.521769 -4.13118 0
M  V30 8610 H 805.14 3.30209 -4.20555 0
M  V30 8611 H 805.483 3.33374 -2.49334 0
M  V30 8612 H 806.016 1.94417 -3.47054 0
M  V30 8613 H 802.755 1.36411 -6.41149 0
M  V30 8614 H 802.275 2.70911 -5.35133 0
M  V30 8615 H 803.954 2.58277 -5.93213 0
M  V30 8616 N 804.086 1.46499 0.581025 0
M  V30 8617 C 805.326 1.53456 1.35021 0
M  V30 8618 C 805.69 0.182542 1.9113 0
M  V30 8619 O 806.891 0.126874 2.685 0
M  V30 8620 C 805.162 2.60387 2.44812 0
M  V30 8621 S 806.721 2.86762 3.32134 0
M  V30 8622 H 803.539 0.54216 0.459982 0
M  V30 8623 H 806.141 1.83742 0.667754 0
M  V30 8624 H 804.845 3.57253 2.01986 0
M  V30 8625 H 804.376 2.31839 3.17828 0
M  V30 8626 H 806.391 2.2216 4.43688 0
M  V30 8627 N 805.565 -0.825799 1.34232 0
M  V30 8628 C 806.498 -1.94155 1.19914 0
M  V30 8629 C 807.476 -1.62343 0.0914533 0
M  V30 8630 O 808.66 -1.86752 0.256082 0
M  V30 8631 C 805.787 -3.28064 0.842138 0
M  V30 8632 C 804.833 -3.78839 1.95917 0
M  V30 8633 S 805.666 -3.98943 3.57218 0
M  V30 8634 C 806.822 -5.35783 3.23554 0
M  V30 8635 H 807.055 -2.06003 2.14359 0
M  V30 8636 H 804.588 -0.981053 1.19225 0
M  V30 8637 H 806.546 -4.05434 0.642952 0
M  V30 8638 H 805.207 -3.13988 -0.0839363 0
M  V30 8639 H 804.4 -4.75771 1.66306 0
M  V30 8640 H 804.002 -3.08406 2.11569 0
M  V30 8641 H 806.294 -6.19094 2.7519 0
M  V30 8642 H 807.237 -5.70376 4.19615 0
M  V30 8643 H 807.645 -5.01158 2.5981 0
M  V30 8644 N 807.043 -1.17915 -1.04565 0
M  V30 8645 C 808.32 -0.881187 -1.74627 0
M  V30 8646 C 808.7 0.617123 -2.01878 0
M  V30 8647 O 808.048 1.57032 -1.65991 0
M  V30 8648 C 808.258 -1.72299 -3.03503 0
M  V30 8649 C 809.606 -1.94688 -3.77335 0
M  V30 8650 O 810.63 -1.6931 -3.13389 0
M  V30 8651 O 809.489 -2.37379 -4.92253 0
M  V30 8652 H 806.583 -0.326864 -0.759664 0
M  V30 8653 H 809.129 -1.28642 -1.10676 0
M  V30 8654 H 807.901 -2.73891 -2.79462 0
M  V30 8655 H 807.524 -1.31593 -3.75192 0
M  V30 8656 N 808.521 1.23394 -0.980386 0
M  V30 8657 C 809.484 2.23092 -0.525619 0
M  V30 8658 C 810.484 1.56129 0.384745 0
M  V30 8659 O 811.674 1.73284 0.178439 0
M  V30 8660 C 808.806 3.40074 0.23712 0
M  V30 8661 H 809.999 2.64839 -1.40714 0
M  V30 8662 H 807.552 1.36227 -0.766275 0
M  V30 8663 H 808.287 3.03783 1.13518 0
M  V30 8664 H 808.072 3.89883 -0.416356 0
M  V30 8665 H 809.562 4.14043 0.543892 0
M  V30 8666 N 809.999 0.752036 1.385 0
M  V30 8667 C 811.245 0.307958 2.00448 0
M  V30 8668 C 811.578 -1.10702 1.59558 0
M  V30 8669 O 810.853 -1.75788 0.832391 0
M  V30 8670 C 811.136 0.429092 3.57534 0
M  V30 8671 C 810.989 1.88507 4.08393 0
M  V30 8672 C 812.308 -0.178442 4.39738 0
M  V30 8673 H 809.427 0.113373 0.728228 0
M  V30 8674 H 812.069 0.951389 1.64465 0
M  V30 8675 H 810.219 -0.118695 3.88319 0
M  V30 8676 H 811.891 2.49104 3.88259 0
M  V30 8677 H 810.134 2.40066 3.61318 0
M  V30 8678 H 810.805 1.92099 5.17496 0
M  V30 8679 H 813.281 0.28872 4.15097 0
M  V30 8680 H 812.157 -0.0634349 5.48863 0
M  V30 8681 H 812.418 -1.26655 4.23569 0
M  V30 8682 N 811.477 -1.49425 0.500989 0
M  V30 8683 C 812.409 -2.27037 -0.314159 0
M  V30 8684 C 813.422 -1.33578 -0.930626 0
M  V30 8685 O 814.611 -1.58861 -0.813968 0
M  V30 8686 C 811.711 -3.05968 -1.45729 0
M  V30 8687 C 810.884 -4.27 -0.948135 0
M  V30 8688 C 809.943 -4.87977 -1.96888 0
M  V30 8689 O 808.969 -5.48044 -1.53743 0
M  V30 8690 N 810.171 -4.77627 -3.29928 0
M  V30 8691 H 812.936 -2.97634 0.351336 0
M  V30 8692 H 810.497 -1.58427 0.333536 0
M  V30 8693 H 812.489 -3.43634 -2.1377 0
M  V30 8694 H 811.059 -2.37978 -2.02695 0
M  V30 8695 H 810.279 -3.94091 -0.0926311 0
M  V30 8696 H 811.567 -5.0541 -0.586362 0
M  V30 8697 H 810.965 -4.29926 -3.67669 0
M  V30 8698 H 809.522 -5.19478 -3.93682 0
M  V30 8699 N 812.955 -0.234822 -1.55841 0
M  V30 8700 C 813.903 0.686145 -2.22249 0
M  V30 8701 C 814.897 1.18948 -1.20614 0
M  V30 8702 O 816.103 1.14777 -1.38659 0
M  V30 8703 H 812.478 0.239724 -0.712767 0
M  V30 8704 H 814.449 0.102762 -2.98223 0
M  V30 8705 C 813.198 1.8776 -2.92646 0
M  V30 8706 H 812.521 1.49943 -3.70617 0
M  V30 8707 H 813.961 2.4995 -3.42493 0
M  V30 8708 C 812.42 2.74127 -1.95847 0
M  V30 8709 O 812.95 3.7329 -1.48384 0
M  V30 8710 N 811.156 2.4044 -1.63209 0
M  V30 8711 H 810.703 1.59854 -2.02001 0
M  V30 8712 H 810.661 2.98504 -0.987063 0
M  V30 8713 N 814.433 1.57553 0.0384317 0
M  V30 8714 C 815.679 1.89973 0.726772 0
M  V30 8715 C 816.034 0.832381 1.73462 0
M  V30 8716 O 815.327 -0.159975 1.90931 0
M  V30 8717 C 815.521 3.26862 1.44554 0
M  V30 8718 C 815.35 4.46812 0.508814 0
M  V30 8719 C 814.12 5.05124 0.133323 0
M  V30 8720 C 816.318 5.13876 -0.20881 0
M  V30 8721 N 814.3 6.08591 -0.805636 0
M  V30 8722 C 815.671 6.11821 -1.00376 0
M  V30 8723 C 817.726 4.9713 -0.276749 0
M  V30 8724 C 816.429 6.94825 -1.86038 0
M  V30 8725 C 818.455 5.80689 -1.12047 0
M  V30 8726 C 817.817 6.78197 -1.90337 0
M  V30 8727 H 813.916 0.744153 0.240334 0
M  V30 8728 H 816.5 1.94696 -0.0128735 0
M  V30 8729 H 814.671 3.23085 2.1557 0
M  V30 8730 H 816.403 3.46826 2.08552 0
M  V30 8731 H 813.158 4.71022 0.493484 0
M  V30 8732 H 813.582 6.64994 -1.26935 0
M  V30 8733 H 818.224 4.21631 0.314222 0
M  V30 8734 H 815.942 7.69676 -2.46219 0
M  V30 8735 H 819.528 5.69782 -1.17645 0
M  V30 8736 H 818.408 7.41731 -2.54569 0
M  V30 8737 N 815.911 -0.310526 1.54511 0
M  V30 8738 C 817.159 -1.04484 1.72996 0
M  V30 8739 C 817.48 -1.88118 0.513479 0
M  V30 8740 O 816.75 -1.90119 -0.472384 0
M  V30 8741 H 815.33 -0.388747 0.637875 0
M  V30 8742 H 817.992 -0.343811 1.91844 0
M  V30 8743 H 817.088 -1.70341 2.61515 0
M  V30 8744 N 817.389 -1.46805 -0.573248 0
M  V30 8745 C 818.336 -1.58084 -1.68161 0
M  V30 8746 C 819.306 -0.424636 -1.6058 0
M  V30 8747 O 820.491 -0.642623 -1.79652 0
M  V30 8748 C 817.631 -1.58601 -3.06496 0
M  V30 8749 C 816.744 -2.85023 -3.24632 0
M  V30 8750 C 815.879 -2.76981 -4.53271 0
M  V30 8751 C 814.918 -3.983 -4.64783 0
M  V30 8752 N 814.055 -3.88589 -5.84759 0
M  V30 8753 H 818.895 -2.52755 -1.57858 0
M  V30 8754 H 816.432 -1.25385 -0.769218 0
M  V30 8755 H 818.39 -1.56885 -3.86579 0
M  V30 8756 H 817.02 -0.674553 -3.15673 0
M  V30 8757 H 816.072 -2.96678 -2.38089 0
M  V30 8758 H 817.384 -3.7491 -3.29004 0
M  V30 8759 H 816.538 -2.73424 -5.41594 0
M  V30 8760 H 815.277 -1.84751 -4.51352 0
M  V30 8761 H 814.282 -4.02179 -3.74876 0
M  V30 8762 H 815.507 -4.91639 -4.68474 0
M  V30 8763 H 813.453 -2.99151 -5.83819 0
M  V30 8764 H 813.37 -4.7214 -5.90441 0
M  V30 8765 H 814.638 -3.89022 -6.75486 0
M  V30 8766 N 818.867 0.818669 -1.34668 0
M  V30 8767 C 819.799 1.93754 -1.22442 0
M  V30 8768 C 820.812 1.62103 -0.150501 0
M  V30 8769 O 822.001 1.73898 -0.402728 0
M  V30 8770 C 819.101 3.27806 -0.860031 0
M  V30 8771 C 818.274 3.8745 -2.02981 0
M  V30 8772 C 817.333 4.99887 -1.64314 0
M  V30 8773 O 816.359 5.17957 -2.36029 0
M  V30 8774 N 817.561 5.77795 -0.55976 0
M  V30 8775 H 820.326 2.04773 -2.18833 0
M  V30 8776 H 817.887 0.995472 -1.27679 0
M  V30 8777 H 819.879 4.00478 -0.583068 0
M  V30 8778 H 818.449 3.12597 0.0138253 0
M  V30 8779 H 817.669 3.07119 -2.47127 0
M  V30 8780 H 818.957 4.2403 -2.81204 0
M  V30 8781 H 818.355 5.65688 0.0363329 0
M  V30 8782 H 816.912 6.50899 -0.342541 0
M  V30 8783 N 820.346 1.18468 1.03938 0
M  V30 8784 C 821.576 1.0043 1.80547 0
M  V30 8785 C 821.984 -0.450407 1.83761 0
M  V30 8786 O 821.327 -1.32463 1.27276 0
M  V30 8787 C 821.389 1.48437 3.27424 0
M  V30 8788 C 821.053 2.96372 3.47869 0
M  V30 8789 C 822.05 3.94217 3.38953 0
M  V30 8790 C 819.735 3.34831 3.74424 0
M  V30 8791 C 821.729 5.28517 3.56298 0
M  V30 8792 C 819.416 4.69294 3.91416 0
M  V30 8793 C 820.414 5.65946 3.82354 0
M  V30 8794 O 820.102 6.97974 3.98858 0
M  V30 8795 H 819.834 0.354853 0.575374 0
M  V30 8796 H 822.388 1.57473 1.31876 0
M  V30 8797 H 820.618 0.857601 3.7707 0
M  V30 8798 H 822.307 1.2677 3.85596 0
M  V30 8799 H 823.073 3.6585 3.184 0
M  V30 8800 H 818.952 2.60161 3.80575 0
M  V30 8801 H 822.496 6.03943 3.49141 0
M  V30 8802 H 818.393 4.97361 4.11463 0
M  V30 8803 H 819.161 7.04895 4.1601 0
M  V30 8804 N 821.824 -1.22873 0.986916 0
M  V30 8805 C 823.101 -1.86939 0.575589 0
M  V30 8806 C 823.481 -1.88656 -0.947205 0
M  V30 8807 O 822.829 -1.3728 -1.82665 0
M  V30 8808 C 823.039 -3.28117 1.18914 0
M  V30 8809 C 824.387 -4.04659 1.28593 0
M  V30 8810 O 825.411 -3.3736 1.14308 0
M  V30 8811 O 824.27 -5.25112 1.51391 0
M  V30 8812 H 821.364 -0.803748 0.194724 0
M  V30 8813 H 823.91 -1.30698 1.08241 0
M  V30 8814 H 822.682 -3.21468 2.231 0
M  V30 8815 H 822.305 -3.91956 0.667535 0
M  V30 8816 N 823.302 -0.75937 -1.38099 0
M  V30 8817 C 824.548 -0.318584 -2.00282 0
M  V30 8818 C 824.881 1.09854 -1.60143 0
M  V30 8819 O 824.156 1.75344 -0.841702 0
M  V30 8820 C 824.439 -0.448047 -3.57302 0
M  V30 8821 C 824.292 -1.9067 -4.07388 0
M  V30 8822 C 825.611 0.155119 -4.39827 0
M  V30 8823 H 822.73 -0.117233 -0.727616 0
M  V30 8824 H 825.372 -0.960097 -1.63958 0
M  V30 8825 H 823.522 0.0981003 -3.88376 0
M  V30 8826 H 825.194 -2.5116 -3.86932 0
M  V30 8827 H 823.437 -2.41979 -3.6004 0
M  V30 8828 H 824.108 -1.94841 -5.1647 0
M  V30 8829 H 826.584 -0.31073 -4.14938 0
M  V30 8830 H 825.46 0.0343264 -5.48889 0
M  V30 8831 H 825.721 1.24407 -4.24235 0
M  V30 8832 N 824.78 1.49157 -0.508906 0
M  V30 8833 C 825.73 2.26215 0.284705 0
M  V30 8834 C 826.714 1.31401 0.928586 0
M  V30 8835 O 827.906 1.56073 0.834877 0
M  V30 8836 C 825.035 3.15906 1.34382 0
M  V30 8837 C 824.121 4.18186 0.705785 0
M  V30 8838 N 824.512 5.05419 -0.196214 0
M  V30 8839 C 822.81 4.35425 0.965457 0
M  V30 8840 C 823.511 5.78977 -0.562222 0
M  V30 8841 N 822.487 5.43553 0.0717389 0
M  V30 8842 H 826.289 2.91033 -0.409543 0
M  V30 8843 H 823.803 1.59104 -0.325508 0
M  V30 8844 H 825.8 3.6975 1.92589 0
M  V30 8845 H 824.46 2.52642 2.03966 0
M  V30 8846 H 825.471 5.14781 -0.567526 0
M  V30 8847 H 822.148 3.83363 1.65346 0
M  V30 8848 H 823.538 6.59192 -1.30062 0
M  V30 8849 N 826.258 0.243083 1.55714 0
M  V30 8850 C 827.483 -0.389944 2.03701 0
M  V30 8851 C 827.908 -1.51025 1.12129 0
M  V30 8852 O 827.266 -1.80944 0.11352 0
M  V30 8853 C 827.314 -0.878649 3.49731 0
M  V30 8854 O 826.418 -1.98851 3.61292 0
M  V30 8855 H 825.759 -0.0855115 0.658471 0
M  V30 8856 H 828.289 0.368023 2.01263 0
M  V30 8857 H 828.299 -1.18287 3.90477 0
M  V30 8858 H 826.974 -0.0588107 4.15858 0
M  V30 8859 H 825.551 -1.68928 3.32442 0
M  V30 8860 N 827.736 -1.57571 -0.0300757 0
M  V30 8861 C 828.666 -2.0953 -1.03051 0
M  V30 8862 C 829.647 -0.99761 -1.37774 0
M  V30 8863 O 830.832 -1.27279 -1.46676 0
M  V30 8864 C 827.962 -2.57385 -2.33174 0
M  V30 8865 C 826.916 -3.71409 -2.12696 0
M  V30 8866 C 826.242 -4.05467 -3.4857 0
M  V30 8867 C 827.542 -4.99877 -1.51396 0
M  V30 8868 H 829.236 -2.93367 -0.597999 0
M  V30 8869 H 826.782 -1.41127 -0.286203 0
M  V30 8870 H 828.735 -2.92355 -3.03491 0
M  V30 8871 H 827.459 -1.70629 -2.78484 0
M  V30 8872 H 826.118 -3.36786 -1.44813 0
M  V30 8873 H 825.766 -3.15779 -3.91526 0
M  V30 8874 H 825.466 -4.82269 -3.35694 0
M  V30 8875 H 826.99 -4.4297 -4.2025 0
M  V30 8876 H 828.404 -5.3281 -2.11629 0
M  V30 8877 H 826.801 -5.81283 -1.49098 0
M  V30 8878 H 827.871 -4.82522 -0.479676 0
M  V30 8879 N 829.214 0.302327 -1.54673 0
M  V30 8880 C 830.444 1.05516 -1.77623 0
M  V30 8881 C 830.852 1.81474 -0.535159 0
M  V30 8882 O 830.195 1.76635 0.504543 0
M  V30 8883 C 830.257 2.08305 -2.93001 0
M  V30 8884 C 829.921 1.51554 -4.31139 0
M  V30 8885 C 830.918 0.946261 -5.11216 0
M  V30 8886 C 828.603 1.55157 -4.77736 0
M  V30 8887 C 830.597 0.420559 -6.36011 0
M  V30 8888 C 828.284 1.022 -6.02494 0
M  V30 8889 C 829.282 0.457461 -6.81466 0
M  V30 8890 O 828.97 -0.064083 -8.03874 0
M  V30 8891 H 828.702 0.318756 -0.59613 0
M  V30 8892 H 831.256 0.347558 -2.02438 0
M  V30 8893 H 829.486 2.82742 -2.63807 0
M  V30 8894 H 831.175 2.69479 -3.03539 0
M  V30 8895 H 831.941 0.911338 -4.76361 0
M  V30 8896 H 827.82 1.98037 -4.16296 0
M  V30 8897 H 831.364 -0.0207298 -6.97597 0
M  V30 8898 H 827.261 1.05406 -6.36836 0
M  V30 8899 H 828.029 0.0493422 -8.18485 0
M  V30 8900 N 830.692 1.47107 0.565454 0
M  V30 8901 C 831.94 1.53005 1.32038 0
M  V30 8902 C 832.261 0.190453 1.94068 0
M  V30 8903 O 831.531 -0.784783 1.79494 0
M  V30 8904 H 830.111 0.563578 0.490294 0
M  V30 8905 H 832.773 1.83351 0.660928 0
M  V30 8906 H 831.869 2.29215 2.11818 0
M  V30 8907 N 832.17 -0.811516 1.35101 0
M  V30 8908 C 833.4 -1.59749 1.31011 0
M  V30 8909 C 833.808 -1.88847 -0.115566 0
M  V30 8910 O 833.151 -1.48854 -1.07649 0
M  V30 8911 C 833.213 -2.95714 2.04435 0
M  V30 8912 C 832.877 -2.89456 3.53645 0
M  V30 8913 C 833.874 -2.63237 4.48333 0
M  V30 8914 C 831.559 -3.08728 3.96222 0
M  V30 8915 C 833.553 -2.56361 5.83573 0
M  V30 8916 C 831.24 -3.01475 5.3156 0
M  V30 8917 C 832.238 -2.75326 6.25048 0
M  V30 8918 O 831.926 -2.68026 7.57903 0
M  V30 8919 H 831.658 -0.502889 0.45175 0
M  V30 8920 H 834.212 -1.01687 1.78462 0
M  V30 8921 H 832.442 -3.55739 1.51613 0
M  V30 8922 H 834.131 -3.56816 1.93487 0
M  V30 8923 H 834.897 -2.48072 4.16756 0
M  V30 8924 H 830.776 -3.28094 3.23845 0
M  V30 8925 H 834.32 -2.35871 6.56514 0
M  V30 8926 H 830.217 -3.16197 5.62752 0
M  V30 8927 H 830.985 -2.8367 7.67772 0
M  V30 8928 N 833.648 -1.19017 -1.03309 0
M  V30 8929 C 834.873 -1.01598 -1.80811 0
M  V30 8930 C 835.298 0.430773 -1.83101 0
M  V30 8931 O 834.656 1.30946 -1.25391 0
M  V30 8932 C 834.704 -1.5845 -3.23923 0
M  V30 8933 O 833.808 -0.810972 -4.04348 0
M  V30 8934 H 833.149 -0.359398 -0.558327 0
M  V30 8935 H 835.679 -1.57945 -1.30055 0
M  V30 8936 H 835.689 -1.61486 -3.74682 0
M  V30 8937 H 834.364 -2.63752 -3.21571 0
M  V30 8938 H 832.941 -0.85353 -3.63 0
M  V30 8939 N 835.127 1.22348 -0.993418 0
M  V30 8940 C 836.06 2.22898 -0.489073 0
M  V30 8941 C 837.038 1.56222 0.450927 0
M  V30 8942 O 838.222 1.84705 0.376351 0
M  V30 8943 C 835.349 3.37448 0.290946 0
M  V30 8944 C 834.395 4.22328 -0.595123 0
M  V30 8945 S 835.228 4.94677 -2.05072 0
M  V30 8946 C 836.384 6.12667 -1.28021 0
M  V30 8947 H 836.617 2.65333 -1.34111 0
M  V30 8948 H 834.15 1.32032 -0.800429 0
M  V30 8949 H 836.108 4.03867 0.734944 0
M  V30 8950 H 834.769 2.93519 1.11826 0
M  V30 8951 H 833.962 5.04 0.00507413 0
M  V30 8952 H 833.564 3.61043 -0.975906 0
M  V30 8953 H 835.856 6.75279 -0.548129 0
M  V30 8954 H 836.799 6.771 -2.07223 0
M  V30 8955 H 837.207 5.58898 -0.793272 0
M  V30 8956 N 836.605 0.766683 1.37694 0
M  V30 8957 C 837.568 0.155849 2.2867 0
M  V30 8958 C 838.568 -0.633509 1.47795 0
M  V30 8959 O 839.758 -0.457844 1.68076 0
M  V30 8960 C 836.89 -0.786965 3.31692 0
M  V30 8961 H 838.083 0.957748 2.84196 0
M  V30 8962 H 835.636 0.534554 1.46875 0
M  V30 8963 H 836.371 -1.61406 2.8128 0
M  V30 8964 H 836.156 -0.223182 3.91464 0
M  V30 8965 H 837.646 -1.20994 3.99688 0
M  V30 8966 N 838.083 -1.48885 0.516809 0
M  V30 8967 C 839.332 -2.01686 -0.0239899 0
M  V30 8968 C 839.645 -1.40029 -1.3657 0
M  V30 8969 O 840.851 -1.84249 -1.9941 0
M  V30 8970 C 839.307 -3.59779 -0.0931825 0
M  V30 8971 C 838.915 -4.30416 1.24283 0
M  V30 8972 C 840.659 -4.20471 -0.583507 0
M  V30 8973 C 838.566 -5.80408 1.13494 0
M  V30 8974 H 837.496 -0.753892 -0.0127376 0
M  V30 8975 H 840.147 -1.71273 0.65861 0
M  V30 8976 H 838.529 -3.86976 -0.840577 0
M  V30 8977 H 839.703 -4.14905 2.00476 0
M  V30 8978 H 838.018 -3.81539 1.66785 0
M  V30 8979 H 840.615 -5.30333 -0.681987 0
M  V30 8980 H 840.958 -3.84898 -1.58617 0
M  V30 8981 H 841.491 -3.97654 0.107814 0
M  V30 8982 H 838.23 -6.20532 2.11235 0
M  V30 8983 H 837.75 -5.98368 0.414167 0
M  V30 8984 H 839.429 -6.41781 0.820162 0
M  V30 8985 N 839.561 -0.251338 -1.55583 0
M  V30 8986 C 840.524 0.63305 -2.20284 0
M  V30 8987 C 841.524 1.09941 -1.17344 0
M  V30 8988 O 842.714 1.00341 -1.42399 0
M  V30 8989 C 839.846 1.8706 -2.84993 0
M  V30 8990 H 841.039 0.0684846 -2.99822 0
M  V30 8991 H 838.592 -0.00181653 -1.563 0
M  V30 8992 H 839.327 2.47629 -2.09405 0
M  V30 8993 H 839.112 1.54436 -3.60405 0
M  V30 8994 H 840.602 2.50004 -3.34496 0
M  V30 8995 N 841.039 1.57585 0.0217189 0
M  V30 8996 C 842.267 1.93871 0.722619 0
M  V30 8997 C 842.682 0.851706 1.68498 0
M  V30 8998 O 842.039 -0.17127 1.81695 0
M  V30 8999 C 842.09 3.30114 1.47333 0
M  V30 9000 O 841.811 4.34639 0.549597 0
M  V30 9001 C 843.312 3.80727 2.27072 0
M  V30 9002 H 840.532 0.639671 0.202637 0
M  V30 9003 H 843.076 2.04487 -0.0229414 0
M  V30 9004 H 841.231 3.20872 2.17071 0
M  V30 9005 H 841.645 5.13326 1.07686 0
M  V30 9006 H 843.119 4.78547 2.75131 0
M  V30 9007 H 843.596 3.12301 3.08812 0
M  V30 9008 H 844.202 3.93075 1.62395 0
M  V30 9009 N 842.517 -0.29412 1.54831 0
M  V30 9010 C 843.427 -1.3854 1.89325 0
M  V30 9011 C 844.443 -1.55127 0.788133 0
M  V30 9012 O 845.619 -1.6966 1.08524 0
M  V30 9013 C 842.684 -2.72809 2.13954 0
M  V30 9014 C 841.745 -2.65148 3.37631 0
M  V30 9015 C 840.978 -3.93014 3.61076 0
M  V30 9016 O 841.201 -4.927 2.87406 0
M  V30 9017 O 840.135 -3.94491 4.54599 0
M  V30 9018 H 843.961 -1.12289 2.82179 0
M  V30 9019 H 841.546 -0.490793 1.41108 0
M  V30 9020 H 843.428 -3.52238 2.31315 0
M  V30 9021 H 842.103 -2.9889 1.24285 0
M  V30 9022 H 841.01 -1.84168 3.25627 0
M  V30 9023 H 842.343 -2.4402 4.27452 0
M  V30 9024 N 843.995 -1.47404 -0.557645 0
M  V30 9025 C 844.927 -1.55917 -1.67995 0
M  V30 9026 C 845.94 -0.445411 -1.56588 0
M  V30 9027 O 847.129 -0.714999 -1.63554 0
M  V30 9028 C 844.229 -1.44697 -3.06457 0
M  V30 9029 C 843.402 -2.70633 -3.43622 0
M  V30 9030 C 842.461 -2.53256 -4.61246 0
M  V30 9031 O 841.487 -3.27068 -4.65849 0
M  V30 9032 N 842.689 -1.61053 -5.57711 0
M  V30 9033 H 845.454 -2.52694 -1.61139 0
M  V30 9034 H 843.015 -1.43778 -0.744271 0
M  V30 9035 H 845.007 -1.30806 -3.82978 0
M  V30 9036 H 843.577 -0.560039 -3.07542 0
M  V30 9037 H 842.797 -2.99288 -2.56555 0
M  V30 9038 H 844.085 -3.5424 -3.65228 0
M  V30 9039 H 843.483 -1.00235 -5.56749 0
M  V30 9040 H 842.04 -1.53115 -6.33561 0
M  V30 9041 N 845.473 0.80434 -1.35529 0
M  V30 9042 C 846.436 1.89788 -1.28503 0
M  V30 9043 C 847.436 1.59601 -0.195983 0
M  V30 9044 O 848.626 1.68292 -0.449827 0
M  V30 9045 C 845.758 3.26255 -0.98847 0
M  V30 9046 H 846.951 1.97436 -2.25741 0
M  V30 9047 H 844.504 1.00046 -1.20086 0
M  V30 9048 H 845.239 3.24294 -0.0200541 0
M  V30 9049 H 845.024 3.49551 -1.77641 0
M  V30 9050 H 846.514 4.06298 -0.964975 0
M  V30 9051 N 846.951 1.19563 1.02676 0
M  V30 9052 C 848.197 1.00105 1.76371 0
M  V30 9053 C 848.53 -0.466823 1.88506 0
M  V30 9054 O 847.805 -1.34665 1.40341 0
M  V30 9055 C 848.088 1.67321 3.18866 0
M  V30 9056 C 847.941 3.21486 3.1459 0
M  V30 9057 C 849.26 1.39794 4.17308 0
M  V30 9058 H 846.379 0.365075 0.640226 0
M  V30 9059 H 849.021 1.47433 1.19848 0
M  V30 9060 H 847.171 1.27081 3.67128 0
M  V30 9061 H 848.843 3.70953 2.7421 0
M  V30 9062 H 847.086 3.5292 2.52249 0
M  V30 9063 H 847.757 3.63665 4.15273 0
M  V30 9064 H 850.233 1.74685 3.77657 0
M  V30 9065 H 849.109 1.89371 5.15199 0
M  V30 9066 H 849.37 0.323505 4.40915 0
M  V30 9067 N 848.429 -1.21819 0.999893 0
M  V30 9068 C 849.361 -2.23356 0.514256 0
M  V30 9069 C 850.374 -1.5795 -0.394413 0
M  V30 9070 O 851.563 -1.77427 -0.195428 0
M  V30 9071 C 848.663 -3.37797 -0.273207 0
M  V30 9072 C 847.836 -4.32791 0.633293 0
M  V30 9073 C 846.895 -5.26098 -0.103673 0
M  V30 9074 O 845.921 -5.66881 0.513269 0
M  V30 9075 N 847.123 -5.63764 -1.38383 0
M  V30 9076 H 849.888 -2.65653 1.3874 0
M  V30 9077 H 847.449 -1.3619 0.875431 0
M  V30 9078 H 849.441 -3.97209 -0.775053 0
M  V30 9079 H 848.011 -2.94527 -1.0475 0
M  V30 9080 H 847.231 -3.71595 1.31571 0
M  V30 9081 H 848.519 -4.93196 1.25039 0
M  V30 9082 H 847.917 -5.32614 -1.90627 0
M  V30 9083 H 846.474 -6.25562 -1.83073 0
M  V30 9084 N 849.908 -0.773975 -1.37286 0
M  V30 9085 C 850.855 -0.159938 -2.30245 0
M  V30 9086 C 851.825 0.687356 -1.51211 0
M  V30 9087 O 853.01 0.639255 -1.79773 0
M  V30 9088 C 850.15 0.711452 -3.37687 0
M  V30 9089 C 849.263 -0.152692 -4.3173 0
M  V30 9090 C 848.398 0.723613 -5.26248 0
M  V30 9091 C 847.437 -0.14293 -6.11933 0
M  V30 9092 N 846.574 0.691479 -6.98687 0
M  V30 9093 H 851.414 -0.958182 -2.82175 0
M  V30 9094 H 848.951 -0.48411 -1.38906 0
M  V30 9095 H 850.909 1.2315 -3.9861 0
M  V30 9096 H 849.539 1.47528 -2.87116 0
M  V30 9097 H 848.591 -0.790574 -3.72094 0
M  V30 9098 H 849.903 -0.821027 -4.91997 0
M  V30 9099 H 849.057 1.31006 -5.92387 0
M  V30 9100 H 847.796 1.42562 -4.66398 0
M  V30 9101 H 846.801 -0.7419 -5.44771 0
M  V30 9102 H 848.026 -0.842305 -6.73856 0
M  V30 9103 H 845.972 1.37806 -6.41362 0
M  V30 9104 H 845.889 0.0804911 -7.55957 0
M  V30 9105 H 847.157 1.26225 -7.69212 0
M  V30 9106 N 851.386 1.48609 -0.524698 0
M  V30 9107 C 852.632 2.02797 0.0113382 0
M  V30 9108 C 852.965 1.40147 1.34433 0
M  V30 9109 O 852.24 0.545368 1.86698 0
M  V30 9110 C 852.523 3.59832 0.138931 0
M  V30 9111 C 852.376 4.32971 -1.21886 0
M  V30 9112 C 853.695 4.3145 0.868265 0
M  V30 9113 H 850.814 0.736995 0.00264645 0
M  V30 9114 H 853.456 1.77388 -0.680704 0
M  V30 9115 H 851.606 3.81612 0.72834 0
M  V30 9116 H 853.278 4.22624 -1.84897 0
M  V30 9117 H 851.521 3.94597 -1.80211 0
M  V30 9118 H 852.192 5.41279 -1.08263 0
M  V30 9119 H 854.668 4.14468 0.368145 0
M  V30 9120 H 853.544 5.41025 0.926428 0
M  V30 9121 H 853.805 3.98358 1.91737 0
M  V30 9122 N 852.864 0.259585 1.55447 0
M  V30 9123 C 854.111 -0.361607 1.99245 0
M  V30 9124 C 854.439 -1.57017 1.14787 0
M  V30 9125 O 853.694 -1.94658 0.201724 0
M  V30 9126 C 853.993 -0.802727 3.48269 0
M  V30 9127 C 853.659 0.299472 4.49904 0
M  V30 9128 C 852.321 0.602157 4.77418 0
M  V30 9129 C 854.673 1.04295 5.10658 0
M  V30 9130 C 852.001 1.65217 5.62957 0
M  V30 9131 C 854.353 2.08257 5.97337 0
M  V30 9132 C 853.017 2.39177 6.23178 0
M  V30 9133 H 852.287 -0.132322 0.72909 0
M  V30 9134 H 854.934 0.370059 1.8789 0
M  V30 9135 H 853.239 -1.61381 3.5702 0
M  V30 9136 H 854.936 -1.29385 3.79553 0
M  V30 9137 H 851.526 0.0534256 4.28567 0
M  V30 9138 H 855.71 0.822358 4.89439 0
M  V30 9139 H 850.966 1.89692 5.81229 0
M  V30 9140 H 855.14 2.6635 6.43452 0
M  V30 9141 H 852.767 3.20677 6.89253 0
M  V30 9142 N 854.342 -1.57594 -0.0133615 0
M  V30 9143 C 855.753 -1.78168 -0.557937 0
M  V30 9144 C 856.104 -0.892616 -1.74719 0
M  V30 9145 O 855.229 -0.0915491 -2.16206 0
M  V30 9146 C 855.824 -3.23115 -1.01894 0
M  V30 9147 C 854.383 -3.44831 -1.50892 0
M  V30 9148 C 853.53 -2.73558 -0.454044 0
M  V30 9149 H 856.481 -1.57266 0.212843 0
M  V30 9150 H 856.502 -3.30493 -1.8856 0
M  V30 9151 H 856.014 -3.87798 -0.153175 0
M  V30 9152 H 854.115 -2.85345 -2.39602 0
M  V30 9153 H 854.228 -4.53485 -1.54559 0
M  V30 9154 H 852.592 -2.37787 -0.912666 0
M  V30 9155 H 853.375 -3.40932 0.402524 0
M  V30 9156 N 855.82 0.285905 -1.54985 0
M  V30 9157 C 856.768 1.37302 -1.87752 0
M  V30 9158 C 857.762 1.51763 -0.752616 0
M  V30 9159 O 858.968 1.53701 -0.936805 0
M  V30 9160 H 855.343 0.458935 -0.59572 0
M  V30 9161 H 857.314 1.0691 -2.78591 0
M  V30 9162 C 856.063 2.72885 -2.15474 0
M  V30 9163 H 855.386 2.62545 -3.01513 0
M  V30 9164 H 856.826 3.47925 -2.42331 0
M  V30 9165 C 855.285 3.22989 -0.958124 0
M  V30 9166 O 855.815 4.01268 -0.186219 0
M  V30 9167 N 854.021 2.80503 -0.759354 0
M  V30 9168 H 853.568 2.16961 -1.38874 0
M  V30 9169 H 853.526 3.14375 0.0396937 0
M  V30 9170 N 857.298 1.47698 0.54982 0
M  V30 9171 C 858.245 1.60739 1.65625 0
M  V30 9172 C 859.215 0.450129 1.59884 0
M  V30 9173 O 860.4 0.671123 1.78607 0
M  V30 9174 C 857.54 1.63457 3.03934 0
M  V30 9175 C 856.653 2.90152 3.20056 0
M  V30 9176 C 855.788 2.84157 4.48807 0
M  V30 9177 C 854.827 4.05644 4.58387 0
M  V30 9178 N 853.964 3.97843 5.78503 0
M  V30 9179 H 858.804 2.55234 1.53817 0
M  V30 9180 H 856.341 1.26593 0.749173 0
M  V30 9181 H 858.299 1.63015 3.84034 0
M  V30 9182 H 856.929 0.724689 3.1456 0
M  V30 9183 H 855.981 3.00428 2.33339 0
M  V30 9184 H 857.293 3.80097 3.22998 0
M  V30 9185 H 856.447 2.82006 5.37175 0
M  V30 9186 H 855.186 1.91908 4.48356 0
M  V30 9187 H 854.191 4.08092 3.6843 0
M  V30 9188 H 855.416 4.9903 4.60593 0
M  V30 9189 H 853.362 3.08401 5.78986 0
M  V30 9190 H 853.279 4.81473 5.82855 0
M  V30 9191 H 854.547 3.99719 6.69212 0
M  V30 9192 N 858.776 -0.797141 1.35954 0
M  V30 9193 C 860.192 -1.09408 1.16198 0
M  V30 9194 C 860.392 -2.01491 -0.0191682 0
M  V30 9195 O 859.448 -2.42977 -0.686902 0
M  V30 9196 C 860.761 -1.71597 2.46931 0
M  V30 9197 C 862.309 -1.83974 2.53224 0
M  V30 9198 C 862.784 -2.49579 3.84024 0
M  V30 9199 N 864.275 -2.57055 3.85327 0
M  V30 9200 C 865.01 -3.08608 4.83268 0
M  V30 9201 N 864.506 -3.60527 5.91601 0
M  V30 9202 N 866.299 -3.07249 4.70696 0
M  V30 9203 H 858.45 -0.185209 2.11591 0
M  V30 9204 H 860.713 -0.144768 0.936881 0
M  V30 9205 H 860.419 -1.11404 3.3359 0
M  V30 9206 H 860.293 -2.71193 2.62172 0
M  V30 9207 H 862.68 -2.43308 1.66988 0
M  V30 9208 H 862.761 -0.83207 2.41889 0
M  V30 9209 H 862.405 -1.90892 4.70662 0
M  V30 9210 H 862.335 -3.50902 3.92651 0
M  V30 9211 H 864.826 -2.20283 3.07057 0
M  V30 9212 H 865.139 -3.98192 6.62317 0
M  V30 9213 H 863.484 -3.587 5.95281 0
M  V30 9214 H 866.675 -2.65972 3.85197 0
M  V30 9215 H 866.848 -3.47119 5.47186 0
M  V30 9216 N 860.254 -1.20106 -1.0204 0
M  V30 9217 C 861.479 -1.0351 -1.79723 0
M  V30 9218 C 861.904 0.411328 -1.83548 0
M  V30 9219 O 861.262 1.29608 -1.26773 0
M  V30 9220 C 861.31 -1.61876 -3.22224 0
M  V30 9221 O 860.414 -0.853813 -4.03465 0
M  V30 9222 H 859.755 -0.365299 -0.554484 0
M  V30 9223 H 862.285 -1.59316 -1.28373 0
M  V30 9224 H 862.295 -1.65451 -3.72948 0
M  V30 9225 H 860.97 -2.67148 -3.18755 0
M  V30 9226 H 859.547 -0.891983 -3.62075 0
M  V30 9227 N 861.732 1.21287 -1.00634 0
M  V30 9228 C 862.979 1.90389 -0.6898 0
M  V30 9229 C 863.307 1.78193 0.779574 0
M  V30 9230 O 862.562 1.15358 1.58085 0
M  V30 9231 C 862.861 3.41374 -1.05824 0
M  V30 9232 C 862.527 3.73766 -2.5221 0
M  V30 9233 C 861.189 3.82317 -2.92211 0
M  V30 9234 C 863.541 3.88871 -3.47028 0
M  V30 9235 C 860.869 4.03423 -4.2599 0
M  V30 9236 C 863.221 4.11484 -4.80483 0
M  V30 9237 C 861.885 4.18263 -5.20204 0
M  V30 9238 H 861.155 0.696683 -0.252416 0
M  V30 9239 H 863.802 1.43769 -1.26502 0
M  V30 9240 H 862.107 3.8974 -0.401281 0
M  V30 9241 H 863.804 3.93118 -0.79116 0
M  V30 9242 H 860.394 3.67702 -2.20212 0
M  V30 9243 H 864.578 3.8163 -3.17289 0
M  V30 9244 H 859.834 4.06902 -4.56334 0
M  V30 9245 H 864.008 4.22115 -5.53888 0
M  V30 9246 H 861.635 4.34369 -6.23881 0
M  V30 9247 N 863.21 0.781244 1.36873 0
M  V30 9248 C 864.459 0.34652 1.98701 0
M  V30 9249 C 864.772 -1.08555 1.62712 0
M  V30 9250 O 865.978 -1.62213 2.17713 0
M  V30 9251 C 864.434 0.568611 3.5538 0
M  V30 9252 C 864.042 2.01156 4.003 0
M  V30 9253 C 865.786 0.197983 4.24038 0
M  V30 9254 C 863.693 2.18074 5.49725 0
M  V30 9255 H 862.623 0.125821 0.743428 0
M  V30 9256 H 865.274 0.961721 1.56279 0
M  V30 9257 H 863.656 -0.116185 3.9583 0
M  V30 9258 H 864.83 2.73209 3.71071 0
M  V30 9259 H 863.145 2.33967 3.44454 0
M  V30 9260 H 865.742 0.302778 5.33842 0
M  V30 9261 H 866.085 -0.852927 4.07469 0
M  V30 9262 H 866.618 0.835696 3.88923 0
M  V30 9263 H 863.357 3.21519 5.71232 0
M  V30 9264 H 862.877 1.50517 5.80607 0
M  V30 9265 H 864.556 1.98393 6.15832 0
M  V30 9266 N 864.689 -1.48329 0.532571 0
M  V30 9267 C 865.619 -2.32485 -0.217511 0
M  V30 9268 C 866.6 -1.42255 -0.932598 0
M  V30 9269 O 867.785 -1.7114 -0.917873 0
M  V30 9270 C 864.915 -3.23509 -1.26329 0
M  V30 9271 C 863.869 -4.22784 -0.666191 0
M  V30 9272 C 863.195 -5.0296 -1.81482 0
M  V30 9273 C 864.495 -5.21031 0.363813 0
M  V30 9274 H 866.189 -2.95445 0.485014 0
M  V30 9275 H 863.735 -1.42075 0.234694 0
M  V30 9276 H 865.688 -3.81211 -1.79601 0
M  V30 9277 H 864.412 -2.58554 -1.99543 0
M  V30 9278 H 863.071 -3.66272 -0.15498 0
M  V30 9279 H 862.719 -4.34427 -2.5354 0
M  V30 9280 H 862.419 -5.70154 -1.4212 0
M  V30 9281 H 863.943 -5.63514 -2.35126 0
M  V30 9282 H 865.357 -5.73241 -0.0819079 0
M  V30 9283 H 863.754 -5.96292 0.674956 0
M  V30 9284 H 864.824 -4.6801 1.26865 0
M  V30 9285 N 866.167 -0.267825 -1.55308 0
M  V30 9286 C 867.395 0.354587 -2.03839 0
M  V30 9287 C 867.81 1.50007 -1.14644 0
M  V30 9288 O 867.167 1.81752 -0.165055 0
M  V30 9289 C 867.218 0.84254 -3.51544 0
M  V30 9290 O 866.939 -0.257318 -4.37344 0
M  V30 9291 C 868.44 1.53351 -4.15931 0
M  V30 9292 H 865.66 0.0818131 -0.665994 0
M  V30 9293 H 868.204 -0.397795 -2.00594 0
M  V30 9294 H 866.359 1.54503 -3.55257 0
M  V30 9295 H 866.773 0.116593 -5.2437 0
M  V30 9296 H 868.247 1.82643 -5.20908 0
M  V30 9297 H 868.724 2.4626 -3.63666 0
M  V30 9298 H 869.33 0.87506 -4.162 0
M  V30 9299 N 867.645 1.57599 0.00500368 0
M  V30 9300 C 869.061 1.55463 0.361015 0
M  V30 9301 C 869.261 0.997051 1.75103 0
M  V30 9302 O 868.317 0.628661 2.44549 0
M  V30 9303 C 869.63 2.99734 0.240828 0
M  V30 9304 C 871.178 3.11399 0.316138 0
M  V30 9305 C 871.653 4.57446 0.22513 0
M  V30 9306 N 873.144 4.62334 0.283186 0
M  V30 9307 C 873.879 5.72914 0.23603 0
M  V30 9308 N 873.375 6.92659 0.139762 0
M  V30 9309 N 875.168 5.61364 0.287529 0
M  V30 9310 H 867.319 1.92185 -0.904359 0
M  V30 9311 H 869.582 0.882529 -0.34619 0
M  V30 9312 H 869.288 3.44348 -0.715343 0
M  V30 9313 H 869.162 3.63009 1.02491 0
M  V30 9314 H 871.549 2.66718 1.26275 0
M  V30 9315 H 871.63 2.50911 -0.497725 0
M  V30 9316 H 871.274 5.02801 -0.717917 0
M  V30 9317 H 871.204 5.15874 1.05742 0
M  V30 9318 H 873.695 3.7619 0.359123 0
M  V30 9319 H 874.008 7.72722 0.10954 0
M  V30 9320 H 872.353 6.9492 0.105462 0
M  V30 9321 H 875.544 4.66707 0.360897 0
M  V30 9322 H 875.717 6.47528 0.247313 0
M  V30 9323 N 869.123 -0.277682 1.55134 0
M  V30 9324 C 870.348 -1.03254 1.7987 0
M  V30 9325 C 870.773 -1.79324 0.567861 0
M  V30 9326 O 870.131 -1.74764 -0.4824 0
M  V30 9327 C 870.179 -1.9705 3.02 0
M  V30 9328 O 869.283 -3.05744 2.76757 0
M  V30 9329 H 868.624 -0.295447 0.594649 0
M  V30 9330 H 871.154 -0.308013 2.02268 0
M  V30 9331 H 871.164 -2.3909 3.30606 0
M  V30 9332 H 869.839 -1.41094 3.91236 0
M  V30 9333 H 868.416 -2.68052 2.59235 0
M  V30 9334 N 870.601 -1.47988 -0.541979 0
M  V30 9335 C 871.829 -1.59034 -1.32347 0
M  V30 9336 C 872.244 -0.246123 -1.87189 0
M  V30 9337 O 871.601 0.762889 -1.6579 0
M  V30 9338 C 871.652 -2.62759 -2.48274 0
M  V30 9339 O 871.373 -3.91963 -1.95695 0
M  V30 9340 C 872.874 -2.84133 -3.4027 0
M  V30 9341 H 870.094 -0.536574 -0.402901 0
M  V30 9342 H 872.638 -1.93725 -0.655045 0
M  V30 9343 H 870.793 -2.3096 -3.11025 0
M  V30 9344 H 871.207 -4.48769 -2.7149 0
M  V30 9345 H 872.681 -3.60538 -4.17991 0
M  V30 9346 H 873.158 -1.92512 -3.9476 0
M  V30 9347 H 873.764 -3.17188 -2.83322 0
M  V30 9348 N 872.079 0.78992 -1.36375 0
M  V30 9349 C 873.326 1.54777 -1.30576 0
M  V30 9350 C 873.654 1.94159 0.115095 0
M  V30 9351 O 872.909 1.62918 1.08426 0
M  V30 9352 C 873.208 2.83698 -2.17371 0
M  V30 9353 C 872.874 2.63457 -3.65925 0
M  V30 9354 C 871.536 2.57645 -4.06415 0
M  V30 9355 C 873.888 2.44833 -4.60115 0
M  V30 9356 C 871.216 2.31174 -5.39236 0
M  V30 9357 C 873.568 2.19889 -5.93154 0
M  V30 9358 C 872.232 2.1251 -6.32768 0
M  V30 9359 H 871.502 0.566371 -0.477813 0
M  V30 9360 H 874.149 0.91138 -1.68422 0
M  V30 9361 H 872.454 3.51802 -1.72459 0
M  V30 9362 H 874.151 3.41487 -2.10209 0
M  V30 9363 H 870.741 2.68836 -3.33804 0
M  V30 9364 H 874.925 2.48325 -4.29707 0
M  V30 9365 H 870.181 2.23942 -5.68911 0
M  V30 9366 H 874.355 2.04473 -6.65705 0
M  V30 9367 H 871.982 1.91761 -7.35616 0
M  V30 9368 N 873.557 1.20646 1.01402 0
M  V30 9369 C 874.52 0.959314 2.08158 0
M  V30 9370 C 875.52 -0.0661558 1.60664 0
M  V30 9371 O 876.71 0.170177 1.73367 0
M  V30 9372 C 873.842 0.444785 3.37986 0
M  V30 9373 H 875.035 1.90631 2.31517 0
M  V30 9374 H 872.588 1.02219 1.18241 0
M  V30 9375 H 873.323 -0.507553 3.20304 0
M  V30 9376 H 873.108 1.18435 3.73785 0
M  V30 9377 H 874.598 0.291443 4.16582 0
M  V30 9378 N 875.035 -1.20752 1.01276 0
M  V30 9379 C 876.283 -1.89645 0.698505 0
M  V30 9380 C 876.604 -1.78986 -0.773883 0
M  V30 9381 O 875.874 -1.18977 -1.55632 0
M  V30 9382 H 874.454 -0.701992 0.255375 0
M  V30 9383 H 877.116 -1.46668 1.28353 0
M  V30 9384 H 876.212 -2.96364 0.978512 0
M  V30 9385 N 876.513 -0.788492 -1.36457 0
M  V30 9386 C 877.738 -0.371224 -2.04051 0
M  V30 9387 C 878.163 1.004 -1.59064 0
M  V30 9388 O 877.521 1.64663 -0.758679 0
M  V30 9389 C 877.569 -0.442275 -3.57877 0
M  V30 9390 O 876.673 0.55113 -4.08701 0
M  V30 9391 H 876.014 -0.157808 -0.644975 0
M  V30 9392 H 878.544 -1.06935 -1.74431 0
M  V30 9393 H 878.554 -0.305548 -4.06854 0
M  V30 9394 H 877.229 -1.44547 -3.89973 0
M  V30 9395 H 875.806 0.37614 -3.70998 0
M  V30 9396 N 877.991 1.48044 -0.54043 0
M  V30 9397 C 879.239 2.02097 -0.0101367 0
M  V30 9398 C 879.56 1.41881 1.33771 0
M  V30 9399 O 878.83 0.587923 1.8687 0
M  V30 9400 H 877.41 0.747 -0.000758716 0
M  V30 9401 H 880.072 1.81639 -0.706634 0
M  V30 9402 H 879.168 3.11969 0.0904474 0
M  V30 9403 N 879.47 0.276058 1.55163 0
M  V30 9404 C 880.886 -0.0780579 1.59409 0
M  V30 9405 C 881.086 -1.54521 1.29327 0
M  V30 9406 O 880.142 -2.29422 1.05459 0
M  V30 9407 C 881.455 0.297422 2.99225 0
M  V30 9408 C 883.003 0.244117 3.12047 0
M  V30 9409 C 883.478 0.594051 4.54131 0
M  V30 9410 N 884.969 0.54564 4.59975 0
M  V30 9411 C 885.704 0.789192 5.67943 0
M  V30 9412 N 885.2 1.09741 6.84053 0
M  V30 9413 N 886.993 0.717926 5.57496 0
M  V30 9414 H 879.144 1.23251 1.72982 0
M  V30 9415 H 881.407 0.497988 0.806667 0
M  V30 9416 H 881.113 1.31782 3.26077 0
M  V30 9417 H 880.987 -0.361286 3.75466 0
M  V30 9418 H 883.374 -0.766992 2.84958 0
M  V30 9419 H 883.455 0.937097 2.38017 0
M  V30 9420 H 883.099 1.60285 4.81945 0
M  V30 9421 H 883.029 -0.120728 5.26462 0
M  V30 9422 H 885.52 0.317334 3.76565 0
M  V30 9423 H 885.833 1.26989 7.62295 0
M  V30 9424 H 884.178 1.13519 6.85666 0
M  V30 9425 H 887.369 0.47697 4.65664 0
M  V30 9426 H 887.542 0.911118 6.41563 0
M  V30 9427 N 880.948 -1.576 0.00335426 0
M  V30 9428 C 881.898 -2.05116 -0.995562 0
M  V30 9429 C 882.882 -0.946535 -1.30113 0
M  V30 9430 O 884.074 -1.21028 -1.29156 0
M  V30 9431 C 881.203 -2.56077 -2.28648 0
M  V30 9432 C 880.289 -3.73422 -2.0104 0
M  V30 9433 N 880.68 -4.84986 -1.43603 0
M  V30 9434 C 878.978 -3.81416 -2.31166 0
M  V30 9435 C 879.679 -5.66399 -1.32542 0
M  V30 9436 N 878.655 -5.12505 -1.81218 0
M  V30 9437 H 882.457 -2.88783 -0.546025 0
M  V30 9438 H 879.971 -1.61135 -0.202265 0
M  V30 9439 H 881.968 -2.88395 -3.01055 0
M  V30 9440 H 880.628 -1.73829 -2.74251 0
M  V30 9441 H 881.639 -5.05768 -1.11439 0
M  V30 9442 H 878.316 -3.1003 -2.7962 0
M  V30 9443 H 879.706 -6.66066 -0.88348 0
M  V30 9444 N 882.426 0.269451 -1.5528 0
M  V30 9445 C 883.389 1.31642 -1.87625 0
M  V30 9446 C 884.389 1.42182 -0.751058 0
M  V30 9447 O 885.579 1.41272 -1.01921 0
M  V30 9448 C 882.711 2.6973 -2.08467 0
M  V30 9449 H 883.904 1.0419 -2.81219 0
M  V30 9450 H 881.457 0.507685 -1.47825 0
M  V30 9451 H 882.192 3.02356 -1.17266 0
M  V30 9452 H 881.977 2.63465 -2.90394 0
M  V30 9453 H 883.467 3.4537 -2.34753 0
M  V30 9454 N 883.904 1.48273 0.534124 0
M  V30 9455 C 884.867 1.6201 1.62127 0
M  V30 9456 C 885.867 0.493653 1.53035 0
M  V30 9457 O 887.057 0.759337 1.56779 0
M  V30 9458 C 884.189 1.5864 3.01739 0
M  V30 9459 H 885.382 2.58944 1.51288 0
M  V30 9460 H 882.935 1.36808 0.755861 0
M  V30 9461 H 883.67 0.631685 3.18088 0
M  V30 9462 H 883.455 2.40415 3.09747 0
M  V30 9463 H 884.945 1.71438 3.80787 0
M  V30 9464 N 885.382 -0.782676 1.36792 0
M  V30 9465 C 886.332 -1.8855 1.28191 0
M  V30 9466 C 887.316 -1.59978 0.171984 0
M  V30 9467 O 888.508 -1.72295 0.405405 0
M  V30 9468 C 885.637 -3.25862 1.08021 0
M  V30 9469 C 884.723 -3.60422 2.2351 0
M  V30 9470 N 885.114 -3.66241 3.48857 0
M  V30 9471 C 883.412 -3.90523 2.15424 0
M  V30 9472 C 884.113 -3.97233 4.24948 0
M  V30 9473 N 883.089 -4.12567 3.53963 0
M  V30 9474 H 886.891 -1.91285 2.23131 0
M  V30 9475 H 884.405 -0.978554 1.29607 0
M  V30 9476 H 886.402 -4.04742 0.999458 0
M  V30 9477 H 885.062 -3.24399 0.139882 0
M  V30 9478 H 886.073 -3.48717 3.82906 0
M  V30 9479 H 882.75 -3.96945 1.29386 0
M  V30 9480 H 884.14 -4.08602 5.33379 0
M  V30 9481 N 886.86 -1.21182 -1.00761 0
M  V30 9482 C 888.106 -1.03903 -1.74859 0
M  V30 9483 C 888.461 0.423347 -1.87685 0
M  V30 9484 O 887.754 1.31001 -1.39819 0
M  V30 9485 C 887.948 -1.6667 -3.16158 0
M  V30 9486 C 887.777 -3.1886 -3.1711 0
M  V30 9487 C 886.547 -3.87888 -3.23838 0
M  V30 9488 C 888.745 -4.15978 -3.02434 0
M  V30 9489 N 886.727 -5.27289 -3.14388 0
M  V30 9490 C 888.098 -5.42114 -3.00854 0
M  V30 9491 C 890.153 -4.0706 -2.86717 0
M  V30 9492 C 888.856 -6.60358 -2.85166 0
M  V30 9493 C 890.882 -5.24938 -2.72386 0
M  V30 9494 C 890.244 -6.49983 -2.71479 0
M  V30 9495 H 886.343 -0.434522 -0.650165 0
M  V30 9496 H 888.927 -1.53495 -1.1978 0
M  V30 9497 H 887.098 -1.19649 -3.69511 0
M  V30 9498 H 888.83 -1.42622 -3.78736 0
M  V30 9499 H 885.585 -3.38798 -3.30927 0
M  V30 9500 H 886.009 -6.00293 -3.13013 0
M  V30 9501 H 890.651 -3.11183 -2.86226 0
M  V30 9502 H 888.369 -7.56399 -2.84405 0
M  V30 9503 H 891.955 -5.19857 -2.61228 0
M  V30 9504 H 890.835 -7.39662 -2.6052 0
M  V30 9505 N 888.338 1.20213 -1.01915 0
M  V30 9506 C 889.268 2.25336 -0.612023 0
M  V30 9507 C 890.249 1.65933 0.374186 0
M  V30 9508 O 891.434 1.92464 0.259053 0
M  V30 9509 C 888.564 3.47267 0.047904 0
M  V30 9510 C 887.518 4.1928 -0.859557 0
M  V30 9511 C 886.844 5.3466 -0.0652655 0
M  V30 9512 C 888.144 4.75143 -2.1688 0
M  V30 9513 H 889.838 2.59645 -1.49079 0
M  V30 9514 H 887.384 1.24808 -0.718263 0
M  V30 9515 H 889.337 4.19991 0.344294 0
M  V30 9516 H 888.061 3.12129 0.961404 0
M  V30 9517 H 886.72 3.48425 -1.13999 0
M  V30 9518 H 886.368 4.95767 0.849964 0
M  V30 9519 H 886.068 5.83772 -0.669618 0
M  V30 9520 H 887.592 6.10187 0.224612 0
M  V30 9521 H 889.006 5.39672 -1.9346 0
M  V30 9522 H 887.403 5.34702 -2.72422 0
M  V30 9523 H 888.473 3.93744 -2.83008 0
M  V30 9524 N 889.816 0.795718 1.36037 0
M  V30 9525 C 891.064 0.370291 1.98679 0
M  V30 9526 C 891.385 -1.06332 1.63458 0
M  V30 9527 O 890.655 -1.73394 0.911671 0
M  V30 9528 H 889.235 0.133928 0.734896 0
M  V30 9529 H 891.897 1.01915 1.6613 0
M  V30 9530 H 890.993 0.467207 3.08583 0
M  V30 9531 N 891.294 -1.47756 0.548274 0
M  V30 9532 C 892.571 -1.9555 -0.0443603 0
M  V30 9533 C 892.951 -1.49079 -1.49462 0
M  V30 9534 O 892.299 -0.725538 -2.16675 0
M  V30 9535 C 892.509 -3.48879 0.0918425 0
M  V30 9536 C 893.857 -4.2456 -0.0580879 0
M  V30 9537 O 894.881 -3.56195 0.018946 0
M  V30 9538 O 893.74 -5.46048 -0.222261 0
M  V30 9539 H 890.834 -0.824106 -0.0691235 0
M  V30 9540 H 893.38 -1.58196 0.614166 0
M  V30 9541 H 892.152 -3.7548 1.10137 0
M  V30 9542 H 891.775 -3.92975 -0.604704 0
M  V30 9543 N 892.772 -0.284283 -1.55015 0
M  V30 9544 C 893.72 0.615091 -2.2432 0
M  V30 9545 C 894.714 1.15051 -1.24337 0
M  V30 9546 O 895.92 1.10308 -1.4224 0
M  V30 9547 H 892.295 0.216927 -0.720033 0
M  V30 9548 H 894.266 0.00783216 -2.98399 0
M  V30 9549 C 893.015 1.78355 -2.98471 0
M  V30 9550 H 892.338 1.38076 -3.752 0
M  V30 9551 H 893.778 2.38927 -3.50271 0
M  V30 9552 C 892.237 2.67757 -2.04469 0
M  V30 9553 O 892.767 3.6838 -1.60185 0
M  V30 9554 N 890.973 2.35125 -1.70776 0
M  V30 9555 H 890.52 1.53346 -2.06985 0
M  V30 9556 H 890.478 2.95212 -1.08153 0
M  V30 9557 N 894.251 1.57596 -0.0117121 0
M  V30 9558 C 895.479 1.9536 0.681334 0
M  V30 9559 C 895.894 0.887255 1.66653 0
M  V30 9560 O 895.251 -0.132692 1.82017 0
M  V30 9561 C 895.302 3.33165 1.40298 0
M  V30 9562 O 895.023 4.35707 0.45728 0
M  V30 9563 C 896.524 3.85458 2.18946 0
M  V30 9564 H 893.744 0.643826 0.189023 0
M  V30 9565 H 896.288 2.04392 -0.066311 0
M  V30 9566 H 894.443 3.25404 2.10216 0
M  V30 9567 H 894.857 5.15495 0.96773 0
M  V30 9568 H 896.331 4.84275 2.64918 0
M  V30 9569 H 896.808 3.18781 3.02118 0
M  V30 9570 H 897.414 3.96431 1.5402 0
M  V30 9571 N 895.729 -0.261212 1.5542 0
M  V30 9572 C 896.692 -1.30645 1.8832 0
M  V30 9573 C 897.692 -1.41782 0.758588 0
M  V30 9574 O 898.882 -1.40729 1.02669 0
M  V30 9575 C 896.014 -2.6862 2.09895 0
M  V30 9576 H 897.207 -1.02698 2.81768 0
M  V30 9577 H 894.76 -0.499838 1.48092 0
M  V30 9578 H 895.495 -3.0173 1.18868 0
M  V30 9579 H 895.28 -2.61921 2.91787 0
M  V30 9580 H 896.77 -3.44121 2.36581 0
M  V30 9581 N 897.207 -1.48554 -0.526253 0
M  V30 9582 C 898.432 -1.60686 -1.31129 0
M  V30 9583 C 898.857 -0.268701 -1.86171 0
M  V30 9584 O 898.215 0.760167 -1.64594 0
M  V30 9585 C 898.263 -2.65938 -2.43536 0
M  V30 9586 O 897.367 -2.23356 -3.46678 0
M  V30 9587 H 896.708 -0.538691 -0.388211 0
M  V30 9588 H 899.238 -1.94567 -0.632826 0
M  V30 9589 H 899.248 -2.87327 -2.89668 0
M  V30 9590 H 897.923 -3.63085 -2.02835 0
M  V30 9591 H 896.5 -2.12196 -3.06639 0
M  V30 9592 N 898.685 0.775411 -1.37205 0
M  V30 9593 C 899.931 1.53533 -1.33414 0
M  V30 9594 C 900.286 1.92225 0.0819435 0
M  V30 9595 O 899.579 1.60935 1.03974 0
M  V30 9596 C 899.773 2.81377 -2.20367 0
M  V30 9597 C 899.602 2.5518 -3.70288 0
M  V30 9598 C 898.372 2.49493 -4.3941 0
M  V30 9599 C 900.57 2.23425 -4.63234 0
M  V30 9600 N 898.552 2.15341 -5.74892 0
M  V30 9601 C 899.923 1.99381 -5.87067 0
M  V30 9602 C 901.978 2.09549 -4.51657 0
M  V30 9603 C 900.681 1.62863 -7.0062 0
M  V30 9604 C 902.707 1.74431 -5.65091 0
M  V30 9605 C 902.069 1.51245 -6.87971 0
M  V30 9606 H 898.168 0.562278 -0.543477 0
M  V30 9607 H 900.752 0.90495 -1.72391 0
M  V30 9608 H 898.923 3.42259 -1.83612 0
M  V30 9609 H 900.655 3.4724 -2.07861 0
M  V30 9610 H 897.41 2.65221 -3.9237 0
M  V30 9611 H 897.834 2.00972 -6.46482 0
M  V30 9612 H 902.476 2.26159 -3.57228 0
M  V30 9613 H 900.194 1.44991 -7.94986 0
M  V30 9614 H 903.78 1.64359 -5.58102 0
M  V30 9615 H 902.66 1.24472 -7.74259 0
M  V30 9616 N 900.163 1.21714 1.00117 0
M  V30 9617 C 901.073 0.99597 2.12409 0
M  V30 9618 C 902.089 -0.0531431 1.73919 0
M  V30 9619 O 903.265 0.137757 2.00928 0
M  V30 9620 C 900.33 0.567593 3.42022 0
M  V30 9621 C 899.391 1.68936 3.94663 0
M  V30 9622 C 898.624 1.28133 5.1809 0
M  V30 9623 O 898.847 0.156574 5.70185 0
M  V30 9624 O 897.781 2.0947 5.64275 0
M  V30 9625 H 901.607 1.93657 2.33946 0
M  V30 9626 H 899.192 1.00236 1.10784 0
M  V30 9627 H 901.074 0.338664 4.20037 0
M  V30 9628 H 899.749 -0.34424 3.21864 0
M  V30 9629 H 898.656 1.97274 3.17858 0
M  V30 9630 H 899.989 2.57876 4.19238 0
M  V30 9631 N 901.641 -1.19671 1.02551 0
M  V30 9632 C 902.573 -2.22215 0.561517 0
M  V30 9633 C 903.586 -1.58751 -0.360821 0
M  V30 9634 O 904.775 -1.77802 -0.157749 0
M  V30 9635 C 901.875 -3.383 -0.201494 0
M  V30 9636 C 901.048 -4.3135 0.724952 0
M  V30 9637 C 900.107 -5.26199 0.00794334 0
M  V30 9638 O 899.133 -5.65665 0.633398 0
M  V30 9639 N 900.335 -5.66573 -1.26394 0
M  V30 9640 H 903.1 -2.6265 1.44343 0
M  V30 9641 H 900.661 -1.34303 0.904122 0
M  V30 9642 H 902.653 -3.98764 -0.690625 0
M  V30 9643 H 901.223 -2.96683 -0.98479 0
M  V30 9644 H 900.443 -3.6872 1.39423 0
M  V30 9645 H 901.731 -4.90433 1.35472 0
M  V30 9646 H 901.129 -5.36538 -1.79287 0
M  V30 9647 H 899.686 -6.29304 -1.69763 0
M  V30 9648 N 903.119 -0.802921 -1.35613 0
M  V30 9649 C 904.052 -0.156345 -2.27664 0
M  V30 9650 C 905.03 0.675517 -1.47904 0
M  V30 9651 O 906.214 0.643589 -1.77173 0
M  V30 9652 C 903.341 0.78348 -3.29514 0
M  V30 9653 C 902.387 0.0317062 -4.26488 0
M  V30 9654 S 903.22 -1.30183 -5.19435 0
M  V30 9655 C 904.376 -0.366354 -6.24827 0
M  V30 9656 H 904.609 -0.936803 -2.82155 0
M  V30 9657 H 902.142 -0.597799 -1.42358 0
M  V30 9658 H 904.1 1.32023 -3.8869 0
M  V30 9659 H 902.761 1.53729 -2.73909 0
M  V30 9660 H 901.954 0.745364 -4.98458 0
M  V30 9661 H 901.556 -0.43497 -3.71462 0
M  V30 9662 H 903.848 0.44976 -6.76005 0
M  V30 9663 H 904.791 -1.05513 -7.00195 0
M  V30 9664 H 905.199 0.0363203 -5.64488 0
M  V30 9665 N 904.597 1.47463 -0.556102 0
M  V30 9666 C 905.507 2.33785 0.195378 0
M  V30 9667 C 906.523 1.48123 0.913 0
M  V30 9668 O 907.699 1.81053 0.882141 0
M  V30 9669 C 904.764 3.24795 1.21282 0
M  V30 9670 C 903.825 4.26346 0.502747 0
M  V30 9671 C 903.058 5.13007 1.47172 0
M  V30 9672 O 903.281 5.02103 2.70646 0
M  V30 9673 O 902.215 5.93588 0.996814 0
M  V30 9674 H 906.041 2.99341 -0.512676 0
M  V30 9675 H 903.626 1.46004 -0.31673 0
M  V30 9676 H 905.508 3.81015 1.80016 0
M  V30 9677 H 904.183 2.61868 1.90282 0
M  V30 9678 H 903.09 3.73889 -0.125757 0
M  V30 9679 H 904.423 4.91984 -0.145779 0
M  V30 9680 N 906.075 0.2925 1.54862 0
M  V30 9681 C 907.321 -0.312645 2.00983 0
M  V30 9682 C 907.676 -1.52174 1.17732 0
M  V30 9683 O 906.969 -1.90045 0.243581 0
M  V30 9684 C 907.163 -0.728674 3.49893 0
M  V30 9685 C 906.992 0.438562 4.47556 0
M  V30 9686 C 905.762 0.927885 4.96708 0
M  V30 9687 C 907.96 1.28076 4.98097 0
M  V30 9688 N 905.942 2.06277 5.78207 0
M  V30 9689 C 907.313 2.26326 5.77214 0
M  V30 9690 C 909.368 1.31211 4.803 0
M  V30 9691 C 908.071 3.27478 6.4043 0
M  V30 9692 C 910.097 2.31216 5.44328 0
M  V30 9693 C 909.459 3.28197 6.23271 0
M  V30 9694 H 905.558 -0.0790979 0.777989 0
M  V30 9695 H 908.142 0.420481 1.90105 0
M  V30 9696 H 906.313 -1.43099 3.61078 0
M  V30 9697 H 908.045 -1.31263 3.82821 0
M  V30 9698 H 904.8 0.504272 4.70908 0
M  V30 9699 H 905.224 2.63436 6.23643 0
M  V30 9700 H 909.866 0.576079 4.18857 0
M  V30 9701 H 907.584 4.02005 7.01012 0
M  V30 9702 H 911.17 2.34405 5.3249 0
M  V30 9703 H 910.05 4.04314 6.71937 0
M  V30 9704 N 907.553 -1.57587 0.0200696 0
M  V30 9705 C 908.778 -1.96124 -0.674547 0
M  V30 9706 C 909.203 -0.896068 -1.65385 0
M  V30 9707 O 908.561 0.143925 -1.80728 0
M  V30 9708 C 908.609 -3.3376 -1.36517 0
M  V30 9709 O 907.713 -3.29483 -2.48022 0
M  V30 9710 H 907.054 -0.639719 -0.177919 0
M  V30 9711 H 909.584 -2.04447 0.0792317 0
M  V30 9712 H 909.594 -3.69785 -1.72403 0
M  V30 9713 H 908.269 -4.10832 -0.647265 0
M  V30 9714 H 906.846 -3.05162 -2.14314 0
M  V30 9715 N 909.032 0.252966 -1.55557 0
M  V30 9716 C 910.281 0.979736 -1.76307 0
M  V30 9717 C 910.594 1.86714 -0.582871 0
M  V30 9718 O 911.8 2.6302 -0.673247 0
M  V30 9719 C 910.256 1.79205 -3.12112 0
M  V30 9720 C 909.864 0.952333 -4.37761 0
M  V30 9721 C 911.608 2.51191 -3.42203 0
M  V30 9722 C 909.515 1.76018 -5.64599 0
M  V30 9723 H 908.445 0.369538 -0.657235 0
M  V30 9724 H 911.096 0.234619 -1.81994 0
M  V30 9725 H 909.478 2.57888 -3.00515 0
M  V30 9726 H 910.652 0.208251 -4.60329 0
M  V30 9727 H 908.967 0.346082 -4.14959 0
M  V30 9728 H 911.564 3.12074 -4.34182 0
M  V30 9729 H 911.907 3.22499 -2.63249 0
M  V30 9730 H 912.44 1.79523 -3.54988 0
M  V30 9731 H 909.179 1.09095 -6.46358 0
M  V30 9732 H 908.699 2.4797 -5.46142 0
M  V30 9733 H 910.378 2.32884 -6.03634 0
M  V30 9734 N 910.51 1.48831 0.518367 0
M  V30 9735 C 911.738 1.6112 1.298 0
M  V30 9736 C 912.153 0.275872 1.86774 0
M  V30 9737 O 911.51 -0.736416 1.66983 0
M  V30 9738 C 911.561 2.66675 2.44063 0
M  V30 9739 O 911.282 3.95027 1.89434 0
M  V30 9740 C 912.783 2.8951 3.35706 0
M  V30 9741 H 910.003 0.542916 0.394314 0
M  V30 9742 H 912.547 1.94743 0.624142 0
M  V30 9743 H 910.702 2.35879 3.07311 0
M  V30 9744 H 911.116 4.53031 2.64316 0
M  V30 9745 H 912.59 3.67142 4.12202 0
M  V30 9746 H 913.067 1.98768 3.91648 0
M  V30 9747 H 913.673 3.21656 2.7824 0
M  V30 9748 N 911.988 -0.768124 1.37614 0
M  V30 9749 C 913.236 -1.52379 1.3276 0
M  V30 9750 C 913.557 -1.94809 -0.0863564 0
M  V30 9751 O 912.827 -1.66568 -1.03112 0
M  V30 9752 H 911.407 -0.565179 0.488448 0
M  V30 9753 H 914.069 -0.913974 1.72141 0
M  V30 9754 H 913.165 -2.4215 1.96901 0
M  V30 9755 N 913.466 -1.22244 -0.994698 0
M  V30 9756 C 914.399 -0.934168 -2.08203 0
M  V30 9757 C 915.377 0.122231 -1.6214 0
M  V30 9758 O 916.561 -0.00896598 -1.88498 0
M  V30 9759 C 913.688 -0.404646 -3.36274 0
M  V30 9760 C 912.734 -1.44544 -4.01259 0
M  V30 9761 S 913.567 -3.01816 -4.42343 0
M  V30 9762 C 914.723 -2.50497 -5.73587 0
M  V30 9763 H 914.956 -1.85493 -2.32335 0
M  V30 9764 H 912.489 -1.0533 -1.12893 0
M  V30 9765 H 914.447 -0.105719 -4.10364 0
M  V30 9766 H 913.108 0.494971 -3.10176 0
M  V30 9767 H 912.301 -1.02478 -4.93472 0
M  V30 9768 H 911.903 -1.69298 -3.33488 0
M  V30 9769 H 914.195 -1.91626 -6.49835 0
M  V30 9770 H 915.138 -3.41193 -6.20478 0
M  V30 9771 H 915.546 -1.91845 -5.30901 0
M  V30 9772 N 914.944 1.19125 -1.03184 0
M  V30 9773 C 915.874 2.24675 -0.635889 0
M  V30 9774 C 916.855 1.66321 0.356565 0
M  V30 9775 O 918.04 1.92728 0.238625 0
M  V30 9776 C 915.17 3.47298 0.011069 0
M  V30 9777 C 914.124 4.18345 -0.903979 0
M  V30 9778 C 913.45 5.34561 -0.12197 0
M  V30 9779 C 914.75 4.72816 -2.21907 0
M  V30 9780 H 916.444 2.5805 -1.51825 0
M  V30 9781 H 913.99 1.24039 -0.73146 0
M  V30 9782 H 915.943 4.20333 0.299729 0
M  V30 9783 H 914.667 3.13131 0.928245 0
M  V30 9784 H 913.326 3.47196 -1.17688 0
M  V30 9785 H 912.974 4.9664 0.797334 0
M  V30 9786 H 912.674 5.83029 -0.731498 0
M  V30 9787 H 914.198 6.10391 0.159881 0
M  V30 9788 H 915.612 5.3759 -1.99173 0
M  V30 9789 H 914.009 5.31782 -2.78078 0
M  V30 9790 H 915.079 3.9072 -2.87168 0
M  V30 9791 N 916.422 0.810101 1.35185 0
M  V30 9792 C 917.332 0.224565 2.33523 0
M  V30 9793 C 918.348 -0.634287 1.62027 0
M  V30 9794 O 919.524 -0.545211 1.9388 0
M  V30 9795 C 916.589 -0.614319 3.41214 0
M  V30 9796 C 915.65 0.265435 4.28479 0
M  V30 9797 C 914.883 -0.533506 5.31027 0
M  V30 9798 O 915.106 -1.7679 5.42311 0
M  V30 9799 O 914.04 0.0774573 6.0185 0
M  V30 9800 H 917.866 1.03815 2.85405 0
M  V30 9801 H 915.451 0.571964 1.38018 0
M  V30 9802 H 917.333 -1.09201 4.07005 0
M  V30 9803 H 916.008 -1.40545 2.91597 0
M  V30 9804 H 914.915 0.790343 3.65656 0
M  V30 9805 H 916.248 1.0206 4.81503 0
M  V30 9806 N 917.9 -1.47166 0.563914 0
M  V30 9807 C 919.147 -2.02456 0.042371 0
M  V30 9808 C 919.475 -1.43753 -1.31016 0
M  V30 9809 O 918.73 -0.585287 -1.86743 0
M  V30 9810 C 919.029 -3.57279 -0.0931797 0
M  V30 9811 C 918.695 -4.34932 1.18933 0
M  V30 9812 C 917.357 -4.55867 1.54073 0
M  V30 9813 C 919.709 -4.79665 2.03889 0
M  V30 9814 C 917.037 -5.18785 2.74005 0
M  V30 9815 C 919.389 -5.43907 3.23029 0
M  V30 9816 C 918.053 -5.63074 3.58475 0
M  V30 9817 H 917.323 -0.740838 0.0155047 0
M  V30 9818 H 919.97 -1.76759 0.736776 0
M  V30 9819 H 918.275 -3.82005 -0.870596 0
M  V30 9820 H 919.972 -3.97716 -0.512176 0
M  V30 9821 H 916.562 -4.18921 0.905718 0
M  V30 9822 H 920.746 -4.63264 1.78046 0
M  V30 9823 H 916.002 -5.31818 3.01628 0
M  V30 9824 H 920.176 -5.77531 3.89141 0
M  V30 9825 H 917.803 -6.11598 4.515 0
M  V30 9826 N 919.378 -0.300708 -1.54705 0
M  V30 9827 C 920.603 0.314073 -2.05008 0
M  V30 9828 C 921.028 1.46759 -1.17657 0
M  V30 9829 O 920.386 1.80398 -0.180598 0
M  V30 9830 C 920.434 0.748243 -3.52752 0
M  V30 9831 O 919.538 1.85305 -3.68424 0
M  V30 9832 H 918.879 0.0610139 -0.661191 0
M  V30 9833 H 921.409 -0.442467 -1.99758 0
M  V30 9834 H 921.419 1.03713 -3.94598 0
M  V30 9835 H 920.094 -0.095573 -4.1579 0
M  V30 9836 H 918.671 1.56473 -3.38483 0
M  V30 9837 N 920.856 1.57574 -0.0284266 0
M  V30 9838 C 921.786 2.1321 0.952039 0
M  V30 9839 C 922.767 1.04806 1.33977 0
M  V30 9840 O 923.952 1.32635 1.41851 0
M  V30 9841 C 921.082 2.65862 2.23461 0
M  V30 9842 C 920.036 3.79047 1.98765 0
M  V30 9843 C 919.362 4.18124 3.33281 0
M  V30 9844 C 920.662 5.05151 1.32739 0
M  V30 9845 H 922.356 2.95385 0.488705 0
M  V30 9846 H 919.902 1.42092 0.233628 0
M  V30 9847 H 921.855 3.03417 2.92431 0
M  V30 9848 H 920.579 1.80848 2.71959 0
M  V30 9849 H 919.238 3.41929 1.32213 0
M  V30 9850 H 918.886 3.30092 3.79537 0
M  V30 9851 H 918.586 4.94396 3.17563 0
M  V30 9852 H 920.11 4.58262 4.0352 0
M  V30 9853 H 921.524 5.40297 1.91708 0
M  V30 9854 H 919.921 5.86416 1.27421 0
M  V30 9855 H 920.991 4.83969 0.300261 0
M  V30 9856 N 922.334 -0.244713 1.55689 0
M  V30 9857 C 923.581 -0.972446 1.77622 0
M  V30 9858 C 923.909 -1.85235 0.593137 0
M  V30 9859 O 923.164 -1.91064 -0.423464 0
M  V30 9860 C 923.463 -1.8617 3.05083 0
M  V30 9861 C 923.129 -1.13696 4.3633 0
M  V30 9862 C 921.791 -0.936679 4.71996 0
M  V30 9863 C 924.143 -0.623451 5.17458 0
M  V30 9864 C 921.471 -0.210612 5.86322 0
M  V30 9865 C 923.823 0.0891587 6.32537 0
M  V30 9866 C 922.487 0.300904 6.66821 0
M  V30 9867 H 921.757 -0.355843 0.649967 0
M  V30 9868 H 924.404 -0.242372 1.8996 0
M  V30 9869 H 922.709 -2.6589 2.87767 0
M  V30 9870 H 924.406 -2.4265 3.19253 0
M  V30 9871 H 920.996 -1.30301 4.08313 0
M  V30 9872 H 925.18 -0.765725 4.90357 0
M  V30 9873 H 920.436 -0.0361062 6.11389 0
M  V30 9874 H 924.61 0.494685 6.94641 0
M  V30 9875 H 922.237 0.865466 7.55257 0
M  V30 9876 N 923.813 -1.49104 -0.510467 0
M  V30 9877 C 925.061 -1.578 -1.26268 0
M  V30 9878 C 925.382 -0.262349 -1.93227 0
M  V30 9879 O 924.652 0.717624 -1.82283 0
M  V30 9880 H 923.232 -0.581387 -0.46904 0
M  V30 9881 H 925.894 -1.85678 -0.592423 0
M  V30 9882 H 924.99 -2.36919 -2.03165 0
M  V30 9883 N 925.291 0.760815 -1.38019 0
M  V30 9884 C 926.54 1.51506 -1.3315 0
M  V30 9885 C 926.853 1.95444 0.0782124 0
M  V30 9886 O 928.059 2.70352 0.249418 0
M  V30 9887 C 926.515 2.73636 -2.33776 0
M  V30 9888 C 926.123 2.36753 -3.80332 0
M  V30 9889 C 927.867 3.51548 -2.37937 0
M  V30 9890 C 925.774 3.55451 -4.72661 0
M  V30 9891 H 924.704 0.568844 -0.494907 0
M  V30 9892 H 927.355 0.832343 -1.63537 0
M  V30 9893 H 925.737 3.43852 -1.96422 0
M  V30 9894 H 926.911 1.7425 -4.26584 0
M  V30 9895 H 925.226 1.71991 -3.7922 0
M  V30 9896 H 927.823 4.39791 -3.04119 0
M  V30 9897 H 928.166 3.9219 -1.39617 0
M  V30 9898 H 928.699 2.88339 -2.74054 0
M  V30 9899 H 925.438 3.19882 -5.7215 0
M  V30 9900 H 924.958 4.17022 -4.31107 0
M  V30 9901 H 926.637 4.22125 -4.90326 0
M  V30 9902 N 926.769 1.22769 0.988202 0
M  V30 9903 C 928.18 1.0512 1.54294 0
M  V30 9904 C 928.531 -0.383904 1.92407 0
M  V30 9905 O 927.656 -1.26955 1.75246 0
M  V30 9906 C 928.251 1.90198 2.80375 0
M  V30 9907 C 926.81 1.76831 3.32276 0
M  V30 9908 C 925.957 1.86377 2.05326 0
M  V30 9909 H 928.908 1.36546 0.808758 0
M  V30 9910 H 928.929 1.42216 3.52923 0
M  V30 9911 H 928.441 2.9464 2.52605 0
M  V30 9912 H 926.542 0.751412 3.64945 0
M  V30 9913 H 926.655 2.59771 4.02562 0
M  V30 9914 H 925.019 1.2987 2.19103 0
M  V30 9915 H 925.802 2.9236 1.79946 0
M  V30 9916 N 928.247 -1.18576 1.03814 0
M  V30 9917 C 929.177 -2.24334 0.647795 0
M  V30 9918 C 930.158 -1.66508 -0.34774 0
M  V30 9919 O 931.343 -1.92852 -0.228401 0
M  V30 9920 C 928.473 -3.47299 0.00734922 0
M  V30 9921 C 927.427 -4.17859 0.926152 0
M  V30 9922 C 926.753 -5.34489 0.150317 0
M  V30 9923 C 928.053 -4.71632 2.24411 0
M  V30 9924 H 929.747 -2.57241 1.53191 0
M  V30 9925 H 927.293 -1.23649 0.738028 0
M  V30 9926 H 929.246 -4.20486 -0.277434 0
M  V30 9927 H 927.97 -3.13619 -0.911626 0
M  V30 9928 H 926.629 -3.46567 1.19528 0
M  V30 9929 H 926.277 -4.97056 -0.770985 0
M  V30 9930 H 925.977 -5.82633 0.762407 0
M  V30 9931 H 927.501 -6.10467 -0.127508 0
M  V30 9932 H 928.915 -5.36526 2.02021 0
M  V30 9933 H 927.312 -5.303 2.80894 0
M  V30 9934 H 928.382 -3.89192 2.89236 0
M  V30 9935 N 929.725 -0.817259 -1.34754 0
M  V30 9936 C 930.971 -0.403244 -1.98751 0
M  V30 9937 C 931.304 1.02963 -1.64658 0
M  V30 9938 O 930.579 1.71617 -0.915314 0
M  V30 9939 C 930.862 -0.599188 -3.5508 0
M  V30 9940 C 930.715 -2.07777 -3.98934 0
M  V30 9941 C 932.034 -0.0315656 -4.40089 0
M  V30 9942 H 929.153 -0.147988 -0.721989 0
M  V30 9943 H 931.795 -1.02877 -1.59738 0
M  V30 9944 H 929.945 -0.0667116 -3.88443 0
M  V30 9945 H 931.617 -2.67345 -3.75931 0
M  V30 9946 H 929.86 -2.57031 -3.49453 0
M  V30 9947 H 930.531 -2.16571 -5.07741 0
M  V30 9948 H 933.007 -0.48644 -4.13247 0
M  V30 9949 H 931.883 -0.198507 -5.48541 0
M  V30 9950 H 932.144 1.06302 -4.2913 0
M  V30 9951 N 931.203 1.46865 -0.571711 0
M  V30 9952 C 932.451 2.0203 -0.0530022 0
M  V30 9953 C 932.772 1.44687 1.30731 0
M  V30 9954 O 932.042 0.627429 1.85581 0
M  V30 9955 H 930.622 0.746815 -0.0166035 0
M  V30 9956 H 933.284 1.80099 -0.745003 0
M  V30 9957 H 932.38 3.12091 0.0242538 0
M  V30 9958 N 932.681 0.308908 1.54543 0
M  V30 9959 C 933.644 -0.550857 2.22482 0
M  V30 9960 C 934.644 -1.0551 1.21344 0
M  V30 9961 O 935.834 -0.949866 1.46025 0
M  V30 9962 C 932.966 -1.76354 2.9174 0
M  V30 9963 H 934.159 0.0428395 2.99869 0
M  V30 9964 H 931.712 0.059825 1.56185 0
M  V30 9965 H 932.447 -2.39686 2.18451 0
M  V30 9966 H 932.232 -1.40954 3.65889 0
M  V30 9967 H 933.722 -2.37417 3.43545 0
M  V30 9968 N 934.159 -1.57557 0.0367827 0
M  V30 9969 C 935.436 -1.83427 -0.679261 0
M  V30 9970 C 935.816 -0.922274 -1.89888 0
M  V30 9971 O 935.164 0.02025 -2.28491 0
M  V30 9972 C 935.374 -3.32823 -1.05022 0
M  V30 9973 C 936.722 -3.99486 -1.43861 0
M  V30 9974 O 937.746 -3.37364 -1.14297 0
M  V30 9975 O 936.605 -5.0899 -1.98977 0
M  V30 9976 H 933.699 -0.756581 -0.333936 0
M  V30 9977 H 936.245 -1.69575 0.0650494 0
M  V30 9978 H 935.017 -3.90874 -0.182509 0
M  V30 9979 H 934.64 -3.5181 -1.85244 0
M  V30 9980 N 935.637 0.236453 -1.55816 0
M  V30 9981 C 936.886 0.960981 -1.77336 0
M  V30 9982 C 937.199 1.86085 -0.602641 0
M  V30 9983 O 938.405 2.62291 -0.701106 0
M  V30 9984 C 936.861 1.75884 -3.13995 0
M  V30 9985 C 936.469 0.905849 -4.38746 0
M  V30 9986 C 938.213 2.47548 -3.44848 0
M  V30 9987 C 936.12 1.7002 -5.66434 0
M  V30 9988 H 935.05 0.362547 -0.661117 0
M  V30 9989 H 937.701 0.215303 -1.82233 0
M  V30 9990 H 936.083 2.54687 -3.03234 0
M  V30 9991 H 937.257 0.159415 -4.60524 0
M  V30 9992 H 935.572 0.30205 -4.15303 0
M  V30 9993 H 938.169 3.07452 -4.37467 0
M  V30 9994 H 938.512 3.19689 -2.66655 0
M  V30 9995 H 939.045 1.75747 -3.56872 0
M  V30 9996 H 935.784 1.02234 -6.47479 0
M  V30 9997 H 935.304 2.42164 -5.48741 0
M  V30 9998 H 936.983 2.26469 -6.0607 0
M  V30 9999 N 937.115 1.49373 0.502552 0
M  V30 10000 C 938.355 1.60398 1.26696 0
M  V30 10001 C 938.719 0.283599 1.89894 0
M  V30 10002 O 939.92 0.269022 2.6745 0
M  V30 10003 C 938.191 2.72998 2.30666 0
M  V30 10004 S 939.75 3.03964 3.16466 0
M  V30 10005 H 936.568 0.565781 0.430596 0
M  V30 10006 H 939.17 1.87024 0.569418 0
M  V30 10007 H 937.874 3.67458 1.82765 0
M  V30 10008 H 937.405 2.4836 3.05091 0
M  V30 10009 H 939.42 2.45367 4.31288 0
M  V30 10010 N 938.594 -0.753485 1.38421 0
M  V30 10011 C 939.842 -1.50962 1.34368 0
M  V30 10012 C 940.163 -1.94889 -0.0656895 0
M  V30 10013 O 939.433 -1.67652 -1.01339 0
M  V30 10014 H 938.013 -0.559967 0.494415 0
M  V30 10015 H 940.675 -0.895665 1.73101 0
M  V30 10016 H 939.771 -2.40048 1.99458 0
M  V30 10017 N 940.072 -1.23292 -0.981677 0
M  V30 10018 C 941.319 -1.06424 -1.72279 0
M  V30 10019 C 941.647 0.399055 -1.90362 0
M  V30 10020 O 940.902 1.31181 -1.45224 0
M  V30 10021 C 941.201 -1.73339 -3.12551 0
M  V30 10022 C 940.867 -3.23256 -3.14351 0
M  V30 10023 C 939.529 -3.64159 -3.14549 0
M  V30 10024 C 941.881 -4.1916 -3.09765 0
M  V30 10025 C 939.209 -4.99428 -3.07877 0
M  V30 10026 C 941.561 -5.54419 -3.04635 0
M  V30 10027 C 940.225 -5.94688 -3.03154 0
M  V30 10028 H 939.495 -0.389434 -0.630415 0
M  V30 10029 H 942.142 -1.53208 -1.1489 0
M  V30 10030 H 940.447 -1.18911 -3.73319 0
M  V30 10031 H 942.144 -1.57767 -3.68661 0
M  V30 10032 H 938.734 -2.90693 -3.14953 0
M  V30 10033 H 942.918 -3.88569 -3.08753 0
M  V30 10034 H 938.174 -5.29844 -3.05083 0
M  V30 10035 H 942.348 -6.28448 -3.00043 0
M  V30 10036 H 939.975 -6.99468 -2.97739 0
M  V30 10037 N 941.55 1.18024 -1.04442 0
M  V30 10038 C 942.796 1.88377 -0.751133 0
M  V30 10039 C 943.129 1.80377 0.719571 0
M  V30 10040 O 942.404 1.20662 1.52548 0
M  V30 10041 C 942.687 3.38708 -1.22265 0
M  V30 10042 C 942.54 3.55499 -2.75574 0
M  V30 10043 C 943.859 4.32475 -0.815688 0
M  V30 10044 H 940.978 0.684037 -0.27434 0
M  V30 10045 H 943.62 1.38837 -1.29709 0
M  V30 10046 H 941.77 3.8103 -0.758192 0
M  V30 10047 H 943.442 3.22244 -3.30086 0
M  V30 10048 H 941.685 2.98028 -3.15217 0
M  V30 10049 H 942.356 4.60994 -3.03625 0
M  V30 10050 H 944.832 3.97953 -1.21542 0
M  V30 10051 H 943.708 5.36213 -1.17331 0
M  V30 10052 H 943.969 4.41207 0.280901 0
M  V30 10053 N 943.028 0.824394 1.34319 0
M  V30 10054 C 943.991 0.252696 2.27803 0
M  V30 10055 C 944.991 -0.570254 1.50349 0
M  V30 10056 O 946.181 -0.386145 1.69866 0
M  V30 10057 C 943.313 -0.645575 3.34731 0
M  V30 10058 H 944.506 1.07742 2.79878 0
M  V30 10059 H 942.059 0.596367 1.44475 0
M  V30 10060 H 942.794 -1.4933 2.87873 0
M  V30 10061 H 942.579 -0.0569478 3.92059 0
M  V30 10062 H 944.069 -1.03933 4.0446 0
M  V30 10063 N 944.506 -1.46559 0.579492 0
M  V30 10064 C 945.416 -2.34066 -0.15816 0
M  V30 10065 C 946.432 -1.49556 -0.88932 0
M  V30 10066 O 947.608 -1.82434 -0.853226 0
M  V30 10067 C 944.673 -3.26683 -1.161 0
M  V30 10068 C 943.734 -4.27092 -0.434855 0
M  V30 10069 C 942.967 -5.15283 -1.38992 0
M  V30 10070 O 943.19 -5.06345 -2.62623 0
M  V30 10071 O 942.124 -5.95099 -0.902253 0
M  V30 10072 H 945.95 -2.98488 0.560234 0
M  V30 10073 H 943.535 -1.45482 0.339918 0
M  V30 10074 H 945.417 -3.8383 -1.73932 0
M  V30 10075 H 944.092 -2.64862 -1.86091 0
M  V30 10076 H 942.999 -3.73641 0.185224 0
M  V30 10077 H 944.332 -4.9169 0.224031 0
M  V30 10078 N 945.984 -0.3171 -1.54377 0
M  V30 10079 C 947.212 0.289558 -2.04864 0
M  V30 10080 C 947.627 1.46284 -1.19359 0
M  V30 10081 O 946.984 1.81135 -0.222795 0
M  V30 10082 C 947.035 0.730273 -3.54047 0
M  V30 10083 O 946.756 -0.396325 -4.36304 0
M  V30 10084 C 948.257 1.40041 -4.20599 0
M  V30 10085 H 945.477 0.0605836 -0.668259 0
M  V30 10086 H 948.021 -0.461411 -1.99227 0
M  V30 10087 H 946.176 1.43123 -3.59992 0
M  V30 10088 H 946.59 -0.0502901 -5.24476 0
M  V30 10089 H 948.064 1.65979 -5.26455 0
M  V30 10090 H 948.541 2.34565 -3.71316 0
M  V30 10091 H 949.147 0.742206 -4.18774 0
M  V30 10092 N 947.462 1.57535 -0.0451378 0
M  V30 10093 C 948.69 1.96761 0.639742 0
M  V30 10094 C 949.105 0.922405 1.64734 0
M  V30 10095 O 948.462 -0.0940535 1.82257 0
M  V30 10096 C 948.513 3.36066 1.33199 0
M  V30 10097 O 948.234 4.36579 0.364757 0
M  V30 10098 C 949.735 3.90015 2.1072 0
M  V30 10099 H 946.955 0.64769 0.175324 0
M  V30 10100 H 949.499 2.04206 -0.109651 0
M  V30 10101 H 947.654 3.2979 2.03266 0
M  V30 10102 H 948.068 5.17432 0.858168 0
M  V30 10103 H 949.542 4.89785 2.54586 0
M  V30 10104 H 950.019 3.25117 2.95288 0
M  V30 10105 H 950.625 3.99609 1.45577 0
M  V30 10106 N 948.94 -0.228186 1.55939 0
M  V30 10107 C 949.85 -1.30386 1.9503 0
M  V30 10108 C 950.866 -1.51645 0.853218 0
M  V30 10109 O 952.042 -1.64904 1.15623 0
M  V30 10110 C 949.107 -2.63489 2.25332 0
M  V30 10111 C 948.168 -2.5059 3.48573 0
M  V30 10112 C 947.401 -3.77345 3.7742 0
M  V30 10113 O 947.624 -4.80067 3.08045 0
M  V30 10114 O 946.558 -3.74855 4.70922 0
M  V30 10115 H 950.384 -1.0022 2.86687 0
M  V30 10116 H 947.969 -0.430503 1.43063 0
M  V30 10117 H 949.851 -3.4211 2.46046 0
M  V30 10118 H 948.526 -2.93349 1.3685 0
M  V30 10119 H 947.433 -1.70191 3.33145 0
M  V30 10120 H 948.766 -2.2567 4.37417 0
M  V30 10121 N 950.418 -1.49637 -0.494624 0
M  V30 10122 C 951.328 -1.69522 -1.62172 0
M  V30 10123 C 952.344 -0.577894 -1.64123 0
M  V30 10124 O 953.52 -0.853382 -1.82426 0
M  V30 10125 C 950.585 -1.7633 -2.9851 0
M  V30 10126 C 949.646 -2.99944 -3.07135 0
M  V30 10127 C 948.879 -3.06419 -4.36971 0
M  V30 10128 O 949.102 -2.20312 -5.26136 0
M  V30 10129 O 948.036 -3.9894 -4.507 0
M  V30 10130 H 951.862 -2.65017 -1.48324 0
M  V30 10131 H 949.447 -1.33454 -0.671603 0
M  V30 10132 H 951.329 -1.83125 -3.7953 0
M  V30 10133 H 950.004 -0.840155 -3.12607 0
M  V30 10134 H 948.911 -2.98664 -2.2528 0
M  V30 10135 H 950.244 -3.9176 -2.97968 0
M  V30 10136 N 951.896 0.746133 -1.38819 0
M  V30 10137 C 952.826 1.87344 -1.39372 0
M  V30 10138 C 953.807 1.68123 -0.258583 0
M  V30 10139 O 954.992 1.88606 -0.462769 0
M  V30 10140 C 952.122 3.24962 -1.22543 0
M  V30 10141 C 951.076 3.58799 -2.33339 0
M  V30 10142 C 950.402 4.95235 -2.01609 0
M  V30 10143 C 951.702 3.62911 -3.75624 0
M  V30 10144 H 953.396 1.87138 -2.33709 0
M  V30 10145 H 950.942 0.898937 -1.12495 0
M  V30 10146 H 952.895 4.03488 -1.21554 0
M  V30 10147 H 951.619 3.25667 -0.246707 0
M  V30 10148 H 950.278 2.82596 -2.33527 0
M  V30 10149 H 949.926 4.92508 -1.02202 0
M  V30 10150 H 949.626 5.18843 -2.75819 0
M  V30 10151 H 951.15 5.76131 -2.02251 0
M  V30 10152 H 952.564 4.31535 -3.77426 0
M  V30 10153 H 950.961 3.98031 -4.491 0
M  V30 10154 H 952.031 2.62967 -4.07402 0
M  V30 10155 N 953.375 1.23811 0.975125 0
M  V30 10156 C 954.615 1.08517 1.73215 0
M  V30 10157 C 954.979 -0.370777 1.88386 0
M  V30 10158 O 956.18 -0.645036 2.60946 0
M  V30 10159 C 954.451 1.79649 3.08968 0
M  V30 10160 S 956.01 1.79993 4.00185 0
M  V30 10161 H 952.828 0.388256 0.595633 0
M  V30 10162 H 955.43 1.57028 1.16458 0
M  V30 10163 H 954.134 2.8471 2.95581 0
M  V30 10164 H 953.665 1.31441 3.70792 0
M  V30 10165 H 955.68 0.862294 4.8865 0
M  V30 10166 N 954.853 -1.17469 1.05066 0
M  V30 10167 C 956.269 -1.39699 0.771769 0
M  V30 10168 C 956.469 -1.91253 -0.634382 0
M  V30 10169 O 955.525 -2.10334 -1.39699 0
M  V30 10170 C 956.838 -2.38886 1.82631 0
M  V30 10171 C 958.386 -2.52595 1.84838 0
M  V30 10172 C 958.861 -3.55054 2.89311 0
M  V30 10173 N 960.352 -3.6257 2.88266 0
M  V30 10174 C 961.087 -4.41603 3.65752 0
M  V30 10175 N 960.583 -5.24162 4.53019 0
M  V30 10176 N 962.376 -4.36464 3.54197 0
M  V30 10177 H 954.527 -0.823355 1.95792 0
M  V30 10178 H 956.79 -0.42432 0.847736 0
M  V30 10179 H 956.496 -2.08075 2.83545 0
M  V30 10180 H 956.37 -3.38371 1.66687 0
M  V30 10181 H 958.757 -2.82717 0.845888 0
M  V30 10182 H 958.838 -1.53188 2.04859 0
M  V30 10183 H 958.482 -3.2567 3.89745 0
M  V30 10184 H 958.412 -4.54162 2.66542 0
M  V30 10185 H 960.903 -3.03625 2.24989 0
M  V30 10186 H 961.216 -5.81646 5.0883 0
M  V30 10187 H 959.561 -5.23547 4.57081 0
M  V30 10188 H 962.752 -3.7102 2.85416 0
M  V30 10189 H 962.925 -4.97814 4.14832 0
M  V30 10190 N 956.331 -0.831506 -1.3388 0
M  V30 10191 C 957.747 -0.518349 -1.50948 0
M  V30 10192 C 957.947 0.955807 -1.77388 0
M  V30 10193 O 957.003 1.73993 -1.82983 0
M  V30 10194 C 958.316 -1.38531 -2.66889 0
M  V30 10195 C 959.864 -1.38332 -2.80772 0
M  V30 10196 C 960.339 -2.23497 -3.99766 0
M  V30 10197 N 961.83 -2.21167 -4.06988 0
M  V30 10198 C 962.565 -2.83805 -4.98239 0
M  V30 10199 N 962.061 -3.55468 -5.94655 0
M  V30 10200 N 963.854 -2.73314 -4.91178 0
M  V30 10201 H 956.005 -1.78588 -1.14978 0
M  V30 10202 H 958.268 -0.761508 -0.564633 0
M  V30 10203 H 957.974 -2.43255 -2.54007 0
M  V30 10204 H 957.848 -1.05611 -3.62114 0
M  V30 10205 H 960.235 -0.343832 -2.9309 0
M  V30 10206 H 960.316 -1.75256 -1.86331 0
M  V30 10207 H 959.96 -3.27501 -3.88208 0
M  V30 10208 H 959.89 -1.83919 -4.93438 0
M  V30 10209 H 962.381 -1.69046 -3.37982 0
M  V30 10210 H 962.694 -4.00487 -6.60931 0
M  V30 10211 H 961.039 -3.59575 -5.94753 0
M  V30 10212 H 964.23 -2.16897 -4.14817 0
M  V30 10213 H 964.403 -3.22416 -5.62096 0
M  V30 10214 N 957.809 1.4625 -0.587256 0
M  V30 10215 C 959.055 2.0323 -0.0830359 0
M  V30 10216 C 959.41 1.45007 1.26455 0
M  V30 10217 O 958.703 0.607494 1.81714 0
M  V30 10218 C 958.897 3.57382 0.036328 0
M  V30 10219 C 958.726 4.30556 -1.29814 0
M  V30 10220 C 957.496 4.69285 -1.87349 0
M  V30 10221 C 959.694 4.63806 -2.22236 0
M  V30 10222 N 957.676 5.27229 -3.14488 0
M  V30 10223 C 959.047 5.22368 -3.33964 0
M  V30 10224 C 961.102 4.45738 -2.2186 0
M  V30 10225 C 959.805 5.64769 -4.45454 0
M  V30 10226 C 961.831 4.89158 -3.32383 0
M  V30 10227 C 961.193 5.47795 -4.42832 0
M  V30 10228 H 957.292 0.77856 -0.0732716 0
M  V30 10229 H 959.876 1.78343 -0.781152 0
M  V30 10230 H 958.047 3.81973 0.703621 0
M  V30 10231 H 959.779 4.01009 0.545347 0
M  V30 10232 H 956.534 4.5219 -1.40789 0
M  V30 10233 H 956.958 5.60719 -3.79372 0
M  V30 10234 H 961.6 3.99735 -1.37739 0
M  V30 10235 H 959.318 6.09748 -5.30314 0
M  V30 10236 H 962.904 4.76926 -3.33216 0
M  V30 10237 H 961.784 5.80778 -5.26941 0
M  V30 10238 N 959.287 0.325282 1.54207 0
M  V30 10239 C 960.22 -0.582485 2.20641 0
M  V30 10240 C 961.198 -1.11441 1.18405 0
M  V30 10241 O 962.382 -1.17809 1.4715 0
M  V30 10242 C 959.509 -1.79944 2.86946 0
M  V30 10243 C 958.555 -1.39861 4.02916 0
M  V30 10244 S 959.388 -0.433859 5.3374 0
M  V30 10245 C 960.544 -1.65806 6.03539 0
M  V30 10246 H 960.777 -0.0181601 2.97294 0
M  V30 10247 H 958.31 0.109365 1.54012 0
M  V30 10248 H 960.268 -2.4977 3.25769 0
M  V30 10249 H 958.929 -2.33495 2.10092 0
M  V30 10250 H 958.122 -2.30547 4.48179 0
M  V30 10251 H 957.724 -0.780036 3.65775 0
M  V30 10252 H 960.016 -2.59524 6.25822 0
M  V30 10253 H 960.959 -1.24756 6.97023 0
M  V30 10254 H 961.367 -1.84581 5.3347 0
M  V30 10255 N 960.765 -1.57509 0.0534917 0
M  V30 10256 C 961.697 -2.08616 -0.949322 0
M  V30 10257 C 962.71 -1.01446 -1.27328 0
M  V30 10258 O 963.899 -1.29007 -1.23367 0
M  V30 10259 C 960.999 -2.51622 -2.27024 0
M  V30 10260 C 960.172 -3.82154 -2.12785 0
M  V30 10261 C 959.231 -4.11448 -3.2802 0
M  V30 10262 O 958.257 -4.81333 -3.03822 0
M  V30 10263 N 959.459 -3.63543 -4.52567 0
M  V30 10264 H 962.224 -2.95275 -0.5131 0
M  V30 10265 H 959.785 -1.61355 -0.132693 0
M  V30 10266 H 961.777 -2.68293 -3.02986 0
M  V30 10267 H 960.347 -1.70198 -2.62205 0
M  V30 10268 H 959.567 -3.75041 -1.21399 0
M  V30 10269 H 960.855 -4.67629 -2.00501 0
M  V30 10270 H 960.253 -3.07051 -4.75117 0
M  V30 10271 H 958.81 -3.85448 -5.25617 0
M  V30 10272 N 962.243 0.219913 -1.56058 0
M  V30 10273 C 963.173 1.27572 -1.9557 0
M  V30 10274 C 964.154 1.48801 -0.824148 0
M  V30 10275 O 965.339 1.60957 -1.08658 0
M  V30 10276 C 962.469 2.62517 -2.27381 0
M  V30 10277 C 961.423 2.55941 -3.43042 0
M  V30 10278 C 960.749 3.94931 -3.60463 0
M  V30 10279 C 962.049 2.10584 -4.77966 0
M  V30 10280 H 963.743 0.947482 -2.84013 0
M  V30 10281 H 961.289 0.454337 -1.36645 0
M  V30 10282 H 963.242 3.36538 -2.53615 0
M  V30 10283 H 961.966 2.97031 -1.35794 0
M  V30 10284 H 960.625 1.84377 -3.1686 0
M  V30 10285 H 960.273 4.26756 -2.66249 0
M  V30 10286 H 959.973 3.91413 -4.38258 0
M  V30 10287 H 961.497 4.70611 -3.89046 0
M  V30 10288 H 962.911 2.74349 -5.03394 0
M  V30 10289 H 961.308 2.18122 -5.59055 0
M  V30 10290 H 962.378 1.05818 -4.73213 0
M  V30 10291 N 963.721 1.49897 0.486681 0
M  V30 10292 C 964.969 1.59789 1.23742 0
M  V30 10293 C 965.29 0.293056 1.92785 0
M  V30 10294 O 964.56 -0.688534 1.83401 0
M  V30 10295 H 963.14 0.588775 0.459731 0
M  V30 10296 H 965.802 1.86597 0.562808 0
M  V30 10297 H 964.898 2.40121 1.9937 0
M  V30 10298 N 965.199 -0.738761 1.39212 0
M  V30 10299 C 966.162 -1.83441 1.37412 0
M  V30 10300 C 967.162 -1.58484 0.271908 0
M  V30 10301 O 968.352 -1.65954 0.529609 0
M  V30 10302 C 965.484 -3.21167 1.143 0
M  V30 10303 H 966.677 -1.86441 2.34904 0
M  V30 10304 H 964.23 -0.942023 1.24722 0
M  V30 10305 H 964.965 -3.23829 0.174756 0
M  V30 10306 H 964.75 -3.40678 1.94116 0
M  V30 10307 H 966.24 -4.01231 1.15773 0
M  V30 10308 N 966.677 -1.24326 -0.968545 0
M  V30 10309 C 967.924 -1.08245 -1.71141 0
M  V30 10310 C 968.252 0.378842 -1.90775 0
M  V30 10311 O 967.507 1.29634 -1.46607 0
M  V30 10312 C 967.806 -1.76644 -3.10695 0
M  V30 10313 C 967.472 -3.26572 -3.10905 0
M  V30 10314 C 966.134 -3.67475 -3.10669 0
M  V30 10315 C 968.486 -4.22422 -3.05302 0
M  V30 10316 C 965.814 -5.02666 -3.02562 0
M  V30 10317 C 968.166 -5.57619 -2.98737 0
M  V30 10318 C 966.83 -5.9787 -2.9683 0
M  V30 10319 H 966.1 -0.396098 -0.626249 0
M  V30 10320 H 968.747 -1.54418 -1.13258 0
M  V30 10321 H 967.052 -1.22864 -3.72037 0
M  V30 10322 H 968.749 -1.61668 -3.66967 0
M  V30 10323 H 965.339 -2.94017 -3.11852 0
M  V30 10324 H 969.523 -3.91821 -3.04614 0
M  V30 10325 H 964.779 -5.3305 -2.99446 0
M  V30 10326 H 968.953 -6.31595 -2.93361 0
M  V30 10327 H 966.58 -7.02587 -2.90303 0
M  V30 10328 N 968.156 1.1691 -1.05688 0
M  V30 10329 C 969.386 1.90927 -0.789339 0
M  V30 10330 C 969.794 1.77339 0.659369 0
M  V30 10331 O 969.137 1.11147 1.4626 0
M  V30 10332 C 969.199 3.42361 -1.09677 0
M  V30 10333 C 968.863 3.79733 -2.54267 0
M  V30 10334 C 969.86 3.82163 -3.52487 0
M  V30 10335 C 967.545 4.10547 -2.89406 0
M  V30 10336 C 969.539 4.14884 -4.8389 0
M  V30 10337 C 967.226 4.42936 -4.21011 0
M  V30 10338 C 968.224 4.45084 -5.18063 0
M  V30 10339 O 967.912 4.76707 -6.47307 0
M  V30 10340 H 967.644 0.612466 -0.286115 0
M  V30 10341 H 970.198 1.4916 -1.4121 0
M  V30 10342 H 968.428 3.84446 -0.416924 0
M  V30 10343 H 970.117 3.97645 -0.814456 0
M  V30 10344 H 970.883 3.58476 -3.26681 0
M  V30 10345 H 966.762 4.08044 -2.14525 0
M  V30 10346 H 970.306 4.16475 -5.59638 0
M  V30 10347 H 966.203 4.66088 -4.46579 0
M  V30 10348 H 966.971 4.94544 -6.52203 0
M  V30 10349 N 969.634 0.838594 1.33437 0
M  V30 10350 C 971.045 0.490934 1.8013 0
M  V30 10351 C 971.396 -0.990024 1.6939 0
M  V30 10352 O 970.521 -1.77139 1.24302 0
M  V30 10353 C 971.116 0.884347 3.27055 0
M  V30 10354 C 969.675 0.588829 3.71766 0
M  V30 10355 C 968.822 1.09282 2.54858 0
M  V30 10356 H 971.773 1.02732 1.20962 0
M  V30 10357 H 971.794 0.194283 3.80004 0
M  V30 10358 H 971.306 1.96225 3.34839 0
M  V30 10359 H 969.407 -0.479018 3.69508 0
M  V30 10360 H 969.52 1.14387 4.65245 0
M  V30 10361 H 967.884 0.513702 2.49466 0
M  V30 10362 H 968.667 2.1775 2.65405 0
M  V30 10363 N 971.112 -1.45937 0.595003 0
M  V30 10364 C 972.359 -2.0232 0.0853053 0
M  V30 10365 C 972.687 -1.465 -1.27937 0
M  V30 10366 O 971.942 -0.624767 -1.85459 0
M  V30 10367 C 972.241 -3.57396 -0.0173747 0
M  V30 10368 C 971.907 -4.32311 1.28131 0
M  V30 10369 C 970.569 -4.52496 1.63708 0
M  V30 10370 C 972.921 -4.75233 2.14017 0
M  V30 10371 C 970.249 -5.12857 2.84947 0
M  V30 10372 C 972.601 -5.36933 3.34493 0
M  V30 10373 C 971.265 -5.55343 3.70338 0
M  V30 10374 H 970.535 -0.740342 0.0312154 0
M  V30 10375 H 973.182 -1.75157 0.774103 0
M  V30 10376 H 971.487 -3.83766 -0.789371 0
M  V30 10377 H 973.184 -3.98713 -0.427699 0
M  V30 10378 H 969.774 -4.16905 0.994374 0
M  V30 10379 H 973.958 -4.59383 1.87833 0
M  V30 10380 H 969.214 -5.253 3.12841 0
M  V30 10381 H 973.388 -5.69147 4.01304 0
M  V30 10382 H 971.015 -6.01883 4.64371 0
M  V30 10383 N 972.59 -0.333456 -1.54032 0
M  V30 10384 C 973.815 0.270517 -2.05628 0
M  V30 10385 C 974.24 1.44231 -1.20744 0
M  V30 10386 O 973.598 1.79975 -0.218822 0
M  V30 10387 C 973.646 0.673251 -3.54259 0
M  V30 10388 O 972.75 1.77448 -3.72271 0
M  V30 10389 H 972.091 0.0469753 -0.662336 0
M  V30 10390 H 974.621 -0.484739 -1.98775 0
M  V30 10391 H 974.631 0.953194 -3.96709 0
M  V30 10392 H 973.306 -0.183747 -4.15494 0
M  V30 10393 H 971.883 1.49259 -3.41725 0
M  V30 10394 N 974.068 1.57479 -0.061844 0
M  V30 10395 C 975.484 1.56855 0.294753 0
M  V30 10396 C 975.684 1.07042 1.70717 0
M  V30 10397 O 974.74 0.731817 2.41662 0
M  V30 10398 C 976.053 3.00486 0.113484 0
M  V30 10399 C 977.601 3.1246 0.183778 0
M  V30 10400 C 978.076 4.5799 0.0309092 0
M  V30 10401 N 979.567 4.63119 0.0868393 0
M  V30 10402 C 980.302 5.734 -0.00717446 0
M  V30 10403 N 979.798 6.92628 -0.154144 0
M  V30 10404 N 981.591 5.62078 0.0491763 0
M  V30 10405 H 973.742 1.88176 -0.985058 0
M  V30 10406 H 976.005 0.867051 -0.383309 0
M  V30 10407 H 975.711 3.41004 -0.86075 0
M  V30 10408 H 975.585 3.67029 0.870023 0
M  V30 10409 H 977.972 2.71834 1.14849 0
M  V30 10410 H 978.053 2.48574 -0.603697 0
M  V30 10411 H 977.697 4.99303 -0.930526 0
M  V30 10412 H 977.627 5.19895 0.837664 0
M  V30 10413 H 980.118 3.77374 0.199245 0
M  V30 10414 H 980.431 7.72492 -0.218296 0
M  V30 10415 H 978.776 6.94742 -0.189372 0
M  V30 10416 H 981.967 4.67817 0.162626 0
M  V30 10417 H 982.14 6.47994 -0.0275478 0
M  V30 10418 N 975.546 -0.211634 1.56173 0
M  V30 10419 C 976.494 -1.28188 1.94089 0
M  V30 10420 C 977.488 -1.47999 0.824167 0
M  V30 10421 O 978.694 -1.49056 1.00907 0
M  V30 10422 H 975.069 -0.42999 0.616938 0
M  V30 10423 H 977.04 -0.934962 2.83374 0
M  V30 10424 C 975.789 -2.62294 2.28248 0
M  V30 10425 H 975.112 -2.4786 3.13696 0
M  V30 10426 H 976.552 -3.35967 2.58655 0
M  V30 10427 C 975.011 -3.18049 1.11113 0
M  V30 10428 O 975.541 -3.99923 0.377458 0
M  V30 10429 N 973.747 -2.76561 0.892321 0
M  V30 10430 H 973.294 -2.10088 1.49067 0
M  V30 10431 H 973.252 -3.14206 0.110344 0
M  V30 10432 N 977.024 -1.50153 -0.478725 0
M  V30 10433 C 977.974 -1.64848 -1.57509 0
M  V30 10434 C 978.958 -0.503327 -1.52825 0
M  V30 10435 O 980.15 -0.75737 -1.59978 0
M  V30 10436 C 977.279 -1.73893 -2.96 0
M  V30 10437 C 976.365 -2.9406 -3.05597 0
M  V30 10438 N 976.756 -4.17844 -2.85027 0
M  V30 10439 C 975.054 -2.92459 -3.36725 0
M  V30 10440 C 975.755 -4.98739 -2.9939 0
M  V30 10441 N 974.731 -4.32542 -3.29255 0
M  V30 10442 H 978.533 -2.58254 -1.40293 0
M  V30 10443 H 976.047 -1.47232 -0.685307 0
M  V30 10444 H 978.044 -1.82523 -3.74821 0
M  V30 10445 H 976.704 -0.816402 -3.14269 0
M  V30 10446 H 977.715 -4.47465 -2.60759 0
M  V30 10447 H 974.392 -2.09675 -3.6103 0
M  V30 10448 H 975.782 -6.07146 -2.8779 0
M  V30 10449 N 978.502 0.731368 -1.39602 0
M  V30 10450 C 979.45 1.86676 -1.38761 0
M  V30 10451 C 980.444 1.6723 -0.270247 0
M  V30 10452 O 981.65 1.74528 -0.440471 0
M  V30 10453 H 978.025 0.614553 -0.433391 0
M  V30 10454 H 979.996 1.84501 -2.34525 0
M  V30 10455 C 978.745 3.24394 -1.25155 0
M  V30 10456 H 978.068 3.39955 -2.10406 0
M  V30 10457 H 979.508 4.04019 -1.28625 0
M  V30 10458 C 977.967 3.36877 0.0396976 0
M  V30 10459 O 978.497 3.88833 1.00854 0
M  V30 10460 N 976.703 2.90414 0.103965 0
M  V30 10461 H 976.25 2.48321 -0.685155 0
M  V30 10462 H 976.208 2.99146 0.967435 0
M  V30 10463 N 979.98 1.24838 0.961938 0
M  V30 10464 C 981.205 1.11967 1.7458 0
M  V30 10465 C 981.63 -0.323287 1.85301 0
M  V30 10466 O 980.988 -1.23412 1.32812 0
M  V30 10467 C 981.036 1.77066 3.14134 0
M  V30 10468 O 980.14 1.04534 3.98932 0
M  V30 10469 H 979.481 0.391338 0.536424 0
M  V30 10470 H 982.011 1.65259 1.20626 0
M  V30 10471 H 982.021 1.83056 3.64629 0
M  V30 10472 H 980.696 2.82052 3.05646 0
M  V30 10473 H 979.273 1.06372 3.57407 0
M  V30 10474 N 981.458 -1.16348 1.06306 0
M  V30 10475 C 982.735 -1.829 0.69331 0
M  V30 10476 C 983.115 -1.94298 -0.82531 0
M  V30 10477 O 982.463 -1.48619 -1.73565 0
M  V30 10478 C 982.673 -3.1989 1.3954 0
M  V30 10479 C 984.021 -3.95662 1.54068 0
M  V30 10480 O 985.045 -3.29408 1.35532 0
M  V30 10481 O 983.904 -5.14422 1.84479 0
M  V30 10482 H 980.998 -0.789738 0.245445 0
M  V30 10483 H 983.544 -1.23549 1.16334 0
M  V30 10484 H 982.316 -3.06629 2.43093 0
M  V30 10485 H 981.939 -3.86918 0.915453 0
M  V30 10486 N 982.937 -0.845659 -1.3299 0
M  V30 10487 C 984.185 -0.443774 -1.97168 0
M  V30 10488 C 984.506 1.00192 -1.67292 0
M  V30 10489 O 983.776 1.69891 -0.975397 0
M  V30 10490 H 982.356 -0.161111 -0.729419 0
M  V30 10491 H 985.018 -1.08011 -1.62233 0
M  V30 10492 H 984.114 -0.581414 -3.06637 0
M  V30 10493 N 984.415 1.45619 -0.602734 0
M  V30 10494 C 985.645 2.06348 -0.102105 0
M  V30 10495 C 986.053 1.44884 1.21677 0
M  V30 10496 O 985.396 0.555559 1.75098 0
M  V30 10497 C 985.458 3.59309 0.117026 0
M  V30 10498 C 985.122 4.43081 -1.11931 0
M  V30 10499 C 986.119 4.78364 -2.03627 0
M  V30 10500 C 983.804 4.83908 -1.34677 0
M  V30 10501 C 985.798 5.53325 -3.16403 0
M  V30 10502 C 983.485 5.58624 -2.47754 0
M  V30 10503 C 984.483 5.93249 -3.38445 0
M  V30 10504 O 984.171 6.6645 -4.49555 0
M  V30 10505 H 983.903 0.672988 -0.0637478 0
M  V30 10506 H 986.457 1.87928 -0.828983 0
M  V30 10507 H 984.687 3.76111 0.898742 0
M  V30 10508 H 986.376 4.01897 0.568649 0
M  V30 10509 H 987.142 4.47384 -1.87277 0
M  V30 10510 H 983.021 4.56396 -0.649875 0
M  V30 10511 H 986.565 5.80268 -3.87214 0
M  V30 10512 H 982.462 5.89019 -2.64059 0
M  V30 10513 H 983.23 6.84895 -4.48175 0
M  V30 10514 N 985.893 0.34162 1.53853 0
M  V30 10515 C 986.803 -0.524555 2.2866 0
M  V30 10516 C 987.819 -1.1136 1.33697 0
M  V30 10517 O 988.995 -1.1297 1.66732 0
M  V30 10518 C 986.06 -1.66065 3.04341 0
M  V30 10519 C 985.121 -1.10158 4.14926 0
M  V30 10520 C 984.354 -2.18353 4.86988 0
M  V30 10521 O 984.577 -3.39038 4.58704 0
M  V30 10522 O 983.511 -1.82756 5.73484 0
M  V30 10523 H 987.337 0.0835014 3.03585 0
M  V30 10524 H 984.922 0.106727 1.49018 0
M  V30 10525 H 986.804 -2.3217 3.51674 0
M  V30 10526 H 985.479 -2.25456 2.32275 0
M  V30 10527 H 984.386 -0.405109 3.719 0
M  V30 10528 H 985.719 -0.552567 4.89088 0
M  V30 10529 N 987.371 -1.57444 0.0701946 0
M  V30 10530 C 988.321 -2.09154 -0.90767 0
M  V30 10531 C 989.305 -1.00087 -1.25982 0
M  V30 10532 O 990.497 -1.26397 -1.23906 0
M  V30 10533 C 987.626 -2.65544 -2.17581 0
M  V30 10534 C 986.712 -3.81613 -1.85021 0
M  V30 10535 N 987.103 -4.90641 -1.22904 0
M  V30 10536 C 985.401 -3.90878 -2.1478 0
M  V30 10537 C 986.102 -5.71511 -1.084 0
M  V30 10538 N 985.078 -5.1973 -1.59318 0
M  V30 10539 H 988.88 -2.90839 -0.423051 0
M  V30 10540 H 986.394 -1.61848 -0.13374 0
M  V30 10541 H 988.391 -3.00904 -2.88552 0
M  V30 10542 H 987.051 -1.85304 -2.66632 0
M  V30 10543 H 988.062 -5.1004 -0.898878 0
M  V30 10544 H 984.739 -3.21611 -2.66219 0
M  V30 10545 H 986.129 -6.69214 -0.600183 0
M  V30 10546 N 988.849 0.203349 -1.56283 0
M  V30 10547 C 989.781 1.27592 -1.90402 0
M  V30 10548 C 990.794 1.4213 -0.79391 0
M  V30 10549 O 991.983 1.42703 -1.07229 0
M  V30 10550 C 989.083 2.64919 -2.11356 0
M  V30 10551 C 988.256 2.72095 -3.42466 0
M  V30 10552 C 987.315 3.9056 -3.52631 0
M  V30 10553 O 986.341 3.78048 -4.25521 0
M  V30 10554 N 987.543 5.0566 -2.85111 0
M  V30 10555 H 990.308 0.986423 -2.83001 0
M  V30 10556 H 987.869 0.39331 -1.5705 0
M  V30 10557 H 989.861 3.42581 -2.15453 0
M  V30 10558 H 988.431 2.86391 -1.25295 0
M  V30 10559 H 987.651 1.8077 -3.50308 0
M  V30 10560 H 988.939 2.73874 -4.28801 0
M  V30 10561 H 988.337 5.18723 -2.25705 0
M  V30 10562 H 986.894 5.81299 -2.94847 0
M  V30 10563 N 990.327 1.50405 0.470755 0
M  V30 10564 C 991.604 1.51929 1.23195 0
M  V30 10565 C 991.984 0.264159 2.09441 0
M  V30 10566 O 991.332 -0.752395 2.15757 0
M  V30 10567 C 991.542 2.81521 2.06269 0
M  V30 10568 C 992.89 3.32195 2.64446 0
M  V30 10569 O 993.914 2.82845 2.16511 0
M  V30 10570 O 992.773 4.18221 3.51786 0
M  V30 10571 H 989.867 0.609411 0.559059 0
M  V30 10572 H 992.413 1.62695 0.482549 0
M  V30 10573 H 991.185 3.64346 1.42715 0
M  V30 10574 H 990.808 2.7376 2.88342 0
M  V30 10575 N 991.805 -0.723954 1.39988 0
M  V30 10576 C 993.216 -1.30273 1.33738 0
M  V30 10577 C 993.567 -1.96199 0.00690581 0
M  V30 10578 O 992.692 -1.97016 -0.895179 0
M  V30 10579 C 993.287 -2.36889 2.42217 0
M  V30 10580 C 991.846 -2.90412 2.39453 0
M  V30 10581 C 990.993 -1.64103 2.2353 0
M  V30 10582 H 993.944 -0.520672 1.49916 0
M  V30 10583 H 993.965 -3.17538 2.09642 0
M  V30 10584 H 993.477 -1.88878 3.39038 0
M  V30 10585 H 991.578 -3.42674 1.46304 0
M  V30 10586 H 991.691 -3.42775 3.34727 0
M  V30 10587 H 990.055 -1.88855 1.70897 0
M  V30 10588 H 990.838 -1.18128 3.22336 0
M  V30 10589 N 993.283 -1.25346 -0.955304 0
M  V30 10590 C 994.246 -1.05754 -2.03344 0
M  V30 10591 C 995.246 -0.0105743 -1.60797 0
M  V30 10592 O 996.436 -0.252699 -1.72357 0
M  V30 10593 C 993.568 -0.605536 -3.35479 0
M  V30 10594 H 994.761 -2.01459 -2.22158 0
M  V30 10595 H 992.314 -1.07744 -1.1323 0
M  V30 10596 H 993.049 0.354154 -3.2236 0
M  V30 10597 H 992.834 -1.36134 -3.67709 0
M  V30 10598 H 994.324 -0.489867 -4.14717 0
M  V30 10599 N 994.761 1.15782 -1.06922 0
M  V30 10600 C 996.008 1.86465 -0.789752 0
M  V30 10601 C 996.336 1.82075 0.684022 0
M  V30 10602 O 995.591 1.23576 1.51748 0
M  V30 10603 C 995.89 3.35284 -1.2377 0
M  V30 10604 C 995.556 3.59871 -2.71668 0
M  V30 10605 C 994.218 3.6629 -3.12066 0
M  V30 10606 C 996.57 3.69929 -3.67154 0
M  V30 10607 C 993.898 3.80275 -4.46775 0
M  V30 10608 C 996.25 3.85436 -5.01619 0
M  V30 10609 C 994.914 3.901 -5.41644 0
M  V30 10610 H 994.184 0.682324 -0.288991 0
M  V30 10611 H 996.831 1.36861 -1.33945 0
M  V30 10612 H 995.136 3.87065 -0.607309 0
M  V30 10613 H 996.833 3.88371 -0.998431 0
M  V30 10614 H 993.423 3.55512 -2.39393 0
M  V30 10615 H 997.607 3.64274 -3.37073 0
M  V30 10616 H 992.863 3.8214 -4.77262 0
M  V30 10617 H 997.037 3.92161 -5.75485 0
M  V30 10618 H 994.664 4.00688 -6.46029 0
M  V30 10619 N 996.239 0.8527 1.3254 0
M  V30 10620 C 997.486 0.455123 1.97319 0
M  V30 10621 C 997.814 -0.988814 1.67489 0
M  V30 10622 O 997.069 -1.70845 0.954483 0
M  V30 10623 C 997.368 0.638757 3.51646 0
M  V30 10624 C 997.034 2.05287 4.01458 0
M  V30 10625 C 995.696 2.43963 4.14771 0
M  V30 10626 C 998.048 2.9759 4.27889 0
M  V30 10627 C 995.376 3.7422 4.51859 0
M  V30 10628 C 997.728 4.27343 4.66434 0
M  V30 10629 C 996.392 4.65957 4.77954 0
M  V30 10630 H 995.662 0.166541 0.722042 0
M  V30 10631 H 998.309 1.08238 1.57977 0
M  V30 10632 H 996.614 -0.0717394 3.91734 0
M  V30 10633 H 998.311 0.311219 3.9979 0
M  V30 10634 H 994.901 1.74253 3.91579 0
M  V30 10635 H 999.085 2.68942 4.17114 0
M  V30 10636 H 994.341 4.03923 4.58973 0
M  V30 10637 H 998.515 4.9893 4.85841 0
M  V30 10638 H 996.142 5.66934 5.06449 0
M  V30 10639 N 997.718 -1.45297 0.610449 0
M  V30 10640 C 998.966 -2.01819 0.106548 0
M  V30 10641 C 999.287 -1.48102 -1.26849 0
M  V30 10642 O 998.557 -0.676411 -1.83852 0
M  V30 10643 H 997.137 -0.746113 0.0363982 0
M  V30 10644 H 999.799 -1.78061 0.792491 0
M  V30 10645 H 998.895 -3.12045 0.0585 0
M  V30 10646 N 999.196 -0.349774 -1.5367 0
M  V30 10647 C 1000.13 0.538575 -2.22782 0
M  V30 10648 C 1001.14 1.05896 -1.23652 0
M  V30 10649 O 1002.33 0.968045 -1.4997 0
M  V30 10650 C 999.43 1.7546 -2.89943 0
M  V30 10651 C 998.603 1.36843 -4.15443 0
M  V30 10652 C 997.662 2.4448 -4.65957 0
M  V30 10653 O 996.688 2.07528 -5.3002 0
M  V30 10654 N 997.89 3.75829 -4.42417 0
M  V30 10655 H 1000.65 -0.053348 -2.99653 0
M  V30 10656 H 998.216 -0.174193 -1.6096 0
M  V30 10657 H 1000.21 2.46911 -3.20651 0
M  V30 10658 H 998.778 2.25375 -2.16622 0
M  V30 10659 H 997.998 0.484421 -3.91212 0
M  V30 10660 H 999.286 1.0865 -4.97064 0
M  V30 10661 H 998.684 4.08635 -3.91196 0
M  V30 10662 H 997.241 4.43432 -4.77714 0
M  V30 10663 N 1000.67 1.57404 -0.0785433 0
M  V30 10664 C 1001.62 2.14316 0.903949 0
M  V30 10665 C 1002.62 1.08176 1.30362 0
M  V30 10666 O 1003.82 1.26546 1.28008 0
M  V30 10667 H 1000.2 0.685367 0.309477 0
M  V30 10668 H 1002.17 2.95719 0.399081 0
M  V30 10669 C 1000.92 2.72504 2.15956 0
M  V30 10670 H 1000.24 3.53853 1.86087 0
M  V30 10671 H 1001.68 3.15914 2.82798 0
M  V30 10672 C 1000.14 1.6759 2.92259 0
M  V30 10673 O 1000.67 1.10492 3.86205 0
M  V30 10674 N 998.875 1.38467 2.5549 0
M  V30 10675 H 998.422 1.85088 1.79166 0
M  V30 10676 H 998.38 0.685053 3.06846 0
M  V30 10677 N 1002.15 -0.195058 1.56388 0
M  V30 10678 C 1003.38 -0.935745 1.85091 0
M  V30 10679 C 1003.8 -1.76061 0.662118 0
M  V30 10680 O 1003.16 -1.77076 -0.389083 0
M  V30 10681 C 1003.21 -1.80764 3.1202 0
M  V30 10682 O 1002.31 -2.90643 2.92575 0
M  V30 10683 H 1001.65 -0.26351 0.609474 0
M  V30 10684 H 1004.18 -0.200362 2.03617 0
M  V30 10685 H 1004.19 -2.21229 3.42815 0
M  V30 10686 H 1002.87 -1.20157 3.98165 0
M  V30 10687 H 1001.44 -2.53934 2.73079 0
M  V30 10688 N 1003.63 -1.50653 -0.462772 0
M  V30 10689 C 1004.56 -1.73056 -1.5676 0
M  V30 10690 C 1005.54 -0.579699 -1.59917 0
M  V30 10691 O 1006.73 -0.819729 -1.76051 0
M  V30 10692 C 1003.86 -1.83234 -2.9503 0
M  V30 10693 C 1002.81 -2.98488 -3.06739 0
M  V30 10694 C 1002.14 -2.93818 -4.46738 0
M  V30 10695 C 1003.44 -4.38869 -2.83181 0
M  V30 10696 H 1005.13 -2.65562 -1.38265 0
M  V30 10697 H 1002.68 -1.27792 -0.663722 0
M  V30 10698 H 1004.63 -1.97491 -3.72257 0
M  V30 10699 H 1003.35 -0.873558 -3.14701 0
M  V30 10700 H 1002.01 -2.83895 -2.31946 0
M  V30 10701 H 1001.66 -1.95769 -4.63339 0
M  V30 10702 H 1001.36 -3.71197 -4.55507 0
M  V30 10703 H 1002.88 -3.10135 -5.25974 0
M  V30 10704 H 1004.3 -4.53945 -3.50153 0
M  V30 10705 H 1002.69 -5.17762 -3.03386 0
M  V30 10706 H 1003.76 -4.50663 -1.78972 0
M  V30 10707 N 1005.11 0.71652 -1.4037 0
M  V30 10708 C 1006.04 1.84345 -1.43315 0
M  V30 10709 C 1007.02 1.67537 -0.294186 0
M  V30 10710 O 1008.2 1.87582 -0.502671 0
M  V30 10711 C 1005.33 3.2229 -1.29408 0
M  V30 10712 C 1004.29 3.53769 -2.40897 0
M  V30 10713 C 1003.61 4.90847 -2.12068 0
M  V30 10714 C 1004.91 3.54862 -3.83237 0
M  V30 10715 H 1006.61 1.82138 -2.37626 0
M  V30 10716 H 1004.15 0.874873 -1.14376 0
M  V30 10717 H 1006.11 4.00819 -1.30085 0
M  V30 10718 H 1004.83 3.2507 -0.31573 0
M  V30 10719 H 1003.49 2.77579 -2.39469 0
M  V30 10720 H 1003.14 4.90229 -1.12626 0
M  V30 10721 H 1002.84 5.12875 -2.86762 0
M  V30 10722 H 1004.36 5.71711 -2.14426 0
M  V30 10723 H 1005.78 4.23432 -3.86494 0
M  V30 10724 H 1004.17 3.88416 -4.57442 0
M  V30 10725 H 1005.24 2.54266 -4.12888 0
M  V30 10726 N 1006.59 1.25851 0.948643 0
M  V30 10727 C 1007.83 1.11119 1.69648 0
M  V30 10728 C 1008.17 -0.345995 1.91093 0
M  V30 10729 O 1007.44 -1.25467 1.48621 0
M  V30 10730 C 1007.72 1.87261 3.0758 0
M  V30 10731 C 1007.58 3.40842 2.93507 0
M  V30 10732 C 1008.9 1.6605 4.07573 0
M  V30 10733 H 1006.01 0.405052 0.615713 0
M  V30 10734 H 1008.66 1.54756 1.10229 0
M  V30 10735 H 1006.81 1.50172 3.58303 0
M  V30 10736 H 1008.48 3.87641 2.50064 0
M  V30 10737 H 1006.72 3.68248 2.29294 0
M  V30 10738 H 1007.39 3.89339 3.91305 0
M  V30 10739 H 1009.87 1.98348 3.65783 0
M  V30 10740 H 1008.74 2.21753 5.02113 0
M  V30 10741 H 1009.01 0.603256 4.37965 0
M  V30 10742 N 1008.06 -1.15214 1.07534 0
M  V30 10743 C 1009.01 -2.20013 0.697337 0
M  V30 10744 C 1009.98 -1.6314 -0.312168 0
M  V30 10745 O 1011.17 -1.89768 -0.198196 0
M  V30 10746 C 1008.31 -3.44945 0.103293 0
M  V30 10747 C 1007.42 -4.16009 1.1645 0
M  V30 10748 C 1006.55 -5.28496 0.535261 0
M  V30 10749 C 1005.59 -5.9138 1.57912 0
M  V30 10750 N 1004.73 -6.95335 0.972332 0
M  V30 10751 H 1009.57 -2.51698 1.59538 0
M  V30 10752 H 1007.11 -1.2361 0.797431 0
M  V30 10753 H 1009.07 -4.16397 -0.258766 0
M  V30 10754 H 1007.7 -3.13772 -0.758096 0
M  V30 10755 H 1006.75 -3.43035 1.64411 0
M  V30 10756 H 1008.06 -4.58853 1.9559 0
M  V30 10757 H 1007.21 -6.06579 0.120942 0
M  V30 10758 H 1005.95 -4.8685 -0.287889 0
M  V30 10759 H 1004.96 -5.12008 2.0032 0
M  V30 10760 H 1006.18 -6.35103 2.40459 0
M  V30 10761 H 1004.13 -6.55779 0.170119 0
M  V30 10762 H 1004.05 -7.36616 1.70095 0
M  V30 10763 H 1005.31 -7.77312 0.583577 0
M  V30 10764 N 1009.54 -0.859717 -1.32086 0
M  V30 10765 C 1010.77 -0.478865 -2.01796 0
M  V30 10766 C 1011.19 0.918274 -1.64163 0
M  V30 10767 O 1010.55 1.60409 -0.844896 0
M  V30 10768 C 1010.6 -0.631356 -3.5503 0
M  V30 10769 O 1009.7 0.333712 -4.11048 0
M  V30 10770 H 1009.04 -0.191775 -0.635703 0
M  V30 10771 H 1011.57 -1.16031 -1.68517 0
M  V30 10772 H 1011.58 -0.520783 -4.04663 0
M  V30 10773 H 1010.26 -1.65015 -3.81763 0
M  V30 10774 H 1008.84 0.178953 -3.7247 0
M  V30 10775 N 1011.02 1.44971 -0.618145 0
M  V30 10776 C 1012.25 2.07039 -0.122395 0
M  V30 10777 C 1012.67 1.45793 1.18853 0
M  V30 10778 O 1012.03 0.55453 1.72611 0
M  V30 10779 C 1012.08 3.60599 -0.0073864 0
M  V30 10780 O 1011.18 3.99069 1.04007 0
M  V30 10781 H 1010.52 0.6593 -0.0788615 0
M  V30 10782 H 1013.05 1.86055 -0.851147 0
M  V30 10783 H 1013.06 4.07569 0.187417 0
M  V30 10784 H 1011.74 4.04561 -0.964544 0
M  V30 10785 H 1010.31 3.63753 0.820879 0
M  V30 10786 N 1012.5 0.357919 1.53482 0
M  V30 10787 C 1013.91 0.00655107 1.59599 0
M  V30 10788 C 1014.11 -1.47449 1.37336 0
M  V30 10789 O 1013.17 -2.2351 1.17472 0
M  V30 10790 C 1014.48 0.455617 2.97228 0
M  V30 10791 C 1016.03 0.409183 3.10314 0
M  V30 10792 C 1016.51 0.833941 4.50344 0
M  V30 10793 N 1018 0.788695 4.56436 0
M  V30 10794 C 1018.73 1.08914 5.62961 0
M  V30 10795 N 1018.23 1.45847 6.77274 0
M  V30 10796 N 1020.02 1.01243 5.52907 0
M  V30 10797 H 1012.17 1.32248 1.66206 0
M  V30 10798 H 1014.44 0.540047 0.779136 0
M  V30 10799 H 1014.14 1.48881 3.18634 0
M  V30 10800 H 1014.02 -0.161751 3.76853 0
M  V30 10801 H 1016.4 -0.614863 2.88623 0
M  V30 10802 H 1016.48 1.06195 2.32715 0
M  V30 10803 H 1016.13 1.85607 4.72771 0
M  V30 10804 H 1016.06 0.158507 5.26361 0
M  V30 10805 H 1018.55 0.516497 3.74354 0
M  V30 10806 H 1018.86 1.67218 7.54492 0
M  V30 10807 H 1017.21 1.49705 6.78685 0
M  V30 10808 H 1020.4 0.723137 4.62481 0
M  V30 10809 H 1020.57 1.24991 6.35831 0
M  V30 10810 N 1013.98 -1.5736 0.0868897 0
M  V30 10811 C 1014.91 -2.10582 -0.904858 0
M  V30 10812 C 1015.92 -1.04124 -1.25148 0
M  V30 10813 O 1017.11 -1.31595 -1.20603 0
M  V30 10814 C 1014.21 -2.56381 -2.21635 0
M  V30 10815 C 1013.38 -3.86581 -2.04631 0
M  V30 10816 C 1012.44 -4.18313 -3.19219 0
M  V30 10817 O 1011.47 -4.87669 -2.93544 0
M  V30 10818 N 1012.67 -3.73061 -4.44754 0
M  V30 10819 H 1015.44 -2.96297 -0.450352 0
M  V30 10820 H 1013 -1.616 -0.0984376 0
M  V30 10821 H 1014.99 -2.7466 -2.97227 0
M  V30 10822 H 1013.56 -1.75721 -2.58536 0
M  V30 10823 H 1012.78 -3.77532 -1.13417 0
M  V30 10824 H 1014.07 -4.71777 -1.90537 0
M  V30 10825 H 1013.46 -3.1706 -4.68497 0
M  V30 10826 H 1012.02 -3.96511 -5.17322 0
M  V30 10827 N 1015.45 0.186762 -1.56489 0
M  V30 10828 C 1016.68 0.920495 -1.84961 0
M  V30 10829 C 1017.09 1.77004 -0.668297 0
M  V30 10830 O 1016.44 1.79891 0.37213 0
M  V30 10831 C 1016.5 1.85997 -3.07645 0
M  V30 10832 C 1016.16 1.19156 -4.41193 0
M  V30 10833 C 1017.16 0.564446 -5.16827 0
M  V30 10834 C 1014.84 1.19292 -4.87929 0
M  V30 10835 C 1016.84 -0.0523768 -6.37378 0
M  V30 10836 C 1014.52 0.572266 -6.08415 0
M  V30 10837 C 1015.52 -0.049294 -6.82982 0
M  V30 10838 O 1015.21 -0.660201 -8.01184 0
M  V30 10839 H 1014.94 0.273659 -0.618132 0
M  V30 10840 H 1017.5 0.196437 -2.04459 0
M  V30 10841 H 1015.73 2.62394 -2.84053 0
M  V30 10842 H 1017.42 2.46221 -3.22692 0
M  V30 10843 H 1018.18 0.555474 -4.81809 0
M  V30 10844 H 1014.06 1.66611 -4.29839 0
M  V30 10845 H 1017.6 -0.538133 -6.95521 0
M  V30 10846 H 1013.5 0.578769 -6.429 0
M  V30 10847 H 1014.27 -0.557926 -8.16596 0
M  V30 10848 N 1016.93 1.50896 0.454776 0
M  V30 10849 C 1017.86 1.73885 1.5584 0
M  V30 10850 C 1018.84 0.588172 1.59607 0
M  V30 10851 O 1020.03 0.829054 1.75614 0
M  V30 10852 C 1017.16 1.84796 2.94054 0
M  V30 10853 C 1016.11 3.00111 3.05152 0
M  V30 10854 C 1015.44 2.96183 4.45174 0
M  V30 10855 C 1016.74 4.40365 2.80849 0
M  V30 10856 H 1018.43 2.66292 1.36854 0
M  V30 10857 H 1015.98 1.28142 0.656936 0
M  V30 10858 H 1017.93 1.99462 3.71204 0
M  V30 10859 H 1016.66 0.890235 3.14233 0
M  V30 10860 H 1015.31 2.85121 2.30438 0
M  V30 10861 H 1014.96 1.98224 4.62295 0
M  V30 10862 H 1014.66 3.73608 4.53532 0
M  V30 10863 H 1016.19 3.1292 5.24322 0
M  V30 10864 H 1017.6 4.55795 3.47741 0
M  V30 10865 H 1016 5.19363 3.00636 0
M  V30 10866 H 1017.07 4.51606 1.76579 0
M  V30 10867 N 1018.41 -0.709066 1.40748 0
M  V30 10868 C 1019.64 -1.49808 1.42707 0
M  V30 10869 C 1020.05 -1.88778 0.0285574 0
M  V30 10870 O 1019.41 -1.55883 -0.949035 0
M  V30 10871 C 1019.46 -2.76926 2.32366 0
M  V30 10872 O 1019.18 -2.39602 3.66773 0
M  V30 10873 C 1020.68 -3.70773 2.42986 0
M  V30 10874 H 1017.9 -0.462106 0.486517 0
M  V30 10875 H 1020.45 -0.874135 1.84876 0
M  V30 10876 H 1018.6 -3.3559 1.93541 0
M  V30 10877 H 1019.02 -3.21443 4.14457 0
M  V30 10878 H 1020.49 -4.56789 3.09916 0
M  V30 10879 H 1020.97 -4.14332 1.45691 0
M  V30 10880 H 1021.57 -3.18019 2.8239 0
M  V30 10881 N 1019.89 -1.26353 -0.941956 0
M  V30 10882 C 1021.14 -1.11241 -1.68251 0
M  V30 10883 C 1021.45 0.344055 -1.9255 0
M  V30 10884 O 1022.66 0.615832 -2.64423 0
M  V30 10885 C 1021.11 -1.94269 -3.02965 0
M  V30 10886 C 1020.72 -3.44485 -2.86415 0
M  V30 10887 C 1022.47 -1.87764 -3.80716 0
M  V30 10888 C 1020.37 -4.19763 -4.16597 0
M  V30 10889 H 1019.3 -0.412694 -0.63103 0
M  V30 10890 H 1021.95 -1.50656 -1.04762 0
M  V30 10891 H 1020.34 -1.47687 -3.6743 0
M  V30 10892 H 1021.51 -3.9883 -2.30805 0
M  V30 10893 H 1019.82 -3.52218 -2.22107 0
M  V30 10894 H 1022.42 -2.41292 -4.77161 0
M  V30 10895 H 1022.76 -0.848195 -4.07568 0
M  V30 10896 H 1023.3 -2.32165 -3.23024 0
M  V30 10897 H 1020.04 -5.23173 -3.9493 0
M  V30 10898 H 1019.56 -3.70198 -4.71925 0
M  V30 10899 H 1021.24 -4.28168 -4.85058 0
M  V30 10900 N 1021.37 1.14642 -1.08144 0
M  V30 10901 C 1022.78 1.37604 -0.808537 0
M  V30 10902 C 1022.98 1.92868 0.583452 0
M  V30 10903 O 1022.04 2.13964 1.34073 0
M  V30 10904 C 1023.35 2.3396 -1.889 0
M  V30 10905 C 1024.9 2.47605 -1.9147 0
M  V30 10906 C 1025.38 3.47258 -2.98623 0
M  V30 10907 N 1026.87 3.548 -2.97777 0
M  V30 10908 C 1027.6 4.31751 -3.77331 0
M  V30 10909 N 1027.1 5.11966 -4.66757 0
M  V30 10910 N 1028.89 4.2692 -3.65645 0
M  V30 10911 H 1021.04 0.771154 -1.97906 0
M  V30 10912 H 1023.3 0.401694 -0.858688 0
M  V30 10913 H 1023.01 2.00484 -2.88962 0
M  V30 10914 H 1022.88 3.33833 -1.756 0
M  V30 10915 H 1025.27 2.80375 -0.920548 0
M  V30 10916 H 1025.35 1.47702 -2.08848 0
M  V30 10917 H 1025 3.15223 -3.98243 0
M  V30 10918 H 1024.93 4.46935 -2.7849 0
M  V30 10919 H 1027.42 2.97553 -2.3296 0
M  V30 10920 H 1027.73 5.67951 -5.24072 0
M  V30 10921 H 1026.08 5.11245 -4.70801 0
M  V30 10922 H 1029.27 3.63322 -2.95152 0
M  V30 10923 H 1029.44 4.8664 -4.27885 0
M  V30 10924 N 1022.85 0.866709 1.31628 0
M  V30 10925 C 1024.08 0.489679 2.00713 0
M  V30 10926 C 1024.48 -0.921492 1.65243 0
M  V30 10927 O 1023.83 -1.61467 0.876012 0
M  V30 10928 C 1023.89 0.563148 3.55062 0
M  V30 10929 C 1023.55 1.93535 4.13996 0
M  V30 10930 C 1024.55 2.90243 4.31341 0
M  V30 10931 C 1022.23 2.23578 4.49798 0
M  V30 10932 C 1024.23 4.15138 4.83673 0
M  V30 10933 C 1021.92 3.48723 5.01832 0
M  V30 10934 C 1022.91 4.44319 5.18719 0
M  V30 10935 O 1022.6 5.67247 5.69637 0
M  V30 10936 H 1022.33 0.189605 0.648865 0
M  V30 10937 H 1024.89 1.16874 1.68907 0
M  V30 10938 H 1023.12 -0.172815 3.86314 0
M  V30 10939 H 1024.81 0.200009 4.05407 0
M  V30 10940 H 1025.57 2.6834 4.04003 0
M  V30 10941 H 1021.45 1.49949 4.35932 0
M  V30 10942 H 1025 4.89762 4.96769 0
M  V30 10943 H 1020.89 3.70471 5.28603 0
M  V30 10944 H 1021.66 5.69372 5.88011 0
M  V30 10945 N 1024.32 -1.44642 0.625825 0
M  V30 10946 C 1025.55 -2.06458 0.135116 0
M  V30 10947 C 1025.97 -1.46729 -1.18811 0
M  V30 10948 O 1025.32 -0.58818 -1.72762 0
M  V30 10949 C 1025.37 -3.61499 0.00850114 0
M  V30 10950 O 1025.1 -4.19002 1.2794 0
M  V30 10951 C 1026.6 -4.40339 -0.511527 0
M  V30 10952 H 1023.82 -0.666541 0.0772294 0
M  V30 10953 H 1026.36 -1.85597 0.858726 0
M  V30 10954 H 1024.52 -3.81641 -0.665522 0
M  V30 10955 H 1024.93 -5.12385 1.12081 0
M  V30 10956 H 1026.4 -5.49262 -0.549149 0
M  V30 10957 H 1026.88 -4.11409 -1.53752 0
M  V30 10958 H 1027.49 -4.25104 0.129066 0
M  V30 10959 N 1025.8 -0.366053 -1.5329 0
M  V30 10960 C 1026.73 0.47211 -2.28677 0
M  V30 10961 C 1027.71 1.08353 -1.31125 0
M  V30 10962 O 1028.9 1.10069 -1.59995 0
M  V30 10963 C 1026.03 1.61174 -3.07637 0
M  V30 10964 C 1024.98 1.12755 -4.12881 0
M  V30 10965 C 1024.31 2.35745 -4.79925 0
M  V30 10966 C 1025.61 0.211954 -5.2187 0
M  V30 10967 H 1027.3 -0.156838 -2.98989 0
M  V30 10968 H 1024.85 -0.0768709 -1.43795 0
M  V30 10969 H 1026.8 2.20473 -3.59123 0
M  V30 10970 H 1025.52 2.26793 -2.35016 0
M  V30 10971 H 1024.18 0.557234 -3.6234 0
M  V30 10972 H 1023.83 2.99821 -4.03877 0
M  V30 10973 H 1023.53 2.04019 -5.51044 0
M  V30 10974 H 1025.06 2.95729 -5.34207 0
M  V30 10975 H 1026.47 0.71244 -5.68856 0
M  V30 10976 H 1024.87 -0.0144501 -6.00098 0
M  V30 10977 H 1025.94 -0.745753 -4.79131 0
M  V30 10978 N 1027.28 1.57312 -0.0952337 0
M  V30 10979 C 1028.21 2.17056 0.860753 0
M  V30 10980 C 1029.19 1.10394 1.29411 0
M  V30 10981 O 1030.38 1.38532 1.36098 0
M  V30 10982 C 1027.51 2.751 2.11984 0
M  V30 10983 C 1026.46 3.87136 1.8251 0
M  V30 10984 C 1025.79 4.31883 3.15247 0
M  V30 10985 C 1027.09 5.10326 1.11194 0
M  V30 10986 H 1028.78 2.97192 0.362983 0
M  V30 10987 H 1026.33 1.42955 0.173151 0
M  V30 10988 H 1028.28 3.15547 2.79299 0
M  V30 10989 H 1027 1.92219 2.64044 0
M  V30 10990 H 1025.66 3.47229 1.17592 0
M  V30 10991 H 1025.31 3.45893 3.65195 0
M  V30 10992 H 1025.01 5.0742 2.96309 0
M  V30 10993 H 1026.53 4.74964 3.83721 0
M  V30 10994 H 1027.95 5.47942 1.6862 0
M  V30 10995 H 1026.34 5.91293 1.02435 0
M  V30 10996 H 1027.41 4.84807 0.0947227 0
M  V30 10997 N 1028.76 -0.17846 1.56586 0
M  V30 10998 C 1030.17 -0.741599 1.71339 0
M  V30 10999 C 1030.52 -1.83112 0.704579 0
M  V30 11000 O 1029.64 -2.15975 -0.135557 0
M  V30 11001 C 1030.24 -1.35198 3.10656 0
M  V30 11002 C 1028.8 -1.86202 3.27118 0
M  V30 11003 C 1027.95 -0.738255 2.67292 0
M  V30 11004 H 1030.9 0.0468424 1.58631 0
M  V30 11005 H 1030.92 -2.2216 3.0891 0
M  V30 11006 H 1030.43 -0.558776 3.84056 0
M  V30 11007 H 1028.53 -2.68188 2.58661 0
M  V30 11008 H 1028.64 -2.01237 4.34788 0
M  V30 11009 H 1027.01 -1.15686 2.26912 0
M  V30 11010 H 1027.79 0.0429821 3.43273 0
M  V30 11011 N 1030.24 -1.51135 -0.446768 0
M  V30 11012 C 1031.48 -1.63336 -1.19698 0
M  V30 11013 C 1031.81 -0.345099 -1.91414 0
M  V30 11014 O 1031.07 0.670365 -1.8386 0
M  V30 11015 C 1031.36 -2.78034 -2.2457 0
M  V30 11016 C 1031.03 -4.17652 -1.69934 0
M  V30 11017 C 1029.69 -4.55636 -1.54756 0
M  V30 11018 C 1032.04 -5.04813 -1.29665 0
M  V30 11019 C 1029.37 -5.78496 -0.977689 0
M  V30 11020 C 1031.72 -6.28244 -0.741112 0
M  V30 11021 C 1030.39 -6.65009 -0.576156 0
M  V30 11022 H 1029.66 -0.597689 -0.438006 0
M  V30 11023 H 1032.31 -1.85141 -0.48939 0
M  V30 11024 H 1030.61 -2.50413 -3.01331 0
M  V30 11025 H 1032.31 -2.84675 -2.8242 0
M  V30 11026 H 1028.9 -3.87699 -1.82722 0
M  V30 11027 H 1033.08 -4.76081 -1.40216 0
M  V30 11028 H 1028.34 -6.05636 -0.837563 0
M  V30 11029 H 1032.51 -6.95129 -0.42053 0
M  V30 11030 H 1030.14 -7.60085 -0.132443 0
M  V30 11031 N 1031.71 0.701592 -1.41122 0
M  V30 11032 C 1032.64 1.82815 -1.45262 0
M  V30 11033 C 1033.62 1.67215 -0.311939 0
M  V30 11034 O 1034.81 1.87038 -0.522538 0
M  V30 11035 C 1031.94 3.20899 -1.32819 0
M  V30 11036 C 1030.89 3.51194 -2.44636 0
M  V30 11037 C 1030.22 4.8857 -2.17263 0
M  V30 11038 C 1031.52 3.50777 -3.86979 0
M  V30 11039 H 1033.21 1.79608 -2.39544 0
M  V30 11040 H 1030.76 0.862693 -1.15298 0
M  V30 11041 H 1032.71 3.99417 -1.34329 0
M  V30 11042 H 1031.44 3.24717 -0.350191 0
M  V30 11043 H 1030.1 2.75024 -2.42399 0
M  V30 11044 H 1029.74 4.89007 -1.17819 0
M  V30 11045 H 1029.44 5.09805 -2.92186 0
M  V30 11046 H 1030.97 5.69405 -2.20478 0
M  V30 11047 H 1032.38 4.19309 -3.90964 0
M  V30 11048 H 1030.78 3.83542 -4.61536 0
M  V30 11049 H 1031.85 2.49873 -4.15562 0
M  V30 11050 N 1033.19 1.2685 0.935242 0
M  V30 11051 C 1034.42 1.15371 1.71386 0
M  V30 11052 C 1034.83 -0.293048 1.86917 0
M  V30 11053 O 1034.17 -1.212 1.38044 0
M  V30 11054 C 1034.23 1.75652 3.13666 0
M  V30 11055 C 1033.9 3.24788 3.215 0
M  V30 11056 C 1034.9 4.21525 3.04323 0
M  V30 11057 C 1032.58 3.65359 3.447 0
M  V30 11058 C 1034.57 5.56812 3.10224 0
M  V30 11059 C 1032.26 5.00778 3.50235 0
M  V30 11060 C 1033.26 5.96314 3.33014 0
M  V30 11061 O 1032.95 7.29266 3.38269 0
M  V30 11062 H 1032.68 0.40234 0.54323 0
M  V30 11063 H 1035.23 1.68083 1.18056 0
M  V30 11064 H 1033.46 1.17408 3.68446 0
M  V30 11065 H 1035.15 1.58994 3.73465 0
M  V30 11066 H 1035.92 3.91519 2.86249 0
M  V30 11067 H 1031.8 2.91479 3.57157 0
M  V30 11068 H 1035.34 6.3136 2.967 0
M  V30 11069 H 1031.24 5.30444 3.67831 0
M  V30 11070 H 1032.01 7.37616 3.54774 0
M  V30 11071 N 1034.67 -1.14067 1.0875 0
M  V30 11072 C 1035.9 -1.89041 0.840902 0
M  V30 11073 C 1036.31 -1.78768 -0.60725 0
M  V30 11074 O 1035.67 -1.14945 -1.41753 0
M  V30 11075 C 1035.72 -3.38891 1.25838 0
M  V30 11076 O 1035.44 -3.48886 2.64972 0
M  V30 11077 C 1036.94 -4.30852 1.04315 0
M  V30 11078 H 1034.16 -0.598685 0.303014 0
M  V30 11079 H 1036.71 -1.44438 1.44769 0
M  V30 11080 H 1034.86 -3.81103 0.695627 0
M  V30 11081 H 1035.28 -4.41989 2.82393 0
M  V30 11082 H 1036.75 -5.34353 1.38461 0
M  V30 11083 H 1037.23 -4.39196 -0.0195784 0
M  V30 11084 H 1037.83 -3.944 1.59151 0
M  V30 11085 N 1036.15 -0.873678 -1.31166 0
M  V30 11086 C 1037.08 -0.348011 -2.30892 0
M  V30 11087 C 1038.06 0.563092 -1.60509 0
M  V30 11088 O 1039.24 0.479332 -1.88192 0
M  V30 11089 C 1036.37 0.448158 -3.44396 0
M  V30 11090 C 1035.33 -0.370179 -4.26396 0
M  V30 11091 C 1034.65 0.551903 -5.31844 0
M  V30 11092 C 1035.95 -1.60624 -4.96988 0
M  V30 11093 H 1037.65 -1.18134 -2.75109 0
M  V30 11094 H 1035.19 -0.569502 -1.3226 0
M  V30 11095 H 1037.15 0.826458 -4.13216 0
M  V30 11096 H 1035.87 1.31503 -2.98956 0
M  V30 11097 H 1034.53 -0.730472 -3.59249 0
M  V30 11098 H 1034.18 1.41616 -4.82653 0
M  V30 11099 H 1033.88 0.00823478 -5.87599 0
M  V30 11100 H 1035.4 0.926965 -6.03523 0
M  V30 11101 H 1036.82 -1.29917 -5.58386 0
M  V30 11102 H 1035.21 -2.08926 -5.62557 0
M  V30 11103 H 1036.28 -2.357 -4.23761 0
M  V30 11104 N 1037.63 1.44308 -0.633487 0
M  V30 11105 C 1038.87 2.02023 -0.138917 0
M  V30 11106 C 1039.2 1.49841 1.24008 0
M  V30 11107 O 1038.46 0.673718 1.83738 0
M  V30 11108 C 1038.76 3.57316 -0.0773886 0
M  V30 11109 C 1038.42 4.28762 -1.39548 0
M  V30 11110 C 1037.08 4.47997 -1.75648 0
M  V30 11111 C 1039.44 4.69391 -2.26542 0
M  V30 11112 C 1036.76 5.05121 -2.98445 0
M  V30 11113 C 1039.12 5.27876 -3.48612 0
M  V30 11114 C 1037.78 5.45329 -3.84932 0
M  V30 11115 H 1037.05 0.739254 -0.0508333 0
M  V30 11116 H 1039.7 1.73043 -0.820271 0
M  V30 11117 H 1038 3.85724 0.687345 0
M  V30 11118 H 1039.7 3.99706 0.321837 0
M  V30 11119 H 1036.29 4.14122 -1.10456 0
M  V30 11120 H 1040.47 4.54241 -1.99946 0
M  V30 11121 H 1035.73 5.16821 -3.26658 0
M  V30 11122 H 1039.9 5.58307 -4.16253 0
M  V30 11123 H 1037.53 5.8936 -4.80166 0
M  V30 11124 N 1039.1 0.374177 1.53094 0
M  V30 11125 C 1040.33 -0.213015 2.05499 0
M  V30 11126 C 1040.74 -1.42303 1.24686 0
M  V30 11127 O 1040.09 -1.81512 0.282702 0
M  V30 11128 C 1040.15 -0.662308 3.53346 0
M  V30 11129 C 1039.81 0.432183 4.54952 0
M  V30 11130 C 1040.81 1.2848 5.03775 0
M  V30 11131 C 1038.49 0.594887 4.98765 0
M  V30 11132 C 1040.49 2.28538 5.9502 0
M  V30 11133 C 1038.17 1.59882 5.89814 0
M  V30 11134 C 1039.17 2.4425 6.37833 0
M  V30 11135 O 1038.86 3.4293 7.27086 0
M  V30 11136 H 1038.59 -0.0393809 0.674852 0
M  V30 11137 H 1041.15 0.533423 1.98353 0
M  V30 11138 H 1039.38 -1.46049 3.5806 0
M  V30 11139 H 1041.07 -1.17347 3.88567 0
M  V30 11140 H 1041.83 1.17033 4.70668 0
M  V30 11141 H 1037.71 -0.0520401 4.60971 0
M  V30 11142 H 1041.25 2.94426 6.32423 0
M  V30 11143 H 1037.15 1.71373 6.22335 0
M  V30 11144 H 1037.92 3.3876 7.45107 0
M  V30 11145 N 1040.58 -1.57259 0.103575 0
M  V30 11146 C 1041.53 -2.14487 -0.852295 0
M  V30 11147 C 1042.5 -1.06567 -1.27407 0
M  V30 11148 O 1043.68 -1.34398 -1.35432 0
M  V30 11149 C 1040.82 -2.73632 -2.10284 0
M  V30 11150 C 1039.94 -3.95811 -1.73083 0
M  V30 11151 C 1039.07 -4.43093 -2.92988 0
M  V30 11152 C 1038.11 -5.5784 -2.51953 0
M  V30 11153 N 1037.25 -5.99936 -3.64721 0
M  V30 11154 H 1042.09 -2.95849 -0.35743 0
M  V30 11155 H 1039.63 -1.46175 -0.164748 0
M  V30 11156 H 1041.58 -3.06046 -2.83534 0
M  V30 11157 H 1040.21 -1.94985 -2.57256 0
M  V30 11158 H 1039.27 -3.69656 -0.897688 0
M  V30 11159 H 1040.58 -4.79066 -1.38916 0
M  V30 11160 H 1039.73 -4.77335 -3.74481 0
M  V30 11161 H 1038.47 -3.58756 -3.30372 0
M  V30 11162 H 1037.48 -5.23217 -1.6889 0
M  V30 11163 H 1038.7 -6.43932 -2.15705 0
M  V30 11164 H 1036.65 -5.18543 -4.01807 0
M  V30 11165 H 1036.56 -6.78008 -3.34427 0
M  V30 11166 H 1037.83 -6.38812 -4.46699 0
M  V30 11167 N 1042.06 0.170153 -1.56679 0
M  V30 11168 C 1043.02 1.19443 -1.95617 0
M  V30 11169 C 1044.02 1.37118 -0.83996 0
M  V30 11170 O 1045.21 1.34504 -1.10699 0
M  V30 11171 C 1042.35 2.55926 -2.25199 0
M  V30 11172 H 1043.54 0.86095 -2.87276 0
M  V30 11173 H 1041.09 0.412646 -1.50755 0
M  V30 11174 H 1041.83 2.94286 -1.36257 0
M  V30 11175 H 1041.61 2.44464 -3.06562 0
M  V30 11176 H 1043.1 3.29742 -2.56242 0
M  V30 11177 N 1043.54 1.5137 0.438746 0
M  V30 11178 C 1044.49 1.68966 1.53083 0
M  V30 11179 C 1045.47 0.543669 1.51437 0
M  V30 11180 O 1046.66 0.799519 1.57914 0
M  V30 11181 C 1043.79 1.8168 2.91286 0
M  V30 11182 C 1042.88 3.02059 2.97693 0
M  V30 11183 N 1043.27 4.25254 2.73848 0
M  V30 11184 C 1041.57 3.01284 3.28852 0
M  V30 11185 C 1042.27 5.06501 2.86062 0
M  V30 11186 N 1041.25 4.41119 3.17671 0
M  V30 11187 H 1045.05 2.61883 1.33397 0
M  V30 11188 H 1042.56 1.48997 0.64603 0
M  V30 11189 H 1044.56 1.92396 3.6985 0
M  V30 11190 H 1043.22 0.899438 3.11994 0
M  V30 11191 H 1044.23 4.54222 2.48803 0
M  V30 11192 H 1040.91 2.19174 3.55344 0
M  V30 11193 H 1042.3 6.14563 2.71592 0
M  V30 11194 N 1045.02 -0.694098 1.41492 0
M  V30 11195 C 1046.26 -1.4563 1.41137 0
M  V30 11196 C 1046.6 -1.94189 0.0208428 0
M  V30 11197 O 1045.87 -1.69628 -0.951655 0
M  V30 11198 C 1046.15 -2.66714 2.41941 0
M  V30 11199 C 1046.01 -2.23912 3.90107 0
M  V30 11200 C 1047.33 -3.68913 2.39981 0
M  V30 11201 H 1044.44 -0.52821 0.513968 0
M  V30 11202 H 1047.09 -0.790437 1.72778 0
M  V30 11203 H 1045.24 -3.23525 2.1509 0
M  V30 11204 H 1046.91 -1.72417 4.27867 0
M  V30 11205 H 1045.15 -1.5568 4.04903 0
M  V30 11206 H 1045.82 -3.108 4.56188 0
M  V30 11207 H 1048.3 -3.21779 2.63813 0
M  V30 11208 H 1047.17 -4.51242 3.12524 0
M  V30 11209 H 1047.44 -4.18711 1.41892 0
M  V30 11210 N 1046.49 -1.27344 -0.928501 0
M  V30 11211 C 1047.74 -1.13635 -1.6761 0
M  V30 11212 C 1048.07 0.317957 -1.91884 0
M  V30 11213 O 1047.32 1.24904 -1.50657 0
M  V30 11214 C 1047.62 -1.86439 -3.04918 0
M  V30 11215 C 1047.29 -3.36298 -3.00358 0
M  V30 11216 C 1045.95 -3.77173 -2.98821 0
M  V30 11217 C 1048.3 -4.31921 -2.91708 0
M  V30 11218 C 1045.63 -5.12037 -2.86417 0
M  V30 11219 C 1047.98 -5.66841 -2.80846 0
M  V30 11220 C 1046.65 -6.07011 -2.77659 0
M  V30 11221 H 1045.92 -0.415821 -0.61333 0
M  V30 11222 H 1048.56 -1.57943 -1.08288 0
M  V30 11223 H 1046.87 -1.34638 -3.6794 0
M  V30 11224 H 1048.57 -1.73261 -3.61637 0
M  V30 11225 H 1045.16 -3.0379 -3.0234 0
M  V30 11226 H 1049.34 -4.01314 -2.91994 0
M  V30 11227 H 1044.6 -5.42307 -2.82336 0
M  V30 11228 H 1048.77 -6.40608 -2.73119 0
M  V30 11229 H 1046.4 -7.11467 -2.67804 0
M  V30 11230 N 1047.97 1.13488 -1.09353 0
M  V30 11231 C 1049.22 1.84383 -0.827488 0
M  V30 11232 C 1049.54 1.83892 0.648745 0
M  V30 11233 O 1048.81 1.29415 1.47066 0
M  V30 11234 H 1047.39 0.682732 -0.303127 0
M  V30 11235 H 1050.05 1.37477 -1.38152 0
M  V30 11236 H 1049.15 2.88919 -1.18035 0
M  V30 11237 N 1049.45 0.880621 1.30701 0
M  V30 11238 C 1050.36 0.348034 2.32004 0
M  V30 11239 C 1051.38 -0.547508 1.65162 0
M  V30 11240 O 1052.55 -0.441673 1.96497 0
M  V30 11241 C 1049.62 -0.432585 3.43991 0
M  V30 11242 C 1048.68 0.492189 4.26469 0
M  V30 11243 C 1047.91 -0.25127 5.33108 0
M  V30 11244 O 1048.14 -1.47795 5.5092 0
M  V30 11245 O 1047.07 0.396376 6.00593 0
M  V30 11246 H 1050.9 1.18798 2.79501 0
M  V30 11247 H 1048.48 0.64432 1.34792 0
M  V30 11248 H 1050.36 -0.874733 4.12221 0
M  V30 11249 H 1049.04 -1.2489 2.98637 0
M  V30 11250 H 1047.94 0.983058 3.60953 0
M  V30 11251 H 1049.28 1.27439 4.75416 0
M  V30 11252 N 1050.93 -1.4397 0.641131 0
M  V30 11253 C 1052.16 -2.06303 0.157006 0
M  V30 11254 C 1052.57 -1.47981 -1.17248 0
M  V30 11255 O 1051.93 -0.606471 -1.72128 0
M  V30 11256 C 1051.98 -3.6147 0.0468425 0
M  V30 11257 O 1051.7 -4.17622 1.32376 0
M  V30 11258 C 1053.2 -4.40857 -0.464795 0
M  V30 11259 H 1050.42 -0.665684 0.0842946 0
M  V30 11260 H 1052.97 -1.84675 0.878363 0
M  V30 11261 H 1051.12 -3.82325 -0.625006 0
M  V30 11262 H 1051.54 -5.11167 1.17509 0
M  V30 11263 H 1053.01 -5.49813 -0.490862 0
M  V30 11264 H 1053.49 -4.13016 -1.4938 0
M  V30 11265 H 1054.09 -4.24943 0.174146 0
M  V30 11266 N 1052.41 -0.382291 -1.52893 0
M  V30 11267 C 1053.65 0.202433 -2.01787 0
M  V30 11268 C 1053.99 1.47044 -1.26853 0
M  V30 11269 O 1053.26 1.91007 -0.366969 0
M  V30 11270 C 1053.54 0.477471 -3.5692 0
M  V30 11271 C 1053.4 -0.805339 -4.42532 0
M  V30 11272 C 1054.72 1.27106 -4.21346 0
M  V30 11273 H 1051.84 0.0720998 -0.733465 0
M  V30 11274 H 1054.48 -0.510478 -1.83014 0
M  V30 11275 H 1052.63 1.08478 -3.73048 0
M  V30 11276 H 1054.3 -1.4424 -4.3817 0
M  V30 11277 H 1052.54 -1.42216 -4.09826 0
M  V30 11278 H 1053.21 -0.567635 -5.49074 0
M  V30 11279 H 1055.69 0.757161 -4.09153 0
M  V30 11280 H 1054.57 1.43225 -5.29885 0
M  V30 11281 H 1054.83 2.28431 -3.78513 0
M  V30 11282 N 1053.89 1.57202 -0.111913 0
M  V30 11283 C 1054.85 2.13778 0.826534 0
M  V30 11284 C 1055.85 1.07097 1.19945 0
M  V30 11285 O 1057.04 1.32906 1.12613 0
M  V30 11286 C 1054.17 2.6722 2.11675 0
M  V30 11287 H 1055.36 2.98023 0.334975 0
M  V30 11288 H 1052.92 1.55696 0.137256 0
M  V30 11289 H 1053.65 1.86542 2.65278 0
M  V30 11290 H 1053.44 3.45235 1.8589 0
M  V30 11291 H 1054.93 3.10926 2.78774 0
M  V30 11292 N 1055.36 -0.161842 1.56767 0
M  V30 11293 C 1056.78 -0.51396 1.51098 0
M  V30 11294 C 1056.98 -1.84158 0.817815 0
M  V30 11295 O 1056.04 -2.49592 0.382133 0
M  V30 11296 C 1057.35 -0.537966 2.95849 0
M  V30 11297 C 1058.9 -0.624512 3.06706 0
M  V30 11298 C 1059.37 -0.679322 4.52934 0
M  V30 11299 N 1060.86 -0.741953 4.57219 0
M  V30 11300 C 1061.6 -0.805096 5.6772 0
M  V30 11301 N 1061.09 -0.828492 6.87828 0
M  V30 11302 N 1062.89 -0.844843 5.55715 0
M  V30 11303 H 1055.04 0.708581 2.00232 0
M  V30 11304 H 1057.3 0.25663 0.912603 0
M  V30 11305 H 1057.01 0.369052 3.49758 0
M  V30 11306 H 1056.88 -1.38113 3.51005 0
M  V30 11307 H 1059.27 -1.52195 2.52825 0
M  V30 11308 H 1059.35 0.245515 2.54619 0
M  V30 11309 H 1058.99 0.213901 5.07449 0
M  V30 11310 H 1058.92 -1.56563 5.02788 0
M  V30 11311 H 1061.41 -0.731772 3.70747 0
M  V30 11312 H 1061.73 -0.878109 7.67795 0
M  V30 11313 H 1060.07 -0.796612 6.9042 0
M  V30 11314 H 1063.26 -0.823632 4.60797 0
M  V30 11315 H 1063.44 -0.890588 6.41851 0
M  V30 11316 N 1056.84 -1.516 -0.430713 0
M  V30 11317 C 1058.25 -1.57 -1.01035 0
M  V30 11318 C 1058.6 -0.397439 -1.92132 0
M  V30 11319 O 1057.73 0.484954 -2.10896 0
M  V30 11320 C 1058.32 -2.84536 -1.83915 0
M  V30 11321 C 1056.88 -2.92485 -2.36917 0
M  V30 11322 C 1056.03 -2.5173 -1.16308 0
M  V30 11323 H 1058.98 -1.57281 -0.211734 0
M  V30 11324 H 1059 -2.68672 -2.69435 0
M  V30 11325 H 1058.51 -3.69858 -1.17586 0
M  V30 11326 H 1056.61 -2.11608 -3.0668 0
M  V30 11327 H 1056.73 -3.96277 -2.6926 0
M  V30 11328 H 1055.09 -2.05079 -1.51045 0
M  V30 11329 H 1055.87 -3.39403 -0.515793 0
M  V30 11330 N 1058.32 0.686584 -1.41858 0
M  V30 11331 C 1059.57 1.44879 -1.41908 0
M  V30 11332 C 1059.9 1.94175 -0.0311408 0
M  V30 11333 O 1059.17 1.70131 0.942646 0
M  V30 11334 C 1059.46 2.65428 -2.43352 0
M  V30 11335 C 1059.31 2.2184 -3.91289 0
M  V30 11336 C 1060.63 3.67635 -2.41934 0
M  V30 11337 H 1057.75 0.525477 -0.516762 0
M  V30 11338 H 1060.39 0.781263 -1.73194 0
M  V30 11339 H 1058.54 3.2238 -2.16803 0
M  V30 11340 H 1060.21 1.70146 -4.28775 0
M  V30 11341 H 1058.45 1.53531 -4.05722 0
M  V30 11342 H 1059.13 3.08376 -4.5783 0
M  V30 11343 H 1061.6 3.20376 -2.65516 0
M  V30 11344 H 1060.48 4.49579 -3.14913 0
M  V30 11345 H 1060.74 4.17953 -1.44111 0
M  V30 11346 N 1059.8 1.27835 0.921735 0
M  V30 11347 C 1060.73 1.136 2.04003 0
M  V30 11348 C 1061.71 0.0358756 1.70062 0
M  V30 11349 O 1062.89 0.211438 1.93046 0
M  V30 11350 C 1060.02 0.788697 3.38226 0
M  V30 11351 C 1058.98 1.84272 3.863 0
M  V30 11352 C 1058.3 1.34923 5.17397 0
M  V30 11353 C 1059.6 3.24788 4.09035 0
M  V30 11354 H 1061.3 2.07149 2.1617 0
M  V30 11355 H 1058.84 0.997349 1.0387 0
M  V30 11356 H 1060.8 0.675911 4.15944 0
M  V30 11357 H 1059.52 -0.182499 3.2609 0
M  V30 11358 H 1058.18 1.94451 3.1078 0
M  V30 11359 H 1057.83 0.367328 5.01657 0
M  V30 11360 H 1057.53 2.05397 5.50532 0
M  V30 11361 H 1059.05 1.24951 5.97678 0
M  V30 11362 H 1060.47 3.17575 4.77304 0
M  V30 11363 H 1058.86 3.93025 4.53488 0
M  V30 11364 H 1059.93 3.69398 3.14122 0
M  V30 11365 N 1061.28 -1.12907 1.09954 0
M  V30 11366 C 1062.23 -2.16558 0.713204 0
M  V30 11367 C 1063.21 -1.5853 -0.27515 0
M  V30 11368 O 1064.4 -1.76797 -0.0846643 0
M  V30 11369 C 1061.53 -3.43009 0.141224 0
M  V30 11370 C 1060.62 -4.08032 1.15632 0
M  V30 11371 N 1061.01 -4.48139 2.34531 0
M  V30 11372 C 1059.31 -4.34743 0.995701 0
M  V30 11373 C 1060.01 -4.98885 2.99147 0
M  V30 11374 N 1058.98 -4.9408 2.26684 0
M  V30 11375 H 1062.78 -2.45328 1.61838 0
M  V30 11376 H 1060.3 -1.29759 0.976539 0
M  V30 11377 H 1062.3 -4.16617 -0.153598 0
M  V30 11378 H 1060.96 -3.15711 -0.758729 0
M  V30 11379 H 1061.97 -4.40668 2.72089 0
M  V30 11380 H 1058.64 -4.17227 0.150888 0
M  V30 11381 H 1060.03 -5.3967 4.00257 0
M  V30 11382 N 1062.75 -0.88754 -1.30232 0
M  V30 11383 C 1063.66 -0.360333 -2.31816 0
M  V30 11384 C 1064.68 0.538741 -1.6545 0
M  V30 11385 O 1065.86 0.431246 -1.96729 0
M  V30 11386 C 1062.92 0.414336 -3.44215 0
M  V30 11387 C 1061.98 -0.514799 -4.26202 0
M  V30 11388 C 1061.21 0.222994 -5.33234 0
M  V30 11389 O 1061.44 1.44871 -5.51696 0
M  V30 11390 O 1060.37 -0.428221 -6.00375 0
M  V30 11391 H 1064.2 -1.20279 -2.78867 0
M  V30 11392 H 1061.78 -0.651459 -1.34448 0
M  V30 11393 H 1063.66 0.852859 -4.12679 0
M  V30 11394 H 1062.34 1.23305 -2.99295 0
M  V30 11395 H 1061.25 -1.00219 -3.60426 0
M  V30 11396 H 1062.58 -1.29959 -4.74733 0
M  V30 11397 N 1064.23 1.43628 -0.648757 0
M  V30 11398 C 1065.48 2.01864 -0.160336 0
M  V30 11399 C 1065.81 1.51148 1.22412 0
M  V30 11400 O 1065.06 0.693168 1.83013 0
M  V30 11401 C 1065.36 3.57214 -0.115282 0
M  V30 11402 C 1065.03 4.27258 -1.44088 0
M  V30 11403 C 1063.69 4.46109 -1.8039 0
M  V30 11404 C 1066.04 4.66962 -2.31508 0
M  V30 11405 C 1063.37 5.01928 -3.03785 0
M  V30 11406 C 1065.72 5.24148 -3.54191 0
M  V30 11407 C 1064.39 5.41216 -3.90694 0
M  V30 11408 H 1063.66 0.738674 -0.0586712 0
M  V30 11409 H 1066.3 1.72163 -0.838578 0
M  V30 11410 H 1064.61 3.86431 0.646395 0
M  V30 11411 H 1066.3 4.00025 0.279425 0
M  V30 11412 H 1062.89 4.12928 -1.14842 0
M  V30 11413 H 1067.08 4.52095 -2.04753 0
M  V30 11414 H 1062.33 5.13328 -3.32122 0
M  V30 11415 H 1066.51 5.53861 -4.22151 0
M  V30 11416 H 1064.14 5.84234 -4.8639 0
M  V30 11417 N 1065.71 0.390394 1.52688 0
M  V30 11418 C 1066.94 -0.191207 2.05713 0
M  V30 11419 C 1067.35 -1.40973 1.26188 0
M  V30 11420 O 1066.69 -1.81202 0.301938 0
M  V30 11421 C 1066.75 -0.624794 3.54029 0
M  V30 11422 C 1066.42 0.480413 4.54468 0
M  V30 11423 C 1067.41 1.33816 5.02384 0
M  V30 11424 C 1065.1 0.647754 4.98106 0
M  V30 11425 C 1067.09 2.34836 5.92563 0
M  V30 11426 C 1064.78 1.66129 5.88085 0
M  V30 11427 C 1065.78 2.51001 6.35206 0
M  V30 11428 O 1065.47 3.50622 7.23408 0
M  V30 11429 H 1065.2 -0.032221 0.675232 0
M  V30 11430 H 1067.75 0.554431 1.97776 0
M  V30 11431 H 1065.98 -1.42243 3.59589 0
M  V30 11432 H 1067.67 -1.13219 3.8979 0
M  V30 11433 H 1068.44 1.22019 4.694 0
M  V30 11434 H 1064.32 -0.00314511 4.61 0
M  V30 11435 H 1067.86 3.01117 6.29265 0
M  V30 11436 H 1063.76 1.77964 6.20483 0
M  V30 11437 H 1064.53 3.46644 7.41472 0
M  V30 11438 N 1067.19 -1.57141 0.120249 0
M  V30 11439 C 1068.1 -2.18925 -0.843155 0
M  V30 11440 C 1069.11 -1.16575 -1.29175 0
M  V30 11441 O 1070.29 -1.4905 -1.35448 0
M  V30 11442 C 1067.36 -2.7775 -2.075 0
M  V30 11443 C 1066.42 -3.95139 -1.6782 0
M  V30 11444 C 1065.65 -4.51149 -2.85132 0
M  V30 11445 O 1065.87 -4.06056 -4.00593 0
M  V30 11446 O 1064.81 -5.41815 -2.62145 0
M  V30 11447 H 1068.63 -3.01707 -0.347357 0
M  V30 11448 H 1066.22 -1.49028 -0.105427 0
M  V30 11449 H 1068.1 -3.15243 -2.79643 0
M  V30 11450 H 1066.77 -1.97998 -2.56083 0
M  V30 11451 H 1065.68 -3.62412 -0.927807 0
M  V30 11452 H 1067.01 -4.7633 -1.23977 0
M  V30 11453 N 1068.67 0.153526 -1.5685 0
M  V30 11454 C 1069.94 0.895545 -1.73895 0
M  V30 11455 C 1070.32 1.99625 -0.686504 0
M  V30 11456 O 1069.67 2.26579 0.2957 0
M  V30 11457 C 1069.88 1.44399 -3.17726 0
M  V30 11458 C 1071.23 1.90996 -3.79217 0
M  V30 11459 O 1072.25 1.54155 -3.21115 0
M  V30 11460 O 1071.11 2.58917 -4.81274 0
M  V30 11461 H 1068.21 0.422755 -0.710779 0
M  V30 11462 H 1070.75 0.139961 -1.69122 0
M  V30 11463 H 1069.52 0.652635 -3.85819 0
M  V30 11464 H 1069.15 2.26326 -3.26898 0
M  V30 11465 N 1070.14 1.51827 0.422667 0
M  V30 11466 C 1071.37 1.69049 1.1929 0
M  V30 11467 C 1071.79 0.394095 1.84641 0
M  V30 11468 O 1071.14 -0.628731 1.71328 0
M  V30 11469 C 1071.2 2.81657 2.26609 0
M  V30 11470 O 1070.92 4.06275 1.63929 0
M  V30 11471 C 1072.42 3.10274 3.16615 0
M  V30 11472 H 1069.64 0.566894 0.358988 0
M  V30 11473 H 1072.18 1.98318 0.499029 0
M  V30 11474 H 1070.34 2.54945 2.91688 0
M  V30 11475 H 1070.75 4.68924 2.3497 0
M  V30 11476 H 1072.22 3.92613 3.88019 0
M  V30 11477 H 1072.7 2.23273 3.78214 0
M  V30 11478 H 1073.31 3.387 2.57221 0
M  V30 11479 N 1071.62 -0.679052 1.4222 0
M  V30 11480 C 1072.57 -1.81398 1.45594 0
M  V30 11481 C 1073.56 -1.66112 0.332127 0
M  V30 11482 O 1074.77 -1.72772 0.504942 0
M  V30 11483 H 1071.15 -0.598045 0.455902 0
M  V30 11484 H 1073.12 -1.7567 2.41211 0
M  V30 11485 C 1071.87 -3.19525 1.37109 0
M  V30 11486 H 1071.19 -3.31912 2.22878 0
M  V30 11487 H 1072.63 -3.98967 1.43531 0
M  V30 11488 C 1071.09 -3.36792 0.0853593 0
M  V30 11489 O 1071.62 -3.92309 -0.863532 0
M  V30 11490 N 1069.82 -2.906 0.00389229 0
M  V30 11491 H 1069.37 -2.45607 0.776846 0
M  V30 11492 H 1069.33 -3.0253 -0.855742 0
M  V30 11493 N 1073.1 -1.28322 -0.914942 0
M  V30 11494 C 1074.33 -1.1837 -1.70304 0
M  V30 11495 C 1074.75 0.254291 -1.86373 0
M  V30 11496 O 1074.11 1.18398 -1.37301 0
M  V30 11497 C 1074.16 -1.88603 -3.07346 0
M  V30 11498 O 1073.26 -1.19268 -3.94777 0
M  V30 11499 H 1072.6 -0.410978 -0.52153 0
M  V30 11500 H 1075.13 -1.69622 -1.14409 0
M  V30 11501 H 1075.14 -1.96463 -3.57584 0
M  V30 11502 H 1073.82 -2.93201 -2.94967 0
M  V30 11503 H 1072.39 -1.19563 -3.53212 0
M  V30 11504 N 1074.58 1.12322 -1.10551 0
M  V30 11505 C 1075.82 1.84333 -0.859826 0
M  V30 11506 C 1076.18 1.82539 0.608052 0
M  V30 11507 O 1075.47 1.26086 1.44267 0
M  V30 11508 C 1075.67 3.31177 -1.34375 0
M  V30 11509 C 1075.5 3.47272 -2.85714 0
M  V30 11510 C 1074.27 3.60837 -3.5373 0
M  V30 11511 C 1076.46 3.42336 -3.83811 0
M  V30 11512 N 1074.45 3.65309 -4.93378 0
M  V30 11513 C 1075.82 3.53318 -5.09477 0
M  V30 11514 C 1077.87 3.25809 -3.76501 0
M  V30 11515 C 1076.57 3.49477 -6.28695 0
M  V30 11516 C 1078.6 3.23282 -4.9522 0
M  V30 11517 C 1077.96 3.34826 -6.19735 0
M  V30 11518 H 1074.06 0.690186 -0.367651 0
M  V30 11519 H 1076.65 1.34463 -1.40811 0
M  V30 11520 H 1074.82 3.79585 -0.822767 0
M  V30 11521 H 1076.55 3.91051 -1.04217 0
M  V30 11522 H 1073.3 3.63005 -3.04178 0
M  V30 11523 H 1073.73 3.71207 -5.66157 0
M  V30 11524 H 1078.37 3.15777 -2.81149 0
M  V30 11525 H 1076.09 3.5828 -7.24335 0
M  V30 11526 H 1079.67 3.11674 -4.91274 0
M  V30 11527 H 1078.55 3.32847 -7.10058 0
M  V30 11528 N 1076.06 0.894434 1.2976 0
M  V30 11529 C 1077.31 0.513673 1.95049 0
M  V30 11530 C 1077.62 -0.943744 1.71327 0
M  V30 11531 O 1078.82 -1.43179 2.30678 0
M  V30 11532 C 1077.28 0.867751 3.49282 0
M  V30 11533 C 1076.89 2.34358 3.81812 0
M  V30 11534 C 1078.63 0.556645 4.20835 0
M  V30 11535 C 1076.54 2.63879 5.29265 0
M  V30 11536 H 1075.47 0.188375 0.73009 0
M  V30 11537 H 1078.12 1.09071 1.47566 0
M  V30 11538 H 1076.5 0.2197 3.9539 0
M  V30 11539 H 1077.68 3.03674 3.46581 0
M  V30 11540 H 1075.99 2.62318 3.23386 0
M  V30 11541 H 1078.59 0.754123 5.29355 0
M  V30 11542 H 1078.93 -0.504526 4.13231 0
M  V30 11543 H 1079.46 1.1623 3.80441 0
M  V30 11544 H 1076.2 3.68774 5.41928 0
M  V30 11545 H 1075.72 1.99182 5.65762 0
M  V30 11546 H 1077.4 2.49871 5.96803 0
M  V30 11547 N 1077.53 -1.43282 0.656365 0
M  V30 11548 C 1078.44 -2.34576 -0.033864 0
M  V30 11549 C 1079.46 -1.5406 -0.808793 0
M  V30 11550 O 1080.64 -1.867 -0.755322 0
M  V30 11551 C 1077.7 -3.32378 -0.986197 0
M  V30 11552 C 1076.76 -4.28797 -0.207851 0
M  V30 11553 C 1076 -5.21927 -1.11482 0
M  V30 11554 O 1076.22 -5.19554 -2.35414 0
M  V30 11555 O 1075.15 -5.99045 -0.585536 0
M  V30 11556 H 1078.98 -2.95099 0.717668 0
M  V30 11557 H 1076.56 -1.43475 0.416556 0
M  V30 11558 H 1078.45 -3.9251 -1.53341 0
M  V30 11559 H 1077.12 -2.74354 -1.7179 0
M  V30 11560 H 1076.03 -3.72134 0.383022 0
M  V30 11561 H 1077.36 -4.89811 0.48435 0
M  V30 11562 N 1079.01 -0.398486 -1.52479 0
M  V30 11563 C 1080.29 0.238776 -1.94137 0
M  V30 11564 C 1080.67 1.63558 -1.33462 0
M  V30 11565 O 1080.02 2.22821 -0.506272 0
M  V30 11566 C 1080.23 0.255863 -3.48061 0
M  V30 11567 C 1081.58 0.480376 -4.21874 0
M  V30 11568 O 1082.6 0.335679 -3.54615 0
M  V30 11569 O 1081.46 0.764654 -5.41124 0
M  V30 11570 H 1078.55 0.150806 -0.813134 0
M  V30 11571 H 1081.1 -0.453659 -1.63524 0
M  V30 11572 H 1079.87 -0.722171 -3.84578 0
M  V30 11573 H 1079.49 0.99284 -3.85004 0
M  V30 11574 N 1080.49 1.57075 -0.12858 0
M  V30 11575 C 1081.72 1.99876 0.534544 0
M  V30 11576 C 1082.13 1.00843 1.59612 0
M  V30 11577 O 1081.49 0.00268947 1.825 0
M  V30 11578 C 1081.54 3.42654 1.15198 0
M  V30 11579 O 1081.26 4.37899 0.132823 0
M  V30 11580 C 1082.76 4.00637 1.8975 0
M  V30 11581 H 1079.98 0.656073 0.140744 0
M  V30 11582 H 1082.53 2.03337 -0.217742 0
M  V30 11583 H 1080.68 3.40101 1.85499 0
M  V30 11584 H 1081.1 5.21253 0.582682 0
M  V30 11585 H 1082.57 5.02592 2.28266 0
M  V30 11586 H 1083.05 3.40313 2.7764 0
M  V30 11587 H 1083.65 4.06764 1.2419 0
M  V30 11588 N 1081.97 -0.145205 1.5693 0
M  V30 11589 C 1082.88 -1.19864 2.01667 0
M  V30 11590 C 1083.9 -1.46909 0.932402 0
M  V30 11591 O 1085.07 -1.58543 1.24201 0
M  V30 11592 C 1082.14 -2.51174 2.38982 0
M  V30 11593 C 1081.2 -2.3176 3.61366 0
M  V30 11594 C 1080.43 -3.56809 3.96892 0
M  V30 11595 O 1080.65 -4.63063 3.33059 0
M  V30 11596 O 1079.59 -3.49366 4.9013 0
M  V30 11597 H 1083.41 -0.848821 2.91597 0
M  V30 11598 H 1081 -0.354063 1.45144 0
M  V30 11599 H 1082.88 -3.28587 2.63835 0
M  V30 11600 H 1081.56 -2.85683 1.52207 0
M  V30 11601 H 1080.46 -1.52293 3.41698 0
M  V30 11602 H 1081.8 -2.02167 4.48764 0
M  V30 11603 N 1083.45 -1.52049 -0.414609 0
M  V30 11604 C 1084.69 -1.65838 -1.16206 0
M  V30 11605 C 1085.02 -0.385623 -1.90639 0
M  V30 11606 O 1084.28 0.631214 -1.85241 0
M  V30 11607 C 1084.58 -2.82735 -2.18622 0
M  V30 11608 C 1084.24 -4.21163 -1.61037 0
M  V30 11609 C 1082.9 -4.58816 -1.45056 0
M  V30 11610 C 1085.26 -5.0745 -1.18928 0
M  V30 11611 C 1082.58 -5.8044 -0.854761 0
M  V30 11612 C 1084.94 -6.29674 -0.607686 0
M  V30 11613 C 1083.6 -6.66081 -0.434968 0
M  V30 11614 H 1082.87 -0.606845 -0.425229 0
M  V30 11615 H 1085.52 -1.86137 -0.450009 0
M  V30 11616 H 1083.82 -2.56749 -2.95952 0
M  V30 11617 H 1085.52 -2.90601 -2.76319 0
M  V30 11618 H 1082.11 -3.91488 -1.74457 0
M  V30 11619 H 1086.29 -4.78948 -1.30086 0
M  V30 11620 H 1081.55 -6.07276 -0.70891 0
M  V30 11621 H 1085.72 -6.95865 -0.272988 0
M  V30 11622 H 1083.35 -7.60195 0.0288116 0
M  V30 11623 N 1084.93 0.6715 -1.42579 0
M  V30 11624 C 1085.86 1.79693 -1.49107 0
M  V30 11625 C 1086.84 1.66516 -0.347338 0
M  V30 11626 O 1088.02 1.85887 -0.562094 0
M  V30 11627 C 1085.15 3.1801 -1.39596 0
M  V30 11628 C 1084.11 3.45926 -2.5203 0
M  V30 11629 C 1083.43 4.83852 -2.27577 0
M  V30 11630 C 1084.73 3.4249 -3.94333 0
M  V30 11631 H 1086.43 1.74486 -2.433 0
M  V30 11632 H 1083.97 0.838042 -1.17102 0
M  V30 11633 H 1085.92 3.96478 -1.42771 0
M  V30 11634 H 1084.65 3.23901 -0.418989 0
M  V30 11635 H 1083.31 2.6982 -2.48178 0
M  V30 11636 H 1082.96 4.86398 -1.28165 0
M  V30 11637 H 1082.66 5.03493 -3.02934 0
M  V30 11638 H 1084.18 5.646 -2.32506 0
M  V30 11639 H 1085.59 4.10922 -3.9977 0
M  V30 11640 H 1083.99 3.73666 -4.69568 0
M  V30 11641 H 1085.06 2.41002 -4.20768 0
M  V30 11642 N 1086.4 1.28806 0.908124 0
M  V30 11643 C 1087.65 1.17469 1.6605 0
M  V30 11644 C 1088 -0.272864 1.90455 0
M  V30 11645 O 1087.3 -1.19476 1.49787 0
M  V30 11646 C 1087.49 1.91267 3.01914 0
M  V30 11647 C 1087.32 3.43051 2.90769 0
M  V30 11648 C 1086.09 4.12395 2.9199 0
M  V30 11649 C 1088.29 4.38696 2.68422 0
M  V30 11650 N 1086.27 5.50604 2.71493 0
M  V30 11651 C 1087.64 5.64307 2.56823 0
M  V30 11652 C 1089.7 4.28557 2.53463 0
M  V30 11653 C 1088.4 6.80931 2.31789 0
M  V30 11654 C 1090.43 5.44923 2.2981 0
M  V30 11655 C 1089.79 6.69501 2.1897 0
M  V30 11656 H 1085.89 0.484813 0.61358 0
M  V30 11657 H 1088.47 1.62528 1.07204 0
M  V30 11658 H 1086.64 1.48634 3.58835 0
M  V30 11659 H 1088.37 1.72267 3.66205 0
M  V30 11660 H 1085.13 3.64024 3.02958 0
M  V30 11661 H 1085.55 6.23269 2.6432 0
M  V30 11662 H 1090.19 3.32944 2.60592 0
M  V30 11663 H 1087.91 7.76607 2.23399 0
M  V30 11664 H 1091.5 5.38971 2.19092 0
M  V30 11665 H 1090.38 7.58025 2.00918 0
M  V30 11666 N 1087.88 -1.11734 1.11145 0
M  V30 11667 C 1089.13 -1.83043 0.856717 0
M  V30 11668 C 1089.45 -1.84901 -0.619407 0
M  V30 11669 O 1088.72 -1.31738 -1.44989 0
M  V30 11670 H 1087.3 -0.677823 0.31395 0
M  V30 11671 H 1089.96 -1.35262 1.40322 0
M  V30 11672 H 1089.06 -2.87005 1.22616 0
M  V30 11673 N 1089.36 -0.901303 -1.29284 0
M  V30 11674 C 1090.77 -0.576317 -1.77582 0
M  V30 11675 C 1091.12 0.908078 -1.73921 0
M  V30 11676 O 1090.25 1.71006 -1.32611 0
M  V30 11677 C 1090.84 -1.03938 -3.22463 0
M  V30 11678 C 1089.4 -0.765533 -3.68533 0
M  V30 11679 C 1088.55 -1.21318 -2.49354 0
M  V30 11680 H 1091.5 -1.08386 -1.15923 0
M  V30 11681 H 1091.52 -0.375367 -3.78644 0
M  V30 11682 H 1091.03 -2.11977 -3.25096 0
M  V30 11683 H 1089.13 0.302176 -3.71373 0
M  V30 11684 H 1089.25 -1.36454 -4.59257 0
M  V30 11685 H 1087.61 -0.632141 -2.46731 0
M  V30 11686 H 1088.39 -2.30165 -2.54714 0
M  V30 11687 N 1090.84 1.42931 -0.663954 0
M  V30 11688 C 1091.8 2.29197 0.0117626 0
M  V30 11689 C 1092.8 1.42767 0.739875 0
M  V30 11690 O 1093.99 1.64278 0.579509 0
M  V30 11691 C 1091.12 3.2505 1.02738 0
M  V30 11692 H 1092.32 2.90438 -0.747391 0
M  V30 11693 H 1089.87 1.5039 -0.425733 0
M  V30 11694 H 1090.6 2.68726 1.8154 0
M  V30 11695 H 1090.39 3.88785 0.508809 0
M  V30 11696 H 1091.88 3.89771 1.49893 0
M  V30 11697 N 1092.32 0.406567 1.52266 0
M  V30 11698 C 1093.25 -0.411314 2.29849 0
M  V30 11699 C 1094.23 -1.04838 1.33952 0
M  V30 11700 O 1095.41 -1.05788 1.62857 0
M  V30 11701 C 1092.54 -1.52961 3.11802 0
M  V30 11702 C 1091.5 -1.01768 4.15725 0
M  V30 11703 C 1090.82 -2.22938 4.86007 0
M  V30 11704 C 1092.12 -0.073515 5.22248 0
M  V30 11705 H 1093.82 0.236054 2.98468 0
M  V30 11706 H 1091.36 0.114968 1.4354 0
M  V30 11707 H 1093.31 -2.10874 3.64843 0
M  V30 11708 H 1092.04 -2.20482 2.40947 0
M  V30 11709 H 1090.7 -0.46097 3.6369 0
M  V30 11710 H 1090.35 -2.89007 4.11684 0
M  V30 11711 H 1090.05 -1.89338 5.5626 0
M  V30 11712 H 1091.57 -2.81462 5.41859 0
M  V30 11713 H 1092.98 -0.561367 5.70545 0
M  V30 11714 H 1091.38 0.173551 5.99849 0
M  V30 11715 H 1092.45 0.872524 4.76985 0
M  V30 11716 N 1093.79 -1.57004 0.136909 0
M  V30 11717 C 1094.72 -2.19262 -0.802902 0
M  V30 11718 C 1095.71 -1.13786 -1.26439 0
M  V30 11719 O 1096.89 -1.42091 -1.32377 0
M  V30 11720 C 1094.02 -2.80624 -2.04615 0
M  V30 11721 C 1092.97 -3.91839 -1.72181 0
M  V30 11722 C 1092.3 -4.4009 -3.03686 0
M  V30 11723 C 1093.6 -5.13095 -0.976249 0
M  V30 11724 H 1095.29 -2.98049 -0.28406 0
M  V30 11725 H 1092.84 -1.43364 -0.135189 0
M  V30 11726 H 1094.79 -3.22842 -2.70834 0
M  V30 11727 H 1093.52 -1.99153 -2.58855 0
M  V30 11728 H 1092.18 -3.50224 -1.08344 0
M  V30 11729 H 1091.82 -3.55454 -3.55896 0
M  V30 11730 H 1091.52 -5.15098 -2.82751 0
M  V30 11731 H 1093.05 -4.84971 -3.70993 0
M  V30 11732 H 1094.46 -5.5222 -1.54033 0
M  V30 11733 H 1092.86 -5.93801 -0.867214 0
M  V30 11734 H 1093.93 -4.84888 0.0338488 0
M  V30 11735 N 1095.27 0.136881 -1.57004 0
M  V30 11736 C 1096.52 0.846257 -1.83088 0
M  V30 11737 C 1096.83 1.81876 -0.719765 0
M  V30 11738 O 1098.04 2.57302 -0.866494 0
M  V30 11739 C 1096.5 1.55559 -3.24545 0
M  V30 11740 C 1096.1 0.624989 -4.43619 0
M  V30 11741 C 1097.85 2.25115 -3.59893 0
M  V30 11742 C 1095.76 1.33653 -5.761 0
M  V30 11743 H 1094.69 0.319768 -0.682836 0
M  V30 11744 H 1097.34 0.0989741 -1.83233 0
M  V30 11745 H 1095.72 2.34887 -3.18817 0
M  V30 11746 H 1096.89 -0.133783 -4.60606 0
M  V30 11747 H 1095.21 0.0373216 -4.16383 0
M  V30 11748 H 1097.8 2.79008 -4.56134 0
M  V30 11749 H 1098.15 3.02084 -2.86446 0
M  V30 11750 H 1098.68 1.52696 -3.67327 0
M  V30 11751 H 1095.42 0.608495 -6.5267 0
M  V30 11752 H 1094.94 2.06776 -5.63031 0
M  V30 11753 H 1096.62 1.87467 -6.19246 0
M  V30 11754 N 1096.75 1.52266 0.40654 0
M  V30 11755 C 1097.98 1.70304 1.17491 0
M  V30 11756 C 1098.39 0.413656 1.84213 0
M  V30 11757 O 1097.75 -0.610524 1.71985 0
M  V30 11758 C 1097.8 2.84045 2.23609 0
M  V30 11759 O 1097.52 4.0799 1.5961 0
M  V30 11760 C 1099.02 3.13614 3.13306 0
M  V30 11761 H 1096.24 0.570669 0.352955 0
M  V30 11762 H 1098.79 1.98836 0.477967 0
M  V30 11763 H 1096.94 2.58025 2.88967 0
M  V30 11764 H 1097.36 4.7139 2.29983 0
M  V30 11765 H 1098.83 3.96707 3.83833 0
M  V30 11766 H 1099.31 2.27272 3.75824 0
M  V30 11767 H 1099.91 3.41409 2.53614 0
M  V30 11768 N 1098.23 -0.663929 1.42933 0
M  V30 11769 C 1099.64 -1.24484 1.39143 0
M  V30 11770 C 1099.99 -1.95993 0.0901142 0
M  V30 11771 O 1099.12 -2.00636 -0.810812 0
M  V30 11772 C 1099.71 -2.26402 2.52047 0
M  V30 11773 C 1098.27 -2.79995 2.51555 0
M  V30 11774 C 1097.42 -1.54475 2.30289 0
M  V30 11775 H 1100.37 -0.456619 1.51989 0
M  V30 11776 H 1100.39 -3.08361 2.22921 0
M  V30 11777 H 1099.9 -1.74328 3.46744 0
M  V30 11778 H 1098 -3.36161 1.60707 0
M  V30 11779 H 1098.11 -3.2827 3.48964 0
M  V30 11780 H 1096.48 -1.81437 1.78753 0
M  V30 11781 H 1097.26 -1.04351 3.27056 0
M  V30 11782 N 1099.71 -1.29285 -0.901281 0
M  V30 11783 C 1100.95 -1.17339 -1.65407 0
M  V30 11784 C 1101.29 0.274834 -1.92245 0
M  V30 11785 O 1100.56 1.19865 -1.53176 0
M  V30 11786 C 1100.84 -1.98547 -3.00418 0
M  V30 11787 C 1100.7 -3.51501 -2.80655 0
M  V30 11788 C 1102.02 -1.81062 -4.01129 0
M  V30 11789 H 1099.13 -0.427624 -0.600255 0
M  V30 11790 H 1101.78 -1.58741 -1.0441 0
M  V30 11791 H 1099.93 -1.63366 -3.52482 0
M  V30 11792 H 1101.6 -3.96655 -2.35505 0
M  V30 11793 H 1099.84 -3.76504 -2.15469 0
M  V30 11794 H 1100.51 -4.03593 -3.76585 0
M  V30 11795 H 1102.99 -2.11788 -3.58169 0
M  V30 11796 H 1101.86 -2.40235 -4.93536 0
M  V30 11797 H 1102.13 -0.765388 -4.35424 0
M  V30 11798 N 1101.18 1.11143 -1.11736 0
M  V30 11799 C 1102.11 2.19339 -0.800795 0
M  V30 11800 C 1103.1 1.68508 0.23221 0
M  V30 11801 O 1104.28 1.93967 0.0950063 0
M  V30 11802 C 1101.41 3.46424 -0.246579 0
M  V30 11803 C 1100.36 4.10487 -1.21181 0
M  V30 11804 C 1099.69 5.32183 -0.518158 0
M  V30 11805 C 1100.99 4.55052 -2.56368 0
M  V30 11806 H 1102.68 2.46077 -1.70548 0
M  V30 11807 H 1100.23 1.18271 -0.821454 0
M  V30 11808 H 1102.18 4.21398 -0.0128889 0
M  V30 11809 H 1100.91 3.19154 0.693415 0
M  V30 11810 H 1099.57 3.3751 -1.43118 0
M  V30 11811 H 1099.21 5.01187 0.426742 0
M  V30 11812 H 1098.91 5.75997 -1.16196 0
M  V30 11813 H 1100.44 6.09895 -0.293333 0
M  V30 11814 H 1101.85 5.21335 -2.38501 0
M  V30 11815 H 1100.25 5.0969 -3.16758 0
M  V30 11816 H 1101.32 3.68343 -3.1536 0
M  V30 11817 N 1102.66 0.908147 1.28804 0
M  V30 11818 C 1103.61 0.390734 2.27468 0
M  V30 11819 C 1104.58 -0.531765 1.57358 0
M  V30 11820 O 1105.76 -0.455177 1.85291 0
M  V30 11821 C 1102.9 -0.368159 3.43131 0
M  V30 11822 C 1102.02 0.586202 4.28004 0
M  V30 11823 C 1101.15 -0.190581 5.30858 0
M  V30 11824 C 1100.19 0.757758 6.07391 0
M  V30 11825 N 1099.33 0.0148488 7.02098 0
M  V30 11826 H 1104.17 1.23717 2.71105 0
M  V30 11827 H 1101.71 0.621382 1.33331 0
M  V30 11828 H 1103.66 -0.824289 4.08976 0
M  V30 11829 H 1102.29 -1.17898 3.00499 0
M  V30 11830 H 1101.35 1.16086 3.62254 0
M  V30 11831 H 1102.66 1.31177 4.81242 0
M  V30 11832 H 1101.81 -0.707528 6.0256 0
M  V30 11833 H 1100.55 -0.949234 4.78373 0
M  V30 11834 H 1099.56 1.28613 5.34545 0
M  V30 11835 H 1100.78 1.51588 6.61965 0
M  V30 11836 H 1098.73 -0.725916 6.51971 0
M  V30 11837 H 1098.64 0.680347 7.52932 0
M  V30 11838 H 1099.91 -0.482086 7.78008 0
M  V30 11839 N 1104.14 -1.42577 0.671525 0
M  V30 11840 C 1105.07 -2.2915 -0.0477361 0
M  V30 11841 C 1106.09 -1.43503 -0.768805 0
M  V30 11842 O 1107.27 -1.67256 -0.623509 0
M  V30 11843 C 1104.37 -3.20851 -1.09122 0
M  V30 11844 C 1103.55 -4.35134 -0.44463 0
M  V30 11845 C 1102.61 -5.07579 -1.38745 0
M  V30 11846 O 1101.63 -5.62215 -0.889015 0
M  V30 11847 N 1102.83 -5.12786 -2.72086 0
M  V30 11848 H 1105.6 -2.9152 0.695415 0
M  V30 11849 H 1103.16 -1.53467 0.515689 0
M  V30 11850 H 1105.15 -3.66183 -1.72315 0
M  V30 11851 H 1103.72 -2.59956 -1.73614 0
M  V30 11852 H 1102.94 -3.9249 0.36675 0
M  V30 11853 H 1104.23 -5.088 0.00595927 0
M  V30 11854 H 1103.63 -4.69802 -3.15123 0
M  V30 11855 H 1102.19 -5.61774 -3.30535 0
M  V30 11856 N 1105.62 -0.414636 -1.52048 0
M  V30 11857 C 1106.87 0.159034 -2.01473 0
M  V30 11858 C 1107.19 1.45176 -1.30188 0
M  V30 11859 O 1106.46 1.91134 -0.429469 0
M  V30 11860 H 1105.04 0.0617604 -0.744443 0
M  V30 11861 H 1107.7 -0.552141 -1.86916 0
M  V30 11862 H 1106.8 0.351217 -3.10118 0
M  V30 11863 N 1107.1 1.56929 -0.145233 0
M  V30 11864 C 1108.06 2.15483 0.781002 0
M  V30 11865 C 1109.06 1.09617 1.17647 0
M  V30 11866 O 1110.25 1.35265 1.09768 0
M  V30 11867 C 1107.38 2.7165 2.05959 0
M  V30 11868 H 1108.57 2.98667 0.271685 0
M  V30 11869 H 1106.13 1.55952 0.1042 0
M  V30 11870 H 1106.86 1.92127 2.61262 0
M  V30 11871 H 1106.65 3.491 1.78526 0
M  V30 11872 H 1108.14 3.16769 2.72116 0
M  V30 11873 N 1108.58 -0.128553 1.57075 0
M  V30 11874 C 1109.85 -0.867766 1.75297 0
M  V30 11875 C 1110.23 -1.98508 0.718176 0
M  V30 11876 O 1109.58 -2.2702 -0.259616 0
M  V30 11877 C 1109.79 -1.39326 3.19983 0
M  V30 11878 C 1111.14 -1.84939 3.82208 0
M  V30 11879 O 1112.16 -1.49027 3.23527 0
M  V30 11880 O 1111.02 -2.51227 4.85332 0
M  V30 11881 H 1108.12 -0.411393 0.717415 0
M  V30 11882 H 1110.66 -0.113038 1.69323 0
M  V30 11883 H 1109.43 -0.591172 3.86809 0
M  V30 11884 H 1109.06 -2.21097 3.30457 0
M  V30 11885 N 1110.05 -1.5248 -0.398459 0
M  V30 11886 C 1111.28 -1.70925 -1.16586 0
M  V30 11887 C 1111.7 -0.42342 -1.83991 0
M  V30 11888 O 1111.05 0.601395 -1.72306 0
M  V30 11889 C 1111.1 -2.85226 -2.22099 0
M  V30 11890 O 1110.83 -4.08831 -1.57444 0
M  V30 11891 C 1112.33 -3.15272 -3.11639 0
M  V30 11892 H 1109.55 -0.572533 -0.349924 0
M  V30 11893 H 1112.09 -1.99087 -0.467416 0
M  V30 11894 H 1110.25 -2.59553 -2.87595 0
M  V30 11895 H 1110.66 -4.72603 -2.2748 0
M  V30 11896 H 1112.13 -3.98737 -3.81724 0
M  V30 11897 H 1112.61 -2.29262 -3.74614 0
M  V30 11898 H 1113.22 -3.42749 -2.518 0
M  V30 11899 N 1111.53 0.65634 -1.43283 0
M  V30 11900 C 1112.78 1.41837 -1.44949 0
M  V30 11901 C 1113.11 1.94065 -0.0723212 0
M  V30 11902 O 1112.39 1.72092 0.906346 0
M  V30 11903 C 1112.67 2.60206 -2.48927 0
M  V30 11904 C 1112.52 2.1349 -3.95907 0
M  V30 11905 C 1113.84 3.62421 -2.49678 0
M  V30 11906 H 1110.96 0.514398 -0.527792 0
M  V30 11907 H 1113.6 0.74435 -1.74813 0
M  V30 11908 H 1111.75 3.17708 -2.23592 0
M  V30 11909 H 1113.42 1.61012 -4.32288 0
M  V30 11910 H 1111.67 1.4489 -4.08888 0
M  V30 11911 H 1112.34 2.98596 -4.64268 0
M  V30 11912 H 1114.81 3.14671 -2.72252 0
M  V30 11913 H 1113.69 4.42798 -3.24378 0
M  V30 11914 H 1113.95 4.14802 -1.52944 0
M  V30 11915 N 1113.01 1.29761 0.894412 0
M  V30 11916 C 1114.23 1.21064 1.68399 0
M  V30 11917 C 1114.66 -0.224608 1.86754 0
M  V30 11918 O 1114.02 -1.16199 1.39167 0
M  V30 11919 C 1114.07 1.93468 3.04306 0
M  V30 11920 O 1113.17 1.25533 3.9283 0
M  V30 11921 H 1112.51 0.419223 0.514925 0
M  V30 11922 H 1115.04 1.71421 1.11696 0
M  V30 11923 H 1115.05 2.02127 3.54413 0
M  V30 11924 H 1113.73 2.97857 2.90265 0
M  V30 11925 H 1112.3 1.25168 3.51266 0
M  V30 11926 N 1114.49 -1.10549 1.12324 0
M  V30 11927 C 1115.45 -2.15039 0.793156 0
M  V30 11928 C 1116.45 -1.59651 -0.19192 0
M  V30 11929 O 1117.64 -1.74167 0.0337262 0
M  V30 11930 C 1114.77 -3.40433 0.17842 0
M  V30 11931 H 1115.97 -2.4575 1.71892 0
M  V30 11932 H 1113.52 -1.25892 0.926333 0
M  V30 11933 H 1114.25 -3.15338 -0.757122 0
M  V30 11934 H 1114.04 -3.81921 0.887645 0
M  V30 11935 H 1115.53 -4.17584 -0.0360724 0
M  V30 11936 N 1115.97 -0.914965 -1.28321 0
M  V30 11937 C 1117.2 -0.563835 -1.98757 0
M  V30 11938 C 1117.6 0.859528 -1.68549 0
M  V30 11939 O 1116.95 1.58105 -0.935336 0
M  V30 11940 C 1117.01 -0.694539 -3.52727 0
M  V30 11941 C 1116.67 -2.08767 -4.06528 0
M  V30 11942 C 1117.67 -3.06052 -4.20272 0
M  V30 11943 C 1115.35 -2.40118 -4.4119 0
M  V30 11944 C 1117.35 -4.32803 -4.67932 0
M  V30 11945 C 1115.04 -3.67108 -4.88544 0
M  V30 11946 C 1116.03 -4.63265 -5.01871 0
M  V30 11947 O 1115.72 -5.87997 -5.48192 0
M  V30 11948 H 1115.45 -0.213557 -0.641381 0
M  V30 11949 H 1118.01 -1.23062 -1.64453 0
M  V30 11950 H 1116.24 0.0293186 -3.86689 0
M  V30 11951 H 1117.93 -0.350335 -4.04385 0
M  V30 11952 H 1118.69 -2.8315 -3.93765 0
M  V30 11953 H 1114.57 -1.66025 -4.30066 0
M  V30 11954 H 1118.12 -5.07861 -4.78249 0
M  V30 11955 H 1114.01 -3.89834 -5.14489 0
M  V30 11956 H 1114.78 -5.90804 -5.66474 0
M  V30 11957 N 1117.44 1.42219 -0.679077 0
M  V30 11958 C 1118.69 2.00703 -0.200309 0
M  V30 11959 C 1119.01 1.54339 1.20161 0
M  V30 11960 O 1120.21 2.0527 1.77698 0
M  V30 11961 C 1118.67 3.58586 -0.307248 0
M  V30 11962 C 1118.28 4.13937 -1.71349 0
M  V30 11963 C 1120.02 4.24351 0.112588 0
M  V30 11964 C 1117.93 5.64198 -1.77297 0
M  V30 11965 H 1116.86 0.750638 -0.0711279 0
M  V30 11966 H 1119.51 1.62893 -0.844881 0
M  V30 11967 H 1117.89 3.93921 0.40529 0
M  V30 11968 H 1119.06 3.90054 -2.45346 0
M  V30 11969 H 1117.38 3.60639 -2.08155 0
M  V30 11970 H 1119.98 5.34627 0.0883578 0
M  V30 11971 H 1120.32 4.00142 1.14857 0
M  V30 11972 H 1120.85 3.93992 -0.549093 0
M  V30 11973 H 1117.59 5.93211 -2.78892 0
M  V30 11974 H 1117.11 5.90058 -1.07662 0
M  V30 11975 H 1118.79 6.2869 -1.52835 0
M  V30 11976 N 1118.92 0.422693 1.51826 0
M  V30 11977 C 1120.33 -0.0438129 1.86649 0
M  V30 11978 C 1120.68 -1.43246 1.34071 0
M  V30 11979 O 1119.81 -2.05256 0.685501 0
M  V30 11980 C 1120.4 -0.0862802 3.3869 0
M  V30 11981 C 1118.96 -0.497157 3.73102 0
M  V30 11982 C 1118.11 0.319655 2.75451 0
M  V30 11983 H 1121.06 0.639181 1.45259 0
M  V30 11984 H 1121.08 -0.8988 3.69732 0
M  V30 11985 H 1120.59 0.924525 3.76927 0
M  V30 11986 H 1118.69 -1.51411 3.40449 0
M  V30 11987 H 1118.81 -0.232125 4.78537 0
M  V30 11988 H 1117.17 -0.219963 2.53748 0
M  V30 11989 H 1117.95 1.32906 3.16529 0
M  V30 11990 N 1120.4 -1.5685 0.153553 0
M  V30 11991 C 1121.68 -1.8796 -0.541328 0
M  V30 11992 C 1122.06 -1.06059 -1.82523 0
M  V30 11993 O 1121.4 -0.149295 -2.28012 0
M  V30 11994 C 1121.61 -3.39697 -0.800442 0
M  V30 11995 C 1122.96 -4.09057 -1.13832 0
M  V30 11996 O 1123.99 -3.44913 -0.889578 0
M  V30 11997 O 1122.85 -5.22347 -1.60673 0
M  V30 11998 H 1119.94 -0.779268 -0.276895 0
M  V30 11999 H 1122.49 -1.68626 0.190657 0
M  V30 12000 H 1121.26 -3.91151 0.107935 0
M  V30 12001 H 1120.88 -3.64582 -1.58638 0
M  V30 12002 N 1121.88 0.120221 -1.57141 0
M  V30 12003 C 1122.84 1.13159 -1.99318 0
M  V30 12004 C 1123.84 1.34376 -0.883158 0
M  V30 12005 O 1125.03 1.30914 -1.14922 0
M  V30 12006 C 1122.16 2.48632 -2.33227 0
M  V30 12007 H 1123.36 0.769119 -2.8987 0
M  V30 12008 H 1120.91 0.364475 -1.51991 0
M  V30 12009 H 1121.64 2.89802 -1.45551 0
M  V30 12010 H 1121.43 2.34587 -3.14184 0
M  V30 12011 H 1122.92 3.21423 -2.66603 0
M  V30 12012 N 1123.36 1.52689 0.390367 0
M  V30 12013 C 1124.61 1.6689 1.13272 0
M  V30 12014 C 1124.92 0.414433 1.91159 0
M  V30 12015 O 1126.12 0.436559 2.67967 0
M  V30 12016 C 1124.58 2.94929 2.06264 0
M  V30 12017 C 1124.19 4.27551 1.33805 0
M  V30 12018 C 1125.93 3.18497 2.80642 0
M  V30 12019 C 1123.84 5.46698 2.25554 0
M  V30 12020 H 1122.77 0.621749 0.426549 0
M  V30 12021 H 1125.42 1.79185 0.395615 0
M  V30 12022 H 1123.8 2.76378 2.83604 0
M  V30 12023 H 1124.98 4.56651 0.616997 0
M  V30 12024 H 1123.29 4.10234 0.713913 0
M  V30 12025 H 1125.89 4.04693 3.49467 0
M  V30 12026 H 1126.23 2.33511 3.44642 0
M  V30 12027 H 1126.76 3.37607 2.10395 0
M  V30 12028 H 1123.5 6.34088 1.66171 0
M  V30 12029 H 1123.02 5.21913 2.95579 0
M  V30 12030 H 1124.7 5.80519 2.85668 0
M  V30 12031 N 1124.83 -0.648732 1.43629 0
M  V30 12032 C 1126.08 -1.40898 1.46695 0
M  V30 12033 C 1126.44 -1.92183 0.0914565 0
M  V30 12034 O 1125.73 -1.69642 -0.890623 0
M  V30 12035 C 1125.92 -2.60394 2.44806 0
M  V30 12036 C 1125.75 -2.20805 3.91759 0
M  V30 12037 C 1124.52 -2.08918 4.60088 0
M  V30 12038 C 1126.72 -1.80811 4.81469 0
M  V30 12039 N 1124.7 -1.62707 5.91946 0
M  V30 12040 C 1126.07 -1.45715 6.02633 0
M  V30 12041 C 1128.13 -1.68034 4.68689 0
M  V30 12042 C 1126.83 -0.991224 7.12438 0
M  V30 12043 C 1128.86 -1.22846 5.78501 0
M  V30 12044 C 1128.22 -0.886902 6.98794 0
M  V30 12045 H 1124.32 -0.511063 0.591894 0
M  V30 12046 H 1126.9 -0.746064 1.79839 0
M  V30 12047 H 1125.07 -3.24338 2.13681 0
M  V30 12048 H 1126.8 -3.27115 2.38281 0
M  V30 12049 H 1123.56 -2.28818 4.14656 0
M  V30 12050 H 1123.98 -1.41951 6.61951 0
M  V30 12051 H 1128.63 -1.93078 3.76139 0
M  V30 12052 H 1126.34 -0.728271 8.04812 0
M  V30 12053 H 1129.93 -1.13443 5.70633 0
M  V30 12054 H 1128.81 -0.542577 7.82321 0
M  V30 12055 N 1126.31 -1.30234 -0.887518 0
M  V30 12056 C 1127.54 -1.21652 -1.66986 0
M  V30 12057 C 1127.95 0.223473 -1.87876 0
M  V30 12058 O 1127.29 1.15993 -1.42448 0
M  V30 12059 C 1127.36 -1.87173 -3.06931 0
M  V30 12060 C 1127.02 -3.36496 -3.09224 0
M  V30 12061 C 1128.02 -4.3253 -2.88469 0
M  V30 12062 C 1125.7 -3.77901 -3.30902 0
M  V30 12063 C 1127.7 -5.67942 -2.89344 0
M  V30 12064 C 1125.38 -5.13432 -3.31407 0
M  V30 12065 C 1126.38 -6.08263 -3.10653 0
M  V30 12066 O 1126.07 -7.41318 -3.1097 0
M  V30 12067 H 1125.8 -0.422224 -0.527923 0
M  V30 12068 H 1128.35 -1.72349 -1.11736 0
M  V30 12069 H 1126.58 -1.31002 -3.63834 0
M  V30 12070 H 1128.27 -1.72745 -3.67306 0
M  V30 12071 H 1129.04 -4.01873 -2.7152 0
M  V30 12072 H 1124.92 -3.04534 -3.46093 0
M  V30 12073 H 1128.46 -6.41936 -2.73063 0
M  V30 12074 H 1124.36 -5.4373 -3.47891 0
M  V30 12075 H 1125.13 -7.50275 -3.27153 0
M  V30 12076 N 1127.79 1.09952 -1.12909 0
M  V30 12077 C 1129.07 1.78547 -0.798767 0
M  V30 12078 C 1129.45 1.9878 0.710624 0
M  V30 12079 O 1128.8 1.58485 1.64604 0
M  V30 12080 C 1129.01 3.1121 -1.57953 0
M  V30 12081 C 1130.35 3.86006 -1.76874 0
M  V30 12082 O 1131.38 3.20946 -1.54506 0
M  V30 12083 O 1130.24 5.02791 -2.14158 0
M  V30 12084 H 1127.33 0.774084 -0.291072 0
M  V30 12085 H 1129.88 1.16557 -1.2334 0
M  V30 12086 H 1128.65 2.91935 -2.60557 0
M  V30 12087 H 1128.27 3.80922 -1.13948 0
M  V30 12088 N 1129.27 0.921757 1.27833 0
M  V30 12089 C 1130.5 0.574368 1.98455 0
M  V30 12090 C 1130.91 -0.850577 1.69002 0
M  V30 12091 O 1130.25 -1.57607 0.943708 0
M  V30 12092 C 1130.31 0.713235 3.52354 0
M  V30 12093 C 1129.98 2.1092 4.05415 0
M  V30 12094 C 1130.97 3.08276 4.18643 0
M  V30 12095 C 1128.66 2.42454 4.3991 0
M  V30 12096 C 1130.65 4.35279 4.6563 0
M  V30 12097 C 1128.34 3.69694 4.8659 0
M  V30 12098 C 1129.34 4.6592 4.99407 0
M  V30 12099 O 1129.02 5.90896 5.45066 0
M  V30 12100 H 1128.76 0.216955 0.640239 0
M  V30 12101 H 1131.31 1.23932 1.63798 0
M  V30 12102 H 1129.54 -0.00881115 3.86699 0
M  V30 12103 H 1131.23 0.371776 4.04194 0
M  V30 12104 H 1132 2.85234 3.92258 0
M  V30 12105 H 1127.87 1.68303 4.2918 0
M  V30 12106 H 1131.42 5.10391 4.75549 0
M  V30 12107 H 1127.32 3.92557 5.12415 0
M  V30 12108 H 1128.08 5.938 5.63333 0
M  V30 12109 N 1130.75 -1.41857 0.686609 0
M  V30 12110 C 1131.66 -2.34595 0.0159005 0
M  V30 12111 C 1132.67 -1.55741 -0.775933 0
M  V30 12112 O 1133.85 -1.8826 -0.71555 0
M  V30 12113 C 1130.91 -3.34395 -0.915473 0
M  V30 12114 C 1129.97 -4.29141 -0.116851 0
M  V30 12115 C 1129.21 -5.24174 -1.00386 0
M  V30 12116 O 1129.43 -5.24431 -2.2434 0
M  V30 12117 O 1128.36 -6.00152 -0.458337 0
M  V30 12118 H 1132.19 -2.9351 0.780101 0
M  V30 12119 H 1129.78 -1.42559 0.446896 0
M  V30 12120 H 1131.66 -3.95675 -1.44981 0
M  V30 12121 H 1130.33 -2.77936 -1.65932 0
M  V30 12122 H 1129.24 -3.71238 0.461871 0
M  V30 12123 H 1130.57 -4.88673 0.588138 0
M  V30 12124 N 1132.22 -0.430739 -1.51599 0
M  V30 12125 C 1133.45 0.139197 -2.06932 0
M  V30 12126 C 1133.87 1.3626 -1.29672 0
M  V30 12127 O 1133.23 1.78219 -0.332836 0
M  V30 12128 C 1133.28 0.446593 -3.57824 0
M  V30 12129 O 1132.38 1.53414 -3.82803 0
M  V30 12130 H 1131.73 0.00475812 -0.663983 0
M  V30 12131 H 1134.26 -0.610171 -1.9529 0
M  V30 12132 H 1134.27 0.698972 -4.01968 0
M  V30 12133 H 1132.94 -0.447613 -4.13484 0
M  V30 12134 H 1131.52 1.27224 -3.50526 0
M  V30 12135 N 1133.7 1.56767 -0.161869 0
M  V30 12136 C 1134.95 1.96206 0.484537 0
M  V30 12137 C 1135.27 1.04848 1.64414 0
M  V30 12138 O 1134.54 0.112946 1.95574 0
M  V30 12139 H 1133.12 0.724491 0.181994 0
M  V30 12140 H 1135.78 1.93406 -0.240845 0
M  V30 12141 H 1134.88 3.00279 0.85083 0
M  V30 12142 N 1135.18 -0.111886 1.57202 0
M  V30 12143 C 1136.14 -1.12101 1.99915 0
M  V30 12144 C 1137.14 -1.33906 0.890272 0
M  V30 12145 O 1138.33 -1.30303 1.15615 0
M  V30 12146 C 1135.47 -2.47392 2.34543 0
M  V30 12147 H 1136.66 -0.753736 2.90274 0
M  V30 12148 H 1134.21 -0.35641 1.52182 0
M  V30 12149 H 1134.95 -2.89026 1.47086 0
M  V30 12150 H 1134.73 -2.32917 3.15423 0
M  V30 12151 H 1136.22 -3.20004 2.68304 0
M  V30 12152 N 1136.66 -1.52894 -0.382264 0
M  V30 12153 C 1137.61 -1.78151 -1.46734 0
M  V30 12154 C 1138.58 -0.625034 -1.53891 0
M  V30 12155 O 1139.76 -0.865467 -1.70042 0
M  V30 12156 C 1136.9 -1.96223 -2.83885 0
M  V30 12157 C 1136.01 -3.23925 -2.85826 0
M  V30 12158 C 1135.15 -3.32277 -4.14446 0
M  V30 12159 C 1134.19 -4.54076 -4.10465 0
M  V30 12160 N 1133.32 -4.59672 -5.30703 0
M  V30 12161 H 1138.16 -2.70748 -1.24497 0
M  V30 12162 H 1135.7 -1.34135 -0.603838 0
M  V30 12163 H 1137.66 -2.04686 -3.63537 0
M  V30 12164 H 1136.29 -1.0698 -3.04557 0
M  V30 12165 H 1135.34 -3.245 -1.98505 0
M  V30 12166 H 1136.65 -4.1364 -2.78754 0
M  V30 12167 H 1135.81 -3.3996 -5.02506 0
M  V30 12168 H 1134.55 -2.40548 -4.2425 0
M  V30 12169 H 1133.55 -4.46511 -3.20793 0
M  V30 12170 H 1134.78 -5.47128 -4.02278 0
M  V30 12171 H 1132.72 -3.70838 -5.41124 0
M  V30 12172 H 1132.64 -5.43268 -5.25734 0
M  V30 12173 H 1133.91 -4.71618 -6.20642 0
M  V30 12174 N 1138.14 0.641106 -1.43971 0
M  V30 12175 C 1139.55 0.958161 -1.27638 0
M  V30 12176 C 1139.75 2.00456 -0.204885 0
M  V30 12177 O 1138.81 2.49106 0.412606 0
M  V30 12178 C 1140.12 1.43091 -2.64472 0
M  V30 12179 C 1141.67 1.54692 -2.72102 0
M  V30 12180 C 1142.15 2.05353 -4.09382 0
M  V30 12181 N 1143.64 2.12638 -4.11509 0
M  V30 12182 C 1144.37 2.52987 -5.14573 0
M  V30 12183 N 1143.87 2.92544 -6.28005 0
M  V30 12184 N 1145.66 2.53033 -5.01927 0
M  V30 12185 H 1137.81 -0.0510973 -2.12339 0
M  V30 12186 H 1140.07 0.039748 -0.947166 0
M  V30 12187 H 1139.78 0.736389 -3.43904 0
M  V30 12188 H 1139.65 2.40375 -2.90688 0
M  V30 12189 H 1142.04 2.23242 -1.92994 0
M  V30 12190 H 1142.12 0.558083 -2.49638 0
M  V30 12191 H 1141.77 1.37401 -4.88962 0
M  V30 12192 H 1141.7 3.0509 -4.29218 0
M  V30 12193 H 1144.19 1.84792 -3.29636 0
M  V30 12194 H 1144.5 3.22116 -7.02468 0
M  V30 12195 H 1142.85 2.90319 -6.31458 0
M  V30 12196 H 1146.04 2.21514 -4.1237 0
M  V30 12197 H 1146.21 2.84155 -5.82375 0
M  V30 12198 N 1139.62 1.30703 0.880598 0
M  V30 12199 C 1141.03 1.17818 1.4483 0
M  V30 12200 C 1141.38 -0.219456 1.94969 0
M  V30 12201 O 1140.5 -1.11646 1.85375 0
M  V30 12202 C 1141.1 2.13275 2.63247 0
M  V30 12203 C 1139.66 2.04356 3.16094 0
M  V30 12204 C 1138.8 2.03108 1.88792 0
M  V30 12205 H 1141.75 1.42909 0.690125 0
M  V30 12206 H 1141.78 1.71615 3.39601 0
M  V30 12207 H 1141.29 3.14988 2.26725 0
M  V30 12208 H 1139.39 1.058 3.57263 0
M  V30 12209 H 1139.5 2.92953 3.79098 0
M  V30 12210 H 1137.87 1.47971 2.07308 0
M  V30 12211 H 1138.65 3.06558 1.54521 0
M  V30 12212 N 1141.09 -1.09351 1.1349 0
M  V30 12213 C 1142.34 -1.81988 0.908397 0
M  V30 12214 C 1142.69 -1.84087 -0.559442 0
M  V30 12215 O 1141.99 -1.29866 -1.40873 0
M  V30 12216 C 1142.18 -3.27498 1.43108 0
M  V30 12217 C 1142.01 -3.39575 2.9482 0
M  V30 12218 C 1140.78 -3.51332 3.63172 0
M  V30 12219 C 1142.98 -3.3204 3.92752 0
M  V30 12220 N 1140.96 -3.521 5.02891 0
M  V30 12221 C 1142.33 -3.39686 5.18665 0
M  V30 12222 C 1144.39 -3.15712 3.85007 0
M  V30 12223 C 1143.09 -3.32686 6.3774 0
M  V30 12224 C 1145.12 -3.10038 5.03617 0
M  V30 12225 C 1144.48 -3.18277 6.28394 0
M  V30 12226 H 1140.58 -0.680196 0.385821 0
M  V30 12227 H 1143.16 -1.30683 1.44326 0
M  V30 12228 H 1141.33 -3.77271 0.923118 0
M  V30 12229 H 1143.06 -3.8815 1.14549 0
M  V30 12230 H 1139.82 -3.54813 3.13695 0
M  V30 12231 H 1140.24 -3.56066 5.758 0
M  V30 12232 H 1144.88 -3.08212 2.89422 0
M  V30 12233 H 1142.6 -3.38949 7.3358 0
M  V30 12234 H 1146.19 -2.98539 4.99365 0
M  V30 12235 H 1145.07 -3.13904 7.18634 0
M  V30 12236 N 1142.57 -0.928524 -1.27343 0
M  V30 12237 C 1143.99 -0.62889 -1.46687 0
M  V30 12238 C 1144.19 0.821592 -1.83989 0
M  V30 12239 O 1143.24 1.59941 -1.95385 0
M  V30 12240 C 1144.56 -1.57947 -2.55878 0
M  V30 12241 C 1146.1 -1.58778 -2.69738 0
M  V30 12242 C 1146.58 -2.52535 -3.82087 0
M  V30 12243 N 1148.07 -2.50747 -3.89462 0
M  V30 12244 C 1148.81 -3.19981 -4.75814 0
M  V30 12245 N 1148.3 -3.98598 -5.66649 0
M  V30 12246 N 1150.09 -3.08996 -4.69551 0
M  V30 12247 H 1142.25 -1.86625 -1.01414 0
M  V30 12248 H 1144.51 -0.801293 -0.50659 0
M  V30 12249 H 1144.21 -2.61427 -2.35264 0
M  V30 12250 H 1144.09 -1.3218 -3.53282 0
M  V30 12251 H 1146.48 -0.560292 -2.89732 0
M  V30 12252 H 1146.56 -1.88594 -1.72817 0
M  V30 12253 H 1146.2 -3.55395 -3.62846 0
M  V30 12254 H 1146.13 -2.20015 -4.78436 0
M  V30 12255 H 1148.62 -1.93651 -3.24511 0
M  V30 12256 H 1148.93 -4.4841 -6.29403 0
M  V30 12257 H 1147.28 -4.02701 -5.66442 0
M  V30 12258 H 1150.47 -2.4707 -3.97585 0
M  V30 12259 H 1150.64 -3.63223 -5.36631 0
M  V30 12260 N 1144.05 1.41491 -0.694123 0
M  V30 12261 C 1145 2.30783 -0.0278824 0
M  V30 12262 C 1145.97 1.47028 0.772783 0
M  V30 12263 O 1147.15 1.75819 0.74111 0
M  V30 12264 C 1144.29 3.33061 0.903579 0
M  V30 12265 C 1143.4 4.31896 0.0946823 0
M  V30 12266 C 1142.54 5.21243 1.02365 0
M  V30 12267 C 1141.58 6.11748 0.207578 0
M  V30 12268 N 1140.72 6.93583 1.09028 0
M  V30 12269 H 1145.56 2.87197 -0.795092 0
M  V30 12270 H 1143.09 1.41449 -0.403806 0
M  V30 12271 H 1145.05 3.90907 1.45765 0
M  V30 12272 H 1143.68 2.782 1.6372 0
M  V30 12273 H 1142.73 3.76009 -0.576289 0
M  V30 12274 H 1144.04 4.95889 -0.538059 0
M  V30 12275 H 1143.2 5.83917 1.647 0
M  V30 12276 H 1141.94 4.57473 1.69025 0
M  V30 12277 H 1140.94 5.48125 -0.428854 0
M  V30 12278 H 1142.17 6.77573 -0.455206 0
M  V30 12279 H 1140.11 6.32422 1.74292 0
M  V30 12280 H 1140.03 7.54257 0.513073 0
M  V30 12281 H 1141.3 7.60726 1.70048 0
M  V30 12282 N 1145.53 0.438773 1.51369 0
M  V30 12283 C 1146.46 -0.407771 2.25543 0
M  V30 12284 C 1147.47 -0.985065 1.29616 0
M  V30 12285 O 1148.66 -0.878961 1.55359 0
M  V30 12286 C 1145.76 -1.58257 2.9968 0
M  V30 12287 C 1144.93 -1.12389 4.22714 0
M  V30 12288 C 1143.99 -2.16897 4.79418 0
M  V30 12289 O 1143.02 -1.76273 5.41218 0
M  V30 12290 N 1144.22 -3.49396 4.63576 0
M  V30 12291 H 1146.99 0.227963 2.98832 0
M  V30 12292 H 1144.55 0.267741 1.59671 0
M  V30 12293 H 1146.54 -2.27796 3.34501 0
M  V30 12294 H 1145.11 -2.12362 2.29393 0
M  V30 12295 H 1144.33 -0.255509 3.93371 0
M  V30 12296 H 1145.62 -0.794848 5.02553 0
M  V30 12297 H 1145.02 -3.85132 4.14355 0
M  V30 12298 H 1143.57 -4.14826 5.02755 0
M  V30 12299 N 1147.01 -1.56678 0.170181 0
M  V30 12300 C 1148.42 -1.58512 -0.185999 0
M  V30 12301 C 1148.62 -1.18548 -1.62937 0
M  V30 12302 O 1147.68 -0.896554 -2.36047 0
M  V30 12303 C 1148.99 -3.00554 0.0937842 0
M  V30 12304 C 1150.54 -3.12984 0.0319057 0
M  V30 12305 C 1151.01 -4.57115 0.284664 0
M  V30 12306 N 1152.5 -4.62617 0.2324 0
M  V30 12307 C 1153.24 -5.71988 0.40216 0
M  V30 12308 N 1152.74 -6.89921 0.630915 0
M  V30 12309 N 1154.53 -5.61082 0.338144 0
M  V30 12310 H 1146.68 -1.80944 1.11235 0
M  V30 12311 H 1148.94 -0.838586 0.442128 0
M  V30 12312 H 1148.65 -3.34265 1.09362 0
M  V30 12313 H 1148.52 -3.72151 -0.615118 0
M  V30 12314 H 1150.91 -2.791 -0.958502 0
M  V30 12315 H 1150.99 -2.43825 0.773501 0
M  V30 12316 H 1150.63 -4.91707 1.27227 0
M  V30 12317 H 1150.56 -5.2443 -0.477529 0
M  V30 12318 H 1153.06 -3.7785 0.0611933 0
M  V30 12319 H 1153.37 -7.69153 0.749931 0
M  V30 12320 H 1151.71 -6.91787 0.667516 0
M  V30 12321 H 1154.9 -4.67826 0.16003 0
M  V30 12322 H 1155.08 -6.46265 0.473872 0
M  V30 12323 N 1148.48 0.103547 -1.57259 0
M  V30 12324 C 1149.73 0.809774 -1.85931 0
M  V30 12325 C 1150.06 1.78791 -0.758122 0
M  V30 12326 O 1149.34 1.93079 0.234682 0
M  V30 12327 C 1149.62 1.54601 -3.25224 0
M  V30 12328 C 1149.47 0.586439 -4.45961 0
M  V30 12329 C 1150.79 2.4986 -3.62296 0
M  V30 12330 H 1147.91 0.29293 -0.676285 0
M  V30 12331 H 1150.55 0.0736065 -1.89857 0
M  V30 12332 H 1148.7 2.17355 -3.22008 0
M  V30 12333 H 1150.38 -0.0334441 -4.61288 0
M  V30 12334 H 1148.62 -0.10085 -4.33683 0
M  V30 12335 H 1149.29 1.13855 -5.40131 0
M  V30 12336 H 1151.77 1.97203 -3.66402 0
M  V30 12337 H 1150.64 2.98396 -4.60707 0
M  V30 12338 H 1150.9 3.33233 -2.90531 0
M  V30 12339 N 1149.96 1.53094 0.37415 0
M  V30 12340 C 1151.24 1.59456 1.13283 0
M  V30 12341 C 1151.62 0.396821 2.07337 0
M  V30 12342 O 1150.97 -0.613659 2.20106 0
M  V30 12343 C 1151.18 2.94069 1.87948 0
M  V30 12344 C 1152.52 3.4834 2.42785 0
M  V30 12345 O 1153.55 2.96042 1.98085 0
M  V30 12346 O 1152.41 4.39747 3.24477 0
M  V30 12347 H 1149.5 0.643731 0.519171 0
M  V30 12348 H 1152.05 1.65434 0.378105 0
M  V30 12349 H 1150.82 3.72685 1.19255 0
M  V30 12350 H 1150.44 2.91544 2.70348 0
M  V30 12351 N 1151.44 -0.633461 1.44309 0
M  V30 12352 C 1152.37 -1.7583 1.45462 0
M  V30 12353 C 1153.35 -1.59545 0.313723 0
M  V30 12354 O 1154.53 -1.8146 0.51034 0
M  V30 12355 C 1151.66 -3.13375 1.28506 0
M  V30 12356 C 1150.71 -3.48315 2.46128 0
M  V30 12357 S 1151.54 -3.46058 4.08662 0
M  V30 12358 C 1152.7 -4.86226 3.94125 0
M  V30 12359 H 1152.93 -1.74585 2.4064 0
M  V30 12360 H 1150.46 -0.807868 1.31578 0
M  V30 12361 H 1152.42 -3.92748 1.19411 0
M  V30 12362 H 1151.08 -3.12161 0.348432 0
M  V30 12363 H 1150.27 -4.48397 2.30122 0
M  V30 12364 H 1149.88 -2.76399 2.51951 0
M  V30 12365 H 1152.17 -5.75393 3.57671 0
M  V30 12366 H 1153.11 -5.07287 4.9403 0
M  V30 12367 H 1153.52 -4.60691 3.26227 0
M  V30 12368 N 1152.92 -1.31168 -0.873655 0
M  V30 12369 C 1154.15 -1.23416 -1.65686 0
M  V30 12370 C 1154.56 0.203534 -1.88102 0
M  V30 12371 O 1153.9 1.14476 -1.4367 0
M  V30 12372 C 1153.96 -1.90418 -3.04929 0
M  V30 12373 C 1153.63 -3.39757 -3.05637 0
M  V30 12374 C 1154.62 -4.35565 -2.83865 0
M  V30 12375 C 1152.31 -3.81389 -3.26875 0
M  V30 12376 C 1154.3 -5.70979 -2.83304 0
M  V30 12377 C 1151.99 -5.16918 -3.25943 0
M  V30 12378 C 1152.99 -6.11524 -3.04184 0
M  V30 12379 O 1152.67 -7.44575 -3.0309 0
M  V30 12380 H 1152.41 -0.4278 -0.523415 0
M  V30 12381 H 1154.96 -1.73525 -1.09902 0
M  V30 12382 H 1153.19 -1.34854 -3.62424 0
M  V30 12383 H 1154.88 -1.76631 -3.65453 0
M  V30 12384 H 1155.65 -4.0473 -2.67243 0
M  V30 12385 H 1151.52 -3.08187 -3.42844 0
M  V30 12386 H 1155.07 -6.44796 -2.66239 0
M  V30 12387 H 1150.97 -5.47389 -3.42104 0
M  V30 12388 H 1151.73 -7.53703 -3.19177 0
M  V30 12389 N 1154.4 1.08748 -1.14068 0
M  V30 12390 C 1155.33 2.17591 -0.84714 0
M  V30 12391 C 1156.31 1.68962 0.196415 0
M  V30 12392 O 1157.49 1.94125 0.0538415 0
M  V30 12393 C 1154.62 3.45823 -0.320005 0
M  V30 12394 C 1153.58 4.07824 -1.2986 0
M  V30 12395 C 1152.9 5.30965 -0.630925 0
M  V30 12396 C 1154.2 4.49512 -2.65963 0
M  V30 12397 H 1155.9 2.42404 -1.75729 0
M  V30 12398 H 1153.44 1.16502 -0.846356 0
M  V30 12399 H 1155.4 4.21276 -0.102271 0
M  V30 12400 H 1154.12 3.20553 0.625561 0
M  V30 12401 H 1152.78 3.34398 -1.50245 0
M  V30 12402 H 1152.43 5.01979 0.320337 0
M  V30 12403 H 1152.13 5.73402 -1.28388 0
M  V30 12404 H 1153.65 6.09136 -0.422635 0
M  V30 12405 H 1155.06 5.16159 -2.49506 0
M  V30 12406 H 1153.46 5.02857 -3.27498 0
M  V30 12407 H 1154.53 3.6157 -3.23102 0
M  V30 12408 N 1155.87 0.935264 1.26849 0
M  V30 12409 C 1157.29 0.623198 1.75992 0
M  V30 12410 C 1157.64 -0.861647 1.76267 0
M  V30 12411 O 1156.76 -1.6743 1.37099 0
M  V30 12412 C 1157.36 1.12451 3.19594 0
M  V30 12413 C 1155.92 0.862974 3.66374 0
M  V30 12414 C 1155.06 1.27886 2.4605 0
M  V30 12415 H 1158.01 1.11422 1.13008 0
M  V30 12416 H 1158.03 0.475626 3.77516 0
M  V30 12417 H 1157.55 2.20522 3.19361 0
M  V30 12418 H 1155.65 -0.203606 3.72043 0
M  V30 12419 H 1155.76 1.48582 4.55478 0
M  V30 12420 H 1154.12 0.697335 2.44968 0
M  V30 12421 H 1154.91 2.36837 2.48522 0
M  V30 12422 N 1157.35 -1.41121 0.701616 0
M  V30 12423 C 1158.32 -2.29148 0.0490091 0
M  V30 12424 C 1159.32 -1.44679 -0.701763 0
M  V30 12425 O 1160.51 -1.65757 -0.53575 0
M  V30 12426 C 1157.64 -3.2766 -0.940837 0
M  V30 12427 H 1158.83 -2.88354 0.824133 0
M  V30 12428 H 1156.38 -1.49209 0.465457 0
M  V30 12429 H 1157.12 -2.73445 -1.74351 0
M  V30 12430 H 1156.9 -3.89997 -0.405551 0
M  V30 12431 H 1158.39 -3.93609 -1.39507 0
M  V30 12432 N 1158.83 -0.446794 -1.51134 0
M  V30 12433 C 1160.11 0.176892 -1.94798 0
M  V30 12434 C 1160.49 1.59229 -1.38598 0
M  V30 12435 O 1159.84 2.21097 -0.576905 0
M  V30 12436 C 1160.05 0.145 -3.48699 0
M  V30 12437 C 1161.39 0.345917 -4.23189 0
M  V30 12438 O 1162.42 0.222691 -3.55503 0
M  V30 12439 O 1161.28 0.592112 -5.43283 0
M  V30 12440 H 1158.37 0.12486 -0.81752 0
M  V30 12441 H 1160.92 -0.505453 -1.61998 0
M  V30 12442 H 1159.69 -0.844156 -3.82086 0
M  V30 12443 H 1159.31 0.869851 -3.87968 0
M  V30 12444 N 1160.31 1.56586 -0.178487 0
M  V30 12445 C 1161.26 2.18309 0.74899 0
M  V30 12446 C 1162.23 1.12525 1.22178 0
M  V30 12447 O 1163.41 1.40706 1.28866 0
M  V30 12448 C 1160.55 2.83353 1.9699 0
M  V30 12449 C 1159.66 4.03618 1.54002 0
M  V30 12450 C 1158.8 4.56567 2.71514 0
M  V30 12451 C 1157.84 5.69226 2.25051 0
M  V30 12452 N 1156.97 6.16654 3.35682 0
M  V30 12453 H 1161.81 2.97217 0.21587 0
M  V30 12454 H 1159.35 1.46794 0.0948182 0
M  V30 12455 H 1161.31 3.19226 2.68609 0
M  V30 12456 H 1159.94 2.07037 2.4766 0
M  V30 12457 H 1158.99 3.73518 0.720298 0
M  V30 12458 H 1160.3 4.85148 1.15901 0
M  V30 12459 H 1159.46 4.94659 3.5128 0
M  V30 12460 H 1158.2 3.7411 3.12879 0
M  V30 12461 H 1157.2 5.30679 1.43734 0
M  V30 12462 H 1158.43 6.5349 1.84736 0
M  V30 12463 H 1156.37 5.37124 3.76609 0
M  V30 12464 H 1156.29 6.93192 3.01697 0
M  V30 12465 H 1157.56 6.59397 4.15711 0
M  V30 12466 N 1161.79 -0.095206 1.57312 0
M  V30 12467 C 1163.04 -0.797417 1.85268 0
M  V30 12468 C 1163.35 -1.79903 0.767733 0
M  V30 12469 O 1164.55 -2.54914 0.934409 0
M  V30 12470 C 1163.01 -1.469 3.28555 0
M  V30 12471 C 1162.62 -0.507152 4.4512 0
M  V30 12472 C 1164.36 -2.15494 3.65735 0
M  V30 12473 C 1162.27 -1.18331 5.79441 0
M  V30 12474 H 1161.2 -0.301552 0.691074 0
M  V30 12475 H 1163.85 -0.0503584 1.83431 0
M  V30 12476 H 1162.23 -2.26351 3.24933 0
M  V30 12477 H 1163.41 0.255858 4.60089 0
M  V30 12478 H 1161.72 0.0730882 4.16336 0
M  V30 12479 H 1164.32 -2.66816 4.63371 0
M  V30 12480 H 1164.66 -2.94383 2.94354 0
M  V30 12481 H 1165.19 -1.42903 3.71246 0
M  V30 12482 H 1161.93 -0.435238 6.54053 0
M  V30 12483 H 1161.45 -1.91775 5.68315 0
M  V30 12484 H 1163.13 -1.70983 6.23998 0
M  V30 12485 N 1163.26 -1.53291 -0.366026 0
M  V30 12486 C 1164.51 -1.69117 -1.10653 0
M  V30 12487 C 1164.83 -0.445327 -1.89847 0
M  V30 12488 O 1164.1 0.540616 -1.88293 0
M  V30 12489 H 1162.68 -0.623446 -0.41149 0
M  V30 12490 H 1165.35 -1.90479 -0.412749 0
M  V30 12491 H 1164.44 -2.55205 -1.79658 0
M  V30 12492 N 1164.74 0.6258 -1.44643 0
M  V30 12493 C 1165.67 1.74858 -1.54748 0
M  V30 12494 C 1166.65 1.65327 -0.400138 0
M  V30 12495 O 1167.84 1.84005 -0.620948 0
M  V30 12496 C 1164.97 3.13408 -1.49643 0
M  V30 12497 C 1163.92 3.37733 -2.62908 0
M  V30 12498 C 1163.25 4.76367 -2.42855 0
M  V30 12499 C 1164.55 3.29771 -4.05029 0
M  V30 12500 H 1166.24 1.66658 -2.48728 0
M  V30 12501 H 1163.79 0.800363 -1.19709 0
M  V30 12502 H 1165.74 3.91735 -1.55312 0
M  V30 12503 H 1164.47 3.22404 -0.521824 0
M  V30 12504 H 1163.12 2.61788 -2.56637 0
M  V30 12505 H 1162.77 4.82074 -1.43575 0
M  V30 12506 H 1162.47 4.936 -3.18799 0
M  V30 12507 H 1164 5.56917 -2.50351 0
M  V30 12508 H 1165.41 3.97996 -4.12641 0
M  V30 12509 H 1163.81 3.58538 -4.81218 0
M  V30 12510 H 1164.88 2.27493 -4.28223 0
M  V30 12511 N 1166.22 1.31629 0.866686 0
M  V30 12512 C 1167.17 1.16149 1.96197 0
M  V30 12513 C 1168.15 0.0716068 1.60741 0
M  V30 12514 O 1169.35 0.296868 1.74493 0
M  V30 12515 C 1166.48 0.874322 3.3198 0
M  V30 12516 C 1165.56 2.00534 3.73693 0
M  V30 12517 N 1165.95 3.25272 3.87339 0
M  V30 12518 C 1164.25 1.90582 4.0323 0
M  V30 12519 C 1164.95 3.99275 4.2303 0
M  V30 12520 N 1163.93 3.27471 4.33894 0
M  V30 12521 H 1167.73 2.10732 2.04864 0
M  V30 12522 H 1165.24 1.23234 1.05769 0
M  V30 12523 H 1167.24 0.7444 4.102 0
M  V30 12524 H 1165.9 -0.0632521 3.24638 0
M  V30 12525 H 1166.91 3.60349 3.71979 0
M  V30 12526 H 1163.59 1.0431 4.0426 0
M  V30 12527 H 1164.98 5.06784 4.41157 0
M  V30 12528 N 1167.7 -1.08142 1.14644 0
M  V30 12529 C 1168.63 -2.17139 0.858667 0
M  V30 12530 C 1169.61 -1.69064 -0.187452 0
M  V30 12531 O 1170.8 -1.94151 -0.0435458 0
M  V30 12532 C 1167.93 -3.45648 0.33834 0
M  V30 12533 C 1166.88 -4.07129 1.32021 0
M  V30 12534 C 1166.21 -5.30623 0.659075 0
M  V30 12535 C 1167.51 -4.48095 2.68343 0
M  V30 12536 H 1169.2 -2.41468 1.77012 0
M  V30 12537 H 1166.75 -1.16052 0.852523 0
M  V30 12538 H 1168.7 -4.21216 0.124611 0
M  V30 12539 H 1167.42 -3.2088 -0.608553 0
M  V30 12540 H 1166.08 -3.33596 1.52016 0
M  V30 12541 H 1165.73 -5.02142 -0.293711 0
M  V30 12542 H 1165.43 -5.72714 1.31427 0
M  V30 12543 H 1166.95 -6.08903 0.454933 0
M  V30 12544 H 1168.37 -5.14828 2.5224 0
M  V30 12545 H 1166.76 -5.01113 3.30161 0
M  V30 12546 H 1167.83 -3.59852 3.25015 0
M  V30 12547 N 1169.18 -0.941978 -1.26351 0
M  V30 12548 C 1170.59 -0.644413 -1.46012 0
M  V30 12549 C 1170.79 0.802031 -1.84851 0
M  V30 12550 O 1169.85 1.57859 -1.9707 0
M  V30 12551 C 1171.16 -1.60652 -2.54188 0
M  V30 12552 C 1172.71 -1.6163 -2.68038 0
M  V30 12553 C 1173.19 -2.56573 -3.79387 0
M  V30 12554 N 1174.68 -2.54863 -3.8678 0
M  V30 12555 C 1175.41 -3.2501 -4.72394 0
M  V30 12556 N 1174.91 -4.04586 -5.6239 0
M  V30 12557 N 1176.7 -3.13958 -4.66247 0
M  V30 12558 H 1168.85 -1.8769 -0.994293 0
M  V30 12559 H 1171.11 -0.806621 -0.498063 0
M  V30 12560 H 1170.82 -2.63907 -2.32478 0
M  V30 12561 H 1170.69 -1.3592 -3.5186 0
M  V30 12562 H 1173.08 -0.59099 -2.89122 0
M  V30 12563 H 1173.16 -1.90417 -1.70807 0
M  V30 12564 H 1172.81 -3.59223 -3.59056 0
M  V30 12565 H 1172.74 -2.25077 -4.76076 0
M  V30 12566 H 1175.23 -1.97082 -3.22439 0
M  V30 12567 H 1175.54 -4.55061 -6.24612 0
M  V30 12568 H 1173.89 -4.08687 -5.62139 0
M  V30 12569 H 1177.08 -2.51273 -3.94943 0
M  V30 12570 H 1177.25 -3.68894 -5.32749 0
M  V30 12571 N 1170.66 1.40747 -0.709091 0
M  V30 12572 C 1171.9 2.00606 -0.245324 0
M  V30 12573 C 1172.22 1.56489 1.16346 0
M  V30 12574 O 1171.49 0.801456 1.78755 0
M  V30 12575 H 1170.07 0.741833 -0.0877098 0
M  V30 12576 H 1172.74 1.72178 -0.913271 0
M  V30 12577 H 1171.83 3.10901 -0.273322 0
M  V30 12578 N 1172.13 0.454803 1.50895 0
M  V30 12579 C 1173.38 -0.105562 2.01824 0
M  V30 12580 C 1173.7 -1.41673 1.33992 0
M  V30 12581 O 1172.97 -1.89929 0.479994 0
M  V30 12582 H 1171.55 -0.0420011 0.745818 0
M  V30 12583 H 1174.21 0.601504 1.85386 0
M  V30 12584 H 1173.31 -0.268872 3.1094 0
M  V30 12585 N 1173.61 -1.56489 0.186789 0
M  V30 12586 C 1174.84 -2.01429 -0.459326 0
M  V30 12587 C 1175.25 -1.06611 -1.56303 0
M  V30 12588 O 1174.59 -0.0617053 -1.83596 0
M  V30 12589 C 1174.65 -3.42778 -1.08367 0
M  V30 12590 C 1174.32 -4.56843 -0.119719 0
M  V30 12591 C 1175.32 -5.15594 0.667782 0
M  V30 12592 C 1173 -5.02299 -0.0110494 0
M  V30 12593 C 1174.99 -6.18242 1.551 0
M  V30 12594 C 1172.68 -6.04793 0.875738 0
M  V30 12595 C 1173.68 -6.62637 1.65534 0
M  V30 12596 O 1173.37 -7.63141 2.52728 0
M  V30 12597 H 1173.1 -0.665175 -0.120492 0
M  V30 12598 H 1175.65 -2.03338 0.290283 0
M  V30 12599 H 1173.88 -3.3783 -1.8817 0
M  V30 12600 H 1175.57 -3.71577 -1.63357 0
M  V30 12601 H 1176.34 -4.81348 0.594085 0
M  V30 12602 H 1172.22 -4.56977 -0.607667 0
M  V30 12603 H 1175.76 -6.63319 2.15995 0
M  V30 12604 H 1171.66 -6.38462 0.950581 0
M  V30 12605 H 1172.43 -7.80527 2.46415 0
M  V30 12606 N 1175.09 0.086862 -1.5736 0
M  V30 12607 C 1176.34 0.787581 -1.85688 0
M  V30 12608 C 1176.65 1.79494 -0.777263 0
M  V30 12609 O 1177.86 2.54415 -0.947914 0
M  V30 12610 C 1176.31 1.45155 -3.2933 0
M  V30 12611 C 1175.92 0.483539 -4.45383 0
M  V30 12612 C 1177.67 2.13552 -3.66873 0
M  V30 12613 C 1175.57 1.15257 -5.8006 0
M  V30 12614 H 1174.5 0.297882 -0.692663 0
M  V30 12615 H 1177.15 0.0406299 -1.83455 0
M  V30 12616 H 1175.54 2.24625 -3.26128 0
M  V30 12617 H 1176.71 -0.280254 -4.59947 0
M  V30 12618 H 1175.02 -0.0951664 -4.16291 0
M  V30 12619 H 1177.62 2.64355 -4.6478 0
M  V30 12620 H 1177.96 2.92818 -2.95911 0
M  V30 12621 H 1178.5 1.40932 -3.71999 0
M  V30 12622 H 1175.24 0.400546 -6.54275 0
M  V30 12623 H 1174.76 1.88759 -5.69324 0
M  V30 12624 H 1176.44 1.67671 -6.24896 0
M  V30 12625 N 1176.57 1.53483 0.357892 0
M  V30 12626 C 1177.82 1.69256 1.09706 0
M  V30 12627 C 1178.13 0.454888 1.90237 0
M  V30 12628 O 1179.34 0.4933 2.66981 0
M  V30 12629 C 1177.79 2.99238 1.99961 0
M  V30 12630 C 1177.4 4.30293 1.24706 0
M  V30 12631 C 1179.14 3.24378 2.73823 0
M  V30 12632 C 1177.05 5.5136 2.13907 0
M  V30 12633 H 1175.98 0.630657 0.413265 0
M  V30 12634 H 1178.63 1.79983 0.357518 0
M  V30 12635 H 1177.01 2.82332 2.77677 0
M  V30 12636 H 1178.19 4.57857 0.519995 0
M  V30 12637 H 1176.5 4.11656 0.626736 0
M  V30 12638 H 1179.1 4.12015 3.40805 0
M  V30 12639 H 1179.44 2.40769 3.39612 0
M  V30 12640 H 1179.98 3.41994 2.03187 0
M  V30 12641 H 1176.71 6.3747 1.52684 0
M  V30 12642 H 1176.23 5.28065 2.84442 0
M  V30 12643 H 1177.91 5.86448 2.7329 0
M  V30 12644 N 1178.05 -0.61812 1.44973 0
M  V30 12645 C 1179.46 -1.19994 1.43033 0
M  V30 12646 C 1179.81 -1.95607 0.152422 0
M  V30 12647 O 1178.93 -2.03114 -0.746571 0
M  V30 12648 C 1179.53 -2.18269 2.59122 0
M  V30 12649 C 1178.09 -2.7185 2.60336 0
M  V30 12650 C 1177.23 -1.4707 2.35086 0
M  V30 12651 H 1180.18 -0.408034 1.53365 0
M  V30 12652 H 1180.21 -3.01113 2.32619 0
M  V30 12653 H 1179.72 -1.63208 3.52115 0
M  V30 12654 H 1177.82 -3.30878 1.7132 0
M  V30 12655 H 1177.93 -3.17001 3.59231 0
M  V30 12656 H 1176.3 -1.75658 1.84435 0
M  V30 12657 H 1177.08 -0.938928 3.30211 0
M  V30 12658 N 1179.52 -1.32087 -0.859693 0
M  V30 12659 C 1180.77 -1.21716 -1.60836 0
M  V30 12660 C 1181.09 0.220904 -1.94349 0
M  V30 12661 O 1182.29 0.446422 -2.67805 0
M  V30 12662 C 1180.75 -2.13143 -2.89997 0
M  V30 12663 C 1180.36 -3.62003 -2.63928 0
M  V30 12664 C 1182.1 -2.11596 -3.68004 0
M  V30 12665 C 1180.01 -4.45407 -3.89059 0
M  V30 12666 H 1178.94 -0.45199 -0.603507 0
M  V30 12667 H 1181.59 -1.57013 -0.949687 0
M  V30 12668 H 1179.97 -1.70755 -3.57294 0
M  V30 12669 H 1181.14 -4.12701 -2.04974 0
M  V30 12670 H 1179.46 -3.6563 -1.99258 0
M  V30 12671 H 1182.06 -2.71149 -4.6085 0
M  V30 12672 H 1182.4 -1.10568 -4.01348 0
M  V30 12673 H 1182.93 -2.52238 -3.07605 0
M  V30 12674 H 1179.67 -5.4723 -3.60859 0
M  V30 12675 H 1179.19 -3.99462 -4.47427 0
M  V30 12676 H 1180.87 -4.58149 -4.56846 0
M  V30 12677 N 1181 1.07532 -1.15215 0
M  V30 12678 C 1181.93 2.14598 -0.805006 0
M  V30 12679 C 1182.95 1.61778 0.182152 0
M  V30 12680 O 1184.14 1.78453 -0.040834 0
M  V30 12681 C 1181.24 3.38444 -0.175736 0
M  V30 12682 C 1180.41 4.20621 -1.19986 0
M  V30 12683 C 1179.47 5.22851 -0.592705 0
M  V30 12684 O 1178.49 5.55121 -1.25815 0
M  V30 12685 N 1179.7 5.7711 0.626425 0
M  V30 12686 H 1182.46 2.44981 -1.7264 0
M  V30 12687 H 1180.02 1.23423 -1.04778 0
M  V30 12688 H 1182.01 4.03969 0.243166 0
M  V30 12689 H 1180.58 3.0579 0.64896 0
M  V30 12690 H 1179.8 3.50941 -1.79539 0
M  V30 12691 H 1181.09 4.72339 -1.89139 0
M  V30 12692 H 1180.49 5.53139 1.18546 0
M  V30 12693 H 1179.05 6.44273 0.98771 0
M  V30 12694 N 1182.48 0.948665 1.2585 0
M  V30 12695 C 1183.39 0.470525 2.29833 0
M  V30 12696 C 1184.41 -0.45919 1.67832 0
M  V30 12697 O 1185.58 -0.336893 1.98562 0
M  V30 12698 C 1182.65 -0.249635 3.458 0
M  V30 12699 C 1181.71 0.717559 4.23261 0
M  V30 12700 C 1180.94 0.0316724 5.33691 0
M  V30 12701 O 1181.16 -1.18384 5.5798 0
M  V30 12702 O 1180.1 0.71418 5.97648 0
M  V30 12703 H 1183.92 1.33447 2.72811 0
M  V30 12704 H 1181.51 0.714864 1.31187 0
M  V30 12705 H 1183.39 -0.654993 4.16279 0
M  V30 12706 H 1182.07 -1.08885 3.04837 0
M  V30 12707 H 1180.97 1.17301 3.55234 0
M  V30 12708 H 1182.31 1.52461 4.67992 0
M  V30 12709 N 1183.96 -1.40369 0.716545 0
M  V30 12710 C 1185.37 -1.83783 0.328719 0
M  V30 12711 C 1185.72 -1.5991 -1.13681 0
M  V30 12712 O 1184.85 -1.08048 -1.87496 0
M  V30 12713 C 1185.44 -3.33626 0.589848 0
M  V30 12714 C 1184 -3.7553 0.25572 0
M  V30 12715 C 1183.15 -2.63571 0.861733 0
M  V30 12716 H 1186.1 -1.29623 0.915621 0
M  V30 12717 H 1186.12 -3.80225 -0.14459 0
M  V30 12718 H 1185.63 -3.5097 1.65655 0
M  V30 12719 H 1183.73 -3.63781 -0.805883 0
M  V30 12720 H 1183.84 -4.73577 0.725388 0
M  V30 12721 H 1182.21 -2.53047 0.289706 0
M  V30 12722 H 1182.99 -2.83727 1.93272 0
M  V30 12723 N 1185.44 -0.462799 -1.50652 0
M  V30 12724 C 1186.71 0.156221 -1.94975 0
M  V30 12725 C 1187.09 1.5775 -1.40279 0
M  V30 12726 O 1186.44 2.20473 -0.600323 0
M  V30 12727 C 1186.65 0.108008 -3.48833 0
M  V30 12728 C 1188 0.301013 -4.23532 0
M  V30 12729 O 1189.02 0.184973 -3.55719 0
M  V30 12730 O 1187.88 0.534457 -5.4388 0
M  V30 12731 H 1184.98 0.116182 -0.818798 0
M  V30 12732 H 1187.52 -0.522607 -1.61453 0
M  V30 12733 H 1186.29 -0.884634 -3.81169 0
M  V30 12734 H 1185.92 0.828653 -3.88869 0
M  V30 12735 N 1186.91 1.56388 -0.195085 0
M  V30 12736 C 1188.16 1.97872 0.444344 0
M  V30 12737 C 1188.49 1.0819 1.61271 0
M  V30 12738 O 1187.77 0.133904 1.94039 0
M  V30 12739 C 1188.05 3.48556 0.90449 0
M  V30 12740 C 1187.9 4.49015 -0.265693 0
M  V30 12741 C 1189.22 4.02938 1.76999 0
M  V30 12742 H 1186.34 0.719413 0.160041 0
M  V30 12743 H 1188.98 1.87835 -0.286005 0
M  V30 12744 H 1187.13 3.5724 1.52682 0
M  V30 12745 H 1188.81 4.52368 -0.903363 0
M  V30 12746 H 1187.05 4.23987 -0.917462 0
M  V30 12747 H 1187.72 5.51912 0.0987834 0
M  V30 12748 H 1190.2 3.97033 1.24514 0
M  V30 12749 H 1189.07 5.08741 2.06092 0
M  V30 12750 H 1189.33 3.48197 2.72418 0
M  V30 12751 N 1188.39 -0.0785156 1.57404 0
M  V30 12752 C 1189.62 -0.792042 1.9114 0
M  V30 12753 C 1190.04 -1.71458 0.790408 0
M  V30 12754 O 1189.39 -1.80959 -0.236662 0
M  V30 12755 C 1189.44 -1.59138 3.24588 0
M  V30 12756 O 1189.16 -0.705931 4.32375 0
M  V30 12757 C 1190.67 -2.4065 3.72293 0
M  V30 12758 H 1187.89 -0.225566 0.63195 0
M  V30 12759 H 1190.43 -0.0507929 2.04437 0
M  V30 12760 H 1188.58 -2.28498 3.12838 0
M  V30 12761 H 1189 -1.26121 5.09111 0
M  V30 12762 H 1190.47 -2.92204 4.68317 0
M  V30 12763 H 1190.95 -3.1987 3.00965 0
M  V30 12764 H 1191.56 -1.7646 3.86965 0
M  V30 12765 N 1189.87 -1.5367 -0.349747 0
M  V30 12766 C 1191.1 -1.74547 -1.11089 0
M  V30 12767 C 1191.51 -0.481741 -1.82551 0
M  V30 12768 O 1190.87 0.546272 -1.74132 0
M  V30 12769 C 1190.92 -2.92148 -2.12913 0
M  V30 12770 O 1190.64 -4.13633 -1.44358 0
M  V30 12771 C 1192.14 -3.25027 -3.01451 0
M  V30 12772 H 1189.36 -0.583376 -0.331532 0
M  V30 12773 H 1191.91 -2.00473 -0.403841 0
M  V30 12774 H 1190.06 -2.68572 -2.79192 0
M  V30 12775 H 1190.48 -4.79601 -2.12329 0
M  V30 12776 H 1191.95 -4.10679 -3.68845 0
M  V30 12777 H 1192.43 -2.41064 -3.67131 0
M  V30 12778 H 1193.03 -3.50586 -2.40768 0
M  V30 12779 N 1191.35 0.610423 -1.45298 0
M  V30 12780 C 1192.58 1.39621 -1.52688 0
M  V30 12781 C 1192.99 1.88133 -0.158535 0
M  V30 12782 O 1192.35 1.62051 0.839396 0
M  V30 12783 C 1192.4 2.60261 -2.50891 0
M  V30 12784 O 1192.12 2.13766 -3.82408 0
M  V30 12785 C 1193.62 3.53154 -2.6795 0
M  V30 12786 H 1190.84 0.427493 -0.517195 0
M  V30 12787 H 1193.39 0.744701 -1.90459 0
M  V30 12788 H 1191.54 3.2146 -2.162 0
M  V30 12789 H 1191.95 2.92128 -4.35616 0
M  V30 12790 H 1193.43 4.34355 -3.40647 0
M  V30 12791 H 1193.91 4.03311 -1.73888 0
M  V30 12792 H 1194.51 2.9781 -3.03627 0
M  V30 12793 N 1192.83 1.32541 0.852676 0
M  V30 12794 C 1193.79 1.21578 1.94297 0
M  V30 12795 C 1194.79 0.138318 1.60204 0
M  V30 12796 O 1195.98 0.388864 1.69804 0
M  V30 12797 C 1193.11 0.870209 3.29606 0
M  V30 12798 H 1194.3 2.18476 2.05446 0
M  V30 12799 H 1191.86 1.16401 1.0431 0
M  V30 12800 H 1192.59 -0.0968698 3.24155 0
M  V30 12801 H 1192.38 1.64924 3.55728 0
M  V30 12802 H 1193.87 0.817874 4.09513 0
M  V30 12803 N 1194.3 -1.0692 1.15784 0
M  V30 12804 C 1195.53 -1.83849 0.959903 0
M  V30 12805 C 1195.95 -1.8169 -0.486873 0
M  V30 12806 O 1195.31 -1.21305 -1.34739 0
M  V30 12807 C 1195.36 -3.28642 1.48414 0
M  V30 12808 O 1194.46 -4.0665 0.686249 0
M  V30 12809 H 1193.81 -0.569115 0.342059 0
M  V30 12810 H 1196.34 -1.34851 1.53871 0
M  V30 12811 H 1196.35 -3.7947 1.49888 0
M  V30 12812 H 1195.02 -3.29529 2.53739 0
M  V30 12813 H 1193.6 -3.65453 0.741501 0
M  V30 12814 N 1195.78 -0.955326 -1.25345 0
M  V30 12815 C 1197.2 -0.659863 -1.4532 0
M  V30 12816 C 1197.4 0.78238 -1.85691 0
M  V30 12817 O 1196.45 1.5576 -1.98734 0
M  V30 12818 C 1197.77 -1.63339 -2.5247 0
M  V30 12819 C 1199.32 -1.64464 -2.66309 0
M  V30 12820 C 1199.79 -2.60583 -3.76644 0
M  V30 12821 N 1201.28 -2.58951 -3.84055 0
M  V30 12822 C 1202.02 -3.30002 -4.6892 0
M  V30 12823 N 1201.51 -4.10528 -5.58067 0
M  V30 12824 N 1203.31 -3.18886 -4.62891 0
M  V30 12825 H 1195.46 -1.88734 -0.97433 0
M  V30 12826 H 1197.72 -0.811858 -0.48948 0
M  V30 12827 H 1197.43 -2.66358 -2.29665 0
M  V30 12828 H 1197.3 -1.39644 -3.50399 0
M  V30 12829 H 1199.69 -0.621622 -2.88479 0
M  V30 12830 H 1199.77 -1.92218 -1.68778 0
M  V30 12831 H 1199.41 -3.63011 -3.55226 0
M  V30 12832 H 1199.34 -2.30113 -4.73662 0
M  V30 12833 H 1201.83 -2.00491 -3.20331 0
M  V30 12834 H 1202.15 -4.6166 -6.1975 0
M  V30 12835 H 1200.49 -4.14626 -5.57773 0
M  V30 12836 H 1203.68 -2.55447 -3.92255 0
M  V30 12837 H 1203.85 -3.74524 -5.28806 0
M  V30 12838 N 1197.26 1.39987 -0.723979 0
M  V30 12839 C 1198.21 2.30672 -0.0768286 0
M  V30 12840 C 1199.18 1.48634 0.741422 0
M  V30 12841 O 1200.36 1.77351 0.703649 0
M  V30 12842 C 1197.5 3.34902 0.832729 0
M  V30 12843 C 1196.62 4.32 0.00304942 0
M  V30 12844 C 1195.75 5.23298 0.91286 0
M  V30 12845 C 1194.79 6.12051 0.0777706 0
M  V30 12846 N 1193.93 6.9574 0.942912 0
M  V30 12847 H 1198.77 2.85446 -0.855832 0
M  V30 12848 H 1196.3 1.40561 -0.433718 0
M  V30 12849 H 1198.26 3.93911 1.37441 0
M  V30 12850 H 1196.89 2.81611 1.57782 0
M  V30 12851 H 1195.94 3.74702 -0.655916 0
M  V30 12852 H 1197.26 4.94637 -0.643124 0
M  V30 12853 H 1196.41 5.87279 1.52277 0
M  V30 12854 H 1195.15 4.60956 1.59284 0
M  V30 12855 H 1194.15 5.47092 -0.545022 0
M  V30 12856 H 1195.38 6.76455 -0.598827 0
M  V30 12857 H 1193.33 6.35977 1.60838 0
M  V30 12858 H 1193.24 7.55176 0.352968 0
M  V30 12859 H 1194.51 7.64162 1.53874 0
M  V30 12860 N 1198.74 0.470782 1.50404 0
M  V30 12861 C 1199.69 -0.337584 2.30137 0
M  V30 12862 C 1200.68 -0.990673 1.37412 0
M  V30 12863 O 1201.89 -0.921813 1.54605 0
M  V30 12864 H 1198.26 -0.127707 0.741077 0
M  V30 12865 H 1200.23 0.355297 2.96277 0
M  V30 12866 C 1198.98 -1.40714 3.17954 0
M  V30 12867 H 1198.31 -0.913982 3.89213 0
M  V30 12868 H 1199.75 -1.94533 3.7674 0
M  V30 12869 C 1198.2 -2.40889 2.35529 0
M  V30 12870 O 1198.73 -3.46153 2.03816 0
M  V30 12871 N 1196.94 -2.126 1.98115 0
M  V30 12872 H 1196.49 -1.27023 2.24105 0
M  V30 12873 H 1196.45 -2.7986 1.43269 0
M  V30 12874 N 1200.22 -1.56282 0.203376 0
M  V30 12875 C 1201.63 -1.84146 -0.307752 0
M  V30 12876 C 1201.98 -1.12429 -1.60792 0
M  V30 12877 O 1201.1 -0.387852 -2.12896 0
M  V30 12878 C 1201.7 -3.34053 -0.565152 0
M  V30 12879 C 1200.26 -3.62298 -1.02063 0
M  V30 12880 C 1199.41 -2.77202 -0.0737343 0
M  V30 12881 H 1202.36 -1.52848 0.426983 0
M  V30 12882 H 1202.38 -3.53273 -1.41345 0
M  V30 12883 H 1201.89 -3.86222 0.381301 0
M  V30 12884 H 1199.99 -3.1557 -1.98107 0
M  V30 12885 H 1200.1 -4.70424 -0.907614 0
M  V30 12886 H 1198.47 -2.48074 -0.577169 0
M  V30 12887 H 1199.25 -3.32164 0.86731 0
M  V30 12888 N 1201.7 0.070167 -1.57444 0
M  V30 12889 C 1202.63 1.08351 -2.06839 0
M  V30 12890 C 1203.61 1.40269 -0.962224 0
M  V30 12891 O 1204.79 1.49867 -1.23505 0
M  V30 12892 C 1201.92 2.39649 -2.51368 0
M  V30 12893 C 1200.88 2.22079 -3.65875 0
M  V30 12894 C 1200.2 3.58776 -3.96464 0
M  V30 12895 C 1201.5 1.64069 -4.95862 0
M  V30 12896 H 1203.2 0.672465 -2.9175 0
M  V30 12897 H 1200.74 0.322027 -1.40353 0
M  V30 12898 H 1202.69 3.10833 -2.84537 0
M  V30 12899 H 1201.42 2.82736 -1.63487 0
M  V30 12900 H 1200.08 1.53337 -3.32992 0
M  V30 12901 H 1199.73 3.99436 -3.05712 0
M  V30 12902 H 1199.43 3.47859 -4.7357 0
M  V30 12903 H 1200.95 4.31387 -4.32131 0
M  V30 12904 H 1202.36 2.2512 -5.27251 0
M  V30 12905 H 1200.76 1.63843 -5.773 0
M  V30 12906 H 1201.83 0.60232 -4.81145 0
M  V30 12907 N 1203.17 1.53854 0.341593 0
M  V30 12908 C 1204.42 1.70856 1.07948 0
M  V30 12909 C 1204.74 0.475474 1.89114 0
M  V30 12910 O 1204.01 -0.510592 1.89129 0
M  V30 12911 H 1202.59 0.629914 0.401519 0
M  V30 12912 H 1205.25 1.91112 0.382393 0
M  V30 12913 H 1204.35 2.5803 1.75575 0
M  V30 12914 N 1204.65 -0.602709 1.4562 0
M  V30 12915 C 1205.58 -1.72374 1.5751 0
M  V30 12916 C 1206.56 -1.64669 0.426389 0
M  V30 12917 O 1207.75 -1.82994 0.650143 0
M  V30 12918 C 1204.88 -3.10987 1.5461 0
M  V30 12919 C 1203.83 -3.33507 2.68248 0
M  V30 12920 C 1203.16 -4.72443 2.50403 0
M  V30 12921 C 1204.46 -3.23285 4.10224 0
M  V30 12922 H 1206.15 -1.62679 2.51348 0
M  V30 12923 H 1203.7 -0.781217 1.20967 0
M  V30 12924 H 1205.65 -3.89214 1.61525 0
M  V30 12925 H 1204.37 -3.21533 0.573049 0
M  V30 12926 H 1203.03 -2.57672 2.60769 0
M  V30 12927 H 1202.68 -4.79729 1.51226 0
M  V30 12928 H 1202.38 -4.88466 3.26611 0
M  V30 12929 H 1203.91 -5.52864 2.59179 0
M  V30 12930 H 1205.32 -3.91381 4.1892 0
M  V30 12931 H 1203.72 -3.50837 4.86861 0
M  V30 12932 H 1204.79 -2.20652 4.31788 0
M  V30 12933 N 1206.13 -1.32992 -0.845635 0
M  V30 12934 C 1207.38 -1.23415 -1.59536 0
M  V30 12935 C 1207.69 0.200278 -1.94572 0
M  V30 12936 O 1208.9 0.417993 -2.68263 0
M  V30 12937 C 1207.35 -2.16207 -2.8772 0
M  V30 12938 C 1206.96 -3.64782 -2.60073 0
M  V30 12939 C 1208.71 -2.15488 -3.65739 0
M  V30 12940 C 1206.61 -4.49508 -3.84313 0
M  V30 12941 H 1205.54 -0.458366 -0.598679 0
M  V30 12942 H 1208.19 -1.58012 -0.932981 0
M  V30 12943 H 1206.58 -1.74535 -3.55462 0
M  V30 12944 H 1207.75 -4.14852 -2.00585 0
M  V30 12945 H 1206.06 -3.67723 -1.95369 0
M  V30 12946 H 1208.66 -2.76021 -4.57948 0
M  V30 12947 H 1209 -1.14818 -4.00153 0
M  V30 12948 H 1209.54 -2.55487 -3.04912 0
M  V30 12949 H 1206.28 -5.51027 -3.55035 0
M  V30 12950 H 1205.8 -4.04185 -4.43165 0
M  V30 12951 H 1207.48 -4.62969 -4.51961 0
M  V30 12952 N 1207.61 1.06304 -1.1635 0
M  V30 12953 C 1208.85 1.79366 -0.94634 0
M  V30 12954 C 1209.19 1.86981 0.524569 0
M  V30 12955 O 1208.46 1.36134 1.38917 0
M  V30 12956 C 1208.74 3.23861 -1.57436 0
M  V30 12957 C 1208.6 3.24327 -3.1166 0
M  V30 12958 C 1209.92 4.21409 -1.26895 0
M  V30 12959 H 1207.04 0.65115 -0.345215 0
M  V30 12960 H 1209.68 1.24325 -1.43678 0
M  V30 12961 H 1207.83 3.70862 -1.15731 0
M  V30 12962 H 1209.5 2.85488 -3.62346 0
M  V30 12963 H 1207.74 2.62983 -3.44997 0
M  V30 12964 H 1208.41 4.2626 -3.50723 0
M  V30 12965 H 1210.89 3.8285 -1.62989 0
M  V30 12966 H 1209.77 5.20778 -1.73439 0
M  V30 12967 H 1210.03 4.41701 -0.187768 0
M  V30 12968 N 1209.09 0.96196 1.24836 0
M  V30 12969 C 1210.05 0.492443 2.23847 0
M  V30 12970 C 1211.05 -0.40788 1.55541 0
M  V30 12971 O 1212.24 -0.204143 1.73 0
M  V30 12972 C 1209.37 -0.287578 3.39685 0
M  V30 12973 H 1210.56 1.36767 2.66899 0
M  V30 12974 H 1208.12 0.745967 1.3735 0
M  V30 12975 H 1208.85 -1.18015 3.02064 0
M  V30 12976 H 1208.64 0.358431 3.90458 0
M  V30 12977 H 1210.13 -0.605297 4.1319 0
M  V30 12978 N 1210.56 -1.39601 0.731392 0
M  V30 12979 C 1211.49 -2.33268 0.1041 0
M  V30 12980 C 1212.47 -1.53724 -0.728219 0
M  V30 12981 O 1213.66 -1.82131 -0.673933 0
M  V30 12982 C 1210.79 -3.37802 -0.806646 0
M  V30 12983 C 1209.74 -4.27928 -0.0787588 0
M  V30 12984 C 1209.07 -5.23131 -1.10628 0
M  V30 12985 C 1210.37 -5.11086 1.07651 0
M  V30 12986 H 1212.06 -2.85975 0.886496 0
M  V30 12987 H 1209.61 -1.375 0.427746 0
M  V30 12988 H 1211.56 -4.02278 -1.25499 0
M  V30 12989 H 1210.29 -2.83527 -1.62112 0
M  V30 12990 H 1208.95 -3.64926 0.349926 0
M  V30 12991 H 1208.59 -4.65152 -1.91422 0
M  V30 12992 H 1208.29 -5.84277 -0.624043 0
M  V30 12993 H 1209.82 -5.90483 -1.5544 0
M  V30 12994 H 1211.23 -5.68927 0.706781 0
M  V30 12995 H 1209.63 -5.81356 1.48814 0
M  V30 12996 H 1210.7 -4.46131 1.89988 0
M  V30 12997 N 1212.04 -0.478751 -1.50152 0
M  V30 12998 C 1213.29 0.0734397 -2.01967 0
M  V30 12999 C 1213.61 1.39523 -1.36229 0
M  V30 13000 O 1212.88 1.89141 -0.510149 0
M  V30 13001 H 1211.46 0.0301305 -0.746392 0
M  V30 13002 H 1214.12 -0.630921 -1.84406 0
M  V30 13003 H 1213.22 0.21937 -3.11328 0
M  V30 13004 N 1213.52 1.56172 -0.211661 0
M  V30 13005 C 1214.43 2.23468 0.714081 0
M  V30 13006 C 1215.45 1.23908 1.22159 0
M  V30 13007 O 1216.62 1.56693 1.26528 0
M  V30 13008 C 1213.69 2.89375 1.90953 0
M  V30 13009 C 1212.75 4.04251 1.44497 0
M  V30 13010 C 1211.98 4.67006 2.58343 0
M  V30 13011 O 1212.2 4.28721 3.76237 0
M  V30 13012 O 1211.14 5.56177 2.3011 0
M  V30 13013 H 1214.96 3.03219 0.170862 0
M  V30 13014 H 1212.55 1.49389 0.0183607 0
M  V30 13015 H 1214.43 3.3101 2.60787 0
M  V30 13016 H 1213.11 2.12591 2.44104 0
M  V30 13017 H 1212.01 3.67205 0.714932 0
M  V30 13018 H 1213.35 4.82748 0.959947 0
M  V30 13019 N 1215 -0.0618163 1.57479 0
M  V30 13020 C 1215.95 -1.09105 2.05424 0
M  V30 13021 C 1216.94 -1.3947 0.961479 0
M  V30 13022 O 1218.15 -1.3876 1.14655 0
M  V30 13023 H 1214.52 -0.36923 0.655113 0
M  V30 13024 H 1216.49 -0.66061 2.90996 0
M  V30 13025 C 1215.24 -2.39345 2.52209 0
M  V30 13026 H 1214.56 -2.16832 3.35893 0
M  V30 13027 H 1216 -3.09784 2.89499 0
M  V30 13028 C 1214.46 -3.06011 1.40922 0
M  V30 13029 O 1214.99 -3.94504 0.756921 0
M  V30 13030 N 1213.2 -2.66797 1.15186 0
M  V30 13031 H 1212.75 -1.94923 1.68412 0
M  V30 13032 H 1212.7 -3.11724 0.409324 0
M  V30 13033 N 1216.48 -1.54033 -0.333429 0
M  V30 13034 C 1217.42 -1.83441 -1.43011 0
M  V30 13035 C 1218.42 -0.705592 -1.54006 0
M  V30 13036 O 1219.62 -0.889098 -1.56509 0
M  V30 13037 H 1216 -0.581326 -0.477037 0
M  V30 13038 H 1217.97 -2.75172 -1.15426 0
M  V30 13039 C 1216.72 -2.0698 -2.79382 0
M  V30 13040 H 1216.04 -2.93297 -2.71692 0
M  V30 13041 H 1217.48 -2.31517 -3.55212 0
M  V30 13042 C 1215.94 -0.85835 -3.25782 0
M  V30 13043 O 1216.47 -0.062739 -4.01651 0
M  V30 13044 N 1214.68 -0.672738 -2.82706 0
M  V30 13045 H 1214.22 -1.32136 -2.21128 0
M  V30 13046 H 1214.18 0.136347 -3.14104 0
M  V30 13047 N 1217.95 0.594978 -1.45938 0
M  V30 13048 C 1219.18 1.37994 -1.5416 0
M  V30 13049 C 1219.6 1.87954 -0.17848 0
M  V30 13050 O 1218.95 1.62932 0.822161 0
M  V30 13051 C 1219.01 2.57586 -2.53637 0
M  V30 13052 O 1218.73 2.09698 -3.84653 0
M  V30 13053 C 1220.23 3.50292 -2.71681 0
M  V30 13054 H 1217.45 0.421983 -0.5217 0
M  V30 13055 H 1219.99 0.724459 -1.91238 0
M  V30 13056 H 1218.15 3.19149 -2.19597 0
M  V30 13057 H 1218.56 2.87492 -4.3869 0
M  V30 13058 H 1220.03 4.30717 -3.45234 0
M  V30 13059 H 1220.51 4.01444 -1.78156 0
M  V30 13060 H 1221.12 2.94573 -3.06768 0
M  V30 13061 N 1219.43 1.33438 0.838571 0
M  V30 13062 C 1220.4 1.23632 1.92997 0
M  V30 13063 C 1221.4 0.155302 1.60048 0
M  V30 13064 O 1222.59 0.406852 1.69382 0
M  V30 13065 C 1219.72 0.90512 3.28665 0
M  V30 13066 H 1220.91 2.20643 2.03117 0
M  V30 13067 H 1218.46 1.17501 1.03069 0
M  V30 13068 H 1219.2 -0.0624833 3.2424 0
M  V30 13069 H 1218.98 1.68688 3.53959 0
M  V30 13070 H 1220.47 0.861262 4.08622 0
M  V30 13071 N 1220.91 -1.05686 1.16912 0
M  V30 13072 C 1221.86 -2.13312 0.88129 0
M  V30 13073 C 1222.83 -1.65199 -0.172783 0
M  V30 13074 O 1224.01 -1.90765 -0.0366542 0
M  V30 13075 C 1221.15 -3.42829 0.395264 0
M  V30 13076 C 1220.27 -4.04643 1.51288 0
M  V30 13077 C 1219.4 -5.22059 0.981238 0
M  V30 13078 C 1218.44 -5.75869 2.07464 0
M  V30 13079 N 1217.58 -6.84592 1.55813 0
M  V30 13080 H 1222.42 -2.37271 1.80295 0
M  V30 13081 H 1219.95 -1.16407 0.899322 0
M  V30 13082 H 1221.91 -4.17092 0.0950633 0
M  V30 13083 H 1220.54 -3.19068 -0.489445 0
M  V30 13084 H 1219.59 -3.27867 1.92891 0
M  V30 13085 H 1220.91 -4.40626 2.33774 0
M  V30 13086 H 1220.06 -6.03372 0.634586 0
M  V30 13087 H 1218.8 -4.87538 0.125754 0
M  V30 13088 H 1217.8 -4.93188 2.42992 0
M  V30 13089 H 1219.03 -6.12439 2.93419 0
M  V30 13090 H 1216.97 -6.51978 0.725283 0
M  V30 13091 H 1216.89 -7.19551 2.31911 0
M  V30 13092 H 1218.16 -7.6957 1.24025 0
M  V30 13093 N 1222.39 -0.968567 -1.24324 0
M  V30 13094 C 1223.64 -0.629682 -1.9204 0
M  V30 13095 C 1223.96 0.837906 -1.7608 0
M  V30 13096 O 1223.23 1.5982 -1.13289 0
M  V30 13097 H 1221.81 -0.229901 -0.710742 0
M  V30 13098 H 1224.47 -1.22982 -1.512 0
M  V30 13099 H 1223.57 -0.871034 -2.99699 0
M  V30 13100 N 1223.87 1.39211 -0.738786 0
M  V30 13101 C 1225.14 1.9442 -0.214533 0
M  V30 13102 C 1225.52 1.67528 1.28443 0
M  V30 13103 O 1224.87 1.0056 2.05183 0
M  V30 13104 C 1225.08 3.44603 -0.552232 0
M  V30 13105 C 1226.43 4.21602 -0.503663 0
M  V30 13106 O 1227.45 3.52819 -0.489647 0
M  V30 13107 O 1226.31 5.44194 -0.50153 0
M  V30 13108 H 1223.41 0.826011 -0.0404247 0
M  V30 13109 H 1225.95 1.48689 -0.817902 0
M  V30 13110 H 1224.72 3.57626 -1.58806 0
M  V30 13111 H 1224.35 3.9752 0.0799096 0
M  V30 13112 N 1225.34 0.486708 1.49896 0
M  V30 13113 C 1226.59 -0.062852 2.02402 0
M  V30 13114 C 1226.92 -1.38306 1.36754 0
M  V30 13115 O 1226.17 -1.89531 0.487493 0
M  V30 13116 C 1226.47 -0.278643 3.56312 0
M  V30 13117 C 1226.14 0.961794 4.40523 0
M  V30 13118 C 1224.8 1.30185 4.63255 0
M  V30 13119 C 1227.15 1.78697 4.89609 0
M  V30 13120 C 1224.48 2.46686 5.32318 0
M  V30 13121 C 1226.83 2.9434 5.59953 0
M  V30 13122 C 1225.5 3.28742 5.80935 0
M  V30 13123 H 1224.77 -0.0229992 0.740643 0
M  V30 13124 H 1227.41 0.643963 1.80348 0
M  V30 13125 H 1225.72 -1.06785 3.76967 0
M  V30 13126 H 1227.42 -0.718078 3.94518 0
M  V30 13127 H 1224.01 0.686887 4.2306 0
M  V30 13128 H 1228.19 1.53742 4.71887 0
M  V30 13129 H 1223.45 2.73596 5.46768 0
M  V30 13130 H 1227.62 3.58616 5.96965 0
M  V30 13131 H 1225.25 4.19121 6.34225 0
M  V30 13132 N 1226.82 -1.56058 0.219941 0
M  V30 13133 C 1228.07 -1.9826 -0.412197 0
M  V30 13134 C 1228.4 -1.10754 -1.59887 0
M  V30 13135 O 1227.65 -0.15212 -1.95108 0
M  V30 13136 C 1227.95 -3.46113 -0.8911 0
M  V30 13137 C 1227.62 -4.50521 0.184877 0
M  V30 13138 C 1226.28 -4.78795 0.480462 0
M  V30 13139 C 1228.63 -5.13147 0.912652 0
M  V30 13140 C 1225.96 -5.66979 1.50837 0
M  V30 13141 C 1228.31 -6.02444 1.92988 0
M  V30 13142 C 1226.98 -6.29063 2.2324 0
M  V30 13143 H 1226.25 -0.725486 -0.150834 0
M  V30 13144 H 1228.89 -1.88771 0.322122 0
M  V30 13145 H 1227.2 -3.52797 -1.70415 0
M  V30 13146 H 1228.9 -3.76137 -1.39003 0
M  V30 13147 H 1225.49 -4.28564 -0.0556594 0
M  V30 13148 H 1229.67 -4.91374 0.697532 0
M  V30 13149 H 1224.93 -5.85868 1.74839 0
M  V30 13150 H 1229.1 -6.50022 2.49889 0
M  V30 13151 H 1226.73 -6.97191 3.03032 0
M  V30 13152 N 1228.3 0.053464 -1.57509 0
M  V30 13153 C 1229.55 0.744867 -1.8927 0
M  V30 13154 C 1229.9 1.74249 -0.815791 0
M  V30 13155 O 1229.2 1.9077 0.178187 0
M  V30 13156 C 1229.39 1.47666 -3.25468 0
M  V30 13157 C 1229.22 0.551427 -4.46306 0
M  V30 13158 C 1227.99 0.181517 -5.04974 0
M  V30 13159 C 1230.19 -0.159765 -5.14052 0
M  V30 13160 N 1228.17 -0.747526 -6.09332 0
M  V30 13161 C 1229.54 -0.94533 -6.12751 0
M  V30 13162 C 1231.59 -0.2293 -4.97372 0
M  V30 13163 C 1230.3 -1.794 -6.96569 0
M  V30 13164 C 1232.32 -1.065 -5.81732 0
M  V30 13165 C 1231.69 -1.83856 -6.79983 0
M  V30 13166 H 1227.78 0.247424 -0.741826 0
M  V30 13167 H 1230.37 0.00570542 -1.94699 0
M  V30 13168 H 1228.54 2.18643 -3.21014 0
M  V30 13169 H 1230.27 2.11852 -3.4482 0
M  V30 13170 H 1227.03 0.538408 -4.7053 0
M  V30 13171 H 1227.45 -1.20583 -6.66175 0
M  V30 13172 H 1232.09 0.354441 -4.21312 0
M  V30 13173 H 1229.81 -2.38864 -7.71991 0
M  V30 13174 H 1233.4 -1.12202 -5.70878 0
M  V30 13175 H 1232.28 -2.47479 -7.44126 0
M  V30 13176 N 1229.78 1.54207 0.325255 0
M  V30 13177 C 1231.06 1.6298 1.08153 0
M  V30 13178 C 1231.44 0.462583 2.05969 0
M  V30 13179 O 1230.78 -0.543323 2.21947 0
M  V30 13180 C 1230.99 2.999 1.78497 0
M  V30 13181 C 1232.34 3.55888 2.3158 0
M  V30 13182 O 1233.37 3.02194 1.88566 0
M  V30 13183 O 1232.23 4.49847 3.10322 0
M  V30 13184 H 1229.32 0.659923 0.498429 0
M  V30 13185 H 1231.87 1.66553 0.325282 0
M  V30 13186 H 1230.64 3.7629 1.07338 0
M  V30 13187 H 1230.26 2.99997 2.60936 0
M  V30 13188 N 1231.26 -0.58723 1.46251 0
M  V30 13189 C 1232.53 -1.34727 1.41802 0
M  V30 13190 C 1232.91 -2.10867 0.0991354 0
M  V30 13191 O 1232.26 -2.09194 -0.919242 0
M  V30 13192 C 1232.47 -2.27706 2.64482 0
M  V30 13193 C 1233.82 -2.89678 3.10438 0
M  V30 13194 O 1234.84 -2.38021 2.64999 0
M  V30 13195 O 1233.7 -3.83493 3.89352 0
M  V30 13196 H 1230.8 -0.605119 0.563702 0
M  V30 13197 H 1233.34 -0.608623 1.5841 0
M  V30 13198 H 1232.12 -1.70842 3.52035 0
M  V30 13199 H 1231.74 -3.08918 2.50311 0
M  V30 13200 N 1232.74 -1.33881 -0.831482 0
M  V30 13201 C 1233.98 -1.25507 -1.58406 0
M  V30 13202 C 1234.3 0.177137 -1.94194 0
M  V30 13203 O 1233.57 1.10769 -1.61576 0
M  V30 13204 H 1232.15 -0.461551 -0.587349 0
M  V30 13205 H 1234.82 -1.6769 -0.99328 0
M  V30 13206 H 1233.91 -1.85391 -2.51071 0
M  V30 13207 N 1234.21 1.05064 -1.1747 0
M  V30 13208 C 1235.12 2.16346 -0.907286 0
M  V30 13209 C 1236.14 1.7355 0.125013 0
M  V30 13210 O 1237.32 2.01326 -0.0545551 0
M  V30 13211 C 1234.38 3.44077 -0.425681 0
M  V30 13212 C 1233.44 4.01311 -1.52473 0
M  V30 13213 C 1232.67 5.22946 -1.06601 0
M  V30 13214 O 1232.9 5.70345 0.0793329 0
M  V30 13215 O 1231.83 5.72454 -1.85958 0
M  V30 13216 H 1235.66 2.41754 -1.83817 0
M  V30 13217 H 1233.24 1.14834 -0.955693 0
M  V30 13218 H 1235.12 4.21078 -0.164689 0
M  V30 13219 H 1233.8 3.20166 0.477037 0
M  V30 13220 H 1232.71 3.25744 -1.83961 0
M  V30 13221 H 1234.04 4.29543 -2.4032 0
M  V30 13222 N 1235.69 0.975146 1.23809 0
M  V30 13223 C 1236.92 0.658978 1.96125 0
M  V30 13224 C 1237.33 -0.773044 1.72248 0
M  V30 13225 O 1236.69 -1.51956 1.01072 0
M  V30 13226 C 1236.74 0.933355 3.49243 0
M  V30 13227 O 1236.46 2.30909 3.72307 0
M  V30 13228 C 1237.96 0.632408 4.38766 0
M  V30 13229 H 1235.18 0.245237 0.62458 0
M  V30 13230 H 1237.73 1.3051 1.5744 0
M  V30 13231 H 1235.88 0.333323 3.85963 0
M  V30 13232 H 1236.3 2.39476 4.66638 0
M  V30 13233 H 1237.77 0.874791 5.45024 0
M  V30 13234 H 1238.25 -0.433453 4.37056 0
M  V30 13235 H 1238.85 1.21268 4.07645 0
M  V30 13236 N 1237.17 -1.38817 0.746158 0
M  V30 13237 C 1238.12 -2.30521 0.113517 0
M  V30 13238 C 1239.09 -1.49795 -0.717682 0
M  V30 13239 O 1240.27 -1.78448 -0.675345 0
M  V30 13240 C 1237.41 -3.36185 -0.779343 0
M  V30 13241 C 1236.52 -4.3195 0.0656784 0
M  V30 13242 C 1235.66 -5.24684 -0.829492 0
M  V30 13243 C 1234.7 -6.12097 0.0196112 0
M  V30 13244 N 1233.84 -6.97152 -0.832107 0
M  V30 13245 H 1238.68 -2.84048 0.901136 0
M  V30 13246 H 1236.21 -1.39853 0.456025 0
M  V30 13247 H 1238.17 -3.96048 -1.31156 0
M  V30 13248 H 1236.8 -2.84085 -1.53282 0
M  V30 13249 H 1235.85 -3.73611 0.715445 0
M  V30 13250 H 1237.16 -4.93551 0.721735 0
M  V30 13251 H 1236.32 -5.89627 -1.42915 0
M  V30 13252 H 1235.06 -4.63431 -1.5193 0
M  V30 13253 H 1234.06 -5.46156 0.631991 0
M  V30 13254 H 1235.29 -6.75416 0.706369 0
M  V30 13255 H 1233.23 -6.38456 -1.507 0
M  V30 13256 H 1233.15 -7.55642 -0.232782 0
M  V30 13257 H 1234.42 -7.66513 -1.41697 0
M  V30 13258 N 1238.65 -0.49465 -1.49636 0
M  V30 13259 C 1239.92 0.114829 -1.95263 0
M  V30 13260 C 1240.3 1.54739 -1.43593 0
M  V30 13261 O 1239.65 2.1915 -0.646953 0
M  V30 13262 C 1239.86 0.0339912 -3.48983 0
M  V30 13263 C 1241.21 0.211108 -4.24075 0
M  V30 13264 O 1242.23 0.109478 -3.56032 0
M  V30 13265 O 1241.09 0.418971 -5.44892 0
M  V30 13266 H 1238.19 0.0987883 -0.821078 0
M  V30 13267 H 1240.73 -0.556736 -1.60308 0
M  V30 13268 H 1239.51 -0.965287 -3.79207 0
M  V30 13269 H 1239.13 0.745982 -3.90539 0
M  V30 13270 N 1240.13 1.55939 -0.228214 0
M  V30 13271 C 1241.35 2.0287 0.406348 0
M  V30 13272 C 1241.77 1.1079 1.52876 0
M  V30 13273 O 1241.13 0.118747 1.82113 0
M  V30 13274 C 1241.18 3.49286 0.931734 0
M  V30 13275 O 1240.9 4.37857 -0.145933 0
M  V30 13276 C 1242.4 4.11893 1.63887 0
M  V30 13277 H 1239.62 0.663696 0.0987358 0
M  V30 13278 H 1242.16 2.01541 -0.346616 0
M  V30 13279 H 1240.32 3.5121 1.63494 0
M  V30 13280 H 1240.73 5.23904 0.250005 0
M  V30 13281 H 1242.21 5.16091 1.95841 0
M  V30 13282 H 1242.68 3.57281 2.55435 0
M  V30 13283 H 1243.29 4.13839 0.980697 0
M  V30 13284 N 1241.6 -0.0451101 1.57535 0
M  V30 13285 C 1242.85 -0.738072 1.87711 0
M  V30 13286 C 1243.17 -1.7737 0.824579 0
M  V30 13287 O 1244.37 -2.51812 1.01503 0
M  V30 13288 C 1242.83 -1.36373 3.33062 0
M  V30 13289 C 1242.44 -0.365283 4.46508 0
M  V30 13290 C 1244.18 -2.0375 3.72406 0
M  V30 13291 C 1242.09 -0.998371 5.82912 0
M  V30 13292 H 1241.02 -0.279413 0.700317 0
M  V30 13293 H 1243.67 0.00802425 1.83498 0
M  V30 13294 H 1242.05 -2.15899 3.31969 0
M  V30 13295 H 1243.22 0.402102 4.59042 0
M  V30 13296 H 1241.54 0.205505 4.15893 0
M  V30 13297 H 1244.14 -2.51939 4.71625 0
M  V30 13298 H 1244.48 -2.84869 3.03571 0
M  V30 13299 H 1245.01 -1.3102 3.75604 0
M  V30 13300 H 1241.75 -0.226935 6.55107 0
M  V30 13301 H 1241.27 -1.73598 5.74129 0
M  V30 13302 H 1242.95 -1.51044 6.29122 0
M  V30 13303 N 1243.08 -1.54377 -0.317073 0
M  V30 13304 C 1244.01 -1.80563 -1.41172 0
M  V30 13305 C 1245.03 -0.687865 -1.47554 0
M  V30 13306 O 1246.22 -0.965084 -1.50161 0
M  V30 13307 C 1243.32 -1.9142 -2.79663 0
M  V30 13308 C 1242.49 -3.21655 -2.96407 0
M  V30 13309 C 1241.55 -3.23131 -4.15298 0
M  V30 13310 O 1240.57 -3.96741 -4.08149 0
M  V30 13311 N 1241.78 -2.47376 -5.25153 0
M  V30 13312 H 1244.54 -2.75032 -1.1907 0
M  V30 13313 H 1242.1 -1.53754 -0.507086 0
M  V30 13314 H 1244.09 -1.89828 -3.57418 0
M  V30 13315 H 1242.66 -1.0402 -2.94786 0
M  V30 13316 H 1241.88 -3.36154 -2.05899 0
M  V30 13317 H 1243.17 -4.07629 -3.04494 0
M  V30 13318 H 1242.57 -1.87173 -5.33838 0
M  V30 13319 H 1241.13 -2.51555 -6.01301 0
M  V30 13320 N 1244.56 0.579466 -1.4656 0
M  V30 13321 C 1245.51 1.70937 -1.57744 0
M  V30 13322 C 1246.5 1.6343 -0.44577 0
M  V30 13323 O 1247.71 1.68884 -0.622762 0
M  V30 13324 H 1244.08 0.565218 -0.496017 0
M  V30 13325 H 1246.05 1.58636 -2.52739 0
M  V30 13326 C 1244.8 3.09321 -1.58794 0
M  V30 13327 H 1244.13 3.1577 -2.45213 0
M  V30 13328 H 1245.57 3.88132 -1.70674 0
M  V30 13329 C 1244.03 3.35404 -0.317165 0
M  V30 13330 O 1244.56 3.97325 0.591228 0
M  V30 13331 N 1242.76 2.89883 -0.204071 0
M  V30 13332 H 1242.31 2.39672 -0.944194 0
M  V30 13333 H 1242.27 3.07706 0.645303 0
M  V30 13334 N 1246.04 1.3432 0.824371 0
M  V30 13335 C 1247.29 1.26345 1.57738 0
M  V30 13336 C 1247.61 -0.166836 1.94285 0
M  V30 13337 O 1246.88 -1.09911 1.62162 0
M  V30 13338 H 1245.46 0.46466 0.584893 0
M  V30 13339 H 1248.12 1.68214 0.984373 0
M  V30 13340 H 1247.22 1.8672 2.50084 0
M  V30 13341 N 1247.52 -1.0444 1.18026 0
M  V30 13342 C 1248.46 -2.14474 0.900202 0
M  V30 13343 C 1249.46 -1.68836 -0.138086 0
M  V30 13344 O 1250.66 -1.79997 0.00971011 0
M  V30 13345 H 1247.04 -0.700457 0.273613 0
M  V30 13346 H 1249.01 -2.35295 1.83518 0
M  V30 13347 C 1247.76 -3.44926 0.438305 0
M  V30 13348 H 1247.08 -3.8045 1.22874 0
M  V30 13349 H 1248.52 -4.23066 0.281306 0
M  V30 13350 C 1246.98 -3.26124 -0.845268 0
M  V30 13351 O 1247.51 -3.53368 -1.91034 0
M  V30 13352 N 1245.72 -2.79474 -0.7964 0
M  V30 13353 H 1245.26 -2.57503 0.0705595 0
M  V30 13354 H 1245.22 -2.67274 -1.65566 0
M  V30 13355 N 1248.99 -0.981699 -1.2329 0
M  V30 13356 C 1250.22 -0.668399 -1.95489 0
M  V30 13357 C 1250.63 0.768976 -1.72868 0
M  V30 13358 O 1249.98 1.52925 -1.01783 0
M  V30 13359 C 1250.04 -0.880535 -3.4855 0
M  V30 13360 C 1249.7 -2.30023 -3.9489 0
M  V30 13361 C 1250.7 -3.27899 -4.03458 0
M  V30 13362 C 1248.38 -2.63167 -4.27842 0
M  V30 13363 C 1250.38 -4.56999 -4.44332 0
M  V30 13364 C 1248.06 -3.92489 -4.68397 0
M  V30 13365 C 1249.06 -4.89216 -4.76609 0
M  V30 13366 O 1248.75 -6.16229 -5.16253 0
M  V30 13367 H 1248.48 -0.247255 -0.629159 0
M  V30 13368 H 1251.04 -1.31606 -1.57699 0
M  V30 13369 H 1249.27 -0.175698 -3.86301 0
M  V30 13370 H 1250.96 -0.564198 -4.0196 0
M  V30 13371 H 1251.72 -3.03624 -3.78203 0
M  V30 13372 H 1247.6 -1.88588 -4.20661 0
M  V30 13373 H 1251.14 -5.32498 -4.50656 0
M  V30 13374 H 1247.04 -4.16558 -4.93102 0
M  V30 13375 H 1247.81 -6.20001 -5.34361 0
M  V30 13376 N 1250.47 1.3842 -0.753509 0
M  V30 13377 C 1251.72 1.99359 -0.306416 0
M  V30 13378 C 1252.03 1.60492 1.11811 0
M  V30 13379 O 1253.24 2.14401 1.66567 0
M  V30 13380 C 1251.7 3.56453 -0.496895 0
M  V30 13381 C 1251.3 4.04272 -1.9305 0
M  V30 13382 C 1253.05 4.24351 -0.11251 0
M  V30 13383 C 1250.96 5.54007 -2.06955 0
M  V30 13384 H 1249.89 0.745812 -0.110818 0
M  V30 13385 H 1252.54 1.58185 -0.930039 0
M  V30 13386 H 1250.92 3.95515 0.195912 0
M  V30 13387 H 1252.09 3.765 -2.65677 0
M  V30 13388 H 1250.41 3.49098 -2.26979 0
M  V30 13389 H 1253 5.34344 -0.195161 0
M  V30 13390 H 1253.35 4.05668 0.934849 0
M  V30 13391 H 1253.88 3.90528 -0.757168 0
M  V30 13392 H 1250.62 5.77594 -3.09944 0
M  V30 13393 H 1250.14 5.83522 -1.38788 0
M  V30 13394 H 1251.82 6.19704 -1.85945 0
M  V30 13395 N 1251.95 0.502579 1.49372 0
M  V30 13396 C 1252.88 -0.264307 2.31999 0
M  V30 13397 C 1253.86 -0.96107 1.40348 0
M  V30 13398 O 1255.05 -0.952167 1.69255 0
M  V30 13399 C 1252.18 -1.32822 3.20898 0
M  V30 13400 C 1251.13 -0.751236 4.21355 0
M  V30 13401 C 1250.46 -1.91578 4.99201 0
M  V30 13402 C 1251.76 0.258764 5.21659 0
M  V30 13403 H 1253.45 0.425391 2.96363 0
M  V30 13404 H 1251 0.206022 1.42519 0
M  V30 13405 H 1252.95 -1.87245 3.77515 0
M  V30 13406 H 1251.67 -2.04712 2.54481 0
M  V30 13407 H 1250.33 -0.228743 3.65886 0
M  V30 13408 H 1249.98 -2.62241 4.2923 0
M  V30 13409 H 1249.68 -1.53578 5.67175 0
M  V30 13410 H 1251.2 -2.46432 5.58663 0
M  V30 13411 H 1252.62 -0.197385 5.7296 0
M  V30 13412 H 1251.02 0.554681 5.97531 0
M  V30 13413 H 1252.09 1.1741 4.70471 0
M  V30 13414 N 1253.43 -1.55816 0.23648 0
M  V30 13415 C 1254.66 -2.02789 -0.39501 0
M  V30 13416 C 1255.07 -1.1153 -1.52832 0
M  V30 13417 O 1254.41 -0.120084 -1.83307 0
M  V30 13418 C 1254.47 -3.46052 -0.974066 0
M  V30 13419 C 1254.14 -4.56993 0.0256825 0
M  V30 13420 C 1255.13 -5.13208 0.831477 0
M  V30 13421 C 1252.82 -5.0208 0.148759 0
M  V30 13422 C 1254.81 -6.12994 1.74691 0
M  V30 13423 C 1252.5 -6.017 1.0677 0
M  V30 13424 C 1253.5 -6.57035 1.86531 0
M  V30 13425 O 1253.18 -7.54714 2.76878 0
M  V30 13426 H 1252.92 -0.668672 -0.0992687 0
M  V30 13427 H 1255.47 -2.02312 0.354826 0
M  V30 13428 H 1253.7 -3.43645 -1.77327 0
M  V30 13429 H 1255.39 -3.76586 -1.51453 0
M  V30 13430 H 1256.16 -4.79214 0.746922 0
M  V30 13431 H 1252.03 -4.58679 -0.461976 0
M  V30 13432 H 1255.58 -6.56111 2.36989 0
M  V30 13433 H 1251.48 -6.35115 1.15322 0
M  V30 13434 H 1252.24 -7.72292 2.71122 0
M  V30 13435 N 1254.91 0.036755 -1.57557 0
M  V30 13436 C 1256.13 0.741086 -1.93172 0
M  V30 13437 C 1256.55 1.69303 -0.835589 0
M  V30 13438 O 1255.91 1.81523 0.1886 0
M  V30 13439 C 1255.96 1.50477 -3.28693 0
M  V30 13440 O 1255.68 0.591046 -4.34095 0
M  V30 13441 C 1257.18 2.30695 -3.78543 0
M  V30 13442 H 1254.4 0.208731 -0.637709 0
M  V30 13443 H 1256.94 -0.00342776 -2.045 0
M  V30 13444 H 1255.1 2.20123 -3.18786 0
M  V30 13445 H 1255.51 1.12579 -5.12276 0
M  V30 13446 H 1256.99 2.79685 -4.759 0
M  V30 13447 H 1257.46 3.11778 -3.0934 0
M  V30 13448 H 1258.07 1.66138 -3.91508 0
M  V30 13449 N 1256.39 1.54543 0.308881 0
M  V30 13450 C 1257.63 1.73449 1.04506 0
M  V30 13451 C 1257.96 0.516034 1.8753 0
M  V30 13452 O 1257.22 -0.502106 1.89149 0
M  V30 13453 C 1257.51 2.97124 1.98626 0
M  V30 13454 C 1257.18 4.31256 1.31641 0
M  V30 13455 C 1255.84 4.67719 1.13105 0
M  V30 13456 C 1258.19 5.14437 0.836888 0
M  V30 13457 C 1255.52 5.84949 0.452878 0
M  V30 13458 C 1257.87 6.32365 0.172473 0
M  V30 13459 C 1256.54 6.67495 -0.0249143 0
M  V30 13460 H 1255.81 0.634697 0.382415 0
M  V30 13461 H 1258.46 1.88795 0.320714 0
M  V30 13462 H 1256.76 2.76526 2.77562 0
M  V30 13463 H 1258.46 3.08946 2.55643 0
M  V30 13464 H 1255.05 4.02576 1.47074 0
M  V30 13465 H 1259.23 4.86772 0.967834 0
M  V30 13466 H 1254.49 6.10717 0.288886 0
M  V30 13467 H 1258.66 6.96092 -0.207027 0
M  V30 13468 H 1256.29 7.5819 -0.552425 0
M  V30 13469 N 1257.86 -0.571685 1.46866 0
M  V30 13470 C 1259.09 -1.36008 1.56578 0
M  V30 13471 C 1259.51 -1.86909 0.211326 0
M  V30 13472 O 1258.87 -1.62179 -0.810421 0
M  V30 13473 C 1258.92 -2.51598 2.58323 0
M  V30 13474 O 1258.02 -3.53383 2.1259 0
M  V30 13475 H 1257.36 -0.404593 0.526498 0
M  V30 13476 H 1259.89 -0.692357 1.92529 0
M  V30 13477 H 1259.9 -2.98366 2.78283 0
M  V30 13478 H 1258.58 -2.13904 3.56676 0
M  V30 13479 H 1257.16 -3.13019 2.02666 0
M  V30 13480 N 1259.34 -1.34755 -0.817236 0
M  V30 13481 C 1260.59 -1.2762 -1.5761 0
M  V30 13482 C 1260.92 0.152017 -1.93604 0
M  V30 13483 O 1260.2 1.09881 -1.60488 0
M  V30 13484 C 1260.48 -2.17251 -2.87183 0
M  V30 13485 C 1260.33 -3.68638 -2.57733 0
M  V30 13486 C 1261.65 -2.06206 -3.88802 0
M  V30 13487 H 1258.77 -0.464933 -0.571845 0
M  V30 13488 H 1261.41 -1.6506 -0.941028 0
M  V30 13489 H 1259.56 -1.85452 -3.41379 0
M  V30 13490 H 1261.23 -4.10829 -2.09802 0
M  V30 13491 H 1259.48 -3.89445 -1.91089 0
M  V30 13492 H 1260.15 -4.26726 -3.50156 0
M  V30 13493 H 1262.62 -2.34137 -3.43975 0
M  V30 13494 H 1261.5 -2.71136 -4.77259 0
M  V30 13495 H 1261.76 -1.04075 -4.29675 0
M  V30 13496 N 1260.82 1.03812 -1.18578 0
M  V30 13497 C 1262.04 1.8124 -1.00831 0
M  V30 13498 C 1262.47 1.82917 0.43853 0
M  V30 13499 O 1261.83 1.24835 1.31476 0
M  V30 13500 C 1261.88 3.24592 -1.57075 0
M  V30 13501 O 1260.98 4.04688 -0.793824 0
M  V30 13502 H 1260.32 0.559846 -0.357028 0
M  V30 13503 H 1262.85 1.30724 -1.57393 0
M  V30 13504 H 1262.86 3.75363 -1.59896 0
M  V30 13505 H 1261.54 3.22686 -2.62387 0
M  V30 13506 H 1260.11 3.63359 -0.838134 0
M  V30 13507 N 1262.3 0.988223 1.22768 0
M  V30 13508 C 1263.25 0.527454 2.26541 0
M  V30 13509 C 1264.24 -0.419506 1.64123 0
M  V30 13510 O 1265.45 -0.292539 1.77607 0
M  V30 13511 H 1261.82 0.152165 0.736444 0
M  V30 13512 H 1263.79 1.41422 2.62759 0
M  V30 13513 C 1262.54 -0.146845 3.4739 0
M  V30 13514 H 1261.86 0.572752 3.95676 0
M  V30 13515 H 1263.3 -0.432768 4.21786 0
M  V30 13516 C 1261.76 -1.38065 3.0731 0
M  V30 13517 O 1262.29 -2.47634 3.16291 0
M  V30 13518 N 1260.5 -1.25418 2.62143 0
M  V30 13519 H 1260.05 -0.362641 2.55035 0
M  V30 13520 H 1260 -2.08077 2.35694 0
M  V30 13521 N 1263.78 -1.38018 0.760839 0
M  V30 13522 C 1264.72 -2.32251 0.127425 0
M  V30 13523 C 1265.72 -1.54387 -0.69722 0
M  V30 13524 O 1266.92 -1.69864 -0.595505 0
M  V30 13525 H 1263.3 -0.751666 0.0224141 0
M  V30 13526 H 1265.27 -2.8327 0.93813 0
M  V30 13527 C 1264.02 -3.39606 -0.745849 0
M  V30 13528 H 1263.34 -3.99618 -0.120679 0
M  V30 13529 H 1264.78 -4.07931 -1.15621 0
M  V30 13530 C 1263.24 -2.78778 -1.89167 0
M  V30 13531 O 1263.77 -2.68661 -2.98637 0
M  V30 13532 N 1261.98 -2.36481 -1.68894 0
M  V30 13533 H 1261.52 -2.4491 -0.798551 0
M  V30 13534 H 1261.48 -1.96126 -2.45728 0
M  V30 13535 N 1265.25 -0.510493 -1.49103 0
M  V30 13536 C 1266.48 0.0271718 -2.06882 0
M  V30 13537 C 1266.9 1.2995 -1.36962 0
M  V30 13538 O 1266.25 1.76842 -0.450916 0
M  V30 13539 C 1266.3 0.274956 -3.60453 0
M  V30 13540 O 1266.03 -0.946941 -4.27744 0
M  V30 13541 C 1267.53 0.855197 -4.34973 0
M  V30 13542 H 1264.75 -0.024732 -0.670544 0
M  V30 13543 H 1267.29 -0.710567 -1.91758 0
M  V30 13544 H 1265.45 0.962696 -3.75248 0
M  V30 13545 H 1265.86 -0.715627 -5.19595 0
M  V30 13546 H 1267.33 0.978103 -5.43265 0
M  V30 13547 H 1267.81 1.85535 -3.98087 0
M  V30 13548 H 1268.42 0.204632 -4.24807 0
M  V30 13549 N 1266.73 1.55688 -0.24474 0
M  V30 13550 C 1267.66 2.24272 0.64995 0
M  V30 13551 C 1268.64 1.22226 1.183 0
M  V30 13552 O 1269.83 1.50873 1.22274 0
M  V30 13553 C 1266.96 2.94053 1.84798 0
M  V30 13554 C 1265.91 4.02769 1.44779 0
M  V30 13555 C 1265.24 4.59965 2.72647 0
M  V30 13556 C 1266.54 5.18601 0.62047 0
M  V30 13557 H 1268.23 2.99298 0.0780654 0
M  V30 13558 H 1265.78 1.43955 0.0361069 0
M  V30 13559 H 1267.73 3.40732 2.47951 0
M  V30 13560 H 1266.45 2.16511 2.44521 0
M  V30 13561 H 1265.11 3.56856 0.839609 0
M  V30 13562 H 1264.76 3.79126 3.30564 0
M  V30 13563 H 1264.46 5.33352 2.46596 0
M  V30 13564 H 1265.99 5.09376 3.36703 0
M  V30 13565 H 1267.4 5.61519 1.15625 0
M  V30 13566 H 1265.8 5.98364 0.456097 0
M  V30 13567 H 1266.87 4.83503 -0.367798 0
M  V30 13568 N 1268.21 -0.0283989 1.57574 0
M  V30 13569 C 1269.49 -0.754527 1.80461 0
M  V30 13570 C 1269.87 -1.93539 0.842966 0
M  V30 13571 O 1269.21 -2.28212 -0.114714 0
M  V30 13572 C 1269.42 -1.18694 3.28196 0
M  V30 13573 C 1270.77 -1.60257 3.93196 0
M  V30 13574 O 1271.8 -1.2815 3.32349 0
M  V30 13575 O 1270.66 -2.19853 5.00327 0
M  V30 13576 H 1267.75 -0.364936 0.742126 0
M  V30 13577 H 1270.3 -0.00512589 1.69699 0
M  V30 13578 H 1269.07 -0.34398 3.89785 0
M  V30 13579 H 1268.69 -1.99633 3.43849 0
M  V30 13580 N 1269.69 -1.54705 -0.300681 0
M  V30 13581 C 1270.94 -1.73211 -1.03349 0
M  V30 13582 C 1271.25 -0.52518 -1.88418 0
M  V30 13583 O 1272.46 -0.592049 -2.64966 0
M  V30 13584 C 1270.91 -3.06453 -1.88717 0
M  V30 13585 C 1270.52 -4.34625 -1.0865 0
M  V30 13586 C 1272.26 -3.34317 -2.61595 0
M  V30 13587 C 1270.17 -5.58919 -1.93297 0
M  V30 13588 H 1269.1 -0.64556 -0.389574 0
M  V30 13589 H 1271.75 -1.81186 -0.290472 0
M  V30 13590 H 1270.13 -2.92443 -2.67008 0
M  V30 13591 H 1271.31 -4.59471 -0.349707 0
M  V30 13592 H 1269.62 -4.13699 -0.473521 0
M  V30 13593 H 1272.22 -4.2438 -3.25278 0
M  V30 13594 H 1272.56 -2.53207 -3.30442 0
M  V30 13595 H 1273.1 -3.493 -1.90354 0
M  V30 13596 H 1269.83 -6.42697 -1.2892 0
M  V30 13597 H 1269.35 -5.38258 -2.64647 0
M  V30 13598 H 1271.03 -5.96187 -2.51336 0
M  V30 13599 N 1271.17 0.563888 -1.47167 0
M  V30 13600 C 1272.41 1.32331 -1.53676 0
M  V30 13601 C 1272.75 1.93213 -0.195593 0
M  V30 13602 O 1272.02 1.77508 0.795068 0
M  V30 13603 C 1272.3 2.43848 -2.64972 0
M  V30 13604 C 1272.16 1.8788 -4.08682 0
M  V30 13605 C 1273.48 3.45809 -2.72221 0
M  V30 13606 H 1270.59 0.479791 -0.559437 0
M  V30 13607 H 1273.24 0.631669 -1.79192 0
M  V30 13608 H 1271.39 3.02846 -2.43345 0
M  V30 13609 H 1273.06 1.33195 -4.41652 0
M  V30 13610 H 1271.3 1.18593 -4.17275 0
M  V30 13611 H 1271.97 2.68465 -4.82318 0
M  V30 13612 H 1274.45 2.9672 -2.91713 0
M  V30 13613 H 1273.32 4.21272 -3.51882 0
M  V30 13614 H 1273.59 4.04236 -1.79014 0
M  V30 13615 N 1272.64 1.35187 0.810078 0
M  V30 13616 C 1273.88 1.29626 1.58039 0
M  V30 13617 C 1274.25 -0.12865 1.91569 0
M  V30 13618 O 1275.45 -0.308587 2.67023 0
M  V30 13619 C 1273.72 2.17414 2.83665 0
M  V30 13620 S 1275.28 2.29334 3.741 0
M  V30 13621 H 1272.1 0.460722 0.541531 0
M  V30 13622 H 1274.7 1.7054 0.955839 0
M  V30 13623 H 1273.4 3.19927 2.57051 0
M  V30 13624 H 1272.93 1.77444 3.51108 0
M  V30 13625 H 1274.95 1.47559 4.73752 0
M  V30 13626 N 1274.12 -1.03182 1.19127 0
M  V30 13627 C 1275.35 -1.80165 1.01726 0
M  V30 13628 C 1275.77 -1.83742 -0.434095 0
M  V30 13629 O 1275.12 -1.27932 -1.30152 0
M  V30 13630 C 1275.17 -3.25354 1.57566 0
M  V30 13631 O 1274.89 -3.22042 2.9702 0
M  V30 13632 C 1276.4 -4.18948 1.44906 0
M  V30 13633 H 1273.62 -0.567078 0.358698 0
M  V30 13634 H 1276.16 -1.29982 1.57877 0
M  V30 13635 H 1274.31 -3.72738 1.0557 0
M  V30 13636 H 1274.73 -4.13061 3.23235 0
M  V30 13637 H 1276.2 -5.18723 1.88762 0
M  V30 13638 H 1276.68 -4.37383 0.399125 0
M  V30 13639 H 1277.29 -3.77435 1.96018 0
M  V30 13640 N 1275.6 -0.99472 -1.22242 0
M  V30 13641 C 1276.55 -0.517696 -2.22045 0
M  V30 13642 C 1277.53 0.415108 -1.55453 0
M  V30 13643 O 1278.73 0.241632 -1.75343 0
M  V30 13644 C 1275.86 0.164524 -3.42906 0
M  V30 13645 C 1274.94 -0.788692 -4.16702 0
M  V30 13646 N 1275.33 -1.93729 -4.67229 0
M  V30 13647 C 1273.63 -0.604946 -4.41878 0
M  V30 13648 C 1274.33 -2.53573 -5.23522 0
M  V30 13649 N 1273.31 -1.81825 -5.12289 0
M  V30 13650 H 1277.11 -1.39368 -2.58754 0
M  V30 13651 H 1274.62 -0.857215 -1.37933 0
M  V30 13652 H 1276.62 0.523668 -4.13598 0
M  V30 13653 H 1275.28 1.03662 -3.07708 0
M  V30 13654 H 1276.29 -2.31802 -4.63129 0
M  V30 13655 H 1272.97 0.220932 -4.16915 0
M  V30 13656 H 1274.36 -3.50653 -5.73142 0
M  V30 13657 N 1277.08 1.37613 -0.768148 0
M  V30 13658 C 1278.3 2.04579 -0.340892 0
M  V30 13659 C 1278.73 1.57556 1.02751 0
M  V30 13660 O 1278.09 0.734151 1.65771 0
M  V30 13661 C 1278.13 3.58495 -0.389099 0
M  V30 13662 O 1277.24 4.07838 0.611741 0
M  V30 13663 H 1276.58 0.647246 -0.148216 0
M  V30 13664 H 1279.11 1.75999 -1.04333 0
M  V30 13665 H 1279.12 4.07263 -0.245116 0
M  V30 13666 H 1277.79 3.92076 -1.38742 0
M  V30 13667 H 1276.37 3.70399 0.431173 0
M  V30 13668 N 1278.56 0.518393 1.4883 0
M  V30 13669 C 1279.78 -0.0183131 2.07392 0
M  V30 13670 C 1280.21 -1.28468 1.37396 0
M  V30 13671 O 1279.56 -1.75975 0.436177 0
M  V30 13672 C 1279.61 -0.237211 3.59819 0
M  V30 13673 O 1278.72 -1.30835 3.91096 0
M  V30 13674 H 1278.06 0.0339621 0.663131 0
M  V30 13675 H 1280.59 0.722993 1.914 0
M  V30 13676 H 1280.6 -0.463424 4.0536 0
M  V30 13677 H 1279.27 0.687925 4.10171 0
M  V30 13678 H 1277.85 -1.06571 3.57347 0
M  V30 13679 N 1280.03 -1.55556 0.252993 0
M  V30 13680 C 1281.26 -2.03196 -0.37348 0
M  V30 13681 C 1281.67 -1.13145 -1.51641 0
M  V30 13682 O 1281.02 -0.139519 -1.83169 0
M  V30 13683 C 1281.08 -3.47066 -0.937308 0
M  V30 13684 C 1280.74 -4.5694 0.0741513 0
M  V30 13685 C 1281.74 -5.12297 0.885862 0
M  V30 13686 C 1279.42 -5.01894 0.202003 0
M  V30 13687 C 1281.42 -6.11107 1.81182 0
M  V30 13688 C 1279.1 -6.00534 1.13146 0
M  V30 13689 C 1280.1 -6.5502 1.93489 0
M  V30 13690 O 1279.79 -7.51735 2.84868 0
M  V30 13691 H 1279.52 -0.669687 -0.092171 0
M  V30 13692 H 1282.08 -2.01924 0.376264 0
M  V30 13693 H 1280.31 -3.45507 -1.73672 0
M  V30 13694 H 1282 -3.78171 -1.47451 0
M  V30 13695 H 1282.76 -4.78395 0.797707 0
M  V30 13696 H 1278.64 -4.59144 -0.413301 0
M  V30 13697 H 1282.18 -6.53561 2.43935 0
M  V30 13698 H 1278.08 -6.33856 1.22052 0
M  V30 13699 H 1278.85 -7.69373 2.79298 0
M  V30 13700 N 1281.51 0.0200419 -1.57587 0
M  V30 13701 C 1282.44 1.0456 -2.0396 0
M  V30 13702 C 1283.46 1.31922 -0.953962 0
M  V30 13703 O 1284.65 1.2925 -1.23112 0
M  V30 13704 C 1281.75 2.38514 -2.40758 0
M  V30 13705 C 1280.92 2.3038 -3.71812 0
M  V30 13706 C 1279.98 3.46856 -3.95698 0
M  V30 13707 O 1279 3.25944 -4.66636 0
M  V30 13708 N 1280.21 4.69033 -3.42036 0
M  V30 13709 H 1282.97 0.650282 -2.9256 0
M  V30 13710 H 1280.53 0.207818 -1.60561 0
M  V30 13711 H 1282.52 3.15172 -2.53868 0
M  V30 13712 H 1281.09 2.69859 -1.57781 0
M  V30 13713 H 1280.31 1.38762 -3.6897 0
M  V30 13714 H 1281.6 2.22097 -4.57767 0
M  V30 13715 H 1281 4.88923 -2.84553 0
M  V30 13716 H 1279.56 5.43025 -3.6051 0
M  V30 13717 N 1282.99 1.54862 0.292472 0
M  V30 13718 C 1283.9 1.89472 1.38339 0
M  V30 13719 C 1284.92 0.789783 1.55043 0
M  V30 13720 O 1286.09 1.08705 1.69544 0
M  V30 13721 C 1283.16 2.14244 2.72581 0
M  V30 13722 C 1282.22 3.37913 2.64789 0
M  V30 13723 C 1281.45 3.61494 3.92629 0
M  V30 13724 O 1281.67 2.87931 4.92394 0
M  V30 13725 O 1280.61 4.55019 3.94007 0
M  V30 13726 H 1284.43 2.82298 1.11989 0
M  V30 13727 H 1282.02 1.41161 0.489291 0
M  V30 13728 H 1283.9 2.31689 3.51991 0
M  V30 13729 H 1282.58 1.24603 2.98757 0
M  V30 13730 H 1281.48 3.25823 1.83821 0
M  V30 13731 H 1282.82 4.27711 2.43565 0
M  V30 13732 N 1284.47 -0.556076 1.47464 0
M  V30 13733 C 1285.72 -1.31061 1.53842 0
M  V30 13734 C 1286.04 -1.93943 0.202806 0
M  V30 13735 O 1285.31 -1.7999 -0.773338 0
M  V30 13736 H 1283.89 -0.486696 0.566689 0
M  V30 13737 H 1286.55 -0.64924 1.83769 0
M  V30 13738 H 1285.65 -2.10354 2.30559 0
M  V30 13739 N 1285.95 -1.35615 -0.802897 0
M  V30 13740 C 1287.18 -1.32217 -1.59142 0
M  V30 13741 C 1287.59 0.0995496 -1.88537 0
M  V30 13742 O 1286.95 1.05258 -1.49087 0
M  V30 13743 C 1287 -2.13048 -2.92049 0
M  V30 13744 O 1286.72 -3.49677 -2.63927 0
M  V30 13745 C 1288.22 -2.17278 -3.864 0
M  V30 13746 H 1285.44 -0.454054 -0.49404 0
M  V30 13747 H 1287.98 -1.78521 -0.997516 0
M  V30 13748 H 1286.14 -1.70334 -3.47944 0
M  V30 13749 H 1286.55 -3.917 -3.48814 0
M  V30 13750 H 1288.03 -2.7822 -4.76758 0
M  V30 13751 H 1288.5 -1.17253 -4.23259 0
M  V30 13752 H 1289.11 -2.6017 -3.3644 0
M  V30 13753 N 1287.43 1.02549 -1.19673 0
M  V30 13754 C 1288.65 1.79623 -1.0268 0
M  V30 13755 C 1289.07 1.83969 0.424345 0
M  V30 13756 O 1288.43 1.28621 1.29472 0
M  V30 13757 C 1288.48 3.24514 -1.59289 0
M  V30 13758 O 1288.2 3.20462 -2.98723 0
M  V30 13759 C 1289.7 4.18173 -1.47126 0
M  V30 13760 H 1286.92 0.565167 -0.3617 0
M  V30 13761 H 1289.46 1.29143 -1.58564 0
M  V30 13762 H 1287.62 3.72173 -1.07546 0
M  V30 13763 H 1288.03 4.11341 -3.25421 0
M  V30 13764 H 1289.51 5.17714 -1.9151 0
M  V30 13765 H 1289.98 4.37165 -0.422315 0
M  V30 13766 H 1290.59 3.7639 -1.98017 0
M  V30 13767 N 1288.9 1.00119 1.21713 0
M  V30 13768 C 1289.83 0.578504 2.2622 0
M  V30 13769 C 1290.81 -0.398777 1.6536 0
M  V30 13770 O 1292 -0.287596 1.92059 0
M  V30 13771 C 1289.13 -0.0994508 3.47158 0
M  V30 13772 C 1288.08 0.79722 4.2051 0
M  V30 13773 C 1287.41 -0.0141125 5.34698 0
M  V30 13774 C 1288.71 2.09802 4.7831 0
M  V30 13775 H 1290.4 1.45208 2.6183 0
M  V30 13776 H 1287.95 0.699656 1.2586 0
M  V30 13777 H 1289.9 -0.406605 4.19434 0
M  V30 13778 H 1288.63 -1.00763 3.10667 0
M  V30 13779 H 1287.29 1.08814 3.50079 0
M  V30 13780 H 1286.93 -0.923468 4.9445 0
M  V30 13781 H 1286.63 0.582883 5.84702 0
M  V30 13782 H 1288.16 -0.31517 6.09786 0
M  V30 13783 H 1289.57 1.85427 5.42485 0
M  V30 13784 H 1287.97 2.64455 5.38687 0
M  V30 13785 H 1289.04 2.77132 3.97902 0
M  V30 13786 N 1290.38 -1.37203 0.775435 0
M  V30 13787 C 1291.34 -2.28566 0.170406 0
M  V30 13788 C 1292.34 -1.48195 -0.624085 0
M  V30 13789 O 1293.53 -1.68364 -0.447132 0
M  V30 13790 C 1290.67 -3.32186 -0.765829 0
M  V30 13791 H 1291.86 -2.8358 0.975824 0
M  V30 13792 H 1289.41 -1.46531 0.543895 0
M  V30 13793 H 1290.15 -2.82303 -1.59611 0
M  V30 13794 H 1289.93 -3.91598 -0.198251 0
M  V30 13795 H 1291.42 -4.0045 -1.18446 0
M  V30 13796 N 1291.86 -0.526279 -1.48553 0
M  V30 13797 C 1293.11 0.0091665 -2.02498 0
M  V30 13798 C 1293.43 1.34632 -1.40373 0
M  V30 13799 O 1292.69 1.88172 -0.537573 0
M  V30 13800 C 1292.99 0.184075 -3.56926 0
M  V30 13801 C 1292.65 -1.07825 -4.37818 0
M  V30 13802 C 1291.32 -1.42422 -4.59641 0
M  V30 13803 C 1293.67 -1.91616 -4.84699 0
M  V30 13804 C 1291 -2.60713 -5.25591 0
M  V30 13805 C 1293.35 -3.09082 -5.51952 0
M  V30 13806 C 1292.01 -3.44029 -5.72014 0
M  V30 13807 H 1291.28 0.00335426 -0.740992 0
M  V30 13808 H 1293.93 -0.691553 -1.78577 0
M  V30 13809 H 1292.23 0.967532 -3.79666 0
M  V30 13810 H 1293.93 0.613226 -3.96283 0
M  V30 13811 H 1290.52 -0.798812 -4.2109 0
M  V30 13812 H 1294.71 -1.66199 -4.67645 0
M  V30 13813 H 1289.96 -2.87996 -5.39322 0
M  V30 13814 H 1294.14 -3.74317 -5.87247 0
M  V30 13815 H 1291.76 -4.35789 -6.2289 0
M  V30 13816 N 1293.34 1.5542 -0.261239 0
M  V30 13817 C 1294.27 2.19334 0.665214 0
M  V30 13818 C 1295.28 1.17388 1.128 0
M  V30 13819 O 1296.47 1.44183 1.0523 0
M  V30 13820 C 1293.57 2.79425 1.91768 0
M  V30 13821 C 1292.74 4.06929 1.60399 0
M  V30 13822 C 1291.8 4.51199 2.70751 0
M  V30 13823 O 1290.83 5.17272 2.37526 0
M  V30 13824 N 1292.03 4.20179 4.00537 0
M  V30 13825 H 1294.8 2.99467 0.118262 0
M  V30 13826 H 1292.36 1.61693 -0.0817727 0
M  V30 13827 H 1294.35 3.05992 2.64861 0
M  V30 13828 H 1292.92 2.03366 2.37405 0
M  V30 13829 H 1292.14 3.87798 0.707559 0
M  V30 13830 H 1293.43 4.9003 1.36924 0
M  V30 13831 H 1292.83 3.67164 4.30357 0
M  V30 13832 H 1291.38 4.51549 4.7005 0
M  V30 13833 N 1294.82 -0.0116844 1.57596 0
M  V30 13834 C 1296.04 -0.71026 1.94327 0
M  V30 13835 C 1296.46 -1.67952 0.862418 0
M  V30 13836 O 1295.82 -1.818 -0.159698 0
M  V30 13837 C 1295.87 -1.45228 3.31045 0
M  V30 13838 O 1295.59 -0.52191 4.3498 0
M  V30 13839 C 1297.09 -2.24644 3.82165 0
M  V30 13840 H 1294.31 -0.198559 0.640949 0
M  V30 13841 H 1296.85 0.0359615 2.04468 0
M  V30 13842 H 1295.01 -2.15023 3.22248 0
M  V30 13843 H 1295.42 -1.04415 5.14002 0
M  V30 13844 H 1296.9 -2.72078 4.80289 0
M  V30 13845 H 1297.37 -3.06817 3.14261 0
M  V30 13846 H 1297.98 -1.59888 3.94101 0
M  V30 13847 N 1296.29 -1.55015 -0.284256 0
M  V30 13848 C 1297.54 -1.7535 -1.01884 0
M  V30 13849 C 1297.87 -0.546825 -1.86342 0
M  V30 13850 O 1297.15 0.455832 -1.89083 0
M  V30 13851 C 1297.43 -3.05219 -1.91084 0
M  V30 13852 C 1297.28 -4.36219 -1.09694 0
M  V30 13853 C 1298.6 -3.31056 -2.89983 0
M  V30 13854 H 1295.72 -0.637981 -0.368984 0
M  V30 13855 H 1298.36 -1.87741 -0.292116 0
M  V30 13856 H 1296.51 -2.94786 -2.53048 0
M  V30 13857 H 1298.19 -4.58594 -0.498876 0
M  V30 13858 H 1296.43 -4.31951 -0.400078 0
M  V30 13859 H 1297.1 -5.23392 -1.75399 0
M  V30 13860 H 1299.58 -3.41209 -2.38151 0
M  V30 13861 H 1298.45 -4.23212 -3.49547 0
M  V30 13862 H 1298.71 -2.50153 -3.64521 0
M  V30 13863 N 1297.77 0.548248 -1.47757 0
M  V30 13864 C 1298.72 1.65453 -1.60916 0
M  V30 13865 C 1299.69 1.59836 -0.451831 0
M  V30 13866 O 1300.87 1.78536 -0.673023 0
M  V30 13867 C 1298.01 3.0376 -1.6378 0
M  V30 13868 C 1297.13 3.19747 -2.90492 0
M  V30 13869 C 1296.26 4.48505 -2.84635 0
M  V30 13870 C 1295.3 4.57956 -4.06132 0
M  V30 13871 N 1294.44 5.78079 -3.98458 0
M  V30 13872 H 1299.28 1.53545 -2.55398 0
M  V30 13873 H 1296.81 0.747826 -1.26673 0
M  V30 13874 H 1298.77 3.8386 -1.63424 0
M  V30 13875 H 1297.4 3.14483 -0.728036 0
M  V30 13876 H 1296.45 2.3302 -3.00676 0
M  V30 13877 H 1297.77 3.22594 -3.8044 0
M  V30 13878 H 1296.92 5.36875 -2.82577 0
M  V30 13879 H 1295.66 4.48151 -1.92385 0
M  V30 13880 H 1294.66 3.67995 -4.08484 0
M  V30 13881 H 1295.89 4.60062 -4.9952 0
M  V30 13882 H 1293.84 5.78657 -3.09017 0
M  V30 13883 H 1293.75 5.82342 -4.82093 0
M  V30 13884 H 1295.02 6.68786 -4.00431 0
M  V30 13885 N 1299.25 1.36039 0.795694 0
M  V30 13886 C 1300.5 1.29251 1.54845 0
M  V30 13887 C 1300.81 -0.127926 1.95181 0
M  V30 13888 O 1302.02 -0.318141 2.6963 0
M  V30 13889 C 1300.47 2.26736 2.79497 0
M  V30 13890 C 1300.08 3.74183 2.46355 0
M  V30 13891 C 1301.83 2.28913 3.5749 0
M  V30 13892 C 1299.73 4.63462 3.67365 0
M  V30 13893 H 1298.66 0.48027 0.581255 0
M  V30 13894 H 1301.31 1.61366 0.873693 0
M  V30 13895 H 1299.7 1.87608 3.4874 0
M  V30 13896 H 1300.87 4.22011 1.8505 0
M  V30 13897 H 1299.18 3.7472 1.81586 0
M  V30 13898 H 1301.78 2.92828 4.47388 0
M  V30 13899 H 1302.12 1.2959 3.95616 0
M  V30 13900 H 1302.66 2.66627 2.9522 0
M  V30 13901 H 1299.4 5.63824 3.34339 0
M  V30 13902 H 1298.92 4.20354 4.27858 0
M  V30 13903 H 1300.6 4.79424 4.34467 0
M  V30 13904 N 1300.73 -1.01913 1.20215 0
M  V30 13905 C 1301.66 -2.12282 0.97256 0
M  V30 13906 C 1302.64 -1.6982 -0.0975709 0
M  V30 13907 O 1303.82 -1.94109 0.0594307 0
M  V30 13908 C 1300.95 -3.43369 0.521085 0
M  V30 13909 C 1299.91 -3.99559 1.53417 0
M  V30 13910 C 1299.23 -5.26383 0.93942 0
M  V30 13911 C 1300.53 -4.33241 2.91718 0
M  V30 13912 H 1302.23 -2.31746 1.89563 0
M  V30 13913 H 1299.77 -1.1137 0.912841 0
M  V30 13914 H 1301.73 -4.19963 0.347713 0
M  V30 13915 H 1300.45 -3.23655 -0.437605 0
M  V30 13916 H 1299.11 -3.25069 1.69486 0
M  V30 13917 H 1298.76 -5.02993 -0.0271236 0
M  V30 13918 H 1298.46 -5.64942 1.616 0
M  V30 13919 H 1299.98 -6.05635 0.777059 0
M  V30 13920 H 1301.4 -5.00734 2.79175 0
M  V30 13921 H 1299.79 -4.82907 3.56259 0
M  V30 13922 H 1300.86 -3.42118 3.43633 0
M  V30 13923 N 1302.21 -1.00763 -1.2118 0
M  V30 13924 C 1303.45 -0.690459 -1.8994 0
M  V30 13925 C 1303.78 0.781464 -1.78656 0
M  V30 13926 O 1303.05 1.56135 -1.18316 0
M  V30 13927 H 1301.63 -0.252397 -0.703068 0
M  V30 13928 H 1304.29 -1.2773 -1.47211 0
M  V30 13929 H 1303.38 -0.96594 -2.96776 0
M  V30 13930 N 1303.68 1.3679 -0.7827 0
M  V30 13931 C 1304.61 2.32721 -0.190604 0
M  V30 13932 C 1305.6 1.56321 0.670663 0
M  V30 13933 O 1306.78 1.84507 0.605871 0
M  V30 13934 C 1303.91 3.40564 0.680717 0
M  V30 13935 C 1302.86 4.27925 -0.080118 0
M  V30 13936 C 1302.19 5.26876 0.911361 0
M  V30 13937 C 1303.49 5.06738 -1.26545 0
M  V30 13938 H 1305.18 2.82488 -0.992023 0
M  V30 13939 H 1302.73 1.35818 -0.478484 0
M  V30 13940 H 1304.68 4.06659 1.10482 0
M  V30 13941 H 1303.41 2.89348 1.51477 0
M  V30 13942 H 1302.07 3.63376 -0.485125 0
M  V30 13943 H 1301.71 4.71936 1.74026 0
M  V30 13944 H 1301.41 5.8619 0.406762 0
M  V30 13945 H 1302.94 5.95846 1.33418 0
M  V30 13946 H 1304.35 5.65911 -0.917448 0
M  V30 13947 H 1302.75 5.75432 -1.70289 0
M  V30 13948 H 1303.82 4.38772 -2.06415 0
M  V30 13949 N 1305.16 0.53415 1.48272 0
M  V30 13950 C 1306.39 0.00574475 2.06899 0
M  V30 13951 C 1306.81 -1.27754 1.39012 0
M  V30 13952 O 1306.16 -1.76102 0.478993 0
M  V30 13953 C 1306.21 -0.217576 3.60845 0
M  V30 13954 O 1305.93 1.01487 4.26183 0
M  V30 13955 C 1307.44 -0.785888 4.36278 0
M  V30 13956 H 1304.66 0.0353967 0.670066 0
M  V30 13957 H 1307.2 0.740984 1.90603 0
M  V30 13958 H 1305.35 -0.902875 3.76732 0
M  V30 13959 H 1305.77 0.7982 5.18391 0
M  V30 13960 H 1307.24 -0.891551 5.44753 0
M  V30 13961 H 1307.72 -1.79178 4.00989 0
M  V30 13962 H 1308.33 -0.137022 4.25079 0
M  V30 13963 N 1306.64 -1.55279 0.269478 0
M  V30 13964 C 1307.92 -1.91458 -0.400412 0
M  V30 13965 C 1308.3 -1.19306 -1.74153 0
M  V30 13966 O 1307.65 -0.318017 -2.26276 0
M  V30 13967 C 1307.86 -3.44698 -0.546258 0
M  V30 13968 C 1309.2 -4.16374 -0.831758 0
M  V30 13969 O 1310.23 -3.50561 -0.631279 0
M  V30 13970 O 1309.09 -5.32826 -1.21484 0
M  V30 13971 H 1306.18 -0.79766 -0.218328 0
M  V30 13972 H 1308.73 -1.66747 0.315214 0
M  V30 13973 H 1307.5 -3.89273 0.397784 0
M  V30 13974 H 1307.12 -3.75345 -1.31157 0
M  V30 13975 N 1308.12 0.00332656 -1.576 0
M  V30 13976 C 1309.34 0.703587 -1.95101 0
M  V30 13977 C 1309.77 1.66697 -0.871418 0
M  V30 13978 O 1309.13 1.80494 0.170739 0
M  V30 13979 C 1309.17 1.41457 -3.31696 0
M  V30 13980 O 1308.28 2.52885 -3.25765 0
M  V30 13981 H 1307.62 0.187396 -0.637008 0
M  V30 13982 H 1310.15 -0.0488727 -2.04542 0
M  V30 13983 H 1310.16 1.77874 -3.67185 0
M  V30 13984 H 1308.83 0.708182 -4.09826 0
M  V30 13985 H 1307.41 2.18821 -3.01947 0
M  V30 13986 N 1309.6 1.55164 0.276031 0
M  V30 13987 C 1310.84 1.75887 1.00953 0
M  V30 13988 C 1311.18 0.5567 1.8605 0
M  V30 13989 O 1310.45 -0.445799 1.89322 0
M  V30 13990 C 1310.73 3.06228 1.89463 0
M  V30 13991 C 1310.59 4.36795 1.07379 0
M  V30 13992 C 1311.91 3.32589 2.88223 0
M  V30 13993 H 1309.02 0.639929 0.365596 0
M  V30 13994 H 1311.67 1.87893 0.282156 0
M  V30 13995 H 1309.82 2.96124 2.51481 0
M  V30 13996 H 1311.49 4.58853 0.474549 0
M  V30 13997 H 1309.73 4.32157 0.377165 0
M  V30 13998 H 1310.4 5.24315 1.72621 0
M  V30 13999 H 1312.88 3.42467 2.36338 0
M  V30 14000 H 1311.75 4.2506 3.47297 0
M  V30 14001 H 1312.02 2.52083 3.6319 0
M  V30 14002 N 1311.07 -0.540404 1.48045 0
M  V30 14003 C 1312.3 -1.32177 1.59175 0
M  V30 14004 C 1312.72 -1.87163 0.248115 0
M  V30 14005 O 1312.07 -1.65871 -0.761124 0
M  V30 14006 C 1312.13 -2.47995 2.63023 0
M  V30 14007 O 1311.85 -1.95278 3.92171 0
M  V30 14008 C 1313.35 -3.39967 2.84495 0
M  V30 14009 H 1310.57 -0.40233 0.537002 0
M  V30 14010 H 1313.11 -0.652983 1.93795 0
M  V30 14011 H 1311.27 -3.10779 2.31291 0
M  V30 14012 H 1311.68 -2.71012 4.49058 0
M  V30 14013 H 1313.15 -4.17607 3.60982 0
M  V30 14014 H 1313.63 -3.94555 1.92932 0
M  V30 14015 H 1314.24 -2.82985 3.1749 0
M  V30 14016 N 1312.55 -1.36459 -0.788468 0
M  V30 14017 C 1313.46 -1.33017 -1.93245 0
M  V30 14018 C 1314.48 -0.232212 -1.72444 0
M  V30 14019 O 1315.65 -0.464743 -1.95965 0
M  V30 14020 C 1312.72 -1.1197 -3.28121 0
M  V30 14021 C 1311.78 -2.3125 -3.61693 0
M  V30 14022 C 1311.01 -2.11197 -4.90134 0
M  V30 14023 O 1311.24 -1.08764 -5.59934 0
M  V30 14024 O 1310.17 -2.98996 -5.22384 0
M  V30 14025 H 1314 -2.29333 -1.99098 0
M  V30 14026 H 1311.58 -1.17016 -0.928856 0
M  V30 14027 H 1313.46 -1.02154 -4.08831 0
M  V30 14028 H 1312.14 -0.187171 -3.23158 0
M  V30 14029 H 1311.05 -2.46635 -2.81286 0
M  V30 14030 H 1312.38 -3.23012 -3.71381 0
M  V30 14031 N 1314.03 1.01274 -1.20754 0
M  V30 14032 C 1315.28 1.75191 -1.02156 0
M  V30 14033 C 1315.61 1.89038 0.444791 0
M  V30 14034 O 1314.88 1.41903 1.33018 0
M  V30 14035 C 1315.17 3.16892 -1.71031 0
M  V30 14036 C 1315.02 3.10816 -3.25136 0
M  V30 14037 C 1316.34 4.15648 -1.44654 0
M  V30 14038 H 1313.46 0.635922 -0.372521 0
M  V30 14039 H 1316.1 1.18119 -1.48822 0
M  V30 14040 H 1314.25 3.6562 -1.31357 0
M  V30 14041 H 1315.92 2.69863 -3.74128 0
M  V30 14042 H 1314.17 2.48113 -3.5584 0
M  V30 14043 H 1314.84 4.11001 -3.68487 0
M  V30 14044 H 1317.31 3.75592 -1.7908 0
M  V30 14045 H 1316.19 5.12954 -1.95371 0
M  V30 14046 H 1316.45 4.40507 -0.37494 0
M  V30 14047 N 1315.51 1.01404 1.20644 0
M  V30 14048 C 1316.93 0.728446 1.42006 0
M  V30 14049 C 1317.13 -0.692894 1.89212 0
M  V30 14050 O 1316.18 -1.46101 2.05939 0
M  V30 14051 C 1317.49 1.75198 2.44389 0
M  V30 14052 C 1319.04 1.76983 2.58159 0
M  V30 14053 C 1319.52 2.78256 3.63782 0
M  V30 14054 N 1321.01 2.7698 3.71263 0
M  V30 14055 C 1321.74 3.51999 4.52641 0
M  V30 14056 N 1321.24 4.36687 5.37844 0
M  V30 14057 N 1323.03 3.40608 4.47149 0
M  V30 14058 H 1315.18 1.93168 0.883172 0
M  V30 14059 H 1317.45 0.834287 0.450187 0
M  V30 14060 H 1317.15 2.77013 2.16695 0
M  V30 14061 H 1317.03 1.56203 3.43337 0
M  V30 14062 H 1319.41 0.758551 2.85184 0
M  V30 14063 H 1319.49 2.00051 1.59415 0
M  V30 14064 H 1319.14 3.79546 3.37501 0
M  V30 14065 H 1319.07 2.5245 4.62143 0
M  V30 14066 H 1321.56 2.15546 3.104 0
M  V30 14067 H 1321.87 4.90703 5.97018 0
M  V30 14068 H 1320.22 4.40766 5.37355 0
M  V30 14069 H 1323.41 2.73872 3.79621 0
M  V30 14070 H 1323.58 3.99327 5.10335 0
M  V30 14071 N 1316.99 -1.36373 0.789944 0
M  V30 14072 C 1318.23 -1.99523 0.363119 0
M  V30 14073 C 1318.57 -1.6255 -1.0626 0
M  V30 14074 O 1317.84 -0.880551 -1.73426 0
M  V30 14075 C 1318.12 -3.56215 0.527526 0
M  V30 14076 C 1317.98 -4.0304 1.99697 0
M  V30 14077 C 1319.3 -4.40063 -0.0571079 0
M  V30 14078 H 1316.42 -0.724824 0.133412 0
M  V30 14079 H 1319.06 -1.61778 0.996381 0
M  V30 14080 H 1317.21 -3.88498 -0.0115636 0
M  V30 14081 H 1318.88 -3.81241 2.59717 0
M  V30 14082 H 1317.12 -3.54561 2.49939 0
M  V30 14083 H 1317.79 -5.12001 2.06297 0
M  V30 14084 H 1320.27 -4.14143 0.403082 0
M  V30 14085 H 1319.15 -5.4883 0.0879494 0
M  V30 14086 H 1319.41 -4.26901 -1.14926 0
M  V30 14087 N 1318.47 -0.542005 -1.47987 0
M  V30 14088 C 1319.43 0.203537 -2.28294 0
M  V30 14089 C 1320.43 0.856762 -1.36074 0
M  V30 14090 O 1321.62 0.71496 -1.58852 0
M  V30 14091 C 1318.75 1.29581 -3.15312 0
M  V30 14092 H 1319.94 -0.501701 -2.95674 0
M  V30 14093 H 1317.5 -0.298378 -1.53426 0
M  V30 14094 H 1318.23 2.03393 -2.5259 0
M  V30 14095 H 1318.02 0.832398 -3.83163 0
M  V30 14096 H 1319.51 1.81988 -3.75859 0
M  V30 14097 N 1319.94 1.55134 -0.277709 0
M  V30 14098 C 1320.85 2.26296 0.618658 0
M  V30 14099 C 1321.87 1.28978 1.16794 0
M  V30 14100 O 1323.05 1.61918 1.19768 0
M  V30 14101 C 1320.11 2.97214 1.78508 0
M  V30 14102 C 1319.17 4.10016 1.27221 0
M  V30 14103 C 1318.4 4.77543 2.38304 0
M  V30 14104 O 1318.63 4.44293 3.57715 0
M  V30 14105 O 1317.56 5.65437 2.06313 0
M  V30 14106 H 1321.39 3.03671 0.0421031 0
M  V30 14107 H 1318.97 1.49332 -0.0450166 0
M  V30 14108 H 1320.85 3.41773 2.46513 0
M  V30 14109 H 1319.53 2.22753 2.34867 0
M  V30 14110 H 1318.44 3.69907 0.558544 0
M  V30 14111 H 1319.77 4.86385 0.754333 0
M  V30 14112 N 1321.42 0.00503138 1.57599 0
M  V30 14113 C 1322.37 -1.00294 2.09866 0
M  V30 14114 C 1323.36 -1.35267 1.01977 0
M  V30 14115 O 1324.57 -1.33772 1.20437 0
M  V30 14116 H 1320.94 -0.341112 0.670184 0
M  V30 14117 H 1322.92 -0.536595 2.93536 0
M  V30 14118 C 1321.66 -2.28432 2.62133 0
M  V30 14119 H 1320.99 -2.02391 3.44787 0
M  V30 14120 H 1322.43 -2.97227 3.02378 0
M  V30 14121 C 1320.89 -2.99758 1.53774 0
M  V30 14122 O 1321.42 -3.90939 0.923563 0
M  V30 14123 N 1319.62 -2.61671 1.26398 0
M  V30 14124 H 1319.17 -1.87605 1.76528 0
M  V30 14125 H 1319.13 -3.09707 0.541168 0
M  V30 14126 N 1322.9 -1.55308 -0.267798 0
M  V30 14127 C 1323.85 -1.89342 -1.35102 0
M  V30 14128 C 1324.84 -0.770277 -1.50874 0
M  V30 14129 O 1326.05 -0.954679 -1.52597 0
M  V30 14130 H 1322.42 -0.601036 -0.451952 0
M  V30 14131 H 1324.39 -2.7982 -1.03651 0
M  V30 14132 C 1323.14 -2.18644 -2.70352 0
M  V30 14133 H 1322.47 -3.04557 -2.59008 0
M  V30 14134 H 1323.91 -2.46374 -3.45073 0
M  V30 14135 C 1322.36 -0.995753 -3.21848 0
M  V30 14136 O 1322.89 -0.233037 -4.01023 0
M  V30 14137 N 1321.1 -0.792038 -2.79598 0
M  V30 14138 H 1320.65 -1.41396 -2.15325 0
M  V30 14139 H 1320.61 0.00300201 -3.144 0
M  V30 14140 N 1324.38 0.532545 -1.4833 0
M  V30 14141 C 1325.31 1.65325 -1.58746 0
M  V30 14142 C 1326.32 1.5581 -0.471925 0
M  V30 14143 O 1327.51 1.62317 -0.742656 0
M  V30 14144 C 1324.61 3.03957 -1.49877 0
M  V30 14145 C 1323.78 3.38979 -2.76427 0
M  V30 14146 C 1322.84 4.56881 -2.61048 0
M  V30 14147 O 1321.87 4.6023 -3.34928 0
M  V30 14148 N 1323.07 5.54898 -1.70496 0
M  V30 14149 H 1325.84 1.56827 -2.55393 0
M  V30 14150 H 1323.4 0.71976 -1.45021 0
M  V30 14151 H 1325.39 3.80702 -1.37288 0
M  V30 14152 H 1323.96 3.06548 -0.612158 0
M  V30 14153 H 1323.18 2.51438 -3.03599 0
M  V30 14154 H 1324.47 3.59163 -3.60388 0
M  V30 14155 H 1323.87 5.54968 -1.0967 0
M  V30 14156 H 1322.42 6.3087 -1.63847 0
M  V30 14157 N 1325.86 1.36875 0.78122 0
M  V30 14158 C 1327.27 1.28236 1.35692 0
M  V30 14159 C 1327.62 -0.0742286 1.9606 0
M  V30 14160 O 1326.74 -0.97588 1.93146 0
M  V30 14161 C 1327.34 2.32215 2.46702 0
M  V30 14162 C 1325.9 2.2724 3.00065 0
M  V30 14163 C 1325.04 2.16553 1.73206 0
M  V30 14164 H 1327.99 1.47634 0.582217 0
M  V30 14165 H 1328.02 1.96333 3.25935 0
M  V30 14166 H 1327.53 3.30938 2.02735 0
M  V30 14167 H 1325.63 1.3201 3.48431 0
M  V30 14168 H 1325.74 3.20267 3.56323 0
M  V30 14169 H 1324.11 1.62941 1.95761 0
M  V30 14170 H 1324.89 3.17176 1.31356 0
M  V30 14171 N 1327.33 -1.00632 1.21289 0
M  V30 14172 C 1328.27 -2.09085 0.914258 0
M  V30 14173 C 1329.24 -1.62016 -0.137697 0
M  V30 14174 O 1330.43 -1.88498 -0.00902131 0
M  V30 14175 C 1327.56 -3.36645 0.37254 0
M  V30 14176 C 1326.6 -4.0262 1.40709 0
M  V30 14177 S 1327.43 -4.45203 2.97582 0
M  V30 14178 C 1328.59 -5.75951 2.45013 0
M  V30 14179 H 1328.82 -2.34094 1.83268 0
M  V30 14180 H 1326.36 -1.13893 1.04248 0
M  V30 14181 H 1328.31 -4.10446 0.0665561 0
M  V30 14182 H 1326.98 -3.09689 -0.524546 0
M  V30 14183 H 1326.17 -4.94427 0.977642 0
M  V30 14184 H 1325.77 -3.35088 1.66108 0
M  V30 14185 H 1328.06 -6.51634 1.85416 0
M  V30 14186 H 1329.01 -6.23706 3.35257 0
M  V30 14187 H 1329.41 -5.32707 1.8677 0
M  V30 14188 N 1328.81 -1.02043 -1.20104 0
M  V30 14189 C 1329.76 -0.587332 -2.25063 0
M  V30 14190 C 1330.75 0.375844 -1.65178 0
M  V30 14191 O 1331.96 0.245347 -1.7832 0
M  V30 14192 H 1328.33 -0.171637 -0.732151 0
M  V30 14193 H 1330.31 -1.48339 -2.58917 0
M  V30 14194 C 1329.05 0.0546893 -3.47657 0
M  V30 14195 H 1328.38 -0.677457 -3.94018 0
M  V30 14196 H 1329.82 0.320786 -4.22785 0
M  V30 14197 C 1328.28 1.29869 -3.10863 0
M  V30 14198 O 1328.81 2.39161 -3.22746 0
M  V30 14199 N 1327.01 1.18423 -2.65376 0
M  V30 14200 H 1326.56 0.294895 -2.55906 0
M  V30 14201 H 1326.52 2.01755 -2.41128 0
M  V30 14202 N 1330.29 1.35952 -0.797165 0
M  V30 14203 C 1331.25 2.28266 -0.206748 0
M  V30 14204 C 1332.25 1.49169 0.60043 0
M  V30 14205 O 1333.44 1.69054 0.42029 0
M  V30 14206 C 1330.58 3.33363 0.712884 0
M  V30 14207 H 1331.77 2.81992 -1.02082 0
M  V30 14208 H 1329.32 1.45648 -0.567138 0
M  V30 14209 H 1330.06 2.84806 1.551 0
M  V30 14210 H 1329.84 3.91864 0.135926 0
M  V30 14211 H 1331.33 4.02284 1.1206 0
M  V30 14212 N 1331.77 0.549846 1.47697 0
M  V30 14213 C 1332.72 -0.222213 2.26915 0
M  V30 14214 C 1333.7 -0.891996 1.33911 0
M  V30 14215 O 1334.89 -0.791519 1.58316 0
M  V30 14216 C 1332.02 -1.25619 3.19491 0
M  V30 14217 C 1331.11 -0.590193 4.19973 0
M  V30 14218 N 1331.5 0.335519 5.04686 0
M  V30 14219 C 1329.8 -0.845012 4.37922 0
M  V30 14220 C 1330.5 0.721672 5.77206 0
M  V30 14221 N 1329.48 0.078184 5.43544 0
M  V30 14222 H 1333.28 0.489645 2.89792 0
M  V30 14223 H 1330.79 0.36926 1.58146 0
M  V30 14224 H 1332.79 -1.82319 3.74921 0
M  V30 14225 H 1331.45 -1.96922 2.5817 0
M  V30 14226 H 1332.46 0.709271 5.1302 0
M  V30 14227 H 1329.14 -1.54711 3.87777 0
M  V30 14228 H 1330.53 1.48191 6.55354 0
M  V30 14229 N 1333.25 -1.54984 0.285932 0
M  V30 14230 C 1334.47 -2.04699 -0.333621 0
M  V30 14231 C 1334.9 -1.16252 -1.47875 0
M  V30 14232 O 1334.25 -0.163376 -1.80562 0
M  V30 14233 C 1334.3 -3.52022 -0.78187 0
M  V30 14234 O 1333.41 -3.66639 -1.88812 0
M  V30 14235 H 1332.75 -0.660579 -0.0673203 0
M  V30 14236 H 1335.28 -2.00171 0.423386 0
M  V30 14237 H 1335.29 -3.93591 -1.07473 0
M  V30 14238 H 1333.96 -4.15862 0.055893 0
M  V30 14239 H 1332.54 -3.36974 -1.59696 0
M  V30 14240 N 1334.72 -0.0133892 -1.57594 0
M  V30 14241 C 1335.67 0.991796 -2.10395 0
M  V30 14242 C 1336.67 1.34724 -1.02693 0
M  V30 14243 O 1337.87 1.33131 -1.21145 0
M  V30 14244 H 1334.25 0.337553 -0.671984 0
M  V30 14245 H 1336.22 0.52102 -2.93816 0
M  V30 14246 C 1334.97 2.27039 -2.63341 0
M  V30 14247 H 1334.29 2.00559 -3.45855 0
M  V30 14248 H 1335.73 2.95619 -3.0395 0
M  V30 14249 C 1334.19 2.98939 -1.55362 0
M  V30 14250 O 1334.72 3.90444 -0.944282 0
M  V30 14251 N 1332.93 2.60997 -1.27784 0
M  V30 14252 H 1332.47 1.86666 -1.77521 0
M  V30 14253 H 1332.43 3.09416 -0.557585 0
M  V30 14254 N 1336.2 1.55448 0.259558 0
M  V30 14255 C 1337.45 1.76686 0.98935 0
M  V30 14256 C 1337.78 0.575434 1.85793 0
M  V30 14257 O 1337.03 -0.441676 1.90651 0
M  V30 14258 C 1337.33 3.03292 1.89073 0
M  V30 14259 C 1337 4.35225 1.17855 0
M  V30 14260 C 1335.66 4.7108 0.981675 0
M  V30 14261 C 1338.01 5.16839 0.6728 0
M  V30 14262 C 1335.34 5.86094 0.266551 0
M  V30 14263 C 1337.69 6.32593 -0.0287965 0
M  V30 14264 C 1336.36 6.67078 -0.23726 0
M  V30 14265 H 1335.63 0.646542 0.362029 0
M  V30 14266 H 1338.27 1.8972 0.260488 0
M  V30 14267 H 1336.58 2.85217 2.68624 0
M  V30 14268 H 1338.27 3.16923 2.45685 0
M  V30 14269 H 1334.86 4.07051 1.34192 0
M  V30 14270 H 1339.05 4.89604 0.812481 0
M  V30 14271 H 1334.3 6.11327 0.0944447 0
M  V30 14272 H 1338.48 6.95081 -0.428378 0
M  V30 14273 H 1336.11 7.56049 -0.793358 0
M  V30 14274 N 1337.68 -0.524672 1.4861 0
M  V30 14275 C 1338.91 -1.30482 1.60568 0
M  V30 14276 C 1339.32 -1.86889 0.267952 0
M  V30 14277 O 1338.68 -1.66669 -0.743488 0
M  V30 14278 C 1338.73 -2.45191 2.65638 0
M  V30 14279 O 1338.45 -1.91107 3.9422 0
M  V30 14280 C 1339.95 -3.36931 2.88084 0
M  V30 14281 H 1337.17 -0.396612 0.541239 0
M  V30 14282 H 1339.72 -0.632392 1.94476 0
M  V30 14283 H 1337.87 -3.08308 2.34574 0
M  V30 14284 H 1338.29 -2.66234 4.51907 0
M  V30 14285 H 1339.76 -4.13755 3.65391 0
M  V30 14286 H 1340.24 -3.92487 1.97106 0
M  V30 14287 H 1340.84 -2.79601 3.20473 0
M  V30 14288 N 1339.16 -1.37287 -0.77395 0
M  V30 14289 C 1340.39 -1.35366 -1.56075 0
M  V30 14290 C 1340.8 0.0634437 -1.89094 0
M  V30 14291 O 1340.14 1.03503 -1.51766 0
M  V30 14292 C 1340.2 -2.12512 -2.89964 0
M  V30 14293 C 1339.87 -3.61492 -2.79593 0
M  V30 14294 C 1340.86 -4.55421 -2.50774 0
M  V30 14295 C 1338.55 -4.04585 -2.97684 0
M  V30 14296 C 1340.54 -5.90421 -2.4017 0
M  V30 14297 C 1338.23 -5.39672 -2.86701 0
M  V30 14298 C 1339.23 -6.32403 -2.57984 0
M  V30 14299 O 1338.91 -7.65006 -2.47024 0
M  V30 14300 H 1338.65 -0.465447 -0.49024 0
M  V30 14301 H 1341.2 -1.81199 -0.967273 0
M  V30 14302 H 1339.43 -1.61366 -3.51423 0
M  V30 14303 H 1341.12 -2.03253 -3.51345 0
M  V30 14304 H 1341.89 -4.23438 -2.36485 0
M  V30 14305 H 1337.76 -3.32769 -3.19038 0
M  V30 14306 H 1341.31 -6.62769 -2.17676 0
M  V30 14307 H 1337.21 -5.71258 -3.00558 0
M  V30 14308 H 1337.97 -7.75302 -2.6239 0
M  V30 14309 N 1340.64 0.999871 -1.21821 0
M  V30 14310 C 1341.91 1.71135 -0.947213 0
M  V30 14311 C 1342.29 2.04087 0.539601 0
M  V30 14312 O 1341.64 1.71866 1.5058 0
M  V30 14313 C 1341.85 2.96704 -1.8376 0
M  V30 14314 C 1343.2 3.69627 -2.08952 0
M  V30 14315 O 1344.22 3.06697 -1.81151 0
M  V30 14316 O 1343.08 4.82832 -2.55999 0
M  V30 14317 H 1340.18 0.746631 -0.355628 0
M  V30 14318 H 1342.72 1.05684 -1.32774 0
M  V30 14319 H 1341.49 2.68802 -2.84361 0
M  V30 14320 H 1341.12 3.69894 -1.45821 0
M  V30 14321 N 1342.11 1.02678 1.19562 0
M  V30 14322 C 1343.08 0.610407 2.20922 0
M  V30 14323 C 1344.08 -0.324858 1.57484 0
M  V30 14324 O 1345.27 -0.112153 1.73839 0
M  V30 14325 C 1342.4 -0.107115 3.40732 0
M  V30 14326 H 1343.59 1.50722 2.59274 0
M  V30 14327 H 1341.15 0.817725 1.33203 0
M  V30 14328 H 1341.88 -1.01837 3.07896 0
M  V30 14329 H 1341.67 0.564901 3.88009 0
M  V30 14330 H 1343.16 -0.385423 4.15818 0
M  V30 14331 N 1343.59 -1.35528 0.804364 0
M  V30 14332 C 1344.82 -2.03604 0.395013 0
M  V30 14333 C 1345.24 -1.60225 -0.985371 0
M  V30 14334 O 1344.6 -0.777844 -1.63766 0
M  V30 14335 C 1344.65 -3.57337 0.484011 0
M  V30 14336 O 1343.75 -4.09316 -0.503395 0
M  V30 14337 H 1343.09 -0.643089 0.165325 0
M  V30 14338 H 1345.62 -1.73171 1.08963 0
M  V30 14339 H 1345.63 -4.0647 0.353009 0
M  V30 14340 H 1344.31 -3.8826 1.49088 0
M  V30 14341 H 1342.89 -3.71412 -0.332817 0
M  V30 14342 N 1345.07 -0.557671 -1.47404 0
M  V30 14343 C 1346.02 0.202834 -2.31714 0
M  V30 14344 C 1347.01 0.908873 -1.42954 0
M  V30 14345 O 1348.22 0.830106 -1.59716 0
M  V30 14346 H 1344.59 0.0842824 -0.747262 0
M  V30 14347 H 1346.57 -0.527431 -2.93702 0
M  V30 14348 C 1345.31 1.21937 -3.25617 0
M  V30 14349 H 1344.64 0.685506 -3.93879 0
M  V30 14350 H 1346.08 1.72237 -3.87441 0
M  V30 14351 C 1344.54 2.26748 -2.49173 0
M  V30 14352 O 1345.07 3.33681 -2.23651 0
M  V30 14353 N 1343.27 2.00687 -2.10174 0
M  V30 14354 H 1342.82 1.13741 -2.3113 0
M  V30 14355 H 1342.78 2.71031 -1.59342 0
M  V30 14356 N 1346.55 1.54831 -0.294147 0
M  V30 14357 C 1347.48 2.20696 0.61854 0
M  V30 14358 C 1348.49 1.19754 1.10285 0
M  V30 14359 O 1349.68 1.46383 1.02148 0
M  V30 14360 C 1346.78 2.83429 1.85798 0
M  V30 14361 C 1345.96 4.10239 1.51731 0
M  V30 14362 C 1345.02 4.56841 2.61119 0
M  V30 14363 O 1344.04 5.22194 2.26501 0
M  V30 14364 N 1345.24 4.2858 3.91534 0
M  V30 14365 H 1348.01 2.9965 0.054714 0
M  V30 14366 H 1345.57 1.61484 -0.116052 0
M  V30 14367 H 1347.56 3.11541 2.5831 0
M  V30 14368 H 1346.13 2.08356 2.33038 0
M  V30 14369 H 1345.35 3.89212 0.625142 0
M  V30 14370 H 1346.64 4.92824 1.26499 0
M  V30 14371 H 1346.04 3.7621 4.22472 0
M  V30 14372 H 1344.59 4.61418 4.60366 0
M  V30 14373 N 1348.03 0.0217466 1.57585 0
M  V30 14374 C 1349.27 -0.659463 1.91778 0
M  V30 14375 C 1349.61 -1.72201 0.897801 0
M  V30 14376 O 1348.88 -1.94333 -0.080509 0
M  V30 14377 C 1349.16 -1.28269 3.36481 0
M  V30 14378 C 1349.02 -0.230201 4.49211 0
M  V30 14379 C 1350.34 -2.20279 3.81005 0
M  V30 14380 H 1347.46 -0.238263 0.697424 0
M  V30 14381 H 1350.1 0.0774967 1.89842 0
M  V30 14382 H 1348.25 -1.9108 3.38262 0
M  V30 14383 H 1349.92 0.399901 4.59563 0
M  V30 14384 H 1348.16 0.445157 4.3151 0
M  V30 14385 H 1348.83 -0.705732 5.4747 0
M  V30 14386 H 1351.31 -1.67463 3.80914 0
M  V30 14387 H 1350.19 -2.60842 4.82962 0
M  V30 14388 H 1350.45 -3.09092 3.16093 0
M  V30 14389 N 1349.51 -1.55583 -0.251311 0
M  V30 14390 C 1350.44 -1.9296 -1.31486 0
M  V30 14391 C 1351.42 -0.794001 -1.50431 0
M  V30 14392 O 1352.6 -1.05393 -1.63113 0
M  V30 14393 C 1349.73 -2.22046 -2.67045 0
M  V30 14394 C 1348.69 -3.37816 -2.62801 0
M  V30 14395 C 1348.01 -3.52433 -4.02113 0
M  V30 14396 C 1349.31 -4.73626 -2.20171 0
M  V30 14397 H 1351.01 -2.82046 -1.00451 0
M  V30 14398 H 1348.55 -1.35702 -0.481775 0
M  V30 14399 H 1350.5 -2.46783 -3.41579 0
M  V30 14400 H 1349.23 -1.29782 -2.99707 0
M  V30 14401 H 1347.89 -3.13081 -1.90724 0
M  V30 14402 H 1347.54 -2.57597 -4.32034 0
M  V30 14403 H 1347.24 -4.30283 -4.00163 0
M  V30 14404 H 1348.76 -3.79486 -4.78354 0
M  V30 14405 H 1350.17 -4.97764 -2.84436 0
M  V30 14406 H 1348.57 -5.54547 -2.29341 0
M  V30 14407 H 1349.64 -4.70985 -1.1533 0
M  V30 14408 N 1350.98 0.516783 -1.48886 0
M  V30 14409 C 1351.91 1.62897 -1.67292 0
M  V30 14410 C 1352.89 1.61903 -0.521671 0
M  V30 14411 O 1354.08 1.78892 -0.755728 0
M  V30 14412 C 1351.21 3.01444 -1.72478 0
M  V30 14413 C 1350.16 3.173 -2.87236 0
M  V30 14414 C 1349.49 4.5704 -2.77522 0
M  V30 14415 C 1350.79 2.98818 -4.28375 0
M  V30 14416 H 1352.48 1.47748 -2.60405 0
M  V30 14417 H 1350.03 0.709361 -1.25316 0
M  V30 14418 H 1351.98 3.79135 -1.83942 0
M  V30 14419 H 1350.71 3.17645 -0.759538 0
M  V30 14420 H 1349.37 2.4203 -2.75349 0
M  V30 14421 H 1349.01 4.70096 -1.78938 0
M  V30 14422 H 1348.71 4.68593 -3.54534 0
M  V30 14423 H 1350.24 5.36813 -2.90972 0
M  V30 14424 H 1351.65 3.66291 -4.41026 0
M  V30 14425 H 1350.05 3.21854 -5.06488 0
M  V30 14426 H 1351.12 1.95102 -4.43918 0
M  V30 14427 N 1352.46 1.37696 0.766659 0
M  V30 14428 C 1353.71 1.32507 1.52069 0
M  V30 14429 C 1354.02 -0.0864967 1.95409 0
M  V30 14430 O 1355.23 -0.260877 2.70244 0
M  V30 14431 C 1353.69 2.32614 2.74625 0
M  V30 14432 C 1353.29 3.79325 2.38363 0
M  V30 14433 C 1355.04 2.36445 3.52554 0
M  V30 14434 C 1352.94 4.7115 3.57451 0
M  V30 14435 H 1351.87 0.492491 0.570937 0
M  V30 14436 H 1354.53 1.63183 0.839268 0
M  V30 14437 H 1352.91 1.94963 3.44682 0
M  V30 14438 H 1354.08 4.25841 1.76056 0
M  V30 14439 H 1352.4 3.78488 1.73597 0
M  V30 14440 H 1354.99 3.02252 4.41076 0
M  V30 14441 H 1355.34 1.37953 3.92778 0
M  V30 14442 H 1355.87 2.72829 2.89498 0
M  V30 14443 H 1352.61 5.70789 3.22304 0
M  V30 14444 H 1352.13 4.29335 4.18846 0
M  V30 14445 H 1353.81 4.88532 4.242 0
M  V30 14446 N 1353.94 -0.993397 1.22349 0
M  V30 14447 C 1354.9 -2.065 0.994506 0
M  V30 14448 C 1355.9 -1.60753 -0.0388766 0
M  V30 14449 O 1357.09 -1.73053 0.199578 0
M  V30 14450 C 1354.22 -3.37182 0.502088 0
M  V30 14451 H 1355.42 -2.28248 1.94533 0
M  V30 14452 H 1352.97 -1.16489 1.04211 0
M  V30 14453 H 1353.71 -3.21119 -0.453114 0
M  V30 14454 H 1353.49 -3.71721 1.24763 0
M  V30 14455 H 1354.98 -4.16027 0.362108 0
M  V30 14456 N 1355.42 -1.03311 -1.19015 0
M  V30 14457 C 1356.69 -0.646539 -1.84606 0
M  V30 14458 C 1357.07 0.87449 -1.92135 0
M  V30 14459 O 1356.42 1.77291 -1.44154 0
M  V30 14460 C 1356.63 -1.31354 -3.23338 0
M  V30 14461 C 1357.98 -1.43949 -3.99455 0
M  V30 14462 O 1359 -1.27104 -3.32751 0
M  V30 14463 O 1357.86 -1.71328 -5.1895 0
M  V30 14464 H 1354.96 -0.225267 -0.795728 0
M  V30 14465 H 1357.5 -1.13152 -1.2647 0
M  V30 14466 H 1356.28 -2.3521 -3.12717 0
M  V30 14467 H 1355.9 -0.816688 -3.89122 0
M  V30 14468 N 1356.9 1.35099 -0.81154 0
M  V30 14469 C 1357.83 2.32264 -0.239925 0
M  V30 14470 C 1358.81 1.57708 0.637354 0
M  V30 14471 O 1359.99 1.85751 0.566598 0
M  V30 14472 C 1357.12 3.41931 0.608325 0
M  V30 14473 C 1356.08 4.27659 -0.170869 0
M  V30 14474 C 1355.4 5.28691 0.799398 0
M  V30 14475 C 1356.7 5.0394 -1.37266 0
M  V30 14476 H 1358.4 2.8032 -1.05172 0
M  V30 14477 H 1355.94 1.34773 -0.507185 0
M  V30 14478 H 1357.89 4.08911 1.01832 0
M  V30 14479 H 1356.62 2.92496 1.45306 0
M  V30 14480 H 1355.28 3.62265 -0.562094 0
M  V30 14481 H 1354.93 4.75521 1.63977 0
M  V30 14482 H 1354.63 5.86921 0.282331 0
M  V30 14483 H 1356.15 5.98542 1.20749 0
M  V30 14484 H 1357.56 5.63838 -1.03728 0
M  V30 14485 H 1355.96 5.7169 -1.82456 0
M  V30 14486 H 1357.03 4.34295 -2.15676 0
M  V30 14487 N 1358.37 0.56548 1.47106 0
M  V30 14488 C 1359.32 -0.177564 2.30116 0
M  V30 14489 C 1360.29 -0.900534 1.39569 0
M  V30 14490 O 1361.48 -0.894603 1.68527 0
M  V30 14491 C 1358.62 -1.19633 3.237 0
M  V30 14492 C 1357.73 -0.47858 4.29341 0
M  V30 14493 C 1356.86 -1.48336 5.10068 0
M  V30 14494 C 1355.9 -0.751049 6.07475 0
M  V30 14495 N 1355.04 -1.70306 6.81132 0
M  V30 14496 H 1359.88 0.536409 2.93132 0
M  V30 14497 H 1357.42 0.276352 1.44481 0
M  V30 14498 H 1359.37 -1.79967 3.76388 0
M  V30 14499 H 1358 -1.87823 2.6253 0
M  V30 14500 H 1357.06 0.239454 3.79646 0
M  V30 14501 H 1358.37 0.0947147 4.9871 0
M  V30 14502 H 1357.52 -2.16 5.66947 0
M  V30 14503 H 1356.26 -2.09058 4.4062 0
M  V30 14504 H 1355.27 -0.0605336 5.49767 0
M  V30 14505 H 1356.49 -0.14946 6.78936 0
M  V30 14506 H 1354.44 -2.2987 6.14407 0
M  V30 14507 H 1354.35 -1.18213 7.46701 0
M  V30 14508 H 1355.62 -2.37058 7.42579 0
M  V30 14509 N 1359.85 -1.54672 0.302354 0
M  V30 14510 C 1360.78 -2.2653 -0.566265 0
M  V30 14511 C 1361.76 -1.26532 -1.13682 0
M  V30 14512 O 1362.95 -1.55307 -1.1659 0
M  V30 14513 C 1360.08 -3.00709 -1.73757 0
M  V30 14514 C 1359.03 -4.07865 -1.29731 0
M  V30 14515 C 1358.36 -4.69767 -2.55388 0
M  V30 14516 C 1359.66 -5.20547 -0.427567 0
M  V30 14517 H 1361.35 -2.99382 0.033071 0
M  V30 14518 H 1358.9 -1.4399 0.0173458 0
M  V30 14519 H 1360.85 -3.497 -2.35134 0
M  V30 14520 H 1359.58 -2.25437 -2.36317 0
M  V30 14521 H 1358.23 -3.59726 -0.706586 0
M  V30 14522 H 1357.88 -3.91134 -3.16265 0
M  V30 14523 H 1357.58 -5.42137 -2.26631 0
M  V30 14524 H 1359.11 -5.21521 -3.17566 0
M  V30 14525 H 1360.52 -5.65424 -0.947053 0
M  V30 14526 H 1358.92 -5.99645 -0.233704 0
M  V30 14527 H 1359.99 -4.81805 0.546993 0
M  V30 14528 N 1361.33 -0.0301034 -1.57571 0
M  V30 14529 C 1362.28 0.969425 -2.11435 0
M  V30 14530 C 1363.27 1.33627 -1.04116 0
M  V30 14531 O 1364.48 1.31839 -1.2255 0
M  V30 14532 H 1360.85 0.330407 -0.675526 0
M  V30 14533 H 1362.82 0.489828 -2.94352 0
M  V30 14534 C 1361.57 2.24233 -2.65734 0
M  V30 14535 H 1360.9 1.9688 -3.47963 0
M  V30 14536 H 1362.34 2.92378 -3.07068 0
M  V30 14537 C 1360.8 2.97274 -1.58524 0
M  V30 14538 O 1361.33 3.8942 -0.985641 0
M  V30 14539 N 1359.53 2.59627 -1.30545 0
M  V30 14540 H 1359.08 1.84773 -1.79491 0
M  V30 14541 H 1359.04 3.08807 -0.590372 0
M  V30 14542 N 1362.81 1.55714 0.243056 0
M  V30 14543 C 1363.74 1.93655 1.30461 0
M  V30 14544 C 1364.72 0.801968 1.50008 0
M  V30 14545 O 1365.9 1.06256 1.62552 0
M  V30 14546 C 1363.03 2.23459 2.65863 0
M  V30 14547 C 1361.99 3.39205 2.61006 0
M  V30 14548 C 1361.31 3.5456 4.00239 0
M  V30 14549 C 1362.61 4.74787 2.17656 0
M  V30 14550 H 1364.31 2.82575 0.98954 0
M  V30 14551 H 1361.85 1.35955 0.474572 0
M  V30 14552 H 1363.81 2.48591 3.40266 0
M  V30 14553 H 1362.53 1.31369 2.99014 0
M  V30 14554 H 1361.19 3.14088 1.89061 0
M  V30 14555 H 1360.84 2.59884 4.30661 0
M  V30 14556 H 1360.54 4.32399 3.97876 0
M  V30 14557 H 1362.06 3.82017 4.76335 0
M  V30 14558 H 1363.48 4.99266 2.81792 0
M  V30 14559 H 1361.87 5.55756 2.26397 0
M  V30 14560 H 1362.94 4.7159 1.12831 0
M  V30 14561 N 1364.29 -0.50888 1.49158 0
M  V30 14562 C 1365.53 -1.261 1.57934 0
M  V30 14563 C 1365.86 -1.93199 0.264405 0
M  V30 14564 O 1365.13 -1.82359 -0.715684 0
M  V30 14565 H 1363.71 -0.468421 0.581886 0
M  V30 14566 H 1366.37 -0.590447 1.85741 0
M  V30 14567 H 1365.46 -2.02913 2.37135 0
M  V30 14568 N 1365.76 -1.381 -0.759346 0
M  V30 14569 C 1367.18 -1.19171 -1.06162 0
M  V30 14570 C 1367.38 -0.0364043 -2.01467 0
M  V30 14571 O 1366.44 0.619635 -2.44779 0
M  V30 14572 C 1367.75 -2.51569 -1.64723 0
M  V30 14573 C 1369.3 -2.58201 -1.76921 0
M  V30 14574 C 1369.77 -3.9076 -2.38894 0
M  V30 14575 N 1371.26 -3.92269 -2.46331 0
M  V30 14576 C 1372 -4.91595 -2.95164 0
M  V30 14577 N 1371.49 -6.01318 -3.44075 0
M  V30 14578 N 1373.29 -4.7899 -2.94152 0
M  V30 14579 H 1365.44 -2.12021 -0.126788 0
M  V30 14580 H 1367.7 -0.940517 -0.118877 0
M  V30 14581 H 1367.41 -3.36535 -1.02162 0
M  V30 14582 H 1367.28 -2.69551 -2.6386 0
M  V30 14583 H 1369.67 -1.73634 -2.38611 0
M  V30 14584 H 1369.75 -2.44092 -0.765047 0
M  V30 14585 H 1369.39 -4.75747 -1.7784 0
M  V30 14586 H 1369.32 -4.02179 -3.39941 0
M  V30 14587 H 1371.81 -3.13015 -2.11731 0
M  V30 14588 H 1372.13 -6.73046 -3.79776 0
M  V30 14589 H 1370.47 -6.04946 -3.42148 0
M  V30 14590 H 1373.66 -3.92385 -2.55248 0
M  V30 14591 H 1373.84 -5.5655 -3.31897 0
M  V30 14592 N 1367.24 0.986894 -1.22875 0
M  V30 14593 C 1368.19 2.09935 -1.00151 0
M  V30 14594 C 1369.18 1.69303 0.0573751 0
M  V30 14595 O 1370.39 1.79746 -0.0955781 0
M  V30 14596 H 1366.77 0.686605 -0.306721 0
M  V30 14597 H 1368.74 2.26271 -1.94535 0
M  V30 14598 C 1367.49 3.42442 -0.602374 0
M  V30 14599 H 1366.81 3.74154 -1.40886 0
M  V30 14600 H 1368.25 4.21242 -0.482836 0
M  V30 14601 C 1366.71 3.29785 0.688707 0
M  V30 14602 O 1367.24 3.6208 1.73957 0
M  V30 14603 N 1365.44 2.82956 0.662152 0
M  V30 14604 H 1364.99 2.56873 -0.193337 0
M  V30 14605 H 1364.95 2.74869 1.52625 0
M  V30 14606 N 1368.72 1.0394 1.18466 0
M  V30 14607 C 1369.97 0.742042 1.88414 0
M  V30 14608 C 1370.3 -0.730138 1.80275 0
M  V30 14609 O 1369.55 -1.54844 1.19674 0
M  V30 14610 C 1369.85 1.15198 3.38326 0
M  V30 14611 C 1369.52 2.62422 3.66668 0
M  V30 14612 C 1368.18 3.02643 3.74113 0
M  V30 14613 C 1370.53 3.5762 3.79153 0
M  V30 14614 C 1367.86 4.36953 3.91522 0
M  V30 14615 C 1370.21 4.91647 3.98077 0
M  V30 14616 C 1368.87 5.31541 4.03758 0
M  V30 14617 H 1368.14 0.271532 0.689457 0
M  V30 14618 H 1370.79 1.30419 1.40225 0
M  V30 14619 H 1369.1 0.508607 3.88485 0
M  V30 14620 H 1370.79 0.899269 3.90787 0
M  V30 14621 H 1367.38 2.30268 3.61489 0
M  V30 14622 H 1371.57 3.27693 3.72735 0
M  V30 14623 H 1366.82 4.67382 3.94163 0
M  V30 14624 H 1371 5.65318 4.0668 0
M  V30 14625 H 1368.62 6.35622 4.16999 0
M  V30 14626 N 1370.2 -1.34667 0.818693 0
M  V30 14627 C 1371.42 -2.03173 0.416585 0
M  V30 14628 C 1371.85 -1.61261 -0.968321 0
M  V30 14629 O 1371.21 -0.79517 -1.62932 0
M  V30 14630 C 1371.25 -3.56803 0.521884 0
M  V30 14631 O 1370.36 -4.09827 -0.459953 0
M  V30 14632 H 1369.7 -0.6413 0.172136 0
M  V30 14633 H 1372.23 -1.72006 1.10794 0
M  V30 14634 H 1372.24 -4.06073 0.3961 0
M  V30 14635 H 1370.91 -3.86656 1.53198 0
M  V30 14636 H 1369.49 -3.71744 -0.293405 0
M  V30 14637 N 1371.68 -0.573274 -1.46804 0
M  V30 14638 C 1372.92 -0.0553432 -2.02724 0
M  V30 14639 C 1373.26 1.29753 -1.44492 0
M  V30 14640 O 1372.53 1.84804 -0.606455 0
M  V30 14641 C 1372.81 0.0205511 -3.60094 0
M  V30 14642 C 1372.67 -1.36055 -4.2873 0
M  V30 14643 C 1373.99 0.725944 -4.34071 0
M  V30 14644 H 1371.1 -0.0215858 -0.736684 0
M  V30 14645 H 1373.75 -0.738657 -1.75054 0
M  V30 14646 H 1371.9 0.602481 -3.838 0
M  V30 14647 H 1373.57 -1.98692 -4.16316 0
M  V30 14648 H 1371.81 -1.93087 -3.88458 0
M  V30 14649 H 1372.48 -1.26001 -5.37427 0
M  V30 14650 H 1374.96 0.231677 -4.15455 0
M  V30 14651 H 1373.83 0.74805 -5.43779 0
M  V30 14652 H 1374.1 1.78536 -4.04447 0
M  V30 14653 N 1373.15 1.5451 -0.310553 0
M  V30 14654 C 1374.09 2.2134 0.595098 0
M  V30 14655 C 1375.1 1.20917 1.09009 0
M  V30 14656 O 1376.29 1.47458 1.0059 0
M  V30 14657 C 1373.39 2.85384 1.82782 0
M  V30 14658 C 1372.56 4.11826 1.47372 0
M  V30 14659 C 1371.62 4.59584 2.56259 0
M  V30 14660 O 1370.65 5.24567 2.20949 0
M  V30 14661 N 1371.85 4.32709 3.86967 0
M  V30 14662 H 1374.61 2.99691 0.0229291 0
M  V30 14663 H 1372.17 1.61351 -0.133173 0
M  V30 14664 H 1374.17 3.14263 2.54992 0
M  V30 14665 H 1372.74 2.10816 2.30815 0
M  V30 14666 H 1371.96 3.89853 0.583826 0
M  V30 14667 H 1373.24 4.94138 1.21265 0
M  V30 14668 H 1372.64 3.80669 4.18458 0
M  V30 14669 H 1371.2 4.66275 4.55446 0
M  V30 14670 N 1374.63 0.0384594 1.57553 0
M  V30 14671 C 1375.88 -0.633249 1.93291 0
M  V30 14672 C 1376.23 -1.69196 0.915995 0
M  V30 14673 O 1375.53 -1.91484 -0.0666597 0
M  V30 14674 C 1375.72 -1.28439 3.33524 0
M  V30 14675 C 1375.55 -0.290279 4.48762 0
M  V30 14676 C 1374.32 0.113206 5.05173 0
M  V30 14677 C 1376.52 0.459201 5.12246 0
M  V30 14678 N 1374.5 1.10151 6.03937 0
M  V30 14679 C 1375.87 1.30097 6.06197 0
M  V30 14680 C 1377.93 0.518891 4.95189 0
M  V30 14681 C 1376.63 2.19706 6.84924 0
M  V30 14682 C 1378.66 1.40236 5.74533 0
M  V30 14683 C 1378.02 2.23189 6.68106 0
M  V30 14684 H 1374.12 -0.203752 0.754989 0
M  V30 14685 H 1376.7 0.107819 1.94401 0
M  V30 14686 H 1374.87 -1.99555 3.33215 0
M  V30 14687 H 1376.6 -1.91388 3.56585 0
M  V30 14688 H 1373.36 -0.26316 4.72868 0
M  V30 14689 H 1373.78 1.59218 6.58011 0
M  V30 14690 H 1378.42 -0.108201 4.22662 0
M  V30 14691 H 1376.14 2.83467 7.56751 0
M  V30 14692 H 1379.73 1.45295 5.63365 0
M  V30 14693 H 1378.61 2.90443 7.28432 0
M  V30 14694 N 1376.11 -1.55841 -0.234795 0
M  V30 14695 C 1377.06 -1.92165 -1.31055 0
M  V30 14696 C 1378.05 -0.802106 -1.49207 0
M  V30 14697 O 1379.26 -0.986832 -1.50538 0
M  V30 14698 H 1375.63 -0.610487 -0.439101 0
M  V30 14699 H 1377.61 -2.81955 -0.976926 0
M  V30 14700 C 1376.35 -2.24329 -2.65654 0
M  V30 14701 H 1375.68 -3.09982 -2.5249 0
M  V30 14702 H 1377.12 -2.53639 -3.3977 0
M  V30 14703 C 1375.58 -1.0638 -3.19664 0
M  V30 14704 O 1376.11 -0.318047 -4.00439 0
M  V30 14705 N 1374.31 -0.851167 -2.77855 0
M  V30 14706 H 1373.86 -1.45932 -2.12277 0
M  V30 14707 H 1373.82 -0.0636875 -3.14335 0
M  V30 14708 N 1377.59 0.500963 -1.49426 0
M  V30 14709 C 1378.52 1.6192 -1.62217 0
M  V30 14710 C 1379.53 1.54774 -0.504868 0
M  V30 14711 O 1380.72 1.60705 -0.776919 0
M  V30 14712 C 1377.82 3.0071 -1.56291 0
M  V30 14713 C 1377 3.3304 -2.83555 0
M  V30 14714 C 1376.06 4.51241 -2.7068 0
M  V30 14715 O 1375.08 4.53023 -3.44615 0
M  V30 14716 N 1376.28 5.51156 -1.82228 0
M  V30 14717 H 1379.05 1.51374 -2.58662 0
M  V30 14718 H 1376.61 0.688837 -1.46515 0
M  V30 14719 H 1378.6 3.77705 -1.45332 0
M  V30 14720 H 1377.17 3.0518 -0.677043 0
M  V30 14721 H 1376.39 2.44942 -3.08865 0
M  V30 14722 H 1377.68 3.51437 -3.67926 0
M  V30 14723 H 1377.08 5.52516 -1.21417 0
M  V30 14724 H 1375.63 6.27253 -1.77192 0
M  V30 14725 N 1379.07 1.38501 0.752011 0
M  V30 14726 C 1380.32 1.34112 1.50655 0
M  V30 14727 C 1380.63 -0.0657661 1.95489 0
M  V30 14728 O 1381.84 -0.232199 2.70505 0
M  V30 14729 C 1380.29 2.35514 2.72142 0
M  V30 14730 C 1379.9 3.81831 2.34326 0
M  V30 14731 C 1381.64 2.40171 3.50026 0
M  V30 14732 C 1379.55 4.74915 3.52434 0
M  V30 14733 H 1378.48 0.498519 0.565681 0
M  V30 14734 H 1381.13 1.64064 0.821913 0
M  V30 14735 H 1379.51 1.98607 3.42595 0
M  V30 14736 H 1380.69 4.27685 1.7153 0
M  V30 14737 H 1379 3.80308 1.69573 0
M  V30 14738 H 1381.6 3.06913 4.37845 0
M  V30 14739 H 1381.94 1.42111 3.91293 0
M  V30 14740 H 1382.48 2.75884 2.86588 0
M  V30 14741 H 1379.21 5.74176 3.16232 0
M  V30 14742 H 1378.73 4.33753 4.14268 0
M  V30 14743 H 1380.41 4.93003 4.18995 0
M  V30 14744 N 1380.55 -0.980364 1.23396 0
M  V30 14745 C 1381.79 -1.72166 1.06607 0
M  V30 14746 C 1382.12 -1.90405 -0.397029 0
M  V30 14747 O 1381.38 -1.45363 -1.31027 0
M  V30 14748 C 1381.67 -3.12367 1.73671 0
M  V30 14749 C 1381.34 -3.14007 3.2359 0
M  V30 14750 C 1380 -3.14162 3.64494 0
M  V30 14751 C 1382.35 -3.09319 4.19489 0
M  V30 14752 C 1379.68 -3.07345 4.99756 0
M  V30 14753 C 1382.03 -3.04044 5.54743 0
M  V30 14754 C 1380.7 -3.02521 5.9501 0
M  V30 14755 H 1379.97 -0.63 0.390104 0
M  V30 14756 H 1382.62 -1.14727 1.5333 0
M  V30 14757 H 1380.92 -3.73193 1.19308 0
M  V30 14758 H 1382.62 -3.68493 1.58159 0
M  V30 14759 H 1379.21 -3.14644 2.91028 0
M  V30 14760 H 1383.39 -3.08339 3.88897 0
M  V30 14761 H 1378.65 -3.04519 5.30168 0
M  V30 14762 H 1382.82 -2.99374 6.28767 0
M  V30 14763 H 1380.45 -2.96994 6.99785 0
M  V30 14764 N 1382.02 -1.04567 -1.17913 0
M  V30 14765 C 1383.25 -0.772146 -1.92491 0
M  V30 14766 C 1383.67 0.665297 -1.75942 0
M  V30 14767 O 1383.03 1.46144 -1.07292 0
M  V30 14768 C 1383.08 -1.14966 -3.41782 0
M  V30 14769 O 1382.18 -0.278091 -4.11461 0
M  V30 14770 H 1381.52 -0.283715 -0.600335 0
M  V30 14771 H 1384.05 -1.39685 -1.49496 0
M  V30 14772 H 1384.06 -1.11374 -3.92505 0
M  V30 14773 H 1382.74 -2.1968 -3.53148 0
M  V30 14774 H 1381.32 -0.374073 -3.71019 0
M  V30 14775 N 1383.5 1.34231 -0.825823 0
M  V30 14776 C 1384.41 2.33245 -0.251803 0
M  V30 14777 C 1385.43 1.62756 0.615334 0
M  V30 14778 O 1386.6 1.94503 0.522547 0
M  V30 14779 C 1383.67 3.41908 0.574456 0
M  V30 14780 C 1382.73 4.2814 -0.315422 0
M  V30 14781 C 1381.96 5.31613 0.471496 0
M  V30 14782 O 1382.19 5.44337 1.70449 0
M  V30 14783 O 1381.12 6.01719 -0.147691 0
M  V30 14784 H 1384.95 2.84174 -1.07139 0
M  V30 14785 H 1382.53 1.37341 -0.588032 0
M  V30 14786 H 1384.41 4.08252 1.04444 0
M  V30 14787 H 1383.09 2.93217 1.37132 0
M  V30 14788 H 1381.99 3.64709 -0.832963 0
M  V30 14789 H 1383.33 4.80279 -1.07672 0
M  V30 14790 N 1384.98 0.581051 1.46498 0
M  V30 14791 C 1385.93 -0.165944 2.32007 0
M  V30 14792 C 1386.92 -0.886015 1.44382 0
M  V30 14793 O 1388.13 -0.804592 1.61017 0
M  V30 14794 H 1384.5 -0.0723834 0.748508 0
M  V30 14795 H 1386.47 0.574089 2.92826 0
M  V30 14796 C 1385.22 -1.16741 3.27516 0
M  V30 14797 H 1384.55 -0.622756 3.9492 0
M  V30 14798 H 1385.99 -1.66052 3.90132 0
M  V30 14799 C 1384.44 -2.22755 2.52749 0
M  V30 14800 O 1384.97 -3.30081 2.28932 0
M  V30 14801 N 1383.18 -1.97318 2.1334 0
M  V30 14802 H 1382.73 -1.10049 2.3291 0
M  V30 14803 H 1382.69 -2.68461 1.63633 0
M  V30 14804 N 1386.46 -1.54343 0.318742 0
M  V30 14805 C 1387.37 -2.27856 -0.558442 0
M  V30 14806 C 1388.38 -1.32029 -1.13333 0
M  V30 14807 O 1389.56 -1.65037 -1.15433 0
M  V30 14808 C 1386.62 -3.01842 -1.70565 0
M  V30 14809 C 1385.69 -4.13245 -1.16305 0
M  V30 14810 C 1384.92 -4.83693 -2.25559 0
M  V30 14811 O 1385.14 -4.53621 -3.4581 0
M  V30 14812 O 1384.08 -5.70708 -1.91249 0
M  V30 14813 H 1387.9 -3.03676 0.0384247 0
M  V30 14814 H 1385.49 -1.4916 0.0845936 0
M  V30 14815 H 1387.37 -3.48189 -2.37365 0
M  V30 14816 H 1386.04 -2.28902 -2.28879 0
M  V30 14817 H 1384.95 -3.71258 -0.460274 0
M  V30 14818 H 1386.28 -4.88214 -0.625111 0
M  V30 14819 N 1387.94 -0.0468143 -1.5753 0
M  V30 14820 C 1389.35 0.309707 -1.56566 0
M  V30 14821 C 1389.55 1.7173 -1.05408 0
M  V30 14822 O 1388.61 2.4235 -0.708723 0
M  V30 14823 C 1389.92 0.142151 -3.00364 0
M  V30 14824 C 1391.47 0.213585 -3.1227 0
M  V30 14825 C 1391.94 0.0746102 -4.57939 0
M  V30 14826 N 1393.43 0.131027 -4.63015 0
M  V30 14827 C 1394.17 0.0475409 -5.7338 0
M  V30 14828 N 1393.67 -0.0880445 -6.92744 0
M  V30 14829 N 1395.46 0.102809 -5.62006 0
M  V30 14830 H 1387.61 -0.967057 -1.89108 0
M  V30 14831 H 1389.87 -0.375018 -0.870669 0
M  V30 14832 H 1389.58 -0.828171 -3.4181 0
M  V30 14833 H 1389.45 0.905006 -3.66182 0
M  V30 14834 H 1391.84 1.17438 -2.70726 0
M  V30 14835 H 1391.92 -0.57995 -2.49139 0
M  V30 14836 H 1391.56 -0.882839 -5.00168 0
M  V30 14837 H 1391.49 0.887235 -5.19072 0
M  V30 14838 H 1393.99 0.235246 -3.77167 0
M  V30 14839 H 1394.3 -0.144574 -7.72665 0
M  V30 14840 H 1392.64 -0.12307 -6.94891 0
M  V30 14841 H 1395.83 0.207259 -4.67641 0
M  V30 14842 H 1396.01 0.0342865 -6.47991 0
M  V30 14843 N 1389.41 1.55964 0.226527 0
M  V30 14844 C 1390.66 1.78745 0.95165 0
M  V30 14845 C 1390.99 0.614714 1.84531 0
M  V30 14846 O 1390.24 -0.401137 1.91545 0
M  V30 14847 C 1390.54 3.07235 1.82597 0
M  V30 14848 C 1390.21 4.37627 1.08596 0
M  V30 14849 C 1388.87 4.73057 0.881531 0
M  V30 14850 C 1391.22 5.1815 0.563019 0
M  V30 14851 C 1388.55 5.86528 0.142172 0
M  V30 14852 C 1390.9 6.3239 -0.162972 0
M  V30 14853 C 1389.57 6.66425 -0.378704 0
M  V30 14854 H 1388.84 0.654075 0.348233 0
M  V30 14855 H 1391.48 1.9023 0.220187 0
M  V30 14856 H 1389.79 2.9085 2.62514 0
M  V30 14857 H 1391.49 3.22063 2.38907 0
M  V30 14858 H 1388.08 4.09806 1.25527 0
M  V30 14859 H 1392.26 4.91218 0.708446 0
M  V30 14860 H 1387.52 6.1139 -0.0352481 0
M  V30 14861 H 1391.69 6.94016 -0.575719 0
M  V30 14862 H 1389.32 7.54196 -0.953549 0
M  V30 14863 N 1390.89 -0.493031 1.4969 0
M  V30 14864 C 1391.84 -1.61449 1.67442 0
M  V30 14865 C 1392.83 -1.60553 0.540296 0
M  V30 14866 O 1394.04 -1.64965 0.720167 0
M  V30 14867 H 1390.42 -0.535337 0.528127 0
M  V30 14868 H 1392.39 -1.43631 2.61558 0
M  V30 14869 C 1391.14 -2.99537 1.76559 0
M  V30 14870 H 1390.46 -3.00936 2.63206 0
M  V30 14871 H 1391.9 -3.77521 1.93013 0
M  V30 14872 C 1390.36 -3.32984 0.512176 0
M  V30 14873 O 1390.89 -4.00096 -0.35857 0
M  V30 14874 N 1389.09 -2.882 0.372734 0
M  V30 14875 H 1388.64 -2.3376 1.08232 0
M  V30 14876 H 1388.6 -3.10945 -0.464804 0
M  V30 14877 N 1392.37 -1.38898 -0.744656 0
M  V30 14878 C 1393.61 -1.37019 -1.51675 0
M  V30 14879 C 1393.97 0.0371033 -1.91964 0
M  V30 14880 O 1395.18 0.180835 -2.68191 0
M  V30 14881 C 1393.45 -2.30701 -2.72969 0
M  V30 14882 S 1395.01 -2.46922 -3.62733 0
M  V30 14883 H 1391.82 -0.486035 -0.518933 0
M  V30 14884 H 1394.43 -1.74906 -0.873384 0
M  V30 14885 H 1393.13 -3.31827 -2.41494 0
M  V30 14886 H 1392.66 -1.93994 -3.42242 0
M  V30 14887 H 1394.68 -1.69994 -4.66172 0
M  V30 14888 N 1393.85 0.973806 -1.23914 0
M  V30 14889 C 1395.08 1.74853 -1.10046 0
M  V30 14890 C 1395.49 1.85927 0.350388 0
M  V30 14891 O 1394.83 1.34252 1.25388 0
M  V30 14892 C 1394.89 3.18919 -1.65924 0
M  V30 14893 C 1394.56 3.31335 -3.14748 0
M  V30 14894 C 1395.55 3.17141 -4.11968 0
M  V30 14895 C 1393.24 3.55772 -3.54587 0
M  V30 14896 C 1395.23 3.27199 -5.47009 0
M  V30 14897 C 1392.92 3.65468 -4.89771 0
M  V30 14898 C 1393.92 3.51193 -5.85792 0
M  V30 14899 O 1393.6 3.60534 -7.18519 0
M  V30 14900 H 1393.34 0.555345 -0.385445 0
M  V30 14901 H 1395.89 1.23168 -1.64374 0
M  V30 14902 H 1394.12 3.71882 -1.06023 0
M  V30 14903 H 1395.81 3.78177 -1.47434 0
M  V30 14904 H 1396.58 2.98153 -3.82531 0
M  V30 14905 H 1392.45 3.65951 -2.80358 0
M  V30 14906 H 1396 3.15974 -6.21937 0
M  V30 14907 H 1391.9 3.83969 -5.18882 0
M  V30 14908 H 1392.66 3.77288 -7.26358 0
M  V30 14909 N 1395.33 1.05191 1.17357 0
M  V30 14910 C 1396.74 0.788105 1.69251 0
M  V30 14911 C 1397.09 -0.689717 1.83677 0
M  V30 14912 O 1396.21 -1.53601 1.52433 0
M  V30 14913 C 1396.81 1.42401 3.07421 0
M  V30 14914 C 1395.37 1.20825 3.5648 0
M  V30 14915 C 1394.51 1.50756 2.3274 0
M  V30 14916 H 1397.47 1.21686 1.01874 0
M  V30 14917 H 1397.49 0.833285 3.71264 0
M  V30 14918 H 1397 2.49958 2.96889 0
M  V30 14919 H 1395.1 0.15193 3.7229 0
M  V30 14920 H 1395.21 1.91319 4.39242 0
M  V30 14921 H 1393.58 0.927649 2.37206 0
M  V30 14922 H 1394.36 2.59446 2.24817 0
M  V30 14923 N 1396.8 -1.33791 0.83293 0
M  V30 14924 C 1398.08 -1.9248 0.347955 0
M  V30 14925 C 1398.46 -1.75978 -1.16597 0
M  V30 14926 O 1397.81 -1.14456 -1.97768 0
M  V30 14927 C 1398.02 -3.3998 0.78831 0
M  V30 14928 C 1399.37 -4.17131 0.7929 0
M  V30 14929 O 1400.39 -3.48607 0.731533 0
M  V30 14930 O 1399.25 -5.39446 0.875223 0
M  V30 14931 H 1396.34 -0.821264 0.0972309 0
M  V30 14932 H 1398.89 -1.42702 0.918387 0
M  V30 14933 H 1397.66 -3.45836 1.83065 0
M  V30 14934 H 1397.29 -3.97126 0.194123 0
M  V30 14935 N 1398.28 -0.588812 -1.46187 0
M  V30 14936 C 1399.25 0.130803 -2.28826 0
M  V30 14937 C 1400.25 0.813037 -1.38731 0
M  V30 14938 O 1401.44 0.664061 -1.61046 0
M  V30 14939 C 1398.57 1.19484 -3.19275 0
M  V30 14940 H 1399.76 -0.595514 -2.93928 0
M  V30 14941 H 1397.31 -0.347038 -1.52399 0
M  V30 14942 H 1398.05 1.95254 -2.58933 0
M  V30 14943 H 1397.83 0.710077 -3.85617 0
M  V30 14944 H 1399.32 1.69938 -3.81459 0
M  V30 14945 N 1399.76 1.54172 -0.326923 0
M  V30 14946 C 1401.04 1.92812 0.329078 0
M  V30 14947 C 1401.42 1.25687 1.69605 0
M  V30 14948 O 1400.77 0.401779 2.2494 0
M  V30 14949 C 1400.98 3.46488 0.417949 0
M  V30 14950 C 1402.32 4.19174 0.67665 0
M  V30 14951 O 1403.35 3.52663 0.500735 0
M  V30 14952 O 1402.21 5.36968 1.01625 0
M  V30 14953 H 1399.3 0.805214 0.188573 0
M  V30 14954 H 1401.85 1.65462 -0.376884 0
M  V30 14955 H 1400.62 3.87528 -0.541986 0
M  V30 14956 H 1400.24 3.79954 1.17136 0
M  V30 14957 N 1401.24 0.0551678 1.57503 0
M  V30 14958 C 1402.17 -0.915714 2.14795 0
M  V30 14959 C 1403.15 -1.32179 1.07065 0
M  V30 14960 O 1404.33 -1.39579 1.35023 0
M  V30 14961 C 1401.46 -2.18916 2.69616 0
M  V30 14962 C 1400.42 -1.92303 3.82366 0
M  V30 14963 C 1399.74 -3.26136 4.23721 0
M  V30 14964 C 1401.04 -1.24146 5.07331 0
M  V30 14965 H 1402.74 -0.438499 2.96171 0
M  V30 14966 H 1400.28 -0.209477 1.42468 0
M  V30 14967 H 1402.24 -2.87239 3.08337 0
M  V30 14968 H 1400.96 -2.6885 1.85437 0
M  V30 14969 H 1399.62 -1.26391 3.44123 0
M  V30 14970 H 1399.27 -3.73879 3.36487 0
M  V30 14971 H 1398.97 -3.09126 4.99715 0
M  V30 14972 H 1400.49 -3.95684 4.65045 0
M  V30 14973 H 1401.91 -1.8251 5.43473 0
M  V30 14974 H 1400.3 -1.17449 5.88494 0
M  V30 14975 H 1401.37 -0.218073 4.84409 0
M  V30 14976 N 1402.72 -1.56081 -0.218252 0
M  V30 14977 C 1403.68 -1.91851 -1.25402 0
M  V30 14978 C 1404.68 -0.797399 -1.39636 0
M  V30 14979 O 1405.87 -1.06511 -1.37844 0
M  V30 14980 C 1403 -2.17223 -2.6273 0
M  V30 14981 H 1404.19 -2.84493 -0.948882 0
M  V30 14982 H 1401.75 -1.49414 -0.458809 0
M  V30 14983 H 1402.48 -1.27144 -2.98337 0
M  V30 14984 H 1402.27 -2.98899 -2.53775 0
M  V30 14985 H 1403.76 -2.45981 -3.37466 0
M  V30 14986 N 1404.2 0.485086 -1.49949 0
M  V30 14987 C 1405.42 1.26179 -1.63971 0
M  V30 14988 C 1405.84 1.86113 -0.317408 0
M  V30 14989 O 1405.2 1.68581 0.699038 0
M  V30 14990 C 1405.25 2.38062 -2.72046 0
M  V30 14991 O 1404.97 1.80588 -3.99149 0
M  V30 14992 C 1406.47 3.29174 -2.96916 0
M  V30 14993 H 1403.69 0.382122 -0.551565 0
M  V30 14994 H 1406.23 0.580607 -1.96085 0
M  V30 14995 H 1404.39 3.0198 -2.42666 0
M  V30 14996 H 1404.8 2.54159 -4.58807 0
M  V30 14997 H 1406.28 4.03922 -3.76233 0
M  V30 14998 H 1406.75 3.87123 -2.07443 0
M  V30 14999 H 1407.36 2.71006 -3.27774 0
M  V30 15000 N 1405.67 1.39291 0.737279 0
M  V30 15001 C 1406.58 1.40098 1.88175 0
M  V30 15002 C 1407.6 0.296053 1.71463 0
M  V30 15003 O 1408.78 0.537153 1.94105 0
M  V30 15004 C 1405.84 1.24071 3.2374 0
M  V30 15005 C 1404.9 2.44515 3.52861 0
M  V30 15006 C 1404.13 2.29243 4.81958 0
M  V30 15007 O 1404.36 1.2947 5.55512 0
M  V30 15008 O 1403.29 3.18178 5.10927 0
M  V30 15009 H 1407.12 2.36565 1.90449 0
M  V30 15010 H 1404.7 1.20382 0.884786 0
M  V30 15011 H 1406.58 1.17257 4.04758 0
M  V30 15012 H 1405.26 0.30698 3.22241 0
M  V30 15013 H 1404.17 2.56905 2.71939 0
M  V30 15014 H 1405.5 3.36573 3.59137 0
M  V30 15015 N 1407.15 -0.967221 1.24429 0
M  V30 15016 C 1408.08 -2.06479 0.994946 0
M  V30 15017 C 1409.1 -1.62761 -0.0357582 0
M  V30 15018 O 1410.29 -1.77361 0.201336 0
M  V30 15019 C 1407.39 -3.35487 0.479736 0
M  V30 15020 C 1406.56 -4.0811 1.57368 0
M  V30 15021 C 1405.62 -5.15392 1.06104 0
M  V30 15022 O 1404.64 -5.41539 1.75283 0
M  V30 15023 N 1405.85 -5.80406 -0.104288 0
M  V30 15024 H 1408.61 -2.28443 1.93995 0
M  V30 15025 H 1406.17 -1.13488 1.15465 0
M  V30 15026 H 1408.16 -4.04517 0.121528 0
M  V30 15027 H 1406.73 -3.1039 -0.371012 0
M  V30 15028 H 1405.95 -3.33351 2.10406 0
M  V30 15029 H 1407.24 -4.53391 2.30897 0
M  V30 15030 H 1406.64 -5.61566 -0.682638 0
M  V30 15031 H 1405.2 -6.50549 -0.403638 0
M  V30 15032 N 1408.63 -1.05812 -1.16797 0
M  V30 15033 C 1409.58 -0.664599 -2.21024 0
M  V30 15034 C 1410.55 0.336352 -1.62659 0
M  V30 15035 O 1411.73 0.226346 -1.89453 0
M  V30 15036 C 1408.87 -0.0520739 -3.45061 0
M  V30 15037 C 1407.98 -1.10261 -4.17692 0
M  V30 15038 C 1407.12 -0.456746 -5.29233 0
M  V30 15039 C 1406.16 -1.49116 -5.93659 0
M  V30 15040 N 1405.3 -0.869002 -6.96701 0
M  V30 15041 H 1410.14 -1.55784 -2.54038 0
M  V30 15042 H 1407.67 -0.778993 -1.2478 0
M  V30 15043 H 1409.63 0.320552 -4.15967 0
M  V30 15044 H 1408.26 0.804592 -3.12612 0
M  V30 15045 H 1407.31 -1.593 -3.45438 0
M  V30 15046 H 1408.62 -1.88757 -4.61706 0
M  V30 15047 H 1407.78 -0.0308814 -6.06692 0
M  V30 15048 H 1406.52 0.360131 -4.86369 0
M  V30 15049 H 1405.52 -1.92697 -5.14925 0
M  V30 15050 H 1406.75 -2.31005 -6.38603 0
M  V30 15051 H 1404.69 -0.0727494 -6.5596 0
M  V30 15052 H 1404.61 -1.59141 -7.3906 0
M  V30 15053 H 1405.88 -0.46812 -7.78093 0
M  V30 15054 N 1410.11 1.33347 -0.840014 0
M  V30 15055 C 1411.35 1.99556 -0.442363 0
M  V30 15056 C 1411.71 1.65088 0.980304 0
M  V30 15057 O 1412.91 2.24272 1.48174 0
M  V30 15058 C 1411.18 3.51292 -0.657939 0
M  V30 15059 S 1412.74 4.37356 -0.35568 0
M  V30 15060 H 1409.56 0.691267 -0.166344 0
M  V30 15061 H 1412.16 1.62324 -1.08955 0
M  V30 15062 H 1410.87 3.73866 -1.69271 0
M  V30 15063 H 1410.4 3.934 0.00335805 0
M  V30 15064 H 1412.41 4.89309 0.824091 0
M  V30 15065 N 1411.59 0.596556 1.45873 0
M  V30 15066 C 1412.81 0.0934926 2.06689 0
M  V30 15067 C 1413.23 -1.21743 1.44305 0
M  V30 15068 O 1412.59 -1.73912 0.553253 0
M  V30 15069 C 1412.64 -0.0643337 3.61443 0
M  V30 15070 O 1412.36 1.19472 4.21495 0
M  V30 15071 C 1413.86 -0.600141 4.39219 0
M  V30 15072 H 1411.08 0.0637846 0.667961 0
M  V30 15073 H 1413.62 0.821159 1.87289 0
M  V30 15074 H 1411.78 -0.742278 3.80222 0
M  V30 15075 H 1412.19 1.01735 5.14539 0
M  V30 15076 H 1413.67 -0.6597 5.48044 0
M  V30 15077 H 1414.14 -1.62009 4.08227 0
M  V30 15078 H 1414.75 0.0433915 4.25278 0
M  V30 15079 N 1413.06 -1.53996 0.335095 0
M  V30 15080 C 1414 -2.22258 -0.559809 0
M  V30 15081 C 1415.01 -1.22636 -1.07071 0
M  V30 15082 O 1416.2 -1.4904 -0.982312 0
M  V30 15083 C 1413.3 -2.88256 -1.78218 0
M  V30 15084 C 1412.47 -4.14118 -1.40801 0
M  V30 15085 C 1411.53 -4.63603 -2.48915 0
M  V30 15086 O 1410.56 -5.28015 -2.12576 0
M  V30 15087 N 1411.76 -4.3881 -3.80034 0
M  V30 15088 H 1414.52 -2.9969 0.0247521 0
M  V30 15089 H 1412.08 -1.61119 0.158826 0
M  V30 15090 H 1414.08 -3.1828 -2.4996 0
M  V30 15091 H 1412.65 -2.14461 -2.27431 0
M  V30 15092 H 1411.87 -3.90732 -0.521729 0
M  V30 15093 H 1413.15 -4.96005 -1.13388 0
M  V30 15094 H 1412.55 -3.87278 -4.12349 0
M  V30 15095 H 1411.11 -4.73461 -4.47971 0
M  V30 15096 N 1414.54 -0.0635198 -1.57472 0
M  V30 15097 C 1415.96 0.293084 -1.56886 0
M  V30 15098 C 1416.16 1.70603 -1.07224 0
M  V30 15099 O 1415.21 2.41584 -0.734388 0
M  V30 15100 C 1416.53 0.110286 -3.00498 0
M  V30 15101 C 1418.07 0.180453 -3.12479 0
M  V30 15102 C 1418.55 0.0260354 -4.57993 0
M  V30 15103 N 1420.04 0.0819109 -4.63128 0
M  V30 15104 C 1420.78 -0.0132764 -5.73398 0
M  V30 15105 N 1420.27 -0.161514 -6.92612 0
M  V30 15106 N 1422.06 0.0431948 -5.62083 0
M  V30 15107 H 1414.22 -0.98706 -1.88072 0
M  V30 15108 H 1416.48 -0.384232 -0.866643 0
M  V30 15109 H 1416.18 -0.864378 -3.40913 0
M  V30 15110 H 1416.06 0.866117 -3.67122 0
M  V30 15111 H 1418.45 1.1456 -2.71956 0
M  V30 15112 H 1418.53 -0.606342 -2.4851 0
M  V30 15113 H 1418.17 -0.935839 -4.99204 0
M  V30 15114 H 1418.1 0.832131 -5.19984 0
M  V30 15115 H 1420.59 0.195229 -3.77395 0
M  V30 15116 H 1420.9 -0.226517 -7.72468 0
M  V30 15117 H 1419.25 -0.196766 -6.94721 0
M  V30 15118 H 1422.44 0.157648 -4.67834 0
M  V30 15119 H 1422.61 -0.0344435 -6.47991 0
M  V30 15120 N 1416.02 1.56195 0.209972 0
M  V30 15121 C 1417.27 1.7939 0.930796 0
M  V30 15122 C 1417.59 0.634038 1.84404 0
M  V30 15123 O 1416.86 -0.348467 1.92776 0
M  V30 15124 H 1415.44 0.661676 0.346689 0
M  V30 15125 H 1418.1 1.93665 0.219049 0
M  V30 15126 H 1417.2 2.71982 1.53075 0
M  V30 15127 N 1417.5 -0.477127 1.50204 0
M  V30 15128 C 1418.74 -1.23956 1.62525 0
M  V30 15129 C 1419.1 -1.89385 0.315789 0
M  V30 15130 O 1420.3 -2.66955 0.314378 0
M  V30 15131 C 1418.57 -2.25999 2.76874 0
M  V30 15132 S 1420.13 -3.11262 3.09292 0
M  V30 15133 H 1416.95 -0.420931 0.573008 0
M  V30 15134 H 1419.55 -0.537592 1.87963 0
M  V30 15135 H 1418.26 -1.76501 3.70507 0
M  V30 15136 H 1417.79 -3.00832 2.53503 0
M  V30 15137 H 1419.8 -4.27061 2.52652 0
M  V30 15138 N 1418.98 -1.3968 -0.729882 0
M  V30 15139 C 1420.22 -1.37385 -1.49175 0
M  V30 15140 C 1420.56 0.0285839 -1.94179 0
M  V30 15141 O 1419.83 0.994516 -1.67152 0
M  V30 15142 C 1420.11 -2.35075 -2.72785 0
M  V30 15143 C 1419.97 -3.84282 -2.33767 0
M  V30 15144 C 1421.29 -2.30515 -3.74901 0
M  V30 15145 H 1418.4 -0.500359 -0.541119 0
M  V30 15146 H 1421.05 -1.7071 -0.834152 0
M  V30 15147 H 1419.2 -2.06787 -3.28894 0
M  V30 15148 H 1420.87 -4.2334 -1.8325 0
M  V30 15149 H 1419.11 -4.00809 -1.65935 0
M  V30 15150 H 1419.78 -4.48131 -3.22309 0
M  V30 15151 H 1422.26 -2.55539 -3.28389 0
M  V30 15152 H 1421.13 -3.00939 -4.5905 0
M  V30 15153 H 1421.4 -1.3119 -4.22187 0
M  V30 15154 N 1420.45 0.960609 -1.2494 0
M  V30 15155 C 1421.7 1.70765 -1.10503 0
M  V30 15156 C 1422.06 1.89164 0.351384 0
M  V30 15157 O 1421.35 1.44718 1.25568 0
M  V30 15158 C 1421.54 3.09564 -1.78619 0
M  V30 15159 C 1421.37 3.04705 -3.30734 0
M  V30 15160 C 1420.14 3.08793 -3.99969 0
M  V30 15161 C 1422.34 2.86333 -4.27221 0
M  V30 15162 N 1420.32 2.94028 -5.38907 0
M  V30 15163 C 1421.69 2.79938 -5.53204 0
M  V30 15164 C 1423.75 2.70967 -4.17709 0
M  V30 15165 C 1422.45 2.59747 -6.70764 0
M  V30 15166 C 1424.48 2.52146 -5.34954 0
M  V30 15167 C 1423.84 2.46466 -6.59874 0
M  V30 15168 H 1419.94 0.633102 -0.459027 0
M  V30 15169 H 1422.52 1.13833 -1.57956 0
M  V30 15170 H 1420.69 3.64674 -1.33669 0
M  V30 15171 H 1422.42 3.73015 -1.56978 0
M  V30 15172 H 1419.18 3.17751 -3.51185 0
M  V30 15173 H 1419.6 2.89867 -6.11806 0
M  V30 15174 H 1424.25 2.74137 -3.21883 0
M  V30 15175 H 1421.96 2.5532 -7.66705 0
M  V30 15176 H 1425.55 2.41191 -5.29451 0
M  V30 15177 H 1424.43 2.32091 -7.49068 0
M  V30 15178 N 1421.93 1.0643 1.16234 0
M  V30 15179 C 1423.35 0.78802 1.38789 0
M  V30 15180 C 1423.55 -0.612019 1.91981 0
M  V30 15181 O 1422.6 -1.37235 2.1195 0
M  V30 15182 C 1423.92 1.85406 2.36738 0
M  V30 15183 C 1425.47 1.87773 2.5042 0
M  V30 15184 C 1425.94 2.93435 3.51653 0
M  V30 15185 N 1427.43 2.92477 3.59181 0
M  V30 15186 C 1428.17 3.7088 4.37305 0
M  V30 15187 N 1427.66 4.59106 5.18839 0
M  V30 15188 N 1429.46 3.59267 4.32301 0
M  V30 15189 H 1421.61 1.9674 0.800449 0
M  V30 15190 H 1423.87 0.852631 0.414397 0
M  V30 15191 H 1423.58 2.85954 2.04751 0
M  V30 15192 H 1423.45 1.70625 3.36403 0
M  V30 15193 H 1425.84 0.878825 2.8171 0
M  V30 15194 H 1425.92 2.06633 1.50787 0
M  V30 15195 H 1425.56 3.93519 3.211 0
M  V30 15196 H 1425.49 2.71824 4.5102 0
M  V30 15197 H 1427.98 2.28517 3.00979 0
M  V30 15198 H 1428.3 5.15583 5.75668 0
M  V30 15199 H 1426.64 4.6316 5.18177 0
M  V30 15200 H 1429.83 2.89726 3.67663 0
M  V30 15201 H 1430 4.20613 4.92939 0
M  V30 15202 N 1423.41 -1.329 0.847073 0
M  V30 15203 C 1424.64 -2.0171 0.460497 0
M  V30 15204 C 1425.05 -1.63699 -0.940649 0
M  V30 15205 O 1424.41 -0.854454 -1.61262 0
M  V30 15206 C 1424.46 -3.56799 0.581108 0
M  V30 15207 O 1424.18 -3.93442 1.92705 0
M  V30 15208 C 1425.68 -4.42882 0.192552 0
M  V30 15209 H 1422.9 -0.645887 0.181853 0
M  V30 15210 H 1425.45 -1.69648 1.14192 0
M  V30 15211 H 1423.6 -3.87364 -0.0524924 0
M  V30 15212 H 1424.02 -4.88157 1.91841 0
M  V30 15213 H 1425.49 -5.51025 0.327969 0
M  V30 15214 H 1425.97 -4.30571 -0.866315 0
M  V30 15215 H 1426.57 -4.17691 0.800918 0
M  V30 15216 N 1424.89 -0.604284 -1.45555 0
M  V30 15217 C 1426.14 -0.0979922 -2.01862 0
M  V30 15218 C 1426.46 1.27476 -1.47563 0
M  V30 15219 O 1425.73 1.84137 -0.668612 0
M  V30 15220 H 1424.31 -0.033235 -0.74626 0
M  V30 15221 H 1426.97 -0.784936 -1.78395 0
M  V30 15222 H 1426.07 -0.0452716 -3.12067 0
M  V30 15223 N 1426.37 1.53816 -0.343257 0
M  V30 15224 C 1427.59 2.05796 0.257418 0
M  V30 15225 C 1428.02 1.2166 1.43459 0
M  V30 15226 O 1427.37 0.230278 1.79832 0
M  V30 15227 C 1427.42 3.54681 0.65068 0
M  V30 15228 O 1426.53 3.73394 1.75074 0
M  V30 15229 H 1425.87 0.662622 0.042757 0
M  V30 15230 H 1428.4 1.98462 -0.497386 0
M  V30 15231 H 1428.41 3.97308 0.927914 0
M  V30 15232 H 1427.08 4.15368 -0.210199 0
M  V30 15233 H 1425.66 3.42669 1.4708 0
M  V30 15234 N 1427.84 0.0718701 1.57436 0
M  V30 15235 C 1429.07 -0.609701 1.98236 0
M  V30 15236 C 1429.49 -1.6235 0.949959 0
M  V30 15237 O 1428.85 -1.81103 -0.0844281 0
M  V30 15238 C 1428.9 -1.2547 3.38068 0
M  V30 15239 O 1428 -2.37055 3.37459 0
M  V30 15240 H 1427.35 -0.15679 0.645223 0
M  V30 15241 H 1429.88 0.146407 2.04076 0
M  V30 15242 H 1429.89 -1.60152 3.75254 0
M  V30 15243 H 1428.56 -0.511842 4.12738 0
M  V30 15244 H 1427.14 -2.04165 3.12043 0
M  V30 15245 N 1429.32 -1.56304 -0.201686 0
M  V30 15246 C 1430.25 -1.97046 -1.25281 0
M  V30 15247 C 1431.23 -0.841458 -1.47829 0
M  V30 15248 O 1432.42 -1.10529 -1.59678 0
M  V30 15249 C 1429.55 -2.30429 -2.59845 0
M  V30 15250 C 1428.5 -3.46006 -2.5192 0
M  V30 15251 C 1427.83 -3.65047 -3.90697 0
M  V30 15252 C 1429.13 -4.80391 -2.04992 0
M  V30 15253 H 1430.82 -2.85099 -0.914272 0
M  V30 15254 H 1428.37 -1.37166 -0.438359 0
M  V30 15255 H 1430.32 -2.57525 -3.33555 0
M  V30 15256 H 1429.05 -1.39251 -2.95426 0
M  V30 15257 H 1427.7 -3.18991 -1.80667 0
M  V30 15258 H 1427.35 -2.71211 -4.2362 0
M  V30 15259 H 1427.05 -4.42796 -3.86271 0
M  V30 15260 H 1428.58 -3.94512 -4.66039 0
M  V30 15261 H 1429.99 -5.06561 -2.68456 0
M  V30 15262 H 1428.39 -5.61563 -2.11582 0
M  V30 15263 H 1429.46 -4.74416 -1.00288 0
M  V30 15264 N 1430.8 0.469154 -1.50455 0
M  V30 15265 C 1432.03 1.24899 -1.65575 0
M  V30 15266 C 1432.45 1.85009 -0.339581 0
M  V30 15267 O 1431.81 1.67376 0.696774 0
M  V30 15268 C 1431.86 2.33205 -2.75041 0
M  V30 15269 O 1430.96 3.37898 -2.36429 0
M  V30 15270 H 1430.3 0.367362 -0.553119 0
M  V30 15271 H 1432.83 0.558083 -1.96842 0
M  V30 15272 H 1432.84 2.78487 -2.98176 0
M  V30 15273 H 1431.52 1.88826 -3.70564 0
M  V30 15274 H 1430.09 2.98314 -2.23748 0
M  V30 15275 N 1432.28 1.40065 0.722464 0
M  V30 15276 C 1433.23 1.39784 1.83655 0
M  V30 15277 C 1434.2 0.255743 1.64119 0
M  V30 15278 O 1435.38 0.452766 1.8535 0
M  V30 15279 C 1432.52 1.25946 3.21297 0
M  V30 15280 C 1431.63 2.49805 3.52451 0
M  V30 15281 C 1430.77 2.2846 4.79562 0
M  V30 15282 C 1429.81 3.4793 5.03598 0
M  V30 15283 N 1428.94 3.25823 6.21919 0
M  V30 15284 H 1433.78 2.35013 1.83229 0
M  V30 15285 H 1431.32 1.16728 0.895154 0
M  V30 15286 H 1433.28 1.15931 4.00769 0
M  V30 15287 H 1431.91 0.343402 3.20968 0
M  V30 15288 H 1430.96 2.70375 2.67585 0
M  V30 15289 H 1432.27 3.38753 3.66126 0
M  V30 15290 H 1431.43 2.15758 5.67039 0
M  V30 15291 H 1430.17 1.36926 4.68084 0
M  V30 15292 H 1429.17 3.61116 4.14579 0
M  V30 15293 H 1430.4 4.40382 5.16953 0
M  V30 15294 H 1428.34 2.36965 6.11705 0
M  V30 15295 H 1428.26 4.08333 6.36239 0
M  V30 15296 H 1429.53 3.16841 7.12202 0
M  V30 15297 N 1433.76 -0.95397 1.25448 0
M  V30 15298 C 1434.72 -2.03231 1.0597 0
M  V30 15299 C 1435.72 -1.60795 0.0122855 0
M  V30 15300 O 1436.91 -1.7233 0.254533 0
M  V30 15301 C 1434.04 -3.35414 0.609105 0
M  V30 15302 H 1435.24 -2.21943 2.01696 0
M  V30 15303 H 1432.79 -1.13115 1.07864 0
M  V30 15304 H 1433.52 -3.22398 -0.350723 0
M  V30 15305 H 1433.31 -3.67564 1.36526 0
M  V30 15306 H 1434.8 -4.14664 0.49428 0
M  V30 15307 N 1435.24 -1.07045 -1.15668 0
M  V30 15308 C 1436.65 -0.814932 -1.67975 0
M  V30 15309 C 1437 0.660408 -1.84751 0
M  V30 15310 O 1436.12 1.51156 -1.54857 0
M  V30 15311 C 1436.72 -1.47274 -3.05116 0
M  V30 15312 C 1435.28 -1.26481 -3.54513 0
M  V30 15313 C 1434.42 -1.54439 -2.30312 0
M  V30 15314 H 1437.37 -1.23291 -0.999251 0
M  V30 15315 H 1437.4 -0.892244 -3.69891 0
M  V30 15316 H 1436.91 -2.54649 -2.92874 0
M  V30 15317 H 1435.01 -0.211138 -3.72001 0
M  V30 15318 H 1435.12 -1.98283 -4.36143 0
M  V30 15319 H 1433.49 -0.965269 -2.357 0
M  V30 15320 H 1434.27 -2.6299 -2.20661 0
M  V30 15321 N 1436.71 1.32449 -0.85411 0
M  V30 15322 C 1437.62 2.32658 -0.301221 0
M  V30 15323 C 1438.64 1.64025 0.580673 0
M  V30 15324 O 1439.82 1.95568 0.481172 0
M  V30 15325 C 1436.88 3.43049 0.501803 0
M  V30 15326 C 1435.94 4.27374 -0.406166 0
M  V30 15327 C 1435.17 5.32494 0.358627 0
M  V30 15328 O 1435.4 5.4783 1.58865 0
M  V30 15329 O 1434.33 6.0127 -0.275291 0
M  V30 15330 H 1438.16 2.81838 -1.13143 0
M  V30 15331 H 1435.74 1.36063 -0.617032 0
M  V30 15332 H 1437.62 4.10375 0.957608 0
M  V30 15333 H 1436.3 2.9606 1.30882 0
M  V30 15334 H 1435.21 3.6286 -0.910136 0
M  V30 15335 H 1436.54 4.77887 -1.17835 0
M  V30 15336 N 1438.19 0.611994 1.45232 0
M  V30 15337 C 1439.43 0.111974 2.04093 0
M  V30 15338 C 1439.8 -1.23571 1.4695 0
M  V30 15339 O 1441 -1.82671 1.97192 0
M  V30 15340 C 1439.27 0.0779401 3.57315 0
M  V30 15341 S 1440.83 -0.360247 4.37319 0
M  V30 15342 H 1437.64 0.0517217 0.709116 0
M  V30 15343 H 1440.25 0.811087 1.77881 0
M  V30 15344 H 1438.95 1.06223 3.96415 0
M  V30 15345 H 1438.48 -0.643028 3.88109 0
M  V30 15346 H 1440.5 -1.6088 4.69396 0
M  V30 15347 N 1439.67 -1.53632 0.351409 0
M  V30 15348 C 1440.9 -2.0516 -0.243498 0
M  V30 15349 C 1441.31 -1.22559 -1.44138 0
M  V30 15350 O 1440.65 -0.255726 -1.81911 0
M  V30 15351 C 1440.71 -3.52324 -0.71469 0
M  V30 15352 C 1440.38 -4.55543 0.364598 0
M  V30 15353 C 1441.37 -5.05626 1.20987 0
M  V30 15354 C 1439.06 -4.99593 0.520779 0
M  V30 15355 C 1441.05 -5.98347 2.1968 0
M  V30 15356 C 1438.74 -5.92123 1.51109 0
M  V30 15357 C 1439.74 -6.41389 2.34754 0
M  V30 15358 O 1439.43 -7.32097 3.32098 0
M  V30 15359 H 1439.16 -0.674193 -0.0493948 0
M  V30 15360 H 1441.71 -1.99123 0.503919 0
M  V30 15361 H 1439.94 -3.55852 -1.51348 0
M  V30 15362 H 1441.63 -3.86783 -1.23102 0
M  V30 15363 H 1442.4 -4.72353 1.10033 0
M  V30 15364 H 1438.28 -4.60843 -0.120466 0
M  V30 15365 H 1441.82 -6.36724 2.85005 0
M  V30 15366 H 1437.72 -6.24811 1.62116 0
M  V30 15367 H 1438.48 -7.50053 3.27662 0
M  V30 15368 N 1441.15 -0.0802183 -1.57396 0
M  V30 15369 C 1442.39 0.586962 -1.93807 0
M  V30 15370 C 1442.72 1.69107 -0.960887 0
M  V30 15371 O 1441.98 1.95688 0.0220779 0
M  V30 15372 C 1442.28 1.19551 -3.36812 0
M  V30 15373 C 1441.94 0.216701 -4.50379 0
M  V30 15374 C 1440.6 -0.0525552 -4.81171 0
M  V30 15375 C 1442.96 -0.452467 -5.19232 0
M  V30 15376 C 1440.28 -0.997923 -5.78151 0
M  V30 15377 C 1442.64 -1.38621 -6.17225 0
M  V30 15378 C 1441.3 -1.66385 -6.4643 0
M  V30 15379 H 1440.57 0.214785 -0.709189 0
M  V30 15380 H 1443.22 -0.152888 -1.90889 0
M  V30 15381 H 1441.52 2.01129 -3.36236 0
M  V30 15382 H 1443.22 1.71918 -3.62278 0
M  V30 15383 H 1439.81 0.436747 -4.26369 0
M  V30 15384 H 1443.99 -0.257573 -4.95631 0
M  V30 15385 H 1439.25 -1.22019 -5.991 0
M  V30 15386 H 1443.42 -1.91063 -6.69677 0
M  V30 15387 H 1441.05 -2.39799 -7.21388 0
M  V30 15388 N 1442.63 1.56409 0.193394 0
M  V30 15389 C 1444.04 1.70624 0.757915 0
M  V30 15390 C 1444.39 0.687074 1.83776 0
M  V30 15391 O 1443.51 -0.15616 2.15836 0
M  V30 15392 C 1444.11 3.09352 1.38156 0
M  V30 15393 C 1442.67 3.25326 1.89315 0
M  V30 15394 C 1441.81 2.66576 0.763727 0
M  V30 15395 H 1444.76 1.58668 -0.0317034 0
M  V30 15396 H 1444.79 3.06776 2.25098 0
M  V30 15397 H 1444.3 3.83506 0.595398 0
M  V30 15398 H 1442.4 2.5609 2.70644 0
M  V30 15399 H 1442.51 4.32848 2.05376 0
M  V30 15400 H 1440.88 2.25797 1.17846 0
M  V30 15401 H 1441.66 3.43298 -0.0102243 0
M  V30 15402 N 1444.1 -0.461169 1.50702 0
M  V30 15403 C 1445.52 -0.795741 1.38348 0
M  V30 15404 C 1445.72 -1.96473 0.447263 0
M  V30 15405 O 1444.78 -2.52276 -0.106445 0
M  V30 15406 C 1446.09 -1.09849 2.79917 0
M  V30 15407 C 1447.64 -1.20435 2.88902 0
M  V30 15408 C 1448.11 -1.54017 4.31327 0
M  V30 15409 N 1449.6 -1.60989 4.34323 0
M  V30 15410 C 1450.34 -1.88498 5.41531 0
M  V30 15411 N 1449.83 -2.13959 6.58933 0
M  V30 15412 N 1451.63 -1.90082 5.28985 0
M  V30 15413 H 1443.78 0.309076 2.10139 0
M  V30 15414 H 1446.04 0.0757918 0.944965 0
M  V30 15415 H 1445.75 -0.312479 3.50309 0
M  V30 15416 H 1445.62 -2.03221 3.17775 0
M  V30 15417 H 1448.01 -1.98102 2.18723 0
M  V30 15418 H 1448.09 -0.250195 2.54573 0
M  V30 15419 H 1447.73 -0.768865 5.02047 0
M  V30 15420 H 1447.66 -2.50599 4.6315 0
M  V30 15421 H 1450.15 -1.43312 3.49672 0
M  V30 15422 H 1450.47 -2.34251 7.36442 0
M  V30 15423 H 1448.81 -2.11331 6.62091 0
M  V30 15424 H 1452 -1.69693 4.36259 0
M  V30 15425 H 1452.18 -2.11184 6.12622 0
M  V30 15426 N 1445.58 -1.40446 -0.715026 0
M  V30 15427 C 1446.51 -1.36673 -1.83993 0
M  V30 15428 C 1447.53 -0.272038 -1.60511 0
M  V30 15429 O 1448.72 -0.532425 -1.70375 0
M  V30 15430 C 1445.82 -1.10423 -3.20406 0
M  V30 15431 C 1444.99 -2.31557 -3.71079 0
M  V30 15432 C 1444.05 -2.01459 -4.86108 0
M  V30 15433 O 1443.07 -2.7433 -4.9873 0
M  V30 15434 N 1444.28 -0.992899 -5.71946 0
M  V30 15435 H 1447.04 -2.3362 -1.87728 0
M  V30 15436 H 1444.6 -1.34807 -0.896586 0
M  V30 15437 H 1446.59 -0.88273 -3.94956 0
M  V30 15438 H 1445.16 -0.221408 -3.11815 0
M  V30 15439 H 1444.38 -2.69534 -2.87655 0
M  V30 15440 H 1445.67 -3.1231 -4.01671 0
M  V30 15441 H 1445.07 -0.389387 -5.64358 0
M  V30 15442 H 1443.63 -0.831299 -6.46477 0
M  V30 15443 N 1447.06 0.947303 -1.25952 0
M  V30 15444 C 1448.34 1.66964 -1.01894 0
M  V30 15445 C 1448.72 2.06192 0.452555 0
M  V30 15446 O 1448.06 1.78098 1.43156 0
M  V30 15447 C 1448.27 2.88643 -1.96179 0
M  V30 15448 C 1449.62 3.60432 -2.24441 0
M  V30 15449 O 1450.65 2.98737 -1.93996 0
M  V30 15450 O 1449.51 4.7154 -2.76247 0
M  V30 15451 H 1446.6 0.730875 -0.386976 0
M  V30 15452 H 1449.15 0.999577 -1.37137 0
M  V30 15453 H 1447.92 2.565 -2.95506 0
M  V30 15454 H 1447.54 3.63377 -1.61379 0
M  V30 15455 N 1448.54 1.07657 1.15099 0
M  V30 15456 C 1449.49 0.694043 2.22004 0
M  V30 15457 C 1450.48 -0.296607 1.66783 0
M  V30 15458 O 1451.69 -0.159989 1.79288 0
M  V30 15459 H 1448.06 0.206374 0.723128 0
M  V30 15460 H 1450.03 1.60523 2.51545 0
M  V30 15461 C 1448.78 0.111245 3.47522 0
M  V30 15462 H 1448.1 0.864677 3.90338 0
M  V30 15463 H 1449.54 -0.118705 4.23834 0
M  V30 15464 C 1448 -1.14889 3.16705 0
M  V30 15465 O 1448.53 -2.2349 3.33789 0
M  V30 15466 N 1446.74 -1.05627 2.70724 0
M  V30 15467 H 1446.29 -0.172463 2.57022 0
M  V30 15468 H 1446.24 -1.9002 2.50479 0
M  V30 15469 N 1450.02 -1.31994 0.861122 0
M  V30 15470 C 1451.24 -2.01745 0.481013 0
M  V30 15471 C 1451.67 -1.6426 -0.916527 0
M  V30 15472 O 1451.02 -0.846603 -1.60319 0
M  V30 15473 C 1451.07 -3.54963 0.635134 0
M  V30 15474 O 1450.18 -4.11083 -0.329337 0
M  V30 15475 H 1449.52 -0.635499 0.192452 0
M  V30 15476 H 1452.05 -1.68394 1.1621 0
M  V30 15477 H 1452.06 -4.04607 0.525089 0
M  V30 15478 H 1450.73 -3.81587 1.65422 0
M  V30 15479 H 1449.31 -3.72489 -0.174989 0
M  V30 15480 N 1451.49 -0.619688 -1.44906 0
M  V30 15481 C 1452.72 -0.12618 -2.06214 0
M  V30 15482 C 1453.13 1.19978 -1.46294 0
M  V30 15483 O 1452.48 1.74437 -0.575956 0
M  V30 15484 C 1452.54 0.075085 -3.59422 0
M  V30 15485 C 1452.2 -1.17094 -4.41744 0
M  V30 15486 C 1453.2 -2.09196 -4.75955 0
M  V30 15487 C 1450.88 -1.40315 -4.82304 0
M  V30 15488 C 1452.88 -3.22839 -5.49594 0
M  V30 15489 C 1450.56 -2.54257 -5.55695 0
M  V30 15490 C 1451.56 -3.45346 -5.89258 0
M  V30 15491 O 1451.25 -4.57302 -6.61158 0
M  V30 15492 H 1450.98 -0.0715975 -0.672198 0
M  V30 15493 H 1453.54 -0.850858 -1.86948 0
M  V30 15494 H 1451.77 0.854787 -3.77134 0
M  V30 15495 H 1453.46 0.521707 -4.02533 0
M  V30 15496 H 1454.22 -1.92486 -4.45168 0
M  V30 15497 H 1450.1 -0.703094 -4.55607 0
M  V30 15498 H 1453.64 -3.93959 -5.7571 0
M  V30 15499 H 1449.54 -2.70915 -5.85897 0
M  V30 15500 H 1450.31 -4.56138 -6.79618 0
M  V30 15501 N 1452.97 1.53444 -0.359552 0
M  V30 15502 C 1454.2 2.06058 0.235576 0
M  V30 15503 C 1454.62 1.23175 1.42161 0
M  V30 15504 O 1453.98 0.249338 1.79577 0
M  V30 15505 C 1454.03 3.55351 0.613025 0
M  V30 15506 O 1453.13 3.75229 1.71104 0
M  V30 15507 H 1452.47 0.663038 0.0357266 0
M  V30 15508 H 1455 1.97923 -0.518408 0
M  V30 15509 H 1455.01 3.9827 0.885722 0
M  V30 15510 H 1453.69 4.15122 -0.254243 0
M  V30 15511 H 1452.27 3.4421 1.43437 0
M  V30 15512 N 1454.45 0.0885642 1.57351 0
M  V30 15513 C 1455.7 -0.57753 1.94403 0
M  V30 15514 C 1456.03 -1.68238 0.970029 0
M  V30 15515 O 1455.3 -1.945 0.00198684 0
M  V30 15516 C 1455.59 -1.13882 3.41618 0
M  V30 15517 C 1455.44 -0.0394686 4.49783 0
M  V30 15518 C 1456.76 -2.03922 3.90005 0
M  V30 15519 H 1453.88 -0.208468 0.706902 0
M  V30 15520 H 1456.52 0.157945 1.89342 0
M  V30 15521 H 1454.67 -1.76561 3.46061 0
M  V30 15522 H 1456.34 0.594458 4.57454 0
M  V30 15523 H 1454.59 0.627775 4.29234 0
M  V30 15524 H 1455.26 -0.472897 5.49971 0
M  V30 15525 H 1457.73 -1.51156 3.87674 0
M  V30 15526 H 1456.61 -2.40123 4.93591 0
M  V30 15527 H 1456.87 -2.95407 3.28918 0
M  V30 15528 N 1455.93 -1.56509 -0.185096 0
M  V30 15529 C 1456.88 -1.96237 -1.24875 0
M  V30 15530 C 1457.87 -0.849169 -1.46579 0
M  V30 15531 O 1459.08 -1.03422 -1.47322 0
M  V30 15532 H 1455.45 -0.624147 -0.419457 0
M  V30 15533 H 1457.42 -2.8492 -0.88673 0
M  V30 15534 C 1456.17 -2.32667 -2.58382 0
M  V30 15535 H 1455.49 -3.17858 -2.425 0
M  V30 15536 H 1456.93 -2.6432 -3.31528 0
M  V30 15537 C 1455.39 -1.16496 -3.16118 0
M  V30 15538 O 1455.92 -0.445283 -3.99224 0
M  V30 15539 N 1454.13 -0.939133 -2.75007 0
M  V30 15540 H 1453.68 -1.52611 -2.07527 0
M  V30 15541 H 1453.63 -0.163659 -3.13974 0
M  V30 15542 N 1457.41 0.45317 -1.50944 0
M  V30 15543 C 1458.63 1.23136 -1.6689 0
M  V30 15544 C 1459.06 1.84639 -0.359185 0
M  V30 15545 O 1458.41 1.68106 0.678983 0
M  V30 15546 C 1458.46 2.30275 -2.77499 0
M  V30 15547 O 1457.57 3.35371 -2.39999 0
M  V30 15548 H 1456.91 0.361475 -0.556984 0
M  V30 15549 H 1459.44 0.537174 -1.97422 0
M  V30 15550 H 1459.45 2.75309 -3.01113 0
M  V30 15551 H 1458.12 1.84885 -3.72546 0
M  V30 15552 H 1456.7 2.95924 -2.26899 0
M  V30 15553 N 1458.88 1.40823 0.707568 0
M  V30 15554 C 1459.85 1.41464 1.80334 0
M  V30 15555 C 1460.85 0.307143 1.57839 0
M  V30 15556 O 1462.04 0.566444 1.64733 0
M  V30 15557 C 1459.17 1.21426 3.18541 0
M  V30 15558 H 1460.36 2.38998 1.81162 0
M  V30 15559 H 1457.92 1.2679 0.914007 0
M  V30 15560 H 1458.65 0.246847 3.23359 0
M  V30 15561 H 1458.44 2.01657 3.36269 0
M  V30 15562 H 1459.93 1.24681 3.98553 0
M  V30 15563 N 1460.36 -0.94061 1.26453 0
M  V30 15564 C 1461.78 -1.21424 1.03578 0
M  V30 15565 C 1461.98 -2.00081 -0.238726 0
M  V30 15566 O 1461.03 -2.3404 -0.947709 0
M  V30 15567 C 1462.35 -1.97496 2.26751 0
M  V30 15568 C 1463.9 -2.10485 2.31657 0
M  V30 15569 C 1464.37 -2.89959 3.54525 0
M  V30 15570 N 1465.86 -2.97533 3.55005 0
M  V30 15571 C 1466.6 -3.59456 4.46742 0
M  V30 15572 N 1466.09 -4.22876 5.48769 0
M  V30 15573 N 1467.89 -3.56734 4.34393 0
M  V30 15574 H 1460.04 -0.414788 2.08311 0
M  V30 15575 H 1462.3 -0.246047 0.915513 0
M  V30 15576 H 1462.01 -1.47109 3.19456 0
M  V30 15577 H 1461.88 -2.98159 2.31043 0
M  V30 15578 H 1464.27 -2.60064 1.39466 0
M  V30 15579 H 1464.35 -1.09082 2.31376 0
M  V30 15580 H 1463.99 -2.41067 4.47045 0
M  V30 15581 H 1463.92 -3.91619 3.52054 0
M  V30 15582 H 1466.41 -2.52446 2.81211 0
M  V30 15583 H 1466.73 -4.68026 6.14956 0
M  V30 15584 H 1465.07 -4.21461 5.52626 0
M  V30 15585 H 1468.26 -3.06381 3.53904 0
M  V30 15586 H 1468.43 -4.04706 5.0608 0
M  V30 15587 N 1461.84 -1.08266 -1.14527 0
M  V30 15588 C 1463.07 -0.831673 -1.89121 0
M  V30 15589 C 1463.48 0.619702 -1.78763 0
M  V30 15590 O 1462.82 1.43748 -1.14377 0
M  V30 15591 C 1462.88 -1.17276 -3.39833 0
M  V30 15592 C 1462.55 -2.62662 -3.73975 0
M  V30 15593 C 1463.54 -3.60913 -3.74216 0
M  V30 15594 C 1461.23 -2.9848 -4.03999 0
M  V30 15595 C 1463.22 -4.93012 -4.04002 0
M  V30 15596 C 1460.91 -4.30773 -4.33448 0
M  V30 15597 C 1461.91 -5.27849 -4.33433 0
M  V30 15598 O 1461.6 -6.57765 -4.6217 0
M  V30 15599 H 1461.33 -0.299687 -0.60594 0
M  V30 15600 H 1463.88 -1.44498 -1.45978 0
M  V30 15601 H 1462.11 -0.502458 -3.83422 0
M  V30 15602 H 1463.8 -0.902831 -3.95732 0
M  V30 15603 H 1464.57 -3.34585 -3.5111 0
M  V30 15604 H 1460.45 -2.23561 -4.03164 0
M  V30 15605 H 1463.99 -5.68776 -4.03906 0
M  V30 15606 H 1459.89 -4.5685 -4.56024 0
M  V30 15607 H 1460.66 -6.63057 -4.79893 0
M  V30 15608 N 1463.32 1.31536 -0.86811 0
M  V30 15609 C 1464.54 2.01487 -0.491705 0
M  V30 15610 C 1464.97 1.64744 0.907803 0
M  V30 15611 O 1464.33 0.855093 1.59868 0
M  V30 15612 C 1464.38 3.54621 -0.65395 0
M  V30 15613 O 1463.48 4.11252 0.307532 0
M  V30 15614 H 1462.82 0.634469 -0.195819 0
M  V30 15615 H 1465.35 1.67775 -1.17101 0
M  V30 15616 H 1465.36 4.04323 -0.546539 0
M  V30 15617 H 1464.04 3.80704 -1.67443 0
M  V30 15618 H 1462.61 3.72577 0.155233 0
M  V30 15619 N 1464.8 0.627364 1.44575 0
M  V30 15620 C 1466.02 0.135576 2.06956 0
M  V30 15621 C 1466.45 -1.17922 1.46547 0
M  V30 15622 O 1465.81 -1.72255 0.565509 0
M  V30 15623 C 1465.85 0.030347 3.60587 0
M  V30 15624 O 1464.96 -1.01464 3.99724 0
M  V30 15625 H 1464.3 0.083058 0.658785 0
M  V30 15626 H 1466.83 0.862977 1.8551 0
M  V30 15627 H 1466.84 -0.161461 4.0768 0
M  V30 15628 H 1465.51 0.990285 4.03938 0
M  V30 15629 H 1464.09 -0.797701 3.64268 0
M  V30 15630 N 1466.28 -1.53251 0.367684 0
M  V30 15631 C 1467.21 -2.22163 -0.521418 0
M  V30 15632 C 1468.19 -1.21433 -1.08133 0
M  V30 15633 O 1469.37 -1.50343 -1.13706 0
M  V30 15634 C 1466.5 -2.91799 -1.71962 0
M  V30 15635 C 1465.54 -4.0662 -1.28696 0
M  V30 15636 S 1466.38 -5.34733 -0.286505 0
M  V30 15637 C 1467.53 -6.07882 -1.49099 0
M  V30 15638 H 1467.77 -2.97231 0.0638317 0
M  V30 15639 H 1465.3 -1.53652 0.151795 0
M  V30 15640 H 1467.26 -3.32533 -2.40691 0
M  V30 15641 H 1465.92 -2.16451 -2.27613 0
M  V30 15642 H 1465.11 -4.54366 -2.181 0
M  V30 15643 H 1464.71 -3.67787 -0.67887 0
M  V30 15644 H 1467 -6.32741 -2.42167 0
M  V30 15645 H 1467.95 -7.00199 -1.05487 0
M  V30 15646 H 1468.36 -5.38357 -1.698 0
M  V30 15647 N 1467.75 -0.0969077 -1.57302 0
M  V30 15648 C 1469 0.565254 -1.94034 0
M  V30 15649 C 1469.32 1.68609 -0.9796 0
M  V30 15650 O 1468.59 1.95874 -0.0319788 0
M  V30 15651 H 1467.17 0.211796 -0.716346 0
M  V30 15652 H 1469.83 -0.160665 -1.94237 0
M  V30 15653 H 1468.93 0.974268 -2.96504 0
M  V30 15654 N 1469.23 1.56605 0.176793 0
M  V30 15655 C 1470.48 1.80875 0.892578 0
M  V30 15656 C 1470.79 0.673245 1.83648 0
M  V30 15657 O 1472 0.800732 2.59423 0
M  V30 15658 C 1470.46 3.20481 1.63768 0
M  V30 15659 C 1470.06 4.41885 0.737685 0
M  V30 15660 C 1471.81 3.54048 2.34202 0
M  V30 15661 C 1469.71 5.72512 1.48271 0
M  V30 15662 H 1468.64 0.674476 0.337042 0
M  V30 15663 H 1471.3 1.82922 0.145574 0
M  V30 15664 H 1469.68 3.12736 2.42924 0
M  V30 15665 H 1470.85 4.60797 -0.0165186 0
M  V30 15666 H 1469.17 4.16153 0.143277 0
M  V30 15667 H 1471.76 4.48886 2.90526 0
M  V30 15668 H 1472.11 2.78665 3.09276 0
M  V30 15669 H 1472.64 3.63322 1.61995 0
M  V30 15670 H 1469.38 6.5091 0.774399 0
M  V30 15671 H 1468.9 5.57586 2.21038 0
M  V30 15672 H 1470.58 6.14274 2.03165 0
M  V30 15673 N 1470.71 -0.445159 1.51182 0
M  V30 15674 C 1471.94 -1.21787 1.67259 0
M  V30 15675 C 1472.35 -1.85206 0.366641 0
M  V30 15676 O 1471.71 -1.70376 -0.654095 0
M  V30 15677 C 1471.76 -2.30765 2.78262 0
M  V30 15678 O 1471.48 -1.69942 4.03796 0
M  V30 15679 C 1472.98 -3.21186 3.05539 0
M  V30 15680 H 1470.2 -0.367364 0.561502 0
M  V30 15681 H 1472.75 -0.528415 1.97555 0
M  V30 15682 H 1470.9 -2.9544 2.50587 0
M  V30 15683 H 1471.32 -2.41905 4.65384 0
M  V30 15684 H 1472.79 -3.93805 3.8681 0
M  V30 15685 H 1473.27 -3.81487 2.17634 0
M  V30 15686 H 1473.87 -2.62221 3.34844 0
M  V30 15687 N 1472.19 -1.41197 -0.700089 0
M  V30 15688 C 1473.15 -1.42419 -1.79582 0
M  V30 15689 C 1474.15 -0.31551 -1.57674 0
M  V30 15690 O 1475.34 -0.575173 -1.64431 0
M  V30 15691 C 1472.47 -1.23114 -3.17893 0
M  V30 15692 H 1473.67 -2.39956 -1.79892 0
M  V30 15693 H 1471.22 -1.27273 -0.907271 0
M  V30 15694 H 1471.95 -0.263992 -3.23224 0
M  V30 15695 H 1471.74 -2.03437 -3.35195 0
M  V30 15696 H 1473.23 -1.26793 -3.97886 0
M  V30 15697 N 1473.67 0.933891 -1.2695 0
M  V30 15698 C 1474.94 1.65874 -1.0366 0
M  V30 15699 C 1475.32 2.0666 0.43066 0
M  V30 15700 O 1474.67 1.79606 1.41259 0
M  V30 15701 C 1474.88 2.86546 -1.99229 0
M  V30 15702 C 1476.23 3.58031 -2.28251 0
M  V30 15703 O 1477.25 2.96663 -1.97154 0
M  V30 15704 O 1476.11 4.68583 -2.81233 0
M  V30 15705 H 1473.21 0.72673 -0.394706 0
M  V30 15706 H 1475.75 0.984975 -1.38189 0
M  V30 15707 H 1474.52 2.53351 -2.9821 0
M  V30 15708 H 1474.15 3.61645 -1.65224 0
M  V30 15709 N 1475.14 1.08871 1.13951 0
M  V30 15710 C 1476.07 0.744715 2.21306 0
M  V30 15711 C 1477.05 -0.275019 1.67862 0
M  V30 15712 O 1478.24 -0.144339 1.93663 0
M  V30 15713 C 1475.37 0.158336 3.46939 0
M  V30 15714 C 1474.32 1.10695 4.13438 0
M  V30 15715 C 1473.65 0.382552 5.3333 0
M  V30 15716 C 1474.95 2.44704 4.61429 0
M  V30 15717 H 1476.64 1.6423 2.50337 0
M  V30 15718 H 1474.19 0.791088 1.20324 0
M  V30 15719 H 1476.14 -0.0943587 4.21294 0
M  V30 15720 H 1474.87 -0.774413 3.17286 0
M  V30 15721 H 1473.53 1.34482 3.41043 0
M  V30 15722 H 1473.17 -0.554153 4.99938 0
M  V30 15723 H 1472.87 1.01499 5.78767 0
M  V30 15724 H 1474.4 0.138023 6.10444 0
M  V30 15725 H 1475.81 2.25156 5.27236 0
M  V30 15726 H 1474.21 3.03684 5.17586 0
M  V30 15727 H 1475.28 3.05883 3.76249 0
M  V30 15728 N 1476.62 -1.31073 0.875073 0
M  V30 15729 C 1477.55 -2.27335 0.291809 0
M  V30 15730 C 1478.57 -1.53298 -0.548036 0
M  V30 15731 O 1479.76 -1.7464 -0.369198 0
M  V30 15732 C 1476.86 -3.33465 -0.604521 0
M  V30 15733 C 1476.03 -4.36924 0.204029 0
M  V30 15734 C 1475.09 -5.2252 -0.621238 0
M  V30 15735 O 1474.11 -5.6918 -0.0474551 0
M  V30 15736 N 1475.32 -5.47397 -1.93227 0
M  V30 15737 H 1478.08 -2.78024 1.11906 0
M  V30 15738 H 1475.64 -1.44149 0.737064 0
M  V30 15739 H 1477.63 -3.87646 -1.16243 0
M  V30 15740 H 1476.2 -2.8278 -1.33244 0
M  V30 15741 H 1475.42 -3.82745 0.943389 0
M  V30 15742 H 1476.71 -5.03112 0.758644 0
M  V30 15743 H 1476.11 -5.11253 -2.4215 0
M  V30 15744 H 1474.67 -6.04493 -2.43785 0
M  V30 15745 N 1478.1 -0.635022 -1.4424 0
M  V30 15746 C 1479.03 0.0543561 -2.33437 0
M  V30 15747 C 1480.01 0.830807 -1.48431 0
M  V30 15748 O 1481.2 0.795913 -1.77141 0
M  V30 15749 C 1478.33 1.03391 -3.31553 0
M  V30 15750 C 1477.28 0.368824 -4.26408 0
M  V30 15751 C 1476.61 1.45855 -5.14422 0
M  V30 15752 C 1477.91 -0.727381 -5.1721 0
M  V30 15753 H 1479.6 -0.690489 -2.91329 0
M  V30 15754 H 1477.15 -0.3335 -1.40085 0
M  V30 15755 H 1479.1 1.52495 -3.9284 0
M  V30 15756 H 1477.82 1.80969 -2.71878 0
M  V30 15757 H 1476.48 -0.101605 -3.66459 0
M  V30 15758 H 1476.13 2.22531 -4.51098 0
M  V30 15759 H 1475.83 1.0189 -5.78699 0
M  V30 15760 H 1477.35 1.95132 -5.78581 0
M  V30 15761 H 1478.77 -0.319272 -5.7241 0
M  V30 15762 H 1477.17 -1.09041 -5.9011 0
M  V30 15763 H 1478.24 -1.59292 -4.57989 0
M  V30 15764 N 1479.58 1.53054 -0.375806 0
M  V30 15765 C 1480.53 2.27576 0.480838 0
M  V30 15766 C 1481.52 1.30948 1.07466 0
M  V30 15767 O 1482.73 1.48538 1.01669 0
M  V30 15768 H 1479.1 0.731641 0.173799 0
M  V30 15769 H 1481.07 2.97919 -0.169327 0
M  V30 15770 C 1479.82 3.08533 1.60321 0
M  V30 15771 H 1479.14 3.82735 1.15558 0
M  V30 15772 H 1480.58 3.63837 2.17712 0
M  V30 15773 C 1479.04 2.20004 2.55147 0
M  V30 15774 O 1479.57 1.81771 3.58221 0
M  V30 15775 N 1477.78 1.84433 2.24573 0
M  V30 15776 H 1477.33 2.15723 1.40788 0
M  V30 15777 H 1477.28 1.25488 2.88271 0
M  V30 15778 N 1481.06 0.105248 1.57248 0
M  V30 15779 C 1482.28 -0.564157 1.9906 0
M  V30 15780 C 1482.7 -1.61092 0.984624 0
M  V30 15781 O 1482.06 -1.82484 -0.0244031 0
M  V30 15782 C 1482.11 -1.20272 3.40906 0
M  V30 15783 O 1481.83 -0.197815 4.37653 0
M  V30 15784 C 1483.33 -1.95677 3.97776 0
M  V30 15785 H 1480.55 -0.150468 0.653912 0
M  V30 15786 H 1483.09 0.187532 2.03638 0
M  V30 15787 H 1481.25 -1.90528 3.3731 0
M  V30 15788 H 1481.66 -0.659998 5.20331 0
M  V30 15789 H 1483.14 -2.35702 4.99148 0
M  V30 15790 H 1483.61 -2.82661 3.36154 0
M  V30 15791 H 1484.22 -1.30215 4.04876 0
M  V30 15792 N 1482.53 -1.56697 -0.168486 0
M  V30 15793 C 1483.5 -1.95744 -1.19235 0
M  V30 15794 C 1484.5 -0.841419 -1.37028 0
M  V30 15795 O 1485.69 -1.10842 -1.34386 0
M  V30 15796 C 1482.82 -2.25471 -2.55686 0
M  V30 15797 H 1484.01 -2.87368 -0.857892 0
M  V30 15798 H 1481.57 -1.50798 -0.411041 0
M  V30 15799 H 1482.3 -1.36571 -2.94141 0
M  V30 15800 H 1482.09 -3.06822 -2.44137 0
M  V30 15801 H 1483.58 -2.56593 -3.29469 0
M  V30 15802 N 1484.01 0.437135 -1.51416 0
M  V30 15803 C 1484.96 1.55124 -1.73319 0
M  V30 15804 C 1485.95 1.58437 -0.599511 0
M  V30 15805 O 1487.16 1.62179 -0.780896 0
M  V30 15806 H 1483.54 0.515368 -0.547632 0
M  V30 15807 H 1485.51 1.33824 -2.66709 0
M  V30 15808 C 1484.26 2.92778 -1.87554 0
M  V30 15809 H 1483.58 2.9096 -2.74194 0
M  V30 15810 H 1485.02 3.70097 -2.06891 0
M  V30 15811 C 1483.48 3.30854 -0.635408 0
M  V30 15812 O 1484.01 4.01152 0.20983 0
M  V30 15813 N 1482.21 2.86618 -0.47944 0
M  V30 15814 H 1481.76 2.29582 -1.16834 0
M  V30 15815 H 1481.72 3.12456 0.349078 0
M  V30 15816 N 1485.49 1.41566 0.692592 0
M  V30 15817 C 1486.45 1.43369 1.78824 0
M  V30 15818 C 1487.45 0.323867 1.57505 0
M  V30 15819 O 1488.64 0.583885 1.64123 0
M  V30 15820 C 1485.78 1.24798 3.17235 0
M  V30 15821 H 1486.97 2.40906 1.78617 0
M  V30 15822 H 1484.52 1.27752 0.900508 0
M  V30 15823 H 1485.26 0.281129 3.23079 0
M  V30 15824 H 1485.04 2.05212 3.34111 0
M  V30 15825 H 1486.53 1.28902 3.97208 0
M  V30 15826 N 1486.97 -0.927146 1.27443 0
M  V30 15827 C 1488.38 -1.20319 1.0486 0
M  V30 15828 C 1488.58 -2.00323 -0.217491 0
M  V30 15829 O 1487.64 -2.35032 -0.922833 0
M  V30 15830 C 1488.95 -1.9508 2.28833 0
M  V30 15831 C 1490.5 -2.08016 2.33877 0
M  V30 15832 C 1490.98 -2.86183 3.5758 0
M  V30 15833 N 1492.47 -2.93751 3.58141 0
M  V30 15834 C 1493.2 -3.54698 4.5053 0
M  V30 15835 N 1492.7 -4.17032 5.53223 0
M  V30 15836 N 1494.49 -3.52107 4.38152 0
M  V30 15837 H 1486.64 -0.392671 2.08739 0
M  V30 15838 H 1488.91 -0.236323 0.918072 0
M  V30 15839 H 1488.61 -1.43712 3.20998 0
M  V30 15840 H 1488.49 -2.95692 2.34193 0
M  V30 15841 H 1490.87 -2.5857 1.42217 0
M  V30 15842 H 1490.95 -1.06622 2.3252 0
M  V30 15843 H 1490.6 -2.36312 4.49576 0
M  V30 15844 H 1490.53 -3.87863 3.56188 0
M  V30 15845 H 1493.02 -2.49449 2.83872 0
M  V30 15846 H 1493.33 -4.61477 6.19886 0
M  V30 15847 H 1491.68 -4.15576 5.57065 0
M  V30 15848 H 1494.87 -3.02611 3.57134 0
M  V30 15849 H 1495.04 -3.99315 5.10344 0
M  V30 15850 N 1488.45 -1.09474 -1.13372 0
M  V30 15851 C 1489.7 -0.825968 -1.84013 0
M  V30 15852 C 1490.01 0.650623 -1.84462 0
M  V30 15853 O 1491.21 1.03495 -2.51 0
M  V30 15854 C 1489.67 -1.42769 -3.30371 0
M  V30 15855 C 1489.28 -2.93686 -3.38308 0
M  V30 15856 C 1491.02 -1.23788 -4.0605 0
M  V30 15857 C 1488.93 -3.46942 -4.78942 0
M  V30 15858 H 1487.86 -0.305322 -0.689416 0
M  V30 15859 H 1490.51 -1.31751 -1.27726 0
M  V30 15860 H 1488.89 -0.86384 -3.86463 0
M  V30 15861 H 1490.07 -3.56302 -2.92208 0
M  V30 15862 H 1488.38 -3.11706 -2.76094 0
M  V30 15863 H 1490.98 -1.61031 -5.09876 0
M  V30 15864 H 1491.32 -0.178578 -4.15917 0
M  V30 15865 H 1491.85 -1.76927 -3.56289 0
M  V30 15866 H 1488.59 -4.52495 -4.74267 0
M  V30 15867 H 1488.11 -2.8909 -5.25535 0
M  V30 15868 H 1489.79 -3.44176 -5.47861 0
M  V30 15869 N 1489.92 1.30607 -0.882012 0
M  V30 15870 C 1490.87 2.2821 -0.344826 0
M  V30 15871 C 1491.84 1.56254 0.563361 0
M  V30 15872 O 1493.03 1.84336 0.492416 0
M  V30 15873 C 1490.17 3.42319 0.437216 0
M  V30 15874 C 1489.28 4.29098 -0.499851 0
M  V30 15875 C 1488.41 5.30366 0.297497 0
M  V30 15876 C 1487.45 6.08795 -0.63523 0
M  V30 15877 N 1486.59 7.01986 0.12661 0
M  V30 15878 H 1491.43 2.73543 -1.18229 0
M  V30 15879 H 1488.97 1.34556 -0.594392 0
M  V30 15880 H 1490.93 4.07232 0.906521 0
M  V30 15881 H 1489.56 2.98063 1.23928 0
M  V30 15882 H 1488.61 3.6452 -1.08764 0
M  V30 15883 H 1489.92 4.83787 -1.21454 0
M  V30 15884 H 1489.07 6.01013 0.828786 0
M  V30 15885 H 1487.81 4.76364 1.04542 0
M  V30 15886 H 1486.82 5.37028 -1.17817 0
M  V30 15887 H 1488.04 6.64885 -1.3822 0
M  V30 15888 H 1485.99 6.50376 0.857125 0
M  V30 15889 H 1485.91 7.5415 -0.528512 0
M  V30 15890 H 1487.17 7.76879 0.638738 0
M  V30 15891 N 1491.4 0.642663 1.43901 0
M  V30 15892 C 1492.33 -0.0419756 2.33462 0
M  V30 15893 C 1493.31 -0.822923 1.48869 0
M  V30 15894 O 1494.5 -0.786508 1.7756 0
M  V30 15895 C 1491.63 -1.01631 3.32097 0
M  V30 15896 C 1490.58 -0.346206 4.26597 0
M  V30 15897 C 1489.91 -1.43125 5.15189 0
M  V30 15898 C 1491.21 0.754799 5.16817 0
M  V30 15899 H 1492.9 0.705929 2.90959 0
M  V30 15900 H 1490.45 0.340924 1.39906 0
M  V30 15901 H 1492.4 -1.5041 3.93643 0
M  V30 15902 H 1491.13 -1.79525 2.72834 0
M  V30 15903 H 1489.78 0.121038 3.664 0
M  V30 15904 H 1489.43 -2.20135 4.52271 0
M  V30 15905 H 1489.13 -0.988194 5.79231 0
M  V30 15906 H 1490.66 -1.92061 5.79607 0
M  V30 15907 H 1492.07 0.349624 5.72233 0
M  V30 15908 H 1490.47 1.12169 5.89524 0
M  V30 15909 H 1491.54 1.61718 4.57138 0
M  V30 15910 N 1492.88 -1.52852 0.383918 0
M  V30 15911 C 1494.29 -1.86477 -0.0912997 0
M  V30 15912 C 1494.64 -1.30382 -1.46611 0
M  V30 15913 O 1493.77 -0.633042 -2.06934 0
M  V30 15914 C 1494.36 -3.38361 -0.172447 0
M  V30 15915 C 1492.92 -3.71716 -0.591948 0
M  V30 15916 C 1492.07 -2.76176 0.24945 0
M  V30 15917 H 1495.02 -1.46839 0.602006 0
M  V30 15918 H 1495.04 -3.67325 -0.992603 0
M  V30 15919 H 1494.55 -3.79158 0.8283 0
M  V30 15920 H 1492.65 -3.36486 -1.60026 0
M  V30 15921 H 1492.77 -4.77792 -0.353835 0
M  V30 15922 H 1491.13 -2.53106 -0.284469 0
M  V30 15923 H 1491.91 -3.19809 1.24808 0
M  V30 15924 N 1494.36 -0.113586 -1.5719 0
M  V30 15925 C 1495.58 0.556928 -1.99783 0
M  V30 15926 C 1496.01 1.59774 -0.992669 0
M  V30 15927 O 1495.37 1.81263 0.0363821 0
M  V30 15928 C 1495.42 1.16463 -3.41275 0
M  V30 15929 O 1494.52 2.28024 -3.43626 0
M  V30 15930 H 1493.86 0.139628 -0.649153 0
M  V30 15931 H 1496.39 -0.200462 -2.03616 0
M  V30 15932 H 1496.4 1.50147 -3.79368 0
M  V30 15933 H 1495.08 0.402232 -4.1395 0
M  V30 15934 H 1493.65 1.9582 -3.17347 0
M  V30 15935 N 1495.84 1.56784 0.160173 0
M  V30 15936 C 1497.11 1.73513 0.902908 0
M  V30 15937 C 1497.49 0.678036 1.99915 0
M  V30 15938 O 1496.84 -0.305302 2.26451 0
M  V30 15939 C 1497.05 3.17111 1.45744 0
M  V30 15940 C 1498.4 3.78404 1.92602 0
M  V30 15941 O 1499.42 3.20459 1.55515 0
M  V30 15942 O 1498.28 4.80172 2.60954 0
M  V30 15943 H 1495.38 0.708981 0.425764 0
M  V30 15944 H 1497.92 1.69061 0.147129 0
M  V30 15945 H 1496.7 3.85539 0.668985 0
M  V30 15946 H 1496.32 3.25936 2.2771 0
M  V30 15947 N 1497.32 -0.429099 1.51646 0
M  V30 15948 C 1498.73 -1.00868 1.57107 0
M  V30 15949 C 1499.08 -1.9209 0.399483 0
M  V30 15950 O 1498.2 -2.10948 -0.482709 0
M  V30 15951 C 1498.8 -1.83612 2.84732 0
M  V30 15952 C 1497.36 -2.36605 2.92737 0
M  V30 15953 C 1496.5 -1.1604 2.51853 0
M  V30 15954 H 1499.45 -0.21006 1.57304 0
M  V30 15955 H 1499.48 -2.69149 2.68959 0
M  V30 15956 H 1498.99 -1.17192 3.69983 0
M  V30 15957 H 1497.09 -3.06455 2.11934 0
M  V30 15958 H 1497.2 -2.68838 3.96564 0
M  V30 15959 H 1495.57 -1.50826 2.0524 0
M  V30 15960 H 1496.35 -0.51218 3.39458 0
M  V30 15961 N 1498.79 -1.41931 -0.685074 0
M  V30 15962 C 1500.04 -1.41147 -1.44085 0
M  V30 15963 C 1500.36 -0.0275793 -1.95581 0
M  V30 15964 O 1501.56 0.102873 -2.71305 0
M  V30 15965 C 1500.02 -2.4823 -2.60596 0
M  V30 15966 C 1499.63 -3.92576 -2.15842 0
M  V30 15967 C 1501.37 -2.56597 -3.38169 0
M  V30 15968 C 1499.28 -4.91189 -3.29374 0
M  V30 15969 H 1498.21 -0.52494 -0.541252 0
M  V30 15970 H 1500.86 -1.67798 -0.7427 0
M  V30 15971 H 1499.24 -2.14727 -3.32729 0
M  V30 15972 H 1500.41 -4.35381 -1.50929 0
M  V30 15973 H 1498.73 -3.87965 -1.51235 0
M  V30 15974 H 1501.33 -3.27453 -4.22704 0
M  V30 15975 H 1501.67 -1.60618 -3.84067 0
M  V30 15976 H 1502.2 -2.89244 -2.73099 0
M  V30 15977 H 1498.94 -5.88609 -2.88477 0
M  V30 15978 H 1498.46 -4.53024 -3.93102 0
M  V30 15979 H 1500.14 -5.12433 -3.94996 0
M  V30 15980 N 1500.27 0.920374 -1.27933 0
M  V30 15981 C 1501.5 1.70804 -1.17647 0
M  V30 15982 C 1501.92 1.86264 0.262189 0
M  V30 15983 O 1501.28 1.36798 1.18979 0
M  V30 15984 C 1501.33 3.08142 -1.87298 0
M  V30 15985 O 1500.43 3.95279 -1.17593 0
M  V30 15986 H 1499.77 0.523267 -0.408763 0
M  V30 15987 H 1502.3 1.15127 -1.69136 0
M  V30 15988 H 1502.31 3.58414 -1.94945 0
M  V30 15989 H 1500.99 2.96208 -2.91948 0
M  V30 15990 H 1499.56 3.53716 -1.18065 0
M  V30 15991 N 1501.75 1.10074 1.1279 0
M  V30 15992 C 1502.98 0.862906 1.88047 0
M  V30 15993 C 1503.39 -0.586346 1.79464 0
M  V30 15994 O 1502.75 -1.40402 1.16591 0
M  V30 15995 C 1502.8 1.29784 3.37399 0
M  V30 15996 O 1502.52 2.69026 3.4577 0
M  V30 15997 C 1504.02 1.09336 4.29605 0
M  V30 15998 H 1501.24 0.309981 0.595108 0
M  V30 15999 H 1503.79 1.46444 1.42738 0
M  V30 16000 H 1501.94 0.740056 3.80266 0
M  V30 16001 H 1502.36 2.87532 4.38663 0
M  V30 16002 H 1503.83 1.44687 5.327 0
M  V30 16003 H 1504.31 0.031679 4.39189 0
M  V30 16004 H 1504.91 1.63743 3.92516 0
M  V30 16005 N 1503.23 -1.30138 0.888926 0
M  V30 16006 C 1504.16 -2.3047 0.374934 0
M  V30 16007 C 1505.14 -1.61156 -0.544322 0
M  V30 16008 O 1506.32 -1.88738 -0.457337 0
M  V30 16009 C 1503.45 -3.44896 -0.407935 0
M  V30 16010 C 1502.41 -4.25935 0.419916 0
M  V30 16011 C 1501.73 -5.32452 -0.489797 0
M  V30 16012 C 1503.03 -4.9508 1.66413 0
M  V30 16013 H 1504.73 -2.73711 1.21337 0
M  V30 16014 H 1502.27 -1.31586 0.584899 0
M  V30 16015 H 1504.23 -4.14153 -0.778177 0
M  V30 16016 H 1502.95 -3.0047 -1.28005 0
M  V30 16017 H 1501.61 -3.58372 0.772348 0
M  V30 16018 H 1501.26 -4.84273 -1.35974 0
M  V30 16019 H 1500.96 -5.87569 0.0603412 0
M  V30 16020 H 1502.48 -6.04563 -0.856468 0
M  V30 16021 H 1503.9 -5.56831 1.36425 0
M  V30 16022 H 1502.29 -5.6008 2.15477 0
M  V30 16023 H 1503.36 -4.20981 2.4063 0
M  V30 16024 N 1504.71 -0.650285 -1.43559 0
M  V30 16025 C 1506.12 -0.317586 -1.56408 0
M  V30 16026 C 1506.32 1.17844 -1.63447 0
M  V30 16027 O 1505.38 1.96318 -1.58794 0
M  V30 16028 C 1506.69 -1.02636 -2.82642 0
M  V30 16029 C 1508.24 -1.00633 -2.96381 0
M  V30 16030 C 1508.71 -1.69595 -4.25443 0
M  V30 16031 N 1510.2 -1.66345 -4.323 0
M  V30 16032 C 1510.94 -2.16581 -5.30924 0
M  V30 16033 N 1510.44 -2.75092 -6.35843 0
M  V30 16034 N 1512.23 -2.07098 -5.22558 0
M  V30 16035 H 1504.38 -1.62114 -1.37233 0
M  V30 16036 H 1506.64 -0.681588 -0.658895 0
M  V30 16037 H 1506.35 -2.08146 -2.83493 0
M  V30 16038 H 1506.22 -0.576081 -3.72775 0
M  V30 16039 H 1508.61 0.0403519 -2.95072 0
M  V30 16040 H 1508.69 -1.49528 -2.07545 0
M  V30 16041 H 1508.33 -2.74218 -4.27512 0
M  V30 16042 H 1508.26 -1.18168 -5.1317 0
M  V30 16043 H 1510.76 -1.23644 -3.571 0
M  V30 16044 H 1511.07 -3.11108 -7.07412 0
M  V30 16045 H 1509.41 -2.79152 -6.36474 0
M  V30 16046 H 1512.6 -1.61093 -4.39507 0
M  V30 16047 H 1512.78 -2.46557 -5.99261 0
M  V30 16048 N 1506.18 1.52647 -0.392018 0
M  V30 16049 C 1507.43 2.01912 0.18958 0
M  V30 16050 C 1507.76 1.27786 1.46234 0
M  V30 16051 O 1507.04 0.379124 1.90769 0
M  V30 16052 C 1507.32 3.57217 0.454734 0
M  V30 16053 C 1507.17 4.4201 -0.833501 0
M  V30 16054 C 1508.49 4.22146 1.24421 0
M  V30 16055 H 1505.61 0.733909 0.0674281 0
M  V30 16056 H 1508.25 1.82685 -0.52212 0
M  V30 16057 H 1506.4 3.73731 1.06101 0
M  V30 16058 H 1508.08 4.37242 -1.47027 0
M  V30 16059 H 1506.32 4.08912 -1.44823 0
M  V30 16060 H 1506.99 5.48701 -0.602585 0
M  V30 16061 H 1509.47 4.09627 0.731093 0
M  V30 16062 H 1508.34 5.30786 1.39848 0
M  V30 16063 H 1508.6 3.7996 2.26016 0
M  V30 16064 N 1507.66 0.121921 1.57128 0
M  V30 16065 C 1508.57 -0.840825 2.19014 0
M  V30 16066 C 1509.59 -1.29051 1.16712 0
M  V30 16067 O 1510.76 -1.35289 1.49194 0
M  V30 16068 C 1507.83 -2.07204 2.7797 0
M  V30 16069 C 1506.89 -1.67399 3.95318 0
M  V30 16070 C 1506.12 -2.84652 4.51452 0
M  V30 16071 O 1506.35 -4.00161 4.06482 0
M  V30 16072 O 1505.28 -2.61568 5.42094 0
M  V30 16073 H 1509.11 -0.344146 3.01744 0
M  V30 16074 H 1506.69 -0.103841 1.49039 0
M  V30 16075 H 1508.57 -2.79307 3.1554 0
M  V30 16076 H 1507.25 -2.55872 1.9827 0
M  V30 16077 H 1506.16 -0.92395 3.62511 0
M  V30 16078 H 1507.49 -1.2347 4.76462 0
M  V30 16079 N 1509.14 -1.56867 -0.151857 0
M  V30 16080 C 1510.39 -1.83353 -0.866566 0
M  V30 16081 C 1510.72 -0.702784 -1.81038 0
M  V30 16082 O 1509.99 0.293944 -1.92266 0
M  V30 16083 C 1510.28 -3.20316 -1.64529 0
M  V30 16084 C 1510.13 -4.43946 -0.723297 0
M  V30 16085 C 1511.45 -3.54441 -2.60882 0
M  V30 16086 H 1508.57 -0.666957 -0.313588 0
M  V30 16087 H 1511.21 -1.89541 -0.131954 0
M  V30 16088 H 1509.36 -3.15172 -2.27154 0
M  V30 16089 H 1511.03 -4.61173 -0.10842 0
M  V30 16090 H 1509.28 -4.33788 -0.0325582 0
M  V30 16091 H 1509.95 -5.36374 -1.3041 0
M  V30 16092 H 1512.42 -3.60164 -2.08377 0
M  V30 16093 H 1511.3 -4.51314 -3.12422 0
M  V30 16094 H 1511.56 -2.80146 -3.42009 0
M  V30 16095 N 1510.62 0.421051 -1.51871 0
M  V30 16096 C 1511.57 1.5122 -1.74359 0
M  V30 16097 C 1512.54 1.55432 -0.585667 0
M  V30 16098 O 1513.72 1.7219 -0.821912 0
M  V30 16099 C 1510.86 2.88787 -1.88935 0
M  V30 16100 C 1509.97 2.93977 -3.16546 0
M  V30 16101 C 1509.11 4.22768 -3.21622 0
M  V30 16102 C 1508.15 4.21888 -4.43483 0
M  V30 16103 N 1507.28 5.4223 -4.46017 0
M  V30 16104 H 1512.12 1.31348 -2.67492 0
M  V30 16105 H 1509.66 0.637779 -1.32555 0
M  V30 16106 H 1511.62 3.68629 -1.95368 0
M  V30 16107 H 1510.25 3.07181 -0.991942 0
M  V30 16108 H 1509.3 2.06699 -3.19343 0
M  V30 16109 H 1510.61 2.8919 -4.06412 0
M  V30 16110 H 1509.77 5.10995 -3.27061 0
M  V30 16111 H 1508.51 4.30234 -2.29674 0
M  V30 16112 H 1507.51 3.32052 -4.38202 0
M  V30 16113 H 1508.74 4.16072 -5.36713 0
M  V30 16114 H 1506.68 5.50386 -3.56947 0
M  V30 16115 H 1506.6 5.39389 -5.29713 0
M  V30 16116 H 1507.87 6.32443 -4.55671 0
M  V30 16117 N 1512.1 1.42293 0.677538 0
M  V30 16118 C 1513.33 1.45797 1.46379 0
M  V30 16119 C 1513.73 0.0669696 1.89081 0
M  V30 16120 O 1513.08 -0.928025 1.58535 0
M  V30 16121 C 1513.14 2.31982 2.74635 0
M  V30 16122 C 1512.8 3.79894 2.54026 0
M  V30 16123 C 1513.8 4.71615 2.18805 0
M  V30 16124 C 1511.49 4.24131 2.69106 0
M  V30 16125 C 1513.48 6.05563 1.98927 0
M  V30 16126 C 1511.17 5.5814 2.48844 0
M  V30 16127 C 1512.16 6.48672 2.13807 0
M  V30 16128 O 1511.85 7.80206 1.93737 0
M  V30 16129 H 1511.58 0.498113 0.457012 0
M  V30 16130 H 1514.14 1.87432 0.840151 0
M  V30 16131 H 1512.37 1.85191 3.39472 0
M  V30 16132 H 1514.06 2.26974 3.36508 0
M  V30 16133 H 1514.82 4.38723 2.06753 0
M  V30 16134 H 1510.7 3.53957 2.95357 0
M  V30 16135 H 1514.25 6.7619 1.71502 0
M  V30 16136 H 1510.14 5.90605 2.60491 0
M  V30 16137 H 1510.91 7.91536 2.08357 0
M  V30 16138 N 1513.57 -0.913576 1.28419 0
M  V30 16139 C 1514.52 -2.00257 1.09001 0
M  V30 16140 C 1515.51 -1.60894 0.0136118 0
M  V30 16141 O 1516.7 -1.75449 0.233769 0
M  V30 16142 C 1513.83 -3.34916 0.754073 0
M  V30 16143 C 1512.92 -3.8068 1.86932 0
M  V30 16144 N 1513.31 -3.98814 3.11096 0
M  V30 16145 C 1511.6 -4.09839 1.75921 0
M  V30 16146 C 1512.31 -4.37149 3.83765 0
M  V30 16147 N 1511.28 -4.45417 3.11616 0
M  V30 16148 H 1515.08 -2.12327 2.0321 0
M  V30 16149 H 1512.6 -1.10143 1.19341 0
M  V30 16150 H 1514.59 -4.12617 0.596035 0
M  V30 16151 H 1513.25 -3.24199 -0.180246 0
M  V30 16152 H 1514.27 -3.84729 3.46705 0
M  V30 16153 H 1510.94 -4.07757 0.896679 0
M  V30 16154 H 1512.33 -4.5914 4.9055 0
M  V30 16155 N 1515.05 -1.1067 -1.12204 0
M  V30 16156 C 1516 -0.757745 -2.18007 0
M  V30 16157 C 1516.97 0.26706 -1.63939 0
M  V30 16158 O 1518.15 0.145789 -1.90242 0
M  V30 16159 C 1515.29 -0.198379 -3.44529 0
M  V30 16160 C 1514.41 -1.27878 -4.12639 0
M  V30 16161 C 1513.54 -0.6808 -5.26819 0
M  V30 16162 C 1512.58 -1.74161 -5.868 0
M  V30 16163 N 1511.72 -1.16372 -6.92389 0
M  V30 16164 H 1516.56 -1.66418 -2.47202 0
M  V30 16165 H 1514.1 -0.831216 -1.21364 0
M  V30 16166 H 1516.05 0.143838 -4.16952 0
M  V30 16167 H 1514.68 0.671279 -3.15743 0
M  V30 16168 H 1513.74 -1.73808 -3.38371 0
M  V30 16169 H 1515.05 -2.08169 -4.53285 0
M  V30 16170 H 1514.2 -0.288172 -6.06015 0
M  V30 16171 H 1512.94 0.153521 -4.87458 0
M  V30 16172 H 1511.95 -2.14364 -5.06289 0
M  V30 16173 H 1513.17 -2.57882 -6.28231 0
M  V30 16174 H 1511.12 -0.350899 -6.55061 0
M  V30 16175 H 1511.03 -1.90344 -7.31646 0
M  V30 16176 H 1512.3 -0.797715 -7.75407 0
M  V30 16177 N 1516.53 1.29665 -0.895815 0
M  V30 16178 C 1517.48 2.29791 -0.360404 0
M  V30 16179 C 1518.47 1.60617 0.538384 0
M  V30 16180 O 1519.68 1.74993 0.421616 0
M  V30 16181 H 1516.05 0.745599 -0.0979118 0
M  V30 16182 H 1518.02 2.72396 -1.21832 0
M  V30 16183 C 1516.77 3.45386 0.400451 0
M  V30 16184 H 1516.1 3.98805 -0.281915 0
M  V30 16185 H 1517.54 4.17492 0.740003 0
M  V30 16186 C 1516 2.96393 1.60165 0
M  V30 16187 O 1516.53 2.97339 2.70097 0
M  V30 16188 N 1514.73 2.52271 1.44249 0
M  V30 16189 H 1514.28 2.51701 0.548142 0
M  V30 16190 H 1514.24 2.19849 2.24753 0
M  V30 16191 N 1518.01 0.657889 1.43212 0
M  V30 16192 C 1519.29 0.102895 1.95329 0
M  V30 16193 C 1519.67 -1.37821 1.59901 0
M  V30 16194 O 1519.01 -2.10602 0.886505 0
M  V30 16195 C 1519.22 0.354075 3.47199 0
M  V30 16196 C 1520.57 0.261511 4.23794 0
M  V30 16197 O 1521.6 0.286889 3.55043 0
M  V30 16198 O 1520.45 0.189209 5.46172 0
M  V30 16199 H 1517.55 -0.00692284 0.826971 0
M  V30 16200 H 1520.09 0.73145 1.53127 0
M  V30 16201 H 1518.87 1.38075 3.6613 0
M  V30 16202 H 1518.49 -0.307321 3.96411 0
M  V30 16203 N 1519.49 -1.52437 0.400108 0
M  V30 16204 C 1520.42 -2.23219 -0.474176 0
M  V30 16205 C 1521.4 -1.23699 -1.05533 0
M  V30 16206 O 1522.58 -1.52721 -1.10492 0
M  V30 16207 C 1519.71 -2.95381 -1.65734 0
M  V30 16208 C 1518.75 -4.09258 -1.20042 0
M  V30 16209 S 1519.59 -5.3522 -0.173016 0
M  V30 16210 C 1520.74 -6.10908 -1.36171 0
M  V30 16211 H 1520.98 -2.97029 0.126865 0
M  V30 16212 H 1518.51 -1.53295 0.184353 0
M  V30 16213 H 1520.47 -3.37564 -2.33583 0
M  V30 16214 H 1519.13 -2.21231 -2.2297 0
M  V30 16215 H 1518.32 -4.5889 -2.08413 0
M  V30 16216 H 1517.92 -3.69144 -0.600704 0
M  V30 16217 H 1520.22 -6.37735 -2.28691 0
M  V30 16218 H 1521.16 -7.02279 -0.906106 0
M  V30 16219 H 1521.57 -5.41838 -1.58342 0
M  V30 16220 N 1520.96 -0.130252 -1.57061 0
M  V30 16221 C 1521.89 0.812189 -2.18919 0
M  V30 16222 C 1522.88 1.2692 -1.13249 0
M  V30 16223 O 1524.06 1.32978 -1.41529 0
M  V30 16224 C 1521.19 2.05803 -2.79754 0
M  V30 16225 C 1520.14 1.73841 -3.91105 0
M  V30 16226 C 1519.47 3.05549 -4.38799 0
M  V30 16227 C 1520.77 0.997991 -5.12677 0
M  V30 16228 H 1522.46 0.296692 -2.97926 0
M  V30 16229 H 1520.01 0.141265 -1.43305 0
M  V30 16230 H 1521.96 2.72201 -3.21691 0
M  V30 16231 H 1520.69 2.59697 -1.98053 0
M  V30 16232 H 1519.35 1.09828 -3.49762 0
M  V30 16233 H 1518.99 3.57399 -3.53942 0
M  V30 16234 H 1518.69 2.84932 -5.13894 0
M  V30 16235 H 1520.22 3.73045 -4.83394 0
M  V30 16236 H 1521.63 1.56372 -5.51562 0
M  V30 16237 H 1520.03 0.892378 -5.93428 0
M  V30 16238 H 1521.1 -0.0132936 -4.84898 0
M  V30 16239 N 1522.44 1.56945 0.143535 0
M  V30 16240 C 1523.38 1.95134 1.2023 0
M  V30 16241 C 1524.39 0.847593 1.38995 0
M  V30 16242 O 1525.58 1.12599 1.38505 0
M  V30 16243 C 1522.68 2.21316 2.56656 0
M  V30 16244 C 1521.85 3.52604 2.58822 0
M  V30 16245 C 1520.91 3.67285 3.76813 0
M  V30 16246 O 1519.94 4.39644 3.61527 0
M  V30 16247 N 1521.14 3.04208 4.94406 0
M  V30 16248 H 1523.9 2.86561 0.87766 0
M  V30 16249 H 1521.46 1.58437 0.333065 0
M  V30 16250 H 1523.46 2.28375 3.34106 0
M  V30 16251 H 1522.03 1.36137 2.81399 0
M  V30 16252 H 1521.25 3.56954 1.67264 0
M  V30 16253 H 1522.53 4.38944 2.57304 0
M  V30 16254 H 1521.93 2.45344 5.09728 0
M  V30 16255 H 1520.49 3.16824 5.69619 0
M  V30 16256 N 1523.92 -0.412991 1.52093 0
M  V30 16257 C 1525.17 -1.1603 1.65962 0
M  V30 16258 C 1525.5 -1.90598 0.387652 0
M  V30 16259 O 1524.75 -1.85308 -0.629243 0
M  V30 16260 C 1525.05 -2.18321 2.82968 0
M  V30 16261 C 1524.72 -1.60589 4.21334 0
M  V30 16262 C 1523.38 -1.44568 4.5897 0
M  V30 16263 C 1525.73 -1.18388 5.07576 0
M  V30 16264 C 1523.06 -0.848584 5.80531 0
M  V30 16265 C 1525.41 -0.600985 6.29739 0
M  V30 16266 C 1524.07 -0.42788 6.66127 0
M  V30 16267 H 1523.34 -0.424583 0.607297 0
M  V30 16268 H 1525.99 -0.448028 1.86185 0
M  V30 16269 H 1524.3 -2.95678 2.57063 0
M  V30 16270 H 1525.99 -2.76009 2.90895 0
M  V30 16271 H 1522.58 -1.7404 3.91673 0
M  V30 16272 H 1526.77 -1.29576 4.79086 0
M  V30 16273 H 1522.02 -0.702447 6.07351 0
M  V30 16274 H 1526.2 -0.265583 6.95893 0
M  V30 16275 H 1523.82 0.0369013 7.60191 0
M  V30 16276 N 1525.4 -1.4265 -0.669982 0
M  V30 16277 C 1526.35 -1.46504 -1.7834 0
M  V30 16278 C 1527.32 -0.316478 -1.63057 0
M  V30 16279 O 1528.5 -0.521245 -1.83542 0
M  V30 16280 C 1525.64 -1.37784 -3.16401 0
M  V30 16281 C 1524.75 -2.62714 -3.42937 0
M  V30 16282 C 1523.89 -2.46101 -4.70752 0
M  V30 16283 C 1522.93 -3.66381 -4.90338 0
M  V30 16284 N 1522.07 -3.48681 -6.09398 0
M  V30 16285 H 1526.91 -2.41651 -1.74381 0
M  V30 16286 H 1524.44 -1.1997 -0.851215 0
M  V30 16287 H 1526.4 -1.30725 -3.9619 0
M  V30 16288 H 1525.03 -0.462291 -3.19473 0
M  V30 16289 H 1524.08 -2.8012 -2.57366 0
M  V30 16290 H 1525.39 -3.52108 -3.53301 0
M  V30 16291 H 1524.55 -2.36655 -5.58641 0
M  V30 16292 H 1523.29 -1.54204 -4.6268 0
M  V30 16293 H 1522.29 -3.76254 -4.00891 0
M  V30 16294 H 1523.52 -4.59265 -5.00253 0
M  V30 16295 H 1521.46 -2.59505 -6.02489 0
M  V30 16296 H 1521.38 -4.31666 -6.20645 0
M  V30 16297 H 1522.65 -3.43056 -6.99952 0
M  V30 16298 N 1526.88 0.906753 -1.28902 0
M  V30 16299 C 1528.13 1.65119 -1.15839 0
M  V30 16300 C 1528.44 1.93426 0.290825 0
M  V30 16301 O 1529.65 2.66021 0.542678 0
M  V30 16302 C 1528.1 2.97492 -2.0255 0
M  V30 16303 C 1527.71 2.76807 -3.52253 0
M  V30 16304 C 1529.45 3.75393 -1.98192 0
M  V30 16305 C 1527.36 4.04863 -4.31091 0
M  V30 16306 H 1526.29 0.619409 -0.429939 0
M  V30 16307 H 1528.94 1.00567 -1.53488 0
M  V30 16308 H 1527.32 3.63217 -1.57763 0
M  V30 16309 H 1528.5 2.19719 -4.05044 0
M  V30 16310 H 1526.81 2.1231 -3.58209 0
M  V30 16311 H 1529.41 4.70325 -2.54358 0
M  V30 16312 H 1529.75 4.05074 -0.960267 0
M  V30 16313 H 1530.29 3.16498 -2.40985 0
M  V30 16314 H 1527.02 3.80353 -5.33865 0
M  V30 16315 H 1526.54 4.61537 -3.83072 0
M  V30 16316 H 1528.22 4.73066 -4.41381 0
M  V30 16317 N 1528.36 1.11264 1.11616 0
M  V30 16318 C 1529.59 0.881522 1.8685 0
M  V30 16319 C 1529.99 -0.572088 1.80344 0
M  V30 16320 O 1529.34 -1.40665 1.18148 0
M  V30 16321 C 1529.4 1.26245 3.36604 0
M  V30 16322 C 1529.06 2.72485 3.6688 0
M  V30 16323 C 1530.06 3.70708 3.64516 0
M  V30 16324 C 1527.74 3.09086 3.95943 0
M  V30 16325 C 1529.74 5.0355 3.90789 0
M  V30 16326 C 1527.43 4.42114 4.21875 0
M  V30 16327 C 1528.42 5.39155 4.19286 0
M  V30 16328 O 1528.11 6.69787 4.44568 0
M  V30 16329 H 1527.84 0.315647 0.597782 0
M  V30 16330 H 1530.4 1.48317 1.42095 0
M  V30 16331 H 1528.63 0.603938 3.81955 0
M  V30 16332 H 1530.32 1.00744 3.93199 0
M  V30 16333 H 1531.08 3.43776 3.42115 0
M  V30 16334 H 1526.96 2.34171 3.97095 0
M  V30 16335 H 1530.51 5.79285 3.88684 0
M  V30 16336 H 1526.4 4.6878 4.43751 0
M  V30 16337 H 1527.17 6.75548 4.62144 0
M  V30 16338 N 1529.83 -1.29188 0.902679 0
M  V30 16339 C 1531.11 -1.90365 0.449496 0
M  V30 16340 C 1531.49 -1.81911 -1.07105 0
M  V30 16341 O 1530.84 -1.24778 -1.91423 0
M  V30 16342 C 1531.05 -3.35324 0.967418 0
M  V30 16343 C 1532.4 -4.12342 1.0129 0
M  V30 16344 O 1533.42 -3.44239 0.915293 0
M  V30 16345 O 1532.28 -5.34048 1.15994 0
M  V30 16346 H 1529.37 -0.814956 0.140628 0
M  V30 16347 H 1531.92 -1.37633 0.992739 0
M  V30 16348 H 1530.69 -3.35646 2.0114 0
M  V30 16349 H 1530.31 -3.95539 0.404358 0
M  V30 16350 N 1531.31 -0.665475 -1.42861 0
M  V30 16351 C 1532.72 -0.26225 -1.84849 0
M  V30 16352 C 1533.07 1.19372 -1.55707 0
M  V30 16353 O 1532.2 1.91269 -1.01218 0
M  V30 16354 C 1532.79 -0.469189 -3.35535 0
M  V30 16355 C 1531.35 -0.120172 -3.76208 0
M  V30 16356 C 1530.5 -0.766153 -2.66506 0
M  V30 16357 H 1533.45 -0.868296 -1.32839 0
M  V30 16358 H 1533.47 0.281571 -3.79457 0
M  V30 16359 H 1532.98 -1.52894 -3.56714 0
M  V30 16360 H 1531.08 0.936505 -3.60639 0
M  V30 16361 H 1531.2 -0.554188 -4.75884 0
M  V30 16362 H 1529.56 -0.198292 -2.53927 0
M  V30 16363 H 1530.34 -1.82918 -2.9051 0
M  V30 16364 N 1532.79 1.52222 -0.408187 0
M  V30 16365 C 1533.72 2.24676 0.453129 0
M  V30 16366 C 1534.73 1.27605 1.01098 0
M  V30 16367 O 1535.92 1.53557 0.910084 0
M  V30 16368 C 1533.02 2.96431 1.64262 0
M  V30 16369 C 1532.2 4.20364 1.20883 0
M  V30 16370 C 1531.26 4.74951 2.26512 0
M  V30 16371 O 1530.28 5.37556 1.87142 0
M  V30 16372 N 1531.48 4.56443 3.58665 0
M  V30 16373 H 1534.25 2.9923 -0.16771 0
M  V30 16374 H 1531.81 1.60178 -0.235517 0
M  V30 16375 H 1533.8 3.29844 2.3449 0
M  V30 16376 H 1532.37 2.25068 2.1694 0
M  V30 16377 H 1531.59 3.92776 0.334712 0
M  V30 16378 H 1532.88 5.0085 0.895939 0
M  V30 16379 H 1532.28 4.06511 3.93402 0
M  V30 16380 H 1530.83 4.94295 4.24871 0
M  V30 16381 N 1534.27 0.138579 1.5699 0
M  V30 16382 C 1535.21 -0.804305 2.16332 0
M  V30 16383 C 1536.18 -1.25002 1.09379 0
M  V30 16384 O 1537.37 -1.32405 1.37381 0
M  V30 16385 C 1534.51 -2.04137 2.78248 0
M  V30 16386 C 1533.62 -1.64223 3.99568 0
M  V30 16387 C 1532.76 -2.83046 4.49509 0
M  V30 16388 C 1531.8 -2.39465 5.63314 0
M  V30 16389 N 1530.93 -3.51267 6.07911 0
M  V30 16390 H 1535.77 -0.29144 2.96571 0
M  V30 16391 H 1533.31 -0.132146 1.46505 0
M  V30 16392 H 1535.27 -2.76646 3.12286 0
M  V30 16393 H 1533.9 -2.52849 2.00667 0
M  V30 16394 H 1532.95 -0.815123 3.71564 0
M  V30 16395 H 1534.26 -1.2821 4.82041 0
M  V30 16396 H 1533.42 -3.63755 4.85559 0
M  V30 16397 H 1532.16 -3.22298 3.66026 0
M  V30 16398 H 1531.16 -1.57193 5.2685 0
M  V30 16399 H 1532.39 -2.01307 6.48577 0
M  V30 16400 H 1530.33 -3.90156 5.27365 0
M  V30 16401 H 1530.25 -3.19241 6.85289 0
M  V30 16402 H 1531.52 -4.32358 6.48604 0
M  V30 16403 N 1535.75 -1.57019 -0.13521 0
M  V30 16404 C 1536.69 -1.99148 -1.16657 0
M  V30 16405 C 1537.66 -0.860947 -1.42045 0
M  V30 16406 O 1538.85 -1.12393 -1.54183 0
M  V30 16407 C 1535.99 -2.3872 -2.49212 0
M  V30 16408 C 1535.1 -3.65117 -2.30898 0
M  V30 16409 C 1534.24 -3.9374 -3.5657 0
M  V30 16410 C 1533.27 -5.1337 -3.33343 0
M  V30 16411 N 1532.41 -5.37945 -4.51176 0
M  V30 16412 H 1537.25 -2.87052 -0.800312 0
M  V30 16413 H 1534.79 -1.42007 -0.383705 0
M  V30 16414 H 1536.75 -2.59695 -3.26518 0
M  V30 16415 H 1535.38 -1.53879 -2.83762 0
M  V30 16416 H 1534.43 -3.5185 -1.44588 0
M  V30 16417 H 1535.74 -4.52578 -2.09701 0
M  V30 16418 H 1534.89 -4.15277 -4.423 0
M  V30 16419 H 1533.63 -3.04723 -3.80782 0
M  V30 16420 H 1532.64 -4.91694 -2.46002 0
M  V30 16421 H 1533.86 -6.0395 -3.10517 0
M  V30 16422 H 1531.81 -4.51884 -4.75539 0
M  V30 16423 H 1531.73 -6.19698 -4.33025 0
M  V30 16424 H 1532.99 -5.63989 -5.38086 0
M  V30 16425 N 1537.22 0.404919 -1.52309 0
M  V30 16426 C 1538.64 0.743846 -1.41206 0
M  V30 16427 C 1538.84 1.94678 -0.519874 0
M  V30 16428 O 1537.9 2.52497 0.0127417 0
M  V30 16429 C 1539.21 0.99384 -2.83802 0
M  V30 16430 C 1540.76 1.0963 -2.93173 0
M  V30 16431 C 1541.23 1.37902 -4.36746 0
M  V30 16432 N 1542.72 1.44758 -4.39999 0
M  V30 16433 C 1543.46 1.68269 -5.48154 0
M  V30 16434 N 1542.95 1.89356 -6.6642 0
M  V30 16435 N 1544.75 1.70318 -5.35675 0
M  V30 16436 H 1536.9 -0.386855 -2.08847 0
M  V30 16437 H 1539.16 -0.110811 -0.941501 0
M  V30 16438 H 1538.87 0.182249 -3.51227 0
M  V30 16439 H 1538.74 1.91287 -3.25099 0
M  V30 16440 H 1541.13 1.89847 -2.25925 0
M  V30 16441 H 1541.21 0.155539 -2.55327 0
M  V30 16442 H 1540.85 0.582004 -5.04554 0
M  V30 16443 H 1540.78 2.33237 -4.72132 0
M  V30 16444 H 1543.27 1.30235 -3.5475 0
M  V30 16445 H 1543.59 2.06758 -7.44628 0
M  V30 16446 H 1541.93 1.86612 -6.69478 0
M  V30 16447 H 1545.12 1.53385 -4.42256 0
M  V30 16448 H 1545.3 1.88302 -6.20037 0
M  V30 16449 N 1538.7 1.43003 0.662408 0
M  V30 16450 C 1539.93 1.47341 1.44825 0
M  V30 16451 C 1540.34 0.0870204 1.89 0
M  V30 16452 O 1539.68 -0.911158 1.59511 0
M  V30 16453 C 1539.75 2.34882 2.7216 0
M  V30 16454 C 1539.41 3.82567 2.49983 0
M  V30 16455 C 1540.41 4.73909 2.13791 0
M  V30 16456 C 1538.09 4.26962 2.64592 0
M  V30 16457 C 1540.09 6.07639 1.92493 0
M  V30 16458 C 1537.77 5.60748 2.4291 0
M  V30 16459 C 1538.77 6.50903 2.06915 0
M  V30 16460 O 1538.46 7.82217 1.85451 0
M  V30 16461 H 1538.19 0.502932 0.451703 0
M  V30 16462 H 1540.74 1.88312 0.820224 0
M  V30 16463 H 1538.97 1.88782 3.37488 0
M  V30 16464 H 1540.66 2.3053 3.34082 0
M  V30 16465 H 1541.43 4.40892 2.02088 0
M  V30 16466 H 1537.31 3.5707 2.91586 0
M  V30 16467 H 1540.85 6.77971 1.64321 0
M  V30 16468 H 1536.75 5.93335 2.54212 0
M  V30 16469 H 1537.52 7.93702 1.9995 0
M  V30 16470 N 1540.18 -0.899904 1.29381 0
M  V30 16471 C 1541.09 -2.03699 1.16378 0
M  V30 16472 C 1542.11 -1.73782 0.0870792 0
M  V30 16473 O 1543.28 -1.99167 0.299109 0
M  V30 16474 C 1540.35 -3.36341 0.841166 0
M  V30 16475 C 1539.41 -3.79778 2.00168 0
M  V30 16476 C 1538.64 -5.0609 1.69437 0
M  V30 16477 O 1538.86 -5.67073 0.615212 0
M  V30 16478 O 1537.8 -5.45574 2.54229 0
M  V30 16479 H 1541.62 -2.17592 2.11866 0
M  V30 16480 H 1539.21 -1.02353 1.08831 0
M  V30 16481 H 1541.09 -4.15946 0.675803 0
M  V30 16482 H 1539.77 -3.23591 -0.0839376 0
M  V30 16483 H 1538.67 -3.00941 2.22229 0
M  V30 16484 H 1540.01 -3.97111 2.90798 0
M  V30 16485 N 1541.66 -1.11854 -1.11024 0
M  V30 16486 C 1542.9 -0.871362 -1.83126 0
M  V30 16487 C 1543.24 0.601437 -1.84652 0
M  V30 16488 O 1542.51 1.44427 -1.30273 0
M  V30 16489 C 1542.8 -1.4391 -3.30094 0
M  V30 16490 C 1542.65 -2.97983 -3.36937 0
M  V30 16491 C 1543.97 -1.09361 -4.26296 0
M  V30 16492 H 1541.09 -0.317994 -0.664867 0
M  V30 16493 H 1543.73 -1.38414 -1.3016 0
M  V30 16494 H 1541.88 -1.00297 -3.7533 0
M  V30 16495 H 1543.55 -3.50231 -3.00227 0
M  V30 16496 H 1541.79 -3.33827 -2.77023 0
M  V30 16497 H 1542.46 -3.32797 -4.40398 0
M  V30 16498 H 1544.94 -1.47018 -3.89262 0
M  V30 16499 H 1543.82 -1.51756 -5.27505 0
M  V30 16500 H 1544.08 -0.0049637 -4.421 0
M  V30 16501 N 1543.14 1.28707 -0.909517 0
M  V30 16502 C 1544.55 1.77212 -0.587613 0
M  V30 16503 C 1544.9 1.74495 0.896986 0
M  V30 16504 O 1544.02 1.33698 1.70158 0
M  V30 16505 C 1544.62 3.21794 -1.05989 0
M  V30 16506 C 1543.18 3.68038 -0.788983 0
M  V30 16507 C 1542.32 2.48576 -1.22903 0
M  V30 16508 H 1545.28 1.1523 -1.09122 0
M  V30 16509 H 1545.3 3.78397 -0.399469 0
M  V30 16510 H 1544.81 3.23739 -2.14043 0
M  V30 16511 H 1542.91 3.71558 0.278523 0
M  V30 16512 H 1543.02 4.58379 -1.39376 0
M  V30 16513 H 1541.39 2.46323 -0.647838 0
M  V30 16514 H 1542.17 2.53243 -2.31782 0
M  V30 16515 N 1544.61 0.673042 1.42506 0
M  V30 16516 C 1545.86 0.194864 2.01862 0
M  V30 16517 C 1546.19 -1.19491 1.53087 0
M  V30 16518 O 1545.47 -1.80187 0.732322 0
M  V30 16519 C 1545.75 0.227559 3.5938 0
M  V30 16520 C 1545.6 1.65266 4.18338 0
M  V30 16521 C 1546.92 -0.425197 4.38041 0
M  V30 16522 H 1544.04 0.0722831 0.733447 0
M  V30 16523 H 1546.68 0.857493 1.6955 0
M  V30 16524 H 1544.83 -0.336658 3.87039 0
M  V30 16525 H 1546.51 2.26899 4.0164 0
M  V30 16526 H 1544.75 2.19388 3.74234 0
M  V30 16527 H 1545.42 1.62724 5.2747 0
M  V30 16528 H 1547.9 0.0550709 4.16064 0
M  V30 16529 H 1546.77 -0.371675 5.4764 0
M  V30 16530 H 1547.03 -1.50251 4.15785 0
M  V30 16531 N 1546.09 -1.52004 0.416254 0
M  V30 16532 C 1547.5 -1.86628 -0.0517247 0
M  V30 16533 C 1547.85 -1.33463 -1.43813 0
M  V30 16534 O 1546.98 -0.676793 -2.05544 0
M  V30 16535 C 1547.57 -3.38651 -0.100637 0
M  V30 16536 C 1546.13 -3.72888 -0.512969 0
M  V30 16537 C 1545.28 -2.75584 0.307975 0
M  V30 16538 H 1548.23 -1.45529 0.633018 0
M  V30 16539 H 1548.25 -3.69348 -0.914465 0
M  V30 16540 H 1547.76 -3.77316 0.908538 0
M  V30 16541 H 1545.87 -3.39804 -1.52852 0
M  V30 16542 H 1545.98 -4.78435 -0.252408 0
M  V30 16543 H 1544.34 -2.53653 -0.230717 0
M  V30 16544 H 1545.13 -3.1709 1.31563 0
M  V30 16545 N 1547.57 -0.146903 -1.56914 0
M  V30 16546 C 1548.5 0.788924 -2.19769 0
M  V30 16547 C 1549.48 1.25712 -1.14589 0
M  V30 16548 O 1550.67 1.3147 -1.42931 0
M  V30 16549 C 1547.8 2.02824 -2.81921 0
M  V30 16550 C 1546.75 1.69683 -3.92927 0
M  V30 16551 C 1546.08 3.00877 -4.42015 0
M  V30 16552 C 1547.38 0.943559 -5.13706 0
M  V30 16553 H 1549.07 0.265076 -2.98224 0
M  V30 16554 H 1546.62 0.126057 -1.43447 0
M  V30 16555 H 1548.57 2.68773 -3.2456 0
M  V30 16556 H 1547.29 2.57581 -2.00797 0
M  V30 16557 H 1545.95 1.06112 -3.50907 0
M  V30 16558 H 1545.6 3.53625 -3.57713 0
M  V30 16559 H 1545.3 2.79466 -5.16888 0
M  V30 16560 H 1546.82 3.67897 -4.87323 0
M  V30 16561 H 1548.24 1.50513 -5.5319 0
M  V30 16562 H 1546.64 0.829387 -5.94341 0
M  V30 16563 H 1547.71 -0.0647228 -4.84857 0
M  V30 16564 N 1549.05 1.57088 0.126881 0
M  V30 16565 C 1550 2.00736 1.17506 0
M  V30 16566 C 1550.99 0.902986 1.43327 0
M  V30 16567 O 1552.2 1.08819 1.43382 0
M  V30 16568 H 1548.57 0.639285 0.396003 0
M  V30 16569 H 1550.54 2.88015 0.780373 0
M  V30 16570 C 1549.29 2.42096 2.49569 0
M  V30 16571 H 1548.61 3.26639 2.30536 0
M  V30 16572 H 1550.05 2.76442 3.2149 0
M  V30 16573 C 1548.51 1.28148 3.11576 0
M  V30 16574 O 1549.04 0.593145 3.97297 0
M  V30 16575 N 1547.25 1.04055 2.71332 0
M  V30 16576 H 1546.8 1.60208 2.0172 0
M  V30 16577 H 1546.75 0.280075 3.1315 0
M  V30 16578 N 1550.53 -0.396836 1.52522 0
M  V30 16579 C 1551.78 -1.13978 1.66409 0
M  V30 16580 C 1552.09 -1.91333 0.406326 0
M  V30 16581 O 1553.29 -2.6815 0.425195 0
M  V30 16582 C 1551.75 -2.07512 2.94052 0
M  V30 16583 C 1551.36 -1.35616 4.2698 0
M  V30 16584 C 1553.1 -2.8199 3.17304 0
M  V30 16585 C 1551.01 -2.2787 5.45737 0
M  V30 16586 H 1549.94 -0.429181 0.619935 0
M  V30 16587 H 1552.59 -0.403207 1.79015 0
M  V30 16588 H 1550.97 -2.84773 2.75174 0
M  V30 16589 H 1552.15 -0.636349 4.56385 0
M  V30 16590 H 1550.46 -0.731297 4.09928 0
M  V30 16591 H 1553.06 -3.5118 4.03208 0
M  V30 16592 H 1553.4 -3.45629 2.32048 0
M  V30 16593 H 1553.93 -2.11824 3.36712 0
M  V30 16594 H 1550.67 -1.68858 6.33378 0
M  V30 16595 H 1550.19 -2.97789 5.20655 0
M  V30 16596 H 1551.87 -2.88126 5.79303 0
M  V30 16597 N 1552.01 -1.43353 -0.654814 0
M  V30 16598 C 1553.42 -1.39933 -1.23595 0
M  V30 16599 C 1553.77 -0.102592 -1.95932 0
M  V30 16600 O 1552.89 0.798021 -2.01148 0
M  V30 16601 C 1553.49 -2.53483 -2.24793 0
M  V30 16602 C 1552.05 -2.53333 -2.78387 0
M  V30 16603 C 1551.19 -2.31268 -1.53005 0
M  V30 16604 H 1554.14 -1.52277 -0.446932 0
M  V30 16605 H 1554.17 -2.2488 -3.06935 0
M  V30 16606 H 1553.68 -3.47847 -1.72116 0
M  V30 16607 H 1551.78 -1.62844 -3.35131 0
M  V30 16608 H 1551.89 -3.51047 -3.26041 0
M  V30 16609 H 1550.26 -1.79905 -1.80295 0
M  V30 16610 H 1551.04 -3.27714 -1.02266 0
M  V30 16611 N 1553.48 0.89303 -1.29857 0
M  V30 16612 C 1554.71 1.67744 -1.21119 0
M  V30 16613 C 1555.13 1.87428 0.227198 0
M  V30 16614 O 1554.48 1.41605 1.15128 0
M  V30 16615 C 1554.53 3.05827 -1.92749 0
M  V30 16616 O 1554.26 2.87036 -3.30971 0
M  V30 16617 C 1555.76 4.00248 -1.9057 0
M  V30 16618 H 1552.98 0.523699 -0.4195 0
M  V30 16619 H 1555.52 1.1163 -1.71344 0
M  V30 16620 H 1553.68 3.58696 -1.46342 0
M  V30 16621 H 1554.09 3.74578 -3.6714 0
M  V30 16622 H 1555.56 4.9453 -2.45242 0
M  V30 16623 H 1556.04 4.30237 -0.882753 0
M  V30 16624 H 1556.65 3.53312 -2.36751 0
M  V30 16625 N 1554.96 1.12442 1.10429 0
M  V30 16626 C 1556.19 0.902599 1.86174 0
M  V30 16627 C 1556.6 -0.548147 1.80668 0
M  V30 16628 O 1555.96 -1.37898 1.19543 0
M  V30 16629 C 1556.01 1.36912 3.34571 0
M  V30 16630 O 1555.73 2.763 3.39985 0
M  V30 16631 C 1557.23 1.18424 4.27189 0
M  V30 16632 H 1554.45 0.322534 0.588399 0
M  V30 16633 H 1557 1.49439 1.396 0
M  V30 16634 H 1555.15 0.82055 3.7861 0
M  V30 16635 H 1555.57 2.96772 4.32466 0
M  V30 16636 H 1557.04 1.55954 5.29511 0
M  V30 16637 H 1557.52 0.12483 4.39023 0
M  V30 16638 H 1558.12 1.72032 3.88954 0
M  V30 16639 N 1556.44 -1.28223 0.91633 0
M  V30 16640 C 1557.85 -1.76898 0.597003 0
M  V30 16641 C 1558.2 -1.74969 -0.887719 0
M  V30 16642 O 1557.33 -1.34598 -1.69447 0
M  V30 16643 C 1557.92 -3.21228 1.07694 0
M  V30 16644 C 1556.48 -3.67614 0.80849 0
M  V30 16645 C 1555.63 -2.47921 1.24219 0
M  V30 16646 H 1558.58 -1.1465 1.09732 0
M  V30 16647 H 1558.6 -3.7818 0.419531 0
M  V30 16648 H 1558.11 -3.226 2.15757 0
M  V30 16649 H 1556.21 -3.717 -0.258814 0
M  V30 16650 H 1556.33 -4.57633 1.41804 0
M  V30 16651 H 1554.69 -2.45976 0.660892 0
M  V30 16652 H 1555.47 -2.5201 2.33122 0
M  V30 16653 N 1557.92 -0.68059 -1.42147 0
M  V30 16654 C 1559.17 -0.202445 -2.00681 0
M  V30 16655 C 1559.48 1.19997 -1.54467 0
M  V30 16656 O 1560.69 1.77479 -2.05459 0
M  V30 16657 C 1559.14 -0.311064 -3.58553 0
M  V30 16658 C 1558.75 -1.7179 -4.13754 0
M  V30 16659 C 1560.49 0.108072 -4.24362 0
M  V30 16660 C 1558.4 -1.77897 -5.64009 0
M  V30 16661 H 1557.33 -0.0719266 -0.750561 0
M  V30 16662 H 1559.98 -0.846614 -1.62803 0
M  V30 16663 H 1558.36 0.401098 -3.93963 0
M  V30 16664 H 1559.54 -2.45761 -3.89793 0
M  V30 16665 H 1557.85 -2.08539 -3.60417 0
M  V30 16666 H 1560.45 0.0826684 -5.34636 0
M  V30 16667 H 1560.79 1.14431 -4.00264 0
M  V30 16668 H 1561.33 -0.553285 -3.93933 0
M  V30 16669 H 1558.06 -2.79523 -5.92914 0
M  V30 16670 H 1557.58 -1.0829 -5.89944 0
M  V30 16671 H 1559.26 -1.53504 -6.28527 0
M  V30 16672 N 1559.4 1.51781 -0.424309 0
M  V30 16673 C 1560.62 2.06871 0.147968 0
M  V30 16674 C 1561.05 1.29093 1.36808 0
M  V30 16675 O 1560.4 0.325279 1.78358 0
M  V30 16676 C 1560.45 3.57631 0.461757 0
M  V30 16677 O 1559.56 3.82149 1.55035 0
M  V30 16678 H 1558.9 0.663957 0.00757275 0
M  V30 16679 H 1561.43 1.95547 -0.601888 0
M  V30 16680 H 1561.44 4.01668 0.716005 0
M  V30 16681 H 1560.11 4.1367 -0.430081 0
M  V30 16682 H 1558.69 3.49984 1.28709 0
M  V30 16683 N 1560.87 0.155222 1.56834 0
M  V30 16684 C 1562.1 -0.500542 2.00754 0
M  V30 16685 C 1562.52 -1.57878 1.03538 0
M  V30 16686 O 1561.87 -1.82469 0.0336651 0
M  V30 16687 C 1561.92 -1.09366 3.4456 0
M  V30 16688 O 1561.65 -0.0584788 4.38061 0
M  V30 16689 C 1563.15 -1.82923 4.038 0
M  V30 16690 H 1560.37 -0.129589 0.658368 0
M  V30 16691 H 1562.91 0.252223 2.02939 0
M  V30 16692 H 1561.07 -1.797 3.43201 0
M  V30 16693 H 1561.48 -0.494125 5.22167 0
M  V30 16694 H 1562.95 -2.19703 5.06394 0
M  V30 16695 H 1563.43 -2.71823 3.44976 0
M  V30 16696 H 1564.04 -1.17268 4.08813 0
M  V30 16697 N 1562.35 -1.57153 -0.118549 0
M  V30 16698 C 1563.58 -1.88788 -0.83921 0
M  V30 16699 C 1563.99 -0.744621 -1.73931 0
M  V30 16700 O 1563.33 0.293567 -1.81339 0
M  V30 16701 C 1563.39 -3.15441 -1.72446 0
M  V30 16702 C 1563.06 -4.45956 -0.998613 0
M  V30 16703 C 1564.06 -5.18792 -0.339214 0
M  V30 16704 C 1561.74 -4.92654 -0.979657 0
M  V30 16705 C 1563.73 -6.36548 0.329438 0
M  V30 16706 C 1561.42 -6.10327 -0.307207 0
M  V30 16707 C 1562.42 -6.82122 0.346185 0
M  V30 16708 O 1562.11 -7.97557 1.0079 0
M  V30 16709 H 1561.84 -0.629445 -0.246526 0
M  V30 16710 H 1564.39 -2.05119 -0.10736 0
M  V30 16711 H 1562.62 -2.95193 -2.49796 0
M  V30 16712 H 1564.31 -3.33092 -2.31958 0
M  V30 16713 H 1565.08 -4.83768 -0.345475 0
M  V30 16714 H 1560.96 -4.36676 -1.47766 0
M  V30 16715 H 1564.5 -6.92524 0.840013 0
M  V30 16716 H 1560.4 -6.44808 -0.29871 0
M  V30 16717 H 1561.17 -8.13398 0.912427 0
M  V30 16718 N 1563.83 0.388742 -1.5273 0
M  V30 16719 C 1564.74 1.49916 -1.8045 0
M  V30 16720 C 1565.76 1.59679 -0.691282 0
M  V30 16721 O 1566.93 1.7601 -0.978898 0
M  V30 16722 C 1564 2.85445 -1.96779 0
M  V30 16723 C 1563.06 2.85402 -3.20693 0
M  V30 16724 C 1562.29 4.14466 -3.36234 0
M  V30 16725 O 1562.51 5.09436 -2.56576 0
M  V30 16726 O 1561.45 4.2169 -4.29489 0
M  V30 16727 H 1565.27 1.29423 -2.74743 0
M  V30 16728 H 1562.86 0.576607 -1.37825 0
M  V30 16729 H 1564.74 3.65791 -2.09224 0
M  V30 16730 H 1563.42 3.05964 -1.05676 0
M  V30 16731 H 1562.32 2.03836 -3.1369 0
M  V30 16732 H 1563.66 2.69835 -4.11643 0
M  V30 16733 N 1565.31 1.43698 0.647203 0
M  V30 16734 C 1566.58 1.3611 1.40476 0
M  V30 16735 C 1566.96 0.0118567 2.11097 0
M  V30 16736 O 1566.31 -1.00496 2.05214 0
M  V30 16737 C 1566.52 2.5484 2.38448 0
M  V30 16738 C 1567.87 2.98195 3.02267 0
M  V30 16739 O 1568.89 2.5493 2.48775 0
M  V30 16740 O 1567.75 3.73162 3.99265 0
M  V30 16741 H 1564.85 0.538198 0.62791 0
M  V30 16742 H 1567.39 1.55758 0.673606 0
M  V30 16743 H 1566.17 3.4467 1.85253 0
M  V30 16744 H 1565.79 2.37323 3.19004 0
M  V30 16745 N 1566.79 -0.886131 1.30328 0
M  V30 16746 C 1568.2 -1.16922 1.08634 0
M  V30 16747 C 1568.4 -2.00913 -0.15365 0
M  V30 16748 O 1567.46 -2.37849 -0.847592 0
M  V30 16749 C 1568.77 -1.87701 2.34923 0
M  V30 16750 C 1570.32 -2.0047 2.40376 0
M  V30 16751 C 1570.79 -2.74662 3.66504 0
M  V30 16752 N 1572.29 -2.82208 3.67305 0
M  V30 16753 C 1573.02 -3.40185 4.61586 0
M  V30 16754 N 1572.52 -3.99221 5.66211 0
M  V30 16755 N 1574.31 -3.37989 4.49132 0
M  V30 16756 H 1566.46 -0.326064 2.09882 0
M  V30 16757 H 1568.72 -0.206996 0.925125 0
M  V30 16758 H 1568.43 -1.33427 3.25408 0
M  V30 16759 H 1568.3 -2.88092 2.43481 0
M  V30 16760 H 1570.69 -2.53914 1.50371 0
M  V30 16761 H 1570.77 -0.991709 2.35794 0
M  V30 16762 H 1570.42 -2.2189 4.56867 0
M  V30 16763 H 1570.35 -3.76335 3.68347 0
M  V30 16764 H 1572.84 -2.40292 2.91665 0
M  V30 16765 H 1573.15 -4.41522 6.34254 0
M  V30 16766 H 1571.49 -3.97643 5.70004 0
M  V30 16767 H 1574.69 -2.91096 3.6658 0
M  V30 16768 H 1574.86 -3.82877 5.2279 0
M  V30 16769 N 1568.26 -1.13026 -1.09832 0
M  V30 16770 C 1569.19 -0.826338 -2.18389 0
M  V30 16771 C 1570.18 0.212529 -1.68767 0
M  V30 16772 O 1571.36 0.072363 -1.94065 0
M  V30 16773 C 1568.49 -0.286991 -3.46112 0
M  V30 16774 C 1567.44 -1.25963 -4.09044 0
M  V30 16775 C 1566.77 -0.580231 -5.31542 0
M  V30 16776 C 1568.07 -2.61661 -4.5203 0
M  V30 16777 H 1569.76 -1.73408 -2.4407 0
M  V30 16778 H 1567.31 -0.835201 -1.17305 0
M  V30 16779 H 1569.26 -0.062067 -4.21354 0
M  V30 16780 H 1567.99 0.656121 -3.19942 0
M  V30 16781 H 1566.65 -1.47047 -3.35816 0
M  V30 16782 H 1566.29 0.368222 -5.0165 0
M  V30 16783 H 1565.99 -1.2291 -5.74601 0
M  V30 16784 H 1567.52 -0.36449 -6.09511 0
M  V30 16785 H 1568.93 -2.44569 -5.18516 0
M  V30 16786 H 1567.33 -3.22685 -5.05959 0
M  V30 16787 H 1568.4 -3.19637 -3.64637 0
M  V30 16788 N 1569.74 1.27735 -0.923117 0
M  V30 16789 C 1570.97 1.98394 -0.57648 0
M  V30 16790 C 1571.38 1.69093 0.848778 0
M  V30 16791 O 1570.72 0.945385 1.57506 0
M  V30 16792 C 1570.79 3.52278 -0.716984 0
M  V30 16793 C 1570.45 4.05191 -2.11351 0
M  V30 16794 C 1571.45 4.18314 -3.08722 0
M  V30 16795 C 1569.13 4.39652 -2.42922 0
M  V30 16796 C 1571.13 4.65166 -4.35774 0
M  V30 16797 C 1568.81 4.86196 -3.70211 0
M  V30 16798 C 1569.81 4.98911 -4.66451 0
M  V30 16799 O 1569.5 5.44437 -5.91476 0
M  V30 16800 H 1569.23 0.640008 -0.217636 0
M  V30 16801 H 1571.78 1.63666 -1.24107 0
M  V30 16802 H 1570.01 3.867 0.00469601 0
M  V30 16803 H 1571.7 4.04154 -0.376077 0
M  V30 16804 H 1572.47 3.91955 -2.85651 0
M  V30 16805 H 1568.35 4.29 -1.6876 0
M  V30 16806 H 1571.89 4.75006 -5.10896 0
M  V30 16807 H 1567.79 5.11997 -3.93103 0
M  V30 16808 H 1568.56 5.62701 -5.94399 0
M  V30 16809 N 1571.22 0.688118 1.41784 0
M  V30 16810 C 1572.5 0.144304 1.95067 0
M  V30 16811 C 1572.88 -1.34399 1.62789 0
M  V30 16812 O 1572.23 -2.08675 0.930978 0
M  V30 16813 C 1572.44 0.427641 3.4637 0
M  V30 16814 C 1573.78 0.351345 4.23144 0
M  V30 16815 O 1574.81 0.362134 3.54354 0
M  V30 16816 O 1573.67 0.305018 5.45648 0
M  V30 16817 H 1570.76 0.01062 0.826932 0
M  V30 16818 H 1573.31 0.763766 1.51541 0
M  V30 16819 H 1572.08 1.4581 3.63119 0
M  V30 16820 H 1571.7 -0.223167 3.96973 0
M  V30 16821 N 1572.7 -1.51554 0.432352 0
M  V30 16822 C 1573.94 -2.02344 -0.13598 0
M  V30 16823 C 1574.28 -1.31619 -1.42794 0
M  V30 16824 O 1573.55 -0.42957 -1.89697 0
M  V30 16825 C 1573.84 -3.58297 -0.359865 0
M  V30 16826 C 1573.69 -4.39645 0.950399 0
M  V30 16827 C 1575.01 -4.25297 -1.13184 0
M  V30 16828 H 1572.13 -0.735439 -0.0479461 0
M  V30 16829 H 1574.77 -1.81237 0.570373 0
M  V30 16830 H 1572.92 -3.76413 -0.961547 0
M  V30 16831 H 1574.59 -4.3319 1.58568 0
M  V30 16832 H 1572.83 -4.04928 1.55614 0
M  V30 16833 H 1573.5 -5.46911 0.747852 0
M  V30 16834 H 1575.98 -4.11421 -0.622231 0
M  V30 16835 H 1574.86 -5.34307 -1.25726 0
M  V30 16836 H 1575.12 -3.85818 -2.15862 0
M  V30 16837 N 1574.18 -0.163538 -1.56749 0
M  V30 16838 C 1575.09 0.782461 -2.21167 0
M  V30 16839 C 1576.1 1.25911 -1.20093 0
M  V30 16840 O 1577.28 1.31286 -1.52728 0
M  V30 16841 C 1574.34 1.99761 -2.83366 0
M  V30 16842 C 1573.4 1.56859 -3.99617 0
M  V30 16843 C 1572.64 2.72582 -4.58841 0
M  V30 16844 O 1572.86 3.89243 -4.16949 0
M  V30 16845 O 1571.79 2.47104 -5.48838 0
M  V30 16846 H 1575.62 0.264023 -3.0255 0
M  V30 16847 H 1573.21 0.06429 -1.49262 0
M  V30 16848 H 1575.09 2.70843 -3.22835 0
M  V30 16849 H 1573.76 2.50526 -2.04984 0
M  V30 16850 H 1572.67 0.827511 -3.64833 0
M  V30 16851 H 1574 1.10794 -4.79568 0
M  V30 16852 N 1575.65 1.57214 0.110213 0
M  V30 16853 C 1576.9 1.84498 0.815059 0
M  V30 16854 C 1577.22 0.750531 1.80628 0
M  V30 16855 O 1578.42 0.910042 2.55794 0
M  V30 16856 C 1576.88 3.27138 1.50028 0
M  V30 16857 C 1576.49 4.44616 0.549603 0
M  V30 16858 C 1578.23 3.63662 2.18975 0
M  V30 16859 C 1576.14 5.78285 1.23855 0
M  V30 16860 H 1575.07 0.688165 0.308132 0
M  V30 16861 H 1577.72 1.83374 0.0678595 0
M  V30 16862 H 1576.1 3.22758 2.29441 0
M  V30 16863 H 1577.27 4.60312 -0.211944 0
M  V30 16864 H 1575.59 4.16387 -0.0333571 0
M  V30 16865 H 1578.19 4.60804 2.71226 0
M  V30 16866 H 1578.53 2.91532 2.97178 0
M  V30 16867 H 1579.06 3.69865 1.46439 0
M  V30 16868 H 1575.8 6.53608 0.497629 0
M  V30 16869 H 1575.32 5.66459 1.9719 0
M  V30 16870 H 1577 6.22338 1.76929 0
M  V30 16871 N 1577.13 -0.380637 1.52934 0
M  V30 16872 C 1578.08 -1.46544 1.78307 0
M  V30 16873 C 1579.05 -1.53825 0.626671 0
M  V30 16874 O 1580.23 -1.6995 0.867276 0
M  V30 16875 C 1577.37 -2.83676 1.96525 0
M  V30 16876 C 1576.49 -2.85481 3.24229 0
M  V30 16877 C 1575.62 -4.14092 3.32718 0
M  V30 16878 C 1574.66 -4.09982 4.54512 0
M  V30 16879 N 1573.8 -5.30214 4.60237 0
M  V30 16880 H 1578.64 -1.24209 2.7088 0
M  V30 16881 H 1576.18 -0.60241 1.34199 0
M  V30 16882 H 1578.13 -3.63319 2.05073 0
M  V30 16883 H 1576.76 -3.04443 1.07304 0
M  V30 16884 H 1575.82 -1.98159 3.24711 0
M  V30 16885 H 1577.13 -2.78313 4.13936 0
M  V30 16886 H 1576.28 -5.02144 3.40494 0
M  V30 16887 H 1575.02 -4.23993 2.41 0
M  V30 16888 H 1574.03 -3.20317 4.46852 0
M  V30 16889 H 1575.25 -4.01696 5.47556 0
M  V30 16890 H 1573.2 -5.40729 3.71414 0
M  V30 16891 H 1573.11 -5.25155 5.43827 0
M  V30 16892 H 1574.38 -6.2014 4.72279 0
M  V30 16893 N 1578.61 -1.44039 -0.639573 0
M  V30 16894 C 1579.52 -1.52728 -1.78077 0
M  V30 16895 C 1580.54 -0.413467 -1.69016 0
M  V30 16896 O 1581.71 -0.669592 -1.89943 0
M  V30 16897 C 1578.78 -1.46078 -3.14424 0
M  V30 16898 C 1577.84 -2.68242 -3.35179 0
M  V30 16899 C 1577.07 -2.61899 -4.65021 0
M  V30 16900 O 1577.29 -1.67431 -5.45273 0
M  V30 16901 O 1576.23 -3.52619 -4.87795 0
M  V30 16902 H 1580.05 -2.49122 -1.737 0
M  V30 16903 H 1577.64 -1.26191 -0.799755 0
M  V30 16904 H 1579.52 -1.44861 -3.95719 0
M  V30 16905 H 1578.2 -0.528236 -3.19361 0
M  V30 16906 H 1577.1 -2.75028 -2.53595 0
M  V30 16907 H 1578.44 -3.60514 -3.35098 0
M  V30 16908 N 1580.09 0.879207 -1.30796 0
M  V30 16909 C 1581.04 2.00692 -1.17582 0
M  V30 16910 C 1582.03 1.6918 -0.0863163 0
M  V30 16911 O 1583.24 1.78289 -0.24757 0
M  V30 16912 H 1579.61 0.65814 -0.363808 0
M  V30 16913 H 1581.58 2.0897 -2.13012 0
M  V30 16914 C 1580.33 3.36105 -0.890429 0
M  V30 16915 H 1579.65 3.60868 -1.72088 0
M  V30 16916 H 1581.09 4.15634 -0.838103 0
M  V30 16917 C 1579.55 3.34436 0.406734 0
M  V30 16918 O 1580.08 3.7552 1.42645 0
M  V30 16919 N 1578.29 2.87549 0.419963 0
M  V30 16920 H 1577.84 2.54311 -0.410343 0
M  V30 16921 H 1577.79 2.86815 1.28781 0
M  V30 16922 N 1581.57 1.13606 1.09231 0
M  V30 16923 C 1582.98 0.91148 1.62938 0
M  V30 16924 C 1583.33 -0.55157 1.88287 0
M  V30 16925 O 1582.45 -1.4187 1.63407 0
M  V30 16926 C 1583.05 1.64812 2.96011 0
M  V30 16927 C 1581.61 1.46935 3.46536 0
M  V30 16928 C 1580.76 1.67605 2.20916 0
M  V30 16929 H 1583.71 1.28907 0.925669 0
M  V30 16930 H 1583.73 1.10638 3.6406 0
M  V30 16931 H 1583.24 2.71291 2.77529 0
M  V30 16932 H 1581.34 0.427667 3.70138 0
M  V30 16933 H 1581.45 2.23374 4.2384 0
M  V30 16934 H 1579.82 1.10105 2.29672 0
M  V30 16935 H 1580.6 2.75408 2.04952 0
M  V30 16936 N 1583.05 -1.27244 0.929878 0
M  V30 16937 C 1584.29 -1.94269 0.57146 0
M  V30 16938 C 1584.62 -1.73064 -0.887639 0
M  V30 16939 O 1583.88 -1.05422 -1.64878 0
M  V30 16940 C 1584.17 -3.47233 0.846386 0
M  V30 16941 C 1583.84 -3.88563 2.28757 0
M  V30 16942 C 1582.5 -3.99557 2.68156 0
M  V30 16943 C 1584.85 -4.09468 3.22467 0
M  V30 16944 C 1582.18 -4.28846 4.00385 0
M  V30 16945 C 1584.53 -4.40242 4.54279 0
M  V30 16946 C 1583.2 -4.4945 4.93509 0
M  V30 16947 H 1582.47 -0.710882 0.209112 0
M  V30 16948 H 1585.12 -1.51273 1.17425 0
M  V30 16949 H 1583.42 -3.91469 0.160941 0
M  V30 16950 H 1585.12 -3.97238 0.548006 0
M  V30 16951 H 1581.71 -3.80544 1.97192 0
M  V30 16952 H 1585.89 -4.00412 2.9323 0
M  V30 16953 H 1581.15 -4.34184 4.30458 0
M  V30 16954 H 1585.32 -4.55365 5.26892 0
M  V30 16955 H 1582.95 -4.71899 5.95999 0
M  V30 16956 N 1584.52 -0.695628 -1.41417 0
M  V30 16957 C 1585.77 -0.226171 -2.0083 0
M  V30 16958 C 1586.09 1.17833 -1.55371 0
M  V30 16959 O 1585.36 1.79512 -0.784362 0
M  V30 16960 H 1583.94 -0.0806271 -0.742636 0
M  V30 16961 H 1586.6 -0.8968 -1.73042 0
M  V30 16962 H 1585.7 -0.243643 -3.11148 0
M  V30 16963 N 1586 1.51322 -0.440383 0
M  V30 16964 C 1587.25 2.01302 0.126581 0
M  V30 16965 C 1587.56 1.32898 1.43518 0
M  V30 16966 O 1588.77 1.73864 2.08527 0
M  V30 16967 C 1587.23 3.58839 0.276126 0
M  V30 16968 C 1586.83 4.36182 -1.02222 0
M  V30 16969 C 1588.58 4.16957 0.796697 0
M  V30 16970 C 1586.48 5.85431 -0.838148 0
M  V30 16971 H 1585.41 0.752268 0.0510809 0
M  V30 16972 H 1588.07 1.74403 -0.570609 0
M  V30 16973 H 1586.45 3.82198 1.03639 0
M  V30 16974 H 1587.62 4.24568 -1.79105 0
M  V30 16975 H 1585.94 3.89531 -1.47155 0
M  V30 16976 H 1588.53 5.26176 0.95095 0
M  V30 16977 H 1588.88 3.76329 1.77996 0
M  V30 16978 H 1589.41 3.97687 0.0946613 0
M  V30 16979 H 1586.15 6.30476 -1.79387 0
M  V30 16980 H 1585.67 5.99701 -0.109167 0
M  V30 16981 H 1587.35 6.45122 -0.492547 0
M  V30 16982 N 1587.48 0.171848 1.5666 0
M  V30 16983 C 1588.41 -0.789671 2.15167 0
M  V30 16984 C 1589.42 -1.19335 1.10739 0
M  V30 16985 O 1590.61 -1.13311 1.37924 0
M  V30 16986 C 1587.71 -2.07448 2.6799 0
M  V30 16987 C 1586.89 -1.83429 3.9708 0
M  V30 16988 C 1585.95 -2.96134 4.34961 0
M  V30 16989 O 1584.97 -2.66746 5.02827 0
M  V30 16990 N 1586.17 -4.23932 3.96563 0
M  V30 16991 H 1588.94 -0.289484 2.98299 0
M  V30 16992 H 1586.5 -0.0109154 1.61896 0
M  V30 16993 H 1588.49 -2.81941 2.90329 0
M  V30 16994 H 1587.06 -2.48656 1.89444 0
M  V30 16995 H 1586.28 -0.928376 3.83112 0
M  V30 16996 H 1587.57 -1.64749 4.81389 0
M  V30 16997 H 1586.97 -4.50668 3.41928 0
M  V30 16998 H 1585.52 -4.95126 4.23903 0
M  V30 16999 N 1588.96 -1.5727 -0.101874 0
M  V30 17000 C 1590.21 -1.84928 -0.805263 0
M  V30 17001 C 1590.52 -0.760099 -1.80227 0
M  V30 17002 O 1591.73 -0.923594 -2.55308 0
M  V30 17003 C 1590.18 -3.27929 -1.48291 0
M  V30 17004 C 1589.79 -4.44901 -0.526016 0
M  V30 17005 C 1591.53 -3.64819 -2.17043 0
M  V30 17006 C 1589.44 -5.78934 -1.20787 0
M  V30 17007 H 1588.37 -0.689789 -0.304478 0
M  V30 17008 H 1591.02 -1.83408 -0.0581337 0
M  V30 17009 H 1589.4 -3.2397 -2.27726 0
M  V30 17010 H 1590.58 -4.60193 0.236352 0
M  V30 17011 H 1588.89 -4.16363 0.0554387 0
M  V30 17012 H 1591.49 -4.62236 -2.68778 0
M  V30 17013 H 1591.83 -2.93104 -2.95628 0
M  V30 17014 H 1592.37 -3.70637 -1.44476 0
M  V30 17015 H 1589.1 -6.53863 -0.46296 0
M  V30 17016 H 1588.62 -5.67497 -1.94183 0
M  V30 17017 H 1590.3 -6.23268 -1.73626 0
M  V30 17018 N 1590.44 0.372521 -1.53134 0
M  V30 17019 C 1591.85 0.713727 -1.42752 0
M  V30 17020 C 1592.05 1.93532 -0.561051 0
M  V30 17021 O 1591.11 2.52467 -0.0408195 0
M  V30 17022 C 1592.42 0.933418 -2.85846 0
M  V30 17023 C 1593.97 1.03386 -2.95432 0
M  V30 17024 C 1594.44 1.28607 -4.39573 0
M  V30 17025 N 1595.93 1.35393 -4.42971 0
M  V30 17026 C 1596.67 1.56604 -5.516 0
M  V30 17027 N 1596.17 1.75178 -6.70287 0
M  V30 17028 N 1597.96 1.58917 -5.39168 0
M  V30 17029 H 1590.11 -0.431068 -2.0798 0
M  V30 17030 H 1592.37 -0.130757 -0.938939 0
M  V30 17031 H 1592.08 0.107707 -3.51535 0
M  V30 17032 H 1591.95 1.84348 -3.29083 0
M  V30 17033 H 1594.34 1.85012 -2.29901 0
M  V30 17034 H 1594.42 0.101346 -2.55599 0
M  V30 17035 H 1594.06 0.47485 -5.05675 0
M  V30 17036 H 1593.99 2.2317 -4.76973 0
M  V30 17037 H 1596.49 1.22681 -3.57432 0
M  V30 17038 H 1596.8 1.90916 -7.48846 0
M  V30 17039 H 1595.14 1.7237 -6.73286 0
M  V30 17040 H 1598.33 1.4397 -4.4541 0
M  V30 17041 H 1598.51 1.75108 -6.23892 0
M  V30 17042 N 1591.91 1.44376 0.631925 0
M  V30 17043 C 1593.33 1.28245 0.950014 0
M  V30 17044 C 1593.53 0.217644 2.00321 0
M  V30 17045 O 1592.59 -0.396736 2.49364 0
M  V30 17046 C 1593.9 2.65378 1.41404 0
M  V30 17047 C 1595.45 2.73081 1.52956 0
M  V30 17048 C 1595.92 4.10682 2.02742 0
M  V30 17049 N 1597.41 4.12854 2.10014 0
M  V30 17050 C 1598.15 5.16173 2.49705 0
M  V30 17051 N 1597.64 6.29855 2.88539 0
M  V30 17052 N 1599.44 5.03528 2.49832 0
M  V30 17053 H 1591.59 2.12302 -0.0646167 0
M  V30 17054 H 1593.85 0.9474 0.0337162 0
M  V30 17055 H 1593.56 3.44366 0.714476 0
M  V30 17056 H 1593.43 2.92213 2.3852 0
M  V30 17057 H 1595.82 1.94412 2.22009 0
M  V30 17058 H 1595.9 2.49988 0.542176 0
M  V30 17059 H 1595.54 4.89827 1.34285 0
M  V30 17060 H 1595.47 4.31152 3.02351 0
M  V30 17061 H 1597.96 3.30806 1.8269 0
M  V30 17062 H 1598.28 7.04505 3.17637 0
M  V30 17063 H 1596.62 6.33294 2.86293 0
M  V30 17064 H 1599.81 4.13773 2.18883 0
M  V30 17065 H 1599.99 5.84172 2.80441 0
M  V30 17066 N 1593.39 -0.872258 1.31261 0
M  V30 17067 C 1594.81 -1.15763 1.09868 0
M  V30 17068 C 1595.01 -2.01065 -0.132331 0
M  V30 17069 O 1594.06 -2.38735 -0.822317 0
M  V30 17070 C 1595.38 -1.85199 2.36901 0
M  V30 17071 C 1596.92 -1.9791 2.42489 0
M  V30 17072 C 1597.4 -2.70759 3.69396 0
M  V30 17073 N 1598.89 -2.78296 3.70278 0
M  V30 17074 C 1599.63 -3.3527 4.65168 0
M  V30 17075 N 1599.12 -3.93193 5.70413 0
M  V30 17076 N 1600.91 -3.33206 4.52692 0
M  V30 17077 H 1593.07 -0.303784 2.10216 0
M  V30 17078 H 1595.33 -0.197172 0.927269 0
M  V30 17079 H 1595.03 -1.29968 3.26804 0
M  V30 17080 H 1594.91 -2.85493 2.46523 0
M  V30 17081 H 1597.3 -2.52305 1.53056 0
M  V30 17082 H 1597.38 -0.966644 2.36833 0
M  V30 17083 H 1597.02 -2.17031 4.59195 0
M  V30 17084 H 1596.95 -3.72407 3.72318 0
M  V30 17085 H 1599.44 -2.37185 2.94197 0
M  V30 17086 H 1599.75 -4.34771 6.38901 0
M  V30 17087 H 1598.1 -3.91575 5.7419 0
M  V30 17088 H 1601.29 -2.87191 3.69647 0
M  V30 17089 H 1601.46 -3.7731 5.26822 0
M  V30 17090 N 1594.87 -1.14184 -1.08627 0
M  V30 17091 C 1596.09 -0.932504 -1.85254 0
M  V30 17092 C 1596.52 0.513792 -1.80947 0
M  V30 17093 O 1595.88 1.36525 -1.19292 0
M  V30 17094 C 1595.93 -1.43519 -3.30809 0
M  V30 17095 O 1595.03 -0.625806 -4.07624 0
M  V30 17096 H 1594.37 -0.333573 -0.57413 0
M  V30 17097 H 1596.9 -1.51853 -1.3712 0
M  V30 17098 H 1596.91 -1.44238 -3.81654 0
M  V30 17099 H 1595.59 -2.48819 -3.3326 0
M  V30 17100 H 1594.16 -0.687168 -3.66514 0
M  V30 17101 N 1596.35 1.26749 -0.936613 0
M  V30 17102 C 1597.57 1.98597 -0.597817 0
M  V30 17103 C 1598 1.69324 0.8192 0
M  V30 17104 O 1597.36 0.938634 1.55111 0
M  V30 17105 C 1597.4 3.50656 -0.841007 0
M  V30 17106 O 1596.51 4.12304 0.0891038 0
M  V30 17107 H 1595.85 0.623197 -0.229176 0
M  V30 17108 H 1598.38 1.61332 -1.2583 0
M  V30 17109 H 1598.39 4.00857 -0.760093 0
M  V30 17110 H 1597.06 3.71293 -1.87388 0
M  V30 17111 H 1595.64 3.72876 -0.0424804 0
M  V30 17112 N 1597.83 0.703118 1.41046 0
M  V30 17113 C 1599.07 0.236818 2.00708 0
M  V30 17114 C 1599.4 -1.17008 1.55994 0
M  V30 17115 O 1598.67 -1.79094 0.793871 0
M  V30 17116 H 1597.25 0.0845643 0.742198 0
M  V30 17117 H 1599.91 0.905964 1.72564 0
M  V30 17118 H 1599 0.260141 3.11014 0
M  V30 17119 N 1599.3 -1.51086 0.448402 0
M  V30 17120 C 1600.72 -1.59278 0.101286 0
M  V30 17121 C 1600.92 -1.45847 -1.39036 0
M  V30 17122 O 1599.98 -1.30534 -2.16142 0
M  V30 17123 C 1601.29 -2.93999 0.631264 0
M  V30 17124 C 1602.84 -3.07337 0.59268 0
M  V30 17125 C 1603.31 -4.44599 1.09982 0
M  V30 17126 N 1604.8 -4.50949 1.05827 0
M  V30 17127 C 1605.54 -5.55503 1.42142 0
M  V30 17128 N 1605.03 -6.67422 1.85796 0
M  V30 17129 N 1606.83 -5.45922 1.33888 0
M  V30 17130 H 1598.98 -1.58062 1.41881 0
M  V30 17131 H 1601.24 -0.745702 0.585349 0
M  V30 17132 H 1600.95 -3.09233 1.67534 0
M  V30 17133 H 1600.82 -3.77149 0.0622533 0
M  V30 17134 H 1603.21 -2.91764 -0.442437 0
M  V30 17135 H 1603.29 -2.26 1.19823 0
M  V30 17136 H 1602.93 -4.60919 2.13345 0
M  V30 17137 H 1602.86 -5.24492 0.470703 0
M  V30 17138 H 1605.35 -3.70627 0.737822 0
M  V30 17139 H 1605.67 -7.43234 2.11714 0
M  V30 17140 H 1604.01 -6.68601 1.89731 0
M  V30 17141 H 1607.2 -4.57372 0.996415 0
M  V30 17142 H 1607.38 -6.2729 1.62517 0
M  V30 17143 N 1600.78 -0.180154 -1.56567 0
M  V30 17144 C 1602.03 0.463205 -1.97439 0
M  V30 17145 C 1602.36 1.62296 -1.06647 0
M  V30 17146 O 1601.64 1.94157 -0.115382 0
M  V30 17147 C 1601.92 0.937709 -3.47677 0
M  V30 17148 C 1601.77 -0.222835 -4.49248 0
M  V30 17149 C 1603.09 1.80836 -4.01231 0
M  V30 17150 H 1600.21 0.166899 -0.717854 0
M  V30 17151 H 1602.85 -0.268069 -1.88099 0
M  V30 17152 H 1601 1.56084 -3.55767 0
M  V30 17153 H 1602.67 -0.860155 -4.5321 0
M  V30 17154 H 1600.92 -0.876962 -4.24843 0
M  V30 17155 H 1601.59 0.151444 -5.51792 0
M  V30 17156 H 1604.06 1.28297 -3.95827 0
M  V30 17157 H 1602.94 2.10937 -5.06751 0
M  V30 17158 H 1603.2 2.75728 -3.45581 0
M  V30 17159 N 1602.26 1.57322 0.0935319 0
M  V30 17160 C 1603.51 1.85353 0.795445 0
M  V30 17161 C 1603.82 0.769647 1.79822 0
M  V30 17162 O 1605.03 0.937121 2.54814 0
M  V30 17163 C 1603.48 3.28711 1.4655 0
M  V30 17164 C 1603.09 4.45174 0.502415 0
M  V30 17165 C 1604.84 3.65965 2.15105 0
M  V30 17166 C 1602.74 5.79566 1.17715 0
M  V30 17167 H 1601.67 0.691394 0.300816 0
M  V30 17168 H 1604.32 1.83436 0.0484063 0
M  V30 17169 H 1602.71 3.25173 2.26005 0
M  V30 17170 H 1603.88 4.60062 -0.260754 0
M  V30 17171 H 1602.2 4.16328 -0.0775186 0
M  V30 17172 H 1604.79 4.63655 2.66323 0
M  V30 17173 H 1605.14 2.94667 2.94069 0
M  V30 17174 H 1605.67 3.71398 1.42508 0
M  V30 17175 H 1602.41 6.54099 0.428277 0
M  V30 17176 H 1601.93 5.68519 1.9117 0
M  V30 17177 H 1603.61 6.2418 1.70318 0
M  V30 17178 N 1603.74 -0.364395 1.53329 0
M  V30 17179 C 1604.98 -1.10501 1.70766 0
M  V30 17180 C 1605.34 -1.86955 0.45448 0
M  V30 17181 O 1604.63 -1.8346 -0.552528 0
M  V30 17182 C 1604.83 -2.09208 2.8977 0
M  V30 17183 C 1604.66 -1.42453 4.26541 0
M  V30 17184 C 1603.43 -1.17816 4.91373 0
M  V30 17185 C 1605.62 -0.861619 5.07031 0
M  V30 17186 N 1603.61 -0.474233 6.12066 0
M  V30 17187 C 1604.98 -0.28712 6.19335 0
M  V30 17188 C 1607.03 -0.760424 4.92059 0
M  V30 17189 C 1605.73 0.378707 7.18302 0
M  V30 17190 C 1607.76 -0.108375 5.91301 0
M  V30 17191 C 1607.12 0.455245 7.02927 0
M  V30 17192 H 1603.22 -0.38946 0.678119 0
M  V30 17193 H 1605.81 -0.391247 1.90728 0
M  V30 17194 H 1603.98 -2.77897 2.71345 0
M  V30 17195 H 1605.71 -2.75956 2.96024 0
M  V30 17196 H 1602.46 -1.45975 4.50542 0
M  V30 17197 H 1602.89 -0.137599 6.7686 0
M  V30 17198 H 1607.53 -1.18194 4.05943 0
M  V30 17199 H 1605.25 0.812171 8.04008 0
M  V30 17200 H 1608.83 -0.0309878 5.81792 0
M  V30 17201 H 1607.71 0.951813 7.78402 0
M  V30 17202 N 1605.22 -1.44709 -0.62426 0
M  V30 17203 C 1606.49 -1.38328 -1.38292 0
M  V30 17204 C 1606.87 -0.0454388 -2.11051 0
M  V30 17205 O 1606.22 0.972183 -2.06787 0
M  V30 17206 C 1606.43 -2.58602 -2.34364 0
M  V30 17207 C 1607.78 -3.02966 -2.97484 0
M  V30 17208 O 1608.8 -2.58856 -2.44688 0
M  V30 17209 O 1607.66 -3.79466 -3.93278 0
M  V30 17210 H 1604.76 -0.54812 -0.619269 0
M  V30 17211 H 1607.3 -1.5681 -0.648741 0
M  V30 17212 H 1606.07 -3.47573 -1.79746 0
M  V30 17213 H 1605.7 -2.42368 -3.15188 0
M  V30 17214 N 1606.69 0.865285 -1.31722 0
M  V30 17215 C 1607.92 1.65661 -1.24785 0
M  V30 17216 C 1608.34 1.87208 0.182952 0
M  V30 17217 O 1607.7 1.41721 1.1307 0
M  V30 17218 C 1607.75 2.99921 -2.00199 0
M  V30 17219 O 1606.85 3.89936 -1.34253 0
M  V30 17220 H 1606.2 0.505459 -0.430589 0
M  V30 17221 H 1608.73 1.0785 -1.73867 0
M  V30 17222 H 1608.74 3.49823 -2.09971 0
M  V30 17223 H 1607.41 2.83559 -3.04249 0
M  V30 17224 H 1605.99 3.4839 -1.32961 0
M  V30 17225 N 1608.17 1.14759 1.0802 0
M  V30 17226 C 1609.42 0.929574 1.80916 0
M  V30 17227 C 1609.77 -0.53792 1.84727 0
M  V30 17228 O 1609.07 -1.39348 1.31501 0
M  V30 17229 C 1609.26 1.4692 3.25805 0
M  V30 17230 C 1609.09 2.98763 3.36111 0
M  V30 17231 C 1607.86 3.67248 3.47069 0
M  V30 17232 C 1610.06 3.966 3.27433 0
M  V30 17233 N 1608.04 5.06965 3.46207 0
M  V30 17234 C 1609.41 5.22594 3.33609 0
M  V30 17235 C 1611.47 3.88665 3.11197 0
M  V30 17236 C 1610.17 6.41579 3.25221 0
M  V30 17237 C 1612.19 5.07201 3.0414 0
M  V30 17238 C 1611.56 6.32066 3.10921 0
M  V30 17239 H 1607.66 0.393733 0.675647 0
M  V30 17240 H 1610.24 1.45842 1.2899 0
M  V30 17241 H 1608.41 0.967084 3.76168 0
M  V30 17242 H 1610.14 1.19071 3.86787 0
M  V30 17243 H 1606.9 3.17815 3.51128 0
M  V30 17244 H 1607.32 5.79917 3.49322 0
M  V30 17245 H 1611.96 2.93 3.04813 0
M  V30 17246 H 1609.68 7.37485 3.30365 0
M  V30 17247 H 1613.27 5.02815 2.92691 0
M  V30 17248 H 1612.15 7.22248 3.05495 0
M  V30 17249 N 1609.65 -1.26251 0.943322 0
M  V30 17250 C 1610.58 -2.28673 0.472347 0
M  V30 17251 C 1611.56 -1.63319 -0.475481 0
M  V30 17252 O 1612.75 -1.90508 -0.376875 0
M  V30 17253 C 1609.88 -3.46316 -0.261286 0
M  V30 17254 C 1608.83 -4.23771 0.600192 0
M  V30 17255 C 1608.16 -5.3405 -0.263525 0
M  V30 17256 C 1609.46 -4.87576 1.87262 0
M  V30 17257 H 1611.15 -2.68319 1.32836 0
M  V30 17258 H 1608.7 -1.28987 0.640182 0
M  V30 17259 H 1610.65 -4.1708 -0.601821 0
M  V30 17260 H 1609.37 -3.05629 -1.15146 0
M  V30 17261 H 1608.03 -3.54774 0.923651 0
M  V30 17262 H 1607.68 -4.89604 -1.15312 0
M  V30 17263 H 1607.38 -5.86784 0.309495 0
M  V30 17264 H 1608.9 -6.07652 -0.599281 0
M  V30 17265 H 1610.32 -5.50544 1.59919 0
M  V30 17266 H 1608.72 -5.50437 2.39038 0
M  V30 17267 H 1609.79 -4.10397 2.58268 0
M  V30 17268 N 1611.13 -0.710588 -1.40671 0
M  V30 17269 C 1612.54 -0.320926 -1.83921 0
M  V30 17270 C 1612.89 1.14358 -1.59426 0
M  V30 17271 O 1612.02 1.87952 -1.07252 0
M  V30 17272 C 1612.61 -0.5757 -3.33873 0
M  V30 17273 C 1611.17 -0.239799 -3.75635 0
M  V30 17274 C 1610.32 -0.850552 -2.63934 0
M  V30 17275 H 1613.27 -0.910118 -1.3001 0
M  V30 17276 H 1613.29 0.160707 -3.8016 0
M  V30 17277 H 1612.8 -1.64166 -3.51669 0
M  V30 17278 H 1610.9 0.821297 -3.63436 0
M  V30 17279 H 1611.02 -0.705306 -4.7388 0
M  V30 17280 H 1609.38 -0.278977 -2.53168 0
M  V30 17281 H 1610.16 -1.92068 -2.84543 0
M  V30 17282 N 1612.61 1.50847 -0.456408 0
M  V30 17283 C 1613.86 2.01835 0.103414 0
M  V30 17284 C 1614.18 1.34142 1.4153 0
M  V30 17285 O 1613.45 0.482015 1.89877 0
M  V30 17286 H 1612.03 0.745863 0.0412074 0
M  V30 17287 H 1614.69 1.85322 -0.603477 0
M  V30 17288 H 1613.78 3.10968 0.265562 0
M  V30 17289 N 1614.09 0.188454 1.56469 0
M  V30 17290 C 1615.33 -0.452058 1.9739 0
M  V30 17291 C 1615.66 -1.62086 1.0751 0
M  V30 17292 O 1614.92 -1.95375 0.11278 0
M  V30 17293 C 1615.21 -0.960652 3.44247 0
M  V30 17294 C 1614.88 0.0940708 4.50802 0
M  V30 17295 C 1613.54 0.383899 4.79666 0
M  V30 17296 C 1615.89 0.80908 5.14882 0
M  V30 17297 C 1613.22 1.39383 5.69903 0
M  V30 17298 C 1615.57 1.80811 6.0621 0
M  V30 17299 C 1614.24 2.10521 6.33433 0
M  V30 17300 H 1613.51 -0.16542 0.7223 0
M  V30 17301 H 1616.16 0.284024 1.89382 0
M  V30 17302 H 1614.46 -1.77488 3.49292 0
M  V30 17303 H 1616.16 -1.46553 3.7326 0
M  V30 17304 H 1612.75 -0.141993 4.28365 0
M  V30 17305 H 1616.93 0.598391 4.92679 0
M  V30 17306 H 1612.19 1.63 5.89272 0
M  V30 17307 H 1616.36 2.36742 6.54925 0
M  V30 17308 H 1613.99 2.88924 7.03155 0
M  V30 17309 N 1615.56 -1.5737 -0.0851874 0
M  V30 17310 C 1616.53 -2.01789 -1.08692 0
M  V30 17311 C 1617.53 -0.912872 -1.32376 0
M  V30 17312 O 1618.72 -1.1781 -1.28322 0
M  V30 17313 C 1615.85 -2.38708 -2.43375 0
M  V30 17314 H 1617.04 -2.91511 -0.704359 0
M  V30 17315 H 1614.59 -1.52765 -0.330528 0
M  V30 17316 H 1615.33 -1.5197 -2.86488 0
M  V30 17317 H 1615.11 -3.19331 -2.2753 0
M  V30 17318 H 1616.6 -2.73697 -3.15404 0
M  V30 17319 N 1617.04 0.356258 -1.53521 0
M  V30 17320 C 1618.29 1.0979 -1.70154 0
M  V30 17321 C 1618.62 1.89028 -0.458124 0
M  V30 17322 O 1617.87 1.87516 0.560033 0
M  V30 17323 C 1618.17 2.07669 -2.90875 0
M  V30 17324 C 1617.84 1.4484 -4.27004 0
M  V30 17325 C 1616.5 1.27434 -4.64019 0
M  V30 17326 C 1618.85 0.994684 -5.1162 0
M  V30 17327 C 1616.18 0.632539 -5.8328 0
M  V30 17328 C 1618.53 0.366847 -6.31535 0
M  V30 17329 C 1617.19 0.180356 -6.67256 0
M  V30 17330 H 1616.46 0.401751 -0.622637 0
M  V30 17331 H 1619.11 0.378618 -1.8772 0
M  V30 17332 H 1617.42 2.85934 -2.6786 0
M  V30 17333 H 1619.11 2.65023 -3.00939 0
M  V30 17334 H 1615.7 1.59384 -3.97863 0
M  V30 17335 H 1619.89 1.11706 -4.83565 0
M  V30 17336 H 1615.14 0.476548 -6.0954 0
M  V30 17337 H 1619.32 0.00712378 -6.964 0
M  V30 17338 H 1616.94 -0.319016 -7.5953 0
M  V30 17339 N 1618.52 1.45038 0.616577 0
M  V30 17340 C 1619.47 1.53343 1.74896 0
M  V30 17341 C 1620.46 0.404033 1.64511 0
M  V30 17342 O 1621.67 0.57958 1.70414 0
M  V30 17343 H 1618.04 0.481471 0.577658 0
M  V30 17344 H 1620.01 2.4862 1.65017 0
M  V30 17345 C 1618.76 1.50871 3.13262 0
M  V30 17346 H 1618.09 2.37098 3.21908 0
M  V30 17347 H 1619.53 1.60741 3.9235 0
M  V30 17348 C 1617.98 0.231704 3.36102 0
M  V30 17349 O 1618.51 -0.692154 3.95692 0
M  V30 17350 N 1616.72 0.130232 2.90308 0
M  V30 17351 H 1616.27 0.882893 2.41997 0
M  V30 17352 H 1616.23 -0.723403 3.05964 0
M  V30 17353 N 1620 -0.858287 1.32179 0
M  V30 17354 C 1621.27 -1.59548 1.13154 0
M  V30 17355 C 1621.65 -2.0882 -0.309439 0
M  V30 17356 O 1621 -1.87536 -1.30547 0
M  V30 17357 C 1621.21 -2.74443 2.15597 0
M  V30 17358 C 1622.56 -3.44115 2.48737 0
M  V30 17359 O 1623.58 -2.84664 2.14114 0
M  V30 17360 O 1622.44 -4.51389 3.08074 0
M  V30 17361 H 1619.54 -0.702481 0.436405 0
M  V30 17362 H 1622.08 -0.902731 1.43697 0
M  V30 17363 H 1620.86 -2.35533 3.12473 0
M  V30 17364 H 1620.48 -3.51397 1.86028 0
M  V30 17365 N 1621.48 -1.1533 -1.07409 0
M  V30 17366 C 1622.41 -0.807289 -2.14512 0
M  V30 17367 C 1623.42 0.18043 -1.61797 0
M  V30 17368 O 1624.61 -0.042733 -1.78449 0
M  V30 17369 C 1621.71 -0.179338 -3.38425 0
M  V30 17370 C 1620.88 -1.20433 -4.20493 0
M  V30 17371 C 1619.94 -0.598268 -5.22788 0
M  V30 17372 O 1618.97 -1.26405 -5.54987 0
M  V30 17373 N 1620.17 0.620283 -5.77177 0
M  V30 17374 H 1622.93 -1.729 -2.44797 0
M  V30 17375 H 1620.5 -1.0491 -1.23311 0
M  V30 17376 H 1622.49 0.238867 -4.03994 0
M  V30 17377 H 1621.06 0.645706 -3.05858 0
M  V30 17378 H 1620.28 -1.79912 -3.5075 0
M  V30 17379 H 1621.57 -1.89642 -4.72137 0
M  V30 17380 H 1620.96 1.17958 -5.53265 0
M  V30 17381 H 1619.52 0.980853 -6.44378 0
M  V30 17382 N 1622.95 1.25748 -0.950004 0
M  V30 17383 C 1624.2 1.93336 -0.602294 0
M  V30 17384 C 1624.53 1.74454 0.859994 0
M  V30 17385 O 1623.78 1.08032 1.6318 0
M  V30 17386 C 1624.08 3.45843 -0.901521 0
M  V30 17387 C 1623.75 3.84874 -2.3491 0
M  V30 17388 C 1622.41 3.9524 -2.74479 0
M  V30 17389 C 1624.76 4.04286 -3.28941 0
M  V30 17390 C 1622.09 4.22422 -4.07157 0
M  V30 17391 C 1624.44 4.32959 -4.61225 0
M  V30 17392 C 1623.11 4.41541 -5.00597 0
M  V30 17393 H 1622.38 0.707465 -0.220395 0
M  V30 17394 H 1625.02 1.49386 -1.19817 0
M  V30 17395 H 1623.33 3.91164 -0.2232 0
M  V30 17396 H 1625.03 3.96316 -0.611134 0
M  V30 17397 H 1621.62 3.77358 -2.03221 0
M  V30 17398 H 1625.8 3.95697 -2.99563 0
M  V30 17399 H 1621.06 4.27281 -4.37311 0
M  V30 17400 H 1625.23 4.46925 -5.3407 0
M  V30 17401 H 1622.86 4.62358 -6.03431 0
M  V30 17402 N 1624.43 0.718038 1.40292 0
M  V30 17403 C 1625.68 0.255581 2.00074 0
M  V30 17404 C 1625.99 -1.15859 1.57594 0
M  V30 17405 O 1627.2 -1.71969 2.10092 0
M  V30 17406 C 1625.66 0.406019 3.57602 0
M  V30 17407 C 1625.26 1.82699 4.09054 0
M  V30 17408 C 1627.01 0.00447854 4.245 0
M  V30 17409 C 1624.91 1.92788 5.59094 0
M  V30 17410 H 1623.84 0.0918012 0.748391 0
M  V30 17411 H 1626.5 0.88948 1.60501 0
M  V30 17412 H 1624.88 -0.296504 3.94888 0
M  V30 17413 H 1626.05 2.56009 3.8314 0
M  V30 17414 H 1624.37 2.18021 3.54761 0
M  V30 17415 H 1626.96 0.05911 5.34667 0
M  V30 17416 H 1627.31 -1.03779 4.03157 0
M  V30 17417 H 1627.84 0.657535 3.92328 0
M  V30 17418 H 1624.58 2.95145 5.85295 0
M  V30 17419 H 1624.1 1.23893 5.86865 0
M  V30 17420 H 1625.78 1.70114 6.24236 0
M  V30 17421 N 1625.91 -1.50602 0.464402 0
M  V30 17422 C 1626.84 -2.26203 -0.36943 0
M  V30 17423 C 1627.86 -1.31269 -0.962924 0
M  V30 17424 O 1629.04 -1.56829 -0.852465 0
M  V30 17425 C 1626.14 -3.02323 -1.53147 0
M  V30 17426 C 1625.32 -4.24561 -1.05198 0
M  V30 17427 C 1624.38 -4.83031 -2.08729 0
M  V30 17428 O 1623.4 -5.44131 -1.67062 0
M  V30 17429 N 1624.6 -4.6944 -3.41477 0
M  V30 17430 H 1627.37 -2.98402 0.278652 0
M  V30 17431 H 1624.93 -1.59193 0.294803 0
M  V30 17432 H 1626.92 -3.38319 -2.22086 0
M  V30 17433 H 1625.49 -2.32965 -2.08438 0
M  V30 17434 H 1624.71 -3.93748 -0.188705 0
M  V30 17435 H 1626 -5.0383 -0.709434 0
M  V30 17436 H 1625.4 -4.20832 -3.78044 0
M  V30 17437 H 1623.96 -5.09724 -4.06233 0
M  V30 17438 N 1627.39 -0.19675 -1.56367 0
M  V30 17439 C 1628.64 0.441807 -1.96802 0
M  V30 17440 C 1628.95 1.62645 -1.08656 0
M  V30 17441 O 1630.16 2.33291 -1.3888 0
M  V30 17442 C 1628.61 0.837415 -3.50022 0
M  V30 17443 C 1628.22 -0.323031 -4.46834 0
M  V30 17444 C 1629.96 1.44296 -3.99223 0
M  V30 17445 C 1627.87 0.0936285 -5.91326 0
M  V30 17446 H 1626.8 0.168834 -0.734854 0
M  V30 17447 H 1629.45 -0.289029 -1.81209 0
M  V30 17448 H 1627.83 1.62497 -3.61124 0
M  V30 17449 H 1629.01 -1.10056 -4.47464 0
M  V30 17450 H 1627.32 -0.840182 -4.07836 0
M  V30 17451 H 1629.92 1.76718 -5.04653 0
M  V30 17452 H 1630.26 2.35003 -3.43627 0
M  V30 17453 H 1630.8 0.71935 -3.91242 0
M  V30 17454 H 1627.54 -0.779297 -6.50851 0
M  V30 17455 H 1627.06 0.835984 -5.93946 0
M  V30 17456 H 1628.73 0.528864 -6.44835 0
M  V30 17457 N 1628.87 1.57413 0.0768405 0
M  V30 17458 C 1630.09 1.91607 0.793833 0
M  V30 17459 C 1630.52 0.792708 1.70581 0
M  V30 17460 O 1629.87 -0.25475 1.79501 0
M  V30 17461 C 1629.92 3.24736 1.56776 0
M  V30 17462 O 1629.03 3.13613 2.67807 0
M  V30 17463 H 1628.37 0.627572 0.216908 0
M  V30 17464 H 1630.9 2.04547 0.0465957 0
M  V30 17465 H 1630.91 3.58488 1.94809 0
M  V30 17466 H 1629.58 4.06077 0.898588 0
M  V30 17467 H 1628.16 2.91411 2.32668 0
M  V30 17468 N 1630.34 -0.348112 1.53707 0
M  V30 17469 C 1631.57 -1.10903 1.74666 0
M  V30 17470 C 1631.99 -1.82499 0.483683 0
M  V30 17471 O 1631.34 -1.74191 -0.544419 0
M  V30 17472 C 1631.4 -2.12602 2.92374 0
M  V30 17473 O 1631.12 -1.43918 4.13787 0
M  V30 17474 C 1632.62 -3.01105 3.25347 0
M  V30 17475 H 1629.84 -0.330911 0.583728 0
M  V30 17476 H 1632.38 -0.401707 2.00516 0
M  V30 17477 H 1630.54 -2.78906 2.68869 0
M  V30 17478 H 1630.95 -2.11818 4.79826 0
M  V30 17479 H 1632.42 -3.68408 4.11071 0
M  V30 17480 H 1632.9 -3.66874 2.41455 0
M  V30 17481 H 1633.51 -2.40395 3.50842 0
M  V30 17482 N 1631.82 -1.45363 -0.608876 0
M  V30 17483 C 1633.24 -1.29741 -0.929491 0
M  V30 17484 C 1633.44 -0.249486 -1.9995 0
M  V30 17485 O 1632.49 0.357014 -2.49963 0
M  V30 17486 C 1633.81 -2.67594 -1.37164 0
M  V30 17487 C 1635.36 -2.7548 -1.48592 0
M  V30 17488 C 1635.83 -4.13855 -1.96183 0
M  V30 17489 N 1637.32 -4.16143 -2.03419 0
M  V30 17490 C 1638.06 -5.20081 -2.41462 0
M  V30 17491 N 1637.55 -6.34365 -2.78482 0
M  V30 17492 N 1639.35 -5.07439 -2.4179 0
M  V30 17493 H 1631.5 -2.12172 0.0983838 0
M  V30 17494 H 1633.76 -0.947817 -0.0186397 0
M  V30 17495 H 1633.47 -3.45459 -0.6596 0
M  V30 17496 H 1633.34 -2.9597 -2.33841 0
M  V30 17497 H 1635.73 -1.97919 -2.18888 0
M  V30 17498 H 1635.81 -2.50819 -0.502337 0
M  V30 17499 H 1635.45 -4.91901 -1.26475 0
M  V30 17500 H 1635.38 -4.35907 -2.95453 0
M  V30 17501 H 1637.87 -3.33671 -1.77404 0
M  V30 17502 H 1638.19 -7.09469 -3.06388 0
M  V30 17503 H 1636.53 -6.37769 -2.76181 0
M  V30 17504 H 1639.72 -4.17202 -2.12273 0
M  V30 17505 H 1639.89 -5.8856 -2.71112 0
M  V30 17506 N 1633.3 0.851265 -1.32632 0
M  V30 17507 C 1634.23 1.97562 -1.24465 0
M  V30 17508 C 1635.21 1.69619 -0.127777 0
M  V30 17509 O 1636.4 1.9162 -0.315509 0
M  V30 17510 C 1633.53 3.33467 -0.970423 0
M  V30 17511 C 1632.48 3.75772 -2.0489 0
M  V30 17512 C 1631.81 5.09345 -1.62702 0
M  V30 17513 C 1633.11 3.90876 -3.4643 0
M  V30 17514 H 1634.8 2.04653 -2.18535 0
M  V30 17515 H 1632.35 0.983252 -1.05205 0
M  V30 17516 H 1634.3 4.11681 -0.899825 0
M  V30 17517 H 1633.02 3.26599 0.00591373 0
M  V30 17518 H 1631.68 2.99812 -2.1097 0
M  V30 17519 H 1631.33 4.98937 -0.638039 0
M  V30 17520 H 1631.03 5.38621 -2.34864 0
M  V30 17521 H 1632.55 5.90048 -1.57085 0
M  V30 17522 H 1633.97 4.59434 -3.42919 0
M  V30 17523 H 1632.37 4.31574 -4.1697 0
M  V30 17524 H 1633.44 2.93689 -3.85843 0
M  V30 17525 N 1634.78 1.15898 1.06796 0
M  V30 17526 C 1636.19 0.945837 1.60968 0
M  V30 17527 C 1636.54 -0.511507 1.89415 0
M  V30 17528 O 1635.67 -1.38372 1.66379 0
M  V30 17529 C 1636.26 1.71054 2.92448 0
M  V30 17530 C 1634.82 1.54252 3.43341 0
M  V30 17531 C 1633.97 1.72253 2.17311 0
M  V30 17532 H 1636.92 1.30842 0.898118 0
M  V30 17533 H 1636.94 1.18336 3.61631 0
M  V30 17534 H 1636.45 2.77117 2.71712 0
M  V30 17535 H 1634.55 0.506082 3.69147 0
M  V30 17536 H 1634.66 2.32314 4.19007 0
M  V30 17537 H 1633.03 1.14952 2.27284 0
M  V30 17538 H 1633.81 2.79693 1.99064 0
M  V30 17539 N 1636.26 -1.25243 0.956659 0
M  V30 17540 C 1637.48 -1.97621 0.629337 0
M  V30 17541 C 1637.91 -1.70606 -0.792158 0
M  V30 17542 O 1637.26 -0.963192 -1.53598 0
M  V30 17543 C 1637.31 -3.49273 0.896687 0
M  V30 17544 O 1636.42 -4.12393 -0.0234986 0
M  V30 17545 H 1635.76 -0.619472 0.239061 0
M  V30 17546 H 1638.29 -1.5931 1.28381 0
M  V30 17547 H 1638.3 -3.99597 0.82377 0
M  V30 17548 H 1636.97 -3.68265 1.93271 0
M  V30 17549 H 1635.55 -3.72761 0.101796 0
M  V30 17550 N 1637.73 -0.725468 -1.3991 0
M  V30 17551 C 1638.64 -0.0805887 -2.34462 0
M  V30 17552 C 1639.66 0.732689 -1.57822 0
M  V30 17553 O 1640.84 0.663362 -1.90162 0
M  V30 17554 C 1637.9 0.822908 -3.36792 0
M  V30 17555 C 1636.96 -0.00153812 -4.293 0
M  V30 17556 C 1636.2 0.85893 -5.26743 0
M  V30 17557 O 1636.42 2.09793 -5.30418 0
M  V30 17558 O 1635.35 0.292659 -6.01188 0
M  V30 17559 H 1639.18 -0.860746 -2.91247 0
M  V30 17560 H 1636.76 -0.48604 -1.41273 0
M  V30 17561 H 1638.65 1.34014 -3.99522 0
M  V30 17562 H 1637.32 1.58204 -2.82406 0
M  V30 17563 H 1636.23 -0.564072 -3.69823 0
M  V30 17564 H 1637.56 -0.722675 -4.86866 0
M  V30 17565 N 1639.21 1.50354 -0.472382 0
M  V30 17566 C 1640.44 2.06446 0.0796976 0
M  V30 17567 C 1640.85 1.33626 1.33943 0
M  V30 17568 O 1640.19 0.399473 1.79304 0
M  V30 17569 C 1640.26 3.56889 0.432455 0
M  V30 17570 C 1639.92 4.51205 -0.725443 0
M  V30 17571 C 1640.92 4.94413 -1.60784 0
M  V30 17572 C 1638.6 4.93875 -0.916135 0
M  V30 17573 C 1640.6 5.78998 -2.66533 0
M  V30 17574 C 1638.28 5.78242 -1.97684 0
M  V30 17575 C 1639.28 6.20706 -2.8498 0
M  V30 17576 O 1638.97 7.03391 -3.89224 0
M  V30 17577 H 1638.7 0.675986 -0.00433625 0
M  V30 17578 H 1641.25 1.94489 -0.660558 0
M  V30 17579 H 1639.48 3.66754 1.22591 0
M  V30 17580 H 1641.17 3.95342 0.919769 0
M  V30 17581 H 1641.94 4.62116 -1.47221 0
M  V30 17582 H 1637.82 4.60343 -0.246124 0
M  V30 17583 H 1641.36 6.12063 -3.34701 0
M  V30 17584 H 1637.26 6.09953 -2.11254 0
M  V30 17585 H 1638.03 7.21644 -3.86229 0
M  V30 17586 N 1640.69 0.205039 1.56261 0
M  V30 17587 C 1641.94 -0.431364 1.97033 0
M  V30 17588 C 1642.25 -1.62066 1.09517 0
M  V30 17589 O 1643.46 -2.32551 1.40116 0
M  V30 17590 C 1641.92 -0.818841 3.50461 0
M  V30 17591 C 1641.52 0.346723 4.46656 0
M  V30 17592 C 1643.27 -1.42177 3.99982 0
M  V30 17593 C 1641.17 -0.0622677 5.91367 0
M  V30 17594 H 1640.1 -0.164934 0.73574 0
M  V30 17595 H 1642.76 0.298635 1.81054 0
M  V30 17596 H 1641.14 -1.60579 3.61981 0
M  V30 17597 H 1642.31 1.12427 4.46874 0
M  V30 17598 H 1640.63 0.861799 4.07384 0
M  V30 17599 H 1643.22 -1.74039 5.05583 0
M  V30 17600 H 1643.57 -2.33177 3.44868 0
M  V30 17601 H 1644.1 -0.698591 3.91618 0
M  V30 17602 H 1640.84 0.813802 6.50429 0
M  V30 17603 H 1640.36 -0.804474 5.94381 0
M  V30 17604 H 1642.04 -0.49466 6.45106 0
M  V30 17605 N 1642.17 -1.57451 -0.0684915 0
M  V30 17606 C 1643.4 -1.91362 -0.778724 0
M  V30 17607 C 1643.81 -0.799579 -1.71474 0
M  V30 17608 O 1643.15 0.235727 -1.82181 0
M  V30 17609 C 1643.21 -3.20767 -1.62323 0
M  V30 17610 C 1642.88 -4.48907 -0.85623 0
M  V30 17611 C 1643.87 -5.19609 -0.173992 0
M  V30 17612 C 1641.56 -4.95521 -0.822427 0
M  V30 17613 C 1643.55 -6.35178 0.531784 0
M  V30 17614 C 1641.24 -6.10996 -0.11288 0
M  V30 17615 C 1642.24 -6.80675 0.563022 0
M  V30 17616 O 1641.93 -7.93946 1.26113 0
M  V30 17617 H 1641.66 -0.636969 -0.226376 0
M  V30 17618 H 1644.21 -2.05357 -0.0420481 0
M  V30 17619 H 1642.44 -3.0299 -2.40279 0
M  V30 17620 H 1644.13 -3.40303 -2.21244 0
M  V30 17621 H 1644.9 -4.84622 -0.191393 0
M  V30 17622 H 1640.78 -4.41156 -1.33798 0
M  V30 17623 H 1644.32 -6.89501 1.05991 0
M  V30 17624 H 1640.22 -6.45432 -0.0934182 0
M  V30 17625 H 1640.98 -8.10084 1.17074 0
M  V30 17626 N 1643.65 0.339955 -1.5389 0
M  V30 17627 C 1644.9 1.07766 -1.7097 0
M  V30 17628 C 1645.22 1.89064 -0.477486 0
M  V30 17629 O 1644.49 1.89183 0.508579 0
M  V30 17630 H 1643.07 0.400849 -0.630341 0
M  V30 17631 H 1645.73 0.380359 -1.91153 0
M  V30 17632 H 1644.82 1.75301 -2.58217 0
M  V30 17633 N 1645.13 1.45684 0.601159 0
M  V30 17634 C 1646.37 1.50036 1.35998 0
M  V30 17635 C 1646.7 0.144645 1.93961 0
M  V30 17636 O 1645.96 -0.857502 1.75913 0
M  V30 17637 C 1646.25 2.53235 2.52204 0
M  V30 17638 C 1645.92 3.97767 2.12348 0
M  V30 17639 C 1644.58 4.37121 2.01193 0
M  V30 17640 C 1646.93 4.88636 1.8134 0
M  V30 17641 C 1644.26 5.65231 1.5726 0
M  V30 17642 C 1646.61 6.17164 1.38892 0
M  V30 17643 C 1645.28 6.55442 1.26299 0
M  V30 17644 H 1644.55 0.54902 0.497652 0
M  V30 17645 H 1647.2 1.79065 0.678833 0
M  V30 17646 H 1645.5 2.17799 3.25685 0
M  V30 17647 H 1647.2 2.53837 3.10431 0
M  V30 17648 H 1643.79 3.6665 2.21959 0
M  V30 17649 H 1647.97 4.58964 1.88853 0
M  V30 17650 H 1643.23 5.93678 1.46139 0
M  V30 17651 H 1647.4 6.87015 1.13946 0
M  V30 17652 H 1645.03 7.54609 0.920316 0
M  V30 17653 N 1646.6 -0.84422 1.33082 0
M  V30 17654 C 1647.85 -1.59596 1.2399 0
M  V30 17655 C 1648.17 -1.94016 -0.19566 0
M  V30 17656 O 1647.44 -1.60512 -1.12306 0
M  V30 17657 H 1646.02 -0.591727 0.455926 0
M  V30 17658 H 1648.68 -1.00924 1.66735 0
M  V30 17659 H 1647.78 -2.52829 1.82986 0
M  V30 17660 N 1648.08 -1.16463 -1.0618 0
M  V30 17661 C 1648.99 -0.886601 -2.17202 0
M  V30 17662 C 1650.01 0.141568 -1.73423 0
M  V30 17663 O 1651.18 -0.0353417 -2.01369 0
M  V30 17664 C 1648.25 -0.392829 -3.44467 0
M  V30 17665 C 1647.31 -1.48636 -4.02748 0
M  V30 17666 C 1646.54 -1.01606 -5.23939 0
M  V30 17667 O 1646.77 0.133753 -5.70243 0
M  V30 17668 O 1645.7 -1.80487 -5.74202 0
M  V30 17669 H 1649.53 -1.81502 -2.43497 0
M  V30 17670 H 1647.11 -0.944691 -1.15741 0
M  V30 17671 H 1648.99 -0.124501 -4.21216 0
M  V30 17672 H 1647.67 0.507566 -3.19696 0
M  V30 17673 H 1646.57 -1.80845 -3.27484 0
M  V30 17674 H 1647.91 -2.3621 -4.31817 0
M  V30 17675 N 1649.56 1.24734 -0.963288 0
M  V30 17676 C 1650.81 1.92971 -0.623688 0
M  V30 17677 C 1651.14 1.7517 0.838393 0
M  V30 17678 O 1650.41 1.10208 1.60264 0
M  V30 17679 C 1650.7 3.46115 -0.99379 0
M  V30 17680 C 1650.55 3.73104 -2.51224 0
M  V30 17681 C 1651.87 4.36956 -0.525128 0
M  V30 17682 H 1648.99 0.700827 -0.228058 0
M  V30 17683 H 1651.63 1.47187 -1.2015 0
M  V30 17684 H 1649.78 3.85242 -0.502108 0
M  V30 17685 H 1651.45 3.43563 -3.07835 0
M  V30 17686 H 1649.69 3.18409 -2.94616 0
M  V30 17687 H 1650.37 4.80237 -2.7217 0
M  V30 17688 H 1652.84 4.0518 -0.947015 0
M  V30 17689 H 1651.72 5.4285 -0.812695 0
M  V30 17690 H 1651.98 4.38347 0.574843 0
M  V30 17691 N 1651.04 0.732878 1.39523 0
M  V30 17692 C 1651.95 0.0930216 2.34416 0
M  V30 17693 C 1652.96 -0.724309 1.58208 0
M  V30 17694 O 1654.14 -0.653267 1.90511 0
M  V30 17695 C 1651.2 -0.805036 3.37224 0
M  V30 17696 C 1650.27 0.0243049 4.29293 0
M  V30 17697 C 1649.5 -0.830984 5.27191 0
M  V30 17698 O 1649.72 -2.06977 5.31523 0
M  V30 17699 O 1648.66 -0.260772 6.01335 0
M  V30 17700 H 1652.48 0.876179 2.90786 0
M  V30 17701 H 1650.07 0.493525 1.41013 0
M  V30 17702 H 1651.95 -1.31894 4.00228 0
M  V30 17703 H 1650.62 -1.56704 2.83241 0
M  V30 17704 H 1649.53 0.583677 3.69519 0
M  V30 17705 H 1650.86 0.748485 4.86476 0
M  V30 17706 N 1652.52 -1.50101 0.480349 0
M  V30 17707 C 1653.47 -2.25631 -0.327823 0
M  V30 17708 C 1654.45 -1.29605 -0.953492 0
M  V30 17709 O 1655.64 -1.54451 -0.86451 0
M  V30 17710 C 1652.77 -3.13284 -1.40386 0
M  V30 17711 C 1651.86 -4.16763 -0.785461 0
M  V30 17712 N 1652.25 -5.05702 0.0997266 0
M  V30 17713 C 1650.55 -4.33503 -1.04838 0
M  V30 17714 C 1651.25 -5.79944 0.45163 0
M  V30 17715 N 1650.22 -5.43317 -0.175455 0
M  V30 17716 H 1654.02 -2.91761 0.353929 0
M  V30 17717 H 1651.54 -1.59697 0.295085 0
M  V30 17718 H 1653.54 -3.66008 -1.9961 0
M  V30 17719 H 1652.2 -2.48703 -2.08751 0
M  V30 17720 H 1653.21 -5.1577 0.469184 0
M  V30 17721 H 1649.88 -3.80138 -1.72631 0
M  V30 17722 H 1651.27 -6.61554 1.17458 0
M  V30 17723 N 1653.99 -0.213323 -1.5615 0
M  V30 17724 C 1655.22 0.425688 -2.02473 0
M  V30 17725 C 1655.64 1.53926 -1.09326 0
M  V30 17726 O 1654.99 1.82218 -0.101364 0
M  V30 17727 C 1655.04 0.965021 -3.48381 0
M  V30 17728 O 1654.77 -0.104145 -4.37976 0
M  V30 17729 C 1656.27 1.6781 -4.10311 0
M  V30 17730 H 1653.49 0.105064 -0.662724 0
M  V30 17731 H 1656.03 -0.327369 -2.01863 0
M  V30 17732 H 1654.19 1.66838 -3.49634 0
M  V30 17733 H 1654.6 0.299985 -5.23641 0
M  V30 17734 H 1656.07 2.00757 -5.14199 0
M  V30 17735 H 1656.55 2.58833 -3.54827 0
M  V30 17736 H 1657.16 1.02014 -4.12884 0
M  V30 17737 N 1655.47 1.57485 0.0601405 0
M  V30 17738 C 1656.44 2.03493 1.05467 0
M  V30 17739 C 1657.44 0.933816 1.30907 0
M  V30 17740 O 1658.63 1.19837 1.26431 0
M  V30 17741 C 1655.76 2.42549 2.39547 0
M  V30 17742 H 1656.95 2.92595 0.657893 0
M  V30 17743 H 1654.5 1.53272 0.306183 0
M  V30 17744 H 1655.24 1.56509 2.84034 0
M  V30 17745 H 1655.02 3.22911 2.22421 0
M  V30 17746 H 1656.51 2.7868 3.1101 0
M  V30 17747 N 1656.95 -0.331789 1.54068 0
M  V30 17748 C 1658.2 -1.07069 1.71879 0
M  V30 17749 C 1658.53 -1.88275 0.488139 0
M  V30 17750 O 1657.78 -1.88383 -0.53013 0
M  V30 17751 C 1658.08 -2.03015 2.94142 0
M  V30 17752 C 1657.75 -1.38029 4.29254 0
M  V30 17753 C 1656.41 -1.20036 4.65988 0
M  V30 17754 C 1658.76 -0.913164 5.13138 0
M  V30 17755 C 1656.09 -0.539664 5.84213 0
M  V30 17756 C 1658.44 -0.266329 6.32039 0
M  V30 17757 C 1657.1 -0.0741787 6.67459 0
M  V30 17758 H 1656.37 -0.391795 0.62895 0
M  V30 17759 H 1659.02 -0.348705 1.88298 0
M  V30 17760 H 1657.33 -2.81636 2.72375 0
M  V30 17761 H 1659.02 -2.60201 3.05117 0
M  V30 17762 H 1655.61 -1.53034 4.00348 0
M  V30 17763 H 1659.8 -1.03999 4.85281 0
M  V30 17764 H 1655.05 -0.379516 6.10221 0
M  V30 17765 H 1659.23 0.103668 6.96323 0
M  V30 17766 H 1656.85 0.43981 7.58927 0
M  V30 17767 N 1658.43 -1.46001 -0.593424 0
M  V30 17768 C 1659.38 -1.55752 -1.70323 0
M  V30 17769 C 1660.35 -0.402466 -1.6115 0
M  V30 17770 O 1661.53 -0.617804 -1.80521 0
M  V30 17771 C 1658.67 -1.54362 -3.08653 0
M  V30 17772 C 1657.78 -2.80523 -3.28529 0
M  V30 17773 C 1656.92 -2.70709 -4.57045 0
M  V30 17774 C 1655.96 -3.91857 -4.70228 0
M  V30 17775 N 1655.09 -3.80494 -5.90059 0
M  V30 17776 H 1659.93 -2.50555 -1.61326 0
M  V30 17777 H 1657.47 -1.24313 -0.786425 0
M  V30 17778 H 1659.43 -1.51542 -3.88704 0
M  V30 17779 H 1658.06 -0.630986 -3.16573 0
M  V30 17780 H 1657.11 -2.93368 -2.42155 0
M  V30 17781 H 1658.42 -3.70341 -3.3414 0
M  V30 17782 H 1657.58 -2.65935 -5.45311 0
M  V30 17783 H 1656.32 -1.78513 -4.53855 0
M  V30 17784 H 1655.32 -3.96975 -3.80383 0
M  V30 17785 H 1656.55 -4.85136 -4.75205 0
M  V30 17786 H 1654.49 -2.91077 -5.87886 0
M  V30 17787 H 1654.41 -4.63958 -5.96891 0
M  V30 17788 H 1655.68 -3.79676 -6.80783 0
M  V30 17789 N 1659.91 0.83715 -1.33527 0
M  V30 17790 C 1661.32 1.12809 -1.12899 0
M  V30 17791 C 1661.52 2.01345 0.0789761 0
M  V30 17792 O 1660.58 2.40831 0.758732 0
M  V30 17793 C 1661.89 1.78852 -2.41728 0
M  V30 17794 C 1663.44 1.91411 -2.47651 0
M  V30 17795 C 1663.91 2.6087 -3.76445 0
M  V30 17796 N 1665.41 2.68381 -3.77526 0
M  V30 17797 C 1666.14 3.22819 -4.73894 0
M  V30 17798 N 1665.64 3.77931 -5.80638 0
M  V30 17799 N 1667.43 3.21087 -4.61367 0
M  V30 17800 H 1659.58 0.247942 -2.10948 0
M  V30 17801 H 1661.84 0.172518 -0.93217 0
M  V30 17802 H 1661.55 1.21258 -3.30135 0
M  V30 17803 H 1661.42 2.78856 -2.54006 0
M  V30 17804 H 1663.81 2.48159 -1.59691 0
M  V30 17805 H 1663.89 0.903512 -2.39312 0
M  V30 17806 H 1663.54 2.0478 -4.64787 0
M  V30 17807 H 1663.47 3.62404 -3.82061 0
M  V30 17808 H 1665.96 2.29301 -3.00382 0
M  V30 17809 H 1666.27 4.17678 -6.50204 0
M  V30 17810 H 1664.61 3.76214 -5.8437 0
M  V30 17811 H 1667.81 2.7729 -3.77131 0
M  V30 17812 H 1667.98 3.6321 -5.3664 0
M  V30 17813 N 1661.38 1.17024 1.05561 0
M  V30 17814 C 1662.66 0.86635 1.75367 0
M  V30 17815 C 1663.04 -0.634217 2.01348 0
M  V30 17816 O 1662.39 -1.58434 1.64654 0
M  V30 17817 C 1662.6 1.69719 3.04953 0
M  V30 17818 C 1663.95 1.91482 3.78972 0
M  V30 17819 O 1664.97 1.66647 3.14813 0
M  V30 17820 O 1663.83 2.33197 4.94248 0
M  V30 17821 H 1660.92 0.320412 0.762407 0
M  V30 17822 H 1663.47 1.277 1.11763 0
M  V30 17823 H 1662.24 2.71512 2.81775 0
M  V30 17824 H 1661.87 1.28408 3.76294 0
M  V30 17825 N 1662.86 -1.24221 0.969889 0
M  V30 17826 C 1663.79 -2.27619 0.520745 0
M  V30 17827 C 1664.77 -1.64291 -0.440731 0
M  V30 17828 O 1665.96 -1.91265 -0.336381 0
M  V30 17829 C 1663.09 -3.46792 -0.187768 0
M  V30 17830 C 1662.04 -4.22402 0.689945 0
M  V30 17831 C 1661.37 -5.34489 -0.150186 0
M  V30 17832 C 1662.67 -4.83494 1.97562 0
M  V30 17833 H 1664.36 -2.65441 1.38498 0
M  V30 17834 H 1661.91 -1.276 0.667398 0
M  V30 17835 H 1663.86 -4.18263 -0.513216 0
M  V30 17836 H 1662.59 -3.08002 -1.08637 0
M  V30 17837 H 1661.24 -3.52734 0.998696 0
M  V30 17838 H 1660.89 -4.9194 -1.049 0
M  V30 17839 H 1660.59 -5.85996 0.433891 0
M  V30 17840 H 1662.12 -6.08786 -0.470255 0
M  V30 17841 H 1663.53 -5.47028 1.71561 0
M  V30 17842 H 1661.93 -5.45243 2.5066 0
M  V30 17843 H 1663 -4.04826 2.66915 0
M  V30 17844 N 1664.34 -0.740267 -1.39132 0
M  V30 17845 C 1665.29 -0.0929334 -2.32414 0
M  V30 17846 C 1666.28 0.720062 -1.53334 0
M  V30 17847 O 1667.49 0.620656 -1.68961 0
M  V30 17848 H 1663.86 -0.0112531 -0.751916 0
M  V30 17849 H 1665.83 -0.895975 -2.84631 0
M  V30 17850 C 1664.58 0.796182 -3.38462 0
M  V30 17851 H 1663.91 0.17999 -3.99395 0
M  V30 17852 H 1665.35 1.21664 -4.0617 0
M  V30 17853 C 1663.81 1.93285 -2.75939 0
M  V30 17854 O 1664.34 3.02593 -2.64198 0
M  V30 17855 N 1662.54 1.72386 -2.33948 0
M  V30 17856 H 1662.09 0.834821 -2.43698 0
M  V30 17857 H 1662.05 2.48612 -1.92456 0
M  V30 17858 N 1665.82 1.49844 -0.488302 0
M  V30 17859 C 1667.06 2.03331 0.052835 0
M  V30 17860 C 1667.42 1.3624 1.35854 0
M  V30 17861 O 1666.71 0.484818 1.85365 0
M  V30 17862 C 1666.91 3.56342 0.274851 0
M  V30 17863 C 1666.74 4.38262 -1.00779 0
M  V30 17864 C 1665.51 4.80746 -1.55599 0
M  V30 17865 C 1667.7 4.77608 -1.90774 0
M  V30 17866 N 1665.69 5.4705 -2.78586 0
M  V30 17867 C 1667.06 5.43499 -2.98343 0
M  V30 17868 C 1669.11 4.59556 -1.91606 0
M  V30 17869 C 1667.81 5.93249 -4.06753 0
M  V30 17870 C 1669.84 5.10258 -2.98983 0
M  V30 17871 C 1669.2 5.76138 -4.0527 0
M  V30 17872 H 1665.3 0.781715 -0.021128 0
M  V30 17873 H 1667.89 1.8316 -0.66034 0
M  V30 17874 H 1666.06 3.76424 0.957074 0
M  V30 17875 H 1667.79 3.96473 0.811862 0
M  V30 17876 H 1664.54 4.6058 -1.10284 0
M  V30 17877 H 1664.97 5.84796 -3.4109 0
M  V30 17878 H 1669.61 4.08039 -1.10744 0
M  V30 17879 H 1667.33 6.43794 -4.88421 0
M  V30 17880 H 1670.91 4.98109 -3.00631 0
M  V30 17881 H 1669.79 6.14663 -4.8699 0
M  V30 17882 N 1667.3 0.221601 1.56034 0
M  V30 17883 C 1668.24 -0.704963 2.2166 0
M  V30 17884 C 1669.24 -1.19966 1.19601 0
M  V30 17885 O 1670.44 -1.15949 1.37681 0
M  V30 17886 H 1666.82 -0.245758 0.710709 0
M  V30 17887 H 1668.79 -0.128041 2.98125 0
M  V30 17888 C 1667.54 -1.90234 2.91043 0
M  V30 17889 H 1666.86 -1.53079 3.69333 0
M  V30 17890 H 1668.3 -2.52844 3.40361 0
M  V30 17891 C 1666.76 -2.75777 1.93516 0
M  V30 17892 O 1667.29 -3.74534 1.45214 0
M  V30 17893 N 1665.5 -2.41815 1.61165 0
M  V30 17894 H 1665.04 -1.61561 2.00639 0
M  V30 17895 H 1665 -2.9933 0.96172 0
M  V30 17896 N 1668.77 -1.57515 -0.0517878 0
M  V30 17897 C 1670 -1.92456 -0.759485 0
M  V30 17898 C 1670.42 -0.819396 -1.70092 0
M  V30 17899 O 1669.77 0.205913 -1.81335 0
M  V30 17900 C 1669.83 -3.27242 -1.53606 0
M  V30 17901 O 1669.55 -4.33511 -0.632441 0
M  V30 17902 C 1671.05 -3.76324 -2.34297 0
M  V30 17903 H 1668.27 -0.635688 -0.214807 0
M  V30 17904 H 1670.81 -2.04494 -0.0160862 0
M  V30 17905 H 1668.97 -3.16671 -2.23155 0
M  V30 17906 H 1669.38 -5.11178 -1.17462 0
M  V30 17907 H 1670.85 -4.73209 -2.84213 0
M  V30 17908 H 1671.33 -3.06351 -3.14716 0
M  V30 17909 H 1671.94 -3.89904 -1.69866 0
M  V30 17910 N 1670.25 0.323614 -1.54242 0
M  V30 17911 C 1671.5 1.05935 -1.73636 0
M  V30 17912 C 1671.85 1.85684 -0.503888 0
M  V30 17913 O 1671.15 1.84861 0.503692 0
M  V30 17914 C 1671.34 2.01452 -2.95215 0
M  V30 17915 C 1671.17 1.31094 -4.30168 0
M  V30 17916 C 1669.94 1.04747 -4.94324 0
M  V30 17917 C 1672.14 0.726886 -5.09137 0
M  V30 17918 N 1670.12 0.311788 -6.13108 0
M  V30 17919 C 1671.49 0.122813 -6.19878 0
M  V30 17920 C 1673.55 0.629696 -4.93902 0
M  V30 17921 C 1672.25 -0.569019 -7.17046 0
M  V30 17922 C 1674.28 -0.0484359 -5.9138 0
M  V30 17923 C 1673.64 -0.641453 -7.01473 0
M  V30 17924 H 1669.74 0.371344 -0.688206 0
M  V30 17925 H 1672.32 0.340541 -1.91699 0
M  V30 17926 H 1670.49 2.70605 -2.78617 0
M  V30 17927 H 1672.22 2.6801 -3.03237 0
M  V30 17928 H 1668.98 1.33979 -4.54254 0
M  V30 17929 H 1669.4 -0.0419069 -6.76987 0
M  V30 17930 H 1674.04 1.0739 -4.08934 0
M  V30 17931 H 1671.76 -1.02505 -8.01572 0
M  V30 17932 H 1675.35 -0.123275 -5.81669 0
M  V30 17933 H 1674.23 -1.15786 -7.75605 0
M  V30 17934 N 1671.73 1.46313 0.585673 0
M  V30 17935 C 1672.98 1.51171 1.34134 0
M  V30 17936 C 1673.3 0.163691 1.94312 0
M  V30 17937 O 1672.57 -0.809444 1.78395 0
M  V30 17938 H 1671.15 0.556768 0.498014 0
M  V30 17939 H 1673.81 1.82423 0.686133 0
M  V30 17940 H 1672.91 2.26274 2.14957 0
M  V30 17941 N 1673.21 -0.830057 1.33969 0
M  V30 17942 C 1674.14 -1.94534 1.19297 0
M  V30 17943 C 1675.12 -1.62371 0.0862986 0
M  V30 17944 O 1676.3 -1.86833 0.250152 0
M  V30 17945 C 1673.43 -3.28329 0.831718 0
M  V30 17946 C 1672.48 -3.79459 1.94713 0
M  V30 17947 S 1673.31 -4.00075 3.5595 0
M  V30 17948 C 1674.47 -5.36808 3.21851 0
M  V30 17949 H 1674.7 -2.06683 2.13704 0
M  V30 17950 H 1672.23 -0.984833 1.18913 0
M  V30 17951 H 1674.19 -4.05636 0.630076 0
M  V30 17952 H 1672.85 -3.1396 -0.0939047 0
M  V30 17953 H 1672.04 -4.76297 1.64795 0
M  V30 17954 H 1671.65 -3.09076 2.10589 0
M  V30 17955 H 1673.94 -6.19964 2.73223 0
M  V30 17956 H 1674.88 -5.71705 4.17802 0
M  V30 17957 H 1675.29 -5.0198 2.58217 0
M  V30 17958 N 1674.69 -1.17582 -1.04939 0
M  V30 17959 C 1675.93 -0.965778 -1.77986 0
M  V30 17960 C 1676.26 0.505366 -1.8782 0
M  V30 17961 O 1675.52 1.39132 -1.37625 0
M  V30 17962 C 1675.82 -1.55507 -3.21796 0
M  V30 17963 C 1675.48 -3.05086 -3.32014 0
M  V30 17964 C 1674.14 -3.45914 -3.3451 0
M  V30 17965 C 1676.5 -4.01096 -3.32824 0
M  V30 17966 C 1673.82 -4.81344 -3.35447 0
M  V30 17967 C 1676.18 -5.3643 -3.353 0
M  V30 17968 C 1674.84 -5.76718 -3.36084 0
M  V30 17969 H 1674.11 -0.353403 -0.651297 0
M  V30 17970 H 1676.76 -1.46512 -1.23315 0
M  V30 17971 H 1675.06 -0.977509 -3.7941 0
M  V30 17972 H 1676.76 -1.36807 -3.76941 0
M  V30 17973 H 1673.35 -2.72541 -3.30786 0
M  V30 17974 H 1677.53 -3.7061 -3.30094 0
M  V30 17975 H 1672.79 -5.11868 -3.34366 0
M  V30 17976 H 1676.96 -6.106 -3.34874 0
M  V30 17977 H 1674.59 -6.81637 -3.36563 0
M  V30 17978 N 1676.17 1.23705 -0.976463 0
M  V30 17979 C 1677.39 1.96055 -0.661065 0
M  V30 17980 C 1677.81 1.7233 0.77121 0
M  V30 17981 O 1677.17 1.01234 1.51849 0
M  V30 17982 C 1677.22 3.49144 -0.937071 0
M  V30 17983 O 1676.94 3.72061 -2.31305 0
M  V30 17984 C 1678.44 4.38698 -0.637077 0
M  V30 17985 H 1675.66 0.624319 -0.245901 0
M  V30 17986 H 1678.2 1.57301 -1.30678 0
M  V30 17987 H 1676.36 3.85928 -0.33743 0
M  V30 17988 H 1676.77 4.66383 -2.39973 0
M  V30 17989 H 1678.25 5.44931 -0.88059 0
M  V30 17990 H 1678.72 4.37102 0.428802 0
M  V30 17991 H 1679.33 4.07515 -1.21702 0
M  V30 17992 N 1677.64 0.747635 1.38738 0
M  V30 17993 C 1679.06 0.424577 1.53849 0
M  V30 17994 C 1679.26 -1.06304 1.71177 0
M  V30 17995 O 1678.32 -1.84912 1.71941 0
M  V30 17996 C 1679.63 1.21863 2.749 0
M  V30 17997 C 1681.18 1.20811 2.88745 0
M  V30 17998 C 1681.65 1.985 4.12749 0
M  V30 17999 N 1683.14 1.9573 4.19814 0
M  V30 18000 C 1683.88 2.52641 5.14743 0
M  V30 18001 N 1683.37 3.18241 6.15382 0
M  V30 18002 N 1685.17 2.42604 5.0705 0
M  V30 18003 H 1677.32 1.71182 1.25739 0
M  V30 18004 H 1679.58 0.725358 0.610376 0
M  V30 18005 H 1679.29 2.27181 2.6848 0
M  V30 18006 H 1679.16 0.831509 3.67921 0
M  V30 18007 H 1681.55 0.163013 2.94649 0
M  V30 18008 H 1681.63 1.6347 1.96752 0
M  V30 18009 H 1681.27 3.03017 4.07606 0
M  V30 18010 H 1681.2 1.53239 5.03811 0
M  V30 18011 H 1683.69 1.4795 3.47734 0
M  V30 18012 H 1684.01 3.59101 6.843 0
M  V30 18013 H 1682.35 3.22334 6.15732 0
M  V30 18014 H 1685.54 1.90987 4.27366 0
M  V30 18015 H 1685.72 2.87253 5.80852 0
M  V30 18016 N 1679.12 -1.49583 0.496242 0
M  V30 18017 C 1680.4 -1.95275 -0.112751 0
M  V30 18018 C 1680.78 -1.43758 -1.54586 0
M  V30 18019 O 1680.13 -0.649285 -2.19081 0
M  V30 18020 C 1680.34 -3.48987 -0.0302774 0
M  V30 18021 C 1681.68 -4.24097 -0.206595 0
M  V30 18022 O 1682.71 -3.56043 -0.105689 0
M  V30 18023 O 1681.57 -5.44936 -0.413172 0
M  V30 18024 H 1678.66 -0.821183 -0.0979145 0
M  V30 18025 H 1681.21 -1.60248 0.558441 0
M  V30 18026 H 1679.98 -3.79104 0.969322 0
M  V30 18027 H 1679.6 -3.90618 -0.741825 0
M  V30 18028 N 1680.6 -0.229873 -1.55915 0
M  V30 18029 C 1681.53 0.70927 -2.1795 0
M  V30 18030 C 1682.54 1.15142 -1.15092 0
M  V30 18031 O 1683.73 1.08114 -1.42034 0
M  V30 18032 C 1680.83 1.97359 -2.75504 0
M  V30 18033 C 1680.01 1.68565 -4.03614 0
M  V30 18034 C 1679.07 2.79786 -4.45652 0
M  V30 18035 O 1678.09 2.479 -5.12381 0
M  V30 18036 N 1679.29 4.08921 -4.12024 0
M  V30 18037 H 1682.06 0.178573 -2.99168 0
M  V30 18038 H 1679.62 -0.0491789 -1.61825 0
M  V30 18039 H 1681.61 2.70972 -3.00593 0
M  V30 18040 H 1680.18 2.41454 -1.98542 0
M  V30 18041 H 1679.4 0.785547 -3.86294 0
M  V30 18042 H 1680.69 1.46769 -4.87172 0
M  V30 18043 H 1680.09 4.37667 -3.58419 0
M  V30 18044 H 1678.64 4.79052 -4.41987 0
M  V30 18045 N 1682.08 1.5754 0.0434337 0
M  V30 18046 C 1683.49 1.77071 0.591836 0
M  V30 18047 C 1683.84 0.85911 1.76391 0
M  V30 18048 O 1682.96 0.0502725 2.16342 0
M  V30 18049 C 1683.56 3.21111 1.08041 0
M  V30 18050 C 1682.12 3.41889 1.57445 0
M  V30 18051 C 1681.27 2.72641 0.506166 0
M  V30 18052 H 1684.22 1.57644 -0.182792 0
M  V30 18053 H 1684.24 3.26834 1.94833 0
M  V30 18054 H 1683.75 3.87435 0.227153 0
M  V30 18055 H 1681.85 2.80721 2.45003 0
M  V30 18056 H 1681.96 4.50452 1.63185 0
M  V30 18057 H 1680.33 2.36002 0.957878 0
M  V30 18058 H 1681.11 3.41638 -0.337389 0
M  V30 18059 N 1683.56 -0.31543 1.54411 0
M  V30 18060 C 1684.97 -0.889358 1.64156 0
M  V30 18061 C 1685.32 -1.88598 0.54087 0
M  V30 18062 O 1684.44 -2.13947 -0.324904 0
M  V30 18063 C 1685.04 -1.61985 2.97567 0
M  V30 18064 C 1683.6 -2.14239 3.09481 0
M  V30 18065 C 1682.74 -0.970382 2.59767 0
M  V30 18066 H 1685.69 -0.092797 1.58428 0
M  V30 18067 H 1685.72 -2.48457 2.88183 0
M  V30 18068 H 1685.23 -0.89425 3.77657 0
M  V30 18069 H 1683.33 -2.8989 2.34082 0
M  V30 18070 H 1683.44 -2.38681 4.15413 0
M  V30 18071 H 1681.81 -1.35187 2.15863 0
M  V30 18072 H 1682.59 -0.258968 3.42322 0
M  V30 18073 N 1685.03 -1.46622 -0.577906 0
M  V30 18074 C 1686.28 -1.5188 -1.3333 0
M  V30 18075 C 1686.6 -0.173993 -1.94222 0
M  V30 18076 O 1685.87 0.799972 -1.78822 0
M  V30 18077 H 1684.45 -0.559401 -0.495055 0
M  V30 18078 H 1687.12 -1.82785 -0.676449 0
M  V30 18079 H 1686.21 -2.27411 -2.13754 0
M  V30 18080 N 1686.51 0.822941 -1.34408 0
M  V30 18081 C 1687.74 1.60854 -1.29652 0
M  V30 18082 C 1688.15 1.88742 0.131572 0
M  V30 18083 O 1687.49 1.47936 1.08907 0
M  V30 18084 C 1687.56 2.97437 -2.0192 0
M  V30 18085 C 1687.22 2.92443 -3.51178 0
M  V30 18086 C 1688.22 2.67029 -4.46085 0
M  V30 18087 C 1685.9 3.12076 -3.93591 0
M  V30 18088 C 1687.9 2.61299 -5.81379 0
M  V30 18089 C 1685.58 3.05971 -5.28985 0
M  V30 18090 C 1686.58 2.80615 -6.22691 0
M  V30 18091 O 1686.27 2.74442 -7.55603 0
M  V30 18092 H 1686 0.506701 -0.447471 0
M  V30 18093 H 1688.55 1.03197 -1.77594 0
M  V30 18094 H 1686.78 3.57012 -1.48592 0
M  V30 18095 H 1688.47 3.58444 -1.90455 0
M  V30 18096 H 1689.24 2.51596 -4.14638 0
M  V30 18097 H 1685.12 3.30828 -3.21051 0
M  V30 18098 H 1688.66 2.41428 -6.54491 0
M  V30 18099 H 1684.56 3.20957 -5.60051 0
M  V30 18100 H 1685.33 2.90169 -7.65339 0
M  V30 18101 N 1687.99 1.18137 1.04314 0
M  V30 18102 C 1688.94 0.906125 2.12269 0
M  V30 18103 C 1689.91 -0.153492 1.65389 0
M  V30 18104 O 1691.09 -0.0143887 1.90795 0
M  V30 18105 C 1688.23 0.435247 3.42344 0
M  V30 18106 C 1687.35 1.56 4.0285 0
M  V30 18107 C 1686.48 1.0421 5.20878 0
M  V30 18108 C 1685.52 2.14171 5.73409 0
M  V30 18109 N 1684.66 1.63792 6.82727 0
M  V30 18110 H 1689.5 1.83052 2.35151 0
M  V30 18111 H 1687.03 0.912846 1.1535 0
M  V30 18112 H 1688.99 0.143733 4.16952 0
M  V30 18113 H 1687.62 -0.452175 3.19617 0
M  V30 18114 H 1686.67 1.96705 3.25594 0
M  V30 18115 H 1687.99 2.389 4.37868 0
M  V30 18116 H 1687.14 0.704959 6.0259 0
M  V30 18117 H 1685.88 0.182643 4.87358 0
M  V30 18118 H 1684.88 2.48732 4.90319 0
M  V30 18119 H 1686.11 3.00547 6.08973 0
M  V30 18120 H 1684.05 0.801323 6.51087 0
M  V30 18121 H 1683.97 2.40293 7.16795 0
M  V30 18122 H 1685.24 1.32998 7.6807 0
M  V30 18123 N 1689.47 -1.23186 0.98301 0
M  V30 18124 C 1690.4 -2.27054 0.544858 0
M  V30 18125 C 1691.38 -1.64749 -0.423281 0
M  V30 18126 O 1692.56 -1.91611 -0.316075 0
M  V30 18127 C 1689.69 -3.46972 -0.150976 0
M  V30 18128 C 1688.65 -4.21647 0.734707 0
M  V30 18129 C 1687.97 -5.34618 -0.0934874 0
M  V30 18130 C 1689.27 -4.81372 2.02679 0
M  V30 18131 H 1690.97 -2.63957 1.41305 0
M  V30 18132 H 1688.51 -1.26885 0.680895 0
M  V30 18133 H 1690.47 -4.18784 -0.468825 0
M  V30 18134 H 1689.19 -3.09137 -1.05364 0
M  V30 18135 H 1687.85 -3.51655 1.03605 0
M  V30 18136 H 1687.5 -4.93025 -0.996768 0
M  V30 18137 H 1687.2 -5.85503 0.496019 0
M  V30 18138 H 1688.72 -6.09251 -0.405658 0
M  V30 18139 H 1690.14 -5.45178 1.77353 0
M  V30 18140 H 1688.53 -5.42554 2.56429 0
M  V30 18141 H 1689.6 -4.01972 2.71194 0
M  V30 18142 N 1690.95 -0.754982 -1.38339 0
M  V30 18143 C 1691.89 -0.117579 -2.32303 0
M  V30 18144 C 1692.89 0.703759 -1.5409 0
M  V30 18145 O 1694.09 0.602701 -1.6961 0
M  V30 18146 H 1690.47 -0.0192276 -0.751754 0
M  V30 18147 H 1692.44 -0.926113 -2.83665 0
M  V30 18148 C 1691.19 0.760239 -3.39287 0
M  V30 18149 H 1690.51 0.137619 -3.99563 0
M  V30 18150 H 1691.95 1.17349 -4.07437 0
M  V30 18151 C 1690.41 1.90347 -2.77974 0
M  V30 18152 O 1690.94 2.99773 -2.67393 0
M  V30 18153 N 1689.15 1.69895 -2.35763 0
M  V30 18154 H 1688.69 0.808926 -2.44569 0
M  V30 18155 H 1688.65 2.46557 -1.95082 0
M  V30 18156 N 1692.42 1.49318 -0.504168 0
M  V30 18157 C 1693.65 2.07365 0.038102 0
M  V30 18158 C 1694.07 1.36164 1.29773 0
M  V30 18159 O 1693.43 0.419365 1.76383 0
M  V30 18160 C 1693.48 3.59576 0.271535 0
M  V30 18161 O 1692.58 3.8983 1.34561 0
M  V30 18162 H 1691.93 0.663425 -0.0276328 0
M  V30 18163 H 1694.46 1.92081 -0.704696 0
M  V30 18164 H 1694.47 4.04899 0.502083 0
M  V30 18165 H 1693.14 4.10809 -0.648754 0
M  V30 18166 H 1691.72 3.56314 1.09976 0
M  V30 18167 N 1693.9 0.238138 1.5579 0
M  V30 18168 C 1695.13 -0.392852 2.02831 0
M  V30 18169 C 1695.54 -1.52714 1.11692 0
M  V30 18170 O 1694.88 -1.83294 0.122034 0
M  V30 18171 C 1694.95 -0.970383 3.46156 0
M  V30 18172 C 1694.61 0.0305457 4.5699 0
M  V30 18173 C 1695.61 0.836938 5.13119 0
M  V30 18174 C 1693.29 0.154102 5.02064 0
M  V30 18175 C 1695.29 1.75343 6.12808 0
M  V30 18176 C 1692.97 1.07411 6.01586 0
M  V30 18177 C 1693.97 1.8723 6.56836 0
M  V30 18178 O 1693.66 2.77681 7.54419 0
M  V30 18179 H 1693.39 -0.0985571 0.668777 0
M  V30 18180 H 1695.94 0.356979 2.02274 0
M  V30 18181 H 1694.17 -1.76961 3.43834 0
M  V30 18182 H 1695.86 -1.51053 3.76747 0
M  V30 18183 H 1696.63 0.752021 4.79134 0
M  V30 18184 H 1692.51 -0.457094 4.58728 0
M  V30 18185 H 1696.05 2.37687 6.55859 0
M  V30 18186 H 1691.95 1.15998 6.34992 0
M  V30 18187 H 1692.72 2.71943 7.72003 0
M  V30 18188 N 1695.38 -1.57561 -0.0350783 0
M  V30 18189 C 1696.63 -1.88623 -0.725659 0
M  V30 18190 C 1696.95 -0.835055 -1.76215 0
M  V30 18191 O 1696.22 0.13206 -1.95454 0
M  V30 18192 H 1694.8 -0.696108 -0.271004 0
M  V30 18193 H 1697.46 -1.949 -0.00245508 0
M  V30 18194 H 1696.56 -2.8731 -1.21899 0
M  V30 18195 N 1696.86 0.307236 -1.54576 0
M  V30 18196 C 1698.11 1.04321 -1.73561 0
M  V30 18197 C 1698.43 1.87475 -0.51803 0
M  V30 18198 O 1697.69 1.89202 0.500093 0
M  V30 18199 C 1697.99 1.9831 -2.97335 0
M  V30 18200 C 1697.65 1.31182 -4.31395 0
M  V30 18201 C 1696.32 1.12607 -4.67839 0
M  V30 18202 C 1698.67 0.831413 -5.14526 0
M  V30 18203 C 1696 0.446652 -5.84997 0
M  V30 18204 C 1698.35 0.165743 -6.32383 0
M  V30 18205 C 1697.01 -0.0320176 -6.67492 0
M  V30 18206 H 1696.28 0.381739 -0.635103 0
M  V30 18207 H 1698.93 0.318705 -1.88829 0
M  V30 18208 H 1697.23 2.77267 -2.76821 0
M  V30 18209 H 1698.93 2.55314 -3.09218 0
M  V30 18210 H 1695.52 1.46645 -4.02732 0
M  V30 18211 H 1699.7 0.962653 -4.86874 0
M  V30 18212 H 1694.96 0.282387 -6.10748 0
M  V30 18213 H 1699.13 -0.214434 -6.9607 0
M  V30 18214 H 1696.76 -0.560493 -7.58131 0
M  V30 18215 N 1698.34 1.46926 0.570122 0
M  V30 18216 C 1699.29 1.54854 1.67345 0
M  V30 18217 C 1700.27 0.40843 1.5563 0
M  V30 18218 O 1701.46 0.657596 1.64331 0
M  V30 18219 C 1698.59 1.55369 3.0613 0
M  V30 18220 C 1697.68 2.74718 3.23096 0
M  V30 18221 N 1698.07 3.99532 3.10173 0
M  V30 18222 C 1696.37 2.71207 3.54066 0
M  V30 18223 C 1697.07 4.79391 3.29483 0
M  V30 18224 N 1696.04 4.11484 3.55221 0
M  V30 18225 H 1699.85 2.49141 1.55903 0
M  V30 18226 H 1697.36 1.42741 0.774518 0
M  V30 18227 H 1699.36 1.59136 3.85333 0
M  V30 18228 H 1698.02 0.62167 3.18693 0
M  V30 18229 H 1699.03 4.3059 2.87772 0
M  V30 18230 H 1695.7 1.87086 3.73236 0
M  V30 18231 H 1697.09 5.88307 3.24569 0
M  V30 18232 N 1699.82 -0.815801 1.34842 0
M  V30 18233 C 1701.23 -1.38911 1.24742 0
M  V30 18234 C 1701.58 -1.95807 -0.124101 0
M  V30 18235 O 1700.7 -1.906 -1.02472 0
M  V30 18236 C 1701.3 -2.52532 2.25861 0
M  V30 18237 C 1699.86 -3.05751 2.1953 0
M  V30 18238 C 1699 -1.78661 2.12075 0
M  V30 18239 H 1701.95 -0.619601 1.46105 0
M  V30 18240 H 1701.98 -3.30826 1.87974 0
M  V30 18241 H 1701.49 -2.11092 3.25671 0
M  V30 18242 H 1699.59 -3.51678 1.23099 0
M  V30 18243 H 1699.7 -3.64358 3.11095 0
M  V30 18244 H 1698.07 -1.99844 1.57907 0
M  V30 18245 H 1698.85 -1.39385 3.1373 0
M  V30 18246 N 1701.29 -1.18689 -1.03686 0
M  V30 18247 C 1702.52 -1.00814 -1.80333 0
M  V30 18248 C 1702.93 0.446495 -1.83856 0
M  V30 18249 O 1702.27 1.32192 -1.27558 0
M  V30 18250 C 1702.34 -1.49133 -3.27108 0
M  V30 18251 C 1702 -2.97112 -3.47237 0
M  V30 18252 C 1703 -3.94938 -3.38113 0
M  V30 18253 C 1700.68 -3.35628 -3.7371 0
M  V30 18254 C 1702.68 -5.29274 -3.55172 0
M  V30 18255 C 1700.36 -4.70126 -3.90416 0
M  V30 18256 C 1701.36 -5.66758 -3.81148 0
M  V30 18257 O 1701.05 -6.98821 -3.97371 0
M  V30 18258 H 1700.78 -0.356077 -0.574617 0
M  V30 18259 H 1703.34 -1.57754 -1.31541 0
M  V30 18260 H 1701.57 -0.865624 -3.76887 0
M  V30 18261 H 1703.25 -1.27591 -3.85325 0
M  V30 18262 H 1704.02 -3.66527 -3.17621 0
M  V30 18263 H 1699.9 -2.6097 -3.8002 0
M  V30 18264 H 1703.44 -6.04684 -3.47854 0
M  V30 18265 H 1699.34 -4.98236 -4.10404 0
M  V30 18266 H 1700.11 -7.05779 -4.14509 0
M  V30 18267 N 1702.77 1.22662 -0.989529 0
M  V30 18268 C 1704 1.9506 -0.680833 0
M  V30 18269 C 1704.41 1.73354 0.757953 0
M  V30 18270 O 1703.75 1.02755 1.52273 0
M  V30 18271 C 1703.81 3.47982 -0.902711 0
M  V30 18272 C 1703.48 3.93418 -2.32533 0
M  V30 18273 C 1704.48 4.01362 -3.30462 0
M  V30 18274 C 1702.16 4.26157 -2.65886 0
M  V30 18275 C 1704.15 4.41413 -4.59819 0
M  V30 18276 C 1701.84 4.65888 -3.95463 0
M  V30 18277 C 1702.84 4.73484 -4.92241 0
M  V30 18278 O 1702.53 5.12318 -6.19504 0
M  V30 18279 H 1702.26 0.627572 -0.251256 0
M  V30 18280 H 1704.81 1.56858 -1.32608 0
M  V30 18281 H 1703.04 3.86181 -0.200292 0
M  V30 18282 H 1704.73 4.01592 -0.589781 0
M  V30 18283 H 1705.5 3.76262 -3.06026 0
M  V30 18284 H 1701.38 4.19451 -1.91263 0
M  V30 18285 H 1704.92 4.47257 -5.35357 0
M  V30 18286 H 1700.82 4.90439 -4.1969 0
M  V30 18287 H 1701.59 5.30402 -6.23391 0
M  V30 18288 N 1704.25 0.762308 1.37937 0
M  V30 18289 C 1705.18 0.0886896 2.28028 0
M  V30 18290 C 1706.16 -0.719127 1.45833 0
M  V30 18291 O 1707.34 -0.695902 1.75184 0
M  V30 18292 C 1704.47 -0.880957 3.27043 0
M  V30 18293 C 1703.52 -0.158303 4.26206 0
M  V30 18294 S 1704.35 1.14705 5.23071 0
M  V30 18295 C 1705.51 0.180701 6.25639 0
M  V30 18296 H 1705.74 0.852627 2.84811 0
M  V30 18297 H 1703.27 0.555273 1.4407 0
M  V30 18298 H 1705.23 -1.43504 3.846 0
M  V30 18299 H 1703.89 -1.61793 2.69224 0
M  V30 18300 H 1703.08 -0.893012 4.96025 0
M  V30 18301 H 1702.69 0.324503 3.7259 0
M  V30 18302 H 1704.98 -0.650247 6.74372 0
M  V30 18303 H 1705.92 0.846801 7.03018 0
M  V30 18304 H 1706.33 -0.203883 5.64132 0
M  V30 18305 N 1705.73 -1.49049 0.51208 0
M  V30 18306 C 1706.69 -2.27838 -0.249491 0
M  V30 18307 C 1707.69 -1.34321 -0.884004 0
M  V30 18308 O 1708.88 -1.57379 -0.74682 0
M  V30 18309 C 1706.01 -3.12637 -1.35908 0
M  V30 18310 H 1707.21 -2.96625 0.442029 0
M  V30 18311 H 1704.76 -1.53996 0.267406 0
M  V30 18312 H 1705.49 -2.48441 -2.0844 0
M  V30 18313 H 1705.28 -3.81408 -0.909427 0
M  V30 18314 H 1706.77 -3.72117 -1.89523 0
M  V30 18315 N 1707.21 -0.246397 -1.55662 0
M  V30 18316 C 1708.14 0.647563 -2.24341 0
M  V30 18317 C 1709.12 1.1817 -1.22352 0
M  V30 18318 O 1710.3 1.22114 -1.51003 0
M  V30 18319 C 1707.43 1.84485 -2.94249 0
M  V30 18320 C 1706.39 1.4435 -4.02923 0
M  V30 18321 C 1705.71 2.72158 -4.60255 0
M  V30 18322 C 1707.01 0.614951 -5.18667 0
M  V30 18323 H 1708.71 0.0748803 -2.99306 0
M  V30 18324 H 1706.25 0.034575 -1.43958 0
M  V30 18325 H 1708.2 2.47588 -3.40995 0
M  V30 18326 H 1706.93 2.4429 -2.16772 0
M  V30 18327 H 1705.59 0.835811 -3.56945 0
M  V30 18328 H 1705.24 3.3016 -3.79478 0
M  V30 18329 H 1704.94 2.46028 -5.33614 0
M  V30 18330 H 1706.46 3.36161 -5.09734 0
M  V30 18331 H 1707.87 1.15028 -5.61642 0
M  V30 18332 H 1706.27 0.449729 -5.98412 0
M  V30 18333 H 1707.34 -0.372943 -4.83464 0
M  V30 18334 N 1708.68 1.57577 0.026722 0
M  V30 18335 C 1709.59 2.10114 1.04351 0
M  V30 18336 C 1710.61 1.04029 1.39477 0
M  V30 18337 O 1711.79 1.35778 1.48749 0
M  V30 18338 C 1708.85 2.57203 2.32481 0
M  V30 18339 C 1707.91 3.77779 2.03915 0
M  V30 18340 C 1707.14 4.22613 3.25936 0
M  V30 18341 O 1707.37 3.66955 4.36692 0
M  V30 18342 O 1706.3 5.15026 3.11499 0
M  V30 18343 H 1710.13 2.97157 0.627021 0
M  V30 18344 H 1707.71 1.47396 0.243855 0
M  V30 18345 H 1709.59 2.87809 3.07805 0
M  V30 18346 H 1708.27 1.7327 2.73421 0
M  V30 18347 H 1707.18 3.52188 1.26152 0
M  V30 18348 H 1708.51 4.62703 1.67829 0
M  V30 18349 N 1710.16 -0.299034 1.54737 0
M  V30 18350 C 1711.07 -1.39141 1.88884 0
M  V30 18351 C 1712.09 -1.55377 0.783203 0
M  V30 18352 O 1713.26 -1.70003 1.07985 0
M  V30 18353 C 1710.33 -2.73487 2.13087 0
M  V30 18354 C 1709.39 -2.66219 3.36788 0
M  V30 18355 C 1708.62 -3.94158 3.59827 0
M  V30 18356 O 1708.85 -4.9361 2.85841 0
M  V30 18357 O 1707.78 -3.95933 4.53344 0
M  V30 18358 H 1711.61 -1.13184 2.81821 0
M  V30 18359 H 1709.19 -0.495271 1.40952 0
M  V30 18360 H 1711.07 -3.5297 2.30195 0
M  V30 18361 H 1709.75 -2.99283 1.23335 0
M  V30 18362 H 1708.65 -1.85201 3.25041 0
M  V30 18363 H 1709.99 -2.45376 4.26675 0
M  V30 18364 N 1711.64 -1.47227 -0.562322 0
M  V30 18365 C 1712.55 -1.61953 -1.69731 0
M  V30 18366 C 1713.57 -0.502478 -1.66587 0
M  V30 18367 O 1714.74 -0.769335 -1.86127 0
M  V30 18368 C 1711.81 -1.62539 -3.06238 0
M  V30 18369 C 1710.87 -2.85632 -3.20489 0
M  V30 18370 C 1710.1 -2.86181 -4.50485 0
M  V30 18371 O 1710.32 -1.96099 -5.35632 0
M  V30 18372 O 1709.26 -3.7798 -4.68417 0
M  V30 18373 H 1713.08 -2.5798 -1.6025 0
M  V30 18374 H 1710.67 -1.30253 -0.73174 0
M  V30 18375 H 1712.55 -1.65634 -3.87483 0
M  V30 18376 H 1711.23 -0.696779 -3.16112 0
M  V30 18377 H 1710.13 -2.88084 -2.3866 0
M  V30 18378 H 1711.47 -3.7777 -3.15517 0
M  V30 18379 N 1713.12 0.808639 -1.35273 0
M  V30 18380 C 1714.37 1.56253 -1.28177 0
M  V30 18381 C 1714.69 1.94466 0.144151 0
M  V30 18382 O 1713.96 1.63433 1.08011 0
M  V30 18383 H 1712.54 0.579431 -0.471454 0
M  V30 18384 H 1715.2 0.964675 -1.69352 0
M  V30 18385 H 1714.29 2.47888 -1.89625 0
M  V30 18386 N 1714.6 1.19237 1.03055 0
M  V30 18387 C 1715.54 0.925171 2.13409 0
M  V30 18388 C 1716.54 -0.118373 1.68986 0
M  V30 18389 O 1717.74 0.0307159 1.79974 0
M  V30 18390 H 1714.12 0.281769 0.697216 0
M  V30 18391 H 1716.09 1.86252 2.33137 0
M  V30 18392 C 1714.84 0.478529 3.44391 0
M  V30 18393 H 1714.16 1.27305 3.7899 0
M  V30 18394 H 1715.6 0.330661 4.22709 0
M  V30 18395 C 1714.06 -0.80715 3.27088 0
M  V30 18396 O 1714.59 -1.86897 3.55573 0
M  V30 18397 N 1712.8 -0.76373 2.80385 0
M  V30 18398 H 1712.34 0.100606 2.57403 0
M  V30 18399 H 1712.3 -1.62435 2.69188 0
M  V30 18400 N 1716.07 -1.22136 0.99602 0
M  V30 18401 C 1717.04 -2.22404 0.553986 0
M  V30 18402 C 1718.04 -1.56607 -0.364832 0
M  V30 18403 O 1719.23 -1.73497 -0.156358 0
M  V30 18404 C 1716.36 -3.40349 -0.193794 0
M  V30 18405 H 1717.55 -2.63026 1.44075 0
M  V30 18406 H 1715.11 -1.35241 0.78356 0
M  V30 18407 H 1715.84 -3.05204 -1.0964 0
M  V30 18408 H 1715.63 -3.89321 0.465972 0
M  V30 18409 H 1717.12 -4.14702 -0.491121 0
M  V30 18410 N 1717.55 -0.769612 -1.37531 0
M  V30 18411 C 1718.5 -0.128018 -2.2764 0
M  V30 18412 C 1719.49 0.67633 -1.45995 0
M  V30 18413 O 1720.68 0.539654 -1.68573 0
M  V30 18414 C 1717.81 0.751936 -3.34964 0
M  V30 18415 C 1716.89 -0.0601264 -4.24057 0
M  V30 18416 N 1717.28 -1.10468 -4.93589 0
M  V30 18417 C 1715.58 0.164189 -4.45698 0
M  V30 18418 C 1716.28 -1.59737 -5.59338 0
M  V30 18419 N 1715.26 -0.909912 -5.35931 0
M  V30 18420 H 1719.06 -0.927797 -2.78871 0
M  V30 18421 H 1716.58 -0.607165 -1.50623 0
M  V30 18422 H 1718.57 1.22733 -3.98425 0
M  V30 18423 H 1717.23 1.55049 -2.85289 0
M  V30 18424 H 1718.24 -1.48679 -4.961 0
M  V30 18425 H 1714.92 0.934815 -4.069 0
M  V30 18426 H 1716.31 -2.46835 -6.24918 0
M  V30 18427 N 1719.03 1.48775 -0.519977 0
M  V30 18428 C 1720.28 2.02092 0.0177154 0
M  V30 18429 C 1720.6 1.40024 1.35714 0
M  V30 18430 O 1719.87 0.562115 1.87662 0
M  V30 18431 H 1718.45 0.746939 0.00953578 0
M  V30 18432 H 1721.11 1.82595 -0.681535 0
M  V30 18433 H 1720.21 3.11815 0.133431 0
M  V30 18434 N 1720.51 0.254649 1.55529 0
M  V30 18435 C 1721.75 -0.368477 1.99424 0
M  V30 18436 C 1722.09 -1.57023 1.14269 0
M  V30 18437 O 1721.36 -1.93386 0.207886 0
M  V30 18438 C 1721.65 -0.77076 3.51755 0
M  V30 18439 C 1721.5 0.436923 4.47673 0
M  V30 18440 C 1722.82 -1.61487 4.09402 0
M  V30 18441 H 1719.94 -0.132459 0.724999 0
M  V30 18442 H 1722.58 0.357508 1.86606 0
M  V30 18443 H 1720.73 -1.38932 3.62809 0
M  V30 18444 H 1722.4 1.07541 4.4859 0
M  V30 18445 H 1720.64 1.07866 4.20175 0
M  V30 18446 H 1721.31 0.111996 5.51886 0
M  V30 18447 H 1723.79 -1.09265 4.01498 0
M  V30 18448 H 1722.67 -1.86519 5.16238 0
M  V30 18449 H 1722.93 -2.58926 3.58343 0
M  V30 18450 N 1721.99 -1.57589 -0.0183649 0
M  V30 18451 C 1723.23 -1.89757 -0.707008 0
M  V30 18452 C 1723.56 -0.853257 -1.74785 0
M  V30 18453 O 1722.82 0.144406 -1.95166 0
M  V30 18454 C 1723.12 -3.28677 -1.4038 0
M  V30 18455 C 1722.78 -4.48142 -0.497917 0
M  V30 18456 C 1721.44 -4.80558 -0.248444 0
M  V30 18457 C 1723.8 -5.21046 0.126883 0
M  V30 18458 C 1721.12 -5.8326 0.634428 0
M  V30 18459 C 1723.48 -6.24686 0.997521 0
M  V30 18460 C 1722.14 -6.5557 1.25635 0
M  V30 18461 H 1721.41 -0.694369 -0.258713 0
M  V30 18462 H 1724.06 -1.91471 0.0332176 0
M  V30 18463 H 1722.36 -3.23 -2.21761 0
M  V30 18464 H 1724.06 -3.50818 -1.94236 0
M  V30 18465 H 1720.65 -4.22803 -0.702519 0
M  V30 18466 H 1724.83 -4.96272 -0.0528705 0
M  V30 18467 H 1720.09 -6.05558 0.843157 0
M  V30 18468 H 1724.26 -6.80315 1.48811 0
M  V30 18469 H 1721.89 -7.34972 1.94218 0
M  V30 18470 N 1723.46 0.290824 -1.54893 0
M  V30 18471 C 1724.39 1.36354 -1.89551 0
M  V30 18472 C 1725.38 1.52403 -0.75546 0
M  V30 18473 O 1726.56 1.65743 -1.01208 0
M  V30 18474 C 1723.69 2.72609 -2.15178 0
M  V30 18475 C 1722.64 2.71313 -3.31019 0
M  V30 18476 C 1721.97 4.10952 -3.42085 0
M  V30 18477 C 1723.27 2.32153 -4.6787 0
M  V30 18478 H 1724.96 1.07597 -2.79398 0
M  V30 18479 H 1722.51 0.516154 -1.34432 0
M  V30 18480 H 1724.46 3.47749 -2.3801 0
M  V30 18481 H 1723.19 3.02913 -1.22112 0
M  V30 18482 H 1721.85 1.9863 -3.08126 0
M  V30 18483 H 1721.49 4.38449 -2.46518 0
M  V30 18484 H 1721.19 4.10984 -4.1996 0
M  V30 18485 H 1722.72 4.87857 -3.67189 0
M  V30 18486 H 1724.13 2.97011 -4.90364 0
M  V30 18487 H 1722.53 2.4338 -5.48531 0
M  V30 18488 H 1723.6 1.27279 -4.67897 0
M  V30 18489 N 1724.94 1.47523 0.554506 0
M  V30 18490 C 1725.87 1.63093 1.67102 0
M  V30 18491 C 1726.85 0.480298 1.63178 0
M  V30 18492 O 1728.04 0.709956 1.80757 0
M  V30 18493 C 1725.17 1.64751 3.05736 0
M  V30 18494 C 1724.12 2.79068 3.24507 0
M  V30 18495 C 1723.45 2.65801 4.63955 0
M  V30 18496 C 1724.75 4.20631 3.09623 0
M  V30 18497 H 1726.44 2.56561 1.54328 0
M  V30 18498 H 1723.99 1.2347 0.741023 0
M  V30 18499 H 1725.94 1.74234 3.83693 0
M  V30 18500 H 1724.67 0.678453 3.19475 0
M  V30 18501 H 1723.32 2.691 2.48959 0
M  V30 18502 H 1722.97 1.66917 4.74497 0
M  V30 18503 H 1722.67 3.42494 4.77464 0
M  V30 18504 H 1724.2 2.77216 5.44044 0
M  V30 18505 H 1725.61 4.31562 3.77396 0
M  V30 18506 H 1724.01 4.98133 3.3464 0
M  V30 18507 H 1725.08 4.38809 2.06336 0
M  V30 18508 N 1726.42 -0.801453 1.357 0
M  V30 18509 C 1727.37 -1.93495 1.29083 0
M  V30 18510 C 1728.36 -1.68389 0.184806 0
M  V30 18511 O 1729.57 -1.76543 0.351097 0
M  V30 18512 H 1725.94 -0.635809 0.40156 0
M  V30 18513 H 1727.91 -1.96195 2.24833 0
M  V30 18514 C 1726.66 -3.30342 1.08487 0
M  V30 18515 H 1725.99 -3.50221 1.92835 0
M  V30 18516 H 1727.43 -4.10041 1.079 0
M  V30 18517 C 1725.89 -3.36238 -0.211057 0
M  V30 18518 O 1726.42 -3.83198 -1.20508 0
M  V30 18519 N 1724.62 -2.89509 -0.251599 0
M  V30 18520 H 1724.17 -2.51486 0.557916 0
M  V30 18521 H 1724.13 -2.93836 -1.11839 0
M  V30 18522 N 1727.9 -1.19782 -1.02421 0
M  V30 18523 C 1729.12 -1.02939 -1.80051 0
M  V30 18524 C 1729.55 0.417153 -1.83416 0
M  V30 18525 O 1728.91 1.3001 -1.26361 0
M  V30 18526 C 1728.95 -1.60853 -3.22736 0
M  V30 18527 O 1728.06 -0.840999 -4.03734 0
M  V30 18528 H 1727.4 -0.363537 -0.555641 0
M  V30 18529 H 1729.93 -1.58908 -1.28878 0
M  V30 18530 H 1729.94 -1.64266 -3.73471 0
M  V30 18531 H 1728.61 -2.66135 -3.19602 0
M  V30 18532 H 1727.19 -0.880482 -3.62356 0
M  V30 18533 N 1729.38 1.21606 -1.00248 0
M  V30 18534 C 1730.33 2.2591 -0.553856 0
M  V30 18535 C 1731.32 1.64602 0.400323 0
M  V30 18536 O 1732.53 1.77936 0.271792 0
M  V30 18537 H 1728.9 0.734618 -0.160749 0
M  V30 18538 H 1730.87 2.61091 -1.44479 0
M  V30 18539 C 1729.62 3.47537 0.106293 0
M  V30 18540 H 1728.94 3.94981 -0.61889 0
M  V30 18541 H 1730.38 4.22262 0.383514 0
M  V30 18542 C 1728.84 3.08901 1.34469 0
M  V30 18543 O 1729.37 3.1916 2.43926 0
M  V30 18544 N 1727.58 2.63588 1.2235 0
M  V30 18545 H 1727.13 2.55441 0.332852 0
M  V30 18546 H 1727.08 2.38106 2.05312 0
M  V30 18547 N 1730.86 0.776895 1.37121 0
M  V30 18548 C 1731.82 0.172839 2.28547 0
M  V30 18549 C 1732.82 -0.622508 1.48262 0
M  V30 18550 O 1734.01 -0.44534 1.68411 0
M  V30 18551 C 1731.14 -0.762294 3.32268 0
M  V30 18552 H 1732.33 0.978842 2.83476 0
M  V30 18553 H 1729.89 0.545454 1.46474 0
M  V30 18554 H 1730.62 -1.59311 2.82472 0
M  V30 18555 H 1730.41 -0.194084 3.91619 0
M  V30 18556 H 1731.9 -1.1802 4.00576 0
M  V30 18557 N 1732.33 -1.48497 0.527859 0
M  V30 18558 C 1733.27 -2.26435 -0.283291 0
M  V30 18559 C 1734.24 -1.32198 -0.946698 0
M  V30 18560 O 1735.43 -1.61536 -0.97151 0
M  V30 18561 C 1732.56 -3.08364 -1.40104 0
M  V30 18562 C 1731.6 -4.17959 -0.849258 0
M  V30 18563 S 1732.43 -5.34761 0.281209 0
M  V30 18564 C 1733.59 -6.2025 -0.839067 0
M  V30 18565 H 1733.82 -2.94885 0.378142 0
M  V30 18566 H 1731.36 -1.51182 0.313608 0
M  V30 18567 H 1733.31 -3.56145 -2.04134 0
M  V30 18568 H 1731.98 -2.39332 -2.03419 0
M  V30 18569 H 1731.17 -4.74902 -1.68772 0
M  V30 18570 H 1730.77 -3.72907 -0.285691 0
M  V30 18571 H 1733.06 -6.54823 -1.7382 0
M  V30 18572 H 1734.01 -7.07431 -0.307661 0
M  V30 18573 H 1734.41 -5.53308 -1.11851 0
M  V30 18574 N 1733.81 -0.262893 -1.55392 0
M  V30 18575 C 1735.09 0.408525 -1.91286 0
M  V30 18576 C 1735.47 1.74657 -1.18566 0
M  V30 18577 O 1734.82 2.26409 -0.308422 0
M  V30 18578 C 1735.03 0.560865 -3.44464 0
M  V30 18579 C 1736.37 0.849401 -4.16017 0
M  V30 18580 O 1737.4 0.646134 -3.50291 0
M  V30 18581 O 1736.26 1.23741 -5.32307 0
M  V30 18582 H 1733.35 0.221707 -0.796728 0
M  V30 18583 H 1735.9 -0.308143 -1.66879 0
M  V30 18584 H 1734.67 -0.381279 -3.89438 0
M  V30 18585 H 1734.29 1.32747 -3.74785 0
M  V30 18586 N 1735.29 1.57597 0.0100073 0
M  V30 18587 C 1736.54 1.90411 0.697968 0
M  V30 18588 C 1736.87 0.862924 1.73975 0
M  V30 18589 O 1736.14 -0.119646 1.94132 0
M  V30 18590 C 1736.43 3.33828 1.35022 0
M  V30 18591 C 1736.28 4.48656 0.320659 0
M  V30 18592 C 1737.6 3.7649 2.27911 0
M  V30 18593 H 1734.72 0.692482 0.252266 0
M  V30 18594 H 1737.36 1.89959 -0.0392325 0
M  V30 18595 H 1735.51 3.34343 1.97856 0
M  V30 18596 H 1737.18 4.60276 -0.30723 0
M  V30 18597 H 1735.42 4.32319 -0.358128 0
M  V30 18598 H 1736.1 5.45937 0.815891 0
M  V30 18599 H 1738.57 3.77463 1.75104 0
M  V30 18600 H 1737.45 4.77609 2.70519 0
M  V30 18601 H 1737.71 3.09801 3.15398 0
M  V30 18602 N 1736.77 -0.282606 1.55045 0
M  V30 18603 C 1738 -1.03395 1.79212 0
M  V30 18604 C 1738.41 -1.80283 0.560652 0
M  V30 18605 O 1737.77 -1.76343 -0.470049 0
M  V30 18606 C 1737.82 -2.0001 3.01128 0
M  V30 18607 O 1737.54 -1.26238 4.19518 0
M  V30 18608 C 1739.04 -2.87035 3.37825 0
M  V30 18609 H 1736.26 -0.305855 0.597238 0
M  V30 18610 H 1738.8 -0.3163 2.02039 0
M  V30 18611 H 1736.96 -2.67251 2.80456 0
M  V30 18612 H 1737.37 -1.91277 4.88378 0
M  V30 18613 H 1738.85 -3.50642 4.26327 0
M  V30 18614 H 1739.32 -3.56303 2.56798 0
M  V30 18615 H 1739.93 -2.25298 3.60723 0
M  V30 18616 N 1738.25 -1.47815 -0.546675 0
M  V30 18617 C 1739.49 -1.5498 -1.30336 0
M  V30 18618 C 1739.82 -0.216533 -1.93291 0
M  V30 18619 O 1739.08 0.791622 -1.78974 0
M  V30 18620 C 1739.37 -2.6242 -2.42632 0
M  V30 18621 C 1739.04 -4.05375 -1.97439 0
M  V30 18622 C 1737.7 -4.44287 -1.84831 0
M  V30 18623 C 1740.05 -4.9503 -1.6308 0
M  V30 18624 C 1737.38 -5.70678 -1.36174 0
M  V30 18625 C 1739.73 -6.21894 -1.1589 0
M  V30 18626 C 1738.4 -6.59678 -1.01886 0
M  V30 18627 H 1737.67 -0.567112 -0.476933 0
M  V30 18628 H 1740.32 -1.81461 -0.611907 0
M  V30 18629 H 1738.62 -2.29736 -3.17378 0
M  V30 18630 H 1740.32 -2.65184 -3.00796 0
M  V30 18631 H 1736.91 -3.74635 -2.08199 0
M  V30 18632 H 1741.09 -4.65657 -1.71689 0
M  V30 18633 H 1736.35 -5.98693 -1.24004 0
M  V30 18634 H 1740.52 -6.9077 -0.883691 0
M  V30 18635 H 1738.15 -7.57504 -0.639614 0
M  V30 18636 N 1739.72 0.794246 -1.36123 0
M  V30 18637 C 1740.66 1.91514 -1.25917 0
M  V30 18638 C 1741.67 1.61805 -0.179715 0
M  V30 18639 O 1742.86 1.73143 -0.434029 0
M  V30 18640 C 1739.96 3.26201 -0.919018 0
M  V30 18641 C 1739.13 3.83725 -2.09937 0
M  V30 18642 C 1738.19 4.96842 -1.73304 0
M  V30 18643 O 1737.22 5.13615 -2.45333 0
M  V30 18644 N 1738.42 5.76691 -0.663887 0
M  V30 18645 H 1741.18 2.00793 -2.22491 0
M  V30 18646 H 1738.74 0.97228 -1.29454 0
M  V30 18647 H 1740.74 3.99361 -0.655208 0
M  V30 18648 H 1739.31 3.12571 -0.0425606 0
M  V30 18649 H 1738.53 3.02611 -2.52626 0
M  V30 18650 H 1739.81 4.18889 -2.88806 0
M  V30 18651 H 1739.21 5.65662 -0.0657071 0
M  V30 18652 H 1737.77 6.50176 -0.459889 0
M  V30 18653 N 1741.2 1.20323 1.01785 0
M  V30 18654 C 1742.61 1.01326 1.56812 0
M  V30 18655 C 1742.96 -0.430709 1.91414 0
M  V30 18656 O 1742.09 -1.31191 1.72098 0
M  V30 18657 C 1742.68 1.83304 2.8493 0
M  V30 18658 C 1741.24 1.68676 3.3649 0
M  V30 18659 C 1740.39 1.81315 2.0981 0
M  V30 18660 H 1743.34 1.34533 0.841815 0
M  V30 18661 H 1743.36 1.33567 3.56286 0
M  V30 18662 H 1742.87 2.88392 2.59714 0
M  V30 18663 H 1740.97 0.662195 3.66668 0
M  V30 18664 H 1741.09 2.49877 4.08777 0
M  V30 18665 H 1739.45 1.24488 2.22204 0
M  V30 18666 H 1740.23 2.87885 1.87022 0
M  V30 18667 N 1742.68 -1.21073 1.00892 0
M  V30 18668 C 1743.91 -1.94233 0.712813 0
M  V30 18669 C 1744.32 -1.74315 -0.725249 0
M  V30 18670 O 1743.68 -1.05224 -1.49111 0
M  V30 18671 C 1743.73 -3.46536 1.02931 0
M  V30 18672 O 1743.45 -3.65798 2.41088 0
M  V30 18673 C 1744.95 -4.36855 0.753166 0
M  V30 18674 H 1742.17 -0.617579 0.262367 0
M  V30 18675 H 1744.72 -1.53781 1.34802 0
M  V30 18676 H 1742.87 -3.84897 0.439634 0
M  V30 18677 H 1743.29 -4.59857 2.52254 0
M  V30 18678 H 1744.76 -5.42405 1.02476 0
M  V30 18679 H 1745.24 -4.38085 -0.312761 0
M  V30 18680 H 1745.84 -4.04145 1.32464 0
M  V30 18681 N 1744.16 -0.784156 -1.36707 0
M  V30 18682 C 1745.57 -0.417967 -1.81961 0
M  V30 18683 C 1745.92 1.05746 -1.65264 0
M  V30 18684 O 1745.05 1.82003 -1.17064 0
M  V30 18685 C 1745.64 -0.751869 -3.30352 0
M  V30 18686 C 1744.2 -0.438578 -3.73836 0
M  V30 18687 C 1743.35 -0.989262 -2.59054 0
M  V30 18688 H 1746.3 -0.977754 -1.25003 0
M  V30 18689 H 1746.32 -0.041034 -3.80478 0
M  V30 18690 H 1745.83 -1.82576 -3.42473 0
M  V30 18691 H 1743.93 0.627493 -3.67278 0
M  V30 18692 H 1744.04 -0.955508 -4.69475 0
M  V30 18693 H 1742.41 -0.412783 -2.51333 0
M  V30 18694 H 1743.19 -2.06881 -2.73962 0
M  V30 18695 N 1745.64 1.48215 -0.535727 0
M  V30 18696 C 1746.6 2.28206 0.213212 0
M  V30 18697 C 1747.6 1.3571 0.862522 0
M  V30 18698 O 1748.79 1.58547 0.721688 0
M  V30 18699 C 1745.92 3.1476 1.30917 0
M  V30 18700 H 1747.11 2.95884 -0.489163 0
M  V30 18701 H 1744.67 1.53551 -0.291872 0
M  V30 18702 H 1745.4 2.51726 2.04462 0
M  V30 18703 H 1745.19 3.82806 0.848633 0
M  V30 18704 H 1746.68 3.75085 1.83579 0
M  V30 18705 N 1747.11 0.27113 1.5525 0
M  V30 18706 C 1748.04 -0.61179 2.25343 0
M  V30 18707 C 1749.03 -1.16208 1.24216 0
M  V30 18708 O 1750.21 -1.19696 1.52927 0
M  V30 18709 C 1747.34 -1.7978 2.97147 0
M  V30 18710 C 1746.29 -1.37922 4.05169 0
M  V30 18711 C 1745.62 -2.64801 4.64526 0
M  V30 18712 C 1746.92 -0.532357 5.1958 0
M  V30 18713 H 1748.61 -0.0272538 2.99388 0
M  V30 18714 H 1746.16 -0.0116681 1.43995 0
M  V30 18715 H 1748.11 -2.42132 3.44891 0
M  V30 18716 H 1746.84 -2.40811 2.20631 0
M  V30 18717 H 1745.5 -0.778918 3.5823 0
M  V30 18718 H 1745.14 -3.24081 3.84682 0
M  V30 18719 H 1744.84 -2.37507 5.37461 0
M  V30 18720 H 1746.37 -3.28009 5.15017 0
M  V30 18721 H 1747.78 -1.06078 5.63401 0
M  V30 18722 H 1746.18 -0.35447 5.99052 0
M  V30 18723 H 1747.25 0.44981 4.82809 0
M  V30 18724 N 1748.59 -1.576 -0.00164943 0
M  V30 18725 C 1749.82 -1.94775 -0.697872 0
M  V30 18726 C 1750.24 -0.873094 -1.67399 0
M  V30 18727 O 1749.59 0.148119 -1.81898 0
M  V30 18728 C 1749.64 -3.31963 -1.43117 0
M  V30 18729 O 1749.36 -4.35304 -0.494203 0
M  V30 18730 C 1750.87 -3.83588 -2.22206 0
M  V30 18731 H 1748.09 -0.6422 -0.194474 0
M  V30 18732 H 1750.63 -2.04441 0.04898 0
M  V30 18733 H 1748.78 -3.2361 -2.12967 0
M  V30 18734 H 1749.2 -5.14656 -1.0114 0
M  V30 18735 H 1750.67 -4.82012 -2.69014 0
M  V30 18736 H 1751.15 -3.16208 -3.0481 0
M  V30 18737 H 1751.76 -3.95111 -1.57376 0
M  V30 18738 N 1750.07 0.274379 -1.55193 0
M  V30 18739 C 1751.3 1.02295 -1.79497 0
M  V30 18740 C 1751.71 1.80479 -0.567805 0
M  V30 18741 O 1751.05 1.77517 0.472601 0
M  V30 18742 C 1751.11 2.02986 -2.9671 0
M  V30 18743 C 1750.78 1.43753 -4.33802 0
M  V30 18744 C 1751.77 0.853898 -5.1284 0
M  V30 18745 C 1749.46 1.46514 -4.80457 0
M  V30 18746 C 1751.45 0.305773 -6.36666 0
M  V30 18747 C 1749.14 0.913158 -6.04239 0
M  V30 18748 C 1750.14 0.33447 -6.82181 0
M  V30 18749 O 1749.83 -0.209069 -8.03628 0
M  V30 18750 H 1749.56 0.307952 -0.601782 0
M  V30 18751 H 1752.11 0.310987 -2.03032 0
M  V30 18752 H 1750.34 2.77937 -2.68864 0
M  V30 18753 H 1752.03 2.6396 -3.0835 0
M  V30 18754 H 1752.8 0.825268 -4.77927 0
M  V30 18755 H 1748.68 1.90496 -4.198 0
M  V30 18756 H 1752.22 -0.146553 -6.97446 0
M  V30 18757 H 1748.12 0.939023 -6.38633 0
M  V30 18758 H 1748.89 -0.0982973 -8.18441 0
M  V30 18759 N 1751.55 1.48103 0.538828 0
M  V30 18760 C 1752.96 1.34028 0.866532 0
M  V30 18761 C 1753.16 0.3446 1.98531 0
M  V30 18762 O 1752.22 -0.237347 2.51382 0
M  V30 18763 C 1753.53 2.73833 1.24241 0
M  V30 18764 C 1755.08 2.82256 1.35279 0
M  V30 18765 C 1755.56 4.22744 1.76214 0
M  V30 18766 N 1757.05 4.25374 1.83332 0
M  V30 18767 C 1757.78 5.31009 2.16373 0
M  V30 18768 N 1757.28 6.4693 2.47899 0
M  V30 18769 N 1759.07 5.18397 2.17304 0
M  V30 18770 H 1751.22 2.11461 -0.199502 0
M  V30 18771 H 1753.49 0.947627 -0.0266031 0
M  V30 18772 H 1753.19 3.48213 0.494025 0
M  V30 18773 H 1753.07 3.0679 2.19453 0
M  V30 18774 H 1755.45 2.08137 2.09196 0
M  V30 18775 H 1755.53 2.5293 0.382096 0
M  V30 18776 H 1755.18 4.97375 1.02862 0
M  V30 18777 H 1755.11 4.49507 2.74319 0
M  V30 18778 H 1757.6 3.41755 1.61282 0
M  V30 18779 H 1757.91 7.23279 2.7219 0
M  V30 18780 H 1756.26 6.50219 2.45438 0
M  V30 18781 H 1759.45 4.26855 1.92126 0
M  V30 18782 H 1759.62 6.00824 2.42722 0
M  V30 18783 N 1753.03 -0.787016 1.36542 0
M  V30 18784 C 1754.25 -1.57588 1.34065 0
M  V30 18785 C 1754.67 -1.88641 -0.0775397 0
M  V30 18786 O 1754.03 -1.50306 -1.03511 0
M  V30 18787 C 1754.08 -2.89543 2.16442 0
M  V30 18788 O 1753.8 -2.59828 3.52734 0
M  V30 18789 C 1755.3 -3.83838 2.21773 0
M  V30 18790 H 1752.52 -0.488708 0.459789 0
M  V30 18791 H 1755.06 -0.976614 1.79673 0
M  V30 18792 H 1753.22 -3.45933 1.74383 0
M  V30 18793 H 1753.63 -3.44219 3.95744 0
M  V30 18794 H 1755.11 -4.73478 2.83765 0
M  V30 18795 H 1755.58 -4.21862 1.22185 0
M  V30 18796 H 1756.19 -3.33381 2.64078 0
M  V30 18797 N 1754.5 -1.20861 -1.01145 0
M  V30 18798 C 1755.75 -1.02343 -1.75082 0
M  V30 18799 C 1756.08 0.44278 -1.89085 0
M  V30 18800 O 1755.36 1.32867 -1.42045 0
M  V30 18801 C 1755.64 -1.71368 -3.1671 0
M  V30 18802 C 1755.49 -3.25466 -3.1047 0
M  V30 18803 C 1756.81 -1.45097 -4.15494 0
M  V30 18804 H 1753.93 -0.373198 -0.635525 0
M  V30 18805 H 1756.57 -1.48947 -1.17961 0
M  V30 18806 H 1754.72 -1.31746 -3.6548 0
M  V30 18807 H 1756.4 -3.74415 -2.69464 0
M  V30 18808 H 1754.64 -3.56104 -2.47735 0
M  V30 18809 H 1755.31 -3.68924 -4.10608 0
M  V30 18810 H 1757.79 -1.7948 -3.75401 0
M  V30 18811 H 1756.66 -1.95917 -5.12745 0
M  V30 18812 H 1756.92 -0.379628 -4.40467 0
M  V30 18813 N 1755.98 1.20536 -1.01532 0
M  V30 18814 C 1757.23 1.89496 -0.70254 0
M  V30 18815 C 1757.55 1.7915 0.770072 0
M  V30 18816 O 1756.82 1.19308 1.55379 0
M  V30 18817 H 1755.4 0.701447 -0.256868 0
M  V30 18818 H 1758.06 1.46394 -1.28665 0
M  V30 18819 H 1757.16 2.96155 -0.984817 0
M  V30 18820 N 1757.46 0.791395 1.36289 0
M  V30 18821 C 1758.71 0.363981 1.98795 0
M  V30 18822 C 1759.03 -1.0685 1.6312 0
M  V30 18823 O 1758.3 -1.73682 0.906161 0
M  V30 18824 H 1756.88 0.131594 0.735318 0
M  V30 18825 H 1759.54 1.01387 1.66453 0
M  V30 18826 H 1758.64 0.457407 3.0873 0
M  V30 18827 N 1758.94 -1.47929 0.54358 0
M  V30 18828 C 1760.19 -2.01696 0.0123924 0
M  V30 18829 C 1760.5 -1.42469 -1.34022 0
M  V30 18830 O 1761.71 -1.87816 -1.96054 0
M  V30 18831 C 1760.16 -3.59889 -0.0282734 0
M  V30 18832 C 1759.77 -4.28104 1.32027 0
M  V30 18833 C 1761.52 -4.21455 -0.507571 0
M  V30 18834 C 1759.42 -5.78266 1.23945 0
M  V30 18835 H 1758.35 -0.754 0.000862593 0
M  V30 18836 H 1761 -1.70058 0.689396 0
M  V30 18837 H 1759.39 -3.88429 -0.770641 0
M  V30 18838 H 1760.56 -4.11221 2.07927 0
M  V30 18839 H 1758.87 -3.78468 1.7364 0
M  V30 18840 H 1761.47 -5.31477 -0.586219 0
M  V30 18841 H 1761.81 -3.87696 -1.51648 0
M  V30 18842 H 1762.35 -3.97395 0.179522 0
M  V30 18843 H 1759.09 -6.16621 2.22393 0
M  V30 18844 H 1758.61 -5.97524 0.522029 0
M  V30 18845 H 1760.29 -6.40197 0.935788 0
M  V30 18846 N 1760.42 -0.27936 -1.55104 0
M  V30 18847 C 1761.35 0.599831 -2.25664 0
M  V30 18848 C 1762.33 1.15548 -1.24831 0
M  V30 18849 O 1763.51 1.18883 -1.53559 0
M  V30 18850 C 1760.64 1.78202 -2.98096 0
M  V30 18851 C 1759.6 1.35771 -4.05894 0
M  V30 18852 C 1758.92 2.62334 -4.65924 0
M  V30 18853 C 1760.22 0.504795 -5.19855 0
M  V30 18854 H 1761.92 0.0113761 -2.99398 0
M  V30 18855 H 1759.46 0.00403149 -1.43999 0
M  V30 18856 H 1761.42 2.403 -3.4617 0
M  V30 18857 H 1760.14 2.39637 -2.21905 0
M  V30 18858 H 1758.8 0.75991 -3.58638 0
M  V30 18859 H 1758.45 3.22036 -3.86396 0
M  V30 18860 H 1758.15 2.34654 -5.38713 0
M  V30 18861 H 1759.67 3.25273 -5.16749 0
M  V30 18862 H 1761.09 1.03089 -5.63955 0
M  V30 18863 H 1759.48 0.322696 -5.99232 0
M  V30 18864 H 1760.55 -0.475409 -4.82564 0
M  V30 18865 N 1761.9 1.57599 -0.0067085 0
M  V30 18866 C 1763.17 1.82097 0.714141 0
M  V30 18867 C 1763.55 0.885868 1.91613 0
M  V30 18868 O 1762.9 -0.0638506 2.28411 0
M  V30 18869 C 1763.11 3.30759 1.11354 0
M  V30 18870 C 1764.46 3.96668 1.51459 0
M  V30 18871 O 1765.48 3.35121 1.20715 0
M  V30 18872 O 1764.34 5.051 2.08654 0
M  V30 18873 H 1761.44 0.750071 0.348314 0
M  V30 18874 H 1763.98 1.69669 -0.0326766 0
M  V30 18875 H 1762.75 3.90455 0.257068 0
M  V30 18876 H 1762.38 3.48211 1.91924 0
M  V30 18877 N 1763.37 -0.266145 1.55336 0
M  V30 18878 C 1764.62 -0.996831 1.76265 0
M  V30 18879 C 1764.95 -1.86035 0.567553 0
M  V30 18880 O 1764.2 -1.90462 -0.449754 0
M  V30 18881 C 1764.5 -1.90357 3.02488 0
M  V30 18882 C 1764.17 -1.19699 4.34722 0
M  V30 18883 C 1762.83 -1.00164 4.7066 0
M  V30 18884 C 1765.18 -0.694703 5.16549 0
M  V30 18885 C 1762.51 -0.291394 5.85976 0
M  V30 18886 C 1764.86 0.00198006 6.326 0
M  V30 18887 C 1763.53 0.20898 6.67173 0
M  V30 18888 H 1762.8 -0.364766 0.645001 0
M  V30 18889 H 1765.44 -0.268528 1.89608 0
M  V30 18890 H 1763.75 -2.69831 2.84075 0
M  V30 18891 H 1765.45 -2.47026 3.15878 0
M  V30 18892 H 1762.04 -1.35916 4.06479 0
M  V30 18893 H 1766.22 -0.833229 4.89256 0
M  V30 18894 H 1761.48 -0.120359 6.11282 0
M  V30 18895 H 1765.65 0.398909 6.95257 0
M  V30 18896 H 1763.28 0.761301 7.56378 0
M  V30 18897 N 1764.85 -1.48386 -0.530967 0
M  V30 18898 C 1766.08 -1.59782 -1.30971 0
M  V30 18899 C 1766.49 -0.25683 -1.87449 0
M  V30 18900 O 1765.83 0.763845 -1.67066 0
M  V30 18901 C 1765.89 -2.58431 -2.49907 0
M  V30 18902 C 1765.56 -4.0352 -2.14524 0
M  V30 18903 C 1766.56 -4.91233 -1.70255 0
M  V30 18904 C 1764.24 -4.4905 -2.25077 0
M  V30 18905 C 1766.23 -6.22502 -1.37003 0
M  V30 18906 C 1763.92 -5.8034 -1.91437 0
M  V30 18907 C 1764.92 -6.66889 -1.47471 0
M  V30 18908 O 1764.61 -7.95737 -1.14272 0
M  V30 18909 H 1764.34 -0.541558 -0.404588 0
M  V30 18910 H 1766.89 -1.94932 -0.647349 0
M  V30 18911 H 1765.12 -2.184 -3.19121 0
M  V30 18912 H 1766.81 -2.59672 -3.1197 0
M  V30 18913 H 1767.58 -4.57296 -1.61572 0
M  V30 18914 H 1763.46 -3.81872 -2.58254 0
M  V30 18915 H 1767 -6.90012 -1.02613 0
M  V30 18916 H 1762.9 -6.13813 -1.9976 0
M  V30 18917 H 1763.67 -8.0848 -1.27679 0
M  V30 18918 N 1766.33 0.779763 -1.36958 0
M  V30 18919 C 1767.26 1.89973 -1.26434 0
M  V30 18920 C 1768.24 1.61939 -0.146502 0
M  V30 18921 O 1769.42 1.85776 -0.319321 0
M  V30 18922 C 1766.55 3.25016 -0.953002 0
M  V30 18923 C 1765.6 3.71971 -2.08662 0
M  V30 18924 S 1766.43 3.86589 -3.70553 0
M  V30 18925 C 1767.59 5.24493 -3.41552 0
M  V30 18926 H 1767.82 1.98609 -2.21228 0
M  V30 18927 H 1765.35 0.940021 -1.22487 0
M  V30 18928 H 1767.31 4.03018 -0.780191 0
M  V30 18929 H 1765.97 3.14092 -0.0226841 0
M  V30 18930 H 1765.16 4.69853 -1.82358 0
M  V30 18931 H 1764.77 3.01048 -2.21915 0
M  V30 18932 H 1767.06 6.09397 -2.96044 0
M  V30 18933 H 1768 5.55805 -4.38733 0
M  V30 18934 H 1768.41 4.92051 -2.7667 0
M  V30 18935 N 1767.81 1.21396 1.00503 0
M  V30 18936 C 1769.05 1.03117 1.74279 0
M  V30 18937 C 1769.38 -0.43531 1.89566 0
M  V30 18938 O 1768.64 -1.33929 1.42694 0
M  V30 18939 C 1768.94 1.67343 3.15802 0
M  V30 18940 C 1768.6 3.17198 3.20463 0
M  V30 18941 C 1767.26 3.5809 3.21442 0
M  V30 18942 C 1769.62 4.13172 3.17708 0
M  V30 18943 C 1766.94 4.93462 3.17352 0
M  V30 18944 C 1769.3 5.48505 3.15159 0
M  V30 18945 C 1767.96 5.88794 3.14448 0
M  V30 18946 H 1767.23 0.377332 0.637732 0
M  V30 18947 H 1769.88 1.50987 1.17792 0
M  V30 18948 H 1768.18 1.11765 3.75521 0
M  V30 18949 H 1769.88 1.50703 3.71604 0
M  V30 18950 H 1766.47 2.8463 3.20443 0
M  V30 18951 H 1770.65 3.82606 3.16112 0
M  V30 18952 H 1765.91 5.23925 3.15138 0
M  V30 18953 H 1770.08 6.22608 3.11982 0
M  V30 18954 H 1767.71 6.93659 3.11033 0
M  V30 18955 N 1769.29 -1.19996 1.0217 0
M  V30 18956 C 1770.22 -2.25206 0.616818 0
M  V30 18957 C 1771.2 -1.66013 -0.370653 0
M  V30 18958 O 1772.38 -1.92519 -0.254956 0
M  V30 18959 C 1769.51 -3.47276 -0.0405129 0
M  V30 18960 C 1768.47 -4.19096 0.868479 0
M  V30 18961 C 1767.79 -5.34645 0.0766447 0
M  V30 18962 C 1769.09 -4.7468 2.1789 0
M  V30 18963 H 1770.79 -2.59328 1.49632 0
M  V30 18964 H 1768.33 -1.24655 0.720917 0
M  V30 18965 H 1770.28 -4.20063 -0.335355 0
M  V30 18966 H 1769.01 -3.12333 -0.954759 0
M  V30 18967 H 1767.67 -3.48181 1.1474 0
M  V30 18968 H 1767.32 -4.95946 -0.839411 0
M  V30 18969 H 1767.02 -5.83628 0.682041 0
M  V30 18970 H 1768.54 -6.10233 -0.211624 0
M  V30 18971 H 1769.95 -5.39259 1.94608 0
M  V30 18972 H 1768.35 -5.34121 2.7356 0
M  V30 18973 H 1769.42 -3.93141 2.83845 0
M  V30 18974 N 1770.76 -0.798611 -1.35867 0
M  V30 18975 C 1772.01 -0.374519 -1.986 0
M  V30 18976 C 1772.33 1.05984 -1.63684 0
M  V30 18977 O 1771.6 1.73199 -0.915359 0
M  V30 18978 H 1770.18 -0.135492 -0.734609 0
M  V30 18979 H 1772.84 -1.02269 -1.65913 0
M  V30 18980 H 1771.94 -0.473773 -3.08483 0
M  V30 18981 N 1772.24 1.47639 -0.551417 0
M  V30 18982 C 1773.65 1.86336 -0.116513 0
M  V30 18983 C 1774 1.45869 1.31213 0
M  V30 18984 O 1773.13 0.859103 1.98616 0
M  V30 18985 C 1773.72 3.38181 -0.204671 0
M  V30 18986 C 1772.28 3.75992 0.175161 0
M  V30 18987 C 1771.43 2.71692 -0.554843 0
M  V30 18988 H 1774.38 1.39238 -0.761471 0
M  V30 18989 H 1774.4 3.76081 0.578214 0
M  V30 18990 H 1773.91 3.67604 -1.24456 0
M  V30 18991 H 1772.01 3.52186 1.21638 0
M  V30 18992 H 1772.13 4.78764 -0.179368 0
M  V30 18993 H 1770.49 2.547 0.00140775 0
M  V30 18994 H 1771.27 3.03957 -1.59578 0
M  V30 18995 N 1773.72 0.287581 1.54954 0
M  V30 18996 C 1774.95 -0.328601 2.04274 0
M  V30 18997 C 1775.36 -1.48535 1.16545 0
M  V30 18998 O 1774.72 -1.81527 0.188187 0
M  V30 18999 C 1774.77 -0.797705 3.52589 0
M  V30 19000 O 1774.49 0.31299 4.36981 0
M  V30 19001 C 1775.99 -1.48042 4.1785 0
M  V30 19002 H 1773.21 -0.0733253 0.666982 0
M  V30 19003 H 1775.76 0.423307 2.00071 0
M  V30 19004 H 1773.91 -1.49967 3.57196 0
M  V30 19005 H 1774.33 -0.0498078 5.24476 0
M  V30 19006 H 1775.8 -1.75995 5.23192 0
M  V30 19007 H 1776.28 -2.41608 3.66772 0
M  V30 19008 H 1776.88 -0.821988 4.17281 0
M  V30 19009 N 1775.2 -1.57593 0.0150662 0
M  V30 19010 C 1776.61 -1.79146 -0.525709 0
M  V30 19011 C 1776.96 -0.923985 -1.73081 0
M  V30 19012 O 1776.09 -0.130532 -2.16006 0
M  V30 19013 C 1776.68 -3.249 -0.960492 0
M  V30 19014 C 1775.24 -3.47497 -1.44647 0
M  V30 19015 C 1774.39 -2.74332 -0.404628 0
M  V30 19016 H 1777.34 -1.56857 0.241175 0
M  V30 19017 H 1777.36 -3.3384 -1.82568 0
M  V30 19018 H 1776.87 -3.88011 -0.0832025 0
M  V30 19019 H 1774.97 -2.8962 -2.34416 0
M  V30 19020 H 1775.08 -4.56199 -1.46354 0
M  V30 19021 H 1773.45 -2.39394 -0.869627 0
M  V30 19022 H 1774.23 -3.40151 0.463953 0
M  V30 19023 N 1776.68 0.257904 -1.55475 0
M  V30 19024 C 1777.59 1.34084 -1.92506 0
M  V30 19025 C 1778.6 1.53246 -0.824123 0
M  V30 19026 O 1779.78 1.67081 -1.12455 0
M  V30 19027 C 1776.84 2.67741 -2.20263 0
M  V30 19028 C 1775.9 2.57196 -3.43728 0
M  V30 19029 C 1775.14 3.84479 -3.7015 0
M  V30 19030 O 1775.36 4.85858 -2.98827 0
M  V30 19031 O 1774.29 3.83774 -4.63682 0
M  V30 19032 H 1778.12 1.05672 -2.84723 0
M  V30 19033 H 1775.71 0.457726 -1.42215 0
M  V30 19034 H 1777.59 3.46743 -2.39473 0
M  V30 19035 H 1776.26 2.95907 -1.31227 0
M  V30 19036 H 1775.17 1.76518 -3.29837 0
M  V30 19037 H 1776.5 2.33977 -4.33031 0
M  V30 19038 N 1778.15 1.48666 0.52309 0
M  V30 19039 C 1779.4 1.57267 1.28043 0
M  V30 19040 C 1779.73 0.248801 1.926 0
M  V30 19041 O 1779.01 -0.745814 1.79633 0
M  V30 19042 C 1779.29 2.71595 2.36449 0
M  V30 19043 C 1779.14 4.13708 1.76538 0
M  V30 19044 C 1780.46 2.81654 3.3817 0
M  V30 19045 H 1777.58 0.572455 0.464181 0
M  V30 19046 H 1780.22 1.80866 0.582013 0
M  V30 19047 H 1778.37 2.51604 2.9602 0
M  V30 19048 H 1780.05 4.45158 1.20964 0
M  V30 19049 H 1778.29 4.20386 1.07041 0
M  V30 19050 H 1778.96 4.89538 2.55062 0
M  V30 19051 H 1781.44 2.99784 2.88563 0
M  V30 19052 H 1780.31 3.63366 4.11408 0
M  V30 19053 H 1780.57 1.90093 3.99145 0
M  V30 19054 N 1779.63 -0.772489 1.37369 0
M  V30 19055 C 1780.6 -1.86737 1.32898 0
M  V30 19056 C 1781.6 -1.591 0.23318 0
M  V30 19057 O 1782.79 -1.67196 0.488983 0
M  V30 19058 C 1779.92 -3.23859 1.06435 0
M  V30 19059 H 1781.11 -1.92114 2.30287 0
M  V30 19060 H 1778.66 -0.972158 1.22388 0
M  V30 19061 H 1779.4 -3.24159 0.0957365 0
M  V30 19062 H 1779.18 -3.4531 1.85751 0
M  V30 19063 H 1780.67 -4.03935 1.05954 0
M  V30 19064 N 1781.11 -1.21927 -0.998575 0
M  V30 19065 C 1782.34 -1.06655 -1.77291 0
M  V30 19066 C 1782.75 0.38326 -1.84869 0
M  V30 19067 O 1782.11 1.26575 -1.31473 0
M  V30 19068 C 1782.16 -1.66478 -3.20885 0
M  V30 19069 O 1781.88 -3.05788 -3.13728 0
M  V30 19070 C 1783.38 -1.56404 -4.14792 0
M  V30 19071 H 1780.6 -0.3742 -0.55697 0
M  V30 19072 H 1783.15 -1.61401 -1.25579 0
M  V30 19073 H 1781.3 -1.15809 -3.69685 0
M  V30 19074 H 1781.72 -3.34503 -4.0399 0
M  V30 19075 H 1783.19 -2.02995 -5.1332 0
M  V30 19076 H 1783.67 -0.519591 -4.36116 0
M  V30 19077 H 1784.27 -2.06352 -3.71886 0
M  V30 19078 N 1782.59 1.19452 -1.02805 0
M  V30 19079 C 1783.54 2.22644 -0.608134 0
M  V30 19080 C 1784.51 1.6175 0.377639 0
M  V30 19081 O 1785.69 1.88815 0.274487 0
M  V30 19082 C 1782.83 3.45081 0.0357589 0
M  V30 19083 C 1781.94 4.20363 -0.995955 0
M  V30 19084 C 1781.08 5.30224 -0.321911 0
M  V30 19085 C 1780.12 5.97261 -1.33959 0
M  V30 19086 N 1779.25 6.98687 -0.691414 0
M  V30 19087 H 1784.09 2.57921 -1.49268 0
M  V30 19088 H 1781.63 1.26722 -0.746985 0
M  V30 19089 H 1783.59 4.15016 0.426309 0
M  V30 19090 H 1782.22 3.10463 0.883889 0
M  V30 19091 H 1781.27 3.49381 -1.50457 0
M  V30 19092 H 1782.58 4.6636 -1.76945 0
M  V30 19093 H 1781.74 6.06574 0.123528 0
M  V30 19094 H 1780.48 4.85294 0.483792 0
M  V30 19095 H 1779.48 5.19662 -1.7953 0
M  V30 19096 H 1780.71 6.44275 -2.14678 0
M  V30 19097 H 1778.65 6.55932 0.0942121 0
M  V30 19098 H 1778.57 7.42871 -1.40281 0
M  V30 19099 H 1779.84 7.79032 -0.269948 0
M  V30 19100 N 1784.07 0.805805 1.35442 0
M  V30 19101 C 1785 0.173326 2.28544 0
M  V30 19102 C 1786.01 -0.626927 1.50245 0
M  V30 19103 O 1787.2 -0.459416 1.72487 0
M  V30 19104 C 1784.3 -0.776924 3.29874 0
M  V30 19105 C 1783.47 -0.0232073 4.37394 0
M  V30 19106 C 1782.53 -0.891823 5.18587 0
M  V30 19107 O 1781.56 -0.343052 5.68165 0
M  V30 19108 N 1782.76 -2.214 5.36621 0
M  V30 19109 H 1785.53 0.973125 2.83461 0
M  V30 19110 H 1783.09 0.66119 1.47783 0
M  V30 19111 H 1785.08 -1.36223 3.81085 0
M  V30 19112 H 1783.65 -1.47753 2.75477 0
M  V30 19113 H 1782.87 0.743298 3.87129 0
M  V30 19114 H 1784.16 0.496278 5.06374 0
M  V30 19115 H 1783.55 -2.6838 4.97985 0
M  V30 19116 H 1782.11 -2.74856 5.91014 0
M  V30 19117 N 1785.54 -1.47344 0.559239 0
M  V30 19118 C 1786.77 -2.0656 0.040802 0
M  V30 19119 C 1787.18 -1.41208 -1.25925 0
M  V30 19120 O 1786.53 -0.503333 -1.7667 0
M  V30 19121 C 1786.59 -3.58804 -0.223642 0
M  V30 19122 C 1786.25 -4.46208 0.987275 0
M  V30 19123 C 1787.25 -4.84198 1.89336 0
M  V30 19124 C 1784.93 -4.87693 1.20252 0
M  V30 19125 C 1786.93 -5.62474 2.99837 0
M  V30 19126 C 1784.61 -5.65733 2.31061 0
M  V30 19127 C 1785.61 -6.03034 3.20684 0
M  V30 19128 O 1785.3 -6.79502 4.29572 0
M  V30 19129 H 1785.03 -0.674583 0.0437408 0
M  V30 19130 H 1787.59 -1.90306 0.772827 0
M  V30 19131 H 1785.82 -3.73277 -1.01 0
M  V30 19132 H 1787.51 -4.00032 -0.687709 0
M  V30 19133 H 1788.27 -4.52746 1.73913 0
M  V30 19134 H 1784.15 -4.58124 0.514098 0
M  V30 19135 H 1787.69 -5.91508 3.69817 0
M  V30 19136 H 1783.59 -5.96598 2.46456 0
M  V30 19137 H 1784.36 -6.97898 4.27645 0
M  V30 19138 N 1787.02 -0.295795 -1.54799 0
M  V30 19139 C 1787.97 0.597578 -2.2003 0
M  V30 19140 C 1788.96 1.10286 -1.17158 0
M  V30 19141 O 1790.15 1.04449 -1.42896 0
M  V30 19142 C 1787.28 1.77148 -2.94064 0
M  V30 19143 C 1786.36 1.28241 -4.04246 0
M  V30 19144 N 1786.75 0.510962 -5.03213 0
M  V30 19145 C 1785.05 1.5636 -4.17693 0
M  V30 19146 C 1785.75 0.251176 -5.81157 0
M  V30 19147 N 1784.73 0.829504 -5.37234 0
M  V30 19148 H 1788.53 0.000567564 -2.939 0
M  V30 19149 H 1786.05 -0.10031 -1.6209 0
M  V30 19150 H 1788.04 2.42299 -3.39259 0
M  V30 19151 H 1786.7 2.37224 -2.21709 0
M  V30 19152 H 1787.71 0.156346 -5.17664 0
M  V30 19153 H 1784.39 2.17222 -3.5654 0
M  V30 19154 H 1785.78 -0.368063 -6.70891 0
M  V30 19155 N 1788.5 1.57583 -0.0234236 0
M  V30 19156 C 1789.41 2.13328 0.976138 0
M  V30 19157 C 1790.43 1.08414 1.36097 0
M  V30 19158 O 1791.6 1.40441 1.44354 0
M  V30 19159 C 1788.67 2.64469 2.24181 0
M  V30 19160 C 1787.73 3.84076 1.91793 0
M  V30 19161 C 1786.96 4.32768 3.12326 0
M  V30 19162 O 1787.19 3.80663 4.24797 0
M  V30 19163 O 1786.12 5.24676 2.94956 0
M  V30 19164 H 1789.95 2.99001 0.532166 0
M  V30 19165 H 1787.53 1.48098 0.196838 0
M  V30 19166 H 1789.41 2.97456 2.98492 0
M  V30 19167 H 1788.09 1.81881 2.6777 0
M  V30 19168 H 1786.99 3.56023 1.14883 0
M  V30 19169 H 1788.33 4.67808 1.53024 0
M  V30 19170 N 1789.98 -0.249655 1.5561 0
M  V30 19171 C 1791.23 -0.979529 1.77576 0
M  V30 19172 C 1791.56 -1.85078 0.588198 0
M  V30 19173 O 1790.83 -1.90052 -0.4136 0
M  V30 19174 C 1791.12 -1.84238 3.094 0
M  V30 19175 C 1790.97 -0.9995 4.38554 0
M  V30 19176 C 1792.29 -2.82536 3.37433 0
M  V30 19177 H 1789.41 -0.354681 0.646042 0
M  V30 19178 H 1792.05 -0.250224 1.88345 0
M  V30 19179 H 1790.2 -2.46419 3.0035 0
M  V30 19180 H 1791.87 -0.396599 4.59592 0
M  V30 19181 H 1790.11 -0.30376 4.32735 0
M  V30 19182 H 1790.79 -1.63697 5.27169 0
M  V30 19183 H 1793.26 -2.30491 3.46429 0
M  V30 19184 H 1792.14 -3.40033 4.30893 0
M  V30 19185 H 1792.4 -3.58859 2.58211 0
M  V30 19186 N 1791.46 -1.48941 -0.515198 0
M  V30 19187 C 1792.71 -1.5696 -1.26674 0
M  V30 19188 C 1793.02 -0.255062 -1.9393 0
M  V30 19189 O 1794.23 -0.213645 -2.70658 0
M  V30 19190 C 1792.68 -2.76877 -2.29928 0
M  V30 19191 C 1792.29 -4.15033 -1.68676 0
M  V30 19192 C 1794.03 -2.94218 -3.06 0
M  V30 19193 C 1791.94 -5.26191 -2.69957 0
M  V30 19194 H 1790.87 -0.584377 -0.476465 0
M  V30 19195 H 1793.52 -1.75303 -0.542322 0
M  V30 19196 H 1791.9 -2.51999 -3.05471 0
M  V30 19197 H 1793.08 -4.49991 -0.992215 0
M  V30 19198 H 1791.39 -4.02932 -1.05045 0
M  V30 19199 H 1793.99 -3.74433 -3.81712 0
M  V30 19200 H 1794.33 -2.04235 -3.62759 0
M  V30 19201 H 1794.87 -3.19068 -2.37572 0
M  V30 19202 H 1791.6 -6.18189 -2.17998 0
M  V30 19203 H 1791.12 -4.95705 -3.37694 0
M  V30 19204 H 1792.8 -5.54929 -3.32659 0
M  V30 19205 N 1792.94 0.765193 -1.37777 0
M  V30 19206 C 1794.18 1.52096 -1.33084 0
M  V30 19207 C 1794.5 1.94827 0.08221 0
M  V30 19208 O 1793.77 1.66787 1.02757 0
M  V30 19209 H 1792.35 0.564139 -0.489649 0
M  V30 19210 H 1795.02 0.910308 -1.72335 0
M  V30 19211 H 1794.11 2.4173 -1.97416 0
M  V30 19212 N 1794.41 1.22455 0.992094 0
M  V30 19213 C 1795.36 0.962645 2.06681 0
M  V30 19214 C 1796.35 -0.0870288 1.60664 0
M  V30 19215 O 1797.54 0.123596 1.76568 0
M  V30 19216 C 1794.67 0.54316 3.38976 0
M  V30 19217 C 1793.75 1.62761 3.91625 0
M  V30 19218 N 1794.15 2.85548 4.17488 0
M  V30 19219 C 1792.44 1.49948 4.20038 0
M  V30 19220 C 1793.14 3.55677 4.60292 0
M  V30 19221 N 1792.12 2.83152 4.64032 0
M  V30 19222 H 1795.92 1.89534 2.24619 0
M  V30 19223 H 1793.44 1.1222 1.1739 0
M  V30 19224 H 1795.43 0.336841 4.15537 0
M  V30 19225 H 1794.09 -0.382629 3.22438 0
M  V30 19226 H 1795.1 3.21968 4.05657 0
M  V30 19227 H 1791.78 0.639937 4.12566 0
M  V30 19228 H 1793.17 4.60878 4.88918 0
M  V30 19229 N 1795.89 -1.18905 1.03437 0
M  V30 19230 C 1797.3 -1.70402 0.762893 0
M  V30 19231 C 1797.65 -1.82633 -0.716908 0
M  V30 19232 O 1796.78 -1.50136 -1.55847 0
M  V30 19233 C 1797.37 -3.09501 1.37822 0
M  V30 19234 C 1795.93 -3.58235 1.1552 0
M  V30 19235 C 1795.08 -2.34953 1.47284 0
M  V30 19236 H 1798.03 -1.03669 1.2016 0
M  V30 19237 H 1798.05 -3.7246 0.778079 0
M  V30 19238 H 1797.56 -3.00566 2.45523 0
M  V30 19239 H 1795.66 -3.72475 0.096646 0
M  V30 19240 H 1795.78 -4.42034 1.84778 0
M  V30 19241 H 1794.14 -2.38557 0.892333 0
M  V30 19242 H 1794.92 -2.28643 2.5608 0
M  V30 19243 N 1797.37 -0.812977 -1.35013 0
M  V30 19244 C 1798.62 -0.396932 -1.98878 0
M  V30 19245 C 1798.95 1.03486 -1.6433 0
M  V30 19246 O 1798.22 1.71906 -0.90986 0
M  V30 19247 C 1798.51 -0.587911 -3.55268 0
M  V30 19248 C 1798.36 -2.06509 -3.99592 0
M  V30 19249 C 1799.68 -0.017593 -4.40096 0
M  V30 19250 H 1796.8 -0.145695 -0.722455 0
M  V30 19251 H 1799.44 -1.0237 -1.60064 0
M  V30 19252 H 1797.59 -0.0543785 -3.88462 0
M  V30 19253 H 1799.26 -2.6615 -3.76778 0
M  V30 19254 H 1797.5 -2.55921 -3.50267 0
M  V30 19255 H 1798.18 -2.14958 -5.08426 0
M  V30 19256 H 1800.65 -0.473317 -4.13399 0
M  V30 19257 H 1799.53 -0.18109 -5.48601 0
M  V30 19258 H 1799.79 1.07664 -4.2879 0
M  V30 19259 N 1798.85 1.47045 -0.567045 0
M  V30 19260 C 1799.78 2.27106 0.223156 0
M  V30 19261 C 1800.76 1.34662 0.911315 0
M  V30 19262 O 1801.94 1.64055 0.92834 0
M  V30 19263 C 1799.07 3.1197 1.31879 0
M  V30 19264 C 1798.12 4.20064 0.738145 0
M  V30 19265 S 1798.95 5.33828 -0.422892 0
M  V30 19266 C 1800.1 6.22257 0.674324 0
M  V30 19267 H 1800.34 2.93779 -0.456193 0
M  V30 19268 H 1797.87 1.50297 -0.353581 0
M  V30 19269 H 1799.83 3.61432 1.9462 0
M  V30 19270 H 1798.49 2.44641 1.97002 0
M  V30 19271 H 1797.68 4.7921 1.56122 0
M  V30 19272 H 1797.28 3.73534 0.186721 0
M  V30 19273 H 1799.58 6.59201 1.56398 0
M  V30 19274 H 1800.52 7.07998 0.11999 0
M  V30 19275 H 1800.93 5.56079 0.971422 0
M  V30 19276 N 1800.33 0.304 1.5464 0
M  V30 19277 C 1801.74 -0.188042 1.85751 0
M  V30 19278 C 1802.09 -1.53186 1.22591 0
M  V30 19279 O 1801.21 -2.09943 0.524696 0
M  V30 19280 C 1801.81 -0.347976 3.37008 0
M  V30 19281 C 1800.37 -0.784238 3.68139 0
M  V30 19282 C 1799.51 0.105654 2.77099 0
M  V30 19283 H 1802.46 0.524918 1.49767 0
M  V30 19284 H 1802.49 -1.18207 3.61673 0
M  V30 19285 H 1802 0.630227 3.82949 0
M  V30 19286 H 1800.1 -1.77288 3.27719 0
M  V30 19287 H 1800.21 -0.601546 4.75309 0
M  V30 19288 H 1798.58 -0.415561 2.51287 0
M  V30 19289 H 1799.36 1.08027 3.25861 0
M  V30 19290 N 1801.8 -1.57568 0.0317802 0
M  V30 19291 C 1802.77 -2.09296 -0.934239 0
M  V30 19292 C 1803.77 -1.00855 -1.25239 0
M  V30 19293 O 1804.96 -1.27004 -1.19229 0
M  V30 19294 C 1802.09 -2.56103 -2.24998 0
M  V30 19295 H 1803.28 -2.95933 -0.486183 0
M  V30 19296 H 1800.83 -1.54796 -0.2163 0
M  V30 19297 H 1801.57 -1.72803 -2.74426 0
M  V30 19298 H 1801.35 -3.35329 -2.03216 0
M  V30 19299 H 1802.84 -2.96339 -2.94233 0
M  V30 19300 N 1803.28 0.241399 -1.5574 0
M  V30 19301 C 1804.51 0.984645 -1.81627 0
M  V30 19302 C 1804.92 1.79234 -0.605959 0
M  V30 19303 O 1804.26 1.78479 0.434841 0
M  V30 19304 C 1804.33 1.96647 -3.00949 0
M  V30 19305 C 1803.99 1.34519 -4.36754 0
M  V30 19306 C 1804.99 0.744925 -5.14536 0
M  V30 19307 C 1802.67 1.3629 -4.83457 0
M  V30 19308 C 1804.67 0.170657 -6.37171 0
M  V30 19309 C 1802.35 0.784784 -6.0604 0
M  V30 19310 C 1803.35 0.189694 -6.82737 0
M  V30 19311 O 1803.04 -0.379483 -8.03004 0
M  V30 19312 H 1802.77 0.295118 -0.608179 0
M  V30 19313 H 1805.32 0.267851 -2.03646 0
M  V30 19314 H 1803.55 2.72172 -2.74699 0
M  V30 19315 H 1805.24 2.5736 -3.1388 0
M  V30 19316 H 1806.01 0.723706 -4.7957 0
M  V30 19317 H 1801.89 1.81548 -4.23747 0
M  V30 19318 H 1805.43 -0.294459 -6.96978 0
M  V30 19319 H 1801.33 0.803348 -6.40482 0
M  V30 19320 H 1802.1 -0.271879 -8.18048 0
M  V30 19321 N 1804.76 1.49212 0.507292 0
M  V30 19322 C 1806.01 1.59591 1.26105 0
M  V30 19323 C 1806.36 0.276243 1.90407 0
M  V30 19324 O 1805.65 -0.722987 1.77436 0
M  V30 19325 C 1805.85 2.68761 2.35589 0
M  V30 19326 C 1805.68 4.11215 1.82022 0
M  V30 19327 C 1804.45 4.78081 1.63606 0
M  V30 19328 C 1806.65 4.96653 1.33568 0
M  V30 19329 N 1804.63 6.04871 1.04902 0
M  V30 19330 C 1806 6.13871 0.869593 0
M  V30 19331 C 1808.05 4.82701 1.22083 0
M  V30 19332 C 1806.76 7.18674 0.300011 0
M  V30 19333 C 1808.78 5.87647 0.66522 0
M  V30 19334 C 1808.14 7.04089 0.209323 0
M  V30 19335 H 1804.24 0.638391 0.451642 0
M  V30 19336 H 1806.83 1.86192 0.569275 0
M  V30 19337 H 1805 2.43944 3.02235 0
M  V30 19338 H 1806.73 2.68697 3.02629 0
M  V30 19339 H 1803.49 4.34778 1.87791 0
M  V30 19340 H 1803.91 6.7255 0.774958 0
M  V30 19341 H 1808.55 3.92996 1.5593 0
M  V30 19342 H 1806.27 8.08084 -0.0507413 0
M  V30 19343 H 1809.86 5.7891 0.579215 0
M  V30 19344 H 1808.74 7.83908 -0.213896 0
M  V30 19345 N 1806.24 -0.757876 1.38181 0
M  V30 19346 C 1807.2 -1.85317 1.34871 0
M  V30 19347 C 1808.2 -1.58844 0.250041 0
M  V30 19348 O 1809.39 -1.66668 0.506688 0
M  V30 19349 C 1806.52 -3.22712 1.09864 0
M  V30 19350 H 1807.72 -1.89661 2.32312 0
M  V30 19351 H 1805.27 -0.959122 1.23412 0
M  V30 19352 H 1806 -3.24039 0.130112 0
M  V30 19353 H 1805.79 -3.4332 1.89403 0
M  V30 19354 H 1807.28 -4.02789 1.10232 0
M  V30 19355 N 1807.72 -1.22979 -0.985586 0
M  V30 19356 C 1808.65 -1.03073 -2.09519 0
M  V30 19357 C 1809.63 0.0507025 -1.70024 0
M  V30 19358 O 1810.81 -0.112938 -1.93871 0
M  V30 19359 C 1807.94 -0.615578 -3.41801 0
M  V30 19360 C 1806.9 -1.64377 -3.95176 0
M  V30 19361 C 1806.22 -1.08422 -5.23592 0
M  V30 19362 C 1807.52 -3.03555 -4.25032 0
M  V30 19363 H 1809.22 -1.95882 -2.2643 0
M  V30 19364 H 1806.76 -0.943206 -1.0881 0
M  V30 19365 H 1808.72 -0.463394 -4.18844 0
M  V30 19366 H 1807.44 0.348185 -3.24739 0
M  V30 19367 H 1806.1 -1.78386 -3.20272 0
M  V30 19368 H 1805.75 -0.111597 -5.02876 0
M  V30 19369 H 1805.45 -1.77118 -5.6027 0
M  V30 19370 H 1806.97 -0.94378 -6.03262 0
M  V30 19371 H 1808.38 -2.92878 -4.92844 0
M  V30 19372 H 1806.78 -3.69441 -4.72899 0
M  V30 19373 H 1807.85 -3.52937 -3.32511 0
M  V30 19374 N 1809.19 1.18355 -1.04066 0
M  V30 19375 C 1810.44 1.87963 -0.742576 0
M  V30 19376 C 1810.76 1.80744 0.731899 0
M  V30 19377 O 1810.03 1.22576 1.52813 0
M  V30 19378 H 1808.61 0.69584 -0.271689 0
M  V30 19379 H 1811.28 1.43632 -1.31741 0
M  V30 19380 H 1810.37 2.93999 -1.04741 0
M  V30 19381 N 1810.67 0.820125 1.3458 0
M  V30 19382 C 1811.92 0.406871 1.9837 0
M  V30 19383 C 1812.25 -1.02936 1.65028 0
M  V30 19384 O 1811.5 -1.73122 0.912538 0
M  V30 19385 C 1811.8 0.552817 3.53099 0
M  V30 19386 C 1811.47 1.95436 4.06344 0
M  V30 19387 C 1810.13 2.33776 4.20597 0
M  V30 19388 C 1812.48 2.87068 4.35019 0
M  V30 19389 C 1809.81 3.6309 4.6085 0
M  V30 19390 C 1812.16 4.15841 4.76716 0
M  V30 19391 C 1810.83 4.54163 4.89175 0
M  V30 19392 H 1810.1 0.148884 0.725889 0
M  V30 19393 H 1812.74 1.04353 1.6057 0
M  V30 19394 H 1811.05 -0.167245 3.91443 0
M  V30 19395 H 1812.74 0.213635 4.00431 0
M  V30 19396 H 1809.33 1.64652 3.95712 0
M  V30 19397 H 1813.52 2.5869 4.23548 0
M  V30 19398 H 1808.77 3.92611 4.68686 0
M  V30 19399 H 1812.95 4.86934 4.97863 0
M  V30 19400 H 1810.58 5.54415 5.20123 0
M  V30 19401 N 1812.15 -1.46743 0.574835 0
M  V30 19402 C 1813.08 -2.2832 -0.20062 0
M  V30 19403 C 1814.1 -1.3805 -0.862898 0
M  V30 19404 O 1815.28 -1.6272 -0.733785 0
M  V30 19405 C 1812.38 -3.1285 -1.303 0
M  V30 19406 C 1811.56 -4.31195 -0.734153 0
M  V30 19407 C 1810.62 -4.97183 -1.72324 0
M  V30 19408 O 1809.64 -5.55025 -1.26239 0
M  V30 19409 N 1810.84 -4.93476 -3.05714 0
M  V30 19410 H 1813.61 -2.95513 0.499231 0
M  V30 19411 H 1811.17 -1.56568 0.412077 0
M  V30 19412 H 1813.16 -3.53861 -1.96378 0
M  V30 19413 H 1811.73 -2.47784 -1.90583 0
M  V30 19414 H 1810.95 -3.94063 0.103888 0
M  V30 19415 H 1812.24 -5.07704 -0.333751 0
M  V30 19416 H 1811.64 -4.47715 -3.45786 0
M  V30 19417 H 1810.2 -5.38453 -3.67304 0
M  V30 19418 N 1813.63 -0.312197 -1.54477 0
M  V30 19419 C 1814.56 0.551829 -2.26886 0
M  V30 19420 C 1815.54 1.12874 -1.27254 0
M  V30 19421 O 1816.72 1.15599 -1.56046 0
M  V30 19422 C 1813.85 1.71839 -3.01809 0
M  V30 19423 C 1812.81 1.27131 -4.08683 0
M  V30 19424 C 1812.13 2.52392 -4.71384 0
M  V30 19425 C 1813.43 0.394413 -5.20809 0
M  V30 19426 H 1815.13 -0.0521331 -2.99355 0
M  V30 19427 H 1812.67 -0.0265138 -1.43976 0
M  V30 19428 H 1814.63 2.32903 -3.5119 0
M  V30 19429 H 1813.35 2.34876 -2.26938 0
M  V30 19430 H 1812.01 0.683666 -3.60169 0
M  V30 19431 H 1811.66 3.13768 -3.93139 0
M  V30 19432 H 1811.36 2.23174 -5.43569 0
M  V30 19433 H 1812.88 3.14239 -5.23533 0
M  V30 19434 H 1814.3 0.911031 -5.66015 0
M  V30 19435 H 1812.69 0.195517 -5.99781 0
M  V30 19436 H 1813.76 -0.577661 -4.81447 0
M  V30 19437 N 1815.11 1.57549 -0.040136 0
M  V30 19438 C 1816.35 1.94118 0.640122 0
M  V30 19439 C 1816.71 0.917574 1.68655 0
M  V30 19440 O 1817.91 1.16983 2.42009 0
M  V30 19441 C 1816.18 3.35544 1.23065 0
M  V30 19442 S 1817.74 3.94055 1.93045 0
M  V30 19443 H 1814.56 0.679133 0.210475 0
M  V30 19444 H 1817.16 1.9521 -0.106436 0
M  V30 19445 H 1815.87 4.0785 0.456772 0
M  V30 19446 H 1815.4 3.37921 2.01427 0
M  V30 19447 H 1817.41 3.78384 3.20999 0
M  V30 19448 N 1816.58 -0.233136 1.55866 0
M  V30 19449 C 1818 -0.582304 1.48598 0
M  V30 19450 C 1818.2 -1.87694 0.733016 0
M  V30 19451 O 1817.26 -2.51074 0.267959 0
M  V30 19452 C 1818.57 -0.67227 2.93089 0
M  V30 19453 C 1820.12 -0.763676 3.03541 0
M  V30 19454 C 1820.59 -0.885087 4.49366 0
M  V30 19455 N 1822.08 -0.949606 4.53362 0
M  V30 19456 C 1822.82 -1.06306 5.6346 0
M  V30 19457 N 1822.31 -1.14118 6.83337 0
M  V30 19458 N 1824.11 -1.09729 5.51286 0
M  V30 19459 H 1816.26 0.616568 2.03254 0
M  V30 19460 H 1818.52 0.214762 0.923353 0
M  V30 19461 H 1818.23 0.20923 3.51077 0
M  V30 19462 H 1818.1 -1.5397 3.44344 0
M  V30 19463 H 1820.49 -1.63562 2.45625 0
M  V30 19464 H 1820.57 0.129191 2.55474 0
M  V30 19465 H 1820.21 -0.017644 5.07897 0
M  V30 19466 H 1820.14 -1.7932 4.95128 0
M  V30 19467 H 1822.63 -0.900018 3.67026 0
M  V30 19468 H 1822.95 -1.2272 7.62994 0
M  V30 19469 H 1821.29 -1.11051 6.8607 0
M  V30 19470 H 1824.48 -1.03283 4.56563 0
M  V30 19471 H 1824.66 -1.18225 6.37124 0
M  V30 19472 N 1818.06 -1.49479 -0.499372 0
M  V30 19473 C 1819.29 -1.62524 -1.27552 0
M  V30 19474 C 1819.7 -0.296533 -1.86862 0
M  V30 19475 O 1819.04 0.728236 -1.68649 0
M  V30 19476 C 1819.11 -2.63674 -2.44369 0
M  V30 19477 C 1818.77 -4.0798 -2.05916 0
M  V30 19478 C 1819.77 -4.94733 -1.59797 0
M  V30 19479 C 1817.45 -4.53723 -2.15501 0
M  V30 19480 C 1819.45 -6.25268 -1.23768 0
M  V30 19481 C 1817.13 -5.84271 -1.79084 0
M  V30 19482 C 1818.13 -6.69867 -1.33292 0
M  V30 19483 O 1817.82 -7.97982 -0.97368 0
M  V30 19484 H 1817.55 -0.550018 -0.393009 0
M  V30 19485 H 1820.11 -1.96261 -0.605856 0
M  V30 19486 H 1818.34 -2.2512 -3.14417 0
M  V30 19487 H 1820.02 -2.66231 -3.06392 0
M  V30 19488 H 1820.79 -4.6062 -1.51836 0
M  V30 19489 H 1816.67 -3.87264 -2.50095 0
M  V30 19490 H 1820.21 -6.92033 -0.879542 0
M  V30 19491 H 1816.11 -6.17912 -1.86695 0
M  V30 19492 H 1816.88 -8.11007 -1.10501 0
M  V30 19493 N 1819.54 0.750537 -1.38581 0
M  V30 19494 C 1820.79 1.50676 -1.34689 0
M  V30 19495 C 1821.11 1.94903 0.0615414 0
M  V30 19496 O 1820.38 1.67867 1.00982 0
M  V30 19497 H 1818.96 0.558914 -0.495605 0
M  V30 19498 H 1821.62 0.891979 -1.73291 0
M  V30 19499 H 1820.72 2.39623 -1.99969 0
M  V30 19500 N 1821.02 1.235 0.979051 0
M  V30 19501 C 1822.25 1.09304 1.75318 0
M  V30 19502 C 1822.66 -0.358266 1.85777 0
M  V30 19503 O 1822 -1.25956 1.33719 0
M  V30 19504 C 1822.06 1.6457 3.1962 0
M  V30 19505 C 1821.73 3.1334 3.32666 0
M  V30 19506 C 1822.72 4.1062 3.18885 0
M  V30 19507 C 1820.41 3.53076 3.57271 0
M  V30 19508 C 1822.4 5.45617 3.29515 0
M  V30 19509 C 1820.09 4.88218 3.67541 0
M  V30 19510 C 1821.09 5.84298 3.53674 0
M  V30 19511 O 1820.78 7.16985 3.63577 0
M  V30 19512 H 1820.51 0.383087 0.556974 0
M  V30 19513 H 1823.06 1.6385 1.23864 0
M  V30 19514 H 1821.29 1.04446 3.72328 0
M  V30 19515 H 1822.98 1.4583 3.78799 0
M  V30 19516 H 1823.75 3.81264 2.99771 0
M  V30 19517 H 1819.63 2.78804 3.67136 0
M  V30 19518 H 1823.17 6.20592 3.18608 0
M  V30 19519 H 1819.07 5.17249 3.86165 0
M  V30 19520 H 1819.83 7.24752 3.80364 0
M  V30 19521 N 1822.5 -1.17802 1.04693 0
M  V30 19522 C 1823.46 -2.19854 0.647816 0
M  V30 19523 C 1824.46 -1.58013 -0.298081 0
M  V30 19524 O 1825.65 -1.74004 -0.0826309 0
M  V30 19525 C 1822.78 -3.40864 -0.0492661 0
M  V30 19526 H 1823.98 -2.56678 1.55101 0
M  V30 19527 H 1821.53 -1.31796 0.840215 0
M  V30 19528 H 1822.26 -3.0958 -0.965967 0
M  V30 19529 H 1822.05 -3.86995 0.630677 0
M  V30 19530 H 1823.54 -4.16412 -0.31479 0
M  V30 19531 N 1823.98 -0.827251 -1.34143 0
M  V30 19532 C 1824.92 -0.240552 -2.31353 0
M  V30 19533 C 1825.92 0.62109 -1.57603 0
M  V30 19534 O 1827.12 0.511947 -1.72566 0
M  V30 19535 H 1823.5 -0.0590494 -0.749678 0
M  V30 19536 H 1825.47 -1.07518 -2.78357 0
M  V30 19537 C 1824.22 0.579321 -3.4284 0
M  V30 19538 H 1823.54 -0.0743746 -3.99731 0
M  V30 19539 H 1824.98 0.955871 -4.13085 0
M  V30 19540 C 1823.44 1.75345 -2.87673 0
M  V30 19541 O 1823.97 2.85178 -2.82907 0
M  V30 19542 N 1822.18 1.57158 -2.44437 0
M  V30 19543 H 1821.72 0.678148 -2.48513 0
M  V30 19544 H 1821.68 2.35869 -2.07877 0
M  V30 19545 N 1825.45 1.46436 -0.582609 0
M  V30 19546 C 1826.68 2.06768 -0.0737657 0
M  V30 19547 C 1827.1 1.43137 1.23115 0
M  V30 19548 O 1826.45 0.536633 1.74432 0
M  V30 19549 C 1826.5 3.61365 0.0988205 0
M  V30 19550 O 1826.23 4.22616 -1.15444 0
M  V30 19551 C 1827.73 4.38626 0.642025 0
M  V30 19552 H 1824.95 0.66854 -0.0574078 0
M  V30 19553 H 1827.49 1.88064 -0.80325 0
M  V30 19554 H 1825.65 3.79497 0.778526 0
M  V30 19555 H 1826.06 5.15486 -0.968204 0
M  V30 19556 H 1827.53 5.47389 0.711966 0
M  V30 19557 H 1828.01 4.06663 1.65897 0
M  V30 19558 H 1828.62 4.253 -0.00280852 0
M  V30 19559 N 1826.93 0.320385 1.54309 0
M  V30 19560 C 1828.16 -0.28794 2.05391 0
M  V30 19561 C 1828.58 -1.45249 1.19517 0
M  V30 19562 O 1827.94 -1.80154 0.203556 0
M  V30 19563 C 1827.99 -0.703261 3.53676 0
M  V30 19564 O 1827.09 -1.80598 3.70753 0
M  V30 19565 H 1826.43 -0.052589 0.661914 0
M  V30 19566 H 1828.96 0.46787 1.99179 0
M  V30 19567 H 1828.97 -0.986793 3.95887 0
M  V30 19568 H 1827.65 0.148514 4.15635 0
M  V30 19569 H 1826.22 -1.5215 3.40448 0
M  V30 19570 N 1828.41 -1.57525 0.0484906 0
M  V30 19571 C 1829.32 -2.14854 -0.942076 0
M  V30 19572 C 1830.34 -1.10565 -1.34355 0
M  V30 19573 O 1831.51 -1.4272 -1.42102 0
M  V30 19574 C 1828.58 -2.68002 -2.19945 0
M  V30 19575 C 1827.64 -3.87078 -1.85658 0
M  V30 19576 C 1826.87 -4.37682 -3.05401 0
M  V30 19577 O 1827.09 -3.87373 -4.18687 0
M  V30 19578 O 1826.03 -5.29302 -2.86571 0
M  V30 19579 H 1829.85 -2.9981 -0.48453 0
M  V30 19580 H 1827.44 -1.48392 -0.173252 0
M  V30 19581 H 1829.32 -3.02167 -2.93722 0
M  V30 19582 H 1828 -1.86118 -2.64843 0
M  V30 19583 H 1826.9 -3.57806 -1.09205 0
M  V30 19584 H 1828.24 -4.70184 -1.45562 0
M  V30 19585 N 1829.89 0.224867 -1.55988 0
M  V30 19586 C 1831.13 0.951154 -1.79111 0
M  V30 19587 C 1831.47 1.84119 -0.617568 0
M  V30 19588 O 1830.74 1.90686 0.383312 0
M  V30 19589 C 1831.02 1.79292 -3.12292 0
M  V30 19590 C 1830.88 0.929603 -4.40089 0
M  V30 19591 C 1832.2 2.77132 -3.41886 0
M  V30 19592 H 1829.32 0.344359 -0.651603 0
M  V30 19593 H 1831.96 0.220228 -1.88719 0
M  V30 19594 H 1830.11 2.41609 -3.04232 0
M  V30 19595 H 1831.78 0.323432 -4.60165 0
M  V30 19596 H 1830.02 0.234877 -4.33164 0
M  V30 19597 H 1830.69 1.55289 -5.29707 0
M  V30 19598 H 1833.17 2.24951 -3.50052 0
M  V30 19599 H 1832.05 3.33135 -4.36248 0
M  V30 19600 H 1832.31 3.54705 -2.63887 0
M  V30 19601 N 1831.37 1.49742 0.491438 0
M  V30 19602 C 1832.78 1.36717 0.823454 0
M  V30 19603 C 1832.98 0.407587 1.97335 0
M  V30 19604 O 1832.04 -0.157251 2.5201 0
M  V30 19605 C 1833.35 2.77647 1.15466 0
M  V30 19606 C 1834.9 2.86417 1.26231 0
M  V30 19607 C 1835.37 4.28136 1.62676 0
M  V30 19608 N 1836.86 4.30992 1.69707 0
M  V30 19609 C 1837.6 5.37624 1.9937 0
M  V30 19610 N 1837.1 6.54489 2.27192 0
M  V30 19611 N 1838.89 5.25048 2.00701 0
M  V30 19612 H 1831.04 2.10719 -0.266676 0
M  V30 19613 H 1833.3 0.946301 -0.0567377 0
M  V30 19614 H 1833.01 3.49608 0.382994 0
M  V30 19615 H 1832.88 3.13617 2.09582 0
M  V30 19616 H 1835.27 2.14687 2.02468 0
M  V30 19617 H 1835.35 2.54018 0.301434 0
M  V30 19618 H 1834.99 5.00396 0.869859 0
M  V30 19619 H 1834.92 4.58007 2.59879 0
M  V30 19620 H 1837.42 3.46713 1.50327 0
M  V30 19621 H 1837.73 7.31572 2.49041 0
M  V30 19622 H 1836.07 6.57699 2.24627 0
M  V30 19623 H 1839.26 4.32751 1.78449 0
M  V30 19624 H 1839.44 6.08242 2.23484 0
M  V30 19625 N 1832.84 -0.743177 1.38977 0
M  V30 19626 C 1833.75 -1.88767 1.39299 0
M  V30 19627 C 1834.77 -1.71587 0.288782 0
M  V30 19628 O 1835.95 -1.94331 0.52892 0
M  V30 19629 C 1833.01 -3.24263 1.22697 0
M  V30 19630 C 1832.07 -3.53895 2.43017 0
M  V30 19631 C 1831.31 -4.82925 2.27198 0
M  V30 19632 O 1831.53 -5.56056 1.27114 0
M  V30 19633 O 1830.46 -5.12271 3.16009 0
M  V30 19634 H 1834.29 -1.9145 2.35755 0
M  V30 19635 H 1831.87 -0.889881 1.20006 0
M  V30 19636 H 1833.76 -4.05251 1.1554 0
M  V30 19637 H 1832.43 -3.22368 0.293317 0
M  V30 19638 H 1831.34 -2.73026 2.5575 0
M  V30 19639 H 1832.67 -3.6056 3.35048 0
M  V30 19640 N 1834.32 -1.24018 -0.972487 0
M  V30 19641 C 1835.25 -1.0529 -2.08414 0
M  V30 19642 C 1836.23 0.0326663 -1.70069 0
M  V30 19643 O 1837.42 -0.133494 -1.93741 0
M  V30 19644 C 1834.55 -0.651796 -3.41129 0
M  V30 19645 C 1833.5 -1.68559 -3.9341 0
M  V30 19646 C 1832.83 -1.1397 -5.22413 0
M  V30 19647 C 1834.13 -3.08046 -4.21788 0
M  V30 19648 H 1835.82 -1.98272 -2.2434 0
M  V30 19649 H 1833.37 -0.954694 -1.07804 0
M  V30 19650 H 1835.32 -0.507792 -4.18329 0
M  V30 19651 H 1834.05 0.313722 -3.2509 0
M  V30 19652 H 1832.7 -1.81773 -3.18362 0
M  V30 19653 H 1832.35 -0.164928 -5.0273 0
M  V30 19654 H 1832.05 -1.83051 -5.5836 0
M  V30 19655 H 1833.58 -1.00771 -6.02227 0
M  V30 19656 H 1834.99 -2.98088 -4.8971 0
M  V30 19657 H 1833.39 -3.74436 -4.68954 0
M  V30 19658 H 1834.46 -3.56444 -3.28749 0
M  V30 19659 N 1835.8 1.17245 -1.05316 0
M  V30 19660 C 1837.03 1.91176 -0.783273 0
M  V30 19661 C 1837.44 1.77128 0.664996 0
M  V30 19662 O 1836.78 1.10682 1.46612 0
M  V30 19663 C 1836.84 3.42708 -1.0859 0
M  V30 19664 C 1836.51 3.80539 -2.5306 0
M  V30 19665 C 1837.5 3.8328 -3.51272 0
M  V30 19666 C 1835.19 4.11464 -2.88102 0
M  V30 19667 C 1837.18 4.16418 -4.82571 0
M  V30 19668 C 1834.87 4.44271 -4.19603 0
M  V30 19669 C 1835.87 4.46726 -5.16648 0
M  V30 19670 O 1835.56 4.7876 -6.4579 0
M  V30 19671 H 1835.29 0.613371 -0.284169 0
M  V30 19672 H 1837.84 1.49608 -1.40736 0
M  V30 19673 H 1836.07 3.84576 -0.404716 0
M  V30 19674 H 1837.76 3.97901 -0.801827 0
M  V30 19675 H 1838.53 3.59511 -3.25541 0
M  V30 19676 H 1834.41 4.08723 -2.13228 0
M  V30 19677 H 1837.95 4.1825 -5.58313 0
M  V30 19678 H 1833.85 4.67503 -4.45097 0
M  V30 19679 H 1834.62 4.96612 -6.5063 0
M  V30 19680 N 1837.28 0.834353 1.33702 0
M  V30 19681 C 1838.56 0.350003 1.92443 0
M  V30 19682 C 1838.94 -1.1641 1.76102 0
M  V30 19683 O 1838.28 -1.97646 1.14666 0
M  V30 19684 C 1838.49 0.791928 3.39896 0
M  V30 19685 C 1839.84 0.797338 4.17046 0
M  V30 19686 O 1840.87 0.735242 3.48529 0
M  V30 19687 O 1839.72 0.880963 5.39353 0
M  V30 19688 H 1836.82 0.0981048 0.82116 0
M  V30 19689 H 1839.36 0.919905 1.42604 0
M  V30 19690 H 1838.14 1.83433 3.45641 0
M  V30 19691 H 1837.76 0.198349 3.97105 0
M  V30 19692 N 1838.76 -1.46125 0.590367 0
M  V30 19693 C 1839.72 -2.2884 -0.128368 0
M  V30 19694 C 1840.72 -1.38818 -0.81156 0
M  V30 19695 O 1841.91 -1.61117 -0.662347 0
M  V30 19696 C 1839.04 -3.19402 -1.19144 0
M  V30 19697 H 1840.23 -2.93864 0.598641 0
M  V30 19698 H 1837.79 -1.52362 0.34866 0
M  V30 19699 H 1838.52 -2.59141 -1.94978 0
M  V30 19700 H 1838.31 -3.85692 -0.705973 0
M  V30 19701 H 1839.8 -3.8164 -1.69532 0
M  V30 19702 N 1840.23 -0.328564 -1.54137 0
M  V30 19703 C 1841.17 0.577788 -2.20764 0
M  V30 19704 C 1842.15 1.11189 -1.18642 0
M  V30 19705 O 1843.33 1.17496 -1.47401 0
M  V30 19706 C 1840.46 1.79333 -2.87328 0
M  V30 19707 C 1839.5 1.39003 -4.03213 0
M  V30 19708 S 1840.34 0.422499 -5.33831 0
M  V30 19709 C 1841.49 1.64521 -6.0389 0
M  V30 19710 H 1841.72 0.0118326 -2.97298 0
M  V30 19711 H 1839.26 -0.112643 -1.53989 0
M  V30 19712 H 1841.22 2.49076 -3.263 0
M  V30 19713 H 1839.88 2.33048 -2.10589 0
M  V30 19714 H 1839.07 2.29593 -4.48668 0
M  V30 19715 H 1838.67 0.77225 -3.6594 0
M  V30 19716 H 1840.96 2.58192 -6.26373 0
M  V30 19717 H 1841.91 1.23272 -6.97287 0
M  V30 19718 H 1842.31 1.83446 -5.33861 0
M  V30 19719 N 1841.71 1.57497 -0.0568439 0
M  V30 19720 C 1842.96 1.932 0.61658 0
M  V30 19721 C 1843.29 0.935936 1.70158 0
M  V30 19722 O 1842.57 -0.0372005 1.94464 0
M  V30 19723 C 1842.85 3.39254 1.20742 0
M  V30 19724 C 1842.7 4.49612 0.130081 0
M  V30 19725 C 1844.02 3.85817 2.11738 0
M  V30 19726 H 1841.14 0.702558 0.222668 0
M  V30 19727 H 1843.78 1.89622 -0.119765 0
M  V30 19728 H 1841.93 3.42434 1.83497 0
M  V30 19729 H 1843.6 4.58559 -0.502172 0
M  V30 19730 H 1841.85 4.30411 -0.541167 0
M  V30 19731 H 1842.52 5.48906 0.583606 0
M  V30 19732 H 1844.99 3.8455 1.58936 0
M  V30 19733 H 1843.87 4.88653 2.50019 0
M  V30 19734 H 1844.13 3.22899 3.01974 0
M  V30 19735 N 1843.19 -0.216591 1.56105 0
M  V30 19736 C 1844.15 -1.25198 1.91985 0
M  V30 19737 C 1845.15 -1.39551 0.798884 0
M  V30 19738 O 1846.34 -1.37731 1.06657 0
M  V30 19739 C 1843.48 -2.62499 2.17502 0
M  V30 19740 H 1844.67 -0.945854 2.84594 0
M  V30 19741 H 1842.22 -0.457218 1.49463 0
M  V30 19742 H 1842.96 -2.98202 1.27461 0
M  V30 19743 H 1842.74 -2.53457 2.99169 0
M  V30 19744 H 1844.23 -3.37204 2.4634 0
M  V30 19745 N 1844.67 -1.5 -0.48349 0
M  V30 19746 C 1845.63 -1.6742 -1.56535 0
M  V30 19747 C 1846.63 -0.545311 -1.51271 0
M  V30 19748 O 1847.82 -0.812112 -1.54112 0
M  V30 19749 C 1844.95 -1.6879 -2.9618 0
M  V30 19750 H 1846.15 -2.6393 -1.42412 0
M  V30 19751 H 1843.7 -1.39295 -0.708991 0
M  V30 19752 H 1844.43 -0.739285 -3.15761 0
M  V30 19753 H 1844.22 -2.50789 -3.01408 0
M  V30 19754 H 1845.71 -1.84264 -3.74749 0
M  V30 19755 N 1846.15 0.735796 -1.39369 0
M  V30 19756 C 1847.09 1.87116 -1.38168 0
M  V30 19757 C 1848.09 1.67315 -0.264936 0
M  V30 19758 O 1849.29 1.74666 -0.434928 0
M  V30 19759 H 1845.67 0.615926 -0.431438 0
M  V30 19760 H 1847.64 1.85245 -2.33938 0
M  V30 19761 C 1846.39 3.2479 -1.24125 0
M  V30 19762 H 1845.71 3.40621 -2.09325 0
M  V30 19763 H 1847.15 4.04426 -1.27341 0
M  V30 19764 C 1845.61 3.36862 0.050393 0
M  V30 19765 O 1846.14 3.88511 1.02088 0
M  V30 19766 N 1844.35 2.90379 0.113184 0
M  V30 19767 H 1843.89 2.48537 -0.677267 0
M  V30 19768 H 1843.85 2.98837 0.976928 0
M  V30 19769 N 1847.63 1.24532 0.965897 0
M  V30 19770 C 1848.87 1.0801 1.70343 0
M  V30 19771 C 1849.19 -0.380738 1.91859 0
M  V30 19772 O 1850.39 -0.666181 2.632 0
M  V30 19773 C 1848.85 1.88452 3.06617 0
M  V30 19774 C 1848.46 3.38957 2.92937 0
M  V30 19775 C 1850.2 1.80465 3.8423 0
M  V30 19776 C 1848.11 4.11736 4.24532 0
M  V30 19777 H 1847.04 0.400577 0.638791 0
M  V30 19778 H 1849.69 1.48629 1.07618 0
M  V30 19779 H 1848.07 1.40648 3.70181 0
M  V30 19780 H 1849.25 3.94353 2.38374 0
M  V30 19781 H 1847.56 3.47915 2.28788 0
M  V30 19782 H 1850.16 2.32142 4.81679 0
M  V30 19783 H 1850.5 0.770262 4.09112 0
M  V30 19784 H 1851.03 2.25958 3.27395 0
M  V30 19785 H 1847.77 5.15541 4.04842 0
M  V30 19786 H 1847.29 3.61125 4.78904 0
M  V30 19787 H 1848.97 4.18833 4.93141 0
M  V30 19788 N 1849.1 -1.16685 1.05936 0
M  V30 19789 C 1850.51 -1.68745 0.798866 0
M  V30 19790 C 1850.87 -1.84113 -0.678008 0
M  V30 19791 O 1849.99 -1.53408 -1.52627 0
M  V30 19792 C 1850.59 -3.06508 1.44356 0
M  V30 19793 C 1849.14 -3.55704 1.23092 0
M  V30 19794 C 1848.29 -2.31776 1.52235 0
M  V30 19795 H 1851.24 -1.01097 1.22332 0
M  V30 19796 H 1851.26 -3.70725 0.856908 0
M  V30 19797 H 1850.78 -2.95291 2.51843 0
M  V30 19798 H 1848.88 -3.72186 0.175632 0
M  V30 19799 H 1848.99 -4.38015 1.94112 0
M  V30 19800 H 1847.35 -2.36611 0.942734 0
M  V30 19801 H 1848.14 -2.2316 2.60873 0
M  V30 19802 N 1850.58 -0.841432 -1.33258 0
M  V30 19803 C 1851.81 -0.451287 -2.01611 0
M  V30 19804 C 1852.22 0.952858 -1.63454 0
M  V30 19805 O 1851.56 1.6311 -0.845039 0
M  V30 19806 C 1851.62 -0.495287 -3.56072 0
M  V30 19807 C 1851.29 -1.856 -4.17614 0
M  V30 19808 C 1852.29 -2.81959 -4.36801 0
M  V30 19809 C 1849.97 -2.14953 -4.53983 0
M  V30 19810 C 1851.96 -4.05832 -4.91507 0
M  V30 19811 C 1849.65 -3.39083 -5.08395 0
M  V30 19812 C 1850.65 -4.34339 -5.27104 0
M  V30 19813 O 1850.34 -5.56273 -5.80359 0
M  V30 19814 H 1850.07 -0.177188 -0.652365 0
M  V30 19815 H 1852.62 -1.13629 -1.71107 0
M  V30 19816 H 1850.85 0.246506 -3.85914 0
M  V30 19817 H 1852.54 -0.122606 -4.05715 0
M  V30 19818 H 1853.31 -2.60582 -4.0905 0
M  V30 19819 H 1849.19 -1.41602 -4.38714 0
M  V30 19820 H 1852.73 -4.80192 -5.06025 0
M  V30 19821 H 1848.63 -3.60316 -5.35577 0
M  V30 19822 H 1849.4 -5.58047 -5.9877 0
M  V30 19823 N 1852.06 1.4581 -0.598108 0
M  V30 19824 C 1853.34 1.95588 -0.0220376 0
M  V30 19825 C 1853.72 1.54066 1.44316 0
M  V30 19826 O 1853.06 0.798663 2.14088 0
M  V30 19827 C 1853.27 3.48366 -0.210204 0
M  V30 19828 C 1854.62 4.24513 -0.0860474 0
M  V30 19829 O 1855.65 3.55925 -0.139833 0
M  V30 19830 O 1854.51 5.46488 0.0367961 0
M  V30 19831 H 1851.6 0.825977 0.0411123 0
M  V30 19832 H 1854.15 1.56021 -0.667506 0
M  V30 19833 H 1852.92 3.71526 -1.22818 0
M  V30 19834 H 1852.54 3.94801 0.470974 0
M  V30 19835 N 1853.54 0.336733 1.53961 0
M  V30 19836 C 1854.78 -0.262248 2.01097 0
M  V30 19837 C 1855.12 -1.50745 1.22431 0
M  V30 19838 O 1854.39 -1.92012 0.310103 0
M  V30 19839 C 1854.67 -0.583219 3.55346 0
M  V30 19840 C 1854.53 0.67361 4.44727 0
M  V30 19841 C 1855.85 -1.39558 4.17386 0
M  V30 19842 H 1852.97 -0.0938423 0.731001 0
M  V30 19843 H 1855.61 0.455921 1.84449 0
M  V30 19844 H 1853.76 -1.19505 3.69663 0
M  V30 19845 H 1855.43 1.31168 4.42258 0
M  V30 19846 H 1853.67 1.29987 4.13867 0
M  V30 19847 H 1854.34 0.404382 5.50517 0
M  V30 19848 H 1856.82 -0.878292 4.06725 0
M  V30 19849 H 1855.7 -1.58892 5.25399 0
M  V30 19850 H 1855.96 -2.39567 3.71564 0
M  V30 19851 N 1855.02 -1.57465 0.0651956 0
M  V30 19852 C 1855.95 -2.09315 -0.933793 0
M  V30 19853 C 1856.96 -1.0239 -1.26571 0
M  V30 19854 O 1858.15 -1.29921 -1.22405 0
M  V30 19855 C 1855.25 -2.53302 -2.25147 0
M  V30 19856 C 1854.42 -3.83724 -2.09939 0
M  V30 19857 C 1853.48 -4.13874 -3.24953 0
M  V30 19858 O 1852.51 -4.83577 -3.00236 0
M  V30 19859 N 1853.71 -3.66896 -4.49853 0
M  V30 19860 H 1856.47 -2.95648 -0.491142 0
M  V30 19861 H 1854.04 -1.61449 -0.120698 0
M  V30 19862 H 1856.03 -2.70538 -3.00984 0
M  V30 19863 H 1854.6 -1.72142 -2.60933 0
M  V30 19864 H 1853.82 -3.75933 -1.18609 0
M  V30 19865 H 1855.11 -4.69106 -1.9702 0
M  V30 19866 H 1854.5 -3.10573 -4.72822 0
M  V30 19867 H 1853.06 -3.89344 -5.22738 0
M  V30 19868 N 1856.49 0.20831 -1.56217 0
M  V30 19869 C 1857.72 0.945898 -1.83675 0
M  V30 19870 C 1858.13 1.77908 -0.643841 0
M  V30 19871 O 1857.47 1.79361 0.396885 0
M  V30 19872 C 1857.54 1.90219 -3.05052 0
M  V30 19873 C 1857.2 1.25224 -4.39509 0
M  V30 19874 C 1858.2 0.635617 -5.16 0
M  V30 19875 C 1855.88 1.26005 -4.86239 0
M  V30 19876 C 1857.88 0.0354655 -6.3739 0
M  V30 19877 C 1855.56 0.656058 -6.07568 0
M  V30 19878 C 1856.56 0.0448326 -6.82985 0
M  V30 19879 O 1856.25 -0.549727 -8.02018 0
M  V30 19880 H 1855.98 0.282151 -0.614302 0
M  V30 19881 H 1858.54 0.224595 -2.04168 0
M  V30 19882 H 1856.77 2.66284 -2.8041 0
M  V30 19883 H 1858.45 2.50644 -3.19268 0
M  V30 19884 H 1859.22 0.62182 -4.80997 0
M  V30 19885 H 1855.1 1.72519 -4.27502 0
M  V30 19886 H 1858.64 -0.442232 -6.96197 0
M  V30 19887 H 1854.54 0.667312 -6.42041 0
M  V30 19888 H 1855.31 -0.445338 -8.17288 0
M  V30 19889 N 1857.97 1.50255 0.475528 0
M  V30 19890 C 1859.2 1.64771 1.25132 0
M  V30 19891 C 1859.61 0.329253 1.85907 0
M  V30 19892 O 1858.97 -0.688289 1.69023 0
M  V30 19893 C 1859.02 2.73556 2.36325 0
M  V30 19894 O 1858.74 4.0029 1.78043 0
M  V30 19895 C 1860.24 2.99006 3.27277 0
M  V30 19896 H 1857.46 0.553987 0.378602 0
M  V30 19897 H 1860.01 1.9645 0.56811 0
M  V30 19898 H 1858.16 2.44584 3.00429 0
M  V30 19899 H 1858.58 4.60416 2.51232 0
M  V30 19900 H 1860.05 3.78797 4.01518 0
M  V30 19901 H 1860.53 2.09904 3.85794 0
M  V30 19902 H 1861.13 3.29493 2.68914 0
M  V30 19903 N 1859.45 -0.728395 1.39758 0
M  V30 19904 C 1860.73 -1.48036 1.27846 0
M  V30 19905 C 1861.11 -2.10818 -0.108996 0
M  V30 19906 O 1860.45 -1.99125 -1.12078 0
M  V30 19907 C 1860.66 -2.52644 2.40774 0
M  V30 19908 C 1862.01 -3.1884 2.80404 0
M  V30 19909 O 1863.04 -2.6296 2.40272 0
M  V30 19910 O 1861.9 -4.19971 3.49696 0
M  V30 19911 H 1858.99 -0.657688 0.501374 0
M  V30 19912 H 1861.54 -0.761658 1.51647 0
M  V30 19913 H 1860.31 -2.04678 3.335 0
M  V30 19914 H 1859.93 -3.32066 2.18674 0
M  V30 19915 N 1860.93 -1.25042 -0.959279 0
M  V30 19916 C 1862.18 -1.08912 -1.69768 0
M  V30 19917 C 1862.49 0.370558 -1.92058 0
M  V30 19918 O 1863.7 0.652214 -2.6355 0
M  V30 19919 C 1862.15 -1.90075 -3.05613 0
M  V30 19920 C 1861.76 -3.40506 -2.91136 0
M  V30 19921 C 1863.5 -1.825 -3.83268 0
M  V30 19922 C 1861.41 -4.13982 -4.22343 0
M  V30 19923 H 1860.34 -0.403959 -0.636658 0
M  V30 19924 H 1862.99 -1.49198 -1.06828 0
M  V30 19925 H 1861.37 -1.42609 -3.6943 0
M  V30 19926 H 1862.55 -3.95612 -2.36279 0
M  V30 19927 H 1860.86 -3.49123 -2.2694 0
M  V30 19928 H 1863.46 -2.34693 -4.80441 0
M  V30 19929 H 1863.8 -0.791947 -4.08698 0
M  V30 19930 H 1864.34 -2.27691 -3.26192 0
M  V30 19931 H 1861.07 -5.17681 -4.02103 0
M  V30 19932 H 1860.59 -3.6366 -4.76982 0
M  V30 19933 H 1862.27 -4.21443 -4.90913 0
M  V30 19934 N 1862.41 1.16121 -1.06553 0
M  V30 19935 C 1863.68 1.82752 -0.697202 0
M  V30 19936 C 1864.06 1.94474 0.821172 0
M  V30 19937 O 1863.41 1.48988 1.73248 0
M  V30 19938 C 1863.62 3.19592 -1.4022 0
M  V30 19939 C 1864.97 3.95333 -1.5491 0
M  V30 19940 O 1865.99 3.29119 -1.36232 0
M  V30 19941 O 1864.85 5.14028 -1.85574 0
M  V30 19942 H 1861.95 0.789214 -0.247125 0
M  V30 19943 H 1864.49 1.23302 -1.16597 0
M  V30 19944 H 1863.26 3.06111 -2.43745 0
M  V30 19945 H 1862.89 3.86722 -0.923686 0
M  V30 19946 N 1863.88 0.848487 1.3281 0
M  V30 19947 C 1865.11 0.461973 2.01369 0
M  V30 19948 C 1865.52 -0.944176 1.63957 0
M  V30 19949 O 1864.87 -1.62659 0.853677 0
M  V30 19950 C 1864.93 0.514163 3.55804 0
M  V30 19951 C 1864.59 1.87812 4.16624 0
M  V30 19952 C 1865.59 2.84271 4.353 0
M  V30 19953 C 1863.27 2.17358 4.52836 0
M  V30 19954 C 1865.27 4.08433 4.89348 0
M  V30 19955 C 1862.95 3.41774 5.0659 0
M  V30 19956 C 1863.95 4.37128 5.24793 0
M  V30 19957 O 1863.64 5.59342 5.774 0
M  V30 19958 H 1863.37 0.180645 0.651416 0
M  V30 19959 H 1865.93 1.14535 1.70502 0
M  V30 19960 H 1864.16 -0.226037 3.86039 0
M  V30 19961 H 1865.85 0.14412 4.05644 0
M  V30 19962 H 1866.61 2.62747 4.07663 0
M  V30 19963 H 1862.49 1.43927 4.37957 0
M  V30 19964 H 1866.03 4.82869 5.03471 0
M  V30 19965 H 1861.93 3.63151 5.33659 0
M  V30 19966 H 1862.7 5.61215 5.95802 0
M  V30 19967 N 1865.36 -1.4549 0.605832 0
M  V30 19968 C 1866.3 -2.27618 -0.162864 0
M  V30 19969 C 1867.27 -1.37031 -0.875291 0
M  V30 19970 O 1868.46 -1.66459 -0.884517 0
M  V30 19971 C 1865.58 -3.15357 -1.23561 0
M  V30 19972 C 1864.63 -4.21873 -0.626513 0
M  V30 19973 S 1865.46 -5.32519 0.564279 0
M  V30 19974 C 1866.62 -6.23826 -0.509106 0
M  V30 19975 H 1866.85 -2.92466 0.533923 0
M  V30 19976 H 1864.39 -1.49307 0.393306 0
M  V30 19977 H 1866.34 -3.66465 -1.84969 0
M  V30 19978 H 1865 -2.49778 -1.90446 0
M  V30 19979 H 1864.2 -4.83181 -1.43361 0
M  V30 19980 H 1863.8 -3.73897 -0.0876196 0
M  V30 19981 H 1866.09 -6.63116 -1.38865 0
M  V30 19982 H 1867.03 -7.08068 0.0677653 0
M  V30 19983 H 1867.44 -5.58459 -0.823646 0
M  V30 19984 N 1866.84 -0.344893 -1.5378 0
M  V30 19985 C 1867.75 0.519687 -2.28772 0
M  V30 19986 C 1868.77 1.11076 -1.33934 0
M  V30 19987 O 1869.94 1.12615 -1.66972 0
M  V30 19988 C 1867.01 1.65417 -3.04693 0
M  V30 19989 C 1866.07 1.09275 -4.1516 0
M  V30 19990 C 1865.3 2.17316 -4.87452 0
M  V30 19991 O 1865.52 3.38061 -4.59425 0
M  V30 19992 O 1864.46 1.81535 -5.73872 0
M  V30 19993 H 1868.28 -0.0899625 -3.03567 0
M  V30 19994 H 1865.87 -0.109899 -1.48995 0
M  V30 19995 H 1867.75 2.31421 -3.52168 0
M  V30 19996 H 1866.43 2.24961 -2.32754 0
M  V30 19997 H 1865.33 0.397193 -3.71985 0
M  V30 19998 H 1866.67 0.542156 -4.89205 0
M  V30 19999 N 1868.32 1.57428 -0.0735454 0
M  V30 20000 C 1869.73 1.57069 0.283088 0
M  V30 20001 C 1869.93 1.08308 1.69917 0
M  V30 20002 O 1868.99 0.749756 2.41112 0
M  V30 20003 C 1870.3 3.00562 0.0911498 0
M  V30 20004 C 1871.85 3.12588 0.160552 0
M  V30 20005 C 1872.33 4.58 -0.00312732 0
M  V30 20006 N 1873.82 4.6317 0.0524201 0
M  V30 20007 C 1874.55 5.73378 -0.0497867 0
M  V30 20008 N 1874.05 6.92495 -0.205612 0
M  V30 20009 N 1875.84 5.621 0.00740387 0
M  V30 20010 H 1867.99 1.87439 -0.999015 0
M  V30 20011 H 1870.26 0.864179 -0.389742 0
M  V30 20012 H 1869.96 3.40355 -0.886068 0
M  V30 20013 H 1869.84 3.67666 0.842723 0
M  V30 20014 H 1872.22 2.7268 1.12826 0
M  V30 20015 H 1872.3 2.48119 -0.622153 0
M  V30 20016 H 1871.95 4.98598 -0.967606 0
M  V30 20017 H 1871.88 5.20503 0.799004 0
M  V30 20018 H 1874.37 3.77512 0.171195 0
M  V30 20019 H 1874.68 7.72308 -0.275698 0
M  V30 20020 H 1873.03 6.94582 -0.240997 0
M  V30 20021 H 1876.22 4.67925 0.127856 0
M  V30 20022 H 1876.39 6.47956 -0.075703 0
M  V30 20023 N 1869.8 -0.200022 1.56326 0
M  V30 20024 C 1870.73 -1.27187 1.90673 0
M  V30 20025 C 1871.74 -1.41961 0.796933 0
M  V30 20026 O 1872.93 -1.42474 1.07533 0
M  V30 20027 C 1870.03 -2.64468 2.11919 0
M  V30 20028 C 1869.2 -2.71366 3.43044 0
M  V30 20029 C 1868.26 -3.89809 3.53462 0
M  V30 20030 O 1867.29 -3.77142 4.26325 0
M  V30 20031 N 1868.49 -5.05052 2.86187 0
M  V30 20032 H 1871.26 -0.980397 2.83211 0
M  V30 20033 H 1868.82 -0.389967 1.57133 0
M  V30 20034 H 1870.81 -3.42122 2.16182 0
M  V30 20035 H 1869.38 -2.86124 1.25904 0
M  V30 20036 H 1868.6 -1.80024 3.50692 0
M  V30 20037 H 1869.89 -2.72961 4.29383 0
M  V30 20038 H 1869.28 -5.18242 2.26808 0
M  V30 20039 H 1867.84 -5.8067 2.96083 0
M  V30 20040 N 1871.27 -1.50505 -0.467553 0
M  V30 20041 C 1872.2 -1.72558 -1.57309 0
M  V30 20042 C 1873.19 -0.574619 -1.601 0
M  V30 20043 O 1874.37 -0.814135 -1.76311 0
M  V30 20044 C 1871.5 -1.82296 -2.9561 0
M  V30 20045 C 1870.45 -2.97513 -3.07685 0
M  V30 20046 C 1869.78 -2.92398 -4.47669 0
M  V30 20047 C 1871.08 -4.37968 -2.84573 0
M  V30 20048 H 1872.77 -2.65122 -1.39107 0
M  V30 20049 H 1870.32 -1.2758 -0.667776 0
M  V30 20050 H 1872.27 -1.96308 -3.72882 0
M  V30 20051 H 1871 -0.863562 -3.14976 0
M  V30 20052 H 1869.66 -2.83157 -2.32847 0
M  V30 20053 H 1869.3 -1.94297 -4.63959 0
M  V30 20054 H 1869 -3.69749 -4.56683 0
M  V30 20055 H 1870.53 -3.08464 -5.26956 0
M  V30 20056 H 1871.94 -4.52831 -3.51593 0
M  V30 20057 H 1870.34 -5.16796 -3.05028 0
M  V30 20058 H 1871.41 -4.50093 -1.80402 0
M  V30 20059 N 1872.75 0.720973 -1.40142 0
M  V30 20060 C 1874.03 1.47356 -1.28629 0
M  V30 20061 C 1874.41 2.10873 0.0978138 0
M  V30 20062 O 1873.76 1.99717 1.1102 0
M  V30 20063 C 1873.97 2.51364 -2.4211 0
M  V30 20064 C 1875.32 3.17348 -2.82091 0
M  V30 20065 O 1876.34 2.61682 -2.41663 0
M  V30 20066 O 1875.2 4.1811 -3.51918 0
M  V30 20067 H 1872.29 0.655019 -0.504855 0
M  V30 20068 H 1874.84 0.753605 -1.52049 0
M  V30 20069 H 1873.61 2.02907 -3.34581 0
M  V30 20070 H 1873.23 3.30901 -2.20432 0
M  V30 20071 N 1874.23 1.25549 0.952634 0
M  V30 20072 C 1875.48 1.10416 1.69748 0
M  V30 20073 C 1875.81 -0.354517 1.91242 0
M  V30 20074 O 1875.06 -1.27756 1.48246 0
M  V30 20075 C 1875.36 1.80586 3.08421 0
M  V30 20076 C 1875.03 3.30504 3.06721 0
M  V30 20077 C 1873.69 3.71402 3.05965 0
M  V30 20078 C 1876.04 4.26275 2.99898 0
M  V30 20079 C 1873.37 5.06478 2.96137 0
M  V30 20080 C 1875.72 5.61378 2.91612 0
M  V30 20081 C 1874.38 6.01601 2.89192 0
M  V30 20082 H 1873.65 0.404041 0.621154 0
M  V30 20083 H 1876.3 1.55848 1.11283 0
M  V30 20084 H 1874.61 1.27592 3.70442 0
M  V30 20085 H 1876.3 1.66328 3.64878 0
M  V30 20086 H 1872.89 2.97965 3.08083 0
M  V30 20087 H 1877.08 3.95669 2.996 0
M  V30 20088 H 1872.33 5.3682 2.92633 0
M  V30 20089 H 1876.51 6.3528 2.85294 0
M  V30 20090 H 1874.13 7.06227 2.81333 0
M  V30 20091 N 1875.71 -1.15554 1.07168 0
M  V30 20092 C 1876.94 -1.90182 0.81477 0
M  V30 20093 C 1877.35 -1.77914 -0.631829 0
M  V30 20094 O 1876.71 -1.1298 -1.43324 0
M  V30 20095 C 1876.76 -3.40593 1.21155 0
M  V30 20096 O 1876.48 -3.52504 2.60139 0
M  V30 20097 C 1877.98 -4.32248 0.983675 0
M  V30 20098 H 1875.2 -0.602804 0.294735 0
M  V30 20099 H 1877.75 -1.46419 1.42764 0
M  V30 20100 H 1875.9 -3.82026 0.643041 0
M  V30 20101 H 1876.31 -4.45839 2.76275 0
M  V30 20102 H 1877.79 -5.3621 1.31084 0
M  V30 20103 H 1878.27 -4.39127 -0.0801022 0
M  V30 20104 H 1878.87 -3.96556 1.537 0
M  V30 20105 N 1877.19 -0.855519 -1.32358 0
M  V30 20106 C 1878.44 -0.455543 -1.96488 0
M  V30 20107 C 1878.75 0.99419 -1.68449 0
M  V30 20108 O 1879.96 1.49964 -2.26325 0
M  V30 20109 C 1878.41 -0.763678 -3.51704 0
M  V30 20110 C 1878.02 -2.2292 -3.88601 0
M  V30 20111 C 1879.76 -0.431467 -4.22302 0
M  V30 20112 C 1877.67 -2.48051 -5.36866 0
M  V30 20113 H 1876.6 -0.166617 -0.73536 0
M  V30 20114 H 1879.25 -1.04642 -1.50739 0
M  V30 20115 H 1877.63 -0.102224 -3.95868 0
M  V30 20116 H 1878.81 -2.93251 -3.55444 0
M  V30 20117 H 1877.12 -2.52602 -3.31031 0
M  V30 20118 H 1879.72 -0.596641 -5.31361 0
M  V30 20119 H 1880.06 0.62698 -4.11552 0
M  V30 20120 H 1880.6 -1.04885 -3.83724 0
M  V30 20121 H 1877.33 -3.52523 -5.52637 0
M  V30 20122 H 1876.85 -1.82298 -5.71426 0
M  V30 20123 H 1878.53 -2.32044 -6.03957 0
M  V30 20124 N 1878.67 1.45167 -0.61354 0
M  V30 20125 C 1879.91 2.01796 -0.110844 0
M  V30 20126 C 1880.23 1.48372 1.26534 0
M  V30 20127 O 1879.5 0.680323 1.83707 0
M  V30 20128 H 1878.08 0.746034 -0.0379861 0
M  V30 20129 H 1880.75 1.77892 -0.796279 0
M  V30 20130 H 1879.84 3.12032 -0.0651413 0
M  V30 20131 N 1880.14 0.353044 1.53595 0
M  V30 20132 C 1881.05 -0.507548 2.29044 0
M  V30 20133 C 1882.07 -1.10364 1.34521 0
M  V30 20134 O 1883.25 -1.11728 1.67567 0
M  V30 20135 C 1880.31 -1.63799 3.05566 0
M  V30 20136 C 1879.37 -1.07071 4.15733 0
M  V30 20137 C 1878.6 -2.14728 4.88597 0
M  V30 20138 O 1878.83 -3.35619 4.61211 0
M  V30 20139 O 1877.76 -1.78489 5.74826 0
M  V30 20140 H 1881.59 0.10606 3.03515 0
M  V30 20141 H 1879.17 0.117799 1.48935 0
M  V30 20142 H 1881.05 -2.2955 3.5339 0
M  V30 20143 H 1879.73 -2.23723 2.33944 0
M  V30 20144 H 1878.64 -0.37746 3.72191 0
M  V30 20145 H 1879.97 -0.516205 4.89486 0
M  V30 20146 N 1881.62 -1.57387 0.0818932 0
M  V30 20147 C 1882.58 -2.12162 -0.86718 0
M  V30 20148 C 1883.58 -1.04788 -1.21967 0
M  V30 20149 O 1884.77 -1.30733 -1.15128 0
M  V30 20150 C 1881.91 -2.63132 -2.16736 0
M  V30 20151 H 1883.1 -2.9733 -0.391788 0
M  V30 20152 H 1880.65 -1.55406 -0.166944 0
M  V30 20153 H 1881.39 -1.81446 -2.6879 0
M  V30 20154 H 1881.17 -3.41625 -1.92445 0
M  V30 20155 H 1882.66 -3.05549 -2.84657 0
M  V30 20156 N 1883.1 0.191729 -1.56429 0
M  V30 20157 C 1884.35 0.911598 -1.80821 0
M  V30 20158 C 1884.67 1.83115 -0.655667 0
M  V30 20159 O 1883.93 1.92391 0.35837 0
M  V30 20160 C 1884.23 1.75708 -3.11226 0
M  V30 20161 C 1883.89 0.988211 -4.39938 0
M  V30 20162 C 1882.56 0.775937 -4.74903 0
M  V30 20163 C 1884.91 0.447459 -5.19276 0
M  V30 20164 C 1882.24 0.0114851 -5.86699 0
M  V30 20165 C 1884.59 -0.303799 -6.3187 0
M  V30 20166 C 1883.25 -0.527059 -6.65416 0
M  V30 20167 H 1882.52 0.333577 -0.66167 0
M  V30 20168 H 1885.17 0.177758 -1.90673 0
M  V30 20169 H 1883.47 2.5597 -2.96626 0
M  V30 20170 H 1885.17 2.31674 -3.27304 0
M  V30 20171 H 1881.76 1.16368 -4.125 0
M  V30 20172 H 1885.95 0.59885 -4.92674 0
M  V30 20173 H 1881.2 -0.171429 -6.1116 0
M  V30 20174 H 1885.38 -0.730171 -6.92562 0
M  V30 20175 H 1883 -1.12131 -7.51885 0
M  V30 20176 N 1884.58 1.50751 0.459565 0
M  V30 20177 C 1885.51 1.66621 1.57385 0
M  V30 20178 C 1886.52 0.547358 1.53323 0
M  V30 20179 O 1887.71 0.820941 1.58502 0
M  V30 20180 C 1884.81 1.64524 2.96285 0
M  V30 20181 C 1883.98 2.92631 3.25093 0
M  V30 20182 C 1883.04 2.83021 4.43605 0
M  V30 20183 O 1882.07 3.56977 4.43347 0
M  V30 20184 N 1883.27 1.97358 5.45921 0
M  V30 20185 H 1886.04 2.62738 1.44184 0
M  V30 20186 H 1883.6 1.48359 0.64817 0
M  V30 20187 H 1885.59 1.55693 3.73553 0
M  V30 20188 H 1884.16 0.760945 3.03197 0
M  V30 20189 H 1883.38 3.15502 2.36331 0
M  V30 20190 H 1884.67 3.77477 3.41157 0
M  V30 20191 H 1884.07 1.36608 5.48958 0
M  V30 20192 H 1882.62 1.94422 6.22128 0
M  V30 20193 N 1886.06 -0.713531 1.40522 0
M  V30 20194 C 1887.33 -1.46672 1.29409 0
M  V30 20195 C 1887.71 -2.10922 -0.0866293 0
M  V30 20196 O 1887.06 -2.00303 -1.09959 0
M  V30 20197 C 1887.27 -2.50076 2.4344 0
M  V30 20198 C 1888.62 -3.15848 2.8377 0
M  V30 20199 O 1889.64 -2.60396 2.43048 0
M  V30 20200 O 1888.5 -4.16238 3.5413 0
M  V30 20201 H 1885.6 -0.652333 0.508322 0
M  V30 20202 H 1888.14 -0.745531 1.52446 0
M  V30 20203 H 1886.91 -2.01129 3.35653 0
M  V30 20204 H 1886.54 -3.29728 2.22183 0
M  V30 20205 N 1887.53 -1.26053 -0.945962 0
M  V30 20206 C 1888.46 -1.09687 -2.06134 0
M  V30 20207 C 1889.44 -0.00341513 -1.701 0
M  V30 20208 O 1890.63 -0.174559 -1.93414 0
M  V30 20209 C 1887.76 -0.724007 -3.3967 0
M  V30 20210 C 1886.71 -1.76866 -3.89747 0
M  V30 20211 C 1886.04 -1.25025 -5.19878 0
M  V30 20212 C 1887.34 -3.16923 -4.15159 0
M  V30 20213 H 1889.03 -2.02986 -2.20084 0
M  V30 20214 H 1886.58 -0.977346 -1.05754 0
M  V30 20215 H 1888.53 -0.596411 -4.17158 0
M  V30 20216 H 1887.26 0.244695 -3.25682 0
M  V30 20217 H 1885.92 -1.88485 -3.14435 0
M  V30 20218 H 1885.56 -0.271527 -5.02267 0
M  V30 20219 H 1885.26 -1.94853 -5.54352 0
M  V30 20220 H 1886.79 -1.13523 -5.99954 0
M  V30 20221 H 1888.2 -3.08409 -4.83277 0
M  V30 20222 H 1886.6 -3.84299 -4.60906 0
M  V30 20223 H 1887.67 -3.63337 -3.21114 0
M  V30 20224 N 1889.01 1.14984 -1.07779 0
M  V30 20225 C 1890.42 1.67453 -0.825611 0
M  V30 20226 C 1890.77 1.85168 0.648631 0
M  V30 20227 O 1889.9 1.55817 1.50167 0
M  V30 20228 C 1890.49 3.04172 -1.49214 0
M  V30 20229 C 1889.05 3.53701 -1.28736 0
M  V30 20230 C 1888.2 2.29324 -1.55903 0
M  V30 20231 H 1891.15 0.99138 -1.23925 0
M  V30 20232 H 1891.17 3.69315 -0.915779 0
M  V30 20233 H 1890.68 2.91247 -2.56509 0
M  V30 20234 H 1888.78 3.71859 -0.234821 0
M  V30 20235 H 1888.9 4.34871 -2.01056 0
M  V30 20236 H 1887.26 2.35081 -0.980257 0
M  V30 20237 H 1888.04 2.18982 -2.6439 0
M  V30 20238 N 1890.49 0.862526 1.31902 0
M  V30 20239 C 1891.42 0.270103 2.27603 0
M  V30 20240 C 1892.43 -0.562639 1.52768 0
M  V30 20241 O 1893.62 -0.385845 1.7428 0
M  V30 20242 C 1890.72 -0.636314 3.32873 0
M  V30 20243 C 1889.9 0.162327 4.37099 0
M  V30 20244 C 1888.96 -0.67107 5.21903 0
M  V30 20245 O 1887.98 -0.101765 5.69109 0
M  V30 20246 N 1889.18 -1.98441 5.45529 0
M  V30 20247 H 1891.95 1.09248 2.79079 0
M  V30 20248 H 1889.51 0.723275 1.44846 0
M  V30 20249 H 1891.5 -1.19937 3.86519 0
M  V30 20250 H 1890.07 -1.35936 2.81496 0
M  V30 20251 H 1889.29 0.906824 3.83628 0
M  V30 20252 H 1890.58 0.710602 5.03813 0
M  V30 20253 H 1889.98 -2.47017 5.0892 0
M  V30 20254 H 1888.53 -2.49542 6.0214 0
M  V30 20255 N 1891.97 -1.4484 0.62123 0
M  V30 20256 C 1893.22 -2.02133 0.121784 0
M  V30 20257 C 1893.54 -1.48784 -1.25274 0
M  V30 20258 O 1892.8 -0.658116 -1.84302 0
M  V30 20259 C 1893.1 -3.57369 0.0470922 0
M  V30 20260 C 1892.76 -4.2993 1.35908 0
M  V30 20261 C 1891.43 -4.4947 1.71843 0
M  V30 20262 C 1893.78 -4.71295 2.22554 0
M  V30 20263 C 1891.11 -5.07634 2.94151 0
M  V30 20264 C 1893.46 -5.30812 3.44124 0
M  V30 20265 C 1892.12 -5.48573 3.80294 0
M  V30 20266 H 1891.39 -0.739659 0.044564 0
M  V30 20267 H 1894.04 -1.73732 0.805571 0
M  V30 20268 H 1892.34 -3.85127 -0.720022 0
M  V30 20269 H 1894.04 -3.99419 -0.355713 0
M  V30 20270 H 1890.63 -4.15044 1.06941 0
M  V30 20271 H 1894.81 -4.5592 1.96088 0
M  V30 20272 H 1890.07 -5.19572 3.22265 0
M  V30 20273 H 1894.24 -5.61816 4.11504 0
M  V30 20274 H 1891.87 -5.93409 4.75152 0
M  V30 20275 N 1893.45 -0.361184 -1.53405 0
M  V30 20276 C 1894.69 0.230222 -2.01489 0
M  V30 20277 C 1895.03 1.48779 -1.24814 0
M  V30 20278 O 1894.3 1.91494 -0.340612 0
M  V30 20279 C 1894.58 0.526613 -3.56229 0
M  V30 20280 C 1894.44 -0.744277 -4.436 0
M  V30 20281 C 1895.76 1.32901 -4.19554 0
M  V30 20282 H 1892.87 0.0822009 -0.732402 0
M  V30 20283 H 1895.52 -0.485208 -1.837 0
M  V30 20284 H 1893.67 1.13609 -3.71517 0
M  V30 20285 H 1895.34 -1.38188 -4.40116 0
M  V30 20286 H 1893.58 -1.36555 -4.11747 0
M  V30 20287 H 1894.25 -0.491913 -5.49804 0
M  V30 20288 H 1896.73 0.813474 -4.08071 0
M  V30 20289 H 1895.6 1.50513 -5.27861 0
M  V30 20290 H 1895.87 2.33625 -3.75329 0
M  V30 20291 N 1894.92 1.57341 -0.0902386 0
M  V30 20292 C 1896.2 1.85627 0.616611 0
M  V30 20293 C 1896.58 0.986193 1.86648 0
M  V30 20294 O 1895.93 0.0573148 2.28428 0
M  V30 20295 C 1896.14 3.36196 0.936645 0
M  V30 20296 C 1897.49 4.04139 1.30219 0
M  V30 20297 O 1898.51 3.41049 1.02781 0
M  V30 20298 O 1897.37 5.1545 1.81586 0
M  V30 20299 H 1894.46 0.76748 0.308065 0
M  V30 20300 H 1897.01 1.69257 -0.122568 0
M  V30 20301 H 1895.78 3.91268 0.0497354 0
M  V30 20302 H 1895.41 3.57895 1.73197 0
M  V30 20303 N 1896.4 -0.183431 1.56529 0
M  V30 20304 C 1897.35 -1.22726 1.95466 0
M  V30 20305 C 1898.32 -1.44626 0.81686 0
M  V30 20306 O 1899.5 -1.57566 1.07599 0
M  V30 20307 C 1896.64 -2.56435 2.30944 0
M  V30 20308 C 1895.76 -2.42016 3.57844 0
M  V30 20309 C 1894.89 -3.68509 3.82589 0
M  V30 20310 C 1893.93 -3.48972 5.02877 0
M  V30 20311 N 1893.07 -4.67505 5.23817 0
M  V30 20312 H 1897.91 -0.888204 2.84456 0
M  V30 20313 H 1895.45 -0.427192 1.4076 0
M  V30 20314 H 1897.4 -3.3435 2.49532 0
M  V30 20315 H 1896.03 -2.8836 1.4508 0
M  V30 20316 H 1895.09 -1.55339 3.47237 0
M  V30 20317 H 1896.4 -2.23519 4.45915 0
M  V30 20318 H 1895.55 -4.54861 4.0148 0
M  V30 20319 H 1894.29 -3.89972 2.9287 0
M  V30 20320 H 1893.3 -2.61005 4.83897 0
M  V30 20321 H 1894.52 -3.28942 5.94116 0
M  V30 20322 H 1892.47 -4.8921 4.37047 0
M  V30 20323 H 1892.38 -4.51876 6.06089 0
M  V30 20324 H 1893.65 -5.55175 5.47176 0
M  V30 20325 N 1897.88 -1.50992 -0.451564 0
M  V30 20326 C 1899.13 -1.62192 -1.19903 0
M  V30 20327 C 1899.44 -0.337085 -1.92674 0
M  V30 20328 O 1900.65 -0.328248 -2.69508 0
M  V30 20329 C 1899.1 -2.8638 -2.17978 0
M  V30 20330 C 1898.71 -4.21814 -1.50921 0
M  V30 20331 C 1900.46 -3.06932 -2.93246 0
M  V30 20332 C 1898.36 -5.37168 -2.47396 0
M  V30 20333 H 1897.29 -0.60406 -0.451251 0
M  V30 20334 H 1899.94 -1.77445 -0.467482 0
M  V30 20335 H 1898.33 -2.64728 -2.94508 0
M  V30 20336 H 1899.5 -4.53794 -0.800466 0
M  V30 20337 H 1897.82 -4.07025 -0.878604 0
M  V30 20338 H 1900.41 -3.90286 -3.65487 0
M  V30 20339 H 1900.76 -2.19437 -3.5377 0
M  V30 20340 H 1901.29 -3.28857 -2.23826 0
M  V30 20341 H 1898.03 -6.26878 -1.91582 0
M  V30 20342 H 1897.55 -5.09581 -3.16365 0
M  V30 20343 H 1899.23 -5.68539 -3.08824 0
M  V30 20344 N 1899.36 0.706069 -1.40899 0
M  V30 20345 C 1900.77 1.01535 -1.23137 0
M  V30 20346 C 1900.97 2.01181 -0.113293 0
M  V30 20347 O 1900.03 2.46966 0.525732 0
M  V30 20348 C 1901.34 1.54998 -2.57674 0
M  V30 20349 C 1902.89 1.66935 -2.64767 0
M  V30 20350 C 1903.37 2.23802 -3.99596 0
M  V30 20351 N 1904.86 2.31176 -4.01388 0
M  V30 20352 C 1905.59 2.76181 -5.02506 0
M  V30 20353 N 1905.09 3.20868 -6.14016 0
M  V30 20354 N 1906.88 2.7565 -4.89871 0
M  V30 20355 H 1899.03 0.045751 -2.12351 0
M  V30 20356 H 1901.3 0.0828835 -0.94437 0
M  V30 20357 H 1901 0.892393 -3.4019 0
M  V30 20358 H 1900.88 2.53377 -2.79428 0
M  V30 20359 H 1903.26 2.31808 -1.82617 0
M  V30 20360 H 1903.34 0.671301 -2.46834 0
M  V30 20361 H 1902.99 1.59547 -4.8219 0
M  V30 20362 H 1902.92 3.24339 -4.14864 0
M  V30 20363 H 1905.41 1.99627 -3.2087 0
M  V30 20364 H 1905.72 3.53803 -6.87054 0
M  V30 20365 H 1904.07 3.18803 -6.17568 0
M  V30 20366 H 1907.26 2.40081 -4.01844 0
M  V30 20367 H 1907.43 3.10407 -5.68816 0
M  V30 20368 N 1900.84 1.26553 0.939264 0
M  V30 20369 C 1902.08 1.11989 1.68235 0
M  V30 20370 C 1902.41 -0.336993 1.92066 0
M  V30 20371 O 1901.68 -1.23742 1.51871 0
M  V30 20372 H 1900.26 0.41144 0.623479 0
M  V30 20373 H 1902.92 1.58909 1.12845 0
M  V30 20374 H 1902.01 1.64011 2.65531 0
M  V30 20375 N 1902.31 -1.14411 1.08387 0
M  V30 20376 C 1903.22 -2.23103 0.725418 0
M  V30 20377 C 1904.24 -1.71924 -0.26799 0
M  V30 20378 O 1905.42 -2.01088 -0.111986 0
M  V30 20379 C 1902.48 -3.46418 0.139915 0
M  V30 20380 C 1901.54 -4.12537 1.18791 0
M  V30 20381 C 1900.78 -5.29966 0.630252 0
M  V30 20382 O 1901 -5.67739 -0.550335 0
M  V30 20383 O 1899.93 -5.85862 1.38021 0
M  V30 20384 H 1903.76 -2.56116 1.63213 0
M  V30 20385 H 1901.34 -1.22338 0.857538 0
M  V30 20386 H 1903.23 -4.20999 -0.18381 0
M  V30 20387 H 1901.9 -3.15129 -0.739957 0
M  V30 20388 H 1900.81 -3.39831 1.56416 0
M  V30 20389 H 1902.14 -4.47932 2.04005 0
M  V30 20390 N 1903.79 -0.869509 -1.31443 0
M  V30 20391 C 1905.04 -0.479265 -1.96335 0
M  V30 20392 C 1905.36 0.971583 -1.69072 0
M  V30 20393 O 1904.63 1.68104 -1.00588 0
M  V30 20394 H 1903.21 -0.174241 -0.726394 0
M  V30 20395 H 1905.87 -1.1092 -1.60259 0
M  V30 20396 H 1904.97 -0.636628 -3.05538 0
M  V30 20397 N 1905.27 1.44508 -0.628902 0
M  V30 20398 C 1906.2 2.27848 0.126632 0
M  V30 20399 C 1907.18 1.38406 0.85338 0
M  V30 20400 O 1908.37 1.67845 0.857923 0
M  V30 20401 C 1905.49 3.17283 1.18529 0
M  V30 20402 C 1904.54 4.22817 0.559317 0
M  V30 20403 S 1905.37 5.31554 -0.648926 0
M  V30 20404 C 1906.53 6.24557 0.409797 0
M  V30 20405 H 1906.76 2.9158 -0.580384 0
M  V30 20406 H 1904.29 1.48662 -0.417009 0
M  V30 20407 H 1906.25 3.69362 1.79115 0
M  V30 20408 H 1904.91 2.52776 1.86449 0
M  V30 20409 H 1904.11 4.854 1.35656 0
M  V30 20410 H 1903.71 3.73989 0.0281246 0
M  V30 20411 H 1906 6.65241 1.28298 0
M  V30 20412 H 1906.94 7.0787 -0.180404 0
M  V30 20413 H 1907.35 5.59699 0.734695 0
M  V30 20414 N 1906.75 0.369315 1.53212 0
M  V30 20415 C 1908.17 0.0184115 1.59589 0
M  V30 20416 C 1908.37 -1.46424 1.38428 0
M  V30 20417 O 1907.42 -2.2263 1.1913 0
M  V30 20418 C 1908.73 0.477693 2.96881 0
M  V30 20419 C 1910.28 0.432233 3.10001 0
M  V30 20420 C 1910.76 0.867386 4.49711 0
M  V30 20421 N 1912.25 0.822594 4.55837 0
M  V30 20422 C 1912.98 1.13094 5.62136 0
M  V30 20423 N 1912.48 1.50876 6.76172 0
M  V30 20424 N 1914.27 1.0535 5.52139 0
M  V30 20425 H 1906.42 1.33479 1.65218 0
M  V30 20426 H 1908.69 0.545823 0.775101 0
M  V30 20427 H 1908.39 1.51245 3.17518 0
M  V30 20428 H 1908.27 -0.133741 3.76963 0
M  V30 20429 H 1910.65 -0.593397 2.89072 0
M  V30 20430 H 1910.73 1.07921 2.3192 0
M  V30 20431 H 1910.38 1.89115 4.71379 0
M  V30 20432 H 1910.31 0.19762 5.26229 0
M  V30 20433 H 1912.8 0.544303 3.7396 0
M  V30 20434 H 1913.11 1.72821 7.53228 0
M  V30 20435 H 1911.46 1.54745 6.77554 0
M  V30 20436 H 1914.65 0.757487 4.6193 0
M  V30 20437 H 1914.82 1.29713 6.34885 0
M  V30 20438 N 1908.23 -1.57291 0.0985816 0
M  V30 20439 C 1909.46 -1.98531 -0.57176 0
M  V30 20440 C 1909.87 -0.976619 -1.62046 0
M  V30 20441 O 1909.21 0.041533 -1.83653 0
M  V30 20442 C 1909.27 -3.36149 -1.27452 0
M  V30 20443 C 1908.93 -4.55449 -0.376176 0
M  V30 20444 C 1909.93 -5.18531 0.377078 0
M  V30 20445 C 1907.62 -5.01443 -0.293213 0
M  V30 20446 C 1909.61 -6.25978 1.20124 0
M  V30 20447 C 1907.3 -6.08757 0.534594 0
M  V30 20448 C 1908.3 -6.7089 1.28047 0
M  V30 20449 O 1907.98 -7.76133 2.09457 0
M  V30 20450 H 1907.72 -0.657356 -0.15767 0
M  V30 20451 H 1910.27 -2.04648 0.175593 0
M  V30 20452 H 1908.5 -3.26725 -2.06852 0
M  V30 20453 H 1910.19 -3.61813 -1.83974 0
M  V30 20454 H 1910.95 -4.83925 0.322736 0
M  V30 20455 H 1906.83 -4.52842 -0.863429 0
M  V30 20456 H 1910.38 -6.74405 1.7839 0
M  V30 20457 H 1906.27 -6.42794 0.590404 0
M  V30 20458 H 1907.04 -7.93137 2.02177 0
M  V30 20459 N 1909.71 0.175127 -1.56624 0
M  V30 20460 C 1910.95 0.890653 -1.8097 0
M  V30 20461 C 1911.27 1.83577 -0.675199 0
M  V30 20462 O 1912.47 2.59338 -0.803492 0
M  V30 20463 C 1910.93 1.63427 -3.20655 0
M  V30 20464 C 1910.54 0.732982 -4.41963 0
M  V30 20465 C 1912.28 2.33825 -3.54297 0
M  V30 20466 C 1910.19 1.47661 -5.72669 0
M  V30 20467 H 1909.12 0.336324 -0.674835 0
M  V30 20468 H 1911.77 0.143627 -1.82937 0
M  V30 20469 H 1910.15 2.42591 -3.12994 0
M  V30 20470 H 1911.33 -0.0214223 -4.60795 0
M  V30 20471 H 1909.64 0.138848 -4.16168 0
M  V30 20472 H 1912.24 2.90048 -4.49195 0
M  V30 20473 H 1912.58 3.08979 -2.78994 0
M  V30 20474 H 1913.11 1.61608 -3.63494 0
M  V30 20475 H 1909.85 0.767472 -6.50992 0
M  V30 20476 H 1909.37 2.20444 -5.57821 0
M  V30 20477 H 1911.05 2.02512 -6.1449 0
M  V30 20478 N 1911.18 1.5123 0.44355 0
M  V30 20479 C 1912.43 1.62825 1.19041 0
M  V30 20480 C 1912.75 0.347298 1.92492 0
M  V30 20481 O 1913.95 0.342537 2.69331 0
M  V30 20482 C 1912.41 2.87532 2.16456 0
M  V30 20483 C 1912.02 4.22608 1.48682 0
M  V30 20484 C 1913.76 3.08483 2.91614 0
M  V30 20485 C 1911.67 5.38472 2.44544 0
M  V30 20486 H 1910.6 0.606444 0.448041 0
M  V30 20487 H 1913.25 1.77691 0.458065 0
M  V30 20488 H 1911.63 2.66287 2.931 0
M  V30 20489 H 1912.8 4.54212 0.776389 0
M  V30 20490 H 1911.12 4.07485 0.857007 0
M  V30 20491 H 1913.72 3.92219 3.63413 0
M  V30 20492 H 1914.06 2.2131 3.52601 0
M  V30 20493 H 1914.59 3.30039 2.22078 0
M  V30 20494 H 1911.33 6.27886 1.88255 0
M  V30 20495 H 1910.85 5.11252 3.13658 0
M  V30 20496 H 1912.53 5.70169 3.05804 0
M  V30 20497 N 1912.66 -0.698586 1.41271 0
M  V30 20498 C 1913.91 -1.45425 1.39766 0
M  V30 20499 C 1914.22 -1.95598 0.00891528 0
M  V30 20500 O 1915.43 -2.71195 -0.128757 0
M  V30 20501 C 1913.89 -2.62952 2.45732 0
M  V30 20502 C 1913.49 -2.19578 3.90499 0
M  V30 20503 C 1915.24 -3.40602 2.53359 0
M  V30 20504 C 1913.14 -3.34046 4.88024 0
M  V30 20505 H 1912.07 -0.546236 0.519752 0
M  V30 20506 H 1914.73 -0.758678 1.67082 0
M  V30 20507 H 1913.11 -3.34762 2.11542 0
M  V30 20508 H 1914.28 -1.55077 4.33921 0
M  V30 20509 H 1912.6 -1.5493 3.86504 0
M  V30 20510 H 1915.19 -4.25809 3.23405 0
M  V30 20511 H 1915.54 -3.85582 1.56946 0
M  V30 20512 H 1916.07 -2.75846 2.86625 0
M  V30 20513 H 1912.81 -2.94081 5.8583 0
M  V30 20514 H 1912.33 -3.97407 4.49253 0
M  V30 20515 H 1914.01 -3.99867 5.0864 0
M  V30 20516 N 1914.14 -1.27049 -0.93254 0
M  V30 20517 C 1915.07 -1.11867 -2.04959 0
M  V30 20518 C 1916.05 -0.0214563 -1.70086 0
M  V30 20519 O 1917.24 -0.195063 -1.93218 0
M  V30 20520 C 1914.37 -0.759993 -3.38883 0
M  V30 20521 C 1913.32 -1.8099 -3.87849 0
M  V30 20522 C 1912.65 -1.30532 -5.18522 0
M  V30 20523 C 1913.95 -3.21309 -4.11774 0
M  V30 20524 H 1915.64 -2.05309 -2.17918 0
M  V30 20525 H 1913.19 -0.988507 -1.04712 0
M  V30 20526 H 1915.14 -0.640623 -4.16502 0
M  V30 20527 H 1913.86 0.210139 -3.25923 0
M  V30 20528 H 1912.52 -1.91809 -3.12418 0
M  V30 20529 H 1912.17 -0.324784 -5.0195 0
M  V30 20530 H 1911.87 -2.00722 -5.52254 0
M  V30 20531 H 1913.39 -1.19879 -5.98716 0
M  V30 20532 H 1914.81 -3.13517 -4.79979 0
M  V30 20533 H 1913.2 -3.89166 -4.56804 0
M  V30 20534 H 1914.27 -3.66722 -3.17243 0
M  V30 20535 N 1915.62 1.13835 -1.08993 0
M  V30 20536 C 1916.89 1.81232 -0.735809 0
M  V30 20537 C 1917.27 1.96172 0.779737 0
M  V30 20538 O 1916.62 1.52629 1.70049 0
M  V30 20539 C 1916.83 3.16546 -1.46968 0
M  V30 20540 C 1918.18 3.91958 -1.6326 0
M  V30 20541 O 1919.2 3.26155 -1.43183 0
M  V30 20542 O 1918.06 5.09976 -1.96435 0
M  V30 20543 H 1915.16 0.783794 -0.26381 0
M  V30 20544 H 1917.7 1.20801 -1.19186 0
M  V30 20545 H 1916.48 3.00872 -2.50183 0
M  V30 20546 H 1916.1 3.84676 -1.00551 0
M  V30 20547 N 1917.1 0.876467 1.3098 0
M  V30 20548 C 1918.51 0.542323 1.7865 0
M  V30 20549 C 1918.86 -0.941103 1.72156 0
M  V30 20550 O 1917.98 -1.73506 1.29324 0
M  V30 20551 C 1918.58 0.977656 3.24388 0
M  V30 20552 C 1917.14 0.695064 3.69927 0
M  V30 20553 C 1916.28 1.16537 2.51624 0
M  V30 20554 H 1919.23 1.06154 1.1797 0
M  V30 20555 H 1919.26 0.30304 3.79291 0
M  V30 20556 H 1918.77 2.05735 3.29082 0
M  V30 20557 H 1916.87 -0.372992 3.70728 0
M  V30 20558 H 1916.98 1.27665 4.61778 0
M  V30 20559 H 1915.35 0.584941 2.47892 0
M  V30 20560 H 1916.13 2.25262 2.5906 0
M  V30 20561 N 1918.57 -1.44173 0.636557 0
M  V30 20562 C 1919.54 -2.29133 -0.0554994 0
M  V30 20563 C 1920.54 -1.41329 -0.766986 0
M  V30 20564 O 1921.73 -1.63142 -0.610753 0
M  V30 20565 C 1918.86 -3.23031 -1.08922 0
M  V30 20566 H 1920.05 -2.91811 0.691829 0
M  V30 20567 H 1917.6 -1.51175 0.396956 0
M  V30 20568 H 1918.34 -2.65213 -1.86635 0
M  V30 20569 H 1918.12 -3.87743 -0.58291 0
M  V30 20570 H 1919.61 -3.8684 -1.57304 0
M  V30 20571 N 1920.05 -0.377435 -1.53014 0
M  V30 20572 C 1921.3 0.209712 -2.00607 0
M  V30 20573 C 1921.61 1.48891 -1.2685 0
M  V30 20574 O 1922.82 2.15538 -1.65093 0
M  V30 20575 C 1921.28 0.424271 -3.5739 0
M  V30 20576 C 1920.88 -0.840982 -4.40036 0
M  V30 20577 C 1922.63 0.968428 -4.13306 0
M  V30 20578 C 1920.53 -0.595355 -5.88396 0
M  V30 20579 H 1919.46 0.0821436 -0.749512 0
M  V30 20580 H 1922.12 -0.498005 -1.76613 0
M  V30 20581 H 1920.5 1.19354 -3.77585 0
M  V30 20582 H 1921.67 -1.61396 -4.31611 0
M  V30 20583 H 1919.99 -1.30922 -3.95283 0
M  V30 20584 H 1922.58 1.16771 -5.21794 0
M  V30 20585 H 1922.93 1.93405 -3.68647 0
M  V30 20586 H 1923.46 0.259025 -3.96956 0
M  V30 20587 H 1920.2 -1.53164 -6.37355 0
M  V30 20588 H 1919.72 0.138904 -5.99639 0
M  V30 20589 H 1921.4 -0.225366 -6.46607 0
M  V30 20590 N 1921.53 1.57237 -0.106922 0
M  V30 20591 C 1922.76 1.99545 0.565392 0
M  V30 20592 C 1923.18 0.985887 1.60193 0
M  V30 20593 O 1922.54 -0.0440657 1.81246 0
M  V30 20594 C 1922.59 3.40779 1.17908 0
M  V30 20595 O 1921.69 3.42656 2.29479 0
M  V30 20596 H 1921.03 0.648556 0.142379 0
M  V30 20597 H 1923.56 2.03699 -0.191829 0
M  V30 20598 H 1923.57 3.78728 1.51754 0
M  V30 20599 H 1922.25 4.13776 0.419776 0
M  V30 20600 H 1920.82 3.16514 1.97164 0
M  V30 20601 N 1923.01 -0.166818 1.56715 0
M  V30 20602 C 1924.26 -0.880972 1.81888 0
M  V30 20603 C 1924.58 -1.82586 0.68465 0
M  V30 20604 O 1923.85 -1.93663 -0.295173 0
M  V30 20605 H 1922.43 -0.32831 0.670985 0
M  V30 20606 H 1925.09 -0.165558 1.94196 0
M  V30 20607 H 1924.19 -1.45517 2.761 0
M  V30 20608 N 1924.49 -1.51463 -0.435524 0
M  V30 20609 C 1925.43 -1.73484 -1.54939 0
M  V30 20610 C 1926.43 -0.601197 -1.58373 0
M  V30 20611 O 1927.63 -0.782622 -1.62096 0
M  V30 20612 H 1924.01 -0.54818 -0.514784 0
M  V30 20613 H 1925.98 -2.66851 -1.3354 0
M  V30 20614 C 1924.73 -1.87866 -2.92578 0
M  V30 20615 H 1924.05 -2.74503 -2.90668 0
M  V30 20616 H 1925.49 -2.07285 -3.69877 0
M  V30 20617 C 1923.95 -0.638928 -3.30786 0
M  V30 20618 O 1924.48 0.205561 -4.01174 0
M  V30 20619 N 1922.69 -0.48249 -2.86567 0
M  V30 20620 H 1922.23 -1.17078 -2.29457 0
M  V30 20621 H 1922.19 0.345753 -3.12493 0
M  V30 20622 N 1925.96 0.691085 -1.4164 0
M  V30 20623 C 1926.87 1.83467 -1.46209 0
M  V30 20624 C 1927.89 1.70397 -0.352267 0
M  V30 20625 O 1929.07 1.92234 -0.60068 0
M  V30 20626 C 1926.13 3.19485 -1.34648 0
M  V30 20627 C 1925.19 3.44631 -2.55984 0
M  V30 20628 C 1924.43 4.7416 -2.44964 0
M  V30 20629 O 1924.65 5.50955 -1.47664 0
M  V30 20630 O 1923.58 5.0019 -3.34804 0
M  V30 20631 H 1927.41 1.82568 -2.42698 0
M  V30 20632 H 1924.99 0.844729 -1.23226 0
M  V30 20633 H 1926.88 4.00684 -1.30501 0
M  V30 20634 H 1925.55 3.21058 -0.41276 0
M  V30 20635 H 1924.46 2.63345 -2.65707 0
M  V30 20636 H 1925.79 3.47877 -3.48199 0
M  V30 20637 N 1927.44 1.27542 0.925789 0
M  V30 20638 C 1928.67 1.1681 1.70772 0
M  V30 20639 C 1929.09 -0.274824 1.86789 0
M  V30 20640 O 1928.44 -1.18694 1.38629 0
M  V30 20641 C 1928.49 1.84904 3.10633 0
M  V30 20642 O 1928.21 3.23559 2.95366 0
M  V30 20643 C 1929.72 1.80322 4.04968 0
M  V30 20644 H 1926.94 0.406036 0.534206 0
M  V30 20645 H 1929.48 1.68448 1.15955 0
M  V30 20646 H 1927.63 1.37166 3.62304 0
M  V30 20647 H 1928.05 3.57488 3.838 0
M  V30 20648 H 1929.52 2.32577 5.00611 0
M  V30 20649 H 1930 0.772975 4.32344 0
M  V30 20650 H 1930.61 2.27683 3.59222 0
M  V30 20651 N 1928.92 -1.13255 1.09595 0
M  V30 20652 C 1929.87 -2.1872 0.736907 0
M  V30 20653 C 1930.84 -1.63677 -0.282692 0
M  V30 20654 O 1932.02 -1.90094 -0.163936 0
M  V30 20655 C 1929.16 -3.44703 0.165494 0
M  V30 20656 C 1928.28 -4.13841 1.23934 0
M  V30 20657 C 1927.41 -5.27445 0.630499 0
M  V30 20658 C 1926.45 -5.88435 1.68554 0
M  V30 20659 N 1925.59 -6.93468 1.09759 0
M  V30 20660 H 1930.43 -2.48779 1.64052 0
M  V30 20661 H 1927.96 -1.22152 0.819597 0
M  V30 20662 H 1929.92 -4.16796 -0.183618 0
M  V30 20663 H 1928.55 -3.15088 -0.701377 0
M  V30 20664 H 1927.6 -3.40014 1.70571 0
M  V30 20665 H 1928.92 -4.5525 2.03834 0
M  V30 20666 H 1928.07 -6.06263 0.230332 0
M  V30 20667 H 1926.81 -4.8729 -0.200028 0
M  V30 20668 H 1925.81 -5.08311 2.09523 0
M  V30 20669 H 1927.04 -6.30663 2.51876 0
M  V30 20670 H 1924.98 -6.55366 0.288376 0
M  V30 20671 H 1924.9 -7.33429 1.83353 0
M  V30 20672 H 1926.17 -7.76133 0.723688 0
M  V30 20673 N 1930.4 -0.883401 -1.30514 0
M  V30 20674 C 1931.63 -0.515948 -2.00364 0
M  V30 20675 C 1932.04 0.895148 -1.6623 0
M  V30 20676 O 1931.4 1.58844 -0.898601 0
M  V30 20677 C 1931.45 -0.679282 -3.55061 0
M  V30 20678 O 1931.17 -2.03482 -3.87978 0
M  V30 20679 C 1932.67 -0.314612 -4.42182 0
M  V30 20680 H 1929.89 -0.199595 -0.640627 0
M  V30 20681 H 1932.44 -1.18827 -1.66435 0
M  V30 20682 H 1930.59 -0.0543511 -3.87362 0
M  V30 20683 H 1931 -2.0523 -4.82681 0
M  V30 20684 H 1932.48 -0.4798 -5.49911 0
M  V30 20685 H 1932.96 0.747247 -4.32797 0
M  V30 20686 H 1933.56 -0.9158 -4.15323 0
M  V30 20687 N 1931.88 1.43833 -0.644194 0
M  V30 20688 C 1933.11 2.0597 -0.161163 0
M  V30 20689 C 1933.51 1.48309 1.17478 0
M  V30 20690 O 1932.86 0.60548 1.73435 0
M  V30 20691 C 1932.92 3.59497 0.014069 0
M  V30 20692 C 1932.58 4.39693 -1.24575 0
M  V30 20693 C 1933.58 4.72336 -2.17244 0
M  V30 20694 C 1931.27 4.79853 -1.48481 0
M  V30 20695 C 1933.26 5.44036 -3.3212 0
M  V30 20696 C 1930.95 5.51299 -2.63652 0
M  V30 20697 C 1931.94 5.83312 -3.55297 0
M  V30 20698 O 1931.63 6.53301 -4.68458 0
M  V30 20699 H 1931.36 0.670886 -0.0829965 0
M  V30 20700 H 1933.92 1.85477 -0.882467 0
M  V30 20701 H 1932.15 3.78531 0.790652 0
M  V30 20702 H 1933.84 4.03361 0.453309 0
M  V30 20703 H 1934.6 4.41836 -2.00014 0
M  V30 20704 H 1930.48 4.54348 -0.780324 0
M  V30 20705 H 1934.03 5.6894 -4.03674 0
M  V30 20706 H 1929.92 5.81214 -2.80821 0
M  V30 20707 H 1930.69 6.71778 -4.67607 0
M  V30 20708 N 1933.35 0.385544 1.52811 0
M  V30 20709 C 1934.77 -0.0893152 1.86486 0
M  V30 20710 C 1935.12 -1.46473 1.30538 0
M  V30 20711 O 1934.24 -2.06866 0.635244 0
M  V30 20712 C 1934.84 -0.168846 3.38379 0
M  V30 20713 C 1933.4 -0.587992 3.71779 0
M  V30 20714 C 1932.54 0.252389 2.76149 0
M  V30 20715 H 1935.49 0.603569 1.46774 0
M  V30 20716 H 1935.51 -0.988694 3.6743 0
M  V30 20717 H 1935.03 0.832334 3.7907 0
M  V30 20718 H 1933.13 -1.59668 3.36656 0
M  V30 20719 H 1933.24 -0.34875 4.77829 0
M  V30 20720 H 1931.6 -0.281775 2.53137 0
M  V30 20721 H 1932.39 1.25148 3.19676 0
M  V30 20722 N 1934.83 -1.57178 0.115259 0
M  V30 20723 C 1935.8 -2.13953 -0.821982 0
M  V30 20724 C 1936.8 -1.07352 -1.19717 0
M  V30 20725 O 1937.99 -1.33146 -1.12329 0
M  V30 20726 C 1935.12 -2.6767 -2.11106 0
M  V30 20727 H 1936.31 -2.98094 -0.328631 0
M  V30 20728 H 1933.86 -1.55725 -0.133942 0
M  V30 20729 H 1934.6 -1.87106 -2.6488 0
M  V30 20730 H 1934.38 -3.4563 -1.85155 0
M  V30 20731 H 1935.87 -3.11519 -2.78111 0
M  V30 20732 N 1936.31 0.158505 -1.56801 0
M  V30 20733 C 1937.56 0.873038 -1.82714 0
M  V30 20734 C 1937.89 1.81683 -0.694361 0
M  V30 20735 O 1937.14 1.93108 0.31748 0
M  V30 20736 C 1937.44 1.69067 -3.14883 0
M  V30 20737 C 1937.11 0.894671 -4.41935 0
M  V30 20738 C 1935.77 0.675029 -4.76442 0
M  V30 20739 C 1938.12 0.337213 -5.20108 0
M  V30 20740 C 1935.45 -0.112965 -5.86591 0
M  V30 20741 C 1937.8 -0.43776 -6.31084 0
M  V30 20742 C 1936.46 -0.668085 -6.64148 0
M  V30 20743 H 1935.73 0.319467 -0.668597 0
M  V30 20744 H 1938.38 0.137273 -1.91007 0
M  V30 20745 H 1936.69 2.4962 -3.01988 0
M  V30 20746 H 1938.38 2.24679 -3.32145 0
M  V30 20747 H 1934.97 1.07592 -4.14876 0
M  V30 20748 H 1939.16 0.494212 -4.93833 0
M  V30 20749 H 1934.41 -0.301026 -6.10658 0
M  V30 20750 H 1938.59 -0.876909 -6.90857 0
M  V30 20751 H 1936.21 -1.28055 -7.49337 0
M  V30 20752 N 1937.79 1.51692 0.427485 0
M  V30 20753 C 1938.7 1.76576 1.5446 0
M  V30 20754 C 1939.72 0.650421 1.61386 0
M  V30 20755 O 1940.89 0.933787 1.78444 0
M  V30 20756 C 1937.96 1.89451 2.90361 0
M  V30 20757 C 1937.02 3.13326 2.93471 0
M  V30 20758 C 1936.25 3.25577 4.22889 0
M  V30 20759 O 1936.47 2.43528 5.15801 0
M  V30 20760 O 1935.41 4.18618 4.32484 0
M  V30 20761 H 1939.23 2.7136 1.36373 0
M  V30 20762 H 1936.82 1.36312 0.611496 0
M  V30 20763 H 1938.7 1.99848 3.70997 0
M  V30 20764 H 1937.38 0.978556 3.08555 0
M  V30 20765 H 1936.28 3.08401 2.11754 0
M  V30 20766 H 1937.62 4.04643 2.80223 0
M  V30 20767 N 1939.27 -0.683564 1.42004 0
M  V30 20768 C 1940.68 -0.99563 1.24737 0
M  V30 20769 C 1940.88 -2.00976 0.145285 0
M  V30 20770 O 1939.94 -2.47771 -0.486376 0
M  V30 20771 C 1941.25 -1.50879 2.60108 0
M  V30 20772 C 1942.8 -1.62701 2.6739 0
M  V30 20773 C 1943.28 -2.17416 4.03106 0
M  V30 20774 N 1944.77 -2.24761 4.05015 0
M  V30 20775 C 1945.5 -2.68151 5.06836 0
M  V30 20776 N 1945 -3.11059 6.19043 0
M  V30 20777 N 1946.79 -2.67822 4.94194 0
M  V30 20778 H 1938.94 -0.011962 2.12397 0
M  V30 20779 H 1941.2 -0.0678489 0.945569 0
M  V30 20780 H 1940.91 -0.838159 3.41567 0
M  V30 20781 H 1940.78 -2.48899 2.83424 0
M  V30 20782 H 1943.17 -2.28873 1.86282 0
M  V30 20783 H 1943.25 -0.631947 2.47871 0
M  V30 20784 H 1942.9 -1.51856 4.84667 0
M  V30 20785 H 1942.83 -3.17698 4.19971 0
M  V30 20786 H 1945.32 -1.94497 3.24005 0
M  V30 20787 H 1945.63 -3.42828 6.92596 0
M  V30 20788 H 1943.98 -3.08937 6.22561 0
M  V30 20789 H 1947.17 -2.33658 4.05613 0
M  V30 20790 H 1947.34 -3.01318 5.73682 0
M  V30 20791 N 1940.75 -1.28031 -0.919012 0
M  V30 20792 C 1941.99 -1.14651 -1.66432 0
M  V30 20793 C 1942.31 0.306395 -1.92578 0
M  V30 20794 O 1941.58 1.2131 -1.5382 0
M  V30 20795 H 1940.16 -0.421307 -0.616854 0
M  V30 20796 H 1942.83 -1.60684 -1.10302 0
M  V30 20797 H 1941.92 -1.68214 -2.62888 0
M  V30 20798 N 1942.22 1.12672 -1.10194 0
M  V30 20799 C 1943.16 2.18045 -0.706344 0
M  V30 20800 C 1944.17 1.60779 0.25571 0
M  V30 20801 O 1945.36 1.78454 0.0405568 0
M  V30 20802 C 1942.46 3.38893 -0.021273 0
M  V30 20803 C 1941.63 4.25654 -1.00687 0
M  V30 20804 C 1940.69 5.2501 -0.353745 0
M  V30 20805 O 1939.72 5.60279 -1.00378 0
M  V30 20806 N 1940.92 5.73655 0.888851 0
M  V30 20807 H 1943.68 2.52596 -1.61293 0
M  V30 20808 H 1941.24 1.28071 -0.990431 0
M  V30 20809 H 1943.24 4.0244 0.427064 0
M  V30 20810 H 1941.81 3.02513 0.787681 0
M  V30 20811 H 1941.03 3.5876 -1.63354 0
M  V30 20812 H 1942.31 4.8047 -1.67411 0
M  V30 20813 H 1941.71 5.4716 1.43638 0
M  V30 20814 H 1940.27 6.39101 1.28038 0
M  V30 20815 N 1943.7 0.89031 1.30043 0
M  V30 20816 C 1944.63 0.31832 2.26979 0
M  V30 20817 C 1945.65 -0.530108 1.53928 0
M  V30 20818 O 1946.84 -0.348791 1.75059 0
M  V30 20819 C 1943.94 -0.565563 3.34148 0
M  V30 20820 C 1943.11 0.255006 4.36656 0
M  V30 20821 C 1942.17 -0.560216 5.23209 0
M  V30 20822 O 1941.19 0.0189739 5.69197 0
M  V30 20823 N 1942.4 -1.86825 5.49615 0
M  V30 20824 H 1945.16 1.15143 2.76699 0
M  V30 20825 H 1942.72 0.753836 1.43279 0
M  V30 20826 H 1944.71 -1.11711 3.88976 0
M  V30 20827 H 1943.28 -1.29935 2.84316 0
M  V30 20828 H 1942.5 0.987993 3.81618 0
M  V30 20829 H 1943.79 0.817308 5.02193 0
M  V30 20830 H 1943.19 -2.36167 5.14045 0
M  V30 20831 H 1941.75 -2.36713 6.07297 0
M  V30 20832 N 1945.18 -1.43489 0.651812 0
M  V30 20833 C 1946.13 -2.32541 -0.0525869 0
M  V30 20834 C 1947.12 -1.48532 -0.81454 0
M  V30 20835 O 1948.33 -1.64749 -0.7251 0
M  V30 20836 H 1944.7 -0.751148 -0.0357894 0
M  V30 20837 H 1946.67 -2.89677 0.716229 0
M  V30 20838 C 1945.42 -3.3282 -1.00628 0
M  V30 20839 H 1944.75 -3.97487 -0.429396 0
M  V30 20840 H 1946.19 -3.97767 -1.46826 0
M  V30 20841 C 1944.64 -2.63313 -2.10162 0
M  V30 20842 O 1945.17 -2.44759 -3.18522 0
M  V30 20843 N 1943.38 -2.2271 -1.86678 0
M  V30 20844 H 1942.93 -2.38 -0.985581 0
M  V30 20845 H 1942.89 -1.76533 -2.60161 0
M  V30 20846 N 1946.66 -0.393643 -1.52605 0
M  V30 20847 C 1947.93 0.244939 -1.9406 0
M  V30 20848 C 1948.31 1.63981 -1.32942 0
M  V30 20849 O 1947.66 2.2298 -0.499195 0
M  V30 20850 C 1947.87 0.266912 -3.47978 0
M  V30 20851 C 1949.22 0.493768 -4.21719 0
M  V30 20852 O 1950.24 0.346936 -3.54506 0
M  V30 20853 O 1949.1 0.78183 -5.40879 0
M  V30 20854 H 1946.2 0.153387 -0.812651 0
M  V30 20855 H 1948.74 -0.448465 -1.63667 0
M  V30 20856 H 1947.52 -0.709958 -3.84806 0
M  V30 20857 H 1947.14 1.00506 -3.84687 0
M  V30 20858 N 1948.14 1.57115 -0.123593 0
M  V30 20859 C 1949.38 1.95641 0.534082 0
M  V30 20860 C 1949.71 1.00726 1.66036 0
M  V30 20861 O 1948.99 0.045312 1.94447 0
M  V30 20862 C 1949.27 3.4407 1.06244 0
M  V30 20863 C 1949.13 4.49759 -0.0607321 0
M  V30 20864 C 1950.44 3.94451 1.95183 0
M  V30 20865 H 1947.56 0.71137 0.19267 0
M  V30 20866 H 1950.21 1.88944 -0.200083 0
M  V30 20867 H 1948.36 3.49909 1.68808 0
M  V30 20868 H 1950.03 4.56016 -0.69621 0
M  V30 20869 H 1948.27 4.27729 -0.723232 0
M  V30 20870 H 1948.94 5.50888 0.350271 0
M  V30 20871 H 1951.42 3.90945 1.42483 0
M  V30 20872 H 1950.29 4.98817 2.29069 0
M  V30 20873 H 1950.55 3.35417 2.88007 0
M  V30 20874 N 1949.61 -0.150187 1.56883 0
M  V30 20875 C 1950.86 -0.863336 1.83174 0
M  V30 20876 C 1951.19 -1.81313 0.703986 0
M  V30 20877 O 1950.44 -1.93273 -0.307235 0
M  V30 20878 C 1950.74 -1.67394 3.15775 0
M  V30 20879 C 1950.41 -0.871221 4.42403 0
M  V30 20880 C 1949.07 -0.649752 4.76793 0
M  V30 20881 C 1951.42 -0.309625 5.2028 0
M  V30 20882 C 1948.75 0.144072 5.86523 0
M  V30 20883 C 1951.1 0.471222 6.30843 0
M  V30 20884 C 1949.77 0.703297 6.63785 0
M  V30 20885 H 1949.04 -0.315917 0.670282 0
M  V30 20886 H 1951.68 -0.127141 1.91077 0
M  V30 20887 H 1949.99 -2.48015 3.03308 0
M  V30 20888 H 1951.69 -2.22915 3.33332 0
M  V30 20889 H 1948.28 -1.0539 4.15441 0
M  V30 20890 H 1952.46 -0.468015 4.94088 0
M  V30 20891 H 1947.72 0.333407 6.1049 0
M  V30 20892 H 1951.89 0.913535 6.90382 0
M  V30 20893 H 1949.52 1.32027 7.48647 0
M  V30 20894 N 1951.09 -1.51916 -0.419434 0
M  V30 20895 C 1952.34 -1.65714 -1.16905 0
M  V30 20896 C 1952.67 -0.380888 -1.90428 0
M  V30 20897 O 1951.95 0.620297 -1.84344 0
M  V30 20898 C 1952.23 -2.87239 -2.17177 0
M  V30 20899 C 1952.08 -4.24887 -1.47619 0
M  V30 20900 C 1953.4 -3.04281 -3.17964 0
M  V30 20901 H 1950.52 -0.603072 -0.423643 0
M  V30 20902 H 1953.16 -1.84446 -0.456035 0
M  V30 20903 H 1951.31 -2.71398 -2.77984 0
M  V30 20904 H 1952.98 -4.52433 -0.900112 0
M  V30 20905 H 1951.23 -4.26761 -0.778273 0
M  V30 20906 H 1951.9 -5.05945 -2.20733 0
M  V30 20907 H 1954.37 -3.18951 -2.67226 0
M  V30 20908 H 1953.25 -3.90843 -3.85399 0
M  V30 20909 H 1953.51 -2.17138 -3.85102 0
M  V30 20910 N 1952.57 0.676023 -1.42365 0
M  V30 20911 C 1953.52 1.78959 -1.45747 0
M  V30 20912 C 1954.49 1.6319 -0.309563 0
M  V30 20913 O 1955.67 1.83761 -0.51346 0
M  V30 20914 C 1952.81 3.16982 -1.36441 0
M  V30 20915 C 1951.93 3.44047 -2.61257 0
M  V30 20916 C 1951.06 4.71791 -2.44103 0
M  V30 20917 C 1950.1 4.91887 -3.64299 0
M  V30 20918 N 1949.24 6.10871 -3.46094 0
M  V30 20919 H 1954.08 1.75403 -2.4091 0
M  V30 20920 H 1951.61 0.856293 -1.19608 0
M  V30 20921 H 1953.57 3.96741 -1.29044 0
M  V30 20922 H 1952.2 3.19666 -0.448744 0
M  V30 20923 H 1951.25 2.58551 -2.79026 0
M  V30 20924 H 1952.57 3.5479 -3.50607 0
M  V30 20925 H 1951.72 5.59639 -2.34285 0
M  V30 20926 H 1950.46 4.63329 -1.52241 0
M  V30 20927 H 1949.46 4.02482 -3.74551 0
M  V30 20928 H 1950.69 5.02195 -4.5714 0
M  V30 20929 H 1948.63 6.03584 -2.56949 0
M  V30 20930 H 1948.55 6.2247 -4.29031 0
M  V30 20931 H 1949.82 7.014 -3.40085 0
M  V30 20932 N 1954.05 1.28517 0.912209 0
M  V30 20933 C 1955.29 1.16942 1.66422 0
M  V30 20934 C 1955.65 -0.278909 1.90368 0
M  V30 20935 O 1954.94 -1.19951 1.49407 0
M  V30 20936 C 1955.14 1.90307 3.02519 0
M  V30 20937 C 1954.97 3.42126 2.91856 0
M  V30 20938 C 1953.74 4.11466 2.93298 0
M  V30 20939 C 1955.93 4.37841 2.69814 0
M  V30 20940 N 1953.92 5.49739 2.73239 0
M  V30 20941 C 1955.29 5.63488 2.58613 0
M  V30 20942 C 1957.34 4.2775 2.54822 0
M  V30 20943 C 1956.04 6.80191 2.3395 0
M  V30 20944 C 1958.07 5.44191 2.31539 0
M  V30 20945 C 1957.43 6.68803 2.21094 0
M  V30 20946 H 1953.53 0.482863 0.615116 0
M  V30 20947 H 1956.12 1.62187 1.0772 0
M  V30 20948 H 1954.29 1.47494 3.59305 0
M  V30 20949 H 1956.02 1.71104 3.6675 0
M  V30 20950 H 1952.77 3.6306 3.04112 0
M  V30 20951 H 1953.2 6.22426 2.66298 0
M  V30 20952 H 1957.84 3.32115 2.61648 0
M  V30 20953 H 1955.56 7.75894 2.25863 0
M  V30 20954 H 1959.14 5.38273 2.20802 0
M  V30 20955 H 1958.02 7.57383 2.03324 0
M  V30 20956 N 1955.53 -1.12086 1.1079 0
M  V30 20957 C 1956.94 -1.65205 0.869718 0
M  V30 20958 C 1957.29 -1.86823 -0.599309 0
M  V30 20959 O 1956.41 -1.59743 -1.45983 0
M  V30 20960 C 1957.01 -3.00109 1.57226 0
M  V30 20961 C 1955.57 -3.50163 1.38068 0
M  V30 20962 C 1954.71 -2.2511 1.61928 0
M  V30 20963 H 1957.67 -0.958175 1.2651 0
M  V30 20964 H 1957.69 -3.66757 1.01337 0
M  V30 20965 H 1957.2 -2.84344 2.64141 0
M  V30 20966 H 1955.3 -3.71106 0.33333 0
M  V30 20967 H 1955.41 -4.29388 2.12515 0
M  V30 20968 H 1953.78 -2.32399 1.04224 0
M  V30 20969 H 1954.56 -2.11895 2.70103 0
M  V30 20970 N 1957 -0.897194 -1.29569 0
M  V30 20971 C 1957.95 -0.362849 -2.29752 0
M  V30 20972 C 1958.95 0.536674 -1.60674 0
M  V30 20973 O 1960.15 0.419753 -1.75037 0
M  V30 20974 H 1956.53 -0.0987052 -0.745494 0
M  V30 20975 H 1958.5 -1.22122 -2.72266 0
M  V30 20976 C 1957.25 0.396775 -3.45429 0
M  V30 20977 H 1956.57 -0.286159 -3.98775 0
M  V30 20978 H 1958.01 0.73556 -4.17571 0
M  V30 20979 C 1956.47 1.59849 -2.96563 0
M  V30 20980 O 1957 2.69781 -2.97626 0
M  V30 20981 N 1955.21 1.4398 -2.52424 0
M  V30 20982 H 1954.75 0.545463 -2.51759 0
M  V30 20983 H 1954.71 2.24519 -2.20088 0
M  V30 20984 N 1958.48 1.43142 -0.659413 0
M  V30 20985 C 1959.71 2.06087 -0.183265 0
M  V30 20986 C 1960.13 1.49462 1.15354 0
M  V30 20987 O 1959.48 0.628341 1.71342 0
M  V30 20988 C 1959.53 3.61381 -0.0928701 0
M  V30 20989 O 1959.25 4.15902 -1.37684 0
M  V30 20990 C 1960.76 4.41413 0.408616 0
M  V30 20991 H 1957.98 0.664557 -0.092765 0
M  V30 20992 H 1960.52 1.83542 -0.901809 0
M  V30 20993 H 1958.67 3.8309 0.576268 0
M  V30 20994 H 1959.09 5.09629 -1.24009 0
M  V30 20995 H 1960.56 5.50394 0.420806 0
M  V30 20996 H 1961.04 4.14885 1.44108 0
M  V30 20997 H 1961.65 4.24687 -0.228247 0
M  V30 20998 N 1959.96 0.40173 1.52394 0
M  V30 20999 C 1960.91 -0.442142 2.28359 0
M  V30 21000 C 1961.9 -1.05228 1.32753 0
M  V30 21001 O 1963.11 -0.991332 1.50242 0
M  V30 21002 H 1959.48 -0.161356 0.734485 0
M  V30 21003 H 1961.45 0.219869 2.97589 0
M  V30 21004 C 1960.2 -1.55062 3.11209 0
M  V30 21005 H 1959.53 -1.09046 3.84642 0
M  V30 21006 H 1960.97 -2.11505 3.6748 0
M  V30 21007 C 1959.43 -2.51376 2.24303 0
M  V30 21008 O 1959.96 -3.55084 1.87825 0
M  V30 21009 N 1958.16 -2.2141 1.88218 0
M  V30 21010 H 1957.71 -1.37106 2.18082 0
M  V30 21011 H 1957.67 -2.861 1.30362 0
M  V30 21012 N 1961.44 -1.57047 0.131923 0
M  V30 21013 C 1962.72 -1.87196 -0.567179 0
M  V30 21014 C 1963.1 -1.03533 -1.83968 0
M  V30 21015 O 1962.44 -0.117858 -2.28196 0
M  V30 21016 C 1962.65 -3.38561 -0.847179 0
M  V30 21017 C 1964 -4.07449 -1.19459 0
M  V30 21018 O 1965.03 -3.43654 -0.937026 0
M  V30 21019 O 1963.88 -5.20083 -1.67856 0
M  V30 21020 H 1960.98 -0.775378 -0.287608 0
M  V30 21021 H 1963.52 -1.68872 0.167401 0
M  V30 21022 H 1962.3 -3.91263 0.05402 0
M  V30 21023 H 1961.92 -3.62361 -1.63647 0
M  V30 21024 N 1962.92 0.141865 -1.5696 0
M  V30 21025 C 1964.17 0.852066 -1.82819 0
M  V30 21026 C 1964.48 1.82103 -0.713987 0
M  V30 21027 O 1965.68 2.57575 -0.858321 0
M  V30 21028 C 1964.14 1.56589 -3.24049 0
M  V30 21029 C 1963.75 0.639071 -4.43418 0
M  V30 21030 C 1965.49 2.26257 -3.59177 0
M  V30 21031 C 1963.4 1.35481 -5.75673 0
M  V30 21032 H 1962.33 0.321934 -0.681817 0
M  V30 21033 H 1964.98 0.104791 -1.83201 0
M  V30 21034 H 1963.36 2.35898 -3.1807 0
M  V30 21035 H 1964.54 -0.119159 -4.60646 0
M  V30 21036 H 1962.85 0.0505413 -4.16369 0
M  V30 21037 H 1965.45 2.80455 -4.55246 0
M  V30 21038 H 1965.79 3.02992 -2.85485 0
M  V30 21039 H 1966.32 1.53861 -3.6684 0
M  V30 21040 H 1963.06 0.629214 -6.52473 0
M  V30 21041 H 1962.58 2.08562 -5.62372 0
M  V30 21042 H 1964.26 1.89432 -6.18647 0
M  V30 21043 N 1964.39 1.52136 0.411372 0
M  V30 21044 C 1965.63 1.6776 1.16773 0
M  V30 21045 C 1966 0.397829 1.87833 0
M  V30 21046 O 1967.2 0.430144 2.65336 0
M  V30 21047 C 1965.47 2.86438 2.13748 0
M  V30 21048 S 1967.03 3.22532 2.9752 0
M  V30 21049 H 1963.85 0.590767 0.395621 0
M  V30 21050 H 1966.45 1.90123 0.455363 0
M  V30 21051 H 1965.15 3.7783 1.60226 0
M  V30 21052 H 1964.68 2.66342 2.89526 0
M  V30 21053 H 1966.7 2.7098 4.15673 0
M  V30 21054 N 1965.87 -0.668464 1.42721 0
M  V30 21055 C 1967.12 -1.42906 1.44739 0
M  V30 21056 C 1967.47 -1.9229 0.0649631 0
M  V30 21057 O 1966.77 -1.68399 -0.913917 0
M  V30 21058 C 1966.96 -2.63743 2.41194 0
M  V30 21059 C 1966.79 -2.26183 3.88679 0
M  V30 21060 C 1965.56 -2.15239 4.57166 0
M  V30 21061 C 1967.76 -1.87429 4.78931 0
M  V30 21062 N 1965.74 -1.70849 5.89647 0
M  V30 21063 C 1967.11 -1.54006 6.00568 0
M  V30 21064 C 1969.17 -1.74477 4.66328 0
M  V30 21065 C 1967.87 -1.08931 7.11004 0
M  V30 21066 C 1969.9 -1.30806 5.76753 0
M  V30 21067 C 1969.26 -0.983118 6.97506 0
M  V30 21068 H 1965.36 -0.519172 0.584795 0
M  V30 21069 H 1967.94 -0.770777 1.78793 0
M  V30 21070 H 1966.11 -3.27252 2.09191 0
M  V30 21071 H 1967.84 -3.30368 2.3375 0
M  V30 21072 H 1964.6 -2.3451 4.11463 0
M  V30 21073 H 1965.02 -1.5106 6.59932 0
M  V30 21074 H 1969.66 -1.98244 3.73443 0
M  V30 21075 H 1967.38 -0.839113 8.03732 0
M  V30 21076 H 1970.97 -1.21296 5.69015 0
M  V30 21077 H 1969.85 -0.650337 7.81499 0
M  V30 21078 N 1967.35 -1.28999 -0.905381 0
M  V30 21079 C 1968.31 -1.13652 -1.99038 0
M  V30 21080 C 1969.31 -0.0736646 -1.60631 0
M  V30 21081 O 1970.5 -0.320139 -1.71233 0
M  V30 21082 C 1967.64 -0.736715 -3.32844 0
M  V30 21083 H 1968.83 -2.10022 -2.14081 0
M  V30 21084 H 1966.38 -1.12104 -1.08915 0
M  V30 21085 H 1967.12 0.227383 -3.23502 0
M  V30 21086 H 1966.9 -1.50459 -3.62084 0
M  V30 21087 H 1968.39 -0.65223 -4.12475 0
M  V30 21088 N 1968.83 1.11497 -1.11383 0
M  V30 21089 C 1969.78 2.1752 -0.771611 0
M  V30 21090 C 1970.75 1.64106 0.256616 0
M  V30 21091 O 1971.93 1.90331 0.133672 0
M  V30 21092 C 1969.07 3.44396 -0.220313 0
M  V30 21093 C 1968.18 4.11817 -1.30503 0
M  V30 21094 C 1967.32 5.26375 -0.714331 0
M  V30 21095 C 1966.36 5.85679 -1.77894 0
M  V30 21096 N 1965.5 6.91634 -1.20778 0
M  V30 21097 H 1970.34 2.46138 -1.67989 0
M  V30 21098 H 1967.87 1.20832 -0.838927 0
M  V30 21099 H 1969.83 4.17035 0.117286 0
M  V30 21100 H 1968.46 3.16164 0.651161 0
M  V30 21101 H 1967.51 3.37258 -1.75959 0
M  V30 21102 H 1968.82 4.5195 -2.11051 0
M  V30 21103 H 1967.98 6.05819 -0.326754 0
M  V30 21104 H 1966.72 4.87546 0.12248 0
M  V30 21105 H 1965.72 5.04914 -2.17583 0
M  V30 21106 H 1966.95 6.26576 -2.61877 0
M  V30 21107 H 1964.89 6.54824 -0.392602 0
M  V30 21108 H 1964.81 7.30419 -1.94998 0
M  V30 21109 H 1966.08 7.74884 -0.847072 0
M  V30 21110 N 1970.31 0.904053 1.29092 0
M  V30 21111 C 1971.55 0.532992 1.95671 0
M  V30 21112 C 1971.89 -0.919194 1.71069 0
M  V30 21113 O 1971.16 -1.6523 1.02612 0
M  V30 21114 C 1971.44 0.831252 3.50374 0
M  V30 21115 C 1971.3 2.33546 3.84417 0
M  V30 21116 C 1972.62 0.320724 4.3893 0
M  V30 21117 H 1969.74 0.195117 0.710703 0
M  V30 21118 H 1972.38 1.13153 1.52632 0
M  V30 21119 H 1970.53 0.321853 3.87165 0
M  V30 21120 H 1972.2 2.91473 3.57549 0
M  V30 21121 H 1970.44 2.79442 3.31805 0
M  V30 21122 H 1971.11 2.49471 4.9241 0
M  V30 21123 H 1973.59 0.756974 4.09157 0
M  V30 21124 H 1972.47 0.55858 5.4605 0
M  V30 21125 H 1972.73 -0.778699 4.35188 0
M  V30 21126 N 1971.79 -1.4279 0.666995 0
M  V30 21127 C 1973.03 -2.02464 0.194957 0
M  V30 21128 C 1973.39 -1.51758 -1.18268 0
M  V30 21129 O 1972.68 -0.706754 -1.78089 0
M  V30 21130 C 1972.87 -3.57038 0.160763 0
M  V30 21131 C 1972.7 -4.22744 1.53354 0
M  V30 21132 C 1971.47 -4.58242 2.12937 0
M  V30 21133 C 1973.67 -4.50848 2.47469 0
M  V30 21134 N 1971.65 -5.09089 3.43077 0
M  V30 21135 C 1973.02 -5.03161 3.62255 0
M  V30 21136 C 1975.08 -4.32828 2.46098 0
M  V30 21137 C 1973.78 -5.3935 4.75914 0
M  V30 21138 C 1975.81 -4.70089 3.58846 0
M  V30 21139 C 1975.17 -5.22547 4.7236 0
M  V30 21140 H 1971.27 -0.773336 0.116084 0
M  V30 21141 H 1973.85 -1.73765 0.87829 0
M  V30 21142 H 1972.02 -3.85272 -0.491957 0
M  V30 21143 H 1973.76 -4.03406 -0.32343 0
M  V30 21144 H 1970.51 -4.4374 1.65505 0
M  V30 21145 H 1970.93 -5.3895 4.09709 0
M  V30 21146 H 1975.58 -3.91533 1.59568 0
M  V30 21147 H 1973.29 -5.79583 5.63125 0
M  V30 21148 H 1976.88 -4.5783 3.59003 0
M  V30 21149 H 1975.76 -5.50842 5.5816 0
M  V30 21150 N 1973.26 -0.409806 -1.52179 0
M  V30 21151 C 1974.67 0.0596356 -1.86605 0
M  V30 21152 C 1975.03 1.44377 -1.32852 0
M  V30 21153 O 1974.15 2.05829 -0.668074 0
M  V30 21154 C 1974.75 0.114992 -3.38605 0
M  V30 21155 C 1973.3 0.528771 -3.72667 0
M  V30 21156 C 1972.45 -0.29629 -2.75713 0
M  V30 21157 H 1975.4 -0.626843 -1.45796 0
M  V30 21158 H 1975.42 0.930114 -3.68957 0
M  V30 21159 H 1974.94 -0.892535 -3.77698 0
M  V30 21160 H 1973.04 1.54291 -3.39153 0
M  V30 21161 H 1973.15 0.272687 -4.78323 0
M  V30 21162 H 1971.51 0.241468 -2.53553 0
M  V30 21163 H 1972.3 -1.30218 -3.17645 0
M  V30 21164 N 1974.74 1.56975 -0.14025 0
M  V30 21165 C 1976.02 1.87494 0.557244 0
M  V30 21166 C 1976.4 1.04507 1.83416 0
M  V30 21167 O 1975.75 0.129958 2.2813 0
M  V30 21168 C 1975.96 3.39006 0.829213 0
M  V30 21169 C 1977.3 4.08077 1.17296 0
M  V30 21170 O 1978.33 3.44146 0.918788 0
M  V30 21171 O 1977.19 5.20966 1.65096 0
M  V30 21172 H 1974.28 0.776892 0.283492 0
M  V30 21173 H 1976.83 1.68781 -0.176354 0
M  V30 21174 H 1975.6 3.91229 -0.0747688 0
M  V30 21175 H 1975.22 3.63224 1.61723 0
M  V30 21176 N 1976.22 -0.133539 1.57033 0
M  V30 21177 C 1977.15 -1.16595 2.02306 0
M  V30 21178 C 1978.13 -1.44031 0.904933 0
M  V30 21179 O 1979.32 -1.54721 1.17367 0
M  V30 21180 C 1976.45 -2.49581 2.41509 0
M  V30 21181 C 1975.4 -2.36639 3.56631 0
M  V30 21182 C 1974.73 -3.74457 3.81688 0
M  V30 21183 C 1976.03 -1.83912 4.88849 0
M  V30 21184 H 1977.72 -0.789456 2.88804 0
M  V30 21185 H 1975.27 -0.378309 1.38942 0
M  V30 21186 H 1977.22 -3.22043 2.71783 0
M  V30 21187 H 1975.94 -2.89093 1.51964 0
M  V30 21188 H 1974.6 -1.66628 3.26544 0
M  V30 21189 H 1974.25 -4.11428 2.89372 0
M  V30 21190 H 1973.95 -3.66655 4.59171 0
M  V30 21191 H 1975.47 -4.48446 4.14401 0
M  V30 21192 H 1976.89 -2.46178 5.17754 0
M  V30 21193 H 1975.28 -1.86967 5.70231 0
M  V30 21194 H 1976.35 -0.795669 4.78327 0
M  V30 21195 N 1977.7 -1.52352 -0.403298 0
M  V30 21196 C 1979.11 -1.58796 -0.981864 0
M  V30 21197 C 1979.46 -0.432029 -1.91384 0
M  V30 21198 O 1978.58 0.446835 -2.11736 0
M  V30 21199 C 1979.18 -2.87807 -1.78752 0
M  V30 21200 C 1977.74 -2.96711 -2.31602 0
M  V30 21201 C 1976.89 -2.53787 -1.11748 0
M  V30 21202 H 1979.84 -1.57638 -0.18333 0
M  V30 21203 H 1979.86 -2.73488 -2.64546 0
M  V30 21204 H 1979.37 -3.71919 -1.10896 0
M  V30 21205 H 1977.47 -2.17105 -3.02814 0
M  V30 21206 H 1977.58 -4.0107 -2.62069 0
M  V30 21207 H 1975.95 -2.07771 -1.47321 0
M  V30 21208 H 1976.73 -3.40278 -0.45449 0
M  V30 21209 N 1979.18 0.660885 -1.43074 0
M  V30 21210 C 1980.12 1.79529 -1.47892 0
M  V30 21211 C 1981.12 1.65676 -0.353254 0
M  V30 21212 O 1982.32 1.72115 -0.526903 0
M  V30 21213 H 1978.7 0.592191 -0.46348 0
M  V30 21214 H 1980.67 1.72584 -2.43428 0
M  V30 21215 C 1979.42 3.17753 -1.41167 0
M  V30 21216 H 1978.74 3.29047 -2.27087 0
M  V30 21217 H 1980.18 3.97107 -1.486 0
M  V30 21218 C 1978.64 3.36656 -0.128241 0
M  V30 21219 O 1979.17 3.93376 0.813504 0
M  V30 21220 N 1977.38 2.90571 -0.0408985 0
M  V30 21221 H 1976.92 2.44598 -0.808059 0
M  V30 21222 H 1976.88 3.03595 0.817147 0
M  V30 21223 N 1980.65 1.29477 0.898527 0
M  V30 21224 C 1981.9 1.16888 1.64378 0
M  V30 21225 C 1982.22 -0.278503 1.93607 0
M  V30 21226 O 1983.42 -0.525728 2.66361 0
M  V30 21227 C 1981.88 2.0444 2.96196 0
M  V30 21228 C 1981.49 3.54008 2.74558 0
M  V30 21229 C 1983.23 2.00578 3.74124 0
M  V30 21230 C 1981.14 4.33661 4.0211 0
M  V30 21231 H 1980.07 0.433875 0.616659 0
M  V30 21232 H 1982.72 1.54125 0.995881 0
M  V30 21233 H 1981.1 1.60073 3.62205 0
M  V30 21234 H 1982.27 4.06435 2.17135 0
M  V30 21235 H 1980.59 3.59553 2.10025 0
M  V30 21236 H 1983.19 2.57348 4.68696 0
M  V30 21237 H 1983.53 0.98604 4.04454 0
M  V30 21238 H 1984.06 2.42995 3.14957 0
M  V30 21239 H 1980.8 5.36276 3.76946 0
M  V30 21240 H 1980.32 3.86003 4.59088 0
M  V30 21241 H 1982 4.44385 4.70246 0
M  V30 21242 N 1982.13 -1.10905 1.11972 0
M  V30 21243 C 1983.36 -1.86555 0.894699 0
M  V30 21244 C 1983.78 -1.80434 -0.555801 0
M  V30 21245 O 1983.13 -1.18957 -1.38403 0
M  V30 21246 C 1983.18 -3.35148 1.35492 0
M  V30 21247 O 1982.9 -3.41154 2.74856 0
M  V30 21248 C 1984.41 -4.27687 1.16612 0
M  V30 21249 H 1981.63 -0.589761 0.320037 0
M  V30 21250 H 1984.17 -1.40232 1.48846 0
M  V30 21251 H 1982.32 -3.78955 0.804493 0
M  V30 21252 H 1982.74 -4.3372 2.94936 0
M  V30 21253 H 1984.21 -5.30168 1.53708 0
M  V30 21254 H 1984.69 -4.39072 0.106219 0
M  V30 21255 H 1985.3 -3.8968 1.70381 0
M  V30 21256 N 1983.61 -0.910886 -1.2861 0
M  V30 21257 C 1984.86 -0.53847 -1.94379 0
M  V30 21258 C 1985.17 0.92185 -1.72515 0
M  V30 21259 O 1986.38 1.40229 -2.32482 0
M  V30 21260 C 1984.83 -0.91216 -3.48149 0
M  V30 21261 C 1984.44 -2.39201 -3.78796 0
M  V30 21262 C 1986.19 -0.610192 -4.20092 0
M  V30 21263 C 1984.09 -2.70598 -5.25862 0
M  V30 21264 H 1983.02 -0.197657 -0.727632 0
M  V30 21265 H 1985.67 -1.10941 -1.46165 0
M  V30 21266 H 1984.06 -0.270034 -3.95078 0
M  V30 21267 H 1985.23 -3.08063 -3.42686 0
M  V30 21268 H 1983.55 -2.66414 -3.20019 0
M  V30 21269 H 1986.14 -0.821472 -5.28352 0
M  V30 21270 H 1986.49 0.451862 -4.1384 0
M  V30 21271 H 1987.02 -1.21066 -3.7893 0
M  V30 21272 H 1983.76 -3.75645 -5.37188 0
M  V30 21273 H 1983.28 -2.0637 -5.6318 0
M  V30 21274 H 1984.96 -2.57451 -5.93572 0
M  V30 21275 N 1985.09 1.42434 -0.674558 0
M  V30 21276 C 1986.37 1.95196 -0.125683 0
M  V30 21277 C 1986.75 1.61499 1.35946 0
M  V30 21278 O 1986.09 0.911023 2.09553 0
M  V30 21279 C 1986.3 3.46762 -0.39457 0
M  V30 21280 C 1987.65 4.2346 -0.310951 0
M  V30 21281 O 1988.68 3.54684 -0.328304 0
M  V30 21282 O 1987.53 5.45914 -0.252937 0
M  V30 21283 H 1984.63 0.826995 -0.00272875 0
M  V30 21284 H 1987.17 1.52263 -0.749271 0
M  V30 21285 H 1985.95 3.64493 -1.42339 0
M  V30 21286 H 1985.57 3.96742 0.261037 0
M  V30 21287 N 1986.57 0.417871 1.51959 0
M  V30 21288 C 1987.51 -0.403305 2.27249 0
M  V30 21289 C 1988.48 -1.0336 1.30023 0
M  V30 21290 O 1989.67 -1.05621 1.58899 0
M  V30 21291 C 1986.81 -1.50928 3.10346 0
M  V30 21292 C 1985.92 -0.899043 4.22541 0
M  V30 21293 C 1985.06 -1.97844 4.92982 0
M  V30 21294 C 1984.1 -1.3456 5.97126 0
M  V30 21295 N 1983.23 -2.36552 6.6105 0
M  V30 21296 H 1988.07 0.245143 2.9699 0
M  V30 21297 H 1985.61 0.132733 1.465 0
M  V30 21298 H 1987.57 -2.16157 3.56836 0
M  V30 21299 H 1986.2 -2.12763 2.42759 0
M  V30 21300 H 1985.25 -0.135561 3.80158 0
M  V30 21301 H 1986.56 -0.396845 4.97219 0
M  V30 21302 H 1985.72 -2.7078 5.42921 0
M  V30 21303 H 1984.45 -2.51432 4.17892 0
M  V30 21304 H 1983.46 -0.601616 5.46499 0
M  V30 21305 H 1984.68 -0.817308 6.74164 0
M  V30 21306 H 1982.63 -2.89256 5.88784 0
M  V30 21307 H 1982.55 -1.91169 7.3143 0
M  V30 21308 H 1983.82 -3.09031 7.15626 0
M  V30 21309 N 1988.04 -1.56898 0.148573 0
M  V30 21310 C 1989.27 -2.0054 -0.509047 0
M  V30 21311 C 1989.69 -1.02867 -1.58315 0
M  V30 21312 O 1989.04 -0.0259297 -1.82482 0
M  V30 21313 C 1989.1 -3.44093 -1.10825 0
M  V30 21314 O 1988.82 -4.38032 -0.077048 0
M  V30 21315 C 1990.32 -4.03021 -1.84633 0
M  V30 21316 H 1987.54 -0.657812 -0.132378 0
M  V30 21317 H 1990.08 -2.03044 0.243618 0
M  V30 21318 H 1988.24 -3.42436 -1.81153 0
M  V30 21319 H 1988.65 -5.21953 -0.516256 0
M  V30 21320 H 1990.12 -5.05458 -2.21847 0
M  V30 21321 H 1990.6 -3.43821 -2.73283 0
M  V30 21322 H 1991.21 -4.08313 -1.19 0
M  V30 21323 N 1989.52 0.125209 -1.57102 0
M  V30 21324 C 1990.45 1.15521 -2.02922 0
M  V30 21325 C 1991.43 1.43549 -0.912559 0
M  V30 21326 O 1992.62 1.54097 -1.18185 0
M  V30 21327 C 1989.75 2.48297 -2.42829 0
M  V30 21328 C 1988.7 2.34744 -3.57881 0
M  V30 21329 C 1988.03 3.72427 -3.83669 0
M  V30 21330 C 1989.33 1.81317 -4.89818 0
M  V30 21331 H 1991.02 0.774129 -2.89219 0
M  V30 21332 H 1988.57 0.370935 -1.3914 0
M  V30 21333 H 1990.52 3.20597 -2.73487 0
M  V30 21334 H 1989.25 2.88283 -1.53495 0
M  V30 21335 H 1987.9 1.64893 -3.27423 0
M  V30 21336 H 1987.55 4.09887 -2.9155 0
M  V30 21337 H 1987.25 3.64215 -4.61109 0
M  V30 21338 H 1988.78 4.46242 -4.16773 0
M  V30 21339 H 1990.19 2.43429 -5.19052 0
M  V30 21340 H 1988.59 1.83941 -5.71214 0
M  V30 21341 H 1989.66 0.770291 -4.78743 0
M  V30 21342 N 1991 1.52564 0.395213 0
M  V30 21343 C 1992.23 1.71173 1.16222 0
M  V30 21344 C 1992.64 0.427335 1.839 0
M  V30 21345 O 1992 -0.597726 1.72434 0
M  V30 21346 C 1992.05 2.85698 2.21492 0
M  V30 21347 O 1991.77 4.09165 1.56574 0
M  V30 21348 C 1993.27 3.15934 3.10967 0
M  V30 21349 H 1990.49 0.573277 0.348705 0
M  V30 21350 H 1993.04 1.99186 0.463177 0
M  V30 21351 H 1991.19 2.60165 2.87042 0
M  V30 21352 H 1991.61 4.73086 2.26473 0
M  V30 21353 H 1993.08 3.99548 3.80874 0
M  V30 21354 H 1993.56 2.30059 3.74125 0
M  V30 21355 H 1994.16 3.43284 2.5107 0
M  V30 21356 N 1992.48 -0.653289 1.43422 0
M  V30 21357 C 1993.39 -1.79526 1.51022 0
M  V30 21358 C 1994.4 -1.69403 0.39732 0
M  V30 21359 O 1995.58 -1.90574 0.651437 0
M  V30 21360 C 1992.65 -3.15803 1.43071 0
M  V30 21361 C 1991.71 -3.37723 2.65031 0
M  V30 21362 C 1990.94 -4.67499 2.5745 0
M  V30 21363 O 1991.16 -5.46846 1.6222 0
M  V30 21364 O 1990.1 -4.91137 3.47948 0
M  V30 21365 H 1993.92 -1.76069 2.47454 0
M  V30 21366 H 1991.51 -0.81176 1.25423 0
M  V30 21367 H 1993.39 -3.97083 1.41079 0
M  V30 21368 H 1992.06 -3.1985 0.497738 0
M  V30 21369 H 1990.97 -2.56208 2.72595 0
M  V30 21370 H 1992.3 -3.38523 3.573 0
M  V30 21371 N 1993.96 -1.29952 -0.891648 0
M  V30 21372 C 1995.23 -1.09057 -1.62376 0
M  V30 21373 C 1995.61 0.362482 -2.07965 0
M  V30 21374 O 1994.96 1.35277 -1.84153 0
M  V30 21375 C 1995.17 -2.08543 -2.79841 0
M  V30 21376 C 1996.52 -2.39899 -3.50333 0
M  V30 21377 O 1997.54 -2.06801 -2.90021 0
M  V30 21378 O 1996.4 -2.96487 -4.59083 0
M  V30 21379 H 1993.5 -0.418386 -0.71336 0
M  V30 21380 H 1996.04 -1.41353 -0.939009 0
M  V30 21381 H 1994.81 -3.06378 -2.43409 0
M  V30 21382 H 1994.44 -1.77024 -3.56017 0
M  V30 21383 N 1995.44 1.1031 -1.12559 0
M  V30 21384 C 1996.35 2.20257 -0.807721 0
M  V30 21385 C 1997.36 1.728 0.203997 0
M  V30 21386 O 1998.54 2.01365 0.0372766 0
M  V30 21387 C 1995.6 3.4566 -0.26839 0
M  V30 21388 C 1994.66 4.07844 -1.3402 0
M  V30 21389 C 1993.9 5.27261 -0.826511 0
M  V30 21390 O 1994.12 5.6939 0.339244 0
M  V30 21391 O 1993.05 5.80335 -1.5967 0
M  V30 21392 H 1996.88 2.49882 -1.72606 0
M  V30 21393 H 1994.46 1.19071 -0.902352 0
M  V30 21394 H 1996.35 4.21391 0.0274321 0
M  V30 21395 H 1995.02 3.17658 0.622489 0
M  V30 21396 H 1993.93 3.33791 -1.68921 0
M  V30 21397 H 1995.26 4.40051 -2.20489 0
M  V30 21398 N 1996.91 0.917694 1.28125 0
M  V30 21399 C 1997.88 0.413823 2.25433 0
M  V30 21400 C 1998.88 -0.46205 1.54019 0
M  V30 21401 O 2000.07 -0.264546 1.7218 0
M  V30 21402 C 1997.2 -0.406249 3.38471 0
M  V30 21403 H 1998.39 1.27345 2.7152 0
M  V30 21404 H 1995.94 0.697455 1.39876 0
M  V30 21405 H 1996.68 -1.28511 2.97751 0
M  V30 21406 H 1996.46 0.221601 3.91473 0
M  V30 21407 H 1997.95 -0.749491 4.10819 0
M  V30 21408 N 1998.39 -1.42074 0.682102 0
M  V30 21409 C 1999.64 -2.01733 0.207714 0
M  V30 21410 C 1999.97 -1.53844 -1.18514 0
M  V30 21411 O 1999.25 -0.74378 -1.79717 0
M  V30 21412 C 1999.53 -3.59228 0.250438 0
M  V30 21413 C 1999.38 -4.17278 1.67927 0
M  V30 21414 C 2000.7 -4.38303 -0.397296 0
M  V30 21415 H 1997.82 -0.732972 0.0769518 0
M  V30 21416 H 2000.46 -1.69 0.868272 0
M  V30 21417 H 1998.61 -3.87245 -0.312007 0
M  V30 21418 H 2000.28 -4.00187 2.29452 0
M  V30 21419 H 1998.53 -3.7283 2.21767 0
M  V30 21420 H 1999.2 -5.26423 1.66079 0
M  V30 21421 H 2001.67 -4.1602 0.0815622 0
M  V30 21422 H 2000.55 -5.47866 -0.336797 0
M  V30 21423 H 2000.81 -4.16733 -1.476 0
M  V30 21424 N 1999.87 -0.425924 -1.51735 0
M  V30 21425 C 2000.82 0.405756 -2.29034 0
M  V30 21426 C 2001.81 1.03103 -1.3441 0
M  V30 21427 O 2003.02 0.967304 -1.518 0
M  V30 21428 H 1999.39 0.149651 -0.736959 0
M  V30 21429 H 2001.36 -0.267185 -2.97201 0
M  V30 21430 C 2000.11 1.50091 -3.13637 0
M  V30 21431 H 1999.44 1.02912 -3.86328 0
M  V30 21432 H 2000.88 2.05632 -3.70799 0
M  V30 21433 C 1999.33 2.47775 -2.28274 0
M  V30 21434 O 1999.86 3.52051 -1.9345 0
M  V30 21435 N 1998.07 2.18387 -1.91717 0
M  V30 21436 H 1997.62 1.3362 -2.20235 0
M  V30 21437 H 1997.58 2.83989 -1.34897 0
M  V30 21438 N 2001.35 1.56817 -0.156891 0
M  V30 21439 C 2002.31 2.16058 0.764967 0
M  V30 21440 C 2003.31 1.10488 1.16829 0
M  V30 21441 O 2004.5 1.36077 1.0876 0
M  V30 21442 C 2001.63 2.73173 2.03935 0
M  V30 21443 H 2002.83 2.98861 0.249482 0
M  V30 21444 H 2000.38 1.56025 0.0926074 0
M  V30 21445 H 2001.11 1.94064 2.59827 0
M  V30 21446 H 2000.9 3.50417 1.75926 0
M  V30 21447 H 2002.39 3.18783 2.69754 0
M  V30 21448 N 2002.83 -0.116876 1.57166 0
M  V30 21449 C 2004.05 -0.842338 1.89524 0
M  V30 21450 C 2004.48 -1.72543 0.749039 0
M  V30 21451 O 2003.83 -1.78795 -0.30035 0
M  V30 21452 C 2003.88 -1.64989 3.20641 0
M  V30 21453 O 2002.99 -2.75701 3.06696 0
M  V30 21454 H 2002.33 -0.232809 0.621849 0
M  V30 21455 H 2004.86 -0.0986366 2.04362 0
M  V30 21456 H 2004.87 -2.03869 3.53414 0
M  V30 21457 H 2003.54 -1.00164 4.03658 0
M  V30 21458 H 2002.12 -2.40009 2.85395 0
M  V30 21459 N 2004.3 -1.52772 -0.387116 0
M  V30 21460 C 2005.72 -1.42064 -0.727316 0
M  V30 21461 C 2005.92 -0.542559 -1.94058 0
M  V30 21462 O 2004.98 -0.0167267 -2.52494 0
M  V30 21463 C 2006.29 -2.84942 -0.960651 0
M  V30 21464 C 2007.84 -2.94432 -1.06201 0
M  V30 21465 C 2008.31 -4.38326 -1.32796 0
M  V30 21466 N 2009.8 -4.41659 -1.39613 0
M  V30 21467 C 2010.54 -5.50081 -1.6186 0
M  V30 21468 N 2010.03 -6.68585 -1.81566 0
M  V30 21469 N 2011.83 -5.37627 -1.64055 0
M  V30 21470 H 2003.98 -2.08382 0.411202 0
M  V30 21471 H 2006.24 -0.940144 0.121792 0
M  V30 21472 H 2005.95 -3.51416 -0.141246 0
M  V30 21473 H 2005.82 -3.27309 -1.87479 0
M  V30 21474 H 2008.21 -2.28125 -1.87198 0
M  V30 21475 H 2008.29 -2.55491 -0.125731 0
M  V30 21476 H 2007.93 -5.05199 -0.523081 0
M  V30 21477 H 2007.86 -4.74821 -2.27711 0
M  V30 21478 H 2010.35 -3.56245 -1.26086 0
M  V30 21479 H 2010.67 -7.4699 -1.98053 0
M  V30 21480 H 2009.01 -6.7161 -1.78786 0
M  V30 21481 H 2012.2 -4.44016 -1.48213 0
M  V30 21482 H 2012.38 -6.22193 -1.81053 0
M  V30 21483 N 2005.78 0.645673 -1.43767 0
M  V30 21484 C 2006.74 1.74013 -1.49171 0
M  V30 21485 C 2007.74 1.56355 -0.375476 0
M  V30 21486 O 2008.93 1.62115 -0.637529 0
M  V30 21487 C 2006.07 3.12961 -1.3516 0
M  V30 21488 H 2007.26 1.706 -2.46649 0
M  V30 21489 H 2004.81 0.858019 -1.30643 0
M  V30 21490 H 2005.55 3.2198 -0.387199 0
M  V30 21491 H 2005.33 3.27184 -2.16086 0
M  V30 21492 H 2006.82 3.92755 -1.41891 0
M  V30 21493 N 2007.26 1.30423 0.884744 0
M  V30 21494 C 2008.21 1.13434 1.97779 0
M  V30 21495 C 2009.19 0.0494483 1.60824 0
M  V30 21496 O 2010.39 0.272793 1.74885 0
M  V30 21497 C 2007.51 0.828489 3.33153 0
M  V30 21498 C 2006.6 1.95365 3.76422 0
M  V30 21499 N 2006.99 3.19903 3.91785 0
M  V30 21500 C 2005.29 1.85007 4.05818 0
M  V30 21501 C 2005.99 3.93408 4.28492 0
M  V30 21502 N 2004.97 3.2146 4.38366 0
M  V30 21503 H 2008.77 2.07889 2.07748 0
M  V30 21504 H 2006.28 1.21765 1.07457 0
M  V30 21505 H 2008.28 0.687799 4.11187 0
M  V30 21506 H 2006.94 -0.107985 3.2452 0
M  V30 21507 H 2007.95 3.55189 3.7691 0
M  V30 21508 H 2004.63 0.987286 4.05659 0
M  V30 21509 H 2006.02 5.00656 4.48099 0
M  V30 21510 N 2008.74 -1.09711 1.13142 0
M  V30 21511 C 2009.98 -1.82097 0.892675 0
M  V30 21512 C 2010.32 -1.85341 -0.579846 0
M  V30 21513 O 2009.59 -1.3195 -1.42897 0
M  V30 21514 C 2009.87 -3.28392 1.47752 0
M  V30 21515 C 2009.73 -3.33436 3.01895 0
M  V30 21516 C 2011.05 -4.24991 1.14329 0
M  V30 21517 H 2008.17 -0.661111 0.325732 0
M  V30 21518 H 2010.81 -1.28535 1.39924 0
M  V30 21519 H 2008.96 -3.74134 1.04671 0
M  V30 21520 H 2010.63 -2.96119 3.53711 0
M  V30 21521 H 2008.87 -2.73109 3.37037 0
M  V30 21522 H 2009.54 -4.36484 3.37914 0
M  V30 21523 H 2012.02 -3.8752 1.51551 0
M  V30 21524 H 2010.9 -5.25698 1.57902 0
M  V30 21525 H 2011.16 -4.42064 0.0565583 0
M  V30 21526 N 2010.22 -0.924476 -1.27637 0
M  V30 21527 C 2011.18 -0.425772 -2.25211 0
M  V30 21528 C 2012.18 0.453876 -1.54261 0
M  V30 21529 O 2013.37 0.255412 -1.72317 0
M  V30 21530 C 2010.5 0.388294 -3.38681 0
M  V30 21531 H 2011.69 -1.28783 -2.70841 0
M  V30 21532 H 2009.25 -0.704863 -1.39504 0
M  V30 21533 H 2009.98 1.2693 -2.98428 0
M  V30 21534 H 2009.77 -0.242358 -3.9135 0
M  V30 21535 H 2011.26 0.727693 -4.11211 0
M  V30 21536 N 2011.69 1.41711 -0.689627 0
M  V30 21537 C 2012.94 2.01322 -0.218086 0
M  V30 21538 C 2013.27 1.54591 1.18033 0
M  V30 21539 O 2012.52 0.7453 1.80952 0
M  V30 21540 C 2012.82 3.56737 -0.217544 0
M  V30 21541 C 2012.49 4.22956 -1.56266 0
M  V30 21542 C 2011.15 4.40759 -1.93093 0
M  V30 21543 C 2013.5 4.6014 -2.44787 0
M  V30 21544 C 2010.83 4.93021 -3.18036 0
M  V30 21545 C 2013.18 5.13789 -3.69058 0
M  V30 21546 C 2011.85 5.29804 -4.06034 0
M  V30 21547 H 2011.12 0.73669 -0.0798034 0
M  V30 21548 H 2013.76 1.69691 -0.887543 0
M  V30 21549 H 2012.07 3.88124 0.535453 0
M  V30 21550 H 2013.77 4.00661 0.16474 0
M  V30 21551 H 2010.36 4.09469 -1.26622 0
M  V30 21552 H 2014.54 4.46045 -2.17617 0
M  V30 21553 H 2009.8 5.03605 -3.46687 0
M  V30 21554 H 2013.97 5.41543 -4.37841 0
M  V30 21555 H 2011.6 5.70064 -5.02923 0
M  V30 21556 N 2013.17 0.433965 1.51507 0
M  V30 21557 C 2014.58 -0.0299408 1.86676 0
M  V30 21558 C 2014.93 -1.42245 1.35132 0
M  V30 21559 O 2014.06 -2.0474 0.700735 0
M  V30 21560 C 2014.65 -0.0611079 3.38745 0
M  V30 21561 C 2013.21 -0.469416 3.73461 0
M  V30 21562 C 2012.36 0.340116 2.75206 0
M  V30 21563 H 2015.31 0.649958 1.4478 0
M  V30 21564 H 2015.33 -0.871298 3.7039 0
M  V30 21565 H 2014.84 0.952511 3.7623 0
M  V30 21566 H 2012.95 -1.48876 3.41565 0
M  V30 21567 H 2013.06 -0.196556 4.78697 0
M  V30 21568 H 2011.42 -0.201099 2.53905 0
M  V30 21569 H 2012.21 1.35255 3.15533 0
M  V30 21570 N 2014.65 -1.56732 0.165206 0
M  V30 21571 C 2015.93 -1.88357 -0.527344 0
M  V30 21572 C 2016.31 -1.07412 -1.8173 0
M  V30 21573 O 2015.66 -0.166236 -2.27895 0
M  V30 21574 C 2015.87 -3.40282 -0.775175 0
M  V30 21575 C 2017.21 -4.09891 -1.10789 0
M  V30 21576 O 2018.24 -3.45565 -0.863921 0
M  V30 21577 O 2017.1 -5.23527 -1.56787 0
M  V30 21578 H 2014.19 -0.781304 -0.271096 0
M  V30 21579 H 2016.74 -1.68479 0.203183 0
M  V30 21580 H 2015.51 -3.9106 0.137 0
M  V30 21581 H 2015.13 -3.65751 -1.55924 0
M  V30 21582 N 2016.13 0.10854 -1.57226 0
M  V30 21583 C 2017.38 0.814467 -1.85399 0
M  V30 21584 C 2017.7 1.79382 -0.75181 0
M  V30 21585 O 2016.96 1.9402 0.255884 0
M  V30 21586 C 2017.26 1.58963 -3.20102 0
M  V30 21587 C 2016.92 0.75362 -4.44558 0
M  V30 21588 C 2015.59 0.523111 -4.78348 0
M  V30 21589 C 2017.94 0.171574 -5.20918 0
M  V30 21590 C 2015.27 -0.299527 -5.85935 0
M  V30 21591 C 2017.62 -0.638313 -6.29371 0
M  V30 21592 C 2016.28 -0.87904 -6.61687 0
M  V30 21593 H 2015.55 0.298035 -0.678422 0
M  V30 21594 H 2018.2 0.0764359 -1.91347 0
M  V30 21595 H 2016.5 2.39886 -3.09777 0
M  V30 21596 H 2018.2 2.13998 -3.39125 0
M  V30 21597 H 2014.79 0.943382 -4.18089 0
M  V30 21598 H 2018.97 0.336852 -4.95156 0
M  V30 21599 H 2014.23 -0.49515 -6.09392 0
M  V30 21600 H 2018.4 -1.09626 -6.87717 0
M  V30 21601 H 2016.03 -1.51829 -7.44884 0
M  V30 21602 N 2017.61 1.52975 0.379009 0
M  V30 21603 C 2018.85 1.68505 1.12304 0
M  V30 21604 C 2019.18 0.430012 1.89687 0
M  V30 21605 O 2018.44 -0.587809 1.86664 0
M  V30 21606 C 2018.74 2.8776 2.11964 0
M  V30 21607 C 2018.4 4.24806 1.51163 0
M  V30 21608 C 2017.06 4.62077 1.34308 0
M  V30 21609 C 2019.42 5.10087 1.07053 0
M  V30 21610 C 2016.74 5.82277 0.719058 0
M  V30 21611 C 2019.1 6.30921 0.460559 0
M  V30 21612 C 2017.76 6.66915 0.279391 0
M  V30 21613 H 2017.03 0.616604 0.41095 0
M  V30 21614 H 2019.68 1.87137 0.406443 0
M  V30 21615 H 2017.98 2.63586 2.89879 0
M  V30 21616 H 2019.68 2.96971 2.69461 0
M  V30 21617 H 2016.27 3.95453 1.65272 0
M  V30 21618 H 2020.45 4.81854 1.18872 0
M  V30 21619 H 2015.71 6.08765 0.566983 0
M  V30 21620 H 2019.88 6.96312 0.110504 0
M  V30 21621 H 2017.51 7.5992 -0.206228 0
M  V30 21622 N 2019.08 -0.63804 1.44107 0
M  V30 21623 C 2020.5 -0.955442 1.27842 0
M  V30 21624 C 2020.7 -2.00412 0.209151 0
M  V30 21625 O 2019.76 -2.49193 -0.407303 0
M  V30 21626 C 2021.07 -1.42528 2.64776 0
M  V30 21627 C 2022.62 -1.54112 2.72431 0
M  V30 21628 C 2023.09 -2.04482 4.09819 0
M  V30 21629 N 2024.58 -2.11762 4.1196 0
M  V30 21630 C 2025.32 -2.51891 5.1511 0
M  V30 21631 N 2024.81 -2.91207 6.28626 0
M  V30 21632 N 2026.61 -2.51964 5.02464 0
M  V30 21633 H 2018.76 0.0556164 2.12327 0
M  V30 21634 H 2021.02 -0.037732 0.947249 0
M  V30 21635 H 2020.73 -0.729067 3.4406 0
M  V30 21636 H 2020.6 -2.39756 2.91199 0
M  V30 21637 H 2022.99 -2.22831 1.93469 0
M  V30 21638 H 2023.07 -0.552769 2.49756 0
M  V30 21639 H 2022.71 -1.3636 4.89253 0
M  V30 21640 H 2022.64 -3.04176 4.29866 0
M  V30 21641 H 2025.13 -1.8409 3.30029 0
M  V30 21642 H 2025.45 -3.2062 7.03152 0
M  V30 21643 H 2023.79 -2.88975 6.32075 0
M  V30 21644 H 2026.98 -2.20635 4.12841 0
M  V30 21645 H 2027.16 -2.82915 5.82978 0
M  V30 21646 N 2020.56 -1.3089 -0.877815 0
M  V30 21647 C 2021.79 -1.23068 -1.66319 0
M  V30 21648 C 2022.21 0.205309 -1.8768 0
M  V30 21649 O 2021.56 1.13467 -1.42939 0
M  V30 21650 C 2021.61 -1.96305 -3.03557 0
M  V30 21651 O 2021.33 -3.34298 -2.83154 0
M  V30 21652 C 2022.84 -1.95228 -3.97996 0
M  V30 21653 H 2020.06 -0.425583 -0.518768 0
M  V30 21654 H 2022.6 -1.72636 -1.09623 0
M  V30 21655 H 2020.75 -1.50518 -3.56964 0
M  V30 21656 H 2021.17 -3.71486 -3.70268 0
M  V30 21657 H 2022.64 -2.50997 -4.91635 0
M  V30 21658 H 2023.12 -0.932904 -4.29178 0
M  V30 21659 H 2023.73 -2.40858 -3.50525 0
M  V30 21660 N 2022.04 1.0911 -1.13723 0
M  V30 21661 C 2023.27 1.85648 -0.924643 0
M  V30 21662 C 2023.69 1.80727 0.521458 0
M  V30 21663 O 2023.05 1.18712 1.3703 0
M  V30 21664 C 2023.1 3.31415 -1.42115 0
M  V30 21665 O 2022.2 4.07886 -0.608521 0
M  V30 21666 H 2021.54 0.575539 -0.331136 0
M  V30 21667 H 2024.07 1.37763 -1.5127 0
M  V30 21668 H 2024.08 3.82262 -1.42619 0
M  V30 21669 H 2022.76 3.34311 -2.47404 0
M  V30 21670 H 2021.33 3.66802 -0.671625 0
M  V30 21671 N 2023.52 0.931232 1.27145 0
M  V30 21672 C 2024.75 0.589956 1.98311 0
M  V30 21673 C 2025.16 -0.832836 1.69438 0
M  V30 21674 O 2024.52 -1.55399 0.956935 0
M  V30 21675 C 2024.57 0.810592 3.52295 0
M  V30 21676 O 2024.29 2.17741 3.80158 0
M  V30 21677 C 2025.79 0.478508 4.4071 0
M  V30 21678 H 2023.01 0.223234 0.632778 0
M  V30 21679 H 2025.56 1.24922 1.6191 0
M  V30 21680 H 2023.71 0.198081 3.86893 0
M  V30 21681 H 2024.12 2.23003 4.74731 0
M  V30 21682 H 2025.6 0.683566 5.47751 0
M  V30 21683 H 2026.08 -0.586102 4.35272 0
M  V30 21684 H 2026.68 1.06931 4.11638 0
M  V30 21685 N 2025 -1.41343 0.697132 0
M  V30 21686 C 2025.96 -2.29162 0.0417336 0
M  V30 21687 C 2026.96 -1.44455 -0.706353 0
M  V30 21688 O 2028.15 -1.65586 -0.54101 0
M  V30 21689 C 2025.28 -3.2736 -0.951235 0
M  V30 21690 H 2026.48 -2.88614 0.814974 0
M  V30 21691 H 2024.03 -1.49356 0.460717 0
M  V30 21692 H 2024.76 -2.7289 -1.75218 0
M  V30 21693 H 2024.55 -3.89866 -0.417931 0
M  V30 21694 H 2026.04 -3.93164 -1.40756 0
M  V30 21695 N 2026.48 -0.441993 -1.51275 0
M  V30 21696 C 2027.39 0.373145 -2.31613 0
M  V30 21697 C 2028.4 1.02333 -1.40726 0
M  V30 21698 O 2029.58 1.01768 -1.73796 0
M  V30 21699 C 2026.64 1.45705 -3.14597 0
M  V30 21700 C 2025.7 0.826508 -4.21269 0
M  V30 21701 C 2024.94 1.85876 -5.00286 0
M  V30 21702 O 2025.16 3.08159 -4.79994 0
M  V30 21703 O 2024.09 1.44671 -5.84255 0
M  V30 21704 H 2027.92 -0.282837 -3.0238 0
M  V30 21705 H 2025.5 -0.204432 -1.47995 0
M  V30 21706 H 2027.39 2.08556 -3.66172 0
M  V30 21707 H 2026.06 2.09703 -2.46589 0
M  V30 21708 H 2024.97 0.15982 -3.73758 0
M  V30 21709 H 2026.3 0.229942 -4.91663 0
M  V30 21710 N 2027.95 1.56642 -0.173515 0
M  V30 21711 C 2029.2 1.98012 0.465049 0
M  V30 21712 C 2029.55 1.0578 1.60712 0
M  V30 21713 O 2028.85 0.0979001 1.9135 0
M  V30 21714 C 2029.04 3.43315 0.993457 0
M  V30 21715 C 2028.87 4.49598 -0.0958779 0
M  V30 21716 C 2027.64 5.02338 -0.546281 0
M  V30 21717 C 2029.84 5.06416 -0.897069 0
M  V30 21718 N 2027.82 5.92257 -1.61569 0
M  V30 21719 C 2029.19 5.92797 -1.81636 0
M  V30 21720 C 2031.25 4.8891 -0.941903 0
M  V30 21721 C 2029.95 6.63545 -2.7767 0
M  V30 21722 C 2031.98 5.6038 -1.8902 0
M  V30 21723 C 2031.34 6.4649 -2.79696 0
M  V30 21724 H 2027.44 0.769689 0.138214 0
M  V30 21725 H 2030.02 1.92759 -0.274239 0
M  V30 21726 H 2028.19 3.4911 1.70226 0
M  V30 21727 H 2029.92 3.71693 1.60083 0
M  V30 21728 H 2026.68 4.73382 -0.143583 0
M  V30 21729 H 2027.1 6.41921 -2.15095 0
M  V30 21730 H 2031.74 4.22031 -0.254887 0
M  V30 21731 H 2029.46 7.29635 -3.47358 0
M  V30 21732 H 2033.05 5.48819 -1.93102 0
M  V30 21733 H 2031.93 7.00822 -3.51879 0
M  V30 21734 N 2029.43 -0.1002 1.57281 0
M  V30 21735 C 2030.68 -0.800727 1.86976 0
M  V30 21736 C 2031.03 -1.76594 0.763702 0
M  V30 21737 O 2030.33 -1.90157 -0.234742 0
M  V30 21738 C 2030.52 -1.57263 3.20941 0
M  V30 21739 C 2030.35 -0.683678 4.44473 0
M  V30 21740 C 2029.12 -0.331348 5.04212 0
M  V30 21741 C 2031.32 0.00708891 5.143 0
M  V30 21742 N 2029.3 0.566305 6.11282 0
M  V30 21743 C 2030.67 0.763007 6.15287 0
M  V30 21744 C 2032.72 0.0815442 4.97833 0
M  V30 21745 C 2031.43 1.58642 7.01588 0
M  V30 21746 C 2033.45 0.891836 5.84637 0
M  V30 21747 C 2032.82 1.63589 6.85141 0
M  V30 21748 H 2028.91 -0.269337 0.734154 0
M  V30 21749 H 2031.5 -0.0635031 1.94596 0
M  V30 21750 H 2029.67 -2.28077 3.14381 0
M  V30 21751 H 2031.4 -2.21996 3.38378 0
M  V30 21752 H 2028.16 -0.677856 4.68724 0
M  V30 21753 H 2028.58 1.00753 6.69461 0
M  V30 21754 H 2033.22 -0.479359 4.20074 0
M  V30 21755 H 2030.94 2.1584 7.78742 0
M  V30 21756 H 2034.53 0.952052 5.73957 0
M  V30 21757 H 2033.41 2.25279 7.51145 0
M  V30 21758 N 2030.91 -1.53174 -0.370891 0
M  V30 21759 C 2031.87 -1.7857 -1.43685 0
M  V30 21760 C 2032.87 -0.656018 -1.4681 0
M  V30 21761 O 2034.06 -0.924191 -1.47663 0
M  V30 21762 C 2031.19 -1.90295 -2.82844 0
M  V30 21763 H 2032.39 -2.73766 -1.22442 0
M  V30 21764 H 2029.94 -1.4417 -0.603713 0
M  V30 21765 H 2030.68 -0.971472 -3.09407 0
M  V30 21766 H 2030.46 -2.72456 -2.81975 0
M  V30 21767 H 2031.95 -2.11554 -3.60048 0
M  V30 21768 N 2032.39 0.630389 -1.44443 0
M  V30 21769 C 2033.8 0.948649 -1.28346 0
M  V30 21770 C 2034 2.00298 -0.219776 0
M  V30 21771 O 2033.06 2.49406 0.394082 0
M  V30 21772 C 2034.37 1.41121 -2.65528 0
M  V30 21773 C 2035.92 1.52665 -2.73244 0
M  V30 21774 C 2036.4 2.02305 -4.10897 0
M  V30 21775 N 2037.89 2.09574 -4.13077 0
M  V30 21776 C 2038.62 2.49156 -5.16439 0
M  V30 21777 N 2038.12 2.87869 -6.30161 0
M  V30 21778 N 2039.91 2.49296 -5.03794 0
M  V30 21779 H 2032.06 -0.0668759 -2.12295 0
M  V30 21780 H 2034.32 0.032708 -0.947436 0
M  V30 21781 H 2034.03 0.710811 -3.44442 0
M  V30 21782 H 2033.9 2.38208 -2.92466 0
M  V30 21783 H 2036.29 2.21802 -1.94648 0
M  V30 21784 H 2036.37 0.539516 -2.50046 0
M  V30 21785 H 2036.02 1.33763 -4.89969 0
M  V30 21786 H 2035.95 3.01892 -4.31473 0
M  V30 21787 H 2038.44 1.82338 -3.31001 0
M  V30 21788 H 2038.75 3.16887 -7.04842 0
M  V30 21789 H 2037.1 2.85619 -6.33598 0
M  V30 21790 H 2040.29 2.18443 -4.14005 0
M  V30 21791 H 2040.46 2.79819 -5.8447 0
M  V30 21792 N 2033.87 1.31354 0.870861 0
M  V30 21793 C 2034.78 1.20887 2.01056 0
M  V30 21794 C 2035.79 0.125768 1.73545 0
M  V30 21795 O 2036.97 0.3434 1.98451 0
M  V30 21796 C 2034.03 0.915879 3.34384 0
M  V30 21797 C 2033.09 2.08579 3.75225 0
M  V30 21798 C 2032.33 1.80668 5.0219 0
M  V30 21799 O 2032.55 0.741377 5.65561 0
M  V30 21800 O 2031.48 2.66319 5.39776 0
M  V30 21801 H 2035.31 2.16661 2.12819 0
M  V30 21802 H 2032.89 1.11084 0.999031 0
M  V30 21803 H 2034.78 0.768289 4.14337 0
M  V30 21804 H 2033.45 -0.0118355 3.23698 0
M  V30 21805 H 2032.36 2.28877 2.95916 0
M  V30 21806 H 2033.69 2.99572 3.90535 0
M  V30 21807 N 2035.34 -1.08505 1.143 0
M  V30 21808 C 2036.59 -1.80248 0.90519 0
M  V30 21809 C 2036.91 -1.87116 -0.56981 0
M  V30 21810 O 2038.11 -2.55262 -0.924844 0
M  V30 21811 C 2036.57 -3.23851 1.56998 0
M  V30 21812 C 2036.18 -3.2522 3.08117 0
M  V30 21813 C 2037.92 -4.00284 1.41325 0
M  V30 21814 C 2035.83 -4.63405 3.67437 0
M  V30 21815 H 2034.76 -0.67549 0.335007 0
M  V30 21816 H 2037.41 -1.21877 1.3718 0
M  V30 21817 H 2035.79 -3.82342 1.03104 0
M  V30 21818 H 2036.96 -2.76441 3.68669 0
M  V30 21819 H 2035.28 -2.62281 3.23415 0
M  V30 21820 H 2037.88 -5.02393 1.83046 0
M  V30 21821 H 2038.22 -4.14747 0.359236 0
M  V30 21822 H 2038.75 -3.4826 1.9225 0
M  V30 21823 H 2035.49 -4.54145 4.72686 0
M  V30 21824 H 2035.01 -5.1247 3.11665 0
M  V30 21825 H 2036.69 -5.3238 3.6767 0
M  V30 21826 N 2036.82 -0.937962 -1.26649 0
M  V30 21827 C 2038.07 -0.584683 -1.94189 0
M  V30 21828 C 2038.4 0.873516 -1.73446 0
M  V30 21829 O 2037.68 1.62451 -1.06957 0
M  V30 21830 C 2037.96 -0.923855 -3.48047 0
M  V30 21831 C 2037.81 -2.43656 -3.7809 0
M  V30 21832 C 2039.13 -0.436986 -4.37925 0
M  V30 21833 H 2036.25 -0.213892 -0.70528 0
M  V30 21834 H 2038.89 -1.1716 -1.49578 0
M  V30 21835 H 2037.04 -0.424389 -3.86175 0
M  V30 21836 H 2038.71 -3.00851 -3.49695 0
M  V30 21837 H 2036.96 -2.88141 -3.2428 0
M  V30 21838 H 2037.63 -2.62439 -4.85623 0
M  V30 21839 H 2040.1 -0.865189 -4.07006 0
M  V30 21840 H 2038.98 -0.703159 -5.44378 0
M  V30 21841 H 2039.24 0.663042 -4.371 0
M  V30 21842 N 2038.3 1.40971 -0.704618 0
M  V30 21843 C 2039.58 1.94885 -0.167059 0
M  V30 21844 C 2039.96 1.64346 1.3249 0
M  V30 21845 O 2039.3 0.955268 2.07574 0
M  V30 21846 C 2039.51 3.45847 -0.468035 0
M  V30 21847 C 2040.86 4.22705 -0.400704 0
M  V30 21848 O 2041.89 3.53908 -0.403464 0
M  V30 21849 O 2040.75 5.45255 -0.368676 0
M  V30 21850 H 2037.84 0.826752 -0.0202699 0
M  V30 21851 H 2040.39 1.50639 -0.7814 0
M  V30 21852 H 2039.16 3.61392 -1.50038 0
M  V30 21853 H 2038.78 3.97207 0.176823 0
M  V30 21854 N 2039.78 0.45001 1.51039 0
M  V30 21855 C 2041.03 -0.11219 2.02189 0
M  V30 21856 C 2041.35 -1.416 1.3334 0
M  V30 21857 O 2040.61 -1.90663 0.44113 0
M  V30 21858 C 2040.91 -0.365449 3.55527 0
M  V30 21859 C 2040.57 0.854084 4.42737 0
M  V30 21860 C 2039.24 1.1885 4.66292 0
M  V30 21861 C 2041.59 1.66705 4.93821 0
M  V30 21862 C 2038.92 2.33632 5.38176 0
M  V30 21863 C 2041.27 2.80597 5.66964 0
M  V30 21864 C 2039.93 3.14478 5.88778 0
M  V30 21865 H 2039.2 -0.0410534 0.739862 0
M  V30 21866 H 2041.85 0.599793 1.81865 0
M  V30 21867 H 2040.15 -1.15946 3.74251 0
M  V30 21868 H 2041.85 -0.81407 3.9265 0
M  V30 21869 H 2038.44 0.583517 4.24609 0
M  V30 21870 H 2042.62 1.42189 4.75496 0
M  V30 21871 H 2037.88 2.60181 5.53277 0
M  V30 21872 H 2042.05 3.43952 6.05533 0
M  V30 21873 H 2039.68 4.0353 6.44257 0
M  V30 21874 N 2041.26 -1.56548 0.18182 0
M  V30 21875 C 2042.49 -2.01282 -0.465719 0
M  V30 21876 C 2042.89 -1.06114 -1.56641 0
M  V30 21877 O 2042.24 -0.0558759 -1.83615 0
M  V30 21878 C 2042.3 -3.42432 -1.09454 0
M  V30 21879 C 2041.96 -4.56803 -0.134223 0
M  V30 21880 C 2042.96 -5.15803 0.651409 0
M  V30 21881 C 2040.65 -5.02293 -0.026997 0
M  V30 21882 C 2042.64 -6.18731 1.53137 0
M  V30 21883 C 2040.33 -6.05068 0.856532 0
M  V30 21884 C 2041.32 -6.63159 1.63429 0
M  V30 21885 O 2041.01 -7.63939 2.50303 0
M  V30 21886 H 2040.74 -0.664789 -0.122603 0
M  V30 21887 H 2043.3 -2.0343 0.283825 0
M  V30 21888 H 2041.53 -3.3723 -1.89242 0
M  V30 21889 H 2043.22 -3.71056 -1.64536 0
M  V30 21890 H 2043.98 -4.81534 0.5788 0
M  V30 21891 H 2039.86 -4.56782 -0.622173 0
M  V30 21892 H 2043.41 -6.64001 2.13888 0
M  V30 21893 H 2039.3 -6.38761 0.930305 0
M  V30 21894 H 2040.07 -7.81305 2.43935 0
M  V30 21895 N 2042.73 0.0918577 -1.57332 0
M  V30 21896 C 2043.68 1.13005 -2.03304 0
M  V30 21897 C 2044.68 1.4128 -0.934688 0
M  V30 21898 O 2045.88 1.40923 -1.11986 0
M  V30 21899 H 2042.26 0.381664 -0.647948 0
M  V30 21900 H 2044.23 0.716022 -2.89682 0
M  V30 21901 C 2042.98 2.44114 -2.47595 0
M  V30 21902 H 2042.3 2.23203 -3.31694 0
M  V30 21903 H 2043.74 3.15252 -2.83535 0
M  V30 21904 C 2042.2 3.08644 -1.35057 0
M  V30 21905 O 2042.73 3.95877 -0.681498 0
M  V30 21906 N 2040.94 2.68946 -1.10074 0
M  V30 21907 H 2040.48 1.98101 -1.64662 0
M  V30 21908 H 2040.44 3.12448 -0.349761 0
M  V30 21909 N 2044.21 1.53368 0.362763 0
M  V30 21910 C 2045.12 1.82969 1.46832 0
M  V30 21911 C 2046.14 0.718285 1.58482 0
M  V30 21912 O 2047.31 1.00863 1.74323 0
M  V30 21913 C 2044.38 2.01596 2.82064 0
M  V30 21914 C 2043.44 3.25491 2.79918 0
M  V30 21915 C 2042.67 3.4322 4.087 0
M  V30 21916 O 2042.9 2.65185 5.05008 0
M  V30 21917 O 2041.83 4.36585 4.1434 0
M  V30 21918 H 2045.66 2.769 1.24741 0
M  V30 21919 H 2043.24 1.38783 0.553131 0
M  V30 21920 H 2045.12 2.15403 3.62187 0
M  V30 21921 H 2043.8 1.10854 3.04127 0
M  V30 21922 H 2042.71 3.17105 1.98483 0
M  V30 21923 H 2044.04 4.16164 2.62809 0
M  V30 21924 N 2045.69 -0.62272 1.44776 0
M  V30 21925 C 2046.64 -1.73427 1.52288 0
M  V30 21926 C 2047.61 -1.61928 0.369917 0
M  V30 21927 O 2048.79 -1.81729 0.581308 0
M  V30 21928 C 2045.93 -3.117 1.48112 0
M  V30 21929 C 2045.05 -3.34114 2.73847 0
M  V30 21930 C 2044.18 -4.62407 2.61445 0
M  V30 21931 C 2043.22 -4.78027 3.82304 0
M  V30 21932 N 2042.36 -5.97605 3.68528 0
M  V30 21933 H 2047.2 -1.66341 2.47254 0
M  V30 21934 H 2044.73 -0.811311 1.22704 0
M  V30 21935 H 2046.69 -3.91678 1.4368 0
M  V30 21936 H 2045.32 -3.1778 0.567076 0
M  V30 21937 H 2044.37 -2.48017 2.8843 0
M  V30 21938 H 2045.69 -3.41533 3.63533 0
M  V30 21939 H 2044.84 -5.50558 2.54894 0
M  V30 21940 H 2043.58 -4.5736 1.69333 0
M  V30 21941 H 2042.58 -3.88303 3.89231 0
M  V30 21942 H 2043.81 -4.84883 4.75464 0
M  V30 21943 H 2041.75 -5.93631 2.79173 0
M  V30 21944 H 2041.67 -6.06118 4.51838 0
M  V30 21945 H 2042.94 -6.88295 3.65883 0
M  V30 21946 N 2047.17 -1.31814 -0.863883 0
M  V30 21947 C 2048.1 -1.14307 -1.97507 0
M  V30 21948 C 2049.08 -0.0449482 -1.62538 0
M  V30 21949 O 2050.26 -0.202523 -1.87409 0
M  V30 21950 C 2047.39 -0.74789 -3.3034 0
M  V30 21951 C 2046.44 -1.84993 -3.84291 0
M  V30 21952 S 2047.27 -3.45653 -4.09004 0
M  V30 21953 C 2048.43 -3.08085 -5.44825 0
M  V30 21954 H 2048.66 -2.08375 -2.12054 0
M  V30 21955 H 2046.19 -1.16369 -1.01478 0
M  V30 21956 H 2048.15 -0.52664 -4.07108 0
M  V30 21957 H 2046.81 0.173775 -3.13619 0
M  V30 21958 H 2046 -1.5262 -4.80337 0
M  V30 21959 H 2045.61 -2.02655 -3.14336 0
M  V30 21960 H 2047.9 -2.57356 -6.26717 0
M  V30 21961 H 2048.84 -4.03117 -5.82153 0
M  V30 21962 H 2049.25 -2.45359 -5.08389 0
M  V30 21963 N 2048.65 1.07897 -1.14873 0
M  V30 21964 C 2049.59 2.14955 -0.840422 0
M  V30 21965 C 2050.56 1.64839 0.204277 0
M  V30 21966 O 2051.75 1.9066 0.0730523 0
M  V30 21967 C 2048.89 3.43521 -0.329768 0
M  V30 21968 C 2048 4.07456 -1.43538 0
M  V30 21969 C 2047.14 5.23836 -0.881432 0
M  V30 21970 C 2046.18 5.79723 -1.96437 0
M  V30 21971 N 2045.31 6.87441 -1.42721 0
M  V30 21972 H 2050.15 2.40669 -1.75734 0
M  V30 21973 H 2047.69 1.18102 -0.876944 0
M  V30 21974 H 2049.65 4.17197 -0.01545 0
M  V30 21975 H 2048.28 3.18076 0.550246 0
M  V30 21976 H 2047.33 3.31489 -1.86599 0
M  V30 21977 H 2048.64 4.45007 -2.25323 0
M  V30 21978 H 2047.8 6.04473 -0.519325 0
M  V30 21979 H 2046.53 4.87689 -0.0326916 0
M  V30 21980 H 2045.54 4.97736 -2.33536 0
M  V30 21981 H 2046.76 6.17927 -2.81678 0
M  V30 21982 H 2044.71 6.53244 -0.600731 0
M  V30 21983 H 2044.63 7.23845 -2.18137 0
M  V30 21984 H 2045.9 7.71797 -1.09317 0
M  V30 21985 N 2050.12 0.944665 1.2615 0
M  V30 21986 C 2051.37 0.594093 1.93589 0
M  V30 21987 C 2051.7 -0.867382 1.74088 0
M  V30 21988 O 2050.95 -1.63636 1.07339 0
M  V30 21989 C 2051.25 0.886852 3.46222 0
M  V30 21990 C 2050.92 2.33276 3.85867 0
M  V30 21991 C 2049.58 2.72801 3.964 0
M  V30 21992 C 2051.93 3.27224 4.05677 0
M  V30 21993 C 2049.26 4.05362 4.24144 0
M  V30 21994 C 2051.61 4.59386 4.34911 0
M  V30 21995 C 2050.28 4.98721 4.4366 0
M  V30 21996 H 2049.55 0.217394 0.708393 0
M  V30 21997 H 2052.19 1.19183 1.49892 0
M  V30 21998 H 2050.5 0.206616 3.91255 0
M  V30 21999 H 2052.2 0.594328 3.96571 0
M  V30 22000 H 2048.79 2.01619 3.78216 0
M  V30 22001 H 2052.97 2.97883 3.96963 0
M  V30 22002 H 2048.23 4.35496 4.29131 0
M  V30 22003 H 2052.4 5.32171 4.49185 0
M  V30 22004 H 2050.03 6.01466 4.64911 0
M  V30 22005 N 2051.6 -1.40596 0.712085 0
M  V30 22006 C 2052.88 -1.94794 0.177392 0
M  V30 22007 C 2053.26 -1.65047 -1.31616 0
M  V30 22008 O 2052.61 -0.966262 -2.07064 0
M  V30 22009 C 2052.82 -3.45594 0.486369 0
M  V30 22010 C 2054.17 -4.22487 0.423115 0
M  V30 22011 O 2055.19 -3.53689 0.422227 0
M  V30 22012 O 2054.05 -5.45052 0.397587 0
M  V30 22013 H 2051.14 -0.826632 0.0246541 0
M  V30 22014 H 2053.69 -1.50223 0.789377 0
M  V30 22015 H 2052.46 -3.60591 1.51953 0
M  V30 22016 H 2052.08 -3.97295 -0.155756 0
M  V30 22017 N 2053.08 -0.458013 -1.50798 0
M  V30 22018 C 2054.33 0.101266 -2.01846 0
M  V30 22019 C 2054.65 1.41388 -1.34293 0
M  V30 22020 O 2053.92 1.89826 -0.484035 0
M  V30 22021 H 2052.5 0.0404137 -0.745906 0
M  V30 22022 H 2055.16 -0.605448 -1.85257 0
M  V30 22023 H 2054.26 0.262253 -3.10996 0
M  V30 22024 N 2054.56 1.56449 -0.190119 0
M  V30 22025 C 2055.49 2.21861 0.728019 0
M  V30 22026 C 2056.47 1.18012 1.22504 0
M  V30 22027 O 2057.66 1.46503 1.27478 0
M  V30 22028 C 2054.79 2.87407 1.94973 0
M  V30 22029 C 2053.74 3.97457 1.58782 0
M  V30 22030 C 2053.07 4.50144 2.88573 0
M  V30 22031 C 2054.37 5.16113 0.801535 0
M  V30 22032 H 2056.06 2.98842 0.182734 0
M  V30 22033 H 2053.61 1.4374 0.0864508 0
M  V30 22034 H 2055.56 3.31848 2.59721 0
M  V30 22035 H 2054.28 2.07824 2.51946 0
M  V30 22036 H 2052.94 3.537 0.96395 0
M  V30 22037 H 2052.59 3.67328 3.43626 0
M  V30 22038 H 2052.29 5.24398 2.65105 0
M  V30 22039 H 2053.81 4.97283 3.54318 0
M  V30 22040 H 2055.23 5.5713 1.35201 0
M  V30 22041 H 2053.62 5.96402 0.66517 0
M  V30 22042 H 2054.69 4.84494 -0.198407 0
M  V30 22043 N 2056.04 -0.0835127 1.57379 0
M  V30 22044 C 2057.28 -0.78085 1.87814 0
M  V30 22045 C 2057.64 -1.75774 0.782389 0
M  V30 22046 O 2056.93 -1.90395 -0.21456 0
M  V30 22047 C 2057.13 -1.53851 3.22591 0
M  V30 22048 C 2056.95 -0.636497 4.45173 0
M  V30 22049 C 2055.72 -0.277851 5.04536 0
M  V30 22050 C 2057.92 0.0616369 5.14263 0
M  V30 22051 N 2055.9 0.631107 6.10647 0
M  V30 22052 C 2057.28 0.828223 6.14443 0
M  V30 22053 C 2059.33 0.134342 4.97719 0
M  V30 22054 C 2058.03 1.66074 6.99866 0
M  V30 22055 C 2060.06 0.953795 5.83658 0
M  V30 22056 C 2059.42 1.70846 6.83367 0
M  V30 22057 H 2055.52 -0.261535 0.736969 0
M  V30 22058 H 2058.1 -0.0428599 1.94653 0
M  V30 22059 H 2056.28 -2.24729 3.16783 0
M  V30 22060 H 2058.01 -2.18394 3.40714 0
M  V30 22061 H 2054.76 -0.628104 4.69416 0
M  V30 22062 H 2055.19 1.07848 6.68354 0
M  V30 22063 H 2059.83 -0.434778 4.20559 0
M  V30 22064 H 2057.55 2.24088 7.76409 0
M  V30 22065 H 2061.13 1.01287 5.72915 0
M  V30 22066 H 2060.01 2.33234 7.48713 0
M  V30 22067 N 2057.52 -1.53558 -0.354624 0
M  V30 22068 C 2058.76 -1.69489 -1.09346 0
M  V30 22069 C 2059.08 -0.458936 -1.9014 0
M  V30 22070 O 2060.28 -0.498981 -2.66875 0
M  V30 22071 C 2058.74 -2.99663 -1.99324 0
M  V30 22072 C 2058.35 -4.30558 -1.2379 0
M  V30 22073 C 2060.09 -3.2496 -2.73132 0
M  V30 22074 C 2058 -5.51814 -2.12733 0
M  V30 22075 H 2056.93 -0.631535 -0.411922 0
M  V30 22076 H 2059.58 -1.80059 -0.353687 0
M  V30 22077 H 2057.96 -2.82922 -2.77076 0
M  V30 22078 H 2059.14 -4.57966 -0.51025 0
M  V30 22079 H 2057.45 -4.11789 -0.617973 0
M  V30 22080 H 2060.05 -4.12739 -3.39927 0
M  V30 22081 H 2060.39 -2.41491 -3.39099 0
M  V30 22082 H 2060.92 -3.42426 -2.02458 0
M  V30 22083 H 2057.66 -6.37793 -1.51327 0
M  V30 22084 H 2057.18 -5.28669 -2.83317 0
M  V30 22085 H 2058.86 -5.87028 -2.72041 0
M  V30 22086 N 2058.99 0.615033 -1.45104 0
M  V30 22087 C 2060.27 1.37409 -1.39206 0
M  V30 22088 C 2060.65 2.11018 -0.0588763 0
M  V30 22089 O 2060 2.07402 0.958997 0
M  V30 22090 C 2060.21 2.32712 -2.60089 0
M  V30 22091 C 2061.56 2.95549 -3.04854 0
M  V30 22092 O 2062.58 2.43035 -2.60408 0
M  V30 22093 O 2061.44 3.90854 -3.81963 0
M  V30 22094 H 2058.53 0.615766 -0.552052 0
M  V30 22095 H 2061.08 0.638743 -1.5722 0
M  V30 22096 H 2059.85 1.77529 -3.48711 0
M  V30 22097 H 2059.47 3.13639 -2.4437 0
M  V30 22098 N 2060.47 1.3227 0.85688 0
M  V30 22099 C 2061.4 1.15353 1.96898 0
M  V30 22100 C 2062.38 0.0535673 1.62512 0
M  V30 22101 O 2063.57 0.212459 1.87299 0
M  V30 22102 C 2060.69 0.765398 3.29938 0
M  V30 22103 C 2059.74 1.87028 3.83305 0
M  V30 22104 S 2060.57 3.47817 4.07165 0
M  V30 22105 C 2061.73 3.1097 5.43184 0
M  V30 22106 H 2061.96 2.09497 2.10946 0
M  V30 22107 H 2059.49 1.16905 1.00859 0
M  V30 22108 H 2061.45 0.548223 4.06823 0
M  V30 22109 H 2060.11 -0.157141 3.13707 0
M  V30 22110 H 2059.31 1.55165 4.7952 0
M  V30 22111 H 2058.91 2.04319 3.13257 0
M  V30 22112 H 2061.2 2.60676 6.25343 0
M  V30 22113 H 2062.14 4.06199 5.80007 0
M  V30 22114 H 2062.55 2.48051 5.07081 0
M  V30 22115 N 2061.95 -1.07287 1.15444 0
M  V30 22116 C 2062.9 -2.16605 0.847634 0
M  V30 22117 C 2063.89 -1.68449 -0.179217 0
M  V30 22118 O 2065.1 -1.79968 -0.0341862 0
M  V30 22119 H 2061.47 -0.706921 0.25645 0
M  V30 22120 H 2063.44 -2.397 1.77726 0
M  V30 22121 C 2062.19 -3.45893 0.354062 0
M  V30 22122 H 2061.52 -3.83333 1.1356 0
M  V30 22123 H 2062.96 -4.23626 0.178055 0
M  V30 22124 C 2061.41 -3.23966 -0.924544 0
M  V30 22125 O 2061.94 -3.48604 -1.99594 0
M  V30 22126 N 2060.15 -2.77449 -0.864314 0
M  V30 22127 H 2059.7 -2.57599 0.00774481 0
M  V30 22128 H 2059.66 -2.63157 -1.72034 0
M  V30 22129 N 2063.43 -0.951342 -1.25647 0
M  V30 22130 C 2064.34 -0.475416 -2.29732 0
M  V30 22131 C 2065.35 0.455617 -1.67929 0
M  V30 22132 O 2066.53 0.332666 -1.98634 0
M  V30 22133 C 2063.59 0.242274 -3.45852 0
M  V30 22134 C 2062.66 -0.726566 -4.23107 0
M  V30 22135 C 2061.89 -0.043031 -5.33683 0
M  V30 22136 O 2062.11 1.17196 -5.5823 0
M  V30 22137 O 2061.05 -0.726899 -5.97495 0
M  V30 22138 H 2064.87 -1.34027 -2.72526 0
M  V30 22139 H 2062.46 -0.717655 -1.31035 0
M  V30 22140 H 2064.34 0.646132 -4.16417 0
M  V30 22141 H 2063.01 1.08236 -3.05068 0
M  V30 22142 H 2061.92 -1.18057 -3.54984 0
M  V30 22143 H 2063.25 -1.53457 -4.67666 0
M  V30 22144 N 2064.91 1.40216 -0.719531 0
M  V30 22145 C 2066.32 1.83713 -0.33263 0
M  V30 22146 C 2066.67 1.60151 1.1334 0
M  V30 22147 O 2065.79 1.08447 1.87265 0
M  V30 22148 C 2066.39 3.335 -0.596947 0
M  V30 22149 C 2064.95 3.75475 -0.263712 0
M  V30 22150 C 2064.09 2.63387 -0.867341 0
M  V30 22151 H 2067.04 1.29428 -0.918378 0
M  V30 22152 H 2067.07 3.80255 0.136497 0
M  V30 22153 H 2066.58 3.50617 -1.66402 0
M  V30 22154 H 2064.68 3.63951 0.798139 0
M  V30 22155 H 2064.79 4.73421 -0.735465 0
M  V30 22156 H 2063.16 2.52985 -0.295091 0
M  V30 22157 H 2063.94 2.83315 -1.93876 0
M  V30 22158 N 2066.38 0.466004 1.50553 0
M  V30 22159 C 2067.61 -0.0908629 2.07201 0
M  V30 22160 C 2068.03 -1.33196 1.32817 0
M  V30 22161 O 2067.39 -1.77393 0.374341 0
M  V30 22162 C 2067.44 -0.362957 3.58769 0
M  V30 22163 O 2066.54 -1.44438 3.86279 0
M  V30 22164 H 2065.88 0.0107401 0.663913 0
M  V30 22165 H 2068.41 0.655585 1.93812 0
M  V30 22166 H 2068.42 -0.604965 4.0349 0
M  V30 22167 H 2067.1 0.543996 4.12327 0
M  V30 22168 H 2065.68 -1.19008 3.534 0
M  V30 22169 N 2067.86 -1.56346 0.198413 0
M  V30 22170 C 2069.09 -2.02502 -0.44809 0
M  V30 22171 C 2069.51 -1.07761 -1.54173 0
M  V30 22172 O 2068.87 -0.0616812 -1.81195 0
M  V30 22173 C 2068.92 -3.47073 -0.978394 0
M  V30 22174 O 2068.02 -3.55452 -2.09111 0
M  V30 22175 H 2067.36 -0.655753 -0.104324 0
M  V30 22176 H 2069.89 -2.02234 0.310265 0
M  V30 22177 H 2069.9 -3.86931 -1.29415 0
M  V30 22178 H 2068.58 -4.1552 -0.177819 0
M  V30 22179 H 2067.15 -3.27471 -1.78375 0
M  V30 22180 N 2069.34 0.0751653 -1.57421 0
M  V30 22181 C 2070.59 0.774958 -1.87085 0
M  V30 22182 C 2070.92 1.77747 -0.789691 0
M  V30 22183 O 2070.17 1.94519 0.214672 0
M  V30 22184 C 2070.47 1.52138 -3.23402 0
M  V30 22185 C 2070.14 0.659153 -4.46056 0
M  V30 22186 C 2068.8 0.421528 -4.7935 0
M  V30 22187 C 2071.15 0.0610407 -5.21164 0
M  V30 22188 C 2068.48 -0.423745 -5.85168 0
M  V30 22189 C 2070.83 -0.771668 -6.27876 0
M  V30 22190 C 2069.49 -1.0192 -6.59673 0
M  V30 22191 H 2068.76 0.283577 -0.684591 0
M  V30 22192 H 2071.41 0.0358311 -1.91466 0
M  V30 22193 H 2069.72 2.33261 -3.14796 0
M  V30 22194 H 2071.41 2.06757 -3.43588 0
M  V30 22195 H 2068 0.854487 -4.19996 0
M  V30 22196 H 2072.19 0.231747 -4.95759 0
M  V30 22197 H 2067.44 -0.6243 -6.08204 0
M  V30 22198 H 2071.62 -1.24188 -6.85237 0
M  V30 22199 H 2069.24 -1.67595 -7.41496 0
M  V30 22200 N 2070.82 1.53744 0.346476 0
M  V30 22201 C 2072.06 1.71103 1.08866 0
M  V30 22202 C 2072.4 0.47131 1.88394 0
M  V30 22203 O 2071.67 -0.531638 1.87093 0
M  V30 22204 C 2071.96 2.97273 2.03225 0
M  V30 22205 C 2071.81 4.31446 1.27179 0
M  V30 22206 C 2073.13 3.19105 3.03084 0
M  V30 22207 H 2070.25 0.622598 0.394387 0
M  V30 22208 H 2072.89 1.86412 0.367514 0
M  V30 22209 H 2071.04 2.84352 2.64719 0
M  V30 22210 H 2072.71 4.56212 0.683225 0
M  V30 22211 H 2070.95 4.29989 0.573773 0
M  V30 22212 H 2071.62 5.15901 1.96343 0
M  V30 22213 H 2074.1 3.31337 2.51704 0
M  V30 22214 H 2072.98 4.08786 3.66313 0
M  V30 22215 H 2073.24 2.35265 3.74303 0
M  V30 22216 N 2072.3 -0.607329 1.45428 0
M  V30 22217 C 2073.24 -1.73916 1.54454 0
M  V30 22218 C 2074.24 -1.64251 0.4145 0
M  V30 22219 O 2075.44 -1.70041 0.59042 0
M  V30 22220 H 2071.82 -0.574581 0.48514 0
M  V30 22221 H 2073.79 -1.6343 2.49666 0
M  V30 22222 C 2072.54 -3.12295 1.52863 0
M  V30 22223 H 2071.86 -3.20392 2.39142 0
M  V30 22224 H 2073.3 -3.91318 1.63236 0
M  V30 22225 C 2071.76 -3.35948 0.2531 0
M  V30 22226 O 2072.29 -3.96125 -0.666944 0
M  V30 22227 N 2070.5 -2.90219 0.148714 0
M  V30 22228 H 2070.04 -2.4143 0.898284 0
M  V30 22229 H 2070 -3.06419 -0.703907 0
M  V30 22230 N 2073.77 -1.32722 -0.849853 0
M  V30 22231 C 2075.02 -1.23312 -1.60121 0
M  V30 22232 C 2075.34 0.203882 -1.93931 0
M  V30 22233 O 2074.61 1.12986 -1.60035 0
M  V30 22234 H 2073.19 -0.453413 -0.593654 0
M  V30 22235 H 2075.86 -1.66305 -1.0163 0
M  V30 22236 H 2074.95 -1.81913 -2.53602 0
M  V30 22237 N 2075.25 1.06673 -1.16011 0
M  V30 22238 C 2076.48 1.83106 -0.963322 0
M  V30 22239 C 2076.9 1.82372 0.488451 0
M  V30 22240 O 2076.25 1.24012 1.33893 0
M  V30 22241 C 2076.3 3.29888 -1.47838 0
M  V30 22242 O 2076.02 3.30717 -2.87328 0
M  V30 22243 C 2077.53 4.23065 -1.32405 0
M  V30 22244 H 2074.75 0.577476 -0.341705 0
M  V30 22245 H 2077.29 1.34611 -1.53948 0
M  V30 22246 H 2075.44 3.75708 -0.944585 0
M  V30 22247 H 2075.86 4.22475 -3.1083 0
M  V30 22248 H 2077.33 5.24098 -1.73279 0
M  V30 22249 H 2077.81 4.38375 -0.269104 0
M  V30 22250 H 2078.42 3.83088 -1.84726 0
M  V30 22251 N 2076.73 0.957992 1.25141 0
M  V30 22252 C 2077.96 0.631888 1.97015 0
M  V30 22253 C 2078.37 -0.796708 1.71167 0
M  V30 22254 O 2077.73 -1.53335 0.989683 0
M  V30 22255 C 2077.78 0.885137 3.50496 0
M  V30 22256 O 2077.5 2.25756 3.75454 0
M  V30 22257 C 2079 0.571882 4.39596 0
M  V30 22258 H 2076.22 0.236606 0.6279 0
M  V30 22259 H 2078.77 1.28328 1.59224 0
M  V30 22260 H 2076.92 0.280102 3.86386 0
M  V30 22261 H 2077.34 2.33023 4.69894 0
M  V30 22262 H 2078.81 0.799598 5.46178 0
M  V30 22263 H 2079.29 -0.493643 4.36417 0
M  V30 22264 H 2079.89 1.15639 4.09277 0
M  V30 22265 N 2078.21 -1.39832 0.726957 0
M  V30 22266 C 2079.44 -2.04978 0.281383 0
M  V30 22267 C 2079.85 -1.54795 -1.08092 0
M  V30 22268 O 2079.21 -0.709375 -1.68149 0
M  V30 22269 C 2079.26 -3.60526 0.265184 0
M  V30 22270 O 2078.98 -4.0886 1.5737 0
M  V30 22271 C 2080.48 -4.4286 -0.197547 0
M  V30 22272 H 2077.7 -0.659374 0.124366 0
M  V30 22273 H 2080.25 -1.7903 0.988352 0
M  V30 22274 H 2078.4 -3.85403 -0.392835 0
M  V30 22275 H 2078.81 -5.03132 1.48183 0
M  V30 22276 H 2080.29 -5.51775 -0.157727 0
M  V30 22277 H 2080.77 -4.21288 -1.24149 0
M  V30 22278 H 2081.37 -4.23114 0.430611 0
M  V30 22279 N 2079.69 -0.473982 -1.50304 0
M  V30 22280 C 2080.63 0.332685 -2.30209 0
M  V30 22281 C 2081.63 0.987746 -1.37622 0
M  V30 22282 O 2082.83 0.918521 -1.548 0
M  V30 22283 H 2079.21 0.126129 -0.741347 0
M  V30 22284 H 2081.18 -0.361602 -2.96201 0
M  V30 22285 C 2079.93 1.40037 -3.18253 0
M  V30 22286 H 2079.25 0.905697 -3.89406 0
M  V30 22287 H 2080.69 1.93731 -3.77153 0
M  V30 22288 C 2079.15 2.40388 -2.36041 0
M  V30 22289 O 2079.68 3.45718 -2.04553 0
M  V30 22290 N 2077.89 2.12178 -1.98567 0
M  V30 22291 H 2077.43 1.26545 -2.24375 0
M  V30 22292 H 2077.39 2.79554 -1.43864 0
M  V30 22293 N 2081.16 1.56239 -0.206702 0
M  V30 22294 C 2082.1 2.16873 0.741546 0
M  V30 22295 C 2083.11 1.1337 1.16838 0
M  V30 22296 O 2084.3 1.40413 1.1021 0
M  V30 22297 C 2081.4 2.72544 2.01427 0
M  V30 22298 C 2080.57 4.01068 1.74538 0
M  V30 22299 C 2079.63 4.4145 2.86371 0
M  V30 22300 O 2078.66 5.08645 2.55479 0
M  V30 22301 N 2079.86 4.05908 4.14993 0
M  V30 22302 H 2082.62 2.98869 0.222965 0
M  V30 22303 H 2080.18 1.6188 -0.0251503 0
M  V30 22304 H 2082.18 2.96538 2.75404 0
M  V30 22305 H 2080.75 1.94935 2.44375 0
M  V30 22306 H 2079.97 3.85085 0.842806 0
M  V30 22307 H 2081.25 4.84939 1.53985 0
M  V30 22308 H 2080.65 3.51882 4.4294 0
M  V30 22309 H 2079.21 4.34827 4.85561 0
M  V30 22310 N 2082.64 -0.0668159 1.57458 0
M  V30 22311 C 2083.88 -0.77031 1.89329 0
M  V30 22312 C 2084.25 -1.7449 0.801069 0
M  V30 22313 O 2085.45 -2.49386 1.00299 0
M  V30 22314 C 2083.72 -1.45541 3.26424 0
M  V30 22315 S 2085.28 -2.19328 3.80054 0
M  V30 22316 H 2082.1 -0.256053 0.663293 0
M  V30 22317 H 2084.7 -0.026213 1.95482 0
M  V30 22318 H 2083.4 -0.732349 4.03813 0
M  V30 22319 H 2082.93 -2.23883 3.23481 0
M  V30 22320 H 2084.95 -3.45924 3.5574 0
M  V30 22321 N 2084.12 -1.53926 -0.338317 0
M  V30 22322 C 2085.54 -1.44306 -0.681751 0
M  V30 22323 C 2085.74 -0.604022 -1.92234 0
M  V30 22324 O 2084.79 -0.0970474 -2.52313 0
M  V30 22325 C 2086.11 -2.87854 -0.869513 0
M  V30 22326 C 2087.65 -2.97662 -0.967798 0
M  V30 22327 C 2088.13 -4.42328 -1.18784 0
M  V30 22328 N 2089.62 -4.45877 -1.25492 0
M  V30 22329 C 2090.36 -5.54952 -1.44278 0
M  V30 22330 N 2089.85 -6.74023 -1.60203 0
M  V30 22331 N 2091.64 -5.42574 -1.46868 0
M  V30 22332 H 2083.8 -2.06968 0.477289 0
M  V30 22333 H 2086.06 -0.935793 0.15164 0
M  V30 22334 H 2085.76 -3.51688 -0.0293745 0
M  V30 22335 H 2085.64 -3.33108 -1.76971 0
M  V30 22336 H 2088.03 -2.33965 -1.79845 0
M  V30 22337 H 2088.11 -2.55761 -0.0443848 0
M  V30 22338 H 2087.75 -5.06608 -0.362091 0
M  V30 22339 H 2087.68 -4.81825 -2.1249 0
M  V30 22340 H 2090.17 -3.60076 -1.14688 0
M  V30 22341 H 2090.48 -7.52913 -1.74188 0
M  V30 22342 H 2088.83 -6.76958 -1.57329 0
M  V30 22343 H 2092.02 -4.48507 -1.34012 0
M  V30 22344 H 2092.19 -6.27638 -1.61167 0
M  V30 22345 N 2085.6 0.599608 -1.45748 0
M  V30 22346 C 2086.55 1.73095 -1.55374 0
M  V30 22347 C 2087.54 1.64028 -0.423205 0
M  V30 22348 O 2088.75 1.69726 -0.599429 0
M  V30 22349 H 2085.12 0.572 -0.48818 0
M  V30 22350 H 2087.09 1.62104 -2.50529 0
M  V30 22351 C 2085.84 3.1148 -1.54517 0
M  V30 22352 H 2085.17 3.19119 -2.40838 0
M  V30 22353 H 2086.61 3.90447 -1.65309 0
M  V30 22354 C 2085.06 3.35809 -0.270913 0
M  V30 22355 O 2085.59 3.96473 0.645927 0
M  V30 22356 N 2083.8 2.90136 -0.164103 0
M  V30 22357 H 2083.35 2.40951 -0.911075 0
M  V30 22358 H 2083.31 3.06788 0.687647 0
M  V30 22359 N 2087.08 1.33171 0.842803 0
M  V30 22360 C 2088.35 1.15008 1.58216 0
M  V30 22361 C 2088.73 -0.285047 2.09167 0
M  V30 22362 O 2088.08 -1.28349 1.89047 0
M  V30 22363 C 2088.29 2.18785 2.71908 0
M  V30 22364 C 2089.64 2.52736 3.41188 0
M  V30 22365 O 2090.66 2.17422 2.82146 0
M  V30 22366 O 2089.52 3.13321 4.47763 0
M  V30 22367 H 2086.62 0.444573 0.69734 0
M  V30 22368 H 2089.16 1.44741 0.8859 0
M  V30 22369 H 2087.94 3.15201 2.31871 0
M  V30 22370 H 2087.56 1.90116 3.49202 0
M  V30 22371 N 2088.56 -1.06056 1.16576 0
M  V30 22372 C 2089.47 -2.17107 0.888912 0
M  V30 22373 C 2090.48 -1.73438 -0.139723 0
M  V30 22374 O 2091.66 -2.01365 0.0374846 0
M  V30 22375 C 2088.72 -3.44425 0.396494 0
M  V30 22376 C 2087.78 -4.02589 1.49065 0
M  V30 22377 C 2087.02 -5.2383 1.02163 0
M  V30 22378 O 2087.24 -5.70257 -0.127684 0
M  V30 22379 O 2086.17 -5.7401 1.81098 0
M  V30 22380 H 2090 -2.43304 1.81761 0
M  V30 22381 H 2087.58 -1.1564 0.945923 0
M  V30 22382 H 2089.47 -4.21203 0.128983 0
M  V30 22383 H 2088.14 -3.1975 -0.504164 0
M  V30 22384 H 2087.05 -3.27292 1.81193 0
M  V30 22385 H 2088.38 -4.31565 2.3667 0
M  V30 22386 N 2090.03 -0.964615 -1.24631 0
M  V30 22387 C 2090.96 -0.511091 -2.27838 0
M  V30 22388 C 2091.94 0.447692 -1.64103 0
M  V30 22389 O 2093.13 0.344485 -1.9112 0
M  V30 22390 C 2090.26 0.202467 -3.46709 0
M  V30 22391 C 2089.21 -0.672032 -4.22691 0
M  V30 22392 C 2088.54 0.172842 -5.34421 0
M  V30 22393 C 2089.84 -1.9551 -4.84327 0
M  V30 22394 H 2091.53 -1.37371 -2.66025 0
M  V30 22395 H 2089.08 -0.661983 -1.27882 0
M  V30 22396 H 2091.03 0.530942 -4.18042 0
M  V30 22397 H 2089.76 1.09942 -3.07539 0
M  V30 22398 H 2088.42 -0.983734 -3.53155 0
M  V30 22399 H 2088.06 1.06985 -4.91491 0
M  V30 22400 H 2087.76 -0.409046 -5.86175 0
M  V30 22401 H 2089.29 0.496057 -6.08582 0
M  V30 22402 H 2090.7 -1.69241 -5.4775 0
M  V30 22403 H 2089.1 -2.48346 -5.46301 0
M  V30 22404 H 2090.17 -2.65197 -4.05954 0
M  V30 22405 N 2091.51 1.39445 -0.734362 0
M  V30 22406 C 2092.46 2.32452 -0.0830804 0
M  V30 22407 C 2093.45 1.53028 0.726556 0
M  V30 22408 O 2094.66 1.68697 0.627813 0
M  V30 22409 H 2091.03 0.751957 -0.00806559 0
M  V30 22410 H 2093.01 2.85008 -0.883901 0
M  V30 22411 C 2091.75 3.38121 0.810522 0
M  V30 22412 H 2091.08 3.99315 0.196919 0
M  V30 22413 H 2092.52 4.0565 1.23385 0
M  V30 22414 C 2090.98 2.75118 1.94453 0
M  V30 22415 O 2091.51 2.62913 3.0371 0
M  V30 22416 N 2089.71 2.33215 1.73376 0
M  V30 22417 H 2089.26 2.43341 0.845144 0
M  V30 22418 H 2089.22 1.914 2.49426 0
M  V30 22419 N 2092.99 0.481946 1.5005 0
M  V30 22420 C 2094.22 -0.0665508 2.06493 0
M  V30 22421 C 2094.63 -1.3309 1.34476 0
M  V30 22422 O 2093.97 -1.79046 0.410882 0
M  V30 22423 C 2094.03 -0.409721 3.57158 0
M  V30 22424 C 2093.7 0.754158 4.50734 0
M  V30 22425 C 2094.69 1.63929 4.93379 0
M  V30 22426 C 2092.38 0.947563 4.93281 0
M  V30 22427 C 2094.37 2.70214 5.77289 0
M  V30 22428 C 2092.06 2.01362 5.76972 0
M  V30 22429 C 2093.06 2.88927 6.18878 0
M  V30 22430 O 2092.75 3.93695 7.00899 0
M  V30 22431 H 2092.48 0.00864043 0.675945 0
M  V30 22432 H 2095.03 0.672929 1.94064 0
M  V30 22433 H 2093.26 -1.20254 3.67527 0
M  V30 22434 H 2094.95 -0.894578 3.95919 0
M  V30 22435 H 2095.72 1.5016 4.61169 0
M  V30 22436 H 2091.6 0.275431 4.60176 0
M  V30 22437 H 2095.14 3.38592 6.09919 0
M  V30 22438 H 2091.04 2.15133 6.08595 0
M  V30 22439 H 2091.8 3.90816 7.1917 0
M  V30 22440 N 2094.47 -1.56127 0.214985 0
M  V30 22441 C 2095.88 -1.8437 -0.294058 0
M  V30 22442 C 2096.23 -1.13621 -1.59952 0
M  V30 22443 O 2095.35 -0.403663 -2.12602 0
M  V30 22444 C 2095.95 -3.34464 -0.540311 0
M  V30 22445 C 2094.51 -3.63047 -0.993677 0
M  V30 22446 C 2093.66 -2.77249 -0.0531319 0
M  V30 22447 H 2096.61 -1.52527 0.43833 0
M  V30 22448 H 2096.63 -3.54314 -1.38716 0
M  V30 22449 H 2096.14 -3.85928 0.409992 0
M  V30 22450 H 2094.24 -3.17033 -1.95757 0
M  V30 22451 H 2094.35 -4.71086 -0.872629 0
M  V30 22452 H 2092.72 -2.48496 -0.558718 0
M  V30 22453 H 2093.5 -3.3151 0.891971 0
M  V30 22454 N 2095.95 0.0584645 -1.57492 0
M  V30 22455 C 2097.36 0.608705 -1.76498 0
M  V30 22456 C 2097.71 1.77203 -0.84224 0
M  V30 22457 O 2096.83 2.1638 -0.0296265 0
M  V30 22458 C 2097.43 1.11101 -3.20066 0
M  V30 22459 C 2095.99 1.607 -3.40371 0
M  V30 22460 C 2095.13 0.532159 -2.72146 0
M  V30 22461 H 2098.08 -0.167741 -1.57811 0
M  V30 22462 H 2098.11 1.97943 -3.2496 0
M  V30 22463 H 2097.62 0.264112 -3.872 0
M  V30 22464 H 2095.72 2.47671 -2.7837 0
M  V30 22465 H 2095.83 1.67476 -4.48875 0
M  V30 22466 H 2094.2 0.980354 -2.35077 0
M  V30 22467 H 2094.98 -0.304774 -3.41944 0
M  V30 22468 N 2097.42 1.54103 0.330149 0
M  V30 22469 C 2098.65 1.75693 1.08699 0
M  V30 22470 C 2099.06 0.502371 1.82409 0
M  V30 22471 O 2098.4 -0.53629 1.75698 0
M  V30 22472 C 2098.47 2.89199 2.13551 0
M  V30 22473 C 2098.13 4.28338 1.59298 0
M  V30 22474 C 2099.13 5.09428 1.03823 0
M  V30 22475 C 2096.81 4.74863 1.6374 0
M  V30 22476 C 2098.81 6.3515 0.535098 0
M  V30 22477 C 2096.49 6.00554 1.1304 0
M  V30 22478 C 2097.49 6.80531 0.580184 0
M  V30 22479 O 2097.18 8.03859 0.0807823 0
M  V30 22480 H 2096.91 0.590289 0.329447 0
M  V30 22481 H 2099.47 2.01779 0.38398 0
M  V30 22482 H 2097.7 2.58669 2.87449 0
M  V30 22483 H 2099.38 2.98634 2.74905 0
M  V30 22484 H 2100.15 4.74641 0.997028 0
M  V30 22485 H 2096.03 4.1266 2.05506 0
M  V30 22486 H 2099.57 6.97521 0.104978 0
M  V30 22487 H 2095.47 6.34833 1.16865 0
M  V30 22488 H 2096.24 8.18263 0.196822 0
M  V30 22489 N 2098.9 -0.59187 1.46064 0
M  V30 22490 C 2100.15 -1.3504 1.50899 0
M  V30 22491 C 2100.48 -1.93865 0.156992 0
M  V30 22492 O 2099.73 -1.76455 -0.846284 0
M  V30 22493 C 2100.03 -2.50587 2.54835 0
M  V30 22494 C 2099.7 -2.09811 3.99111 0
M  V30 22495 C 2098.36 -1.98406 4.38393 0
M  V30 22496 C 2100.71 -1.78225 4.89781 0
M  V30 22497 C 2098.04 -1.53658 5.66221 0
M  V30 22498 C 2100.39 -1.34959 6.18036 0
M  V30 22499 C 2099.06 -1.22123 6.56233 0
M  V30 22500 H 2098.33 -0.494146 0.552178 0
M  V30 22501 H 2100.97 -0.667418 1.79493 0
M  V30 22502 H 2099.28 -3.24292 2.19868 0
M  V30 22503 H 2100.97 -3.08809 2.55809 0
M  V30 22504 H 2097.56 -2.1962 3.68056 0
M  V30 22505 H 2101.75 -1.85927 4.60158 0
M  V30 22506 H 2097 -1.42356 5.94596 0
M  V30 22507 H 2101.18 -1.09569 6.87726 0
M  V30 22508 H 2098.81 -0.872249 7.55179 0
M  V30 22509 N 2100.38 -1.33616 -0.835729 0
M  V30 22510 C 2101.79 -1.22666 -1.40748 0
M  V30 22511 C 2102.14 0.153155 -1.95601 0
M  V30 22512 O 2101.27 1.0529 -1.89058 0
M  V30 22513 C 2101.86 -2.22087 -2.55857 0
M  V30 22514 C 2100.42 -2.14967 -3.08976 0
M  V30 22515 C 2099.57 -2.09399 -1.81789 0
M  V30 22516 H 2102.52 -1.45169 -0.641222 0
M  V30 22517 H 2102.54 -1.83042 -3.3358 0
M  V30 22518 H 2102.05 -3.22502 -2.15903 0
M  V30 22519 H 2100.15 -1.17865 -3.53466 0
M  V30 22520 H 2100.27 -3.05652 -3.68936 0
M  V30 22521 H 2098.63 -1.54922 -2.02166 0
M  V30 22522 H 2099.41 -3.11626 -1.44027 0
M  V30 22523 N 2101.86 1.05436 -1.17136 0
M  V30 22524 C 2102.77 2.16633 -0.900413 0
M  V30 22525 C 2103.78 1.7351 0.130523 0
M  V30 22526 O 2104.96 2.01342 -0.0481629 0
M  V30 22527 C 2102.03 3.4421 -0.414754 0
M  V30 22528 C 2101.09 4.01793 -1.51198 0
M  V30 22529 C 2100.32 5.23281 -1.0494 0
M  V30 22530 O 2100.54 5.70317 0.0974405 0
M  V30 22531 O 2099.48 5.73041 -1.8414 0
M  V30 22532 H 2103.3 2.42336 -1.83049 0
M  V30 22533 H 2100.89 1.15137 -0.952042 0
M  V30 22534 H 2102.77 4.21128 -0.151319 0
M  V30 22535 H 2101.44 3.20013 0.487199 0
M  V30 22536 H 2100.35 3.26326 -1.82926 0
M  V30 22537 H 2101.68 4.30304 -2.38955 0
M  V30 22538 N 2103.34 0.971211 1.24118 0
M  V30 22539 C 2104.27 0.523167 2.27564 0
M  V30 22540 C 2105.25 -0.438983 1.64338 0
M  V30 22541 O 2106.43 -0.334345 1.913 0
M  V30 22542 C 2103.56 -0.184078 3.46812 0
M  V30 22543 C 2102.52 0.694439 4.22329 0
M  V30 22544 C 2101.84 -0.144498 5.34505 0
M  V30 22545 C 2103.14 1.98076 4.83284 0
M  V30 22546 H 2104.84 1.3878 2.65293 0
M  V30 22547 H 2102.38 0.668756 1.27529 0
M  V30 22548 H 2104.34 -0.508765 4.18318 0
M  V30 22549 H 2103.06 -1.08309 3.08118 0
M  V30 22550 H 2101.72 1.00245 3.52628 0
M  V30 22551 H 2101.37 -1.04377 4.92051 0
M  V30 22552 H 2101.07 0.440127 5.85949 0
M  V30 22553 H 2102.59 -0.463776 6.08836 0
M  V30 22554 H 2104 1.72143 5.46845 0
M  V30 22555 H 2102.4 2.5124 5.44976 0
M  V30 22556 H 2103.47 2.67346 4.04542 0
M  V30 22557 N 2104.81 -1.39054 0.741747 0
M  V30 22558 C 2106.04 -2.04668 0.303108 0
M  V30 22559 C 2106.46 -1.55933 -1.06444 0
M  V30 22560 O 2105.81 -0.72717 -1.67387 0
M  V30 22561 C 2105.87 -3.60224 0.303407 0
M  V30 22562 O 2105.59 -4.07167 1.61698 0
M  V30 22563 C 2107.09 -4.43044 -0.150565 0
M  V30 22564 H 2104.31 -0.658018 0.131353 0
M  V30 22565 H 2106.85 -1.77972 1.00729 0
M  V30 22566 H 2105.01 -3.85798 -0.351936 0
M  V30 22567 H 2105.42 -5.01532 1.53511 0
M  V30 22568 H 2106.89 -5.51911 -0.0991946 0
M  V30 22569 H 2107.37 -4.22581 -1.19674 0
M  V30 22570 H 2107.98 -4.22634 0.475463 0
M  V30 22571 N 2106.29 -0.489897 -1.49792 0
M  V30 22572 C 2107.24 0.294423 -2.28914 0
M  V30 22573 C 2108.21 0.970384 -1.34806 0
M  V30 22574 O 2109.39 0.979195 -1.63757 0
M  V30 22575 C 2106.53 1.35949 -3.17194 0
M  V30 22576 C 2105.65 0.696419 -4.2635 0
M  V30 22577 C 2104.78 1.74098 -5.0186 0
M  V30 22578 C 2103.82 1.05917 -6.02866 0
M  V30 22579 N 2102.96 2.04743 -6.71584 0
M  V30 22580 H 2107.8 -0.386562 -2.95482 0
M  V30 22581 H 2105.34 -0.202479 -1.457 0
M  V30 22582 H 2107.29 1.98886 -3.66743 0
M  V30 22583 H 2105.92 2.00938 -2.52633 0
M  V30 22584 H 2104.98 -0.0459714 -3.80372 0
M  V30 22585 H 2106.29 0.159163 -4.98546 0
M  V30 22586 H 2105.44 2.44568 -5.55222 0
M  V30 22587 H 2104.18 2.31207 -4.29412 0
M  V30 22588 H 2103.19 0.340189 -5.48747 0
M  V30 22589 H 2104.41 0.494725 -6.77296 0
M  V30 22590 H 2102.36 2.60835 -6.01915 0
M  V30 22591 H 2102.27 1.56053 -7.39718 0
M  V30 22592 H 2103.54 2.74536 -7.29555 0
M  V30 22593 N 2107.77 1.56011 -0.223262 0
M  V30 22594 C 2109.19 1.59052 0.132091 0
M  V30 22595 C 2109.39 1.2401 1.5882 0
M  V30 22596 O 2108.44 0.976155 2.32868 0
M  V30 22597 C 2109.76 3.00062 -0.195742 0
M  V30 22598 C 2111.3 3.12695 -0.138118 0
M  V30 22599 C 2111.78 4.55885 -0.439651 0
M  V30 22600 N 2113.27 4.61561 -0.389284 0
M  V30 22601 C 2114 5.70293 -0.596069 0
M  V30 22602 N 2113.5 6.87382 -0.86472 0
M  V30 22603 N 2115.29 5.59611 -0.528389 0
M  V30 22604 H 2107.44 1.77064 -1.17312 0
M  V30 22605 H 2109.71 0.823097 -0.470336 0
M  V30 22606 H 2109.41 3.3036 -1.20644 0
M  V30 22607 H 2109.29 3.74024 0.48845 0
M  V30 22608 H 2111.67 2.82192 0.863219 0
M  V30 22609 H 2111.76 2.41059 -0.855813 0
M  V30 22610 H 2111.4 4.87105 -1.43843 0
M  V30 22611 H 2111.33 5.25749 0.299255 0
M  V30 22612 H 2113.82 3.77425 -0.189406 0
M  V30 22613 H 2114.13 7.66164 -1.01056 0
M  V30 22614 H 2112.48 6.89123 -0.901933 0
M  V30 22615 H 2115.67 4.67014 -0.318724 0
M  V30 22616 H 2115.84 6.44284 -0.69295 0
M  V30 22617 N 2109.25 -0.0501116 1.5752 0
M  V30 22618 C 2110.48 -0.757437 1.92537 0
M  V30 22619 C 2110.89 -1.70005 0.821205 0
M  V30 22620 O 2110.25 -1.81356 -0.203983 0
M  V30 22621 C 2110.3 -1.53258 3.27405 0
M  V30 22622 O 2110.02 -0.627828 4.33578 0
M  V30 22623 C 2111.52 -2.33896 3.76573 0
M  V30 22624 H 2108.74 -0.21413 0.635916 0
M  V30 22625 H 2111.29 -0.01391 2.04495 0
M  V30 22626 H 2109.44 -2.22818 3.16909 0
M  V30 22627 H 2109.85 -1.16918 5.11303 0
M  V30 22628 H 2111.33 -2.83709 4.73511 0
M  V30 22629 H 2111.81 -3.14389 3.06685 0
M  V30 22630 H 2112.41 -1.69451 3.90085 0
M  V30 22631 N 2110.73 -1.54276 -0.321972 0
M  V30 22632 C 2112 -1.63209 -1.07806 0
M  V30 22633 C 2112.38 -0.466965 -2.0587 0
M  V30 22634 O 2111.73 0.538598 -2.22062 0
M  V30 22635 C 2111.94 -3.00279 -1.77858 0
M  V30 22636 C 2113.29 -3.5638 -2.30822 0
M  V30 22637 O 2114.31 -3.02594 -1.87923 0
M  V30 22638 O 2113.17 -4.50507 -3.09364 0
M  V30 22639 H 2110.27 -0.660982 -0.497023 0
M  V30 22640 H 2112.81 -1.66622 -0.321736 0
M  V30 22641 H 2111.58 -3.76518 -1.06537 0
M  V30 22642 H 2111.21 -3.00552 -2.60297 0
M  V30 22643 N 2112.2 0.584116 -1.46376 0
M  V30 22644 C 2113.45 1.33973 -1.51313 0
M  V30 22645 C 2113.77 1.94294 -0.165758 0
M  V30 22646 O 2113.04 1.78481 0.807546 0
M  V30 22647 H 2111.62 0.497422 -0.557298 0
M  V30 22648 H 2114.29 0.684191 -1.82496 0
M  V30 22649 H 2113.38 2.14716 -2.26503 0
M  V30 22650 N 2113.68 1.34058 0.828631 0
M  V30 22651 C 2114.61 1.278 1.95421 0
M  V30 22652 C 2115.59 0.156548 1.69378 0
M  V30 22653 O 2116.78 0.347987 1.91057 0
M  V30 22654 C 2113.91 1.02688 3.31772 0
M  V30 22655 C 2112.86 2.11238 3.7224 0
M  V30 22656 C 2112.19 1.71324 5.0651 0
M  V30 22657 C 2113.49 3.53014 3.84939 0
M  V30 22658 H 2115.18 2.21977 2.00914 0
M  V30 22659 H 2112.73 1.06859 0.965253 0
M  V30 22660 H 2114.68 0.969571 4.10094 0
M  V30 22661 H 2113.41 0.0495214 3.26562 0
M  V30 22662 H 2112.07 2.16029 2.96188 0
M  V30 22663 H 2111.71 0.722632 4.97782 0
M  V30 22664 H 2111.41 2.43972 5.34557 0
M  V30 22665 H 2112.94 1.67077 5.87297 0
M  V30 22666 H 2114.35 3.50667 4.53547 0
M  V30 22667 H 2112.75 4.24235 4.24434 0
M  V30 22668 H 2113.82 3.90772 2.87098 0
M  V30 22669 N 2115.16 -1.04814 1.17694 0
M  V30 22670 C 2116.11 -2.10947 0.865184 0
M  V30 22671 C 2117.1 -1.60084 -0.161881 0
M  V30 22672 O 2118.29 -1.76952 0.041095 0
M  V30 22673 C 2115.42 -3.41141 0.384442 0
M  V30 22674 C 2114.5 -3.98791 1.44315 0
M  V30 22675 N 2114.89 -4.30353 2.65762 0
M  V30 22676 C 2113.19 -4.26575 1.3019 0
M  V30 22677 C 2113.89 -4.76382 3.33818 0
M  V30 22678 N 2112.87 -4.76736 2.61197 0
M  V30 22679 H 2116.67 -2.33216 1.7885 0
M  V30 22680 H 2114.18 -1.22497 1.06622 0
M  V30 22681 H 2116.18 -4.16656 0.142634 0
M  V30 22682 H 2114.84 -3.20302 -0.532624 0
M  V30 22683 H 2115.85 -4.20234 3.02694 0
M  V30 22684 H 2112.53 -4.15102 0.446785 0
M  V30 22685 H 2113.92 -5.09885 4.37569 0
M  V30 22686 N 2116.64 -0.977779 -1.23601 0
M  V30 22687 C 2117.89 -0.645211 -1.91946 0
M  V30 22688 C 2118.21 0.82092 -1.76327 0
M  V30 22689 O 2117.47 1.60733 -1.1164 0
M  V30 22690 C 2117.77 -0.978335 -3.43749 0
M  V30 22691 C 2117.43 -2.43425 -3.79546 0
M  V30 22692 C 2116.1 -2.83215 -3.89028 0
M  V30 22693 C 2118.45 -3.37865 -3.96859 0
M  V30 22694 C 2115.78 -4.16465 -4.13248 0
M  V30 22695 C 2118.13 -4.70755 -4.22578 0
M  V30 22696 C 2116.79 -5.10308 -4.30281 0
M  V30 22697 H 2116.06 -0.236099 -0.70238 0
M  V30 22698 H 2118.71 -1.23115 -1.4668 0
M  V30 22699 H 2117.01 -0.310278 -3.90569 0
M  V30 22700 H 2118.71 -0.699263 -3.94856 0
M  V30 22701 H 2115.3 -2.11576 -3.72738 0
M  V30 22702 H 2119.49 -3.08303 -3.88926 0
M  V30 22703 H 2114.74 -4.4672 -4.17434 0
M  V30 22704 H 2118.92 -5.43893 -4.34918 0
M  V30 22705 H 2116.54 -6.13581 -4.48801 0
M  V30 22706 N 2118.12 1.38658 -0.749111 0
M  V30 22707 C 2119.53 1.53804 -0.426214 0
M  V30 22708 C 2119.73 1.7129 1.06122 0
M  V30 22709 O 2118.79 1.72138 1.84729 0
M  V30 22710 C 2120.1 2.7477 -1.22155 0
M  V30 22711 C 2121.65 2.88616 -1.21118 0
M  V30 22712 C 2122.13 4.12538 -1.98939 0
M  V30 22713 N 2123.62 4.19606 -1.96176 0
M  V30 22714 C 2124.35 5.14474 -2.53188 0
M  V30 22715 N 2123.85 6.15043 -3.18895 0
M  V30 22716 N 2125.64 5.06792 -2.43143 0
M  V30 22717 H 2117.79 1.25557 -1.71316 0
M  V30 22718 H 2120.05 0.609604 -0.726008 0
M  V30 22719 H 2119.76 2.68239 -2.27466 0
M  V30 22720 H 2119.63 3.67832 -0.835424 0
M  V30 22721 H 2122.02 2.94632 -0.166149 0
M  V30 22722 H 2122.1 1.96577 -1.63679 0
M  V30 22723 H 2121.75 4.07284 -3.03451 0
M  V30 22724 H 2121.68 5.03648 -1.53775 0
M  V30 22725 H 2124.17 3.47577 -1.4832 0
M  V30 22726 H 2124.48 6.83917 -3.59829 0
M  V30 22727 H 2122.83 6.15389 -3.22989 0
M  V30 22728 H 2126.02 4.27162 -1.91442 0
M  V30 22729 H 2126.19 5.80546 -2.87871 0
M  V30 22730 N 2119.6 0.497834 1.49531 0
M  V30 22731 C 2120.82 -0.0447105 2.06852 0
M  V30 22732 C 2121.24 -1.31106 1.35855 0
M  V30 22733 O 2120.6 -1.77218 0.435907 0
M  V30 22734 C 2120.65 -0.305505 3.60207 0
M  V30 22735 O 2120.37 0.910643 4.28531 0
M  V30 22736 C 2121.87 -0.892044 4.34232 0
M  V30 22737 H 2119.09 0.0190462 0.67073 0
M  V30 22738 H 2121.63 0.694284 1.92354 0
M  V30 22739 H 2119.79 -0.994475 3.74418 0
M  V30 22740 H 2120.2 0.67155 5.20183 0
M  V30 22741 H 2121.68 -1.02413 5.42416 0
M  V30 22742 H 2122.15 -1.88903 3.965 0
M  V30 22743 H 2122.76 -0.24064 4.24619 0
M  V30 22744 N 2121.07 -1.5589 0.231532 0
M  V30 22745 C 2122.32 -1.97737 -0.397859 0
M  V30 22746 C 2122.64 -1.12252 -1.60184 0
M  V30 22747 O 2123.84 -1.44042 -2.30139 0
M  V30 22748 C 2122.3 -3.518 -0.759238 0
M  V30 22749 C 2121.91 -4.46003 0.422484 0
M  V30 22750 C 2123.65 -4.02338 -1.35368 0
M  V30 22751 C 2121.56 -5.91388 0.0381149 0
M  V30 22752 H 2120.49 -0.738433 -0.152423 0
M  V30 22753 H 2123.14 -1.80521 0.329322 0
M  V30 22754 H 2121.52 -3.64654 -1.54412 0
M  V30 22755 H 2122.69 -4.44902 1.19996 0
M  V30 22756 H 2121.01 -4.05863 0.930821 0
M  V30 22757 H 2123.61 -5.08464 -1.65433 0
M  V30 22758 H 2123.95 -3.48776 -2.2729 0
M  V30 22759 H 2124.48 -3.92747 -0.632021 0
M  V30 22760 H 2121.22 -6.48954 0.924083 0
M  V30 22761 H 2120.74 -5.9566 -0.703473 0
M  V30 22762 H 2122.42 -6.45853 -0.385094 0
M  V30 22763 N 2122.55 0.0417572 -1.57545 0
M  V30 22764 C 2123.79 0.740092 -1.90531 0
M  V30 22765 C 2124.16 1.73194 -0.828727 0
M  V30 22766 O 2125.36 2.47759 -1.04254 0
M  V30 22767 C 2123.63 1.40329 -3.28698 0
M  V30 22768 S 2125.19 2.13254 -3.83495 0
M  V30 22769 H 2122 0.245468 -0.667283 0
M  V30 22770 H 2124.61 -0.00488991 -1.95499 0
M  V30 22771 H 2123.31 0.668013 -4.04927 0
M  V30 22772 H 2122.84 2.18709 -3.27002 0
M  V30 22773 H 2124.86 3.4022 -3.61199 0
M  V30 22774 N 2124.03 1.54445 0.313786 0
M  V30 22775 C 2124.96 1.79371 1.41072 0
M  V30 22776 C 2125.94 0.644191 1.49295 0
M  V30 22777 O 2127.12 0.882726 1.66554 0
M  V30 22778 C 2124.25 1.91902 2.7909 0
M  V30 22779 C 2123.3 3.14253 2.88352 0
M  V30 22780 S 2124.13 4.7263 2.51757 0
M  V30 22781 C 2125.29 4.8808 3.91828 0
M  V30 22782 H 2125.52 2.72131 1.19717 0
M  V30 22783 H 2123.05 1.45693 0.51118 0
M  V30 22784 H 2125.01 1.99807 3.58591 0
M  V30 22785 H 2123.67 1.00103 2.97722 0
M  V30 22786 H 2122.86 3.19785 3.89556 0
M  V30 22787 H 2122.47 3.04729 2.16833 0
M  V30 22788 H 2124.76 4.71317 4.86689 0
M  V30 22789 H 2125.7 5.90178 3.91274 0
M  V30 22790 H 2126.11 4.16316 3.81236 0
M  V30 22791 N 2125.51 -0.576345 1.46683 0
M  V30 22792 C 2126.42 -1.71268 1.60326 0
M  V30 22793 C 2127.43 -1.67059 0.486559 0
M  V30 22794 O 2128.61 -1.86852 0.75154 0
M  V30 22795 C 2125.67 -3.07775 1.5961 0
M  V30 22796 C 2124.74 -3.232 2.8256 0
M  V30 22797 C 2123.97 -4.53195 2.81869 0
M  V30 22798 O 2124.19 -5.37478 1.90979 0
M  V30 22799 O 2123.13 -4.72003 3.73493 0
M  V30 22800 H 2126.95 -1.62705 2.56439 0
M  V30 22801 H 2124.54 -0.744135 1.29549 0
M  V30 22802 H 2126.42 -3.89046 1.61929 0
M  V30 22803 H 2125.09 -3.16762 0.666583 0
M  V30 22804 H 2124 -2.41398 2.85793 0
M  V30 22805 H 2125.33 -3.19107 3.74742 0
M  V30 22806 N 2126.99 -1.34495 -0.82151 0
M  V30 22807 C 2127.95 -1.2608 -1.91407 0
M  V30 22808 C 2128.95 -0.175671 -1.59838 0
M  V30 22809 O 2130.14 -0.428389 -1.6885 0
M  V30 22810 C 2127.27 -0.9469 -3.27485 0
M  V30 22811 H 2128.46 -2.23212 -2.00291 0
M  V30 22812 H 2126.02 -1.18804 -1.01565 0
M  V30 22813 H 2126.75 0.0211878 -3.24293 0
M  V30 22814 H 2126.54 -1.73181 -3.51782 0
M  V30 22815 H 2128.03 -0.913228 -4.07492 0
M  V30 22816 N 2128.46 1.04188 -1.18248 0
M  V30 22817 C 2129.37 2.15666 -0.923339 0
M  V30 22818 C 2130.39 1.73638 0.112112 0
M  V30 22819 O 2131.57 2.0128 -0.0695153 0
M  V30 22820 C 2128.63 3.43751 -0.451239 0
M  V30 22821 C 2127.69 4.00167 -1.55451 0
M  V30 22822 C 2126.93 5.22139 -1.10484 0
M  V30 22823 O 2127.15 5.70388 0.0369453 0
M  V30 22824 O 2126.08 5.71056 -1.90207 0
M  V30 22825 H 2129.91 2.40381 -1.85609 0
M  V30 22826 H 2127.49 1.14121 -0.9642 0
M  V30 22827 H 2129.38 4.20944 -0.195977 0
M  V30 22828 H 2128.05 3.20511 0.45323 0
M  V30 22829 H 2126.96 3.24368 -1.86377 0
M  V30 22830 H 2128.29 4.27745 -2.43506 0
M  V30 22831 N 2129.94 0.98432 1.23081 0
M  V30 22832 C 2130.87 0.48581 2.23992 0
M  V30 22833 C 2131.89 -0.414468 1.57436 0
M  V30 22834 O 2133.08 -0.217976 1.77164 0
M  V30 22835 C 2130.18 -0.316143 3.37422 0
M  V30 22836 C 2129.35 0.578204 4.33561 0
M  V30 22837 C 2128.41 -0.170568 5.25923 0
M  V30 22838 O 2127.43 0.441138 5.67488 0
M  V30 22839 N 2128.64 -1.45541 5.61959 0
M  V30 22840 H 2131.4 1.3535 2.67396 0
M  V30 22841 H 2128.96 0.858041 1.37293 0
M  V30 22842 H 2130.95 -0.825504 3.96191 0
M  V30 22843 H 2129.52 -1.08487 2.93171 0
M  V30 22844 H 2128.74 1.26835 3.73238 0
M  V30 22845 H 2130.03 1.18757 4.94747 0
M  V30 22846 H 2129.43 -1.97385 5.30147 0
M  V30 22847 H 2127.99 -1.91013 6.23183 0
M  V30 22848 N 2131.42 -1.38259 0.756453 0
M  V30 22849 C 2132.67 -1.99293 0.310658 0
M  V30 22850 C 2132.98 -1.60729 -1.11469 0
M  V30 22851 O 2134.19 -2.14755 -1.6611 0
M  V30 22852 C 2132.64 -3.56347 0.50448 0
M  V30 22853 C 2132.25 -4.0386 1.9391 0
M  V30 22854 C 2134 -4.24326 0.121541 0
M  V30 22855 C 2131.9 -5.53565 2.08133 0
M  V30 22856 H 2130.83 -0.745574 0.112405 0
M  V30 22857 H 2133.48 -1.57987 0.933403 0
M  V30 22858 H 2131.87 -3.95556 -0.187493 0
M  V30 22859 H 2133.04 -3.75934 2.66478 0
M  V30 22860 H 2131.36 -3.48614 2.27722 0
M  V30 22861 H 2133.95 -5.34301 0.206533 0
M  V30 22862 H 2134.3 -4.05866 -0.926213 0
M  V30 22863 H 2134.83 -3.90366 0.765478 0
M  V30 22864 H 2131.57 -5.76933 3.11173 0
M  V30 22865 H 2131.09 -5.83225 1.4003 0
M  V30 22866 H 2132.77 -6.19307 1.87264 0
M  V30 22867 N 2132.9 -0.505757 -1.49264 0
M  V30 22868 C 2133.83 0.259368 -2.32055 0
M  V30 22869 C 2134.81 0.95808 -1.40552 0
M  V30 22870 O 2135.99 0.948562 -1.69458 0
M  V30 22871 C 2133.12 1.32138 -3.2118 0
M  V30 22872 C 2132.08 0.742267 -4.21514 0
M  V30 22873 C 2131.4 1.90515 -4.99608 0
M  V30 22874 C 2132.7 -0.269866 -5.21602 0
M  V30 22875 H 2134.4 -0.431697 -2.96271 0
M  V30 22876 H 2131.94 -0.209055 -1.42474 0
M  V30 22877 H 2133.9 1.86441 -3.77912 0
M  V30 22878 H 2132.62 2.0417 -2.54916 0
M  V30 22879 H 2131.28 0.220956 -3.65934 0
M  V30 22880 H 2130.93 2.61327 -4.29788 0
M  V30 22881 H 2130.63 1.52371 -5.67501 0
M  V30 22882 H 2132.15 2.45242 -5.59186 0
M  V30 22883 H 2133.57 0.18519 -5.73001 0
M  V30 22884 H 2131.96 -0.567397 -5.97412 0
M  V30 22885 H 2133.03 -1.18411 -4.7022 0
M  V30 22886 N 2134.38 1.55765 -0.239796 0
M  V30 22887 C 2135.6 2.03618 0.394243 0
M  V30 22888 C 2136.03 1.1181 1.51261 0
M  V30 22889 O 2135.38 0.1097 1.80968 0
M  V30 22890 C 2135.43 3.49545 0.886029 0
M  V30 22891 O 2134.54 3.60872 1.99613 0
M  V30 22892 H 2133.88 0.658289 0.0869012 0
M  V30 22893 H 2136.41 2.0134 -0.363774 0
M  V30 22894 H 2136.42 3.90226 1.1911 0
M  V30 22895 H 2135.09 4.15845 0.0675883 0
M  V30 22896 H 2133.67 3.32085 1.6963 0
M  V30 22897 N 2135.85 -0.0334016 1.57565 0
M  V30 22898 C 2137.13 -0.760253 1.80221 0
M  V30 22899 C 2137.51 -1.93806 0.836817 0
M  V30 22900 O 2136.86 -2.28174 -0.121959 0
M  V30 22901 C 2137.07 -1.19735 3.27818 0
M  V30 22902 C 2138.42 -1.61505 3.92685 0
M  V30 22903 O 2139.44 -1.29204 3.31941 0
M  V30 22904 O 2138.3 -2.21441 4.99626 0
M  V30 22905 H 2135.39 -0.36729 0.740964 0
M  V30 22906 H 2137.94 -0.0105137 1.69697 0
M  V30 22907 H 2136.71 -0.356354 3.89674 0
M  V30 22908 H 2136.34 -2.00724 3.43214 0
M  V30 22909 N 2137.33 -1.54609 -0.305591 0
M  V30 22910 C 2138.58 -1.73328 -1.03931 0
M  V30 22911 C 2138.9 -0.519482 -1.87953 0
M  V30 22912 O 2138.17 0.466312 -1.90269 0
M  V30 22913 H 2136.75 -0.639113 -0.386708 0
M  V30 22914 H 2139.41 -1.91952 -0.337684 0
M  V30 22915 H 2138.51 -2.62058 -1.69505 0
M  V30 22916 N 2138.81 0.568558 -1.46987 0
M  V30 22917 C 2140.04 1.35191 -1.56624 0
M  V30 22918 C 2140.45 1.87602 -0.212353 0
M  V30 22919 O 2139.81 1.64388 0.792639 0
M  V30 22920 C 2139.86 2.52969 -2.58242 0
M  V30 22921 O 2139.58 2.02726 -3.88373 0
M  V30 22922 C 2141.08 3.45334 -2.77955 0
M  V30 22923 H 2138.3 0.412505 -0.529227 0
M  V30 22924 H 2140.85 0.689847 -1.92513 0
M  V30 22925 H 2139 3.15136 -2.25318 0
M  V30 22926 H 2139.42 2.79532 -4.43804 0
M  V30 22927 H 2140.89 4.2442 -3.52947 0
M  V30 22928 H 2141.37 3.98165 -1.85368 0
M  V30 22929 H 2141.97 2.88992 -3.12032 0
M  V30 22930 N 2140.29 1.34929 0.814366 0
M  V30 22931 C 2141.51 1.31019 1.60776 0
M  V30 22932 C 2141.94 -0.111347 1.8777 0
M  V30 22933 O 2141.3 -1.07577 1.45935 0
M  V30 22934 C 2141.34 2.11503 2.92059 0
M  V30 22935 O 2140.45 1.49042 3.84526 0
M  V30 22936 H 2139.79 0.449572 0.488652 0
M  V30 22937 H 2142.32 1.77857 1.01133 0
M  V30 22938 H 2142.33 2.23174 3.41552 0
M  V30 22939 H 2141 3.14853 2.71736 0
M  V30 22940 H 2139.58 1.46165 3.4306 0
M  V30 22941 N 2141.77 -1.0356 1.18799 0
M  V30 22942 C 2143.01 -1.77109 0.987945 0
M  V30 22943 C 2143.35 -1.88154 -0.480786 0
M  V30 22944 O 2142.62 -1.39339 -1.35702 0
M  V30 22945 C 2142.9 -3.20098 1.64952 0
M  V30 22946 C 2142.76 -3.16964 3.19145 0
M  V30 22947 C 2144.08 -4.18333 1.36696 0
M  V30 22948 H 2141.19 -0.642915 0.360318 0
M  V30 22949 H 2143.84 -1.20938 1.4654 0
M  V30 22950 H 2141.99 -3.6806 1.24356 0
M  V30 22951 H 2143.66 -2.76953 3.6891 0
M  V30 22952 H 2141.9 -2.54859 3.5104 0
M  V30 22953 H 2142.57 -4.17958 3.60576 0
M  V30 22954 H 2145.05 -3.78941 1.7188 0
M  V30 22955 H 2143.92 -5.16589 1.85546 0
M  V30 22956 H 2144.19 -4.41143 0.290807 0
M  V30 22957 N 2143.25 -0.990834 -1.22557 0
M  V30 22958 C 2144.18 -0.559304 -2.26703 0
M  V30 22959 C 2145.16 0.412782 -1.65016 0
M  V30 22960 O 2146.34 0.303868 -1.91808 0
M  V30 22961 C 2143.47 0.12888 -3.47061 0
M  V30 22962 C 2142.43 -0.76154 -4.2117 0
M  V30 22963 C 2141.75 0.0594442 -5.34667 0
M  V30 22964 C 2143.05 -2.0574 -4.80071 0
M  V30 22965 H 2144.75 -1.42983 -2.63052 0
M  V30 22966 H 2142.29 -0.68896 -1.26449 0
M  V30 22967 H 2144.24 0.44215 -4.19074 0
M  V30 22968 H 2142.97 1.03394 -3.09802 0
M  V30 22969 H 2141.63 -1.05842 -3.50989 0
M  V30 22970 H 2141.28 0.965355 -4.9365 0
M  V30 22971 H 2140.98 -0.533291 -5.85175 0
M  V30 22972 H 2142.5 0.366857 -6.09497 0
M  V30 22973 H 2143.91 -1.80821 -5.44037 0
M  V30 22974 H 2142.31 -2.59878 -5.4091 0
M  V30 22975 H 2143.38 -2.73748 -4.00237 0
M  V30 22976 N 2144.72 1.37856 -0.763775 0
M  V30 22977 C 2145.67 2.27693 -0.118367 0
M  V30 22978 C 2146.66 1.45707 0.682513 0
M  V30 22979 O 2147.85 1.68342 0.546795 0
M  V30 22980 C 2144.98 3.34642 0.766129 0
M  V30 22981 C 2144.06 4.24079 -0.0421497 0
M  V30 22982 N 2144.46 4.94053 -1.08375 0
M  V30 22983 C 2142.75 4.45624 0.183082 0
M  V30 22984 C 2143.45 5.6001 -1.57365 0
M  V30 22985 N 2142.43 5.36311 -0.887185 0
M  V30 22986 H 2146.23 2.79262 -0.915967 0
M  V30 22987 H 2143.75 1.50879 -0.600774 0
M  V30 22988 H 2145.74 3.97901 1.24421 0
M  V30 22989 H 2144.4 2.8463 1.56256 0
M  V30 22990 H 2145.41 4.96726 -1.46575 0
M  V30 22991 H 2142.09 4.065 0.952055 0
M  V30 22992 H 2143.48 6.25958 -2.44183 0
M  V30 22993 N 2146.2 0.513665 1.48994 0
M  V30 22994 C 2147.43 -0.0227356 2.06587 0
M  V30 22995 C 2147.84 -1.30207 1.37269 0
M  V30 22996 O 2147.18 -1.78134 0.448768 0
M  V30 22997 C 2147.24 -0.333871 3.57946 0
M  V30 22998 C 2146.91 0.849596 4.49033 0
M  V30 22999 C 2147.91 1.74357 4.89791 0
M  V30 23000 C 2145.59 1.05198 4.9116 0
M  V30 23001 C 2147.58 2.82398 5.71428 0
M  V30 23002 C 2145.27 2.13555 5.72571 0
M  V30 23003 C 2146.27 3.01989 6.12611 0
M  V30 23004 O 2145.96 4.08474 6.9239 0
M  V30 23005 H 2145.69 0.0229763 0.675609 0
M  V30 23006 H 2148.24 0.713941 1.92593 0
M  V30 23007 H 2146.47 -1.12431 3.69995 0
M  V30 23008 H 2148.16 -0.810396 3.97728 0
M  V30 23009 H 2148.93 1.59909 4.5788 0
M  V30 23010 H 2144.81 0.372979 4.59489 0
M  V30 23011 H 2148.35 3.51453 6.026 0
M  V30 23012 H 2144.25 2.27994 6.03895 0
M  V30 23013 H 2145.02 4.05982 7.10718 0
M  V30 23014 N 2147.68 -1.55636 0.248053 0
M  V30 23015 C 2148.96 -1.90888 -0.426759 0
M  V30 23016 C 2149.34 -1.16894 -1.75781 0
M  V30 23017 O 2148.68 -0.286804 -2.26693 0
M  V30 23018 C 2148.89 -3.43913 -0.593709 0
M  V30 23019 C 2150.24 -4.15188 -0.889059 0
M  V30 23020 O 2151.27 -3.49658 -0.67953 0
M  V30 23021 O 2150.13 -5.31102 -1.28815 0
M  V30 23022 H 2147.22 -0.794576 -0.2293 0
M  V30 23023 H 2149.77 -1.67165 0.292205 0
M  V30 23024 H 2148.54 -3.89784 0.3441 0
M  V30 23025 H 2148.16 -3.73502 -1.36317 0
M  V30 23026 N 2149.16 0.0250451 -1.5758 0
M  V30 23027 C 2150.4 0.716105 -1.89736 0
M  V30 23028 C 2150.74 1.7479 -0.846284 0
M  V30 23029 O 2150.01 1.94009 0.138165 0
M  V30 23030 C 2150.29 1.38201 -3.32524 0
M  V30 23031 C 2150.15 0.363457 -4.48329 0
M  V30 23032 C 2151.47 2.31493 -3.74298 0
M  V30 23033 H 2148.59 0.258862 -0.690043 0
M  V30 23034 H 2151.23 -0.0211043 -1.89988 0
M  V30 23035 H 2149.38 2.01037 -3.3244 0
M  V30 23036 H 2151.05 -0.263295 -4.60548 0
M  V30 23037 H 2149.29 -0.316859 -4.32641 0
M  V30 23038 H 2149.96 0.867948 -5.45134 0
M  V30 23039 H 2152.44 1.78697 -3.75774 0
M  V30 23040 H 2151.32 2.75065 -4.75006 0
M  V30 23041 H 2151.58 3.1834 -3.06777 0
M  V30 23042 N 2150.64 1.54769 0.297388 0
M  V30 23043 C 2151.59 1.82354 1.36861 0
M  V30 23044 C 2152.57 0.680909 1.45782 0
M  V30 23045 O 2153.76 0.941639 1.49874 0
M  V30 23046 C 2150.89 2.0775 2.73304 0
M  V30 23047 C 2149.98 3.28207 2.68591 0
M  V30 23048 N 2150.37 4.4868 2.33494 0
M  V30 23049 C 2148.67 3.30307 2.99689 0
M  V30 23050 C 2149.37 5.30707 2.38169 0
M  V30 23051 N 2148.34 4.68517 2.75669 0
M  V30 23052 H 2152.14 2.73061 1.08696 0
M  V30 23053 H 2149.66 1.54317 0.505976 0
M  V30 23054 H 2151.66 2.2566 3.50547 0
M  V30 23055 H 2150.32 1.18312 3.02378 0
M  V30 23056 H 2151.33 4.75217 2.05887 0
M  V30 23057 H 2148 2.50987 3.33634 0
M  V30 23058 H 2149.39 6.36976 2.13802 0
M  V30 23059 N 2152.11 -0.560755 1.47286 0
M  V30 23060 C 2153.06 -1.68914 1.59908 0
M  V30 23061 C 2154.06 -1.62849 0.466545 0
M  V30 23062 O 2155.26 -1.68077 0.644218 0
M  V30 23063 H 2151.64 -0.558856 0.503174 0
M  V30 23064 H 2153.61 -1.55405 2.54739 0
M  V30 23065 C 2152.36 -3.07274 1.62721 0
M  V30 23066 H 2151.68 -3.12622 2.49214 0
M  V30 23067 H 2153.12 -3.85927 1.75603 0
M  V30 23068 C 2151.58 -3.34973 0.359852 0
M  V30 23069 O 2152.11 -3.98046 -0.540583 0
M  V30 23070 N 2150.31 -2.89599 0.24097 0
M  V30 23071 H 2149.86 -2.3845 0.974638 0
M  V30 23072 H 2149.82 -3.08503 -0.606066 0
M  V30 23073 N 2153.59 -1.35359 -0.807199 0
M  V30 23074 C 2154.52 -1.30893 -1.93363 0
M  V30 23075 C 2155.5 -0.183475 -1.69108 0
M  V30 23076 O 2156.69 -0.378339 -1.90479 0
M  V30 23077 C 2153.82 -1.07954 -3.30096 0
M  V30 23078 C 2152.77 -2.17133 -3.68832 0
M  V30 23079 C 2152.1 -1.7936 -5.0372 0
M  V30 23080 C 2153.4 -3.59094 -3.79274 0
M  V30 23081 H 2155.09 -2.25145 -1.97357 0
M  V30 23082 H 2152.64 -1.08381 -0.948131 0
M  V30 23083 H 2154.59 -1.03469 -4.085 0
M  V30 23084 H 2153.31 -0.101468 -3.26442 0
M  V30 23085 H 2151.97 -2.20714 -2.92713 0
M  V30 23086 H 2151.62 -0.801733 -4.96569 0
M  V30 23087 H 2151.32 -2.52445 -5.30608 0
M  V30 23088 H 2152.85 -1.764 -5.84564 0
M  V30 23089 H 2154.26 -3.57839 -4.47911 0
M  V30 23090 H 2152.66 -4.30934 -4.17632 0
M  V30 23091 H 2153.73 -3.9529 -2.80845 0
M  V30 23092 N 2155.07 1.02928 -1.19346 0
M  V30 23093 C 2156.3 1.79687 -1.01961 0
M  V30 23094 C 2156.71 1.84137 0.434779 0
M  V30 23095 O 2156.05 1.28397 1.31377 0
M  V30 23096 C 2156.11 3.26152 -1.51213 0
M  V30 23097 C 2155.78 3.45338 -2.99317 0
M  V30 23098 C 2156.77 3.35591 -3.97083 0
M  V30 23099 C 2154.46 3.71566 -3.38 0
M  V30 23100 C 2156.45 3.51795 -5.31525 0
M  V30 23101 C 2154.14 3.87415 -4.72602 0
M  V30 23102 C 2155.14 3.77532 -5.69174 0
M  V30 23103 O 2154.83 3.92914 -7.01337 0
M  V30 23104 H 2154.56 0.572339 -0.359729 0
M  V30 23105 H 2157.11 1.30533 -1.58588 0
M  V30 23106 H 2155.34 3.76328 -0.889605 0
M  V30 23107 H 2157.03 3.84505 -1.30042 0
M  V30 23108 H 2157.8 3.1528 -3.68542 0
M  V30 23109 H 2153.68 3.78351 -2.63385 0
M  V30 23110 H 2157.22 3.43997 -6.06887 0
M  V30 23111 H 2153.12 4.07223 -5.00839 0
M  V30 23112 H 2153.88 4.10007 -7.08404 0
M  V30 23113 N 2156.55 0.997319 1.2203 0
M  V30 23114 C 2157.8 0.674331 1.90518 0
M  V30 23115 C 2158.12 -0.796582 1.77988 0
M  V30 23116 O 2157.39 -1.57133 1.16988 0
M  V30 23117 H 2155.97 0.246427 0.705183 0
M  V30 23118 H 2158.63 1.26478 1.48288 0
M  V30 23119 H 2157.72 0.940744 2.97584 0
M  V30 23120 N 2158.03 -1.37449 0.771075 0
M  V30 23121 C 2159.27 -2.0046 0.344602 0
M  V30 23122 C 2159.63 -1.60113 -1.06685 0
M  V30 23123 O 2158.92 -0.836909 -1.72355 0
M  V30 23124 C 2159.11 -3.54862 0.425162 0
M  V30 23125 C 2158.94 -4.10204 1.8429 0
M  V30 23126 C 2157.71 -4.41185 2.46342 0
M  V30 23127 C 2159.91 -4.31249 2.8023 0
M  V30 23128 N 2157.89 -4.82238 3.79895 0
M  V30 23129 C 2159.26 -4.74904 3.98581 0
M  V30 23130 C 2161.32 -4.13381 2.77526 0
M  V30 23131 C 2160.02 -5.02562 5.1461 0
M  V30 23132 C 2162.05 -4.42175 3.92728 0
M  V30 23133 C 2161.41 -4.86069 5.0982 0
M  V30 23134 H 2157.51 -0.762595 0.173129 0
M  V30 23135 H 2160.09 -1.66771 1.00476 0
M  V30 23136 H 2158.26 -3.8786 -0.204817 0
M  V30 23137 H 2160 -4.04693 -0.0233022 0
M  V30 23138 H 2156.75 -4.30241 1.97965 0
M  V30 23139 H 2157.18 -5.07074 4.48558 0
M  V30 23140 H 2161.82 -3.78618 1.88172 0
M  V30 23141 H 2159.54 -5.36215 6.04565 0
M  V30 23142 H 2163.12 -4.29938 3.91975 0
M  V30 23143 H 2162 -5.07922 5.97482 0
M  V30 23144 N 2159.5 -0.52156 -1.4872 0
M  V30 23145 C 2160.73 0.013899 -2.07395 0
M  V30 23146 C 2161.15 1.28175 -1.37669 0
M  V30 23147 O 2160.51 1.75882 -0.439921 0
M  V30 23148 C 2160.56 0.229553 -3.59869 0
M  V30 23149 O 2159.66 1.30002 -3.91374 0
M  V30 23150 H 2159.01 -0.0353734 -0.663057 0
M  V30 23151 H 2161.54 -0.727065 -1.91246 0
M  V30 23152 H 2161.55 0.454795 -4.05457 0
M  V30 23153 H 2160.22 -0.696653 -4.10024 0
M  V30 23154 H 2158.8 1.0581 -3.57573 0
M  V30 23155 N 2160.98 1.55502 -0.256304 0
M  V30 23156 C 2161.91 2.19122 0.672174 0
M  V30 23157 C 2162.93 1.17029 1.13172 0
M  V30 23158 O 2164.12 1.43849 1.05687 0
M  V30 23159 C 2161.22 2.78814 1.92655 0
M  V30 23160 C 2160.39 4.06417 1.6169 0
M  V30 23161 C 2159.45 4.50337 2.72182 0
M  V30 23162 O 2158.47 5.16515 2.39167 0
M  V30 23163 N 2159.68 4.18905 4.01869 0
M  V30 23164 H 2162.44 2.99428 0.127769 0
M  V30 23165 H 2160 1.61719 -0.0766386 0
M  V30 23166 H 2161.99 3.05149 2.65831 0
M  V30 23167 H 2160.56 2.02611 2.38049 0
M  V30 23168 H 2159.78 3.87571 0.719867 0
M  V30 23169 H 2161.07 4.89593 1.38479 0
M  V30 23170 H 2160.47 3.65795 4.31521 0
M  V30 23171 H 2159.03 4.50054 4.71481 0
M  V30 23172 N 2162.46 -0.0166879 1.57591 0
M  V30 23173 C 2163.39 -1.04687 2.02771 0
M  V30 23174 C 2164.37 -1.34455 0.914357 0
M  V30 23175 O 2165.56 -1.46903 1.18118 0
M  V30 23176 C 2162.68 -2.37861 2.41122 0
M  V30 23177 C 2161.73 -2.23867 3.63023 0
M  V30 23178 S 2162.56 -1.58041 5.11648 0
M  V30 23179 C 2163.72 -2.92679 5.53254 0
M  V30 23180 H 2163.95 -0.662104 2.89834 0
M  V30 23181 H 2161.48 -0.227051 1.52721 0
M  V30 23182 H 2163.44 -3.14441 2.63888 0
M  V30 23183 H 2162.1 -2.73481 1.54488 0
M  V30 23184 H 2161.3 -3.22208 3.87554 0
M  V30 23185 H 2160.9 -1.5543 3.40173 0
M  V30 23186 H 2163.19 -3.89 5.54694 0
M  V30 23187 H 2164.13 -2.72868 6.53413 0
M  V30 23188 H 2164.54 -2.95821 4.80781 0
M  V30 23189 N 2163.94 -1.54924 -0.289176 0
M  V30 23190 C 2164.89 -1.86692 -1.35701 0
M  V30 23191 C 2165.86 -0.716885 -1.49833 0
M  V30 23192 O 2167.04 -0.966637 -1.64502 0
M  V30 23193 C 2164.18 -2.13019 -2.71509 0
M  V30 23194 C 2163.29 -3.40605 -2.6573 0
M  V30 23195 C 2162.43 -3.56714 -3.9361 0
M  V30 23196 C 2161.47 -4.78049 -3.82276 0
M  V30 23197 N 2160.6 -4.90901 -5.01957 0
M  V30 23198 H 2165.44 -2.77776 -1.07909 0
M  V30 23199 H 2162.98 -1.37539 -0.52168 0
M  V30 23200 H 2164.94 -2.2628 -3.50504 0
M  V30 23201 H 2163.57 -1.25188 -2.97536 0
M  V30 23202 H 2162.62 -3.35902 -1.78533 0
M  V30 23203 H 2163.93 -4.29728 -2.53249 0
M  V30 23204 H 2163.09 -3.69704 -4.81045 0
M  V30 23205 H 2161.83 -2.65745 -4.08939 0
M  V30 23206 H 2160.83 -4.6508 -2.93225 0
M  V30 23207 H 2162.06 -5.70437 -3.68482 0
M  V30 23208 H 2160 -4.02859 -5.17726 0
M  V30 23209 H 2159.92 -5.74044 -4.91945 0
M  V30 23210 H 2161.19 -5.0826 -5.91009 0
M  V30 23211 N 2165.42 0.552936 -1.47582 0
M  V30 23212 C 2166.83 1.13504 -1.48235 0
M  V30 23213 C 2167.18 1.94734 -0.239394 0
M  V30 23214 O 2166.3 2.06238 0.655364 0
M  V30 23215 C 2166.9 2.06511 -2.68586 0
M  V30 23216 C 2165.46 2.59985 -2.72185 0
M  V30 23217 C 2164.6 1.36454 -2.41404 0
M  V30 23218 H 2167.56 0.339321 -1.5503 0
M  V30 23219 H 2167.58 2.90453 -2.45799 0
M  V30 23220 H 2167.09 1.47363 -3.59034 0
M  V30 23221 H 2165.19 3.22919 -1.85887 0
M  V30 23222 H 2165.3 3.00687 -3.72994 0
M  V30 23223 H 2163.67 1.6727 -1.92076 0
M  V30 23224 H 2164.45 0.790922 -3.34065 0
M  V30 23225 N 2166.89 1.35785 0.800009 0
M  V30 23226 C 2168.12 1.32556 1.5886 0
M  V30 23227 C 2168.54 -0.0955366 1.88558 0
M  V30 23228 O 2167.89 -1.0494 1.49311 0
M  V30 23229 C 2167.95 2.13669 2.91595 0
M  V30 23230 O 2167.67 3.50238 2.63182 0
M  V30 23231 C 2169.17 2.181 3.85937 0
M  V30 23232 H 2166.39 0.455105 0.493073 0
M  V30 23233 H 2168.93 1.78733 0.993714 0
M  V30 23234 H 2167.09 1.71074 3.47581 0
M  V30 23235 H 2167.5 3.92442 3.47979 0
M  V30 23236 H 2168.97 2.79234 4.76164 0
M  V30 23237 H 2169.45 1.18154 4.23009 0
M  V30 23238 H 2170.06 2.60885 3.35886 0
M  V30 23239 N 2168.37 -1.02294 1.19891 0
M  V30 23240 C 2169.32 -2.09064 0.909734 0
M  V30 23241 C 2170.31 -1.60391 -0.127889 0
M  V30 23242 O 2171.5 -1.76825 0.07862 0
M  V30 23243 C 2168.63 -3.40248 0.456716 0
M  V30 23244 C 2167.71 -3.9564 1.52741 0
M  V30 23245 N 2168.1 -4.24619 2.74831 0
M  V30 23246 C 2166.4 -4.23718 1.39209 0
M  V30 23247 C 2167.1 -4.69195 3.43848 0
M  V30 23248 N 2166.08 -4.71088 2.71251 0
M  V30 23249 H 2169.88 -2.2937 1.83757 0
M  V30 23250 H 2167.4 -1.20208 1.09196 0
M  V30 23251 H 2169.39 -4.1626 0.23098 0
M  V30 23252 H 2168.05 -3.21359 -0.464563 0
M  V30 23253 H 2169.06 -4.13719 3.1154 0
M  V30 23254 H 2165.74 -4.14061 0.534734 0
M  V30 23255 H 2167.13 -5.00489 4.48286 0
M  V30 23256 N 2169.85 -1.00378 -1.21499 0
M  V30 23257 C 2171.13 -0.601329 -1.86127 0
M  V30 23258 C 2171.51 0.921083 -1.89945 0
M  V30 23259 O 2170.86 1.80753 -1.39787 0
M  V30 23260 C 2171.07 -1.2343 -3.26445 0
M  V30 23261 C 2172.41 -1.34165 -4.02846 0
M  V30 23262 O 2173.44 -1.18952 -3.35751 0
M  V30 23263 O 2172.3 -1.58622 -5.22973 0
M  V30 23264 H 2169.39 -0.205796 -0.800985 0
M  V30 23265 H 2171.94 -1.10035 -1.29192 0
M  V30 23266 H 2170.71 -2.27515 -3.18359 0
M  V30 23267 H 2170.33 -0.721556 -3.90998 0
M  V30 23268 N 2171.33 1.37038 -0.778354 0
M  V30 23269 C 2172.29 2.28529 -0.175271 0
M  V30 23270 C 2173.29 1.48328 0.62093 0
M  V30 23271 O 2174.48 1.68459 0.443548 0
M  V30 23272 C 2171.61 3.32349 0.758757 0
M  V30 23273 H 2172.81 2.83372 -0.981858 0
M  V30 23274 H 2170.36 1.46415 -0.547012 0
M  V30 23275 H 2171.09 2.82642 1.5901 0
M  V30 23276 H 2170.88 3.9164 0.189916 0
M  V30 23277 H 2172.37 4.00701 1.17594 0
M  V30 23278 N 2172.81 0.529439 1.48441 0
M  V30 23279 C 2173.74 -0.222417 2.32438 0
M  V30 23280 C 2174.72 -0.935598 1.42058 0
M  V30 23281 O 2175.9 -0.921483 1.70945 0
M  V30 23282 C 2173.03 -1.27012 3.23242 0
M  V30 23283 C 2171.99 -0.675114 4.22642 0
M  V30 23284 C 2171.31 -1.82543 5.02576 0
M  V30 23285 C 2172.61 0.352815 5.21107 0
M  V30 23286 H 2174.31 0.478777 2.95547 0
M  V30 23287 H 2171.85 0.231695 1.42124 0
M  V30 23288 H 2173.81 -1.80405 3.80831 0
M  V30 23289 H 2172.53 -2.00089 2.58132 0
M  V30 23290 H 2171.19 -0.162711 3.66239 0
M  V30 23291 H 2170.84 -2.54456 4.33891 0
M  V30 23292 H 2170.54 -1.43323 5.69853 0
M  V30 23293 H 2172.06 -2.36315 5.63017 0
M  V30 23294 H 2173.48 -0.0940075 5.73223 0
M  V30 23295 H 2171.87 0.662368 5.96433 0
M  V30 23296 H 2172.94 1.25877 4.68277 0
M  V30 23297 N 2174.29 -1.55364 0.264547 0
M  V30 23298 C 2175.22 -2.19475 -0.660544 0
M  V30 23299 C 2176.23 -1.17628 -1.1255 0
M  V30 23300 O 2177.42 -1.44407 -1.04923 0
M  V30 23301 C 2174.52 -2.79832 -1.91173 0
M  V30 23302 C 2173.69 -4.07269 -1.59533 0
M  V30 23303 C 2172.75 -4.51774 -2.6979 0
M  V30 23304 O 2171.78 -5.17776 -2.36425 0
M  V30 23305 N 2172.98 -4.2103 -3.99642 0
M  V30 23306 H 2175.74 -2.99491 -0.111888 0
M  V30 23307 H 2173.31 -1.61676 0.0852139 0
M  V30 23308 H 2175.3 -3.06555 -2.64209 0
M  V30 23309 H 2173.87 -2.03871 -2.36971 0
M  V30 23310 H 2173.09 -3.87948 -0.699303 0
M  V30 23311 H 2174.38 -4.9032 -1.35881 0
M  V30 23312 H 2173.77 -3.68079 -4.29575 0
M  V30 23313 H 2172.33 -4.52548 -4.69088 0
M  V30 23314 N 2175.76 0.00833021 -1.57598 0
M  V30 23315 C 2176.71 1.00242 -2.07895 0
M  V30 23316 C 2177.68 1.34651 -0.972534 0
M  V30 23317 O 2178.87 1.44632 -1.24444 0
M  V30 23318 C 2176.01 2.2918 -2.58013 0
M  V30 23319 C 2175.12 2.00747 -3.82524 0
M  V30 23320 C 2174.25 3.23706 -4.21175 0
M  V30 23321 C 2173.29 2.90921 -5.38546 0
M  V30 23322 N 2172.43 4.06392 -5.72529 0
M  V30 23323 H 2177.27 0.566561 -2.92565 0
M  V30 23324 H 2174.81 0.268106 -1.44636 0
M  V30 23325 H 2176.76 3.04546 -2.85145 0
M  V30 23326 H 2175.39 2.7045 -1.76229 0
M  V30 23327 H 2174.45 1.15786 -3.6235 0
M  V30 23328 H 2175.76 1.72576 -4.67995 0
M  V30 23329 H 2174.91 4.07424 -4.49545 0
M  V30 23330 H 2173.65 3.55007 -3.34397 0
M  V30 23331 H 2172.66 2.05609 -5.09907 0
M  V30 23332 H 2173.88 2.60875 -6.26993 0
M  V30 23333 H 2171.83 4.37606 -4.88709 0
M  V30 23334 H 2171.74 3.81717 -6.52555 0
M  V30 23335 H 2173.01 4.90923 -6.05487 0
M  V30 23336 N 2177.24 1.55075 0.280956 0
M  V30 23337 C 2178.47 1.79322 1.03205 0
M  V30 23338 C 2178.88 0.56257 1.80224 0
M  V30 23339 O 2178.24 -0.468172 1.76393 0
M  V30 23340 C 2178.29 3.01341 1.99689 0
M  V30 23341 O 2178.01 4.19652 1.25792 0
M  V30 23342 C 2179.51 3.38131 2.86675 0
M  V30 23343 H 2176.73 0.597563 0.30522 0
M  V30 23344 H 2179.28 2.02073 0.31415 0
M  V30 23345 H 2177.43 2.8074 2.66953 0
M  V30 23346 H 2177.85 4.88582 1.90757 0
M  V30 23347 H 2179.32 4.267 3.50188 0
M  V30 23348 H 2179.8 2.57177 3.56029 0
M  V30 23349 H 2180.4 3.60962 2.24914 0
M  V30 23350 N 2178.72 -0.545102 1.47873 0
M  V30 23351 C 2179.95 -1.32682 1.58755 0
M  V30 23352 C 2180.36 -1.8724 0.242172 0
M  V30 23353 O 2179.72 -1.65628 -0.766386 0
M  V30 23354 C 2179.77 -2.48828 2.62234 0
M  V30 23355 O 2179.49 -1.96522 3.91549 0
M  V30 23356 C 2180.99 -3.40869 2.83414 0
M  V30 23357 H 2178.21 -0.404033 0.535722 0
M  V30 23358 H 2180.76 -0.659132 1.93586 0
M  V30 23359 H 2178.91 -3.11511 2.30303 0
M  V30 23360 H 2179.33 -2.72436 4.48195 0
M  V30 23361 H 2180.8 -4.18751 3.59655 0
M  V30 23362 H 2181.28 -3.95166 1.91679 0
M  V30 23363 H 2181.88 -2.83991 3.1659 0
M  V30 23364 N 2180.2 -1.36208 -0.792797 0
M  V30 23365 C 2181.45 -1.29992 -1.54746 0
M  V30 23366 C 2181.77 0.121446 -1.94621 0
M  V30 23367 O 2181.04 1.06096 -1.64683 0
M  V30 23368 H 2179.62 -0.478184 -0.573889 0
M  V30 23369 H 2182.28 -1.70466 -0.944845 0
M  V30 23370 H 2181.37 -1.92505 -2.45658 0
M  V30 23371 N 2181.68 1.01656 -1.20431 0
M  V30 23372 C 2182.62 2.10198 -0.953184 0
M  V30 23373 C 2183.59 1.6569 0.116613 0
M  V30 23374 O 2184.78 1.90779 -0.0281152 0
M  V30 23375 C 2181.92 3.4129 -0.511397 0
M  V30 23376 C 2181.03 3.99275 -1.64935 0
M  V30 23377 C 2180.17 5.18427 -1.15787 0
M  V30 23378 C 2179.2 5.68496 -2.2689 0
M  V30 23379 N 2178.34 6.78909 -1.7896 0
M  V30 23380 H 2183.18 2.31015 -1.88245 0
M  V30 23381 H 2180.72 1.13288 -0.938314 0
M  V30 23382 H 2182.68 4.16529 -0.236575 0
M  V30 23383 H 2181.31 3.20545 0.380867 0
M  V30 23384 H 2180.36 3.21132 -2.03909 0
M  V30 23385 H 2181.67 4.32437 -2.48595 0
M  V30 23386 H 2180.82 6.00871 -0.839013 0
M  V30 23387 H 2179.56 4.8683 -0.291159 0
M  V30 23388 H 2178.57 4.84657 -2.59592 0
M  V30 23389 H 2179.79 6.02127 -3.14037 0
M  V30 23390 H 2177.74 6.49141 -0.946156 0
M  V30 23391 H 2177.66 7.11265 -2.562 0
M  V30 23392 H 2178.92 7.64917 -1.50074 0
M  V30 23393 N 2183.15 1.01021 1.20965 0
M  V30 23394 C 2184.57 0.723934 1.42237 0
M  V30 23395 C 2184.77 -0.698897 1.88991 0
M  V30 23396 O 2183.83 -1.46754 2.05474 0
M  V30 23397 C 2185.14 1.74422 2.44944 0
M  V30 23398 C 2186.69 1.76162 2.5872 0
M  V30 23399 C 2187.16 2.771 3.64664 0
M  V30 23400 N 2188.65 2.758 3.72141 0
M  V30 23401 C 2189.39 3.5056 4.53757 0
M  V30 23402 N 2188.88 4.34977 5.39228 0
M  V30 23403 N 2190.68 3.39187 4.48229 0
M  V30 23404 H 2182.83 1.92886 0.889301 0
M  V30 23405 H 2185.09 0.832854 0.452834 0
M  V30 23406 H 2184.8 2.76323 2.17574 0
M  V30 23407 H 2184.67 1.55112 3.43831 0
M  V30 23408 H 2187.06 0.749493 2.85424 0
M  V30 23409 H 2187.14 1.99544 1.60049 0
M  V30 23410 H 2186.78 3.78473 3.38705 0
M  V30 23411 H 2186.71 2.50982 4.62942 0
M  V30 23412 H 2189.2 2.1456 3.11083 0
M  V30 23413 H 2189.52 4.88805 5.98573 0
M  V30 23414 H 2187.86 4.39057 5.38752 0
M  V30 23415 H 2191.05 2.72665 3.80488 0
M  V30 23416 H 2191.23 3.97705 5.116 0
M  V30 23417 N 2184.63 -1.36623 0.78561 0
M  V30 23418 C 2185.88 -1.98948 0.355551 0
M  V30 23419 C 2186.2 -1.62665 -1.07541 0
M  V30 23420 O 2185.47 -0.89879 -1.74065 0
M  V30 23421 H 2184.05 -0.735869 0.128476 0
M  V30 23422 H 2186.71 -1.66881 1.00681 0
M  V30 23423 H 2185.81 -3.08921 0.444316 0
M  V30 23424 N 2186.11 -0.537304 -1.48158 0
M  V30 23425 C 2187.36 -0.00384223 -2.017 0
M  V30 23426 C 2187.67 1.34625 -1.419 0
M  V30 23427 O 2188.88 1.96849 -1.86983 0
M  V30 23428 C 2187.33 0.0435291 -3.59874 0
M  V30 23429 C 2186.94 -1.30211 -4.2866 0
M  V30 23430 C 2188.69 0.525433 -4.21236 0
M  V30 23431 C 2186.59 -1.21492 -5.78786 0
M  V30 23432 H 2185.52 0.00233368 -0.753996 0
M  V30 23433 H 2188.17 -0.682181 -1.70348 0
M  V30 23434 H 2186.56 0.7871 -3.88099 0
M  V30 23435 H 2187.73 -2.06182 -4.12099 0
M  V30 23436 H 2186.04 -1.72034 -3.79201 0
M  V30 23437 H 2188.64 0.608744 -5.31223 0
M  V30 23438 H 2188.98 1.5329 -3.8705 0
M  V30 23439 H 2189.52 -0.162674 -3.97467 0
M  V30 23440 H 2186.26 -2.19778 -6.17558 0
M  V30 23441 H 2185.78 -0.496694 -5.9774 0
M  V30 23442 H 2187.46 -0.908641 -6.40588 0
M  V30 23443 N 2187.59 1.55221 -0.272782 0
M  V30 23444 C 2188.83 1.99841 0.345178 0
M  V30 23445 C 2189.17 1.16093 1.55679 0
M  V30 23446 O 2188.44 0.230441 1.9313 0
M  V30 23447 C 2188.73 3.5263 0.729656 0
M  V30 23448 C 2188.58 4.47133 -0.489138 0
M  V30 23449 C 2189.9 4.11259 1.56698 0
M  V30 23450 H 2187.02 0.726495 0.123989 0
M  V30 23451 H 2189.66 1.86176 -0.379262 0
M  V30 23452 H 2187.81 3.64405 1.34689 0
M  V30 23453 H 2189.48 4.47304 -1.12769 0
M  V30 23454 H 2187.72 4.18888 -1.12762 0
M  V30 23455 H 2188.39 5.51718 -0.176396 0
M  V30 23456 H 2190.87 4.02745 1.04572 0
M  V30 23457 H 2189.75 5.1838 1.80481 0
M  V30 23458 H 2190.01 3.61341 2.54726 0
M  V30 23459 N 2189.07 2.77022e-05 1.576 0
M  V30 23460 C 2190.32 -0.684007 1.89748 0
M  V30 23461 C 2190.63 -1.74935 0.875041 0
M  V30 23462 O 2191.83 -2.48802 1.08674 0
M  V30 23463 C 2190.29 -1.26778 3.36831 0
M  V30 23464 C 2189.9 -0.23725 4.47371 0
M  V30 23465 C 2191.64 -1.93 3.78089 0
M  V30 23466 C 2189.55 -0.831011 5.85532 0
M  V30 23467 H 2188.48 -0.259241 0.708033 0
M  V30 23468 H 2191.13 0.0605762 1.834 0
M  V30 23469 H 2189.51 -2.06303 3.38017 0
M  V30 23470 H 2190.69 0.53341 4.57702 0
M  V30 23471 H 2189 0.324536 4.15133 0
M  V30 23472 H 2191.6 -2.38328 4.78648 0
M  V30 23473 H 2191.94 -2.76058 3.11605 0
M  V30 23474 H 2192.47 -1.20209 3.79203 0
M  V30 23475 H 2189.21 -0.0392145 6.55488 0
M  V30 23476 H 2188.73 -1.57083 5.78865 0
M  V30 23477 H 2190.41 -1.32963 6.3319 0
M  V30 23478 N 2190.54 -1.55222 -0.272728 0
M  V30 23479 C 2191.77 -1.80199 -1.02679 0
M  V30 23480 C 2192.19 -0.573583 -1.79141 0
M  V30 23481 O 2191.55 0.476818 -1.74918 0
M  V30 23482 C 2191.6 -3.02627 -1.96084 0
M  V30 23483 O 2190.7 -2.77732 -3.04858 0
M  V30 23484 H 2190.05 -0.595589 -0.293547 0
M  V30 23485 H 2192.58 -2.02366 -0.301554 0
M  V30 23486 H 2192.59 -3.31367 -2.38033 0
M  V30 23487 H 2191.26 -3.91684 -1.39844 0
M  V30 23488 H 2189.84 -2.60089 -2.67223 0
M  V30 23489 N 2192.02 0.537252 -1.4816 0
M  V30 23490 C 2193.44 0.865105 -1.3412 0
M  V30 23491 C 2193.64 1.98495 -0.346713 0
M  V30 23492 O 2192.69 2.51407 0.234671 0
M  V30 23493 C 2194.01 1.23949 -2.73965 0
M  V30 23494 C 2195.56 1.34979 -2.824 0
M  V30 23495 C 2196.03 1.75764 -4.22931 0
M  V30 23496 N 2197.52 1.8288 -4.25569 0
M  V30 23497 C 2198.26 2.15808 -5.31239 0
M  V30 23498 N 2197.75 2.4721 -6.47193 0
M  V30 23499 N 2199.55 2.16752 -5.18628 0
M  V30 23500 H 2191.7 -0.201752 -2.1144 0
M  V30 23501 H 2193.96 -0.0276116 -0.947598 0
M  V30 23502 H 2193.67 0.49032 -3.48265 0
M  V30 23503 H 2193.54 2.19126 -3.07023 0
M  V30 23504 H 2195.93 2.08974 -2.0836 0
M  V30 23505 H 2196.01 0.379404 -2.52971 0
M  V30 23506 H 2195.65 1.02332 -4.97484 0
M  V30 23507 H 2195.58 2.7384 -4.49799 0
M  V30 23508 H 2198.07 1.60918 -3.41927 0
M  V30 23509 H 2198.39 2.7142 -7.23568 0
M  V30 23510 H 2196.73 2.44746 -6.5048 0
M  V30 23511 H 2199.92 1.91672 -4.27059 0
M  V30 23512 H 2200.09 2.42082 -6.01082 0
M  V30 23513 N 2193.5 1.36626 0.785562 0
M  V30 23514 C 2194.73 1.344 1.57961 0
M  V30 23515 C 2195.15 -0.071493 1.87964 0
M  V30 23516 O 2194.51 -1.04457 1.48184 0
M  V30 23517 C 2194.56 2.17651 2.87507 0
M  V30 23518 O 2193.66 1.57165 3.81278 0
M  V30 23519 H 2193 0.459836 0.479006 0
M  V30 23520 H 2195.53 1.79962 0.973379 0
M  V30 23521 H 2195.54 2.30368 3.36741 0
M  V30 23522 H 2194.22 3.20546 2.64997 0
M  V30 23523 H 2192.79 1.53409 3.39883 0
M  V30 23524 N 2194.98 -1.01016 1.20969 0
M  V30 23525 C 2196.21 -1.78301 1.04959 0
M  V30 23526 C 2196.62 -1.84495 -0.400883 0
M  V30 23527 O 2195.98 -1.30259 -1.27823 0
M  V30 23528 C 2196.03 -3.22459 1.63409 0
M  V30 23529 O 2195.75 -3.16632 3.0278 0
M  V30 23530 C 2197.25 -4.16266 1.52439 0
M  V30 23531 H 2194.47 -0.560515 0.368868 0
M  V30 23532 H 2197.02 -1.27113 1.60195 0
M  V30 23533 H 2195.17 -3.70773 1.12276 0
M  V30 23534 H 2195.58 -4.07164 3.30633 0
M  V30 23535 H 2197.06 -5.15233 1.98087 0
M  V30 23536 H 2197.54 -4.36592 0.477952 0
M  V30 23537 H 2198.14 -3.73838 2.02794 0
M  V30 23538 N 2196.46 -1.01661 -1.20428 0
M  V30 23539 C 2197.69 -0.724115 -1.93495 0
M  V30 23540 C 2198.09 0.719149 -1.75 0
M  V30 23541 O 2197.44 1.49947 -1.06121 0
M  V30 23542 C 2197.5 -0.980001 -3.45885 0
M  V30 23543 C 2197.16 -2.41238 -3.8814 0
M  V30 23544 C 2198.16 -3.3932 -3.93901 0
M  V30 23545 C 2195.85 -2.75313 -4.20129 0
M  V30 23546 C 2197.84 -4.69537 -4.31061 0
M  V30 23547 C 2195.53 -4.05743 -4.56964 0
M  V30 23548 C 2196.52 -5.02666 -4.62402 0
M  V30 23549 O 2196.21 -6.30762 -4.98392 0
M  V30 23550 H 2195.94 -0.265173 -0.621819 0
M  V30 23551 H 2198.5 -1.36069 -1.53865 0
M  V30 23552 H 2196.73 -0.286265 -3.85639 0
M  V30 23553 H 2198.42 -0.679091 -4.00179 0
M  V30 23554 H 2199.18 -3.14332 -3.69352 0
M  V30 23555 H 2195.06 -2.00559 -4.15087 0
M  V30 23556 H 2198.61 -5.45187 -4.3522 0
M  V30 23557 H 2194.5 -4.3051 -4.80969 0
M  V30 23558 H 2195.27 -6.35051 -5.16384 0
M  V30 23559 N 2197.93 1.36205 -0.792844 0
M  V30 23560 C 2199.35 1.81692 -0.429545 0
M  V30 23561 C 2199.7 1.65934 1.04692 0
M  V30 23562 O 2198.82 1.18221 1.81253 0
M  V30 23563 C 2199.42 3.29866 -0.772889 0
M  V30 23564 C 2197.98 3.73549 -0.462373 0
M  V30 23565 C 2197.12 2.58419 -1.00574 0
M  V30 23566 H 2200.07 1.24378 -0.985694 0
M  V30 23567 H 2200.09 3.80444 -0.0652596 0
M  V30 23568 H 2199.61 3.41303 -1.84753 0
M  V30 23569 H 2197.71 3.6767 0.604094 0
M  V30 23570 H 2197.82 4.68857 -0.985382 0
M  V30 23571 H 2196.18 2.51065 -0.428778 0
M  V30 23572 H 2196.97 2.72639 -2.08621 0
M  V30 23573 N 2199.41 0.545154 1.47871 0
M  V30 23574 C 2200.64 0.0211204 2.06889 0
M  V30 23575 C 2201.06 -1.26718 1.39957 0
M  V30 23576 O 2200.41 -1.75741 0.492067 0
M  V30 23577 C 2200.46 -0.190754 3.60996 0
M  V30 23578 O 2200.18 1.04652 4.25417 0
M  V30 23579 C 2201.69 -0.753445 4.3685 0
M  V30 23580 H 2198.91 0.0403753 0.669784 0
M  V30 23581 H 2201.45 0.755128 1.90048 0
M  V30 23582 H 2199.6 -0.874854 3.77392 0
M  V30 23583 H 2200.02 0.836702 5.17783 0
M  V30 23584 H 2201.49 -0.851043 5.454 0
M  V30 23585 H 2201.97 -1.76193 4.02309 0
M  V30 23586 H 2202.58 -0.105429 4.25169 0
M  V30 23587 N 2200.89 -1.55074 0.28101 0
M  V30 23588 C 2202.12 -2.04592 -0.340118 0
M  V30 23589 C 2202.54 -1.15782 -1.48244 0
M  V30 23590 O 2201.9 -0.157642 -1.80613 0
M  V30 23591 C 2201.95 -3.51772 -0.793042 0
M  V30 23592 O 2201.05 -3.66037 -1.89975 0
M  V30 23593 H 2200.39 -0.660361 -0.0694173 0
M  V30 23594 H 2202.92 -2.00305 0.417028 0
M  V30 23595 H 2202.93 -3.93247 -1.08722 0
M  V30 23596 H 2201.61 -4.15878 0.0426894 0
M  V30 23597 H 2200.18 -3.36465 -1.60765 0
M  V30 23598 N 2202.37 -0.00838561 -1.57598 0
M  V30 23599 C 2203.62 0.673366 -1.90552 0
M  V30 23600 C 2203.94 1.73845 -0.883332 0
M  V30 23601 O 2203.21 1.95744 0.0781097 0
M  V30 23602 H 2201.79 0.251704 -0.703316 0
M  V30 23603 H 2204.45 -0.0512934 -1.94832 0
M  V30 23604 H 2203.55 1.1393 -2.90562 0
M  V30 23605 N 2203.85 1.55365 0.264492 0
M  V30 23606 C 2205.26 1.47395 0.612125 0
M  V30 23607 C 2205.46 0.695052 1.89133 0
M  V30 23608 O 2204.52 0.217319 2.51563 0
M  V30 23609 C 2205.83 2.91675 0.731184 0
M  V30 23610 C 2207.38 3.01941 0.824677 0
M  V30 23611 C 2207.86 4.47492 0.975443 0
M  V30 23612 N 2209.35 4.51356 1.04075 0
M  V30 23613 C 2210.08 5.61203 1.17636 0
M  V30 23614 N 2209.58 6.80899 1.27862 0
M  V30 23615 N 2211.37 5.48963 1.20814 0
M  V30 23616 H 2203.52 2.04455 -0.575492 0
M  V30 23617 H 2205.78 0.927493 -0.196115 0
M  V30 23618 H 2205.49 3.51427 -0.138454 0
M  V30 23619 H 2205.36 3.41172 1.60877 0
M  V30 23620 H 2207.75 2.42279 1.68478 0
M  V30 23621 H 2207.83 2.55682 -0.0776929 0
M  V30 23622 H 2207.48 5.07758 0.119969 0
M  V30 23623 H 2207.41 4.91415 1.89259 0
M  V30 23624 H 2209.9 3.65138 0.973782 0
M  V30 23625 H 2210.21 7.60367 1.38067 0
M  V30 23626 H 2208.56 6.83694 1.24851 0
M  V30 23627 H 2211.75 4.5439 1.12461 0
M  V30 23628 H 2211.92 6.34613 1.31038 0
M  V30 23629 N 2205.33 -0.529387 1.48443 0
M  V30 23630 C 2206.57 -1.2846 1.57701 0
M  V30 23631 C 2206.93 -1.90796 0.247947 0
M  V30 23632 O 2206.22 -1.76343 -0.749248 0
M  V30 23633 C 2206.41 -2.39553 2.65234 0
M  V30 23634 C 2206.24 -1.88107 4.08468 0
M  V30 23635 C 2205.01 -1.70685 4.75599 0
M  V30 23636 C 2207.21 -1.40926 4.94615 0
M  V30 23637 N 2205.19 -1.1387 6.03247 0
M  V30 23638 C 2206.56 -0.960627 6.12513 0
M  V30 23639 C 2208.62 -1.29235 4.80835 0
M  V30 23640 C 2207.32 -0.406666 7.1815 0
M  V30 23641 C 2209.35 -0.752384 5.86595 0
M  V30 23642 C 2208.71 -0.313823 7.03701 0
M  V30 23643 H 2204.81 -0.461069 0.631616 0
M  V30 23644 H 2207.39 -0.596853 1.85326 0
M  V30 23645 H 2205.56 -3.05823 2.3943 0
M  V30 23646 H 2207.3 -3.06584 2.64174 0
M  V30 23647 H 2204.05 -1.94225 4.31942 0
M  V30 23648 H 2204.47 -0.874713 6.71325 0
M  V30 23649 H 2209.12 -1.61747 3.90638 0
M  V30 23650 H 2206.83 -0.069225 8.0807 0
M  V30 23651 H 2210.42 -0.665091 5.77986 0
M  V30 23652 H 2209.3 0.097501 7.84139 0
M  V30 23653 N 2206.8 -1.37041 -0.778305 0
M  V30 23654 C 2208.05 -1.31626 -1.53359 0
M  V30 23655 C 2208.37 0.100797 -1.94739 0
M  V30 23656 O 2207.64 1.04344 -1.65799 0
M  V30 23657 H 2206.22 -0.484244 -0.568785 0
M  V30 23658 H 2208.88 -1.71459 -0.926712 0
M  V30 23659 H 2207.98 -1.951 -2.43603 0
M  V30 23660 N 2208.28 1.00373 -1.21503 0
M  V30 23661 C 2209.53 1.73825 -1.03098 0
M  V30 23662 C 2209.85 1.90056 0.436307 0
M  V30 23663 O 2209.12 1.45238 1.31464 0
M  V30 23664 H 2207.7 0.644009 -0.378498 0
M  V30 23665 H 2210.36 1.20947 -1.52833 0
M  V30 23666 H 2209.46 2.73692 -1.49996 0
M  V30 23667 N 2209.76 1.02298 1.19887 0
M  V30 23668 C 2210.71 0.569379 2.20776 0
M  V30 23669 C 2211.69 -0.378713 1.5638 0
M  V30 23670 O 2212.89 -0.200642 1.75859 0
M  V30 23671 C 2210.01 -0.0844474 3.43196 0
M  V30 23672 C 2209.1 0.885733 4.14748 0
M  V30 23673 N 2209.49 2.04581 4.6258 0
M  V30 23674 C 2207.79 0.707912 4.40346 0
M  V30 23675 C 2208.49 2.65723 5.17461 0
M  V30 23676 N 2207.47 1.93732 5.07906 0
M  V30 23677 H 2211.27 1.45369 2.55431 0
M  V30 23678 H 2208.78 0.889174 1.35895 0
M  V30 23679 H 2210.78 -0.426994 4.14708 0
M  V30 23680 H 2209.44 -0.96452 3.10044 0
M  V30 23681 H 2210.45 2.42548 4.57593 0
M  V30 23682 H 2207.13 -0.123567 4.17317 0
M  V30 23683 H 2208.52 3.63935 5.64802 0
M  V30 23684 N 2211.24 -1.35782 0.800057 0
M  V30 23685 C 2212.48 -1.99684 0.387045 0
M  V30 23686 C 2212.84 -1.6234 -1.03265 0
M  V30 23687 O 2212.13 -0.87328 -1.70541 0
M  V30 23688 C 2212.33 -3.5388 0.500338 0
M  V30 23689 C 2212.15 -4.06203 1.9295 0
M  V30 23690 C 2210.92 -4.3586 2.55644 0
M  V30 23691 C 2213.12 -4.25208 2.89314 0
M  V30 23692 N 2211.1 -4.74071 3.90038 0
M  V30 23693 C 2212.48 -4.66342 4.08564 0
M  V30 23694 C 2214.53 -4.07401 2.86232 0
M  V30 23695 C 2213.23 -4.91534 5.25154 0
M  V30 23696 C 2215.26 -4.33745 4.02019 0
M  V30 23697 C 2214.62 -4.75146 5.20015 0
M  V30 23698 H 2210.72 -0.758751 0.189266 0
M  V30 23699 H 2213.3 -1.64602 1.03991 0
M  V30 23700 H 2211.48 -3.88207 -0.1225 0
M  V30 23701 H 2213.21 -4.04652 0.0625444 0
M  V30 23702 H 2209.96 -4.25945 2.07046 0
M  V30 23703 H 2210.39 -4.97446 4.59213 0
M  V30 23704 H 2215.03 -3.74541 1.9616 0
M  V30 23705 H 2212.75 -5.23271 6.15803 0
M  V30 23706 H 2216.33 -4.21527 4.01006 0
M  V30 23707 H 2215.21 -4.95134 6.08122 0
M  V30 23708 N 2212.72 -0.552988 -1.4758 0
M  V30 23709 C 2213.65 0.18541 -2.32763 0
M  V30 23710 C 2214.63 0.91288 -1.43529 0
M  V30 23711 O 2215.81 0.894171 -1.7239 0
M  V30 23712 C 2212.94 1.21853 -3.25222 0
M  V30 23713 C 2211.9 0.607789 -4.23663 0
M  V30 23714 C 2211.22 1.74524 -5.05416 0
M  V30 23715 C 2212.52 -0.435674 -5.2048 0
M  V30 23716 H 2214.22 -0.525735 -2.94748 0
M  V30 23717 H 2211.76 -0.254276 -1.41737 0
M  V30 23718 H 2213.71 1.74323 -3.83653 0
M  V30 23719 H 2212.44 1.95957 -2.61282 0
M  V30 23720 H 2211.1 0.104425 -3.66451 0
M  V30 23721 H 2210.75 2.47521 -4.37884 0
M  V30 23722 H 2210.45 1.34239 -5.72061 0
M  V30 23723 H 2211.97 2.27328 -5.66705 0
M  V30 23724 H 2213.38 0.0028008 -5.733 0
M  V30 23725 H 2211.78 -0.757172 -5.95304 0
M  V30 23726 H 2212.85 -1.33311 -4.66215 0
M  V30 23727 N 2214.19 1.54923 -0.28923 0
M  V30 23728 C 2215.44 1.99505 0.322844 0
M  V30 23729 C 2215.76 1.17913 1.55311 0
M  V30 23730 O 2215.03 0.272131 1.94001 0
M  V30 23731 H 2213.61 0.736924 0.122278 0
M  V30 23732 H 2216.27 1.90796 -0.397836 0
M  V30 23733 H 2215.37 3.06219 0.603007 0
M  V30 23734 N 2215.67 0.0167433 1.57591 0
M  V30 23735 C 2216.95 -0.702532 1.82548 0
M  V30 23736 C 2217.33 -1.91045 0.898051 0
M  V30 23737 O 2216.68 -2.28447 -0.0493055 0
M  V30 23738 C 2216.89 -1.09246 3.31461 0
M  V30 23739 C 2218.23 -1.4893 3.97624 0
M  V30 23740 O 2219.26 -1.18578 3.35883 0
M  V30 23741 O 2218.12 -2.05433 5.06418 0
M  V30 23742 H 2215.21 -0.343531 0.752274 0
M  V30 23743 H 2217.76 0.0434794 1.69644 0
M  V30 23744 H 2216.53 -0.232201 3.9061 0
M  V30 23745 H 2216.15 -1.89703 3.49426 0
M  V30 23746 N 2217.15 -1.55503 -0.256249 0
M  V30 23747 C 2218.1 -1.90341 -1.33691 0
M  V30 23748 C 2219.09 -0.781468 -1.50298 0
M  V30 23749 O 2220.3 -0.965992 -1.51883 0
M  V30 23750 H 2216.67 -0.604378 -0.447473 0
M  V30 23751 H 2218.64 -2.80582 -1.01569 0
M  V30 23752 C 2217.39 -2.20647 -2.6872 0
M  V30 23753 H 2216.72 -3.06473 -2.56738 0
M  V30 23754 H 2218.16 -2.48932 -3.43233 0
M  V30 23755 C 2216.62 -1.01964 -3.21099 0
M  V30 23756 O 2217.15 -0.262832 -4.00839 0
M  V30 23757 N 2215.35 -0.812795 -2.79002 0
M  V30 23758 H 2214.9 -1.42992 -2.14268 0
M  V30 23759 H 2214.86 -0.0203628 -3.14393 0
M  V30 23760 N 2218.63 0.521507 -1.48721 0
M  V30 23761 C 2219.86 1.29951 -1.60612 0
M  V30 23762 C 2220.27 1.87281 -0.26876 0
M  V30 23763 O 2219.61 1.67549 0.753192 0
M  V30 23764 C 2219.67 2.48256 -2.60017 0
M  V30 23765 C 2219.34 2.1195 -4.04878 0
M  V30 23766 C 2220.33 1.67123 -4.92307 0
M  V30 23767 C 2218.02 2.22213 -4.50474 0
M  V30 23768 C 2220.01 1.33036 -6.23362 0
M  V30 23769 C 2217.7 1.87738 -5.81548 0
M  V30 23770 C 2218.7 1.43222 -6.67815 0
M  V30 23771 O 2218.38 1.09203 -7.96448 0
M  V30 23772 H 2218.12 0.401131 -0.544123 0
M  V30 23773 H 2220.67 0.634924 -1.9534 0
M  V30 23774 H 2218.9 3.17724 -2.20428 0
M  V30 23775 H 2220.59 3.1031 -2.61653 0
M  V30 23776 H 2221.36 1.58657 -4.58315 0
M  V30 23777 H 2217.23 2.55817 -3.83509 0
M  V30 23778 H 2220.78 0.982178 -6.90651 0
M  V30 23779 H 2216.68 1.95847 -6.15072 0
M  V30 23780 H 2217.44 1.22528 -8.09277 0
M  V30 23781 N 2220.11 1.37452 0.771027 0
M  V30 23782 C 2221.07 1.33097 1.86596 0
M  V30 23783 C 2222.07 0.234873 1.59075 0
M  V30 23784 O 2223.26 0.490762 1.67144 0
M  V30 23785 C 2220.39 1.06779 3.23745 0
M  V30 23786 H 2221.58 2.30492 1.91869 0
M  V30 23787 H 2219.14 1.22491 0.970855 0
M  V30 23788 H 2219.87 0.099186 3.24148 0
M  V30 23789 H 2219.66 1.86118 3.45112 0
M  V30 23790 H 2221.15 1.06384 4.03822 0
M  V30 23791 N 2221.58 -0.997276 1.22033 0
M  V30 23792 C 2223 -1.2602 0.979348 0
M  V30 23793 C 2223.2 -1.98785 -0.329685 0
M  V30 23794 O 2222.26 -2.29477 -1.05341 0
M  V30 23795 C 2223.57 -2.07627 2.17512 0
M  V30 23796 C 2225.12 -2.20826 2.21821 0
M  V30 23797 C 2225.59 -3.05819 3.40938 0
M  V30 23798 N 2227.08 -3.13406 3.41073 0
M  V30 23799 C 2227.82 -3.79447 4.29892 0
M  V30 23800 N 2227.31 -4.47453 5.28922 0
M  V30 23801 N 2229.11 -3.76165 4.17679 0
M  V30 23802 H 2221.26 -0.509316 2.06203 0
M  V30 23803 H 2223.52 -0.287525 0.903346 0
M  V30 23804 H 2223.23 -1.61518 3.12418 0
M  V30 23805 H 2223.1 -3.08381 2.17211 0
M  V30 23806 H 2225.49 -2.66151 1.27466 0
M  V30 23807 H 2225.57 -1.19516 2.26162 0
M  V30 23808 H 2225.21 -2.61195 4.35591 0
M  V30 23809 H 2225.14 -4.0726 3.33836 0
M  V30 23810 H 2227.63 -2.65003 2.6941 0
M  V30 23811 H 2227.95 -4.95572 5.92982 0
M  V30 23812 H 2226.29 -4.46215 5.32839 0
M  V30 23813 H 2229.48 -3.22196 3.3957 0
M  V30 23814 H 2229.66 -4.27355 4.87106 0
M  V30 23815 N 2223.06 -1.02932 -1.19343 0
M  V30 23816 C 2224.31 -0.736857 -1.89584 0
M  V30 23817 C 2224.66 0.726671 -1.7815 0
M  V30 23818 O 2223.96 1.52239 -1.16334 0
M  V30 23819 C 2224.15 -1.12325 -3.3929 0
M  V30 23820 C 2223.98 -2.6228 -3.65294 0
M  V30 23821 C 2222.75 -3.29257 -3.83298 0
M  V30 23822 C 2224.95 -3.60489 -3.66814 0
M  V30 23823 N 2222.93 -4.68311 -3.96936 0
M  V30 23824 C 2224.3 -4.85162 -3.86028 0
M  V30 23825 C 2226.36 -3.54281 -3.49842 0
M  V30 23826 C 2225.06 -6.04375 -3.90029 0
M  V30 23827 C 2227.08 -4.72909 -3.55121 0
M  V30 23828 C 2226.45 -5.96397 -3.7482 0
M  V30 23829 H 2222.55 -0.32151 -0.71285 0
M  V30 23830 H 2225.13 -1.31672 -1.43425 0
M  V30 23831 H 2223.3 -0.571591 -3.84171 0
M  V30 23832 H 2225.03 -0.78299 -3.97053 0
M  V30 23833 H 2221.79 -2.7967 -3.82206 0
M  V30 23834 H 2222.21 -5.40545 -4.07603 0
M  V30 23835 H 2226.85 -2.59794 -3.33567 0
M  V30 23836 H 2224.57 -6.9923 -4.05096 0
M  V30 23837 H 2228.16 -4.69735 -3.43279 0
M  V30 23838 H 2227.04 -6.86655 -3.7878 0
M  V30 23839 N 2224.54 1.35356 -0.807246 0
M  V30 23840 C 2225.82 1.93109 -0.31116 0
M  V30 23841 C 2226.2 1.73721 1.19934 0
M  V30 23842 O 2225.55 1.10661 1.99916 0
M  V30 23843 C 2225.76 3.41423 -0.723287 0
M  V30 23844 C 2227.1 4.18568 -0.713152 0
M  V30 23845 O 2228.13 3.4994 -0.664873 0
M  V30 23846 O 2226.99 5.41018 -0.772118 0
M  V30 23847 H 2224.08 0.82297 -0.0815405 0
M  V30 23848 H 2226.63 1.44428 -0.890988 0
M  V30 23849 H 2225.4 3.49267 -1.76432 0
M  V30 23850 H 2225.02 3.97424 -0.118302 0
M  V30 23851 N 2226.02 0.560807 1.47284 0
M  V30 23852 C 2226.97 -0.197901 2.31757 0
M  V30 23853 C 2227.96 -0.905828 1.43147 0
M  V30 23854 O 2229.17 -0.826705 1.59892 0
M  V30 23855 H 2225.54 -0.0826918 0.74744 0
M  V30 23856 H 2227.51 0.53368 2.93589 0
M  V30 23857 C 2226.26 -1.21244 3.25876 0
M  V30 23858 H 2225.58 -0.677121 3.94024 0
M  V30 23859 H 2227.02 -1.71412 3.87806 0
M  V30 23860 C 2225.48 -2.26217 2.49655 0
M  V30 23861 O 2226.01 -3.33204 2.24361 0
M  V30 23862 N 2224.22 -2.0024 2.106 0
M  V30 23863 H 2223.77 -1.13248 2.31371 0
M  V30 23864 H 2223.72 -2.70691 1.59918 0
M  V30 23865 N 2227.5 -1.54768 0.297442 0
M  V30 23866 C 2228.43 -2.19555 -0.622149 0
M  V30 23867 C 2229.41 -1.16378 -1.13556 0
M  V30 23868 O 2230.59 -1.45004 -1.20442 0
M  V30 23869 C 2227.72 -2.83657 -1.85085 0
M  V30 23870 C 2226.76 -4.0033 -1.47099 0
M  V30 23871 S 2227.6 -5.32871 -0.529967 0
M  V30 23872 C 2228.75 -6.00453 -1.76654 0
M  V30 23873 H 2228.99 -2.97213 -0.0717284 0
M  V30 23874 H 2226.52 -1.54184 0.0815949 0
M  V30 23875 H 2228.48 -3.21215 -2.55599 0
M  V30 23876 H 2227.14 -2.05851 -2.37243 0
M  V30 23877 H 2226.33 -4.43951 -2.38586 0
M  V30 23878 H 2225.93 -3.6431 -0.845821 0
M  V30 23879 H 2228.23 -6.21044 -2.70759 0
M  V30 23880 H 2229.17 -6.94662 -1.37296 0
M  V30 23881 H 2229.58 -5.30057 -1.94164 0
M  V30 23882 N 2228.97 -0.0251005 -1.5758 0
M  V30 23883 C 2230.25 0.692841 -1.82918 0
M  V30 23884 C 2230.63 1.90566 -0.90817 0
M  V30 23885 O 2229.98 2.2847 0.0371897 0
M  V30 23886 C 2230.19 1.07486 -3.32036 0
M  V30 23887 C 2231.54 1.46819 -3.98408 0
M  V30 23888 O 2232.56 1.16796 -3.36507 0
M  V30 23889 O 2231.42 2.02745 -5.07501 0
M  V30 23890 H 2228.51 0.339537 -0.754085 0
M  V30 23891 H 2231.06 -0.0524754 -1.69619 0
M  V30 23892 H 2229.83 0.211483 -3.90728 0
M  V30 23893 H 2229.46 1.87848 -3.50427 0
M  V30 23894 N 2230.45 1.55637 0.247999 0
M  V30 23895 C 2231.4 1.90224 1.30703 0
M  V30 23896 C 2232.37 0.756358 1.4788 0
M  V30 23897 O 2233.55 1.00991 1.61881 0
M  V30 23898 C 2230.69 2.20142 2.65766 0
M  V30 23899 C 2229.81 3.4753 2.56606 0
M  V30 23900 C 2228.94 3.67024 3.84014 0
M  V30 23901 C 2227.98 4.88017 3.69467 0
M  V30 23902 N 2227.12 5.04037 4.88765 0
M  V30 23903 H 2231.96 2.80539 1.00507 0
M  V30 23904 H 2229.5 1.38874 0.485031 0
M  V30 23905 H 2231.45 2.35493 3.44382 0
M  V30 23906 H 2230.08 1.33032 2.94113 0
M  V30 23907 H 2229.14 3.40517 1.69565 0
M  V30 23908 H 2230.45 4.36292 2.41767 0
M  V30 23909 H 2229.6 3.82328 4.71074 0
M  V30 23910 H 2228.34 2.76494 4.01749 0
M  V30 23911 H 2227.35 4.72691 2.80791 0
M  V30 23912 H 2228.57 5.80006 3.53228 0
M  V30 23913 H 2226.52 4.16444 5.06863 0
M  V30 23914 H 2226.43 5.86885 4.76552 0
M  V30 23915 H 2227.7 5.23751 5.77326 0
M  V30 23916 N 2231.93 -0.513613 1.48996 0
M  V30 23917 C 2233.16 -1.29759 1.61794 0
M  V30 23918 C 2233.58 -1.85936 0.284508 0
M  V30 23919 O 2232.94 -1.65234 -0.746156 0
M  V30 23920 C 2232.99 -2.41268 2.67997 0
M  V30 23921 O 2232.09 -3.44768 2.26294 0
M  V30 23922 H 2231.43 -0.383621 0.54197 0
M  V30 23923 H 2233.96 -0.616273 1.95098 0
M  V30 23924 H 2233.97 -2.87216 2.89777 0
M  V30 23925 H 2232.65 -1.99743 3.64795 0
M  V30 23926 H 2231.22 -3.04825 2.14793 0
M  V30 23927 N 2233.41 -1.37859 -0.763727 0
M  V30 23928 C 2234.66 -1.3283 -1.51786 0
M  V30 23929 C 2234.97 0.0823376 -1.95427 0
M  V30 23930 O 2236.18 0.255124 -2.70299 0
M  V30 23931 C 2234.63 -2.33198 -2.74129 0
M  V30 23932 C 2234.24 -3.79831 -2.37555 0
M  V30 23933 C 2235.99 -2.37195 -3.5205 0
M  V30 23934 C 2233.89 -4.7191 -3.56448 0
M  V30 23935 H 2232.82 -0.493705 -0.569887 0
M  V30 23936 H 2235.47 -1.63361 -0.835793 0
M  V30 23937 H 2233.86 -1.95696 -3.44266 0
M  V30 23938 H 2235.03 -4.26215 -1.7515 0
M  V30 23939 H 2233.34 -3.78856 -1.72791 0
M  V30 23940 H 2235.94 -3.0319 -4.40432 0
M  V30 23941 H 2236.28 -1.38789 -3.92484 0
M  V30 23942 H 2236.82 -2.73445 -2.88917 0
M  V30 23943 H 2233.56 -5.71474 -3.21089 0
M  V30 23944 H 2233.08 -4.30225 -4.17931 0
M  V30 23945 H 2234.76 -4.89433 -4.23159 0
M  V30 23946 N 2234.89 0.990791 -1.22561 0
M  V30 23947 C 2236.14 1.72485 -1.04556 0
M  V30 23948 C 2236.45 1.91053 0.419316 0
M  V30 23949 O 2237.66 2.61804 0.719075 0
M  V30 23950 C 2236.11 3.10351 -1.82236 0
M  V30 23951 C 2235.72 2.99707 -3.32986 0
M  V30 23952 C 2237.46 3.87788 -1.72687 0
M  V30 23953 C 2235.37 4.32741 -4.03099 0
M  V30 23954 H 2234.3 0.646732 -0.387626 0
M  V30 23955 H 2236.95 1.10591 -1.46431 0
M  V30 23956 H 2235.33 3.7294 -1.33161 0
M  V30 23957 H 2236.51 2.46271 -3.89471 0
M  V30 23958 H 2234.82 2.35752 -3.43235 0
M  V30 23959 H 2237.42 4.86258 -2.2239 0
M  V30 23960 H 2237.76 4.10581 -0.687679 0
M  V30 23961 H 2238.3 3.31881 -2.19316 0
M  V30 23962 H 2235.03 4.15147 -5.0728 0
M  V30 23963 H 2234.55 4.86082 -3.51403 0
M  V30 23964 H 2236.23 5.01479 -4.08813 0
M  V30 23965 N 2236.37 1.03564 1.18795 0
M  V30 23966 C 2237.61 0.734602 1.88276 0
M  V30 23967 C 2237.93 -0.739554 1.80432 0
M  V30 23968 O 2237.2 -1.53331 1.21928 0
M  V30 23969 H 2235.78 0.268737 0.696986 0
M  V30 23970 H 2238.45 1.31131 1.44189 0
M  V30 23971 H 2237.54 1.03494 2.94441 0
M  V30 23972 N 2237.84 -1.34926 0.814413 0
M  V30 23973 C 2238.78 -2.27523 0.175681 0
M  V30 23974 C 2239.75 -1.48472 -0.662927 0
M  V30 23975 O 2240.94 -1.77713 -0.628514 0
M  V30 23976 C 2238.07 -3.30167 -0.755458 0
M  V30 23977 C 2237.11 -4.265 0.00452802 0
M  V30 23978 S 2237.94 -5.1831 1.34591 0
M  V30 23979 C 2239.1 -6.24493 0.419424 0
M  V30 23980 H 2239.33 -2.81349 0.96074 0
M  V30 23981 H 2236.87 -1.41845 0.609871 0
M  V30 23982 H 2238.82 -3.89798 -1.28716 0
M  V30 23983 H 2237.49 -2.75205 -1.51397 0
M  V30 23984 H 2236.68 -4.99073 -0.70299 0
M  V30 23985 H 2236.28 -3.71079 0.466512 0
M  V30 23986 H 2238.57 -6.76363 -0.392313 0
M  V30 23987 H 2239.52 -6.99273 1.11458 0
M  V30 23988 H 2239.92 -5.64499 0.0116381 0
M  V30 23989 N 2239.32 -0.56861 -1.46985 0
M  V30 23990 C 2240.25 0.220739 -2.2713 0
M  V30 23991 C 2241.23 0.909881 -1.34759 0
M  V30 23992 O 2242.42 0.926594 -1.64154 0
M  V30 23993 C 2239.54 1.31547 -3.12111 0
M  V30 23994 C 2238.59 0.733674 -4.20142 0
M  V30 23995 S 2239.42 -0.428573 -5.33782 0
M  V30 23996 C 2240.58 0.667701 -6.22328 0
M  V30 23997 H 2240.81 -0.459319 -2.9373 0
M  V30 23998 H 2238.34 -0.355181 -1.50259 0
M  V30 23999 H 2240.3 1.94235 -3.61639 0
M  V30 24000 H 2238.96 1.96741 -2.4485 0
M  V30 24001 H 2238.16 1.55612 -4.79376 0
M  V30 24002 H 2237.76 0.182746 -3.73553 0
M  V30 24003 H 2240.05 1.55696 -6.59367 0
M  V30 24004 H 2240.99 0.112456 -7.08011 0
M  V30 24005 H 2241.4 0.965503 -5.56182 0
M  V30 24006 N 2240.8 1.54608 -0.305646 0
M  V30 24007 C 2241.71 2.27375 0.57774 0
M  V30 24008 C 2242.73 1.31063 1.14448 0
M  V30 24009 O 2243.9 1.64052 1.16828 0
M  V30 24010 C 2240.97 3.00385 1.73118 0
M  V30 24011 C 2240.03 4.12244 1.19805 0
M  V30 24012 C 2239.26 4.81763 2.29651 0
M  V30 24013 O 2239.48 4.50673 3.49643 0
M  V30 24014 O 2238.42 5.69066 1.96081 0
M  V30 24015 H 2242.24 3.03697 -0.0126774 0
M  V30 24016 H 2239.83 1.49227 -0.0719446 0
M  V30 24017 H 2241.71 3.46164 2.40309 0
M  V30 24018 H 2240.39 2.26953 2.30811 0
M  V30 24019 H 2239.29 3.70854 0.491733 0
M  V30 24020 H 2240.63 4.87667 0.66648 0
M  V30 24021 N 2242.28 0.033457 1.57564 0
M  V30 24022 C 2243.52 -0.644238 1.91979 0
M  V30 24023 C 2243.85 -1.71885 0.910261 0
M  V30 24024 O 2243.11 -1.95536 -0.0801618 0
M  V30 24025 C 2243.41 -1.29498 3.33114 0
M  V30 24026 C 2243.07 -0.350309 4.49537 0
M  V30 24027 C 2241.73 -0.0903128 4.81115 0
M  V30 24028 C 2244.09 0.298123 5.20347 0
M  V30 24029 C 2241.41 0.825848 5.80859 0
M  V30 24030 C 2243.77 1.20237 6.21068 0
M  V30 24031 C 2242.43 1.47121 6.51085 0
M  V30 24032 H 2241.7 -0.235743 0.7025 0
M  V30 24033 H 2244.35 0.0961512 1.91258 0
M  V30 24034 H 2242.65 -2.11022 3.30117 0
M  V30 24035 H 2244.35 -1.82597 3.57015 0
M  V30 24036 H 2240.94 -0.563131 4.24884 0
M  V30 24037 H 2245.12 0.110322 4.96177 0
M  V30 24038 H 2240.38 1.0418 6.02459 0
M  V30 24039 H 2244.55 1.71098 6.75054 0
M  V30 24040 H 2242.18 2.18277 7.28189 0
M  V30 24041 N 2243.76 -1.55766 -0.239741 0
M  V30 24042 C 2244.98 -1.82336 -0.988341 0
M  V30 24043 C 2245.41 -0.611452 -1.77884 0
M  V30 24044 O 2244.76 0.439608 -1.7589 0
M  V30 24045 C 2244.81 -3.06718 -1.89621 0
M  V30 24046 O 2243.92 -2.84136 -2.98899 0
M  V30 24047 H 2243.26 -0.601681 -0.280848 0
M  V30 24048 H 2245.79 -2.0296 -0.258562 0
M  V30 24049 H 2245.8 -3.36342 -2.30951 0
M  V30 24050 H 2244.47 -3.94562 -1.31504 0
M  V30 24051 H 2243.05 -2.65699 -2.61646 0
M  V30 24052 N 2245.23 0.505704 -1.49266 0
M  V30 24053 C 2246.16 1.6165 -1.68498 0
M  V30 24054 C 2247.14 1.61511 -0.533688 0
M  V30 24055 O 2248.33 1.78326 -0.769002 0
M  V30 24056 C 2245.46 3.00154 -1.74714 0
M  V30 24057 C 2244.41 3.15157 -2.89586 0
M  V30 24058 C 2243.74 4.54965 -2.80911 0
M  V30 24059 C 2245.04 2.95627 -4.30584 0
M  V30 24060 H 2246.73 1.45809 -2.61496 0
M  V30 24061 H 2244.28 0.700028 -1.2584 0
M  V30 24062 H 2246.23 3.77757 -1.86755 0
M  V30 24063 H 2244.96 3.17072 -0.783123 0
M  V30 24064 H 2243.62 2.39977 -2.7714 0
M  V30 24065 H 2243.26 4.68753 -1.82427 0
M  V30 24066 H 2242.96 4.65945 -3.58007 0
M  V30 24067 H 2244.49 5.34636 -2.94953 0
M  V30 24068 H 2245.9 3.63003 -4.43736 0
M  V30 24069 H 2244.3 3.18082 -5.08866 0
M  V30 24070 H 2245.37 1.91798 -4.45356 0
M  V30 24071 N 2246.71 1.38262 0.756405 0
M  V30 24072 C 2247.96 1.34315 1.51545 0
M  V30 24073 C 2248.29 -0.0676802 1.94382 0
M  V30 24074 O 2247.54 -1.04418 1.65516 0
M  V30 24075 C 2247.84 2.24229 2.78309 0
M  V30 24076 C 2247.51 3.72246 2.54449 0
M  V30 24077 C 2246.17 4.12581 2.4765 0
M  V30 24078 C 2248.52 4.65953 2.33532 0
M  V30 24079 C 2245.85 5.44717 2.17946 0
M  V30 24080 C 2248.2 5.98343 2.05349 0
M  V30 24081 C 2246.87 6.37766 1.97005 0
M  V30 24082 H 2246.14 0.491492 0.554542 0
M  V30 24083 H 2248.78 1.70596 0.870009 0
M  V30 24084 H 2247.09 1.80993 3.47489 0
M  V30 24085 H 2248.78 2.1848 3.36255 0
M  V30 24086 H 2245.37 3.40265 2.6061 0
M  V30 24087 H 2249.56 4.35639 2.37765 0
M  V30 24088 H 2244.81 5.74207 2.09992 0
M  V30 24089 H 2248.99 6.70497 1.88167 0
M  V30 24090 H 2246.62 7.40077 1.73753 0
M  V30 24091 N 2248.19 -0.984277 1.23084 0
M  V30 24092 C 2249.44 -1.72163 1.05851 0
M  V30 24093 C 2249.76 -1.90726 -0.406016 0
M  V30 24094 O 2249.03 -1.47311 -1.29136 0
M  V30 24095 H 2247.61 -0.637906 0.388696 0
M  V30 24096 H 2250.27 -1.185 1.54738 0
M  V30 24097 H 2249.37 -2.71271 1.54331 0
M  V30 24098 N 2249.67 -1.04192 -1.18244 0
M  V30 24099 C 2250.6 -0.578513 -2.20745 0
M  V30 24100 C 2251.58 0.387596 -1.57913 0
M  V30 24101 O 2252.76 0.301601 -1.86072 0
M  V30 24102 C 2249.89 0.154703 -3.38347 0
M  V30 24103 C 2248.94 -0.764856 -4.19586 0
M  V30 24104 S 2249.77 -2.24844 -4.8601 0
M  V30 24105 C 2250.93 -1.5261 -6.0701 0
M  V30 24106 H 2251.16 -1.44696 -2.59712 0
M  V30 24107 H 2248.69 -0.852993 -1.28699 0
M  V30 24108 H 2250.65 0.57157 -4.06501 0
M  V30 24109 H 2249.31 0.999053 -2.97788 0
M  V30 24110 H 2248.5 -0.198064 -5.03611 0
M  V30 24111 H 2248.11 -1.12063 -3.56816 0
M  V30 24112 H 2250.4 -0.819852 -6.72521 0
M  V30 24113 H 2251.34 -2.34345 -6.68198 0
M  V30 24114 H 2251.75 -1.01789 -5.55247 0
M  V30 24115 N 2251.15 1.34492 -0.821557 0
M  V30 24116 C 2252.37 2.03084 -0.420909 0
M  V30 24117 C 2252.8 1.61467 0.964887 0
M  V30 24118 O 2252.15 0.798636 1.62762 0
M  V30 24119 C 2252.2 3.56692 -0.529477 0
M  V30 24120 O 2251.31 4.09924 0.45123 0
M  V30 24121 H 2250.65 0.640932 -0.173501 0
M  V30 24122 H 2253.18 1.71769 -1.1116 0
M  V30 24123 H 2253.19 4.05987 -0.404742 0
M  V30 24124 H 2251.86 3.8633 -1.54021 0
M  V30 24125 H 2250.44 3.71806 0.285493 0
M  V30 24126 N 2252.62 0.576397 1.46681 0
M  V30 24127 C 2253.85 0.0649056 2.06498 0
M  V30 24128 C 2254.26 -1.24268 1.42668 0
M  V30 24129 O 2253.61 -1.7607 0.523917 0
M  V30 24130 C 2253.67 -0.181753 3.5904 0
M  V30 24131 C 2253.33 1.03928 4.45026 0
M  V30 24132 C 2254.33 1.94974 4.81955 0
M  V30 24133 C 2252.01 1.25935 4.86257 0
M  V30 24134 C 2254.01 3.06381 5.58936 0
M  V30 24135 C 2251.69 2.37648 5.62998 0
M  V30 24136 C 2252.69 3.277 5.99251 0
M  V30 24137 O 2252.38 4.37473 6.74442 0
M  V30 24138 H 2252.11 0.0516105 0.674027 0
M  V30 24139 H 2254.67 0.794984 1.89392 0
M  V30 24140 H 2252.9 -0.96637 3.7443 0
M  V30 24141 H 2254.59 -0.640977 4.00807 0
M  V30 24142 H 2255.35 1.79185 4.50686 0
M  V30 24143 H 2251.23 0.567529 4.57493 0
M  V30 24144 H 2254.77 3.76695 5.87151 0
M  V30 24145 H 2250.67 2.53402 5.93681 0
M  V30 24146 H 2251.44 4.35761 6.9286 0
M  V30 24147 N 2254.1 -1.54444 0.313841 0
M  V30 24148 C 2255.33 -2.04802 -0.293882 0
M  V30 24149 C 2255.75 -1.1905 -1.46535 0
M  V30 24150 O 2255.1 -0.218971 -1.81182 0
M  V30 24151 C 2255.15 -3.53892 -0.737744 0
M  V30 24152 O 2254.87 -4.36386 0.387115 0
M  V30 24153 C 2256.38 -4.20302 -1.40929 0
M  V30 24154 H 2253.6 -0.66813 -0.061994 0
M  V30 24155 H 2256.14 -1.99324 0.457205 0
M  V30 24156 H 2254.29 -3.5969 -1.43883 0
M  V30 24157 H 2254.71 -5.24485 0.0392196 0
M  V30 24158 H 2256.18 -5.26104 -1.67089 0
M  V30 24159 H 2256.66 -3.7082 -2.35348 0
M  V30 24160 H 2257.27 -4.18616 -0.751043 0
M  V30 24161 N 2255.58 -0.0418125 -1.57545 0
M  V30 24162 C 2256.83 0.632796 -1.91938 0
M  V30 24163 C 2257.15 1.71933 -0.920008 0
M  V30 24164 O 2256.42 1.95866 0.0365719 0
M  V30 24165 H 2255 0.236729 -0.708497 0
M  V30 24166 H 2257.66 -0.0926087 -1.9468 0
M  V30 24167 H 2256.76 1.07741 -2.92913 0
M  V30 24168 N 2257.06 1.55891 0.231477 0
M  V30 24169 C 2258.02 1.90781 1.27024 0
M  V30 24170 C 2259.02 0.785531 1.40307 0
M  V30 24171 O 2260.21 1.05338 1.38742 0
M  V30 24172 C 2257.34 2.14988 2.64562 0
M  V30 24173 H 2258.54 2.83678 0.972968 0
M  V30 24174 H 2256.09 1.4902 0.47146 0
M  V30 24175 H 2256.82 1.2461 2.99404 0
M  V30 24176 H 2256.61 2.96737 2.563 0
M  V30 24177 H 2258.1 2.43111 3.39539 0
M  V30 24178 N 2258.54 -0.497781 1.49532 0
M  V30 24179 C 2259.81 -1.25912 1.49685 0
M  V30 24180 C 2260.19 -2.09883 0.226376 0
M  V30 24181 O 2259.54 -2.14367 -0.791152 0
M  V30 24182 C 2259.75 -2.11308 2.77759 0
M  V30 24183 C 2261.1 -2.70389 3.27376 0
M  V30 24184 O 2262.12 -2.21573 2.78898 0
M  V30 24185 O 2260.98 -3.59265 4.11814 0
M  V30 24186 H 2258.08 -0.56995 0.599238 0
M  V30 24187 H 2260.62 -0.511788 1.61799 0
M  V30 24188 H 2259.39 -1.49257 3.61715 0
M  V30 24189 H 2259.02 -2.93228 2.6852 0
M  V30 24190 N 2260.01 -1.38661 -0.749062 0
M  V30 24191 C 2261.26 -1.34432 -1.50369 0
M  V30 24192 C 2261.58 0.0616053 -1.95503 0
M  V30 24193 O 2262.78 0.226441 -2.70554 0
M  V30 24194 C 2261.24 -2.36092 -2.7164 0
M  V30 24195 C 2260.85 -3.82329 -2.33513 0
M  V30 24196 C 2262.59 -2.40915 -3.49514 0
M  V30 24197 C 2260.5 -4.75664 -3.51422 0
M  V30 24198 H 2259.43 -0.499721 -0.564619 0
M  V30 24199 H 2262.08 -1.64238 -0.81842 0
M  V30 24200 H 2260.46 -1.99336 -3.42171 0
M  V30 24201 H 2261.63 -4.28049 -1.70619 0
M  V30 24202 H 2259.95 -3.80668 -1.68763 0
M  V30 24203 H 2262.55 -3.07844 -4.37191 0
M  V30 24204 H 2262.89 -1.42944 -3.9099 0
M  V30 24205 H 2263.42 -2.76494 -2.86 0
M  V30 24206 H 2260.16 -5.74847 -3.15009 0
M  V30 24207 H 2259.68 -4.34634 -4.13344 0
M  V30 24208 H 2261.36 -4.93894 -4.17944 0
M  V30 24209 N 2261.49 0.977736 -1.23605 0
M  V30 24210 C 2262.73 1.73444 -1.08151 0
M  V30 24211 C 2263.1 1.88307 0.374752 0
M  V30 24212 O 2264.3 2.60809 0.650543 0
M  V30 24213 C 2262.57 3.09346 -1.78996 0
M  V30 24214 S 2264.13 4.00564 -1.79148 0
M  V30 24215 H 2260.95 0.596451 -0.386998 0
M  V30 24216 H 2263.55 1.16789 -1.56782 0
M  V30 24217 H 2262.25 2.96182 -2.84086 0
M  V30 24218 H 2261.78 3.71069 -1.30658 0
M  V30 24219 H 2263.8 4.88831 -0.851978 0
M  V30 24220 N 2262.97 1.04818 1.1769 0
M  V30 24221 C 2264.22 0.75453 1.87487 0
M  V30 24222 C 2264.54 -0.720375 1.81206 0
M  V30 24223 O 2263.81 -1.52029 1.23547 0
M  V30 24224 H 2262.39 0.276114 0.694096 0
M  V30 24225 H 2265.05 1.32653 1.4279 0
M  V30 24226 H 2264.15 1.06611 2.93326 0
M  V30 24227 N 2264.45 -1.34055 0.828678 0
M  V30 24228 C 2265.7 -1.98107 0.419493 0
M  V30 24229 C 2266.02 -1.6568 -1.01883 0
M  V30 24230 O 2265.28 -0.923543 -1.72537 0
M  V30 24231 C 2265.58 -3.5274 0.575288 0
M  V30 24232 C 2265.24 -4.05092 1.98019 0
M  V30 24233 C 2263.91 -4.191 2.3645 0
M  V30 24234 C 2266.26 -4.33182 2.89832 0
M  V30 24235 C 2263.59 -4.58529 3.66017 0
M  V30 24236 C 2265.94 -4.74059 4.18869 0
M  V30 24237 C 2264.6 -4.86273 4.57269 0
M  V30 24238 H 2263.87 -0.724926 0.153503 0
M  V30 24239 H 2266.52 -1.59902 1.05374 0
M  V30 24240 H 2264.82 -3.91541 -0.142317 0
M  V30 24241 H 2266.52 -4.00286 0.239128 0
M  V30 24242 H 2263.11 -3.94655 1.67168 0
M  V30 24243 H 2267.3 -4.21892 2.61382 0
M  V30 24244 H 2262.55 -4.66177 3.95587 0
M  V30 24245 H 2266.73 -4.94753 4.90094 0
M  V30 24246 H 2264.35 -5.16582 5.57716 0
M  V30 24247 N 2265.93 -0.584167 -1.46374 0
M  V30 24248 C 2267.17 -0.070303 -2.02378 0
M  V30 24249 C 2267.5 1.2902 -1.45548 0
M  V30 24250 O 2266.76 1.85917 -0.610999 0
M  V30 24251 C 2267.06 0.0438714 -3.57373 0
M  V30 24252 C 2266.72 -1.24923 -4.3325 0
M  V30 24253 C 2265.38 -1.60349 -4.53698 0
M  V30 24254 C 2267.74 -2.10488 -4.76806 0
M  V30 24255 C 2265.06 -2.81137 -5.14955 0
M  V30 24256 C 2267.42 -3.30503 -5.39398 0
M  V30 24257 C 2266.08 -3.6621 -5.58074 0
M  V30 24258 H 2265.35 -0.0257257 -0.740553 0
M  V30 24259 H 2268 -0.761096 -1.75726 0
M  V30 24260 H 2266.3 0.817801 -3.8317 0
M  V30 24261 H 2268 0.457248 -3.98385 0
M  V30 24262 H 2264.59 -0.963437 -4.17631 0
M  V30 24263 H 2268.77 -1.84422 -4.60763 0
M  V30 24264 H 2264.03 -3.08938 -5.27605 0
M  V30 24265 H 2268.2 -3.97073 -5.72107 0
M  V30 24266 H 2265.83 -4.59896 -6.0531 0
M  V30 24267 N 2267.41 1.54275 -0.322027 0
M  V30 24268 C 2268.35 2.25754 0.560167 0
M  V30 24269 C 2269.35 1.27108 1.11982 0
M  V30 24270 O 2270.55 1.4489 1.06804 0
M  V30 24271 H 2266.93 0.725112 0.199291 0
M  V30 24272 H 2268.9 2.98329 -0.0649889 0
M  V30 24273 C 2267.65 3.02734 1.71018 0
M  V30 24274 H 2266.97 3.78458 1.28879 0
M  V30 24275 H 2268.41 3.55997 2.30308 0
M  V30 24276 C 2266.87 2.10942 2.62688 0
M  V30 24277 O 2267.4 1.69127 3.64361 0
M  V30 24278 N 2265.61 1.76463 2.30888 0
M  V30 24279 H 2265.15 2.10665 1.4825 0
M  V30 24280 H 2265.11 1.15325 2.92485 0
M  V30 24281 N 2268.88 0.0501669 1.5752 0
M  V30 24282 C 2269.83 -0.942421 2.12653 0
M  V30 24283 C 2270.83 -1.32291 1.05809 0
M  V30 24284 O 2272.03 -1.30268 1.24219 0
M  V30 24285 H 2268.41 -0.321777 0.679679 0
M  V30 24286 H 2270.38 -0.452304 2.94952 0
M  V30 24287 C 2269.13 -2.20831 2.68568 0
M  V30 24288 H 2268.45 -1.92433 3.50442 0
M  V30 24289 H 2269.89 -2.88444 3.10767 0
M  V30 24290 C 2268.35 -2.95231 1.62297 0
M  V30 24291 O 2268.88 -3.88133 1.03515 0
M  V30 24292 N 2267.08 -2.57944 1.33841 0
M  V30 24293 H 2266.63 -1.82472 1.81829 0
M  V30 24294 H 2266.59 -3.0803 0.629649 0
M  V30 24295 N 2270.36 -1.56011 -0.223207 0
M  V30 24296 C 2271.59 -1.83374 -0.968946 0
M  V30 24297 C 2272.01 -0.630285 -1.77226 0
M  V30 24298 O 2271.37 0.420928 -1.76346 0
M  V30 24299 C 2271.42 -3.08712 -1.86357 0
M  V30 24300 O 2270.52 -2.8729 -2.95868 0
M  V30 24301 H 2269.86 -0.604626 -0.27445 0
M  V30 24302 H 2272.39 -2.03222 -0.237021 0
M  V30 24303 H 2272.4 -3.38772 -2.2737 0
M  V30 24304 H 2271.08 -3.95935 -1.27312 0
M  V30 24305 H 2269.65 -2.68459 -2.58813 0
M  V30 24306 N 2271.84 0.489844 -1.49794 0
M  V30 24307 C 2272.75 1.6163 -1.70038 0
M  V30 24308 C 2273.77 1.63938 -0.583131 0
M  V30 24309 O 2274.94 1.82153 -0.859201 0
M  V30 24310 C 2272.01 2.97946 -1.77282 0
M  V30 24311 C 2271.07 3.06176 -3.00923 0
M  V30 24312 C 2270.3 4.3599 -3.07812 0
M  V30 24313 O 2270.52 5.2543 -2.21991 0
M  V30 24314 O 2269.46 4.49424 -4.00377 0
M  V30 24315 H 2273.28 1.47477 -2.65489 0
M  V30 24316 H 2270.87 0.667339 -1.33667 0
M  V30 24317 H 2272.75 3.78944 -1.84336 0
M  V30 24318 H 2271.43 3.12337 -0.850131 0
M  V30 24319 H 2270.33 2.24325 -2.99381 0
M  V30 24320 H 2271.67 2.96716 -3.92709 0
M  V30 24321 N 2273.32 1.39056 0.741698 0
M  V30 24322 C 2274.55 1.38972 1.52873 0
M  V30 24323 C 2274.96 -0.0192933 1.8919 0
M  V30 24324 O 2274.3 -0.999329 1.5414 0
M  V30 24325 C 2274.36 2.19221 2.84925 0
M  V30 24326 C 2274.02 3.67919 2.7108 0
M  V30 24327 C 2275.02 4.6115 2.40076 0
M  V30 24328 C 2272.71 4.11423 2.8816 0
M  V30 24329 C 2274.7 5.95866 2.26325 0
M  V30 24330 C 2272.39 5.46216 2.74028 0
M  V30 24331 C 2273.39 6.38252 2.43154 0
M  V30 24332 O 2273.07 7.70563 2.29102 0
M  V30 24333 H 2272.81 0.476762 0.479243 0
M  V30 24334 H 2275.36 1.83407 0.924719 0
M  V30 24335 H 2273.59 1.69524 3.47561 0
M  V30 24336 H 2275.28 2.11398 3.46505 0
M  V30 24337 H 2276.04 4.28842 2.26537 0
M  V30 24338 H 2271.92 3.40125 3.11185 0
M  V30 24339 H 2275.47 6.67669 2.02148 0
M  V30 24340 H 2271.36 5.78117 2.87143 0
M  V30 24341 H 2272.13 7.81215 2.44223 0
M  V30 24342 N 2274.8 -0.971167 1.24121 0
M  V30 24343 C 2275.75 -2.05018 0.997587 0
M  V30 24344 C 2276.73 -1.60789 -0.0597464 0
M  V30 24345 O 2277.92 -1.76333 0.153547 0
M  V30 24346 C 2275.05 -3.38005 0.600616 0
M  V30 24347 C 2274.14 -3.88806 1.69384 0
M  V30 24348 N 2274.53 -4.12581 2.92593 0
M  V30 24349 C 2272.83 -4.17432 1.57055 0
M  V30 24350 C 2273.53 -4.54189 3.63439 0
M  V30 24351 N 2272.5 -4.59159 2.90987 0
M  V30 24352 H 2276.3 -2.2137 1.9332 0
M  V30 24353 H 2273.82 -1.15468 1.14196 0
M  V30 24354 H 2275.82 -4.14905 0.407323 0
M  V30 24355 H 2274.48 -3.23041 -0.327846 0
M  V30 24356 H 2275.49 -4.00133 3.28807 0
M  V30 24357 H 2272.16 -4.11421 0.70987 0
M  V30 24358 H 2273.55 -4.81025 4.6911 0
M  V30 24359 N 2276.27 -1.05441 -1.17133 0
M  V30 24360 C 2277.2 -0.678688 -2.23419 0
M  V30 24361 C 2278.19 0.324731 -1.66972 0
M  V30 24362 O 2279.37 0.201768 -1.93149 0
M  V30 24363 C 2276.5 -0.055271 -3.47256 0
M  V30 24364 C 2275.45 -0.983723 -4.16542 0
M  V30 24365 C 2274.78 -0.224055 -5.3423 0
M  V30 24366 C 2276.08 -2.30898 -4.68491 0
M  V30 24367 H 2277.77 -1.56726 -2.55103 0
M  V30 24368 H 2275.32 -0.755019 -1.22619 0
M  V30 24369 H 2277.27 0.219386 -4.20829 0
M  V30 24370 H 2276 0.868264 -3.14847 0
M  V30 24371 H 2274.66 -1.24299 -3.44885 0
M  V30 24372 H 2274.3 0.702325 -4.98073 0
M  V30 24373 H 2274 -0.842729 -5.81525 0
M  V30 24374 H 2275.53 0.0432598 -6.10585 0
M  V30 24375 H 2276.94 -2.09405 -5.33688 0
M  V30 24376 H 2275.34 -2.88185 -5.26374 0
M  V30 24377 H 2276.41 -2.94579 -3.85164 0
M  V30 24378 N 2277.75 1.33613 -0.835776 0
M  V30 24379 C 2278.99 1.99695 -0.436025 0
M  V30 24380 C 2279.36 1.64776 0.985541 0
M  V30 24381 O 2280.56 2.238 1.48885 0
M  V30 24382 C 2278.83 3.51499 -0.646783 0
M  V30 24383 S 2280.39 4.37467 -0.341792 0
M  V30 24384 H 2277.21 0.691792 -0.164148 0
M  V30 24385 H 2279.81 1.62669 -1.08439 0
M  V30 24386 H 2278.51 3.74401 -1.68083 0
M  V30 24387 H 2278.04 3.93397 0.0158482 0
M  V30 24388 H 2280.06 4.89045 0.839622 0
M  V30 24389 N 2279.23 0.591922 1.46062 0
M  V30 24390 C 2280.46 0.0869299 2.06717 0
M  V30 24391 C 2280.87 -1.22201 1.43918 0
M  V30 24392 O 2280.23 -1.74087 0.547729 0
M  V30 24393 C 2280.28 -0.0758089 3.61421 0
M  V30 24394 O 2280 1.18133 4.21872 0
M  V30 24395 C 2281.5 -0.614083 4.39026 0
M  V30 24396 H 2278.72 0.0616635 0.668161 0
M  V30 24397 H 2281.27 0.815208 1.87549 0
M  V30 24398 H 2279.42 -0.754346 3.79985 0
M  V30 24399 H 2279.84 1.00101 5.14859 0
M  V30 24400 H 2281.31 -0.677097 5.47832 0
M  V30 24401 H 2281.79 -1.63305 4.07711 0
M  V30 24402 H 2282.39 0.029889 4.25289 0
M  V30 24403 N 2280.71 -1.54102 0.330204 0
M  V30 24404 C 2282.12 -1.59585 -0.022209 0
M  V30 24405 C 2282.32 -1.34656 -1.499 0
M  V30 24406 O 2281.38 -1.13425 -2.2559 0
M  V30 24407 C 2282.69 -2.98001 0.401984 0
M  V30 24408 C 2284.24 -3.11001 0.353199 0
M  V30 24409 C 2284.72 -4.51773 0.752656 0
M  V30 24410 N 2286.21 -4.57783 0.706319 0
M  V30 24411 C 2286.94 -5.64832 0.987516 0
M  V30 24412 N 2286.44 -6.79792 1.33619 0
M  V30 24413 N 2288.23 -5.54642 0.912638 0
M  V30 24414 H 2280.38 -1.68562 1.29231 0
M  V30 24415 H 2282.65 -0.788741 0.52592 0
M  V30 24416 H 2282.35 -3.21265 1.43115 0
M  V30 24417 H 2282.23 -3.765 -0.229633 0
M  V30 24418 H 2284.61 -2.87469 -0.666772 0
M  V30 24419 H 2284.69 -2.34591 1.01984 0
M  V30 24420 H 2284.34 -4.76039 1.77057 0
M  V30 24421 H 2284.27 -5.26562 0.0636335 0
M  V30 24422 H 2286.76 -3.75224 0.448956 0
M  V30 24423 H 2287.07 -7.57383 1.53595 0
M  V30 24424 H 2285.42 -6.81272 1.37451 0
M  V30 24425 H 2288.61 -4.63709 0.639683 0
M  V30 24426 H 2288.78 -6.3798 1.13514 0
M  V30 24427 N 2282.19 -0.0585199 -1.57491 0
M  V30 24428 C 2283.43 0.608583 -1.94082 0
M  V30 24429 C 2283.79 1.68016 -0.937467 0
M  V30 24430 O 2283.08 1.91553 0.0422697 0
M  V30 24431 C 2283.27 1.24182 -3.35132 0
M  V30 24432 C 2283.1 0.233108 -4.49095 0
M  V30 24433 C 2281.87 -0.177528 -5.04988 0
M  V30 24434 C 2284.07 -0.524395 -5.1162 0
M  V30 24435 N 2282.05 -1.17833 -6.02485 0
M  V30 24436 C 2283.42 -1.37806 -6.04491 0
M  V30 24437 C 2285.48 -0.581909 -4.94488 0
M  V30 24438 C 2284.18 -2.28411 -6.82071 0
M  V30 24439 C 2286.21 -1.47541 -5.727 0
M  V30 24440 C 2285.57 -2.31678 -6.6521 0
M  V30 24441 H 2281.67 0.194121 -0.757523 0
M  V30 24442 H 2284.25 -0.132567 -1.94248 0
M  V30 24443 H 2282.42 1.95296 -3.35729 0
M  V30 24444 H 2284.16 1.86832 -3.58993 0
M  V30 24445 H 2280.91 0.202921 -4.73165 0
M  V30 24446 H 2281.34 -1.67585 -6.5593 0
M  V30 24447 H 2285.98 0.0543687 -4.22765 0
M  V30 24448 H 2283.7 -2.9308 -7.5308 0
M  V30 24449 H 2287.28 -1.52458 -5.61469 0
M  V30 24450 H 2286.16 -2.99696 -7.24674 0
M  V30 24451 N 2283.66 1.56128 0.21493 0
M  V30 24452 C 2284.6 1.8798 1.29379 0
M  V30 24453 C 2285.58 0.737832 1.44896 0
M  V30 24454 O 2286.76 0.986861 1.60603 0
M  V30 24455 C 2283.89 2.09263 2.66321 0
M  V30 24456 C 2282.93 3.31955 2.67783 0
M  V30 24457 S 2283.77 4.87684 2.2119 0
M  V30 24458 C 2284.92 5.12011 3.59994 0
M  V30 24459 H 2285.15 2.79194 1.02168 0
M  V30 24460 H 2282.69 1.48649 0.41749 0
M  V30 24461 H 2284.65 2.22207 3.45158 0
M  V30 24462 H 2283.31 1.18834 2.90753 0
M  V30 24463 H 2282.5 3.43912 3.6843 0
M  V30 24464 H 2282.1 3.17902 1.97014 0
M  V30 24465 H 2284.39 5.01315 4.5573 0
M  V30 24466 H 2285.34 6.13867 3.52948 0
M  V30 24467 H 2285.74 4.39718 3.53989 0
M  V30 24468 N 2285.14 -0.481893 1.50052 0
M  V30 24469 C 2286.07 -1.59841 1.64266 0
M  V30 24470 C 2287.09 -1.54118 0.524537 0
M  V30 24471 O 2288.28 -1.59703 0.797321 0
M  V30 24472 C 2285.38 -2.98695 1.60108 0
M  V30 24473 C 2284.55 -3.29402 2.87773 0
M  V30 24474 C 2283.61 -4.47758 2.76405 0
M  V30 24475 O 2282.63 -4.48597 3.50356 0
M  V30 24476 N 2283.84 -5.48791 1.89232 0
M  V30 24477 H 2286.6 -1.48068 2.60568 0
M  V30 24478 H 2284.16 -0.670123 1.4738 0
M  V30 24479 H 2286.15 -3.75823 1.5013 0
M  V30 24480 H 2284.72 -3.04293 0.715851 0
M  V30 24481 H 2283.94 -2.40988 3.11959 0
M  V30 24482 H 2285.23 -3.46724 3.72371 0
M  V30 24483 H 2284.63 -5.50925 1.28443 0
M  V30 24484 H 2283.19 -6.24946 1.85165 0
M  V30 24485 N 2286.62 -1.39448 -0.734313 0
M  V30 24486 C 2287.55 -1.40959 -1.86153 0
M  V30 24487 C 2288.53 -0.272857 -1.67897 0
M  V30 24488 O 2289.72 -0.478776 -1.88206 0
M  V30 24489 C 2286.85 -1.25299 -3.23909 0
M  V30 24490 C 2285.8 -2.36379 -3.56804 0
M  V30 24491 C 2285.13 -2.05809 -4.93504 0
M  V30 24492 C 2286.43 -3.78693 -3.59707 0
M  V30 24493 H 2288.12 -2.3529 -1.85146 0
M  V30 24494 H 2285.67 -1.13255 -0.889347 0
M  V30 24495 H 2287.62 -1.24977 -4.02441 0
M  V30 24496 H 2286.34 -0.274366 -3.25446 0
M  V30 24497 H 2285 -2.35919 -2.80602 0
M  V30 24498 H 2284.65 -1.06383 -4.91622 0
M  V30 24499 H 2284.35 -2.80217 -5.16481 0
M  V30 24500 H 2285.87 -2.07138 -5.74392 0
M  V30 24501 H 2287.29 -3.81078 -4.28313 0
M  V30 24502 H 2285.69 -4.52466 -3.94201 0
M  V30 24503 H 2286.76 -4.09621 -2.59496 0
M  V30 24504 N 2288.1 0.964571 -1.24635 0
M  V30 24505 C 2289.35 1.70457 -1.08576 0
M  V30 24506 C 2289.67 1.91348 0.375621 0
M  V30 24507 O 2288.94 1.49347 1.26776 0
M  V30 24508 H 2287.52 0.631642 -0.398795 0
M  V30 24509 H 2290.18 1.16023 -1.56603 0
M  V30 24510 H 2289.28 2.68782 -1.58628 0
M  V30 24511 N 2289.58 1.0606 1.16572 0
M  V30 24512 C 2290.54 0.67343 2.19083 0
M  V30 24513 C 2291.54 -0.27962 1.5835 0
M  V30 24514 O 2292.73 -0.0623182 1.74088 0
M  V30 24515 C 2289.86 -0.00948241 3.40899 0
M  V30 24516 H 2291.05 1.58086 2.54851 0
M  V30 24517 H 2288.61 0.855539 1.30806 0
M  V30 24518 H 2289.34 -0.929772 3.10686 0
M  V30 24519 H 2289.13 0.675798 3.86232 0
M  V30 24520 H 2290.62 -0.266171 4.16751 0
M  V30 24521 N 2291.06 -1.33168 0.84285 0
M  V30 24522 C 2292.3 -1.97651 0.440482 0
M  V30 24523 C 2292.63 -1.66752 -1.0012 0
M  V30 24524 O 2291.89 -0.941791 -1.71548 0
M  V30 24525 C 2292.18 -3.5211 0.612669 0
M  V30 24526 C 2291.85 -4.02969 2.02305 0
M  V30 24527 C 2290.51 -4.16569 2.40882 0
M  V30 24528 C 2292.86 -4.30084 2.9441 0
M  V30 24529 C 2290.19 -4.54621 3.7086 0
M  V30 24530 C 2292.54 -4.6959 4.23873 0
M  V30 24531 C 2291.21 -4.81396 4.62401 0
M  V30 24532 H 2290.48 -0.723257 0.161184 0
M  V30 24533 H 2293.13 -1.58775 1.07064 0
M  V30 24534 H 2291.43 -3.9167 -0.10078 0
M  V30 24535 H 2293.13 -4.0001 0.28157 0
M  V30 24536 H 2289.72 -3.9286 1.71345 0
M  V30 24537 H 2293.9 -4.19096 2.65842 0
M  V30 24538 H 2289.16 -4.61955 4.0051 0
M  V30 24539 H 2293.33 -4.89527 4.95314 0
M  V30 24540 H 2290.96 -5.10638 5.63163 0
M  V30 24541 N 2292.53 -0.599659 -1.45746 0
M  V30 24542 C 2293.76 -0.0977495 -2.06369 0
M  V30 24543 C 2294.17 1.21983 -1.44627 0
M  V30 24544 O 2293.51 1.75215 -0.551862 0
M  V30 24545 C 2293.58 0.12461 -3.59284 0
M  V30 24546 C 2293.24 -1.10995 -4.43316 0
M  V30 24547 C 2294.24 -2.02617 -4.78793 0
M  V30 24548 C 2291.92 -1.33655 -4.84192 0
M  V30 24549 C 2293.92 -3.15234 -5.53991 0
M  V30 24550 C 2291.6 -2.46574 -5.59146 0
M  V30 24551 C 2292.6 -3.37192 -5.93962 0
M  V30 24552 O 2292.29 -4.48147 -6.67397 0
M  V30 24553 H 2292.02 -0.0623272 -0.673121 0
M  V30 24554 H 2294.58 -0.825014 -1.88103 0
M  V30 24555 H 2292.81 0.906679 -3.75921 0
M  V30 24556 H 2294.49 0.577131 -4.01776 0
M  V30 24557 H 2295.26 -1.86332 -4.47778 0
M  V30 24558 H 2291.14 -0.64024 -4.56533 0
M  V30 24559 H 2294.68 -3.85988 -5.81084 0
M  V30 24560 H 2290.58 -2.62815 -5.89575 0
M  V30 24561 H 2291.35 -4.46729 -6.85839 0
M  V30 24562 N 2294.01 1.53925 -0.338371 0
M  V30 24563 C 2295.42 1.86123 0.146619 0
M  V30 24564 C 2295.77 1.25972 1.50417 0
M  V30 24565 O 2294.9 0.571331 2.08722 0
M  V30 24566 C 2295.49 3.377 0.27282 0
M  V30 24567 C 2294.05 3.69795 0.702038 0
M  V30 24568 C 2293.2 2.76795 -0.167352 0
M  V30 24569 H 2296.15 1.48561 -0.558149 0
M  V30 24570 H 2296.17 3.64216 1.10121 0
M  V30 24571 H 2295.68 3.8145 -0.715374 0
M  V30 24572 H 2293.78 3.31587 1.69944 0
M  V30 24573 H 2293.9 4.76531 0.49552 0
M  V30 24574 H 2292.26 2.5215 0.359483 0
M  V30 24575 H 2293.04 3.23373 -1.15258 0
M  V30 24576 N 2295.49 0.0668712 1.57458 0
M  V30 24577 C 2296.72 -0.611643 1.97339 0
M  V30 24578 C 2297.13 -1.6398 0.943773 0
M  V30 24579 O 2296.47 -1.83532 -0.0785261 0
M  V30 24580 C 2296.53 -1.34199 3.33513 0
M  V30 24581 C 2296.2 -0.467861 4.54599 0
M  V30 24582 C 2297.19 0.27253 5.19185 0
M  V30 24583 C 2294.88 -0.394182 5.00751 0
M  V30 24584 C 2296.87 1.07487 6.28272 0
M  V30 24585 C 2294.56 0.411836 6.09711 0
M  V30 24586 C 2295.56 1.14504 6.73333 0
M  V30 24587 O 2295.25 1.93777 7.80196 0
M  V30 24588 H 2294.98 -0.170882 0.654045 0
M  V30 24589 H 2297.53 0.134325 2.0496 0
M  V30 24590 H 2295.76 -2.13392 3.22491 0
M  V30 24591 H 2297.45 -1.91226 3.58033 0
M  V30 24592 H 2298.22 0.225171 4.84477 0
M  V30 24593 H 2294.1 -0.95449 4.51011 0
M  V30 24594 H 2297.64 1.64767 6.77863 0
M  V30 24595 H 2293.54 0.460777 6.43853 0
M  V30 24596 H 2294.3 1.86156 7.9705 0
M  V30 24597 N 2296.97 -1.56239 -0.206647 0
M  V30 24598 C 2298.19 -1.84392 -0.949442 0
M  V30 24599 C 2298.62 -0.649047 -1.76547 0
M  V30 24600 O 2297.98 0.4022 -1.76782 0
M  V30 24601 C 2298.02 -3.10672 -1.83073 0
M  V30 24602 O 2297.13 -2.90412 -2.92805 0
M  V30 24603 H 2296.47 -0.607503 -0.268022 0
M  V30 24604 H 2299 -2.03462 -0.215453 0
M  V30 24605 H 2299.01 -3.41165 -2.23764 0
M  V30 24606 H 2297.68 -3.97263 -1.23105 0
M  V30 24607 H 2296.26 -2.71189 -2.55951 0
M  V30 24608 N 2298.45 0.473929 -1.50305 0
M  V30 24609 C 2299.86 0.807442 -1.37668 0
M  V30 24610 C 2300.06 1.96846 -0.430589 0
M  V30 24611 O 2299.12 2.52176 0.12783 0
M  V30 24612 C 2300.43 1.12218 -2.78976 0
M  V30 24613 C 2301.98 1.2288 -2.87871 0
M  V30 24614 C 2302.45 1.57668 -4.30006 0
M  V30 24615 N 2303.94 1.64665 -4.32943 0
M  V30 24616 C 2304.68 1.93082 -5.39914 0
M  V30 24617 N 2304.18 2.19538 -6.57096 0
M  V30 24618 N 2305.97 1.9456 -5.27355 0
M  V30 24619 H 2298.12 -0.291249 -2.10394 0
M  V30 24620 H 2300.38 -0.0677776 -0.945574 0
M  V30 24621 H 2300.09 0.342167 -3.50032 0
M  V30 24622 H 2299.96 2.05907 -3.16041 0
M  V30 24623 H 2302.35 1.99949 -2.17036 0
M  V30 24624 H 2302.43 0.271769 -2.54352 0
M  V30 24625 H 2302.07 0.811401 -5.01377 0
M  V30 24626 H 2302 2.54517 -4.61009 0
M  V30 24627 H 2304.5 1.46271 -3.48444 0
M  V30 24628 H 2304.81 2.40487 -7.34429 0
M  V30 24629 H 2303.15 2.16937 -6.60275 0
M  V30 24630 H 2306.34 1.73386 -4.34804 0
M  V30 24631 H 2306.52 2.16371 -6.10809 0
M  V30 24632 N 2299.92 1.39835 0.726907 0
M  V30 24633 C 2300.87 1.39357 1.86232 0
M  V30 24634 C 2301.87 0.275585 1.67143 0
M  V30 24635 O 2303.07 0.44604 1.74386 0
M  V30 24636 H 2299.45 0.435351 0.613167 0
M  V30 24637 H 2301.42 2.35113 1.83752 0
M  V30 24638 C 2300.17 1.2619 3.23993 0
M  V30 24639 H 2299.49 2.1149 3.39282 0
M  V30 24640 H 2300.93 1.29914 4.03607 0
M  V30 24641 C 2299.39 -0.0289426 3.36888 0
M  V30 24642 O 2299.92 -0.996122 3.89153 0
M  V30 24643 N 2298.12 -0.0946926 2.90446 0
M  V30 24644 H 2297.67 0.693079 2.48101 0
M  V30 24645 H 2297.63 -0.95788 2.99453 0
M  V30 24646 N 2301.4 -0.957948 1.25144 0
M  V30 24647 C 2302.35 -2.03948 1.01928 0
M  V30 24648 C 2303.34 -1.60843 -0.0426892 0
M  V30 24649 O 2304.53 -1.7616 0.172241 0
M  V30 24650 C 2301.66 -3.37349 0.636432 0
M  V30 24651 C 2300.74 -3.86987 1.73498 0
M  V30 24652 N 2301.13 -4.09454 2.96953 0
M  V30 24653 C 2299.43 -4.15743 1.61474 0
M  V30 24654 C 2300.13 -4.50308 3.68235 0
M  V30 24655 N 2299.11 -4.56047 2.95841 0
M  V30 24656 H 2302.91 -2.19307 1.95657 0
M  V30 24657 H 2300.42 -1.14251 1.15415 0
M  V30 24658 H 2302.42 -4.1445 0.451306 0
M  V30 24659 H 2301.08 -3.2337 -0.293565 0
M  V30 24660 H 2302.09 -3.96623 3.33032 0
M  V30 24661 H 2298.77 -4.10645 0.753467 0
M  V30 24662 H 2300.16 -4.76022 4.74186 0
M  V30 24663 N 2302.88 -1.06677 -1.16008 0
M  V30 24664 C 2303.83 -0.675196 -2.22584 0
M  V30 24665 C 2304.82 0.310737 -1.66526 0
M  V30 24666 O 2306.03 0.175183 -1.79145 0
M  V30 24667 H 2302.4 -0.200235 -0.724852 0
M  V30 24668 H 2304.37 -1.58385 -2.52897 0
M  V30 24669 C 2303.12 -0.0817773 -3.47604 0
M  V30 24670 H 2302.45 -0.831552 -3.91057 0
M  V30 24671 H 2303.89 0.154634 -4.23718 0
M  V30 24672 C 2302.34 1.1757 -3.1572 0
M  V30 24673 O 2302.87 2.26312 -3.31882 0
M  V30 24674 N 2301.08 1.07919 -2.69818 0
M  V30 24675 H 2300.63 0.194248 -2.56867 0
M  V30 24676 H 2300.59 1.92137 -2.48859 0
M  V30 24677 N 2304.36 1.32719 -0.8499 0
M  V30 24678 C 2305.61 1.9668 -0.447209 0
M  V30 24679 C 2305.92 1.68027 1.00132 0
M  V30 24680 O 2307.13 2.25688 1.50922 0
M  V30 24681 C 2305.58 3.52025 -0.748762 0
M  V30 24682 C 2305.19 3.89542 -2.21271 0
M  V30 24683 C 2306.93 4.22481 -0.413562 0
M  V30 24684 C 2304.84 5.37912 -2.45773 0
M  V30 24685 H 2303.77 0.73606 -0.163499 0
M  V30 24686 H 2306.42 1.51181 -1.04002 0
M  V30 24687 H 2304.8 3.95908 -0.0854423 0
M  V30 24688 H 2305.98 3.56684 -2.91742 0
M  V30 24689 H 2304.29 3.32099 -2.51196 0
M  V30 24690 H 2306.89 5.31609 -0.574111 0
M  V30 24691 H 2307.23 4.11282 0.64442 0
M  V30 24692 H 2307.77 3.84165 -1.03257 0
M  V30 24693 H 2304.5 5.54126 -3.50177 0
M  V30 24694 H 2304.02 5.72193 -1.79874 0
M  V30 24695 H 2305.7 6.04936 -2.29482 0
M  V30 24696 N 2305.84 0.60738 1.45426 0
M  V30 24697 C 2306.8 -0.101653 2.28974 0
M  V30 24698 C 2307.8 -0.795304 1.39755 0
M  V30 24699 O 2308.99 -0.643499 1.61879 0
M  V30 24700 C 2306.12 -1.15409 3.2077 0
M  V30 24701 H 2307.31 0.632896 2.93146 0
M  V30 24702 H 2304.87 0.366417 1.51944 0
M  V30 24703 H 2305.6 -1.91941 2.61399 0
M  V30 24704 H 2305.39 -0.660912 3.8649 0
M  V30 24705 H 2306.88 -1.65066 3.83592 0
M  V30 24706 N 2307.31 -1.53743 0.34653 0
M  V30 24707 C 2308.26 -2.26617 -0.52418 0
M  V30 24708 C 2309.26 -1.28873 -1.09946 0
M  V30 24709 O 2310.46 -1.4657 -1.04485 0
M  V30 24710 H 2306.84 -0.728191 -0.18773 0
M  V30 24711 H 2308.81 -2.98188 0.112442 0
M  V30 24712 C 2307.56 -3.05417 -1.6618 0
M  V30 24713 H 2306.88 -3.8046 -1.22841 0
M  V30 24714 H 2308.32 -3.59616 -2.24615 0
M  V30 24715 C 2306.78 -2.15095 -2.59299 0
M  V30 24716 O 2307.31 -1.74902 -3.61624 0
M  V30 24717 N 2305.52 -1.80114 -2.28051 0
M  V30 24718 H 2305.06 -2.12997 -1.44879 0
M  V30 24719 H 2305.02 -1.19964 -2.90613 0
M  V30 24720 N 2308.79 -0.0752207 -1.5742 0
M  V30 24721 C 2310.02 0.602042 -1.97947 0
M  V30 24722 C 2310.44 1.62942 -0.953703 0
M  V30 24723 O 2309.79 1.82404 0.059223 0
M  V30 24724 C 2309.84 1.26756 -3.38549 0
M  V30 24725 O 2309.56 0.281299 -4.37196 0
M  V30 24726 C 2311.07 2.03232 -3.93969 0
M  V30 24727 H 2308.29 0.16292 -0.650921 0
M  V30 24728 H 2310.83 -0.148636 -2.03959 0
M  V30 24729 H 2308.98 1.9693 -3.33613 0
M  V30 24730 H 2309.4 0.759176 -5.18977 0
M  V30 24731 H 2310.87 2.45184 -4.94559 0
M  V30 24732 H 2311.35 2.89024 -3.30699 0
M  V30 24733 H 2311.96 1.37917 -4.02317 0
M  V30 24734 N 2310.27 1.56347 0.198358 0
M  V30 24735 C 2311.69 1.49858 0.549059 0
M  V30 24736 C 2311.89 0.774644 1.86015 0
M  V30 24737 O 2310.94 0.32382 2.50415 0
M  V30 24738 C 2312.26 2.94514 0.606816 0
M  V30 24739 C 2313.8 3.05167 0.695872 0
M  V30 24740 C 2314.28 4.51227 0.784769 0
M  V30 24741 N 2315.77 4.55364 0.848383 0
M  V30 24742 C 2316.5 5.65688 0.937279 0
M  V30 24743 N 2316 6.85709 0.98868 0
M  V30 24744 N 2317.79 5.53593 0.974215 0
M  V30 24745 H 2309.94 2.0183 -0.661691 0
M  V30 24746 H 2312.21 0.91834 -0.235277 0
M  V30 24747 H 2311.91 3.50524 -0.287381 0
M  V30 24748 H 2311.79 3.47689 1.46262 0
M  V30 24749 H 2314.17 2.49207 1.5805 0
M  V30 24750 H 2314.26 2.55122 -0.186066 0
M  V30 24751 H 2313.9 5.0781 -0.0954964 0
M  V30 24752 H 2313.83 4.99 1.68246 0
M  V30 24753 H 2316.32 3.6894 0.818038 0
M  V30 24754 H 2316.63 7.65538 1.05693 0
M  V30 24755 H 2314.98 6.88374 0.957413 0
M  V30 24756 H 2318.17 4.58751 0.930873 0
M  V30 24757 H 2318.34 6.39599 1.04004 0
M  V30 24758 N 2311.75 -0.465951 1.50554 0
M  V30 24759 C 2313.16 -0.80013 1.38094 0
M  V30 24760 C 2313.36 -1.96614 0.441023 0
M  V30 24761 O 2312.42 -2.5224 -0.114454 0
M  V30 24762 C 2313.73 -1.10737 2.79567 0
M  V30 24763 C 2315.28 -1.21352 2.88518 0
M  V30 24764 C 2315.76 -1.55385 4.30836 0
M  V30 24765 N 2317.25 -1.62367 4.3381 0
M  V30 24766 C 2317.98 -1.90216 5.4093 0
M  V30 24767 N 2317.48 -2.1605 6.58251 0
M  V30 24768 N 2319.27 -1.91761 5.28379 0
M  V30 24769 H 2311.42 0.302403 2.10236 0
M  V30 24770 H 2313.69 0.0727912 0.945201 0
M  V30 24771 H 2313.39 -0.323599 3.50208 0
M  V30 24772 H 2313.27 -2.04228 3.17129 0
M  V30 24773 H 2315.65 -1.98795 2.18093 0
M  V30 24774 H 2315.73 -0.258276 2.54493 0
M  V30 24775 H 2315.38 -0.784801 5.018 0
M  V30 24776 H 2315.31 -2.52068 4.62352 0
M  V30 24777 H 2317.8 -1.44421 3.49215 0
M  V30 24778 H 2318.11 -2.36588 7.35694 0
M  V30 24779 H 2316.46 -2.13432 6.61417 0
M  V30 24780 H 2319.65 -1.71078 4.35718 0
M  V30 24781 H 2319.82 -2.13128 6.11948 0
M  V30 24782 N 2313.23 -1.40218 -0.719481 0
M  V30 24783 C 2314.16 -1.36088 -1.84426 0
M  V30 24784 C 2315.17 -0.266941 -1.60597 0
M  V30 24785 O 2316.36 -0.527013 -1.70543 0
M  V30 24786 C 2313.46 -1.09405 -3.20755 0
M  V30 24787 C 2312.63 -2.30378 -3.71813 0
M  V30 24788 C 2311.69 -1.99915 -4.86745 0
M  V30 24789 O 2310.72 -2.72745 -4.99598 0
M  V30 24790 N 2311.92 -0.974735 -5.72258 0
M  V30 24791 H 2314.69 -2.33023 -1.88469 0
M  V30 24792 H 2312.25 -1.34522 -0.900862 0
M  V30 24793 H 2314.24 -0.870186 -3.95234 0
M  V30 24794 H 2312.81 -0.211507 -3.11884 0
M  V30 24795 H 2312.03 -2.68619 -2.88509 0
M  V30 24796 H 2313.32 -3.11034 -4.02661 0
M  V30 24797 H 2312.71 -0.371467 -5.64479 0
M  V30 24798 H 2311.27 -0.810769 -6.46738 0
M  V30 24799 N 2314.7 0.951297 -1.25651 0
M  V30 24800 C 2315.98 1.67286 -1.01364 0
M  V30 24801 C 2316.36 2.06047 0.459099 0
M  V30 24802 O 2315.71 1.77642 1.4372 0
M  V30 24803 C 2315.92 2.89264 -1.95262 0
M  V30 24804 C 2317.27 3.61143 -2.23296 0
M  V30 24805 O 2318.29 2.99352 -1.93046 0
M  V30 24806 O 2317.15 4.72414 -2.74749 0
M  V30 24807 H 2314.24 0.7321 -0.384653 0
M  V30 24808 H 2316.79 1.00393 -1.36819 0
M  V30 24809 H 2315.56 2.57437 -2.9469 0
M  V30 24810 H 2315.19 3.63887 -1.60224 0
M  V30 24811 N 2316.18 1.07291 1.1544 0
M  V30 24812 C 2317.59 0.818505 1.67802 0
M  V30 24813 C 2317.94 -0.656475 1.84891 0
M  V30 24814 O 2317.07 -1.50826 1.55179 0
M  V30 24815 C 2317.66 1.47923 3.04802 0
M  V30 24816 C 2316.22 1.27235 3.54243 0
M  V30 24817 C 2315.37 1.54929 2.29983 0
M  V30 24818 H 2318.32 1.23503 0.996625 0
M  V30 24819 H 2318.34 0.900115 3.697 0
M  V30 24820 H 2317.85 2.55272 2.92332 0
M  V30 24821 H 2315.96 0.219055 3.71956 0
M  V30 24822 H 2316.07 1.99211 4.3572 0
M  V30 24823 H 2314.43 0.970283 2.35494 0
M  V30 24824 H 2315.22 2.63459 2.201 0
M  V30 24825 N 2317.66 -1.32267 0.856927 0
M  V30 24826 C 2318.62 -2.27118 0.308211 0
M  V30 24827 C 2319.62 -1.51696 -0.533394 0
M  V30 24828 O 2320.81 -1.70758 -0.344577 0
M  V30 24829 C 2317.95 -3.36207 -0.563698 0
M  V30 24830 H 2319.14 -2.77165 1.1454 0
M  V30 24831 H 2316.69 -1.42977 0.631446 0
M  V30 24832 H 2317.43 -2.91432 -1.42261 0
M  V30 24833 H 2317.21 -3.92081 0.0387439 0
M  V30 24834 H 2318.7 -4.06876 -0.940315 0
M  V30 24835 N 2319.14 -0.615084 -1.45102 0
M  V30 24836 C 2320.36 -0.118025 -2.07064 0
M  V30 24837 C 2320.79 1.1916 -1.45542 0
M  V30 24838 O 2320.15 1.72728 -0.550885 0
M  V30 24839 C 2320.19 0.000225002 -3.606 0
M  V30 24840 O 2319.3 1.04849 -3.98849 0
M  V30 24841 H 2318.64 -0.0774697 -0.659465 0
M  V30 24842 H 2321.17 -0.847218 -1.86235 0
M  V30 24843 H 2321.18 0.196019 -4.07529 0
M  V30 24844 H 2319.85 -0.956003 -4.04763 0
M  V30 24845 H 2318.43 0.828555 -3.63579 0
M  V30 24846 N 2320.62 1.53557 -0.354678 0
M  V30 24847 C 2321.86 2.0208 0.231386 0
M  V30 24848 C 2322.22 1.23769 1.47305 0
M  V30 24849 O 2321.51 0.31998 1.88909 0
M  V30 24850 C 2321.71 3.52546 0.587059 0
M  V30 24851 C 2321.53 4.45425 -0.618591 0
M  V30 24852 C 2320.3 4.92564 -1.12733 0
M  V30 24853 C 2322.5 4.92531 -1.48048 0
M  V30 24854 N 2320.48 5.69423 -2.29414 0
M  V30 24855 C 2321.86 5.67623 -2.49407 0
M  V30 24856 C 2323.91 4.74621 -1.50463 0
M  V30 24857 C 2322.61 6.26711 -3.53024 0
M  V30 24858 C 2324.64 5.34567 -2.52967 0
M  V30 24859 C 2324 6.09536 -3.53051 0
M  V30 24860 H 2320.1 0.780545 0.0476772 0
M  V30 24861 H 2322.68 1.88256 -0.49676 0
M  V30 24862 H 2320.86 3.66552 1.2843 0
M  V30 24863 H 2322.59 3.87801 1.15727 0
M  V30 24864 H 2319.34 4.68493 -0.693659 0
M  V30 24865 H 2319.77 6.12519 -2.88357 0
M  V30 24866 H 2324.41 4.16195 -0.744429 0
M  V30 24867 H 2322.13 6.8424 -4.29932 0
M  V30 24868 H 2325.71 5.2261 -2.55676 0
M  V30 24869 H 2324.59 6.55096 -4.31067 0
M  V30 24870 N 2322.1 0.083568 1.57378 0
M  V30 24871 C 2323.04 -0.897102 2.14604 0
M  V30 24872 C 2324.04 -1.30016 1.08591 0
M  V30 24873 O 2325.24 -1.27604 1.26954 0
M  V30 24874 H 2321.62 -0.307288 0.686351 0
M  V30 24875 H 2323.59 -0.389638 2.95845 0
M  V30 24876 C 2322.34 -2.15085 2.73192 0
M  V30 24877 H 2321.66 -1.84956 3.54445 0
M  V30 24878 H 2323.1 -2.81788 3.16815 0
M  V30 24879 C 2321.56 -2.91722 1.68522 0
M  V30 24880 O 2322.09 -3.8585 1.11725 0
M  V30 24881 N 2320.3 -2.55047 1.39282 0
M  V30 24882 H 2319.84 -1.78574 1.85659 0
M  V30 24883 H 2319.8 -3.06626 0.694845 0
M  V30 24884 N 2323.57 -1.5645 -0.190064 0
M  V30 24885 C 2324.48 -1.98154 -1.25587 0
M  V30 24886 C 2325.5 -0.88997 -1.49518 0
M  V30 24887 O 2326.68 -1.19612 -1.62034 0
M  V30 24888 C 2323.74 -2.31695 -2.57912 0
M  V30 24889 C 2322.8 -3.54585 -2.42009 0
M  V30 24890 C 2322.03 -3.86516 -3.68023 0
M  V30 24891 O 2322.26 -3.19668 -4.72407 0
M  V30 24892 O 2321.19 -4.79929 -3.63251 0
M  V30 24893 H 2325.02 -2.89048 -0.931938 0
M  V30 24894 H 2322.6 -1.44071 -0.395463 0
M  V30 24895 H 2324.48 -2.54321 -3.36004 0
M  V30 24896 H 2323.16 -1.43968 -2.89922 0
M  V30 24897 H 2322.07 -3.37199 -1.62011 0
M  V30 24898 H 2323.4 -4.42794 -2.14929 0
M  V30 24899 N 2325.05 0.45796 -1.50799 0
M  V30 24900 C 2326.28 1.23201 -1.6622 0
M  V30 24901 C 2326.69 1.8551 -0.350926 0
M  V30 24902 O 2326.05 1.69815 0.668517 0
M  V30 24903 C 2326.1 2.33116 -2.76295 0
M  V30 24904 O 2325.82 1.73359 -4.02341 0
M  V30 24905 C 2327.32 3.23765 -3.02805 0
M  V30 24906 H 2324.54 0.372111 -0.558367 0
M  V30 24907 H 2327.09 0.545145 -1.971 0
M  V30 24908 H 2325.24 2.97554 -2.48073 0
M  V30 24909 H 2325.66 2.45842 -4.63316 0
M  V30 24910 H 2327.13 3.9707 -3.83457 0
M  V30 24911 H 2327.61 3.83318 -2.14392 0
M  V30 24912 H 2328.21 2.6505 -3.32609 0
M  V30 24913 N 2326.53 1.40598 0.712035 0
M  V30 24914 C 2327.78 1.39068 1.47195 0
M  V30 24915 C 2328.1 -0.00580472 1.94499 0
M  V30 24916 O 2327.36 -0.990991 1.68754 0
M  V30 24917 C 2327.66 2.3297 2.71035 0
M  V30 24918 C 2327.32 3.80152 2.42477 0
M  V30 24919 C 2325.99 4.20251 2.34399 0
M  V30 24920 C 2328.34 4.73147 2.1859 0
M  V30 24921 C 2325.67 5.51375 2.00506 0
M  V30 24922 C 2328.02 6.04573 1.86209 0
M  V30 24923 C 2326.68 6.43711 1.76615 0
M  V30 24924 H 2325.95 0.508886 0.538625 0
M  V30 24925 H 2328.6 1.73278 0.815294 0
M  V30 24926 H 2326.9 1.91957 3.41555 0
M  V30 24927 H 2328.6 2.29067 3.29134 0
M  V30 24928 H 2325.19 3.48384 2.49652 0
M  V30 24929 H 2329.38 4.42983 2.23785 0
M  V30 24930 H 2324.63 5.80597 1.91618 0
M  V30 24931 H 2328.81 6.76144 1.6674 0
M  V30 24932 H 2326.43 7.4523 1.5012 0
M  V30 24933 N 2328.01 -0.94462 1.26153 0
M  V30 24934 C 2328.97 -2.02438 1.07477 0
M  V30 24935 C 2329.97 -1.60782 0.0242347 0
M  V30 24936 O 2331.16 -1.72136 0.267333 0
M  V30 24937 C 2328.29 -3.34952 0.634015 0
M  V30 24938 H 2329.49 -2.20438 2.0334 0
M  V30 24939 H 2327.04 -1.1231 1.08702 0
M  V30 24940 H 2327.77 -3.2265 -0.326754 0
M  V30 24941 H 2327.56 -3.66539 1.39253 0
M  V30 24942 H 2329.05 -4.14286 0.525083 0
M  V30 24943 N 2329.49 -1.07901 -1.1487 0
M  V30 24944 C 2330.4 -0.715954 -2.23408 0
M  V30 24945 C 2331.41 0.275275 -1.71809 0
M  V30 24946 O 2332.59 0.12051 -2.01039 0
M  V30 24947 C 2329.65 -0.125229 -3.46474 0
M  V30 24948 C 2328.71 -1.17041 -4.13037 0
M  V30 24949 C 2327.95 -0.607781 -5.30228 0
M  V30 24950 O 2328.17 0.574397 -5.67501 0
M  V30 24951 O 2327.1 -1.35536 -5.86441 0
M  V30 24952 H 2330.93 -1.62125 -2.56805 0
M  V30 24953 H 2328.51 -0.852344 -1.22701 0
M  V30 24954 H 2330.4 0.201655 -4.20917 0
M  V30 24955 H 2329.07 0.753309 -3.14813 0
M  V30 24956 H 2327.98 -1.54974 -3.40491 0
M  V30 24957 H 2329.31 -2.02105 -4.48792 0
M  V30 24958 N 2330.96 1.31811 -0.863929 0
M  V30 24959 C 2331.9 2.26714 -0.260003 0
M  V30 24960 C 2332.87 1.5083 0.607366 0
M  V30 24961 O 2334.06 1.79923 0.562123 0
M  V30 24962 C 2331.19 3.32744 0.632398 0
M  V30 24963 C 2330.23 4.26189 -0.162818 0
M  V30 24964 S 2331.06 5.12958 -1.53735 0
M  V30 24965 C 2332.22 6.22506 -0.650912 0
M  V30 24966 H 2332.45 2.77589 -1.0645 0
M  V30 24967 H 2329.99 1.39484 -0.662096 0
M  V30 24968 H 2331.94 3.94307 1.1416 0
M  V30 24969 H 2330.61 2.80634 1.41078 0
M  V30 24970 H 2329.8 5.01338 0.517277 0
M  V30 24971 H 2329.4 3.69092 -0.603915 0
M  V30 24972 H 2331.69 6.77353 0.141015 0
M  V30 24973 H 2332.64 6.94655 -1.37334 0
M  V30 24974 H 2333.04 5.64067 -0.22114 0
M  V30 24975 N 2332.44 0.62277 1.44773 0
M  V30 24976 C 2333.67 0.129004 2.06998 0
M  V30 24977 C 2334.09 -1.18387 1.46172 0
M  V30 24978 O 2333.45 -1.72433 0.560037 0
M  V30 24979 C 2333.5 0.0188985 3.60595 0
M  V30 24980 O 2332.6 -1.02732 3.99399 0
M  V30 24981 H 2331.94 0.0809659 0.659045 0
M  V30 24982 H 2334.47 0.857083 1.85783 0
M  V30 24983 H 2334.48 -0.174404 4.07627 0
M  V30 24984 H 2333.16 0.977455 4.04251 0
M  V30 24985 H 2331.73 -0.809262 3.64013 0
M  V30 24986 N 2333.92 -1.53367 0.362817 0
M  V30 24987 C 2335.34 -1.59596 0.0116462 0
M  V30 24988 C 2335.54 -1.37806 -1.4701 0
M  V30 24989 O 2334.59 -1.18185 -2.23133 0
M  V30 24990 C 2335.9 -2.97081 0.465104 0
M  V30 24991 C 2337.45 -3.10182 0.419088 0
M  V30 24992 C 2337.93 -4.50075 0.848314 0
M  V30 24993 N 2339.42 -4.56182 0.803263 0
M  V30 24994 C 2340.15 -5.62611 1.1071 0
M  V30 24995 N 2339.65 -6.76805 1.48008 0
M  V30 24996 N 2341.44 -5.52581 1.03008 0
M  V30 24997 H 2333.59 -1.65783 1.32777 0
M  V30 24998 H 2335.86 -0.777408 0.542532 0
M  V30 24999 H 2335.56 -3.18157 1.49897 0
M  V30 25000 H 2335.44 -3.76903 -0.14972 0
M  V30 25001 H 2337.82 -2.88818 -0.605646 0
M  V30 25002 H 2337.9 -2.32375 1.06937 0
M  V30 25003 H 2337.55 -4.72176 1.87115 0
M  V30 25004 H 2337.48 -5.26308 0.175311 0
M  V30 25005 H 2339.97 -3.74187 0.528446 0
M  V30 25006 H 2340.28 -7.53954 1.69626 0
M  V30 25007 H 2338.63 -6.78204 1.51871 0
M  V30 25008 H 2341.82 -4.62247 0.737898 0
M  V30 25009 H 2341.99 -6.35429 1.27021 0
M  V30 25010 N 2335.4 -0.091913 -1.57332 0
M  V30 25011 C 2336.35 0.885709 -2.15077 0
M  V30 25012 C 2337.34 1.29439 -1.09279 0
M  V30 25013 O 2338.55 1.26929 -1.27629 0
M  V30 25014 H 2334.92 0.303644 -0.687971 0
M  V30 25015 H 2336.89 0.373943 -2.96048 0
M  V30 25016 C 2335.64 2.13633 -2.74329 0
M  V30 25017 H 2334.96 1.83074 -3.55421 0
M  V30 25018 H 2336.4 2.80104 -3.18305 0
M  V30 25019 C 2334.86 2.90824 -1.70067 0
M  V30 25020 O 2335.39 3.85252 -1.13769 0
M  V30 25021 N 2333.6 2.54305 -1.40633 0
M  V30 25022 H 2333.15 1.77587 -1.86603 0
M  V30 25023 H 2333.1 3.06253 -0.711096 0
M  V30 25024 N 2336.88 1.56548 0.181765 0
M  V30 25025 C 2338.13 1.80591 0.898316 0
M  V30 25026 C 2338.44 0.667411 1.83861 0
M  V30 25027 O 2339.64 0.792491 2.59676 0
M  V30 25028 C 2338.1 3.19959 1.64785 0
M  V30 25029 C 2337.71 4.41648 0.751711 0
M  V30 25030 C 2339.45 3.53302 2.35325 0
M  V30 25031 C 2337.36 5.72038 1.50088 0
M  V30 25032 H 2336.29 0.673403 0.339182 0
M  V30 25033 H 2338.94 1.82875 0.151381 0
M  V30 25034 H 2337.32 3.11963 2.43916 0
M  V30 25035 H 2338.5 4.608 -0.0018886 0
M  V30 25036 H 2336.81 4.16106 0.156489 0
M  V30 25037 H 2339.41 4.47961 2.9195 0
M  V30 25038 H 2339.75 2.77682 3.10159 0
M  V30 25039 H 2340.28 3.62805 1.63147 0
M  V30 25040 H 2337.02 6.5066 0.795061 0
M  V30 25041 H 2336.54 5.56882 2.22807 0
M  V30 25042 H 2338.22 6.13626 2.05115 0
M  V30 25043 N 2338.35 -0.449957 1.5104 0
M  V30 25044 C 2339.28 -1.55284 1.74382 0
M  V30 25045 C 2340.27 -1.59419 0.593264 0
M  V30 25046 O 2341.45 -1.75349 0.834656 0
M  V30 25047 C 2338.58 -2.93463 1.85734 0
M  V30 25048 C 2337.53 -3.04192 3.01083 0
M  V30 25049 C 2336.86 -4.44226 2.97603 0
M  V30 25050 C 2338.16 -2.79442 4.41259 0
M  V30 25051 H 2339.85 -1.36003 2.66727 0
M  V30 25052 H 2337.4 -0.652842 1.28351 0
M  V30 25053 H 2339.35 -3.70566 2.00646 0
M  V30 25054 H 2338.08 -3.13947 0.900262 0
M  V30 25055 H 2336.74 -2.29526 2.85855 0
M  V30 25056 H 2336.38 -4.61659 1.99699 0
M  V30 25057 H 2336.08 -4.52337 3.75054 0
M  V30 25058 H 2337.61 -5.2332 3.14592 0
M  V30 25059 H 2339.02 -3.46284 4.56903 0
M  V30 25060 H 2337.42 -2.98976 5.2032 0
M  V30 25061 H 2338.49 -1.75137 4.52167 0
M  V30 25062 N 2339.83 -1.40974 -0.704569 0
M  V30 25063 C 2340.78 -1.42302 -1.83992 0
M  V30 25064 C 2341.77 -0.302141 -1.66684 0
M  V30 25065 O 2342.98 -0.473727 -1.73654 0
M  V30 25066 H 2339.36 -0.445051 -0.606163 0
M  V30 25067 H 2341.33 -2.38006 -1.79988 0
M  V30 25068 C 2340.08 -1.31329 -3.21944 0
M  V30 25069 H 2339.4 -2.16861 -3.35874 0
M  V30 25070 H 2340.84 -1.36318 -4.01489 0
M  V30 25071 C 2339.3 -0.0246569 -3.36891 0
M  V30 25072 O 2339.83 0.934085 -3.90689 0
M  V30 25073 N 2338.03 0.0484732 -2.9056 0
M  V30 25074 H 2337.58 -0.732462 -2.46967 0
M  V30 25075 H 2337.54 0.910118 -3.00939 0
M  V30 25076 N 2341.31 0.937917 -1.26653 0
M  V30 25077 C 2342.56 1.67895 -1.11778 0
M  V30 25078 C 2342.87 1.92659 0.337906 0
M  V30 25079 O 2344.08 2.64619 0.607387 0
M  V30 25080 C 2342.53 3.02343 -1.95235 0
M  V30 25081 C 2342.14 2.85314 -3.45398 0
M  V30 25082 C 2343.89 3.80115 -1.88979 0
M  V30 25083 C 2341.79 4.15255 -4.2109 0
M  V30 25084 H 2340.72 0.62971 -0.414707 0
M  V30 25085 H 2343.37 1.0428 -1.5099 0
M  V30 25086 H 2341.76 3.66956 -1.48859 0
M  V30 25087 H 2342.93 2.2953 -3.99565 0
M  V30 25088 H 2341.25 2.20982 -3.52925 0
M  V30 25089 H 2343.84 4.76388 -2.42814 0
M  V30 25090 H 2344.19 4.07295 -0.861202 0
M  V30 25091 H 2344.72 3.22281 -2.33195 0
M  V30 25092 H 2341.46 3.93258 -5.24431 0
M  V30 25093 H 2340.98 4.70741 -3.71703 0
M  V30 25094 H 2342.66 4.83689 -4.29714 0
M  V30 25095 N 2342.79 1.08509 1.14296 0
M  V30 25096 C 2344.2 0.812926 1.37345 0
M  V30 25097 C 2344.4 -0.577291 1.93053 0
M  V30 25098 O 2343.46 -1.3339 2.14391 0
M  V30 25099 C 2344.77 1.89646 2.33356 0
M  V30 25100 C 2346.32 1.92259 2.46993 0
M  V30 25101 C 2346.8 2.9973 3.46303 0
M  V30 25102 N 2348.29 2.98908 3.53847 0
M  V30 25103 C 2349.02 3.78708 4.30544 0
M  V30 25104 N 2348.52 4.68389 5.10474 0
M  V30 25105 N 2350.31 3.67006 4.2575 0
M  V30 25106 H 2342.46 1.98152 0.764832 0
M  V30 25107 H 2344.73 0.859966 0.398951 0
M  V30 25108 H 2344.43 2.89601 1.9956 0
M  V30 25109 H 2344.31 1.76665 3.33271 0
M  V30 25110 H 2346.69 0.929495 2.80079 0
M  V30 25111 H 2346.77 2.09319 1.47035 0
M  V30 25112 H 2346.42 3.99247 3.1395 0
M  V30 25113 H 2346.35 2.79915 4.46044 0
M  V30 25114 H 2348.84 2.33909 2.96808 0
M  V30 25115 H 2349.15 5.25883 5.66275 0
M  V30 25116 H 2347.5 4.72431 5.09739 0
M  V30 25117 H 2350.69 2.96311 3.62378 0
M  V30 25118 H 2350.86 4.29436 4.85272 0
M  V30 25119 N 2344.27 -1.31351 0.870907 0
M  V30 25120 C 2345.5 -2.00556 0.496085 0
M  V30 25121 C 2345.9 -1.65536 -0.916212 0
M  V30 25122 O 2345.25 -0.881163 -1.61187 0
M  V30 25123 C 2345.31 -3.5488 0.57448 0
M  V30 25124 C 2344.97 -4.13377 1.94856 0
M  V30 25125 C 2345.97 -4.30412 2.91618 0
M  V30 25126 C 2343.66 -4.49082 2.25013 0
M  V30 25127 C 2345.65 -4.82345 4.1668 0
M  V30 25128 C 2343.34 -5.00716 3.50324 0
M  V30 25129 C 2344.33 -5.17298 4.45973 0
M  V30 25130 O 2344.02 -5.67823 5.69062 0
M  V30 25131 H 2343.75 -0.648256 0.191676 0
M  V30 25132 H 2346.31 -1.68533 1.17412 0
M  V30 25133 H 2344.54 -3.86367 -0.160482 0
M  V30 25134 H 2346.23 -4.05341 0.21295 0
M  V30 25135 H 2346.99 -4.03144 2.69629 0
M  V30 25136 H 2342.87 -4.35451 1.5134 0
M  V30 25137 H 2346.42 -4.95203 4.91345 0
M  V30 25138 H 2342.31 -5.27418 3.72157 0
M  V30 25139 H 2343.08 -5.86191 5.71247 0
M  V30 25140 N 2345.74 -0.630439 -1.44441 0
M  V30 25141 C 2346.97 -0.141707 -2.06414 0
M  V30 25142 C 2347.39 1.18342 -1.47107 0
M  V30 25143 O 2346.74 1.72573 -0.593692 0
M  V30 25144 C 2346.8 -0.020042 -3.61494 0
M  V30 25145 O 2346.52 -1.29277 -4.18592 0
M  V30 25146 C 2348.02 0.497467 -4.405 0
M  V30 25147 H 2345.24 -0.0793569 -0.666291 0
M  V30 25148 H 2347.78 -0.864647 -1.85322 0
M  V30 25149 H 2345.94 0.653335 -3.81851 0
M  V30 25150 H 2346.35 -1.13716 -5.12024 0
M  V30 25151 H 2347.82 0.531611 -5.49434 0
M  V30 25152 H 2348.3 1.52438 -4.11897 0
M  V30 25153 H 2348.91 -0.142636 -4.25061 0
M  V30 25154 N 2347.22 1.53172 -0.370945 0
M  V30 25155 C 2348.15 2.28827 0.464807 0
M  V30 25156 C 2349.13 1.3147 1.07933 0
M  V30 25157 O 2350.32 1.60346 1.09557 0
M  V30 25158 C 2347.45 3.0815 1.60191 0
M  V30 25159 C 2346.4 4.13238 1.11436 0
M  V30 25160 C 2345.73 4.80676 2.34211 0
M  V30 25161 C 2347.03 5.21935 0.195292 0
M  V30 25162 H 2348.72 2.98937 -0.166382 0
M  V30 25163 H 2346.27 1.43769 -0.0814612 0
M  V30 25164 H 2348.22 3.59825 2.19325 0
M  V30 25165 H 2346.95 2.35739 2.26041 0
M  V30 25166 H 2345.6 3.62516 0.545664 0
M  V30 25167 H 2345.25 4.04832 2.9853 0
M  V30 25168 H 2344.95 5.51693 2.02259 0
M  V30 25169 H 2346.48 5.35148 2.94022 0
M  V30 25170 H 2347.89 5.69081 0.694275 0
M  V30 25171 H 2346.29 6.00091 -0.0336082 0
M  V30 25172 H 2347.36 4.78891 -0.761045 0
M  V30 25173 N 2348.7 0.100255 1.57281 0
M  V30 25174 C 2349.63 -0.853819 2.1733 0
M  V30 25175 C 2350.61 -1.29058 1.10806 0
M  V30 25176 O 2351.8 -1.35655 1.38966 0
M  V30 25177 C 2348.93 -2.11104 2.75776 0
M  V30 25178 C 2347.88 -1.81273 3.87717 0
M  V30 25179 C 2347.21 -3.13867 4.32888 0
M  V30 25180 C 2348.51 -1.09565 5.10679 0
M  V30 25181 H 2350.2 -0.353493 2.97306 0
M  V30 25182 H 2347.75 -0.168587 1.4301 0
M  V30 25183 H 2349.7 -2.7829 3.16437 0
M  V30 25184 H 2348.42 -2.63429 1.93061 0
M  V30 25185 H 2347.08 -1.16483 3.47602 0
M  V30 25186 H 2346.73 -3.64089 3.47057 0
M  V30 25187 H 2346.43 -2.94687 5.08363 0
M  V30 25188 H 2347.95 -3.82202 4.76187 0
M  V30 25189 H 2349.37 -1.66869 5.48477 0
M  V30 25190 H 2347.77 -1.00546 5.91617 0
M  V30 25191 H 2348.84 -0.0792447 4.84835 0
M  V30 25192 N 2350.18 -1.56643 -0.17346 0
M  V30 25193 C 2351.59 -1.71575 -0.736125 0
M  V30 25194 C 2351.94 -0.710421 -1.82886 0
M  V30 25195 O 2351.07 0.128662 -2.16017 0
M  V30 25196 C 2351.66 -3.11086 -1.34205 0
M  V30 25197 C 2350.22 -3.2771 -1.85156 0
M  V30 25198 C 2349.37 -2.67526 -0.729718 0
M  V30 25199 H 2352.32 -1.58615 0.0519065 0
M  V30 25200 H 2352.34 -3.09617 -2.21173 0
M  V30 25201 H 2351.85 -3.84233 -0.546512 0
M  V30 25202 H 2349.95 -2.59516 -2.67361 0
M  V30 25203 H 2350.07 -4.35428 -1.99848 0
M  V30 25204 H 2348.43 -2.2728 -1.14961 0
M  V30 25205 H 2349.21 -3.43258 0.0539409 0
M  V30 25206 N 2351.66 0.44194 -1.51277 0
M  V30 25207 C 2352.89 1.21255 -1.67275 0
M  V30 25208 C 2353.3 1.85593 -0.367656 0
M  V30 25209 O 2352.64 1.71306 0.663318 0
M  V30 25210 C 2352.7 2.34124 -2.72811 0
M  V30 25211 C 2352.36 1.9019 -4.15544 0
M  V30 25212 C 2353.36 1.40792 -5.00473 0
M  V30 25213 C 2351.05 1.98022 -4.61619 0
M  V30 25214 C 2353.04 0.998063 -6.29537 0
M  V30 25215 C 2350.73 1.56647 -5.90682 0
M  V30 25216 C 2351.73 1.07621 -6.74468 0
M  V30 25217 O 2351.41 0.668318 -8.01117 0
M  V30 25218 H 2351.15 0.371725 -0.564621 0
M  V30 25219 H 2353.7 0.530486 -1.98431 0
M  V30 25220 H 2351.93 3.05593 -2.3696 0
M  V30 25221 H 2353.62 2.96004 -2.77734 0
M  V30 25222 H 2354.38 1.3414 -4.66081 0
M  V30 25223 H 2350.26 2.35128 -3.9653 0
M  V30 25224 H 2353.81 0.614698 -6.94886 0
M  V30 25225 H 2349.7 1.62968 -6.24589 0
M  V30 25226 H 2350.47 0.794579 -8.14634 0
M  V30 25227 N 2353.14 1.41345 0.697083 0
M  V30 25228 C 2354.38 1.40621 1.45712 0
M  V30 25229 C 2354.71 0.0148248 1.94494 0
M  V30 25230 O 2353.97 -0.973036 1.69795 0
M  V30 25231 C 2354.26 2.35831 2.68549 0
M  V30 25232 C 2353.93 3.82703 2.38431 0
M  V30 25233 C 2352.59 4.22713 2.29928 0
M  V30 25234 C 2354.94 4.75439 2.13559 0
M  V30 25235 C 2352.27 5.5347 1.94647 0
M  V30 25236 C 2354.62 6.06514 1.79786 0
M  V30 25237 C 2353.29 6.45548 1.69778 0
M  V30 25238 H 2352.56 0.51457 0.533197 0
M  V30 25239 H 2355.21 1.74133 0.79687 0
M  V30 25240 H 2353.51 1.95569 3.395 0
M  V30 25241 H 2355.21 2.32545 3.26686 0
M  V30 25242 H 2351.8 3.51013 2.45943 0
M  V30 25243 H 2355.98 4.45332 2.19074 0
M  V30 25244 H 2351.24 5.82596 1.85449 0
M  V30 25245 H 2355.41 6.77874 1.5956 0
M  V30 25246 H 2353.04 7.46781 1.42207 0
M  V30 25247 N 2354.61 -0.931187 1.27148 0
M  V30 25248 C 2355.84 -1.71017 1.15917 0
M  V30 25249 C 2356.25 -1.87009 -0.287079 0
M  V30 25250 O 2355.59 -1.38431 -1.20759 0
M  V30 25251 C 2355.66 -3.13104 1.76653 0
M  V30 25252 C 2355.32 -3.20461 3.25812 0
M  V30 25253 C 2356.32 -3.02976 4.22495 0
M  V30 25254 C 2354 -3.43531 3.66458 0
M  V30 25255 C 2356 -3.08445 5.578 0
M  V30 25256 C 2353.68 -3.48634 5.01894 0
M  V30 25257 C 2354.68 -3.31108 5.97374 0
M  V30 25258 O 2354.37 -3.35939 7.30342 0
M  V30 25259 H 2354.1 -0.541943 0.404072 0
M  V30 25260 H 2356.66 -1.17518 1.68459 0
M  V30 25261 H 2354.89 -3.68069 1.18584 0
M  V30 25262 H 2356.57 -3.72955 1.60185 0
M  V30 25263 H 2357.34 -2.84997 3.9243 0
M  V30 25264 H 2353.22 -3.56225 2.92617 0
M  V30 25265 H 2356.76 -2.94683 6.32304 0
M  V30 25266 H 2352.66 -3.66136 5.31615 0
M  V30 25267 H 2353.43 -3.52417 7.38745 0
M  V30 25268 N 2356.09 -1.09114 -1.13719 0
M  V30 25269 C 2357.32 -0.846932 -1.88771 0
M  V30 25270 C 2357.73 0.60154 -1.78961 0
M  V30 25271 O 2357.09 1.41386 -1.15397 0
M  V30 25272 C 2357.14 -1.26919 -3.38488 0
M  V30 25273 O 2356.86 -2.66085 -3.48038 0
M  V30 25274 C 2358.36 -1.0569 -4.30517 0
M  V30 25275 H 2355.58 -0.304924 -0.597714 0
M  V30 25276 H 2358.13 -1.45229 -1.43975 0
M  V30 25277 H 2356.28 -0.70779 -3.80879 0
M  V30 25278 H 2356.7 -2.83803 -4.41085 0
M  V30 25279 H 2358.17 -1.40166 -5.33908 0
M  V30 25280 H 2358.65 0.00555696 -4.392 0
M  V30 25281 H 2359.25 -1.60409 -3.9389 0
M  V30 25282 N 2357.57 1.30887 -0.877861 0
M  V30 25283 C 2358.5 2.27272 -0.296647 0
M  V30 25284 C 2359.51 1.53415 0.544772 0
M  V30 25285 O 2360.7 1.74718 0.36548 0
M  V30 25286 C 2357.8 3.33593 0.597423 0
M  V30 25287 C 2356.98 4.36879 -0.213328 0
M  V30 25288 C 2356.04 5.22651 0.610116 0
M  V30 25289 O 2355.06 5.69189 0.0353409 0
M  V30 25290 N 2356.26 5.47807 1.92061 0
M  V30 25291 H 2359.03 2.77785 -1.12497 0
M  V30 25292 H 2356.59 1.43992 -0.74013 0
M  V30 25293 H 2358.58 3.87893 1.15418 0
M  V30 25294 H 2357.15 2.83063 1.32642 0
M  V30 25295 H 2356.37 3.82543 -0.951533 0
M  V30 25296 H 2357.66 5.0295 -0.769351 0
M  V30 25297 H 2357.06 5.11768 2.41061 0
M  V30 25298 H 2355.61 6.05011 2.42498 0
M  V30 25299 N 2359.05 0.638091 1.44105 0
M  V30 25300 C 2359.98 -0.112121 2.27924 0
M  V30 25301 C 2360.96 -0.84455 1.38946 0
M  V30 25302 O 2362.14 -0.847218 1.68388 0
M  V30 25303 C 2359.27 -1.16506 3.18031 0
M  V30 25304 C 2358.32 -0.532383 4.23164 0
M  V30 25305 S 2359.15 0.682759 5.3113 0
M  V30 25306 C 2360.3 -0.37002 6.24805 0
M  V30 25307 H 2360.54 0.598938 2.91204 0
M  V30 25308 H 2358.07 0.426467 1.48393 0
M  V30 25309 H 2360.03 -1.76759 3.70495 0
M  V30 25310 H 2358.69 -1.84835 2.53958 0
M  V30 25311 H 2357.88 -1.32563 4.86254 0
M  V30 25312 H 2357.48 -0.0043107 3.74 0
M  V30 25313 H 2359.78 -1.24059 6.66045 0
M  V30 25314 H 2360.72 0.225473 7.07741 0
M  V30 25315 H 2361.13 -0.699042 5.60155 0
M  V30 25316 N 2360.53 -1.52973 0.379063 0
M  V30 25317 C 2361.48 -2.22939 -0.477733 0
M  V30 25318 C 2362.46 -1.22949 -1.03789 0
M  V30 25319 O 2363.65 -1.48335 -0.965699 0
M  V30 25320 C 2360.78 -3.03212 -1.60989 0
M  V30 25321 C 2359.87 -4.10589 -1.06196 0
M  V30 25322 N 2360.26 -5.05239 -0.238125 0
M  V30 25323 C 2358.56 -4.25537 -1.33546 0
M  V30 25324 C 2359.26 -5.81665 0.0634258 0
M  V30 25325 N 2358.23 -5.40933 -0.537806 0
M  V30 25326 H 2362.03 -2.93473 0.158346 0
M  V30 25327 H 2359.55 -1.6131 0.187807 0
M  V30 25328 H 2361.55 -3.51864 -2.23601 0
M  V30 25329 H 2360.21 -2.34211 -2.24889 0
M  V30 25330 H 2361.22 -5.17752 0.123786 0
M  V30 25331 H 2357.89 -3.67764 -1.97626 0
M  V30 25332 H 2359.28 -6.6792 0.730279 0
M  V30 25333 N 2362 -0.108595 -1.57225 0
M  V30 25334 C 2362.91 0.859363 -2.18294 0
M  V30 25335 C 2363.93 1.30036 -1.15614 0
M  V30 25336 O 2365.11 1.36549 -1.48041 0
M  V30 25337 C 2362.17 2.09553 -2.76204 0
M  V30 25338 C 2361.23 1.70745 -3.93884 0
M  V30 25339 C 2360.46 2.88469 -4.49023 0
M  V30 25340 O 2360.69 4.03592 -4.03075 0
M  V30 25341 O 2359.62 2.66155 -5.39857 0
M  V30 25342 H 2363.45 0.369716 -3.01441 0
M  V30 25343 H 2361.03 0.116473 -1.48945 0
M  V30 25344 H 2362.91 2.81972 -3.13161 0
M  V30 25345 H 2361.59 2.57544 -1.96094 0
M  V30 25346 H 2360.5 0.95465 -3.61714 0
M  V30 25347 H 2361.83 1.27505 -4.75398 0
M  V30 25348 N 2363.48 1.56732 0.16515 0
M  V30 25349 C 2364.73 1.81534 0.879111 0
M  V30 25350 C 2365.04 0.686874 1.83143 0
M  V30 25351 O 2366.25 0.819989 2.58821 0
M  V30 25352 C 2364.71 3.21689 1.61382 0
M  V30 25353 C 2364.31 4.42421 0.704826 0
M  V30 25354 C 2366.06 3.55778 2.31564 0
M  V30 25355 C 2363.96 5.73598 1.44012 0
M  V30 25356 H 2362.89 0.676963 0.332021 0
M  V30 25357 H 2365.55 1.83025 0.131976 0
M  V30 25358 H 2363.93 3.14533 2.40593 0
M  V30 25359 H 2365.1 4.60772 -0.0507625 0
M  V30 25360 H 2363.42 4.16248 0.112346 0
M  V30 25361 H 2366.01 4.51033 2.87182 0
M  V30 25362 H 2366.36 2.80956 3.07196 0
M  V30 25363 H 2366.89 3.64515 1.5929 0
M  V30 25364 H 2363.63 6.51467 0.726005 0
M  V30 25365 H 2363.15 5.59213 2.16888 0
M  V30 25366 H 2364.83 6.15767 1.98595 0
M  V30 25367 N 2364.96 -0.433911 1.51509 0
M  V30 25368 C 2365.91 -1.52543 1.69454 0
M  V30 25369 C 2366.89 -1.51262 0.5485 0
M  V30 25370 O 2368.09 -1.57657 0.804557 0
M  V30 25371 C 2365.22 -2.90704 1.82609 0
M  V30 25372 C 2364.3 -2.96728 3.03008 0
M  V30 25373 N 2364.69 -2.72489 4.26126 0
M  V30 25374 C 2362.99 -3.27889 3.02332 0
M  V30 25375 C 2363.69 -2.84443 5.07412 0
M  V30 25376 N 2362.67 -3.16261 4.42131 0
M  V30 25377 H 2366.47 -1.3256 2.62307 0
M  V30 25378 H 2363.98 -0.64127 1.49203 0
M  V30 25379 H 2365.98 -3.69234 1.93576 0
M  V30 25380 H 2364.64 -3.11705 0.909394 0
M  V30 25381 H 2365.65 -2.47352 4.55014 0
M  V30 25382 H 2362.33 -3.54642 2.20307 0
M  V30 25383 H 2363.72 -2.69628 6.15427 0
M  V30 25384 N 2366.44 -1.41713 -0.689577 0
M  V30 25385 C 2367.4 -1.43749 -1.78518 0
M  V30 25386 C 2368.4 -0.327218 -1.57435 0
M  V30 25387 O 2369.59 -0.587377 -1.63999 0
M  V30 25388 C 2366.72 -1.25473 -3.16969 0
M  V30 25389 H 2367.92 -2.41286 -1.78104 0
M  V30 25390 H 2365.47 -1.27943 -0.897787 0
M  V30 25391 H 2366.2 -0.288005 -3.23019 0
M  V30 25392 H 2365.99 -2.05923 -3.33674 0
M  V30 25393 H 2367.48 -1.29747 -3.96933 0
M  V30 25394 N 2367.92 0.924431 -1.2764 0
M  V30 25395 C 2368.86 2.04683 -1.10489 0
M  V30 25396 C 2369.86 1.69378 -0.0270718 0
M  V30 25397 O 2371.06 1.79046 -0.18504 0
M  V30 25398 H 2367.44 0.670466 -0.340558 0
M  V30 25399 H 2369.41 2.16295 -2.0557 0
M  V30 25400 C 2368.16 3.39015 -0.772289 0
M  V30 25401 H 2367.48 3.66668 -1.59357 0
M  V30 25402 H 2368.92 4.18312 -0.692171 0
M  V30 25403 C 2367.38 3.32808 0.523496 0
M  V30 25404 O 2367.91 3.70299 1.55696 0
M  V30 25405 N 2366.12 2.85904 0.520312 0
M  V30 25406 H 2365.66 2.55591 -0.321115 0
M  V30 25407 H 2365.62 2.82134 1.38737 0
M  V30 25408 N 2369.39 1.09715 1.13139 0
M  V30 25409 C 2370.64 0.83337 1.84118 0
M  V30 25410 C 2370.96 -0.642871 1.84098 0
M  V30 25411 O 2370.23 -1.46653 1.29884 0
M  V30 25412 H 2368.81 0.305305 0.681761 0
M  V30 25413 H 2371.48 1.3859 1.37036 0
M  V30 25414 H 2370.57 1.18956 2.88541 0
M  V30 25415 N 2370.87 -1.30419 0.88479 0
M  V30 25416 C 2372.12 -1.95762 0.502146 0
M  V30 25417 C 2372.44 -1.70194 -0.951785 0
M  V30 25418 O 2371.71 -1.02543 -1.66918 0
M  V30 25419 H 2370.29 -0.724312 0.182707 0
M  V30 25420 H 2372.95 -1.58953 1.12782 0
M  V30 25421 H 2372.05 -3.04774 0.672242 0
M  V30 25422 N 2372.35 -0.645724 -1.43764 0
M  V30 25423 C 2373.58 -0.163592 -2.06252 0
M  V30 25424 C 2373.99 1.16775 -1.48354 0
M  V30 25425 O 2373.35 1.71934 -0.611963 0
M  V30 25426 C 2373.4 -0.0583822 -3.61453 0
M  V30 25427 O 2373.12 -1.33709 -4.17197 0
M  V30 25428 C 2374.62 0.450718 -4.41003 0
M  V30 25429 H 2371.84 -0.0864194 -0.665412 0
M  V30 25430 H 2374.39 -0.884254 -1.84394 0
M  V30 25431 H 2372.54 0.612798 -3.82523 0
M  V30 25432 H 2372.96 -1.1914 -5.10789 0
M  V30 25433 H 2374.43 0.473306 -5.49967 0
M  V30 25434 H 2374.91 1.4806 -4.13491 0
M  V30 25435 H 2375.51 -0.187712 -4.24886 0
M  V30 25436 N 2373.83 1.5277 -0.38717 0
M  V30 25437 C 2375.07 2.01851 0.19599 0
M  V30 25438 C 2375.41 1.27321 1.46639 0
M  V30 25439 O 2374.68 0.373065 1.90889 0
M  V30 25440 C 2374.97 3.57071 0.466073 0
M  V30 25441 C 2374.82 4.42272 -0.819463 0
M  V30 25442 C 2376.14 4.21749 1.2576 0
M  V30 25443 H 2373.26 0.733691 0.0697579 0
M  V30 25444 H 2375.9 1.8285 -0.516318 0
M  V30 25445 H 2374.05 3.73392 1.07287 0
M  V30 25446 H 2375.72 4.37707 -1.45638 0
M  V30 25447 H 2373.96 4.09369 -1.43524 0
M  V30 25448 H 2374.63 5.4889 -0.585161 0
M  V30 25449 H 2377.11 4.09393 0.744095 0
M  V30 25450 H 2375.99 5.30339 1.41532 0
M  V30 25451 H 2376.25 3.7924 2.27221 0
M  V30 25452 N 2375.31 0.116931 1.57166 0
M  V30 25453 C 2376.56 -0.541372 1.94299 0
M  V30 25454 C 2376.87 -1.67963 1.00239 0
M  V30 25455 O 2378.07 -2.40055 1.2683 0
M  V30 25456 C 2376.53 -1.01443 3.45308 0
M  V30 25457 C 2376.14 0.0952525 4.47899 0
M  V30 25458 C 2377.88 -1.64423 3.91364 0
M  V30 25459 C 2375.79 -0.394388 5.90084 0
M  V30 25460 H 2374.72 -0.206006 0.725312 0
M  V30 25461 H 2377.37 0.196451 1.82445 0
M  V30 25462 H 2375.75 -1.80661 3.52388 0
M  V30 25463 H 2376.93 0.871453 4.52485 0
M  V30 25464 H 2375.24 0.631577 4.11582 0
M  V30 25465 H 2377.84 -2.02167 4.95008 0
M  V30 25466 H 2378.18 -2.52183 3.31224 0
M  V30 25467 H 2378.71 -0.917491 3.87075 0
M  V30 25468 H 2375.45 0.447119 6.53973 0
M  V30 25469 H 2374.97 -1.13711 5.88923 0
M  V30 25470 H 2376.65 -0.856287 6.41309 0
M  V30 25471 N 2376.78 -1.56818 -0.156836 0
M  V30 25472 C 2378.2 -1.51261 -0.509133 0
M  V30 25473 C 2378.4 -0.82369 -1.83896 0
M  V30 25474 O 2377.46 -0.390099 -2.49468 0
M  V30 25475 C 2378.77 -2.96019 -0.528518 0
M  V30 25476 C 2380.32 -3.06904 -0.614718 0
M  V30 25477 C 2380.79 -4.53149 -0.664858 0
M  V30 25478 N 2382.28 -4.57454 -0.727353 0
M  V30 25479 C 2383.02 -5.67974 -0.786967 0
M  V30 25480 N 2382.51 -6.88089 -0.806528 0
M  V30 25481 N 2384.31 -5.55982 -0.827097 0
M  V30 25482 H 2376.46 -2.00005 0.71497 0
M  V30 25483 H 2378.72 -0.911779 0.259542 0
M  V30 25484 H 2378.43 -3.49639 0.380216 0
M  V30 25485 H 2378.3 -3.51444 -1.36992 0
M  V30 25486 H 2380.69 -2.5331 -1.51387 0
M  V30 25487 H 2380.77 -2.54539 0.253642 0
M  V30 25488 H 2380.41 -5.07379 0.2301 0
M  V30 25489 H 2380.34 -5.03285 -1.54957 0
M  V30 25490 H 2382.83 -3.70979 -0.719933 0
M  V30 25491 H 2383.15 -7.68071 -0.853592 0
M  V30 25492 H 2381.49 -6.9067 -0.774566 0
M  V30 25493 H 2384.68 -4.61058 -0.808917 0
M  V30 25494 H 2384.86 -6.42132 -0.870093 0
M  V30 25495 N 2378.26 0.425871 -1.51737 0
M  V30 25496 C 2379.67 1.00533 -1.57321 0
M  V30 25497 C 2380.02 1.92005 -0.403571 0
M  V30 25498 O 2379.15 2.1105 0.478219 0
M  V30 25499 C 2379.74 1.83005 -2.85122 0
M  V30 25500 C 2378.3 2.35982 -2.9324 0
M  V30 25501 C 2377.45 1.15503 -2.521 0
M  V30 25502 H 2380.4 0.206711 -1.57348 0
M  V30 25503 H 2380.42 2.68576 -2.69531 0
M  V30 25504 H 2379.93 1.16405 -3.70232 0
M  V30 25505 H 2378.04 3.06003 -2.12586 0
M  V30 25506 H 2378.15 2.67994 -3.97135 0
M  V30 25507 H 2376.51 1.50389 -2.05561 0
M  V30 25508 H 2377.3 0.504955 -3.39566 0
M  V30 25509 N 2379.74 1.42077 0.682052 0
M  V30 25510 C 2380.67 1.4777 1.80793 0
M  V30 25511 C 2381.65 0.334983 1.66769 0
M  V30 25512 O 2382.84 0.548297 1.86299 0
M  V30 25513 C 2379.97 1.37235 3.19036 0
M  V30 25514 C 2378.92 2.49459 3.47785 0
M  V30 25515 C 2378.25 2.23983 4.85526 0
M  V30 25516 C 2379.55 3.91783 3.45404 0
M  V30 25517 H 2381.24 2.42 1.76285 0
M  V30 25518 H 2378.79 1.16477 0.846701 0
M  V30 25519 H 2380.74 1.39828 3.97525 0
M  V30 25520 H 2379.46 0.394964 3.24203 0
M  V30 25521 H 2378.12 2.46171 2.71653 0
M  V30 25522 H 2377.77 1.24556 4.87334 0
M  V30 25523 H 2377.47 2.99193 5.05725 0
M  V30 25524 H 2378.99 2.28314 5.66308 0
M  V30 25525 H 2380.41 3.96712 4.13875 0
M  V30 25526 H 2378.81 4.66784 3.77137 0
M  V30 25527 H 2379.88 4.1897 2.44115 0
M  V30 25528 N 2381.22 -0.917649 1.28129 0
M  V30 25529 C 2382.15 -2.03639 1.14251 0
M  V30 25530 C 2383.13 -1.7005 0.0413047 0
M  V30 25531 O 2384.32 -1.92977 0.217599 0
M  V30 25532 C 2381.45 -3.37973 0.799491 0
M  V30 25533 C 2380.4 -3.8571 1.85504 0
M  V30 25534 C 2379.73 -5.16964 1.36575 0
M  V30 25535 C 2381.03 -4.07997 3.26092 0
M  V30 25536 H 2382.72 -2.15508 2.07839 0
M  V30 25537 H 2380.27 -1.03551 1.00066 0
M  V30 25538 H 2382.22 -4.15726 0.689187 0
M  V30 25539 H 2380.94 -3.26146 -0.172088 0
M  V30 25540 H 2379.6 -3.10158 1.95442 0
M  V30 25541 H 2379.25 -5.01537 0.383341 0
M  V30 25542 H 2378.95 -5.49874 2.07153 0
M  V30 25543 H 2380.47 -5.97277 1.26859 0
M  V30 25544 H 2381.89 -4.76287 3.19098 0
M  V30 25545 H 2380.28 -4.52231 3.9447 0
M  V30 25546 H 2381.35 -3.12941 3.70399 0
M  V30 25547 N 2382.7 -1.10314 -1.12555 0
M  V30 25548 C 2383.65 -0.720114 -2.16329 0
M  V30 25549 C 2384.63 0.270087 -1.58617 0
M  V30 25550 O 2385.82 0.0790196 -1.76824 0
M  V30 25551 C 2382.95 -0.152174 -3.42963 0
M  V30 25552 C 2382.04 -1.16934 -4.07661 0
M  V30 25553 N 2382.43 -2.35961 -4.47388 0
M  V30 25554 C 2380.73 -1.00958 -4.34423 0
M  V30 25555 C 2381.43 -3.00738 -4.97927 0
M  V30 25556 N 2380.4 -2.28261 -4.93354 0
M  V30 25557 H 2384.21 -1.6262 -2.4481 0
M  V30 25558 H 2381.72 -0.980677 -1.29447 0
M  V30 25559 H 2383.72 0.140297 -4.16664 0
M  V30 25560 H 2382.38 0.748646 -3.15952 0
M  V30 25561 H 2383.39 -2.73494 -4.39797 0
M  V30 25562 H 2380.07 -0.164208 -4.17177 0
M  V30 25563 H 2381.46 -4.01978 -5.38389 0
M  V30 25564 N 2384.18 1.29948 -0.891694 0
M  V30 25565 C 2385.09 2.317 -0.367732 0
M  V30 25566 C 2386.1 1.65621 0.533457 0
M  V30 25567 O 2387.28 1.96866 0.424963 0
M  V30 25568 C 2384.34 3.44346 0.403345 0
M  V30 25569 C 2383.4 4.26036 -0.528403 0
M  V30 25570 C 2382.64 5.33302 0.20597 0
M  V30 25571 O 2382.86 5.52156 1.43109 0
M  V30 25572 O 2381.79 6.00235 -0.447386 0
M  V30 25573 H 2385.62 2.78481 -1.21168 0
M  V30 25574 H 2383.2 1.3424 -0.655748 0
M  V30 25575 H 2385.09 4.1295 0.83968 0
M  V30 25576 H 2383.76 2.99687 1.22349 0
M  V30 25577 H 2382.67 3.60104 -1.01369 0
M  V30 25578 H 2384 4.74316 -1.31474 0
M  V30 25579 N 2385.65 0.653339 1.4342 0
M  V30 25580 C 2386.9 0.16678 2.01812 0
M  V30 25581 C 2387.23 -1.21929 1.51538 0
M  V30 25582 O 2386.48 -1.82791 0.699007 0
M  V30 25583 C 2386.78 0.126686 3.57175 0
M  V30 25584 C 2386.45 1.45451 4.26796 0
M  V30 25585 C 2385.11 1.81813 4.45531 0
M  V30 25586 C 2387.46 2.32997 4.66221 0
M  V30 25587 C 2384.79 3.05386 5.00955 0
M  V30 25588 C 2387.14 3.55862 5.23015 0
M  V30 25589 C 2385.81 3.9242 5.39966 0
M  V30 25590 H 2385.08 0.0610292 0.738483 0
M  V30 25591 H 2387.72 0.84407 1.71894 0
M  V30 25592 H 2386.03 -0.634055 3.86635 0
M  V30 25593 H 2387.73 -0.266653 4.00112 0
M  V30 25594 H 2384.32 1.1616 4.12559 0
M  V30 25595 H 2388.5 2.06195 4.51439 0
M  V30 25596 H 2383.76 3.33759 5.12265 0
M  V30 25597 H 2387.93 4.23917 5.5251 0
M  V30 25598 H 2385.56 4.88252 5.82678 0
M  V30 25599 N 2387.13 -1.52563 0.395266 0
M  V30 25600 C 2388.38 -2.01653 -0.185008 0
M  V30 25601 C 2388.71 -1.28149 -1.46315 0
M  V30 25602 O 2387.96 -0.372108 -1.9213 0
M  V30 25603 C 2388.26 -3.53978 -0.493382 0
M  V30 25604 C 2387.93 -4.45528 0.693918 0
M  V30 25605 C 2386.59 -4.70273 1.01962 0
M  V30 25606 C 2388.94 -4.9951 1.48794 0
M  V30 25607 C 2386.27 -5.46248 2.14079 0
M  V30 25608 C 2388.62 -5.76711 2.59975 0
M  V30 25609 C 2387.28 -5.99733 2.93047 0
M  V30 25610 H 2386.55 -0.737901 -0.0676994 0
M  V30 25611 H 2389.2 -1.83909 0.533839 0
M  V30 25612 H 2387.51 -3.69828 -1.29363 0
M  V30 25613 H 2389.2 -3.8946 -0.955095 0
M  V30 25614 H 2385.79 -4.26437 0.430062 0
M  V30 25615 H 2389.98 -4.80313 1.24954 0
M  V30 25616 H 2385.23 -5.62297 2.40066 0
M  V30 25617 H 2389.41 -6.17539 3.21898 0
M  V30 25618 H 2387.03 -6.58386 3.80042 0
M  V30 25619 N 2388.61 -0.125265 -1.57101 0
M  V30 25620 C 2389.89 0.575109 -1.86954 0
M  V30 25621 C 2390.27 1.84405 -1.02752 0
M  V30 25622 O 2389.61 2.28244 -0.108184 0
M  V30 25623 C 2389.82 0.861524 -3.38199 0
M  V30 25624 C 2391.17 1.21185 -4.06939 0
M  V30 25625 O 2392.2 0.951585 -3.43254 0
M  V30 25626 O 2391.06 1.70059 -5.19367 0
M  V30 25627 H 2388.15 0.290892 -0.774152 0
M  V30 25628 H 2390.7 -0.16024 -1.68942 0
M  V30 25629 H 2389.47 -0.0374335 -3.91282 0
M  V30 25630 H 2389.09 1.65181 -3.61664 0
M  V30 25631 N 2390.09 1.56899 0.148518 0
M  V30 25632 C 2391 2.01414 1.2029 0
M  V30 25633 C 2392.01 0.929299 1.47105 0
M  V30 25634 O 2393.19 1.23866 1.58805 0
M  V30 25635 C 2390.25 2.38452 2.51678 0
M  V30 25636 C 2389.32 3.60876 2.32523 0
M  V30 25637 C 2388.55 3.96138 3.57646 0
M  V30 25638 O 2388.77 3.32081 4.63765 0
M  V30 25639 O 2387.71 4.89391 3.50399 0
M  V30 25640 H 2391.53 2.91417 0.854974 0
M  V30 25641 H 2389.12 1.45069 0.357126 0
M  V30 25642 H 2391 2.63141 3.29143 0
M  V30 25643 H 2389.67 1.51604 2.86003 0
M  V30 25644 H 2388.58 3.41376 1.53013 0
M  V30 25645 H 2389.91 4.48337 2.03113 0
M  V30 25646 N 2391.57 -0.417818 1.51961 0
M  V30 25647 C 2392.51 -1.50849 1.7468 0
M  V30 25648 C 2393.48 -1.55307 0.588974 0
M  V30 25649 O 2394.67 -1.72014 0.825575 0
M  V30 25650 C 2391.81 -2.88384 1.89549 0
M  V30 25651 C 2390.92 -2.93303 3.17171 0
M  V30 25652 C 2390.06 -4.22083 3.22521 0
M  V30 25653 C 2389.09 -4.20943 4.4438 0
M  V30 25654 N 2388.23 -5.41279 4.4717 0
M  V30 25655 H 2393.07 -1.30778 2.67771 0
M  V30 25656 H 2390.61 -0.634957 1.3269 0
M  V30 25657 H 2392.57 -3.68212 1.96152 0
M  V30 25658 H 2391.2 -3.06969 0.998478 0
M  V30 25659 H 2390.25 -2.06019 3.19782 0
M  V30 25660 H 2391.56 -2.88325 4.07026 0
M  V30 25661 H 2390.71 -5.10298 3.28148 0
M  V30 25662 H 2389.45 -4.29744 2.30589 0
M  V30 25663 H 2388.46 -3.31119 4.38908 0
M  V30 25664 H 2389.68 -4.14929 5.37597 0
M  V30 25665 H 2387.63 -5.49625 3.58117 0
M  V30 25666 H 2387.55 -5.38261 5.30859 0
M  V30 25667 H 2388.81 -6.31472 4.57016 0
M  V30 25668 N 2393.04 -1.42436 -0.674508 0
M  V30 25669 C 2394.45 -1.38216 -1.25512 0
M  V30 25670 C 2394.81 -0.0755809 -1.96054 0
M  V30 25671 O 2393.93 0.825665 -2.00029 0
M  V30 25672 C 2394.53 -2.50361 -2.28265 0
M  V30 25673 C 2393.08 -2.49472 -2.81852 0
M  V30 25674 C 2392.23 -2.29137 -1.56178 0
M  V30 25675 H 2395.18 -1.51646 -0.467875 0
M  V30 25676 H 2395.2 -2.20629 -3.10005 0
M  V30 25677 H 2394.72 -3.45442 -1.76894 0
M  V30 25678 H 2392.82 -1.5821 -3.37343 0
M  V30 25679 H 2392.93 -3.46521 -3.30848 0
M  V30 25680 H 2391.29 -1.77403 -1.82758 0
M  V30 25681 H 2392.08 -3.26274 -1.06773 0
M  V30 25682 N 2394.52 0.910841 -1.28614 0
M  V30 25683 C 2395.75 1.69397 -1.18795 0
M  V30 25684 C 2396.16 1.87097 0.253006 0
M  V30 25685 O 2395.52 1.40005 1.17068 0
M  V30 25686 C 2395.57 3.08454 -1.88516 0
M  V30 25687 O 2395.29 2.9157 -3.26984 0
M  V30 25688 C 2396.79 4.02836 -1.85036 0
M  V30 25689 H 2394.01 0.529431 -0.412243 0
M  V30 25690 H 2396.56 1.13981 -1.6979 0
M  V30 25691 H 2394.71 3.60679 -1.41385 0
M  V30 25692 H 2395.13 3.79602 -3.61943 0
M  V30 25693 H 2396.6 4.97863 -2.38404 0
M  V30 25694 H 2397.08 4.31413 -0.823379 0
M  V30 25695 H 2397.68 3.56541 -2.31859 0
M  V30 25696 N 2396 1.10909 1.11969 0
M  V30 25697 C 2397.25 0.865707 1.84057 0
M  V30 25698 C 2397.6 -0.602222 1.82732 0
M  V30 25699 O 2396.89 -1.43864 1.26546 0
M  V30 25700 C 2397.09 1.35431 3.30746 0
M  V30 25701 C 2396.92 2.86821 3.46358 0
M  V30 25702 C 2395.69 3.5488 3.59706 0
M  V30 25703 C 2397.89 3.84901 3.41109 0
M  V30 25704 N 2395.87 4.94542 3.63732 0
M  V30 25705 C 2397.24 5.10602 3.51689 0
M  V30 25706 C 2399.29 3.77539 3.24605 0
M  V30 25707 C 2398 6.29808 3.47469 0
M  V30 25708 C 2400.02 4.9625 3.21699 0
M  V30 25709 C 2399.38 6.208 3.32845 0
M  V30 25710 H 2395.48 0.369853 0.689009 0
M  V30 25711 H 2398.07 1.41239 1.34013 0
M  V30 25712 H 2396.24 0.834881 3.79321 0
M  V30 25713 H 2397.97 1.05465 3.90716 0
M  V30 25714 H 2394.73 3.05335 3.62033 0
M  V30 25715 H 2395.15 5.6734 3.69398 0
M  V30 25716 H 2399.79 2.82155 3.14878 0
M  V30 25717 H 2397.51 7.25475 3.55965 0
M  V30 25718 H 2401.1 4.92267 3.10104 0
M  V30 25719 H 2399.98 7.11117 3.30578 0
M  V30 25720 N 2397.48 -1.29474 0.898573 0
M  V30 25721 C 2398.76 -1.90507 0.44345 0
M  V30 25722 C 2399.14 -1.81571 -1.07682 0
M  V30 25723 O 2398.48 -1.2417 -1.91818 0
M  V30 25724 C 2398.69 -3.35629 0.956767 0
M  V30 25725 C 2400.04 -4.12661 0.9998 0
M  V30 25726 O 2401.07 -3.44528 0.904359 0
M  V30 25727 O 2399.92 -5.34414 1.14298 0
M  V30 25728 H 2397.02 -0.815398 0.138039 0
M  V30 25729 H 2399.56 -1.37947 0.988364 0
M  V30 25730 H 2398.34 -3.36283 2.00073 0
M  V30 25731 H 2397.96 -3.95665 0.391798 0
M  V30 25732 N 2398.96 -0.660936 -1.43071 0
M  V30 25733 C 2400.21 -0.17477 -2.00941 0
M  V30 25734 C 2400.52 1.22114 -1.52799 0
M  V30 25735 O 2401.72 1.80294 -2.02994 0
M  V30 25736 C 2400.18 -0.261622 -3.58948 0
M  V30 25737 C 2399.79 -1.66071 -4.16082 0
M  V30 25738 C 2401.53 0.166543 -4.24173 0
M  V30 25739 C 2399.44 -1.70108 -5.66407 0
M  V30 25740 H 2398.37 -0.0615763 -0.751481 0
M  V30 25741 H 2401.02 -0.824098 -1.63954 0
M  V30 25742 H 2399.4 0.455352 -3.93373 0
M  V30 25743 H 2400.58 -2.40366 -3.93142 0
M  V30 25744 H 2398.89 -2.03552 -3.63257 0
M  V30 25745 H 2401.49 0.156339 -5.34471 0
M  V30 25746 H 2401.83 1.19936 -3.98649 0
M  V30 25747 H 2402.36 -0.498945 -3.94659 0
M  V30 25748 H 2399.1 -2.71325 -5.9671 0
M  V30 25749 H 2398.62 -1.00149 -5.9138 0
M  V30 25750 H 2400.3 -1.44827 -6.30582 0
M  V30 25751 N 2400.43 1.52351 -0.403352 0
M  V30 25752 C 2401.68 2.01748 0.174312 0
M  V30 25753 C 2402.01 1.28923 1.45633 0
M  V30 25754 O 2401.26 0.382291 1.9193 0
M  V30 25755 C 2401.56 3.54235 0.474602 0
M  V30 25756 C 2401.23 4.45154 -0.717536 0
M  V30 25757 C 2399.89 4.69726 -1.04455 0
M  V30 25758 C 2402.24 4.98714 -1.51441 0
M  V30 25759 C 2399.57 5.45105 -2.16972 0
M  V30 25760 C 2401.92 5.75324 -2.6303 0
M  V30 25761 C 2400.59 5.9817 -2.96224 0
M  V30 25762 H 2399.86 0.73825 0.0637851 0
M  V30 25763 H 2402.5 1.83623 -0.543585 0
M  V30 25764 H 2400.81 3.70508 1.274 0
M  V30 25765 H 2402.51 3.89961 0.934428 0
M  V30 25766 H 2399.1 4.26203 -0.452671 0
M  V30 25767 H 2403.28 4.79643 -1.275 0
M  V30 25768 H 2398.54 5.61016 -2.43044 0
M  V30 25769 H 2402.71 6.15823 -3.25169 0
M  V30 25770 H 2400.34 6.56361 -3.83528 0
M  V30 25771 N 2401.91 0.133594 1.57033 0
M  V30 25772 C 2402.86 -0.81117 2.16076 0
M  V30 25773 C 2403.83 -1.25348 1.08982 0
M  V30 25774 O 2405.01 -1.3284 1.3696 0
M  V30 25775 C 2402.15 -2.05019 2.77599 0
M  V30 25776 C 2401.27 -1.65491 3.99045 0
M  V30 25777 C 2400.4 -2.84471 4.48608 0
M  V30 25778 C 2399.44 -2.41252 5.62551 0
M  V30 25779 N 2398.58 -3.53195 6.06793 0
M  V30 25780 H 2403.42 -0.300854 2.96477 0
M  V30 25781 H 2400.96 -0.136796 1.46463 0
M  V30 25782 H 2402.91 -2.77636 3.11406 0
M  V30 25783 H 2401.54 -2.53485 1.99863 0
M  V30 25784 H 2400.6 -0.826916 3.71303 0
M  V30 25785 H 2401.91 -1.2974 4.81632 0
M  V30 25786 H 2401.06 -3.65295 4.84401 0
M  V30 25787 H 2399.8 -3.23459 3.65001 0
M  V30 25788 H 2398.81 -1.58865 5.26348 0
M  V30 25789 H 2400.03 -2.03366 6.47935 0
M  V30 25790 H 2397.98 -3.91829 5.26124 0
M  V30 25791 H 2397.89 -3.21415 6.84272 0
M  V30 25792 H 2399.16 -4.34415 6.47228 0
M  V30 25793 N 2403.39 -1.56975 -0.140195 0
M  V30 25794 C 2404.32 -1.9539 -1.19814 0
M  V30 25795 C 2405.34 -0.85055 -1.38815 0
M  V30 25796 O 2406.52 -1.12894 -1.38265 0
M  V30 25797 C 2403.62 -2.21862 -2.56185 0
M  V30 25798 C 2402.8 -3.53154 -2.58071 0
M  V30 25799 C 2401.86 -3.68086 -3.7603 0
M  V30 25800 O 2400.88 -4.40412 -3.60591 0
M  V30 25801 N 2402.08 -3.0526 -4.93758 0
M  V30 25802 H 2404.85 -2.86747 -0.871559 0
M  V30 25803 H 2402.41 -1.58508 -0.329692 0
M  V30 25804 H 2404.4 -2.29086 -3.33619 0
M  V30 25805 H 2402.97 -1.36736 -2.81109 0
M  V30 25806 H 2402.19 -3.5731 -1.66504 0
M  V30 25807 H 2403.48 -4.39491 -2.56369 0
M  V30 25808 H 2402.88 -2.46428 -5.09205 0
M  V30 25809 H 2401.44 -3.18036 -5.68943 0
M  V30 25810 N 2404.87 0.409753 -1.5218 0
M  V30 25811 C 2406.12 1.15676 -1.66208 0
M  V30 25812 C 2406.44 1.90515 -0.391707 0
M  V30 25813 O 2405.7 1.85441 0.625297 0
M  V30 25814 C 2406 2.17718 -2.83432 0
M  V30 25815 C 2405.66 1.59691 -4.21675 0
M  V30 25816 C 2404.33 1.43591 -4.59277 0
M  V30 25817 C 2406.68 1.17308 -5.07827 0
M  V30 25818 C 2404.01 0.836226 -5.8071 0
M  V30 25819 C 2406.36 0.58758 -6.29865 0
M  V30 25820 C 2405.02 0.413701 -6.66217 0
M  V30 25821 H 2404.29 0.42329 -0.6082 0
M  V30 25822 H 2406.94 0.444064 -1.8628 0
M  V30 25823 H 2405.24 2.95131 -2.57692 0
M  V30 25824 H 2406.94 2.75389 -2.91482 0
M  V30 25825 H 2403.53 1.73206 -3.92043 0
M  V30 25826 H 2407.71 1.28556 -4.79361 0
M  V30 25827 H 2402.97 0.689519 -6.07499 0
M  V30 25828 H 2407.14 0.250772 -6.95948 0
M  V30 25829 H 2404.77 -0.0530807 -7.60181 0
M  V30 25830 N 2406.35 1.42792 0.666944 0
M  V30 25831 C 2407.28 1.4968 1.79216 0
M  V30 25832 C 2408.26 0.352652 1.66404 0
M  V30 25833 O 2409.44 0.568026 1.85707 0
M  V30 25834 C 2406.57 1.40611 3.17562 0
M  V30 25835 C 2405.53 2.53133 3.45119 0
M  V30 25836 C 2404.85 2.2912 4.83123 0
M  V30 25837 C 2406.15 3.95424 3.41229 0
M  V30 25838 H 2407.85 2.43856 1.73709 0
M  V30 25839 H 2405.39 1.17369 0.834299 0
M  V30 25840 H 2407.35 1.44036 3.9602 0
M  V30 25841 H 2406.07 0.429327 3.23766 0
M  V30 25842 H 2404.73 2.49039 2.69027 0
M  V30 25843 H 2404.38 1.29717 4.85986 0
M  V30 25844 H 2404.08 3.0454 5.02523 0
M  V30 25845 H 2405.6 2.34307 5.63855 0
M  V30 25846 H 2407.01 4.0108 4.09644 0
M  V30 25847 H 2405.41 4.70758 3.72165 0
M  V30 25848 H 2406.48 4.21536 2.39657 0
M  V30 25849 N 2407.82 -0.904008 1.29095 0
M  V30 25850 C 2409.07 -1.65674 1.17999 0
M  V30 25851 C 2409.43 -1.90541 -0.266782 0
M  V30 25852 O 2408.72 -1.50167 -1.18997 0
M  V30 25853 C 2408.91 -3.01301 1.9223 0
M  V30 25854 C 2408.74 -2.89672 3.43977 0
M  V30 25855 C 2407.51 -2.90672 4.13326 0
M  V30 25856 C 2409.71 -2.6702 4.39551 0
M  V30 25857 N 2407.69 -2.69733 5.51468 0
M  V30 25858 C 2409.06 -2.5502 5.65124 0
M  V30 25859 C 2411.12 -2.52094 4.29364 0
M  V30 25860 C 2409.82 -2.29614 6.81667 0
M  V30 25861 C 2411.85 -2.28069 5.45654 0
M  V30 25862 C 2411.21 -2.16831 6.70197 0
M  V30 25863 H 2407.31 -0.612029 0.48677 0
M  V30 25864 H 2409.89 -1.06685 1.62869 0
M  V30 25865 H 2408.06 -3.58358 1.49779 0
M  V30 25866 H 2409.79 -3.65653 1.73436 0
M  V30 25867 H 2406.55 -3.01794 3.64989 0
M  V30 25868 H 2406.97 -2.62329 6.24109 0
M  V30 25869 H 2411.62 -2.59528 3.33774 0
M  V30 25870 H 2409.33 -2.20918 7.77316 0
M  V30 25871 H 2412.92 -2.1737 5.39668 0
M  V30 25872 H 2411.8 -1.98497 7.58662 0
M  V30 25873 N 2409.3 -1.11501 -1.11379 0
M  V30 25874 C 2410.55 -0.862556 -1.82769 0
M  V30 25875 C 2410.87 0.613501 -1.85098 0
M  V30 25876 O 2410.14 1.44568 -1.32201 0
M  V30 25877 H 2408.72 -0.316112 -0.676817 0
M  V30 25878 H 2411.38 -1.40753 -1.34813 0
M  V30 25879 H 2410.48 -1.23532 -2.86612 0
M  V30 25880 N 2410.78 1.28995 -0.905426 0
M  V30 25881 C 2412.19 1.77397 -0.581984 0
M  V30 25882 C 2412.54 1.7421 0.902521 0
M  V30 25883 O 2411.67 1.33157 1.70582 0
M  V30 25884 C 2412.26 3.22129 -1.04967 0
M  V30 25885 C 2410.82 3.68287 -0.777294 0
M  V30 25886 C 2409.97 2.48965 -1.22113 0
M  V30 25887 H 2412.92 1.15576 -1.08756 0
M  V30 25888 H 2412.94 3.78522 -0.387453 0
M  V30 25889 H 2412.45 3.24417 -2.13014 0
M  V30 25890 H 2410.55 3.71467 0.290318 0
M  V30 25891 H 2410.67 4.58819 -1.3792 0
M  V30 25892 H 2409.03 2.46528 -0.640014 0
M  V30 25893 H 2409.81 2.53978 -2.30977 0
M  V30 25894 N 2412.26 0.668514 1.42719 0
M  V30 25895 C 2413.22 -0.00444538 2.292 0
M  V30 25896 C 2414.22 -0.735314 1.43003 0
M  V30 25897 O 2415.41 -0.574261 1.64462 0
M  V30 25898 C 2412.54 -1.017 3.25377 0
M  V30 25899 H 2413.74 0.756659 2.90198 0
M  V30 25900 H 2411.29 0.430532 1.50253 0
M  V30 25901 H 2412.03 -1.80681 2.69304 0
M  V30 25902 H 2411.81 -0.496394 3.88945 0
M  V30 25903 H 2413.3 -1.48648 3.90248 0
M  V30 25904 N 2413.74 -1.52135 0.411426 0
M  V30 25905 C 2414.98 -2.01838 -0.16361 0
M  V30 25906 C 2415.31 -1.29694 -1.44948 0
M  V30 25907 O 2414.57 -0.392465 -1.91724 0
M  V30 25908 C 2414.87 -3.54482 -0.45581 0
M  V30 25909 C 2414.53 -4.44767 0.741133 0
M  V30 25910 C 2413.19 -4.69166 1.06944 0
M  V30 25911 C 2415.55 -4.97903 1.54083 0
M  V30 25912 C 2412.87 -5.43947 2.1986 0
M  V30 25913 C 2415.23 -5.73921 2.66077 0
M  V30 25914 C 2413.89 -5.96591 2.99392 0
M  V30 25915 H 2413.16 -0.738577 -0.0598691 0
M  V30 25916 H 2415.81 -1.83332 0.553315 0
M  V30 25917 H 2414.11 -3.71179 -1.25433 0
M  V30 25918 H 2415.81 -3.90451 -0.913734 0
M  V30 25919 H 2412.4 -4.25957 0.475267 0
M  V30 25920 H 2416.58 -4.7896 1.30042 0
M  V30 25921 H 2411.84 -5.5972 2.46016 0
M  V30 25922 H 2416.01 -6.1409 3.2843 0
M  V30 25923 H 2413.64 -6.54318 3.87003 0
M  V30 25924 N 2415.22 -0.14192 -1.5696 0
M  V30 25925 C 2416.15 0.837589 -2.12273 0
M  V30 25926 C 2417.13 1.24576 -1.04497 0
M  V30 25927 O 2418.31 1.34276 -1.32296 0
M  V30 25928 C 2415.44 2.12399 -2.63826 0
M  V30 25929 C 2414.48 1.86214 -3.83701 0
M  V30 25930 S 2415.32 1.05772 -5.2495 0
M  V30 25931 C 2416.47 2.35542 -5.79889 0
M  V30 25932 H 2416.71 0.367197 -2.95024 0
M  V30 25933 H 2414.24 0.0722743 -1.54231 0
M  V30 25934 H 2416.2 2.86301 -2.9418 0
M  V30 25935 H 2414.86 2.56554 -1.81215 0
M  V30 25936 H 2414.05 2.81589 -4.18 0
M  V30 25937 H 2413.65 1.20423 -3.54082 0
M  V30 25938 H 2415.94 3.31229 -5.91011 0
M  V30 25939 H 2416.89 2.05756 -6.77547 0
M  V30 25940 H 2417.3 2.45958 -5.08099 0
M  V30 25941 N 2416.69 1.57047 0.131868 0
M  V30 25942 C 2417.94 1.84442 0.843147 0
M  V30 25943 C 2418.27 0.725781 1.80128 0
M  V30 25944 O 2417.55 -0.269436 1.92625 0
M  V30 25945 C 2417.83 3.22385 1.60437 0
M  V30 25946 C 2417.68 4.44832 0.666704 0
M  V30 25947 C 2419 3.57735 2.56347 0
M  V30 25948 H 2416.12 0.670896 0.305069 0
M  V30 25949 H 2418.76 1.89694 0.107806 0
M  V30 25950 H 2416.91 3.18039 2.23122 0
M  V30 25951 H 2418.59 4.61273 0.0496835 0
M  V30 25952 H 2416.83 4.33794 -0.0226853 0
M  V30 25953 H 2417.5 5.37991 1.23569 0
M  V30 25954 H 2419.98 3.62789 2.03773 0
M  V30 25955 H 2418.85 4.55256 3.06649 0
M  V30 25956 H 2419.11 2.84479 3.38414 0
M  V30 25957 N 2418.17 -0.401677 1.52395 0
M  V30 25958 C 2419.4 -1.16946 1.70678 0
M  V30 25959 C 2419.81 -1.8408 0.419535 0
M  V30 25960 O 2419.17 -1.72179 -0.60503 0
M  V30 25961 C 2419.22 -2.22701 2.84757 0
M  V30 25962 O 2418.94 -1.58307 4.08498 0
M  V30 25963 C 2420.44 -3.12304 3.14613 0
M  V30 25964 H 2417.66 -0.351132 0.571793 0
M  V30 25965 H 2420.21 -0.471617 1.98988 0
M  V30 25966 H 2418.36 -2.88142 2.58946 0
M  V30 25967 H 2418.78 -2.28477 4.72121 0
M  V30 25968 H 2420.25 -3.82565 3.9793 0
M  V30 25969 H 2420.73 -3.75097 2.28471 0
M  V30 25970 H 2421.33 -2.52523 3.42217 0
M  V30 25971 N 2419.65 -1.43144 -0.659362 0
M  V30 25972 C 2421.06 -1.39539 -1.24039 0
M  V30 25973 C 2421.41 -0.0963708 -1.95963 0
M  V30 25974 O 2420.54 0.804403 -2.00894 0
M  V30 25975 C 2421.13 -2.52768 -2.25596 0
M  V30 25976 C 2419.69 -2.52448 -2.7919 0
M  V30 25977 C 2418.84 -2.30781 -1.53739 0
M  V30 25978 H 2421.79 -1.52134 -0.451765 0
M  V30 25979 H 2421.81 -2.23905 -3.07647 0
M  V30 25980 H 2421.32 -3.47299 -1.7322 0
M  V30 25981 H 2419.42 -1.61779 -3.35646 0
M  V30 25982 H 2419.54 -3.5001 -3.27154 0
M  V30 25983 H 2417.9 -1.79331 -1.80866 0
M  V30 25984 H 2418.68 -3.27388 -1.03306 0
M  V30 25985 N 2421.13 0.897149 -1.29572 0
M  V30 25986 C 2422.37 1.65032 -1.17866 0
M  V30 25987 C 2422.71 1.92332 0.268695 0
M  V30 25988 O 2421.98 1.53557 1.19375 0
M  V30 25989 C 2422.26 2.99783 -1.99505 0
M  V30 25990 C 2422.12 2.79532 -3.52395 0
M  V30 25991 C 2423.44 4.00549 -1.82342 0
M  V30 25992 H 2420.56 0.598887 -0.429538 0
M  V30 25993 H 2423.2 1.03902 -1.59073 0
M  V30 25994 H 2421.35 3.51959 -1.64491 0
M  V30 25995 H 2423.02 2.34237 -3.97405 0
M  V30 25996 H 2421.26 2.14266 -3.7719 0
M  V30 25997 H 2421.93 3.75295 -4.04794 0
M  V30 25998 H 2424.41 3.57491 -2.1293 0
M  V30 25999 H 2423.29 4.92767 -2.4181 0
M  V30 26000 H 2423.55 4.35178 -0.779285 0
M  V30 26001 N 2422.61 1.1209 1.10786 0
M  V30 26002 C 2423.54 0.807793 2.19082 0
M  V30 26003 C 2424.52 -0.226829 1.68581 0
M  V30 26004 O 2425.7 -0.0888134 1.93997 0
M  V30 26005 C 2422.83 0.257637 3.46343 0
M  V30 26006 C 2421.79 1.22491 4.10098 0
M  V30 26007 C 2421.11 0.535145 5.32015 0
M  V30 26008 C 2422.41 2.57819 4.54232 0
M  V30 26009 H 2424.11 1.71333 2.45531 0
M  V30 26010 H 2421.65 0.825225 1.18009 0
M  V30 26011 H 2423.6 0.0263419 4.21392 0
M  V30 26012 H 2422.33 -0.683222 3.19374 0
M  V30 26013 H 2420.99 1.44195 3.37051 0
M  V30 26014 H 2420.64 -0.410739 5.0132 0
M  V30 26015 H 2420.34 1.18034 5.75623 0
M  V30 26016 H 2421.86 0.312802 6.09798 0
M  V30 26017 H 2423.27 2.40164 5.20571 0
M  V30 26018 H 2421.67 3.18384 5.08676 0
M  V30 26019 H 2422.74 3.16534 3.67334 0
M  V30 26020 N 2424.08 -1.28513 0.912254 0
M  V30 26021 C 2424.99 -2.31086 0.404547 0
M  V30 26022 C 2426.01 -1.66448 -0.50704 0
M  V30 26023 O 2427.19 -1.97517 -0.393589 0
M  V30 26024 C 2424.25 -3.44944 -0.348512 0
M  V30 26025 C 2423.31 -4.25141 0.596114 0
M  V30 26026 C 2422.54 -5.33563 -0.1211 0
M  V30 26027 O 2422.77 -5.54363 -1.34307 0
M  V30 26028 O 2421.7 -5.99447 0.542822 0
M  V30 26029 H 2425.53 -2.76519 1.25583 0
M  V30 26030 H 2423.11 -1.33179 0.677022 0
M  V30 26031 H 2424.99 -4.14233 -0.773877 0
M  V30 26032 H 2423.67 -3.01596 -1.17566 0
M  V30 26033 H 2422.58 -3.58446 1.07085 0
M  V30 26034 H 2423.91 -4.72164 1.39003 0
M  V30 26035 N 2425.56 -0.676073 -1.42362 0
M  V30 26036 C 2426.97 -0.27598 -1.84649 0
M  V30 26037 C 2427.32 1.18212 -1.5659 0
M  V30 26038 O 2426.45 1.90512 -1.02637 0
M  V30 26039 C 2427.04 -0.494112 -3.35178 0
M  V30 26040 C 2425.6 -0.148127 -3.76108 0
M  V30 26041 C 2424.75 -0.785938 -2.65929 0
M  V30 26042 H 2427.7 -0.878144 -1.3219 0
M  V30 26043 H 2427.72 0.253363 -3.79656 0
M  V30 26044 H 2427.23 -1.55541 -3.55568 0
M  V30 26045 H 2425.34 0.909678 -3.61325 0
M  V30 26046 H 2425.45 -0.589538 -4.75459 0
M  V30 26047 H 2423.81 -0.217158 -2.53773 0
M  V30 26048 H 2424.6 -1.85072 -2.89142 0
M  V30 26049 N 2427.04 1.51915 -0.419488 0
M  V30 26050 C 2428.27 2.06041 0.151879 0
M  V30 26051 C 2428.68 1.28858 1.38537 0
M  V30 26052 O 2428.02 0.336495 1.80592 0
M  V30 26053 C 2428.08 3.55158 0.557056 0
M  V30 26054 C 2427.75 4.53467 -0.567134 0
M  V30 26055 C 2428.74 4.99736 -1.43388 0
M  V30 26056 C 2426.43 4.96778 -0.74278 0
M  V30 26057 C 2428.42 5.87969 -2.46112 0
M  V30 26058 C 2426.11 5.84805 -1.77332 0
M  V30 26059 C 2427.11 6.30296 -2.63089 0
M  V30 26060 O 2426.8 7.16579 -3.64376 0
M  V30 26061 H 2426.53 0.675724 0.0193174 0
M  V30 26062 H 2429.08 1.96681 -0.592107 0
M  V30 26063 H 2427.31 3.6224 1.35348 0
M  V30 26064 H 2429 3.91882 1.05753 0
M  V30 26065 H 2429.77 4.66984 -1.30963 0
M  V30 26066 H 2425.65 4.60922 -0.0849117 0
M  V30 26067 H 2429.19 6.23398 -3.13082 0
M  V30 26068 H 2425.09 6.1697 -1.89784 0
M  V30 26069 H 2425.86 7.34715 -3.60744 0
M  V30 26070 N 2428.52 0.150242 1.56882 0
M  V30 26071 C 2429.76 -0.500799 1.96519 0
M  V30 26072 C 2430.1 -1.64302 1.0353 0
M  V30 26073 O 2429.37 -1.94342 0.0783093 0
M  V30 26074 C 2429.66 -1.00389 3.45824 0
M  V30 26075 C 2429.51 0.137062 4.49591 0
M  V30 26076 C 2430.83 -1.8846 3.97707 0
M  V30 26077 H 2427.95 -0.180568 0.714538 0
M  V30 26078 H 2430.59 0.232124 1.88577 0
M  V30 26079 H 2428.74 -1.62845 3.52723 0
M  V30 26080 H 2430.41 0.77351 4.54769 0
M  V30 26081 H 2428.65 0.795727 4.26439 0
M  V30 26082 H 2429.32 -0.256718 5.51403 0
M  V30 26083 H 2431.8 -1.35827 3.93307 0
M  V30 26084 H 2430.68 -2.20569 5.02634 0
M  V30 26085 H 2430.94 -2.82273 3.40257 0
M  V30 26086 N 2430 -1.57115 -0.123538 0
M  V30 26087 C 2430.93 -1.9665 -1.17735 0
M  V30 26088 C 2431.94 -0.865225 -1.37905 0
M  V30 26089 O 2433.13 -1.14354 -1.3706 0
M  V30 26090 C 2430.23 -2.24566 -2.53817 0
M  V30 26091 C 2429.4 -3.55872 -2.54311 0
M  V30 26092 C 2428.46 -3.72054 -3.72105 0
M  V30 26093 O 2427.49 -4.44212 -3.55899 0
M  V30 26094 N 2428.69 -3.1048 -4.90492 0
M  V30 26095 H 2431.46 -2.87655 -0.841097 0
M  V30 26096 H 2429.02 -1.58848 -0.312862 0
M  V30 26097 H 2431.01 -2.32611 -3.31171 0
M  V30 26098 H 2429.58 -1.3971 -2.79642 0
M  V30 26099 H 2428.8 -3.59055 -1.62705 0
M  V30 26100 H 2430.09 -4.42185 -2.51693 0
M  V30 26101 H 2429.48 -2.51815 -5.06563 0
M  V30 26102 H 2428.04 -3.24053 -5.65538 0
M  V30 26103 N 2431.47 0.393589 -1.52606 0
M  V30 26104 C 2432.7 1.1604 -1.71296 0
M  V30 26105 C 2433.12 1.83855 -0.429292 0
M  V30 26106 O 2432.47 1.72498 0.595891 0
M  V30 26107 C 2432.53 2.21188 -2.85934 0
M  V30 26108 O 2432.25 1.56138 -4.09332 0
M  V30 26109 C 2433.75 3.10631 -3.16265 0
M  V30 26110 H 2430.97 0.348094 -0.573647 0
M  V30 26111 H 2433.51 0.461057 -1.99235 0
M  V30 26112 H 2431.67 2.86765 -2.6047 0
M  V30 26113 H 2432.08 2.2597 -4.73326 0
M  V30 26114 H 2433.55 3.80449 -3.99953 0
M  V30 26115 H 2434.03 3.7388 -2.30457 0
M  V30 26116 H 2434.64 2.50704 -3.43551 0
M  V30 26117 N 2432.95 1.43492 0.651762 0
M  V30 26118 C 2434.2 1.45401 1.41373 0
M  V30 26119 C 2434.53 0.0785164 1.94041 0
M  V30 26120 O 2433.81 -0.900848 1.7238 0
M  V30 26121 C 2434.09 2.49757 2.5941 0
M  V30 26122 C 2433.94 3.96586 2.12225 0
M  V30 26123 C 2435.26 2.50834 3.61622 0
M  V30 26124 H 2432.38 0.529431 0.51271 0
M  V30 26125 H 2435.02 1.75049 0.738765 0
M  V30 26126 H 2433.17 2.24606 3.16993 0
M  V30 26127 H 2434.84 4.328 1.59632 0
M  V30 26128 H 2433.09 4.09348 1.43584 0
M  V30 26129 H 2433.76 4.65219 2.97112 0
M  V30 26130 H 2436.23 2.73255 3.13801 0
M  V30 26131 H 2435.11 3.2579 4.4176 0
M  V30 26132 H 2435.37 1.54267 4.14312 0
M  V30 26133 N 2434.43 -0.890264 1.30046 0
M  V30 26134 C 2435.38 -2.01681 1.15877 0
M  V30 26135 C 2436.37 -1.69247 0.07197 0
M  V30 26136 O 2437.58 -1.78493 0.232446 0
M  V30 26137 H 2433.95 -0.661201 0.358215 0
M  V30 26138 H 2435.92 -2.10768 2.11233 0
M  V30 26139 C 2434.67 -3.36848 0.861901 0
M  V30 26140 H 2434 -3.62314 1.69023 0
M  V30 26141 H 2435.44 -4.1633 0.802835 0
M  V30 26142 C 2433.9 -3.34079 -0.435074 0
M  V30 26143 O 2434.43 -3.74297 -1.45823 0
M  V30 26144 N 2432.63 -2.87183 -0.444327 0
M  V30 26145 H 2432.18 -2.54649 0.388768 0
M  V30 26146 H 2432.14 -2.85713 -1.31208 0
M  V30 26147 N 2435.91 -1.12676 -1.1019 0
M  V30 26148 C 2436.87 -0.800017 -2.14784 0
M  V30 26149 C 2437.87 0.186822 -1.59711 0
M  V30 26150 O 2439.06 -0.0392864 -1.74156 0
M  V30 26151 C 2436.19 -0.189287 -3.40374 0
M  V30 26152 H 2437.39 -1.72676 -2.452 0
M  V30 26153 H 2434.94 -0.930348 -1.25595 0
M  V30 26154 H 2435.67 0.747051 -3.15578 0
M  V30 26155 H 2435.46 -0.899833 -3.81635 0
M  V30 26156 H 2436.95 0.0227409 -4.17594 0
M  V30 26157 N 2437.39 1.28028 -0.919057 0
M  V30 26158 C 2438.62 1.98576 -0.570178 0
M  V30 26159 C 2439.02 1.68823 0.854143 0
M  V30 26160 O 2438.37 0.940379 1.57805 0
M  V30 26161 C 2438.43 3.52504 -0.705796 0
M  V30 26162 C 2438.09 4.0586 -2.10064 0
M  V30 26163 C 2439.09 4.19292 -3.07392 0
M  V30 26164 C 2436.78 4.40421 -2.41525 0
M  V30 26165 C 2438.77 4.66548 -4.34295 0
M  V30 26166 C 2436.46 4.87369 -3.68666 0
M  V30 26167 C 2437.45 5.0039 -4.64865 0
M  V30 26168 O 2437.14 5.46312 -5.89745 0
M  V30 26169 H 2436.87 0.640696 -0.215603 0
M  V30 26170 H 2439.43 1.6406 -1.23586 0
M  V30 26171 H 2437.66 3.86696 0.0169734 0
M  V30 26172 H 2439.35 4.04271 -0.363243 0
M  V30 26173 H 2440.11 3.9286 -2.84405 0
M  V30 26174 H 2435.99 4.29534 -1.67397 0
M  V30 26175 H 2439.54 4.76626 -5.09386 0
M  V30 26176 H 2435.43 5.13242 -3.91475 0
M  V30 26177 H 2436.2 5.64585 -5.92609 0
M  V30 26178 N 2438.86 0.683613 1.42002 0
M  V30 26179 C 2440.11 0.20986 2.01711 0
M  V30 26180 C 2440.44 -1.1835 1.53971 0
M  V30 26181 O 2439.72 -1.79638 0.745692 0
M  V30 26182 C 2440 0.25426 3.59201 0
M  V30 26183 C 2439.85 1.68371 4.17099 0
M  V30 26184 C 2441.17 -0.392632 4.38345 0
M  V30 26185 H 2438.29 0.0777317 0.732889 0
M  V30 26186 H 2440.93 0.87007 1.68908 0
M  V30 26187 H 2439.08 -0.307885 3.87278 0
M  V30 26188 H 2440.76 2.29878 3.99942 0
M  V30 26189 H 2439 2.22164 3.72593 0
M  V30 26190 H 2439.67 1.66639 5.26246 0
M  V30 26191 H 2442.15 0.0859893 4.16011 0
M  V30 26192 H 2441.02 -0.330967 5.47901 0
M  V30 26193 H 2441.28 -1.47157 4.1689 0
M  V30 26194 N 2440.34 -1.5169 0.427538 0
M  V30 26195 C 2441.75 -1.86662 -0.0378539 0
M  V30 26196 C 2442.11 -1.34528 -1.42817 0
M  V30 26197 O 2441.23 -0.69205 -2.05036 0
M  V30 26198 C 2441.83 -3.38716 -0.0754671 0
M  V30 26199 C 2440.38 -3.73259 -0.485243 0
M  V30 26200 C 2439.53 -2.75348 0.328447 0
M  V30 26201 H 2442.48 -1.45054 0.643815 0
M  V30 26202 H 2442.5 -3.70017 -0.886991 0
M  V30 26203 H 2442.02 -3.7663 0.936554 0
M  V30 26204 H 2440.12 -3.40931 -1.50323 0
M  V30 26205 H 2440.23 -4.78609 -0.216846 0
M  V30 26206 H 2438.59 -2.53817 -0.211861 0
M  V30 26207 H 2439.38 -3.16103 1.33916 0
M  V30 26208 N 2441.82 -0.15856 -1.568 0
M  V30 26209 C 2442.77 0.79369 -2.1864 0
M  V30 26210 C 2443.76 1.24687 -1.14671 0
M  V30 26211 O 2444.97 1.21401 -1.32898 0
M  V30 26212 H 2441.34 0.274191 -0.700231 0
M  V30 26213 H 2443.32 0.248043 -2.97367 0
M  V30 26214 C 2442.06 2.01805 -2.83143 0
M  V30 26215 H 2441.39 1.67834 -3.62866 0
M  V30 26216 H 2442.83 2.66351 -3.29899 0
M  V30 26217 C 2441.29 2.8335 -1.82249 0
M  V30 26218 O 2441.82 3.8008 -1.30007 0
M  V30 26219 N 2440.02 2.48111 -1.51292 0
M  V30 26220 H 2439.57 1.69513 -1.93967 0
M  V30 26221 H 2439.53 3.02961 -0.840349 0
M  V30 26222 N 2443.3 1.57178 0.115204 0
M  V30 26223 C 2444.26 1.99678 1.12523 0
M  V30 26224 C 2445.26 0.887444 1.34094 0
M  V30 26225 O 2446.45 1.1534 1.30546 0
M  V30 26226 C 2443.58 2.3402 2.47886 0
M  V30 26227 H 2444.78 2.90114 0.759861 0
M  V30 26228 H 2442.33 1.52107 0.359621 0
M  V30 26229 H 2443.07 1.46475 2.89336 0
M  V30 26230 H 2442.85 3.14931 2.33583 0
M  V30 26231 H 2444.34 2.67628 3.2057 0
M  V30 26232 N 2444.78 -0.38549 1.52813 0
M  V30 26233 C 2446.19 -0.725804 1.42142 0
M  V30 26234 C 2446.39 -1.94 0.544624 0
M  V30 26235 O 2445.45 -2.52493 0.0194136 0
M  V30 26236 C 2446.76 -0.957618 2.85044 0
M  V30 26237 C 2448.31 -1.05887 2.94545 0
M  V30 26238 C 2448.79 -1.32329 4.38467 0
M  V30 26239 N 2450.28 -1.39143 4.41807 0
M  V30 26240 C 2451.01 -1.61275 5.50253 0
M  V30 26241 N 2450.51 -1.80854 6.68778 0
M  V30 26242 N 2452.3 -1.63483 5.37801 0
M  V30 26243 H 2444.45 0.413419 2.08338 0
M  V30 26244 H 2446.71 0.122792 0.940014 0
M  V30 26245 H 2446.42 -0.137507 3.51431 0
M  V30 26246 H 2446.29 -1.87131 3.27509 0
M  V30 26247 H 2448.68 -1.86955 2.28324 0
M  V30 26248 H 2448.76 -0.123012 2.55504 0
M  V30 26249 H 2448.41 -0.517704 5.05255 0
M  V30 26250 H 2448.34 -2.27205 4.75063 0
M  V30 26251 H 2450.83 -1.25707 3.56379 0
M  V30 26252 H 2451.14 -1.97258 7.47201 0
M  V30 26253 H 2449.49 -1.78072 6.718 0
M  V30 26254 H 2452.68 -1.47741 4.44174 0
M  V30 26255 H 2452.85 -1.80391 6.22385 0
M  V30 26256 N 2446.26 -1.43835 -0.644143 0
M  V30 26257 C 2447.5 -1.47144 -1.40429 0
M  V30 26258 C 2447.86 -0.0975914 -1.92152 0
M  V30 26259 O 2447.15 0.885202 -1.69926 0
M  V30 26260 C 2447.34 -2.45636 -2.59611 0
M  V30 26261 C 2447.17 -3.92462 -2.19553 0
M  V30 26262 C 2445.94 -4.60753 -2.07448 0
M  V30 26263 C 2448.14 -4.82043 -1.79273 0
M  V30 26264 N 2446.12 -5.92462 -1.60817 0
M  V30 26265 C 2447.49 -6.03096 -1.43791 0
M  V30 26266 C 2449.55 -4.69223 -1.66537 0
M  V30 26267 C 2448.25 -7.1275 -0.968474 0
M  V30 26268 C 2450.28 -5.7889 -1.20998 0
M  V30 26269 C 2449.64 -6.99074 -0.864588 0
M  V30 26270 H 2445.74 -0.593522 -0.509171 0
M  V30 26271 H 2448.32 -1.80076 -0.740319 0
M  V30 26272 H 2446.49 -2.14715 -3.23654 0
M  V30 26273 H 2448.23 -2.39324 -3.26353 0
M  V30 26274 H 2444.98 -4.15384 -2.27493 0
M  V30 26275 H 2445.4 -6.62401 -1.39837 0
M  V30 26276 H 2450.05 -3.76754 -1.91877 0
M  V30 26277 H 2447.76 -8.0504 -0.702574 0
M  V30 26278 H 2451.35 -5.70992 -1.11621 0
M  V30 26279 H 2450.23 -7.8249 -0.517598 0
M  V30 26280 N 2447.73 0.883355 -1.30517 0
M  V30 26281 C 2448.98 1.6353 -1.19433 0
M  V30 26282 C 2449.31 1.92879 0.250593 0
M  V30 26283 O 2448.56 1.54937 1.19553 0
M  V30 26284 C 2448.86 2.98205 -1.96999 0
M  V30 26285 C 2448.53 2.88402 -3.46605 0
M  V30 26286 C 2447.19 2.85435 -3.87402 0
M  V30 26287 C 2449.54 2.7641 -4.41867 0
M  V30 26288 C 2446.87 2.68318 -5.21749 0
M  V30 26289 C 2449.22 2.60831 -5.76324 0
M  V30 26290 C 2447.89 2.5624 -6.16358 0
M  V30 26291 H 2447.16 0.598398 -0.437036 0
M  V30 26292 H 2449.8 1.02693 -1.61637 0
M  V30 26293 H 2448.11 3.63002 -1.47435 0
M  V30 26294 H 2449.81 3.55351 -1.85814 0
M  V30 26295 H 2446.4 2.91521 -3.14187 0
M  V30 26296 H 2450.58 2.77767 -4.11289 0
M  V30 26297 H 2445.84 2.63179 -5.51857 0
M  V30 26298 H 2450.01 2.50527 -6.49776 0
M  V30 26299 H 2447.64 2.42735 -7.20405 0
M  V30 26300 N 2449.21 1.13259 1.09591 0
M  V30 26301 C 2450.49 0.804463 1.78291 0
M  V30 26302 C 2450.87 -0.704275 1.99005 0
M  V30 26303 O 2450.22 -1.64098 1.5901 0
M  V30 26304 C 2450.43 1.58946 3.10704 0
M  V30 26305 C 2451.77 1.78106 3.85439 0
M  V30 26306 O 2452.8 1.5553 3.20451 0
M  V30 26307 O 2451.66 2.15762 5.02105 0
M  V30 26308 H 2448.75 0.293541 0.773151 0
M  V30 26309 H 2451.3 1.23711 1.16162 0
M  V30 26310 H 2450.07 2.61487 2.91101 0
M  V30 26311 H 2449.69 1.15164 3.80556 0
M  V30 26312 N 2450.69 -1.27539 0.925834 0
M  V30 26313 C 2451.92 -1.98271 0.580701 0
M  V30 26314 C 2452.33 -1.69273 -0.845178 0
M  V30 26315 O 2451.67 -0.948735 -1.57305 0
M  V30 26316 C 2451.73 -3.52124 0.72448 0
M  V30 26317 C 2451.4 -4.0474 2.12213 0
M  V30 26318 C 2452.39 -4.17656 3.09611 0
M  V30 26319 C 2450.08 -4.39134 2.43857 0
M  V30 26320 C 2452.07 -4.64238 4.36763 0
M  V30 26321 C 2449.76 -4.85407 3.71245 0
M  V30 26322 C 2450.76 -4.97917 4.67512 0
M  V30 26323 O 2450.45 -5.43177 5.92633 0
M  V30 26324 H 2450.18 -0.639543 0.218998 0
M  V30 26325 H 2452.73 -1.63402 1.24455 0
M  V30 26326 H 2450.96 -3.867 0.00353427 0
M  V30 26327 H 2452.65 -4.04073 0.384678 0
M  V30 26328 H 2453.42 -3.91346 2.86485 0
M  V30 26329 H 2449.3 -4.2864 1.69672 0
M  V30 26330 H 2452.84 -4.73918 5.11906 0
M  V30 26331 H 2448.74 -5.11159 3.94191 0
M  V30 26332 H 2449.5 -5.61435 5.95595 0
M  V30 26333 N 2452.17 -0.691135 -1.41637 0
M  V30 26334 C 2453.12 6.7755e-05 -2.28 0
M  V30 26335 C 2454.1 0.757279 -1.41965 0
M  V30 26336 O 2455.29 0.633502 -1.65275 0
M  V30 26337 C 2452.42 0.938925 -3.30211 0
M  V30 26338 C 2451.51 0.178196 -4.23725 0
M  V30 26339 N 2451.9 -0.82565 -4.99016 0
M  V30 26340 C 2450.2 0.414314 -4.44071 0
M  V30 26341 C 2450.9 -1.28062 -5.67428 0
M  V30 26342 N 2449.87 -0.607399 -5.40196 0
M  V30 26343 H 2453.68 -0.769667 -2.83643 0
M  V30 26344 H 2451.19 -0.521589 -1.53796 0
M  V30 26345 H 2453.19 1.44922 -3.90901 0
M  V30 26346 H 2451.85 1.70831 -2.76129 0
M  V30 26347 H 2452.86 -1.20574 -5.03669 0
M  V30 26348 H 2449.54 1.16193 -4.01006 0
M  V30 26349 H 2450.93 -2.11338 -6.37798 0
M  V30 26350 N 2453.65 1.51461 -0.435577 0
M  V30 26351 C 2454.87 2.0649 0.130206 0
M  V30 26352 C 2455.29 1.30318 1.36612 0
M  V30 26353 O 2454.65 0.362255 1.78869 0
M  V30 26354 C 2454.7 3.58635 0.45419 0
M  V30 26355 O 2454.42 4.3193 -0.732666 0
M  V30 26356 C 2455.92 4.30172 1.07084 0
M  V30 26357 H 2453.14 0.670944 0.0087049 0
M  V30 26358 H 2455.68 1.9506 -0.614151 0
M  V30 26359 H 2453.84 3.69986 1.14845 0
M  V30 26360 H 2454.25 5.22515 -0.455879 0
M  V30 26361 H 2455.73 5.37718 1.24754 0
M  V30 26362 H 2456.2 3.8835 2.05137 0
M  V30 26363 H 2456.81 4.2326 0.416015 0
M  V30 26364 N 2455.12 0.166873 1.56714 0
M  V30 26365 C 2456.37 -0.478271 1.96359 0
M  V30 26366 C 2456.69 -1.64078 1.05373 0
M  V30 26367 O 2455.96 -1.95537 0.119189 0
M  V30 26368 H 2454.54 -0.17968 0.725068 0
M  V30 26369 H 2457.21 0.247018 1.93328 0
M  V30 26370 H 2456.3 -0.84124 3.00549 0
M  V30 26371 N 2456.6 -1.57237 -0.106866 0
M  V30 26372 C 2457.55 -2.01219 -1.13046 0
M  V30 26373 C 2458.52 -0.886428 -1.40469 0
M  V30 26374 O 2459.7 -1.15156 -1.52131 0
M  V30 26375 C 2456.84 -2.43176 -2.44866 0
M  V30 26376 C 2455.96 -3.69222 -2.24275 0
M  V30 26377 C 2455.09 -4.00108 -3.4941 0
M  V30 26378 C 2454.13 -5.19299 -3.24029 0
M  V30 26379 N 2453.27 -5.45995 -4.414 0
M  V30 26380 H 2458.11 -2.88449 -0.748406 0
M  V30 26381 H 2455.65 -1.42676 -0.358029 0
M  V30 26382 H 2457.6 -2.65543 -3.21781 0
M  V30 26383 H 2456.23 -1.58972 -2.80941 0
M  V30 26384 H 2455.29 -3.54401 -1.38218 0
M  V30 26385 H 2456.6 -4.56287 -2.01504 0
M  V30 26386 H 2455.75 -4.23188 -4.34738 0
M  V30 26387 H 2454.49 -3.11542 -3.75224 0
M  V30 26388 H 2453.5 -4.96051 -2.37093 0
M  V30 26389 H 2454.72 -6.09453 -2.99573 0
M  V30 26390 H 2452.67 -4.60388 -4.67311 0
M  V30 26391 H 2452.58 -6.27407 -4.21777 0
M  V30 26392 H 2453.85 -5.73603 -5.27826 0
M  V30 26393 N 2458.08 0.377381 -1.53015 0
M  V30 26394 C 2459.36 1.13619 -1.59217 0
M  V30 26395 C 2459.74 2.0742 -0.392444 0
M  V30 26396 O 2459.09 2.19976 0.618303 0
M  V30 26397 C 2459.3 1.88568 -2.93672 0
M  V30 26398 C 2460.64 2.43519 -3.47827 0
M  V30 26399 O 2461.67 1.9871 -2.95623 0
M  V30 26400 O 2460.53 3.25404 -4.39061 0
M  V30 26401 H 2457.62 0.520529 -0.642634 0
M  V30 26402 H 2460.17 0.381596 -1.65354 0
M  V30 26403 H 2458.94 1.20042 -3.72432 0
M  V30 26404 H 2458.56 2.70963 -2.90972 0
M  V30 26405 N 2459.56 1.44175 0.636506 0
M  V30 26406 C 2460.81 1.45956 1.39211 0
M  V30 26407 C 2461.12 0.0939462 1.95374 0
M  V30 26408 O 2462.33 -0.010729 2.71498 0
M  V30 26409 C 2460.78 2.56932 2.5202 0
M  V30 26410 C 2460.39 3.99676 2.02393 0
M  V30 26411 C 2462.13 2.67928 3.29264 0
M  V30 26412 C 2460.04 5.02086 3.12512 0
M  V30 26413 H 2458.97 0.543009 0.523123 0
M  V30 26414 H 2461.62 1.70222 0.685319 0
M  V30 26415 H 2460 2.25896 3.25249 0
M  V30 26416 H 2461.18 4.40253 1.36065 0
M  V30 26417 H 2459.49 3.92875 1.3798 0
M  V30 26418 H 2462.09 3.41612 4.11346 0
M  V30 26419 H 2462.43 1.73562 3.78394 0
M  V30 26420 H 2462.97 2.98346 2.63124 0
M  V30 26421 H 2459.71 5.98062 2.68333 0
M  V30 26422 H 2459.23 4.66106 3.77499 0
M  V30 26423 H 2460.9 5.25544 3.77375 0
M  V30 26424 N 2461.04 -0.876421 1.30983 0
M  V30 26425 C 2462.28 -1.62572 1.20061 0
M  V30 26426 C 2462.61 -1.93481 -0.242913 0
M  V30 26427 O 2461.88 -1.57726 -1.16187 0
M  V30 26428 H 2460.46 -0.602669 0.44136 0
M  V30 26429 H 2463.12 -1.0496 1.64224 0
M  V30 26430 H 2462.21 -2.57216 1.76767 0
M  V30 26431 N 2462.51 -1.13839 -1.08989 0
M  V30 26432 C 2463.76 -0.904251 -1.81524 0
M  V30 26433 C 2464.09 0.568033 -1.85707 0
M  V30 26434 O 2463.37 1.42054 -1.32857 0
M  V30 26435 C 2463.65 -1.4984 -3.27444 0
M  V30 26436 C 2463.5 -3.04012 -3.31507 0
M  V30 26437 C 2464.82 -1.17033 -4.24254 0
M  V30 26438 H 2461.94 -0.329935 -0.659024 0
M  V30 26439 H 2464.58 -1.40739 -1.27642 0
M  V30 26440 H 2462.73 -1.07051 -3.7346 0
M  V30 26441 H 2464.41 -3.55589 -2.93861 0
M  V30 26442 H 2462.65 -3.38769 -2.70957 0
M  V30 26443 H 2463.32 -3.40687 -4.34323 0
M  V30 26444 H 2465.8 -1.54016 -3.86547 0
M  V30 26445 H 2464.67 -1.61246 -5.24682 0
M  V30 26446 H 2464.93 -0.0847051 -4.42019 0
M  V30 26447 N 2463.99 1.27046 -0.932584 0
M  V30 26448 C 2465.41 1.46486 -0.63357 0
M  V30 26449 C 2465.61 1.84251 0.815714 0
M  V30 26450 O 2464.66 1.95895 1.59316 0
M  V30 26451 C 2465.98 2.55372 -1.58763 0
M  V30 26452 C 2467.53 2.69229 -1.59639 0
M  V30 26453 C 2468 3.81278 -2.53753 0
M  V30 26454 N 2469.49 3.88659 -2.51989 0
M  V30 26455 C 2470.23 4.74791 -3.21499 0
M  V30 26456 N 2469.72 5.65374 -4.00405 0
M  V30 26457 N 2471.52 4.68562 -3.10493 0
M  V30 26458 H 2463.67 1.00818 -1.86948 0
M  V30 26459 H 2465.93 0.50403 -0.802906 0
M  V30 26460 H 2465.64 2.34428 -2.62177 0
M  V30 26461 H 2465.51 3.52858 -1.33307 0
M  V30 26462 H 2467.9 2.89552 -0.569539 0
M  V30 26463 H 2467.98 1.72214 -1.89145 0
M  V30 26464 H 2467.62 3.61709 -3.56551 0
M  V30 26465 H 2467.55 4.77731 -2.21541 0
M  V30 26466 H 2470.04 3.23891 -1.94686 0
M  V30 26467 H 2470.36 6.27968 -4.50417 0
M  V30 26468 H 2468.7 5.65154 -4.04508 0
M  V30 26469 H 2471.89 3.96795 -2.48338 0
M  V30 26470 H 2472.06 5.35469 -3.64934 0
M  V30 26471 N 2465.47 0.698636 1.41269 0
M  V30 26472 C 2466.72 0.230445 2.00782 0
M  V30 26473 C 2467.04 -1.17503 1.55622 0
M  V30 26474 O 2466.31 -1.79345 0.788181 0
M  V30 26475 H 2464.89 0.0822075 0.742463 0
M  V30 26476 H 2467.55 0.90048 1.72851 0
M  V30 26477 H 2466.65 0.250265 3.11095 0
M  V30 26478 N 2466.95 -1.51228 0.443603 0
M  V30 26479 C 2467.88 -2.25673 -0.400568 0
M  V30 26480 C 2468.89 -1.2993 -0.980922 0
M  V30 26481 O 2470.08 -1.55639 -0.873997 0
M  V30 26482 C 2467.18 -3.00184 -1.57299 0
M  V30 26483 C 2466.36 -4.23071 -1.11039 0
M  V30 26484 C 2465.41 -4.80108 -2.15366 0
M  V30 26485 O 2464.44 -5.41778 -1.74544 0
M  V30 26486 N 2465.64 -4.64689 -3.47914 0
M  V30 26487 H 2468.41 -2.98757 0.237502 0
M  V30 26488 H 2465.97 -1.59584 0.272837 0
M  V30 26489 H 2467.96 -3.35227 -2.26727 0
M  V30 26490 H 2466.53 -2.3007 -2.11628 0
M  V30 26491 H 2465.75 -3.93451 -0.24295 0
M  V30 26492 H 2467.04 -5.02804 -0.7788 0
M  V30 26493 H 2466.44 -4.15582 -3.83807 0
M  V30 26494 H 2464.99 -5.04077 -4.13219 0
M  V30 26495 N 2468.43 -0.175182 -1.56623 0
M  V30 26496 C 2469.67 0.468777 -1.96999 0
M  V30 26497 C 2470 1.62992 -1.06132 0
M  V30 26498 O 2469.26 1.95463 -0.0962114 0
M  V30 26499 C 2469.56 0.989803 -3.43421 0
M  V30 26500 C 2469.22 -0.055848 -4.50865 0
M  V30 26501 C 2467.88 -0.343219 -4.79974 0
M  V30 26502 C 2470.24 -0.765399 -5.15549 0
M  V30 26503 C 2467.56 -1.34546 -5.71064 0
M  V30 26504 C 2469.92 -1.75665 -6.07721 0
M  V30 26505 C 2468.58 -2.05143 -6.35195 0
M  V30 26506 H 2467.85 0.171538 -0.720872 0
M  V30 26507 H 2470.5 -0.267957 -1.89616 0
M  V30 26508 H 2468.8 1.80443 -3.47775 0
M  V30 26509 H 2470.5 1.49712 -3.72004 0
M  V30 26510 H 2467.09 0.178305 -4.28229 0
M  V30 26511 H 2471.27 -0.556599 -4.93169 0
M  V30 26512 H 2466.53 -1.57998 -5.90632 0
M  V30 26513 H 2470.7 -2.31181 -6.56908 0
M  V30 26514 H 2468.33 -2.82952 -7.05579 0
M  V30 26515 N 2469.91 1.57292 0.0985263 0
M  V30 26516 C 2470.84 1.98498 1.14592 0
M  V30 26517 C 2471.85 0.887055 1.36511 0
M  V30 26518 O 2473.04 1.1652 1.35223 0
M  V30 26519 C 2470.14 2.28576 2.50212 0
M  V30 26520 C 2469.31 3.59872 2.48617 0
M  V30 26521 C 2468.37 3.77927 3.66139 0
M  V30 26522 O 2467.4 4.49818 3.48787 0
M  V30 26523 N 2468.6 3.18244 4.85491 0
M  V30 26524 H 2471.36 2.88957 0.795227 0
M  V30 26525 H 2468.93 1.59326 0.287551 0
M  V30 26526 H 2470.92 2.37851 3.27428 0
M  V30 26527 H 2469.49 1.44141 2.77384 0
M  V30 26528 H 2468.71 3.61599 1.56972 0
M  V30 26529 H 2470 4.46134 2.44627 0
M  V30 26530 H 2469.39 2.59842 5.02492 0
M  V30 26531 H 2467.95 3.33009 5.60311 0
M  V30 26532 N 2471.38 -0.369261 1.53213 0
M  V30 26533 C 2472.61 -1.133 1.73121 0
M  V30 26534 C 2473.03 -1.83148 0.458487 0
M  V30 26535 O 2472.38 -1.73424 -0.568372 0
M  V30 26536 C 2472.43 -2.16611 2.89417 0
M  V30 26537 O 2472.16 -1.49607 4.11764 0
M  V30 26538 C 2473.66 -3.0556 3.21167 0
M  V30 26539 H 2470.88 -0.338924 0.579113 0
M  V30 26540 H 2473.42 -0.429302 1.99943 0
M  V30 26541 H 2471.58 -2.82585 2.64999 0
M  V30 26542 H 2471.99 -2.18411 4.76862 0
M  V30 26543 H 2473.46 -3.74038 4.05955 0
M  V30 26544 H 2473.94 -3.70166 2.36376 0
M  V30 26545 H 2474.55 -2.45207 3.47496 0
M  V30 26546 N 2472.86 -1.4451 -0.628851 0
M  V30 26547 C 2474.11 -1.47413 -1.38837 0
M  V30 26548 C 2474.44 -0.107604 -1.94202 0
M  V30 26549 O 2473.69 0.890916 -1.74245 0
M  V30 26550 C 2473.99 -2.48375 -2.56991 0
M  V30 26551 C 2473.66 -3.93643 -2.19901 0
M  V30 26552 C 2472.32 -4.33202 -2.09498 0
M  V30 26553 C 2474.67 -4.85086 -1.90632 0
M  V30 26554 C 2472 -5.62127 -1.68018 0
M  V30 26555 C 2474.35 -6.14401 -1.50644 0
M  V30 26556 C 2473.01 -6.52913 -1.38785 0
M  V30 26557 H 2472.28 -0.539423 -0.508039 0
M  V30 26558 H 2474.93 -1.77736 -0.712881 0
M  V30 26559 H 2473.24 -2.11544 -3.29782 0
M  V30 26560 H 2474.93 -2.47867 -3.15219 0
M  V30 26561 H 2471.52 -3.62347 -2.28916 0
M  V30 26562 H 2475.71 -4.55277 -1.97577 0
M  V30 26563 H 2470.96 -5.90781 -1.57442 0
M  V30 26564 H 2475.14 -6.84715 -1.27036 0
M  V30 26565 H 2472.76 -7.52715 -1.06416 0
M  V30 26566 N 2474.34 0.869463 -1.31446 0
M  V30 26567 C 2475.29 1.99812 -1.1907 0
M  V30 26568 C 2476.28 1.69111 -0.0988866 0
M  V30 26569 O 2477.49 1.781 -0.260813 0
M  V30 26570 H 2473.86 0.655418 -0.368688 0
M  V30 26571 H 2475.83 2.07381 -2.14559 0
M  V30 26572 C 2474.58 3.35434 -0.915382 0
M  V30 26573 H 2473.91 3.59579 -1.74766 0
M  V30 26574 H 2475.35 4.15 -0.868968 0
M  V30 26575 C 2473.8 3.34729 0.38187 0
M  V30 26576 O 2474.33 3.7657 1.3985 0
M  V30 26577 N 2472.54 2.87854 0.398582 0
M  V30 26578 H 2472.09 2.53999 -0.429231 0
M  V30 26579 H 2472.05 2.87764 1.26646 0
M  V30 26580 N 2475.82 1.14415 1.08383 0
M  V30 26581 C 2476.78 0.834086 2.13485 0
M  V30 26582 C 2477.78 -0.161389 1.59988 0
M  V30 26583 O 2478.97 0.0669881 1.74071 0
M  V30 26584 C 2476.1 0.243414 3.4003 0
M  V30 26585 H 2477.3 1.76555 2.42422 0
M  V30 26586 H 2474.85 0.950211 1.24099 0
M  V30 26587 H 2475.58 -0.696751 3.16727 0
M  V30 26588 H 2475.37 0.960434 3.80155 0
M  V30 26589 H 2476.86 0.0436976 4.17577 0
M  V30 26590 N 2477.3 -1.26549 0.939309 0
M  V30 26591 C 2478.52 -1.9847 0.602043 0
M  V30 26592 C 2478.95 -1.69498 -0.815594 0
M  V30 26593 O 2478.3 -0.941933 -1.54911 0
M  V30 26594 C 2478.35 -3.50476 0.848468 0
M  V30 26595 O 2477.46 -4.12322 -0.0803284 0
M  V30 26596 H 2476.8 -0.622708 0.230501 0
M  V30 26597 H 2479.33 -1.61064 1.26173 0
M  V30 26598 H 2479.34 -4.00695 0.768623 0
M  V30 26599 H 2478.01 -3.70894 1.88178 0
M  V30 26600 H 2476.59 -3.72866 0.0504164 0
M  V30 26601 N 2478.77 -0.706118 -1.40896 0
M  V30 26602 C 2480 -0.250559 -2.05075 0
M  V30 26603 C 2480.41 1.10919 -1.53277 0
M  V30 26604 O 2479.75 1.70638 -0.680311 0
M  V30 26605 C 2479.82 -0.142242 -3.59218 0
M  V30 26606 C 2479.48 -1.43573 -4.33861 0
M  V30 26607 C 2480.48 -2.37575 -4.62444 0
M  V30 26608 C 2478.16 -1.69203 -4.72943 0
M  V30 26609 C 2480.16 -3.55459 -5.29082 0
M  V30 26610 C 2477.84 -2.87371 -5.39315 0
M  V30 26611 C 2478.84 -3.80322 -5.67313 0
M  V30 26612 O 2478.53 -4.96419 -6.32316 0
M  V30 26613 H 2478.26 -0.112086 -0.666643 0
M  V30 26614 H 2480.82 -0.962271 -1.81465 0
M  V30 26615 H 2479.05 0.625332 -3.8161 0
M  V30 26616 H 2480.73 0.277513 -4.0495 0
M  V30 26617 H 2481.5 -2.19034 -4.32723 0
M  V30 26618 H 2477.38 -0.977121 -4.50526 0
M  V30 26619 H 2480.92 -4.28028 -5.50852 0
M  V30 26620 H 2476.82 -3.05824 -5.68456 0
M  V30 26621 H 2477.59 -4.96372 -6.50813 0
M  V30 26622 N 2480.25 1.50991 -0.451617 0
M  V30 26623 C 2481.53 1.94854 0.170672 0
M  V30 26624 C 2481.91 1.39106 1.58786 0
M  V30 26625 O 2481.26 0.58396 2.20912 0
M  V30 26626 C 2481.47 3.48743 0.133867 0
M  V30 26627 C 2482.81 4.23297 0.332405 0
M  V30 26628 O 2483.84 3.55572 0.211341 0
M  V30 26629 O 2482.7 5.43469 0.574765 0
M  V30 26630 H 2479.79 0.817914 0.12225 0
M  V30 26631 H 2482.34 1.61836 -0.510622 0
M  V30 26632 H 2481.11 3.81815 -0.85635 0
M  V30 26633 H 2480.73 3.88244 0.857461 0
M  V30 26634 N 2481.73 0.183486 1.56528 0
M  V30 26635 C 2482.96 -0.46425 2.01624 0
M  V30 26636 C 2483.37 -1.55985 1.06368 0
M  V30 26637 O 2482.73 -1.82379 0.0665718 0
M  V30 26638 C 2482.78 -1.03133 3.46476 0
M  V30 26639 O 2482.5 0.0205445 4.38095 0
M  V30 26640 C 2484 -1.75609 4.07033 0
M  V30 26641 H 2481.22 -0.117692 0.660598 0
M  V30 26642 H 2483.77 0.288786 2.02451 0
M  V30 26643 H 2481.92 -1.7348 3.46386 0
M  V30 26644 H 2482.34 -0.39986 5.22974 0
M  V30 26645 H 2483.81 -2.10533 5.10274 0
M  V30 26646 H 2484.29 -2.65557 3.49823 0
M  V30 26647 H 2484.89 -1.09875 4.10862 0
M  V30 26648 N 2483.21 -1.57342 -0.0901833 0
M  V30 26649 C 2484.46 -1.85521 -0.791498 0
M  V30 26650 C 2484.77 -0.773472 -1.79657 0
M  V30 26651 O 2485.98 -0.942542 -2.54614 0
M  V30 26652 C 2484.43 -3.29022 -1.4585 0
M  V30 26653 C 2484.04 -4.4528 -0.492939 0
M  V30 26654 C 2485.78 -3.66422 -2.14326 0
M  V30 26655 C 2483.69 -5.79816 -1.16481 0
M  V30 26656 H 2482.62 -0.692033 -0.299344 0
M  V30 26657 H 2485.27 -1.83446 -0.0445021 0
M  V30 26658 H 2483.65 -3.25654 -2.25313 0
M  V30 26659 H 2484.83 -4.60005 0.270545 0
M  V30 26660 H 2483.14 -4.1631 0.0863793 0
M  V30 26661 H 2485.74 -4.64221 -2.65336 0
M  V30 26662 H 2486.08 -2.95293 -2.93442 0
M  V30 26663 H 2486.62 -3.717 -1.41717 0
M  V30 26664 H 2483.35 -6.54189 -0.414355 0
M  V30 26665 H 2482.87 -5.68925 -1.8996 0
M  V30 26666 H 2484.55 -6.24541 -1.6899 0
M  V30 26667 N 2484.69 0.36113 -1.53407 0
M  V30 26668 C 2485.63 1.46293 -1.80834 0
M  V30 26669 C 2486.63 1.55252 -0.677727 0
M  V30 26670 O 2487.83 1.58086 -0.860751 0
M  V30 26671 H 2484.21 0.487435 -0.572635 0
M  V30 26672 H 2486.18 1.20366 -2.73047 0
M  V30 26673 C 2484.93 2.83067 -2.01912 0
M  V30 26674 H 2484.25 2.76933 -2.88354 0
M  V30 26675 H 2485.69 3.59327 -2.25079 0
M  V30 26676 C 2484.15 3.27276 -0.799506 0
M  V30 26677 O 2484.68 4.01699 0.00964701 0
M  V30 26678 N 2482.89 2.83872 -0.621687 0
M  V30 26679 H 2482.43 2.23474 -1.2813 0
M  V30 26680 H 2482.39 3.13808 0.192925 0
M  V30 26681 N 2486.16 1.44842 0.621179 0
M  V30 26682 C 2487.09 1.55306 1.74363 0
M  V30 26683 C 2488.08 0.405414 1.65198 0
M  V30 26684 O 2489.26 0.62682 1.83806 0
M  V30 26685 C 2486.39 1.50643 3.12928 0
M  V30 26686 C 2485.34 2.63985 3.36892 0
M  V30 26687 C 2484.67 2.44375 4.75589 0
M  V30 26688 C 2485.97 4.0608 3.28476 0
M  V30 26689 H 2487.66 2.49259 1.65863 0
M  V30 26690 H 2485.21 1.19964 0.796537 0
M  V30 26691 H 2487.16 1.56562 3.91237 0
M  V30 26692 H 2485.89 0.532114 3.22236 0
M  V30 26693 H 2484.55 2.57471 2.60967 0
M  V30 26694 H 2484.19 1.45113 4.81613 0
M  V30 26695 H 2483.89 3.20373 4.9258 0
M  V30 26696 H 2485.42 2.52127 5.56115 0
M  V30 26697 H 2486.83 4.13909 3.96676 0
M  V30 26698 H 2485.23 4.8236 3.57 0
M  V30 26699 H 2486.3 4.28947 2.26125 0
M  V30 26700 N 2487.64 -0.862479 1.31905 0
M  V30 26701 C 2488.59 -1.95825 1.16775 0
M  V30 26702 C 2489.58 -1.60717 0.076738 0
M  V30 26703 O 2490.77 -1.74397 0.302437 0
M  V30 26704 C 2487.9 -3.31699 0.884916 0
M  V30 26705 C 2486.98 -3.73051 2.01726 0
M  V30 26706 N 2487.37 -3.86299 3.26507 0
M  V30 26707 C 2485.67 -4.0262 1.91868 0
M  V30 26708 C 2486.37 -4.21753 4.00624 0
M  V30 26709 N 2485.35 -4.32846 3.28854 0
M  V30 26710 H 2489.15 -2.0419 2.11385 0
M  V30 26711 H 2486.67 -1.05375 1.23571 0
M  V30 26712 H 2488.66 -4.09961 0.757492 0
M  V30 26713 H 2487.32 -3.24657 -0.0528877 0
M  V30 26714 H 2488.33 -3.70827 3.61535 0
M  V30 26715 H 2485.01 -4.03924 1.056 0
M  V30 26716 H 2486.4 -4.39537 5.0819 0
M  V30 26717 N 2489.12 -1.14988 -1.07775 0
M  V30 26718 C 2490.37 -0.923454 -1.80555 0
M  V30 26719 C 2490.7 0.548304 -1.86299 0
M  V30 26720 O 2489.97 1.40637 -1.34356 0
M  V30 26721 C 2490.26 -1.53305 -3.25837 0
M  V30 26722 C 2490.11 -3.07511 -3.28264 0
M  V30 26723 C 2491.43 -1.21526 -4.22989 0
M  V30 26724 H 2488.55 -0.336906 -0.655487 0
M  V30 26725 H 2491.19 -1.42085 -1.26142 0
M  V30 26726 H 2489.34 -1.11006 -3.72304 0
M  V30 26727 H 2491.01 -3.58686 -2.90073 0
M  V30 26728 H 2489.26 -3.41624 -2.67349 0
M  V30 26729 H 2489.93 -3.45274 -4.30685 0
M  V30 26730 H 2492.4 -1.58107 -3.84891 0
M  V30 26731 H 2491.28 -1.66802 -5.22942 0
M  V30 26732 H 2491.54 -0.131582 -4.41904 0
M  V30 26733 N 2490.6 1.26049 -0.946007 0
M  V30 26734 C 2492.01 1.45805 -0.649071 0
M  V30 26735 C 2492.21 1.85106 0.796126 0
M  V30 26736 O 2491.27 1.97573 1.57229 0
M  V30 26737 C 2492.58 2.53674 -1.61462 0
M  V30 26738 C 2494.13 2.67521 -1.62485 0
M  V30 26739 C 2494.61 3.78566 -2.57783 0
M  V30 26740 N 2496.1 3.85965 -2.56097 0
M  V30 26741 C 2496.83 4.71354 -3.26517 0
M  V30 26742 N 2496.33 5.61095 -4.06379 0
M  V30 26743 N 2498.12 4.65243 -3.15445 0
M  V30 26744 H 2490.27 0.988295 -1.88007 0
M  V30 26745 H 2492.54 0.495485 -0.808207 0
M  V30 26746 H 2492.24 2.31634 -2.64648 0
M  V30 26747 H 2492.12 3.51425 -1.37042 0
M  V30 26748 H 2494.5 2.88931 -0.600217 0
M  V30 26749 H 2494.58 1.70198 -1.90961 0
M  V30 26750 H 2494.23 3.57907 -3.60368 0
M  V30 26751 H 2494.16 4.75355 -2.26595 0
M  V30 26752 H 2496.65 3.21808 -1.98111 0
M  V30 26753 H 2496.96 6.23156 -4.57053 0
M  V30 26754 H 2495.31 5.60831 -4.10479 0
M  V30 26755 H 2498.5 3.94138 -2.52532 0
M  V30 26756 H 2498.67 5.31568 -3.70593 0
M  V30 26757 N 2492.08 0.71358 1.4052 0
M  V30 26758 C 2493.32 0.251727 2.00526 0
M  V30 26759 C 2493.65 -1.15845 1.56859 0
M  V30 26760 O 2492.92 -1.78499 0.807159 0
M  V30 26761 H 2491.5 0.0900777 0.741549 0
M  V30 26762 H 2494.16 0.918763 1.71886 0
M  V30 26763 H 2493.25 0.283246 3.10812 0
M  V30 26764 N 2493.55 -1.50749 0.459618 0
M  V30 26765 C 2494.8 -2.01857 -0.0991177 0
M  V30 26766 C 2495.12 -1.34443 -1.41245 0
M  V30 26767 O 2494.39 -0.486055 -1.89774 0
M  V30 26768 H 2492.97 -0.745949 -0.0396199 0
M  V30 26769 H 2495.64 -1.85193 0.60742 0
M  V30 26770 H 2494.73 -3.11024 -0.258943 0
M  V30 26771 N 2495.03 -0.191784 -1.56429 0
M  V30 26772 C 2495.98 0.743146 -2.15549 0
M  V30 26773 C 2496.97 1.17861 -1.09533 0
M  V30 26774 O 2498.16 1.13757 -1.35604 0
M  V30 26775 C 2495.29 1.96386 -2.8158 0
M  V30 26776 C 2494.37 1.54944 -3.94782 0
M  V30 26777 N 2494.76 0.845789 -4.98678 0
M  V30 26778 C 2493.06 1.83898 -4.06322 0
M  V30 26779 C 2493.76 0.638622 -5.78184 0
M  V30 26780 N 2492.74 1.18633 -5.30497 0
M  V30 26781 H 2496.54 0.196787 -2.9324 0
M  V30 26782 H 2494.06 0.00813176 -1.62398 0
M  V30 26783 H 2496.05 2.64409 -3.22325 0
M  V30 26784 H 2494.71 2.51497 -2.05376 0
M  V30 26785 H 2495.72 0.501613 -5.15465 0
M  V30 26786 H 2492.4 2.40542 -3.41242 0
M  V30 26787 H 2493.79 0.0806748 -6.71852 0
M  V30 26788 N 2496.51 1.57387 0.0818378 0
M  V30 26789 C 2497.76 1.85939 0.781648 0
M  V30 26790 C 2498.07 0.782989 1.79245 0
M  V30 26791 O 2499.28 0.956032 2.54111 0
M  V30 26792 C 2497.73 3.29791 1.44103 0
M  V30 26793 C 2497.34 4.45535 0.469318 0
M  V30 26794 C 2499.09 3.67553 2.12379 0
M  V30 26795 C 2496.99 5.80425 1.13404 0
M  V30 26796 H 2495.92 0.693611 0.29567 0
M  V30 26797 H 2498.57 1.83467 0.0347729 0
M  V30 26798 H 2496.96 3.26844 2.23582 0
M  V30 26799 H 2498.13 4.59855 -0.294936 0
M  V30 26800 H 2496.45 4.16259 -0.108456 0
M  V30 26801 H 2499.04 4.65622 2.6287 0
M  V30 26802 H 2499.39 2.96845 2.91871 0
M  V30 26803 H 2499.92 3.72447 1.39744 0
M  V30 26804 H 2496.66 6.544 0.379656 0
M  V30 26805 H 2496.18 5.69924 1.8694 0
M  V30 26806 H 2497.86 6.25428 1.65675 0
M  V30 26807 N 2497.99 -0.35299 1.53596 0
M  V30 26808 C 2498.92 -1.4388 1.83904 0
M  V30 26809 C 2499.9 -1.55323 0.693448 0
M  V30 26810 O 2501.08 -1.69686 0.944482 0
M  V30 26811 C 2498.21 -2.81057 2.04021 0
M  V30 26812 C 2497.17 -2.84428 3.19819 0
M  V30 26813 C 2496.49 -4.244 3.25252 0
M  V30 26814 C 2497.79 -2.50814 4.58137 0
M  V30 26815 H 2499.49 -1.18765 2.74837 0
M  V30 26816 H 2497.03 -0.569894 1.32243 0
M  V30 26817 H 2498.99 -3.57055 2.23807 0
M  V30 26818 H 2497.71 -3.07586 1.0981 0
M  V30 26819 H 2496.37 -2.10882 2.99874 0
M  V30 26820 H 2496.02 -4.48025 2.28654 0
M  V30 26821 H 2495.72 -4.27569 4.03061 0
M  V30 26822 H 2497.24 -5.02254 3.47237 0
M  V30 26823 H 2498.66 -3.16526 4.78001 0
M  V30 26824 H 2497.05 -2.65281 5.38281 0
M  V30 26825 H 2498.12 -1.46026 4.6239 0
M  V30 26826 N 2499.47 -1.45169 -0.613489 0
M  V30 26827 C 2500.88 -1.43415 -1.19537 0
M  V30 26828 C 2501.23 -0.158666 -1.95557 0
M  V30 26829 O 2500.35 0.740083 -2.03351 0
M  V30 26830 C 2500.95 -2.59817 -2.17441 0
M  V30 26831 C 2499.51 -2.61202 -2.71017 0
M  V30 26832 C 2498.66 -2.35555 -1.46319 0
M  V30 26833 H 2501.61 -1.53494 -0.403136 0
M  V30 26834 H 2501.63 -2.33579 -3.00368 0
M  V30 26835 H 2501.14 -3.52634 -1.62083 0
M  V30 26836 H 2499.24 -1.72375 -3.30329 0
M  V30 26837 H 2499.35 -3.60241 -3.15853 0
M  V30 26838 H 2497.72 -1.84995 -1.75069 0
M  V30 26839 H 2498.5 -3.30509 -0.928382 0
M  V30 26840 N 2500.95 0.855472 -1.32361 0
M  V30 26841 C 2502.19 1.62346 -1.2419 0
M  V30 26842 C 2502.55 1.91022 0.193563 0
M  V30 26843 O 2503.75 2.65822 0.398993 0
M  V30 26844 C 2502.02 2.90877 -2.07666 0
M  V30 26845 S 2503.58 3.81665 -2.16512 0
M  V30 26846 H 2500.4 0.556849 -0.442086 0
M  V30 26847 H 2503 1.01314 -1.67199 0
M  V30 26848 H 2501.7 2.67756 -3.11022 0
M  V30 26849 H 2501.24 3.56926 -1.65431 0
M  V30 26850 H 2503.25 4.78485 -1.31402 0
M  V30 26851 N 2502.42 1.15558 1.07164 0
M  V30 26852 C 2503.36 0.811853 2.1434 0
M  V30 26853 C 2504.37 -0.176986 1.61835 0
M  V30 26854 O 2505.56 0.0465309 1.78439 0
M  V30 26855 C 2502.66 0.18654 3.38386 0
M  V30 26856 C 2501.83 1.21328 4.20236 0
M  V30 26857 C 2500.89 0.609394 5.22659 0
M  V30 26858 O 2499.92 1.27586 5.54717 0
M  V30 26859 N 2501.12 -0.607997 5.77307 0
M  V30 26860 H 2503.88 1.73421 2.44428 0
M  V30 26861 H 2501.44 1.05172 1.23087 0
M  V30 26862 H 2503.44 -0.230268 4.04044 0
M  V30 26863 H 2502.01 -0.639195 3.05995 0
M  V30 26864 H 2501.23 1.80658 3.50366 0
M  V30 26865 H 2502.51 1.90646 4.71732 0
M  V30 26866 H 2501.91 -1.1678 5.53515 0
M  V30 26867 H 2500.47 -0.967137 6.44585 0
M  V30 26868 N 2503.9 -1.25546 0.952678 0
M  V30 26869 C 2504.81 -2.29682 0.47786 0
M  V30 26870 C 2505.83 -1.67977 -0.453829 0
M  V30 26871 O 2507 -1.98669 -0.330552 0
M  V30 26872 C 2504.07 -3.45878 -0.238594 0
M  V30 26873 C 2503.13 -4.23029 0.731068 0
M  V30 26874 C 2502.36 -5.33678 0.0487103 0
M  V30 26875 O 2502.59 -5.58355 -1.16602 0
M  V30 26876 O 2501.52 -5.97417 0.733257 0
M  V30 26877 H 2505.35 -2.72383 1.34317 0
M  V30 26878 H 2502.93 -1.30958 0.719049 0
M  V30 26879 H 2504.81 -4.16485 -0.6417 0
M  V30 26880 H 2503.49 -3.05183 -1.07911 0
M  V30 26881 H 2502.39 -3.54858 1.18434 0
M  V30 26882 H 2503.73 -4.67503 1.53954 0
M  V30 26883 N 2505.38 -0.721022 -1.40139 0
M  V30 26884 C 2506.79 -0.334585 -1.83677 0
M  V30 26885 C 2507.14 1.1317 -1.60272 0
M  V30 26886 O 2506.27 1.8715 -1.08646 0
M  V30 26887 C 2506.86 -0.600496 -3.33436 0
M  V30 26888 C 2505.42 -0.267708 -3.75447 0
M  V30 26889 C 2504.57 -0.870143 -2.63294 0
M  V30 26890 H 2507.52 -0.919755 -1.2933 0
M  V30 26891 H 2507.54 0.132451 -3.80269 0
M  V30 26892 H 2507.05 -1.66775 -3.5044 0
M  V30 26893 H 2505.15 0.794265 -3.64036 0
M  V30 26894 H 2505.27 -0.740503 -4.73343 0
M  V30 26895 H 2503.63 -0.297783 -2.52953 0
M  V30 26896 H 2504.41 -1.94177 -2.83108 0
M  V30 26897 N 2506.86 1.50503 -0.467606 0
M  V30 26898 C 2507.82 2.26997 0.317019 0
M  V30 26899 C 2508.82 1.31637 0.92349 0
M  V30 26900 O 2510.01 1.55093 0.793212 0
M  V30 26901 C 2507.14 3.08465 1.45129 0
M  V30 26902 H 2508.34 2.97806 -0.353775 0
M  V30 26903 H 2505.89 1.54722 -0.221572 0
M  V30 26904 H 2506.62 2.42144 2.15724 0
M  V30 26905 H 2506.41 3.7854 1.02225 0
M  V30 26906 H 2507.9 3.66326 2.00487 0
M  V30 26907 N 2508.34 0.200077 1.56325 0
M  V30 26908 C 2509.27 -0.750733 2.16556 0
M  V30 26909 C 2510.28 -1.17318 1.12873 0
M  V30 26910 O 2511.47 -1.10805 1.39945 0
M  V30 26911 C 2508.57 -2.02581 2.71688 0
M  V30 26912 C 2507.74 -1.76237 4.00324 0
M  V30 26913 C 2506.8 -2.8824 4.40232 0
M  V30 26914 O 2505.83 -2.57633 5.07557 0
M  V30 26915 N 2507.03 -4.1671 4.04145 0
M  V30 26916 H 2509.79 -0.235632 2.98772 0
M  V30 26917 H 2507.36 0.0182878 1.6189 0
M  V30 26918 H 2509.35 -2.76659 2.95367 0
M  V30 26919 H 2507.92 -2.45199 1.93898 0
M  V30 26920 H 2507.14 -0.859122 3.84724 0
M  V30 26921 H 2508.43 -1.56039 4.84282 0
M  V30 26922 H 2507.82 -4.44427 3.50001 0
M  V30 26923 H 2506.38 -4.87399 4.32764 0
M  V30 26924 N 2509.81 -1.57429 -0.0734901 0
M  V30 26925 C 2510.76 -2.04609 -1.10625 0
M  V30 26926 C 2511.76 -0.951113 -1.40179 0
M  V30 26927 O 2512.96 -1.13623 -1.39606 0
M  V30 26928 H 2509.34 -0.652358 -0.374076 0
M  V30 26929 H 2511.31 -2.90498 -0.682167 0
M  V30 26930 C 2510.06 -2.50428 -2.41208 0
M  V30 26931 H 2509.38 -3.34276 -2.19317 0
M  V30 26932 H 2510.82 -2.87195 -3.11922 0
M  V30 26933 C 2509.28 -1.3865 -3.07047 0
M  V30 26934 O 2509.81 -0.727652 -3.95055 0
M  V30 26935 N 2508.01 -1.13205 -2.67643 0
M  V30 26936 H 2507.56 -1.66963 -1.96166 0
M  V30 26937 H 2507.52 -0.386202 -3.12019 0
M  V30 26938 N 2511.29 0.344839 -1.53781 0
M  V30 26939 C 2512.52 1.10531 -1.74901 0
M  V30 26940 C 2512.93 1.82396 -0.487566 0
M  V30 26941 O 2512.29 1.74306 0.54071 0
M  V30 26942 C 2512.34 2.11979 -2.92826 0
M  V30 26943 O 2512.06 1.43037 -4.14092 0
M  V30 26944 C 2513.56 3.00412 -3.25987 0
M  V30 26945 H 2510.78 0.329668 -0.584431 0
M  V30 26946 H 2513.33 0.397439 -2.00601 0
M  V30 26947 H 2511.48 2.78333 -2.69462 0
M  V30 26948 H 2511.9 2.10797 -4.80276 0
M  V30 26949 H 2513.37 3.67532 -4.11854 0
M  V30 26950 H 2513.85 3.66359 -2.42235 0
M  V30 26951 H 2514.45 2.39648 -3.51353 0
M  V30 26952 N 2512.77 1.45492 0.605781 0
M  V30 26953 C 2514.02 1.49603 1.36474 0
M  V30 26954 C 2514.34 0.138486 1.94006 0
M  V30 26955 O 2513.6 -0.863083 1.7564 0
M  V30 26956 C 2513.9 2.52432 2.53007 0
M  V30 26957 C 2513.56 3.97091 2.1361 0
M  V30 26958 C 2512.23 4.3648 2.0258 0
M  V30 26959 C 2514.58 4.88058 1.82891 0
M  V30 26960 C 2511.91 5.64729 1.59054 0
M  V30 26961 C 2514.26 6.1672 1.4085 0
M  V30 26962 C 2512.92 6.55038 1.2838 0
M  V30 26963 H 2512.19 0.547437 0.499393 0
M  V30 26964 H 2514.84 1.78848 0.684515 0
M  V30 26965 H 2513.14 2.16764 3.26375 0
M  V30 26966 H 2514.84 2.5285 3.11236 0
M  V30 26967 H 2511.43 3.65943 2.23122 0
M  V30 26968 H 2515.62 4.58362 1.90309 0
M  V30 26969 H 2510.87 5.93211 1.48023 0
M  V30 26970 H 2515.05 6.8665 1.16126 0
M  V30 26971 H 2512.67 7.54313 0.94427 0
M  V30 26972 N 2514.25 -0.848441 1.32813 0
M  V30 26973 C 2515.48 -1.63299 1.26559 0
M  V30 26974 C 2515.89 -1.88457 -0.167567 0
M  V30 26975 O 2515.23 -1.4583 -1.1171 0
M  V30 26976 C 2515.29 -3.01236 1.96207 0
M  V30 26977 C 2514.96 -2.99092 3.45533 0
M  V30 26978 C 2515.95 -2.75493 4.40908 0
M  V30 26979 C 2513.64 -3.19531 3.87564 0
M  V30 26980 C 2515.63 -2.72346 5.76287 0
M  V30 26981 C 2513.32 -3.1601 5.2305 0
M  V30 26982 C 2514.32 -2.92447 6.17222 0
M  V30 26983 O 2514 -2.88812 7.50229 0
M  V30 26984 H 2513.74 -0.515148 0.437719 0
M  V30 26985 H 2516.29 -1.06567 1.75592 0
M  V30 26986 H 2514.52 -3.59782 1.41752 0
M  V30 26987 H 2516.21 -3.62013 1.8358 0
M  V30 26988 H 2516.98 -2.59463 4.09761 0
M  V30 26989 H 2512.85 -3.36894 3.1468 0
M  V30 26990 H 2516.4 -2.53874 6.49764 0
M  V30 26991 H 2512.3 -3.31586 5.53824 0
M  V30 26992 H 2513.06 -3.04722 7.59662 0
M  V30 26993 N 2515.73 -1.16125 -1.06549 0
M  V30 26994 C 2516.95 -0.965767 -1.83542 0
M  V30 26995 C 2517.38 0.48107 -1.81844 0
M  V30 26996 O 2516.73 1.34352 -1.21735 0
M  V30 26997 C 2516.78 -1.49462 -3.28167 0
M  V30 26998 O 2515.89 -0.699228 -4.06429 0
M  V30 26999 H 2515.23 -0.343874 -0.56802 0
M  V30 27000 H 2517.76 -1.54301 -1.34359 0
M  V30 27001 H 2517.77 -1.51098 -3.7899 0
M  V30 27002 H 2516.44 -2.5479 -3.28717 0
M  V30 27003 H 2515.02 -0.753164 -3.65215 0
M  V30 27004 N 2517.2 1.25039 -0.959323 0
M  V30 27005 C 2518.62 1.45109 -0.664499 0
M  V30 27006 C 2518.82 1.8594 0.776448 0
M  V30 27007 O 2517.88 1.9923 1.55125 0
M  V30 27008 C 2519.19 2.51947 -1.64144 0
M  V30 27009 C 2520.74 2.65783 -1.65314 0
M  V30 27010 C 2521.21 3.7581 -2.61784 0
M  V30 27011 N 2522.7 3.83227 -2.60176 0
M  V30 27012 C 2523.44 4.67864 -3.31498 0
M  V30 27013 N 2522.93 5.56753 -4.12308 0
M  V30 27014 N 2524.73 4.61871 -3.20362 0
M  V30 27015 H 2516.88 0.968299 -1.89044 0
M  V30 27016 H 2519.14 0.486885 -0.813417 0
M  V30 27017 H 2518.85 2.28814 -2.6709 0
M  V30 27018 H 2518.72 3.49951 -1.40762 0
M  V30 27019 H 2521.11 2.88279 -0.630829 0
M  V30 27020 H 2521.19 1.68163 -1.92756 0
M  V30 27021 H 2520.83 3.54065 -3.64144 0
M  V30 27022 H 2520.76 4.72925 -2.31624 0
M  V30 27023 H 2523.25 3.19689 -2.01513 0
M  V30 27024 H 2523.57 6.18273 -4.63636 0
M  V30 27025 H 2521.91 5.56446 -4.16404 0
M  V30 27026 H 2525.1 3.91438 -2.56698 0
M  V30 27027 H 2525.28 5.27608 -3.7621 0
M  V30 27028 N 2518.68 0.728444 1.39755 0
M  V30 27029 C 2519.61 0.0446605 2.29156 0
M  V30 27030 C 2520.63 -0.710342 1.46485 0
M  V30 27031 O 2521.82 -0.55559 1.69633 0
M  V30 27032 C 2518.92 -0.961014 3.24989 0
M  V30 27033 C 2518.09 -0.26889 4.36573 0
M  V30 27034 C 2517.15 -1.18175 5.12758 0
M  V30 27035 O 2516.17 -0.661695 5.65341 0
M  V30 27036 N 2517.38 -2.51197 5.23336 0
M  V30 27037 H 2520.14 0.812345 2.88481 0
M  V30 27038 H 2517.7 0.577124 1.51264 0
M  V30 27039 H 2519.69 -1.57416 3.7283 0
M  V30 27040 H 2518.26 -1.62996 2.66742 0
M  V30 27041 H 2517.48 0.524643 3.90693 0
M  V30 27042 H 2518.77 0.211023 5.08362 0
M  V30 27043 H 2518.17 -2.95932 4.82121 0
M  V30 27044 H 2516.73 -3.07624 5.7464 0
M  V30 27045 N 2520.16 -1.50253 0.475581 0
M  V30 27046 C 2521.11 -2.28623 -0.316253 0
M  V30 27047 C 2522.08 -1.33874 -0.983203 0
M  V30 27048 O 2523.26 -1.62815 -0.994776 0
M  V30 27049 C 2520.4 -3.15882 -1.38969 0
M  V30 27050 C 2519.52 -4.25666 -0.737071 0
M  V30 27051 C 2518.65 -5.00176 -1.78879 0
M  V30 27052 C 2517.69 -6.01828 -1.11665 0
M  V30 27053 N 2516.83 -6.696 -2.11142 0
M  V30 27054 H 2521.67 -2.95838 0.358349 0
M  V30 27055 H 2519.2 -1.45886 0.188566 0
M  V30 27056 H 2521.16 -3.64828 -2.02376 0
M  V30 27057 H 2519.79 -2.50704 -2.0334 0
M  V30 27058 H 2518.84 -3.80399 0.00967337 0
M  V30 27059 H 2520.16 -4.98371 -0.206729 0
M  V30 27060 H 2519.31 -5.52863 -2.49855 0
M  V30 27061 H 2518.05 -4.27186 -2.35294 0
M  V30 27062 H 2517.05 -5.48397 -0.392537 0
M  V30 27063 H 2518.28 -6.76793 -0.559331 0
M  V30 27064 H 2516.22 -5.99398 -2.66566 0
M  V30 27065 H 2516.14 -7.38196 -1.63105 0
M  V30 27066 H 2517.41 -7.26902 -2.81485 0
M  V30 27067 N 2521.64 -0.208365 -1.56217 0
M  V30 27068 C 2522.59 0.720243 -2.16325 0
M  V30 27069 C 2523.57 1.16693 -1.10777 0
M  V30 27070 O 2524.76 1.12312 -1.36803 0
M  V30 27071 C 2521.89 1.93388 -2.83647 0
M  V30 27072 C 2520.98 1.50748 -3.96403 0
M  V30 27073 N 2521.37 0.79285 -4.99547 0
M  V30 27074 C 2519.67 1.79578 -4.0825 0
M  V30 27075 C 2520.37 0.577262 -5.78829 0
M  V30 27076 N 2519.35 1.13 -5.31725 0
M  V30 27077 H 2523.15 0.165674 -2.93433 0
M  V30 27078 H 2520.66 -0.00909318 -1.62397 0
M  V30 27079 H 2522.66 2.60975 -3.25111 0
M  V30 27080 H 2521.32 2.49305 -2.08032 0
M  V30 27081 H 2522.33 0.446913 -5.15968 0
M  V30 27082 H 2519.01 2.36909 -3.43774 0
M  V30 27083 H 2520.4 0.00941146 -6.71899 0
M  V30 27084 N 2523.12 1.57465 0.0651402 0
M  V30 27085 C 2524.05 1.99455 1.10873 0
M  V30 27086 C 2525.03 0.872579 1.37204 0
M  V30 27087 O 2526.21 1.13544 1.50466 0
M  V30 27088 C 2523.34 2.33694 2.45163 0
M  V30 27089 C 2522.38 3.55968 2.34924 0
M  V30 27090 S 2523.22 5.06546 1.737 0
M  V30 27091 C 2524.37 5.43992 3.09554 0
M  V30 27092 H 2524.61 2.8766 0.750916 0
M  V30 27093 H 2522.14 1.51951 0.273906 0
M  V30 27094 H 2524.1 2.54094 3.22407 0
M  V30 27095 H 2522.76 1.46006 2.78103 0
M  V30 27096 H 2521.95 3.77463 3.33973 0
M  V30 27097 H 2521.55 3.35232 1.65817 0
M  V30 27098 H 2523.85 5.4247 4.05873 0
M  V30 27099 H 2524.79 6.44713 2.92831 0
M  V30 27100 H 2525.2 4.71457 3.10466 0
M  V30 27101 N 2524.59 -0.336679 1.53962 0
M  V30 27102 C 2525.54 -1.41378 1.82431 0
M  V30 27103 C 2526.51 -1.51967 0.670471 0
M  V30 27104 O 2527.7 -1.67396 0.915595 0
M  V30 27105 C 2524.84 -2.77931 2.04569 0
M  V30 27106 C 2523.95 -2.76078 3.32272 0
M  V30 27107 C 2523.08 -4.04393 3.44441 0
M  V30 27108 C 2522.12 -3.96796 4.66068 0
M  V30 27109 N 2521.26 -5.16815 4.75234 0
M  V30 27110 H 2526.1 -1.164 2.74326 0
M  V30 27111 H 2523.64 -0.563728 1.35869 0
M  V30 27112 H 2525.6 -3.57297 2.15394 0
M  V30 27113 H 2524.23 -3.01245 1.15979 0
M  V30 27114 H 2523.28 -1.88778 3.30253 0
M  V30 27115 H 2524.59 -2.66344 4.21737 0
M  V30 27116 H 2523.74 -4.92186 3.54737 0
M  V30 27117 H 2522.48 -4.16917 2.53044 0
M  V30 27118 H 2521.49 -3.07388 4.55843 0
M  V30 27119 H 2522.71 -3.85849 5.58836 0
M  V30 27120 H 2520.66 -5.2987 3.86748 0
M  V30 27121 H 2520.58 -5.09364 5.58645 0
M  V30 27122 H 2521.84 -6.06359 4.89846 0
M  V30 27123 N 2526.07 -1.45812 -0.598057 0
M  V30 27124 C 2527 -1.5806 -1.7187 0
M  V30 27125 C 2527.98 -0.431644 -1.64532 0
M  V30 27126 O 2529.17 -0.655982 -1.82785 0
M  V30 27127 C 2526.3 -1.55602 -3.10492 0
M  V30 27128 C 2525.25 -2.69311 -3.32649 0
M  V30 27129 C 2524.58 -2.5191 -4.71641 0
M  V30 27130 C 2525.88 -4.11254 -3.21974 0
M  V30 27131 H 2527.57 -2.51866 -1.61876 0
M  V30 27132 H 2525.12 -1.21216 -0.777351 0
M  V30 27133 H 2527.07 -1.62767 -3.88697 0
M  V30 27134 H 2525.8 -0.583311 -3.21349 0
M  V30 27135 H 2524.45 -2.61591 -2.56838 0
M  V30 27136 H 2524.1 -1.52757 -4.79244 0
M  V30 27137 H 2523.8 -3.28169 -4.87421 0
M  V30 27138 H 2525.33 -2.60943 -5.52034 0
M  V30 27139 H 2526.74 -4.20168 -3.90041 0
M  V30 27140 H 2525.14 -4.87979 -3.49281 0
M  V30 27141 H 2526.21 -4.3249 -2.19272 0
M  V30 27142 N 2527.55 0.841385 -1.33261 0
M  V30 27143 C 2528.8 1.59141 -1.23924 0
M  V30 27144 C 2529.11 1.94635 0.194066 0
M  V30 27145 O 2530.32 2.68395 0.409426 0
M  V30 27146 C 2528.77 2.87028 -2.17124 0
M  V30 27147 C 2528.38 2.58907 -3.6561 0
M  V30 27148 C 2530.13 3.6505 -2.16654 0
M  V30 27149 C 2528.03 3.82876 -4.50733 0
M  V30 27150 H 2526.96 0.597213 -0.460275 0
M  V30 27151 H 2529.61 0.927931 -1.58309 0
M  V30 27152 H 2528 3.54903 -1.75669 0
M  V30 27153 H 2529.17 1.99259 -4.15491 0
M  V30 27154 H 2527.49 1.94194 -3.68345 0
M  V30 27155 H 2530.08 4.57064 -2.77482 0
M  V30 27156 H 2530.43 3.99784 -1.16095 0
M  V30 27157 H 2530.96 3.04095 -2.56459 0
M  V30 27158 H 2527.7 3.53274 -5.52158 0
M  V30 27159 H 2527.22 4.41872 -4.05597 0
M  V30 27160 H 2528.9 4.50481 -4.64409 0
M  V30 27161 N 2529.03 1.16688 1.05932 0
M  V30 27162 C 2530.28 0.952062 1.79063 0
M  V30 27163 C 2530.61 -0.518597 1.87148 0
M  V30 27164 O 2529.88 -1.38481 1.36577 0
M  V30 27165 C 2530.17 1.58469 3.23357 0
M  V30 27166 C 2530.02 3.12694 3.2333 0
M  V30 27167 C 2531.34 1.2824 4.21002 0
M  V30 27168 H 2528.46 0.347292 0.650044 0
M  V30 27169 H 2531.1 1.44074 1.23866 0
M  V30 27170 H 2529.25 1.16915 3.7049 0
M  V30 27171 H 2530.92 3.63255 2.84329 0
M  V30 27172 H 2529.16 3.45834 2.6188 0
M  V30 27173 H 2529.84 3.52082 4.25138 0
M  V30 27174 H 2532.31 1.6421 3.82327 0
M  V30 27175 H 2531.19 1.75101 5.20222 0
M  V30 27176 H 2531.45 0.201869 4.41639 0
M  V30 27177 N 2530.51 -1.24529 0.96594 0
M  V30 27178 C 2531.47 -2.23689 0.499586 0
M  V30 27179 C 2532.47 -1.5567 -0.402913 0
M  V30 27180 O 2533.66 -1.73064 -0.198619 0
M  V30 27181 C 2530.79 -3.39775 -0.276732 0
M  V30 27182 H 2531.99 -2.66461 1.37618 0
M  V30 27183 H 2529.54 -1.37111 0.750348 0
M  V30 27184 H 2530.27 -3.0244 -1.1705 0
M  V30 27185 H 2530.06 -3.90342 0.370895 0
M  V30 27186 H 2531.55 -4.13381 -0.592103 0
M  V30 27187 N 2531.99 -0.735845 -1.39367 0
M  V30 27188 C 2532.95 -0.104914 -2.2896 0
M  V30 27189 C 2533.95 0.666248 -1.46348 0
M  V30 27190 O 2535.14 0.49514 -1.67015 0
M  V30 27191 C 2532.27 0.860598 -3.29858 0
M  V30 27192 H 2533.46 -0.894255 -2.86257 0
M  V30 27193 H 2531.02 -0.50173 -1.48028 0
M  V30 27194 H 2531.75 1.67626 -2.77618 0
M  V30 27195 H 2531.54 0.310258 -3.90871 0
M  V30 27196 H 2533.03 1.2986 -3.96896 0
M  V30 27197 N 2533.46 1.49999 -0.483543 0
M  V30 27198 C 2534.74 1.95172 0.129302 0
M  V30 27199 C 2535.12 1.42442 1.55799 0
M  V30 27200 O 2534.47 0.630688 2.19624 0
M  V30 27201 C 2534.68 3.48949 0.0598638 0
M  V30 27202 C 2536.03 4.23907 0.242543 0
M  V30 27203 O 2537.05 3.55941 0.135871 0
M  V30 27204 O 2535.91 5.44566 0.459358 0
M  V30 27205 H 2533 0.820323 0.104873 0
M  V30 27206 H 2535.55 1.60716 -0.544835 0
M  V30 27207 H 2534.32 3.79912 -0.937146 0
M  V30 27208 H 2533.94 3.89975 0.774916 0
M  V30 27209 N 2534.94 0.216646 1.56104 0
M  V30 27210 C 2536.22 -0.465131 1.89989 0
M  V30 27211 C 2536.6 -1.781 1.13329 0
M  V30 27212 O 2535.95 -2.27225 0.241072 0
M  V30 27213 C 2536.16 -0.662878 3.42647 0
M  V30 27214 C 2537.5 -0.972529 4.13312 0
M  V30 27215 O 2538.53 -0.74984 3.48218 0
M  V30 27216 O 2537.39 -1.39489 5.28398 0
M  V30 27217 H 2534.48 -0.245262 0.789795 0
M  V30 27218 H 2537.03 0.258466 1.6772 0
M  V30 27219 H 2535.8 0.265499 3.90398 0
M  V30 27220 H 2535.42 -1.43814 3.70679 0
M  V30 27221 N 2536.42 -1.57498 -0.0567885 0
M  V30 27222 C 2537.37 -2.05771 -1.08449 0
M  V30 27223 C 2538.36 -0.965927 -1.39163 0
M  V30 27224 O 2539.57 -1.15097 -1.38393 0
M  V30 27225 H 2535.94 -0.656289 -0.367136 0
M  V30 27226 H 2537.91 -2.91205 -0.651317 0
M  V30 27227 C 2536.66 -2.52972 -2.38538 0
M  V30 27228 H 2535.99 -3.36583 -2.15759 0
M  V30 27229 H 2537.43 -2.90487 -3.08858 0
M  V30 27230 C 2535.88 -1.41898 -3.05559 0
M  V30 27231 O 2536.41 -0.769512 -3.94261 0
M  V30 27232 N 2534.62 -1.16037 -2.66428 0
M  V30 27233 H 2534.17 -1.69034 -1.94384 0
M  V30 27234 H 2534.13 -0.419274 -3.11592 0
M  V30 27235 N 2537.9 0.328509 -1.54138 0
M  V30 27236 C 2538.83 1.42507 -1.79512 0
M  V30 27237 C 2539.84 1.4806 -0.676906 0
M  V30 27238 O 2541.03 1.50873 -0.953925 0
M  V30 27239 C 2538.13 2.81075 -1.89342 0
M  V30 27240 C 2537.3 2.98783 -3.19448 0
M  V30 27241 C 2536.36 4.17682 -3.20043 0
M  V30 27242 O 2535.39 4.11079 -3.93704 0
M  V30 27243 N 2536.59 5.26972 -2.43476 0
M  V30 27244 H 2539.36 1.21106 -2.74141 0
M  V30 27245 H 2536.92 0.518472 -1.53374 0
M  V30 27246 H 2538.91 3.58815 -1.87173 0
M  V30 27247 H 2537.48 2.95549 -1.01831 0
M  V30 27248 H 2536.7 2.08386 -3.34618 0
M  V30 27249 H 2537.99 3.07507 -4.0536 0
M  V30 27250 H 2537.39 5.35211 -1.8321 0
M  V30 27251 H 2535.94 6.0315 -2.4709 0
M  V30 27252 N 2539.38 1.46127 0.590316 0
M  V30 27253 C 2540.31 1.5062 1.71431 0
M  V30 27254 C 2541.29 0.360976 1.58542 0
M  V30 27255 O 2542.47 0.564017 1.79864 0
M  V30 27256 C 2539.6 1.37758 3.09419 0
M  V30 27257 C 2538.64 2.56366 3.4085 0
M  V30 27258 S 2539.48 4.18761 3.33766 0
M  V30 27259 C 2540.63 4.08395 4.74304 0
M  V30 27260 H 2540.87 2.45719 1.6736 0
M  V30 27261 H 2538.4 1.3392 0.768427 0
M  V30 27262 H 2540.36 1.31025 3.89028 0
M  V30 27263 H 2539.02 0.441004 3.10989 0
M  V30 27264 H 2538.21 2.43339 4.41364 0
M  V30 27265 H 2537.81 2.6005 2.68793 0
M  V30 27266 H 2540.1 3.74605 5.64515 0
M  V30 27267 H 2541.05 5.0888 4.92388 0
M  V30 27268 H 2541.46 3.39768 4.50797 0
M  V30 27269 N 2540.85 -0.834306 1.33705 0
M  V30 27270 C 2541.82 -1.92601 1.24247 0
M  V30 27271 C 2542.82 -1.59998 0.160411 0
M  V30 27272 O 2544.01 -1.69252 0.412257 0
M  V30 27273 C 2541.14 -3.28374 0.915608 0
M  V30 27274 H 2542.33 -2.02412 2.2129 0
M  V30 27275 H 2539.88 -1.02694 1.17829 0
M  V30 27276 H 2540.62 -3.24258 -0.0521316 0
M  V30 27277 H 2540.4 -3.53419 1.69817 0
M  V30 27278 H 2541.89 -4.08345 0.874303 0
M  V30 27279 N 2542.33 -1.17248 -1.05312 0
M  V30 27280 C 2543.26 -0.845849 -2.13021 0
M  V30 27281 C 2544.28 0.151217 -1.62096 0
M  V30 27282 O 2545.47 -0.0749132 -1.78343 0
M  V30 27283 C 2542.57 -0.240351 -3.38047 0
M  V30 27284 C 2541.74 -1.27998 -4.18253 0
M  V30 27285 C 2540.8 -0.692467 -5.21624 0
M  V30 27286 O 2539.82 -1.36395 -5.52617 0
M  V30 27287 N 2541.03 0.516076 -5.78201 0
M  V30 27288 H 2543.79 -1.77288 -2.41639 0
M  V30 27289 H 2541.35 -1.07117 -1.21399 0
M  V30 27290 H 2543.34 0.165959 -4.0436 0
M  V30 27291 H 2541.91 0.590433 -3.06973 0
M  V30 27292 H 2541.13 -1.86209 -3.47448 0
M  V30 27293 H 2542.42 -1.98127 -4.6864 0
M  V30 27294 H 2541.82 1.07959 -5.55303 0
M  V30 27295 H 2540.38 0.864466 -6.46042 0
M  V30 27296 N 2543.81 1.24015 -0.972531 0
M  V30 27297 C 2545.06 1.91838 -0.63581 0
M  V30 27298 C 2545.38 1.76346 0.832281 0
M  V30 27299 O 2544.65 1.13798 1.59458 0
M  V30 27300 H 2543.23 0.710005 -0.232169 0
M  V30 27301 H 2545.89 1.50806 -1.23464 0
M  V30 27302 H 2544.99 2.99419 -0.880597 0
M  V30 27303 N 2545.29 0.743226 1.38974 0
M  V30 27304 C 2546.51 0.303972 2.0516 0
M  V30 27305 C 2546.94 -1.05573 1.55679 0
M  V30 27306 O 2546.3 -1.67067 0.704161 0
M  V30 27307 C 2546.34 0.324437 3.59138 0
M  V30 27308 O 2545.45 -0.685132 4.06669 0
M  V30 27309 H 2544.79 0.136529 0.649812 0
M  V30 27310 H 2547.32 1.01145 1.77851 0
M  V30 27311 H 2547.33 0.171689 4.07639 0
M  V30 27312 H 2546 1.31654 3.94512 0
M  V30 27313 H 2544.58 -0.497848 3.69562 0
M  V30 27314 N 2546.77 -1.4974 0.491491 0
M  V30 27315 C 2547.7 -2.31797 -0.2815 0
M  V30 27316 C 2548.68 -1.39631 -0.971448 0
M  V30 27317 O 2549.86 -1.68545 -0.964689 0
M  V30 27318 C 2546.99 -3.19905 -1.35197 0
M  V30 27319 C 2545.95 -4.20787 -0.782455 0
M  V30 27320 C 2545.27 -4.97767 -1.95274 0
M  V30 27321 C 2546.57 -5.21836 0.220082 0
M  V30 27322 H 2548.27 -2.9667 0.403407 0
M  V30 27323 H 2545.81 -1.42667 0.19545 0
M  V30 27324 H 2547.77 -3.76116 -1.90038 0
M  V30 27325 H 2546.49 -2.52956 -2.06593 0
M  V30 27326 H 2545.15 -3.65706 -0.255864 0
M  V30 27327 H 2544.8 -4.27274 -2.65416 0
M  V30 27328 H 2544.5 -5.66021 -1.57779 0
M  V30 27329 H 2546.02 -5.5682 -2.50567 0
M  V30 27330 H 2547.43 -5.72798 -0.239859 0
M  V30 27331 H 2545.83 -5.97926 0.510365 0
M  V30 27332 H 2546.9 -4.71328 1.13919 0
M  V30 27333 N 2548.24 -0.224922 -1.55987 0
M  V30 27334 C 2549.49 0.405866 -1.98391 0
M  V30 27335 C 2549.82 1.59533 -1.11264 0
M  V30 27336 O 2549.07 1.95058 -0.158348 0
M  V30 27337 C 2549.37 0.880046 -3.46396 0
M  V30 27338 C 2549.04 -0.199259 -4.5046 0
M  V30 27339 C 2547.7 -0.495745 -4.7864 0
M  V30 27340 C 2550.05 -0.929029 -5.12853 0
M  V30 27341 C 2547.38 -1.52646 -5.66495 0
M  V30 27342 C 2549.73 -1.9491 -6.01824 0
M  V30 27343 C 2548.4 -2.25247 -6.28347 0
M  V30 27344 H 2547.67 0.148517 -0.725964 0
M  V30 27345 H 2550.31 -0.328147 -1.88668 0
M  V30 27346 H 2548.62 1.69288 -3.5334 0
M  V30 27347 H 2550.32 1.37801 -3.76579 0
M  V30 27348 H 2546.91 0.0419772 -4.28579 0
M  V30 27349 H 2551.09 -0.713216 -4.91149 0
M  V30 27350 H 2546.35 -1.76708 -5.85307 0
M  V30 27351 H 2550.52 -2.51963 -6.49221 0
M  V30 27352 H 2548.15 -3.05256 -6.9622 0
M  V30 27353 N 2549.72 1.57526 0.0484352 0
M  V30 27354 C 2550.97 1.89507 0.73882 0
M  V30 27355 C 2551.32 0.82135 1.73987 0
M  V30 27356 O 2550.62 -0.172096 1.90826 0
M  V30 27357 C 2550.81 3.25938 1.46627 0
M  V30 27358 C 2550.64 4.4648 0.537175 0
M  V30 27359 C 2549.41 5.05029 0.165395 0
M  V30 27360 C 2551.61 5.13998 -0.176176 0
M  V30 27361 N 2549.59 6.0909 -0.766975 0
M  V30 27362 C 2550.96 6.12446 -0.964887 0
M  V30 27363 C 2553.02 4.97296 -0.245177 0
M  V30 27364 C 2551.72 6.95993 -1.81623 0
M  V30 27365 C 2553.74 5.81389 -1.08357 0
M  V30 27366 C 2553.11 6.79392 -1.86026 0
M  V30 27367 H 2549.21 0.742612 0.245054 0
M  V30 27368 H 2551.79 1.947 -0.000510384 0
M  V30 27369 H 2549.96 3.2171 2.17617 0
M  V30 27370 H 2551.69 3.45494 2.10751 0
M  V30 27371 H 2548.45 4.70699 0.523383 0
M  V30 27372 H 2548.87 6.65786 -1.22709 0
M  V30 27373 H 2553.51 4.21423 0.340989 0
M  V30 27374 H 2551.23 7.71224 -2.41327 0
M  V30 27375 H 2554.82 5.70517 -1.14024 0
M  V30 27376 H 2553.7 7.43332 -2.49854 0
M  V30 27377 N 2551.2 -0.32033 1.5431 0
M  V30 27378 C 2552.48 -1.07632 1.63324 0
M  V30 27379 C 2552.86 -2.05821 0.469156 0
M  V30 27380 O 2552.21 -2.22119 -0.536235 0
M  V30 27381 C 2552.42 -1.77539 3.00468 0
M  V30 27382 C 2553.76 -2.30442 3.56625 0
M  V30 27383 O 2554.79 -1.87601 3.02794 0
M  V30 27384 O 2553.65 -3.08884 4.50836 0
M  V30 27385 H 2550.74 -0.496319 0.66151 0
M  V30 27386 H 2553.29 -0.319963 1.66656 0
M  V30 27387 H 2552.06 -1.06136 3.76631 0
M  V30 27388 H 2551.68 -2.59977 3.00829 0
M  V30 27389 N 2552.68 -1.46438 -0.582558 0
M  V30 27390 C 2553.96 -1.42232 -1.34274 0
M  V30 27391 C 2554.34 -0.105867 -2.10834 0
M  V30 27392 O 2553.68 0.912559 -2.09487 0
M  V30 27393 C 2553.89 -2.65208 -2.26861 0
M  V30 27394 C 2555.24 -3.11362 -2.88685 0
M  V30 27395 O 2556.27 -2.65757 -2.37174 0
M  V30 27396 O 2555.12 -3.90574 -3.82248 0
M  V30 27397 H 2552.22 -0.565631 -0.603316 0
M  V30 27398 H 2554.76 -1.58604 -0.603563 0
M  V30 27399 H 2553.54 -3.52579 -1.69717 0
M  V30 27400 H 2553.16 -2.51295 -3.08117 0
M  V30 27401 N 2554.16 0.827204 -1.34146 0
M  V30 27402 C 2555.4 1.58004 -1.26012 0
M  V30 27403 C 2555.73 1.94249 0.170937 0
M  V30 27404 O 2555 1.61929 1.10253 0
M  V30 27405 H 2553.58 0.585873 -0.463424 0
M  V30 27406 H 2556.24 0.987922 -1.68006 0
M  V30 27407 H 2555.33 2.50478 -1.86191 0
M  V30 27408 N 2555.63 1.17805 1.04688 0
M  V30 27409 C 2556.54 0.914189 2.16055 0
M  V30 27410 C 2557.56 -0.119472 1.73589 0
M  V30 27411 O 2558.74 0.0609822 2.01308 0
M  V30 27412 C 2555.8 0.436663 3.43939 0
M  V30 27413 C 2554.86 1.53753 4.00822 0
M  V30 27414 C 2554.1 1.0827 5.22603 0
M  V30 27415 O 2554.32 -0.0611242 5.70367 0
M  V30 27416 O 2553.25 1.87785 5.71857 0
M  V30 27417 H 2557.08 1.84588 2.41166 0
M  V30 27418 H 2554.66 0.959354 1.14528 0
M  V30 27419 H 2556.55 0.178131 4.21023 0
M  V30 27420 H 2555.22 -0.466813 3.20316 0
M  V30 27421 H 2554.13 1.85 3.25155 0
M  V30 27422 H 2555.46 2.4169 4.28774 0
M  V30 27423 N 2557.11 -1.23497 0.979094 0
M  V30 27424 C 2558.34 -1.96454 0.66488 0
M  V30 27425 C 2558.76 -1.72007 -0.761256 0
M  V30 27426 O 2558.12 -0.99074 -1.51836 0
M  V30 27427 C 2558.17 -3.47599 0.95954 0
M  V30 27428 O 2557.27 -4.12369 0.0508893 0
M  V30 27429 H 2556.61 -0.615059 0.250196 0
M  V30 27430 H 2559.14 -1.56968 1.31233 0
M  V30 27431 H 2559.15 -3.98046 0.895712 0
M  V30 27432 H 2557.83 -3.64719 1.99882 0
M  V30 27433 H 2556.41 -3.72517 0.169015 0
M  V30 27434 N 2558.59 -0.750586 -1.38578 0
M  V30 27435 C 2559.84 -0.302207 -1.99423 0
M  V30 27436 C 2560.15 1.1215 -1.60255 0
M  V30 27437 O 2561.36 1.67019 -2.14049 0
M  V30 27438 C 2559.82 -0.48937 -3.56557 0
M  V30 27439 C 2559.42 -1.92196 -4.04678 0
M  V30 27440 C 2561.17 -0.103553 -4.24374 0
M  V30 27441 C 2559.07 -2.05785 -5.54443 0
M  V30 27442 H 2558 -0.109243 -0.746044 0
M  V30 27443 H 2560.66 -0.926698 -1.58381 0
M  V30 27444 H 2559.04 0.204259 -3.95473 0
M  V30 27445 H 2560.21 -2.64882 -3.7706 0
M  V30 27446 H 2558.53 -2.26242 -3.49576 0
M  V30 27447 H 2561.12 -0.183881 -5.34384 0
M  V30 27448 H 2561.47 0.943409 -4.05469 0
M  V30 27449 H 2562 -0.748923 -3.90687 0
M  V30 27450 H 2558.74 -3.08725 -5.78247 0
M  V30 27451 H 2558.26 -1.37556 -5.83814 0
M  V30 27452 H 2559.94 -1.84637 -6.20095 0
M  V30 27453 N 2560.07 1.49477 -0.499425 0
M  V30 27454 C 2561.35 1.95298 0.108595 0
M  V30 27455 C 2561.73 1.44087 1.5428 0
M  V30 27456 O 2561.07 0.653946 2.18942 0
M  V30 27457 C 2561.28 3.48993 0.0228497 0
M  V30 27458 C 2562.63 4.2414 0.197568 0
M  V30 27459 O 2563.66 3.56065 0.0981109 0
M  V30 27460 O 2562.52 5.45023 0.401573 0
M  V30 27461 H 2559.61 0.82139 0.0961665 0
M  V30 27462 H 2562.16 1.60129 -0.561851 0
M  V30 27463 H 2560.93 3.78897 -0.977388 0
M  V30 27464 H 2560.55 3.90775 0.73351 0
M  V30 27465 N 2561.55 0.233191 1.55865 0
M  V30 27466 C 2562.78 -0.39987 2.02999 0
M  V30 27467 C 2563.19 -1.52522 1.11277 0
M  V30 27468 O 2562.55 -1.82074 0.12456 0
M  V30 27469 C 2562.6 -0.920578 3.49582 0
M  V30 27470 O 2562.32 0.159911 4.37808 0
M  V30 27471 C 2563.82 -1.62571 4.12414 0
M  V30 27472 H 2561.04 -0.0966164 0.664008 0
M  V30 27473 H 2563.58 0.353048 2.01429 0
M  V30 27474 H 2561.74 -1.62372 3.5173 0
M  V30 27475 H 2562.15 -0.233278 5.23981 0
M  V30 27476 H 2563.63 -1.94192 5.16714 0
M  V30 27477 H 2564.1 -2.54293 3.58095 0
M  V30 27478 H 2564.71 -0.96748 4.1415 0
M  V30 27479 N 2563.03 -1.57549 -0.0400806 0
M  V30 27480 C 2564.26 -1.92736 -0.744081 0
M  V30 27481 C 2564.66 -0.830378 -1.70004 0
M  V30 27482 O 2564.01 0.202828 -1.82577 0
M  V30 27483 C 2564.07 -3.23643 -1.56511 0
M  V30 27484 C 2563.73 -4.50379 -0.775121 0
M  V30 27485 C 2564.73 -5.19838 -0.0802413 0
M  V30 27486 C 2562.41 -4.96924 -0.732915 0
M  V30 27487 C 2564.41 -6.34115 0.646265 0
M  V30 27488 C 2562.1 -6.111 -0.0026558 0
M  V30 27489 C 2563.09 -6.79549 0.685705 0
M  V30 27490 O 2562.78 -7.91542 1.40413 0
M  V30 27491 H 2562.51 -0.640949 -0.21485 0
M  V30 27492 H 2565.07 -2.05399 -0.00500065 0
M  V30 27493 H 2563.3 -3.07275 -2.34774 0
M  V30 27494 H 2564.99 -3.44238 -2.1507 0
M  V30 27495 H 2565.75 -4.84889 -0.10395 0
M  V30 27496 H 2561.63 -4.43498 -1.2582 0
M  V30 27497 H 2565.18 -6.87477 1.1841 0
M  V30 27498 H 2561.07 -6.45496 0.0230147 0
M  V30 27499 H 2561.84 -8.0784 1.31667 0
M  V30 27500 N 2564.5 0.312142 -1.54478 0
M  V30 27501 C 2565.41 1.40737 -1.87697 0
M  V30 27502 C 2566.43 1.56035 -0.770002 0
M  V30 27503 O 2567.61 1.70913 -1.0654 0
M  V30 27504 C 2564.67 2.75283 -2.1076 0
M  V30 27505 C 2563.73 2.69065 -3.34519 0
M  V30 27506 C 2562.96 3.97194 -3.56472 0
M  V30 27507 O 2563.19 4.96016 -2.81646 0
M  V30 27508 O 2562.12 3.99762 -4.49971 0
M  V30 27509 H 2565.95 1.15569 -2.80851 0
M  V30 27510 H 2563.53 0.507203 -1.40527 0
M  V30 27511 H 2565.41 3.54909 -2.27194 0
M  V30 27512 H 2564.09 3.00318 -1.20793 0
M  V30 27513 H 2563 1.8795 -3.23459 0
M  V30 27514 H 2564.33 2.48984 -4.24579 0
M  V30 27515 N 2565.98 1.46745 0.574784 0
M  V30 27516 C 2567.4 1.31875 0.898958 0
M  V30 27517 C 2567.6 0.296085 1.99313 0
M  V30 27518 O 2566.65 -0.298577 2.50728 0
M  V30 27519 C 2567.97 2.70722 1.30881 0
M  V30 27520 C 2569.51 2.78873 1.42122 0
M  V30 27521 C 2569.99 4.18321 1.86471 0
M  V30 27522 N 2571.48 4.20777 1.93651 0
M  V30 27523 C 2572.22 5.25574 2.29258 0
M  V30 27524 N 2571.71 6.40692 2.63601 0
M  V30 27525 N 2573.5 5.12944 2.2988 0
M  V30 27526 H 2565.66 2.11885 -0.147876 0
M  V30 27527 H 2567.92 0.947994 -0.00348679 0
M  V30 27528 H 2567.62 3.46905 0.578792 0
M  V30 27529 H 2567.5 3.01347 2.26869 0
M  V30 27530 H 2569.89 2.02974 2.14209 0
M  V30 27531 H 2569.97 2.51923 0.443661 0
M  V30 27532 H 2569.61 4.94719 1.1496 0
M  V30 27533 H 2569.54 4.42684 2.85199 0
M  V30 27534 H 2572.03 3.37721 1.69568 0
M  V30 27535 H 2572.34 7.16426 2.89746 0
M  V30 27536 H 2570.69 6.44041 2.61221 0
M  V30 27537 H 2573.88 4.22043 2.02478 0
M  V30 27538 H 2574.05 5.94727 2.57301 0
M  V30 27539 N 2567.46 -0.820078 1.34583 0
M  V30 27540 C 2568.74 -1.56241 1.17677 0
M  V30 27541 C 2569.12 -2.0962 -0.249504 0
M  V30 27542 O 2568.46 -1.91198 -1.25122 0
M  V30 27543 C 2568.67 -2.68156 2.23369 0
M  V30 27544 C 2570.02 -3.36849 2.58491 0
M  V30 27545 O 2571.05 -2.78415 2.2218 0
M  V30 27546 O 2569.91 -4.42381 3.20876 0
M  V30 27547 H 2567 -0.689694 0.456345 0
M  V30 27548 H 2569.55 -0.861205 1.46224 0
M  V30 27549 H 2568.32 -2.26487 3.19091 0
M  V30 27550 H 2567.94 -3.45924 1.96015 0
M  V30 27551 N 2568.94 -1.18359 -1.04062 0
M  V30 27552 C 2569.87 -0.93415 -2.14 0
M  V30 27553 C 2570.85 0.128156 -1.69617 0
M  V30 27554 O 2572.03 -0.0244434 -1.94185 0
M  V30 27555 C 2569.16 -0.459127 -3.44252 0
M  V30 27556 C 2568.12 -1.46192 -4.02258 0
M  V30 27557 C 2567.44 -0.844415 -5.2799 0
M  V30 27558 C 2568.74 -2.83864 -4.38427 0
M  V30 27559 H 2570.44 -1.85356 -2.35124 0
M  V30 27560 H 2567.98 -0.892624 -1.12997 0
M  V30 27561 H 2569.94 -0.271981 -4.20521 0
M  V30 27562 H 2568.66 0.495856 -3.22814 0
M  V30 27563 H 2567.32 -1.63601 -3.28071 0
M  V30 27564 H 2566.97 0.117756 -5.02862 0
M  V30 27565 H 2566.67 -1.51394 -5.67762 0
M  V30 27566 H 2568.19 -0.6678 -6.06937 0
M  V30 27567 H 2569.61 -2.70107 -5.05683 0
M  V30 27568 H 2568 -3.475 -4.89248 0
M  V30 27569 H 2569.07 -3.37412 -3.48254 0
M  V30 27570 N 2570.42 1.22976 -0.98563 0
M  V30 27571 C 2571.65 1.95275 -0.674637 0
M  V30 27572 C 2572.05 1.73113 0.763453 0
M  V30 27573 O 2571.4 1.02271 1.52599 0
M  V30 27574 C 2571.46 3.48267 -0.891658 0
M  V30 27575 C 2571.12 3.94154 -2.31282 0
M  V30 27576 C 2572.12 4.02409 -3.29186 0
M  V30 27577 C 2569.8 4.26999 -2.64531 0
M  V30 27578 C 2571.8 4.42871 -4.58415 0
M  V30 27579 C 2569.49 4.67142 -3.93982 0
M  V30 27580 C 2570.48 4.75045 -4.90736 0
M  V30 27581 O 2570.17 5.14283 -6.17874 0
M  V30 27582 H 2569.9 0.628366 -0.249262 0
M  V30 27583 H 2572.46 1.57278 -1.32109 0
M  V30 27584 H 2570.69 3.86243 -0.18803 0
M  V30 27585 H 2572.38 4.01778 -0.577028 0
M  V30 27586 H 2573.14 3.77232 -3.0483 0
M  V30 27587 H 2569.02 4.20057 -1.8993 0
M  V30 27588 H 2572.57 4.48954 -5.33934 0
M  V30 27589 H 2568.46 4.91769 -4.1813 0
M  V30 27590 H 2569.23 5.32379 -6.21704 0
M  V30 27591 N 2571.89 0.757924 1.38178 0
M  V30 27592 C 2572.82 0.148638 2.33026 0
M  V30 27593 C 2573.8 -0.698723 1.55087 0
M  V30 27594 O 2574.99 -0.63902 1.83385 0
M  V30 27595 C 2572.12 -0.741975 3.39282 0
M  V30 27596 C 2571.07 0.00299469 4.28 0
M  V30 27597 C 2570.4 -1.00615 5.25148 0
M  V30 27598 C 2571.7 1.17394 5.08936 0
M  V30 27599 H 2573.39 0.940959 2.84229 0
M  V30 27600 H 2570.94 0.453932 1.36658 0
M  V30 27601 H 2572.89 -1.17792 4.04602 0
M  V30 27602 H 2571.62 -1.56666 2.86571 0
M  V30 27603 H 2570.28 0.419568 3.64191 0
M  V30 27604 H 2569.92 -1.82502 4.68724 0
M  V30 27605 H 2569.62 -0.512325 5.85362 0
M  V30 27606 H 2571.15 -1.44133 5.93345 0
M  V30 27607 H 2572.56 0.815324 5.67473 0
M  V30 27608 H 2570.96 1.59892 5.78407 0
M  V30 27609 H 2572.03 1.98475 4.4242 0
M  V30 27610 N 2573.37 -1.4921 0.507345 0
M  V30 27611 C 2574.6 -2.07373 -0.0336885 0
M  V30 27612 C 2575.02 -1.3644 -1.29483 0
M  V30 27613 O 2574.38 -0.423118 -1.76294 0
M  V30 27614 C 2574.43 -3.59633 -0.263882 0
M  V30 27615 O 2573.53 -3.90115 -1.33731 0
M  V30 27616 H 2572.87 -0.663364 0.0290447 0
M  V30 27617 H 2575.4 -1.91931 0.708783 0
M  V30 27618 H 2575.41 -4.05005 -0.493464 0
M  V30 27619 H 2574.09 -4.1067 0.657496 0
M  V30 27620 H 2572.67 -3.56547 -1.09217 0
M  V30 27621 N 2574.85 -0.241454 -1.55739 0
M  V30 27622 C 2576.1 0.385371 -1.99105 0
M  V30 27623 C 2576.43 1.57986 -1.12933 0
M  V30 27624 O 2575.7 1.93555 -0.191483 0
M  V30 27625 C 2575.99 0.800554 -3.51089 0
M  V30 27626 C 2575.84 -0.398953 -4.48027 0
M  V30 27627 C 2577.16 1.64952 -4.08018 0
M  V30 27628 H 2574.28 0.138601 -0.72385 0
M  V30 27629 H 2576.92 -0.341675 -1.86903 0
M  V30 27630 H 2575.07 1.42003 -3.61618 0
M  V30 27631 H 2576.74 -1.03734 -4.49485 0
M  V30 27632 H 2574.99 -1.043 -4.21075 0
M  V30 27633 H 2575.66 -0.0652026 -5.51961 0
M  V30 27634 H 2578.13 1.12665 -4.00557 0
M  V30 27635 H 2577.01 1.90889 -5.14638 0
M  V30 27636 H 2577.27 2.61955 -3.56135 0
M  V30 27637 N 2576.33 1.57568 0.0317248 0
M  V30 27638 C 2577.26 2.03179 1.0607 0
M  V30 27639 C 2578.27 0.944156 1.32626 0
M  V30 27640 O 2579.46 1.2215 1.3016 0
M  V30 27641 C 2576.56 2.38983 2.40293 0
M  V30 27642 C 2575.74 3.70093 2.3313 0
M  V30 27643 C 2574.79 3.93116 3.49781 0
M  V30 27644 O 2573.82 4.64206 3.29395 0
M  V30 27645 N 2575.02 3.38549 4.71556 0
M  V30 27646 H 2577.79 2.9207 0.671954 0
M  V30 27647 H 2575.35 1.60402 0.219717 0
M  V30 27648 H 2577.34 2.51524 3.17045 0
M  V30 27649 H 2575.91 1.55776 2.71021 0
M  V30 27650 H 2575.13 3.67931 1.41494 0
M  V30 27651 H 2576.42 4.56108 2.25485 0
M  V30 27652 H 2575.82 2.80921 4.91019 0
M  V30 27653 H 2574.37 3.56474 5.45683 0
M  V30 27654 N 2577.81 -0.303946 1.54641 0
M  V30 27655 C 2579.05 -1.03952 1.73782 0
M  V30 27656 C 2579.38 -1.87364 0.522019 0
M  V30 27657 O 2578.64 -1.89308 -0.496065 0
M  V30 27658 C 2578.94 -1.97676 2.97756 0
M  V30 27659 C 2578.6 -1.30264 4.31674 0
M  V30 27660 C 2577.26 -1.11611 4.68077 0
M  V30 27661 C 2579.62 -0.82046 5.14702 0
M  V30 27662 C 2576.94 -0.434201 5.85091 0
M  V30 27663 C 2579.3 -0.152284 6.32417 0
M  V30 27664 C 2577.96 0.046224 6.67484 0
M  V30 27665 H 2577.23 -0.380387 0.635914 0
M  V30 27666 H 2579.88 -0.314685 1.88897 0
M  V30 27667 H 2578.18 -2.76678 2.77411 0
M  V30 27668 H 2579.88 -2.54656 3.0976 0
M  V30 27669 H 2576.47 -1.45788 4.03043 0
M  V30 27670 H 2580.65 -0.952289 4.87078 0
M  V30 27671 H 2575.91 -0.269387 6.10806 0
M  V30 27672 H 2580.08 0.229248 6.96023 0
M  V30 27673 H 2577.71 0.576627 7.5801 0
M  V30 27674 N 2579.28 -1.47047 -0.566994 0
M  V30 27675 C 2580.23 -1.59191 -1.69591 0
M  V30 27676 C 2581.23 -0.459638 -1.63045 0
M  V30 27677 O 2582.43 -0.637087 -1.68348 0
M  V30 27678 H 2578.81 -0.500801 -0.560984 0
M  V30 27679 H 2580.78 -2.54078 -1.56483 0
M  V30 27680 C 2579.53 -1.61417 -3.07961 0
M  V30 27681 H 2578.85 -2.47887 -3.13675 0
M  V30 27682 H 2580.29 -1.73965 -3.86668 0
M  V30 27683 C 2578.75 -0.345649 -3.35122 0
M  V30 27684 O 2579.28 0.557451 -3.97813 0
M  V30 27685 N 2577.49 -0.228691 -2.89699 0
M  V30 27686 H 2577.03 -0.964521 -2.38861 0
M  V30 27687 H 2576.99 0.619138 -3.08243 0
M  V30 27688 N 2580.76 0.812929 -1.35016 0
M  V30 27689 C 2581.69 1.93916 -1.30072 0
M  V30 27690 C 2582.67 1.69184 -0.176304 0
M  V30 27691 O 2583.86 1.90638 -0.370261 0
M  V30 27692 C 2580.99 3.30551 -1.06553 0
M  V30 27693 C 2579.94 3.69749 -2.15568 0
M  V30 27694 C 2579.27 5.04476 -1.77223 0
M  V30 27695 C 2580.57 3.80793 -3.57483 0
M  V30 27696 H 2582.26 1.9831 -2.24307 0
M  V30 27697 H 2579.81 0.952717 -1.07978 0
M  V30 27698 H 2581.76 4.08935 -1.01736 0
M  V30 27699 H 2580.49 3.26482 -0.0876293 0
M  V30 27700 H 2579.14 2.93646 -2.19471 0
M  V30 27701 H 2578.79 4.96905 -0.780676 0
M  V30 27702 H 2578.49 5.31674 -2.50194 0
M  V30 27703 H 2580.02 5.85307 -1.7392 0
M  V30 27704 H 2581.43 4.49424 -3.55937 0
M  V30 27705 H 2579.83 4.19455 -4.2916 0
M  V30 27706 H 2580.9 2.82518 -3.94096 0
M  V30 27707 N 2582.24 1.18909 1.03433 0
M  V30 27708 C 2583.19 0.918391 2.13702 0
M  V30 27709 C 2584.18 -0.123738 1.68947 0
M  V30 27710 O 2585.39 0.0250018 1.79983 0
M  V30 27711 H 2581.76 0.279554 0.698107 0
M  V30 27712 H 2583.73 1.8551 2.33727 0
M  V30 27713 C 2582.48 0.467593 3.44542 0
M  V30 27714 H 2581.81 1.26102 3.79392 0
M  V30 27715 H 2583.25 0.317238 4.22812 0
M  V30 27716 C 2581.71 -0.817531 3.2683 0
M  V30 27717 O 2582.24 -1.88025 3.54978 0
M  V30 27718 N 2580.44 -0.772628 2.80141 0
M  V30 27719 H 2579.99 0.0924336 2.57434 0
M  V30 27720 H 2579.95 -1.63289 2.68671 0
M  V30 27721 N 2583.72 -1.22452 0.992137 0
M  V30 27722 C 2584.65 -2.23678 0.500063 0
M  V30 27723 C 2585.66 -1.57696 -0.404435 0
M  V30 27724 O 2586.85 -1.77299 -0.206691 0
M  V30 27725 C 2583.95 -3.37617 -0.294651 0
M  V30 27726 C 2583.13 -4.33185 0.605799 0
M  V30 27727 C 2582.18 -5.26021 -0.137077 0
M  V30 27728 O 2581.21 -5.67196 0.477263 0
M  V30 27729 N 2582.41 -5.62874 -1.4196 0
M  V30 27730 H 2585.18 -2.66528 1.3705 0
M  V30 27731 H 2582.74 -1.36744 0.866765 0
M  V30 27732 H 2584.73 -3.96709 -0.80026 0
M  V30 27733 H 2583.3 -2.93856 -1.06618 0
M  V30 27734 H 2582.52 -3.72423 1.29209 0
M  V30 27735 H 2583.81 -4.9398 1.21905 0
M  V30 27736 H 2583.21 -5.31393 -1.94006 0
M  V30 27737 H 2581.76 -6.24387 -1.87041 0
M  V30 27738 N 2585.2 -0.765242 -1.37774 0
M  V30 27739 C 2586.42 -0.337803 -2.04124 0
M  V30 27740 C 2586.84 1.03782 -1.57717 0
M  V30 27741 O 2586.2 1.66129 -0.755476 0
M  V30 27742 C 2586.25 -0.364505 -3.59658 0
M  V30 27743 O 2585.97 -1.68586 -4.04364 0
M  V30 27744 C 2587.47 0.0753442 -4.43236 0
M  V30 27745 H 2584.69 -0.142502 -0.655694 0
M  V30 27746 H 2587.23 -1.03735 -1.76237 0
M  V30 27747 H 2585.39 0.286403 -3.8634 0
M  V30 27748 H 2585.8 -1.62001 -4.98854 0
M  V30 27749 H 2587.28 0.00550365 -5.52 0
M  V30 27750 H 2587.75 1.12484 -4.24552 0
M  V30 27751 H 2588.36 -0.547129 -4.21766 0
M  V30 27752 N 2586.67 1.48939 -0.515251 0
M  V30 27753 C 2587.9 2.0689 0.020567 0
M  V30 27754 C 2588.32 1.37376 1.29512 0
M  V30 27755 O 2587.67 0.45656 1.76697 0
M  V30 27756 C 2587.73 3.60539 0.263447 0
M  V30 27757 O 2587.45 4.27439 -0.960592 0
M  V30 27758 C 2588.95 4.35244 0.841306 0
M  V30 27759 H 2586.17 0.670462 -0.0268726 0
M  V30 27760 H 2588.71 1.9153 -0.716685 0
M  V30 27761 H 2586.87 3.75553 0.950711 0
M  V30 27762 H 2587.28 5.19364 -0.732212 0
M  V30 27763 H 2588.75 5.43575 0.960755 0
M  V30 27764 H 2589.23 3.98678 1.84263 0
M  V30 27765 H 2589.84 4.24871 0.191069 0
M  V30 27766 N 2588.15 0.249709 1.55609 0
M  V30 27767 C 2589.08 -0.642787 2.24478 0
M  V30 27768 C 2590.06 -1.17909 1.22603 0
M  V30 27769 O 2591.25 -1.21792 1.51263 0
M  V30 27770 C 2588.38 -1.83858 2.94641 0
M  V30 27771 C 2587.33 -1.43493 4.03229 0
M  V30 27772 C 2586.66 -2.71178 4.60833 0
M  V30 27773 C 2587.96 -0.60391 5.18797 0
M  V30 27774 H 2589.65 -0.0685099 2.99322 0
M  V30 27775 H 2587.2 -0.031511 1.43966 0
M  V30 27776 H 2589.15 -2.46862 3.41522 0
M  V30 27777 H 2587.88 -2.43828 2.17291 0
M  V30 27778 H 2586.54 -0.828212 3.57122 0
M  V30 27779 H 2586.18 -3.29352 3.8018 0
M  V30 27780 H 2585.88 -2.44892 5.34137 0
M  V30 27781 H 2587.41 -3.35075 5.10448 0
M  V30 27782 H 2588.82 -1.13832 5.61885 0
M  V30 27783 H 2587.22 -0.436992 5.98507 0
M  V30 27784 H 2588.29 0.383232 4.83383 0
M  V30 27785 N 2589.63 -1.57583 -0.0233682 0
M  V30 27786 C 2590.86 -1.93795 -0.724648 0
M  V30 27787 C 2591.27 -0.849942 -1.68587 0
M  V30 27788 O 2590.63 0.173172 -1.81677 0
M  V30 27789 C 2590.68 -3.29959 -1.47679 0
M  V30 27790 O 2590.4 -4.34581 -0.554145 0
M  V30 27791 C 2591.9 -3.80489 -2.27471 0
M  V30 27792 H 2589.12 -0.639459 -0.203306 0
M  V30 27793 H 2591.67 -2.04489 0.0208013 0
M  V30 27794 H 2589.82 -3.20645 -2.17407 0
M  V30 27795 H 2590.24 -5.13213 -1.08223 0
M  V30 27796 H 2591.71 -4.78259 -2.75631 0
M  V30 27797 H 2592.19 -3.11977 -3.09139 0
M  V30 27798 H 2592.79 -3.92905 -1.62806 0
M  V30 27799 N 2591.11 0.29574 -1.548 0
M  V30 27800 C 2592.33 1.05343 -1.78655 0
M  V30 27801 C 2592.76 1.79973 -0.546926 0
M  V30 27802 O 2592.12 1.7419 0.502732 0
M  V30 27803 C 2592.17 2.00555 -2.99683 0
M  V30 27804 O 2591.27 3.08948 -2.73176 0
M  V30 27805 H 2590.61 0.302356 -0.591166 0
M  V30 27806 H 2593.14 0.331562 -2.01896 0
M  V30 27807 H 2593.15 2.42926 -3.27797 0
M  V30 27808 H 2591.83 1.45643 -3.89565 0
M  V30 27809 H 2590.4 2.71055 -2.56093 0
M  V30 27810 N 2592.59 1.47346 0.559187 0
M  V30 27811 C 2593.82 1.57481 1.34191 0
M  V30 27812 C 2594.23 0.224294 1.87463 0
M  V30 27813 O 2593.59 -0.782156 1.6489 0
M  V30 27814 C 2593.64 2.59848 2.51319 0
M  V30 27815 O 2593.36 3.89656 2.00249 0
M  V30 27816 C 2594.86 2.80148 3.43558 0
M  V30 27817 H 2592.08 0.531843 0.409126 0
M  V30 27818 H 2594.62 1.92949 0.677575 0
M  V30 27819 H 2592.78 2.2732 3.13695 0
M  V30 27820 H 2593.19 4.45575 2.76701 0
M  V30 27821 H 2594.67 3.55642 4.22164 0
M  V30 27822 H 2595.14 1.87899 3.96977 0
M  V30 27823 H 2595.75 3.13865 2.86999 0
M  V30 27824 N 2594.07 -0.805758 1.35445 0
M  V30 27825 C 2595.31 -1.55799 1.281 0
M  V30 27826 C 2595.63 -1.95081 -0.142393 0
M  V30 27827 O 2596.83 -2.69386 -0.338122 0
M  V30 27828 C 2595.29 -2.8117 2.24658 0
M  V30 27829 C 2594.9 -2.49123 3.72346 0
M  V30 27830 C 2596.64 -3.59177 2.26257 0
M  V30 27831 C 2594.55 -3.70791 4.60726 0
M  V30 27832 H 2593.48 -0.5848 0.475947 0
M  V30 27833 H 2596.13 -0.885632 1.60713 0
M  V30 27834 H 2594.51 -3.50121 1.85017 0
M  V30 27835 H 2595.69 -1.88173 4.20627 0
M  V30 27836 H 2594 -1.8436 3.73364 0
M  V30 27837 H 2596.6 -4.49547 2.89503 0
M  V30 27838 H 2596.94 -3.96566 1.26654 0
M  V30 27839 H 2597.47 -2.97189 2.64431 0
M  V30 27840 H 2594.21 -3.3851 5.6133 0
M  V30 27841 H 2593.73 -4.30963 4.1717 0
M  V30 27842 H 2595.41 -4.3801 4.7619 0
M  V30 27843 N 2595.54 -1.19456 -1.02801 0
M  V30 27844 C 2596.47 -0.956795 -2.12997 0
M  V30 27845 C 2597.45 0.110159 -1.69743 0
M  V30 27846 O 2598.64 -0.0450379 -1.94148 0
M  V30 27847 C 2595.77 -0.495614 -3.43745 0
M  V30 27848 C 2594.72 -1.5045 -4.00685 0
M  V30 27849 C 2594.05 -0.900368 -5.27065 0
M  V30 27850 C 2595.35 -2.88498 -4.35392 0
M  V30 27851 H 2597.04 -1.8784 -2.33145 0
M  V30 27852 H 2594.59 -0.904559 -1.12043 0
M  V30 27853 H 2596.54 -0.316567 -4.20209 0
M  V30 27854 H 2595.27 0.461589 -3.23322 0
M  V30 27855 H 2593.93 -1.67071 -3.26317 0
M  V30 27856 H 2593.57 0.0644145 -5.02959 0
M  V30 27857 H 2593.27 -1.57407 -5.66124 0
M  V30 27858 H 2594.8 -0.732136 -6.06195 0
M  V30 27859 H 2596.21 -2.75455 -5.0279 0
M  V30 27860 H 2594.61 -3.52669 -4.85535 0
M  V30 27861 H 2595.68 -3.41087 -3.44656 0
M  V30 27862 N 2597.02 1.21924 -0.998617 0
M  V30 27863 C 2597.97 2.24061 -0.55366 0
M  V30 27864 C 2598.94 1.60781 0.41697 0
M  V30 27865 O 2600.12 1.8809 0.320449 0
M  V30 27866 C 2597.26 3.44892 0.119898 0
M  V30 27867 C 2596.38 4.22666 -0.893151 0
M  V30 27868 C 2595.51 5.30851 -0.192517 0
M  V30 27869 C 2594.55 6.00351 -1.19355 0
M  V30 27870 N 2593.69 7.00166 -0.52083 0
M  V30 27871 H 2598.53 2.61484 -1.42934 0
M  V30 27872 H 2596.06 1.28506 -0.715861 0
M  V30 27873 H 2598.02 4.13853 0.527387 0
M  V30 27874 H 2596.65 3.08215 0.959335 0
M  V30 27875 H 2595.7 3.52946 -1.41893 0
M  V30 27876 H 2597.02 4.70536 -1.6552 0
M  V30 27877 H 2596.17 6.06093 0.271408 0
M  V30 27878 H 2594.91 4.8397 0.60199 0
M  V30 27879 H 2593.91 5.23886 -1.66805 0
M  V30 27880 H 2595.14 6.49318 -1.98903 0
M  V30 27881 H 2593.09 6.55508 0.254137 0
M  V30 27882 H 2593 7.46071 -1.22123 0
M  V30 27883 H 2594.27 7.79459 -0.0798966 0
M  V30 27884 N 2598.5 0.772537 1.37367 0
M  V30 27885 C 2599.92 0.452258 1.53058 0
M  V30 27886 C 2600.12 -1.032 1.73067 0
M  V30 27887 O 2599.17 -1.81781 1.75248 0
M  V30 27888 C 2600.48 1.26802 2.72657 0
M  V30 27889 C 2602.03 1.26 2.86519 0
M  V30 27890 C 2602.51 2.05912 4.09102 0
M  V30 27891 N 2604 2.0327 4.16216 0
M  V30 27892 C 2604.73 2.61884 5.10102 0
M  V30 27893 N 2604.23 3.29289 6.09542 0
M  V30 27894 N 2606.02 2.5171 5.02592 0
M  V30 27895 H 2598.17 1.73423 1.22631 0
M  V30 27896 H 2600.44 0.73625 0.597194 0
M  V30 27897 H 2600.14 2.31987 2.64339 0
M  V30 27898 H 2600.02 0.897736 3.66361 0
M  V30 27899 H 2602.4 0.216133 2.94307 0
M  V30 27900 H 2602.48 1.66992 1.93771 0
M  V30 27901 H 2602.13 3.1032 4.02074 0
M  V30 27902 H 2602.06 1.62301 5.00965 0
M  V30 27903 H 2604.55 1.54198 3.45009 0
M  V30 27904 H 2604.86 3.71386 6.77711 0
M  V30 27905 H 2603.21 3.33388 6.09818 0
M  V30 27906 H 2606.4 1.98665 4.23851 0
M  V30 27907 H 2606.57 2.97684 5.75577 0
M  V30 27908 N 2599.98 -1.48664 0.523142 0
M  V30 27909 C 2601.23 -2.02096 -0.0134142 0
M  V30 27910 C 2601.55 -1.40313 -1.35415 0
M  V30 27911 O 2600.82 -0.566107 -1.87542 0
M  V30 27912 H 2599.4 -0.746958 -0.00794602 0
M  V30 27913 H 2602.06 -1.8245 0.68542 0
M  V30 27914 H 2601.15 -3.11842 -0.126795 0
M  V30 27915 N 2601.46 -0.257958 -1.55475 0
M  V30 27916 C 2602.69 0.366991 -2.03314 0
M  V30 27917 C 2603.09 1.51279 -1.13628 0
M  V30 27918 O 2602.44 1.83124 -0.145366 0
M  V30 27919 C 2602.5 0.926223 -3.47363 0
M  V30 27920 C 2602.16 -0.0887387 -4.56914 0
M  V30 27921 C 2603.16 -0.902213 -5.12012 0
M  V30 27922 C 2600.84 -0.218025 -5.01827 0
M  V30 27923 C 2602.84 -1.83132 -6.10525 0
M  V30 27924 C 2600.53 -1.15063 -6.0017 0
M  V30 27925 C 2601.52 -1.9558 -6.54399 0
M  V30 27926 O 2601.21 -2.87266 -7.50822 0
M  V30 27927 H 2600.94 0.0900325 -0.669978 0
M  V30 27928 H 2603.5 -0.382709 -2.01803 0
M  V30 27929 H 2601.73 1.72569 -3.46059 0
M  V30 27930 H 2603.42 1.46243 -3.7864 0
M  V30 27931 H 2604.18 -0.812975 -4.78138 0
M  V30 27932 H 2600.06 0.39864 -4.59273 0
M  V30 27933 H 2603.61 -2.4602 -6.52779 0
M  V30 27934 H 2599.5 -1.24075 -6.33463 0
M  V30 27935 H 2600.27 -2.81753 -7.68478 0
M  V30 27936 N 2602.93 1.57593 0.0150108 0
M  V30 27937 C 2604.18 1.89086 0.702082 0
M  V30 27938 C 2604.5 0.858308 1.75762 0
M  V30 27939 O 2605.7 1.06295 2.49827 0
M  V30 27940 C 2604.16 3.35606 1.29986 0
M  V30 27941 C 2603.77 4.47125 0.279929 0
M  V30 27942 C 2605.51 3.7623 1.96599 0
M  V30 27943 C 2603.42 5.84713 0.886846 0
M  V30 27944 H 2602.35 0.705527 0.265985 0
M  V30 27945 H 2605 1.83449 -0.0430731 0
M  V30 27946 H 2603.38 3.36033 2.09519 0
M  V30 27947 H 2604.55 4.5819 -0.489711 0
M  V30 27948 H 2602.87 4.15424 -0.284908 0
M  V30 27949 H 2605.47 4.76352 2.42885 0
M  V30 27950 H 2605.81 3.08957 2.79019 0
M  V30 27951 H 2606.34 3.78038 1.23822 0
M  V30 27952 H 2603.08 6.55421 0.101761 0
M  V30 27953 H 2602.6 5.7734 1.626 0
M  V30 27954 H 2604.28 6.31893 1.38999 0
M  V30 27955 N 2604.41 -0.287527 1.54955 0
M  V30 27956 C 2605.36 -1.37499 1.87608 0
M  V30 27957 C 2606.35 -1.51842 0.751028 0
M  V30 27958 O 2607.56 -1.53799 0.935196 0
M  V30 27959 H 2603.94 -0.459558 0.595239 0
M  V30 27960 H 2605.91 -1.07201 2.78479 0
M  V30 27961 C 2604.66 -2.73111 2.15188 0
M  V30 27962 H 2603.98 -2.6286 3.01238 0
M  V30 27963 H 2605.42 -3.48179 2.41966 0
M  V30 27964 C 2603.88 -3.23089 0.954743 0
M  V30 27965 O 2604.41 -4.01287 0.18202 0
M  V30 27966 N 2602.61 -2.80583 0.756418 0
M  V30 27967 H 2602.16 -2.17106 1.38646 0
M  V30 27968 H 2602.12 -3.14371 -0.0429839 0
M  V30 27969 N 2605.89 -1.47641 -0.551365 0
M  V30 27970 C 2606.84 -1.60566 -1.65793 0
M  V30 27971 C 2607.81 -0.448456 -1.59931 0
M  V30 27972 O 2608.99 -0.669253 -1.78677 0
M  V30 27973 C 2606.13 -1.63139 -3.04105 0
M  V30 27974 C 2605.25 -2.89817 -3.2036 0
M  V30 27975 C 2604.38 -2.83688 -4.49104 0
M  V30 27976 C 2603.42 -4.05164 -4.58812 0
M  V30 27977 N 2602.56 -3.97237 -5.78919 0
M  V30 27978 H 2607.4 -2.55073 -1.54084 0
M  V30 27979 H 2604.93 -1.26515 -0.750498 0
M  V30 27980 H 2606.89 -1.62613 -3.84204 0
M  V30 27981 H 2605.52 -0.721396 -3.14636 0
M  V30 27982 H 2604.57 -3.00183 -2.33654 0
M  V30 27983 H 2605.89 -3.79759 -3.23396 0
M  V30 27984 H 2605.04 -2.81444 -5.3747 0
M  V30 27985 H 2603.78 -1.91438 -4.48556 0
M  V30 27986 H 2602.78 -4.07707 -3.68857 0
M  V30 27987 H 2604.01 -4.98548 -4.61115 0
M  V30 27988 H 2601.95 -3.07795 -5.79308 0
M  V30 27989 H 2601.87 -4.80863 -5.83358 0
M  V30 27990 H 2603.14 -3.99019 -6.6963 0
M  V30 27991 N 2607.37 0.798563 -1.3587 0
M  V30 27992 C 2608.59 1.59236 -1.32886 0
M  V30 27993 C 2609.02 1.87887 0.0894257 0
M  V30 27994 O 2608.38 1.4718 1.05866 0
M  V30 27995 C 2608.42 2.89571 -2.14897 0
M  V30 27996 O 2607.53 3.82761 -1.53519 0
M  V30 27997 H 2606.87 0.483372 -0.455245 0
M  V30 27998 H 2609.4 0.990507 -1.79025 0
M  V30 27999 H 2609.41 3.38924 -2.27145 0
M  V30 28000 H 2608.08 2.68043 -3.18003 0
M  V30 28001 H 2606.66 3.41331 -1.50159 0
M  V30 28002 N 2608.85 1.19999 1.02166 0
M  V30 28003 C 2609.76 0.959811 2.14067 0
M  V30 28004 C 2610.77 -0.0826244 1.73804 0
M  V30 28005 O 2611.95 0.103669 2.01133 0
M  V30 28006 C 2609.01 0.509519 3.42936 0
M  V30 28007 C 2608.07 1.6222 3.97471 0
M  V30 28008 C 2607.31 1.1933 5.20188 0
M  V30 28009 O 2607.53 0.0598729 5.70369 0
M  V30 28010 O 2606.46 1.99873 5.67745 0
M  V30 28011 H 2610.29 1.89662 2.37196 0
M  V30 28012 H 2607.88 0.983431 1.12468 0
M  V30 28013 H 2609.76 0.267396 4.20551 0
M  V30 28014 H 2608.43 -0.398764 3.21234 0
M  V30 28015 H 2607.34 1.91856 3.21158 0
M  V30 28016 H 2608.67 2.50731 4.2355 0
M  V30 28017 N 2610.32 -1.21392 1.00507 0
M  V30 28018 C 2611.55 -1.94459 0.706643 0
M  V30 28019 C 2611.97 -1.74083 -0.73078 0
M  V30 28020 O 2611.32 -1.0475 -1.49445 0
M  V30 28021 C 2611.38 -3.46861 1.0183 0
M  V30 28022 O 2611.1 -3.66562 2.39926 0
M  V30 28023 C 2612.6 -4.37092 0.739293 0
M  V30 28024 H 2609.82 -0.618409 0.260405 0
M  V30 28025 H 2612.36 -1.54208 1.34313 0
M  V30 28026 H 2610.52 -3.85035 0.427411 0
M  V30 28027 H 2610.93 -4.60655 2.50792 0
M  V30 28028 H 2612.4 -5.42727 1.00753 0
M  V30 28029 H 2612.88 -4.37983 -0.326669 0
M  V30 28030 H 2613.49 -4.04564 1.3118 0
M  V30 28031 N 2611.8 -0.779811 -1.36955 0
M  V30 28032 C 2613.22 -0.460369 -1.52816 0
M  V30 28033 C 2613.42 1.0228 -1.73612 0
M  V30 28034 O 2612.47 1.80849 -1.7621 0
M  V30 28035 C 2613.79 -1.28246 -2.71981 0
M  V30 28036 C 2615.34 -1.27517 -2.85847 0
M  V30 28037 C 2615.81 -2.08079 -4.08004 0
M  V30 28038 N 2617.3 -2.05475 -4.15132 0
M  V30 28039 C 2618.04 -2.64586 -5.08706 0
M  V30 28040 N 2617.53 -3.32517 -6.07787 0
M  V30 28041 N 2619.33 -2.54372 -5.0125 0
M  V30 28042 H 2611.48 -1.74071 -1.2171 0
M  V30 28043 H 2613.74 -0.739407 -0.593281 0
M  V30 28044 H 2613.45 -2.33385 -2.63105 0
M  V30 28045 H 2613.32 -0.917153 -3.6588 0
M  V30 28046 H 2615.71 -0.231738 -2.94189 0
M  V30 28047 H 2615.79 -1.68018 -1.92883 0
M  V30 28048 H 2615.43 -3.12448 -4.00423 0
M  V30 28049 H 2615.36 -1.64956 -5.00097 0
M  V30 28050 H 2617.85 -1.56026 -3.44187 0
M  V30 28051 H 2618.17 -3.74974 -6.75732 0
M  V30 28052 H 2616.51 -3.36617 -6.08041 0
M  V30 28053 H 2619.7 -2.0091 -4.22792 0
M  V30 28054 H 2619.87 -3.00732 -5.7399 0
M  V30 28055 N 2613.28 1.48384 -0.531019 0
M  V30 28056 C 2614.21 2.32462 0.219944 0
M  V30 28057 C 2615.19 1.42158 0.934086 0
M  V30 28058 O 2616.38 1.71043 0.919663 0
M  V30 28059 C 2613.51 3.23377 1.26668 0
M  V30 28060 C 2612.46 4.22714 0.670616 0
M  V30 28061 C 2611.79 5.0277 1.82008 0
M  V30 28062 C 2613.09 5.21069 -0.35836 0
M  V30 28063 H 2614.78 2.95496 -0.481922 0
M  V30 28064 H 2612.33 1.42099 -0.233207 0
M  V30 28065 H 2614.28 3.81023 1.79999 0
M  V30 28066 H 2613 2.58345 1.99814 0
M  V30 28067 H 2611.66 3.66256 0.158813 0
M  V30 28068 H 2611.31 4.34161 2.53994 0
M  V30 28069 H 2611.01 5.70005 1.42717 0
M  V30 28070 H 2612.53 5.63268 2.35716 0
M  V30 28071 H 2613.95 5.73233 0.0879074 0
M  V30 28072 H 2612.35 5.96362 -0.668715 0
M  V30 28073 H 2613.42 4.68142 -1.26375 0
M  V30 28074 N 2614.76 0.2662 1.55336 0
M  V30 28075 C 2616.01 -0.352425 1.99003 0
M  V30 28076 C 2616.33 -1.57045 1.15594 0
M  V30 28077 O 2615.6 -1.94383 0.243302 0
M  V30 28078 H 2614.18 -0.133204 0.735028 0
M  V30 28079 H 2616.84 0.369468 1.91366 0
M  V30 28080 H 2615.94 -0.648399 3.0529 0
M  V30 28081 N 2616.24 -1.57599 -0.0066531 0
M  V30 28082 C 2617.46 -1.94952 -0.707704 0
M  V30 28083 C 2617.89 -0.867897 -1.66881 0
M  V30 28084 O 2617.24 0.174548 -1.80458 0
M  V30 28085 C 2617.29 -3.31397 -1.42157 0
M  V30 28086 O 2616.4 -3.2523 -2.53573 0
M  V30 28087 H 2615.74 -0.636611 -0.18874 0
M  V30 28088 H 2618.27 -2.04551 0.0445552 0
M  V30 28089 H 2618.28 -3.66809 -1.78649 0
M  V30 28090 H 2616.95 -4.09676 -0.716831 0
M  V30 28091 H 2615.53 -3.01484 -2.19457 0
M  V30 28092 N 2617.72 0.279305 -1.55105 0
M  V30 28093 C 2618.65 1.34942 -1.90559 0
M  V30 28094 C 2619.63 1.51838 -0.766765 0
M  V30 28095 O 2620.81 1.64986 -1.02437 0
M  V30 28096 C 2617.94 2.71002 -2.17198 0
M  V30 28097 C 2616.9 2.68845 -3.33026 0
M  V30 28098 C 2616.22 4.08399 -3.4513 0
M  V30 28099 C 2617.52 2.2867 -4.69582 0
M  V30 28100 H 2619.22 1.05517 -2.8019 0
M  V30 28101 H 2616.76 0.50615 -1.34811 0
M  V30 28102 H 2618.71 3.45971 -2.40587 0
M  V30 28103 H 2617.44 3.01997 -1.2436 0
M  V30 28104 H 2616.1 1.96335 -3.09594 0
M  V30 28105 H 2615.75 4.36605 -2.4977 0
M  V30 28106 H 2615.45 4.07852 -4.23002 0
M  V30 28107 H 2616.97 4.85115 -3.70805 0
M  V30 28108 H 2618.38 2.93359 -4.92558 0
M  V30 28109 H 2616.78 2.39296 -5.50325 0
M  V30 28110 H 2617.85 1.23798 -4.6883 0
M  V30 28111 N 2619.19 1.47931 0.543528 0
M  V30 28112 C 2620.14 1.57847 1.64525 0
M  V30 28113 C 2621.13 0.436435 1.54868 0
M  V30 28114 O 2622.32 0.68713 1.63118 0
M  V30 28115 C 2619.45 1.60865 3.03278 0
M  V30 28116 C 2618.53 2.80501 3.18088 0
M  V30 28117 N 2618.93 4.05062 3.02916 0
M  V30 28118 C 2617.22 2.77549 3.49117 0
M  V30 28119 C 2617.92 4.85256 3.20782 0
M  V30 28120 N 2616.9 4.17824 3.47741 0
M  V30 28121 H 2620.7 2.51913 1.51384 0
M  V30 28122 H 2618.22 1.44115 0.748645 0
M  V30 28123 H 2620.21 1.66061 3.824 0
M  V30 28124 H 2618.87 0.679052 3.1752 0
M  V30 28125 H 2619.88 4.3571 2.79959 0
M  V30 28126 H 2616.56 1.93787 3.69801 0
M  V30 28127 H 2617.95 5.94065 3.13904 0
M  V30 28128 N 2620.67 -0.791347 1.36292 0
M  V30 28129 C 2621.92 -1.55143 1.30608 0
M  V30 28130 C 2622.25 -1.93859 -0.115008 0
M  V30 28131 O 2621.53 -1.62558 -1.06795 0
M  V30 28132 C 2621.81 -2.82981 2.22697 0
M  V30 28133 C 2621.66 -2.50644 3.73494 0
M  V30 28134 C 2622.98 -3.84792 2.13595 0
M  V30 28135 H 2620.1 -0.56286 0.475771 0
M  V30 28136 H 2622.74 -0.909328 1.66827 0
M  V30 28137 H 2620.89 -3.37775 1.91939 0
M  V30 28138 H 2622.56 -2.01917 4.14762 0
M  V30 28139 H 2620.81 -1.83615 3.93024 0
M  V30 28140 H 2621.48 -3.41941 4.33336 0
M  V30 28141 H 2623.95 -3.3944 2.40665 0
M  V30 28142 H 2622.83 -4.71993 2.80203 0
M  V30 28143 H 2623.09 -4.27609 1.12264 0
M  V30 28144 N 2622.15 -1.2054 -1.01528 0
M  V30 28145 C 2623.4 -1.0279 -1.75516 0
M  V30 28146 C 2623.75 0.435256 -1.87412 0
M  V30 28147 O 2623.04 1.31886 -1.38984 0
M  V30 28148 C 2623.24 -1.64659 -3.1721 0
M  V30 28149 C 2623.07 -3.1684 -3.19128 0
M  V30 28150 C 2621.84 -3.85824 -3.26294 0
M  V30 28151 C 2624.03 -4.1405 -3.0507 0
M  V30 28152 N 2622.02 -5.25282 -3.1773 0
M  V30 28153 C 2623.39 -5.40192 -3.0429 0
M  V30 28154 C 2625.44 -4.05231 -2.89296 0
M  V30 28155 C 2624.15 -6.58534 -2.89354 0
M  V30 28156 C 2626.17 -5.23198 -2.75714 0
M  V30 28157 C 2625.53 -6.48246 -2.75601 0
M  V30 28158 H 2621.63 -0.430385 -0.652911 0
M  V30 28159 H 2624.22 -1.52731 -1.20753 0
M  V30 28160 H 2622.39 -1.17301 -3.70264 0
M  V30 28161 H 2624.12 -1.40214 -3.79634 0
M  V30 28162 H 2620.87 -3.3669 -3.33072 0
M  V30 28163 H 2621.3 -5.98294 -3.16818 0
M  V30 28164 H 2625.94 -3.09359 -2.88196 0
M  V30 28165 H 2623.66 -7.54578 -2.89203 0
M  V30 28166 H 2627.24 -5.18187 -2.64524 0
M  V30 28167 H 2626.12 -7.37992 -2.65211 0
M  V30 28168 N 2623.63 1.20858 -1.01149 0
M  V30 28169 C 2624.88 1.89718 -0.69652 0
M  V30 28170 C 2625.2 1.78905 0.775756 0
M  V30 28171 O 2624.47 1.18814 1.55757 0
M  V30 28172 H 2623.05 0.702259 -0.25464 0
M  V30 28173 H 2625.71 1.46802 -1.282 0
M  V30 28174 H 2624.8 2.96466 -0.97541 0
M  V30 28175 N 2625.11 0.787064 1.3654 0
M  V30 28176 C 2626.05 0.181942 2.30082 0
M  V30 28177 C 2627.02 -0.67287 1.51861 0
M  V30 28178 O 2628.21 -0.62204 1.80375 0
M  V30 28179 C 2625.35 -0.679137 3.38351 0
M  V30 28180 C 2624.46 0.193958 4.31564 0
M  V30 28181 C 2623.6 -0.673272 5.26916 0
M  V30 28182 C 2622.63 0.201423 6.11769 0
M  V30 28183 N 2621.77 -0.624654 6.99316 0
M  V30 28184 H 2626.61 0.985114 2.81246 0
M  V30 28185 H 2624.15 0.497367 1.38437 0
M  V30 28186 H 2626.11 -1.19334 3.99769 0
M  V30 28187 H 2624.74 -1.44776 2.88513 0
M  V30 28188 H 2623.79 0.826109 3.71321 0
M  V30 28189 H 2625.1 0.868023 4.91189 0
M  V30 28190 H 2624.25 -1.25337 5.93612 0
M  V30 28191 H 2622.99 -1.38097 4.6774 0
M  V30 28192 H 2622 0.793945 5.44037 0
M  V30 28193 H 2623.22 0.906686 6.7302 0
M  V30 28194 H 2621.17 -1.31669 6.4265 0
M  V30 28195 H 2621.09 -0.00821949 7.56 0
M  V30 28196 H 2622.35 -1.18866 7.70384 0
M  V30 28197 N 2626.58 -1.48101 0.53888 0
M  V30 28198 C 2627.83 -2.02098 0.00802152 0
M  V30 28199 C 2628.15 -1.41741 -1.33919 0
M  V30 28200 O 2627.42 -0.585967 -1.86931 0
M  V30 28201 H 2626 -0.747 -2.30875e-05 0
M  V30 28202 H 2628.66 -1.81713 0.704732 0
M  V30 28203 H 2627.76 -3.11959 -0.0937124 0
M  V30 28204 N 2628.06 -0.274434 -1.55192 0
M  V30 28205 C 2629.29 0.345907 -2.03988 0
M  V30 28206 C 2629.7 1.49518 -1.15282 0
M  V30 28207 O 2629.06 1.8168 -0.17279 0
M  V30 28208 C 2629.11 0.827569 -3.519 0
M  V30 28209 O 2628.83 -0.275932 -4.3723 0
M  V30 28210 C 2630.33 1.5158 -4.1658 0
M  V30 28211 H 2627.55 0.0789774 -0.666336 0
M  V30 28212 H 2630.1 -0.40633 -2.00423 0
M  V30 28213 H 2628.25 1.5299 -3.55911 0
M  V30 28214 H 2628.67 0.0942716 -5.24415 0
M  V30 28215 H 2630.14 1.80424 -5.21681 0
M  V30 28216 H 2630.62 2.44709 -3.64711 0
M  V30 28217 H 2631.22 0.857336 -4.16569 0
M  V30 28218 N 2629.54 1.576 -0.00170483 0
M  V30 28219 C 2630.77 1.94923 0.693725 0
M  V30 28220 C 2631.18 0.876655 1.67213 0
M  V30 28221 O 2630.54 -0.144247 1.81929 0
M  V30 28222 C 2630.59 3.32267 1.42411 0
M  V30 28223 O 2630.31 4.35408 0.484937 0
M  V30 28224 C 2631.81 3.8406 2.21389 0
M  V30 28225 H 2629.03 0.642612 0.193107 0
M  V30 28226 H 2631.58 2.0443 -0.0533311 0
M  V30 28227 H 2629.73 3.24063 2.12278 0
M  V30 28228 H 2630.15 5.1487 1.00044 0
M  V30 28229 H 2631.62 4.82583 2.67988 0
M  V30 28230 H 2632.1 3.16856 3.04136 0
M  V30 28231 H 2632.7 3.95445 1.56535 0
M  V30 28232 N 2631.02 -0.271076 1.55251 0
M  V30 28233 C 2632.43 -0.841978 1.66636 0
M  V30 28234 C 2632.78 -1.86971 0.594664 0
M  V30 28235 O 2631.9 -2.1479 -0.263494 0
M  V30 28236 C 2632.5 -1.53396 3.02085 0
M  V30 28237 C 2631.06 -2.05287 3.1549 0
M  V30 28238 C 2630.21 -0.895585 2.6244 0
M  V30 28239 H 2633.16 -0.0473838 1.58629 0
M  V30 28240 H 2633.18 -2.40102 2.9518 0
M  V30 28241 H 2632.69 -0.785719 3.80063 0
M  V30 28242 H 2630.79 -2.83067 2.42289 0
M  V30 28243 H 2630.9 -2.26686 4.22079 0
M  V30 28244 H 2629.27 -1.28949 2.19646 0
M  V30 28245 H 2630.05 -0.160818 3.42923 0
M  V30 28246 N 2632.5 -1.48217 -0.535675 0
M  V30 28247 C 2633.74 -1.56175 -1.29372 0
M  V30 28248 C 2634.08 -0.232463 -1.92804 0
M  V30 28249 O 2633.35 0.761017 -1.78994 0
M  V30 28250 C 2633.63 -2.69581 -2.38743 0
M  V30 28251 C 2633.49 -4.12197 -1.80039 0
M  V30 28252 C 2634.81 -2.78777 -3.40546 0
M  V30 28253 H 2631.92 -0.5685 -0.469017 0
M  V30 28254 H 2634.57 -1.80366 -0.597326 0
M  V30 28255 H 2632.72 -2.49085 -2.98142 0
M  V30 28256 H 2634.39 -4.44116 -1.24734 0
M  V30 28257 H 2632.63 -4.19464 -1.10601 0
M  V30 28258 H 2633.3 -4.87358 -2.59204 0
M  V30 28259 H 2635.78 -2.97327 -2.91094 0
M  V30 28260 H 2634.65 -3.59865 -4.14474 0
M  V30 28261 H 2634.92 -1.86703 -4.00742 0
M  V30 28262 N 2633.97 0.784108 -1.3671 0
M  V30 28263 C 2634.92 1.91835 -1.31537 0
M  V30 28264 C 2635.92 1.6814 -0.206235 0
M  V30 28265 O 2637.12 1.76081 -0.37355 0
M  V30 28266 H 2633.5 0.630644 -0.409624 0
M  V30 28267 H 2635.47 1.93316 -2.27313 0
M  V30 28268 C 2634.22 3.28934 -1.12685 0
M  V30 28269 H 2633.54 3.47737 -1.9728 0
M  V30 28270 H 2634.98 4.08634 -1.13113 0
M  V30 28271 C 2633.44 3.3648 0.168221 0
M  V30 28272 O 2633.97 3.84702 1.15619 0
M  V30 28273 N 2632.18 2.89806 0.214711 0
M  V30 28274 H 2631.72 2.50755 -0.589896 0
M  V30 28275 H 2631.68 2.95236 1.08088 0
M  V30 28276 N 2635.45 1.21076 1.00888 0
M  V30 28277 C 2636.42 0.968165 2.07748 0
M  V30 28278 C 2637.42 -0.0593163 1.60691 0
M  V30 28279 O 2638.61 0.177555 1.73293 0
M  V30 28280 C 2635.74 0.459168 3.37794 0
M  V30 28281 H 2636.93 1.91614 2.30703 0
M  V30 28282 H 2634.48 1.02721 1.17805 0
M  V30 28283 H 2635.22 -0.493914 3.20517 0
M  V30 28284 H 2635 1.20025 3.73278 0
M  V30 28285 H 2636.49 0.309173 4.16454 0
M  V30 28286 N 2636.93 -1.2032 1.01789 0
M  V30 28287 C 2638.18 -1.90002 0.709018 0
M  V30 28288 C 2638.51 -1.78731 -0.759541 0
M  V30 28289 O 2637.78 -1.17237 -1.55196 0
M  V30 28290 C 2638.07 -3.41346 1.14696 0
M  V30 28291 C 2637.92 -3.61544 2.67593 0
M  V30 28292 C 2639.24 -4.34183 0.719226 0
M  V30 28293 H 2636.36 -0.689974 0.259046 0
M  V30 28294 H 2639 -1.4169 1.26586 0
M  V30 28295 H 2637.15 -3.82623 0.673195 0
M  V30 28296 H 2638.82 -3.29511 3.22832 0
M  V30 28297 H 2637.07 -3.04971 3.08505 0
M  V30 28298 H 2637.74 -4.67638 2.93289 0
M  V30 28299 H 2640.21 -4.0056 1.12654 0
M  V30 28300 H 2639.09 -5.38692 1.05367 0
M  V30 28301 H 2639.35 -4.40472 -0.379034 0
M  V30 28302 N 2638.41 -0.794293 -1.3612 0
M  V30 28303 C 2639.64 -0.381025 -2.03361 0
M  V30 28304 C 2640.05 1.00413 -1.59883 0
M  V30 28305 O 2639.41 1.64489 -0.790544 0
M  V30 28306 C 2639.46 -0.440712 -3.58804 0
M  V30 28307 O 2639.18 -1.77125 -4.00697 0
M  V30 28308 C 2640.68 -0.0186896 -4.43296 0
M  V30 28309 H 2637.9 -0.156379 -0.652523 0
M  V30 28310 H 2640.45 -1.0745 -1.73997 0
M  V30 28311 H 2638.6 0.20439 -3.8686 0
M  V30 28312 H 2639.01 -1.72546 -4.95306 0
M  V30 28313 H 2640.49 -0.111585 -5.51887 0
M  V30 28314 H 2640.97 1.03453 -4.26842 0
M  V30 28315 H 2641.57 -0.636469 -4.20511 0
M  V30 28316 N 2639.89 1.47813 -0.546727 0
M  V30 28317 C 2640.82 2.32682 0.195276 0
M  V30 28318 C 2641.8 1.43141 0.918956 0
M  V30 28319 O 2642.98 1.72009 0.90147 0
M  V30 28320 C 2640.11 3.24702 1.23231 0
M  V30 28321 C 2639.07 4.23401 0.625743 0
M  V30 28322 C 2638.39 5.04672 1.76665 0
M  V30 28323 C 2639.69 5.2066 -0.413606 0
M  V30 28324 H 2641.39 2.94968 -0.513236 0
M  V30 28325 H 2638.93 1.41844 -0.248266 0
M  V30 28326 H 2640.89 3.8291 1.75948 0
M  V30 28327 H 2639.61 2.60449 1.97063 0
M  V30 28328 H 2638.27 3.66404 0.119958 0
M  V30 28329 H 2637.92 4.36831 2.49375 0
M  V30 28330 H 2637.62 5.71487 1.36663 0
M  V30 28331 H 2639.14 5.65736 2.29728 0
M  V30 28332 H 2640.55 5.73294 0.0271035 0
M  V30 28333 H 2638.95 5.9562 -0.731929 0
M  V30 28334 H 2640.02 4.66776 -1.31334 0
M  V30 28335 N 2641.36 0.28266 1.55044 0
M  V30 28336 C 2642.59 -0.335085 2.04169 0
M  V30 28337 C 2643.01 -1.48904 1.16073 0
M  V30 28338 O 2642.36 -1.81586 0.182423 0
M  V30 28339 C 2642.42 -0.808895 3.52334 0
M  V30 28340 O 2642.14 0.299115 4.37078 0
M  V30 28341 C 2643.64 -1.49368 4.17378 0
M  V30 28342 H 2640.86 -0.0754426 0.666745 0
M  V30 28343 H 2643.4 0.416953 2.00204 0
M  V30 28344 H 2641.56 -1.511 3.56718 0
M  V30 28345 H 2641.97 -0.0664593 5.24458 0
M  V30 28346 H 2643.44 -1.77655 5.2263 0
M  V30 28347 H 2643.92 -2.42772 3.66003 0
M  V30 28348 H 2644.53 -0.835232 4.17018 0
M  V30 28349 N 2642.84 -1.57597 0.0100627 0
M  V30 28350 C 2644.07 -1.95005 -0.682387 0
M  V30 28351 C 2644.48 -0.884043 -1.67276 0
M  V30 28352 O 2643.82 0.14464 -1.8313 0
M  V30 28353 C 2643.89 -3.28458 -1.46135 0
M  V30 28354 C 2643.55 -4.52617 -0.631444 0
M  V30 28355 C 2644.55 -5.1983 0.0851819 0
M  V30 28356 C 2642.23 -4.99004 -0.574451 0
M  V30 28357 C 2644.23 -6.31738 0.847677 0
M  V30 28358 C 2641.91 -6.10799 0.191762 0
M  V30 28359 C 2642.91 -6.77024 0.901551 0
M  V30 28360 O 2642.6 -7.86675 1.65524 0
M  V30 28361 H 2642.33 -0.64746 -0.19435 0
M  V30 28362 H 2644.88 -2.05311 0.0603481 0
M  V30 28363 H 2643.11 -3.14589 -2.2488 0
M  V30 28364 H 2644.8 -3.50906 -2.04009 0
M  V30 28365 H 2645.57 -4.84974 0.0503664 0
M  V30 28366 H 2641.45 -4.47276 -1.11646 0
M  V30 28367 H 2644.99 -6.83362 1.40222 0
M  V30 28368 H 2640.89 -6.45096 0.228363 0
M  V30 28369 H 2641.66 -8.03243 1.57301 0
M  V30 28370 N 2644.32 0.262839 -1.55393 0
M  V30 28371 C 2645.27 1.34497 -1.89772 0
M  V30 28372 C 2646.26 1.50628 -0.775089 0
M  V30 28373 O 2647.47 1.52292 -0.959545 0
M  V30 28374 H 2643.84 0.450031 -0.602475 0
M  V30 28375 H 2645.81 1.02757 -2.80149 0
M  V30 28376 C 2644.56 2.69653 -2.19506 0
M  V30 28377 H 2643.89 2.58035 -3.05382 0
M  V30 28378 H 2645.33 3.44285 -2.47475 0
M  V30 28379 C 2643.79 3.21529 -1.00602 0
M  V30 28380 O 2644.32 4.00947 -0.245838 0
M  V30 28381 N 2642.52 2.79344 -0.80096 0
M  V30 28382 H 2642.07 2.14873 -1.42083 0
M  V30 28383 H 2642.03 3.14399 -0.00703522 0
M  V30 28384 N 2645.8 1.48499 0.527807 0
M  V30 28385 C 2647.05 1.56318 1.28098 0
M  V30 28386 C 2647.37 0.239815 1.9352 0
M  V30 28387 O 2646.64 -0.738817 1.81434 0
M  V30 28388 H 2645.22 0.575882 0.475783 0
M  V30 28389 H 2647.88 1.84975 0.614019 0
M  V30 28390 H 2646.98 2.34535 2.05912 0
M  V30 28391 N 2647.28 -0.776847 1.37123 0
M  V30 28392 C 2648.23 -1.91135 1.32552 0
M  V30 28393 C 2649.22 -1.68028 0.215149 0
M  V30 28394 O 2650.43 -1.75881 0.382883 0
M  V30 28395 H 2646.8 -0.628463 0.412963 0
M  V30 28396 H 2648.77 -1.92108 2.28335 0
M  V30 28397 C 2647.52 -3.28331 1.14428 0
M  V30 28398 H 2646.84 -3.46686 1.99121 0
M  V30 28399 H 2648.28 -4.08028 1.15279 0
M  V30 28400 C 2646.74 -3.36564 -0.150375 0
M  V30 28401 O 2647.27 -3.85309 -1.13577 0
M  V30 28402 N 2645.48 -2.89916 -0.199339 0
M  V30 28403 H 2645.03 -2.50438 0.603186 0
M  V30 28404 H 2644.98 -2.95805 -1.06521 0
M  V30 28405 N 2648.76 -1.2161 -1.00244 0
M  V30 28406 C 2649.7 -0.97765 -2.09071 0
M  V30 28407 C 2650.67 0.0972679 -1.65815 0
M  V30 28408 O 2651.86 -0.050378 -1.90733 0
M  V30 28409 C 2649 -0.551193 -3.4067 0
M  V30 28410 C 2648.11 -1.69583 -3.97323 0
M  V30 28411 C 2647.25 -1.21829 -5.17041 0
M  V30 28412 C 2646.28 -2.33509 -5.65809 0
M  V30 28413 N 2645.42 -1.86871 -6.76775 0
M  V30 28414 H 2650.26 -1.90928 -2.28802 0
M  V30 28415 H 2647.8 -0.951471 -1.12185 0
M  V30 28416 H 2649.76 -0.28517 -4.16224 0
M  V30 28417 H 2648.39 0.343432 -3.20968 0
M  V30 28418 H 2647.44 -2.07642 -3.1873 0
M  V30 28419 H 2648.75 -2.53625 -4.29507 0
M  V30 28420 H 2647.9 -0.909081 -5.9985 0
M  V30 28421 H 2646.64 -0.347954 -4.86457 0
M  V30 28422 H 2645.65 -2.6523 -4.81594 0
M  V30 28423 H 2646.87 -3.21043 -5.98421 0
M  V30 28424 H 2644.82 -1.02185 -6.47992 0
M  V30 28425 H 2644.74 -2.64484 -7.08226 0
M  V30 28426 H 2646 -1.58991 -7.63113 0
M  V30 28427 N 2650.23 1.19778 -1.02425 0
M  V30 28428 C 2651.18 2.24874 -0.594514 0
M  V30 28429 C 2652.18 1.65297 0.370569 0
M  V30 28430 O 2653.38 1.78397 0.239653 0
M  V30 28431 H 2649.76 0.731599 -0.173974 0
M  V30 28432 H 2651.73 2.58442 -1.49165 0
M  V30 28433 C 2650.48 3.47673 0.0435901 0
M  V30 28434 H 2649.8 3.938 -0.690032 0
M  V30 28435 H 2651.24 4.22885 0.307287 0
M  V30 28436 C 2649.7 3.11276 1.28876 0
M  V30 28437 O 2650.23 3.23508 2.3813 0
M  V30 28438 N 2648.43 2.65752 1.17576 0
M  V30 28439 H 2647.98 2.55999 0.286724 0
M  V30 28440 H 2647.94 2.4177 2.00984 0
M  V30 28441 N 2651.71 0.801501 1.35697 0
M  V30 28442 C 2652.94 0.390714 2.03686 0
M  V30 28443 C 2653.36 -0.98875 1.60017 0
M  V30 28444 O 2652.72 -1.6393 0.774386 0
M  V30 28445 C 2652.77 0.476467 3.57438 0
M  V30 28446 O 2651.87 -0.512034 4.09209 0
M  V30 28447 H 2651.21 0.163967 0.643437 0
M  V30 28448 H 2653.74 1.08597 1.73401 0
M  V30 28449 H 2653.75 0.344428 4.06544 0
M  V30 28450 H 2652.43 1.48268 3.88573 0
M  V30 28451 H 2651 -0.340656 3.71341 0
M  V30 28452 N 2653.19 -1.47521 0.554558 0
M  V30 28453 C 2654.12 -2.32782 -0.182933 0
M  V30 28454 C 2655.1 -1.43626 -0.911352 0
M  V30 28455 O 2656.29 -1.72485 -0.892336 0
M  V30 28456 C 2653.42 -3.25351 -1.21507 0
M  V30 28457 C 2652.37 -4.23727 -0.603281 0
M  V30 28458 C 2651.7 -5.05602 -1.73986 0
M  V30 28459 C 2653 -5.20433 0.441212 0
M  V30 28460 H 2654.69 -2.94692 0.528872 0
M  V30 28461 H 2652.24 -1.4171 0.255784 0
M  V30 28462 H 2654.19 -3.83838 -1.73915 0
M  V30 28463 H 2652.91 -2.61491 -1.95679 0
M  V30 28464 H 2651.57 -3.66462 -0.100525 0
M  V30 28465 H 2651.22 -4.38147 -2.47055 0
M  V30 28466 H 2650.92 -5.72203 -1.3363 0
M  V30 28467 H 2652.44 -5.66946 -2.26725 0
M  V30 28468 H 2653.86 -5.733 0.00330008 0
M  V30 28469 H 2652.25 -5.95223 0.763506 0
M  V30 28470 H 2653.32 -4.66073 1.33807 0
M  V30 28471 N 2654.67 -0.290879 -1.54892 0
M  V30 28472 C 2656.08 0.203783 -1.85585 0
M  V30 28473 C 2656.43 1.5422 -1.21287 0
M  V30 28474 O 2655.55 2.1038 -0.506878 0
M  V30 28475 C 2656.15 0.376535 -3.36701 0
M  V30 28476 C 2654.71 0.815421 -3.67461 0
M  V30 28477 C 2653.86 -0.0821574 -2.77178 0
M  V30 28478 H 2656.81 -0.512202 -1.50207 0
M  V30 28479 H 2656.83 1.21269 -3.60658 0
M  V30 28480 H 2656.34 -0.597738 -3.83469 0
M  V30 28481 H 2654.44 1.80061 -3.26204 0
M  V30 28482 H 2654.55 0.641822 -4.74781 0
M  V30 28483 H 2652.92 0.436851 -2.50926 0
M  V30 28484 H 2653.7 -1.0526 -3.26765 0
M  V30 28485 N 2656.15 1.57589 -0.0184203 0
M  V30 28486 C 2657.39 1.91355 0.662528 0
M  V30 28487 C 2657.72 0.893818 1.72746 0
M  V30 28488 O 2656.98 -0.0988166 1.9545 0
M  V30 28489 C 2657.27 3.31863 1.3267 0
M  V30 28490 C 2656.94 4.49182 0.393189 0
M  V30 28491 C 2655.6 4.81007 0.136218 0
M  V30 28492 C 2657.95 5.20607 -0.248457 0
M  V30 28493 C 2655.28 5.8162 -0.770384 0
M  V30 28494 C 2657.63 6.22187 -1.14305 0
M  V30 28495 C 2656.3 6.52459 -1.40901 0
M  V30 28496 H 2655.57 0.700218 0.242436 0
M  V30 28497 H 2658.22 1.91342 -0.0778966 0
M  V30 28498 H 2656.52 3.28088 2.14162 0
M  V30 28499 H 2658.22 3.55256 1.85995 0
M  V30 28500 H 2654.81 4.24328 0.603648 0
M  V30 28501 H 2658.99 4.9626 -0.0629703 0
M  V30 28502 H 2654.25 6.03425 -0.98426 0
M  V30 28503 H 2658.42 6.76656 -1.64649 0
M  V30 28504 H 2656.05 7.30239 -2.11319 0
M  V30 28505 N 2657.62 -0.254594 1.5553 0
M  V30 28506 C 2658.57 -1.33488 1.90483 0
M  V30 28507 C 2659.57 -1.50215 0.783067 0
M  V30 28508 O 2660.77 -1.51781 0.967608 0
M  V30 28509 H 2657.15 -0.446829 0.604853 0
M  V30 28510 H 2659.12 -1.0127 2.8069 0
M  V30 28511 C 2657.87 -2.68485 2.20932 0
M  V30 28512 H 2657.19 -2.56411 3.06746 0
M  V30 28513 H 2658.63 -3.42968 2.49297 0
M  V30 28514 C 2657.09 -3.20991 1.02306 0
M  V30 28515 O 2657.62 -4.00811 0.267098 0
M  V30 28516 N 2655.82 -2.78915 0.815763 0
M  V30 28517 H 2655.37 -2.14116 1.4322 0
M  V30 28518 H 2655.33 -3.14391 0.0237085 0
M  V30 28519 N 2659.1 -1.48777 -0.519925 0
M  V30 28520 C 2660.01 -1.66747 -1.65023 0
M  V30 28521 C 2661.03 -0.549983 -1.65079 0
M  V30 28522 O 2662.2 -0.822328 -1.83847 0
M  V30 28523 C 2659.27 -1.71244 -3.01457 0
M  V30 28524 C 2658.33 -2.94693 -3.12177 0
M  V30 28525 C 2657.56 -2.98965 -4.42103 0
M  V30 28526 O 2657.79 -2.1136 -5.29795 0
M  V30 28527 O 2656.72 -3.91241 -4.57399 0
M  V30 28528 H 2660.55 -2.62464 -1.52796 0
M  V30 28529 H 2658.13 -1.32296 -0.694134 0
M  V30 28530 H 2660.01 -1.76664 -3.82581 0
M  V30 28531 H 2658.69 -0.78703 -3.13987 0
M  V30 28532 H 2657.59 -2.94801 -2.30311 0
M  V30 28533 H 2658.93 -3.86652 -3.04568 0
M  V30 28534 N 2660.58 0.769564 -1.37534 0
M  V30 28535 C 2661.86 1.51766 -1.23395 0
M  V30 28536 C 2662.24 2.10402 0.171533 0
M  V30 28537 O 2661.58 1.9571 1.1794 0
M  V30 28538 C 2661.79 2.59681 -2.33167 0
M  V30 28539 C 2663.14 3.27024 -2.70815 0
M  V30 28540 O 2664.17 2.69977 -2.3236 0
M  V30 28541 O 2663.03 4.30167 -3.37074 0
M  V30 28542 H 2660.12 0.672282 -0.481628 0
M  V30 28543 H 2662.67 0.806342 -1.49319 0
M  V30 28544 H 2661.44 2.14488 -3.27277 0
M  V30 28545 H 2661.06 3.38411 -2.08719 0
M  V30 28546 N 2662.06 1.22139 0.995977 0
M  V30 28547 C 2663.29 1.07032 1.77064 0
M  V30 28548 C 2663.7 -0.379324 1.8495 0
M  V30 28549 O 2663.06 -1.26295 1.31742 0
M  V30 28550 C 2663.11 1.67161 3.2053 0
M  V30 28551 O 2662.83 3.06455 3.13077 0
M  V30 28552 C 2664.33 1.57287 4.14458 0
M  V30 28553 H 2661.55 0.375384 0.556172 0
M  V30 28554 H 2664.1 1.61668 1.25235 0
M  V30 28555 H 2662.25 1.16596 3.69438 0
M  V30 28556 H 2662.66 3.35362 4.03277 0
M  V30 28557 H 2664.14 2.04087 5.12887 0
M  V30 28558 H 2664.62 0.528871 4.36004 0
M  V30 28559 H 2665.22 2.07143 3.71446 0
M  V30 28560 N 2663.54 -1.19233 1.03059 0
M  V30 28561 C 2664.76 -1.92916 0.747731 0
M  V30 28562 C 2665.18 -1.75594 -0.693689 0
M  V30 28563 O 2664.54 -1.07896 -1.47189 0
M  V30 28564 C 2664.59 -3.44623 1.09165 0
M  V30 28565 O 2664.31 -3.6139 2.47647 0
M  V30 28566 C 2665.81 -4.35425 0.83184 0
M  V30 28567 H 2663.03 -0.612747 0.273464 0
M  V30 28568 H 2665.57 -1.51324 1.37554 0
M  V30 28569 H 2663.73 -3.84042 0.508987 0
M  V30 28570 H 2664.14 -4.55232 2.60507 0
M  V30 28571 H 2665.62 -5.40468 1.12243 0
M  V30 28572 H 2666.09 -4.38578 -0.233692 0
M  V30 28573 H 2666.7 -4.0169 1.39732 0
M  V30 28574 N 2665.01 -0.808686 -1.3527 0
M  V30 28575 C 2665.96 -0.208646 -2.31662 0
M  V30 28576 C 2666.96 0.64275 -1.56733 0
M  V30 28577 O 2668.16 0.535679 -1.71844 0
M  V30 28578 H 2664.54 -0.0487124 -0.750421 0
M  V30 28579 H 2666.51 -1.03671 -2.79812 0
M  V30 28580 C 2665.26 0.626513 -3.42009 0
M  V30 28581 H 2664.58 -0.0192806 -3.99795 0
M  V30 28582 H 2666.02 1.01271 -4.11728 0
M  V30 28583 C 2664.48 1.79293 -2.85229 0
M  V30 28584 O 2665.01 2.8905 -2.7895 0
M  V30 28585 N 2663.22 1.60512 -2.42248 0
M  V30 28586 H 2662.76 0.712331 -2.47555 0
M  V30 28587 H 2662.72 2.38712 -2.04607 0
M  V30 28588 N 2666.49 1.47225 -0.562374 0
M  V30 28589 C 2667.43 2.27034 0.230365 0
M  V30 28590 C 2668.4 1.34372 0.915586 0
M  V30 28591 O 2669.59 1.6376 0.933544 0
M  V30 28592 C 2666.71 3.1155 1.32869 0
M  V30 28593 C 2665.76 4.19827 0.751478 0
M  V30 28594 S 2666.59 5.33959 -0.405942 0
M  V30 28595 C 2667.75 6.2204 0.694077 0
M  V30 28596 H 2667.98 2.93922 -0.446863 0
M  V30 28597 H 2665.52 1.50408 -0.348808 0
M  V30 28598 H 2667.47 3.60813 1.95766 0
M  V30 28599 H 2666.13 2.44014 1.97778 0
M  V30 28600 H 2665.33 4.78712 1.57642 0
M  V30 28601 H 2664.93 3.73472 0.19858 0
M  V30 28602 H 2667.22 6.58701 1.5849 0
M  V30 28603 H 2668.16 7.07957 0.142468 0
M  V30 28604 H 2668.57 5.55768 0.989072 0
M  V30 28605 N 2667.97 0.299089 1.54736 0
M  V30 28606 C 2669.22 -0.311514 1.9928 0
M  V30 28607 C 2669.53 -1.55152 1.1911 0
M  V30 28608 O 2670.74 -2.23659 1.53912 0
M  V30 28609 C 2669.19 -0.60557 3.54769 0
M  V30 28610 C 2668.8 0.615992 4.43745 0
M  V30 28611 C 2670.55 -1.17747 4.07843 0
M  V30 28612 C 2668.45 0.295194 5.90663 0
M  V30 28613 H 2667.38 -0.120174 0.744362 0
M  V30 28614 H 2670.03 0.407495 1.78918 0
M  V30 28615 H 2668.42 -1.38412 3.71023 0
M  V30 28616 H 2669.59 1.39225 4.39264 0
M  V30 28617 H 2667.91 1.1064 4.01432 0
M  V30 28618 H 2670.5 -1.4317 5.15176 0
M  V30 28619 H 2670.85 -2.11912 3.58328 0
M  V30 28620 H 2671.38 -0.46067 3.95124 0
M  V30 28621 H 2668.12 1.20535 6.44323 0
M  V30 28622 H 2667.64 -0.443834 5.98156 0
M  V30 28623 H 2669.32 -0.103935 6.46917 0
M  V30 28624 N 2669.45 -1.57577 0.0267774 0
M  V30 28625 C 2670.38 -2.1311 -0.95427 0
M  V30 28626 C 2671.36 -1.04665 -1.34086 0
M  V30 28627 O 2672.54 -1.32486 -1.4199 0
M  V30 28628 C 2669.67 -2.65628 -2.23739 0
M  V30 28629 C 2668.63 -3.78839 -1.99162 0
M  V30 28630 C 2667.95 -4.17775 -3.33719 0
M  V30 28631 C 2669.25 -5.05012 -1.33268 0
M  V30 28632 H 2670.95 -2.95333 -0.491796 0
M  V30 28633 H 2668.49 -1.42068 -0.235115 0
M  V30 28634 H 2670.45 -3.03111 -2.92748 0
M  V30 28635 H 2669.17 -1.80563 -2.72148 0
M  V30 28636 H 2667.83 -3.4179 -1.32571 0
M  V30 28637 H 2667.48 -3.29695 -3.79882 0
M  V30 28638 H 2667.18 -4.94063 -3.18081 0
M  V30 28639 H 2668.7 -4.57839 -4.03999 0
M  V30 28640 H 2670.12 -5.40096 -1.92273 0
M  V30 28641 H 2668.51 -5.86282 -1.28035 0
M  V30 28642 H 2669.58 -4.83938 -0.305326 0
M  V30 28643 N 2670.93 0.246342 -1.55663 0
M  V30 28644 C 2672.34 0.594881 -1.48099 0
M  V30 28645 C 2672.54 1.88309 -0.717077 0
M  V30 28646 O 2671.6 2.51292 -0.246663 0
M  V30 28647 C 2672.91 0.697094 -2.92508 0
M  V30 28648 C 2674.46 0.789383 -3.02882 0
M  V30 28649 C 2674.93 0.923153 -4.486 0
M  V30 28650 N 2676.43 0.988009 -4.5254 0
M  V30 28651 C 2677.16 1.11079 -5.62538 0
M  V30 28652 N 2676.66 1.19907 -6.82345 0
M  V30 28653 N 2678.45 1.14399 -5.50336 0
M  V30 28654 H 2670.6 -0.599314 -2.03769 0
M  V30 28655 H 2672.86 -0.206926 -0.925141 0
M  V30 28656 H 2672.57 -0.179457 -3.51242 0
M  V30 28657 H 2672.44 1.56884 -3.43026 0
M  V30 28658 H 2674.83 1.65639 -2.44229 0
M  V30 28659 H 2674.91 -0.107527 -2.55574 0
M  V30 28660 H 2674.56 0.0607034 -5.07864 0
M  V30 28661 H 2674.49 1.83511 -4.9359 0
M  V30 28662 H 2676.98 0.931102 -3.6625 0
M  V30 28663 H 2677.29 1.29184 -7.61926 0
M  V30 28664 H 2675.63 1.16864 -6.85104 0
M  V30 28665 H 2678.83 1.0715 -4.55671 0
M  V30 28666 H 2679 1.23623 -6.36099 0
M  V30 28667 N 2672.4 1.4905 0.512027 0
M  V30 28668 C 2673.65 1.57229 1.2634 0
M  V30 28669 C 2673.97 0.259189 1.93875 0
M  V30 28670 O 2675.17 0.219405 2.70612 0
M  V30 28671 C 2673.63 2.77366 2.29338 0
M  V30 28672 C 2673.24 4.15391 1.67792 0
M  V30 28673 C 2674.98 2.94869 3.05373 0
M  V30 28674 C 2672.89 5.26765 2.68836 0
M  V30 28675 H 2671.82 0.58539 0.475221 0
M  V30 28676 H 2674.47 1.75418 0.53859 0
M  V30 28677 H 2672.85 2.52649 3.04934 0
M  V30 28678 H 2674.02 4.50201 0.982636 0
M  V30 28679 H 2672.34 4.03155 1.04187 0
M  V30 28680 H 2674.94 3.75245 3.80914 0
M  V30 28681 H 2675.28 2.05006 3.62323 0
M  V30 28682 H 2675.81 3.19573 2.36892 0
M  V30 28683 H 2672.55 6.18651 2.16681 0
M  V30 28684 H 2672.07 4.96422 3.36638 0
M  V30 28685 H 2673.75 5.55636 3.31478 0
M  V30 28686 N 2673.88 -0.762259 1.3794 0
M  V30 28687 C 2675.16 -1.5111 1.24198 0
M  V30 28688 C 2675.54 -2.1049 -0.160372 0
M  V30 28689 O 2674.89 -1.96333 -1.169 0
M  V30 28690 C 2675.1 -2.5844 2.34541 0
M  V30 28691 C 2676.45 -3.25583 2.72545 0
M  V30 28692 O 2677.47 -2.68741 2.33788 0
M  V30 28693 O 2676.33 -4.28373 3.3935 0
M  V30 28694 H 2673.42 -0.669718 0.485187 0
M  V30 28695 H 2675.97 -0.798412 1.49745 0
M  V30 28696 H 2674.74 -2.1275 3.2841 0
M  V30 28697 H 2674.36 -3.37299 2.10511 0
M  V30 28698 N 2675.36 -1.22666 -0.989486 0
M  V30 28699 C 2676.29 -1.02407 -2.09845 0
M  V30 28700 C 2677.27 0.0561004 -1.70007 0
M  V30 28701 O 2678.46 -0.106782 -1.93906 0
M  V30 28702 C 2675.59 -0.604723 -3.41995 0
M  V30 28703 C 2674.54 -1.63122 -3.95696 0
M  V30 28704 C 2673.87 -1.06759 -5.23934 0
M  V30 28705 C 2675.17 -3.02204 -4.25993 0
M  V30 28706 H 2676.86 -1.95162 -2.27051 0
M  V30 28707 H 2674.41 -0.939747 -1.09109 0
M  V30 28708 H 2676.36 -0.450093 -4.18989 0
M  V30 28709 H 2675.08 0.358493 -3.24627 0
M  V30 28710 H 2673.74 -1.77368 -3.20837 0
M  V30 28711 H 2673.39 -0.0956306 -5.02909 0
M  V30 28712 H 2673.09 -1.75338 -5.6083 0
M  V30 28713 H 2674.61 -0.924622 -6.03559 0
M  V30 28714 H 2676.03 -2.91311 -4.93772 0
M  V30 28715 H 2674.43 -3.67938 -4.74069 0
M  V30 28716 H 2675.5 -3.51879 -3.3363 0
M  V30 28717 N 2676.84 1.18685 -1.0369 0
M  V30 28718 C 2678.07 1.92517 -0.757952 0
M  V30 28719 C 2678.48 1.7596 0.684368 0
M  V30 28720 O 2677.84 1.08676 1.46615 0
M  V30 28721 C 2677.89 3.4404 -1.10991 0
M  V30 28722 O 2677.61 3.60071 -2.4956 0
M  V30 28723 C 2679.11 4.34978 -0.85492 0
M  V30 28724 H 2676.33 0.611288 -0.27671 0
M  V30 28725 H 2678.88 1.50593 -1.38355 0
M  V30 28726 H 2677.03 3.83766 -0.529346 0
M  V30 28727 H 2677.45 4.53844 -2.62918 0
M  V30 28728 H 2678.92 5.39865 -1.15107 0
M  V30 28729 H 2679.4 4.38696 0.21043 0
M  V30 28730 H 2680 4.00944 -1.4186 0
M  V30 28731 N 2678.32 0.815849 1.34839 0
M  V30 28732 C 2679.55 0.41333 2.02729 0
M  V30 28733 C 2679.96 -0.97857 1.6146 0
M  V30 28734 O 2679.32 -1.63211 0.816613 0
M  V30 28735 C 2679.37 0.497739 3.58057 0
M  V30 28736 O 2679.09 1.83477 3.97829 0
M  V30 28737 C 2680.59 0.0892118 4.4321 0
M  V30 28738 H 2677.81 0.16674 0.649953 0
M  V30 28739 H 2680.35 1.10204 1.72265 0
M  V30 28740 H 2678.51 -0.142818 3.87137 0
M  V30 28741 H 2678.92 1.80404 4.92498 0
M  V30 28742 H 2680.4 0.199371 5.5164 0
M  V30 28743 H 2680.87 -0.966496 4.28434 0
M  V30 28744 H 2681.48 0.703288 4.19445 0
M  V30 28745 N 2679.8 -1.46924 0.570174 0
M  V30 28746 C 2680.75 -2.272 -0.190881 0
M  V30 28747 C 2681.73 -1.35129 -0.873433 0
M  V30 28748 O 2682.92 -1.59393 -0.769599 0
M  V30 28749 C 2680.05 -3.21194 -1.21198 0
M  V30 28750 C 2679.14 -4.20748 -0.532187 0
M  V30 28751 N 2679.53 -5.04175 0.405127 0
M  V30 28752 C 2677.83 -4.39046 -0.784505 0
M  V30 28753 C 2678.53 -5.76155 0.80125 0
M  V30 28754 N 2677.5 -5.43384 0.153178 0
M  V30 28755 H 2681.3 -2.89089 0.529586 0
M  V30 28756 H 2678.82 -1.57622 0.391047 0
M  V30 28757 H 2680.82 -3.77401 -1.77128 0
M  V30 28758 H 2679.48 -2.60863 -1.93341 0
M  V30 28759 H 2680.49 -5.11993 0.779993 0
M  V30 28760 H 2677.16 -3.89875 -1.49345 0
M  V30 28761 H 2678.55 -6.53247 1.5722 0
M  V30 28762 N 2681.27 -0.307291 -1.54575 0
M  V30 28763 C 2682.22 0.581683 -2.25209 0
M  V30 28764 C 2683.22 1.1319 -1.26033 0
M  V30 28765 O 2684.42 1.08181 -1.43864 0
M  V30 28766 H 2680.8 0.206201 -0.723177 0
M  V30 28767 H 2682.77 -0.0365187 -2.98378 0
M  V30 28768 C 2681.52 1.73899 -3.01089 0
M  V30 28769 H 2680.84 1.32484 -3.77211 0
M  V30 28770 H 2682.28 2.33695 -3.53784 0
M  V30 28771 C 2680.74 2.64689 -2.08426 0
M  V30 28772 O 2681.27 3.65958 -1.65642 0
M  V30 28773 N 2679.47 2.32561 -1.74252 0
M  V30 28774 H 2679.02 1.50253 -2.09241 0
M  V30 28775 H 2678.98 2.93572 -1.12529 0
M  V30 28776 N 2682.75 1.57561 -0.0351337 0
M  V30 28777 C 2684 1.92332 0.643146 0
M  V30 28778 C 2684.33 0.912398 1.71432 0
M  V30 28779 O 2683.61 -0.0639962 1.94395 0
M  V30 28780 C 2683.89 3.37558 1.25405 0
M  V30 28781 C 2683.74 4.4939 0.19203 0
M  V30 28782 C 2685.06 3.82863 2.17035 0
M  V30 28783 H 2682.18 0.699423 0.232329 0
M  V30 28784 H 2684.82 1.89769 -0.0936222 0
M  V30 28785 H 2682.97 3.39873 1.88199 0
M  V30 28786 H 2684.64 4.59207 -0.43893 0
M  V30 28787 H 2682.89 4.31116 -0.481801 0
M  V30 28788 H 2683.56 5.4805 0.659196 0
M  V30 28789 H 2686.03 3.82323 1.64221 0
M  V30 28790 H 2684.91 4.85161 2.56729 0
M  V30 28791 H 2685.17 3.18707 3.06395 0
M  V30 28792 N 2684.23 -0.238084 1.55791 0
M  V30 28793 C 2685.46 -0.982201 1.821 0
M  V30 28794 C 2685.87 -1.78604 0.612057 0
M  V30 28795 O 2685.23 -1.77617 -0.41935 0
M  V30 28796 C 2685.28 -1.91303 3.06733 0
M  V30 28797 O 2685 -1.14171 4.22962 0
M  V30 28798 C 2686.5 -2.77241 3.45908 0
M  V30 28799 H 2683.72 -0.288625 0.605753 0
M  V30 28800 H 2686.27 -0.258305 2.02862 0
M  V30 28801 H 2684.42 -2.59109 2.87995 0
M  V30 28802 H 2684.84 -1.77211 4.93656 0
M  V30 28803 H 2686.31 -3.38287 4.36195 0
M  V30 28804 H 2686.79 -3.48802 2.66897 0
M  V30 28805 H 2687.39 -2.14874 3.67027 0
M  V30 28806 N 2685.71 -1.4932 -0.504115 0
M  V30 28807 C 2686.64 -1.6867 -1.6147 0
M  V30 28808 C 2687.62 -0.535407 -1.61454 0
M  V30 28809 O 2688.8 -0.770899 -1.78244 0
M  V30 28810 C 2685.93 -1.75033 -2.99968 0
M  V30 28811 C 2684.89 -2.89921 -3.14849 0
M  V30 28812 C 2684.21 -2.81395 -4.54666 0
M  V30 28813 C 2685.51 -4.30898 -2.95168 0
M  V30 28814 H 2687.21 -2.61651 -1.45531 0
M  V30 28815 H 2684.75 -1.25914 -0.698689 0
M  V30 28816 H 2686.71 -1.87157 -3.77558 0
M  V30 28817 H 2685.43 -0.786496 -3.16989 0
M  V30 28818 H 2684.09 -2.77395 -2.39682 0
M  V30 28819 H 2683.74 -1.82926 -4.68559 0
M  V30 28820 H 2683.44 -3.58503 -4.65564 0
M  V30 28821 H 2684.96 -2.95522 -5.34321 0
M  V30 28822 H 2686.38 -4.44122 -3.62531 0
M  V30 28823 H 2684.77 -5.09204 -3.1754 0
M  V30 28824 H 2685.84 -4.45559 -1.91324 0
M  V30 28825 N 2687.19 0.754933 -1.38342 0
M  V30 28826 C 2688.1 1.89941 -1.37693 0
M  V30 28827 C 2689.11 1.71826 -0.274225 0
M  V30 28828 O 2690.29 1.94772 -0.512426 0
M  V30 28829 C 2687.35 3.25291 -1.19944 0
M  V30 28830 C 2686.41 3.55942 -2.40007 0
M  V30 28831 C 2685.65 4.84834 -2.23095 0
M  V30 28832 O 2685.87 5.57114 -1.22396 0
M  V30 28833 O 2684.8 5.14932 -3.11655 0
M  V30 28834 H 2688.63 1.93442 -2.34124 0
M  V30 28835 H 2686.21 0.900023 -1.19247 0
M  V30 28836 H 2688.1 4.06216 -1.121 0
M  V30 28837 H 2686.77 3.22605 -0.265976 0
M  V30 28838 H 2685.68 2.75184 -2.53426 0
M  V30 28839 H 2687.01 3.63388 -3.31979 0
M  V30 28840 N 2688.66 1.23189 0.982967 0
M  V30 28841 C 2689.57 1.02743 2.10905 0
M  V30 28842 C 2690.59 -0.0272883 1.73979 0
M  V30 28843 O 2691.77 0.167605 2.00701 0
M  V30 28844 C 2688.83 0.618364 3.41141 0
M  V30 28845 C 2687.89 1.74784 3.92109 0
M  V30 28846 C 2687.12 1.35819 5.16129 0
M  V30 28847 O 2687.35 0.241301 5.69889 0
M  V30 28848 O 2686.28 2.17834 5.61099 0
M  V30 28849 H 2690.11 1.97112 2.31042 0
M  V30 28850 H 2687.69 1.01871 1.09282 0
M  V30 28851 H 2689.57 0.401056 4.19487 0
M  V30 28852 H 2688.25 -0.296364 3.2234 0
M  V30 28853 H 2687.16 2.01976 3.14891 0
M  V30 28854 H 2688.49 2.64079 4.15359 0
M  V30 28855 N 2690.14 -1.18133 1.04318 0
M  V30 28856 C 2691.55 -1.6983 0.775535 0
M  V30 28857 C 2691.9 -1.83161 -0.703316 0
M  V30 28858 O 2691.03 -1.5129 -1.54726 0
M  V30 28859 C 2691.62 -3.08468 1.40118 0
M  V30 28860 C 2690.18 -3.57366 1.18179 0
M  V30 28861 C 2689.33 -2.33851 1.49026 0
M  V30 28862 H 2692.28 -1.02773 1.20927 0
M  V30 28863 H 2692.3 -3.71871 0.805737 0
M  V30 28864 H 2691.81 -2.98734 2.4775 0
M  V30 28865 H 2689.91 -3.72393 0.124324 0
M  V30 28866 H 2690.03 -4.40649 1.88058 0
M  V30 28867 H 2688.39 -2.37887 0.910037 0
M  V30 28868 H 2689.17 -2.26734 2.57772 0
M  V30 28869 N 2691.62 -0.822988 -1.34405 0
M  V30 28870 C 2692.87 -0.407492 -1.97541 0
M  V30 28871 C 2693.18 1.03497 -1.65975 0
M  V30 28872 O 2694.39 1.55438 -2.22601 0
M  V30 28873 C 2692.84 -0.677685 -3.53462 0
M  V30 28874 C 2692.45 -2.13377 -3.93921 0
M  V30 28875 C 2694.2 -0.328358 -4.23228 0
M  V30 28876 C 2692.1 -2.34885 -5.42755 0
M  V30 28877 H 2691.03 -0.148636 -0.739205 0
M  V30 28878 H 2693.68 -1.00935 -1.53246 0
M  V30 28879 H 2692.07 -0.00565926 -3.96 0
M  V30 28880 H 2693.24 -2.84496 -3.62489 0
M  V30 28881 H 2691.56 -2.44454 -3.37092 0
M  V30 28882 H 2694.15 -0.466888 -5.32658 0
M  V30 28883 H 2694.5 0.727152 -4.099 0
M  V30 28884 H 2695.03 -0.954964 -3.86167 0
M  V30 28885 H 2691.77 -3.38942 -5.61069 0
M  V30 28886 H 2691.29 -1.6831 -5.75701 0
M  V30 28887 H 2692.97 -2.17247 -6.09436 0
M  V30 28888 N 2693.1 1.4662 -0.577957 0
M  V30 28889 C 2694.01 2.3405 0.160609 0
M  V30 28890 C 2695.02 1.49463 0.890885 0
M  V30 28891 O 2696.2 1.82344 0.855134 0
M  V30 28892 C 2693.27 3.26561 1.16442 0
M  V30 28893 C 2692.33 4.27046 0.439325 0
M  V30 28894 C 2691.56 5.15138 1.39531 0
M  V30 28895 O 2691.78 5.0607 2.63153 0
M  V30 28896 O 2690.72 5.95004 0.908481 0
M  V30 28897 H 2694.54 2.98546 -0.557109 0
M  V30 28898 H 2692.13 1.45517 -0.338395 0
M  V30 28899 H 2694.01 3.83648 1.74333 0
M  V30 28900 H 2692.68 2.64667 1.86369 0
M  V30 28901 H 2691.59 3.7366 -0.181313 0
M  V30 28902 H 2692.92 4.91713 -0.218885 0
M  V30 28903 N 2694.58 0.315484 1.5441 0
M  V30 28904 C 2695.83 -0.29036 1.99599 0
M  V30 28905 C 2696.14 -1.5388 1.20749 0
M  V30 28906 O 2697.34 -2.22014 1.56275 0
M  V30 28907 C 2695.8 -0.567908 3.55391 0
M  V30 28908 C 2695.41 0.663023 4.43067 0
M  V30 28909 C 2697.15 -1.13415 4.09069 0
M  V30 28910 C 2695.06 0.357825 5.90317 0
M  V30 28911 H 2693.99 -0.112272 0.745594 0
M  V30 28912 H 2696.64 0.426449 1.78476 0
M  V30 28913 H 2695.02 -1.34469 3.7247 0
M  V30 28914 H 2696.2 1.43877 4.37763 0
M  V30 28915 H 2694.51 1.14891 4.00236 0
M  V30 28916 H 2697.11 -1.37698 5.16666 0
M  V30 28917 H 2697.45 -2.08099 3.60556 0
M  V30 28918 H 2697.98 -0.418736 3.9559 0
M  V30 28919 H 2694.72 1.27362 6.43008 0
M  V30 28920 H 2694.24 -0.380367 5.98593 0
M  V30 28921 H 2695.92 -0.0353146 6.4699 0
M  V30 28922 N 2696.05 -1.5754 0.0434891 0
M  V30 28923 C 2697 -2.12251 -0.951427 0
M  V30 28924 C 2698 -1.05247 -1.32738 0
M  V30 28925 O 2699.2 -1.23665 -1.30793 0
M  V30 28926 H 2695.58 -0.678309 -0.324656 0
M  V30 28927 H 2697.55 -2.94758 -0.464803 0
M  V30 28928 C 2696.3 -2.6763 -2.21967 0
M  V30 28929 H 2695.62 -3.49623 -1.93917 0
M  V30 28930 H 2697.06 -3.09541 -2.89759 0
M  V30 28931 C 2695.52 -1.61044 -2.95917 0
M  V30 28932 O 2696.05 -1.01869 -3.88569 0
M  V30 28933 N 2694.26 -1.32746 -2.58509 0
M  V30 28934 H 2693.8 -1.81054 -1.83241 0
M  V30 28935 H 2693.76 -0.616586 -3.08295 0
M  V30 28936 N 2697.53 0.229818 -1.55915 0
M  V30 28937 C 2698.78 0.952486 -1.7972 0
M  V30 28938 C 2699.13 1.823 -0.615172 0
M  V30 28939 O 2698.43 1.87567 0.391065 0
M  V30 28940 C 2698.62 1.83245 -3.06849 0
M  V30 28941 C 2698.45 1.04861 -4.37303 0
M  V30 28942 C 2697.22 0.746844 -4.9975 0
M  V30 28943 C 2699.42 0.417899 -5.12599 0
M  V30 28944 N 2697.4 -0.0592675 -6.13871 0
M  V30 28945 C 2698.77 -0.251988 -6.19488 0
M  V30 28946 C 2700.83 0.330092 -4.96805 0
M  V30 28947 C 2699.53 -1.00127 -7.12297 0
M  V30 28948 C 2701.55 -0.405703 -5.90007 0
M  V30 28949 C 2700.92 -1.06416 -6.96315 0
M  V30 28950 H 2697.02 0.329079 -0.709388 0
M  V30 28951 H 2699.6 0.22408 -1.93406 0
M  V30 28952 H 2697.77 2.53274 -2.9446 0
M  V30 28953 H 2699.5 2.49197 -3.18878 0
M  V30 28954 H 2696.26 1.06284 -4.6152 0
M  V30 28955 H 2696.68 -0.450916 -6.75497 0
M  V30 28956 H 2701.32 0.824825 -4.14676 0
M  V30 28957 H 2699.04 -1.50755 -7.93913 0
M  V30 28958 H 2702.63 -0.474538 -5.79862 0
M  V30 28959 H 2701.51 -1.62442 -7.67191 0
M  V30 28960 N 2699.01 1.49585 0.49619 0
M  V30 28961 C 2700.24 1.63297 1.27862 0
M  V30 28962 C 2700.66 0.306188 1.85591 0
M  V30 28963 O 2700.02 -0.726822 1.66093 0
M  V30 28964 C 2700.07 2.70794 2.38123 0
M  V30 28965 O 2699.17 2.30302 3.42104 0
M  V30 28966 H 2698.51 0.54641 0.37727 0
M  V30 28967 H 2701.04 1.95804 0.593462 0
M  V30 28968 H 2701.05 2.93109 2.83815 0
M  V30 28969 H 2699.73 3.67101 1.95472 0
M  V30 28970 H 2698.3 2.18336 3.02297 0
M  V30 28971 O 2700.53 -0.641521 1.48212 0
M  V30 28972 H 2701.22 -1.29532 1.44018 0
M  V30 END ATOM
M  V30 BEGIN BOND
M  V30 END BOND
M  V30 END CTAB
M  END
$$$$
