drugbank_target|P14598 Neutrophil cytosol factor 1 (DB00514)
 OpenBabel12092121003D

  0  0  0     0  0            999 V3000
M  V30 BEGIN CTAB
M  V30 COUNTS 6280 6360 0 0 0
M  V30 BEGIN ATOM
M  V30 1 H -0.908 1.98254 -0.117106 0
M  V30 2 N 0 1.576 0 0
M  V30 3 C 0.933 2.03868 1.02534 0
M  V30 4 C 1.911 0.928543 1.3348 0
M  V30 5 O 3.095 1.19667 1.45644 0
M  V30 6 C 0.222 2.43627 2.35294 0
M  V30 7 C -0.732 3.65373 2.2001 0
M  V30 8 S 0.101 5.13292 1.52614 0
M  V30 9 C 1.257 5.56322 2.86805 0
M  V30 10 H 1.49 2.90518 0.631377 0
M  V30 11 H -0.977 1.52953 0.210867 0
M  V30 12 H 0.981 2.67203 3.11629 0
M  V30 13 H -0.358 1.57376 2.7183 0
M  V30 14 H -1.165 3.90944 3.18086 0
M  V30 15 H -1.563 3.418 1.51819 0
M  V30 16 H 0.729 5.58782 3.83104 0
M  V30 17 H 1.672 6.56266 2.65933 0
M  V30 18 H 2.08 4.83886 2.90714 0
M  V30 19 N 1.4781 -0.272755 1.55222 0
M  V30 20 C 2.7261 -1.00234 1.75492 0
M  V30 21 C 3.0471 -1.8681 0.5592 0
M  V30 22 O 2.3171 -1.91215 -0.425882 0
M  V30 23 H 0.8971 -0.373076 0.647166 0
M  V30 24 H 3.5591 -0.296926 1.92625 0
M  V30 25 H 2.6551 -1.63913 2.65592 0
M  V30 26 N 2.9562 -1.48159 -0.537278 0
M  V30 27 C 4.2332 -1.46291 -1.29839 0
M  V30 28 C 4.6132 -0.170613 -2.10409 0
M  V30 29 O 3.9612 0.847746 -2.12192 0
M  V30 30 C 4.1712 -2.72055 -2.18603 0
M  V30 31 C 5.5192 -3.20087 -2.7898 0
M  V30 32 O 6.5432 -2.72921 -2.28894 0
M  V30 33 O 5.4022 -4.02138 -3.70064 0
M  V30 34 H 2.4962 -0.583906 -0.585647 0
M  V30 35 H 5.0422 -1.60384 -0.554534 0
M  V30 36 H 3.8142 -3.57628 -1.58801 0
M  V30 37 H 3.4372 -2.60646 -3.00249 0
M  V30 38 N 4.4343 0.785586 -1.36625 0
M  V30 39 C 5.6623 1.57448 -1.3423 0
M  V30 40 C 6.0773 1.88649 0.0755653 0
M  V30 41 O 5.4343 1.50414 1.03354 0
M  V30 42 C 5.4853 2.89316 -2.16745 0
M  V30 43 O 5.2063 2.59459 -3.53005 0
M  V30 44 C 6.7073 3.83606 -2.22174 0
M  V30 45 H 3.9273 0.488226 -0.4603 0
M  V30 46 H 6.4713 0.974733 -1.79775 0
M  V30 47 H 4.6263 3.4575 -1.74745 0
M  V30 48 H 5.0403 3.43804 -3.96105 0
M  V30 49 H 6.5143 4.73181 -2.8426 0
M  V30 50 H 6.9913 4.21734 -1.22627 0
M  V30 51 H 7.5973 3.33104 -2.64427 0
M  V30 52 N 5.9124 1.20967 1.01018 0
M  V30 53 C 7.1594 1.02374 1.74716 0
M  V30 54 C 7.4874 -0.443375 1.89379 0
M  V30 55 O 6.7424 -1.34535 1.42123 0
M  V30 56 C 7.0414 1.65997 3.16512 0
M  V30 57 C 6.7074 3.15831 3.2181 0
M  V30 58 C 5.3694 3.56719 3.22963 0
M  V30 59 C 7.7214 4.11816 3.19464 0
M  V30 60 C 5.0494 4.92107 3.19449 0
M  V30 61 C 7.4014 5.47158 3.17491 0
M  V30 62 C 6.0654 5.87451 3.16951 0
M  V30 63 H 5.3354 0.374614 0.639332 0
M  V30 64 H 7.9824 1.50485 1.18434 0
M  V30 65 H 6.2874 1.10166 3.75993 0
M  V30 66 H 7.9844 1.49119 3.72242 0
M  V30 67 H 4.5744 2.83263 3.21652 0
M  V30 68 H 8.7584 3.81257 3.17737 0
M  V30 69 H 4.0144 5.22579 3.17366 0
M  V30 70 H 8.1884 6.21274 3.14629 0
M  V30 71 H 5.8154 6.92329 3.13983 0
M  V30 72 N 7.3905 -1.2043 1.01659 0
M  V30 73 C 8.6395 -1.89118 0.701237 0
M  V30 74 C 8.9525 -1.79705 -0.772358 0
M  V30 75 O 10.1585 -2.43528 -1.20026 0
M  V30 76 C 8.6145 -3.39168 1.20388 0
M  V30 77 C 8.2225 -3.57166 2.70438 0
M  V30 78 C 9.9665 -4.1341 0.963953 0
M  V30 79 C 7.8735 -5.01042 3.14183 0
M  V30 80 H 6.8035 -0.708267 0.2586 0
M  V30 81 H 9.4545 -1.36239 1.22927 0
M  V30 82 H 7.8365 -3.91369 0.603824 0
M  V30 83 H 9.0105 -3.15351 3.35992 0
M  V30 84 H 7.3255 -2.96294 2.92572 0
M  V30 85 H 9.9225 -5.19491 1.26621 0
M  V30 86 H 10.2655 -4.16181 -0.099578 0
M  V30 87 H 10.7985 -3.67309 1.52738 0
M  V30 88 H 7.5375 -5.03426 4.19812 0
M  V30 89 H 7.0575 -5.43668 2.53348 0
M  V30 90 H 8.7365 -5.69623 3.0682 0
M  V30 91 N 8.8686 -0.792821 -1.36206 0
M  V30 92 C 10.2846 -0.474903 -1.52371 0
M  V30 93 C 10.4846 1.00622 -1.74578 0
M  V30 94 O 9.5406 1.79162 -1.77924 0
M  V30 95 C 10.8536 -1.3083 -2.70747 0
M  V30 96 C 12.4016 -1.30234 -2.84619 0
M  V30 97 C 12.8766 -2.11956 -4.06004 0
M  V30 98 N 14.3676 -2.09419 -4.13156 0
M  V30 99 C 15.1026 -2.69419 -5.06163 0
M  V30 100 N 14.5986 -3.3829 -6.04592 0
M  V30 101 N 16.3916 -2.59134 -4.98804 0
M  V30 102 H 8.5426 -1.75222 -1.20046 0
M  V30 103 H 10.8056 -0.745024 -0.586211 0
M  V30 104 H 10.5116 -2.35881 -2.6087 0
M  V30 105 H 10.3856 -0.95196 -3.6499 0
M  V30 106 H 12.7726 -0.259748 -2.93955 0
M  V30 107 H 12.8536 -1.69847 -1.91274 0
M  V30 108 H 12.4976 -3.16248 -3.97429 0
M  V30 109 H 12.4276 -1.69711 -4.98503 0
M  V30 110 H 14.9186 -1.59297 -3.42685 0
M  V30 111 H 15.2316 -3.81394 -6.7213 0
M  V30 112 H 13.5766 -3.42393 -6.04807 0
M  V30 113 H 16.7676 -2.04927 -4.20859 0
M  V30 114 H 16.9406 -3.06185 -5.711 0
M  V30 115 N 10.3467 1.47872 -0.545128 0
M  V30 116 C 11.2967 2.26842 0.229456 0
M  V30 117 C 12.2807 1.33626 0.896267 0
M  V30 118 O 13.4727 1.58063 0.79657 0
M  V30 119 C 10.6017 3.19089 1.26638 0
M  V30 120 C 9.6877 4.19783 0.603598 0
M  V30 121 N 10.0787 5.0479 -0.319405 0
M  V30 122 C 8.3767 4.3765 0.858989 0
M  V30 123 C 9.0777 5.77433 -0.703241 0
M  V30 124 N 8.0537 5.43566 -0.0608309 0
M  V30 125 H 11.8557 2.89947 -0.480391 0
M  V30 126 H 9.3697 1.58263 -0.364209 0
M  V30 127 H 11.3667 3.74337 1.83515 0
M  V30 128 H 10.0267 2.5754 1.97745 0
M  V30 129 H 11.0377 5.13244 -0.692889 0
M  V30 130 H 7.7147 3.87281 1.55948 0
M  V30 131 H 9.1047 6.55824 -1.46098 0
M  V30 132 N 11.8248 0.280983 1.55075 0
M  V30 133 C 13.0738 -0.334784 1.98902 0
M  V30 134 C 13.3868 -1.56534 1.17288 0
M  V30 135 O 14.5928 -2.25443 1.51287 0
M  V30 136 C 13.0488 -0.646994 3.54037 0
M  V30 137 C 12.6568 0.564085 4.44435 0
M  V30 138 C 14.4008 -1.22506 4.06439 0
M  V30 139 C 12.3078 0.226137 5.90967 0
M  V30 140 H 11.2378 -0.128866 0.742906 0
M  V30 141 H 13.8888 0.386556 1.79382 0
M  V30 142 H 12.2708 -1.42739 3.6938 0
M  V30 143 H 13.4448 1.34082 4.40861 0
M  V30 144 H 11.7598 1.0594 4.02698 0
M  V30 145 H 14.3568 -1.49182 5.13468 0
M  V30 146 H 14.6998 -2.16085 3.55827 0
M  V30 147 H 15.2328 -0.50682 3.94558 0
M  V30 148 H 11.9718 1.12996 6.45687 0
M  V30 149 H 11.4918 -0.513717 5.97596 0
M  V30 150 H 13.1708 -0.179539 6.46751 0
M  V30 151 N 13.3029 -1.57598 0.00835791 0
M  V30 152 C 14.2659 -2.07884 -0.965242 0
M  V30 153 C 15.2659 -0.989825 -1.26725 0
M  V30 154 O 16.4559 -1.25218 -1.21104 0
M  V30 155 C 13.5879 -2.52731 -2.28779 0
M  V30 156 H 14.7809 -2.95178 -0.530112 0
M  V30 157 H 12.3339 -1.54458 -0.239283 0
M  V30 158 H 13.0689 -1.68705 -2.76964 0
M  V30 159 H 12.8539 -3.32272 -2.08177 0
M  V30 160 H 14.3439 -2.91933 -2.98605 0
M  V30 161 N 14.781 0.264519 -1.55364 0
M  V30 162 C 15.711 1.33121 -1.91836 0
M  V30 163 C 16.692 1.51101 -0.781192 0
M  V30 164 O 17.877 1.64003 -1.04003 0
M  V30 165 C 15.007 2.68921 -2.19769 0
M  V30 166 C 13.961 2.65661 -3.35571 0
M  V30 167 C 13.287 4.05093 -3.49004 0
M  V30 168 C 14.587 2.24187 -4.71739 0
M  V30 169 H 16.281 1.02844 -2.81182 0
M  V30 170 H 13.827 0.493286 -1.35287 0
M  V30 171 H 15.78 3.43663 -2.43872 0
M  V30 172 H 14.504 3.00799 -1.27231 0
M  V30 173 H 13.163 1.93377 -3.1145 0
M  V30 174 H 12.811 4.34206 -2.53917 0
M  V30 175 H 12.511 4.03804 -4.26868 0
M  V30 176 H 14.035 4.81561 -3.75408 0
M  V30 177 H 15.449 2.88654 -4.9533 0
M  V30 178 H 13.846 2.34044 -5.52579 0
M  V30 179 H 14.916 1.19327 -4.69988 0
M  V30 180 N 16.2591 1.48442 0.529413 0
M  V30 181 C 17.1891 1.65902 1.64313 0
M  V30 182 C 18.1701 0.507897 1.6234 0
M  V30 183 O 19.3551 0.740503 1.79528 0
M  V30 184 C 16.4851 1.69911 3.02898 0
M  V30 185 C 15.4391 2.8453 3.19729 0
M  V30 186 C 14.7651 2.73629 4.59381 0
M  V30 187 C 16.0651 4.25821 3.02447 0
M  V30 188 H 17.7591 2.5914 1.49955 0
M  V30 189 H 15.3051 1.24709 0.719982 0
M  V30 190 H 17.2581 1.80715 3.80684 0
M  V30 191 H 15.9821 0.732524 3.18279 0
M  V30 192 H 14.6411 2.73283 2.44361 0
M  V30 193 H 14.2891 1.74938 4.71599 0
M  V30 194 H 13.9891 3.50541 4.71588 0
M  V30 195 H 15.5131 2.86401 5.39265 0
M  V30 196 H 16.9271 4.37898 3.70024 0
M  V30 197 H 15.3241 5.03735 3.26146 0
M  V30 198 H 16.3941 4.42244 1.98867 0
M  V30 199 N 17.7372 -0.778329 1.37039 0
M  V30 200 C 18.9852 -1.53361 1.31623 0
M  V30 201 C 19.3062 -1.94739 -0.100831 0
M  V30 202 O 18.5762 -1.65797 -1.04347 0
M  V30 203 H 17.1562 -0.568794 0.484234 0
M  V30 204 H 19.8182 -0.926742 1.71457 0
M  V30 205 H 18.9142 -2.43606 1.95096 0
M  V30 206 N 19.2153 -1.21501 -1.00376 0
M  V30 207 C 20.4623 -1.03299 -1.74171 0
M  V30 208 C 20.7903 0.433326 -1.89612 0
M  V30 209 O 20.0453 1.33779 -1.42834 0
M  V30 210 C 20.3443 -1.67673 -3.15627 0
M  V30 211 C 20.0103 -3.17533 -3.2013 0
M  V30 212 C 18.6723 -3.58427 -3.21067 0
M  V30 213 C 21.0243 -4.13504 -3.17275 0
M  V30 214 C 18.3523 -4.93794 -3.16835 0
M  V30 215 C 20.7043 -5.48834 -3.14585 0
M  V30 216 C 19.3683 -5.89123 -3.13831 0
M  V30 217 H 18.6383 -0.377999 -0.637336 0
M  V30 218 H 21.2853 -1.51111 -1.17634 0
M  V30 219 H 19.5903 -1.12158 -3.75404 0
M  V30 220 H 21.2873 -1.51091 -3.71446 0
M  V30 221 H 17.8773 -2.84965 -3.20145 0
M  V30 222 H 22.0613 -3.82936 -3.15711 0
M  V30 223 H 17.3173 -5.24255 -3.1459 0
M  V30 224 H 21.4913 -6.22934 -3.1133 0
M  V30 225 H 19.1183 -6.93984 -3.10307 0
M  V30 226 N 20.6934 1.19889 -1.02296 0
M  V30 227 C 21.6034 2.26571 -0.608508 0
M  V30 228 C 22.6194 1.70299 0.356964 0
M  V30 229 O 23.7954 2.00235 0.216326 0
M  V30 230 C 20.8604 3.46677 0.0402814 0
M  V30 231 C 19.9214 4.18153 -0.97194 0
M  V30 232 C 19.1544 5.32525 -0.354016 0
M  V30 233 O 19.3774 5.64112 0.844604 0
M  V30 234 O 18.3114 5.92242 -1.07391 0
M  V30 235 H 22.1374 2.64251 -1.49684 0
M  V30 236 H 19.7224 1.26629 -0.792809 0
M  V30 237 H 21.6044 4.19475 0.402324 0
M  V30 238 H 20.2794 3.10858 0.902707 0
M  V30 239 H 19.1864 3.47499 -1.38546 0
M  V30 240 H 20.5194 4.57927 -1.80454 0
M  V30 241 N 22.1715 0.800033 1.35784 0
M  V30 242 C 23.1185 0.203848 2.29898 0
M  V30 243 C 24.0885 -0.658375 1.52495 0
M  V30 244 O 25.2735 -0.604832 1.8096 0
M  V30 245 C 22.4135 -0.64688 3.38983 0
M  V30 246 C 21.5265 0.235054 4.3136 0
M  V30 247 C 20.6615 -0.623054 5.27533 0
M  V30 248 C 19.7005 0.259682 6.11549 0
M  V30 249 N 18.8375 -0.558019 6.99879 0
M  V30 250 H 23.6775 1.01186 2.80295 0
M  V30 251 H 21.2145 0.51053 1.37957 0
M  V30 252 H 23.1725 -1.15521 4.00887 0
M  V30 253 H 21.8025 -1.42021 2.89879 0
M  V30 254 H 20.8545 0.861438 3.70518 0
M  V30 255 H 22.1665 0.914768 4.9034 0
M  V30 256 H 21.3205 -1.19678 5.94779 0
M  V30 257 H 20.0595 -1.33636 4.69034 0
M  V30 258 H 19.0645 0.845726 5.43256 0
M  V30 259 H 20.2895 0.970748 6.72126 0
M  V30 260 H 18.2355 -1.25542 6.43875 0
M  V30 261 H 18.1525 0.0637872 7.55973 0
M  V30 262 H 19.4205 -1.11523 7.71481 0
M  V30 263 N 23.6496 -1.47581 0.552962 0
M  V30 264 C 25.0656 -1.5818 0.212424 0
M  V30 265 C 25.2656 -1.55213 -1.28496 0
M  V30 266 O 24.3216 -1.45329 -2.06484 0
M  V30 267 C 25.6346 -2.88865 0.835318 0
M  V30 268 C 27.1826 -3.0244 0.806156 0
M  V30 269 C 27.6576 -4.35819 1.40804 0
M  V30 270 N 29.1486 -4.42444 1.37103 0
M  V30 271 C 29.8836 -5.44202 1.80641 0
M  V30 272 N 29.3796 -6.52795 2.32015 0
M  V30 273 N 31.1726 -5.35222 1.71738 0
M  V30 274 H 23.3236 -1.47753 1.52587 0
M  V30 275 H 25.5866 -0.702941 0.636064 0
M  V30 276 H 25.2926 -2.9676 1.88749 0
M  V30 277 H 25.1666 -3.7579 0.325848 0
M  V30 278 H 27.5536 -2.94144 -0.237317 0
M  V30 279 H 27.6346 -2.17068 1.35334 0
M  V30 280 H 27.2786 -4.44871 2.45056 0
M  V30 281 H 27.2086 -5.19916 0.836338 0
M  V30 282 H 29.6996 -3.6456 0.995202 0
M  V30 283 H 30.0126 -7.26609 2.63171 0
M  V30 284 H 28.3576 -6.53696 2.36023 0
M  V30 285 H 31.5486 -4.49284 1.31382 0
M  V30 286 H 31.7216 -6.14389 2.05987 0
M  V30 287 N 25.1277 -0.289203 -1.54924 0
M  V30 288 C 26.3747 0.323519 -1.99899 0
M  V30 289 C 26.7027 1.54797 -1.17762 0
M  V30 290 O 25.9577 1.94237 -0.238835 0
M  V30 291 C 26.2567 0.736119 -3.49737 0
M  V30 292 C 25.9227 -0.385276 -4.49251 0
M  V30 293 C 24.5847 -0.693156 -4.76181 0
M  V30 294 C 26.9367 -1.14021 -5.08575 0
M  V30 295 C 24.2647 -1.7593 -5.59701 0
M  V30 296 C 26.6167 -2.19619 -5.93254 0
M  V30 297 C 25.2807 -2.51026 -6.185 0
M  V30 298 H 24.5507 0.118384 -0.731482 0
M  V30 299 H 27.1977 -0.405847 -1.8715 0
M  V30 300 H 25.5027 1.54539 -3.60035 0
M  V30 301 H 27.1997 1.22118 -3.81953 0
M  V30 302 H 23.7897 -0.135202 -4.28387 0
M  V30 303 H 27.9737 -0.915611 -4.87781 0
M  V30 304 H 23.2297 -2.0075 -5.77503 0
M  V30 305 H 27.4037 -2.78581 -6.38252 0
M  V30 306 H 25.0307 -3.33772 -6.83008 0
M  V30 307 N 26.6058 1.57591 -0.0167156 0
M  V30 308 C 27.8518 1.91567 0.665582 0
M  V30 309 C 28.1848 0.892298 1.72487 0
M  V30 310 O 27.4598 -0.0867127 1.94307 0
M  V30 311 C 27.7428 3.36069 1.29342 0
M  V30 312 C 27.5958 4.49135 0.244541 0
M  V30 313 C 28.9148 3.803 2.21495 0
M  V30 314 H 26.0338 0.69666 0.240488 0
M  V30 315 H 28.6758 1.89866 -0.0714356 0
M  V30 316 H 26.8258 3.3765 1.92158 0
M  V30 317 H 28.4978 4.59689 -0.385228 0
M  V30 318 H 26.7408 4.3165 -0.431379 0
M  V30 319 H 27.4118 5.47242 0.723207 0
M  V30 320 H 29.8878 3.80377 1.68678 0
M  V30 321 H 28.7638 4.82127 2.62382 0
M  V30 322 H 29.0248 3.15104 3.101 0
M  V30 323 N 28.0839 -0.256276 1.55502 0
M  V30 324 C 29.4949 -0.826068 1.67431 0
M  V30 325 C 29.8459 -1.86396 0.612446 0
M  V30 326 O 28.9709 -2.15031 -0.243025 0
M  V30 327 C 29.5659 -1.50512 3.03532 0
M  V30 328 C 28.1249 -2.02273 3.17431 0
M  V30 329 C 27.2719 -0.870548 2.63281 0
M  V30 330 H 30.2229 -0.0322728 1.58667 0
M  V30 331 H 30.2439 -2.37279 2.97454 0
M  V30 332 H 29.7559 -0.749484 3.80794 0
M  V30 333 H 27.8569 -2.80746 2.44974 0
M  V30 334 H 27.9699 -2.22655 4.24219 0
M  V30 335 H 26.3339 -1.26851 2.20864 0
M  V30 336 H 27.1169 -0.128149 3.43061 0
M  V30 337 N 29.562 -1.4872 -0.521534 0
M  V30 338 C 30.787 -1.61101 -1.30618 0
M  V30 339 C 31.212 -0.274611 -1.86085 0
M  V30 340 O 30.57 0.754937 -1.64834 0
M  V30 341 C 30.618 -2.66709 -2.4269 0
M  V30 342 O 29.722 -2.24456 -3.45967 0
M  V30 343 H 29.063 -0.539921 -0.386499 0
M  V30 344 H 31.593 -1.94767 -0.626645 0
M  V30 345 H 31.603 -2.88245 -2.88754 0
M  V30 346 H 30.278 -3.63727 -2.01682 0
M  V30 347 H 28.855 -2.13168 -3.05964 0
M  V30 348 N 31.0401 0.771051 -1.3745 0
M  V30 349 C 31.9721 1.89352 -1.29146 0
M  V30 350 C 32.9851 1.61477 -0.207124 0
M  V30 351 O 34.1741 1.72382 -0.463324 0
M  V30 352 C 31.2741 3.24596 -0.974195 0
M  V30 353 C 30.4471 3.80111 -2.16413 0
M  V30 354 C 29.5061 4.93832 -1.81703 0
M  V30 355 O 28.5321 5.09382 -2.54006 0
M  V30 356 N 29.7341 5.75483 -0.761573 0
M  V30 357 H 32.4991 1.96991 -2.25864 0
M  V30 358 H 30.0601 0.950191 -1.31084 0
M  V30 359 H 32.0521 3.98193 -0.722828 0
M  V30 360 H 30.6221 3.12454 -0.0955527 0
M  V30 361 H 29.8421 2.98284 -2.57721 0
M  V30 362 H 31.1301 4.13932 -2.95867 0
M  V30 363 H 30.5281 5.65469 -0.161609 0
M  V30 364 H 29.0851 6.49302 -0.570064 0
M  V30 365 N 32.5182 1.22032 0.997298 0
M  V30 366 C 33.4682 0.953838 2.07089 0
M  V30 367 C 34.4522 -0.0938669 1.60626 0
M  V30 368 O 35.6442 0.116078 1.76619 0
M  V30 369 C 32.7732 0.528726 3.39204 0
M  V30 370 C 31.8592 1.61092 3.92314 0
M  V30 371 N 32.2502 2.83768 4.18699 0
M  V30 372 C 30.5482 1.48158 4.20672 0
M  V30 373 C 31.2492 3.53715 4.61802 0
M  V30 374 N 30.2252 2.81174 4.65233 0
M  V30 375 H 34.0272 1.88577 2.25424 0
M  V30 376 H 31.5412 1.11719 1.17867 0
M  V30 377 H 33.5382 0.31915 4.15677 0
M  V30 378 H 32.1982 -0.39635 3.22272 0
M  V30 379 H 33.2092 3.20238 4.07023 0
M  V30 380 H 29.8862 0.622369 4.12835 0
M  V30 381 H 31.2762 4.58793 4.90875 0
M  V30 382 N 33.9963 -1.19345 1.0293 0
M  V30 383 C 35.2263 -1.92717 0.744563 0
M  V30 384 C 35.6343 -1.75751 -0.700579 0
M  V30 385 O 34.9773 -1.07703 -1.48815 0
M  V30 386 C 35.0393 -3.44828 1.01657 0
M  V30 387 C 34.7033 -3.85564 2.45335 0
M  V30 388 C 35.7003 -3.90286 3.43472 0
M  V30 389 C 33.3853 -4.1719 2.79746 0
M  V30 390 C 35.3793 -4.26065 4.74075 0
M  V30 391 C 33.0663 -4.52642 4.10559 0
M  V30 392 C 34.0643 -4.57054 5.07534 0
M  V30 393 O 33.7523 -4.91685 6.36004 0
M  V30 394 H 33.4843 -0.618977 0.271742 0
M  V30 395 H 36.0383 -1.52415 1.37691 0
M  V30 396 H 34.2683 -3.85314 0.327084 0
M  V30 397 H 35.9573 -3.99437 0.721427 0
M  V30 398 H 36.7233 -3.66002 3.18225 0
M  V30 399 H 32.6023 -4.1294 2.04943 0
M  V30 400 H 36.1463 -4.29423 5.49765 0
M  V30 401 H 32.0433 -4.76383 4.35579 0
M  V30 402 H 32.8113 -5.09631 6.40483 0
M  V30 403 N 35.4744 -0.807222 -1.35358 0
M  V30 404 C 36.7204 -0.388463 -1.99045 0
M  V30 405 C 37.0534 1.04184 -1.63888 0
M  V30 406 O 36.3284 1.72292 -0.902535 0
M  V30 407 C 36.6114 -0.572783 -3.55515 0
M  V30 408 C 36.4644 -2.04807 -4.00468 0
M  V30 409 C 37.7834 0.00114064 -4.401 0
M  V30 410 H 34.9024 -0.142619 -0.723069 0
M  V30 411 H 37.5444 -1.01687 -1.60498 0
M  V30 412 H 35.6944 -0.0378425 -3.88482 0
M  V30 413 H 37.3664 -2.64544 -3.77908 0
M  V30 414 H 35.6094 -2.54427 -3.51353 0
M  V30 415 H 36.2804 -2.12792 -5.09337 0
M  V30 416 H 38.7564 -0.455716 -4.13597 0
M  V30 417 H 37.6324 -0.157737 -5.48673 0
M  V30 418 H 37.8934 1.09488 -4.28328 0
M  V30 419 N 36.9525 1.47285 -0.560781 0
M  V30 420 C 38.1825 2.06555 -0.0429638 0
M  V30 421 C 38.5905 1.41339 1.25777 0
M  V30 422 O 37.9335 0.505182 1.76617 0
M  V30 423 C 37.9955 3.58827 0.219887 0
M  V30 424 C 37.6595 4.46105 -0.991944 0
M  V30 425 C 38.6565 4.84 -1.89843 0
M  V30 426 C 36.3415 4.87567 -1.20762 0
M  V30 427 C 38.3355 5.6216 -3.00425 0
M  V30 428 C 36.0225 5.65491 -2.31653 0
M  V30 429 C 37.0205 6.02699 -3.21315 0
M  V30 430 O 36.7085 6.79052 -4.30283 0
M  V30 431 H 36.4405 0.674537 -0.0444468 0
M  V30 432 H 38.9945 1.90225 -0.774818 0
M  V30 433 H 37.2245 3.73383 1.00609 0
M  V30 434 H 38.9135 4.00103 0.683522 0
M  V30 435 H 39.6795 4.52564 -1.74387 0
M  V30 436 H 35.5585 4.5807 -0.518893 0
M  V30 437 H 39.1025 5.9112 -3.70436 0
M  V30 438 H 34.9995 5.9634 -2.47081 0
M  V30 439 H 35.7675 6.9745 -4.28376 0
M  V30 440 N 38.4306 0.297415 1.54768 0
M  V30 441 C 39.3636 -0.622188 2.19554 0
M  V30 442 C 40.3416 -1.13558 1.16376 0
M  V30 443 O 41.5256 -1.20444 1.45002 0
M  V30 444 C 38.6526 -1.8509 2.83653 0
M  V30 445 C 37.6986 -1.47106 4.00328 0
M  V30 446 S 38.5316 -0.53006 5.3287 0
M  V30 447 C 39.6876 -1.76665 6.0045 0
M  V30 448 H 39.9206 -0.0717806 2.97213 0
M  V30 449 H 37.4536 0.0815678 1.54184 0
M  V30 450 H 39.4116 -2.55605 3.21211 0
M  V30 451 H 38.0726 -2.37247 2.05846 0
M  V30 452 H 37.2656 -2.38594 4.43947 0
M  V30 453 H 36.8676 -0.845885 3.64309 0
M  V30 454 H 39.1596 -2.7077 6.21039 0
M  V30 455 H 40.1026 -1.37308 6.9466 0
M  V30 456 H 40.5106 -1.94174 5.30054 0
M  V30 457 N 39.9087 -1.5758 0.0250728 0
M  V30 458 C 41.1557 -1.91633 -0.654444 0
M  V30 459 C 41.4837 -0.901103 -1.72367 0
M  V30 460 O 40.7387 0.0905647 -1.9549 0
M  V30 461 C 41.0377 -3.32421 -1.31268 0
M  V30 462 C 40.7037 -4.49344 -0.374223 0
M  V30 463 C 39.3657 -4.8106 -0.115911 0
M  V30 464 C 41.7177 -5.20498 0.270432 0
M  V30 465 C 39.0457 -5.8129 0.79493 0
M  V30 466 C 41.3977 -6.21699 1.1693 0
M  V30 467 C 40.0617 -6.51859 1.43655 0
M  V30 468 H 39.3317 -0.701236 -0.239478 0
M  V30 469 H 41.9787 -1.91307 0.0859734 0
M  V30 470 H 40.2837 -3.28989 -2.12775 0
M  V30 471 H 41.9807 -3.56038 -1.84494 0
M  V30 472 H 38.5707 -4.24579 -0.58573 0
M  V30 473 H 42.7547 -4.96229 0.0839194 0
M  V30 474 H 38.0107 -6.03005 1.00973 0
M  V30 475 H 42.1847 -6.75955 1.67504 0
M  V30 476 H 39.8117 -7.2934 2.144 0
M  V30 477 N 41.3868 0.248026 -1.55636 0
M  V30 478 C 42.3168 1.31079 -1.93237 0
M  V30 479 C 43.2978 1.50264 -0.797174 0
M  V30 480 O 44.4828 1.62891 -1.05737 0
M  V30 481 C 41.6128 2.66575 -2.22609 0
M  V30 482 C 40.5668 2.62087 -3.3837 0
M  V30 483 C 39.8928 4.01369 -3.53281 0
M  V30 484 C 41.1928 2.19171 -4.7409 0
M  V30 485 H 42.8868 0.998556 -2.82257 0
M  V30 486 H 40.4328 0.47891 -1.35803 0
M  V30 487 H 42.3858 3.41057 -2.47503 0
M  V30 488 H 41.1098 2.99432 -1.30414 0
M  V30 489 H 39.7688 1.90063 -3.13483 0
M  V30 490 H 39.4168 4.31489 -2.58508 0
M  V30 491 H 39.1168 3.99254 -4.31127 0
M  V30 492 H 40.6408 4.77552 -3.80495 0
M  V30 493 H 42.0548 2.83384 -4.98363 0
M  V30 494 H 40.4518 2.2817 -5.5503 0
M  V30 495 H 41.5218 1.14336 -4.71227 0
M  V30 496 N 42.8649 1.48995 0.513639 0
M  V30 497 C 44.1109 1.58076 1.27042 0
M  V30 498 C 44.4439 0.261026 1.92438 0
M  V30 499 O 43.7189 -0.734393 1.80103 0
M  V30 500 C 44.0019 2.73091 2.34719 0
M  V30 501 C 43.8549 4.14821 1.73907 0
M  V30 502 C 45.1739 2.83796 3.36375 0
M  V30 503 H 42.2929 0.575391 0.460536 0
M  V30 504 H 44.9349 1.81232 0.570516 0
M  V30 505 H 43.0849 2.53479 2.94416 0
M  V30 506 H 44.7569 4.45917 1.18135 0
M  V30 507 H 42.9999 4.21058 1.0437 0
M  V30 508 H 43.6709 4.91147 2.51949 0
M  V30 509 H 46.1469 3.01611 2.86653 0
M  V30 510 H 45.0229 3.65971 4.09093 0
M  V30 511 H 45.2839 1.92624 3.9793 0
M  V30 512 N 44.343 -0.763751 1.37857 0
M  V30 513 C 45.29 -1.87726 1.34267 0
M  V30 514 C 46.26 -1.64807 0.206879 0
M  V30 515 O 47.445 -1.86613 0.397508 0
M  V30 516 C 44.585 -3.24896 1.16346 0
M  V30 517 C 43.698 -3.59716 2.39225 0
M  V30 518 C 42.833 -4.86137 2.14114 0
M  V30 519 C 41.872 -5.13711 3.32817 0
M  V30 520 N 41.009 -6.31323 3.07206 0
M  V30 521 H 45.849 -1.90129 2.29466 0
M  V30 522 H 43.386 -0.929433 1.14017 0
M  V30 523 H 45.344 -4.04036 1.03975 0
M  V30 524 H 43.974 -3.21847 0.247909 0
M  V30 525 H 43.026 -2.75498 2.62307 0
M  V30 526 H 44.338 -3.76027 3.27728 0
M  V30 527 H 43.492 -5.73198 1.9882 0
M  V30 528 H 42.231 -4.71945 1.22961 0
M  V30 529 H 41.236 -4.25123 3.48641 0
M  V30 530 H 42.461 -5.29807 4.24832 0
M  V30 531 H 40.407 -6.18474 2.1869 0
M  V30 532 H 40.324 -6.48087 3.89254 0
M  V30 533 H 41.592 -7.213 2.95546 0
M  V30 534 N 45.8211 -1.22559 -0.990812 0
M  V30 535 C 47.0671 -1.06303 -1.73411 0
M  V30 536 C 47.4221 0.397442 -1.8825 0
M  V30 537 O 46.7151 1.29062 -1.41611 0
M  V30 538 C 46.9091 -1.71011 -3.13831 0
M  V30 539 C 46.7381 -3.232 -3.12685 0
M  V30 540 C 45.5081 -3.92314 -3.18461 0
M  V30 541 C 47.7061 -4.20107 -2.96673 0
M  V30 542 N 45.6881 -5.31571 -3.07091 0
M  V30 543 C 47.0591 -5.46208 -2.93354 0
M  V30 544 C 49.1141 -4.10973 -2.8108 0
M  V30 545 C 47.8171 -6.64225 -2.76039 0
M  V30 546 C 49.8431 -5.28642 -2.65126 0
M  V30 547 C 49.2051 -6.53663 -2.62496 0
M  V30 548 H 45.3041 -0.443441 -0.644115 0
M  V30 549 H 47.8881 -1.55131 -1.17654 0
M  V30 550 H 46.0591 -1.2473 -3.67827 0
M  V30 551 H 47.7911 -1.47828 -3.76735 0
M  V30 552 H 44.5461 -3.43326 -3.26227 0
M  V30 553 H 44.9701 -6.0455 -3.0471 0
M  V30 554 H 49.6121 -3.15098 -2.8191 0
M  V30 555 H 47.3301 -7.60246 -2.73954 0
M  V30 556 H 50.9161 -5.23407 -2.54039 0
M  V30 557 H 49.7961 -7.43182 -2.50302 0
M  V30 558 N 47.2992 1.18797 -1.03562 0
M  V30 559 C 48.2312 2.21731 -0.580337 0
M  V30 560 C 49.2442 1.59051 0.347349 0
M  V30 561 O 50.4332 1.77929 0.142669 0
M  V30 562 C 47.5332 3.38459 0.172805 0
M  V30 563 C 46.7062 4.3072 -0.761496 0
M  V30 564 C 45.7652 5.26174 -0.0525547 0
M  V30 565 O 44.7912 5.65108 -0.681333 0
M  V30 566 N 45.9932 5.67624 1.21586 0
M  V30 567 H 48.7582 2.61417 -1.46565 0
M  V30 568 H 46.3192 1.33531 -0.915476 0
M  V30 569 H 48.3112 3.99335 0.656793 0
M  V30 570 H 46.8812 2.97507 0.959602 0
M  V30 571 H 46.1012 3.67525 -1.42544 0
M  V30 572 H 47.3892 4.89267 -1.39626 0
M  V30 573 H 46.7872 5.38038 1.74732 0
M  V30 574 H 45.3442 6.30721 1.64421 0
M  V30 575 N 48.7773 0.814389 1.34928 0
M  V30 576 C 50.0543 0.321363 1.92942 0
M  V30 577 C 50.4343 -1.19014 1.74353 0
M  V30 578 O 49.7823 -1.99328 1.11716 0
M  V30 579 C 49.9923 0.741323 3.41036 0
M  V30 580 C 51.3403 0.735266 4.18185 0
M  V30 581 O 52.3643 0.68336 3.49584 0
M  V30 582 O 51.2233 0.800703 5.40602 0
M  V30 583 H 48.3173 0.0858893 0.822528 0
M  V30 584 H 50.8633 0.898609 1.43955 0
M  V30 585 H 49.6353 1.78276 3.4833 0
M  V30 586 H 49.2583 0.139307 3.97356 0
M  V30 587 N 50.2554 -1.46986 0.568584 0
M  V30 588 C 51.1854 -2.32946 -0.160753 0
M  V30 589 C 52.1664 -1.44487 -0.897631 0
M  V30 590 O 53.3514 -1.73327 -0.875867 0
M  V30 591 C 50.4814 -3.26494 -1.18403 0
M  V30 592 C 49.4354 -4.24282 -0.562895 0
M  V30 593 C 48.7614 -5.07236 -1.69163 0
M  V30 594 C 50.0614 -5.19989 0.490761 0
M  V30 595 H 51.7554 -2.94175 0.556916 0
M  V30 596 H 49.3014 -1.4146 0.26927 0
M  V30 597 H 51.2544 -3.85477 -1.70251 0
M  V30 598 H 49.9784 -2.63343 -1.93179 0
M  V30 599 H 48.6374 -3.66541 -0.0656164 0
M  V30 600 H 48.2854 -4.4048 -2.42871 0
M  V30 601 H 47.9854 -5.7345 -1.28174 0
M  V30 602 H 49.5094 -5.6908 -2.21314 0
M  V30 603 H 50.9234 -5.73271 0.0579047 0
M  V30 604 H 49.3204 -5.94469 0.820165 0
M  V30 605 H 50.3904 -4.64777 1.3824 0
M  V30 606 N 51.7335 -0.305618 -1.54608 0
M  V30 607 C 52.9585 0.307562 -2.05107 0
M  V30 608 C 53.3835 1.46385 -1.18123 0
M  V30 609 O 52.7415 1.8034 -0.186324 0
M  V30 610 C 52.7895 0.73704 -3.52987 0
M  V30 611 O 51.8935 1.84134 -3.6901 0
M  V30 612 H 51.2345 0.0589143 -0.661381 0
M  V30 613 H 53.7645 -0.448807 -1.99617 0
M  V30 614 H 53.7745 1.02459 -3.94925 0
M  V30 615 H 52.4495 -0.108773 -4.15758 0
M  V30 616 H 51.0265 1.55398 -3.38978 0
M  V30 617 N 53.2116 1.57565 -0.0334293 0
M  V30 618 C 54.1216 2.13943 0.962572 0
M  V30 619 C 55.1376 1.09276 1.35406 0
M  V30 620 O 56.3136 1.41355 1.4346 0
M  V30 621 C 53.3786 2.65887 2.22497 0
M  V30 622 C 52.4396 3.85286 1.8935 0
M  V30 623 C 51.6726 4.34743 3.09571 0
M  V30 624 O 51.8956 3.83352 4.22371 0
M  V30 625 O 50.8296 5.26538 2.91618 0
M  V30 626 H 54.6556 2.99333 0.513169 0
M  V30 627 H 52.2406 1.4822 0.18743 0
M  V30 628 H 54.1226 2.99346 2.96598 0
M  V30 629 H 52.7976 1.83578 2.6661 0
M  V30 630 H 51.7046 3.56746 1.1262 0
M  V30 631 H 53.0376 4.68771 1.5005 0
M  V30 632 N 54.6897 -0.239769 1.55765 0
M  V30 633 C 55.6367 -1.29696 1.90913 0
M  V30 634 C 56.6067 -1.47478 0.764164 0
M  V30 635 O 57.7917 -1.61345 1.01845 0
M  V30 636 C 54.9317 -2.64598 2.21544 0
M  V30 637 C 54.0447 -2.54765 3.48882 0
M  V30 638 C 53.1797 -3.82069 3.69049 0
M  V30 639 C 52.2187 -3.66883 4.89963 0
M  V30 640 N 51.3557 -4.86094 5.06614 0
M  V30 641 H 56.1957 -0.990224 2.81067 0
M  V30 642 H 53.7327 -0.477684 1.39128 0
M  V30 643 H 55.6907 -3.43132 2.3731 0
M  V30 644 H 54.3207 -2.93405 1.34585 0
M  V30 645 H 53.3727 -1.67763 3.41409 0
M  V30 646 H 54.6847 -2.39457 4.37563 0
M  V30 647 H 53.8387 -4.69046 3.84812 0
M  V30 648 H 52.5777 -4.00282 2.78614 0
M  V30 649 H 51.5827 -2.78289 4.74168 0
M  V30 650 H 52.8077 -3.50157 5.81865 0
M  V30 651 H 50.7537 -5.04655 4.19117 0
M  V30 652 H 50.6707 -4.73443 5.89396 0
M  V30 653 H 51.9387 -5.74549 5.26795 0
M  V30 654 N 56.1678 -1.49265 -0.50573 0
M  V30 655 C 57.4138 -1.58748 -1.26202 0
M  V30 656 C 57.7468 -0.271227 -1.92297 0
M  V30 657 O 57.0218 0.724831 -1.80489 0
M  V30 658 C 57.3048 -2.74332 -2.33268 0
M  V30 659 C 57.1578 -4.15737 -1.71705 0
M  V30 660 C 58.4768 -2.85576 -3.34865 0
M  V30 661 H 55.5958 -0.577826 -0.457478 0
M  V30 662 H 58.2378 -1.81532 -0.560897 0
M  V30 663 H 56.3878 -2.55036 -2.93068 0
M  V30 664 H 58.0598 -4.46537 -1.15769 0
M  V30 665 H 56.3028 -4.21605 -1.02135 0
M  V30 666 H 56.9738 -4.92477 -2.49341 0
M  V30 667 H 59.4498 -3.03127 -2.8505 0
M  V30 668 H 58.3258 -3.68135 -4.07146 0
M  V30 669 H 58.5868 -1.94732 -3.96903 0
M  V30 670 N 57.6459 0.756429 -1.3826 0
M  V30 671 C 58.8919 1.51772 -1.34511 0
M  V30 672 C 59.2249 1.94089 0.0656691 0
M  V30 673 O 58.4999 1.65221 1.02626 0
M  V30 674 C 58.7829 2.77226 -2.29821 0
M  V30 675 C 58.6359 2.41065 -3.79747 0
M  V30 676 C 59.9549 3.79236 -2.23312 0
M  V30 677 H 57.0739 0.550578 -0.489931 0
M  V30 678 H 59.7159 0.866607 -1.69086 0
M  V30 679 H 57.8659 3.32784 -2.00467 0
M  V30 680 H 59.5379 1.91303 -4.19763 0
M  V30 681 H 57.7809 1.7356 -3.97567 0
M  V30 682 H 58.4519 3.3081 -4.41892 0
M  V30 683 H 60.9279 3.3321 -2.49219 0
M  V30 684 H 59.8039 4.64714 -2.92116 0
M  V30 685 H 60.0649 4.24615 -1.23102 0
M  V30 686 N 59.124 1.23083 0.984299 0
M  V30 687 C 60.354 1.08556 1.75781 0
M  V30 688 C 60.762 -0.366171 1.85623 0
M  V30 689 O 60.105 -1.26524 1.33182 0
M  V30 690 C 60.167 1.63208 3.20318 0
M  V30 691 C 59.831 3.11922 3.33997 0
M  V30 692 C 60.828 4.09259 3.2063 0
M  V30 693 C 58.513 3.51552 3.58771 0
M  V30 694 C 60.507 5.4421 3.31835 0
M  V30 695 C 58.194 4.86649 3.69616 0
M  V30 696 C 59.192 5.82787 3.56157 0
M  V30 697 O 58.88 7.15431 3.66626 0
M  V30 698 H 58.612 0.380713 0.5586 0
M  V30 699 H 61.166 1.63321 1.2456 0
M  V30 700 H 59.396 1.0286 3.72769 0
M  V30 701 H 61.085 1.44216 3.79416 0
M  V30 702 H 61.851 3.79984 3.01392 0
M  V30 703 H 57.73 2.77239 3.6832 0
M  V30 704 H 61.274 6.1923 3.21247 0
M  V30 705 H 57.171 5.15601 3.88363 0
M  V30 706 H 57.939 7.23127 3.83445 0
M  V30 707 N 60.6021 -1.18246 1.0419 0
M  V30 708 C 62.0181 -1.40269 0.761366 0
M  V30 709 C 62.2181 -1.90777 -0.648578 0
M  V30 710 O 61.2741 -2.0929 -1.41258 0
M  V30 711 C 62.5871 -2.40237 1.8085 0
M  V30 712 C 64.1351 -2.53961 1.82955 0
M  V30 713 C 64.6101 -3.57194 2.86664 0
M  V30 714 N 66.1011 -3.64702 2.85563 0
M  V30 715 C 66.8361 -4.44309 3.6246 0
M  V30 716 N 66.3321 -5.27514 4.49111 0
M  V30 717 N 68.1251 -4.39084 3.50944 0
M  V30 718 H 60.2761 -0.837882 1.95175 0
M  V30 719 H 62.5391 -0.430608 0.84456 0
M  V30 720 H 62.2451 -2.10176 2.81991 0
M  V30 721 H 62.1191 -3.39601 1.64168 0
M  V30 722 H 64.5061 -2.83338 0.824855 0
M  V30 723 H 64.5871 -1.54706 2.03715 0
M  V30 724 H 64.2311 -3.28558 3.87314 0
M  V30 725 H 64.1611 -4.5613 2.6316 0
M  V30 726 H 66.6521 -3.05289 2.22727 0
M  V30 727 H 66.9651 -5.85411 5.04493 0
M  V30 728 H 65.3101 -5.2693 4.53178 0
M  V30 729 H 68.5011 -3.7313 2.82651 0
M  V30 730 H 68.6741 -5.00883 4.11121 0
M  V30 731 N 62.0802 -0.821533 -1.34494 0
M  V30 732 C 63.4962 -0.507117 -1.51329 0
M  V30 733 C 63.6962 0.968964 -1.76673 0
M  V30 734 O 62.7522 1.75348 -1.81685 0
M  V30 735 C 64.0652 -1.36544 -2.67911 0
M  V30 736 C 65.6132 -1.36242 -2.81793 0
M  V30 737 C 66.0882 -2.2052 -4.01416 0
M  V30 738 N 67.5792 -2.18136 -4.08621 0
M  V30 739 C 68.3142 -2.80095 -5.00334 0
M  V30 740 N 67.8102 -3.51039 -5.9728 0
M  V30 741 N 69.6032 -2.69656 -4.93196 0
M  V30 742 H 61.7542 -1.77729 -1.16302 0
M  V30 743 H 64.0172 -0.757291 -0.570276 0
M  V30 744 H 63.7232 -2.41361 -2.55808 0
M  V30 745 H 63.5972 -1.02917 -3.62888 0
M  V30 746 H 65.9842 -0.322041 -2.93338 0
M  V30 747 H 66.0652 -1.73866 -1.87628 0
M  V30 748 H 65.7092 -3.24607 -3.90631 0
M  V30 749 H 65.6392 -1.80247 -4.94791 0
M  V30 750 H 68.1302 -1.6653 -3.39229 0
M  V30 751 H 68.4432 -3.95565 -6.63889 0
M  V30 752 H 66.7882 -3.55145 -5.97409 0
M  V30 753 H 69.9792 -2.13808 -4.16418 0
M  V30 754 H 70.1522 -3.1823 -5.64476 0
M  V30 755 N 63.5583 1.46682 -0.576371 0
M  V30 756 C 64.8053 2.02412 -0.0595339 0
M  V30 757 C 65.1333 1.44859 1.29793 0
M  V30 758 O 64.3883 0.601099 1.8624 0
M  V30 759 C 64.6873 3.57345 0.062886 0
M  V30 760 C 64.3533 4.33908 -1.22616 0
M  V30 761 C 63.0153 4.54544 -1.57933 0
M  V30 762 C 65.3673 4.77919 -2.07948 0
M  V30 763 C 62.6953 5.16444 -2.78393 0
M  V30 764 C 65.0473 5.41149 -3.27629 0
M  V30 765 C 63.7113 5.60014 -3.63236 0
M  V30 766 H 62.9813 0.74068 -0.021785 0
M  V30 767 H 65.6283 1.76128 -0.751735 0
M  V30 768 H 63.9333 3.82729 0.838178 0
M  V30 769 H 65.6303 3.98136 0.478439 0
M  V30 770 H 62.2203 4.18138 -0.941202 0
M  V30 771 H 66.4043 4.61738 -1.81967 0
M  V30 772 H 61.6603 5.29242 -3.06126 0
M  V30 773 H 65.8343 5.74211 -3.94023 0
M  V30 774 H 63.4613 6.07748 -4.56669 0
M  V30 775 N 65.0364 0.313813 1.54444 0
M  V30 776 C 66.2644 -0.293918 2.04802 0
M  V30 777 C 66.6794 -1.46537 1.19047 0
M  V30 778 O 66.0364 -1.81182 0.218939 0
M  V30 779 C 66.0874 -0.737806 3.53891 0
M  V30 780 O 65.8084 0.387038 4.36387 0
M  V30 781 C 67.3094 -1.40936 4.203 0
M  V30 782 H 64.5294 -0.0620057 0.668129 0
M  V30 783 H 67.0734 0.457169 1.99324 0
M  V30 784 H 65.2284 -1.43889 3.59687 0
M  V30 785 H 65.6424 0.0391274 5.24485 0
M  V30 786 H 67.1164 -1.67099 5.26101 0
M  V30 787 H 67.5934 -2.35355 3.70816 0
M  V30 788 H 68.1994 -0.751117 4.18615 0
M  V30 789 N 66.5145 -1.57545 0.0417849 0
M  V30 790 C 67.4245 -2.14451 -0.951213 0
M  V30 791 C 68.4405 -1.09992 -1.34825 0
M  V30 792 O 69.6165 -1.42114 -1.42708 0
M  V30 793 C 66.6815 -2.67063 -2.21084 0
M  V30 794 C 65.7425 -3.86284 -1.87304 0
M  V30 795 C 64.9755 -4.36378 -3.07261 0
M  V30 796 O 65.1985 -3.85587 -4.20332 0
M  V30 797 O 64.1325 -5.28077 -2.88822 0
M  V30 798 H 67.9585 -2.99601 -0.497287 0
M  V30 799 H 65.5435 -1.48317 -0.179567 0
M  V30 800 H 67.4255 -3.00914 -2.95006 0
M  V30 801 H 66.1005 -1.84989 -2.65633 0
M  V30 802 H 65.0075 -3.57338 -1.10727 0
M  V30 803 H 66.3405 -4.6956 -1.47562 0
M  V30 804 N 67.9926 0.231505 -1.5589 0
M  V30 805 C 69.2416 0.955346 -1.7764 0
M  V30 806 C 69.5546 1.85893 -0.608546 0
M  V30 807 O 70.7606 2.62067 -0.70943 0
M  V30 808 C 69.2166 1.74886 -3.14552 0
M  V30 809 C 68.8246 0.891915 -4.39032 0
M  V30 810 C 70.5686 2.46452 -3.45633 0
M  V30 811 C 68.4756 1.68221 -5.66971 0
M  V30 812 H 67.4056 0.360446 -0.662265 0
M  V30 813 H 70.0566 0.209516 -1.823 0
M  V30 814 H 68.4386 2.53723 -3.04041 0
M  V30 815 H 69.6126 0.144793 -4.60572 0
M  V30 816 H 67.9276 0.288863 -4.15397 0
M  V30 817 H 70.5246 3.06061 -4.38441 0
M  V30 818 H 70.8676 3.18841 -2.67668 0
M  V30 819 H 71.4006 1.74613 -3.57428 0
M  V30 820 H 68.1396 1.00178 -6.478 0
M  V30 821 H 67.6596 2.4042 -5.49507 0
M  V30 822 H 69.3386 2.24544 -6.06786 0
M  V30 823 N 69.4707 1.49531 0.497807 0
M  V30 824 C 70.7007 1.62657 1.27382 0
M  V30 825 C 71.1087 0.298488 1.86831 0
M  V30 826 O 70.4517 -0.72647 1.68725 0
M  V30 827 C 70.5137 2.6393 2.44093 0
M  V30 828 C 70.1777 4.08195 2.05489 0
M  V30 829 C 71.1747 4.949 1.59279 0
M  V30 830 C 68.8597 4.53948 2.15026 0
M  V30 831 C 70.8537 6.25397 1.23113 0
M  V30 832 C 68.5407 5.84458 1.78473 0
M  V30 833 C 69.5387 6.70006 1.32591 0
M  V30 834 O 69.2267 7.98083 0.965327 0
M  V30 835 H 68.9587 0.550429 0.392434 0
M  V30 836 H 71.5127 1.96325 0.603801 0
M  V30 837 H 69.7427 2.25449 3.14181 0
M  V30 838 H 71.4317 2.66552 3.06113 0
M  V30 839 H 72.1977 4.60779 1.51354 0
M  V30 840 H 68.0767 3.87525 2.4969 0
M  V30 841 H 71.6207 6.92125 0.872299 0
M  V30 842 H 67.5177 6.18107 1.86048 0
M  V30 843 H 68.2857 8.11122 1.09652 0
M  V30 844 N 70.9488 -0.749086 1.3866 0
M  V30 845 C 71.8588 -1.89358 1.38494 0
M  V30 846 C 72.8748 -1.71708 0.281476 0
M  V30 847 O 74.0508 -1.94554 0.520643 0
M  V30 848 C 71.1158 -3.24782 1.21316 0
M  V30 849 C 70.1768 -3.54926 2.41508 0
M  V30 850 C 69.4098 -4.83888 2.2514 0
M  V30 851 O 69.6328 -5.56592 1.24746 0
M  V30 852 O 68.5668 -5.13612 3.13826 0
M  V30 853 H 72.3928 -1.92452 2.34938 0
M  V30 854 H 69.9778 -0.894981 1.19626 0
M  V30 855 H 71.8598 -4.05739 1.13814 0
M  V30 856 H 70.5348 -3.2249 0.279592 0
M  V30 857 H 69.4418 -2.74112 2.54585 0
M  V30 858 H 70.7748 -3.61983 3.3351 0
M  V30 859 N 72.4269 -1.23603 -0.977757 0
M  V30 860 C 73.6739 -1.06971 -1.71941 0
M  V30 861 C 74.0019 0.393009 -1.90488 0
M  V30 862 O 73.2569 1.30719 -1.4564 0
M  V30 863 C 73.5559 -1.7433 -3.11999 0
M  V30 864 C 73.2219 -3.24252 -3.13323 0
M  V30 865 C 71.8839 -3.65156 -3.13392 0
M  V30 866 C 74.2359 -4.20141 -3.08433 0
M  V30 867 C 71.5639 -5.00403 -3.0629 0
M  V30 868 C 73.9159 -5.55384 -3.02873 0
M  V30 869 C 72.5799 -5.95647 -3.01265 0
M  V30 870 H 71.8499 -0.391433 -0.629175 0
M  V30 871 H 74.4969 -1.53572 -1.14403 0
M  V30 872 H 72.8019 -1.20096 -3.7294 0
M  V30 873 H 74.4989 -1.58936 -3.68158 0
M  V30 874 H 71.0889 -2.91692 -3.14029 0
M  V30 875 H 75.2729 -3.89547 -3.07517 0
M  V30 876 H 70.5289 -5.3081 -3.03399 0
M  V30 877 H 74.7029 -6.29398 -2.98046 0
M  V30 878 H 72.3299 -7.0041 -2.95516 0
M  V30 879 N 73.905 1.17692 -1.04816 0
M  V30 880 C 74.855 2.1952 -0.616042 0
M  V30 881 C 75.839 1.57147 0.345485 0
M  V30 882 O 77.031 1.76245 0.163325 0
M  V30 883 C 74.16 3.43298 0.0116917 0
M  V30 884 C 73.246 4.12777 -0.973435 0
M  V30 885 N 73.637 4.5814 -2.14339 0
M  V30 886 C 71.935 4.38747 -0.80108 0
M  V30 887 C 72.636 5.11713 -2.7663 0
M  V30 888 N 71.612 5.03686 -2.04453 0
M  V30 889 H 75.414 2.52293 -1.5075 0
M  V30 890 H 72.928 1.3398 -0.917776 0
M  V30 891 H 74.925 4.15519 0.339006 0
M  V30 892 H 73.585 3.12018 0.898593 0
M  V30 893 H 74.596 4.52349 -2.52191 0
M  V30 894 H 71.273 4.17485 0.0350934 0
M  V30 895 H 72.663 5.56962 -3.75823 0
M  V30 896 N 75.3831 0.828654 1.34056 0
M  V30 897 C 76.3301 0.252567 2.29414 0
M  V30 898 C 77.3001 -0.62588 1.53857 0
M  V30 899 O 78.4851 -0.566312 1.82202 0
M  V30 900 C 75.6251 -0.574831 3.40279 0
M  V30 901 C 74.7381 0.326499 4.30764 0
M  V30 902 C 73.8731 -0.511016 5.28736 0
M  V30 903 C 72.9121 0.389342 6.1086 0
M  V30 904 N 72.0491 -0.409439 7.00905 0
M  V30 905 H 76.8891 1.07108 2.78086 0
M  V30 906 H 74.4261 0.539677 1.36843 0
M  V30 907 H 76.3841 -1.06992 4.03248 0
M  V30 908 H 75.0141 -1.35841 2.92826 0
M  V30 909 H 74.0661 0.939837 3.68607 0
M  V30 910 H 75.3781 1.01857 4.88289 0
M  V30 911 H 74.5321 -1.07035 5.97184 0
M  V30 912 H 73.2711 -1.23657 4.71763 0
M  V30 913 H 72.2761 0.960769 5.4134 0
M  V30 914 H 73.5011 1.1131 6.69916 0
M  V30 915 H 71.4471 -1.11856 6.46393 0
M  V30 916 H 71.3641 0.224126 7.55668 0
M  V30 917 H 72.6321 -0.951336 7.73673 0
M  V30 918 N 76.8612 -1.46375 0.584142 0
M  V30 919 C 78.0892 -2.06761 0.0759296 0
M  V30 920 C 78.5042 -1.43266 -1.22965 0
M  V30 921 O 77.8612 -0.538458 -1.74376 0
M  V30 922 C 77.9122 -3.61375 -0.0950384 0
M  V30 923 O 77.6332 -4.22495 1.15887 0
M  V30 924 C 79.1342 -4.38693 -0.637434 0
M  V30 925 H 76.3542 -0.668479 0.0581075 0
M  V30 926 H 78.8982 -1.8798 0.805218 0
M  V30 927 H 77.0532 -3.79578 -0.774554 0
M  V30 928 H 77.4672 -5.15385 0.973598 0
M  V30 929 H 78.9412 -5.47464 -0.706237 0
M  V30 930 H 79.4182 -4.06836 -1.65472 0
M  V30 931 H 80.0242 -4.25299 0.00725967 0
M  V30 932 N 78.3393 -0.321999 -1.54275 0
M  V30 933 C 79.2693 0.537411 -2.27231 0
M  V30 934 C 80.2503 1.12064 -1.27968 0
M  V30 935 O 81.4353 1.14606 -1.56777 0
M  V30 936 C 78.5653 1.69919 -3.02894 0
M  V30 937 C 77.5193 1.24534 -4.09482 0
M  V30 938 C 76.8453 2.49394 -4.72977 0
M  V30 939 C 78.1453 0.361335 -5.21049 0
M  V30 940 H 79.8393 -0.0711406 -2.99315 0
M  V30 941 H 77.3853 -0.0356555 -1.43956 0
M  V30 942 H 79.3383 2.30668 -3.52662 0
M  V30 943 H 78.0623 2.33431 -2.28424 0
M  V30 944 H 76.7213 0.660782 -3.60596 0
M  V30 945 H 76.3693 3.11265 -3.95124 0
M  V30 946 H 76.0693 2.19718 -5.44975 0
M  V30 947 H 77.5933 3.10908 -5.25517 0
M  V30 948 H 79.0073 0.875072 -5.66582 0
M  V30 949 H 77.4043 0.157428 -5.99893 0
M  V30 950 H 78.4743 -0.60822 -4.8107 0
M  V30 951 N 79.8174 1.5752 -0.0501392 0
M  V30 952 C 80.7644 2.1147 0.924603 0
M  V30 953 C 81.7344 1.02182 1.30951 0
M  V30 954 O 82.9194 1.29723 1.39916 0
M  V30 955 C 80.0594 2.66337 2.19451 0
M  V30 956 C 79.1724 3.89708 1.86418 0
M  V30 957 C 78.3074 4.32893 3.07859 0
M  V30 958 C 77.3464 5.48967 2.70742 0
M  V30 959 N 76.4834 5.87211 3.84874 0
M  V30 960 H 81.3234 2.94465 0.457639 0
M  V30 961 H 78.8604 1.45531 0.214266 0
M  V30 962 H 80.8184 2.96247 2.93758 0
M  V30 963 H 79.4484 1.86141 2.63726 0
M  V30 964 H 78.5004 3.66396 1.02264 0
M  V30 965 H 79.8124 4.74074 1.55096 0
M  V30 966 H 78.9664 4.6435 3.90466 0
M  V30 967 H 77.7054 3.47336 3.42358 0
M  V30 968 H 76.7104 5.17183 1.86551 0
M  V30 969 H 77.9354 6.3624 2.37436 0
M  V30 970 H 75.8814 5.04607 4.19175 0
M  V30 971 H 75.7984 6.66266 3.57247 0
M  V30 972 H 77.0664 6.23282 4.68123 0
M  V30 973 N 81.2955 -0.223234 1.56011 0
M  V30 974 C 82.2055 -1.29766 1.95443 0
M  V30 975 C 83.2215 -1.51373 0.858028 0
M  V30 976 O 84.3975 -1.64536 1.16146 0
M  V30 977 C 81.4625 -2.62772 2.26167 0
M  V30 978 C 80.5235 -2.49482 3.49367 0
M  V30 979 C 79.7565 -3.76145 3.78616 0
M  V30 980 O 79.9795 -4.79087 3.09568 0
M  V30 981 O 78.9135 -3.73358 4.72109 0
M  V30 982 H 82.7395 -0.99309 2.87004 0
M  V30 983 H 80.3245 -0.425958 1.43199 0
M  V30 984 H 82.2065 -3.41327 2.47131 0
M  V30 985 H 80.8815 -2.92913 1.37781 0
M  V30 986 H 79.7885 -1.69133 3.33684 0
M  V30 987 H 81.1215 -2.2428 4.38131 0
M  V30 988 N 82.7736 -1.49793 -0.48987 0
M  V30 989 C 83.7066 -1.61898 -1.60823 0
M  V30 990 C 84.6846 -0.467651 -1.5573 0
M  V30 991 O 85.8686 -0.684682 -1.75626 0
M  V30 992 C 82.9956 -1.58422 -2.99366 0
M  V30 993 C 82.0416 -2.78889 -3.22682 0
M  V30 994 S 82.8746 -4.40429 -3.04602 0
M  V30 995 C 84.0306 -4.39617 -4.4552 0
M  V30 996 H 84.2636 -2.56502 -1.50312 0
M  V30 997 H 81.7966 -1.38822 -0.675849 0
M  V30 998 H 83.7546 -1.57103 -3.79248 0
M  V30 999 H 82.4156 -0.650866 -3.07283 0
M  V30 1000 H 81.6086 -2.72708 -4.23847 0
M  V30 1001 H 81.2106 -2.77678 -2.50541 0
M  V30 1002 H 83.5026 -4.12022 -5.37814 0
M  V30 1003 H 84.4456 -5.41097 -4.56749 0
M  V30 1004 H 84.8536 -3.69554 -4.2672 0
M  V30 1005 N 84.2517 0.741722 -1.39055 0
M  V30 1006 C 85.4987 1.50114 -1.35912 0
M  V30 1007 C 85.8267 1.94443 0.0470937 0
M  V30 1008 O 85.0817 1.66612 1.02659 0
M  V30 1009 C 85.3807 2.7592 -2.27163 0
M  V30 1010 C 85.0467 2.50493 -3.74919 0
M  V30 1011 C 83.7087 2.43267 -4.1518 0
M  V30 1012 C 86.0607 2.28585 -4.684 0
M  V30 1013 C 83.3887 2.12166 -5.46994 0
M  V30 1014 C 85.7407 1.99002 -6.00484 0
M  V30 1015 C 84.4047 1.90241 -6.39816 0
M  V30 1016 H 83.6747 0.549306 -0.497336 0
M  V30 1017 H 86.3217 0.851896 -1.71508 0
M  V30 1018 H 84.6267 3.45553 -1.84663 0
M  V30 1019 H 86.3237 3.33923 -2.22028 0
M  V30 1020 H 82.9137 2.56992 -3.43006 0
M  V30 1021 H 87.0977 2.33139 -4.38132 0
M  V30 1022 H 82.3537 2.03901 -5.76398 0
M  V30 1023 H 86.5277 1.81057 -6.72452 0
M  V30 1024 H 84.1547 1.65907 -7.41875 0
M  V30 1025 N 85.7298 1.2412 0.971189 0
M  V30 1026 C 87.1408 1.07236 1.52831 0
M  V30 1027 C 87.4918 -0.357352 1.92918 0
M  V30 1028 O 86.6168 -1.24528 1.76979 0
M  V30 1029 C 87.2118 1.94043 2.77728 0
M  V30 1030 C 85.7708 1.81394 3.29808 0
M  V30 1031 C 84.9178 1.89189 2.02738 0
M  V30 1032 H 87.8688 1.37648 0.789864 0
M  V30 1033 H 87.8898 1.47066 3.5093 0
M  V30 1034 H 87.4018 2.98093 2.4852 0
M  V30 1035 H 85.5028 0.801634 3.63874 0
M  V30 1036 H 85.6158 2.65294 3.98944 0
M  V30 1037 H 83.9798 1.32877 2.17292 0
M  V30 1038 H 84.7628 2.94812 1.759 0
M  V30 1039 N 87.2079 -1.17134 1.05439 0
M  V30 1040 C 88.4569 -1.86791 0.761049 0
M  V30 1041 C 88.7699 -1.82072 -0.714795 0
M  V30 1042 O 89.9759 -2.47223 -1.12218 0
M  V30 1043 C 88.4319 -3.35166 1.31117 0
M  V30 1044 C 88.0399 -3.48381 2.81664 0
M  V30 1045 C 89.7839 -4.10134 1.09499 0
M  V30 1046 C 87.6909 -4.90793 3.29964 0
M  V30 1047 H 86.6209 -0.699681 0.281002 0
M  V30 1048 H 89.2719 -1.3226 1.27199 0
M  V30 1049 H 87.6539 -3.8925 0.72803 0
M  V30 1050 H 88.8279 -3.04502 3.45855 0
M  V30 1051 H 87.1429 -2.86836 3.01851 0
M  V30 1052 H 89.7399 -5.152 1.43084 0
M  V30 1053 H 90.0829 -4.16287 0.0328772 0
M  V30 1054 H 90.6159 -3.62264 1.64346 0
M  V30 1055 H 87.3549 -4.89816 4.35616 0
M  V30 1056 H 86.8749 -5.35333 2.70516 0
M  V30 1057 H 88.5539 -5.59573 3.24787 0
M  V30 1058 N 88.686 -0.835752 -1.33615 0
M  V30 1059 C 89.596 -0.269088 -2.33052 0
M  V30 1060 C 90.612 0.603251 -1.63208 0
M  V30 1061 O 91.788 0.508112 -1.94885 0
M  V30 1062 C 88.853 0.549091 -3.42324 0
M  V30 1063 C 87.914 -0.347156 -4.27894 0
M  V30 1064 C 87.147 0.43207 -5.31948 0
M  V30 1065 O 87.37 1.66409 -5.45586 0
M  V30 1066 O 86.304 -0.192298 -6.01593 0
M  V30 1067 H 90.13 -1.09243 -2.83372 0
M  V30 1068 H 87.715 -0.598198 -1.36901 0
M  V30 1069 H 89.597 1.01414 -4.09015 0
M  V30 1070 H 88.272 1.34955 -2.94226 0
M  V30 1071 H 87.179 -0.859979 -3.64081 0
M  V30 1072 H 88.512 -1.1123 -4.79467 0
M  V30 1073 N 90.1641 1.46063 -0.591896 0
M  V30 1074 C 91.1271 2.28854 0.125973 0
M  V30 1075 C 92.1271 1.38903 0.810107 0
M  V30 1076 O 93.3171 1.61186 0.66066 0
M  V30 1077 C 90.4491 3.19526 1.1881 0
M  V30 1078 H 91.6421 2.93802 -0.601717 0
M  V30 1079 H 89.1951 1.52325 -0.350254 0
M  V30 1080 H 89.9301 2.59345 1.94707 0
M  V30 1081 H 89.7151 3.85766 0.701936 0
M  V30 1082 H 91.2051 3.81817 1.69132 0
M  V30 1083 N 91.6422 0.330177 1.54103 0
M  V30 1084 C 92.8902 -0.269871 2.0029 0
M  V30 1085 C 93.2112 -1.52133 1.21986 0
M  V30 1086 O 92.4812 -1.93212 0.323438 0
M  V30 1087 H 91.0612 -0.10271 0.739905 0
M  V30 1088 H 93.7232 0.448249 1.89675 0
M  V30 1089 H 92.8192 -0.52166 3.07709 0
M  V30 1090 N 93.1203 -1.57491 0.0584922 0
M  V30 1091 C 94.0833 -2.1085 -0.898617 0
M  V30 1092 C 95.0833 -1.02964 -1.23511 0
M  V30 1093 O 96.2733 -1.29007 -1.17059 0
M  V30 1094 C 93.4053 -2.59881 -2.20623 0
M  V30 1095 H 94.5983 -2.96715 -0.435936 0
M  V30 1096 H 92.1513 -1.55141 -0.190023 0
M  V30 1097 H 92.8863 -1.77431 -2.71457 0
M  V30 1098 H 92.6713 -3.38727 -1.97501 0
M  V30 1099 H 94.1613 -3.01285 -2.89166 0
M  V30 1100 N 94.5984 0.214957 -1.56127 0
M  V30 1101 C 95.8474 0.936451 -1.78643 0
M  V30 1102 C 96.1604 1.85237 -0.628229 0
M  V30 1103 O 97.3664 2.613 -0.737186 0
M  V30 1104 C 95.8224 1.7154 -3.16389 0
M  V30 1105 C 95.4304 0.845299 -4.39953 0
M  V30 1106 C 97.1744 2.42772 -3.48227 0
M  V30 1107 C 95.0814 1.62198 -5.68723 0
M  V30 1108 H 94.0114 0.353401 -0.666051 0
M  V30 1109 H 96.6624 0.190169 -1.82512 0
M  V30 1110 H 95.0444 2.50484 -3.06715 0
M  V30 1111 H 96.2184 0.0959353 -4.607 0
M  V30 1112 H 94.5334 0.244789 -4.1568 0
M  V30 1113 H 97.1304 3.01394 -4.41663 0
M  V30 1114 H 97.4734 3.15984 -2.71035 0
M  V30 1115 H 98.0064 1.70813 -3.5926 0
M  V30 1116 H 94.7454 0.933011 -6.48826 0
M  V30 1117 H 94.2654 2.34579 -5.52026 0
M  V30 1118 H 95.9444 2.18095 -6.09133 0
M  V30 1119 N 96.0765 1.50051 0.48192 0
M  V30 1120 C 97.0245 1.68635 1.60203 0
M  V30 1121 C 98.0185 0.552184 1.60148 0
M  V30 1122 O 99.2245 0.732377 1.64427 0
M  V30 1123 H 95.5995 0.532081 0.531407 0
M  V30 1124 H 97.5705 2.62616 1.41688 0
M  V30 1125 C 96.3195 1.78775 2.9822 0
M  V30 1126 H 95.6425 2.6543 2.98976 0
M  V30 1127 H 97.0825 1.95806 3.7608 0
M  V30 1128 C 95.5415 0.536849 3.32595 0
M  V30 1129 O 96.0715 -0.328897 4.00351 0
M  V30 1130 N 94.2775 0.394091 2.87915 0
M  V30 1131 H 93.8245 1.09962 2.32951 0
M  V30 1132 H 93.7825 -0.441737 3.11281 0
M  V30 1133 N 97.5546 -0.734337 1.39446 0
M  V30 1134 C 98.9656 -1.31264 1.32766 0
M  V30 1135 C 99.3166 -1.96198 -0.00767497 0
M  V30 1136 O 98.4416 -1.96346 -0.909796 0
M  V30 1137 C 99.0366 -2.38682 2.4045 0
M  V30 1138 C 97.5956 -2.92184 2.37288 0
M  V30 1139 C 96.7426 -1.6576 2.22304 0
M  V30 1140 H 99.6936 -0.531799 1.49525 0
M  V30 1141 H 99.7146 -3.19087 2.07276 0
M  V30 1142 H 99.2266 -1.91392 3.37625 0
M  V30 1143 H 97.3276 -3.43752 1.43754 0
M  V30 1144 H 97.4406 -3.45253 3.3217 0
M  V30 1145 H 95.8046 -1.9012 1.69489 0
M  V30 1146 H 96.5876 -1.20521 3.21449 0
M  V30 1147 N 99.0327 -1.24633 -0.964593 0
M  V30 1148 C 99.9427 -1.05859 -2.09359 0
M  V30 1149 C 100.959 0.00148855 -1.74 0
M  V30 1150 O 102.135 -0.197346 -2.00431 0
M  V30 1151 C 99.1997 -0.668879 -3.40187 0
M  V30 1152 C 98.2607 -1.80578 -3.89474 0
M  V30 1153 C 97.4937 -1.43457 -5.14058 0
M  V30 1154 O 97.7167 -0.325775 -5.69469 0
M  V30 1155 O 96.6507 -2.2613 -5.57807 0
M  V30 1156 H 100.477 -2.00516 -2.28094 0
M  V30 1157 H 98.0617 -1.03481 -1.0776 0
M  V30 1158 H 99.9437 -0.463211 -4.18846 0
M  V30 1159 H 98.6187 0.248536 -3.22744 0
M  V30 1160 H 97.5257 -2.06623 -3.11862 0
M  V30 1161 H 98.8587 -2.70208 -4.11398 0
M  V30 1162 N 100.511 1.16574 -1.06058 0
M  V30 1163 C 101.459 2.22941 -0.663343 0
M  V30 1164 C 102.453 1.66358 0.319593 0
M  V30 1165 O 103.659 1.7905 0.184713 0
M  V30 1166 H 100.034 0.725907 -0.196376 0
M  V30 1167 H 102.005 2.53736 -1.57037 0
M  V30 1168 C 100.754 3.47642 -0.0632808 0
M  V30 1169 H 100.077 3.91493 -0.810733 0
M  V30 1170 H 101.517 4.2363 0.177177 0
M  V30 1171 C 99.9758 3.1509 1.19248 0
M  V30 1172 O 100.506 3.30673 2.28075 0
M  V30 1173 N 98.7118 2.6924 1.09353 0
M  V30 1174 H 98.2588 2.5676 0.207912 0
M  V30 1175 H 98.2168 2.47833 1.93458 0
M  V30 1176 N 101.989 0.842826 1.3317 0
M  V30 1177 C 103.405 0.531128 1.50503 0
M  V30 1178 C 103.605 -0.940734 1.78192 0
M  V30 1179 O 102.661 -1.72436 1.84451 0
M  V30 1180 C 103.974 1.40789 2.65705 0
M  V30 1181 C 105.522 1.40708 2.79589 0
M  V30 1182 C 105.997 2.26878 3.97857 0
M  V30 1183 N 107.488 2.24609 4.05099 0
M  V30 1184 C 108.223 2.88019 4.95815 0
M  V30 1185 N 107.719 3.60496 5.9162 0
M  V30 1186 N 109.512 2.77469 4.88843 0
M  V30 1187 H 101.663 1.79557 1.1346 0
M  V30 1188 H 103.926 0.766267 0.558156 0
M  V30 1189 H 103.632 2.454 2.51936 0
M  V30 1190 H 103.506 1.08677 3.61205 0
M  V30 1191 H 105.893 0.368668 2.92788 0
M  V30 1192 H 105.974 1.76829 1.84838 0
M  V30 1193 H 105.618 3.3078 3.85418 0
M  V30 1194 H 105.548 1.88096 4.91861 0
M  V30 1195 H 108.039 1.71906 3.36536 0
M  V30 1196 H 108.352 4.06076 6.57512 0
M  V30 1197 H 106.697 3.64604 5.91683 0
M  V30 1198 H 109.888 2.20406 4.12963 0
M  V30 1199 H 110.061 3.2717 5.59342 0
M  V30 1200 N 103.467 -1.45747 0.599634 0
M  V30 1201 C 104.716 -2.01502 0.0893511 0
M  V30 1202 C 105.029 -1.4748 -1.28488 0
M  V30 1203 O 106.235 -1.95161 -1.88745 0
M  V30 1204 C 104.691 -3.59735 0.109082 0
M  V30 1205 C 104.299 -4.22754 1.48267 0
M  V30 1206 C 106.043 -4.23085 -0.346374 0
M  V30 1207 C 103.95 -5.73115 1.45921 0
M  V30 1208 H 102.88 -0.753417 0.0296347 0
M  V30 1209 H 105.531 -1.67303 0.753788 0
M  V30 1210 H 103.913 -3.91087 -0.621854 0
M  V30 1211 H 105.087 -4.02987 2.23468 0
M  V30 1212 H 103.402 -3.71567 1.87955 0
M  V30 1213 H 105.999 -5.33327 -0.38298 0
M  V30 1214 H 106.342 -3.93201 -1.36743 0
M  V30 1215 H 106.875 -3.9642 0.331038 0
M  V30 1216 H 103.614 -6.07685 2.45762 0
M  V30 1217 H 103.134 -5.95097 0.749665 0
M  V30 1218 H 104.813 -6.3616 1.17941 0
M  V30 1219 N 104.945 -0.338344 -1.53925 0
M  V30 1220 C 106.194 0.260732 -2.00008 0
M  V30 1221 C 106.507 1.52073 -1.23017 0
M  V30 1222 O 107.713 2.19672 -1.5955 0
M  V30 1223 C 106.169 0.51515 -3.56194 0
M  V30 1224 C 105.777 -0.728645 -4.42035 0
M  V30 1225 C 107.521 1.07337 -4.10706 0
M  V30 1226 C 105.428 -0.445315 -5.89721 0
M  V30 1227 H 104.358 0.101205 -0.747177 0
M  V30 1228 H 107.009 -0.452866 -1.77824 0
M  V30 1229 H 105.391 1.28932 -3.74423 0
M  V30 1230 H 106.565 -1.50352 -4.35581 0
M  V30 1231 H 104.88 -1.20813 -3.98489 0
M  V30 1232 H 107.477 1.30022 -5.18651 0
M  V30 1233 H 107.82 2.0273 -3.63602 0
M  V30 1234 H 108.353 0.360034 -3.96167 0
M  V30 1235 H 105.092 -1.36883 -6.41049 0
M  V30 1236 H 104.612 0.291569 -5.99091 0
M  V30 1237 H 106.291 -0.0606218 -6.46972 0
M  V30 1238 N 106.423 1.57458 -0.0668435 0
M  V30 1239 C 107.834 1.80776 0.466558 0
M  V30 1240 C 108.185 0.980361 1.69951 0
M  V30 1241 O 107.31 0.201441 2.1546 0
M  V30 1242 C 107.905 3.27881 0.85321 0
M  V30 1243 C 106.464 3.52062 1.3315 0
M  V30 1244 C 105.611 2.75513 0.314264 0
M  V30 1245 H 108.562 1.5598 -0.292588 0
M  V30 1246 H 108.583 3.39659 1.715 0
M  V30 1247 H 108.095 3.88075 -0.0443439 0
M  V30 1248 H 106.196 2.97167 2.24772 0
M  V30 1249 H 106.309 4.60762 1.31285 0
M  V30 1250 H 104.673 2.42123 0.790492 0
M  V30 1251 H 105.456 3.38442 -0.575477 0
M  V30 1252 N 107.901 -0.206675 1.56239 0
M  V30 1253 C 108.851 -1.26 1.90021 0
M  V30 1254 C 109.835 -1.41566 0.764721 0
M  V30 1255 O 111.027 -1.44131 1.02739 0
M  V30 1256 C 108.156 -2.6073 2.23326 0
M  V30 1257 C 107.242 -2.49005 3.43304 0
M  V30 1258 N 107.633 -2.06946 4.61527 0
M  V30 1259 C 105.931 -2.79927 3.47213 0
M  V30 1260 C 106.632 -2.06832 5.43687 0
M  V30 1261 N 105.608 -2.47892 4.83788 0
M  V30 1262 H 109.41 -0.925955 2.78932 0
M  V30 1263 H 106.924 -0.415172 1.57003 0
M  V30 1264 H 108.921 -3.36798 2.45708 0
M  V30 1265 H 107.581 -2.94968 1.35735 0
M  V30 1266 H 108.592 -1.77839 4.86409 0
M  V30 1267 H 105.269 -3.18438 2.70006 0
M  V30 1268 H 106.659 -1.76312 6.48354 0
M  V30 1269 N 109.379 -1.50304 -0.473955 0
M  V30 1270 C 110.309 -1.71886 -1.58042 0
M  V30 1271 C 111.29 -0.567799 -1.60344 0
M  V30 1272 O 112.475 -0.806623 -1.76656 0
M  V30 1273 C 109.605 -1.81036 -2.96384 0
M  V30 1274 C 108.559 -2.962 -3.08949 0
M  V30 1275 C 107.885 -2.9049 -4.48909 0
M  V30 1276 C 109.185 -4.36752 -2.86434 0
M  V30 1277 H 110.879 -2.64527 -1.40234 0
M  V30 1278 H 108.425 -1.27295 -0.673201 0
M  V30 1279 H 110.378 -1.94719 -3.73714 0
M  V30 1280 H 109.102 -0.850147 -3.15341 0
M  V30 1281 H 107.761 -2.82164 -2.3405 0
M  V30 1282 H 107.409 -1.92321 -4.64781 0
M  V30 1283 H 107.109 -3.67802 -4.58253 0
M  V30 1284 H 108.633 -3.06218 -5.28264 0
M  V30 1285 H 110.047 -4.5133 -3.53517 0
M  V30 1286 H 108.444 -5.15493 -3.07225 0
M  V30 1287 H 109.514 -4.49321 -1.82316 0
M  V30 1288 N 110.857 0.726932 -1.39834 0
M  V30 1289 C 112.268 1.30558 -1.3346 0
M  V30 1290 C 112.619 1.962 -0.00273003 0
M  V30 1291 O 111.744 1.96826 0.899371 0
M  V30 1292 C 112.339 2.37404 -2.41713 0
M  V30 1293 C 110.898 2.90921 -2.38835 0
M  V30 1294 C 110.045 1.64578 -2.2318 0
M  V30 1295 H 112.996 0.523862 -1.49804 0
M  V30 1296 H 113.017 3.17984 -2.08966 0
M  V30 1297 H 112.529 1.89599 -3.38635 0
M  V30 1298 H 110.63 3.42985 -1.45575 0
M  V30 1299 H 110.743 3.43487 -3.33997 0
M  V30 1300 H 109.107 1.89219 -1.70494 0
M  V30 1301 H 109.89 1.18814 -3.22084 0
M  V30 1302 N 112.336 1.25143 0.95797 0
M  V30 1303 C 113.299 1.05321 2.03569 0
M  V30 1304 C 114.299 0.007152 1.60798 0
M  V30 1305 O 115.489 0.24903 1.72411 0
M  V30 1306 C 112.621 0.598394 3.35607 0
M  V30 1307 H 113.814 2.00986 2.22586 0
M  V30 1308 H 111.367 1.07502 1.13459 0
M  V30 1309 H 112.102 -0.361014 3.22284 0
M  V30 1310 H 111.887 1.35351 3.67998 0
M  V30 1311 H 113.377 0.48104 4.1482 0
M  V30 1312 N 113.814 -1.1601 1.06675 0
M  V30 1313 C 115.225 -1.68235 0.809565 0
M  V30 1314 C 115.576 -1.8454 -0.666303 0
M  V30 1315 O 114.701 -1.54374 -1.5165 0
M  V30 1316 C 115.296 -3.05585 1.46299 0
M  V30 1317 C 113.855 -3.54915 1.25349 0
M  V30 1318 C 113.002 -2.30804 1.53703 0
M  V30 1319 H 115.953 -1.00318 1.22971 0
M  V30 1320 H 115.974 -3.70174 0.880431 0
M  V30 1321 H 115.486 -2.93686 2.53713 0
M  V30 1322 H 113.587 -3.72067 0.199261 0
M  V30 1323 H 113.7 -4.36774 1.9689 0
M  V30 1324 H 112.064 -2.36007 0.957739 0
M  V30 1325 H 112.847 -2.21499 2.62284 0
M  V30 1326 N 115.292 -0.849877 -1.32721 0
M  V30 1327 C 116.239 -0.289033 -2.28983 0
M  V30 1328 C 117.209 0.601324 -1.54833 0
M  V30 1329 O 118.394 0.537253 -1.8308 0
M  V30 1330 C 115.534 0.520623 -3.4115 0
M  V30 1331 C 114.647 -0.394989 -4.3019 0
M  V30 1332 C 113.782 0.426834 -5.29482 0
M  V30 1333 C 112.821 -0.486476 -6.10164 0
M  V30 1334 N 111.958 0.297879 -7.01468 0
M  V30 1335 H 116.798 -1.11519 -2.76347 0
M  V30 1336 H 114.335 -0.56138 -1.35967 0
M  V30 1337 H 116.293 1.00563 -4.04899 0
M  V30 1338 H 114.923 1.31165 -2.9495 0
M  V30 1339 H 113.975 -0.99836 -3.67065 0
M  V30 1340 H 115.287 -1.09612 -4.86607 0
M  V30 1341 H 114.441 0.975205 -5.98811 0
M  V30 1342 H 113.18 1.16136 -4.73671 0
M  V30 1343 H 112.185 -1.04677 -5.39743 0
M  V30 1344 H 113.41 -1.21953 -6.6806 0
M  V30 1345 H 111.356 1.01558 -6.48091 0
M  V30 1346 H 111.273 -0.344318 -7.55216 0
M  V30 1347 H 112.541 0.828131 -7.75089 0
M  V30 1348 N 116.77 1.45427 -0.607355 0
M  V30 1349 C 118.016 2.03097 -0.111035 0
M  V30 1350 C 118.371 1.46735 1.24445 0
M  V30 1351 O 117.664 0.632478 1.8086 0
M  V30 1352 C 117.858 3.57398 -0.0129263 0
M  V30 1353 C 117.687 4.28726 -1.35735 0
M  V30 1354 C 116.457 4.66659 -1.93798 0
M  V30 1355 C 118.655 4.60699 -2.28607 0
M  V30 1356 N 116.637 5.22845 -3.21723 0
M  V30 1357 C 118.008 5.17716 -3.41131 0
M  V30 1358 C 120.063 4.42638 -2.27982 0
M  V30 1359 C 118.766 5.58576 -4.53194 0
M  V30 1360 C 120.792 4.84531 -3.39093 0
M  V30 1361 C 120.154 5.4164 -4.50339 0
M  V30 1362 H 116.253 0.777476 -0.083994 0
M  V30 1363 H 118.837 1.77249 -0.805655 0
M  V30 1364 H 117.008 3.82907 0.650914 0
M  V30 1365 H 118.74 4.01722 0.490033 0
M  V30 1366 H 115.495 4.50207 -1.47007 0
M  V30 1367 H 115.919 5.55438 -3.87063 0
M  V30 1368 H 120.561 3.97798 -1.43235 0
M  V30 1369 H 118.279 6.02382 -5.38667 0
M  V30 1370 H 121.865 4.72289 -3.39757 0
M  V30 1371 H 120.745 5.73461 -5.34895 0
M  V30 1372 N 118.248 0.346503 1.53744 0
M  V30 1373 C 119.495 -0.249104 2.00962 0
M  V30 1374 C 119.823 -1.5032 1.23426 0
M  V30 1375 O 119.078 -1.93217 0.310761 0
M  V30 1376 C 119.377 -0.605809 3.52228 0
M  V30 1377 C 119.043 0.551747 4.47512 0
M  V30 1378 C 117.705 0.86941 4.73281 0
M  V30 1379 C 120.057 1.32818 5.03993 0
M  V30 1380 C 117.385 1.96582 5.52786 0
M  V30 1381 C 119.737 2.41486 5.84694 0
M  V30 1382 C 118.401 2.73808 6.08757 0
M  V30 1383 H 117.671 -0.0911538 0.735372 0
M  V30 1384 H 120.318 0.475027 1.85515 0
M  V30 1385 H 118.623 -1.4107 3.65522 0
M  V30 1386 H 120.32 -1.07858 3.86222 0
M  V30 1387 H 116.91 0.294102 4.2759 0
M  V30 1388 H 121.094 1.09602 4.84047 0
M  V30 1389 H 116.35 2.22045 5.69654 0
M  V30 1390 H 120.524 3.02078 6.27473 0
M  V30 1391 H 118.151 3.58892 6.7015 0
M  V30 1392 N 119.726 -1.57421 0.075193 0
M  V30 1393 C 121.003 -1.85029 -0.634329 0
M  V30 1394 C 121.383 -0.968305 -1.87582 0
M  V30 1395 O 120.731 -0.0354749 -2.28472 0
M  V30 1396 C 120.941 -3.35286 -0.968742 0
M  V30 1397 C 122.289 -4.02875 -1.34077 0
M  V30 1398 O 123.313 -3.40051 -1.06037 0
M  V30 1399 O 122.172 -5.13691 -1.86506 0
M  V30 1400 H 119.266 -0.7645 -0.315387 0
M  V30 1401 H 121.812 -1.69366 0.106382 0
M  V30 1402 H 120.584 -3.91203 -0.0871376 0
M  V30 1403 H 120.207 -3.56223 -1.7661 0
M  V30 1404 N 121.204 0.198386 -1.56346 0
M  V30 1405 C 122.452 0.91747 -1.80075 0
M  V30 1406 C 122.773 1.83929 -0.647692 0
M  V30 1407 O 122.043 1.93029 0.334166 0
M  V30 1408 H 120.623 0.341774 -0.664228 0
M  V30 1409 H 123.285 0.204684 -1.93822 0
M  V30 1410 H 122.381 1.51055 -2.7311 0
M  V30 1411 N 122.682 1.50554 0.465978 0
M  V30 1412 C 123.614 1.65949 1.58093 0
M  V30 1413 C 124.627 0.540827 1.53554 0
M  V30 1414 O 125.816 0.814187 1.5885 0
M  V30 1415 C 122.916 1.63261 2.96983 0
M  V30 1416 C 122.089 2.91245 3.26336 0
M  V30 1417 C 121.148 2.8113 4.44806 0
M  V30 1418 O 120.174 3.55086 4.44862 0
M  V30 1419 N 121.376 1.95032 5.46756 0
M  V30 1420 H 124.141 2.62122 1.45301 0
M  V30 1421 H 121.702 1.48082 0.65448 0
M  V30 1422 H 123.694 1.54101 3.74212 0
M  V30 1423 H 122.264 0.748032 3.03518 0
M  V30 1424 H 121.484 3.14493 2.37672 0
M  V30 1425 H 122.772 3.76022 3.42761 0
M  V30 1426 H 122.17 1.3427 5.49534 0
M  V30 1427 H 120.727 1.91772 6.2295 0
M  V30 1428 N 124.16 -0.719506 1.40217 0
M  V30 1429 C 125.576 -1.02707 1.22161 0
M  V30 1430 C 125.776 -2.0128 0.0940557 0
M  V30 1431 O 124.832 -2.46452 -0.549318 0
M  V30 1432 C 126.145 -1.57454 2.56181 0
M  V30 1433 C 127.693 -1.69458 2.63159 0
M  V30 1434 C 128.168 -2.27611 3.97438 0
M  V30 1435 N 129.659 -2.35002 3.99159 0
M  V30 1436 C 130.394 -2.80972 4.99842 0
M  V30 1437 N 129.89 -3.26723 6.10921 0
M  V30 1438 N 131.683 -2.80321 4.87213 0
M  V30 1439 H 123.834 -0.0660492 2.12297 0
M  V30 1440 H 126.097 -0.0919077 0.943534 0
M  V30 1441 H 125.803 -0.924873 3.39321 0
M  V30 1442 H 125.677 -2.56036 2.76993 0
M  V30 1443 H 128.064 -2.33543 1.80393 0
M  V30 1444 H 128.145 -0.694867 2.46181 0
M  V30 1445 H 127.789 -1.6415 4.80643 0
M  V30 1446 H 127.719 -3.2829 4.11744 0
M  V30 1447 H 130.21 -2.02685 3.18947 0
M  V30 1448 H 130.523 -3.60355 6.8364 0
M  V30 1449 H 128.868 -3.24692 6.14492 0
M  V30 1450 H 132.059 -2.43912 3.9953 0
M  V30 1451 H 132.232 -3.15831 5.65822 0
M  V30 1452 N 125.638 -1.25649 -0.95132 0
M  V30 1453 C 126.601 -1.06399 -2.03007 0
M  V30 1454 C 127.601 -0.0156794 -1.60792 0
M  V30 1455 O 128.791 -0.25817 -1.72276 0
M  V30 1456 C 125.923 -0.616184 -3.35285 0
M  V30 1457 H 127.116 -2.02164 -2.21517 0
M  V30 1458 H 124.669 -1.08103 -1.12887 0
M  V30 1459 H 125.404 0.343917 -3.22471 0
M  V30 1460 H 125.189 -1.37301 -3.67275 0
M  V30 1461 H 126.679 -0.503032 -4.14559 0
M  V30 1462 N 127.117 1.15442 -1.07289 0
M  V30 1463 C 128.08 2.18358 -0.696591 0
M  V30 1464 C 129.08 1.58637 0.262837 0
M  V30 1465 O 130.27 1.74145 0.0438809 0
M  V30 1466 C 127.402 3.4089 -0.0266151 0
M  V30 1467 H 128.595 2.53162 -1.60776 0
M  V30 1468 H 126.148 1.29893 -0.869342 0
M  V30 1469 H 126.883 3.11653 0.896822 0
M  V30 1470 H 126.668 3.85495 -0.716657 0
M  V30 1471 H 128.158 4.17009 0.222028 0
M  V30 1472 N 128.595 0.856903 1.32268 0
M  V30 1473 C 129.505 0.306131 2.32594 0
M  V30 1474 C 130.521 -0.577209 1.64147 0
M  V30 1475 O 131.697 -0.477043 1.95669 0
M  V30 1476 C 128.762 -0.494561 3.43154 0
M  V30 1477 C 127.823 0.415186 4.27288 0
M  V30 1478 C 127.056 -0.347387 5.32568 0
M  V30 1479 O 127.279 -1.57708 5.48165 0
M  V30 1480 O 126.213 0.287982 6.01211 0
M  V30 1481 H 130.039 1.13737 2.81598 0
M  V30 1482 H 127.624 0.619902 1.35932 0
M  V30 1483 H 129.506 -0.948944 4.10576 0
M  V30 1484 H 128.181 -1.30257 2.96336 0
M  V30 1485 H 127.088 0.917793 3.62667 0
M  V30 1486 H 128.421 1.18844 4.77637 0
M  V30 1487 N 130.073 -1.45103 0.615059 0
M  V30 1488 C 131.021 -2.32331 -0.111791 0
M  V30 1489 C 132.015 -1.46409 -0.852102 0
M  V30 1490 O 133.221 -1.62849 -0.766821 0
M  V30 1491 H 129.596 -0.749993 -0.0549072 0
M  V30 1492 H 131.567 -2.91407 0.642225 0
M  V30 1493 C 130.316 -3.3015 -1.09071 0
M  V30 1494 H 129.639 -3.96265 -0.530485 0
M  V30 1495 H 131.079 -3.93898 -1.56908 0
M  V30 1496 C 129.538 -2.57875 -2.168 0
M  V30 1497 O 130.068 -2.36567 -3.24652 0
M  V30 1498 N 128.274 -2.17884 -1.92289 0
M  V30 1499 H 127.821 -2.35413 -1.04587 0
M  V30 1500 H 127.779 -1.6985 -2.64572 0
M  V30 1501 N 131.551 -0.354651 -1.53558 0
M  V30 1502 C 132.967 -0.00315426 -1.596 0
M  V30 1503 C 133.167 1.47741 -1.37021 0
M  V30 1504 O 132.223 2.23759 -1.16996 0
M  V30 1505 C 133.536 -0.44929 -2.97325 0
M  V30 1506 C 135.084 -0.402578 -3.104 0
M  V30 1507 C 135.559 -0.824355 -4.5052 0
M  V30 1508 N 137.05 -0.778979 -4.56603 0
M  V30 1509 C 137.785 -1.07715 -5.63192 0
M  V30 1510 N 137.281 -1.44405 -6.77583 0
M  V30 1511 N 139.074 -1.00066 -5.53121 0
M  V30 1512 H 131.225 -1.31893 -1.66487 0
M  V30 1513 H 133.488 -0.538388 -0.780284 0
M  V30 1514 H 133.194 -1.48202 -3.1895 0
M  V30 1515 H 133.068 0.169772 -3.76818 0
M  V30 1516 H 135.455 0.621004 -2.88492 0
M  V30 1517 H 135.536 -1.05699 -2.32941 0
M  V30 1518 H 135.18 -1.846 -4.73165 0
M  V30 1519 H 135.11 -0.147304 -5.26394 0
M  V30 1520 H 137.601 -0.508528 -3.74463 0
M  V30 1521 H 137.914 -1.65612 -7.54846 0
M  V30 1522 H 136.259 -1.4826 -6.79002 0
M  V30 1523 H 139.45 -0.713293 -4.62633 0
M  V30 1524 H 139.623 -1.23638 -6.36096 0
M  V30 1525 N 133.029 1.57378 -0.0835403 0
M  V30 1526 C 133.961 2.10389 0.909338 0
M  V30 1527 C 134.974 1.03858 1.25369 0
M  V30 1528 O 136.163 1.31338 1.20882 0
M  V30 1529 C 133.263 2.55908 2.2218 0
M  V30 1530 C 132.436 3.86145 2.05453 0
M  V30 1531 C 131.495 4.17633 3.20108 0
M  V30 1532 O 130.521 4.87043 2.94581 0
M  V30 1533 N 131.723 3.72113 4.45547 0
M  V30 1534 H 134.488 2.962 0.456657 0
M  V30 1535 H 132.049 1.61579 0.101877 0
M  V30 1536 H 134.041 2.74027 2.97811 0
M  V30 1537 H 132.611 1.75171 2.58909 0
M  V30 1538 H 131.831 3.7729 1.1422 0
M  V30 1539 H 133.119 4.7137 1.91541 0
M  V30 1540 H 132.517 3.16062 4.69171 0
M  V30 1541 H 131.074 3.95409 5.18165 0
M  V30 1542 N 134.507 -0.190092 1.56449 0
M  V30 1543 C 135.755 -0.907908 1.80559 0
M  V30 1544 C 136.076 -1.83583 0.657438 0
M  V30 1545 O 135.346 -1.93203 -0.323924 0
M  V30 1546 H 133.926 -0.338247 0.666032 0
M  V30 1547 H 136.588 -0.194403 1.93928 0
M  V30 1548 H 135.684 -1.49604 2.73907 0
M  V30 1549 N 135.985 -1.50799 -0.457987 0
M  V30 1550 C 137.213 -1.66218 -1.23203 0
M  V30 1551 C 137.628 -0.350894 -1.85511 0
M  V30 1552 O 136.985 0.668546 -1.69814 0
M  V30 1553 C 137.036 -2.76291 -2.33121 0
M  V30 1554 O 136.757 -4.02338 -1.73366 0
M  V30 1555 C 138.258 -3.028 -3.2377 0
M  V30 1556 H 135.478 -0.558361 -0.372121 0
M  V30 1557 H 138.022 -1.97099 -0.545179 0
M  V30 1558 H 136.177 -2.48068 -2.97558 0
M  V30 1559 H 136.591 -4.63312 -2.4585 0
M  V30 1560 H 138.065 -3.8345 -3.97077 0
M  V30 1561 H 138.542 -2.14385 -3.83322 0
M  V30 1562 H 139.148 -3.32604 -2.65056 0
M  V30 1563 N 137.463 0.71206 -1.40597 0
M  V30 1564 C 138.393 1.83889 -1.43899 0
M  V30 1565 C 139.374 1.67442 -0.299504 0
M  V30 1566 O 140.559 1.87421 -0.508624 0
M  V30 1567 C 137.689 3.21877 -1.30431 0
M  V30 1568 C 136.643 3.53002 -2.42019 0
M  V30 1569 C 135.969 4.90172 -2.13626 0
M  V30 1570 C 137.269 3.53643 -3.84362 0
M  V30 1571 H 138.963 1.81383 -2.38203 0
M  V30 1572 H 136.509 0.871237 -1.14654 0
M  V30 1573 H 138.462 4.00404 -1.31357 0
M  V30 1574 H 137.186 3.24968 -0.326049 0
M  V30 1575 H 135.845 2.76818 -2.40349 0
M  V30 1576 H 135.493 4.89869 -1.14182 0
M  V30 1577 H 135.193 5.11962 -2.88389 0
M  V30 1578 H 136.717 5.71028 -2.1624 0
M  V30 1579 H 138.131 4.22203 -3.87837 0
M  V30 1580 H 136.528 3.86961 -4.58673 0
M  V30 1581 H 137.598 2.52954 -4.13693 0
M  V30 1582 N 138.941 1.26152 0.944643 0
M  V30 1583 C 140.169 1.14259 1.72489 0
M  V30 1584 C 140.584 -0.302555 1.8636 0
M  V30 1585 O 139.941 -1.20741 1.36849 0
M  V30 1586 C 139.992 1.80266 3.13347 0
M  V30 1587 O 139.713 3.19133 3.00143 0
M  V30 1588 C 141.214 1.74283 4.07603 0
M  V30 1589 H 138.434 0.398051 0.540181 0
M  V30 1590 H 140.978 1.66706 1.18446 0
M  V30 1591 H 139.133 1.31766 3.64303 0
M  V30 1592 H 139.547 3.51744 3.89071 0
M  V30 1593 H 141.021 2.25111 5.04013 0
M  V30 1594 H 141.498 0.708631 4.33446 0
M  V30 1595 H 142.104 2.22319 3.62567 0
M  V30 1596 N 140.419 -1.14872 1.07899 0
M  V30 1597 C 141.329 -2.2341 0.715915 0
M  V30 1598 C 142.345 -1.71808 -0.275306 0
M  V30 1599 O 143.521 -2.01039 -0.120545 0
M  V30 1600 C 140.586 -3.46474 0.125168 0
M  V30 1601 C 139.647 -4.13039 1.17034 0
M  V30 1602 C 138.88 -5.30229 0.607688 0
M  V30 1603 O 139.103 -5.675 -0.574497 0
M  V30 1604 O 138.037 -5.86444 1.35526 0
M  V30 1605 H 141.863 -2.56808 1.62121 0
M  V30 1606 H 139.448 -1.22702 0.852322 0
M  V30 1607 H 141.33 -4.20917 -0.201729 0
M  V30 1608 H 140.005 -3.14811 -0.753364 0
M  V30 1609 H 138.912 -3.40493 1.54968 0
M  V30 1610 H 140.245 -4.48796 2.02097 0
M  V30 1611 N 141.898 -0.863906 -1.31812 0
M  V30 1612 C 143.128 -0.485406 -2.00817 0
M  V30 1613 C 143.536 0.925007 -1.65046 0
M  V30 1614 O 142.879 1.61653 -0.872574 0
M  V30 1615 C 142.941 -0.555589 -3.55181 0
M  V30 1616 C 142.605 -1.92654 -4.14407 0
M  V30 1617 C 143.602 -2.89324 -4.31958 0
M  V30 1618 C 141.287 -2.2262 -4.50273 0
M  V30 1619 C 143.281 -4.14108 -4.84555 0
M  V30 1620 C 140.968 -3.47654 -5.02573 0
M  V30 1621 C 141.966 -4.43214 -5.19664 0
M  V30 1622 O 141.654 -5.66033 -5.70843 0
M  V30 1623 H 141.386 -0.188224 -0.649267 0
M  V30 1624 H 143.94 -1.16514 -1.69156 0
M  V30 1625 H 142.17 0.181037 -3.86276 0
M  V30 1626 H 143.859 -0.19138 -4.05449 0
M  V30 1627 H 144.625 -2.6748 -4.04573 0
M  V30 1628 H 140.504 -1.4902 -4.3625 0
M  V30 1629 H 144.048 -4.88703 -4.9781 0
M  V30 1630 H 139.945 -3.69345 -5.29391 0
M  V30 1631 H 140.713 -5.6812 -5.89222 0
M  V30 1632 N 143.376 1.44774 -0.622745 0
M  V30 1633 C 144.616 2.04004 -0.127102 0
M  V30 1634 C 144.98 1.47862 1.22478 0
M  V30 1635 O 146.181 1.98541 1.81204 0
M  V30 1636 C 144.452 3.57247 -0.104429 0
M  V30 1637 S 146.011 4.37574 0.327814 0
M  V30 1638 H 142.829 0.708713 -0.0569776 0
M  V30 1639 H 145.431 1.77275 -0.824253 0
M  V30 1640 H 144.135 3.95616 -1.09159 0
M  V30 1641 H 143.666 3.88575 0.614236 0
M  V30 1642 H 145.681 4.70575 1.57395 0
M  V30 1643 N 144.854 0.36279 1.53368 0
M  V30 1644 C 146.102 -0.227326 2.00817 0
M  V30 1645 C 146.423 -1.49511 1.25186 0
M  V30 1646 O 145.693 -1.92482 0.364348 0
M  V30 1647 H 144.273 -0.0869923 0.741917 0
M  V30 1648 H 146.935 0.488381 1.88682 0
M  V30 1649 H 146.031 -0.456273 3.08747 0
M  V30 1650 N 146.332 -1.57332 0.0918853 0
M  V30 1651 C 147.56 -1.98574 -0.581048 0
M  V30 1652 C 147.975 -0.970903 -1.61923 0
M  V30 1653 O 147.332 0.0399054 -1.82456 0
M  V30 1654 C 147.383 -3.39872 -1.23164 0
M  V30 1655 O 147.104 -4.37469 -0.234989 0
M  V30 1656 C 148.605 -3.96099 -1.99049 0
M  V30 1657 H 145.825 -0.65261 -0.156018 0
M  V30 1658 H 148.369 -2.0379 0.170225 0
M  V30 1659 H 146.524 -3.35679 -1.93386 0
M  V30 1660 H 146.938 -5.19751 -0.70418 0
M  V30 1661 H 148.412 -4.97127 -2.39934 0
M  V30 1662 H 148.889 -3.3374 -2.85507 0
M  V30 1663 H 149.495 -4.03755 -1.3365 0
M  V30 1664 N 147.81 0.181792 -1.56548 0
M  V30 1665 C 148.74 1.22765 -1.98623 0
M  V30 1666 C 149.721 1.46747 -0.860189 0
M  V30 1667 O 150.906 1.58259 -1.12551 0
M  V30 1668 C 148.036 2.56894 -2.33715 0
M  V30 1669 C 146.99 2.475 -3.49182 0
M  V30 1670 C 146.316 3.86023 -3.69986 0
M  V30 1671 C 147.616 1.98866 -4.82959 0
M  V30 1672 H 149.31 0.877942 -2.86239 0
M  V30 1673 H 146.856 0.42088 -1.37712 0
M  V30 1674 H 148.809 3.30253 -2.61746 0
M  V30 1675 H 147.533 2.93632 -1.42997 0
M  V30 1676 H 146.192 1.76596 -3.21262 0
M  V30 1677 H 145.84 4.20136 -2.76576 0
M  V30 1678 H 145.54 3.80609 -4.47672 0
M  V30 1679 H 147.064 4.60984 -4.00407 0
M  V30 1680 H 148.478 2.61992 -5.09934 0
M  V30 1681 H 146.875 2.04424 -5.64208 0
M  V30 1682 H 147.945 0.942465 -4.75653 0
M  V30 1683 N 149.288 1.51039 0.449983 0
M  V30 1684 C 150.221 1.66105 1.56474 0
M  V30 1685 C 151.199 0.508776 1.54435 0
M  V30 1686 O 152.383 0.731005 1.73749 0
M  V30 1687 C 149.51 1.66304 2.9506 0
M  V30 1688 C 148.556 2.87346 3.15174 0
M  V30 1689 S 149.389 4.4835 2.92818 0
M  V30 1690 C 150.545 4.51274 4.33708 0
M  V30 1691 H 150.778 2.60397 1.43459 0
M  V30 1692 H 148.311 1.40565 0.638805 0
M  V30 1693 H 150.269 1.67103 3.74949 0
M  V30 1694 H 148.93 0.732108 3.05449 0
M  V30 1695 H 148.123 2.83849 4.16468 0
M  V30 1696 H 147.725 2.84223 2.43091 0
M  V30 1697 H 150.017 4.26136 5.26701 0
M  V30 1698 H 150.96 5.53017 4.42242 0
M  V30 1699 H 151.368 3.80738 4.16772 0
M  V30 1700 N 150.766 -0.704594 1.40972 0
M  V30 1701 C 151.991 -1.49858 1.43378 0
M  V30 1702 C 152.416 -1.88061 0.038184 0
M  V30 1703 O 151.774 -1.5402 -0.956425 0
M  V30 1704 C 151.822 -2.74333 2.34038 0
M  V30 1705 O 150.926 -3.7147 1.7912 0
M  V30 1706 H 150.267 -0.45139 0.486974 0
M  V30 1707 H 152.797 -0.866832 1.8533 0
M  V30 1708 H 152.807 -3.22741 2.49604 0
M  V30 1709 H 151.482 -2.45863 3.35446 0
M  V30 1710 H 150.059 -3.30363 1.72958 0
M  V30 1711 N 152.244 -1.26651 -0.937939 0
M  V30 1712 C 153.174 -1.10993 -2.05433 0
M  V30 1713 C 154.155 -0.0142161 -1.70094 0
M  V30 1714 O 155.34 -0.186837 -1.93299 0
M  V30 1715 C 152.47 -0.745561 -3.39203 0
M  V30 1716 C 151.424 -1.79337 -3.88616 0
M  V30 1717 C 150.75 -1.28324 -5.19073 0
M  V30 1718 C 152.05 -3.19553 -4.13138 0
M  V30 1719 H 153.744 -2.0438 -2.1879 0
M  V30 1720 H 151.29 -0.984041 -1.05131 0
M  V30 1721 H 153.243 -0.622888 -4.16771 0
M  V30 1722 H 151.967 0.22401 -3.25831 0
M  V30 1723 H 150.626 -1.90477 -3.13231 0
M  V30 1724 H 150.274 -0.303414 -5.02084 0
M  V30 1725 H 149.974 -1.98369 -5.53103 0
M  V30 1726 H 151.498 -1.1733 -5.99221 0
M  V30 1727 H 152.912 -3.11471 -4.81309 0
M  V30 1728 H 151.309 -3.87218 -4.58457 0
M  V30 1729 H 152.379 -3.65368 -3.18801 0
M  V30 1730 N 153.722 1.14298 -1.08507 0
M  V30 1731 C 155.133 1.66926 -0.836227 0
M  V30 1732 C 155.484 1.85576 0.63686 0
M  V30 1733 O 154.609 1.56767 1.49175 0
M  V30 1734 C 155.204 3.03219 -1.51142 0
M  V30 1735 C 153.763 3.52876 -1.30979 0
M  V30 1736 C 152.91 2.2833 -1.57356 0
M  V30 1737 H 155.861 0.983491 -1.24552 0
M  V30 1738 H 155.882 3.68726 -0.939211 0
M  V30 1739 H 155.394 2.89612 -2.58353 0
M  V30 1740 H 153.495 3.71703 -0.258429 0
M  V30 1741 H 153.608 4.33586 -2.03814 0
M  V30 1742 H 151.972 2.34454 -0.995164 0
M  V30 1743 H 152.755 2.17298 -2.65775 0
M  V30 1744 N 155.201 0.870884 1.31352 0
M  V30 1745 C 156.429 0.49677 2.00848 0
M  V30 1746 C 156.844 -0.910998 1.65367 0
M  V30 1747 O 156.201 -1.59696 0.883374 0
M  V30 1748 C 156.252 0.645308 3.55694 0
M  V30 1749 O 155.973 1.99764 3.89905 0
M  V30 1750 C 157.474 0.272326 4.42463 0
M  V30 1751 H 154.694 0.193462 0.642506 0
M  V30 1752 H 157.238 1.1723 1.67563 0
M  V30 1753 H 155.393 0.0173176 3.87396 0
M  V30 1754 H 155.807 2.00607 4.84621 0
M  V30 1755 H 157.281 0.427208 5.50344 0
M  V30 1756 H 157.758 -0.788587 4.32062 0
M  V30 1757 H 158.364 0.876054 4.1618 0
M  V30 1758 N 156.679 -1.44442 0.630414 0
M  V30 1759 C 157.626 -2.30678 -0.0749355 0
M  V30 1760 C 158.596 -1.4344 -0.837502 0
M  V30 1761 O 159.781 -1.72343 -0.818684 0
M  V30 1762 C 156.921 -3.28706 -1.05103 0
M  V30 1763 C 156.034 -4.31046 -0.286954 0
M  V30 1764 C 155.169 -5.16167 -1.2548 0
M  V30 1765 C 154.208 -6.10216 -0.479843 0
M  V30 1766 N 153.345 -6.88039 -1.39811 0
M  V30 1767 H 158.185 -2.90454 0.666386 0
M  V30 1768 H 155.722 -1.43107 0.340404 0
M  V30 1769 H 157.68 -3.84027 -1.63031 0
M  V30 1770 H 156.31 -2.70632 -1.75949 0
M  V30 1771 H 155.362 -3.78203 0.408243 0
M  V30 1772 H 156.674 -4.97794 0.316657 0
M  V30 1773 H 155.828 -5.76002 -1.90544 0
M  V30 1774 H 154.567 -4.49491 -1.89233 0
M  V30 1775 H 153.572 -5.49491 0.184295 0
M  V30 1776 H 154.797 -6.78928 0.152965 0
M  V30 1777 H 152.743 -6.24032 -2.02287 0
M  V30 1778 H 152.66 -7.51223 -0.848508 0
M  V30 1779 H 153.928 -7.52397 -2.03762 0
M  V30 1780 N 158.157 -0.370918 -1.53173 0
M  V30 1781 C 159.406 0.218249 -2.00516 0
M  V30 1782 C 159.719 1.49429 -1.26215 0
M  V30 1783 O 160.925 2.16239 -1.64174 0
M  V30 1784 C 159.381 0.43948 -3.57207 0
M  V30 1785 C 158.989 -0.822244 -4.4039 0
M  V30 1786 C 160.733 0.986012 -4.1289 0
M  V30 1787 C 158.64 -0.570304 -5.88644 0
M  V30 1788 H 157.57 0.0853333 -0.749156 0
M  V30 1789 H 160.221 -0.490483 -1.76823 0
M  V30 1790 H 158.603 1.20961 -3.77074 0
M  V30 1791 H 159.777 -1.59557 -4.32294 0
M  V30 1792 H 158.092 -1.29238 -3.95836 0
M  V30 1793 H 160.689 1.18991 -5.21292 0
M  V30 1794 H 161.032 1.94972 -3.6782 0
M  V30 1795 H 161.565 0.27592 -3.96842 0
M  V30 1796 H 158.304 -1.50449 -6.38001 0
M  V30 1797 H 157.824 0.164427 -5.99575 0
M  V30 1798 H 159.503 -0.19784 -6.46697 0
M  V30 1799 N 159.635 1.57281 -0.100228 0
M  V30 1800 C 160.86 1.99302 0.573881 0
M  V30 1801 C 161.285 0.979059 1.60611 0
M  V30 1802 O 160.643 -0.0517803 1.81226 0
M  V30 1803 C 160.691 3.40274 1.19358 0
M  V30 1804 O 159.795 3.41676 2.30935 0
M  V30 1805 H 159.136 0.647944 0.145138 0
M  V30 1806 H 161.666 2.03779 -0.183156 0
M  V30 1807 H 161.676 3.78078 1.53365 0
M  V30 1808 H 160.351 4.13594 0.437385 0
M  V30 1809 H 158.928 3.15672 1.98509 0
M  V30 1810 N 161.113 -0.173488 1.56642 0
M  V30 1811 C 162.529 -0.525174 1.50712 0
M  V30 1812 C 162.729 -1.8476 0.804107 0
M  V30 1813 O 161.785 -2.49869 0.363574 0
M  V30 1814 C 163.098 -0.559937 2.95441 0
M  V30 1815 C 164.646 -0.647288 3.06234 0
M  V30 1816 C 165.121 -0.712963 4.52417 0
M  V30 1817 N 166.612 -0.775911 4.56655 0
M  V30 1818 C 167.347 -0.847264 5.67106 0
M  V30 1819 N 166.843 -0.879585 6.87194 0
M  V30 1820 N 168.636 -0.886117 5.55071 0
M  V30 1821 H 160.787 0.693681 2.00753 0
M  V30 1822 H 163.05 0.249841 0.914485 0
M  V30 1823 H 162.756 0.343049 3.50023 0
M  V30 1824 H 162.63 -1.40718 3.49969 0
M  V30 1825 H 165.017 -1.5407 2.51687 0
M  V30 1826 H 165.098 0.226586 2.54794 0
M  V30 1827 H 164.742 0.176183 5.07594 0
M  V30 1828 H 164.672 -1.60295 5.0161 0
M  V30 1829 H 167.163 -0.759304 3.70193 0
M  V30 1830 H 167.476 -0.935144 7.67121 0
M  V30 1831 H 165.821 -0.847898 6.89808 0
M  V30 1832 H 169.012 -0.857853 4.60172 0
M  V30 1833 H 169.185 -0.938263 6.41171 0
M  V30 1834 N 162.591 -1.51276 -0.441967 0
M  V30 1835 C 163.831 -1.65372 -1.20132 0
M  V30 1836 C 164.195 -0.359871 -1.88597 0
M  V30 1837 O 165.396 -0.376551 -2.66149 0
M  V30 1838 C 163.667 -2.8207 -2.1948 0
M  V30 1839 S 165.226 -3.16467 -3.03964 0
M  V30 1840 H 162.044 -0.582669 -0.407453 0
M  V30 1841 H 164.646 -1.89166 -0.493609 0
M  V30 1842 H 163.35 -3.74523 -1.67812 0
M  V30 1843 H 162.881 -2.6045 -2.94838 0
M  V30 1844 H 164.896 -2.62543 -4.21053 0
M  V30 1845 N 164.069 0.697108 -1.41344 0
M  V30 1846 C 165.48 1.27697 -1.36199 0
M  V30 1847 C 165.831 1.9615 -0.0443463 0
M  V30 1848 O 164.956 1.98689 0.857419 0
M  V30 1849 C 165.551 2.32223 -2.46694 0
M  V30 1850 C 164.11 2.8579 -2.44952 0
M  V30 1851 C 163.257 1.59807 -2.26621 0
M  V30 1852 H 166.208 0.491968 -1.50882 0
M  V30 1853 H 166.229 3.1348 -2.15664 0
M  V30 1854 H 165.741 1.82373 -3.42581 0
M  V30 1855 H 163.842 3.3982 -1.52817 0
M  V30 1856 H 163.955 3.36325 -3.41207 0
M  V30 1857 H 162.319 1.8556 -1.7447 0
M  V30 1858 H 163.102 1.11956 -3.24532 0
M  V30 1859 N 165.547 1.27147 0.931209 0
M  V30 1860 C 166.497 1.06227 2.01742 0
M  V30 1861 C 167.481 -0.00859065 1.60898 0
M  V30 1862 O 168.673 0.209537 1.75755 0
M  V30 1863 C 165.802 0.707787 3.35924 0
M  V30 1864 C 164.888 1.81661 3.83223 0
M  V30 1865 N 165.279 3.05564 4.03069 0
M  V30 1866 C 163.577 1.70249 4.12227 0
M  V30 1867 C 164.278 3.77697 4.42403 0
M  V30 1868 N 163.254 3.0544 4.49675 0
M  V30 1869 H 167.056 2.00261 2.15111 0
M  V30 1870 H 164.57 1.1781 1.11779 0
M  V30 1871 H 166.567 0.539043 4.134 0
M  V30 1872 H 165.227 -0.224964 3.2392 0
M  V30 1873 H 166.238 3.41363 3.89476 0
M  V30 1874 H 162.915 0.840329 4.08956 0
M  V30 1875 H 164.305 4.84168 4.65866 0
M  V30 1876 N 167.025 -1.13721 1.09112 0
M  V30 1877 C 167.955 -2.21148 0.749385 0
M  V30 1878 C 168.936 -1.6792 -0.271475 0
M  V30 1879 O 170.121 -1.93693 -0.140251 0
M  V30 1880 C 167.251 -3.46905 0.165659 0
M  V30 1881 C 166.205 -4.13203 1.11567 0
M  V30 1882 C 165.531 -5.33248 0.393809 0
M  V30 1883 C 166.831 -4.60912 2.45678 0
M  V30 1884 H 168.525 -2.4999 1.64758 0
M  V30 1885 H 166.071 -1.20156 0.793626 0
M  V30 1886 H 168.024 -4.21313 -0.085466 0
M  V30 1887 H 166.748 -3.17449 -0.767714 0
M  V30 1888 H 165.407 -3.40758 1.35202 0
M  V30 1889 H 165.055 -5.00054 -0.543599 0
M  V30 1890 H 164.755 -5.78552 1.02721 0
M  V30 1891 H 166.279 -6.10413 0.150908 0
M  V30 1892 H 167.693 -5.26759 2.26269 0
M  V30 1893 H 166.09 -5.16944 3.04776 0
M  V30 1894 H 167.16 -3.75603 3.06677 0
M  V30 1895 N 168.503 -0.877838 -1.30888 0
M  V30 1896 C 169.433 -0.35534 -2.3078 0
M  V30 1897 C 170.414 0.557994 -1.60687 0
M  V30 1898 O 171.599 0.473355 -1.88343 0
M  V30 1899 C 168.729 0.437221 -3.44537 0
M  V30 1900 C 167.683 -0.383715 -4.26276 0
M  V30 1901 C 167.009 0.535014 -5.32017 0
M  V30 1902 C 168.309 -1.62201 -4.96476 0
M  V30 1903 H 170.003 -1.19007 -2.74732 0
M  V30 1904 H 167.549 -0.573698 -1.32078 0
M  V30 1905 H 169.502 0.813334 -4.13477 0
M  V30 1906 H 168.226 1.30553 -2.99372 0
M  V30 1907 H 166.885 -0.741874 -3.59015 0
M  V30 1908 H 166.533 1.40083 -4.831 0
M  V30 1909 H 166.233 -0.0104211 -5.87599 0
M  V30 1910 H 167.757 0.907799 -6.03814 0
M  V30 1911 H 169.171 -1.31689 -5.5797 0
M  V30 1912 H 167.568 -2.10711 -5.61891 0
M  V30 1913 H 168.638 -2.37044 -4.23011 0
M  V30 1914 N 169.982 1.44106 -0.638065 0
M  V30 1915 C 171.259 1.95453 -0.0759321 0
M  V30 1916 C 171.639 1.57984 1.40015 0
M  V30 1917 O 170.987 0.857361 2.11806 0
M  V30 1918 C 171.197 3.47655 -0.306132 0
M  V30 1919 C 172.545 4.24114 -0.203008 0
M  V30 1920 O 173.569 3.55405 -0.237871 0
M  V30 1921 O 172.428 5.46381 -0.113827 0
M  V30 1922 H 169.522 0.826797 0.0183332 0
M  V30 1923 H 172.068 1.54122 -0.710251 0
M  V30 1924 H 170.84 3.68 -1.3301 0
M  V30 1925 H 170.463 3.95949 0.361991 0
M  V30 1926 N 171.46 0.379036 1.52974 0
M  V30 1927 C 172.707 -0.206421 2.01445 0
M  V30 1928 C 173.035 -1.47668 1.26587 0
M  V30 1929 O 172.29 -1.92514 0.351675 0
M  V30 1930 C 172.589 -0.53096 3.53434 0
M  V30 1931 C 172.255 0.646546 4.46241 0
M  V30 1932 C 170.917 0.969604 4.7133 0
M  V30 1933 C 173.269 1.43479 5.01062 0
M  V30 1934 C 170.597 2.08263 5.48492 0
M  V30 1935 C 172.949 2.53834 5.7944 0
M  V30 1936 C 171.613 2.86659 6.02812 0
M  V30 1937 H 170.883 -0.0755349 0.73714 0
M  V30 1938 H 173.53 0.514271 1.84465 0
M  V30 1939 H 171.835 -1.33285 3.68432 0
M  V30 1940 H 173.532 -0.996417 3.88423 0
M  V30 1941 H 170.122 0.384734 4.2687 0
M  V30 1942 H 174.306 1.19844 4.81613 0
M  V30 1943 H 169.562 2.34078 5.64816 0
M  V30 1944 H 173.736 3.15319 6.20924 0
M  V30 1945 H 171.363 3.73026 6.62387 0
M  V30 1946 N 172.938 -1.57226 0.108567 0
M  V30 1947 C 174.185 -1.94833 -0.551943 0
M  V30 1948 C 174.513 -0.991204 -1.67348 0
M  V30 1949 O 173.768 -0.0131878 -1.95696 0
M  V30 1950 C 174.067 -3.38911 -1.13463 0
M  V30 1951 C 173.733 -4.50696 -0.135509 0
M  V30 1952 C 172.395 -4.80998 0.139252 0
M  V30 1953 C 174.747 -5.18333 0.545957 0
M  V30 1954 C 172.075 -5.76259 1.10194 0
M  V30 1955 C 174.427 -6.14627 1.49721 0
M  V30 1956 C 173.091 -6.43327 1.78006 0
M  V30 1957 H 172.361 -0.712944 -0.20197 0
M  V30 1958 H 175.008 -1.90582 0.18726 0
M  V30 1959 H 173.313 -3.39805 -1.95037 0
M  V30 1960 H 175.01 -3.65317 -1.65362 0
M  V30 1961 H 171.6 -4.27087 -0.359846 0
M  V30 1962 H 175.784 -4.95087 0.346842 0
M  V30 1963 H 171.04 -5.96804 1.32795 0
M  V30 1964 H 175.214 -6.66126 2.03099 0
M  V30 1965 H 172.841 -7.1695 2.52759 0
M  V30 1966 N 174.416 0.165178 -1.56732 0
M  V30 1967 C 175.363 1.2044 -1.96883 0
M  V30 1968 C 176.333 1.43664 -0.833657 0
M  V30 1969 O 177.518 1.56302 -1.09427 0
M  V30 1970 C 174.658 2.53727 -2.33916 0
M  V30 1971 C 173.771 2.3783 -3.6064 0
M  V30 1972 C 172.906 3.64026 -3.86857 0
M  V30 1973 C 171.945 3.43088 -5.06909 0
M  V30 1974 N 171.082 4.61369 -5.29229 0
M  V30 1975 H 175.922 0.854996 -2.85471 0
M  V30 1976 H 173.459 0.41076 -1.41249 0
M  V30 1977 H 175.417 3.31419 -2.53411 0
M  V30 1978 H 174.047 2.8665 -1.48431 0
M  V30 1979 H 173.099 1.51282 -3.49024 0
M  V30 1980 H 174.411 2.18308 -4.4849 0
M  V30 1981 H 173.565 4.50152 -4.06753 0
M  V30 1982 H 172.304 3.86533 -2.97394 0
M  V30 1983 H 171.309 2.55349 -4.86906 0
M  V30 1984 H 172.534 3.21997 -5.97909 0
M  V30 1985 H 170.48 4.84084 -4.42718 0
M  V30 1986 H 170.397 4.44783 -6.11313 0
M  V30 1987 H 171.665 5.48761 -5.53608 0
M  V30 1988 N 175.894 1.51508 0.433938 0
M  V30 1989 C 177.14 1.64588 1.18484 0
M  V30 1990 C 177.473 0.362666 1.90784 0
M  V30 1991 O 176.748 -0.637892 1.83742 0
M  V30 1992 C 177.031 2.85149 2.19913 0
M  V30 1993 C 176.884 4.23456 1.51674 0
M  V30 1994 C 178.203 3.01227 3.20858 0
M  V30 1995 H 175.322 0.598994 0.429389 0
M  V30 1996 H 177.964 1.84002 0.473647 0
M  V30 1997 H 176.114 2.68729 2.80566 0
M  V30 1998 H 177.786 4.51552 0.943322 0
M  V30 1999 H 176.029 4.25998 0.819035 0
M  V30 2000 H 176.7 5.03812 2.2556 0
M  V30 2001 H 179.176 3.16382 2.70263 0
M  V30 2002 H 178.052 3.87141 3.89118 0
M  V30 2003 H 178.313 2.13447 3.8716 0
M  V30 2004 N 177.372 -0.689602 1.41712 0
M  V30 2005 C 178.788 -1.00093 1.24312 0
M  V30 2006 C 178.988 -2.01036 0.136729 0
M  V30 2007 O 178.044 -2.47562 -0.496918 0
M  V30 2008 C 179.357 -1.51985 2.59463 0
M  V30 2009 C 180.905 -1.63838 2.66695 0
M  V30 2010 C 181.38 -2.1913 4.02177 0
M  V30 2011 N 182.871 -2.26483 4.04054 0
M  V30 2012 C 183.606 -2.70306 5.0569 0
M  V30 2013 N 183.102 -3.13691 6.17713 0
M  V30 2014 N 184.895 -2.69923 4.9305 0
M  V30 2015 H 177.046 -0.0210029 2.1239 0
M  V30 2016 H 179.309 -0.0718733 0.945272 0
M  V30 2017 H 179.015 -0.85269 3.41207 0
M  V30 2018 H 178.889 -2.50103 2.82362 0
M  V30 2019 H 181.276 -2.29664 1.85306 0
M  V30 2020 H 181.357 -0.642492 2.476 0
M  V30 2021 H 181.001 -1.53918 4.84016 0
M  V30 2022 H 180.931 -3.19482 4.18615 0
M  V30 2023 H 183.422 -1.95874 3.23174 0
M  V30 2024 H 183.735 -3.45773 6.9113 0
M  V30 2025 H 182.08 -3.11585 6.21241 0
M  V30 2026 H 185.271 -2.35382 4.04614 0
M  V30 2027 H 185.444 -3.03758 5.72394 0
M  V30 2028 N 178.85 -1.27639 -0.924453 0
M  V30 2029 C 180.261 -1.12834 -1.48746 0
M  V30 2030 C 180.612 0.285505 -1.94112 0
M  V30 2031 O 179.737 1.17874 -1.81479 0
M  V30 2032 C 180.332 -2.04217 -2.70334 0
M  V30 2033 C 178.891 -1.93509 -3.22848 0
M  V30 2034 C 178.038 -1.96583 -1.95577 0
M  V30 2035 H 180.989 -1.40484 -0.738233 0
M  V30 2036 H 181.01 -1.59989 -3.4523 0
M  V30 2037 H 180.522 -3.07111 -2.37285 0
M  V30 2038 H 178.623 -0.936131 -3.60649 0
M  V30 2039 H 178.736 -2.79917 -3.88823 0
M  V30 2040 H 177.1 -1.4085 -2.12211 0
M  V30 2041 H 177.883 -3.01137 -1.64837 0
M  V30 2042 N 180.328 1.1314 -1.09713 0
M  V30 2043 C 181.605 1.80762 -0.747302 0
M  V30 2044 C 181.985 1.96663 0.767265 0
M  V30 2045 O 181.333 1.53706 1.69076 0
M  V30 2046 C 181.543 3.15606 -1.48975 0
M  V30 2047 C 182.891 3.90914 -1.65746 0
M  V30 2048 O 183.915 3.25239 -1.45251 0
M  V30 2049 O 182.774 5.08718 -1.9967 0
M  V30 2050 H 179.868 0.782103 -0.268782 0
M  V30 2051 H 182.414 1.20041 -1.19951 0
M  V30 2052 H 181.186 2.99278 -2.52088 0
M  V30 2053 H 180.809 3.84029 -1.02991 0
M  V30 2054 N 181.806 0.884767 1.30421 0
M  V30 2055 C 183.083 0.423185 1.90967 0
M  V30 2056 C 183.463 -1.09605 1.80416 0
M  V30 2057 O 182.811 -1.93126 1.22125 0
M  V30 2058 C 183.021 0.921056 3.36627 0
M  V30 2059 C 184.369 0.955903 4.137 0
M  V30 2060 O 185.393 0.867706 3.4547 0
M  V30 2061 O 184.252 1.08614 5.35598 0
M  V30 2062 H 181.346 0.129369 0.816819 0
M  V30 2063 H 183.892 0.973653 1.3899 0
M  V30 2064 H 182.664 1.96489 3.3839 0
M  V30 2065 H 182.287 0.349741 3.96059 0
M  V30 2066 N 183.284 -1.43765 0.645699 0
M  V30 2067 C 184.214 -2.33471 -0.0370477 0
M  V30 2068 C 185.195 -1.49042 -0.819779 0
M  V30 2069 O 186.38 -1.77726 -0.782758 0
M  V30 2070 C 183.51 -3.32311 -1.0093 0
M  V30 2071 C 182.464 -4.2667 -0.337201 0
M  V30 2072 C 181.79 -5.1549 -1.42037 0
M  V30 2073 C 183.09 -5.16657 0.765706 0
M  V30 2074 H 184.784 -2.90809 0.712069 0
M  V30 2075 H 182.33 -1.39834 0.343876 0
M  V30 2076 H 184.283 -3.9396 -1.49578 0
M  V30 2077 H 183.007 -2.73213 -1.78948 0
M  V30 2078 H 181.666 -3.66374 0.128771 0
M  V30 2079 H 181.314 -4.52735 -2.1918 0
M  V30 2080 H 181.014 -5.79438 -0.975966 0
M  V30 2081 H 182.538 -5.80012 -1.90838 0
M  V30 2082 H 183.952 -5.72158 0.361702 0
M  V30 2083 H 182.349 -5.89286 1.13413 0
M  V30 2084 H 183.419 -4.56796 1.62683 0
M  V30 2085 N 184.763 -0.387143 -1.52771 0
M  V30 2086 C 185.71 0.449048 -2.26389 0
M  V30 2087 C 186.68 1.05961 -1.27912 0
M  V30 2088 O 187.865 1.08804 -1.56737 0
M  V30 2089 C 185.005 1.57155 -3.0724 0
M  V30 2090 C 184.118 0.984066 -4.20643 0
M  V30 2091 C 183.253 2.07745 -4.88892 0
M  V30 2092 C 182.292 1.46574 -5.94292 0
M  V30 2093 N 181.429 2.49834 -6.56146 0
M  V30 2094 H 186.269 -0.185205 -2.97424 0
M  V30 2095 H 183.806 -0.103164 -1.46738 0
M  V30 2096 H 185.764 2.23309 -3.52405 0
M  V30 2097 H 184.394 2.17615 -2.38419 0
M  V30 2098 H 183.446 0.212193 -3.79808 0
M  V30 2099 H 184.758 0.497029 -4.96318 0
M  V30 2100 H 183.912 2.81673 -5.3735 0
M  V30 2101 H 182.651 2.59807 -4.12737 0
M  V30 2102 H 181.656 0.711696 -5.45174 0
M  V30 2103 H 182.881 0.953088 -6.72379 0
M  V30 2104 H 180.827 3.0107 -5.82832 0
M  V30 2105 H 180.744 2.05879 -7.27427 0
M  V30 2106 H 182.012 3.23399 -7.09249 0
M  V30 2107 N 186.241 1.57166 -0.116904 0
M  V30 2108 C 187.171 2.18222 0.830759 0
M  V30 2109 C 188.152 1.12167 1.27877 0
M  V30 2110 O 189.337 1.40394 1.34176 0
M  V30 2111 C 186.467 2.77996 2.08172 0
M  V30 2112 C 185.421 3.89614 1.77157 0
M  V30 2113 C 184.747 4.36187 3.09265 0
M  V30 2114 C 186.047 5.1181 1.04151 0
M  V30 2115 H 187.741 2.97664 0.321992 0
M  V30 2116 H 185.287 1.4318 0.153434 0
M  V30 2117 H 187.24 3.19366 2.74924 0
M  V30 2118 H 185.964 1.9584 2.6137 0
M  V30 2119 H 184.623 3.48816 1.12796 0
M  V30 2120 H 184.271 3.50893 3.60393 0
M  V30 2121 H 183.971 5.11455 2.89288 0
M  V30 2122 H 185.495 4.80207 3.77139 0
M  V30 2123 H 186.909 5.50214 1.61052 0
M  V30 2124 H 185.306 5.92648 0.942762 0
M  V30 2125 H 186.376 4.84892 0.0279022 0
M  V30 2126 N 187.719 -0.156864 1.56817 0
M  V30 2127 C 189.13 -0.717916 1.72345 0
M  V30 2128 C 189.481 -1.82124 0.729747 0
M  V30 2129 O 188.606 -2.16141 -0.105781 0
M  V30 2130 C 189.201 -1.30904 3.12489 0
M  V30 2131 C 187.76 -1.81676 3.29653 0
M  V30 2132 C 186.907 -0.701349 2.68284 0
M  V30 2133 H 189.858 0.0686989 1.58551 0
M  V30 2134 H 189.879 -2.17882 3.11942 0
M  V30 2135 H 189.391 -0.505796 3.8479 0
M  V30 2136 H 187.492 -2.64598 2.62333 0
M  V30 2137 H 187.605 -1.95226 4.3752 0
M  V30 2138 H 185.969 -1.12548 2.28484 0
M  V30 2139 H 186.752 0.0902846 3.43181 0
M  V30 2140 N 189.197 -1.51736 -0.425897 0
M  V30 2141 C 190.425 -1.68794 -1.1965 0
M  V30 2142 C 190.84 -0.390164 -1.84725 0
M  V30 2143 O 190.197 0.632376 -1.71194 0
M  V30 2144 C 190.248 -2.81174 -2.27208 0
M  V30 2145 O 189.969 -4.05925 -1.64793 0
M  V30 2146 C 191.47 -3.09599 -3.17275 0
M  V30 2147 H 188.69 -0.566128 -0.360194 0
M  V30 2148 H 191.234 -1.98211 -0.503249 0
M  V30 2149 H 189.389 -2.54324 -2.9223 0
M  V30 2150 H 189.803 -4.68423 -2.35967 0
M  V30 2151 H 191.277 -3.91786 -3.88854 0
M  V30 2152 H 191.754 -2.22468 -3.78688 0
M  V30 2153 H 192.36 -3.38151 -2.57941 0
M  V30 2154 N 190.675 0.682077 -1.42076 0
M  V30 2155 C 191.952 1.43755 -1.32642 0
M  V30 2156 C 192.332 2.11063 0.0396611 0
M  V30 2157 O 191.68 2.02701 1.05474 0
M  V30 2158 C 191.89 2.44596 -2.48946 0
M  V30 2159 C 193.238 3.09454 -2.9073 0
M  V30 2160 O 194.262 2.54922 -2.48783 0
M  V30 2161 O 193.121 4.08253 -3.63307 0
M  V30 2162 H 190.215 0.640857 -0.522715 0
M  V30 2163 H 192.761 0.711415 -1.54068 0
M  V30 2164 H 191.533 1.93609 -3.40046 0
M  V30 2165 H 191.156 3.24701 -2.29467 0
M  V30 2166 N 192.153 1.28127 0.917671 0
M  V30 2167 C 193.101 1.11569 2.04096 0
M  V30 2168 C 194.095 0.0360242 1.69362 0
M  V30 2169 O 195.301 0.194501 1.78946 0
M  V30 2170 H 191.676 0.344097 0.668656 0
M  V30 2171 H 193.647 2.06711 2.15205 0
M  V30 2172 C 192.396 0.790197 3.38602 0
M  V30 2173 H 191.719 1.61293 3.6582 0
M  V30 2174 H 193.159 0.714271 4.1794 0
M  V30 2175 C 191.618 -0.505897 3.3308 0
M  V30 2176 O 192.148 -1.53736 3.71117 0
M  V30 2177 N 190.354 -0.505193 2.86175 0
M  V30 2178 H 189.901 0.334621 2.55417 0
M  V30 2179 H 189.859 -1.37243 2.82863 0
M  V30 2180 N 193.631 -1.12557 1.10312 0
M  V30 2181 C 194.563 -2.17971 0.708625 0
M  V30 2182 C 195.576 -1.60806 -0.254027 0
M  V30 2183 O 196.765 -1.78458 -0.0386891 0
M  V30 2184 C 193.865 -3.38891 0.0248198 0
M  V30 2185 C 193.038 -4.25548 1.01132 0
M  V30 2186 C 192.097 -5.24972 0.35924 0
M  V30 2187 O 191.123 -5.60174 1.00965 0
M  V30 2188 N 192.325 -5.73747 -0.882847 0
M  V30 2189 H 195.09 -2.52427 1.61557 0
M  V30 2190 H 192.651 -1.27967 0.991771 0
M  V30 2191 H 194.643 -4.02485 -0.422852 0
M  V30 2192 H 193.213 -3.02596 -0.784514 0
M  V30 2193 H 192.433 -3.58589 1.6373 0
M  V30 2194 H 193.721 -4.80294 1.67914 0
M  V30 2195 H 193.119 -5.4731 -1.43065 0
M  V30 2196 H 191.676 -6.39234 -1.27369 0
M  V30 2197 N 195.109 -0.891671 -1.2995 0
M  V30 2198 C 196.337 -0.52866 -2.00032 0
M  V30 2199 C 196.752 0.884574 -1.66795 0
M  V30 2200 O 196.109 1.5827 -0.908669 0
M  V30 2201 C 196.16 -0.701814 -3.54622 0
M  V30 2202 O 195.881 -2.05942 -3.86678 0
M  V30 2203 C 197.382 -0.342683 -4.41973 0
M  V30 2204 H 194.602 -0.203659 -0.639347 0
M  V30 2205 H 197.146 -1.19881 -1.65677 0
M  V30 2206 H 195.301 -0.0789468 -3.8732 0
M  V30 2207 H 195.715 -2.08291 -4.81368 0
M  V30 2208 H 197.189 -0.514709 -5.49595 0
M  V30 2209 H 197.666 0.71975 -4.33262 0
M  V30 2210 H 198.272 -0.942154 -4.14733 0
M  V30 2211 N 196.587 1.43421 -0.653314 0
M  V30 2212 C 197.534 2.30768 0.0382271 0
M  V30 2213 C 198.504 1.44755 0.814576 0
M  V30 2214 O 199.689 1.73624 0.791162 0
M  V30 2215 C 196.829 3.30336 0.998599 0
M  V30 2216 C 195.942 4.31448 0.218342 0
M  V30 2217 C 195.077 5.18098 1.17252 0
M  V30 2218 C 194.116 6.10902 0.382702 0
M  V30 2219 N 193.253 6.90176 1.28848 0
M  V30 2220 H 198.093 2.89357 -0.712511 0
M  V30 2221 H 195.63 1.42548 -0.363128 0
M  V30 2222 H 197.588 3.86572 1.56901 0
M  V30 2223 H 196.218 2.73397 1.71621 0
M  V30 2224 H 195.27 3.77506 -0.46836 0
M  V30 2225 H 196.582 4.97227 -0.395812 0
M  V30 2226 H 195.736 5.7896 1.81356 0
M  V30 2227 H 194.475 4.52444 1.82058 0
M  V30 2228 H 193.48 5.49128 -0.27169 0
M  V30 2229 H 194.705 6.78598 -0.260957 0
M  V30 2230 H 192.651 6.27171 1.92334 0
M  V30 2231 H 192.568 7.52478 0.728887 0
M  V30 2232 H 193.836 7.55543 1.91766 0
M  V30 2233 N 198.065 0.39524 1.52563 0
M  V30 2234 C 199.012 -0.437036 2.26624 0
M  V30 2235 C 199.982 -1.05281 1.28472 0
M  V30 2236 O 201.167 -1.07971 1.57311 0
M  V30 2237 C 198.307 -1.55524 3.08069 0
M  V30 2238 C 197.42 -0.961745 4.21158 0
M  V30 2239 C 196.555 -2.05149 4.89987 0
M  V30 2240 C 195.594 -1.4342 5.95061 0
M  V30 2241 N 194.731 -2.46351 6.57462 0
M  V30 2242 H 199.571 0.200976 2.97322 0
M  V30 2243 H 197.108 0.110944 1.46681 0
M  V30 2244 H 199.066 -2.21437 3.53584 0
M  V30 2245 H 197.696 -2.16348 2.3957 0
M  V30 2246 H 196.748 -0.192048 3.79915 0
M  V30 2247 H 198.06 -0.470701 4.96574 0
M  V30 2248 H 197.214 -2.78819 5.38837 0
M  V30 2249 H 195.953 -2.57615 4.14109 0
M  V30 2250 H 194.958 -0.682774 5.45544 0
M  V30 2251 H 196.183 -0.917416 6.72875 0
M  V30 2252 H 194.129 -2.97975 5.8442 0
M  V30 2253 H 194.046 -2.02019 7.28508 0
M  V30 2254 H 195.314 -3.19633 7.10954 0
M  V30 2255 N 199.544 -1.57102 0.125237 0
M  V30 2256 C 200.955 -1.82384 -0.399142 0
M  V30 2257 C 201.306 -1.04276 -1.66195 0
M  V30 2258 O 200.431 -0.281269 -2.14564 0
M  V30 2259 C 201.026 -3.30821 -0.730932 0
M  V30 2260 C 199.585 -3.56762 -1.19992 0
M  V30 2261 C 198.732 -2.7649 -0.211792 0
M  V30 2262 H 201.683 -1.54786 0.350277 0
M  V30 2263 H 201.704 -3.4579 -1.58775 0
M  V30 2264 H 201.216 -3.87643 0.188345 0
M  V30 2265 H 199.317 -3.05305 -2.13588 0
M  V30 2266 H 199.43 -4.65317 -1.14093 0
M  V30 2267 H 197.794 -2.4489 -0.700085 0
M  V30 2268 H 198.577 -3.36073 0.700691 0
M  V30 2269 N 201.022 0.148545 -1.56898 0
M  V30 2270 C 201.932 1.20293 -2.01412 0
M  V30 2271 C 202.948 1.47107 -0.929273 0
M  V30 2272 O 204.124 1.58807 -1.23863 0
M  V30 2273 C 201.189 2.51682 -2.38447 0
M  V30 2274 C 200.25 2.32529 -3.60872 0
M  V30 2275 C 199.483 3.57653 -3.96132 0
M  V30 2276 O 199.706 4.63771 -3.32073 0
M  V30 2277 O 198.64 3.50408 -4.89385 0
M  V30 2278 H 202.466 0.855025 -2.91416 0
M  V30 2279 H 200.051 0.357151 -1.45068 0
M  V30 2280 H 201.933 3.29147 -2.63135 0
M  V30 2281 H 200.608 2.86006 -1.51599 0
M  V30 2282 H 199.515 1.53019 -3.41373 0
M  V30 2283 H 200.848 2.03121 -4.48333 0
M  V30 2284 N 202.5 1.5196 0.417844 0
M  V30 2285 C 203.728 1.69426 1.18753 0
M  V30 2286 C 204.143 0.399955 1.84515 0
M  V30 2287 O 203.5 -0.623288 1.71527 0
M  V30 2288 C 203.551 2.82375 2.25714 0
M  V30 2289 O 203.272 4.06793 1.62638 0
M  V30 2290 C 204.773 3.11277 3.15628 0
M  V30 2291 H 201.993 0.568031 0.357186 0
M  V30 2292 H 204.537 1.98475 0.49273 0
M  V30 2293 H 202.692 2.5587 2.90877 0
M  V30 2294 H 203.106 4.69667 2.3348 0
M  V30 2295 H 204.58 3.93843 3.86771 0
M  V30 2296 H 205.057 2.24473 3.77503 0
M  V30 2297 H 205.663 3.39515 2.56144 0
M  V30 2298 N 203.978 -0.674533 1.42435 0
M  V30 2299 C 205.208 -1.46071 1.46105 0
M  V30 2300 C 205.616 -1.89067 0.0709605 0
M  V30 2301 O 204.959 -1.58731 -0.924677 0
M  V30 2302 C 205.021 -2.74145 2.32561 0
M  V30 2303 C 204.685 -2.53224 3.8043 0
M  V30 2304 C 205.682 -2.17809 4.72075 0
M  V30 2305 C 203.367 -2.6821 4.24698 0
M  V30 2306 C 205.361 -1.97648 6.05982 0
M  V30 2307 C 203.048 -2.47665 5.58664 0
M  V30 2308 C 204.046 -2.12437 6.49122 0
M  V30 2309 O 203.734 -1.9209 7.80613 0
M  V30 2310 H 203.466 -0.455959 0.499076 0
M  V30 2311 H 206.02 -0.836193 1.87609 0
M  V30 2312 H 204.25 -3.3908 1.85908 0
M  V30 2313 H 205.939 -3.36028 2.27683 0
M  V30 2314 H 206.705 -2.05826 4.39159 0
M  V30 2315 H 202.584 -2.94609 3.54579 0
M  V30 2316 H 206.128 -1.70075 6.7655 0
M  V30 2317 H 202.025 -2.59244 5.91154 0
M  V30 2318 H 202.793 -2.06686 7.91974 0
M  V30 2319 N 205.456 -1.28612 -0.910864 0
M  V30 2320 C 206.386 -1.15326 -2.03032 0
M  V30 2321 C 207.367 -0.0502924 -1.70026 0
M  V30 2322 O 208.552 -0.227797 -1.92859 0
M  V30 2323 C 205.682 -0.817343 -3.37545 0
M  V30 2324 C 204.636 -1.8754 -3.84724 0
M  V30 2325 C 203.962 -1.39305 -5.16235 0
M  V30 2326 C 205.262 -3.28244 -4.06267 0
M  V30 2327 H 206.956 -2.08975 -2.14406 0
M  V30 2328 H 204.502 -1.00612 -1.03021 0
M  V30 2329 H 206.455 -0.711151 -4.15356 0
M  V30 2330 H 205.179 0.154846 -3.26233 0
M  V30 2331 H 203.838 -1.97079 -3.09121 0
M  V30 2332 H 203.486 -0.409846 -5.01328 0
M  V30 2333 H 203.186 -2.10057 -5.48771 0
M  V30 2334 H 204.71 -1.30014 -5.96598 0
M  V30 2335 H 206.124 -3.21611 -4.74594 0
M  V30 2336 H 204.521 -3.96855 -4.5014 0
M  V30 2337 H 205.591 -3.72048 -3.10979 0
M  V30 2338 N 206.934 1.1197 -1.10907 0
M  V30 2339 C 207.867 2.16998 -0.706192 0
M  V30 2340 C 208.845 1.59903 0.294897 0
M  V30 2341 O 210.029 1.87513 0.192636 0
M  V30 2342 C 207.156 3.38673 -0.0427664 0
M  V30 2343 C 206.202 4.14414 -1.00811 0
M  V30 2344 S 207.035 4.72079 -2.52789 0
M  V30 2345 C 208.191 5.97083 -1.87731 0
M  V30 2346 H 208.424 2.50837 -1.59587 0
M  V30 2347 H 205.957 1.23508 -0.926555 0
M  V30 2348 H 207.915 4.09142 0.333668 0
M  V30 2349 H 206.576 3.03105 0.823788 0
M  V30 2350 H 205.769 5.016 -0.491259 0
M  V30 2351 H 205.371 3.49678 -1.3267 0
M  V30 2352 H 207.663 6.66599 -1.21044 0
M  V30 2353 H 208.606 6.53403 -2.72892 0
M  V30 2354 H 209.014 5.4837 -1.33979 0
M  V30 2355 N 208.412 0.89855 1.29475 0
M  V30 2356 C 209.823 0.572537 1.77705 0
M  V30 2357 C 210.174 -0.911778 1.73727 0
M  V30 2358 O 209.299 -1.71288 1.32247 0
M  V30 2359 C 209.894 1.03252 3.22683 0
M  V30 2360 C 208.453 0.757687 3.68695 0
M  V30 2361 C 207.6 1.20787 2.49612 0
M  V30 2362 H 210.551 1.08139 1.16153 0
M  V30 2363 H 210.572 0.367307 3.78723 0
M  V30 2364 H 210.084 2.11285 3.25546 0
M  V30 2365 H 208.185 -0.310079 3.71308 0
M  V30 2366 H 208.298 1.35476 4.59547 0
M  V30 2367 H 206.662 0.626888 2.46865 0
M  V30 2368 H 207.445 2.29622 2.55203 0
M  V30 2369 N 209.89 -1.43072 0.660911 0
M  V30 2370 C 210.837 -2.30785 -0.0259884 0
M  V30 2371 C 211.807 -1.45184 -0.806888 0
M  V30 2372 O 212.992 -1.74041 -0.781943 0
M  V30 2373 C 210.132 -3.30861 -0.981067 0
M  V30 2374 C 209.245 -4.31558 -0.195458 0
M  V30 2375 C 208.38 -5.18712 -1.14503 0
M  V30 2376 C 207.419 -6.11097 -0.350299 0
M  V30 2377 N 206.556 -6.90849 -1.25186 0
M  V30 2378 H 211.396 -2.88975 0.727846 0
M  V30 2379 H 208.933 -1.42353 0.370682 0
M  V30 2380 H 210.891 -3.87399 -1.54849 0
M  V30 2381 H 209.521 -2.74304 -1.70169 0
M  V30 2382 H 208.573 -3.77252 0.488374 0
M  V30 2383 H 209.885 -4.9701 0.422176 0
M  V30 2384 H 209.039 -5.79914 -1.78284 0
M  V30 2385 H 207.778 -4.53404 -1.79656 0
M  V30 2386 H 206.783 -5.48976 0.300808 0
M  V30 2387 H 208.008 -6.7845 0.296941 0
M  V30 2388 H 205.954 -6.28182 -1.89005 0
M  V30 2389 H 205.871 -7.52854 -0.688971 0
M  V30 2390 H 207.139 -7.5655 -1.87757 0
M  V30 2391 N 211.368 -0.403325 -1.52352 0
M  V30 2392 C 212.645 0.232611 -1.94212 0
M  V30 2393 C 213.025 1.63133 -1.33981 0
M  V30 2394 O 212.373 2.22659 -0.513344 0
M  V30 2395 C 212.583 0.244811 -3.4814 0
M  V30 2396 C 213.931 0.46698 -4.22024 0
M  V30 2397 O 214.955 0.324419 -3.5472 0
M  V30 2398 O 213.814 0.74747 -5.41364 0
M  V30 2399 H 210.908 0.148223 -0.813609 0
M  V30 2400 H 213.454 -0.458848 -1.63379 0
M  V30 2401 H 212.226 -0.734378 -3.84347 0
M  V30 2402 H 211.849 0.980611 -3.85318 0
M  V30 2403 N 212.846 1.57033 -0.133567 0
M  V30 2404 C 214.094 1.953 0.519848 0
M  V30 2405 C 214.415 1.01866 1.66278 0
M  V30 2406 O 213.685 0.0776513 1.95746 0
M  V30 2407 H 212.265 0.721091 0.195032 0
M  V30 2408 H 214.927 1.93809 -0.205921 0
M  V30 2409 H 214.023 2.98695 0.904854 0
M  V30 2410 N 214.325 -0.140222 1.56975 0
M  V30 2411 C 215.272 -1.17292 1.98774 0
M  V30 2412 C 216.242 -1.4232 0.856408 0
M  V30 2413 O 217.427 -1.54541 1.119 0
M  V30 2414 C 214.567 -2.49973 2.37923 0
M  V30 2415 C 213.68 -2.32062 3.64378 0
M  V30 2416 C 212.815 -3.57825 3.926 0
M  V30 2417 C 211.854 -3.3498 5.12303 0
M  V30 2418 N 210.991 -4.52891 5.36502 0
M  V30 2419 H 215.831 -0.809472 2.86795 0
M  V30 2420 H 213.368 -0.388237 1.41884 0
M  V30 2421 H 215.326 -3.27346 2.58652 0
M  V30 2422 H 213.956 -2.84252 1.52972 0
M  V30 2423 H 213.008 -1.45711 3.51387 0
M  V30 2424 H 214.32 -2.11145 4.51906 0
M  V30 2425 H 213.474 -4.43624 4.13863 0
M  V30 2426 H 212.213 -3.81753 3.03506 0
M  V30 2427 H 211.218 -2.4757 4.90906 0
M  V30 2428 H 212.443 -3.12444 6.02956 0
M  V30 2429 H 210.389 -4.76979 4.50363 0
M  V30 2430 H 210.306 -4.35001 6.18312 0
M  V30 2431 H 211.574 -5.39884 5.62268 0
M  V30 2432 N 215.803 -1.52179 -0.40978 0
M  V30 2433 C 217.028 -1.70347 -1.18308 0
M  V30 2434 C 217.453 -0.411887 -1.83535 0
M  V30 2435 O 216.811 0.630587 -1.6998 0
M  V30 2436 C 216.859 -2.83977 -2.22238 0
M  V30 2437 O 215.963 -2.495 -3.28365 0
M  V30 2438 H 215.304 -0.567103 -0.345384 0
M  V30 2439 H 217.834 -1.98879 -0.480445 0
M  V30 2440 H 217.844 -3.0887 -2.66577 0
M  V30 2441 H 216.519 -3.77685 -1.74146 0
M  V30 2442 H 215.096 -2.35277 -2.89308 0
M  V30 2443 N 217.281 0.66697 -1.42791 0
M  V30 2444 C 218.509 1.45505 -1.47091 0
M  V30 2445 C 218.924 1.8861 -0.0845873 0
M  V30 2446 O 218.281 1.58632 0.90234 0
M  V30 2447 C 218.332 2.69906 -2.40485 0
M  V30 2448 O 218.053 2.28608 -3.73725 0
M  V30 2449 C 219.554 3.63396 -2.53886 0
M  V30 2450 H 216.774 0.447459 -0.500022 0
M  V30 2451 H 219.318 0.818866 -1.8739 0
M  V30 2452 H 217.473 3.29696 -2.03419 0
M  V30 2453 H 217.887 3.08997 -4.23817 0
M  V30 2454 H 219.361 4.47387 -3.2334 0
M  V30 2455 H 219.838 4.09824 -1.57927 0
M  V30 2456 H 220.444 3.09495 -2.91706 0
M  V30 2457 N 218.759 1.29093 0.90403 0
M  V30 2458 C 219.722 1.1386 1.98919 0
M  V30 2459 C 220.722 0.0753457 1.60623 0
M  V30 2460 O 221.912 0.321931 1.71199 0
M  V30 2461 C 219.044 0.740198 3.32767 0
M  V30 2462 H 220.237 2.10246 2.13861 0
M  V30 2463 H 217.79 1.12218 1.08797 0
M  V30 2464 H 218.525 -0.223997 3.23525 0
M  V30 2465 H 218.31 1.50838 3.61926 0
M  V30 2466 H 219.8 0.656546 4.12407 0
M  V30 2467 N 220.237 -1.11381 1.11499 0
M  V30 2468 C 221.465 -1.86934 0.88675 0
M  V30 2469 C 221.88 -1.80195 -0.563476 0
M  V30 2470 O 221.237 -1.18367 -1.38908 0
M  V30 2471 C 221.288 -3.35722 1.34064 0
M  V30 2472 O 221.009 -3.4232 2.73401 0
M  V30 2473 C 222.51 -4.2818 1.14791 0
M  V30 2474 H 219.73 -0.591117 0.317523 0
M  V30 2475 H 222.274 -1.40865 1.48248 0
M  V30 2476 H 220.429 -3.79294 0.788355 0
M  V30 2477 H 220.843 -4.34971 2.93087 0
M  V30 2478 H 222.317 -5.30817 1.5145 0
M  V30 2479 H 222.794 -4.39113 0.0875279 0
M  V30 2480 H 223.4 -3.90402 1.68721 0
M  V30 2481 N 221.715 -0.905404 -1.28997 0
M  V30 2482 C 222.992 -0.453513 -1.9027 0
M  V30 2483 C 223.372 1.06721 -1.82137 0
M  V30 2484 O 222.72 1.91159 -1.25182 0
M  V30 2485 C 222.93 -0.974494 -3.35119 0
M  V30 2486 C 224.278 -1.0216 -4.12127 0
M  V30 2487 O 225.302 -0.922557 -3.44046 0
M  V30 2488 O 224.161 -1.17121 -5.33802 0
M  V30 2489 H 221.255 -0.142347 -0.814657 0
M  V30 2490 H 223.801 -0.995642 -1.37423 0
M  V30 2491 H 222.573 -2.01848 -3.35221 0
M  V30 2492 H 222.196 -0.412706 -3.95452 0
M  V30 2493 N 223.193 1.4272 -0.668489 0
M  V30 2494 C 224.442 2.00846 -0.185389 0
M  V30 2495 C 224.755 1.53442 1.21305 0
M  V30 2496 O 225.961 2.03944 1.79218 0
M  V30 2497 C 224.417 3.58805 -0.280591 0
M  V30 2498 C 224.025 4.15198 -1.68268 0
M  V30 2499 C 225.769 4.24255 0.14412 0
M  V30 2500 C 223.676 5.655 -1.73099 0
M  V30 2501 H 222.606 0.751145 -0.0655475 0
M  V30 2502 H 225.257 1.63516 -0.832752 0
M  V30 2503 H 223.639 3.93608 0.434553 0
M  V30 2504 H 224.813 3.91866 -2.42441 0
M  V30 2505 H 223.128 3.62176 -2.05469 0
M  V30 2506 H 225.725 5.34547 0.128086 0
M  V30 2507 H 226.068 3.99277 1.17827 0
M  V30 2508 H 226.601 3.94389 -0.519798 0
M  V30 2509 H 223.34 5.95268 -2.74475 0
M  V30 2510 H 222.86 5.90842 -1.03274 0
M  V30 2511 H 224.539 6.29808 -1.48158 0
M  V30 2512 N 224.671 0.411399 1.52136 0
M  V30 2513 C 225.899 -0.163076 2.06256 0
M  V30 2514 C 226.314 -1.3867 1.28125 0
M  V30 2515 O 225.671 -1.79423 0.333721 0
M  V30 2516 C 225.722 -0.511252 3.57867 0
M  V30 2517 O 225.443 0.66378 4.33042 0
M  V30 2518 C 226.944 -1.13921 4.28412 0
M  V30 2519 H 224.164 -0.0193897 0.67072 0
M  V30 2520 H 226.708 0.583007 1.96013 0
M  V30 2521 H 224.863 -1.20723 3.6811 0
M  V30 2522 H 225.277 0.372601 5.23175 0
M  V30 2523 H 226.751 -1.33302 5.35663 0
M  V30 2524 H 227.228 -2.11296 3.85033 0
M  V30 2525 H 227.834 -0.483373 4.22544 0
M  V30 2526 N 226.149 -1.5696 0.141893 0
M  V30 2527 C 227.397 -1.95573 -0.509484 0
M  V30 2528 C 227.718 -1.02746 -1.65736 0
M  V30 2529 O 226.988 -0.0880311 -1.95702 0
M  V30 2530 H 225.568 -0.722115 -0.191205 0
M  V30 2531 H 228.23 -1.93697 0.216196 0
M  V30 2532 H 227.326 -2.99171 -0.889 0
M  V30 2533 N 227.627 0.131896 -1.57047 0
M  V30 2534 C 229.038 0.690407 -1.73465 0
M  V30 2535 C 229.389 1.8094 -0.758629 0
M  V30 2536 O 228.514 2.16282 0.0713813 0
M  V30 2537 C 229.109 1.25916 -3.14532 0
M  V30 2538 C 227.668 1.76409 -3.32501 0
M  V30 2539 C 226.815 0.658579 -2.69366 0
M  V30 2540 H 229.766 -0.0939144 -1.58422 0
M  V30 2541 H 229.787 2.12892 -3.15369 0
M  V30 2542 H 229.299 0.444515 -3.85546 0
M  V30 2543 H 227.4 2.60391 -2.66509 0
M  V30 2544 H 227.513 1.88241 -4.4057 0
M  V30 2545 H 225.877 1.08899 -2.30246 0
M  V30 2546 H 226.66 -0.14487 -3.42994 0
M  V30 2547 N 229.106 1.52395 0.401703 0
M  V30 2548 C 230.355 1.66044 1.14509 0
M  V30 2549 C 230.668 0.400216 1.91462 0
M  V30 2550 O 231.874 0.416632 2.68284 0
M  V30 2551 C 230.33 2.93388 2.0845 0
M  V30 2552 C 229.938 4.26545 1.36978 0
M  V30 2553 C 231.682 3.16402 2.83001 0
M  V30 2554 C 229.589 5.45007 2.29611 0
M  V30 2555 H 228.519 0.618562 0.431158 0
M  V30 2556 H 231.17 1.78886 0.40892 0
M  V30 2557 H 229.552 2.74263 2.8565 0
M  V30 2558 H 230.726 4.56179 0.650916 0
M  V30 2559 H 229.041 4.09692 0.74438 0
M  V30 2560 H 231.638 4.02085 3.52465 0
M  V30 2561 H 231.981 2.30943 3.46368 0
M  V30 2562 H 232.514 3.36034 2.12898 0
M  V30 2563 H 229.253 6.32835 1.70879 0
M  V30 2564 H 228.773 5.19702 2.9945 0
M  V30 2565 H 230.452 5.7838 2.89974 0
M  V30 2566 N 230.584 -0.659388 1.43143 0
M  V30 2567 C 231.833 -1.41518 1.43721 0
M  V30 2568 C 232.146 -1.95499 0.0628176 0
M  V30 2569 O 233.352 -2.71446 -0.0539683 0
M  V30 2570 C 231.808 -2.5608 2.52885 0
M  V30 2571 C 231.416 -2.08733 3.96402 0
M  V30 2572 C 233.16 -3.3349 2.62649 0
M  V30 2573 C 231.067 -3.20469 4.97045 0
M  V30 2574 H 229.997 -0.531705 0.534608 0
M  V30 2575 H 232.648 -0.712343 1.69109 0
M  V30 2576 H 231.03 -3.28805 2.20688 0
M  V30 2577 H 232.204 -1.43059 4.3803 0
M  V30 2578 H 230.519 -1.44219 3.90627 0
M  V30 2579 H 233.116 -4.16734 3.35017 0
M  V30 2580 H 233.459 -3.8111 1.67513 0
M  V30 2581 H 233.992 -2.67842 2.94118 0
M  V30 2582 H 230.731 -2.77824 5.93712 0
M  V30 2583 H 230.251 -3.84874 4.60034 0
M  V30 2584 H 231.93 -3.85698 5.19467 0
M  V30 2585 N 232.062 -1.29571 -0.897171 0
M  V30 2586 C 232.992 -1.17473 -2.01798 0
M  V30 2587 C 233.973 -0.068323 -1.69963 0
M  V30 2588 O 235.158 -0.248239 -1.92607 0
M  V30 2589 C 232.288 -0.853099 -3.36659 0
M  V30 2590 C 231.242 -1.9161 -3.82713 0
M  V30 2591 C 230.568 -1.44773 -5.14728 0
M  V30 2592 C 231.868 -3.32535 -4.02763 0
M  V30 2593 H 233.562 -2.11237 -2.12177 0
M  V30 2594 H 231.108 -1.01699 -1.01948 0
M  V30 2595 H 233.061 -0.755165 -4.14578 0
M  V30 2596 H 231.785 0.120236 -3.26379 0
M  V30 2597 H 230.444 -2.00346 -3.07013 0
M  V30 2598 H 230.092 -0.462995 -5.00865 0
M  V30 2599 H 229.792 -2.15865 -5.46513 0
M  V30 2600 H 231.316 -1.36334 -5.95185 0
M  V30 2601 H 232.73 -3.26626 -4.71156 0
M  V30 2602 H 231.127 -4.01607 -4.45905 0
M  V30 2603 H 232.197 -3.75326 -3.07016 0
M  V30 2604 N 233.54 1.10788 -1.12088 0
M  V30 2605 C 234.472 2.16816 -0.743213 0
M  V30 2606 C 235.485 1.6119 0.228412 0
M  V30 2607 O 236.674 1.78497 0.0102931 0
M  V30 2608 C 233.774 3.38809 -0.0787313 0
M  V30 2609 C 232.947 4.23885 -1.0789 0
M  V30 2610 C 232.006 5.24334 -0.442713 0
M  V30 2611 O 231.032 5.58497 -1.09864 0
M  V30 2612 N 232.234 5.75079 0.791457 0
M  V30 2613 H 234.999 2.49825 -1.65552 0
M  V30 2614 H 232.56 1.26373 -1.012 0
M  V30 2615 H 234.552 4.03107 0.358766 0
M  V30 2616 H 233.122 3.03805 0.736275 0
M  V30 2617 H 232.342 3.55939 -1.69414 0
M  V30 2618 H 233.63 4.77562 -1.75533 0
M  V30 2619 H 233.028 5.49517 1.3434 0
M  V30 2620 H 231.585 6.4118 1.17183 0
M  V30 2621 N 235.018 0.912232 1.28515 0
M  V30 2622 C 236.246 0.560416 1.99166 0
M  V30 2623 C 236.661 -0.857927 1.68182 0
M  V30 2624 O 236.018 -1.56805 0.933733 0
M  V30 2625 C 236.069 0.758142 3.53461 0
M  V30 2626 O 235.79 2.12067 3.83352 0
M  V30 2627 C 237.291 0.412954 4.41372 0
M  V30 2628 H 234.511 0.213805 0.636026 0
M  V30 2629 H 237.055 1.22502 1.63749 0
M  V30 2630 H 235.21 0.140556 3.87145 0
M  V30 2631 H 235.624 2.15923 4.77993 0
M  V30 2632 H 237.098 0.60208 5.48707 0
M  V30 2633 H 237.575 -0.65073 4.34353 0
M  V30 2634 H 238.181 1.00802 4.13182 0
M  V30 2635 N 236.496 -1.42363 0.676048 0
M  V30 2636 C 237.726 -2.05561 0.206967 0
M  V30 2637 C 238.134 -1.50887 -1.14148 0
M  V30 2638 O 237.477 -0.643933 -1.72044 0
M  V30 2639 C 237.539 -3.5944 0.0659508 0
M  V30 2640 C 237.203 -4.36812 1.34331 0
M  V30 2641 C 238.2 -4.67383 2.27704 0
M  V30 2642 C 235.885 -4.76429 1.59125 0
M  V30 2643 C 237.879 -5.36509 3.44147 0
M  V30 2644 C 235.566 -5.45294 2.75857 0
M  V30 2645 C 236.564 -5.75259 3.68193 0
M  V30 2646 O 236.252 -6.42712 4.82883 0
M  V30 2647 H 235.984 -0.668872 0.0979084 0
M  V30 2648 H 238.538 -1.83467 0.923531 0
M  V30 2649 H 236.768 -3.80197 -0.706204 0
M  V30 2650 H 238.457 -4.0427 -0.363418 0
M  V30 2651 H 239.223 -4.37275 2.09799 0
M  V30 2652 H 235.102 -4.52498 0.881258 0
M  V30 2653 H 238.646 -5.59814 4.16238 0
M  V30 2654 H 234.543 -5.7482 2.93688 0
M  V30 2655 H 235.311 -6.61204 4.82444 0
M  V30 2656 N 237.974 -0.419461 -1.51915 0
M  V30 2657 C 239.39 -0.0708431 -1.59443 0
M  V30 2658 C 239.59 1.41796 -1.43164 0
M  V30 2659 O 238.646 2.18596 -1.26381 0
M  V30 2660 C 239.959 -0.574991 -2.95151 0
M  V30 2661 C 241.507 -0.533867 -3.08413 0
M  V30 2662 C 241.982 -1.01469 -4.46618 0
M  V30 2663 N 243.473 -0.971939 -4.52888 0
M  V30 2664 C 244.208 -1.31505 -5.58116 0
M  V30 2665 N 243.704 -1.73014 -6.70849 0
M  V30 2666 N 245.497 -1.23436 -5.48379 0
M  V30 2667 H 237.648 -1.38836 -1.60743 0
M  V30 2668 H 239.911 -0.570998 -0.756747 0
M  V30 2669 H 239.617 -1.61597 -3.12377 0
M  V30 2670 H 239.491 0.00979777 -3.77199 0
M  V30 2671 H 241.878 0.498086 -2.90866 0
M  V30 2672 H 241.959 -1.15484 -2.28248 0
M  V30 2673 H 241.603 -2.04502 -4.6491 0
M  V30 2674 H 241.533 -0.370433 -5.25295 0
M  V30 2675 H 244.024 -0.666893 -3.71969 0
M  V30 2676 H 244.337 -1.97479 -7.47143 0
M  V30 2677 H 242.682 -1.76926 -6.72103 0
M  V30 2678 H 245.873 -0.908869 -4.59192 0
M  V30 2679 H 246.046 -1.50506 -6.30279 0
M  V30 2680 N 239.452 1.56882 -0.150215 0
M  V30 2681 C 240.415 2.1573 0.774157 0
M  V30 2682 C 241.415 1.0999 1.17298 0
M  V30 2683 O 242.605 1.35613 1.09338 0
M  V30 2684 C 239.737 2.72302 2.05096 0
M  V30 2685 H 240.93 2.98752 0.262201 0
M  V30 2686 H 238.483 1.55985 0.099248 0
M  V30 2687 H 239.218 1.92956 2.6065 0
M  V30 2688 H 239.003 3.49665 1.77416 0
M  V30 2689 H 240.493 3.17632 2.71109 0
M  V30 2690 N 240.93 -0.123565 1.57115 0
M  V30 2691 C 242.179 -0.830704 1.83799 0
M  V30 2692 C 242.492 -1.81259 0.735158 0
M  V30 2693 O 243.698 -2.56558 0.888278 0
M  V30 2694 C 242.154 -1.52802 3.25852 0
M  V30 2695 C 241.762 -0.587356 4.44133 0
M  V30 2696 C 243.506 -2.22056 3.61789 0
M  V30 2697 C 241.413 -1.28764 5.77212 0
M  V30 2698 H 240.343 -0.313967 0.685522 0
M  V30 2699 H 242.994 -0.0834359 1.8331 0
M  V30 2700 H 241.376 -2.32175 3.20797 0
M  V30 2701 H 242.55 0.172829 4.60476 0
M  V30 2702 H 240.865 -0.00201892 4.164 0
M  V30 2703 H 243.462 -2.75131 4.58483 0
M  V30 2704 H 243.805 -2.99644 2.88997 0
M  V30 2705 H 244.338 -1.49576 3.68608 0
M  V30 2706 H 241.077 -0.55314 6.53162 0
M  V30 2707 H 240.597 -2.01995 5.64764 0
M  V30 2708 H 242.276 -1.8221 6.20813 0
M  V30 2709 N 242.408 -1.52605 -0.393616 0
M  V30 2710 C 243.371 -1.76415 -1.46323 0
M  V30 2711 C 244.371 -0.634126 -1.47768 0
M  V30 2712 O 245.561 -0.902142 -1.4902 0
M  V30 2713 C 242.693 -1.8607 -2.85641 0
M  V30 2714 H 243.886 -2.71916 -1.26498 0
M  V30 2715 H 241.439 -1.43257 -0.625073 0
M  V30 2716 H 242.174 -0.925378 -3.10817 0
M  V30 2717 H 241.959 -2.68235 -2.85993 0
M  V30 2718 H 243.449 -2.06179 -3.63153 0
M  V30 2719 N 243.887 0.651787 -1.4349 0
M  V30 2720 C 244.835 1.78586 -1.49029 0
M  V30 2721 C 245.829 1.65448 -0.363767 0
M  V30 2722 O 247.035 1.71777 -0.537821 0
M  V30 2723 H 243.41 0.589236 -0.467231 0
M  V30 2724 H 245.381 1.71035 -2.44519 0
M  V30 2725 C 244.13 3.16851 -1.43181 0
M  V30 2726 H 243.453 3.27598 -2.29171 0
M  V30 2727 H 244.893 3.96156 -1.51118 0
M  V30 2728 C 243.352 3.36568 -0.149616 0
M  V30 2729 O 243.882 3.93885 0.788509 0
M  V30 2730 N 242.088 2.90539 -0.0593484 0
M  V30 2731 H 241.635 2.4408 -0.823575 0
M  V30 2732 H 241.593 3.04108 0.797853 0
M  V30 2733 N 245.365 1.30045 0.890287 0
M  V30 2734 C 246.595 1.21296 1.67245 0
M  V30 2735 C 247.003 -0.227471 1.87828 0
M  V30 2736 O 246.346 -1.16296 1.422 0
M  V30 2737 C 246.408 1.86519 3.07329 0
M  V30 2738 C 246.072 3.35837 3.09939 0
M  V30 2739 C 247.069 4.31915 2.89389 0
M  V30 2740 C 244.754 3.77196 3.31706 0
M  V30 2741 C 246.748 5.67325 2.90552 0
M  V30 2742 C 244.435 5.12725 3.32499 0
M  V30 2743 C 245.433 6.076 3.11947 0
M  V30 2744 O 245.121 7.40655 3.12547 0
M  V30 2745 H 244.853 0.4211 0.528821 0
M  V30 2746 H 247.407 1.72111 1.12103 0
M  V30 2747 H 245.637 1.30228 3.64112 0
M  V30 2748 H 247.326 1.71963 3.67673 0
M  V30 2749 H 248.092 4.01294 2.72375 0
M  V30 2750 H 243.971 3.03796 3.4674 0
M  V30 2751 H 247.515 6.41354 2.74429 0
M  V30 2752 H 243.412 5.42988 3.49047 0
M  V30 2753 H 244.18 7.49577 3.28749 0
M  V30 2754 N 246.843 -1.10192 1.12674 0
M  V30 2755 C 247.753 -2.20172 0.810026 0
M  V30 2756 C 248.769 -1.72821 -0.202188 0
M  V30 2757 O 249.945 -2.01369 -0.0351691 0
M  V30 2758 C 247.01 -3.45631 0.272007 0
M  V30 2759 C 246.071 -4.07704 1.34447 0
M  V30 2760 C 245.304 -5.27175 0.832029 0
M  V30 2761 O 245.527 -5.69425 -0.333284 0
M  V30 2762 O 244.461 -5.80168 1.60277 0
M  V30 2763 H 248.287 -2.49701 1.72867 0
M  V30 2764 H 245.872 -1.18977 0.903597 0
M  V30 2765 H 247.754 -4.21394 -0.0230219 0
M  V30 2766 H 246.429 -3.17723 -0.619164 0
M  V30 2767 H 245.336 -3.33614 1.6927 0
M  V30 2768 H 246.669 -4.3982 2.2095 0
M  V30 2769 N 248.321 -0.919034 -1.28029 0
M  V30 2770 C 249.268 -0.410005 -2.27129 0
M  V30 2771 C 250.238 0.518405 -1.57803 0
M  V30 2772 O 251.423 0.439451 -1.8567 0
M  V30 2773 C 248.563 0.339054 -3.4343 0
M  V30 2774 C 247.676 -0.622468 -4.27492 0
M  V30 2775 C 246.811 0.145567 -5.31001 0
M  V30 2776 C 245.85 -0.809226 -6.06727 0
M  V30 2777 N 244.987 -0.0743728 -7.02061 0
M  V30 2778 H 249.827 -1.26011 -2.70047 0
M  V30 2779 H 247.364 -0.632663 -1.328 0
M  V30 2780 H 249.322 0.789586 -4.0966 0
M  V30 2781 H 247.952 1.15346 -3.01488 0
M  V30 2782 H 247.004 -1.19153 -3.61257 0
M  V30 2783 H 248.316 -1.35252 -4.80113 0
M  V30 2784 H 247.47 0.656417 -6.03139 0
M  V30 2785 H 246.209 0.908643 -4.79161 0
M  V30 2786 H 245.214 -1.3314 -5.33436 0
M  V30 2787 H 246.439 -1.57194 -6.60656 0
M  V30 2788 H 244.385 0.670616 -6.52563 0
M  V30 2789 H 244.302 -0.744157 -7.52329 0
M  V30 2790 H 245.57 0.416109 -7.78389 0
M  V30 2791 N 249.799 1.42003 -0.683588 0
M  V30 2792 C 251.027 2.05746 -0.218182 0
M  V30 2793 C 251.442 1.51396 1.12804 0
M  V30 2794 O 250.799 0.657303 1.70252 0
M  V30 2795 C 250.85 3.61171 -0.154131 0
M  V30 2796 O 250.571 4.13508 -1.44716 0
M  V30 2797 C 252.072 4.42042 0.333713 0
M  V30 2798 H 249.292 0.662888 -0.10402 0
M  V30 2799 H 251.836 1.81987 -0.9328 0
M  V30 2800 H 249.991 3.84012 0.511231 0
M  V30 2801 H 250.405 5.07453 -1.32632 0
M  V30 2802 H 251.879 5.51028 0.327423 0
M  V30 2803 H 252.356 4.17269 1.37053 0
M  V30 2804 H 252.962 4.24239 -0.300222 0
M  V30 2805 N 251.277 0.427512 1.51691 0
M  V30 2806 C 252.502 -0.143601 2.06902 0
M  V30 2807 C 252.927 -1.36536 1.29382 0
M  V30 2808 O 252.285 -1.78289 0.329043 0
M  V30 2809 C 252.333 -0.454207 3.57728 0
M  V30 2810 O 251.437 -1.54228 3.82475 0
M  V30 2811 H 250.778 -0.00617128 0.663971 0
M  V30 2812 H 253.308 0.606014 1.95419 0
M  V30 2813 H 253.318 -0.707525 4.01818 0
M  V30 2814 H 251.993 0.438812 4.13579 0
M  V30 2815 H 250.57 -1.2797 3.50254 0
M  V30 2816 N 252.755 -1.56801 0.158532 0
M  V30 2817 C 254.003 -1.96102 -0.488712 0
M  V30 2818 C 254.324 -1.04498 -1.64636 0
M  V30 2819 O 253.594 -0.108783 -1.95598 0
M  V30 2820 H 252.174 -0.724102 -0.183535 0
M  V30 2821 H 254.836 -1.93457 0.236728 0
M  V30 2822 H 253.932 -3.00097 -0.857219 0
M  V30 2823 N 254.233 0.115231 -1.57178 0
M  V30 2824 C 255.458 0.840354 -1.89612 0
M  V30 2825 C 255.883 1.72464 -0.750845 0
M  V30 2826 O 255.241 1.78826 0.298478 0
M  V30 2827 C 255.289 1.64654 -3.20814 0
M  V30 2828 O 254.393 2.7538 -3.06985 0
M  V30 2829 H 253.734 0.232158 -0.622092 0
M  V30 2830 H 256.264 0.0964977 -2.04372 0
M  V30 2831 H 256.274 2.03499 -3.53627 0
M  V30 2832 H 254.949 0.997416 -4.03763 0
M  V30 2833 H 253.526 2.3971 -2.85646 0
M  V30 2834 N 255.711 1.52812 0.385517 0
M  V30 2835 C 256.621 1.80766 1.49535 0
M  V30 2836 C 257.637 0.694651 1.59532 0
M  V30 2837 O 258.813 0.982611 1.75803 0
M  V30 2838 C 255.878 1.97381 2.85029 0
M  V30 2839 C 254.939 3.21295 2.84724 0
M  V30 2840 C 254.172 3.37108 4.13756 0
M  V30 2841 O 254.395 2.5765 5.08893 0
M  V30 2842 O 253.329 4.30378 4.20783 0
M  V30 2843 H 257.155 2.75015 1.28842 0
M  V30 2844 H 254.74 1.37946 0.573697 0
M  V30 2845 H 256.622 2.09996 3.65349 0
M  V30 2846 H 255.297 1.06322 3.05741 0
M  V30 2847 H 254.204 3.1412 2.03174 0
M  V30 2848 H 255.537 4.12212 2.68965 0
M  V30 2849 N 257.189 -0.644168 1.43834 0
M  V30 2850 C 258.122 -1.76906 1.44151 0
M  V30 2851 C 259.1 -1.59774 0.301857 0
M  V30 2852 O 260.284 -1.81834 0.496841 0
M  V30 2853 C 257.411 -3.14321 1.26174 0
M  V30 2854 C 256.457 -3.50134 2.43533 0
M  V30 2855 S 257.29 -3.49085 4.06079 0
M  V30 2856 C 258.446 -4.89142 3.90501 0
M  V30 2857 H 258.679 -1.76368 2.39336 0
M  V30 2858 H 256.212 -0.817624 1.30974 0
M  V30 2859 H 258.17 -3.93625 1.16489 0
M  V30 2860 H 256.831 -3.12412 0.325224 0
M  V30 2861 H 256.024 -4.50095 2.26783 0
M  V30 2862 H 255.626 -2.78264 2.4989 0
M  V30 2863 H 257.918 -5.78036 3.53385 0
M  V30 2864 H 258.861 -5.10945 4.90246 0
M  V30 2865 H 259.269 -4.63102 3.22795 0
M  V30 2866 N 258.668 -1.30515 -0.883378 0
M  V30 2867 C 259.631 -1.1701 -1.97082 0
M  V30 2868 C 260.631 -0.10089 -1.60483 0
M  V30 2869 O 261.821 -0.349127 -1.70666 0
M  V30 2870 C 258.953 -0.793045 -3.31547 0
M  V30 2871 H 260.146 -2.13622 -2.10489 0
M  V30 2872 H 257.699 -1.13935 -1.06998 0
M  V30 2873 H 258.434 0.172499 -3.23841 0
M  V30 2874 H 258.219 -1.56576 -3.5948 0
M  V30 2875 H 259.709 -0.722073 -4.1131 0
M  V30 2876 N 260.146 1.09593 -1.13257 0
M  V30 2877 C 261.076 2.18214 -0.830946 0
M  V30 2878 C 262.057 1.68812 0.208966 0
M  V30 2879 O 263.242 1.9408 0.0682666 0
M  V30 2880 C 260.372 3.46051 -0.294296 0
M  V30 2881 C 259.326 4.08778 -1.26826 0
M  V30 2882 C 258.652 5.31419 -0.591449 0
M  V30 2883 C 259.952 4.51476 -2.62615 0
M  V30 2884 H 261.646 2.43703 -1.73923 0
M  V30 2885 H 259.192 1.17128 -0.837675 0
M  V30 2886 H 261.145 4.2134 -0.0709606 0
M  V30 2887 H 259.869 3.20079 0.649366 0
M  V30 2888 H 258.528 3.35505 -1.47756 0
M  V30 2889 H 258.176 5.01727 0.357633 0
M  V30 2890 H 257.876 5.74341 -1.24123 0
M  V30 2891 H 259.4 6.09433 -0.377355 0
M  V30 2892 H 260.814 5.17999 -2.45663 0
M  V30 2893 H 259.211 5.05277 -3.23752 0
M  V30 2894 H 260.281 3.63962 -3.20406 0
M  V30 2895 N 261.624 0.925811 1.2754 0
M  V30 2896 C 262.849 0.580924 1.99098 0
M  V30 2897 C 263.274 -0.833555 1.68622 0
M  V30 2898 O 262.632 -1.55903 0.925422 0
M  V30 2899 C 262.68 0.811186 3.51358 0
M  V30 2900 O 261.784 -0.124129 4.12213 0
M  V30 2901 H 261.125 0.223873 0.625122 0
M  V30 2902 H 263.655 1.24455 1.62395 0
M  V30 2903 H 263.665 0.72601 4.01489 0
M  V30 2904 H 262.34 1.84227 3.72872 0
M  V30 2905 H 260.917 0.0108006 3.72898 0
M  V30 2906 N 263.102 -1.41638 0.69111 0
M  V30 2907 C 264.33 -2.05628 0.22909 0
M  V30 2908 C 264.745 -1.51992 -1.11999 0
M  V30 2909 O 264.102 -0.666322 -1.69901 0
M  V30 2910 C 264.153 -3.61084 0.173283 0
M  V30 2911 O 263.874 -4.12735 1.46907 0
M  V30 2912 C 265.375 -4.42213 -0.310266 0
M  V30 2913 H 262.595 -0.662327 0.107534 0
M  V30 2914 H 265.139 -1.81489 0.942438 0
M  V30 2915 H 263.294 -3.84278 -0.490858 0
M  V30 2916 H 263.708 -5.06743 1.35322 0
M  V30 2917 H 265.182 -5.51194 -0.298196 0
M  V30 2918 H 265.659 -4.1799 -1.34838 0
M  V30 2919 H 266.265 -4.24074 0.322716 0
M  V30 2920 N 264.58 -0.43555 -1.51462 0
M  V30 2921 C 265.828 0.131254 -2.01673 0
M  V30 2922 C 266.149 1.43368 -1.32177 0
M  V30 2923 O 265.419 1.90524 -0.455769 0
M  V30 2924 H 263.999 0.0514954 -0.745223 0
M  V30 2925 H 266.661 -0.577847 -1.86137 0
M  V30 2926 H 265.757 0.308446 -3.10572 0
M  V30 2927 N 266.058 1.56714 -0.166846 0
M  V30 2928 C 267.335 1.88412 0.525373 0
M  V30 2929 C 267.715 1.07602 1.81618 0
M  V30 2930 O 267.063 0.168621 2.27877 0
M  V30 2931 C 267.273 3.40363 0.771613 0
M  V30 2932 C 268.621 4.10007 1.1036 0
M  V30 2933 O 269.645 3.45655 0.860304 0
M  V30 2934 O 268.504 5.2369 1.56239 0
M  V30 2935 H 265.598 0.781587 0.270278 0
M  V30 2936 H 268.144 1.68458 -0.204946 0
M  V30 2937 H 266.916 3.91046 -0.141093 0
M  V30 2938 H 266.539 3.65914 1.55541 0
M  V30 2939 N 267.536 -0.106894 1.57237 0
M  V30 2940 C 268.782 -0.81373 1.85759 0
M  V30 2941 C 269.115 -1.78952 0.754315 0
M  V30 2942 O 268.39 -1.93029 -0.23879 0
M  V30 2943 C 268.673 -1.55293 3.24894 0
M  V30 2944 C 268.526 -0.595929 4.45835 0
M  V30 2945 C 269.845 -2.5063 3.61763 0
M  V30 2946 H 266.964 -0.294369 0.67566 0
M  V30 2947 H 269.606 -0.0776472 1.89841 0
M  V30 2948 H 267.756 -2.1804 3.21544 0
M  V30 2949 H 269.428 0.0236262 4.61294 0
M  V30 2950 H 267.671 0.0916191 4.33703 0
M  V30 2951 H 268.342 -1.15004 5.39887 0
M  V30 2952 H 270.818 -1.97982 3.65981 0
M  V30 2953 H 269.694 -2.99376 4.60071 0
M  V30 2954 H 269.955 -3.3385 2.89821 0
M  V30 2955 N 269.014 -1.53014 -0.377408 0
M  V30 2956 C 270.26 -1.68872 -1.12294 0
M  V30 2957 C 270.593 -0.433224 -1.89306 0
M  V30 2958 O 269.868 0.569258 -1.85983 0
M  V30 2959 C 270.151 -2.93115 -2.09179 0
M  V30 2960 C 270.004 -4.28794 -1.35853 0
M  V30 2961 C 271.323 -3.12928 -3.09458 0
M  V30 2962 H 268.442 -0.614518 -0.406862 0
M  V30 2963 H 271.084 -1.85633 -0.40503 0
M  V30 2964 H 269.234 -2.78956 -2.70399 0
M  V30 2965 H 270.906 -4.54742 -0.775082 0
M  V30 2966 H 269.149 -4.28744 -0.660364 0
M  V30 2967 H 269.82 -5.11837 -2.06706 0
M  V30 2968 H 272.296 -3.26194 -2.58334 0
M  V30 2969 H 271.172 -4.01316 -3.74482 0
M  V30 2970 H 271.433 -2.27669 -3.78971 0
M  V30 2971 N 270.492 0.636531 -1.44174 0
M  V30 2972 C 271.402 1.77754 -1.53103 0
M  V30 2973 C 272.418 1.68928 -0.417034 0
M  V30 2974 O 273.594 1.89801 -0.6736 0
M  V30 2975 C 270.659 3.14115 -1.46741 0
M  V30 2976 C 269.72 3.34612 -2.68948 0
M  V30 2977 C 268.953 4.64467 -2.6288 0
M  V30 2978 O 269.176 5.44919 -1.68581 0
M  V30 2979 O 268.11 4.87049 -3.53648 0
M  V30 2980 H 271.936 1.73174 -2.49489 0
M  V30 2981 H 269.521 0.79709 -1.2636 0
M  V30 2982 H 271.403 3.95412 -1.45696 0
M  V30 2983 H 270.078 3.19249 -0.534975 0
M  V30 2984 H 268.985 2.53014 -2.75562 0
M  V30 2985 H 270.318 3.34336 -3.61221 0
M  V30 2986 N 271.97 1.30982 0.876444 0
M  V30 2987 C 273.216 1.20474 1.63138 0
M  V30 2988 C 273.549 -0.238096 1.92735 0
M  V30 2989 O 272.824 -1.1692 1.55435 0
M  V30 2990 C 273.107 2.04244 2.96574 0
M  V30 2991 C 272.96 3.56793 2.73896 0
M  V30 2992 C 274.279 1.88684 3.97601 0
M  V30 2993 H 271.398 0.439001 0.591985 0
M  V30 2994 H 274.04 1.60704 1.01361 0
M  V30 2995 H 272.19 1.70063 3.493 0
M  V30 2996 H 273.862 4.01077 2.27892 0
M  V30 2997 H 272.105 3.80548 2.08245 0
M  V30 2998 H 272.776 4.10706 3.68815 0
M  V30 2999 H 275.252 2.18584 3.54062 0
M  V30 3000 H 274.128 2.4961 4.88862 0
M  V30 3001 H 274.389 0.848343 4.33884 0
M  V30 3002 N 273.449 -1.08991 1.13837 0
M  V30 3003 C 274.695 -1.81526 0.90422 0
M  V30 3004 C 275.028 -1.85706 -0.568066 0
M  V30 3005 O 274.303 -1.32855 -1.42056 0
M  V30 3006 C 274.586 -3.27447 1.49835 0
M  V30 3007 C 274.439 -3.31512 3.04006 0
M  V30 3008 C 275.758 -4.24256 1.17025 0
M  V30 3009 H 272.877 -0.659029 0.329923 0
M  V30 3010 H 275.519 -1.27644 1.40737 0
M  V30 3011 H 273.669 -3.73462 1.07044 0
M  V30 3012 H 275.341 -2.93867 3.55584 0
M  V30 3013 H 273.584 -2.70963 3.38765 0
M  V30 3014 H 274.255 -4.34329 3.40679 0
M  V30 3015 H 276.731 -3.86549 1.54009 0
M  V30 3016 H 275.607 -5.24684 1.61237 0
M  V30 3017 H 275.868 -4.42019 0.0846274 0
M  V30 3018 N 274.927 -0.932562 -1.27047 0
M  V30 3019 C 275.837 -0.441219 -2.30414 0
M  V30 3020 C 276.853 0.480525 -1.67233 0
M  V30 3021 O 278.029 0.362151 -1.98117 0
M  V30 3022 C 275.094 0.293651 -3.45454 0
M  V30 3023 C 274.155 -0.663601 -4.2414 0
M  V30 3024 C 273.388 0.0362932 -5.33688 0
M  V30 3025 O 273.611 1.2548 -5.56427 0
M  V30 3026 O 272.545 -0.638015 -5.98509 0
M  V30 3027 H 276.371 -1.29962 -2.74488 0
M  V30 3028 H 273.956 -0.6981 -1.32087 0
M  V30 3029 H 275.838 0.707951 -4.15411 0
M  V30 3030 H 274.513 1.12758 -3.03426 0
M  V30 3031 H 273.42 -1.12768 -3.56699 0
M  V30 3032 H 274.753 -1.46489 -4.69896 0
M  V30 3033 N 276.405 1.4127 -0.698611 0
M  V30 3034 C 277.352 2.30773 -0.0352094 0
M  V30 3035 C 278.322 1.47273 0.768111 0
M  V30 3036 O 279.507 1.76053 0.735524 0
M  V30 3037 C 276.647 3.33346 0.893 0
M  V30 3038 C 275.76 4.31924 0.0809695 0
M  V30 3039 C 274.895 5.21566 1.0071 0
M  V30 3040 C 273.934 6.11811 0.188155 0
M  V30 3041 N 273.071 6.93926 1.06825 0
M  V30 3042 H 277.911 2.86943 -0.804207 0
M  V30 3043 H 275.448 1.4132 -0.408294 0
M  V30 3044 H 277.406 3.91368 1.44523 0
M  V30 3045 H 276.036 2.78719 1.62836 0
M  V30 3046 H 275.088 3.75825 -0.588224 0
M  V30 3047 H 276.4 4.95716 -0.553801 0
M  V30 3048 H 275.554 5.84437 1.62845 0
M  V30 3049 H 274.293 4.58008 1.67572 0
M  V30 3050 H 273.298 5.47986 -0.446254 0
M  V30 3051 H 274.523 6.77425 -0.476716 0
M  V30 3052 H 272.469 6.32973 1.72283 0
M  V30 3053 H 272.386 7.54416 0.489123 0
M  V30 3054 H 273.654 7.61262 1.67632 0
M  V30 3055 N 277.883 0.443576 1.51229 0
M  V30 3056 C 279.108 -0.121648 2.07043 0
M  V30 3057 C 279.533 -1.35156 1.30823 0
M  V30 3058 O 278.891 -1.7793 0.347934 0
M  V30 3059 C 278.939 -0.41624 3.5819 0
M  V30 3060 O 278.043 -1.50163 3.8409 0
M  V30 3061 H 277.384 0.000871367 0.663999 0
M  V30 3062 H 279.914 0.626706 1.94765 0
M  V30 3063 H 279.924 -0.664867 4.02546 0
M  V30 3064 H 278.599 0.482653 4.1309 0
M  V30 3065 H 277.176 -1.24248 3.51592 0
M  V30 3066 N 279.361 -1.56624 0.175154 0
M  V30 3067 C 280.271 -2.21741 -0.766042 0
M  V30 3068 C 281.287 -1.21023 -1.25018 0
M  V30 3069 O 282.463 -1.53697 -1.3015 0
M  V30 3070 C 279.528 -2.84839 -1.97655 0
M  V30 3071 C 278.589 -4.00769 -1.53892 0
M  V30 3072 C 277.822 -4.60849 -2.69173 0
M  V30 3073 O 278.045 -4.19823 -3.86141 0
M  V30 3074 O 276.979 -5.50655 -2.43028 0
M  V30 3075 H 280.805 -3.02738 -0.241585 0
M  V30 3076 H 278.39 -1.49305 -0.053222 0
M  V30 3077 H 280.272 -3.24834 -2.68442 0
M  V30 3078 H 278.947 -2.06836 -2.48999 0
M  V30 3079 H 277.854 -3.65436 -0.80044 0
M  V30 3080 H 279.187 -4.80376 -1.07236 0
M  V30 3081 N 280.839 0.0985539 -1.57292 0
M  V30 3082 C 282.064 0.820196 -1.90493 0
M  V30 3083 C 282.489 1.71658 -0.769094 0
M  V30 3084 O 281.847 1.79133 0.279495 0
M  V30 3085 C 281.895 1.61242 -3.22542 0
M  V30 3086 O 280.999 2.72108 -3.09888 0
M  V30 3087 H 280.34 0.225547 -0.62452 0
M  V30 3088 H 282.87 0.0748159 -2.04463 0
M  V30 3089 H 282.88 1.99737 -3.55766 0
M  V30 3090 H 281.555 0.954535 -4.04798 0
M  V30 3091 H 280.132 2.36667 -2.88172 0
M  V30 3092 N 282.317 1.53212 0.369288 0
M  V30 3093 C 283.565 1.68881 1.11012 0
M  V30 3094 C 283.886 0.441285 1.89941 0
M  V30 3095 O 283.156 -0.544623 1.88177 0
M  V30 3096 H 281.736 0.622569 0.412816 0
M  V30 3097 H 284.398 1.90391 0.416802 0
M  V30 3098 H 283.494 2.54822 1.80201 0
M  V30 3099 N 283.795 -0.628877 1.44509 0
M  V30 3100 C 285.041 -1.38863 1.48623 0
M  V30 3101 C 285.396 -1.92038 0.117933 0
M  V30 3102 O 284.689 -1.70853 -0.86716 0
M  V30 3103 C 284.883 -2.56995 2.48371 0
M  V30 3104 C 284.712 -2.15385 3.94765 0
M  V30 3105 C 283.482 -2.02558 4.62924 0
M  V30 3106 C 285.68 -1.74158 4.83915 0
M  V30 3107 N 283.662 -1.54534 5.94132 0
M  V30 3108 C 285.033 -1.37396 6.04584 0
M  V30 3109 C 287.088 -1.61559 4.7096 0
M  V30 3110 C 285.791 -0.892948 7.13736 0
M  V30 3111 C 287.817 -1.14862 5.80139 0
M  V30 3112 C 287.179 -0.790516 6.9995 0
M  V30 3113 H 283.278 -0.502858 0.59888 0
M  V30 3114 H 285.862 -0.72121 1.8085 0
M  V30 3115 H 284.033 -3.21362 2.1813 0
M  V30 3116 H 285.765 -3.23801 2.42766 0
M  V30 3117 H 282.52 -2.23082 4.1777 0
M  V30 3118 H 282.944 -1.32815 6.63844 0
M  V30 3119 H 287.586 -1.87876 3.78764 0
M  V30 3120 H 285.304 -0.617291 8.05739 0
M  V30 3121 H 288.89 -1.05569 5.72142 0
M  V30 3122 H 287.77 -0.434713 7.82994 0
M  V30 3123 N 285.273 -1.31445 -0.869486 0
M  V30 3124 C 286.519 -1.22347 -1.62489 0
M  V30 3125 C 286.874 0.216204 -1.91181 0
M  V30 3126 O 286.167 1.14977 -1.53268 0
M  V30 3127 C 286.361 -2.00145 -2.96102 0
M  V30 3128 C 286.19 -3.51531 -2.80456 0
M  V30 3129 C 284.96 -4.20882 -2.79618 0
M  V30 3130 C 287.158 -4.46471 -2.5528 0
M  V30 3131 N 285.14 -5.58421 -2.55027 0
M  V30 3132 C 286.511 -5.71682 -2.39957 0
M  V30 3133 C 288.566 -4.35892 -2.40629 0
M  V30 3134 C 287.269 -6.87511 -2.11472 0
M  V30 3135 C 289.295 -5.51505 -2.13532 0
M  V30 3136 C 288.657 -6.75707 -1.98998 0
M  V30 3137 H 284.756 -0.502815 -0.598917 0
M  V30 3138 H 287.34 -1.65639 -1.02332 0
M  V30 3139 H 285.511 -1.59221 -3.54264 0
M  V30 3140 H 287.243 -1.83063 -3.60929 0
M  V30 3141 H 283.998 -3.72857 -2.92018 0
M  V30 3142 H 284.422 -6.30841 -2.45701 0
M  V30 3143 H 289.064 -3.40533 -2.50593 0
M  V30 3144 H 286.782 -7.82897 -2.00245 0
M  V30 3145 H 290.368 -5.45238 -2.02995 0
M  V30 3146 H 289.248 -7.63655 -1.78326 0
M  V30 3147 N 286.751 1.08385 -1.14413 0
M  V30 3148 C 287.998 1.80776 -0.912482 0
M  V30 3149 C 288.326 1.86236 0.560934 0
M  V30 3150 O 287.581 1.33431 1.43159 0
M  V30 3151 C 287.88 3.26273 -1.45879 0
M  V30 3152 C 287.546 3.4093 -2.95089 0
M  V30 3153 C 286.208 3.44638 -3.35824 0
M  V30 3154 C 288.56 3.44591 -3.91033 0
M  V30 3155 C 285.888 3.49597 -4.71167 0
M  V30 3156 C 288.24 3.51086 -5.26233 0
M  V30 3157 C 286.904 3.53067 -5.6648 0
M  V30 3158 H 286.174 0.661507 -0.333901 0
M  V30 3159 H 288.821 1.27613 -1.42784 0
M  V30 3160 H 287.126 3.82146 -0.864376 0
M  V30 3161 H 288.823 3.80839 -1.2555 0
M  V30 3162 H 285.413 3.38736 -2.62594 0
M  V30 3163 H 289.597 3.40957 -3.60641 0
M  V30 3164 H 284.853 3.49424 -5.0171 0
M  V30 3165 H 289.027 3.52864 -6.00383 0
M  V30 3166 H 286.654 3.56662 -6.71339 0
M  V30 3167 N 288.23 0.939286 1.26551 0
M  V30 3168 C 289.47 0.5933 1.956 0
M  V30 3169 C 289.834 -0.851515 1.72085 0
M  V30 3170 O 291.035 -1.30634 2.34921 0
M  V30 3171 C 289.306 0.923996 3.45249 0
M  V30 3172 S 290.865 0.688269 4.33369 0
M  V30 3173 H 287.683 0.218591 0.676564 0
M  V30 3174 H 290.285 1.2102 1.5354 0
M  V30 3175 H 288.989 1.97297 3.59864 0
M  V30 3176 H 288.52 0.296746 3.92279 0
M  V30 3177 H 290.535 -0.448434 4.9417 0
M  V30 3178 N 289.708 -1.40897 0.706093 0
M  V30 3179 C 290.64 -2.29199 0.00815776 0
M  V30 3180 C 291.653 -1.45336 -0.733582 0
M  V30 3181 O 292.842 -1.68727 -0.582537 0
M  V30 3182 C 289.942 -3.23417 -1.01265 0
M  V30 3183 C 289.115 -4.36089 -0.338387 0
M  V30 3184 C 288.174 -5.10811 -1.26326 0
M  V30 3185 O 287.2 -5.64215 -0.751651 0
M  V30 3186 N 288.402 -5.19269 -2.595 0
M  V30 3187 H 291.167 -2.89738 0.766297 0
M  V30 3188 H 288.728 -1.52164 0.55296 0
M  V30 3189 H 290.72 -3.70276 -1.63334 0
M  V30 3190 H 289.29 -2.64112 -1.67223 0
M  V30 3191 H 288.51 -3.91479 0.462352 0
M  V30 3192 H 289.798 -5.08634 0.130031 0
M  V30 3193 H 289.196 -4.77347 -3.03573 0
M  V30 3194 H 287.753 -5.69667 -3.16737 0
M  V30 3195 N 291.186 -0.45159 -1.50991 0
M  V30 3196 C 292.119 0.398179 -2.24699 0
M  V30 3197 C 293.097 1.01276 -1.27208 0
M  V30 3198 O 294.281 1.05247 -1.56382 0
M  V30 3199 C 291.408 1.55618 -3.00833 0
M  V30 3200 C 290.454 1.0609 -4.13095 0
M  V30 3201 S 291.287 -0.00865136 -5.35499 0
M  V30 3202 C 292.443 1.15369 -6.15175 0
M  V30 3203 H 292.676 -0.227555 -2.96428 0
M  V30 3204 H 290.209 -0.236251 -1.52582 0
M  V30 3205 H 292.167 2.21997 -3.45293 0
M  V30 3206 H 290.828 2.15337 -2.28667 0
M  V30 3207 H 290.021 1.92726 -4.65696 0
M  V30 3208 H 289.623 0.47513 -3.7097 0
M  V30 3209 H 291.915 2.06925 -6.45126 0
M  V30 3210 H 292.858 0.667344 -7.04948 0
M  V30 3211 H 293.266 1.3987 -5.46897 0
M  V30 3212 N 292.664 1.56529 -0.183458 0
M  V30 3213 C 293.611 2.18546 0.742055 0
M  V30 3214 C 294.581 1.12912 1.2182 0
M  V30 3215 O 295.766 1.41115 1.28418 0
M  V30 3216 C 292.906 2.83977 1.96089 0
M  V30 3217 C 292.019 4.04105 1.52719 0
M  V30 3218 C 291.154 4.57427 2.70063 0
M  V30 3219 C 290.193 5.69938 2.23243 0
M  V30 3220 N 289.33 6.17717 3.33722 0
M  V30 3221 H 294.17 2.97284 0.206432 0
M  V30 3222 H 291.707 1.46823 0.0901571 0
M  V30 3223 H 293.665 3.20077 2.67594 0
M  V30 3224 H 292.295 2.07822 2.47002 0
M  V30 3225 H 291.347 3.73745 0.708436 0
M  V30 3226 H 292.659 4.85513 1.1436 0
M  V30 3227 H 291.813 4.95772 3.49708 0
M  V30 3228 H 290.552 3.75101 3.11689 0
M  V30 3229 H 289.557 5.31133 1.42048 0
M  V30 3230 H 290.782 6.54073 1.82661 0
M  V30 3231 H 288.728 5.38317 3.74902 0
M  V30 3232 H 288.645 6.94146 2.99495 0
M  V30 3233 H 289.913 6.60713 4.13616 0
M  V30 3234 N 294.142 -0.090211 1.57342 0
M  V30 3235 C 295.105 -1.09335 2.01441 0
M  V30 3236 C 296.105 -1.32666 0.908641 0
M  V30 3237 O 297.295 -1.28697 1.174 0
M  V30 3238 C 294.427 -2.44136 2.3793 0
M  V30 3239 H 295.62 -0.713662 2.91285 0
M  V30 3240 H 293.173 -0.335404 1.52659 0
M  V30 3241 H 293.908 -2.86972 1.51055 0
M  V30 3242 H 293.693 -2.28548 3.18603 0
M  V30 3243 H 295.183 -3.16277 2.72688 0
M  V30 3244 N 295.62 -1.53406 -0.361157 0
M  V30 3245 C 296.567 -1.80156 -1.44265 0
M  V30 3246 C 297.537 -0.646183 -1.53015 0
M  V30 3247 O 298.722 -0.888818 -1.68833 0
M  V30 3248 C 295.862 -2.00116 -2.81154 0
M  V30 3249 C 294.975 -3.27833 -2.81335 0
M  V30 3250 C 294.11 -3.37957 -4.09828 0
M  V30 3251 C 293.149 -4.59689 -4.04168 0
M  V30 3252 N 292.286 -4.66942 -5.24318 0
M  V30 3253 H 297.126 -2.72438 -1.20754 0
M  V30 3254 H 294.663 -1.34954 -0.585296 0
M  V30 3255 H 296.621 -2.09677 -3.60682 0
M  V30 3256 H 295.251 -1.11167 -3.03054 0
M  V30 3257 H 294.303 -3.27204 -1.94014 0
M  V30 3258 H 295.615 -4.17442 -2.73027 0
M  V30 3259 H 294.769 -3.46853 -4.97773 0
M  V30 3260 H 293.508 -2.46372 -4.20894 0
M  V30 3261 H 292.513 -4.50889 -3.14609 0
M  V30 3262 H 293.738 -5.5262 -3.947 0
M  V30 3263 H 291.684 -3.7826 -5.35962 0
M  V30 3264 H 291.601 -5.50462 -5.18197 0
M  V30 3265 H 292.869 -4.80127 -6.14084 0
M  V30 3266 N 297.098 0.621204 -1.44841 0
M  V30 3267 C 298.514 0.94048 -1.28946 0
M  V30 3268 C 298.714 2.00154 -0.23249 0
M  V30 3269 O 297.77 2.49651 0.378237 0
M  V30 3270 C 299.083 1.39433 -2.66419 0
M  V30 3271 C 300.631 1.50927 -2.74208 0
M  V30 3272 C 301.106 1.99692 -4.12174 0
M  V30 3273 N 302.597 2.06947 -4.144 0
M  V30 3274 C 303.332 2.45871 -5.1801 0
M  V30 3275 N 302.828 2.83862 -6.31977 0
M  V30 3276 N 304.621 2.46092 -5.05366 0
M  V30 3277 H 296.772 -0.0803548 -2.12248 0
M  V30 3278 H 299.035 0.0266913 -0.947624 0
M  V30 3279 H 298.741 0.688925 -3.44887 0
M  V30 3280 H 298.615 2.36347 -2.93973 0
M  V30 3281 H 301.002 2.20561 -1.96053 0
M  V30 3282 H 301.083 0.523627 -2.50383 0
M  V30 3283 H 300.727 1.30649 -4.90809 0
M  V30 3284 H 300.657 2.99146 -4.33381 0
M  V30 3285 H 303.148 1.80232 -3.32152 0
M  V30 3286 H 303.461 3.12405 -7.0684 0
M  V30 3287 H 301.806 2.8159 -6.35399 0
M  V30 3288 H 304.997 2.1581 -4.15384 0
M  V30 3289 H 305.17 2.76102 -5.86235 0
M  V30 3290 N 298.576 1.31904 0.862503 0
M  V30 3291 C 299.824 1.21776 1.61292 0
M  V30 3292 C 300.145 -0.222413 1.93727 0
M  V30 3293 O 299.415 -1.1451 1.58947 0
M  V30 3294 H 297.995 0.447717 0.597962 0
M  V30 3295 H 300.657 1.65326 1.03215 0
M  V30 3296 H 299.753 1.7948 2.5533 0
M  V30 3297 N 300.054 -1.07777 1.14986 0
M  V30 3298 C 301.3 -1.80719 0.93339 0
M  V30 3299 C 301.655 -1.8484 -0.534019 0
M  V30 3300 O 300.948 -1.31795 -1.3907 0
M  V30 3301 C 301.142 -3.25495 1.47608 0
M  V30 3302 C 300.971 -3.3548 2.99472 0
M  V30 3303 C 299.741 -3.46293 3.6798 0
M  V30 3304 C 301.939 -3.26596 3.97291 0
M  V30 3305 N 299.921 -3.45136 5.07695 0
M  V30 3306 C 301.292 -3.32506 5.23297 0
M  V30 3307 C 303.347 -3.10376 3.89321 0
M  V30 3308 C 302.05 -3.23866 6.42264 0
M  V30 3309 C 304.076 -3.03069 5.07842 0
M  V30 3310 C 303.438 -3.09587 6.32721 0
M  V30 3311 H 299.537 -0.674814 0.395158 0
M  V30 3312 H 302.121 -1.28681 1.46114 0
M  V30 3313 H 300.292 -3.75963 0.975022 0
M  V30 3314 H 302.024 -3.86535 1.19887 0
M  V30 3315 H 298.779 -3.50456 3.18555 0
M  V30 3316 H 299.203 -3.48097 5.80653 0
M  V30 3317 H 303.845 -3.04194 2.93642 0
M  V30 3318 H 301.563 -3.28807 7.38181 0
M  V30 3319 H 305.149 -2.91629 5.03432 0
M  V30 3320 H 304.029 -3.0397 7.22891 0
M  V30 3321 N 301.532 -0.945985 -1.26051 0
M  V30 3322 C 302.781 -0.591836 -1.92822 0
M  V30 3323 C 303.094 0.873956 -1.7499 0
M  V30 3324 O 304.3 1.33769 -2.36259 0
M  V30 3325 C 302.756 -1.00776 -3.45503 0
M  V30 3326 C 302.364 -2.4955 -3.7206 0
M  V30 3327 C 304.108 -0.725735 -4.1825 0
M  V30 3328 C 302.015 -2.84988 -5.18205 0
M  V30 3329 H 300.945 -0.217635 -0.721908 0
M  V30 3330 H 303.596 -1.14927 -1.43052 0
M  V30 3331 H 301.978 -0.378812 -3.94184 0
M  V30 3332 H 303.152 -3.1739 -3.34066 0
M  V30 3333 H 301.467 -2.75133 -3.12555 0
M  V30 3334 H 304.064 -0.966771 -5.25887 0
M  V30 3335 H 304.407 0.337639 -4.14929 0
M  V30 3336 H 304.94 -1.31463 -3.7545 0
M  V30 3337 H 301.679 -3.90307 -5.26631 0
M  V30 3338 H 301.199 -2.21813 -5.57278 0
M  V30 3339 H 302.878 -2.73712 -5.86252 0
M  V30 3340 N 303.011 1.40521 -0.713556 0
M  V30 3341 C 304.422 1.83853 -0.324807 0
M  V30 3342 C 304.773 1.59667 1.14021 0
M  V30 3343 O 303.898 1.07649 1.87725 0
M  V30 3344 C 304.493 3.33751 -0.582746 0
M  V30 3345 C 303.052 3.75584 -0.247727 0
M  V30 3346 C 302.199 2.63753 -0.856121 0
M  V30 3347 H 305.15 1.29817 -0.91286 0
M  V30 3348 H 305.171 3.80194 0.152682 0
M  V30 3349 H 304.683 3.51322 -1.64908 0
M  V30 3350 H 302.784 3.63608 0.813624 0
M  V30 3351 H 302.897 4.7373 -0.715307 0
M  V30 3352 H 301.261 2.53108 -0.28432 0
M  V30 3353 H 302.044 2.84137 -1.92668 0
M  V30 3354 N 304.489 0.459591 1.5075 0
M  V30 3355 C 305.452 -0.329093 2.26825 0
M  V30 3356 C 306.452 -0.930481 1.31144 0
M  V30 3357 O 307.642 -0.801453 1.54669 0
M  V30 3358 C 304.774 -1.46768 3.07688 0
M  V30 3359 H 305.967 0.337924 2.9799 0
M  V30 3360 H 303.52 0.213336 1.54837 0
M  V30 3361 H 304.255 -2.17009 2.40993 0
M  V30 3362 H 304.04 -1.04238 3.77991 0
M  V30 3363 H 305.53 -2.02433 3.65254 0
M  V30 3364 N 305.967 -1.56429 0.191757 0
M  V30 3365 C 307.192 -2.02309 -0.456706 0
M  V30 3366 C 307.617 -1.07103 -1.5463 0
M  V30 3367 O 306.975 -0.0539677 -1.8122 0
M  V30 3368 C 307.023 -3.46654 -0.993159 0
M  V30 3369 O 306.127 -3.54559 -2.10622 0
M  V30 3370 H 305.468 -0.655303 -0.107114 0
M  V30 3371 H 307.998 -2.02364 0.301653 0
M  V30 3372 H 308.008 -3.86377 -1.31061 0
M  V30 3373 H 306.683 -4.1544 -0.195504 0
M  V30 3374 H 305.26 -3.26708 -1.79767 0
M  V30 3375 N 307.445 0.0818655 -1.57387 0
M  V30 3376 C 308.692 0.782914 -1.86753 0
M  V30 3377 C 309.02 1.78082 -0.782118 0
M  V30 3378 O 308.275 1.94426 0.22295 0
M  V30 3379 C 308.574 1.53513 -3.22752 0
M  V30 3380 C 308.24 0.678134 -4.45771 0
M  V30 3381 C 306.902 0.441929 -4.79166 0
M  V30 3382 C 309.254 0.0832243 -5.21134 0
M  V30 3383 C 306.582 -0.398833 -5.85343 0
M  V30 3384 C 308.934 -0.744935 -6.28199 0
M  V30 3385 C 307.598 -0.991107 -6.60101 0
M  V30 3386 H 306.868 0.286489 -0.683378 0
M  V30 3387 H 309.515 0.0439808 -1.91449 0
M  V30 3388 H 307.82 2.34599 -3.138 0
M  V30 3389 H 309.517 2.08218 -3.42705 0
M  V30 3390 H 306.107 0.872357 -4.19628 0
M  V30 3391 H 310.291 0.252847 -4.95655 0
M  V30 3392 H 305.547 -0.598405 -6.08465 0
M  V30 3393 H 309.721 -1.21271 -6.8576 0
M  V30 3394 H 307.348 -1.64437 -7.42202 0
M  V30 3395 N 308.923 1.53595 0.353017 0
M  V30 3396 C 309.853 1.83902 1.43883 0
M  V30 3397 C 310.834 0.693421 1.55324 0
M  V30 3398 O 312.019 0.944452 1.69687 0
M  V30 3399 C 309.149 2.04016 2.8106 0
M  V30 3400 C 308.103 3.19814 2.84434 0
M  V30 3401 C 307.429 3.25244 4.24406 0
M  V30 3402 C 308.729 4.58133 2.50822 0
M  V30 3403 H 310.423 2.74835 1.1877 0
M  V30 3404 H 307.969 1.32242 0.569917 0
M  V30 3405 H 309.922 2.238 3.57059 0
M  V30 3406 H 308.646 1.09804 3.07588 0
M  V30 3407 H 307.305 2.9987 2.10887 0
M  V30 3408 H 306.953 2.28646 4.48029 0
M  V30 3409 H 306.653 4.03054 4.27576 0
M  V30 3410 H 308.177 3.47228 5.0226 0
M  V30 3411 H 309.591 4.77995 3.16534 0
M  V30 3412 H 307.988 5.38276 2.6529 0
M  V30 3413 H 309.058 4.62387 1.46034 0
M  V30 3414 N 310.401 -0.613514 1.45168 0
M  V30 3415 C 311.311 -1.75296 1.55912 0
M  V30 3416 C 312.327 -1.68244 0.443856 0
M  V30 3417 O 313.503 -1.88706 0.70371 0
M  V30 3418 C 310.568 -3.1174 1.5172 0
M  V30 3419 C 309.629 -3.30291 2.74238 0
M  V30 3420 C 308.862 -4.60226 2.70236 0
M  V30 3421 O 309.085 -5.42168 1.77229 0
M  V30 3422 O 308.019 -4.81361 3.61352 0
M  V30 3423 H 311.845 -1.69183 2.52212 0
M  V30 3424 H 309.43 -0.776886 1.27612 0
M  V30 3425 H 311.312 -3.93044 1.51968 0
M  V30 3426 H 309.987 -3.18357 0.585697 0
M  V30 3427 H 308.894 -2.48598 2.79553 0
M  V30 3428 H 310.227 -3.28547 3.66494 0
M  V30 3429 N 311.879 -1.3236 -0.855495 0
M  V30 3430 C 313.29 -1.2056 -1.42556 0
M  V30 3431 C 313.641 0.182209 -1.95352 0
M  V30 3432 O 312.766 1.08088 -1.87472 0
M  V30 3433 C 313.361 -2.1826 -2.59129 0
M  V30 3434 C 311.92 -2.10351 -3.12137 0
M  V30 3435 C 311.067 -2.06674 -1.84882 0
M  V30 3436 H 314.018 -1.442 -0.662727 0
M  V30 3437 H 314.039 -1.78064 -3.36264 0
M  V30 3438 H 313.551 -3.19257 -2.20673 0
M  V30 3439 H 311.652 -1.12599 -3.55179 0
M  V30 3440 H 311.765 -3.00135 -3.73438 0
M  V30 3441 H 310.129 -1.51901 -2.04446 0
M  V30 3442 H 310.912 -3.09451 -1.48643 0
M  V30 3443 N 313.357 1.07166 -1.15556 0
M  V30 3444 C 314.287 2.16403 -0.877046 0
M  V30 3445 C 315.268 1.69217 0.173111 0
M  V30 3446 O 316.453 1.94181 0.027084 0
M  V30 3447 C 313.583 3.45349 -0.367632 0
M  V30 3448 C 312.537 4.05995 -1.35468 0
M  V30 3449 C 311.863 5.30045 -0.704038 0
M  V30 3450 C 313.163 4.45804 -2.72132 0
M  V30 3451 H 314.857 2.39959 -1.79053 0
M  V30 3452 H 312.403 1.15325 -0.862331 0
M  V30 3453 H 314.356 4.21095 -0.160317 0
M  V30 3454 H 313.08 3.21385 0.581326 0
M  V30 3455 H 311.739 3.32296 -1.54839 0
M  V30 3456 H 311.387 5.02373 0.251128 0
M  V30 3457 H 311.087 5.71579 -1.36277 0
M  V30 3458 H 312.611 6.08495 -0.50654 0
M  V30 3459 H 314.025 5.12671 -2.56595 0
M  V30 3460 H 312.422 4.98296 -3.34397 0
M  V30 3461 H 313.492 3.57083 -3.28054 0
M  V30 3462 N 314.835 0.952656 1.25548 0
M  V30 3463 C 316.112 0.523818 1.88456 0
M  V30 3464 C 316.492 -0.998871 1.85973 0
M  V30 3465 O 315.84 -1.86381 1.3219 0
M  V30 3466 C 316.05 1.0982 3.31271 0
M  V30 3467 C 317.398 1.17385 4.08051 0
M  V30 3468 O 318.422 1.04961 3.40384 0
M  V30 3469 O 317.281 1.36852 5.29088 0
M  V30 3470 H 314.375 0.172485 0.808813 0
M  V30 3471 H 316.921 1.04596 1.33633 0
M  V30 3472 H 315.693 2.1415 3.27499 0
M  V30 3473 H 315.316 0.559191 3.93648 0
M  V30 3474 N 316.313 -1.40141 0.720998 0
M  V30 3475 C 317.538 -2.05618 0.271258 0
M  V30 3476 C 317.963 -1.53978 -1.08039 0
M  V30 3477 O 317.321 -0.677463 -1.68167 0
M  V30 3478 C 317.369 -3.59609 0.267197 0
M  V30 3479 O 316.473 -4.05526 -0.749814 0
M  V30 3480 H 315.814 -0.651904 0.126162 0
M  V30 3481 H 318.344 -1.79439 0.982997 0
M  V30 3482 H 318.354 -4.0786 0.106744 0
M  V30 3483 H 317.029 -3.96559 1.25354 0
M  V30 3484 H 315.606 -3.68722 -0.556644 0
M  V30 3485 N 317.792 -0.46758 -1.50504 0
M  V30 3486 C 319.203 -0.0116166 -1.86696 0
M  V30 3487 C 319.554 1.39202 -1.38265 0
M  V30 3488 O 318.679 2.0313 -0.746132 0
M  V30 3489 C 319.274 -0.0143044 -3.38797 0
M  V30 3490 C 317.833 0.386175 -3.74414 0
M  V30 3491 C 316.98 -0.401287 -2.74381 0
M  V30 3492 H 319.931 -0.682022 -1.43297 0
M  V30 3493 H 319.952 0.788641 -3.72237 0
M  V30 3494 H 319.464 -1.03602 -3.74016 0
M  V30 3495 H 317.565 1.41237 -3.44794 0
M  V30 3496 H 317.678 0.0899596 -4.79016 0
M  V30 3497 H 316.042 0.144536 -2.5429 0
M  V30 3498 H 316.825 -1.42244 -3.12444 0
M  V30 3499 N 319.27 1.56325 -0.20005 0
M  V30 3500 C 320.547 1.89484 0.48529 0
M  V30 3501 C 320.927 1.1143 1.79294 0
M  V30 3502 O 320.275 0.216919 2.27468 0
M  V30 3503 C 320.485 3.41923 0.699243 0
M  V30 3504 C 321.833 4.12256 1.01638 0
M  V30 3505 O 322.857 3.47402 0.786792 0
M  V30 3506 O 321.716 5.26887 1.45095 0
M  V30 3507 H 318.81 0.787144 0.253639 0
M  V30 3508 H 321.356 1.67985 -0.240633 0
M  V30 3509 H 320.128 3.90658 -0.224008 0
M  V30 3510 H 319.751 3.69131 1.47744 0
M  V30 3511 N 320.748 -0.0735177 1.57428 0
M  V30 3512 C 321.658 -1.10547 2.06922 0
M  V30 3513 C 322.674 -1.42506 0.998402 0
M  V30 3514 O 323.85 -1.52717 1.31299 0
M  V30 3515 C 320.915 -2.40019 2.50184 0
M  V30 3516 C 319.976 -2.15046 3.71556 0
M  V30 3517 C 319.209 -3.38345 4.12745 0
M  V30 3518 O 319.432 -4.47399 3.53822 0
M  V30 3519 O 318.366 -3.2666 5.05546 0
M  V30 3520 H 322.192 -0.715013 2.95163 0
M  V30 3521 H 319.777 -0.287531 1.46607 0
M  V30 3522 H 321.659 -3.16218 2.78539 0
M  V30 3523 H 320.334 -2.78447 1.65072 0
M  V30 3524 H 319.241 -1.36558 3.48285 0
M  V30 3525 H 320.574 -1.81499 4.57514 0
M  V30 3526 N 322.226 -1.5378 -0.344866 0
M  V30 3527 C 323.454 -1.74899 -1.10534 0
M  V30 3528 C 323.869 -0.487534 -1.82397 0
M  V30 3529 O 323.226 0.540741 -1.74305 0
M  V30 3530 C 323.277 -2.92822 -2.11984 0
M  V30 3531 O 322.998 -4.14089 -1.43044 0
M  V30 3532 C 324.499 -3.25982 -3.00417 0
M  V30 3533 H 321.719 -0.584426 -0.329678 0
M  V30 3534 H 324.263 -2.006 -0.397474 0
M  V30 3535 H 322.418 -2.69457 -2.78338 0
M  V30 3536 H 322.832 -4.80272 -2.10805 0
M  V30 3537 H 324.306 -4.11848 -3.67539 0
M  V30 3538 H 324.783 -2.42228 -3.66363 0
M  V30 3539 H 325.389 -3.51349 -2.39654 0
M  V30 3540 N 323.704 0.605807 -1.45491 0
M  V30 3541 C 324.614 1.74466 -1.56839 0
M  V30 3542 C 325.63 1.68006 -0.452772 0
M  V30 3543 O 326.806 1.8833 -0.713708 0
M  V30 3544 C 323.871 3.10931 -1.53371 0
M  V30 3545 C 322.932 3.28832 -2.75986 0
M  V30 3546 C 322.165 4.58787 -2.72673 0
M  V30 3547 O 322.388 5.4122 -1.80102 0
M  V30 3548 O 321.322 4.79438 -3.63899 0
M  V30 3549 H 325.148 1.67843 -2.53106 0
M  V30 3550 H 322.733 0.770108 -1.28022 0
M  V30 3551 H 324.615 3.92233 -1.54051 0
M  V30 3552 H 323.29 3.18042 -0.602572 0
M  V30 3553 H 322.197 2.47112 -2.80867 0
M  V30 3554 H 323.53 3.26599 -3.68231 0
M  V30 3555 N 325.182 1.32811 0.848464 0
M  V30 3556 C 326.459 1.14334 1.58704 0
M  V30 3557 C 326.839 -0.293948 2.09043 0
M  V30 3558 O 326.187 -1.29153 1.88499 0
M  V30 3559 C 326.397 2.17626 2.72837 0
M  V30 3560 C 327.745 2.51282 3.42261 0
M  V30 3561 O 328.769 2.16219 2.83068 0
M  V30 3562 O 327.628 3.11413 4.49093 0
M  V30 3563 H 324.722 0.441601 0.699226 0
M  V30 3564 H 327.268 1.44362 0.892053 0
M  V30 3565 H 326.04 3.14211 2.3321 0
M  V30 3566 H 325.663 1.88628 3.50008 0
M  V30 3567 N 326.66 -1.06551 1.16123 0
M  V30 3568 C 328.071 -1.60768 0.949232 0
M  V30 3569 C 328.422 -1.89523 -0.507508 0
M  V30 3570 O 327.547 -1.66671 -1.38021 0
M  V30 3571 C 328.142 -2.92086 1.71671 0
M  V30 3572 C 326.701 -3.43015 1.54977 0
M  V30 3573 C 325.848 -2.16947 1.72711 0
M  V30 3574 H 328.799 -0.895354 1.31031 0
M  V30 3575 H 328.82 -3.6138 1.19099 0
M  V30 3576 H 328.332 -2.71127 2.7769 0
M  V30 3577 H 326.433 -3.69039 0.513873 0
M  V30 3578 H 326.546 -4.18516 2.33198 0
M  V30 3579 H 324.91 -2.27041 1.15431 0
M  V30 3580 H 325.693 -1.98473 2.80113 0
M  V30 3581 N 328.138 -0.959301 -1.25041 0
M  V30 3582 C 329.048 -0.489994 -2.29426 0
M  V30 3583 C 330.064 0.444944 -1.68215 0
M  V30 3584 O 331.24 0.320046 -1.98841 0
M  V30 3585 C 328.305 0.220309 -3.45999 0
M  V30 3586 C 327.366 -0.753418 -4.22637 0
M  V30 3587 C 326.599 -0.076918 -5.33645 0
M  V30 3588 O 326.822 1.13649 -5.58963 0
M  V30 3589 O 325.756 -0.764824 -5.97021 0
M  V30 3590 H 329.582 -1.35755 -2.71669 0
M  V30 3591 H 327.167 -0.725961 -1.30576 0
M  V30 3592 H 329.049 0.619677 -4.16819 0
M  V30 3593 H 327.724 1.06296 -3.0575 0
M  V30 3594 H 326.631 -1.20308 -3.54227 0
M  V30 3595 H 327.964 -1.56423 -4.66683 0
M  V30 3596 N 329.616 1.39756 -0.72842 0
M  V30 3597 C 331.027 1.83498 -0.344289 0
M  V30 3598 C 331.378 1.60868 1.12321 0
M  V30 3599 O 330.503 1.09634 1.86573 0
M  V30 3600 C 331.098 3.33114 -0.618112 0
M  V30 3601 C 329.657 3.753 -0.287549 0
M  V30 3602 C 328.804 2.62831 -0.884048 0
M  V30 3603 H 331.755 1.28842 -0.926578 0
M  V30 3604 H 331.776 3.80334 0.112349 0
M  V30 3605 H 331.288 3.49553 -1.68625 0
M  V30 3606 H 329.389 3.64451 0.775012 0
M  V30 3607 H 329.502 4.72945 -0.765512 0
M  V30 3608 H 327.866 2.52792 -0.311149 0
M  V30 3609 H 328.649 2.82078 -1.95671 0
M  V30 3610 N 331.094 0.475555 1.50254 0
M  V30 3611 C 332.042 -0.330276 2.30243 0
M  V30 3612 C 333.036 -0.986306 1.37726 0
M  V30 3613 O 334.242 -0.9169 1.54897 0
M  V30 3614 H 330.617 -0.125353 0.741479 0
M  V30 3615 H 332.588 0.364702 2.96163 0
M  V30 3616 C 331.337 -1.39704 3.18399 0
M  V30 3617 H 330.66 -0.901621 3.89501 0
M  V30 3618 H 332.1 -1.93336 3.77355 0
M  V30 3619 C 330.559 -2.4014 2.36293 0
M  V30 3620 O 331.089 -3.45504 2.04914 0
M  V30 3621 N 329.295 -2.1197 1.98789 0
M  V30 3622 H 328.842 -1.2631 2.24507 0
M  V30 3623 H 328.8 -2.79403 1.44157 0
M  V30 3624 N 332.573 -1.56217 0.208337 0
M  V30 3625 C 333.803 -2.02043 -0.431523 0
M  V30 3626 C 334.211 -1.08755 -1.54819 0
M  V30 3627 O 333.554 -0.0870009 -1.83494 0
M  V30 3628 C 333.616 -3.44239 -1.03633 0
M  V30 3629 C 333.28 -4.56965 -0.0567502 0
M  V30 3630 C 334.277 -5.14624 0.738773 0
M  V30 3631 C 331.962 -5.02266 0.0581736 0
M  V30 3632 C 333.956 -6.16045 1.63605 0
M  V30 3633 C 331.643 -6.03528 0.959001 0
M  V30 3634 C 332.641 -6.60293 1.7465 0
M  V30 3635 O 332.329 -7.59586 2.6322 0
M  V30 3636 H 332.061 -0.666772 -0.111313 0
M  V30 3637 H 334.615 -2.02919 0.318277 0
M  V30 3638 H 332.845 -3.40391 -1.83497 0
M  V30 3639 H 334.534 -3.73793 -1.58221 0
M  V30 3640 H 335.3 -4.80483 0.660364 0
M  V30 3641 H 331.179 -4.57771 -0.544633 0
M  V30 3642 H 334.723 -6.60279 2.25116 0
M  V30 3643 H 330.62 -6.37092 1.03848 0
M  V30 3644 H 331.388 -7.77057 2.57148 0
M  V30 3645 N 334.051 0.0651679 -1.57465 0
M  V30 3646 C 335.014 1.06117 -2.03155 0
M  V30 3647 C 336.014 1.31204 -0.929632 0
M  V30 3648 O 337.204 1.26813 -1.19432 0
M  V30 3649 C 334.336 2.4032 -2.41783 0
M  V30 3650 H 335.529 0.667231 -2.92383 0
M  V30 3651 H 333.082 0.311075 -1.53173 0
M  V30 3652 H 333.817 2.84532 -1.55601 0
M  V30 3653 H 333.602 2.23451 -3.22199 0
M  V30 3654 H 335.092 3.11898 -2.77685 0
M  V30 3655 N 335.529 1.53961 0.336706 0
M  V30 3656 C 336.777 1.71197 1.07405 0
M  V30 3657 C 337.098 0.481475 1.88962 0
M  V30 3658 O 336.368 -0.504585 1.8929 0
M  V30 3659 H 334.948 0.631185 0.399517 0
M  V30 3660 H 337.61 1.91232 0.376323 0
M  V30 3661 H 336.706 2.58587 1.74755 0
M  V30 3662 N 337.007 -0.598083 1.45811 0
M  V30 3663 C 337.917 -1.73632 1.57763 0
M  V30 3664 C 338.933 -1.67763 0.461676 0
M  V30 3665 O 340.109 -1.87949 0.723685 0
M  V30 3666 C 337.174 -3.10114 1.55018 0
M  V30 3667 C 336.235 -3.27364 2.77726 0
M  V30 3668 C 335.468 -4.57334 2.75102 0
M  V30 3669 O 335.691 -5.40258 1.8297 0
M  V30 3670 O 334.625 -4.77502 3.66437 0
M  V30 3671 H 338.451 -1.66498 2.53992 0
M  V30 3672 H 336.036 -0.763308 1.28429 0
M  V30 3673 H 337.918 -3.9141 1.56129 0
M  V30 3674 H 336.593 -3.17718 0.619431 0
M  V30 3675 H 335.5 -2.45619 2.82174 0
M  V30 3676 H 336.833 -3.24641 3.69958 0
M  V30 3677 N 338.485 -1.33259 -0.841409 0
M  V30 3678 C 339.896 -1.22066 -1.41269 0
M  V30 3679 C 340.247 0.161479 -1.95534 0
M  V30 3680 O 339.372 1.06094 -1.88608 0
M  V30 3681 C 339.967 -2.20996 -2.568 0
M  V30 3682 C 338.526 -2.13649 -3.09888 0
M  V30 3683 C 337.673 -2.08623 -1.82679 0
M  V30 3684 H 340.624 -1.44895 -0.647395 0
M  V30 3685 H 340.645 -1.81621 -3.34356 0
M  V30 3686 H 340.157 -3.2158 -2.17274 0
M  V30 3687 H 338.258 -1.16359 -3.53965 0
M  V30 3688 H 338.371 -3.04079 -3.70234 0
M  V30 3689 H 336.735 -1.54061 -2.02824 0
M  V30 3690 H 337.518 -3.1101 -1.45353 0
M  V30 3691 N 339.963 1.05934 -1.16686 0
M  V30 3692 C 341.193 1.82226 -0.973515 0
M  V30 3693 C 341.601 1.8297 0.481532 0
M  V30 3694 O 340.944 1.25009 1.34604 0
M  V30 3695 C 341.006 3.29897 -1.42858 0
M  V30 3696 C 340.67 3.52849 -2.90425 0
M  V30 3697 C 341.667 3.45595 -3.88407 0
M  V30 3698 C 339.352 3.80053 -3.28428 0
M  V30 3699 C 341.346 3.65217 -5.22394 0
M  V30 3700 C 339.033 3.99325 -4.62583 0
M  V30 3701 C 340.031 3.91905 -5.59374 0
M  V30 3702 O 339.719 4.10647 -6.91104 0
M  V30 3703 H 339.451 0.581314 -0.345036 0
M  V30 3704 H 342.005 1.3453 -1.55212 0
M  V30 3705 H 340.235 3.78472 -0.793477 0
M  V30 3706 H 341.924 3.87692 -1.20207 0
M  V30 3707 H 342.69 3.24564 -3.60393 0
M  V30 3708 H 338.569 3.84936 -2.53664 0
M  V30 3709 H 342.113 3.59341 -5.9793 0
M  V30 3710 H 338.01 4.19846 -4.90306 0
M  V30 3711 H 338.778 4.27915 -6.97733 0
M  V30 3712 N 341.441 0.965919 1.2453 0
M  V30 3713 C 342.687 0.62776 1.92839 0
M  V30 3714 C 343.02 -0.834694 1.75347 0
M  V30 3715 O 342.295 -1.60031 1.10546 0
M  V30 3716 C 342.578 1.00109 3.45905 0
M  V30 3717 C 342.431 2.52011 3.72573 0
M  V30 3718 C 343.75 0.53435 4.36844 0
M  V30 3719 H 340.869 0.229537 0.700344 0
M  V30 3720 H 343.511 1.2046 1.46933 0
M  V30 3721 H 341.661 0.510238 3.85135 0
M  V30 3722 H 343.333 3.08559 3.42912 0
M  V30 3723 H 341.576 2.95287 3.17786 0
M  V30 3724 H 342.247 2.73183 4.79661 0
M  V30 3725 H 344.723 0.955565 4.04979 0
M  V30 3726 H 343.599 0.824152 5.42678 0
M  V30 3727 H 343.86 -0.565589 4.38467 0
M  V30 3728 N 342.919 -1.39368 0.735821 0
M  V30 3729 C 343.882 -2.2896 0.104874 0
M  V30 3730 C 344.882 -1.46347 -0.666274 0
M  V30 3731 O 346.072 -1.67014 -0.49517 0
M  V30 3732 C 343.204 -3.29857 -0.860656 0
M  V30 3733 H 344.397 -2.86259 0.894205 0
M  V30 3734 H 341.95 -1.48029 0.501704 0
M  V30 3735 H 342.685 -2.77615 -1.67631 0
M  V30 3736 H 342.47 -3.9087 -0.310327 0
M  V30 3737 H 343.96 -3.96893 -1.29867 0
M  V30 3738 N 344.397 -0.483516 -1.5 0
M  V30 3739 C 345.646 0.0689102 -2.01582 0
M  V30 3740 C 345.959 1.39655 -1.36952 0
M  V30 3741 O 347.165 2.03465 -1.79762 0
M  V30 3742 C 345.621 0.173302 -3.59483 0
M  V30 3743 C 345.229 -1.14665 -4.33077 0
M  V30 3744 C 346.973 0.677024 -4.19066 0
M  V30 3745 C 344.88 -1.00537 -5.82792 0
M  V30 3746 H 343.81 0.0295277 -0.753422 0
M  V30 3747 H 346.461 -0.620295 -1.72698 0
M  V30 3748 H 344.843 0.926569 -3.85007 0
M  V30 3749 H 346.017 -1.91184 -4.19268 0
M  V30 3750 H 344.332 -1.58244 -3.85159 0
M  V30 3751 H 346.929 0.799952 -5.28682 0
M  V30 3752 H 347.272 1.67151 -3.81269 0
M  V30 3753 H 347.805 -0.0192083 -3.97795 0
M  V30 3754 H 344.544 -1.9736 -6.25083 0
M  V30 3755 H 344.064 -0.280776 -5.99142 0
M  V30 3756 H 345.743 -0.677 -6.43448 0
M  V30 3757 N 345.875 1.56104 -0.216619 0
M  V30 3758 C 346.822 2.2007 0.695531 0
M  V30 3759 C 347.792 1.15471 1.19397 0
M  V30 3760 O 348.977 1.43807 1.25396 0
M  V30 3761 C 346.117 2.88073 1.90021 0
M  V30 3762 C 345.23 4.07253 1.44113 0
M  V30 3763 C 344.365 4.63052 2.603 0
M  V30 3764 C 343.404 5.74545 2.11103 0
M  V30 3765 N 342.541 6.24656 3.20545 0
M  V30 3766 H 347.381 2.97655 0.143327 0
M  V30 3767 H 344.918 1.46982 0.0589934 0
M  V30 3768 H 346.876 3.25681 2.60745 0
M  V30 3769 H 345.506 2.13015 2.42538 0
M  V30 3770 H 344.558 3.75164 0.628999 0
M  V30 3771 H 345.87 4.8783 1.04036 0
M  V30 3772 H 345.024 5.03078 3.39113 0
M  V30 3773 H 343.763 3.81628 3.03663 0
M  V30 3774 H 342.768 5.34027 1.3075 0
M  V30 3775 H 343.993 6.57801 1.68746 0
M  V30 3776 H 341.939 5.46148 3.63399 0
M  V30 3777 H 341.856 7.00343 2.84704 0
M  V30 3778 H 343.124 6.69338 3.99508 0
M  V30 3779 N 347.353 -0.0568162 1.57498 0
M  V30 3780 C 348.316 -1.05038 2.03715 0
M  V30 3781 C 349.316 -1.30709 0.936577 0
M  V30 3782 O 350.506 -1.26178 1.20103 0
M  V30 3783 C 347.638 -2.39034 2.43055 0
M  V30 3784 H 348.831 -0.651715 2.92733 0
M  V30 3785 H 346.384 -0.302947 1.53336 0
M  V30 3786 H 347.119 -2.83703 1.57108 0
M  V30 3787 H 346.904 -2.21739 3.2338 0
M  V30 3788 H 348.394 -3.10421 2.79336 0
M  V30 3789 N 348.832 -1.54138 -0.328536 0
M  V30 3790 C 350.062 -1.75807 -1.08516 0
M  V30 3791 C 350.47 -0.50428 -1.82356 0
M  V30 3792 O 349.813 0.534451 -1.75754 0
M  V30 3793 C 349.875 -2.89423 -2.13248 0
M  V30 3794 C 349.539 -4.28504 -1.5885 0
M  V30 3795 C 350.536 -5.09536 -1.03289 0
M  V30 3796 C 348.221 -4.75034 -1.63243 0
M  V30 3797 C 350.215 -6.35206 -0.52845 0
M  V30 3798 C 347.902 -6.00672 -1.12411 0
M  V30 3799 C 348.9 -6.80592 -0.573062 0
M  V30 3800 O 348.588 -8.03867 -0.0723692 0
M  V30 3801 H 348.32 -0.590633 -0.328829 0
M  V30 3802 H 350.874 -2.01819 -0.381868 0
M  V30 3803 H 349.104 -2.5897 -2.87178 0
M  V30 3804 H 350.793 -2.98921 -2.74592 0
M  V30 3805 H 351.559 -4.74745 -0.99206 0
M  V30 3806 H 347.438 -4.12875 -2.05074 0
M  V30 3807 H 350.982 -6.97532 -0.0976774 0
M  V30 3808 H 346.879 -6.34955 -1.162 0
M  V30 3809 H 347.647 -8.18283 -0.188258 0
M  V30 3810 N 350.31 0.590341 -1.46126 0
M  V30 3811 C 351.538 1.37504 -1.54597 0
M  V30 3812 C 351.953 1.87897 -0.184447 0
M  V30 3813 O 351.31 1.63192 0.816984 0
M  V30 3814 C 351.361 2.56779 -2.54454 0
M  V30 3815 O 351.082 2.08476 -3.85317 0
M  V30 3816 C 352.583 3.49427 -2.72792 0
M  V30 3817 H 349.803 0.420325 -0.523037 0
M  V30 3818 H 352.347 0.718383 -1.91467 0
M  V30 3819 H 350.502 3.1845 -2.20609 0
M  V30 3820 H 350.916 2.86097 -4.396 0
M  V30 3821 H 352.39 4.29619 -3.466 0
M  V30 3822 H 352.867 4.00876 -1.79429 0
M  V30 3823 H 353.473 2.93598 -3.07702 0
M  V30 3824 N 351.788 1.33704 0.83433 0
M  V30 3825 C 352.751 1.24244 1.92603 0
M  V30 3826 C 353.751 0.160383 1.59998 0
M  V30 3827 O 354.941 0.412228 1.69252 0
M  V30 3828 C 352.073 0.91555 3.28376 0
M  V30 3829 H 353.266 2.21287 2.02416 0
M  V30 3830 H 350.819 1.17827 1.02696 0
M  V30 3831 H 351.554 -0.0521886 3.24258 0
M  V30 3832 H 351.339 1.69811 3.53422 0
M  V30 3833 H 352.829 0.874231 4.08347 0
M  V30 3834 N 353.266 -1.05314 1.17247 0
M  V30 3835 C 354.512 -1.78557 0.961513 0
M  V30 3836 C 354.845 -1.87419 -0.508697 0
M  V30 3837 O 354.12 -1.37307 -1.37757 0
M  V30 3838 C 354.403 -3.22514 1.60176 0
M  V30 3839 C 354.256 -3.21673 3.14399 0
M  V30 3840 C 355.575 -4.20318 1.30463 0
M  V30 3841 H 352.694 -0.6482 0.350723 0
M  V30 3842 H 355.336 -1.23102 1.44727 0
M  V30 3843 H 353.486 -3.69867 1.18871 0
M  V30 3844 H 355.158 -2.82405 3.64753 0
M  V30 3845 H 353.401 -2.60048 3.47214 0
M  V30 3846 H 354.072 -4.23271 3.54324 0
M  V30 3847 H 356.548 -3.81454 1.66229 0
M  V30 3848 H 355.424 -5.19289 1.77848 0
M  V30 3849 H 355.685 -4.41526 0.22521 0
M  V30 3850 N 354.744 -0.972509 -1.24016 0
M  V30 3851 C 355.654 -0.5143 -2.28893 0
M  V30 3852 C 356.67 0.427078 -1.68677 0
M  V30 3853 O 357.846 0.298939 -1.99169 0
M  V30 3854 C 354.911 0.183598 -3.46214 0
M  V30 3855 C 353.972 -0.798202 -4.21814 0
M  V30 3856 C 353.205 -0.133514 -5.33533 0
M  V30 3857 O 353.428 1.07714 -5.60137 0
M  V30 3858 O 352.362 -0.828103 -5.96176 0
M  V30 3859 H 356.188 -1.38629 -2.70214 0
M  V30 3860 H 353.773 -0.739769 -1.29799 0
M  V30 3861 H 355.655 0.575433 -4.17453 0
M  V30 3862 H 354.33 1.03048 -3.0686 0
M  V30 3863 H 353.237 -1.24059 -3.52931 0
M  V30 3864 H 354.57 -1.61364 -4.64997 0
M  V30 3865 N 356.222 1.38976 -0.743202 0
M  V30 3866 C 357.47 1.99948 -0.29417 0
M  V30 3867 C 357.791 1.59279 1.12495 0
M  V30 3868 O 357.061 0.844808 1.76748 0
M  V30 3869 H 355.641 0.739473 -0.105774 0
M  V30 3870 H 358.303 1.699 -0.954986 0
M  V30 3871 H 357.399 3.10142 -0.349056 0
M  V30 3872 N 357.7 0.491464 1.49741 0
M  V30 3873 C 358.977 -0.118984 1.95238 0
M  V30 3874 C 359.357 -1.55044 1.43264 0
M  V30 3875 O 358.705 -2.19287 0.642287 0
M  V30 3876 C 358.915 -0.0414187 3.48975 0
M  V30 3877 C 360.263 -0.220133 4.24029 0
M  V30 3878 O 361.287 -0.117055 3.56008 0
M  V30 3879 O 360.146 -0.430567 5.44801 0
M  V30 3880 H 357.24 -0.100536 0.820866 0
M  V30 3881 H 359.786 0.553322 1.60426 0
M  V30 3882 H 358.558 0.957214 3.79412 0
M  V30 3883 H 358.181 -0.754292 3.9038 0
M  V30 3884 N 359.178 -1.55987 0.224894 0
M  V30 3885 C 360.088 -2.24066 -0.69511 0
M  V30 3886 C 361.104 -1.24939 -1.21104 0
M  V30 3887 O 362.28 -1.5776 -1.25195 0
M  V30 3888 C 359.345 -2.90983 -1.88493 0
M  V30 3889 C 358.406 -4.05462 -1.41064 0
M  V30 3890 C 357.639 -4.69179 -2.54375 0
M  V30 3891 O 357.862 -4.31895 -3.72589 0
M  V30 3892 O 356.796 -5.58108 -2.25386 0
M  V30 3893 H 360.622 -3.03353 -0.145149 0
M  V30 3894 H 358.207 -1.49399 -0.00569476 0
M  V30 3895 H 360.089 -3.33209 -2.57972 0
M  V30 3896 H 358.764 -2.14653 -2.42293 0
M  V30 3897 H 357.671 -3.67798 -0.683774 0
M  V30 3898 H 359.004 -4.83545 -0.918985 0
M  V30 3899 N 360.656 0.0484629 -1.57525 0
M  V30 3900 C 361.902 0.744226 -1.88651 0
M  V30 3901 C 362.235 1.76029 -0.820212 0
M  V30 3902 O 361.51 1.93782 0.166985 0
M  V30 3903 C 361.793 1.43128 -3.30434 0
M  V30 3904 C 361.646 0.43005 -4.47739 0
M  V30 3905 C 362.965 2.37031 -3.70816 0
M  V30 3906 H 360.084 0.269089 -0.68612 0
M  V30 3907 H 362.726 0.00713532 -1.89999 0
M  V30 3908 H 360.876 2.05956 -3.29415 0
M  V30 3909 H 362.548 -0.194816 -4.60888 0
M  V30 3910 H 360.791 -0.252522 -4.33064 0
M  V30 3911 H 361.462 0.948874 -5.43783 0
M  V30 3912 H 363.938 1.84263 -3.73077 0
M  V30 3913 H 362.814 2.82094 -4.70865 0
M  V30 3914 H 363.075 3.22864 -3.02012 0
M  V30 3915 N 362.134 1.5431 0.320358 0
M  V30 3916 C 363.359 1.76954 1.08175 0
M  V30 3917 C 363.784 0.518193 1.80821 0
M  V30 3918 O 363.142 -0.530411 1.73368 0
M  V30 3919 C 363.19 2.96451 2.05303 0
M  V30 3920 O 362.294 2.68221 3.13259 0
M  V30 3921 H 361.635 0.586275 0.311733 0
M  V30 3922 H 364.165 2.01342 0.363676 0
M  V30 3923 H 364.175 3.23887 2.48116 0
M  V30 3924 H 362.85 3.87196 1.51829 0
M  V30 3925 H 361.427 2.51744 2.75099 0
M  V30 3926 N 363.613 -0.582584 1.46437 0
M  V30 3927 C 364.543 -1.70187 1.59871 0
M  V30 3928 C 365.524 -1.64066 0.449042 0
M  V30 3929 O 366.709 -1.82081 0.6753 0
M  V30 3930 C 363.839 -3.08827 1.58881 0
M  V30 3931 C 362.793 -3.29779 2.72819 0
M  V30 3932 C 362.119 -4.68947 2.5689 0
M  V30 3933 C 363.419 -3.17601 4.1464 0
M  V30 3934 H 365.113 -1.592 2.53566 0
M  V30 3935 H 362.659 -0.764472 1.22032 0
M  V30 3936 H 364.612 -3.86951 1.66873 0
M  V30 3937 H 363.336 -3.20713 0.617306 0
M  V30 3938 H 361.995 -2.54054 2.64296 0
M  V30 3939 H 361.643 -4.77599 1.57823 0
M  V30 3940 H 361.343 -4.83919 3.33312 0
M  V30 3941 H 362.867 -5.4924 2.66773 0
M  V30 3942 H 364.281 -3.8557 4.24274 0
M  V30 3943 H 362.678 -3.44094 4.9165 0
M  V30 3944 H 363.748 -2.14681 4.34788 0
M  V30 3945 N 365.091 -1.34144 -0.827227 0
M  V30 3946 C 366.021 -1.28005 -1.95287 0
M  V30 3947 C 367.002 -0.158321 -1.69362 0
M  V30 3948 O 368.187 -0.349987 -1.9102 0
M  V30 3949 C 365.317 -1.03036 -3.31664 0
M  V30 3950 C 364.271 -2.11628 -3.72019 0
M  V30 3951 C 363.597 -1.71854 -5.0633 0
M  V30 3952 C 364.897 -3.53417 -3.8457 0
M  V30 3953 H 366.591 -2.22187 -2.00682 0
M  V30 3954 H 364.137 -1.0696 -0.964135 0
M  V30 3955 H 366.09 -0.973863 -4.09993 0
M  V30 3956 H 364.814 -0.0529391 -3.26557 0
M  V30 3957 H 363.473 -2.16339 -2.95961 0
M  V30 3958 H 363.121 -0.727841 -4.97706 0
M  V30 3959 H 362.821 -2.44531 -5.34302 0
M  V30 3960 H 364.345 -1.67692 -5.87122 0
M  V30 3961 H 365.759 -3.51142 -4.5318 0
M  V30 3962 H 364.156 -4.24679 -4.2399 0
M  V30 3963 H 365.226 -3.91072 -2.86689 0
M  V30 3964 N 366.569 1.04691 -1.17803 0
M  V30 3965 C 367.479 2.16057 -0.914151 0
M  V30 3966 C 368.495 1.73589 0.119503 0
M  V30 3967 O 369.671 2.01308 -0.0609468 0
M  V30 3968 C 366.736 3.4394 -0.436603 0
M  V30 3969 C 365.797 4.00825 -1.53746 0
M  V30 3970 C 365.03 5.22604 -1.0826 0
M  V30 3971 O 365.253 5.70367 0.0612244 0
M  V30 3972 O 364.187 5.7186 -1.87775 0
M  V30 3973 H 368.013 2.41169 -1.84584 0
M  V30 3974 H 365.598 1.1453 -0.959334 0
M  V30 3975 H 367.48 4.21024 -0.178057 0
M  V30 3976 H 366.155 3.20316 0.466869 0
M  V30 3977 H 365.062 3.25158 -1.84995 0
M  V30 3978 H 366.395 4.28778 -2.41683 0
M  V30 3979 N 368.047 0.979072 1.23499 0
M  V30 3980 C 369.295 0.645941 1.91499 0
M  V30 3981 C 369.616 -0.822948 1.76784 0
M  V30 3982 O 368.886 -1.58854 1.14639 0
M  V30 3983 H 367.466 0.235919 0.708767 0
M  V30 3984 H 370.128 1.2426 1.50152 0
M  V30 3985 H 369.224 0.896411 2.9895 0
M  V30 3986 N 369.525 -1.3858 0.750561 0
M  V30 3987 C 370.435 -2.34278 0.122825 0
M  V30 3988 C 371.451 -1.59116 -0.704131 0
M  V30 3989 O 372.627 -1.91326 -0.628987 0
M  V30 3990 C 369.692 -3.38221 -0.762086 0
M  V30 3991 C 368.753 -4.29227 0.078896 0
M  V30 3992 C 367.986 -5.28205 -0.763874 0
M  V30 3993 O 368.209 -5.34112 -2.00201 0
M  V30 3994 O 367.143 -6.01618 -0.18428 0
M  V30 3995 H 370.969 -2.89649 0.913088 0
M  V30 3996 H 368.554 -1.40374 0.511417 0
M  V30 3997 H 370.436 -4.01872 -1.26793 0
M  V30 3998 H 369.111 -2.85211 -1.5309 0
M  V30 3999 H 368.018 -3.68747 0.630621 0
M  V30 4000 H 369.351 -4.85484 0.810289 0
M  V30 4001 N 371.003 -0.499398 -1.49478 0
M  V30 4002 C 371.966 0.268838 -2.27618 0
M  V30 4003 C 372.966 0.895383 -1.33565 0
M  V30 4004 O 374.156 0.760164 -1.56739 0
M  V30 4005 C 371.288 1.38559 -3.11471 0
M  V30 4006 H 372.481 -0.416812 -2.96989 0
M  V30 4007 H 370.034 -0.254313 -1.54217 0
M  V30 4008 H 370.769 2.10544 -2.46661 0
M  V30 4009 H 370.554 0.941797 -3.80621 0
M  V30 4010 H 372.044 1.92678 -3.70493 0
M  V30 4011 N 372.481 1.55866 -0.233164 0
M  V30 4012 C 373.727 1.98897 0.395959 0
M  V30 4013 C 374.06 1.12091 1.58585 0
M  V30 4014 O 373.335 0.181182 1.93654 0
M  V30 4015 C 373.618 3.50658 0.819224 0
M  V30 4016 C 373.471 4.48233 -0.375109 0
M  V30 4017 C 374.79 4.07135 1.67121 0
M  V30 4018 H 371.909 0.723102 0.142451 0
M  V30 4019 H 374.551 1.87082 -0.331725 0
M  V30 4020 H 372.701 3.60857 1.43925 0
M  V30 4021 H 374.373 4.50031 -1.01341 0
M  V30 4022 H 372.616 4.21624 -1.02058 0
M  V30 4023 H 373.287 5.51988 -0.0358328 0
M  V30 4024 H 375.763 3.99952 1.14795 0
M  V30 4025 H 374.639 5.13615 1.93625 0
M  V30 4026 H 374.9 3.54736 2.63846 0
M  V30 4027 N 373.959 -0.0401083 1.57549 0
M  V30 4028 C 374.869 -1.06133 2.0922 0
M  V30 4029 C 375.885 -1.40356 1.0284 0
M  V30 4030 O 377.061 -1.49897 1.34509 0
M  V30 4031 C 374.126 -2.34658 2.55218 0
M  V30 4032 C 373.187 -2.07117 3.76033 0
M  V30 4033 C 372.42 -3.29514 4.19829 0
M  V30 4034 O 372.643 -4.39794 3.63232 0
M  V30 4035 O 371.577 -3.15863 5.12362 0
M  V30 4036 H 375.403 -0.652244 2.96613 0
M  V30 4037 H 372.988 -0.256368 1.47184 0
M  V30 4038 H 374.87 -3.10239 2.85184 0
M  V30 4039 H 373.545 -2.74883 1.70941 0
M  V30 4040 H 372.452 -1.29139 3.51104 0
M  V30 4041 H 373.785 -1.71754 4.61261 0
M  V30 4042 N 375.437 -1.54477 -0.31217 0
M  V30 4043 C 376.683 -1.73483 -1.0503 0
M  V30 4044 C 377.016 -0.513125 -1.87298 0
M  V30 4045 O 376.291 0.489864 -1.8823 0
M  V30 4046 C 376.574 -3.01723 -1.96558 0
M  V30 4047 C 376.427 -4.3417 -1.17545 0
M  V30 4048 C 377.746 -3.25772 -2.95907 0
M  V30 4049 H 374.865 -0.631222 -0.380432 0
M  V30 4050 H 377.507 -1.87184 -0.325932 0
M  V30 4051 H 375.657 -2.90174 -2.58324 0
M  V30 4052 H 377.329 -4.5762 -0.581513 0
M  V30 4053 H 375.572 -4.31159 -0.477925 0
M  V30 4054 H 376.243 -5.20143 -1.84811 0
M  V30 4055 H 378.719 -3.36857 -2.44267 0
M  V30 4056 H 377.595 -4.16838 -3.57123 0
M  V30 4057 H 377.856 -2.43537 -3.68974 0
M  V30 4058 N 376.915 0.57481 -1.46744 0
M  V30 4059 C 378.164 1.32898 -1.51727 0
M  V30 4060 C 378.477 1.948 -0.176692 0
M  V30 4061 O 379.683 2.71299 -0.104385 0
M  V30 4062 C 378.139 2.40901 -2.67385 0
M  V30 4063 C 377.747 1.85266 -4.07898 0
M  V30 4064 C 379.491 3.17609 -2.81646 0
M  V30 4065 C 377.398 2.90945 -5.14883 0
M  V30 4066 H 376.328 0.499631 -0.564699 0
M  V30 4067 H 378.979 0.612536 -1.72975 0
M  V30 4068 H 377.361 3.15379 -2.39483 0
M  V30 4069 H 378.535 1.17278 -4.45626 0
M  V30 4070 H 376.85 1.21199 -3.98371 0
M  V30 4071 H 379.447 3.96493 -3.58744 0
M  V30 4072 H 379.79 3.70696 -1.89448 0
M  V30 4073 H 380.323 2.50239 -3.09233 0
M  V30 4074 H 377.062 2.42736 -6.089 0
M  V30 4075 H 376.582 3.57398 -4.81691 0
M  V30 4076 H 378.261 3.54755 -5.41071 0
M  V30 4077 N 378.394 1.34581 0.820102 0
M  V30 4078 C 379.344 1.22943 1.92013 0
M  V30 4079 C 380.328 0.127802 1.60392 0
M  V30 4080 O 381.52 0.357737 1.73347 0
M  V30 4081 C 378.649 0.989938 3.28717 0
M  V30 4082 C 377.735 2.13486 3.66449 0
M  V30 4083 N 378.126 3.38625 3.75722 0
M  V30 4084 C 376.424 2.04573 3.96315 0
M  V30 4085 C 377.125 4.13832 4.08801 0
M  V30 4086 N 376.101 3.42451 4.22171 0
M  V30 4087 H 379.903 2.17771 1.97365 0
M  V30 4088 H 377.417 1.2686 1.01392 0
M  V30 4089 H 379.414 0.887462 4.07345 0
M  V30 4090 H 378.074 0.0503691 3.24661 0
M  V30 4091 H 379.085 3.73143 3.59144 0
M  V30 4092 H 375.762 1.1839 4.00362 0
M  V30 4093 H 377.152 5.21909 4.23156 0
M  V30 4094 N 379.872 -1.04064 1.18357 0
M  V30 4095 C 380.819 -2.12077 0.910603 0
M  V30 4096 C 381.789 -1.65421 -0.15 0
M  V30 4097 O 382.974 -1.90797 -0.0103614 0
M  V30 4098 C 380.114 -3.42252 0.442472 0
M  V30 4099 C 379.227 -4.0252 1.5685 0
M  V30 4100 C 378.362 -5.20657 1.05309 0
M  V30 4101 C 377.401 -5.72955 2.1538 0
M  V30 4102 N 376.538 -6.8238 1.65233 0
M  V30 4103 H 381.378 -2.34764 1.83548 0
M  V30 4104 H 378.915 -1.15157 0.915279 0
M  V30 4105 H 380.873 -4.16921 0.152534 0
M  V30 4106 H 379.503 -3.19712 -0.445428 0
M  V30 4107 H 378.555 -3.25178 1.97391 0
M  V30 4108 H 379.867 -4.37362 2.39824 0
M  V30 4109 H 379.021 -6.0244 0.717677 0
M  V30 4110 H 377.76 -4.87318 0.19293 0
M  V30 4111 H 376.765 -4.89793 2.49766 0
M  V30 4112 H 377.99 -6.08337 3.01832 0
M  V30 4113 H 375.936 -6.50917 0.815064 0
M  V30 4114 H 375.853 -7.16286 2.41805 0
M  V30 4115 H 377.121 -7.67788 1.34619 0
M  V30 4116 N 381.35 -0.985608 -1.22978 0
M  V30 4117 C 382.28 -0.549649 -2.26939 0
M  V30 4118 C 383.261 0.419803 -1.64838 0
M  V30 4119 O 384.446 0.31203 -1.91677 0
M  V30 4120 C 381.576 0.143652 -3.47003 0
M  V30 4121 C 380.53 -0.743606 -4.21491 0
M  V30 4122 C 379.856 0.0822027 -5.34637 0
M  V30 4123 C 381.156 -2.03694 -4.80943 0
M  V30 4124 H 382.85 -1.41862 -2.63658 0
M  V30 4125 H 380.396 -0.683571 -1.26741 0
M  V30 4126 H 382.349 0.459985 -4.18882 0
M  V30 4127 H 381.073 1.04711 -3.09359 0
M  V30 4128 H 379.732 -1.04347 -3.51436 0
M  V30 4129 H 379.38 0.986359 -4.93234 0
M  V30 4130 H 379.08 -0.508377 -5.85397 0
M  V30 4131 H 380.604 0.392797 -6.09335 0
M  V30 4132 H 382.018 -1.78504 -5.44802 0
M  V30 4133 H 380.415 -2.57573 -5.42011 0
M  V30 4134 H 381.485 -2.72042 -4.01399 0
M  V30 4135 N 382.828 1.3818 -0.7579 0
M  V30 4136 C 383.758 2.33027 -0.148597 0
M  V30 4137 C 384.739 1.55085 0.69875 0
M  V30 4138 O 385.924 1.83384 0.639053 0
M  V30 4139 C 383.054 3.3928 0.742034 0
M  V30 4140 C 382.008 4.28 -0.00291946 0
M  V30 4141 C 381.334 5.25146 1.00625 0
M  V30 4142 C 382.634 5.08938 -1.17385 0
M  V30 4143 H 384.328 2.84231 -0.940909 0
M  V30 4144 H 381.874 1.36659 -0.453908 0
M  V30 4145 H 383.827 4.046 1.17799 0
M  V30 4146 H 382.551 2.86569 1.56671 0
M  V30 4147 H 381.21 3.64192 -0.419504 0
M  V30 4148 H 380.858 4.68721 1.8251 0
M  V30 4149 H 380.558 5.85361 0.512428 0
M  V30 4150 H 382.082 5.93342 1.44143 0
M  V30 4151 H 383.496 5.67474 -0.815224 0
M  V30 4152 H 381.893 5.7841 -1.59882 0
M  V30 4153 H 382.963 4.42424 -1.98468 0
M  V30 4154 N 384.306 0.507319 1.49211 0
M  V30 4155 C 385.583 -0.0982702 1.95353 0
M  V30 4156 C 385.963 -1.53516 1.449 0
M  V30 4157 O 385.311 -2.18594 0.66551 0
M  V30 4158 C 385.521 -0.00440283 3.49 0
M  V30 4159 C 386.869 -0.175147 4.24239 0
M  V30 4160 O 387.893 -0.0792891 3.56112 0
M  V30 4161 O 386.752 -0.37276 5.45227 0
M  V30 4162 H 383.846 -0.0918236 0.821887 0
M  V30 4163 H 386.392 0.570307 1.5983 0
M  V30 4164 H 385.164 0.997402 3.78375 0
M  V30 4165 H 384.787 -0.712845 3.91158 0
M  V30 4166 N 385.784 -1.5574 0.241426 0
M  V30 4167 C 387.032 -1.98417 -0.384075 0
M  V30 4168 C 387.353 -1.13078 -1.58866 0
M  V30 4169 O 386.623 -0.212312 -1.94746 0
M  V30 4170 H 385.203 -0.732813 -0.144894 0
M  V30 4171 H 387.865 -1.9193 0.338943 0
M  V30 4172 H 386.961 -3.04219 -0.696939 0
M  V30 4173 N 387.262 0.0317525 -1.57568 0
M  V30 4174 C 388.508 0.718712 -1.90279 0
M  V30 4175 C 388.863 1.73108 -0.839727 0
M  V30 4176 O 388.156 1.90997 0.15188 0
M  V30 4177 C 388.35 1.43167 -3.27472 0
M  V30 4178 C 388.179 0.489869 -4.47024 0
M  V30 4179 C 386.949 0.111909 -5.05176 0
M  V30 4180 C 389.147 -0.230592 -5.13783 0
M  V30 4181 N 387.129 -0.831427 -6.08244 0
M  V30 4182 C 388.5 -1.02968 -6.1139 0
M  V30 4183 C 390.555 -0.297821 -4.97008 0
M  V30 4184 C 389.258 -1.88982 -6.9403 0
M  V30 4185 C 391.284 -1.14507 -5.80209 0
M  V30 4186 C 390.646 -1.9321 -6.77384 0
M  V30 4187 H 386.745 0.237177 -0.745165 0
M  V30 4188 H 389.329 -0.0211267 -1.94689 0
M  V30 4189 H 387.5 2.14199 -3.23996 0
M  V30 4190 H 389.232 2.0708 -3.47707 0
M  V30 4191 H 385.987 0.473513 -4.71227 0
M  V30 4192 H 386.411 -1.29752 -6.6445 0
M  V30 4193 H 391.053 0.296346 -4.2176 0
M  V30 4194 H 388.771 -2.4948 -7.68626 0
M  V30 4195 H 392.357 -1.20059 -5.69278 0
M  V30 4196 H 391.237 -2.57711 -7.40645 0
M  V30 4197 N 388.74 1.54641 0.303973 0
M  V30 4198 C 389.986 1.74969 1.03718 0
M  V30 4199 C 390.341 0.527461 1.85029 0
M  V30 4200 O 389.634 -0.480143 1.85486 0
M  V30 4201 C 389.828 2.97753 1.97681 0
M  V30 4202 C 389.657 4.318 1.25613 0
M  V30 4203 C 388.427 4.95616 0.984518 0
M  V30 4204 C 390.625 5.10021 0.662081 0
M  V30 4205 N 388.607 6.13455 0.233794 0
M  V30 4206 C 389.978 6.19984 0.0439736 0
M  V30 4207 C 392.033 4.94663 0.566835 0
M  V30 4208 C 390.736 7.16264 -0.66016 0
M  V30 4209 C 392.762 5.91271 -0.123637 0
M  V30 4210 C 392.124 7.00601 -0.730608 0
M  V30 4211 H 388.223 0.692873 0.362562 0
M  V30 4212 H 390.807 1.92116 0.316135 0
M  V30 4213 H 388.978 2.82036 2.6704 0
M  V30 4214 H 390.71 3.06621 2.64132 0
M  V30 4215 H 387.465 4.55921 1.28191 0
M  V30 4216 H 387.889 6.76879 -0.127996 0
M  V30 4217 H 392.531 4.10267 1.02181 0
M  V30 4218 H 390.249 8.00204 -1.12691 0
M  V30 4219 H 393.835 5.81466 -0.197236 0
M  V30 4220 H 392.715 7.7407 -1.2564 0
M  V30 4221 N 390.218 -0.567019 1.47046 0
M  V30 4222 C 391.464 -1.32658 1.53394 0
M  V30 4223 C 391.797 -1.93254 0.19148 0
M  V30 4224 O 391.072 -1.77338 -0.798844 0
M  V30 4225 C 391.355 -2.44412 2.64452 0
M  V30 4226 C 391.208 -1.88749 4.08282 0
M  V30 4227 C 392.527 -3.46387 2.71485 0
M  V30 4228 H 389.646 -0.48098 0.558415 0
M  V30 4229 H 392.288 -0.635481 1.79058 0
M  V30 4230 H 390.438 -3.03363 2.427 0
M  V30 4231 H 392.11 -1.34134 4.41368 0
M  V30 4232 H 390.353 -1.19481 4.17021 0
M  V30 4233 H 391.024 -2.69491 4.81745 0
M  V30 4234 H 393.5 -2.9734 2.91081 0
M  V30 4235 H 392.376 -4.2202 3.50985 0
M  V30 4236 H 392.637 -4.04616 1.78153 0
M  V30 4237 N 391.696 -1.35014 -0.812953 0
M  V30 4238 C 392.945 -1.27269 -1.56479 0
M  V30 4239 C 393.258 0.152771 -1.95002 0
M  V30 4240 O 394.464 0.352451 -2.69203 0
M  V30 4241 C 392.92 -2.23159 -2.82362 0
M  V30 4242 C 392.528 -3.71016 -2.511 0
M  V30 4243 C 394.272 -2.24342 -3.60376 0
M  V30 4244 C 392.179 -4.58746 -3.73237 0
M  V30 4245 H 391.109 -0.472829 -0.587324 0
M  V30 4246 H 393.76 -1.6024 -0.894171 0
M  V30 4247 H 392.142 -1.83151 -3.51101 0
M  V30 4248 H 393.316 -4.1962 -1.90409 0
M  V30 4249 H 391.631 -3.72378 -1.86343 0
M  V30 4250 H 394.228 -2.87107 -4.51081 0
M  V30 4251 H 394.571 -1.24542 -3.97234 0
M  V30 4252 H 395.104 -2.62846 -2.98591 0
M  V30 4253 H 391.843 -5.59521 -3.41492 0
M  V30 4254 H 391.363 -4.14871 -4.33176 0
M  V30 4255 H 393.042 -4.73852 -4.40537 0
M  V30 4256 N 393.175 1.03435 -1.18907 0
M  V30 4257 C 394.591 1.28973 -0.940111 0
M  V30 4258 C 394.791 1.97676 0.390691 0
M  V30 4259 O 393.847 2.26127 1.12352 0
M  V30 4260 C 395.16 2.14221 -2.11021 0
M  V30 4261 C 396.708 2.27547 -2.14922 0
M  V30 4262 C 397.183 3.16164 -3.31367 0
M  V30 4263 N 398.674 3.23752 -3.31269 0
M  V30 4264 C 399.409 3.92495 -4.18014 0
M  V30 4265 N 398.905 4.63515 -5.14904 0
M  V30 4266 N 400.698 3.88838 -4.05908 0
M  V30 4267 H 392.849 0.57252 -2.04538 0
M  V30 4268 H 395.112 0.315184 -0.894071 0
M  V30 4269 H 394.818 1.71054 -3.073 0
M  V30 4270 H 394.692 3.14919 -2.0762 0
M  V30 4271 H 397.079 2.69947 -1.19217 0
M  V30 4272 H 397.16 1.26418 -2.22378 0
M  V30 4273 H 396.804 2.74474 -4.27348 0
M  V30 4274 H 396.734 4.17339 -3.21148 0
M  V30 4275 H 399.225 2.73167 -2.61129 0
M  V30 4276 H 399.538 5.13583 -5.77453 0
M  V30 4277 H 397.883 4.62398 -5.18857 0
M  V30 4278 H 401.074 3.32491 -3.29495 0
M  V30 4279 H 401.247 4.4214 -4.73726 0
M  V30 4280 N 394.653 0.992116 1.22453 0
M  V30 4281 C 395.6 0.541731 2.24352 0
M  V30 4282 C 396.57 -0.425519 1.60557 0
M  V30 4283 O 397.755 -0.330453 1.87917 0
M  V30 4284 C 394.895 -0.138248 3.44823 0
M  V30 4285 C 394.008 0.870649 4.23136 0
M  V30 4286 C 393.143 0.164269 5.30946 0
M  V30 4287 C 392.182 1.16159 6.00977 0
M  V30 4288 N 391.319 0.483568 7.00433 0
M  V30 4289 H 396.159 1.41541 2.62241 0
M  V30 4290 H 393.696 0.709013 1.28885 0
M  V30 4291 H 395.654 -0.5494 4.13567 0
M  V30 4292 H 394.284 -0.975721 3.077 0
M  V30 4293 H 393.336 1.40013 3.53696 0
M  V30 4294 H 394.648 1.63014 4.7141 0
M  V30 4295 H 393.802 -0.303653 6.0594 0
M  V30 4296 H 392.541 -0.627733 4.83643 0
M  V30 4297 H 391.546 1.64015 5.24766 0
M  V30 4298 H 392.771 1.95445 6.50368 0
M  V30 4299 H 390.717 -0.289012 6.55363 0
M  V30 4300 H 390.634 1.18152 7.4671 0
M  V30 4301 H 391.902 0.0384219 7.79491 0
M  V30 4302 N 396.131 -1.37776 0.765217 0
M  V30 4303 C 397.408 -1.93975 0.251596 0
M  V30 4304 C 397.788 -1.69949 -1.25222 0
M  V30 4305 O 397.136 -1.04457 -2.03226 0
M  V30 4306 C 397.346 -3.43487 0.617895 0
M  V30 4307 C 398.694 -4.20564 0.584029 0
M  V30 4308 O 399.718 -3.5182 0.556888 0
M  V30 4309 O 398.577 -5.43138 0.605291 0
M  V30 4310 H 395.671 -0.82509 0.0561806 0
M  V30 4311 H 398.217 -1.47101 0.846128 0
M  V30 4312 H 396.989 -3.5453 1.65602 0
M  V30 4313 H 396.612 -3.976 -0.00403411 0
M  V30 4314 N 397.609 -0.515225 -1.4894 0
M  V30 4315 C 398.886 0.0879088 -1.95402 0
M  V30 4316 C 399.266 1.52745 -1.45712 0
M  V30 4317 O 398.614 2.18238 -0.677093 0
M  V30 4318 C 398.824 -0.0141055 -3.48997 0
M  V30 4319 C 400.172 0.152646 -4.24326 0
M  V30 4320 O 401.196 0.0604025 -3.56149 0
M  V30 4321 O 400.055 0.34384 -5.45417 0
M  V30 4322 H 397.149 0.0874636 -0.822362 0
M  V30 4323 H 399.695 -0.578775 -1.59525 0
M  V30 4324 H 398.467 -1.01745 -3.77841 0
M  V30 4325 H 398.09 0.692091 -3.9153 0
M  V30 4326 N 399.087 1.5561 -0.249682 0
M  V30 4327 C 400.333 1.99306 0.374841 0
M  V30 4328 C 400.666 1.13767 1.57387 0
M  V30 4329 O 399.941 0.201711 1.93451 0
M  V30 4330 C 400.224 3.51507 0.781986 0
M  V30 4331 C 400.077 4.4781 -0.422629 0
M  V30 4332 C 401.396 4.08884 1.62793 0
M  V30 4333 H 398.515 0.724572 0.134773 0
M  V30 4334 H 401.157 1.86719 -0.351549 0
M  V30 4335 H 399.307 3.62363 1.4009 0
M  V30 4336 H 400.979 4.48931 -1.06108 0
M  V30 4337 H 399.222 4.20518 -1.06524 0
M  V30 4338 H 399.893 5.51919 -0.0943766 0
M  V30 4339 H 402.369 4.01147 1.10547 0
M  V30 4340 H 401.245 5.1564 1.88166 0
M  V30 4341 H 401.506 3.57515 2.60068 0
M  V30 4342 N 400.565 -0.0233959 1.57583 0
M  V30 4343 C 401.793 -0.724682 1.93794 0
M  V30 4344 C 402.208 -1.68588 0.849912 0
M  V30 4345 O 401.565 -1.81676 -0.173204 0
M  V30 4346 C 401.616 -1.47684 3.29957 0
M  V30 4347 O 401.337 -0.554222 4.3458 0
M  V30 4348 C 402.838 -2.27477 3.80485 0
M  V30 4349 H 400.058 -0.203317 0.639455 0
M  V30 4350 H 402.602 0.0207653 2.04489 0
M  V30 4351 H 400.757 -2.17412 3.20641 0
M  V30 4352 H 401.171 -1.08232 5.13212 0
M  V30 4353 H 402.645 -2.7564 4.78254 0
M  V30 4354 H 403.122 -3.09144 3.11972 0
M  V30 4355 H 403.728 -1.62813 3.92902 0
M  V30 4356 N 402.043 -1.548 -0.295768 0
M  V30 4357 C 403.291 -1.73985 -1.02828 0
M  V30 4358 C 403.612 -0.531406 -1.87619 0
M  V30 4359 O 402.882 0.454221 -1.90561 0
M  V30 4360 H 401.462 -0.641556 -0.382642 0
M  V30 4361 H 404.124 -1.92163 -0.325489 0
M  V30 4362 H 403.22 -2.63129 -1.67838 0
M  V30 4363 N 403.521 0.559213 -1.47345 0
M  V30 4364 C 404.751 1.33999 -1.57251 0
M  V30 4365 C 405.159 1.87905 -0.220978 0
M  V30 4366 O 404.502 1.65577 0.795617 0
M  V30 4367 C 404.564 2.54798 -2.53611 0
M  V30 4368 C 404.228 2.22192 -3.99349 0
M  V30 4369 C 405.225 1.79607 -4.87891 0
M  V30 4370 C 402.91 2.33613 -4.44669 0
M  V30 4371 C 404.904 1.48868 -6.19772 0
M  V30 4372 C 402.591 2.02487 -5.76578 0
M  V30 4373 C 403.589 1.60183 -6.63951 0
M  V30 4374 O 403.277 1.29451 -7.93409 0
M  V30 4375 H 403.009 0.414858 -0.533731 0
M  V30 4376 H 405.563 0.684465 -1.9366 0
M  V30 4377 H 403.793 3.23235 -2.12265 0
M  V30 4378 H 405.482 3.16873 -2.53666 0
M  V30 4379 H 406.248 1.70278 -4.54126 0
M  V30 4380 H 402.127 2.65501 -3.76869 0
M  V30 4381 H 405.671 1.15775 -6.87926 0
M  V30 4382 H 401.568 2.11448 -6.09885 0
M  V30 4383 H 402.336 1.43098 -8.05894 0
M  V30 4384 N 404.999 1.35443 0.805782 0
M  V30 4385 C 406.246 1.28761 1.56291 0
M  V30 4386 C 406.574 -0.137747 1.94012 0
M  V30 4387 O 405.829 -1.1032 1.61642 0
M  V30 4388 C 406.128 2.14045 2.86216 0
M  V30 4389 C 405.794 3.62826 2.67709 0
M  V30 4390 C 404.456 4.0338 2.6237 0
M  V30 4391 C 406.808 4.57227 2.50186 0
M  V30 4392 C 404.136 5.36501 2.37451 0
M  V30 4393 C 406.488 5.90547 2.26797 0
M  V30 4394 C 405.152 6.30245 2.1988 0
M  V30 4395 H 404.422 0.471171 0.571908 0
M  V30 4396 H 407.069 1.67347 0.930974 0
M  V30 4397 H 405.374 1.68342 3.53791 0
M  V30 4398 H 407.071 2.0621 3.43917 0
M  V30 4399 H 403.661 3.30644 2.72713 0
M  V30 4400 H 407.845 4.2678 2.53323 0
M  V30 4401 H 403.101 5.66259 2.30567 0
M  V30 4402 H 407.275 6.63274 2.12228 0
M  V30 4403 H 404.902 7.33328 2.00333 0
M  V30 4404 N 406.477 -1.02803 1.19454 0
M  V30 4405 C 407.888 -1.57667 0.999899 0
M  V30 4406 C 408.239 -1.91041 -0.446956 0
M  V30 4407 O 407.364 -1.70978 -1.32648 0
M  V30 4408 C 407.959 -2.86477 1.80877 0
M  V30 4409 C 406.518 -3.37911 1.65811 0
M  V30 4410 C 405.665 -2.11343 1.79526 0
M  V30 4411 H 408.616 -0.853214 1.33813 0
M  V30 4412 H 408.637 -3.57408 1.30536 0
M  V30 4413 H 408.149 -2.62155 2.86175 0
M  V30 4414 H 406.25 -3.67218 0.63102 0
M  V30 4415 H 406.363 -4.10885 2.46395 0
M  V30 4416 H 404.727 -2.23254 1.22596 0
M  V30 4417 H 405.51 -1.89461 2.86285 0
M  V30 4418 N 407.956 -0.998596 -1.21925 0
M  V30 4419 C 409.181 -0.696015 -1.95372 0
M  V30 4420 C 409.606 0.733826 -1.73195 0
M  V30 4421 O 408.964 1.50242 -1.01474 0
M  V30 4422 C 409.012 -1.01466 -3.4603 0
M  V30 4423 O 408.116 -0.116415 -4.12236 0
M  V30 4424 H 407.457 -0.259938 -0.611006 0
M  V30 4425 H 409.987 -1.33711 -1.54863 0
M  V30 4426 H 409.997 -0.958855 -3.96573 0
M  V30 4427 H 408.672 -2.05653 -3.61497 0
M  V30 4428 H 407.249 -0.228193 -3.72201 0
M  V30 4429 N 409.434 1.37368 -0.772513 0
M  V30 4430 C 410.367 2.27956 -0.105593 0
M  V30 4431 C 411.345 1.46362 0.708295 0
M  V30 4432 O 412.529 1.75695 0.682895 0
M  V30 4433 C 409.656 3.27687 0.856686 0
M  V30 4434 C 408.702 4.26312 0.1267 0
M  V30 4435 S 409.535 5.22206 -1.1858 0
M  V30 4436 C 410.691 6.25488 -0.227081 0
M  V30 4437 H 410.924 2.84171 -0.87372 0
M  V30 4438 H 408.457 1.43654 -0.565939 0
M  V30 4439 H 410.415 3.85653 1.40648 0
M  V30 4440 H 409.076 2.70417 1.59793 0
M  V30 4441 H 408.269 4.96674 0.856212 0
M  V30 4442 H 407.871 3.72339 -0.352117 0
M  V30 4443 H 410.163 6.74836 0.600231 0
M  V30 4444 H 411.106 7.02371 -0.898899 0
M  V30 4445 H 411.514 5.64267 0.162053 0
M  V30 4446 N 410.912 0.523116 1.48665 0
M  V30 4447 C 412.142 -0.00961724 2.06598 0
M  V30 4448 C 412.55 -1.29333 1.38093 0
M  V30 4449 O 411.893 -1.77846 0.46007 0
M  V30 4450 C 411.955 -0.311135 3.58151 0
M  V30 4451 C 411.619 0.878092 4.48485 0
M  V30 4452 C 412.616 1.77464 4.88674 0
M  V30 4453 C 410.301 1.08315 4.90483 0
M  V30 4454 C 412.295 2.86021 5.69623 0
M  V30 4455 C 409.982 2.17187 5.71203 0
M  V30 4456 C 410.98 3.05873 6.10681 0
M  V30 4457 O 410.668 4.12862 6.89783 0
M  V30 4458 H 410.4 0.0272658 0.67545 0
M  V30 4459 H 412.954 0.726156 1.92136 0
M  V30 4460 H 411.184 -1.10079 3.70701 0
M  V30 4461 H 412.873 -0.785125 3.98234 0
M  V30 4462 H 413.639 1.62813 4.56855 0
M  V30 4463 H 409.518 0.402149 4.59243 0
M  V30 4464 H 413.062 3.55272 6.00356 0
M  V30 4465 H 408.959 2.31824 6.02435 0
M  V30 4466 H 409.727 4.10487 7.08126 0
M  V30 4467 N 412.39 -1.55475 0.257931 0
M  V30 4468 C 413.32 -2.24815 -0.630912 0
M  V30 4469 C 414.301 -1.23224 -1.17259 0
M  V30 4470 O 415.486 -1.51904 -1.20991 0
M  V30 4471 C 412.616 -2.95609 -1.82298 0
M  V30 4472 C 411.57 -4.03982 -1.41359 0
M  V30 4473 C 410.896 -4.6226 -2.68738 0
M  V30 4474 C 412.196 -5.19109 -0.57648 0
M  V30 4475 H 413.89 -2.99354 -0.0526878 0
M  V30 4476 H 411.436 -1.4398 -0.023901 0
M  V30 4477 H 413.389 -3.42822 -2.45054 0
M  V30 4478 H 412.113 -2.18577 -2.42676 0
M  V30 4479 H 410.772 -3.57555 -0.809324 0
M  V30 4480 H 410.42 -3.81915 -3.27338 0
M  V30 4481 H 410.12 -5.35424 -2.42065 0
M  V30 4482 H 411.644 -5.12212 -3.32372 0
M  V30 4483 H 413.058 -5.62479 -1.10861 0
M  V30 4484 H 411.455 -5.98729 -0.405351 0
M  V30 4485 H 412.525 -4.83174 0.408776 0
M  V30 4486 N 413.868 0.0150385 -1.57593 0
M  V30 4487 C 414.8 1.03912 -2.04291 0
M  V30 4488 C 415.813 1.31618 -0.958146 0
M  V30 4489 O 417.002 1.28859 -1.23522 0
M  V30 4490 C 414.102 2.37749 -2.41514 0
M  V30 4491 C 413.275 2.29198 -3.72541 0
M  V30 4492 C 412.334 3.45598 -3.96797 0
M  V30 4493 O 411.36 3.24461 -4.67668 0
M  V30 4494 N 412.562 4.67945 -3.43523 0
M  V30 4495 H 415.327 0.64099 -2.92765 0
M  V30 4496 H 412.888 0.20272 -1.60626 0
M  V30 4497 H 414.88 3.14364 -2.54867 0
M  V30 4498 H 413.45 2.69357 -1.58637 0
M  V30 4499 H 412.67 1.3759 -3.69408 0
M  V30 4500 H 413.958 2.20642 -4.5847 0
M  V30 4501 H 413.356 4.88017 -2.86104 0
M  V30 4502 H 411.913 5.41878 -3.62232 0
M  V30 4503 N 415.346 1.54954 0.287554 0
M  V30 4504 C 416.293 1.86834 1.35505 0
M  V30 4505 C 417.263 0.718452 1.49758 0
M  V30 4506 O 418.448 0.968358 1.644 0
M  V30 4507 C 415.588 2.13303 2.71286 0
M  V30 4508 C 414.701 3.40883 2.65373 0
M  V30 4509 C 413.836 3.57125 3.93236 0
M  V30 4510 C 412.875 4.78449 3.81776 0
M  V30 4511 N 412.012 4.91426 5.01443 0
M  V30 4512 H 416.852 2.77889 1.07619 0
M  V30 4513 H 414.389 1.37593 0.520241 0
M  V30 4514 H 416.347 2.26646 3.50267 0
M  V30 4515 H 414.977 1.25499 2.97405 0
M  V30 4516 H 414.029 3.36088 1.78182 0
M  V30 4517 H 415.341 4.29993 2.52799 0
M  V30 4518 H 414.495 3.70207 4.80658 0
M  V30 4519 H 413.234 2.66173 4.0866 0
M  V30 4520 H 412.239 4.65386 2.92738 0
M  V30 4521 H 413.464 5.70822 3.67884 0
M  V30 4522 H 411.41 4.03401 5.17304 0
M  V30 4523 H 411.327 5.74559 4.91343 0
M  V30 4524 H 412.595 5.08879 5.90477 0
M  V30 4525 N 416.824 -0.551391 1.4764 0
M  V30 4526 C 418.049 -1.33837 1.58437 0
M  V30 4527 C 418.474 -1.866 0.237063 0
M  V30 4528 O 417.832 -1.6328 -0.787994 0
M  V30 4529 C 417.88 -2.48014 2.61766 0
M  V30 4530 O 416.984 -3.50419 2.1744 0
M  V30 4531 H 416.325 -0.397299 0.532024 0
M  V30 4532 H 418.855 -0.665759 1.93465 0
M  V30 4533 H 418.865 -2.94503 2.82369 0
M  V30 4534 H 417.54 -2.08969 3.5959 0
M  V30 4535 H 416.117 -3.10196 2.06961 0
M  V30 4536 N 418.302 -1.35869 -0.798587 0
M  V30 4537 C 419.55 -1.29332 -1.55298 0
M  V30 4538 C 419.871 0.129729 -1.94568 0
M  V30 4539 O 419.141 1.06796 -1.6423 0
M  V30 4540 H 417.721 -0.475737 -0.57592 0
M  V30 4541 H 420.383 -1.70062 -0.952093 0
M  V30 4542 H 419.479 -1.91458 -2.46476 0
M  V30 4543 N 419.78 1.02168 -1.19998 0
M  V30 4544 C 420.712 2.10705 -0.901994 0
M  V30 4545 C 421.725 1.6244 0.108216 0
M  V30 4546 O 422.914 1.78082 -0.12214 0
M  V30 4547 C 420.014 3.37291 -0.329834 0
M  V30 4548 C 419.187 4.14714 -1.39035 0
M  V30 4549 C 418.246 5.19606 -0.830432 0
M  V30 4550 O 417.272 5.48809 -1.50989 0
M  V30 4551 N 418.474 5.79366 0.362696 0
M  V30 4552 H 421.239 2.36856 -1.83628 0
M  V30 4553 H 418.8 1.18518 -1.10296 0
M  V30 4554 H 420.792 4.04657 0.0587633 0
M  V30 4555 H 419.362 3.0843 0.508891 0
M  V30 4556 H 418.582 3.42392 -1.9535 0
M  V30 4557 H 419.87 4.63226 -2.10474 0
M  V30 4558 H 419.268 5.57968 0.932081 0
M  V30 4559 H 417.825 6.48106 0.69299 0
M  V30 4560 N 421.258 1.00505 1.21394 0
M  V30 4561 C 422.535 0.603277 1.86064 0
M  V30 4562 C 422.915 -0.919095 1.90042 0
M  V30 4563 O 422.263 -1.80607 1.39977 0
M  V30 4564 C 422.473 1.23772 3.26315 0
M  V30 4565 C 423.821 1.34586 4.02705 0
M  V30 4566 O 424.845 1.19304 3.35626 0
M  V30 4567 O 423.704 1.59169 5.22807 0
M  V30 4568 H 420.798 0.206634 0.800769 0
M  V30 4569 H 423.344 1.1017 1.29076 0
M  V30 4570 H 422.116 2.27848 3.18121 0
M  V30 4571 H 421.739 0.725648 3.90922 0
M  V30 4572 N 422.737 -1.36956 0.779787 0
M  V30 4573 C 423.983 -1.99787 0.348281 0
M  V30 4574 C 424.316 -1.61756 -1.07465 0
M  V30 4575 O 423.591 -0.867639 -1.74075 0
M  V30 4576 C 423.874 -3.56597 0.50104 0
M  V30 4577 C 423.727 -4.04513 1.96697 0
M  V30 4578 C 425.046 -4.40008 -0.0898097 0
M  V30 4579 H 422.165 -0.725796 0.128022 0
M  V30 4580 H 424.807 -1.62514 0.984331 0
M  V30 4581 H 422.957 -3.88479 -0.0404347 0
M  V30 4582 H 424.629 -3.83161 2.56876 0
M  V30 4583 H 422.872 -3.56408 2.47297 0
M  V30 4584 H 423.543 -5.1352 2.02486 0
M  V30 4585 H 426.019 -4.14431 0.372293 0
M  V30 4586 H 424.895 -5.4888 0.0471605 0
M  V30 4587 H 425.156 -4.26035 -1.18096 0
M  V30 4588 N 424.215 -0.530993 -1.48385 0
M  V30 4589 C 425.44 0.000729535 -2.074 0
M  V30 4590 C 425.865 1.27298 -1.3848 0
M  V30 4591 O 425.223 1.75599 -0.451081 0
M  V30 4592 C 425.271 0.206697 -3.60007 0
M  V30 4593 O 424.375 1.27514 -3.92191 0
M  V30 4594 H 423.716 -0.039583 -0.662819 0
M  V30 4595 H 426.246 -0.739194 -1.9078 0
M  V30 4596 H 426.256 0.42904 -4.05738 0
M  V30 4597 H 424.931 -0.722675 -4.09573 0
M  V30 4598 H 423.508 1.03537 -3.58238 0
M  V30 4599 N 425.693 1.55336 -0.266172 0
M  V30 4600 C 426.625 2.19544 0.658247 0
M  V30 4601 C 427.638 1.17746 1.12427 0
M  V30 4602 O 428.827 1.44517 1.04772 0
M  V30 4603 C 425.927 2.80032 1.9088 0
M  V30 4604 C 425.1 4.07436 1.59106 0
M  V30 4605 C 424.159 4.52056 2.69317 0
M  V30 4606 O 423.185 5.18023 2.35883 0
M  V30 4607 N 424.387 4.21448 3.99201 0
M  V30 4608 H 427.152 2.99503 0.108754 0
M  V30 4609 H 424.713 1.61667 -0.0869059 0
M  V30 4610 H 426.705 3.06831 2.63888 0
M  V30 4611 H 425.275 2.04119 2.36758 0
M  V30 4612 H 424.495 3.88021 0.695243 0
M  V30 4613 H 425.783 4.90462 1.35367 0
M  V30 4614 H 425.181 3.68528 4.29189 0
M  V30 4615 H 423.738 4.53039 4.68614 0
M  V30 4616 N 427.171 -0.0066808 1.57599 0
M  V30 4617 C 428.134 -0.985035 2.06953 0
M  V30 4618 C 429.134 -1.27663 0.977687 0
M  V30 4619 O 430.324 -1.22293 1.24057 0
M  V30 4620 C 427.456 -2.3118 2.50536 0
M  V30 4621 H 428.649 -0.558255 2.94658 0
M  V30 4622 H 426.202 -0.254011 1.54222 0
M  V30 4623 H 426.937 -2.78561 1.66054 0
M  V30 4624 H 426.722 -2.11338 3.3027 0
M  V30 4625 H 428.212 -3.01377 2.8907 0
M  V30 4626 N 428.649 -1.55105 -0.279332 0
M  V30 4627 C 429.581 -1.83952 -1.36727 0
M  V30 4628 C 430.594 -0.723642 -1.45833 0
M  V30 4629 O 431.783 -1.00141 -1.47763 0
M  V30 4630 C 428.883 -1.98183 -2.74912 0
M  V30 4631 C 428.056 -3.28787 -2.88475 0
M  V30 4632 C 427.115 -3.33162 -4.07295 0
M  V30 4633 O 426.141 -4.06576 -3.98353 0
M  V30 4634 N 427.343 -2.60109 -5.18964 0
M  V30 4635 H 430.108 -2.77853 -1.12328 0
M  V30 4636 H 427.669 -1.54945 -0.469442 0
M  V30 4637 H 429.661 -1.98488 -3.52682 0
M  V30 4638 H 428.231 -1.11177 -2.92162 0
M  V30 4639 H 427.451 -3.41075 -1.97641 0
M  V30 4640 H 428.739 -4.14933 -2.94463 0
M  V30 4641 H 428.137 -2.00136 -5.29115 0
M  V30 4642 H 426.694 -2.66143 -5.94988 0
M  V30 4643 N 430.127 0.543554 -1.4793 0
M  V30 4644 C 431.543 0.870806 -1.3375 0
M  V30 4645 C 431.743 1.9864 -0.338261 0
M  V30 4646 O 430.799 2.51305 0.245371 0
M  V30 4647 C 432.112 1.25114 -2.73435 0
M  V30 4648 C 433.66 1.3618 -2.81823 0
M  V30 4649 C 434.135 1.77563 -4.22179 0
M  V30 4650 N 435.626 1.8469 -4.24787 0
M  V30 4651 C 436.361 2.18067 -5.30315 0
M  V30 4652 N 435.857 2.49963 -6.46135 0
M  V30 4653 N 437.65 2.18958 -5.17701 0
M  V30 4654 H 429.801 -0.19275 -2.11524 0
M  V30 4655 H 432.064 -0.0235777 -0.947707 0
M  V30 4656 H 431.77 0.50514 -3.48053 0
M  V30 4657 H 431.644 2.20431 -3.06088 0
M  V30 4658 H 434.031 2.09859 -2.07468 0
M  V30 4659 H 434.112 0.390169 -2.52807 0
M  V30 4660 H 433.756 1.04449 -4.97044 0
M  V30 4661 H 433.686 2.75753 -4.48629 0
M  V30 4662 H 436.177 1.62372 -3.41239 0
M  V30 4663 H 436.49 2.74497 -7.22406 0
M  V30 4664 H 434.835 2.47513 -6.49432 0
M  V30 4665 H 438.026 1.93488 -4.2624 0
M  V30 4666 H 438.199 2.44639 -6.00047 0
M  V30 4667 N 431.605 1.3629 0.791371 0
M  V30 4668 C 432.537 1.26321 1.91248 0
M  V30 4669 C 433.55 0.18313 1.61767 0
M  V30 4670 O 434.739 0.437682 1.73051 0
M  V30 4671 C 431.839 0.925901 3.26007 0
M  V30 4672 C 431.012 2.10746 3.83281 0
M  V30 4673 C 430.071 1.74352 4.96475 0
M  V30 4674 O 429.097 2.46416 5.13096 0
M  V30 4675 N 430.299 0.676058 5.7655 0
M  V30 4676 H 433.064 2.22915 2.00323 0
M  V30 4677 H 430.625 1.29659 0.969546 0
M  V30 4678 H 432.617 0.663636 3.99222 0
M  V30 4679 H 431.187 0.0491581 3.12561 0
M  V30 4680 H 430.407 2.53264 3.02077 0
M  V30 4681 H 431.695 2.8969 4.18279 0
M  V30 4682 H 431.093 0.0776467 5.65647 0
M  V30 4683 H 429.65 0.473612 6.50077 0
M  V30 4684 N 433.083 -1.0153 1.20538 0
M  V30 4685 C 434.332 -1.74558 1.01057 0
M  V30 4686 C 434.645 -1.90168 -0.457756 0
M  V30 4687 O 435.851 -2.60301 -0.771722 0
M  V30 4688 C 434.307 -3.13963 1.75941 0
M  V30 4689 C 433.915 -3.06361 3.26875 0
M  V30 4690 C 435.659 -3.91191 1.64832 0
M  V30 4691 C 433.566 -4.40782 3.94291 0
M  V30 4692 H 432.496 -0.654417 0.374505 0
M  V30 4693 H 435.147 -1.13521 1.44171 0
M  V30 4694 H 433.529 -3.75549 1.25614 0
M  V30 4695 H 434.703 -2.54074 3.84425 0
M  V30 4696 H 433.018 -2.42625 3.38411 0
M  V30 4697 H 435.615 -4.90644 2.12539 0
M  V30 4698 H 435.958 -4.11884 0.604745 0
M  V30 4699 H 436.491 -3.36236 2.12579 0
M  V30 4700 H 433.23 -4.25292 4.98805 0
M  V30 4701 H 432.75 -4.9307 3.41529 0
M  V30 4702 H 434.429 -5.09621 3.98617 0
M  V30 4703 N 434.561 -1.01147 -1.20859 0
M  V30 4704 C 435.508 -0.577354 -2.23462 0
M  V30 4705 C 436.478 0.399922 -1.61214 0
M  V30 4706 O 437.663 0.300515 -1.88419 0
M  V30 4707 C 434.803 0.083372 -3.44999 0
M  V30 4708 C 433.916 -0.937856 -4.21697 0
M  V30 4709 C 433.051 -0.248717 -5.30617 0
M  V30 4710 C 432.09 -1.25705 -5.99053 0
M  V30 4711 N 431.227 -0.594939 -6.99575 0
M  V30 4712 H 436.067 -1.45695 -2.59956 0
M  V30 4713 H 433.604 -0.729428 -1.27741 0
M  V30 4714 H 435.562 0.483535 -4.14388 0
M  V30 4715 H 434.192 0.926645 -3.09214 0
M  V30 4716 H 433.244 -1.45622 -3.51423 0
M  V30 4717 H 434.556 -1.70493 -4.68757 0
M  V30 4718 H 433.71 0.207215 -6.06346 0
M  V30 4719 H 432.449 0.55071 -4.84581 0
M  V30 4720 H 431.454 -1.72343 -5.2209 0
M  V30 4721 H 432.679 -2.05767 -6.47176 0
M  V30 4722 H 430.625 0.184713 -6.5574 0
M  V30 4723 H 430.542 -1.30017 -7.44736 0
M  V30 4724 H 431.81 -0.162427 -7.79331 0
M  V30 4725 N 436.039 1.36541 -0.78704 0
M  V30 4726 C 437.455 1.52571 -0.46844 0
M  V30 4727 C 437.655 1.7415 1.01361 0
M  V30 4728 O 436.711 1.77163 1.79915 0
M  V30 4729 C 438.024 2.71299 -1.29682 0
M  V30 4730 C 439.572 2.85169 -1.29027 0
M  V30 4731 C 440.047 4.06898 -2.10233 0
M  V30 4732 N 441.538 4.1404 -2.07666 0
M  V30 4733 C 442.273 5.07301 -2.67271 0
M  V30 4734 N 441.769 6.06021 -3.35724 0
M  V30 4735 N 443.562 4.99898 -2.57018 0
M  V30 4736 H 435.713 1.20788 -1.74711 0
M  V30 4737 H 437.976 0.589364 -0.742532 0
M  V30 4738 H 437.682 2.61868 -2.34773 0
M  V30 4739 H 437.556 3.6539 -0.936479 0
M  V30 4740 H 439.943 2.94062 -0.247284 0
M  V30 4741 H 440.024 1.91992 -1.69035 0
M  V30 4742 H 439.668 3.98766 -3.1456 0
M  V30 4743 H 439.598 4.99218 -1.67597 0
M  V30 4744 H 442.089 3.43357 -1.57843 0
M  V30 4745 H 442.402 6.73741 -3.78541 0
M  V30 4746 H 440.747 6.06253 -3.39826 0
M  V30 4747 H 443.938 4.21724 -2.03142 0
M  V30 4748 H 444.111 5.72392 -3.03761 0
M  V30 4749 N 437.518 0.538854 1.48102 0
M  V30 4750 C 438.766 0.00798599 2.02098 0
M  V30 4751 C 439.087 -1.33922 1.41739 0
M  V30 4752 O 438.357 -1.86932 0.585934 0
M  V30 4753 H 436.937 -3.62179e-05 0.747 0
M  V30 4754 H 439.599 0.7047 1.81714 0
M  V30 4755 H 438.695 -0.0937672 3.11959 0
M  V30 4756 N 438.996 -1.55193 0.274407 0
M  V30 4757 C 439.959 -2.212 -0.600279 0
M  V30 4758 C 440.959 -1.18963 -1.08187 0
M  V30 4759 O 442.149 -1.43873 -0.982158 0
M  V30 4760 C 439.281 -2.87739 -1.82809 0
M  V30 4761 H 440.474 -2.9989 -0.0239682 0
M  V30 4762 H 438.027 -1.5628 0.0250192 0
M  V30 4763 H 438.762 -2.13058 -2.44493 0
M  V30 4764 H 438.547 -3.62658 -1.49069 0
M  V30 4765 H 440.037 -3.38171 -2.45011 0
M  V30 4766 N 440.474 -0.00167713 -1.576 0
M  V30 4767 C 441.885 0.54091 -1.78693 0
M  V30 4768 C 442.236 1.7386 -0.909247 0
M  V30 4769 O 441.361 2.16109 -0.112176 0
M  V30 4770 C 441.956 0.98806 -3.24072 0
M  V30 4771 C 440.515 1.47594 -3.46256 0
M  V30 4772 C 439.662 0.42792 -2.73978 0
M  V30 4773 H 442.613 -0.22784 -1.57056 0
M  V30 4774 H 442.634 1.85398 -3.32277 0
M  V30 4775 H 442.146 0.116164 -3.87926 0
M  V30 4776 H 440.247 2.36868 -2.87618 0
M  V30 4777 H 440.36 1.50225 -4.54939 0
M  V30 4778 H 438.724 0.889934 -2.38647 0
M  V30 4779 H 439.507 -0.435038 -3.40532 0
M  V30 4780 N 441.952 1.55251 0.271103 0
M  V30 4781 C 443.363 1.66635 0.842007 0
M  V30 4782 C 443.714 0.594631 1.86972 0
M  V30 4783 O 442.839 -0.263532 2.14789 0
M  V30 4784 C 443.434 3.02082 1.53401 0
M  V30 4785 C 441.993 3.15487 2.05293 0
M  V30 4786 C 441.14 2.62438 0.895631 0
M  V30 4787 H 444.091 1.58629 0.0474117 0
M  V30 4788 H 444.112 2.95176 2.40107 0
M  V30 4789 H 443.624 3.80062 0.785786 0
M  V30 4790 H 441.725 2.42284 2.83071 0
M  V30 4791 H 441.838 4.22075 2.26693 0
M  V30 4792 H 440.202 2.19644 1.28953 0
M  V30 4793 H 440.985 3.42923 0.160878 0
M  V30 4794 N 443.43 -0.535701 1.48216 0
M  V30 4795 C 444.846 -0.863701 1.3421 0
M  V30 4796 C 445.046 -1.98458 0.34879 0
M  V30 4797 O 444.102 -2.51432 -0.23204 0
M  V30 4798 C 445.415 -1.23662 2.74095 0
M  V30 4799 C 446.963 -1.34683 2.82541 0
M  V30 4800 C 447.438 -1.75322 4.23115 0
M  V30 4801 N 448.929 -1.82434 4.2576 0
M  V30 4802 C 449.664 -2.15252 5.31464 0
M  V30 4803 N 449.16 -2.46533 6.47452 0
M  V30 4804 N 450.953 -2.16209 5.18855 0
M  V30 4805 H 443.104 0.203965 2.11418 0
M  V30 4806 H 445.367 0.0286033 0.947568 0
M  V30 4807 H 445.073 -0.486674 3.48316 0
M  V30 4808 H 444.947 -2.18805 3.07253 0
M  V30 4809 H 447.334 -2.08756 2.08579 0
M  V30 4810 H 447.415 -0.376756 2.5301 0
M  V30 4811 H 447.059 -1.01812 4.97591 0
M  V30 4812 H 446.989 -2.7337 4.50085 0
M  V30 4813 H 449.48 -1.6056 3.42095 0
M  V30 4814 H 449.793 -2.70662 7.23852 0
M  V30 4815 H 448.138 -2.44065 6.50736 0
M  V30 4816 H 451.329 -1.91224 4.2726 0
M  V30 4817 H 451.502 -2.41453 6.01335 0
M  V30 4818 N 444.908 -1.36708 -0.784132 0
M  V30 4819 C 446.324 -1.17237 -1.08294 0
M  V30 4820 C 446.524 -5.93947e-05 -2.015 0
M  V30 4821 O 445.58 0.663686 -2.43622 0
M  V30 4822 C 446.893 -2.48557 -1.69233 0
M  V30 4823 C 448.441 -2.54968 -1.8155 0
M  V30 4824 C 448.916 -3.86388 -2.45904 0
M  V30 4825 N 450.407 -3.87762 -2.53367 0
M  V30 4826 C 451.142 -4.86191 -3.03983 0
M  V30 4827 N 450.638 -5.95015 -3.54866 0
M  V30 4828 N 452.431 -4.73606 -3.02743 0
M  V30 4829 H 444.582 -2.11758 -0.16501 0
M  V30 4830 H 446.845 -0.93822 -0.135822 0
M  V30 4831 H 446.551 -3.34638 -1.08215 0
M  V30 4832 H 446.425 -2.64748 -2.68679 0
M  V30 4833 H 448.812 -1.69302 -2.41704 0
M  V30 4834 H 448.893 -2.42672 -0.80895 0
M  V30 4835 H 448.537 -4.72462 -1.86392 0
M  V30 4836 H 448.467 -3.95982 -3.4714 0
M  V30 4837 H 450.958 -3.09145 -2.17343 0
M  V30 4838 H 451.271 -6.66086 -3.91854 0
M  V30 4839 H 449.616 -5.98676 -3.53003 0
M  V30 4840 H 452.807 -3.87717 -2.62284 0
M  V30 4841 H 452.98 -5.50473 -3.41881 0
M  V30 4842 N 446.386 1.0089 -1.21074 0
M  V30 4843 C 447.611 1.78727 -1.05221 0
M  V30 4844 C 448.036 1.83932 0.393795 0
M  V30 4845 O 447.394 1.28004 1.28393 0
M  V30 4846 C 447.442 3.20665 -1.64944 0
M  V30 4847 O 446.546 4.02632 -0.892273 0
M  V30 4848 H 445.887 0.550973 -0.370574 0
M  V30 4849 H 448.417 1.26847 -1.60534 0
M  V30 4850 H 448.427 3.71352 -1.69002 0
M  V30 4851 H 447.102 3.16191 -2.70177 0
M  V30 4852 H 445.679 3.61207 -0.926492 0
M  V30 4853 N 447.864 1.01787 1.20321 0
M  V30 4854 C 449.089 0.727009 1.9424 0
M  V30 4855 C 449.514 -0.706179 1.74341 0
M  V30 4856 O 448.872 -1.48609 1.03852 0
M  V30 4857 C 448.92 1.06958 3.44372 0
M  V30 4858 O 448.024 0.181983 4.11998 0
M  V30 4859 H 447.365 0.269626 0.606793 0
M  V30 4860 H 449.895 1.36158 1.52716 0
M  V30 4861 H 449.905 1.02182 3.94997 0
M  V30 4862 H 448.58 2.11378 3.58179 0
M  V30 4863 H 447.157 0.287378 3.71791 0
M  V30 4864 N 449.342 -1.36122 0.79427 0
M  V30 4865 C 450.591 -1.98361 0.365464 0
M  V30 4866 C 450.904 -1.6374 -1.06997 0
M  V30 4867 O 452.11 -2.19251 -1.60129 0
M  V30 4868 C 450.566 -3.54821 0.602496 0
M  V30 4869 C 450.174 -3.98362 2.04967 0
M  V30 4870 C 451.918 -4.2383 0.238437 0
M  V30 4871 C 449.825 -5.47619 2.2331 0
M  V30 4872 H 448.755 -0.742193 0.13291 0
M  V30 4873 H 451.406 -1.55354 0.976589 0
M  V30 4874 H 449.788 -3.95922 -0.078409 0
M  V30 4875 H 450.962 -3.68447 2.76737 0
M  V30 4876 H 449.277 -3.42206 2.37243 0
M  V30 4877 H 451.874 -5.33529 0.353705 0
M  V30 4878 H 452.217 -4.08264 -0.814006 0
M  V30 4879 H 452.75 -3.88108 0.872769 0
M  V30 4880 H 449.489 -5.68138 3.26955 0
M  V30 4881 H 449.009 -5.79145 1.5605 0
M  V30 4882 H 450.688 -6.13911 2.0426 0
M  V30 4883 N 450.82 -0.546701 -1.47814 0
M  V30 4884 C 452.236 -0.205717 -1.58269 0
M  V30 4885 C 452.436 1.29153 -1.54667 0
M  V30 4886 O 451.492 2.07098 -1.44453 0
M  V30 4887 C 452.805 -0.823065 -2.89216 0
M  V30 4888 C 454.353 -0.793328 -3.02779 0
M  V30 4889 C 454.828 -1.38955 -4.36412 0
M  V30 4890 N 456.319 -1.35227 -4.43021 0
M  V30 4891 C 457.054 -1.78333 -5.44963 0
M  V30 4892 N 456.55 -2.29246 -6.53772 0
M  V30 4893 N 458.343 -1.69467 -5.35945 0
M  V30 4894 H 450.494 -1.5196 -1.48398 0
M  V30 4895 H 452.757 -0.633078 -0.705632 0
M  V30 4896 H 452.463 -1.8749 -2.97558 0
M  V30 4897 H 452.337 -0.309915 -3.75925 0
M  V30 4898 H 454.724 0.249784 -2.94041 0
M  V30 4899 H 454.805 -1.34412 -2.17639 0
M  V30 4900 H 454.449 -2.43168 -4.45906 0
M  V30 4901 H 454.379 -0.814291 -5.20266 0
M  V30 4902 H 456.87 -0.979739 -3.64979 0
M  V30 4903 H 457.183 -2.60089 -7.27718 0
M  V30 4904 H 455.528 -2.3325 -6.5469 0
M  V30 4905 H 458.719 -1.29477 -4.49837 0
M  V30 4906 H 458.892 -2.03381 -6.15256 0
M  V30 4907 N 452.299 1.55045 -0.282633 0
M  V30 4908 C 453.247 2.24254 0.617478 0
M  V30 4909 C 454.241 1.24215 1.15183 0
M  V30 4910 O 455.447 1.42123 1.10459 0
M  V30 4911 H 451.822 0.719801 0.217693 0
M  V30 4912 H 453.793 2.98398 0.0110076 0
M  V30 4913 C 452.542 2.98281 1.78672 0
M  V30 4914 H 451.865 3.75053 1.38475 0
M  V30 4915 H 453.305 3.50017 2.393 0
M  V30 4916 C 451.764 2.04184 2.67975 0
M  V30 4917 O 452.294 1.59792 3.6855 0
M  V30 4918 N 450.5 1.70526 2.35307 0
M  V30 4919 H 450.047 2.06821 1.53567 0
M  V30 4920 H 450.005 1.07839 2.95327 0
M  V30 4921 N 453.777 0.010035 1.57597 0
M  V30 4922 C 454.74 -0.963029 2.07986 0
M  V30 4923 C 455.74 -1.26619 0.991173 0
M  V30 4924 O 456.93 -1.2097 1.25347 0
M  V30 4925 C 454.062 -2.2851 2.52974 0
M  V30 4926 H 455.255 -0.526971 2.95234 0
M  V30 4927 H 452.808 -0.237639 1.54483 0
M  V30 4928 H 453.543 -2.76784 1.69 0
M  V30 4929 H 453.328 -2.07824 3.32493 0
M  V30 4930 H 454.818 -2.98294 2.9225 0
M  V30 4931 N 455.255 -1.55392 -0.262866 0
M  V30 4932 C 456.205 -1.85355 -1.32768 0
M  V30 4933 C 457.189 -0.713188 -1.44231 0
M  V30 4934 O 458.381 -0.974765 -1.47741 0
M  V30 4935 C 455.51 -2.13781 -2.68612 0
M  V30 4936 C 454.596 -3.34104 -2.61219 0
M  V30 4937 N 454.987 -4.53766 -2.2345 0
M  V30 4938 C 453.285 -3.36895 -2.92263 0
M  V30 4939 C 453.986 -5.35877 -2.26298 0
M  V30 4940 N 452.962 -4.74536 -2.65172 0
M  V30 4941 H 456.764 -2.75413 -1.02591 0
M  V30 4942 H 454.278 -1.55405 -0.471503 0
M  V30 4943 H 456.275 -2.33407 -3.45437 0
M  V30 4944 H 454.935 -1.25013 -2.99669 0
M  V30 4945 H 455.946 -4.79682 -1.95258 0
M  V30 4946 H 452.623 -2.58351 -3.27965 0
M  V30 4947 H 454.013 -6.41577 -1.99572 0
M  V30 4948 N 456.733 0.527833 -1.48498 0
M  V30 4949 C 457.958 1.313 -1.60546 0
M  V30 4950 C 458.383 1.86199 -0.26672 0
M  V30 4951 O 457.741 1.64513 0.761918 0
M  V30 4952 C 457.789 2.43818 -2.65678 0
M  V30 4953 O 456.893 3.46916 -2.22987 0
M  V30 4954 H 456.234 0.388784 -0.538277 0
M  V30 4955 H 458.764 0.634896 -1.945 0
M  V30 4956 H 458.774 2.89973 -2.87018 0
M  V30 4957 H 457.449 2.03222 -3.62869 0
M  V30 4958 H 456.026 3.06864 -2.11869 0
M  V30 4959 N 458.211 1.37122 0.776871 0
M  V30 4960 C 459.46 1.31373 1.53049 0
M  V30 4961 C 459.773 -0.101016 1.95339 0
M  V30 4962 O 460.979 -0.280953 2.70042 0
M  V30 4963 C 459.435 2.30567 2.76346 0
M  V30 4964 C 459.043 3.77543 2.41175 0
M  V30 4965 C 460.787 2.33818 3.54301 0
M  V30 4966 C 458.694 4.68481 3.60943 0
M  V30 4967 H 457.624 0.488234 0.574581 0
M  V30 4968 H 460.275 1.62554 0.851372 0
M  V30 4969 H 458.657 1.92396 3.46121 0
M  V30 4970 H 459.831 4.24521 1.79216 0
M  V30 4971 H 458.146 3.77187 1.76405 0
M  V30 4972 H 460.743 2.98965 4.4331 0
M  V30 4973 H 461.086 1.3503 3.93793 0
M  V30 4974 H 461.619 2.7067 2.91518 0
M  V30 4975 H 458.358 5.68378 3.26537 0
M  V30 4976 H 457.878 4.2621 4.22025 0
M  V30 4977 H 459.557 4.85366 4.27819 0
M  V30 4978 N 459.689 -1.00246 1.21608 0
M  V30 4979 C 460.639 -2.07492 0.945051 0
M  V30 4980 C 461.623 -1.60585 -0.100675 0
M  V30 4981 O 462.815 -1.76667 0.10859 0
M  V30 4982 C 459.944 -3.39425 0.514342 0
M  V30 4983 C 459.03 -3.92993 1.59428 0
M  V30 4984 N 459.421 -4.19898 2.81991 0
M  V30 4985 C 457.719 -4.21297 1.46374 0
M  V30 4986 C 458.42 -4.63297 3.51754 0
M  V30 4987 N 457.396 -4.66421 2.79199 0
M  V30 4988 H 461.198 -2.26222 1.87619 0
M  V30 4989 H 458.712 -1.18339 1.11219 0
M  V30 4990 H 460.709 -4.15808 0.301527 0
M  V30 4991 H 459.369 -3.22101 -0.410008 0
M  V30 4992 H 460.38 -4.08377 3.1851 0
M  V30 4993 H 457.057 -4.13095 0.604863 0
M  V30 4994 H 458.447 -4.92816 4.56708 0
M  V30 4995 N 461.167 -1.02423 -1.1978 0
M  V30 4996 C 462.099 -0.559152 -2.22275 0
M  V30 4997 C 463.112 0.36251 -1.58713 0
M  V30 4998 O 464.301 0.159641 -1.77785 0
M  V30 4999 C 461.401 0.205094 -3.38279 0
M  V30 5000 C 460.574 -0.720361 -4.31427 0
M  V30 5001 C 459.633 -0.00234368 -5.262 0
M  V30 5002 O 458.659 -0.627378 -5.65732 0
M  V30 5003 N 459.861 1.26996 -5.66438 0
M  V30 5004 H 462.626 -1.44064 -2.62804 0
M  V30 5005 H 460.187 -0.902692 -1.34399 0
M  V30 5006 H 462.179 0.694868 -3.9869 0
M  V30 5007 H 460.749 0.987947 -2.96578 0
M  V30 5008 H 459.969 -1.39031 -3.68869 0
M  V30 5009 H 461.257 -1.3495 -4.90577 0
M  V30 5010 H 460.655 1.79858 -5.36347 0
M  V30 5011 H 459.212 1.70432 -6.29123 0
M  V30 5012 N 462.645 1.35699 -0.801477 0
M  V30 5013 C 464.061 1.52065 -0.484596 0
M  V30 5014 C 464.261 1.75215 0.995084 0
M  V30 5015 O 463.317 1.79061 1.78026 0
M  V30 5016 C 464.63 2.69908 -1.32552 0
M  V30 5017 C 466.178 2.83784 -1.32044 0
M  V30 5018 C 466.653 4.04646 -2.14536 0
M  V30 5019 N 468.144 4.11814 -2.12046 0
M  V30 5020 C 468.879 5.04437 -2.72636 0
M  V30 5021 N 468.375 6.02426 -3.42133 0
M  V30 5022 N 470.168 4.97144 -2.62305 0
M  V30 5023 H 462.319 1.18928 -1.75983 0
M  V30 5024 H 464.582 0.581455 -0.748741 0
M  V30 5025 H 464.288 2.59363 -2.37537 0
M  V30 5026 H 464.162 3.64376 -0.975181 0
M  V30 5027 H 466.549 2.93783 -0.27846 0
M  V30 5028 H 466.63 1.90188 -1.71062 0
M  V30 5029 H 466.274 3.95407 -3.18772 0
M  V30 5030 H 466.204 4.97413 -1.72882 0
M  V30 5031 H 468.695 3.41664 -1.61476 0
M  V30 5032 H 469.008 6.69688 -3.85666 0
M  V30 5033 H 467.353 6.02615 -3.46237 0
M  V30 5034 H 470.544 4.19546 -2.07603 0
M  V30 5035 H 470.717 5.69138 -3.09815 0
M  V30 5036 N 464.123 0.554532 1.47522 0
M  V30 5037 C 465.348 0.0322661 2.07375 0
M  V30 5038 C 465.773 -1.25079 1.40488 0
M  V30 5039 O 465.131 -1.74859 0.47896 0
M  V30 5040 C 465.179 -0.149397 3.6029 0
M  V30 5041 O 464.283 -1.21259 3.9417 0
M  V30 5042 H 463.624 0.0501228 0.662106 0
M  V30 5043 H 466.154 0.769452 1.8958 0
M  V30 5044 H 466.164 -0.364437 4.06369 0
M  V30 5045 H 464.839 0.787743 4.08372 0
M  V30 5046 H 463.416 -0.97825 3.5984 0
M  V30 5047 N 465.601 -1.54893 0.290851 0
M  V30 5048 C 467.017 -1.59476 -0.0628432 0
M  V30 5049 C 467.217 -1.30795 -1.5328 0
M  V30 5050 O 466.273 -1.07644 -2.28406 0
M  V30 5051 C 467.586 -2.98928 0.325962 0
M  V30 5052 C 469.134 -3.11799 0.273882 0
M  V30 5053 C 469.609 -4.53544 0.637359 0
M  V30 5054 N 471.1 -4.59433 0.589507 0
M  V30 5055 C 471.835 -5.67164 0.84335 0
M  V30 5056 N 471.331 -6.82975 1.16263 0
M  V30 5057 N 473.124 -5.56786 0.771091 0
M  V30 5058 H 465.275 -1.71798 1.24896 0
M  V30 5059 H 467.538 -0.801879 0.505663 0
M  V30 5060 H 467.244 -3.24805 1.34887 0
M  V30 5061 H 467.118 -3.75793 -0.325441 0
M  V30 5062 H 469.505 -2.85677 -0.739765 0
M  V30 5063 H 469.586 -2.37112 0.959766 0
M  V30 5064 H 469.23 -4.80394 1.64877 0
M  V30 5065 H 469.16 -5.26553 -0.0704866 0
M  V30 5066 H 471.651 -3.76245 0.353252 0
M  V30 5067 H 471.964 -7.61048 1.34257 0
M  V30 5068 H 470.309 -6.84552 1.20057 0
M  V30 5069 H 473.5 -4.65187 0.521383 0
M  V30 5070 H 473.673 -6.40664 0.972295 0
M  V30 5071 N 467.08 -0.0183926 -1.57589 0
M  V30 5072 C 468.027 0.967022 -2.09565 0
M  V30 5073 C 468.997 1.32983 -0.995225 0
M  V30 5074 O 470.182 1.42501 -1.26878 0
M  V30 5075 C 467.322 2.24772 -2.61861 0
M  V30 5076 C 466.435 1.94232 -3.85873 0
M  V30 5077 C 465.57 3.16518 -4.26603 0
M  V30 5078 C 464.609 2.81748 -5.43401 0
M  V30 5079 N 463.746 3.96626 -5.79338 0
M  V30 5080 H 468.586 0.516874 -2.93483 0
M  V30 5081 H 466.123 0.243544 -1.4507 0
M  V30 5082 H 468.081 2.99667 -2.90268 0
M  V30 5083 H 466.711 2.67423 -1.8079 0
M  V30 5084 H 465.763 1.09625 -3.64262 0
M  V30 5085 H 467.075 1.64616 -4.70853 0
M  V30 5086 H 466.229 3.99743 -4.56389 0
M  V30 5087 H 464.968 3.49286 -3.40368 0
M  V30 5088 H 463.973 1.96933 -5.1332 0
M  V30 5089 H 465.198 2.50207 -6.31327 0
M  V30 5090 H 463.144 4.29257 -4.96059 0
M  V30 5091 H 463.061 3.70598 -6.58933 0
M  V30 5092 H 464.329 4.80586 -6.13724 0
M  V30 5093 N 468.558 1.5553 0.254621 0
M  V30 5094 C 469.974 1.4778 0.602753 0
M  V30 5095 C 470.174 0.707047 1.88688 0
M  V30 5096 O 469.23 0.233288 2.5142 0
M  V30 5097 C 470.543 2.92133 0.712648 0
M  V30 5098 C 472.091 3.02458 0.805488 0
M  V30 5099 C 472.566 4.48102 0.947009 0
M  V30 5100 N 474.057 4.52008 1.01207 0
M  V30 5101 C 474.792 5.61939 1.1407 0
M  V30 5102 N 474.288 6.81697 1.23536 0
M  V30 5103 N 476.081 5.49719 1.17325 0
M  V30 5104 H 468.232 2.04085 -0.588463 0
M  V30 5105 H 470.495 0.926229 -0.202001 0
M  V30 5106 H 470.201 3.51332 -0.160766 0
M  V30 5107 H 470.075 3.42187 1.58707 0
M  V30 5108 H 472.462 2.43344 1.66936 0
M  V30 5109 H 472.543 2.55627 -0.0939266 0
M  V30 5110 H 472.187 5.07824 0.087725 0
M  V30 5111 H 472.117 4.92607 1.86135 0
M  V30 5112 H 474.608 3.65749 0.950577 0
M  V30 5113 H 474.921 7.61228 1.33236 0
M  V30 5114 H 473.266 6.84473 1.20508 0
M  V30 5115 H 476.457 4.55095 1.09573 0
M  V30 5116 H 476.63 6.35432 1.27005 0
M  V30 5117 N 470.036 -0.519951 1.48776 0
M  V30 5118 C 470.966 -1.63253 1.66945 0
M  V30 5119 C 471.947 -1.62014 0.518224 0
M  V30 5120 O 473.132 -1.79053 0.751919 0
M  V30 5121 C 470.262 -3.0181 1.71836 0
M  V30 5122 C 469.216 -3.17911 2.8656 0
M  V30 5123 C 468.542 -4.5763 2.76548 0
M  V30 5124 C 469.842 -2.99729 4.27738 0
M  V30 5125 H 471.536 -1.48302 2.6009 0
M  V30 5126 H 469.082 -0.712026 1.25165 0
M  V30 5127 H 471.035 -3.79525 1.83135 0
M  V30 5128 H 469.759 -3.17806 0.752775 0
M  V30 5129 H 468.418 -2.42616 2.74833 0
M  V30 5130 H 468.066 -4.70476 1.77937 0
M  V30 5131 H 467.766 -4.69346 3.53536 0
M  V30 5132 H 469.29 -5.37431 2.89828 0
M  V30 5133 H 470.704 -3.67228 4.40246 0
M  V30 5134 H 469.101 -3.22932 5.05801 0
M  V30 5135 H 470.171 -1.96047 4.43502 0
M  V30 5136 N 471.514 -1.37532 -0.769588 0
M  V30 5137 C 472.739 -1.36231 -1.56384 0
M  V30 5138 C 473.164 0.0495849 -1.88035 0
M  V30 5139 O 472.522 1.02723 -1.49391 0
M  V30 5140 C 472.57 -2.20986 -2.84952 0
M  V30 5141 O 471.674 -1.61597 -3.79421 0
M  V30 5142 H 471.015 -0.465387 -0.473615 0
M  V30 5143 H 473.545 -1.81085 -0.952342 0
M  V30 5144 H 473.555 -2.34277 -3.34034 0
M  V30 5145 H 472.23 -3.23612 -2.61243 0
M  V30 5146 H 470.807 -1.57359 -3.38072 0
M  V30 5147 N 472.992 0.995999 -1.22138 0
M  V30 5148 C 473.924 2.08745 -0.946485 0
M  V30 5149 C 474.937 1.62633 0.0737356 0
M  V30 5150 O 476.126 1.77782 -0.159886 0
M  V30 5151 C 473.226 3.36516 -0.401305 0
M  V30 5152 C 472.399 4.11672 -1.47801 0
M  V30 5153 C 471.458 5.17728 -0.940461 0
M  V30 5154 O 470.484 5.45482 -1.62596 0
M  V30 5155 N 471.686 5.80005 0.239723 0
M  V30 5156 H 474.451 2.32908 -1.88611 0
M  V30 5157 H 472.012 1.16152 -1.12785 0
M  V30 5158 H 474.004 4.04691 -0.0270837 0
M  V30 5159 H 472.574 3.0944 0.443354 0
M  V30 5160 H 471.794 3.38171 -2.02568 0
M  V30 5161 H 473.082 4.58657 -2.20253 0
M  V30 5162 H 472.48 5.5982 0.813518 0
M  V30 5163 H 471.037 6.4943 0.555361 0
M  V30 5164 N 474.47 1.03057 1.19235 0
M  V30 5165 C 475.747 0.642608 1.84743 0
M  V30 5166 C 476.127 -0.878577 1.91948 0
M  V30 5167 O 475.475 -1.77597 1.43776 0
M  V30 5168 C 475.685 1.30665 3.23616 0
M  V30 5169 C 477.033 1.43098 3.9976 0
M  V30 5170 O 478.057 1.26396 3.3302 0
M  V30 5171 O 476.916 1.70223 5.19313 0
M  V30 5172 H 474.01 0.223573 0.796206 0
M  V30 5173 H 476.556 1.12883 1.26711 0
M  V30 5174 H 475.328 2.34544 3.13217 0
M  V30 5175 H 474.951 0.808405 3.89295 0
M  V30 5176 N 475.948 -1.35272 0.808662 0
M  V30 5177 C 476.911 -2.28082 0.226093 0
M  V30 5178 C 477.911 -1.49673 -0.587762 0
M  V30 5179 O 479.101 -1.69404 -0.405943 0
M  V30 5180 C 476.233 -3.33955 -0.684596 0
M  V30 5181 H 477.426 -2.81116 1.04469 0
M  V30 5182 H 474.979 -1.45162 0.579466 0
M  V30 5183 H 475.714 -2.86111 -1.5268 0
M  V30 5184 H 475.499 -3.91965 -0.102699 0
M  V30 5185 H 476.989 -4.03219 -1.08646 0
M  V30 5186 N 477.426 -0.562348 -1.47226 0
M  V30 5187 C 478.656 -0.0451619 -2.06551 0
M  V30 5188 C 479.064 1.25626 -1.41473 0
M  V30 5189 O 478.407 1.76563 -0.507061 0
M  V30 5190 C 478.469 0.216068 -3.5885 0
M  V30 5191 C 478.133 -0.996691 -4.45999 0
M  V30 5192 C 479.13 -1.90358 -4.83797 0
M  V30 5193 C 476.815 -1.21281 -4.87438 0
M  V30 5194 C 478.809 -3.01023 -5.6184 0
M  V30 5195 C 476.496 -2.32255 -5.65244 0
M  V30 5196 C 477.494 -3.21956 -6.02356 0
M  V30 5197 O 477.182 -4.31005 -6.78594 0
M  V30 5198 H 476.914 -0.0451646 -0.67449 0
M  V30 5199 H 479.468 -0.776842 -1.90143 0
M  V30 5200 H 477.698 1.00212 -3.7349 0
M  V30 5201 H 479.387 0.679264 -4.00176 0
M  V30 5202 H 480.153 -1.74868 -4.52378 0
M  V30 5203 H 476.032 -0.523767 -4.58015 0
M  V30 5204 H 479.576 -3.71064 -5.90726 0
M  V30 5205 H 475.473 -2.47715 -5.96077 0
M  V30 5206 H 476.241 -4.29118 -6.96994 0
M  V30 5207 N 478.904 1.54736 -0.299062 0
M  V30 5208 C 480.32 1.59507 0.0543849 0
M  V30 5209 C 480.52 1.31606 1.52585 0
M  V30 5210 O 479.576 1.08853 2.27832 0
M  V30 5211 C 480.889 2.98751 -0.34181 0
M  V30 5212 C 482.437 3.1165 -0.290414 0
M  V30 5213 C 482.912 4.53199 -0.661402 0
M  V30 5214 N 484.403 4.59114 -0.613863 0
M  V30 5215 C 485.138 5.66709 -0.873417 0
M  V30 5216 N 484.634 6.82349 -1.19884 0
M  V30 5217 N 486.427 5.56369 -0.800608 0
M  V30 5218 H 478.578 1.71133 -1.25806 0
M  V30 5219 H 480.841 0.799186 -0.509908 0
M  V30 5220 H 480.547 3.24085 -1.36608 0
M  V30 5221 H 480.421 3.75961 0.305508 0
M  V30 5222 H 482.808 2.86066 0.724605 0
M  V30 5223 H 482.889 2.366 -0.972327 0
M  V30 5224 H 482.533 4.79513 -1.67422 0
M  V30 5225 H 482.463 5.26583 0.0425612 0
M  V30 5226 H 484.954 3.76053 -0.3732 0
M  V30 5227 H 485.267 7.60326 -1.38291 0
M  V30 5228 H 483.612 6.83906 -1.23685 0
M  V30 5229 H 486.803 4.64904 -0.546045 0
M  V30 5230 H 486.976 6.40139 -1.00626 0
M  V30 5231 N 480.382 0.0267497 1.57577 0
M  V30 5232 C 481.798 -0.32962 1.56159 0
M  V30 5233 C 481.998 -1.73059 1.03213 0
M  V30 5234 O 481.054 -2.43233 0.677804 0
M  V30 5235 C 482.367 -0.18039 3.00158 0
M  V30 5236 C 483.915 -0.253334 3.11973 0
M  V30 5237 C 484.39 -0.132921 4.57807 0
M  V30 5238 N 485.881 -0.189979 4.6281 0
M  V30 5239 C 486.616 -0.120554 5.73273 0
M  V30 5240 N 486.112 -0.000180315 6.928 0
M  V30 5241 N 487.905 -0.174369 5.61829 0
M  V30 5242 H 480.056 0.942896 1.90324 0
M  V30 5243 H 482.319 0.3639 0.875375 0
M  V30 5244 H 482.025 0.784576 3.42837 0
M  V30 5245 H 481.899 -0.951565 3.65 0
M  V30 5246 H 484.286 -1.20876 2.69208 0
M  V30 5247 H 484.367 0.548177 2.49857 0
M  V30 5248 H 484.011 0.819073 5.01252 0
M  V30 5249 H 483.941 -0.953264 5.179 0
M  V30 5250 H 486.432 -0.283257 3.76837 0
M  V30 5251 H 486.745 0.0461666 7.72786 0
M  V30 5252 H 485.09 0.034569 6.94991 0
M  V30 5253 H 488.281 -0.266794 4.67339 0
M  V30 5254 H 488.454 -0.116802 6.47895 0
M  V30 5255 N 481.861 -1.55662 -0.24637 0
M  V30 5256 C 482.809 -1.91186 -1.3248 0
M  V30 5257 C 483.803 -0.790996 -1.49799 0
M  V30 5258 O 485.009 -0.975617 -1.51267 0
M  V30 5259 H 481.384 -0.607207 -0.443626 0
M  V30 5260 H 483.355 -2.81221 -0.997853 0
M  V30 5261 C 482.104 -2.22349 -2.67313 0
M  V30 5262 H 481.427 -3.08097 -2.54786 0
M  V30 5263 H 482.867 -2.51107 -3.41645 0
M  V30 5264 C 481.326 -1.04001 -3.20446 0
M  V30 5265 O 481.856 -0.28828 -4.00664 0
M  V30 5266 N 480.062 -0.830494 -2.7848 0
M  V30 5267 H 479.609 -1.4435 -2.13356 0
M  V30 5268 H 479.567 -0.0403258 -3.14374 0
M  V30 5269 N 483.339 0.512053 -1.4905 0
M  V30 5270 C 484.564 1.2959 -1.6193 0
M  V30 5271 C 484.989 1.85906 -0.286454 0
M  V30 5272 O 484.347 1.65312 0.744426 0
M  V30 5273 C 484.395 2.40987 -2.68249 0
M  V30 5274 O 483.499 3.44531 -2.26654 0
M  V30 5275 H 482.84 0.383053 -0.542371 0
M  V30 5276 H 485.37 0.614231 -1.95162 0
M  V30 5277 H 485.38 2.86913 -2.90078 0
M  V30 5278 H 484.055 1.99361 -3.65004 0
M  V30 5279 H 482.632 3.046 -2.15112 0
M  V30 5280 N 484.817 1.37938 0.762283 0
M  V30 5281 C 486.063 1.33866 1.52341 0
M  V30 5282 C 486.396 -0.0738961 1.94059 0
M  V30 5283 O 485.671 -1.03326 1.64785 0
M  V30 5284 C 485.954 2.28644 2.78197 0
M  V30 5285 C 485.807 3.78722 2.42672 0
M  V30 5286 C 487.126 2.21702 3.80179 0
M  V30 5287 H 484.245 0.487593 0.55265 0
M  V30 5288 H 486.887 1.68717 0.873767 0
M  V30 5289 H 485.037 1.99055 3.33631 0
M  V30 5290 H 486.709 4.18948 1.93081 0
M  V30 5291 H 484.952 3.96827 1.75244 0
M  V30 5292 H 485.623 4.40486 3.3268 0
M  V30 5293 H 488.099 2.47805 3.34263 0
M  V30 5294 H 486.975 2.90143 4.65949 0
M  V30 5295 H 487.236 1.21301 4.25133 0
M  V30 5296 N 486.295 -0.989507 1.22664 0
M  V30 5297 C 487.711 -1.25395 0.987331 0
M  V30 5298 C 487.911 -1.9899 -0.317056 0
M  V30 5299 O 486.967 -2.30141 -1.03882 0
M  V30 5300 C 488.28 -2.06242 2.18826 0
M  V30 5301 C 489.828 -2.19413 2.23219 0
M  V30 5302 C 490.303 -3.03648 3.42873 0
M  V30 5303 N 491.794 -3.11234 3.43056 0
M  V30 5304 C 492.529 -3.7671 4.32293 0
M  V30 5305 N 492.025 -4.44085 5.31752 0
M  V30 5306 N 493.818 -3.73505 4.2006 0
M  V30 5307 H 485.969 -0.496212 2.06522 0
M  V30 5308 H 488.232 -0.281784 0.905153 0
M  V30 5309 H 487.938 -1.59531 3.13437 0
M  V30 5310 H 487.812 -3.06996 2.19165 0
M  V30 5311 H 490.199 -2.65336 1.29154 0
M  V30 5312 H 490.28 -1.18078 2.26917 0
M  V30 5313 H 489.924 -2.58424 4.37241 0
M  V30 5314 H 489.854 -4.05132 3.36416 0
M  V30 5315 H 492.345 -2.63287 2.71088 0
M  V30 5316 H 492.658 -4.91797 5.96117 0
M  V30 5317 H 491.003 -4.42822 5.35662 0
M  V30 5318 H 494.194 -3.20033 3.41609 0
M  V30 5319 H 494.367 -4.24253 4.8981 0
M  V30 5320 N 487.773 -1.03688 -1.18687 0
M  V30 5321 C 489.02 -0.73803 -1.88572 0
M  V30 5322 C 489.348 0.733973 -1.8012 0
M  V30 5323 O 488.603 1.55098 -1.19344 0
M  V30 5324 C 488.902 -1.14477 -3.3857 0
M  V30 5325 C 488.568 -2.61641 -3.67226 0
M  V30 5326 C 487.23 -3.01846 -3.74757 0
M  V30 5327 C 489.582 -3.56812 -3.79914 0
M  V30 5328 C 486.91 -4.36118 -3.92451 0
M  V30 5329 C 489.262 -4.90799 -3.99123 0
M  V30 5330 C 487.926 -5.3068 -4.04888 0
M  V30 5331 H 487.196 -0.270064 -0.690034 0
M  V30 5332 H 489.843 -1.3012 -1.40503 0
M  V30 5333 H 488.148 -0.500337 -3.88592 0
M  V30 5334 H 489.845 -0.89095 -3.90977 0
M  V30 5335 H 486.435 -2.29498 -3.61979 0
M  V30 5336 H 490.619 -3.26899 -3.73431 0
M  V30 5337 H 485.875 -4.66542 -3.95157 0
M  V30 5338 H 490.049 -5.64451 -4.07882 0
M  V30 5339 H 487.676 -6.34733 -4.18351 0
M  V30 5340 N 489.251 1.34841 -0.815825 0
M  V30 5341 C 490.181 2.32187 -0.247298 0
M  V30 5342 C 491.162 1.5791 0.632344 0
M  V30 5343 O 492.347 1.8593 0.560698 0
M  V30 5344 C 489.477 3.42122 0.597466 0
M  V30 5345 C 488.431 4.27602 -0.184446 0
M  V30 5346 C 487.757 5.28942 0.782609 0
M  V30 5347 C 489.057 5.03502 -1.38865 0
M  V30 5348 H 490.751 2.79985 -1.06061 0
M  V30 5349 H 488.297 1.34611 -0.511461 0
M  V30 5350 H 490.25 4.09232 1.00533 0
M  V30 5351 H 488.974 2.92956 1.44376 0
M  V30 5352 H 487.633 3.62085 -0.573592 0
M  V30 5353 H 487.281 4.7604 1.62466 0
M  V30 5354 H 486.981 5.87008 0.263695 0
M  V30 5355 H 488.505 5.98922 1.18848 0
M  V30 5356 H 489.919 5.63506 -1.05518 0
M  V30 5357 H 488.316 5.71108 -1.8427 0
M  V30 5358 H 489.386 4.33608 -2.17054 0
M  V30 5359 N 490.729 0.570148 1.46925 0
M  V30 5360 C 491.661 -0.207909 2.28255 0
M  V30 5361 C 492.674 -0.867301 1.37774 0
M  V30 5362 O 493.863 -0.738976 1.62485 0
M  V30 5363 C 490.963 -1.31298 3.12433 0
M  V30 5364 C 490.136 -0.747915 4.30958 0
M  V30 5365 C 489.195 -1.7391 4.9663 0
M  V30 5366 O 488.221 -1.2801 5.54619 0
M  V30 5367 N 489.423 -3.07288 4.92498 0
M  V30 5368 H 492.188 0.489794 2.95671 0
M  V30 5369 H 489.749 0.407076 1.56699 0
M  V30 5370 H 491.741 -1.97507 3.53232 0
M  V30 5371 H 490.311 -1.91373 2.47175 0
M  V30 5372 H 489.531 0.0913066 3.94094 0
M  V30 5373 H 490.819 -0.349958 5.07595 0
M  V30 5374 H 490.217 -3.47213 4.46609 0
M  V30 5375 H 488.774 -3.69021 5.37277 0
M  V30 5376 N 492.207 -1.54576 0.307264 0
M  V30 5377 C 493.139 -2.21212 -0.599807 0
M  V30 5378 C 494.152 -1.20685 -1.09266 0
M  V30 5379 O 495.341 -1.47244 -1.00903 0
M  V30 5380 C 492.441 -2.84994 -1.83389 0
M  V30 5381 C 491.614 -4.11511 -1.48248 0
M  V30 5382 C 490.673 -4.59038 -2.57237 0
M  V30 5383 O 489.699 -5.24095 -2.22065 0
M  V30 5384 N 490.901 -4.31884 -3.87887 0
M  V30 5385 H 493.666 -2.99686 -0.0293075 0
M  V30 5386 H 491.227 -1.61379 0.129738 0
M  V30 5387 H 493.219 -3.1372 -2.5566 0
M  V30 5388 H 491.789 -2.10324 -2.31263 0
M  V30 5389 H 491.009 -3.89728 -0.592122 0
M  V30 5390 H 492.297 -4.93879 -1.22316 0
M  V30 5391 H 491.695 -3.79778 -4.19268 0
M  V30 5392 H 490.252 -4.65304 -4.56438 0
M  V30 5393 N 493.685 -0.035106 -1.57561 0
M  V30 5394 C 495.101 0.321334 -1.56332 0
M  V30 5395 C 495.301 1.72509 -1.04129 0
M  V30 5396 O 494.357 2.4287 -0.690694 0
M  V30 5397 C 495.67 0.164469 -3.0025 0
M  V30 5398 C 497.218 0.236786 -3.12103 0
M  V30 5399 C 497.693 0.10864 -4.57871 0
M  V30 5400 N 499.184 0.165433 -4.62904 0
M  V30 5401 C 499.919 0.0901506 -5.73329 0
M  V30 5402 N 499.415 -0.0365606 -6.9279 0
M  V30 5403 N 501.208 0.144572 -5.61914 0
M  V30 5404 H 493.359 -0.952976 -1.89821 0
M  V30 5405 H 495.622 -0.368537 -0.873432 0
M  V30 5406 H 495.328 -0.802746 -3.42416 0
M  V30 5407 H 495.202 0.932194 -3.655 0
M  V30 5408 H 497.589 1.19446 -2.69845 0
M  V30 5409 H 497.67 -0.561419 -2.49563 0
M  V30 5410 H 497.314 -0.845644 -5.00811 0
M  V30 5411 H 497.244 0.925786 -5.18398 0
M  V30 5412 H 499.735 0.263269 -3.76982 0
M  V30 5413 H 500.048 -0.0871487 -7.72751 0
M  V30 5414 H 498.393 -0.0714256 -6.94963 0
M  V30 5415 H 501.584 0.242006 -4.67474 0
M  V30 5416 H 501.757 0.0824413 -6.47948 0
M  V30 5417 N 495.163 1.55791 0.238111 0
M  V30 5418 C 496.579 1.48411 0.587045 0
M  V30 5419 C 496.779 0.72702 1.87927 0
M  V30 5420 O 495.835 0.259942 2.51158 0
M  V30 5421 C 497.148 2.92873 0.681623 0
M  V30 5422 C 498.696 3.03295 0.773363 0
M  V30 5423 C 499.171 4.49082 0.899428 0
M  V30 5424 N 500.662 4.53056 0.964075 0
M  V30 5425 C 501.397 5.63117 1.08104 0
M  V30 5426 N 500.893 6.82969 1.16299 0
M  V30 5427 N 502.686 5.50933 1.11488 0
M  V30 5428 H 494.837 2.0345 -0.610076 0
M  V30 5429 H 497.1 0.924034 -0.211813 0
M  V30 5430 H 496.806 3.51142 -0.19802 0
M  V30 5431 H 496.68 3.43851 1.55069 0
M  V30 5432 H 499.067 2.45101 1.64346 0
M  V30 5433 H 499.148 2.55513 -0.121034 0
M  V30 5434 H 498.792 5.07889 0.0338586 0
M  V30 5435 H 498.722 4.94553 1.809 0
M  V30 5436 H 501.213 3.66737 0.91173 0
M  V30 5437 H 501.526 7.62598 1.25155 0
M  V30 5438 H 499.871 6.85712 1.13241 0
M  V30 5439 H 503.062 4.56231 1.0474 0
M  V30 5440 H 503.235 6.36743 1.20259 0
M  V30 5441 N 496.642 -0.504142 1.49319 0
M  V30 5442 C 498.058 -0.835039 1.36012 0
M  V30 5443 C 498.258 -1.97674 0.390808 0
M  V30 5444 O 497.314 -2.51867 -0.178655 0
M  V30 5445 C 498.627 -1.17821 2.76656 0
M  V30 5446 C 500.175 -1.2866 2.85334 0
M  V30 5447 C 500.65 -1.66307 4.26739 0
M  V30 5448 N 502.141 -1.73362 4.29534 0
M  V30 5449 C 502.876 -2.0393 5.35911 0
M  V30 5450 N 502.372 -2.32744 6.52535 0
M  V30 5451 N 504.165 -2.05155 5.23324 0
M  V30 5452 H 496.316 0.248764 2.10938 0
M  V30 5453 H 498.579 0.0486962 0.946748 0
M  V30 5454 H 498.285 -0.412682 3.4927 0
M  V30 5455 H 498.159 -2.12239 3.11825 0
M  V30 5456 H 500.546 -2.04285 2.1296 0
M  V30 5457 H 500.627 -0.323004 2.53752 0
M  V30 5458 H 500.271 -0.91234 4.99639 0
M  V30 5459 H 500.201 -2.63761 4.55782 0
M  V30 5460 H 502.692 -1.53268 3.45424 0
M  V30 5461 H 503.005 -2.55248 7.2943 0
M  V30 5462 H 501.35 -2.30207 6.55767 0
M  V30 5463 H 504.541 -1.82119 4.3122 0
M  V30 5464 H 504.714 -2.28644 6.06322 0
M  V30 5465 N 498.12 -1.38341 -0.754957 0
M  V30 5466 C 499.052 -1.31347 -1.87831 0
M  V30 5467 C 500.065 -0.225955 -1.61224 0
M  V30 5468 O 501.254 -0.48341 -1.7183 0
M  V30 5469 C 498.354 -1.01201 -3.23437 0
M  V30 5470 C 497.527 -2.20834 -3.77559 0
M  V30 5471 C 496.586 -1.87454 -4.91678 0
M  V30 5472 O 495.612 -2.59934 -5.06382 0
M  V30 5473 N 496.814 -0.828682 -5.74555 0
M  V30 5474 H 499.579 -2.28147 -1.94342 0
M  V30 5475 H 497.14 -1.32184 -0.934828 0
M  V30 5476 H 499.132 -0.769249 -3.97322 0
M  V30 5477 H 497.702 -0.132011 -3.12321 0
M  V30 5478 H 496.922 -2.61184 -2.95256 0
M  V30 5479 H 498.21 -3.00678 -4.10451 0
M  V30 5480 H 497.608 -0.227591 -5.65242 0
M  V30 5481 H 496.165 -0.645802 -6.48593 0
M  V30 5482 N 499.598 0.982988 -1.23187 0
M  V30 5483 C 500.561 2.05649 -1.01198 0
M  V30 5484 C 501.561 1.6078 0.0252464 0
M  V30 5485 O 502.751 1.72878 -0.214243 0
M  V30 5486 C 499.883 3.36744 -0.530656 0
M  V30 5487 H 501.076 2.2659 -1.96461 0
M  V30 5488 H 498.629 1.15602 -1.05195 0
M  V30 5489 H 499.364 3.21492 0.425873 0
M  V30 5490 H 499.149 3.7065 -1.2791 0
M  V30 5491 H 500.639 4.15705 -0.397366 0
M  V30 5492 N 501.076 1.04316 1.18135 0
M  V30 5493 C 502.492 0.762858 1.40188 0
M  V30 5494 C 502.692 -0.646547 1.90846 0
M  V30 5495 O 501.748 -1.41036 2.0944 0
M  V30 5496 C 503.061 1.81106 2.40044 0
M  V30 5497 C 504.609 1.83226 2.53766 0
M  V30 5498 C 505.084 2.87044 3.56889 0
M  V30 5499 N 506.575 2.85951 3.64398 0
M  V30 5500 C 507.31 3.62932 4.43923 0
M  V30 5501 N 506.806 4.49672 5.27036 0
M  V30 5502 N 508.599 3.51411 4.38711 0
M  V30 5503 H 500.75 1.95264 0.835805 0
M  V30 5504 H 503.013 0.845017 0.429709 0
M  V30 5505 H 502.719 2.82214 2.09876 0
M  V30 5506 H 502.593 1.64529 3.39426 0
M  V30 5507 H 504.98 0.827869 2.8325 0
M  V30 5508 H 505.061 2.03879 1.54489 0
M  V30 5509 H 504.705 3.87663 3.28145 0
M  V30 5510 H 504.635 2.63645 4.5585 0
M  V30 5511 H 507.126 2.23051 3.05052 0
M  V30 5512 H 507.439 5.05116 5.84874 0
M  V30 5513 H 505.784 4.53738 5.26447 0
M  V30 5514 H 508.975 2.83047 3.72829 0
M  V30 5515 H 509.148 4.11654 5.00445 0
M  V30 5516 N 502.554 -1.34406 0.822964 0
M  V30 5517 C 503.965 -1.8069 0.469879 0
M  V30 5518 C 504.316 -1.68223 -1.00972 0
M  V30 5519 O 503.441 -1.22226 -1.78577 0
M  V30 5520 C 504.036 -3.28064 0.846118 0
M  V30 5521 C 502.595 -3.72428 0.545402 0
M  V30 5522 C 501.742 -2.56116 1.06301 0
M  V30 5523 H 504.693 -1.22153 1.01313 0
M  V30 5524 H 504.714 -3.80205 0.149922 0
M  V30 5525 H 504.226 -3.37107 1.92304 0
M  V30 5526 H 502.327 -3.68924 -0.522109 0
M  V30 5527 H 502.44 -4.66548 1.0895 0
M  V30 5528 H 500.804 -2.50048 0.484554 0
M  V30 5529 H 501.587 -2.67928 2.14638 0
M  V30 5530 N 504.032 -0.577932 -1.46621 0
M  V30 5531 C 505.28 -0.061566 -2.02006 0
M  V30 5532 C 505.601 1.30117 -1.4524 0
M  V30 5533 O 504.871 1.85313 -0.63529 0
M  V30 5534 H 503.451 -0.0197692 -0.746738 0
M  V30 5535 H 506.113 -0.752631 -1.79782 0
M  V30 5536 H 505.209 0.0110238 -3.12098 0
M  V30 5537 N 505.51 1.54411 -0.315457 0
M  V30 5538 C 506.921 1.85885 0.174265 0
M  V30 5539 C 507.272 1.23723 1.52273 0
M  V30 5540 O 506.397 0.540246 2.09548 0
M  V30 5541 C 506.992 3.37257 0.322981 0
M  V30 5542 C 505.551 3.68711 0.756922 0
M  V30 5543 C 504.698 2.77013 -0.126195 0
M  V30 5544 H 507.649 1.49374 -0.536007 0
M  V30 5545 H 507.67 3.62539 1.15522 0
M  V30 5546 H 507.182 3.82471 -0.658602 0
M  V30 5547 H 505.283 3.29024 1.74854 0
M  V30 5548 H 505.396 4.75741 0.566291 0
M  V30 5549 H 503.76 2.51588 0.39692 0
M  V30 5550 H 504.543 3.25051 -1.1044 0
M  V30 5551 N 506.988 0.0434614 1.5754 0
M  V30 5552 C 507.92 -0.962586 2.08007 0
M  V30 5553 C 508.933 -1.27972 1.00634 0
M  V30 5554 O 510.122 -1.24186 1.28219 0
M  V30 5555 C 507.222 -2.28621 2.50171 0
M  V30 5556 C 506.395 -2.15214 3.80791 0
M  V30 5557 C 505.454 -3.30633 4.09351 0
M  V30 5558 O 504.48 -3.0688 4.79388 0
M  V30 5559 N 505.682 -4.54873 3.60654 0
M  V30 5560 H 508.447 -0.531891 2.94942 0
M  V30 5561 H 506.008 -0.142965 1.61268 0
M  V30 5562 H 508 -3.04689 2.66359 0
M  V30 5563 H 506.57 -2.63283 1.68525 0
M  V30 5564 H 505.79 -1.23785 3.74261 0
M  V30 5565 H 507.078 -2.03475 4.66343 0
M  V30 5566 H 506.476 -4.77063 3.04019 0
M  V30 5567 H 505.033 -5.2806 3.82094 0
M  V30 5568 N 508.466 -1.55915 -0.229846 0
M  V30 5569 C 509.691 -1.8296 -0.976743 0
M  V30 5570 C 510.116 -0.622735 -1.77493 0
M  V30 5571 O 509.474 0.428431 -1.76165 0
M  V30 5572 C 509.522 -3.07916 -1.8767 0
M  V30 5573 O 508.626 -2.86028 -2.97088 0
M  V30 5574 H 507.967 -0.603453 -0.277021 0
M  V30 5575 H 510.497 -2.0312 -0.245669 0
M  V30 5576 H 510.507 -3.37802 -2.2881 0
M  V30 5577 H 509.182 -3.95389 -1.28996 0
M  V30 5578 H 507.759 -2.67355 -2.59954 0
M  V30 5579 N 509.944 0.496216 -1.49584 0
M  V30 5580 C 511.355 1.07765 -1.52459 0
M  V30 5581 C 511.706 1.93679 -0.31353 0
M  V30 5582 O 510.831 2.08588 0.576186 0
M  V30 5583 C 511.426 1.96111 -2.76271 0
M  V30 5584 C 509.985 2.49409 -2.81908 0
M  V30 5585 C 509.132 1.27142 -2.46435 0
M  V30 5586 H 512.083 0.279914 -1.56212 0
M  V30 5587 H 512.104 2.80862 -2.56704 0
M  V30 5588 H 511.616 1.33555 -3.64396 0
M  V30 5589 H 509.717 3.1559 -1.98074 0
M  V30 5590 H 509.83 2.86234 -3.84196 0
M  V30 5591 H 508.194 1.59818 -1.98319 0
M  V30 5592 H 508.977 0.662866 -3.3684 0
M  V30 5593 N 511.423 1.38739 0.74761 0
M  V30 5594 C 512.671 1.35007 1.50391 0
M  V30 5595 C 512.992 -0.0574274 1.94915 0
M  V30 5596 O 512.262 -1.00628 1.6808 0
M  V30 5597 H 510.842 0.496784 0.557866 0
M  V30 5598 H 513.504 1.73479 0.888319 0
M  V30 5599 H 512.6 2.00474 2.392 0
M  V30 5600 N 512.901 -0.976442 1.23707 0
M  V30 5601 C 514.126 -1.75875 1.09922 0
M  V30 5602 C 514.551 -1.84911 -0.34489 0
M  V30 5603 O 513.909 -1.31363 -1.24954 0
M  V30 5604 C 513.957 -3.16179 1.73388 0
M  V30 5605 O 513.061 -4.00124 0.99871 0
M  V30 5606 H 512.402 -0.540954 0.385052 0
M  V30 5607 H 514.932 -1.22546 1.6384 0
M  V30 5608 H 514.942 -3.66741 1.78788 0
M  V30 5609 H 513.617 -3.08917 2.78466 0
M  V30 5610 H 512.194 -3.58624 1.02193 0
M  V30 5611 N 514.379 -1.04941 -1.1758 0
M  V30 5612 C 515.79 -0.784501 -1.69418 0
M  V30 5613 C 516.141 0.693625 -1.8353 0
M  V30 5614 O 515.266 1.53925 -1.52106 0
M  V30 5615 C 515.861 -1.41746 -3.07723 0
M  V30 5616 C 514.42 -1.20066 -3.56737 0
M  V30 5617 C 513.567 -1.5026 -2.33061 0
M  V30 5618 H 516.518 -1.21469 -1.02133 0
M  V30 5619 H 516.539 -0.825381 -3.7144 0
M  V30 5620 H 516.051 -2.49325 -2.9742 0
M  V30 5621 H 514.152 -0.144006 -3.72322 0
M  V30 5622 H 514.265 -1.90384 -4.39648 0
M  V30 5623 H 512.629 -0.922598 -2.37403 0
M  V30 5624 H 513.412 -2.58967 -2.25368 0
M  V30 5625 N 515.857 1.33968 -0.830081 0
M  V30 5626 C 516.787 2.31911 -0.271911 0
M  V30 5627 C 517.768 1.58571 0.61556 0
M  V30 5628 O 518.953 1.86514 0.540946 0
M  V30 5629 C 516.083 3.42737 0.561146 0
M  V30 5630 C 515.037 4.27383 -0.229789 0
M  V30 5631 C 514.363 5.29742 0.726463 0
M  V30 5632 C 515.663 5.02 -1.44197 0
M  V30 5633 H 517.357 2.78844 -1.09025 0
M  V30 5634 H 514.903 1.34061 -0.52571 0
M  V30 5635 H 516.856 4.10276 0.961867 0
M  V30 5636 H 515.58 2.94471 1.41261 0
M  V30 5637 H 514.239 3.61456 -0.611964 0
M  V30 5638 H 513.887 4.77736 1.57408 0
M  V30 5639 H 513.587 5.87255 0.20142 0
M  V30 5640 H 515.111 6.00149 1.12489 0
M  V30 5641 H 516.525 5.62355 -1.11488 0
M  V30 5642 H 514.922 5.69122 -1.90317 0
M  V30 5643 H 515.992 4.31281 -2.2164 0
M  V30 5644 N 517.335 0.585699 1.46312 0
M  V30 5645 C 518.245 -0.148236 2.34131 0
M  V30 5646 C 519.261 -0.882972 1.49932 0
M  V30 5647 O 520.437 -0.845484 1.82794 0
M  V30 5648 C 517.502 -1.14714 3.27172 0
M  V30 5649 C 516.563 -0.416746 4.27272 0
M  V30 5650 C 515.796 -1.36806 5.15868 0
M  V30 5651 O 516.019 -2.60475 5.07454 0
M  V30 5652 O 514.953 -0.877018 5.95476 0
M  V30 5653 H 518.779 0.572882 2.98248 0
M  V30 5654 H 516.364 0.346082 1.45336 0
M  V30 5655 H 518.246 -1.72303 3.84564 0
M  V30 5656 H 516.921 -1.84967 2.65648 0
M  V30 5657 H 515.828 0.201061 3.73559 0
M  V30 5658 H 517.161 0.244872 4.9159 0
M  V30 5659 N 518.813 -1.54241 0.323641 0
M  V30 5660 C 519.723 -2.28033 -0.551205 0
M  V30 5661 C 520.739 -1.32388 -1.12913 0
M  V30 5662 O 521.915 -1.65403 -1.14908 0
M  V30 5663 C 518.98 -3.02382 -1.69606 0
M  V30 5664 C 518.041 -4.13612 -1.14993 0
M  V30 5665 C 517.274 -4.84407 -2.24022 0
M  V30 5666 O 517.497 -4.54716 -3.44368 0
M  V30 5667 O 516.431 -5.71312 -1.89436 0
M  V30 5668 H 520.257 -3.03662 0.048066 0
M  V30 5669 H 517.842 -1.49133 0.0893289 0
M  V30 5670 H 519.724 -3.48941 -2.36259 0
M  V30 5671 H 518.399 -2.29628 -2.28151 0
M  V30 5672 H 517.306 -3.71402 -0.448484 0
M  V30 5673 H 518.639 -4.8841 -0.609608 0
M  V30 5674 N 520.291 -0.0518155 -1.57515 0
M  V30 5675 C 521.201 0.937539 -2.15052 0
M  V30 5676 C 522.217 1.34121 -1.10849 0
M  V30 5677 O 523.393 1.418 -1.4302 0
M  V30 5678 C 520.458 2.19379 -2.68466 0
M  V30 5679 C 519.519 1.84841 -3.87469 0
M  V30 5680 C 518.752 3.04477 -4.38326 0
M  V30 5681 O 518.975 4.17868 -3.88256 0
M  V30 5682 O 517.909 2.85453 -5.29906 0
M  V30 5683 H 521.735 0.478201 -2.99912 0
M  V30 5684 H 519.32 0.17012 -1.48428 0
M  V30 5685 H 521.202 2.93084 -3.02787 0
M  V30 5686 H 519.877 2.64449 -1.86677 0
M  V30 5687 H 518.784 1.08449 -3.58036 0
M  V30 5688 H 520.117 1.44569 -4.7049 0
M  V30 5689 N 521.769 1.56035 0.221574 0
M  V30 5690 C 523.185 1.49026 0.571271 0
M  V30 5691 C 523.385 0.746912 1.87146 0
M  V30 5692 O 522.441 0.286566 2.50869 0
M  V30 5693 C 523.754 2.93579 0.650522 0
M  V30 5694 C 525.302 3.04099 0.741151 0
M  V30 5695 C 525.777 4.5001 0.851747 0
M  V30 5696 N 527.268 4.54053 0.915968 0
M  V30 5697 C 528.003 5.64232 1.02125 0
M  V30 5698 N 527.499 6.84164 1.09049 0
M  V30 5699 N 529.292 5.52084 1.05639 0
M  V30 5700 H 521.443 2.02791 -0.63162 0
M  V30 5701 H 523.706 0.921736 -0.221602 0
M  V30 5702 H 523.412 3.50912 -0.235253 0
M  V30 5703 H 523.286 3.45476 1.51413 0
M  V30 5704 H 525.673 2.4683 1.61737 0
M  V30 5705 H 525.754 2.55371 -0.148128 0
M  V30 5706 H 525.398 5.07896 -0.0200117 0
M  V30 5707 H 525.328 4.96444 1.75644 0
M  V30 5708 H 527.819 3.67683 0.872782 0
M  V30 5709 H 528.132 7.63883 1.1706 0
M  V30 5710 H 526.477 6.86875 1.05962 0
M  V30 5711 H 529.668 4.57317 0.998953 0
M  V30 5712 H 529.841 6.37983 1.13498 0
M  V30 5713 N 523.247 -0.488276 1.49845 0
M  V30 5714 C 524.179 -1.60539 1.63584 0
M  V30 5715 C 525.192 -1.5434 0.517972 0
M  V30 5716 O 526.381 -1.60041 0.790516 0
M  V30 5717 C 523.481 -2.99374 1.58835 0
M  V30 5718 C 522.654 -3.30624 2.86368 0
M  V30 5719 C 521.713 -4.4893 2.74496 0
M  V30 5720 O 520.739 -4.50085 3.48443 0
M  V30 5721 N 521.941 -5.49591 1.86894 0
M  V30 5722 H 524.706 -1.49176 2.59936 0
M  V30 5723 H 522.267 -0.67639 1.47094 0
M  V30 5724 H 524.259 -3.76459 1.48529 0
M  V30 5725 H 522.829 -3.04595 0.702892 0
M  V30 5726 H 522.049 -2.42314 3.1093 0
M  V30 5727 H 523.337 -3.48305 3.70892 0
M  V30 5728 H 522.735 -5.51467 1.26097 0
M  V30 5729 H 521.292 -6.25728 1.82503 0
M  V30 5730 N 524.725 -1.39134 -0.740242 0
M  V30 5731 C 525.953 -1.39334 -1.5295 0
M  V30 5732 C 526.368 0.0135008 -1.88795 0
M  V30 5733 O 525.725 0.983524 -1.5373 0
M  V30 5734 C 525.776 -2.2614 -2.82034 0
M  V30 5735 O 525.497 -3.61345 -2.47712 0
M  V30 5736 C 526.998 -2.34666 -3.76094 0
M  V30 5737 H 524.218 -0.476103 -0.472828 0
M  V30 5738 H 526.762 -1.82883 -0.9151 0
M  V30 5739 H 524.917 -1.86018 -3.39818 0
M  V30 5740 H 525.331 -4.07194 -3.30595 0
M  V30 5741 H 526.805 -2.99663 -4.63579 0
M  V30 5742 H 527.282 -1.36426 -4.17474 0
M  V30 5743 H 527.888 -2.75236 -3.2423 0
M  V30 5744 N 526.204 0.969867 -1.24223 0
M  V30 5745 C 527.136 2.0669 -0.99055 0
M  V30 5746 C 528.149 1.62753 0.0392222 0
M  V30 5747 O 529.338 1.77403 -0.197561 0
M  V30 5748 C 526.438 3.35589 -0.472594 0
M  V30 5749 C 525.611 4.08444 -1.56499 0
M  V30 5750 C 524.67 5.15616 -1.05007 0
M  V30 5751 O 523.696 5.41911 -1.7413 0
M  V30 5752 N 524.898 5.80383 0.116641 0
M  V30 5753 H 527.663 2.28855 -1.93508 0
M  V30 5754 H 525.224 1.13733 -1.15223 0
M  V30 5755 H 527.216 4.04542 -0.112919 0
M  V30 5756 H 525.786 3.10311 0.377617 0
M  V30 5757 H 525.006 3.33798 -2.09696 0
M  V30 5758 H 526.294 4.53882 -2.29932 0
M  V30 5759 H 525.692 5.6142 0.694589 0
M  V30 5760 H 524.249 6.50462 0.417483 0
M  V30 5761 N 527.682 1.05563 1.17022 0
M  V30 5762 C 529.098 0.777684 1.39371 0
M  V30 5763 C 529.298 -0.626269 1.91521 0
M  V30 5764 O 528.354 -1.38806 2.10924 0
M  V30 5765 C 529.667 1.83642 2.3811 0
M  V30 5766 C 531.215 1.85907 2.51809 0
M  V30 5767 C 531.69 2.90813 3.53824 0
M  V30 5768 N 533.181 2.898 3.61345 0
M  V30 5769 C 533.916 3.6762 4.40049 0
M  V30 5770 N 533.412 4.55237 5.22237 0
M  V30 5771 N 535.205 3.56044 4.34959 0
M  V30 5772 H 527.356 1.9614 0.815047 0
M  V30 5773 H 529.619 0.849527 0.420722 0
M  V30 5774 H 529.325 2.84425 2.06871 0
M  V30 5775 H 529.199 1.6812 3.37662 0
M  V30 5776 H 531.586 0.857865 2.82356 0
M  V30 5777 H 531.667 2.05506 1.52318 0
M  V30 5778 H 531.311 3.91122 3.24015 0
M  V30 5779 H 531.241 2.68465 4.53028 0
M  V30 5780 H 533.732 2.26274 3.02669 0
M  V30 5781 H 534.045 5.11291 5.79484 0
M  V30 5782 H 532.39 4.59296 5.21605 0
M  V30 5783 H 535.581 2.86986 3.69806 0
M  V30 5784 H 535.754 4.16938 4.96051 0
M  V30 5785 N 529.16 -1.33526 0.837174 0
M  V30 5786 C 530.385 -2.0258 0.444545 0
M  V30 5787 C 530.81 -1.6258 -0.946006 0
M  V30 5788 O 530.168 -0.817548 -1.6182 0
M  V30 5789 C 530.216 -3.5605 0.571006 0
M  V30 5790 O 529.32 -4.10422 -0.403431 0
M  V30 5791 H 528.661 -0.638866 0.180958 0
M  V30 5792 H 531.191 -1.70462 1.13154 0
M  V30 5793 H 531.201 -4.05488 0.452024 0
M  V30 5794 H 529.876 -3.84509 1.58512 0
M  V30 5795 H 528.453 -3.72113 -0.242147 0
M  V30 5796 N 530.638 -0.59345 -1.46 0
M  V30 5797 C 531.585 0.133618 -2.30413 0
M  V30 5798 C 532.555 0.873736 -1.41262 0
M  V30 5799 O 533.74 0.862279 -1.70204 0
M  V30 5800 C 530.88 1.13434 -3.25924 0
M  V30 5801 C 529.993 0.39656 -4.30176 0
M  V30 5802 C 529.128 1.38575 -5.12806 0
M  V30 5803 C 528.167 0.634984 -6.08797 0
M  V30 5804 N 527.304 1.57276 -6.84258 0
M  V30 5805 H 532.144 -0.592252 -2.92055 0
M  V30 5806 H 529.681 -0.303874 -1.43927 0
M  V30 5807 H 531.639 1.72752 -3.79753 0
M  V30 5808 H 530.269 1.82779 -2.66067 0
M  V30 5809 H 529.321 -0.311861 -3.79119 0
M  V30 5810 H 530.633 -0.189869 -4.98438 0
M  V30 5811 H 529.787 2.05141 -5.70966 0
M  V30 5812 H 528.526 2.00611 -4.44529 0
M  V30 5813 H 527.531 -0.0443925 -5.49782 0
M  V30 5814 H 528.756 0.0198678 -6.79097 0
M  V30 5815 H 526.702 2.18103 -6.18682 0
M  V30 5816 H 526.619 1.03941 -7.48821 0
M  V30 5817 H 527.887 2.22844 -7.46968 0
M  V30 5818 N 532.116 1.54067 -0.331816 0
M  V30 5819 C 533.527 1.86059 0.15454 0
M  V30 5820 C 533.878 1.25331 1.50952 0
M  V30 5821 O 533.003 0.562441 2.08963 0
M  V30 5822 C 533.598 3.37581 0.287192 0
M  V30 5823 C 532.157 3.69493 0.717773 0
M  V30 5824 C 531.304 2.76863 -0.155569 0
M  V30 5825 H 534.255 1.48797 -0.55182 0
M  V30 5826 H 534.276 3.63744 1.11671 0
M  V30 5827 H 533.788 3.81751 -0.699131 0
M  V30 5828 H 531.889 3.3086 1.71354 0
M  V30 5829 H 532.002 4.76315 0.5158 0
M  V30 5830 H 530.366 2.51995 0.370213 0
M  V30 5831 H 531.149 3.23861 -1.13881 0
M  V30 5832 N 533.594 0.0601682 1.57485 0
M  V30 5833 C 534.526 -0.94047 2.09016 0
M  V30 5834 C 535.539 -1.26897 1.01985 0
M  V30 5835 O 536.728 -1.22819 1.29529 0
M  V30 5836 C 533.828 -2.25955 2.52582 0
M  V30 5837 C 533.001 -2.11163 3.83052 0
M  V30 5838 C 532.06 -3.26273 4.12835 0
M  V30 5839 O 531.086 -3.01779 4.82616 0
M  V30 5840 N 532.288 -4.51022 3.65458 0
M  V30 5841 H 535.053 -0.500578 2.9549 0
M  V30 5842 H 532.614 -0.125852 1.6141 0
M  V30 5843 H 534.606 -3.01846 2.69575 0
M  V30 5844 H 533.176 -2.61481 1.71308 0
M  V30 5845 H 532.396 -1.19808 3.75552 0
M  V30 5846 H 533.684 -1.98517 4.68475 0
M  V30 5847 H 533.082 -4.73811 3.09062 0
M  V30 5848 H 531.639 -5.23978 3.87673 0
M  V30 5849 N 535.072 -1.5615 -0.213296 0
M  V30 5850 C 536.483 -1.69645 -0.779582 0
M  V30 5851 C 536.834 -0.663615 -1.84636 0
M  V30 5852 O 535.959 0.183633 -2.15619 0
M  V30 5853 C 536.554 -3.07567 -1.42084 0
M  V30 5854 C 535.113 -3.22889 -1.93442 0
M  V30 5855 C 534.26 -2.65581 -0.797612 0
M  V30 5856 H 537.211 -1.58696 0.0114951 0
M  V30 5857 H 537.232 -3.03884 -2.28986 0
M  V30 5858 H 536.744 -3.82716 -0.644187 0
M  V30 5859 H 534.845 -2.52623 -2.73884 0
M  V30 5860 H 534.958 -4.30197 -2.10872 0
M  V30 5861 H 533.322 -2.24278 -1.20712 0
M  V30 5862 H 534.105 -3.43284 -0.033494 0
M  V30 5863 N 536.55 0.480323 -1.50102 0
M  V30 5864 C 537.513 1.56181 -1.6775 0
M  V30 5865 C 538.513 1.51156 -0.548503 0
M  V30 5866 O 539.703 1.5394 -0.815363 0
M  V30 5867 C 536.835 2.95823 -1.69415 0
M  V30 5868 H 538.028 1.41855 -2.6423 0
M  V30 5869 H 535.581 0.70605 -1.39444 0
M  V30 5870 H 536.316 3.15604 -0.745948 0
M  V30 5871 H 536.101 3.00878 -2.51425 0
M  V30 5872 H 537.591 3.74359 -1.85054 0
M  V30 5873 N 538.028 1.39524 0.732853 0
M  V30 5874 C 539.274 1.37068 1.49467 0
M  V30 5875 C 539.607 -0.0327166 1.94172 0
M  V30 5876 O 538.882 -0.998071 1.66939 0
M  V30 5877 C 539.165 2.34494 2.73285 0
M  V30 5878 C 539.018 3.83784 2.34585 0
M  V30 5879 C 540.337 2.29717 3.75391 0
M  V30 5880 H 537.456 0.499206 0.542183 0
M  V30 5881 H 540.098 1.70532 0.837783 0
M  V30 5882 H 538.248 2.06087 3.29333 0
M  V30 5883 H 539.92 4.22949 1.84151 0
M  V30 5884 H 538.163 4.00455 1.66787 0
M  V30 5885 H 538.834 4.47444 3.23262 0
M  V30 5886 H 541.31 2.54839 3.28932 0
M  V30 5887 H 540.186 2.99962 4.59689 0
M  V30 5888 H 540.447 1.30291 4.22465 0
M  V30 5889 N 539.506 -0.963266 1.24736 0
M  V30 5890 C 540.917 -1.52145 1.08207 0
M  V30 5891 C 541.268 -1.93142 -0.345061 0
M  V30 5892 O 540.393 -1.77769 -1.23399 0
M  V30 5893 C 540.988 -2.76486 1.95808 0
M  V30 5894 C 539.547 -3.28646 1.8349 0
M  V30 5895 C 538.694 -2.01529 1.90476 0
M  V30 5896 H 541.645 -0.781083 1.38148 0
M  V30 5897 H 541.666 -3.49986 1.49297 0
M  V30 5898 H 541.178 -2.46617 2.99669 0
M  V30 5899 H 539.279 -3.63357 0.824787 0
M  V30 5900 H 539.392 -3.97246 2.67829 0
M  V30 5901 H 537.756 -2.16442 1.34258 0
M  V30 5902 H 538.539 -1.7402 2.95926 0
M  V30 5903 N 540.985 -1.06182 -1.16461 0
M  V30 5904 C 542.396 -0.802426 -1.68576 0
M  V30 5905 C 542.747 0.67412 -1.84255 0
M  V30 5906 O 541.872 1.52303 -1.5373 0
M  V30 5907 C 542.467 -1.45002 -3.06202 0
M  V30 5908 C 541.026 -1.23843 -3.55443 0
M  V30 5909 C 540.173 -1.52724 -2.31454 0
M  V30 5910 H 543.124 -1.22545 -1.00839 0
M  V30 5911 H 543.145 -0.864731 -3.70544 0
M  V30 5912 H 542.657 -2.52466 -2.94759 0
M  V30 5913 H 540.758 -0.183487 -3.72148 0
M  V30 5914 H 540.871 -1.95036 -4.37604 0
M  V30 5915 H 539.235 -0.947726 -2.36411 0
M  V30 5916 H 540.018 -2.61343 -2.22609 0
M  V30 5917 N 542.463 1.3308 -0.844243 0
M  V30 5918 C 543.879 1.50447 -0.532729 0
M  V30 5919 C 544.079 1.78292 0.938837 0
M  V30 5920 O 543.135 1.84635 1.72239 0
M  V30 5921 C 544.448 2.65555 -1.41072 0
M  V30 5922 C 545.996 2.7944 -1.41005 0
M  V30 5923 C 546.471 3.97616 -2.27301 0
M  V30 5924 N 547.962 4.0486 -2.2504 0
M  V30 5925 C 548.697 4.95508 -2.88547 0
M  V30 5926 N 548.193 5.91236 -3.61126 0
M  V30 5927 N 549.986 4.88548 -2.77989 0
M  V30 5928 H 542.137 1.13269 -1.79677 0
M  V30 5929 H 544.4 0.55734 -0.766861 0
M  V30 5930 H 544.106 2.51675 -2.45668 0
M  V30 5931 H 543.98 3.61089 -1.09061 0
M  V30 5932 H 546.367 2.92749 -0.371784 0
M  V30 5933 H 546.448 1.8465 -1.77026 0
M  V30 5934 H 546.092 3.85066 -3.3119 0
M  V30 5935 H 546.022 4.91661 -1.88619 0
M  V30 5936 H 548.513 3.36353 -1.72264 0
M  V30 5937 H 548.826 6.57079 -4.06776 0
M  V30 5938 H 547.171 5.91295 -3.65234 0
M  V30 5939 H 550.362 4.12729 -2.20846 0
M  V30 5940 H 550.535 5.58994 -3.27765 0
M  V30 5941 N 543.941 0.601185 1.45683 0
M  V30 5942 C 545.352 0.179659 1.85834 0
M  V30 5943 C 545.703 -1.26189 1.50236 0
M  V30 5944 O 544.828 -1.95587 0.925987 0
M  V30 5945 C 545.423 0.319277 3.37292 0
M  V30 5946 C 543.982 -0.0475092 3.7637 0
M  V30 5947 C 543.129 0.646692 2.69654 0
M  V30 5948 H 546.08 0.808268 1.36575 0
M  V30 5949 H 546.101 -0.4503 3.77826 0
M  V30 5950 H 545.613 1.36855 3.6317 0
M  V30 5951 H 543.714 -1.0962 3.5611 0
M  V30 5952 H 543.827 0.34168 4.7788 0
M  V30 5953 H 542.191 0.0849971 2.54558 0
M  V30 5954 H 542.974 1.69797 2.98369 0
M  V30 5955 N 545.419 -1.53889 0.339982 0
M  V30 5956 C 546.644 -2.05741 -0.261798 0
M  V30 5957 C 547.069 -1.21354 -1.43718 0
M  V30 5958 O 546.427 -0.22645 -1.7988 0
M  V30 5959 C 546.475 -3.54542 -0.658228 0
M  V30 5960 O 545.579 -3.7302 -1.75869 0
M  V30 5961 H 544.92 -0.662529 -0.0441672 0
M  V30 5962 H 547.45 -1.98568 0.493161 0
M  V30 5963 H 547.46 -3.9711 -0.936368 0
M  V30 5964 H 546.135 -4.15412 0.201358 0
M  V30 5965 H 544.712 -3.42355 -1.47809 0
M  V30 5966 N 546.897 -0.0685191 -1.57451 0
M  V30 5967 C 547.86 0.885173 -2.11417 0
M  V30 5968 C 548.86 1.22853 -1.03748 0
M  V30 5969 O 550.05 1.16235 -1.2975 0
M  V30 5970 C 547.182 2.18964 -2.61281 0
M  V30 5971 H 548.375 0.417034 -2.96986 0
M  V30 5972 H 545.928 0.18014 -1.55258 0
M  V30 5973 H 546.663 2.70321 -1.79156 0
M  V30 5974 H 546.448 1.9534 -3.39977 0
M  V30 5975 H 547.938 2.87242 -3.0312 0
M  V30 5976 N 548.375 1.56261 0.205012 0
M  V30 5977 C 549.652 1.70856 0.952233 0
M  V30 5978 C 550.032 0.620501 2.01775 0
M  V30 5979 O 549.38 -0.370035 2.25484 0
M  V30 5980 C 549.59 3.12807 1.54767 0
M  V30 5981 C 550.938 3.72733 2.0336 0
M  V30 5982 O 551.962 3.15873 1.64629 0
M  V30 5983 O 550.821 4.72501 2.746 0
M  V30 5984 H 547.915 0.696496 0.445895 0
M  V30 5985 H 550.461 1.6857 0.195489 0
M  V30 5986 H 549.233 3.83465 0.779132 0
M  V30 5987 H 548.856 3.1928 2.36951 0
M  V30 5988 N 549.853 -0.472356 1.50355 0
M  V30 5989 C 550.783 -1.57859 1.72055 0
M  V30 5990 C 551.764 -1.60283 0.569505 0
M  V30 5991 O 552.949 -1.7657 0.808503 0
M  V30 5992 C 550.079 -2.96191 1.81351 0
M  V30 5993 C 549.033 -3.08633 2.96529 0
M  V30 5994 C 548.359 -4.486 2.90968 0
M  V30 5995 C 549.659 -2.85969 4.37057 0
M  V30 5996 H 551.353 -1.39953 2.64676 0
M  V30 5997 H 548.899 -0.671846 1.27367 0
M  V30 5998 H 550.852 -3.73507 1.95117 0
M  V30 5999 H 549.576 -3.15251 0.853502 0
M  V30 6000 H 548.235 -2.33749 2.82413 0
M  V30 6001 H 547.883 -4.64577 1.92815 0
M  V30 6002 H 547.583 -4.57861 3.68289 0
M  V30 6003 H 549.107 -5.27938 3.0678 0
M  V30 6004 H 550.521 -3.53036 4.51706 0
M  V30 6005 H 548.918 -3.06677 5.15819 0
M  V30 6006 H 549.988 -1.81838 4.49514 0
M  V30 6007 N 551.331 -1.39911 -0.725443 0
M  V30 6008 C 552.58 -1.36963 -1.48068 0
M  V30 6009 C 552.893 0.0284478 -1.95579 0
M  V30 6010 O 554.099 0.180535 -2.70899 0
M  V30 6011 C 552.555 -2.40664 -2.67598 0
M  V30 6012 C 552.163 -3.86234 -2.26997 0
M  V30 6013 C 553.907 -2.46807 -3.45379 0
M  V30 6014 C 551.814 -4.81554 -3.43307 0
M  V30 6015 H 550.744 -0.509223 -0.556065 0
M  V30 6016 H 553.395 -1.65602 -0.790454 0
M  V30 6017 H 551.777 -2.05109 -3.38742 0
M  V30 6018 H 552.951 -4.3088 -1.63337 0
M  V30 6019 H 551.266 -3.83475 -1.62284 0
M  V30 6020 H 553.863 -3.15213 -4.31909 0
M  V30 6021 H 554.206 -1.49552 -3.8851 0
M  V30 6022 H 554.739 -2.81303 -2.81271 0
M  V30 6023 H 551.478 -5.80106 -3.05217 0
M  V30 6024 H 550.998 -4.4158 -4.05915 0
M  V30 6025 H 552.677 -5.0091 -4.0951 0
M  V30 6026 N 552.809 0.956637 -1.25245 0
M  V30 6027 C 553.739 2.07058 -1.07931 0
M  V30 6028 C 554.72 1.70096 0.0110361 0
M  V30 6029 O 555.905 1.93555 -0.158121 0
M  V30 6030 C 553.035 3.40272 -0.695124 0
M  V30 6031 C 551.989 3.91235 -1.73549 0
M  V30 6032 C 551.315 5.20921 -1.20604 0
M  V30 6033 C 552.615 4.17837 -3.13385 0
M  V30 6034 H 554.309 2.218 -2.01109 0
M  V30 6035 H 551.855 1.06581 -0.968326 0
M  V30 6036 H 553.808 4.1765 -0.560949 0
M  V30 6037 H 552.532 3.25462 0.272355 0
M  V30 6038 H 551.191 3.16025 -1.85807 0
M  V30 6039 H 550.839 5.02479 -0.228846 0
M  V30 6040 H 550.539 5.55987 -1.90136 0
M  V30 6041 H 552.063 6.00897 -1.08421 0
M  V30 6042 H 553.477 4.8588 -3.04292 0
M  V30 6043 H 551.874 4.64154 -3.80369 0
M  V30 6044 H 552.944 3.2419 -3.60595 0
M  V30 6045 N 554.287 1.06798 1.15896 0
M  V30 6046 C 555.235 0.677525 2.22514 0
M  V30 6047 C 556.229 -0.308994 1.66558 0
M  V30 6048 O 557.435 -0.173308 1.79164 0
M  V30 6049 H 553.81 0.200994 0.724642 0
M  V30 6050 H 555.781 1.5865 2.52731 0
M  V30 6051 C 554.53 0.0854153 3.47595 0
M  V30 6052 H 553.853 0.835645 3.90969 0
M  V30 6053 H 555.293 -0.150199 4.23734 0
M  V30 6054 C 553.752 -1.1724 3.15843 0
M  V30 6055 O 554.282 -2.25965 3.32119 0
M  V30 6056 N 552.488 -1.07636 2.69931 0
M  V30 6057 H 552.035 -0.191559 2.56887 0
M  V30 6058 H 551.993 -1.91876 2.4906 0
M  V30 6059 N 555.766 -1.3263 0.851289 0
M  V30 6060 C 557.182 -1.50162 0.5407 0
M  V30 6061 C 557.382 -1.78788 -0.929369 0
M  V30 6062 O 556.438 -1.85545 -1.71258 0
M  V30 6063 C 557.751 -2.64803 1.42478 0
M  V30 6064 C 559.299 -2.78688 1.42485 0
M  V30 6065 C 559.774 -3.96405 2.29407 0
M  V30 6066 N 561.265 -4.0366 2.27184 0
M  V30 6067 C 562 -4.93971 2.9117 0
M  V30 6068 N 561.496 -5.89313 3.64256 0
M  V30 6069 N 563.289 -4.87066 2.80576 0
M  V30 6070 H 555.44 -1.12315 1.80275 0
M  V30 6071 H 557.703 -0.553266 0.769806 0
M  V30 6072 H 557.409 -2.50368 2.46999 0
M  V30 6073 H 557.283 -3.60506 1.10974 0
M  V30 6074 H 559.67 -2.92547 0.387304 0
M  V30 6075 H 559.751 -1.83708 1.78002 0
M  V30 6076 H 559.395 -3.83304 3.33228 0
M  V30 6077 H 559.325 -4.90654 1.91224 0
M  V30 6078 H 561.816 -3.35435 1.74045 0
M  V30 6079 H 562.129 -6.54913 4.10255 0
M  V30 6080 H 560.474 -5.8935 3.68364 0
M  V30 6081 H 563.665 -4.11552 2.23031 0
M  V30 6082 H 563.838 -5.57248 3.30725 0
M  V30 6083 N 557.244 -0.608902 -1.45362 0
M  V30 6084 C 558.484 -0.10763 -2.04116 0
M  V30 6085 C 558.848 1.23883 -1.46686 0
M  V30 6086 O 560.049 1.83091 -1.96803 0
M  V30 6087 C 558.32 -0.0703351 -3.57331 0
M  V30 6088 S 559.879 0.369554 -4.37241 0
M  V30 6089 H 556.697 -0.0502123 -0.709225 0
M  V30 6090 H 559.299 -0.8073 -1.78053 0
M  V30 6091 H 558.003 -1.05379 -3.9664 0
M  V30 6092 H 557.534 0.651287 -3.87971 0
M  V30 6093 H 559.549 1.61878 -4.69052 0
M  V30 6094 N 558.722 1.53707 -0.348139 0
M  V30 6095 C 559.947 2.05877 0.250883 0
M  V30 6096 C 560.372 1.22115 1.43072 0
M  V30 6097 O 559.73 0.235986 1.79758 0
M  V30 6098 C 559.778 3.54886 0.639416 0
M  V30 6099 O 558.882 3.73948 1.73888 0
M  V30 6100 H 558.223 0.662754 0.040653 0
M  V30 6101 H 560.753 1.98303 -0.503685 0
M  V30 6102 H 560.763 3.97601 0.915295 0
M  V30 6103 H 559.438 4.153 -0.223386 0
M  V30 6104 H 558.015 3.43134 1.45991 0
M  V30 6105 N 560.2 0.0768682 1.57412 0
M  V30 6106 C 561.11 -0.903207 2.16516 0
M  V30 6107 C 562.126 -1.32341 1.12968 0
M  V30 6108 O 563.302 -1.39507 1.45258 0
M  V30 6109 C 560.367 -2.1508 2.71922 0
M  V30 6110 C 559.428 -1.78653 3.90361 0
M  V30 6111 C 558.661 -2.97465 4.43114 0
M  V30 6112 O 558.884 -4.11638 3.94854 0
M  V30 6113 O 557.818 -2.76987 5.3438 0
M  V30 6114 H 561.644 -0.430427 3.00634 0
M  V30 6115 H 559.229 -0.146485 1.4868 0
M  V30 6116 H 561.111 -2.8823 3.07411 0
M  V30 6117 H 559.786 -2.61446 1.9086 0
M  V30 6118 H 558.693 -1.0274 3.59716 0
M  V30 6119 H 560.026 -1.37066 4.7273 0
M  V30 6120 N 561.678 -1.56367 -0.196722 0
M  V30 6121 C 562.903 -1.84991 -0.937714 0
M  V30 6122 C 563.328 -0.660244 -1.76132 0
M  V30 6123 O 562.686 0.390967 -1.77034 0
M  V30 6124 C 562.734 -3.11828 -1.81096 0
M  V30 6125 O 561.838 -2.92266 -2.90955 0
M  V30 6126 H 561.179 -0.609193 -0.264159 0
M  V30 6127 H 563.709 -2.03595 -0.202529 0
M  V30 6128 H 563.719 -3.42579 -2.21594 0
M  V30 6129 H 562.394 -3.98037 -1.2058 0
M  V30 6130 H 560.971 -2.72809 -2.54224 0
M  V30 6131 N 563.156 0.464375 -1.50603 0
M  V30 6132 C 564.384 1.23907 -1.65695 0
M  V30 6133 C 564.799 1.85658 -0.343027 0
M  V30 6134 O 564.156 1.69529 0.675739 0
M  V30 6135 C 564.207 2.3429 -2.75301 0
M  V30 6136 O 563.928 1.7507 -4.01599 0
M  V30 6137 C 565.429 3.25051 -3.01424 0
M  V30 6138 H 562.649 0.374485 -0.556778 0
M  V30 6139 H 565.193 0.55353 -1.96866 0
M  V30 6140 H 563.348 2.98607 -2.46804 0
M  V30 6141 H 563.762 2.47812 -4.62266 0
M  V30 6142 H 565.236 3.98699 -3.81763 0
M  V30 6143 H 565.713 3.84227 -2.12758 0
M  V30 6144 H 566.319 2.66463 -3.31477 0
M  V30 6145 N 564.634 1.40294 0.718013 0
M  V30 6146 C 565.581 1.40367 1.8321 0
M  V30 6147 C 566.551 0.260952 1.64037 0
M  V30 6148 O 567.736 0.458648 1.85205 0
M  V30 6149 C 564.876 1.26965 3.20895 0
M  V30 6150 C 563.989 2.50922 3.51656 0
M  V30 6151 C 563.124 2.29981 4.78834 0
M  V30 6152 C 562.163 3.49527 5.02491 0
M  V30 6153 N 561.3 3.27796 6.20882 0
M  V30 6154 H 566.14 2.35593 1.82482 0
M  V30 6155 H 563.677 1.17012 0.891444 0
M  V30 6156 H 565.635 1.17202 4.00399 0
M  V30 6157 H 564.265 0.353591 3.20858 0
M  V30 6158 H 563.317 2.71223 2.66725 0
M  V30 6159 H 564.629 3.39913 3.65048 0
M  V30 6160 H 563.783 2.17558 5.66351 0
M  V30 6161 H 562.522 1.38411 4.67647 0
M  V30 6162 H 561.527 3.6243 4.1343 0
M  V30 6163 H 562.752 4.42021 5.15553 0
M  V30 6164 H 560.698 2.38906 6.1095 0
M  V30 6165 H 560.615 4.10351 6.34939 0
M  V30 6166 H 561.883 3.19101 7.11193 0
M  V30 6167 N 566.112 -0.949982 1.2575 0
M  V30 6168 C 567.528 -1.22191 1.02672 0
M  V30 6169 C 567.728 -1.99898 -0.253588 0
M  V30 6170 O 566.784 -2.33329 -0.965076 0
M  V30 6171 C 568.097 -1.99175 2.25277 0
M  V30 6172 C 569.645 -2.12201 2.30087 0
M  V30 6173 C 570.12 -2.92586 3.5236 0
M  V30 6174 N 571.611 -3.00163 3.52784 0
M  V30 6175 C 572.346 -3.62766 4.44059 0
M  V30 6176 N 571.842 -4.26943 5.45611 0
M  V30 6177 N 573.635 -3.59953 4.3173 0
M  V30 6178 H 565.786 -0.430258 2.07996 0
M  V30 6179 H 568.049 -0.252844 0.91366 0
M  V30 6180 H 567.755 -1.49479 3.18354 0
M  V30 6181 H 567.629 -2.99868 2.28821 0
M  V30 6182 H 570.016 -2.61093 1.3753 0
M  V30 6183 H 570.097 -1.10799 2.30559 0
M  V30 6184 H 569.741 -2.44383 4.45241 0
M  V30 6185 H 569.671 -3.94224 3.49134 0
M  V30 6186 H 572.162 -2.54529 2.79327 0
M  V30 6187 H 572.475 -4.72583 6.11461 0
M  V30 6188 H 570.82 -4.25557 5.49478 0
M  V30 6189 H 574.011 -3.09003 3.51617 0
M  V30 6190 H 574.184 -4.08455 5.03059 0
M  V30 6191 N 567.59 -1.07411 -1.15328 0
M  V30 6192 C 568.537 -0.694995 -2.20087 0
M  V30 6193 C 569.507 0.313904 -1.63107 0
M  V30 6194 O 570.692 0.200216 -1.89747 0
M  V30 6195 C 567.832 -0.0996218 -3.44956 0
M  V30 6196 C 566.945 -1.16007 -4.16133 0
M  V30 6197 C 566.08 -0.529636 -5.28553 0
M  V30 6198 C 565.119 -1.57283 -5.91548 0
M  V30 6199 N 564.256 -0.964932 -6.95438 0
M  V30 6200 H 569.096 -1.5927 -2.51867 0
M  V30 6201 H 566.633 -0.796115 -1.23695 0
M  V30 6202 H 568.591 0.263197 -4.16369 0
M  V30 6203 H 567.221 0.761435 -3.13691 0
M  V30 6204 H 566.273 -1.64045 -3.4321 0
M  V30 6205 H 567.585 -1.95101 -4.59061 0
M  V30 6206 H 566.739 -0.114487 -6.06592 0
M  V30 6207 H 565.478 0.29307 -4.86819 0
M  V30 6208 H 564.483 -1.99775 -5.12221 0
M  V30 6209 H 565.708 -2.39783 -6.35359 0
M  V30 6210 H 563.654 -0.16314 -6.55797 0
M  V30 6211 H 563.571 -1.69311 -7.36797 0
M  V30 6212 H 564.839 -0.575305 -7.77374 0
M  V30 6213 N 569.068 1.32177 -0.85831 0
M  V30 6214 C 569.998 2.31282 -0.321041 0
M  V30 6215 C 570.979 1.59841 0.581786 0
M  V30 6216 O 572.164 1.87619 0.501262 0
M  V30 6217 C 569.294 3.4385 0.48832 0
M  V30 6218 C 568.248 4.26799 -0.320391 0
M  V30 6219 C 567.574 5.31164 0.613934 0
M  V30 6220 C 568.874 4.98829 -1.54813 0
M  V30 6221 H 570.568 2.76469 -1.14915 0
M  V30 6222 H 568.114 1.32916 -0.554028 0
M  V30 6223 H 570.067 4.12224 0.874626 0
M  V30 6224 H 568.791 2.97401 1.34983 0
M  V30 6225 H 567.45 3.60077 -0.688497 0
M  V30 6226 H 567.098 4.80967 1.47239 0
M  V30 6227 H 566.798 5.8755 0.0768097 0
M  V30 6228 H 568.322 6.024 0.997336 0
M  V30 6229 H 569.736 5.59864 -1.23392 0
M  V30 6230 H 568.133 5.64957 -2.02346 0
M  V30 6231 H 569.203 4.26483 -2.30739 0
M  V30 6232 N 570.547 0.616602 1.45037 0
M  V30 6233 C 571.51 -0.0871112 2.29034 0
M  V30 6234 C 572.51 -0.786414 1.40258 0
M  V30 6235 O 573.7 -0.633207 1.62284 0
M  V30 6236 C 570.832 -1.13369 3.21497 0
M  V30 6237 H 572.025 0.651497 2.92738 0
M  V30 6238 H 569.578 0.376058 1.51709 0
M  V30 6239 H 570.313 -1.90277 2.62612 0
M  V30 6240 H 570.098 -0.636358 3.86902 0
M  V30 6241 H 571.588 -1.62627 3.84633 0
M  V30 6242 N 572.025 -1.5352 0.356285 0
M  V30 6243 C 573.25 -2.06007 -0.239961 0
M  V30 6244 C 573.675 -1.22872 -1.42422 0
M  V30 6245 O 573.033 -0.245516 -1.7963 0
M  V30 6246 C 573.081 -3.5522 -0.620587 0
M  V30 6247 O 572.185 -3.74864 -1.71902 0
M  V30 6248 H 571.526 -0.662961 -0.0371377 0
M  V30 6249 H 574.056 -1.98033 0.514194 0
M  V30 6250 H 574.066 -3.98081 -0.894197 0
M  V30 6251 H 572.741 -4.15175 0.245407 0
M  V30 6252 H 571.318 -3.43904 -1.44169 0
M  V30 6253 N 573.503 -0.0852151 -1.57369 0
M  V30 6254 C 574.466 0.8627 -2.12344 0
M  V30 6255 C 575.466 1.21746 -1.05046 0
M  V30 6256 O 576.656 1.14852 -1.30976 0
M  V30 6257 C 573.788 2.1618 -2.63589 0
M  V30 6258 H 574.981 0.385511 -2.97412 0
M  V30 6259 H 572.534 0.163663 -1.55441 0
M  V30 6260 H 573.269 2.68406 -1.82013 0
M  V30 6261 H 573.054 1.91723 -3.4203 0
M  V30 6262 H 574.544 2.84011 -3.06149 0
M  V30 6263 N 574.981 1.5647 0.188427 0
M  V30 6264 C 576.227 1.81281 0.909124 0
M  V30 6265 C 576.56 0.66034 1.82628 0
M  V30 6266 O 575.835 -0.338737 1.91528 0
M  V30 6267 C 576.118 3.16388 1.7196 0
M  V30 6268 C 575.971 4.42137 0.826714 0
M  V30 6269 C 577.29 3.48256 2.69083 0
M  V30 6270 H 574.409 0.659457 0.329068 0
M  V30 6271 H 577.051 1.89182 0.176156 0
M  V30 6272 H 575.201 3.09784 2.34448 0
M  V30 6273 H 576.873 4.60794 0.216025 0
M  V30 6274 H 575.116 4.33594 0.133792 0
M  V30 6275 H 575.787 5.33184 1.42893 0
M  V30 6276 H 578.263 3.55203 2.16726 0
M  V30 6277 H 577.139 4.43899 3.2287 0
M  V30 6278 H 577.4 2.72088 3.48455 0
M  V30 6279 O 576.498 -0.333583 1.58017 0
M  V30 6280 H 577.189 -0.982643 1.66925 0
M  V30 END ATOM
M  V30 BEGIN BOND
M  V30 END BOND
M  V30 END CTAB
M  END
$$$$
