drugbank_target|P14532 Cytochrome c551 peroxidase (DB03317)
 OpenBabel12092120273D

  0  0  0     0  0            999 V3000
M  V30 BEGIN CTAB
M  V30 COUNTS 5238 5303 0 0 0
M  V30 BEGIN ATOM
M  V30 1 H -0.908 1.98254 -0.117106 0
M  V30 2 N 0 1.576 0 0
M  V30 3 C 0.933 2.03868 1.02534 0
M  V30 4 C 1.911 0.928543 1.3348 0
M  V30 5 O 3.095 1.19667 1.45644 0
M  V30 6 C 0.222 2.43627 2.35294 0
M  V30 7 C -0.732 3.65373 2.2001 0
M  V30 8 S 0.101 5.13292 1.52614 0
M  V30 9 C 1.257 5.56322 2.86805 0
M  V30 10 H 1.49 2.90518 0.631377 0
M  V30 11 H -0.977 1.52953 0.210867 0
M  V30 12 H 0.981 2.67203 3.11629 0
M  V30 13 H -0.358 1.57376 2.7183 0
M  V30 14 H -1.165 3.90944 3.18086 0
M  V30 15 H -1.563 3.418 1.51819 0
M  V30 16 H 0.729 5.58782 3.83104 0
M  V30 17 H 1.672 6.56266 2.65933 0
M  V30 18 H 2.08 4.83886 2.90714 0
M  V30 19 N 1.4781 -0.272755 1.55222 0
M  V30 20 C 2.4101 -1.35946 1.8453 0
M  V30 21 C 3.4231 -1.45525 0.729818 0
M  V30 22 O 4.6121 -1.47337 1.00767 0
M  V30 23 C 1.7121 -2.74069 1.99347 0
M  V30 24 C 0.8851 -2.87079 3.30007 0
M  V30 25 C -0.0559 -4.05879 3.34886 0
M  V30 26 O -1.0299 -3.96626 4.08261 0
M  V30 27 N 0.1721 -5.17857 2.62307 0
M  V30 28 H 2.9371 -1.11149 2.78327 0
M  V30 29 H 0.4981 -0.462869 1.55142 0
M  V30 30 H 2.4901 -3.51838 1.99981 0
M  V30 31 H 1.0601 -2.91688 1.12415 0
M  V30 32 H 0.2801 -1.96193 3.41909 0
M  V30 33 H 1.5681 -2.92701 4.16177 0
M  V30 34 H 0.9661 -5.28261 2.02377 0
M  V30 35 H -0.4769 -5.93855 2.68663 0
M  V30 36 N 2.9562 -1.48159 -0.537278 0
M  V30 37 C 4.1812 -1.59707 -1.32319 0
M  V30 38 C 4.6062 -0.254859 -1.86365 0
M  V30 39 O 3.9642 0.772378 -1.64024 0
M  V30 40 C 4.0122 -2.6412 -2.45505 0
M  V30 41 O 3.1162 -2.20774 -3.48328 0
M  V30 42 H 2.4572 -0.535791 -0.392204 0
M  V30 43 H 4.9872 -1.94092 -0.647268 0
M  V30 44 H 4.9972 -2.85166 -2.91795 0
M  V30 45 H 3.6722 -3.61567 -2.05528 0
M  V30 46 H 2.2492 -2.09911 -3.08207 0
M  V30 47 N 4.4343 0.785586 -1.36625 0
M  V30 48 C 5.6593 1.57963 -1.34397 0
M  V30 49 C 6.0843 1.87964 0.071526 0
M  V30 50 O 5.4423 1.48182 1.0446 0
M  V30 51 C 5.4903 2.87511 -2.17646 0
M  V30 52 O 4.5943 3.81281 -1.57158 0
M  V30 53 H 3.9353 0.479014 -0.459828 0
M  V30 54 H 6.4653 0.973411 -1.79961 0
M  V30 55 H 6.4753 3.36745 -2.30362 0
M  V30 56 H 5.1503 2.65002 -3.20541 0
M  V30 57 H 3.7273 3.39885 -1.53403 0
M  V30 58 N 5.9124 1.20967 1.01018 0
M  V30 59 C 6.8444 0.922059 2.09835 0
M  V30 60 C 7.8574 -0.0927106 1.62536 0
M  V30 61 O 9.0464 0.139127 1.77957 0
M  V30 62 C 6.1464 0.362004 3.36961 0
M  V30 63 C 5.3194 1.42986 4.13369 0
M  V30 64 C 4.3784 0.879976 5.1879 0
M  V30 65 O 3.4044 1.56219 5.47343 0
M  V30 66 N 4.6064 -0.307396 5.79686 0
M  V30 67 H 7.3714 1.8588 2.35093 0
M  V30 68 H 4.9324 1.11422 1.1746 0
M  V30 69 H 6.9244 -0.0201474 4.04695 0
M  V30 70 H 5.4944 -0.479437 3.08902 0
M  V30 71 H 4.7144 1.98608 3.40512 0
M  V30 72 H 6.0024 2.14885 4.61196 0
M  V30 73 H 5.4004 -0.878796 5.58832 0
M  V30 74 H 3.9574 -0.631115 6.48737 0
M  V30 75 N 7.3905 -1.2043 1.01659 0
M  V30 76 C 8.3205 -2.25466 0.607226 0
M  V30 77 C 9.3015 -1.65853 -0.377716 0
M  V30 78 O 10.4865 -1.92409 -0.263149 0
M  V30 79 C 7.6165 -3.47256 -0.0552949 0
M  V30 80 C 6.5705 -4.19462 0.850632 0
M  V30 81 C 5.8965 -5.34673 0.0538859 0
M  V30 82 C 7.1965 -4.75603 2.15868 0
M  V30 83 H 8.8905 -2.59962 1.48526 0
M  V30 84 H 6.4365 -1.2496 0.715605 0
M  V30 85 H 8.3895 -4.19917 -0.353233 0
M  V30 86 H 7.1135 -3.11924 -0.968045 0
M  V30 87 H 5.7725 -3.48667 1.13257 0
M  V30 88 H 5.4205 -4.95585 -0.860514 0
M  V30 89 H 5.1205 -5.83913 0.657192 0
M  V30 90 H 6.6445 -6.10138 -0.237598 0
M  V30 91 H 8.0585 -5.40083 1.92311 0
M  V30 92 H 6.4555 -5.3528 2.71284 0
M  V30 93 H 7.5255 -3.94346 2.82169 0
M  V30 94 N 8.8686 -0.792821 -1.36206 0
M  V30 95 C 9.7986 -0.207853 -2.32573 0
M  V30 96 C 10.7796 0.659055 -1.56813 0
M  V30 97 O 11.9646 0.592176 -1.84951 0
M  V30 98 C 9.0946 0.655449 -3.41059 0
M  V30 99 C 8.0486 -0.111842 -4.27854 0
M  V30 100 C 7.3746 0.872274 -5.27537 0
M  V30 101 C 8.6746 -1.30299 -5.05786 0
M  V30 102 H 10.3686 -1.01294 -2.81744 0
M  V30 103 H 7.9146 -0.48854 -1.3546 0
M  V30 104 H 9.8676 1.07464 -4.07467 0
M  V30 105 H 8.5916 1.49328 -2.90463 0
M  V30 106 H 7.2506 -0.512053 -3.63006 0
M  V30 107 H 6.8986 1.70523 -4.73214 0
M  V30 108 H 6.5986 0.363291 -5.86476 0
M  V30 109 H 8.1226 1.28996 -5.96818 0
M  V30 110 H 9.5366 -0.959379 -5.65216 0
M  V30 111 H 7.9336 -1.7455 -5.74154 0
M  V30 112 H 9.0036 -2.09663 -4.37229 0
M  V30 113 N 10.3467 1.47872 -0.545128 0
M  V30 114 C 11.7577 1.86384 -0.108581 0
M  V30 115 C 12.1087 1.45309 1.31832 0
M  V30 116 O 11.2337 0.850641 1.9898 0
M  V30 117 C 11.8287 3.38265 -0.190274 0
M  V30 118 C 10.3877 3.75914 0.191164 0
M  V30 119 C 9.5347 2.71926 -0.543273 0
M  V30 120 H 12.4857 1.39561 -0.755537 0
M  V30 121 H 12.5067 3.75831 0.594217 0
M  V30 122 H 12.0187 3.6813 -1.2289 0
M  V30 123 H 10.1197 3.51665 1.23136 0
M  V30 124 H 10.2327 4.78836 -0.158987 0
M  V30 125 H 8.5967 2.54697 0.0122495 0
M  V30 126 H 9.3797 3.04634 -1.58282 0
M  V30 127 N 11.8248 0.280983 1.55075 0
M  V30 128 C 12.7548 -0.597469 2.25727 0
M  V30 129 C 13.7358 -1.15417 1.24952 0
M  V30 130 O 14.9208 -1.18722 1.53684 0
M  V30 131 C 12.0508 -1.7789 2.98283 0
M  V30 132 C 11.0048 -1.35347 4.06036 0
M  V30 133 C 10.3308 -2.61846 4.66198 0
M  V30 134 C 11.6308 -0.499354 5.19907 0
M  V30 135 H 13.3248 -0.00824265 2.99399 0
M  V30 136 H 10.8708 -0.0025244 1.44 0
M  V30 137 H 12.8238 -2.39937 3.46422 0
M  V30 138 H 11.5478 -2.39405 2.22155 0
M  V30 139 H 10.2068 -0.756156 3.58717 0
M  V30 140 H 9.8548 -3.21632 3.86732 0
M  V30 141 H 9.5548 -2.3409 5.38958 0
M  V30 142 H 11.0788 -3.24732 5.1709 0
M  V30 143 H 12.4928 -1.02498 5.64063 0
M  V30 144 H 10.8898 -0.316424 5.99265 0
M  V30 145 H 11.9598 0.480459 4.82514 0
M  V30 146 N 13.3029 -1.57598 0.00835791 0
M  V30 147 C 14.5509 -1.90551 -0.6734 0
M  V30 148 C 14.8719 -0.883301 -1.73847 0
M  V30 149 O 14.1419 0.0781442 -1.95744 0
M  V30 150 H 12.7219 -0.703312 -0.251717 0
M  V30 151 H 15.3839 -1.94833 0.0512592 0
M  V30 152 H 14.4799 -2.9056 -1.13935 0
M  V30 153 N 14.781 0.264519 -1.55364 0
M  V30 154 C 16.006 1.01726 -1.80739 0
M  V30 155 C 16.431 1.78836 -0.583044 0
M  V30 156 O 15.789 1.75167 0.467566 0
M  V30 157 C 15.837 1.94482 -3.03659 0
M  V30 158 O 14.941 3.03386 -2.7934 0
M  V30 159 H 14.282 0.290395 -0.597132 0
M  V30 160 H 16.812 0.290854 -2.02522 0
M  V30 161 H 16.822 2.36278 -3.32621 0
M  V30 162 H 15.497 1.37772 -3.92418 0
M  V30 163 H 14.074 2.65844 -2.61498 0
M  V30 164 N 16.2591 1.48442 0.529413 0
M  V30 165 C 17.1891 1.65902 1.64313 0
M  V30 166 C 18.1701 0.507897 1.6234 0
M  V30 167 O 19.3551 0.740503 1.79528 0
M  V30 168 C 16.4851 1.69911 3.02898 0
M  V30 169 C 15.4391 2.8453 3.19729 0
M  V30 170 C 14.7651 2.73629 4.59381 0
M  V30 171 C 16.0651 4.25821 3.02447 0
M  V30 172 H 17.7591 2.5914 1.49955 0
M  V30 173 H 15.3051 1.24709 0.719982 0
M  V30 174 H 17.2581 1.80715 3.80684 0
M  V30 175 H 15.9821 0.732524 3.18279 0
M  V30 176 H 14.6411 2.73283 2.44361 0
M  V30 177 H 14.2891 1.74938 4.71599 0
M  V30 178 H 13.9891 3.50541 4.71588 0
M  V30 179 H 15.5131 2.86401 5.39265 0
M  V30 180 H 16.9271 4.37898 3.70024 0
M  V30 181 H 15.3241 5.03735 3.26146 0
M  V30 182 H 16.3941 4.42244 1.98867 0
M  V30 183 N 17.7372 -0.778329 1.37039 0
M  V30 184 C 18.6672 -1.90546 1.34962 0
M  V30 185 C 19.6482 -1.68681 0.219274 0
M  V30 186 O 20.8332 -1.89634 0.418624 0
M  V30 187 C 17.9632 -3.27734 1.14925 0
M  V30 188 C 16.9172 -3.64147 2.24902 0
M  V30 189 C 16.2432 -4.99806 1.89996 0
M  V30 190 C 17.5432 -3.71579 3.67051 0
M  V30 191 H 19.2372 -1.92541 2.29277 0
M  V30 192 H 16.7832 -0.924948 1.10366 0
M  V30 193 H 18.7362 -4.06215 1.12104 0
M  V30 194 H 17.4602 -3.26154 0.170631 0
M  V30 195 H 16.1192 -2.8797 2.26868 0
M  V30 196 H 15.7672 -4.94759 0.906796 0
M  V30 197 H 15.4672 -5.25139 2.63634 0
M  V30 198 H 16.9912 -5.80694 1.88749 0
M  V30 199 H 18.4052 -4.40227 3.67251 0
M  V30 200 H 16.8022 -4.08405 4.39688 0
M  V30 201 H 17.8722 -2.72404 4.01154 0
M  V30 202 N 19.2153 -1.21501 -1.00376 0
M  V30 203 C 20.1453 -0.999478 -2.11028 0
M  V30 204 C 21.1263 0.0759671 -1.6993 0
M  V30 205 O 22.3113 -0.0841106 -1.94018 0
M  V30 206 C 19.4413 -0.564709 -3.42678 0
M  V30 207 C 18.3953 -1.58486 -3.97576 0
M  V30 208 C 17.7213 -1.00628 -5.25146 0
M  V30 209 C 19.0213 -2.97204 -4.29496 0
M  V30 210 H 20.7153 -1.92495 -2.29317 0
M  V30 211 H 18.2613 -0.92693 -1.102 0
M  V30 212 H 20.2143 -0.401091 -4.19487 0
M  V30 213 H 18.9383 0.396411 -3.24185 0
M  V30 214 H 17.5973 -1.73606 -3.22888 0
M  V30 215 H 17.2453 -0.0368439 -5.02987 0
M  V30 216 H 16.9453 -1.68771 -5.62841 0
M  V30 217 H 18.4693 -0.854015 -6.04598 0
M  V30 218 H 19.8833 -2.8552 -4.97143 0
M  V30 219 H 18.2803 -3.62372 -4.78338 0
M  V30 220 H 19.3503 -3.47956 -3.3772 0
M  V30 221 N 20.6934 1.19889 -1.02296 0
M  V30 222 C 21.9184 1.9393 -0.735237 0
M  V30 223 C 22.3434 1.74639 0.698782 0
M  V30 224 O 21.7014 1.04481 1.48167 0
M  V30 225 C 21.7494 3.43916 -1.08417 0
M  V30 226 O 20.8534 4.11917 -0.199446 0
M  V30 227 H 20.1944 0.605645 -0.272196 0
M  V30 228 H 22.7244 1.52137 -1.36804 0
M  V30 229 H 22.7344 3.9456 -1.03856 0
M  V30 230 H 21.4094 3.5728 -2.12894 0
M  V30 231 H 19.9864 3.71666 -0.303136 0
M  V30 232 N 22.1715 0.800033 1.35784 0
M  V30 233 C 23.4185 0.377342 1.98953 0
M  V30 234 C 23.7465 -1.05378 1.6348 0
M  V30 235 O 23.0015 -1.74459 0.886707 0
M  V30 236 C 23.3005 0.500276 3.53881 0
M  V30 237 C 22.9665 1.89375 4.09204 0
M  V30 238 C 21.6285 2.27499 4.24025 0
M  V30 239 C 23.9805 2.8057 4.39238 0
M  V30 240 C 21.3085 3.562 4.66195 0
M  V30 241 C 23.6605 4.0871 4.82844 0
M  V30 242 C 22.3245 4.46843 4.95871 0
M  V30 243 H 21.5945 0.138079 0.728021 0
M  V30 244 H 24.2415 1.01955 1.62103 0
M  V30 245 H 22.5465 -0.225405 3.91151 0
M  V30 246 H 24.2435 0.154097 4.00704 0
M  V30 247 H 20.8335 1.58753 3.98115 0
M  V30 248 H 25.0175 2.52367 4.27346 0
M  V30 249 H 20.2735 3.85602 4.74469 0
M  V30 250 H 24.4475 4.79481 5.05046 0
M  V30 251 H 22.0745 5.46623 5.28306 0
M  V30 252 N 23.6496 -1.47581 0.552962 0
M  V30 253 C 24.6126 -2.28439 -0.186605 0
M  V30 254 C 25.6126 -1.36706 -0.84665 0
M  V30 255 O 26.8026 -1.59378 -0.703164 0
M  V30 256 C 23.9346 -3.16264 -1.2724 0
M  V30 257 H 25.1276 -2.95294 0.523609 0
M  V30 258 H 22.6806 -1.532 0.309745 0
M  V30 259 H 23.4156 -2.54091 -2.01514 0
M  V30 260 H 23.2006 -3.83769 -0.803968 0
M  V30 261 H 24.6906 -3.77198 -1.79196 0
M  V30 262 N 25.1277 -0.289203 -1.54924 0
M  V30 263 C 26.3557 0.326463 -2.04308 0
M  V30 264 C 26.7707 1.48413 -1.16701 0
M  V30 265 O 26.1277 1.81507 -0.190087 0
M  V30 266 C 26.1787 0.794014 -3.52672 0
M  V30 267 O 25.8997 -0.317564 -4.36948 0
M  V30 268 C 27.4007 1.47605 -4.18004 0
M  V30 269 H 24.6207 0.0726272 -0.667058 0
M  V30 270 H 27.1647 -0.425401 -2.00026 0
M  V30 271 H 25.3197 1.49593 -3.57352 0
M  V30 272 H 25.7337 0.0443186 -5.24481 0
M  V30 273 H 27.2077 1.75447 -5.23376 0
M  V30 274 H 27.6847 2.41224 -3.67025 0
M  V30 275 H 28.2907 0.81762 -4.17367 0
M  V30 276 N 26.6058 1.57591 -0.0167156 0
M  V30 277 C 28.0168 1.79201 0.523834 0
M  V30 278 C 28.3678 0.925796 1.72984 0
M  V30 279 O 27.4928 0.132792 2.15992 0
M  V30 280 C 28.0878 3.25 0.957091 0
M  V30 281 C 26.6468 3.47648 1.44283 0
M  V30 282 C 25.7938 2.74374 0.401757 0
M  V30 283 H 28.7448 1.56831 -0.242816 0
M  V30 284 H 28.7658 3.34031 1.82219 0
M  V30 285 H 28.2778 3.88019 0.0791415 0
M  V30 286 H 26.3788 2.89866 2.34113 0
M  V30 287 H 26.4918 4.56352 1.45877 0
M  V30 288 H 24.8558 2.39485 0.867121 0
M  V30 289 H 25.6388 3.40102 -0.467513 0
M  V30 290 N 28.0839 -0.256276 1.55502 0
M  V30 291 C 29.0139 -1.32102 1.92539 0
M  V30 292 C 29.9949 -1.50684 0.789194 0
M  V30 293 O 31.1799 -1.63449 1.04872 0
M  V30 294 C 28.3099 -2.67752 2.21192 0
M  V30 295 C 27.2639 -2.63878 3.36975 0
M  V30 296 C 26.5899 -4.03236 3.51147 0
M  V30 297 C 27.8899 -2.21682 4.72921 0
M  V30 298 H 29.5839 -1.01351 2.81724 0
M  V30 299 H 27.1299 -0.486105 1.35547 0
M  V30 300 H 29.0829 -3.42365 2.45691 0
M  V30 301 H 27.8069 -3.0012 1.28824 0
M  V30 302 H 26.4659 -1.91722 3.12471 0
M  V30 303 H 26.1139 -4.32854 2.56216 0
M  V30 304 H 25.8139 -4.01535 4.29003 0
M  V30 305 H 27.3379 -4.79563 3.77957 0
M  V30 306 H 28.7519 -2.86023 4.96854 0
M  V30 307 H 27.1489 -2.3111 5.53812 0
M  V30 308 H 28.2189 -1.16833 4.70615 0
M  V30 309 N 29.562 -1.4872 -0.521534 0
M  V30 310 C 30.525 -1.63379 -1.60748 0
M  V30 311 C 31.525 -0.50661 -1.52611 0
M  V30 312 O 32.715 -0.772601 -1.5613 0
M  V30 313 C 29.847 -1.61192 -3.00383 0
M  V30 314 H 31.04 -2.60217 -1.49087 0
M  V30 315 H 28.593 -1.37444 -0.744235 0
M  V30 316 H 29.328 -0.65863 -3.17541 0
M  V30 317 H 29.113 -2.43032 -3.07698 0
M  V30 318 H 30.603 -1.7466 -3.7932 0
M  V30 319 N 31.0401 0.771051 -1.3745 0
M  V30 320 C 31.9721 1.89352 -1.29146 0
M  V30 321 C 32.9851 1.61477 -0.207124 0
M  V30 322 O 34.1741 1.72382 -0.463324 0
M  V30 323 C 31.2741 3.24596 -0.974195 0
M  V30 324 C 30.4471 3.80111 -2.16413 0
M  V30 325 C 29.5061 4.93832 -1.81703 0
M  V30 326 O 28.5321 5.09382 -2.54006 0
M  V30 327 N 29.7341 5.75483 -0.761573 0
M  V30 328 H 32.4991 1.96991 -2.25864 0
M  V30 329 H 30.0601 0.950191 -1.31084 0
M  V30 330 H 32.0521 3.98193 -0.722828 0
M  V30 331 H 30.6221 3.12454 -0.0955527 0
M  V30 332 H 29.8421 2.98284 -2.57721 0
M  V30 333 H 31.1301 4.13932 -2.95867 0
M  V30 334 H 30.5281 5.65469 -0.161609 0
M  V30 335 H 29.0851 6.49302 -0.570064 0
M  V30 336 N 32.5182 1.22032 0.997298 0
M  V30 337 C 33.4812 0.987909 2.06816 0
M  V30 338 C 34.4812 -0.0440084 1.6074 0
M  V30 339 O 35.6712 0.194053 1.73116 0
M  V30 340 C 32.8032 0.49132 3.37341 0
M  V30 341 H 33.9962 1.93803 2.28868 0
M  V30 342 H 31.5492 1.03838 1.16822 0
M  V30 343 H 32.2842 -0.463364 3.20973 0
M  V30 344 H 32.0692 1.23575 3.72118 0
M  V30 345 H 33.5592 0.348824 4.16141 0
M  V30 346 N 33.9963 -1.19345 1.0293 0
M  V30 347 C 35.2733 -1.84811 0.640642 0
M  V30 348 C 35.6533 -1.91855 -0.88062 0
M  V30 349 O 35.0013 -1.43587 -1.7775 0
M  V30 350 C 35.2113 -3.23755 1.30321 0
M  V30 351 C 36.5593 -3.99912 1.42673 0
M  V30 352 O 37.5833 -3.33155 1.26041 0
M  V30 353 O 36.4423 -5.19494 1.6967 0
M  V30 354 H 33.5363 -0.796443 0.222726 0
M  V30 355 H 36.0823 -1.26831 1.12748 0
M  V30 356 H 34.8543 -3.13466 2.34211 0
M  V30 357 H 34.4773 -3.89381 0.804261 0
M  V30 358 N 35.4744 -0.807222 -1.35358 0
M  V30 359 C 36.4374 -0.223665 -2.28106 0
M  V30 360 C 37.4374 0.589354 -1.4961 0
M  V30 361 O 38.6274 0.407745 -1.69361 0
M  V30 362 C 35.7594 0.688149 -3.33882 0
M  V30 363 H 36.9524 -1.04169 -2.81227 0
M  V30 364 H 34.5054 -0.577921 -1.45223 0
M  V30 365 H 35.2404 1.52984 -2.85948 0
M  V30 366 H 35.0254 0.10687 -3.91954 0
M  V30 367 H 36.5154 1.09075 -4.03104 0
M  V30 368 N 36.9525 1.47285 -0.560781 0
M  V30 369 C 37.8825 2.32857 0.173105 0
M  V30 370 C 38.8635 1.44009 0.905281 0
M  V30 371 O 40.0485 1.7286 0.885046 0
M  V30 372 C 37.1785 3.25861 1.20133 0
M  V30 373 C 36.1325 4.23978 0.585388 0
M  V30 374 C 35.4585 5.06332 1.7185 0
M  V30 375 C 36.7585 5.20242 -0.463178 0
M  V30 376 H 38.4525 2.94466 -0.541307 0
M  V30 377 H 35.9985 1.41601 -0.261764 0
M  V30 378 H 37.9515 3.84569 1.72293 0
M  V30 379 H 36.6755 2.62315 1.94573 0
M  V30 380 H 35.3345 3.66501 0.085054 0
M  V30 381 H 34.9825 4.39186 2.45203 0
M  V30 382 H 34.6825 5.72762 1.31213 0
M  V30 383 H 36.2065 5.67899 2.24329 0
M  V30 384 H 37.6205 5.73293 -0.027502 0
M  V30 385 H 36.0175 5.94896 -0.788627 0
M  V30 386 H 37.0875 4.65504 -1.35773 0
M  V30 387 N 38.4306 0.297415 1.54768 0
M  V30 388 C 39.3806 -0.595275 2.20092 0
M  V30 389 C 40.3646 -1.10163 1.17273 0
M  V30 390 O 41.5566 -1.043 1.43006 0
M  V30 391 C 38.6856 -1.7684 2.94249 0
M  V30 392 C 37.7716 -1.27818 4.0438 0
M  V30 393 N 38.1626 -0.505695 5.03266 0
M  V30 394 C 36.4606 -1.55923 4.17857 0
M  V30 395 C 37.1616 -0.245094 5.81183 0
M  V30 396 N 36.1376 -0.823881 5.3732 0
M  V30 397 H 39.9396 0.00250837 2.939 0
M  V30 398 H 37.4536 0.102007 1.62079 0
M  V30 399 H 39.4506 -2.41944 3.39513 0
M  V30 400 H 38.1106 -2.36992 2.21957 0
M  V30 401 H 39.1216 -0.150928 5.1768 0
M  V30 402 H 35.7986 -2.16849 3.56767 0
M  V30 403 H 37.1886 0.375084 6.70852 0
M  V30 404 N 39.9087 -1.5758 0.0250728 0
M  V30 405 C 41.1857 -1.82917 -0.692873 0
M  V30 406 C 41.5657 -0.908137 -1.90568 0
M  V30 407 O 40.9137 0.0372298 -2.2847 0
M  V30 408 C 41.1237 -3.32034 -1.07492 0
M  V30 409 C 42.4717 -3.98406 -1.46826 0
M  V30 410 O 43.4957 -3.36505 -1.16801 0
M  V30 411 O 42.3547 -5.07497 -2.02754 0
M  V30 412 H 39.4487 -0.754079 -0.33955 0
M  V30 413 H 41.9947 -1.69619 0.0524456 0
M  V30 414 H 40.7667 -3.90728 -0.211552 0
M  V30 415 H 40.3897 -3.50424 -1.87854 0
M  V30 416 N 41.3868 0.248026 -1.55636 0
M  V30 417 C 42.3188 1.32993 -1.8667 0
M  V30 418 C 43.3318 1.44345 -0.752877 0
M  V30 419 O 44.5208 1.45715 -1.03098 0
M  V30 420 C 41.6208 2.70863 -2.03682 0
M  V30 421 C 40.7938 2.81792 -3.34532 0
M  V30 422 C 39.8528 4.005 -3.41301 0
M  V30 423 O 38.8788 3.9008 -4.14519 0
M  V30 424 N 40.0808 5.13618 -2.70512 0
M  V30 425 H 42.8458 1.06707 -2.8006 0
M  V30 426 H 40.4068 0.438129 -1.55859 0
M  V30 427 H 42.3988 3.48612 -2.05553 0
M  V30 428 H 40.9688 2.89862 -1.17041 0
M  V30 429 H 40.1888 1.90729 -3.44987 0
M  V30 430 H 41.4768 2.86043 -4.20781 0
M  V30 431 H 40.8748 5.24975 -2.10755 0
M  V30 432 H 39.4318 5.89505 -2.78077 0
M  V30 433 N 42.8649 1.48995 0.513639 0
M  V30 434 C 43.8279 1.64229 1.59879 0
M  V30 435 C 44.8279 0.514696 1.5234 0
M  V30 436 O 46.0179 0.78087 1.55718 0
M  V30 437 C 43.1499 1.62783 2.99524 0
M  V30 438 H 44.3429 2.61004 1.47705 0
M  V30 439 H 41.8959 1.37837 0.736936 0
M  V30 440 H 42.6309 0.675461 3.17188 0
M  V30 441 H 42.4159 2.4466 3.06404 0
M  V30 442 H 43.9059 1.76669 3.78388 0
M  V30 443 N 44.343 -0.763751 1.37857 0
M  V30 444 C 45.568 -1.55805 1.36893 0
M  V30 445 C 45.993 -1.88054 -0.0416135 0
M  V30 446 O 45.351 -1.49825 -1.02089 0
M  V30 447 C 45.399 -2.84012 2.22192 0
M  V30 448 O 44.503 -3.78732 1.63204 0
M  V30 449 H 43.844 -0.471638 0.46739 0
M  V30 450 H 46.374 -0.944657 1.81487 0
M  V30 451 H 46.384 -3.33037 2.35691 0
M  V30 452 H 45.059 -2.59869 3.24716 0
M  V30 453 H 43.636 -3.37402 1.58791 0
M  V30 454 N 45.8211 -1.22559 -0.990812 0
M  V30 455 C 46.7841 -0.998863 -2.0629 0
M  V30 456 C 47.7841 0.0354834 -1.60761 0
M  V30 457 O 48.9741 -0.203231 -1.7301 0
M  V30 458 C 46.1061 -0.509203 -3.37076 0
M  V30 459 H 47.2991 -1.95014 -2.27837 0
M  V30 460 H 44.8521 -1.04456 -1.16269 0
M  V30 461 H 45.5871 0.446335 -3.21214 0
M  V30 462 H 45.3721 -1.25547 -3.71457 0
M  V30 463 H 46.8621 -0.370888 -4.1595 0
M  V30 464 N 47.2992 1.18797 -1.03562 0
M  V30 465 C 48.2292 2.24472 -0.643019 0
M  V30 466 C 49.2102 1.66433 0.351283 0
M  V30 467 O 50.3952 1.92803 0.232505 0
M  V30 468 C 47.5252 3.473 4.24935e-05 0
M  V30 469 C 46.4792 4.18055 -0.917257 0
M  V30 470 C 45.8052 5.34519 -0.138941 0
M  V30 471 C 47.1052 4.72109 -2.23407 0
M  V30 472 H 48.7992 2.57566 -1.52643 0
M  V30 473 H 46.3452 1.23806 -0.735394 0
M  V30 474 H 48.2982 4.20426 0.286383 0
M  V30 475 H 47.0222 3.13424 0.918299 0
M  V30 476 H 45.6812 3.46821 -1.1879 0
M  V30 477 H 45.3292 4.96891 0.781562 0
M  V30 478 H 45.0292 5.82794 -0.750005 0
M  V30 479 H 46.5532 6.10438 0.1405 0
M  V30 480 H 47.9672 5.36955 -2.00879 0
M  V30 481 H 46.3642 5.30897 -2.79765 0
M  V30 482 H 47.4342 3.89807 -2.88407 0
M  V30 483 N 48.7773 0.814389 1.34928 0
M  V30 484 C 50.0243 0.398423 1.98542 0
M  V30 485 C 50.3523 -1.03638 1.64589 0
M  V30 486 O 49.6073 -1.73509 0.90516 0
M  V30 487 C 49.9063 0.537781 3.53331 0
M  V30 488 C 49.5723 1.93704 4.07172 0
M  V30 489 C 48.2343 2.31984 4.21589 0
M  V30 490 C 50.5863 2.85213 4.36237 0
M  V30 491 C 47.9143 3.61125 4.62391 0
M  V30 492 C 50.2663 4.13809 4.78482 0
M  V30 493 C 48.9303 4.52077 4.91104 0
M  V30 494 H 48.2003 0.145793 0.726516 0
M  V30 495 H 50.8473 1.03669 1.61012 0
M  V30 496 H 49.1523 -0.183906 3.91368 0
M  V30 497 H 50.8493 0.196588 4.00518 0
M  V30 498 H 47.4393 1.62966 3.96409 0
M  V30 499 H 51.6233 2.56885 4.24645 0
M  V30 500 H 46.8793 3.90612 4.70353 0
M  V30 501 H 51.0533 4.84811 4.99932 0
M  V30 502 H 48.6803 5.52196 5.22478 0
M  V30 503 N 50.2554 -1.46986 0.568584 0
M  V30 504 C 51.2024 -2.30153 -0.172707 0
M  V30 505 C 52.1724 -1.39759 -0.897586 0
M  V30 506 O 53.3574 -1.68716 -0.891044 0
M  V30 507 C 50.4974 -3.23952 -1.1895 0
M  V30 508 C 49.6104 -4.29441 -0.469517 0
M  V30 509 C 48.7454 -5.1038 -1.47259 0
M  V30 510 C 47.7844 -6.07632 -0.738225 0
M  V30 511 N 46.9214 -6.8149 -1.68868 0
M  V30 512 H 51.7614 -2.93019 0.542596 0
M  V30 513 H 49.2984 -1.44422 0.279401 0
M  V30 514 H 51.2564 -3.76767 -1.79173 0
M  V30 515 H 49.8864 -2.62926 -1.87269 0
M  V30 516 H 48.9384 -3.79594 0.247467 0
M  V30 517 H 50.2504 -4.98689 0.105241 0
M  V30 518 H 49.4044 -5.67402 -2.14803 0
M  V30 519 H 48.1434 -4.4106 -2.08128 0
M  V30 520 H 47.1484 -5.49778 -0.0489293 0
M  V30 521 H 48.3734 -6.78966 -0.135129 0
M  V30 522 H 46.3194 -6.14891 -2.28573 0
M  V30 523 H 46.2364 -7.46948 -1.16636 0
M  V30 524 H 47.5044 -7.43078 -2.3549 0
M  V30 525 N 51.7335 -0.305618 -1.54608 0
M  V30 526 C 53.1445 0.186098 -1.8577 0
M  V30 527 C 53.4955 1.53058 -1.22751 0
M  V30 528 O 52.6205 2.09888 -0.526893 0
M  V30 529 C 53.2155 0.344449 -3.37044 0
M  V30 530 C 51.7745 0.780384 -3.68221 0
M  V30 531 C 50.9215 -0.108554 -2.77087 0
M  V30 532 H 53.8725 -0.526485 -1.49712 0
M  V30 533 H 53.8935 1.17828 -3.61796 0
M  V30 534 H 53.4055 -0.634235 -3.82883 0
M  V30 535 H 51.5065 1.76945 -3.27904 0
M  V30 536 H 51.6195 0.596572 -4.75371 0
M  V30 537 H 49.9835 0.412931 -2.5133 0
M  V30 538 H 50.7665 -1.08368 -3.25747 0
M  V30 539 N 53.2116 1.57565 -0.0334293 0
M  V30 540 C 54.4606 1.91155 0.643639 0
M  V30 541 C 54.7736 0.91192 1.73042 0
M  V30 542 O 55.9796 1.13923 2.46442 0
M  V30 543 C 54.4356 3.39443 1.1961 0
M  V30 544 C 54.0436 4.47774 0.142381 0
M  V30 545 C 55.7876 3.82094 1.84944 0
M  V30 546 C 53.6946 5.87162 0.706727 0
M  V30 547 H 52.6246 0.713368 0.244176 0
M  V30 548 H 55.2756 1.8323 -0.0994323 0
M  V30 549 H 53.6576 3.42313 1.99092 0
M  V30 550 H 54.8316 4.56469 -0.630296 0
M  V30 551 H 53.1466 4.14352 -0.412446 0
M  V30 552 H 55.7436 4.83591 2.2813 0
M  V30 553 H 56.0866 3.17386 2.69392 0
M  V30 554 H 56.6196 3.81665 1.12145 0
M  V30 555 H 53.3586 6.55424 -0.0997178 0
M  V30 556 H 52.8786 5.82064 1.44779 0
M  V30 557 H 54.5576 6.35866 1.19514 0
M  V30 558 N 54.6897 -0.239769 1.55765 0
M  V30 559 C 56.1007 -0.808263 1.68297 0
M  V30 560 C 56.4517 -1.85736 0.632181 0
M  V30 561 O 55.5767 -2.15277 -0.220204 0
M  V30 562 C 56.1717 -1.47284 3.05111 0
M  V30 563 C 54.7307 -1.98895 3.19559 0
M  V30 564 C 53.8777 -0.842575 2.64189 0
M  V30 565 H 56.8287 -0.0154422 1.58692 0
M  V30 566 H 56.8497 -2.34111 2.99954 0
M  V30 567 H 56.3617 -0.709053 3.81568 0
M  V30 568 H 54.4627 -2.78132 2.47938 0
M  V30 569 H 54.5757 -2.18143 4.26556 0
M  V30 570 H 52.9397 -1.24501 2.22197 0
M  V30 571 H 53.7227 -0.0917552 3.43177 0
M  V30 572 N 56.1678 -1.49265 -0.50573 0
M  V30 573 C 57.0778 -1.68312 -1.63427 0
M  V30 574 C 58.0938 -0.565682 -1.64548 0
M  V30 575 O 59.2698 -0.839801 -1.83055 0
M  V30 576 C 56.3348 -1.74107 -2.99813 0
M  V30 577 C 55.3958 -2.97653 -3.09356 0
M  V30 578 C 54.6288 -3.03163 -4.39236 0
M  V30 579 O 54.8518 -2.16396 -5.27758 0
M  V30 580 O 53.7858 -3.9558 -4.53652 0
M  V30 581 H 57.6118 -2.63907 -1.50289 0
M  V30 582 H 55.1968 -1.32951 -0.681502 0
M  V30 583 H 57.0788 -1.803 -3.80881 0
M  V30 584 H 55.7538 -0.816901 -3.13223 0
M  V30 585 H 54.6608 -2.96981 -2.27493 0
M  V30 586 H 55.9938 -3.89535 -3.00871 0
M  V30 587 N 57.6459 0.756429 -1.3826 0
M  V30 588 C 58.5779 1.87971 -1.31147 0
M  V30 589 C 59.5909 1.61248 -0.224239 0
M  V30 590 O 60.7799 1.71881 -0.481581 0
M  V30 591 C 57.8799 3.23545 -1.00857 0
M  V30 592 C 57.0529 3.77794 -2.20432 0
M  V30 593 C 56.1119 4.91877 -1.86931 0
M  V30 594 O 55.1379 5.06659 -2.59395 0
M  V30 595 N 56.3399 5.74643 -0.822568 0
M  V30 596 H 59.1049 1.94585 -2.2794 0
M  V30 597 H 56.6659 0.936234 -1.32084 0
M  V30 598 H 58.6579 3.97403 -0.765021 0
M  V30 599 H 57.2279 3.12335 -0.128687 0
M  V30 600 H 56.4479 2.95534 -2.6087 0
M  V30 601 H 57.7359 4.10771 -3.00241 0
M  V30 602 H 57.1339 5.65266 -0.221575 0
M  V30 603 H 55.6909 6.48661 -0.638899 0
M  V30 604 N 59.124 1.23083 0.984299 0
M  V30 605 C 60.37 1.06214 1.72761 0
M  V30 606 C 60.703 -0.400584 1.90024 0
M  V30 607 O 59.978 -1.29672 1.44967 0
M  V30 608 C 60.261 1.78375 3.12817 0
M  V30 609 C 60.114 3.32296 3.03149 0
M  V30 610 C 61.433 1.54309 4.12161 0
M  V30 611 H 58.552 0.387251 0.627061 0
M  V30 612 H 61.194 1.51536 1.14616 0
M  V30 613 H 59.344 1.39848 3.62457 0
M  V30 614 H 61.016 3.8032 2.61064 0
M  V30 615 H 59.259 3.6153 2.39747 0
M  V30 616 H 59.93 3.77972 4.02295 0
M  V30 617 H 62.406 1.87791 3.71314 0
M  V30 618 H 61.282 2.07281 5.08258 0
M  V30 619 H 61.543 0.477572 4.39513 0
M  V30 620 N 60.6021 -1.18246 1.0419 0
M  V30 621 C 61.8301 -1.92195 0.766072 0
M  V30 622 C 62.2451 -1.76247 -0.676933 0
M  V30 623 O 61.6021 -1.09293 -1.46155 0
M  V30 624 C 61.6531 -3.43568 1.12442 0
M  V30 625 O 61.3741 -3.59015 2.51078 0
M  V30 626 C 62.8751 -4.34613 0.873275 0
M  V30 627 H 60.0951 -0.610114 0.279288 0
M  V30 628 H 62.6391 -1.50007 1.38989 0
M  V30 629 H 60.7941 -3.8354 0.545542 0
M  V30 630 H 61.2081 -4.5273 2.64831 0
M  V30 631 H 62.6821 -5.39374 1.17385 0
M  V30 632 H 63.1591 -4.38781 -0.191909 0
M  V30 633 H 63.7651 -4.00341 1.43551 0
M  V30 634 N 62.0802 -0.821533 -1.34494 0
M  V30 635 C 62.9902 -0.244355 -2.33324 0
M  V30 636 C 64.0062 0.620527 -1.62559 0
M  V30 637 O 65.1822 0.528754 -1.94335 0
M  V30 638 C 62.2472 0.585368 -3.41723 0
M  V30 639 C 61.3082 -0.301752 -4.28238 0
M  V30 640 C 60.5412 0.488466 -5.3146 0
M  V30 641 O 60.7642 1.72186 -5.4379 0
M  V30 642 O 59.6982 -0.12848 -6.01763 0
M  V30 643 H 63.5242 -1.06231 -2.84515 0
M  V30 644 H 61.1092 -0.583645 -1.37528 0
M  V30 645 H 62.9912 1.05747 -4.07916 0
M  V30 646 H 61.6662 1.38068 -2.92778 0
M  V30 647 H 60.5732 -0.821315 -3.64973 0
M  V30 648 H 61.9062 -1.06138 -4.8062 0
M  V30 649 N 63.5583 1.46682 -0.576371 0
M  V30 650 C 64.4883 2.33028 0.148397 0
M  V30 651 C 65.4693 1.44961 0.889956 0
M  V30 652 O 66.6543 1.73789 0.866662 0
M  V30 653 C 63.7843 3.27117 1.1667 0
M  V30 654 C 62.7383 4.24575 0.540386 0
M  V30 655 C 62.0643 5.08126 1.6647 0
M  V30 656 C 63.3643 5.19722 -0.518331 0
M  V30 657 H 65.0583 2.93875 -0.572509 0
M  V30 658 H 62.6043 1.41315 -0.276768 0
M  V30 659 H 64.5573 3.86374 1.68204 0
M  V30 660 H 63.2813 2.64364 1.9178 0
M  V30 661 H 61.9403 3.66571 0.0461769 0
M  V30 662 H 61.5883 4.41762 2.40531 0
M  V30 663 H 61.2883 5.74122 1.25131 0
M  V30 664 H 62.8123 5.70246 2.18293 0
M  V30 665 H 64.2263 5.73232 -0.0883058 0
M  V30 666 H 62.6233 5.94026 -0.851679 0
M  V30 667 H 63.6933 4.64037 -1.40703 0
M  V30 668 N 65.0364 0.313813 1.54444 0
M  V30 669 C 66.4524 -0.0391619 1.59552 0
M  V30 670 C 66.6524 -1.51322 1.33056 0
M  V30 671 O 65.7084 -2.26782 1.11022 0
M  V30 672 C 67.0214 0.370302 2.98411 0
M  V30 673 C 68.5694 0.320139 3.11358 0
M  V30 674 C 69.0444 0.704617 4.52547 0
M  V30 675 N 70.5354 0.657645 4.58508 0
M  V30 676 C 71.2704 0.927453 5.6585 0
M  V30 677 N 70.7664 1.26389 6.81174 0
M  V30 678 N 72.5594 0.853662 5.5558 0
M  V30 679 H 64.7104 1.27433 1.69925 0
M  V30 680 H 66.9734 0.517511 0.794284 0
M  V30 681 H 66.6794 1.39694 3.22767 0
M  V30 682 H 66.5534 -0.269619 3.76235 0
M  V30 683 H 68.9404 -0.697275 2.86744 0
M  V30 684 H 69.0214 0.99486 2.35661 0
M  V30 685 H 68.6654 1.7199 4.77893 0
M  V30 686 H 68.5954 0.00768843 5.26599 0
M  V30 687 H 71.0864 0.409067 3.75679 0
M  V30 688 H 71.3994 1.4554 7.58972 0
M  V30 689 H 69.7444 1.30206 6.82694 0
M  V30 690 H 72.9354 0.590383 4.64362 0
M  V30 691 H 73.1084 1.0673 6.3915 0
M  V30 692 N 66.5145 -1.57545 0.0417849 0
M  V30 693 C 67.7625 -1.91937 -0.632829 0
M  V30 694 C 68.0835 -0.919978 -1.71934 0
M  V30 695 O 67.3535 0.0366064 -1.95866 0
M  V30 696 H 65.9335 -0.708493 -0.236742 0
M  V30 697 H 68.5955 -1.9468 0.0925745 0
M  V30 698 H 67.6915 -2.92912 -1.07746 0
M  V30 699 N 67.9926 0.231505 -1.5589 0
M  V30 700 C 68.9246 1.31006 -1.8807 0
M  V30 701 C 69.9376 1.43539 -0.768145 0
M  V30 702 O 71.1266 1.44614 -1.04638 0
M  V30 703 C 68.2266 2.68688 -2.06543 0
M  V30 704 C 67.3996 2.78228 -3.37502 0
M  V30 705 C 66.4586 3.96857 -3.4553 0
M  V30 706 O 65.4846 3.85662 -4.18633 0
M  V30 707 N 66.6866 5.1072 -2.75944 0
M  V30 708 H 69.4516 1.03731 -2.81176 0
M  V30 709 H 67.0126 0.421573 -1.56315 0
M  V30 710 H 69.0046 3.46412 -2.09239 0
M  V30 711 H 67.5746 2.88605 -1.20109 0
M  V30 712 H 66.7946 1.87059 -3.46991 0
M  V30 713 H 68.0826 2.81564 -4.23791 0
M  V30 714 H 67.4806 5.2271 -2.16311 0
M  V30 715 H 66.0376 5.86523 -2.84314 0
M  V30 716 N 69.4707 1.49531 0.497807 0
M  V30 717 C 70.8817 1.52344 1.07927 0
M  V30 718 C 71.2327 0.311469 1.93712 0
M  V30 719 O 70.3577 -0.578405 2.08527 0
M  V30 720 C 70.9527 2.76062 1.96405 0
M  V30 721 C 69.5117 2.81643 2.49709 0
M  V30 722 C 68.6587 2.46299 1.27404 0
M  V30 723 H 71.6097 1.56182 0.281576 0
M  V30 724 H 71.6307 2.56405 2.81135 0
M  V30 725 H 71.1427 3.64254 1.33943 0
M  V30 726 H 69.2437 1.97739 3.15801 0
M  V30 727 H 69.3567 3.83891 2.86643 0
M  V30 728 H 67.7207 1.98148 1.60029 0
M  V30 729 H 68.5037 3.36769 0.66645 0
M  V30 730 N 70.9488 -0.749086 1.3866 0
M  V30 731 C 72.1978 -1.50371 1.3443 0
M  V30 732 C 72.5108 -1.95503 -0.0616397 0
M  V30 733 O 73.7168 -2.70554 -0.226489 0
M  V30 734 C 72.1728 -2.71644 2.36088 0
M  V30 735 C 71.7808 -2.3352 3.82325 0
M  V30 736 C 73.5248 -3.49518 2.40909 0
M  V30 737 C 71.4318 -3.51431 4.75658 0
M  V30 738 H 70.3618 -0.564628 0.499712 0
M  V30 739 H 73.0128 -0.818449 1.64237 0
M  V30 740 H 71.3948 -3.42175 1.9933 0
M  V30 741 H 72.5688 -1.70627 4.28046 0
M  V30 742 H 70.8838 -1.6877 3.80665 0
M  V30 743 H 73.4808 -4.37197 3.07836 0
M  V30 744 H 73.8238 -3.90992 1.42937 0
M  V30 745 H 74.3568 -2.86005 2.76489 0
M  V30 746 H 71.0958 -3.15019 5.74842 0
M  V30 747 H 70.6158 -4.13352 4.34627 0
M  V30 748 H 72.2948 -4.17953 4.93887 0
M  V30 749 N 72.4269 -1.23603 -0.977757 0
M  V30 750 C 73.6519 -1.09735 -1.75991 0
M  V30 751 C 74.0769 0.346858 -1.84874 0
M  V30 752 O 73.4349 1.25093 -1.3123 0
M  V30 753 C 73.4829 -1.73051 -3.16363 0
M  V30 754 O 72.5869 -0.994452 -4.0023 0
M  V30 755 H 71.9279 -0.384476 -0.541364 0
M  V30 756 H 74.4579 -1.6371 -1.2272 0
M  V30 757 H 74.4679 -1.78398 -3.66931 0
M  V30 758 H 73.1429 -2.78137 -3.09213 0
M  V30 759 H 71.7199 -1.01812 -3.58732 0
M  V30 760 N 73.905 1.17692 -1.04816 0
M  V30 761 C 74.815 2.25229 -0.65643 0
M  V30 762 C 75.831 1.71018 0.320761 0
M  V30 763 O 77.007 2.00649 0.173805 0
M  V30 764 C 74.072 3.46684 -0.0332629 0
M  V30 765 C 73.133 4.15997 -1.06042 0
M  V30 766 C 72.366 5.31654 -0.466893 0
M  V30 767 O 72.589 5.65777 0.724758 0
M  V30 768 O 71.523 5.89831 -1.1993 0
M  V30 769 H 75.349 2.61016 -1.55255 0
M  V30 770 H 72.934 1.24919 -0.81949 0
M  V30 771 H 74.816 4.20234 0.313256 0
M  V30 772 H 73.491 3.12703 0.836566 0
M  V30 773 H 72.398 3.44482 -1.45886 0
M  V30 774 H 73.731 4.53996 -1.90127 0
M  V30 775 N 75.3831 0.828654 1.34056 0
M  V30 776 C 76.3151 0.212052 2.28217 0
M  V30 777 C 77.3281 -0.601362 1.51286 0
M  V30 778 O 78.5171 -0.430104 1.73241 0
M  V30 779 C 75.6171 -0.72088 3.31144 0
M  V30 780 C 74.7901 0.0509587 4.3737 0
M  V30 781 C 73.8491 -0.803766 5.20025 0
M  V30 782 O 72.8751 -0.246667 5.68665 0
M  V30 783 N 74.0771 -2.1227 5.40298 0
M  V30 784 H 76.8421 1.02105 2.81771 0
M  V30 785 H 74.4031 0.686153 1.46641 0
M  V30 786 H 76.3951 -1.29742 3.8334 0
M  V30 787 H 74.9651 -1.43061 2.77943 0
M  V30 788 H 74.1851 0.808831 3.85813 0
M  V30 789 H 75.4731 0.582065 5.0546 0
M  V30 790 H 74.8711 -2.59898 5.02464 0
M  V30 791 H 73.4281 -2.64796 5.95589 0
M  V30 792 N 76.8612 -1.46375 0.584142 0
M  V30 793 C 77.7932 -2.28443 -0.186119 0
M  V30 794 C 78.8062 -1.38596 -0.854115 0
M  V30 795 O 79.9952 -1.63183 -0.723438 0
M  V30 796 C 77.0952 -3.13671 -1.28311 0
M  V30 797 C 76.2682 -4.31652 -0.706758 0
M  V30 798 C 75.3272 -4.98267 -1.69163 0
M  V30 799 O 74.3532 -5.55815 -1.22712 0
M  V30 800 N 75.5552 -4.95408 -3.02575 0
M  V30 801 H 78.3202 -2.9519 0.517986 0
M  V30 802 H 75.8812 -1.56303 0.42201 0
M  V30 803 H 77.8732 -3.55101 -1.94128 0
M  V30 804 H 76.4432 -2.48989 -1.89005 0
M  V30 805 H 75.6632 -3.93989 0.128908 0
M  V30 806 H 76.9512 -5.07906 -0.301506 0
M  V30 807 H 76.3492 -4.49902 -3.42936 0
M  V30 808 H 74.9062 -5.40774 -3.63877 0
M  V30 809 N 78.3393 -0.321999 -1.54275 0
M  V30 810 C 79.7553 0.0306999 -1.5957 0
M  V30 811 C 79.9553 1.50614 -1.33857 0
M  V30 812 O 79.0113 2.2619 -1.12223 0
M  V30 813 C 80.3243 -0.386122 -2.98211 0
M  V30 814 C 81.8723 -0.336647 -3.11184 0
M  V30 815 C 82.3473 -0.728607 -4.52167 0
M  V30 816 N 83.8383 -0.681952 -4.58152 0
M  V30 817 C 84.5733 -0.957449 -5.6535 0
M  V30 818 N 84.0693 -1.3 -6.80494 0
M  V30 819 N 85.8623 -0.883113 -5.55119 0
M  V30 820 H 78.0133 -1.28332 -1.69247 0
M  V30 821 H 80.2763 -0.521716 -0.791528 0
M  V30 822 H 79.9823 -1.41404 -3.22022 0
M  V30 823 H 79.8563 0.249662 -3.76373 0
M  V30 824 H 82.2433 0.682058 -2.8711 0
M  V30 825 H 82.3243 -1.00734 -2.3513 0
M  V30 826 H 81.9683 -1.74522 -4.76974 0
M  V30 827 H 81.8983 -0.0356152 -5.26588 0
M  V30 828 H 84.3893 -0.428985 -3.75457 0
M  V30 829 H 84.7023 -1.49563 -7.58189 0
M  V30 830 H 83.0473 -1.33824 -6.81994 0
M  V30 831 H 86.2383 -0.615001 -4.64042 0
M  V30 832 H 86.4113 -1.10118 -6.38575 0
M  V30 833 N 79.8174 1.5752 -0.0501392 0
M  V30 834 C 80.7274 2.14952 0.939827 0
M  V30 835 C 81.7434 1.10706 1.34239 0
M  V30 836 O 82.9194 1.42869 1.41952 0
M  V30 837 C 79.9844 2.68232 2.19665 0
M  V30 838 C 79.0454 3.87272 1.85253 0
M  V30 839 C 78.2784 4.38002 3.04943 0
M  V30 840 O 78.5014 3.87811 4.18281 0
M  V30 841 O 77.4354 5.29602 2.86017 0
M  V30 842 H 81.2614 2.9986 0.481392 0
M  V30 843 H 78.8464 1.4841 0.171699 0
M  V30 844 H 80.7284 3.02475 2.93406 0
M  V30 845 H 79.4034 1.86395 2.64648 0
M  V30 846 H 78.3104 3.5792 1.0883 0
M  V30 847 H 79.6434 4.70336 1.4507 0
M  V30 848 N 81.2955 -0.223234 1.56011 0
M  V30 849 C 82.2255 -1.27988 1.95298 0
M  V30 850 C 83.2065 -1.48976 0.820979 0
M  V30 851 O 84.3915 -1.61188 1.08315 0
M  V30 852 C 81.5215 -2.63 2.26822 0
M  V30 853 C 80.4755 -2.56671 3.42497 0
M  V30 854 C 79.8015 -3.95697 3.59622 0
M  V30 855 C 81.1015 -2.11601 4.77517 0
M  V30 856 H 82.7955 -0.953525 2.8381 0
M  V30 857 H 80.3415 -0.457244 1.36548 0
M  V30 858 H 82.2945 -3.37077 2.52898 0
M  V30 859 H 81.0185 -2.9732 1.35161 0
M  V30 860 H 79.6775 -1.85051 3.16467 0
M  V30 861 H 79.3255 -4.27322 2.6534 0
M  V30 862 H 79.0255 -3.92345 4.37424 0
M  V30 863 H 80.5495 -4.71438 3.88044 0
M  V30 864 H 81.9635 -2.7542 5.02809 0
M  V30 865 H 80.3605 -2.19311 5.5859 0
M  V30 866 H 81.4305 -1.06824 4.72987 0
M  V30 867 N 82.7736 -1.49793 -0.48987 0
M  V30 868 C 84.0216 -1.59525 -1.24081 0
M  V30 869 C 84.3426 -0.288953 -1.92847 0
M  V30 870 O 83.6126 0.692436 -1.83254 0
M  V30 871 H 82.1926 -0.587796 -0.460983 0
M  V30 872 H 84.8546 -1.86477 -0.566778 0
M  V30 873 H 83.9506 -2.39696 -1.99881 0
M  V30 874 N 84.2517 0.741722 -1.39055 0
M  V30 875 C 85.1987 1.85566 -1.37237 0
M  V30 876 C 86.1687 1.64457 -0.233072 0
M  V30 877 O 87.3537 1.85957 -0.427147 0
M  V30 878 C 84.4937 3.23004 -1.215 0
M  V30 879 C 83.6067 3.55864 -2.44918 0
M  V30 880 C 82.7417 4.82669 -2.21821 0
M  V30 881 C 81.7807 5.08351 -3.40948 0
M  V30 882 N 80.9177 6.26356 -3.17211 0
M  V30 883 H 85.7577 1.86455 -2.32462 0
M  V30 884 H 83.2947 0.911176 -1.15482 0
M  V30 885 H 85.2527 4.02331 -1.10389 0
M  V30 886 H 83.8827 3.21411 -0.29908 0
M  V30 887 H 82.9347 2.7129 -2.66657 0
M  V30 888 H 84.2467 3.70765 -3.33668 0
M  V30 889 H 83.4007 5.69962 -2.07914 0
M  V30 890 H 82.1397 4.69929 -1.30454 0
M  V30 891 H 81.1447 4.19522 -3.55361 0
M  V30 892 H 82.3697 5.22981 -4.33207 0
M  V30 893 H 80.3157 6.14917 -2.28502 0
M  V30 894 H 80.2327 6.41813 -3.99515 0
M  V30 895 H 81.5007 7.16506 -3.06984 0
M  V30 896 N 85.7298 1.2412 0.971189 0
M  V30 897 C 86.6768 1.0305 2.06517 0
M  V30 898 C 87.6468 -0.0550666 1.66009 0
M  V30 899 O 88.8318 0.0988688 1.90544 0
M  V30 900 C 85.9718 0.637653 3.39158 0
M  V30 901 C 85.0848 1.79633 3.92882 0
M  V30 902 C 84.2198 1.34939 5.13775 0
M  V30 903 C 83.2588 2.47823 5.59687 0
M  V30 904 N 82.3958 2.04022 6.71803 0
M  V30 905 H 87.2358 1.96685 2.23873 0
M  V30 906 H 84.7728 0.979694 1.09729 0
M  V30 907 H 86.7308 0.390931 4.15364 0
M  V30 908 H 85.3608 -0.261693 3.21737 0
M  V30 909 H 84.4128 2.15681 3.13346 0
M  V30 910 H 85.7248 2.64466 4.22918 0
M  V30 911 H 84.8788 1.06134 5.97345 0
M  V30 912 H 83.6178 0.471557 4.85415 0
M  V30 913 H 82.6228 2.77392 4.74693 0
M  V30 914 H 83.8478 3.36158 5.90063 0
M  V30 915 H 81.7938 1.18632 6.45184 0
M  V30 916 H 81.7108 2.82409 7.01271 0
M  V30 917 H 82.9788 1.78347 7.58823 0
M  V30 918 N 87.2079 -1.17134 1.05439 0
M  V30 919 C 88.1379 -2.2342 0.678649 0
M  V30 920 C 89.1189 -1.66971 -0.32476 0
M  V30 921 O 90.3039 -1.93149 -0.201802 0
M  V30 922 C 87.4339 -3.47256 0.0552099 0
M  V30 923 C 86.3879 -4.16543 0.98365 0
M  V30 924 C 85.7139 -5.34231 0.223961 0
M  V30 925 C 87.0139 -4.68495 2.3089 0
M  V30 926 H 88.7079 -2.55105 1.56722 0
M  V30 927 H 86.2539 -1.2262 0.754998 0
M  V30 928 H 88.2069 -4.20828 -0.21946 0
M  V30 929 H 86.9309 -3.14846 -0.868319 0
M  V30 930 H 85.5899 -3.44887 1.24293 0
M  V30 931 H 85.2379 -4.98071 -0.702412 0
M  V30 932 H 84.9379 -5.81527 0.842627 0
M  V30 933 H 86.4619 -6.10585 -0.0433671 0
M  V30 934 H 87.8759 -5.33691 2.09396 0
M  V30 935 H 86.2729 -5.26379 2.88176 0
M  V30 936 H 87.3429 -3.85169 2.94572 0
M  V30 937 N 88.686 -0.835752 -1.33615 0
M  V30 938 C 89.933 -0.429959 -1.97883 0
M  V30 939 C 90.261 1.01006 -1.66217 0
M  V30 940 O 89.516 1.72047 -0.93265 0
M  V30 941 C 89.815 -0.593925 -3.52431 0
M  V30 942 C 89.481 -2.00158 -4.04039 0
M  V30 943 C 88.143 -2.38662 -4.17844 0
M  V30 944 C 90.495 -2.92117 -4.31644 0
M  V30 945 C 87.823 -3.68435 -4.56588 0
M  V30 946 C 90.175 -4.21368 -4.71838 0
M  V30 947 C 88.839 -4.59833 -4.83849 0
M  V30 948 H 88.109 -0.157333 -0.724104 0
M  V30 949 H 90.756 -1.06217 -1.59343 0
M  V30 950 H 89.061 0.121619 -3.91611 0
M  V30 951 H 90.758 -0.260282 -4.00154 0
M  V30 952 H 87.348 -1.69252 -3.93766 0
M  V30 953 H 91.532 -2.63608 -4.20505 0
M  V30 954 H 86.788 -3.98046 -4.64079 0
M  V30 955 H 90.962 -4.92703 -4.92155 0
M  V30 956 H 88.589 -5.60438 -5.13627 0
M  V30 957 N 90.1641 1.46063 -0.591896 0
M  V30 958 C 91.4111 2.02338 -0.0809991 0
M  V30 959 C 91.7391 1.46228 1.28249 0
M  V30 960 O 90.9941 0.620818 1.85592 0
M  V30 961 C 91.2931 3.57391 0.0249813 0
M  V30 962 C 90.9591 4.32583 -1.27211 0
M  V30 963 C 89.6211 4.52844 -1.62745 0
M  V30 964 C 91.9731 4.75687 -2.13005 0
M  V30 965 C 89.3011 5.13462 -2.83855 0
M  V30 966 C 91.6531 5.37644 -3.3335 0
M  V30 967 C 90.3171 5.5613 -3.69155 0
M  V30 968 H 89.5871 0.740407 -0.0296397 0
M  V30 969 H 92.2341 1.75321 -0.770374 0
M  V30 970 H 90.5391 3.83597 0.797537 0
M  V30 971 H 92.2361 3.98621 0.436184 0
M  V30 972 H 88.8261 4.17116 -0.985499 0
M  V30 973 H 93.0101 4.59782 -1.86855 0
M  V30 974 H 88.2661 5.25965 -3.11722 0
M  V30 975 H 92.4401 5.7 -4.00092 0
M  V30 976 H 90.0671 6.0287 -4.63089 0
M  V30 977 N 91.6422 0.330177 1.54103 0
M  V30 978 C 92.9192 -0.325007 1.92881 0
M  V30 979 C 93.2992 -1.6934 1.26045 0
M  V30 980 O 92.6472 -2.24855 0.406526 0
M  V30 981 C 92.8572 -0.410634 3.46576 0
M  V30 982 C 94.2052 -0.667801 4.19316 0
M  V30 983 O 95.2292 -0.49329 3.52768 0
M  V30 984 O 94.0882 -1.00491 5.37181 0
M  V30 985 H 91.1822 -0.186873 0.80561 0
M  V30 986 H 93.7282 0.380376 1.65382 0
M  V30 987 H 92.5002 0.550164 3.87413 0
M  V30 988 H 92.1232 -1.16333 3.802 0
M  V30 989 N 93.1203 -1.57491 0.0584922 0
M  V30 990 C 94.5313 -1.80526 -0.476138 0
M  V30 991 C 94.8823 -0.971334 -1.70469 0
M  V30 992 O 94.0073 -0.190012 -2.15564 0
M  V30 993 C 94.6023 -3.27424 -0.870587 0
M  V30 994 C 93.1613 -3.51351 -1.35015 0
M  V30 995 C 92.3083 -2.75343 -0.32887 0
M  V30 996 H 95.2593 -1.56133 0.284312 0
M  V30 997 H 95.2803 -3.38745 -1.73299 0
M  V30 998 H 94.7923 -3.88093 0.0237627 0
M  V30 999 H 92.8933 -2.95971 -2.26345 0
M  V30 1000 H 93.0063 -4.60059 -1.33726 0
M  V30 1001 H 91.3703 -2.417 -0.803321 0
M  V30 1002 H 92.1533 -3.38743 0.557521 0
M  V30 1003 N 94.5984 0.214957 -1.56127 0
M  V30 1004 C 96.0144 0.564948 -1.49267 0
M  V30 1005 C 96.2144 1.86827 -0.754838 0
M  V30 1006 O 95.2704 2.50745 -0.297198 0
M  V30 1007 C 96.5834 0.638071 -2.93852 0
M  V30 1008 C 98.1314 0.728253 -3.0441 0
M  V30 1009 C 98.6064 0.832663 -4.50367 0
M  V30 1010 N 100.097 0.896712 -4.54437 0
M  V30 1011 C 100.832 0.997324 -5.6466 0
M  V30 1012 N 100.328 1.06147 -6.8462 0
M  V30 1013 N 102.121 1.03297 -5.52527 0
M  V30 1014 H 94.2724 -0.640211 -2.02522 0
M  V30 1015 H 96.5354 -0.225507 -0.920788 0
M  V30 1016 H 96.2414 -0.250126 -3.50809 0
M  V30 1017 H 96.1154 1.49947 -3.46115 0
M  V30 1018 H 98.5024 1.60689 -2.47514 0
M  V30 1019 H 98.5834 -0.158952 -2.55306 0
M  V30 1020 H 98.2274 -0.0415417 -5.07883 0
M  V30 1021 H 98.1574 1.73538 -4.97184 0
M  V30 1022 H 100.648 0.857188 -3.6805 0
M  V30 1023 H 100.961 1.1382 -7.64372 0
M  V30 1024 H 99.3064 1.03049 -6.87318 0
M  V30 1025 H 102.497 0.979558 -4.57736 0
M  V30 1026 H 102.67 1.10793 -6.38458 0
M  V30 1027 N 96.0765 1.50051 0.48192 0
M  V30 1028 C 97.0065 1.71046 1.58951 0
M  V30 1029 C 97.9875 0.559288 1.60642 0
M  V30 1030 O 99.1725 0.797243 1.77081 0
M  V30 1031 C 96.3025 1.79462 2.97339 0
M  V30 1032 C 95.2565 2.94558 3.10515 0
M  V30 1033 C 94.5825 2.88105 4.50444 0
M  V30 1034 C 95.8825 4.35227 2.88747 0
M  V30 1035 H 97.5765 2.6378 1.41635 0
M  V30 1036 H 95.1225 1.26936 0.679942 0
M  V30 1037 H 97.0755 1.92734 3.74742 0
M  V30 1038 H 95.7995 0.833412 3.15788 0
M  V30 1039 H 94.4585 2.80918 2.35543 0
M  V30 1040 H 94.1065 1.89853 4.65795 0
M  V30 1041 H 93.8065 3.65366 4.60197 0
M  V30 1042 H 95.3305 3.03412 5.29881 0
M  V30 1043 H 96.7445 4.49449 3.55905 0
M  V30 1044 H 95.1415 5.13856 3.09955 0
M  V30 1045 H 96.2115 4.48347 1.84696 0
M  V30 1046 N 97.5546 -0.734337 1.39446 0
M  V30 1047 C 98.7796 -1.52866 1.40167 0
M  V30 1048 C 99.2046 -1.881 -0.00171513 0
M  V30 1049 O 98.5626 -1.51957 -0.988879 0
M  V30 1050 C 98.6106 -2.79235 2.28167 0
M  V30 1051 O 97.7146 -3.75185 1.71201 0
M  V30 1052 H 97.0556 -0.461618 0.477289 0
M  V30 1053 H 99.5856 -0.905949 1.8345 0
M  V30 1054 H 99.5956 -3.27963 2.42702 0
M  V30 1055 H 98.2706 -2.52923 3.30156 0
M  V30 1056 H 96.8476 -3.33958 1.65912 0
M  V30 1057 N 99.0327 -1.24633 -0.964593 0
M  V30 1058 C 100.449 -1.01239 -1.2338 0
M  V30 1059 C 100.649 0.2769 -1.99588 0
M  V30 1060 O 99.7047 0.992241 -2.32187 0
M  V30 1061 C 101.018 -2.22937 -2.01791 0
M  V30 1062 C 102.566 -2.27594 -2.14872 0
M  V30 1063 C 103.041 -3.48921 -2.96678 0
M  V30 1064 N 104.532 -3.49257 -3.04259 0
M  V30 1065 C 105.267 -4.39795 -3.67924 0
M  V30 1066 N 104.763 -5.40591 -4.33281 0
M  V30 1067 N 106.556 -4.275 -3.64966 0
M  V30 1068 H 98.7067 -2.0748 -0.454502 0
M  V30 1069 H 100.97 -0.910647 -0.26349 0
M  V30 1070 H 100.676 -3.16587 -1.53184 0
M  V30 1071 H 100.55 -2.25306 -3.02518 0
M  V30 1072 H 102.937 -1.34473 -2.6268 0
M  V30 1073 H 103.018 -2.2925 -1.13482 0
M  V30 1074 H 102.662 -4.42359 -2.49562 0
M  V30 1075 H 102.592 -3.4451 -3.98272 0
M  V30 1076 H 105.083 -2.76337 -2.57771 0
M  V30 1077 H 105.396 -6.05904 -4.79687 0
M  V30 1078 H 103.741 -5.44475 -4.3194 0
M  V30 1079 H 106.932 -3.47987 -3.13086 0
M  V30 1080 H 107.105 -4.98258 -4.14298 0
M  V30 1081 N 100.511 1.16574 -1.06058 0
M  V30 1082 C 101.736 1.91493 -0.796562 0
M  V30 1083 C 102.161 1.76773 0.642868 0
M  V30 1084 O 101.519 1.09142 1.44768 0
M  V30 1085 C 101.567 3.40293 -1.19303 0
M  V30 1086 O 100.671 4.11074 -0.330394 0
M  V30 1087 H 100.012 0.596678 -0.291326 0
M  V30 1088 H 102.542 1.47708 -1.41575 0
M  V30 1089 H 102.552 3.91057 -1.16356 0
M  V30 1090 H 101.227 3.50326 -2.24153 0
M  V30 1091 H 99.8038 3.70513 -0.421225 0
M  V30 1092 N 101.989 0.842826 1.3317 0
M  V30 1093 C 102.939 0.250877 2.26616 0
M  V30 1094 C 103.923 -0.596427 1.49437 0
M  V30 1095 O 105.115 -0.447747 1.71243 0
M  V30 1096 C 102.244 -0.569779 3.38539 0
M  V30 1097 C 101.33 0.289254 4.23112 0
M  V30 1098 N 101.721 1.36987 4.86897 0
M  V30 1099 C 100.019 0.0769631 4.45934 0
M  V30 1100 C 100.72 1.89737 5.49886 0
M  V30 1101 N 99.6959 1.19827 5.30229 0
M  V30 1102 H 103.498 1.07718 2.73448 0
M  V30 1103 H 101.012 0.687693 1.47121 0
M  V30 1104 H 103.009 -1.01018 4.04476 0
M  V30 1105 H 101.669 -1.39401 2.93253 0
M  V30 1106 H 102.68 1.75277 4.87338 0
M  V30 1107 H 99.3569 -0.713507 4.11358 0
M  V30 1108 H 100.747 2.80253 6.10662 0
M  V30 1109 N 103.467 -1.45747 0.599634 0
M  V30 1110 C 104.713 -2.02592 0.0918643 0
M  V30 1111 C 105.046 -1.46806 -1.27128 0
M  V30 1112 O 104.321 -0.639658 -1.83681 0
M  V30 1113 C 104.604 -3.60073 0.0443398 0
M  V30 1114 C 104.457 -4.26208 1.43759 0
M  V30 1115 C 105.776 -4.35309 -0.647608 0
M  V30 1116 H 102.895 -0.736175 0.034857 0
M  V30 1117 H 105.537 -1.73694 0.770081 0
M  V30 1118 H 103.687 -3.84823 -0.533224 0
M  V30 1119 H 105.359 -4.12668 2.06162 0
M  V30 1120 H 103.602 -3.84916 2.00056 0
M  V30 1121 H 104.273 -5.35069 1.35665 0
M  V30 1122 H 106.749 -4.15805 -0.156776 0
M  V30 1123 H 105.625 -5.45038 -0.649942 0
M  V30 1124 H 105.886 -4.07598 -1.71219 0
M  V30 1125 N 104.945 -0.338344 -1.53925 0
M  V30 1126 C 105.875 0.51328 -2.27789 0
M  V30 1127 C 106.856 1.107 -1.29149 0
M  V30 1128 O 108.041 1.12937 -1.57984 0
M  V30 1129 C 105.171 1.66697 -3.04679 0
M  V30 1130 C 104.125 1.20183 -4.1078 0
M  V30 1131 C 103.451 2.44363 -4.75595 0
M  V30 1132 C 104.751 0.30605 -5.21403 0
M  V30 1133 H 106.445 -0.102883 -2.99223 0
M  V30 1134 H 103.991 -0.0509219 -1.4391 0
M  V30 1135 H 105.944 2.26915 -3.55088 0
M  V30 1136 H 104.668 2.30995 -2.30887 0
M  V30 1137 H 103.327 0.622499 -3.61276 0
M  V30 1138 H 102.975 3.07057 -3.98403 0
M  V30 1139 H 102.675 2.13925 -5.47275 0
M  V30 1140 H 104.199 3.05317 -5.28786 0
M  V30 1141 H 105.613 0.814929 -5.67478 0
M  V30 1142 H 104.01 0.0937929 -6.00027 0
M  V30 1143 H 105.08 -0.65921 -4.80398 0
M  V30 1144 N 106.423 1.57458 -0.0668435 0
M  V30 1145 C 107.648 1.9804 0.616027 0
M  V30 1146 C 108.073 0.944771 1.62652 0
M  V30 1147 O 107.431 -0.0902094 1.81075 0
M  V30 1148 C 107.479 3.37665 1.26549 0
M  V30 1149 O 106.583 3.36701 2.38131 0
M  V30 1150 H 105.924 0.644719 0.158849 0
M  V30 1151 H 108.454 2.04121 -0.139891 0
M  V30 1152 H 108.464 3.7474 1.6135 0
M  V30 1153 H 107.139 4.12573 0.525016 0
M  V30 1154 H 105.716 3.1139 2.0516 0
M  V30 1155 N 107.901 -0.206675 1.56239 0
M  V30 1156 C 109.141 -0.93574 1.81723 0
M  V30 1157 C 109.505 -1.80927 0.642609 0
M  V30 1158 O 110.706 -2.57323 0.777081 0
M  V30 1159 C 108.977 -1.74012 3.12177 0
M  V30 1160 S 110.536 -2.52279 3.59028 0
M  V30 1161 H 107.354 -0.314065 0.637875 0
M  V30 1162 H 109.956 -0.200071 1.94474 0
M  V30 1163 H 108.66 -1.0888 3.95693 0
M  V30 1164 H 108.191 -2.51782 3.02274 0
M  V30 1165 H 110.206 -3.76209 3.23545 0
M  V30 1166 N 109.379 -1.50304 -0.473955 0
M  V30 1167 C 110.327 -1.69482 -1.59307 0
M  V30 1168 C 111.321 -0.560669 -1.59853 0
M  V30 1169 O 112.527 -0.741087 -1.64036 0
M  V30 1170 H 108.902 -0.534892 -0.528578 0
M  V30 1171 H 110.873 -2.63364 -1.40293 0
M  V30 1172 C 109.622 -1.80354 -2.97267 0
M  V30 1173 H 108.945 -2.67012 -2.97564 0
M  V30 1174 H 110.385 -1.97798 -3.75036 0
M  V30 1175 C 108.844 -0.55448 -3.32306 0
M  V30 1176 O 109.374 0.307661 -4.0052 0
M  V30 1177 N 107.58 -0.409354 -2.87702 0
M  V30 1178 H 107.127 -1.11196 -2.32364 0
M  V30 1179 H 107.085 0.425223 -3.11511 0
M  V30 1180 N 110.857 0.726932 -1.39834 0
M  V30 1181 C 112.085 1.51613 -1.40787 0
M  V30 1182 C 112.5 1.88799 -0.00451505 0
M  V30 1183 O 111.857 1.54662 0.968809 0
M  V30 1184 C 111.908 2.79863 -2.28821 0
M  V30 1185 O 111.629 2.44253 -3.63692 0
M  V30 1186 C 113.13 3.73837 -2.38245 0
M  V30 1187 H 110.35 0.468264 -0.480593 0
M  V30 1188 H 112.894 0.897607 -1.83748 0
M  V30 1189 H 111.049 3.38027 -1.89252 0
M  V30 1190 H 111.463 3.26695 -4.1033 0
M  V30 1191 H 112.937 4.60699 -3.04073 0
M  V30 1192 H 113.414 4.16153 -1.40403 0
M  V30 1193 H 114.02 3.21589 -2.78317 0
M  V30 1194 N 112.336 1.25143 0.95797 0
M  V30 1195 C 113.576 1.10893 1.71703 0
M  V30 1196 C 113.94 -0.34478 1.88879 0
M  V30 1197 O 115.141 -0.609014 2.6181 0
M  V30 1198 C 113.412 1.83889 3.06463 0
M  V30 1199 S 114.971 1.85491 3.97666 0
M  V30 1200 H 111.789 0.396428 0.590226 0
M  V30 1201 H 114.391 1.58618 1.14283 0
M  V30 1202 H 113.095 2.88756 2.9163 0
M  V30 1203 H 112.626 1.36538 3.68946 0
M  V30 1204 H 114.641 0.929553 4.87415 0
M  V30 1205 N 113.814 -1.1601 1.06675 0
M  V30 1206 C 114.764 -2.18512 0.650888 0
M  V30 1207 C 115.748 -1.57677 -0.320441 0
M  V30 1208 O 116.94 -1.76482 -0.135266 0
M  V30 1209 C 114.069 -3.43273 0.0429255 0
M  V30 1210 C 113.155 -4.11176 1.03898 0
M  V30 1211 N 113.546 -4.54672 2.216 0
M  V30 1212 C 111.844 -4.37417 0.870779 0
M  V30 1213 C 112.545 -5.07248 2.84736 0
M  V30 1214 N 111.521 -5.0037 2.12441 0
M  V30 1215 H 115.323 -2.49863 1.54745 0
M  V30 1216 H 112.837 -1.32503 0.938975 0
M  V30 1217 H 114.834 -4.16006 -0.272857 0
M  V30 1218 H 113.494 -3.13408 -0.84884 0
M  V30 1219 H 114.505 -4.4828 2.59356 0
M  V30 1220 H 111.182 -4.17488 0.0313293 0
M  V30 1221 H 112.572 -5.50912 3.84636 0
M  V30 1222 N 115.292 -0.849877 -1.32721 0
M  V30 1223 C 116.24 -0.279745 -2.30912 0
M  V30 1224 C 117.234 0.594278 -1.58634 0
M  V30 1225 O 118.44 0.482613 -1.73409 0
M  V30 1226 H 114.815 -0.0717521 -0.748569 0
M  V30 1227 H 116.786 -1.12222 -2.76494 0
M  V30 1228 C 115.535 0.521108 -3.43773 0
M  V30 1229 H 114.858 -0.142141 -3.99547 0
M  V30 1230 H 116.298 0.885693 -4.14646 0
M  V30 1231 C 114.757 1.70442 -2.90605 0
M  V30 1232 O 115.287 2.8034 -2.87702 0
M  V30 1233 N 113.493 1.52991 -2.47067 0
M  V30 1234 H 113.04 0.635914 -2.49628 0
M  V30 1235 H 112.998 2.32311 -2.11847 0
M  V30 1236 N 116.77 1.45427 -0.607355 0
M  V30 1237 C 118.016 2.0254 -0.102607 0
M  V30 1238 C 118.349 1.47478 1.26348 0
M  V30 1239 O 117.624 0.64939 1.83339 0
M  V30 1240 C 117.907 3.60044 -0.0634347 0
M  V30 1241 C 117.76 4.2544 -1.46017 0
M  V30 1242 C 119.079 4.35646 0.624514 0
M  V30 1243 H 116.198 0.73598 -0.0387607 0
M  V30 1244 H 118.84 1.73284 -0.779282 0
M  V30 1245 H 116.99 3.85101 0.512808 0
M  V30 1246 H 118.662 4.11569 -2.08347 0
M  V30 1247 H 116.905 3.83849 -2.02094 0
M  V30 1248 H 117.576 5.34342 -1.385 0
M  V30 1249 H 120.052 4.15882 0.134723 0
M  V30 1250 H 118.928 5.45376 0.621028 0
M  V30 1251 H 119.189 4.08501 1.69055 0
M  V30 1252 N 118.248 0.346503 1.53744 0
M  V30 1253 C 119.496 -0.248612 2.00565 0
M  V30 1254 C 119.817 -1.5083 1.23593 0
M  V30 1255 O 119.087 -1.92858 0.343912 0
M  V30 1256 H 117.667 -0.0948564 0.740953 0
M  V30 1257 H 120.329 0.468341 1.89189 0
M  V30 1258 H 119.425 -0.488994 3.08245 0
M  V30 1259 N 119.726 -1.57421 0.075193 0
M  V30 1260 C 120.954 -1.97946 -0.602076 0
M  V30 1261 C 121.369 -0.953674 -1.62943 0
M  V30 1262 O 120.726 0.0592551 -1.82404 0
M  V30 1263 C 120.777 -3.38546 -1.26762 0
M  V30 1264 O 120.498 -4.37195 -0.281376 0
M  V30 1265 C 121.999 -3.93966 -2.03239 0
M  V30 1266 H 119.219 -0.650918 -0.162931 0
M  V30 1267 H 121.763 -2.03959 0.148601 0
M  V30 1268 H 119.918 -3.33609 -1.96936 0
M  V30 1269 H 120.332 -5.18975 -0.759267 0
M  V30 1270 H 121.806 -4.94555 -2.45193 0
M  V30 1271 H 122.283 -3.30693 -2.8903 0
M  V30 1272 H 122.889 -4.02315 -1.37924 0
M  V30 1273 N 121.204 0.198386 -1.56346 0
M  V30 1274 C 122.452 0.91747 -1.80075 0
M  V30 1275 C 122.773 1.83929 -0.647692 0
M  V30 1276 O 122.043 1.93029 0.334166 0
M  V30 1277 H 120.623 0.341774 -0.664228 0
M  V30 1278 H 123.285 0.204684 -1.93822 0
M  V30 1279 H 122.381 1.51055 -2.7311 0
M  V30 1280 N 122.682 1.50554 0.465978 0
M  V30 1281 C 123.93 1.61479 1.21528 0
M  V30 1282 C 124.251 0.319596 1.92363 0
M  V30 1283 O 123.521 -0.663194 1.84333 0
M  V30 1284 H 122.101 0.595055 0.451573 0
M  V30 1285 H 124.763 1.87355 0.53704 0
M  V30 1286 H 123.859 2.42846 1.96042 0
M  V30 1287 N 124.16 -0.719506 1.40217 0
M  V30 1288 C 125.123 -1.8153 1.39927 0
M  V30 1289 C 126.123 -1.58095 0.293723 0
M  V30 1290 O 127.313 -1.65209 0.552429 0
M  V30 1291 C 124.445 -3.19561 1.18716 0
M  V30 1292 H 125.638 -1.83186 2.37451 0
M  V30 1293 H 123.191 -0.924746 1.26008 0
M  V30 1294 H 123.926 -3.23557 0.219366 0
M  V30 1295 H 123.711 -3.3797 1.98793 0
M  V30 1296 H 125.201 -3.99598 1.21291 0
M  V30 1297 N 125.638 -1.25649 -0.95132 0
M  V30 1298 C 126.915 -1.01361 -1.67288 0
M  V30 1299 C 127.295 0.459135 -2.06046 0
M  V30 1300 O 126.643 1.43723 -1.7764 0
M  V30 1301 C 126.853 -1.95256 -2.89268 0
M  V30 1302 C 128.201 -2.23289 -3.61147 0
M  V30 1303 O 129.225 -1.93041 -2.99355 0
M  V30 1304 O 128.084 -2.74741 -4.72419 0
M  V30 1305 H 125.178 -0.38464 -0.732107 0
M  V30 1306 H 127.724 -1.36817 -1.00395 0
M  V30 1307 H 126.496 -2.94685 -2.57442 0
M  V30 1308 H 126.119 -1.60218 -3.6389 0
M  V30 1309 N 127.117 1.15442 -1.07289 0
M  V30 1310 C 128.065 2.22225 -0.686952 0
M  V30 1311 C 129.059 1.66688 0.30193 0
M  V30 1312 O 130.265 1.79236 0.165712 0
M  V30 1313 H 126.64 0.723783 -0.204064 0
M  V30 1314 H 128.611 2.52056 -1.5972 0
M  V30 1315 C 127.36 3.47556 -0.100149 0
M  V30 1316 H 126.683 3.90612 -0.852211 0
M  V30 1317 H 128.123 4.23794 0.132235 0
M  V30 1318 C 126.582 3.16337 1.159 0
M  V30 1319 O 127.112 3.33074 2.24555 0
M  V30 1320 N 125.318 2.70385 1.06491 0
M  V30 1321 H 124.865 2.56966 0.180668 0
M  V30 1322 H 124.823 2.49871 1.90819 0
M  V30 1323 N 128.595 0.856903 1.32268 0
M  V30 1324 C 129.841 0.462069 1.97466 0
M  V30 1325 C 130.174 -0.980298 1.67642 0
M  V30 1326 O 129.449 -1.68824 0.965858 0
M  V30 1327 C 129.732 0.704336 3.53145 0
M  V30 1328 C 129.585 2.19529 3.9259 0
M  V30 1329 C 130.904 0.1622 4.39801 0
M  V30 1330 H 128.023 0.169357 0.717278 0
M  V30 1331 H 130.665 1.07574 1.56614 0
M  V30 1332 H 128.815 0.181999 3.88073 0
M  V30 1333 H 130.487 2.78387 3.67829 0
M  V30 1334 H 128.73 2.67292 3.41668 0
M  V30 1335 H 129.401 2.31549 5.01088 0
M  V30 1336 H 131.877 0.608905 4.11621 0
M  V30 1337 H 130.753 0.361265 5.4771 0
M  V30 1338 H 131.014 -0.935158 4.32096 0
M  V30 1339 N 130.073 -1.45103 0.615059 0
M  V30 1340 C 131.484 -1.85654 0.197383 0
M  V30 1341 C 131.835 -1.51433 -1.24749 0
M  V30 1342 O 130.96 -0.944608 -1.94695 0
M  V30 1343 C 131.555 -3.36972 0.351448 0
M  V30 1344 C 130.114 -3.76398 -0.011593 0
M  V30 1345 C 129.261 -2.69024 0.672394 0
M  V30 1346 H 132.212 -1.35797 0.821263 0
M  V30 1347 H 132.233 -3.78239 -0.414227 0
M  V30 1348 H 131.745 -3.61847 1.40314 0
M  V30 1349 H 129.846 -3.5714 -1.06217 0
M  V30 1350 H 129.959 -4.77532 0.387265 0
M  V30 1351 H 128.323 -2.54465 0.109284 0
M  V30 1352 H 129.106 -2.96735 1.72636 0
M  V30 1353 N 131.551 -0.354651 -1.53558 0
M  V30 1354 C 132.779 0.239515 -2.05509 0
M  V30 1355 C 133.194 1.4333 -1.2289 0
M  V30 1356 O 132.551 1.80538 -0.266899 0
M  V30 1357 C 132.602 0.643719 -3.55723 0
M  V30 1358 O 132.323 -0.502602 -4.35207 0
M  V30 1359 C 133.824 1.29743 -4.23889 0
M  V30 1360 H 131.044 0.0442697 -0.669538 0
M  V30 1361 H 133.588 -0.509856 -1.98042 0
M  V30 1362 H 131.743 1.34302 -3.63376 0
M  V30 1363 H 132.157 -0.178172 -5.24197 0
M  V30 1364 H 133.631 1.53091 -5.30346 0
M  V30 1365 H 134.108 2.25441 -3.76926 0
M  V30 1366 H 134.714 0.639865 -4.20459 0
M  V30 1367 N 133.029 1.57378 -0.0835403 0
M  V30 1368 C 134.254 1.98682 0.594987 0
M  V30 1369 C 134.679 0.961969 1.61641 0
M  V30 1370 O 134.037 -0.0709989 1.81161 0
M  V30 1371 C 134.085 3.38988 1.2296 0
M  V30 1372 O 133.189 3.39208 2.34546 0
M  V30 1373 H 132.53 0.646368 0.152002 0
M  V30 1374 H 135.06 2.03961 -0.161533 0
M  V30 1375 H 135.07 3.76431 1.57366 0
M  V30 1376 H 133.745 4.13107 0.481228 0
M  V30 1377 H 132.322 3.13548 2.01846 0
M  V30 1378 N 134.507 -0.190092 1.56449 0
M  V30 1379 C 135.753 -0.911052 1.81184 0
M  V30 1380 C 136.086 -1.82699 0.658396 0
M  V30 1381 O 135.361 -1.91491 -0.340775 0
M  V30 1382 C 135.644 -1.72297 3.16205 0
M  V30 1383 C 135.497 -0.831419 4.42049 0
M  V30 1384 C 136.816 -2.69454 3.47969 0
M  V30 1385 H 133.935 -0.32977 0.659106 0
M  V30 1386 H 136.577 -0.178169 1.89163 0
M  V30 1387 H 134.727 -2.34778 3.09534 0
M  V30 1388 H 136.399 -0.220929 4.60771 0
M  V30 1389 H 134.642 -0.138406 4.33579 0
M  V30 1390 H 135.313 -1.43461 5.33032 0
M  V30 1391 H 137.789 -2.17104 3.54972 0
M  V30 1392 H 136.665 -3.23342 4.43555 0
M  V30 1393 H 136.926 -3.48744 2.71717 0
M  V30 1394 N 135.985 -1.50799 -0.457987 0
M  V30 1395 C 137.233 -1.62121 -1.2067 0
M  V30 1396 C 137.554 -0.329793 -1.92191 0
M  V30 1397 O 136.824 0.653409 -1.84682 0
M  V30 1398 H 135.404 -0.597441 -0.448411 0
M  V30 1399 H 138.066 -1.87637 -0.527096 0
M  V30 1400 H 137.162 -2.43882 -1.94751 0
M  V30 1401 N 137.463 0.71206 -1.40597 0
M  V30 1402 C 138.413 1.81783 -1.37619 0
M  V30 1403 C 139.397 1.58896 -0.253162 0
M  V30 1404 O 140.589 1.70009 -0.492547 0
M  V30 1405 C 137.718 3.19944 -1.24462 0
M  V30 1406 C 136.804 3.48582 -2.4156 0
M  V30 1407 N 137.195 3.48016 -3.67041 0
M  V30 1408 C 135.493 3.79056 -2.35016 0
M  V30 1409 C 136.194 3.75096 -4.44609 0
M  V30 1410 N 135.17 3.94022 -3.74497 0
M  V30 1411 H 138.972 1.79683 -2.32575 0
M  V30 1412 H 136.486 0.91134 -1.34419 0
M  V30 1413 H 138.483 3.99133 -1.20411 0
M  V30 1414 H 137.143 3.23267 -0.304762 0
M  V30 1415 H 138.154 3.28782 -4.00153 0
M  V30 1416 H 134.831 3.89848 -1.49415 0
M  V30 1417 H 136.221 3.80934 -5.53479 0
M  V30 1418 N 138.941 1.26152 0.944643 0
M  V30 1419 C 140.189 1.11271 1.6871 0
M  V30 1420 C 140.51 -0.345166 1.91921 0
M  V30 1421 O 139.78 -1.24387 1.51343 0
M  V30 1422 H 138.36 0.408783 0.625224 0
M  V30 1423 H 141.022 1.58427 1.1352 0
M  V30 1424 H 140.118 1.62879 2.66227 0
M  V30 1425 N 140.419 -1.14872 1.07899 0
M  V30 1426 C 141.665 -1.86289 0.81657 0
M  V30 1427 C 142.02 -1.8107 -0.65049 0
M  V30 1428 O 141.313 -1.22684 -1.47171 0
M  V30 1429 C 141.507 -3.34223 1.26609 0
M  V30 1430 C 141.336 -3.53846 2.77531 0
M  V30 1431 C 140.106 -3.68995 3.45212 0
M  V30 1432 C 142.304 -3.51201 3.75716 0
M  V30 1433 N 140.286 -3.76725 4.84718 0
M  V30 1434 C 141.657 -3.65112 5.01092 0
M  V30 1435 C 143.712 -3.34507 3.68794 0
M  V30 1436 C 142.415 -3.64056 6.20368 0
M  V30 1437 C 144.441 -3.34752 4.8754 0
M  V30 1438 C 143.803 -3.49199 6.11751 0
M  V30 1439 H 139.902 -0.698579 0.351443 0
M  V30 1440 H 142.486 -1.37713 1.37634 0
M  V30 1441 H 140.657 -3.81402 0.73395 0
M  V30 1442 H 142.389 -3.93377 0.95062 0
M  V30 1443 H 139.144 -3.70006 2.95622 0
M  V30 1444 H 139.568 -3.8432 5.5734 0
M  V30 1445 H 144.21 -3.22253 2.73702 0
M  V30 1446 H 141.928 -3.75087 7.15776 0
M  V30 1447 H 145.514 -3.23055 4.83866 0
M  V30 1448 H 144.394 -3.49328 7.02097 0
M  V30 1449 N 141.898 -0.863906 -1.31812 0
M  V30 1450 C 142.83 -0.272485 -2.27575 0
M  V30 1451 C 143.843 0.56104 -1.52827 0
M  V30 1452 O 145.032 0.384021 -1.7432 0
M  V30 1453 C 142.132 0.63283 -3.32939 0
M  V30 1454 C 141.305 -0.166902 -4.37081 0
M  V30 1455 C 140.364 0.665608 -5.21973 0
M  V30 1456 O 139.39 0.0958091 -5.69119 0
M  V30 1457 N 140.592 1.9787 -5.45736 0
M  V30 1458 H 143.357 -1.0954 -2.78964 0
M  V30 1459 H 140.918 -0.724791 -1.4477 0
M  V30 1460 H 142.91 1.19532 -3.86645 0
M  V30 1461 H 141.48 1.35642 -2.81638 0
M  V30 1462 H 140.7 -0.910838 -3.83533 0
M  V30 1463 H 141.988 -0.715874 -5.03739 0
M  V30 1464 H 141.386 2.46484 -5.09178 0
M  V30 1465 H 139.943 2.48911 -6.024 0
M  V30 1466 N 143.376 1.44774 -0.622745 0
M  V30 1467 C 144.323 2.30635 0.0871679 0
M  V30 1468 C 145.293 1.42994 0.845097 0
M  V30 1469 O 146.478 1.71907 0.827812 0
M  V30 1470 C 143.618 3.28144 1.06844 0
M  V30 1471 C 142.731 4.30888 0.309809 0
M  V30 1472 C 141.866 5.15494 1.28215 0
M  V30 1473 C 140.905 6.09953 0.512198 0
M  V30 1474 N 140.042 6.87287 1.43458 0
M  V30 1475 H 144.882 2.90803 -0.650974 0
M  V30 1476 H 142.419 1.43286 -0.33281 0
M  V30 1477 H 144.377 3.83157 1.65066 0
M  V30 1478 H 143.007 2.69695 1.77382 0
M  V30 1479 H 142.059 3.78414 -0.388181 0
M  V30 1480 H 143.371 4.97955 -0.290254 0
M  V30 1481 H 142.525 5.74983 1.93596 0
M  V30 1482 H 141.264 4.48481 1.91614 0
M  V30 1483 H 140.269 5.49581 -0.155151 0
M  V30 1484 H 141.494 6.78999 -0.116958 0
M  V30 1485 H 139.44 6.2295 2.05594 0
M  V30 1486 H 139.357 7.50763 0.888335 0
M  V30 1487 H 140.625 7.51306 2.07749 0
M  V30 1488 N 144.854 0.36279 1.53368 0
M  V30 1489 C 146.102 -0.227326 2.00817 0
M  V30 1490 C 146.423 -1.49511 1.25186 0
M  V30 1491 O 145.693 -1.92482 0.364348 0
M  V30 1492 H 144.273 -0.0869923 0.741917 0
M  V30 1493 H 146.935 0.488381 1.88682 0
M  V30 1494 H 146.031 -0.456273 3.08747 0
M  V30 1495 N 146.332 -1.57332 0.0918853 0
M  V30 1496 C 147.743 -1.81496 -0.437739 0
M  V30 1497 C 148.094 -1.00727 -1.6837 0
M  V30 1498 O 147.219 -0.235694 -2.15113 0
M  V30 1499 C 147.814 -3.29197 -0.800939 0
M  V30 1500 C 146.373 -3.54136 -1.27532 0
M  V30 1501 C 145.52 -2.75979 -0.270392 0
M  V30 1502 H 148.471 -1.55494 0.317366 0
M  V30 1503 H 148.492 -3.42344 -1.66074 0
M  V30 1504 H 148.004 -3.87955 0.106078 0
M  V30 1505 H 146.105 -3.00705 -2.20016 0
M  V30 1506 H 146.218 -4.62792 -1.23938 0
M  V30 1507 H 144.582 -2.43349 -0.751872 0
M  V30 1508 H 145.365 -3.37484 0.629248 0
M  V30 1509 N 147.81 0.181792 -1.56548 0
M  V30 1510 C 149.226 0.53316 -1.50431 0
M  V30 1511 C 149.426 1.85184 -0.794297 0
M  V30 1512 O 148.482 2.50058 -0.350318 0
M  V30 1513 C 149.795 0.575597 -2.9514 0
M  V30 1514 C 151.343 0.663519 -3.05886 0
M  V30 1515 C 151.818 0.736946 -4.52032 0
M  V30 1516 N 153.309 0.800118 -4.56237 0
M  V30 1517 C 154.044 0.877327 -5.66649 0
M  V30 1518 N 153.54 0.916016 -6.86718 0
M  V30 1519 N 155.333 0.915542 -5.54594 0
M  V30 1520 H 147.484 -0.683025 -2.01118 0
M  V30 1521 H 149.747 -0.244988 -0.915797 0
M  V30 1522 H 149.453 -0.324482 -3.502 0
M  V30 1523 H 149.327 1.42572 -3.49218 0
M  V30 1524 H 151.714 1.55403 -2.50867 0
M  V30 1525 H 151.795 -0.21307 -2.54911 0
M  V30 1526 H 151.439 -0.149262 -5.07681 0
M  V30 1527 H 151.369 1.62953 -5.00753 0
M  V30 1528 H 153.86 0.778926 -3.69785 0
M  V30 1529 H 154.173 0.975813 -7.66614 0
M  V30 1530 H 152.518 0.884469 -6.89349 0
M  V30 1531 H 155.709 0.882245 -4.59711 0
M  V30 1532 H 155.882 0.972253 -6.40665 0
M  V30 1533 N 149.288 1.51039 0.449983 0
M  V30 1534 C 150.236 1.71995 1.5659 0
M  V30 1535 C 151.23 0.586029 1.5894 0
M  V30 1536 O 152.436 0.76709 1.62837 0
M  V30 1537 H 148.811 0.543233 0.520001 0
M  V30 1538 H 150.782 2.65562 1.36085 0
M  V30 1539 C 149.531 1.8506 2.9436 0
M  V30 1540 H 148.854 2.71712 2.93279 0
M  V30 1541 H 150.294 2.0374 3.71842 0
M  V30 1542 C 148.753 0.607277 3.31382 0
M  V30 1543 O 149.283 -0.243903 4.00959 0
M  V30 1544 N 147.489 0.455073 2.87015 0
M  V30 1545 H 147.036 1.14879 2.30566 0
M  V30 1546 H 146.994 -0.375611 3.12148 0
M  V30 1547 N 150.766 -0.704594 1.40972 0
M  V30 1548 C 151.991 -1.49858 1.43378 0
M  V30 1549 C 152.416 -1.88061 0.038184 0
M  V30 1550 O 151.774 -1.5402 -0.956425 0
M  V30 1551 C 151.822 -2.74333 2.34038 0
M  V30 1552 O 150.926 -3.7147 1.7912 0
M  V30 1553 H 150.267 -0.45139 0.486974 0
M  V30 1554 H 152.797 -0.866832 1.8533 0
M  V30 1555 H 152.807 -3.22741 2.49604 0
M  V30 1556 H 151.482 -2.45863 3.35446 0
M  V30 1557 H 150.059 -3.30363 1.72958 0
M  V30 1558 N 152.244 -1.26651 -0.937939 0
M  V30 1559 C 153.655 -1.1125 -1.49934 0
M  V30 1560 C 154.006 0.306077 -1.93798 0
M  V30 1561 O 153.131 1.19792 -1.80219 0
M  V30 1562 C 153.726 -2.01339 -2.72485 0
M  V30 1563 C 152.285 -1.90074 -3.24883 0
M  V30 1564 C 151.432 -1.94498 -1.97651 0
M  V30 1565 H 154.383 -1.39693 -0.753091 0
M  V30 1566 H 154.404 -1.56319 -3.46907 0
M  V30 1567 H 153.916 -3.04577 -2.40529 0
M  V30 1568 H 152.017 -0.897827 -3.61621 0
M  V30 1569 H 152.13 -2.75778 -3.9177 0
M  V30 1570 H 150.494 -1.38591 -2.13693 0
M  V30 1571 H 151.277 -2.99372 -1.68022 0
M  V30 1572 N 153.722 1.14298 -1.08507 0
M  V30 1573 C 154.95 1.89219 -0.836876 0
M  V30 1574 C 155.365 1.78638 0.611054 0
M  V30 1575 O 154.722 1.14643 1.41998 0
M  V30 1576 C 154.773 3.39158 -1.25116 0
M  V30 1577 O 154.494 3.49449 -2.64229 0
M  V30 1578 C 155.995 4.31073 -1.03398 0
M  V30 1579 H 153.215 0.599328 -0.301739 0
M  V30 1580 H 155.759 1.44746 -1.44461 0
M  V30 1581 H 153.914 3.81251 -0.687514 0
M  V30 1582 H 154.328 4.42589 -2.81452 0
M  V30 1583 H 155.802 5.34646 -1.37323 0
M  V30 1584 H 156.279 4.3919 0.0289259 0
M  V30 1585 H 156.885 3.94738 -1.58311 0
M  V30 1586 N 155.201 0.870884 1.31352 0
M  V30 1587 C 156.447 0.482987 1.96965 0
M  V30 1588 C 156.78 -0.962462 1.68672 0
M  V30 1589 O 156.055 -1.6779 0.98371 0
M  V30 1590 C 156.338 0.741752 3.52378 0
M  V30 1591 C 156.191 2.2368 3.9024 0
M  V30 1592 C 157.51 0.208838 4.39604 0
M  V30 1593 H 154.629 0.176955 0.715441 0
M  V30 1594 H 157.271 1.09229 1.55464 0
M  V30 1595 H 155.421 0.223149 3.87859 0
M  V30 1596 H 157.093 2.82273 3.64856 0
M  V30 1597 H 155.336 2.70901 3.38814 0
M  V30 1598 H 156.007 2.3685 4.98604 0
M  V30 1599 H 158.483 0.652529 4.10952 0
M  V30 1600 H 157.359 0.419336 5.47296 0
M  V30 1601 H 157.62 -0.889275 4.33064 0
M  V30 1602 N 156.679 -1.44442 0.630414 0
M  V30 1603 C 157.926 -2.02052 0.134617 0
M  V30 1604 C 158.254 -1.49576 -1.24327 0
M  V30 1605 O 157.509 -0.669806 -1.83881 0
M  V30 1606 C 157.808 -3.57332 0.0697835 0
M  V30 1607 C 157.474 -4.29058 1.38635 0
M  V30 1608 C 156.136 -4.4837 1.74694 0
M  V30 1609 C 158.488 -4.69872 2.25543 0
M  V30 1610 C 155.816 -5.05756 2.97369 0
M  V30 1611 C 158.168 -5.28616 3.47487 0
M  V30 1612 C 156.832 -5.46147 3.8377 0
M  V30 1613 H 156.102 -0.739361 0.0492598 0
M  V30 1614 H 158.749 -1.73217 0.816586 0
M  V30 1615 H 157.054 -3.85577 -0.695553 0
M  V30 1616 H 158.751 -3.99637 -0.330344 0
M  V30 1617 H 155.341 -4.14357 1.09574 0
M  V30 1618 H 159.525 -4.54666 1.98979 0
M  V30 1619 H 154.781 -5.17515 3.25558 0
M  V30 1620 H 158.955 -5.59192 4.15063 0
M  V30 1621 H 156.582 -5.9038 4.7891 0
M  V30 1622 N 158.157 -0.370918 -1.53173 0
M  V30 1623 C 159.105 0.488101 -2.27421 0
M  V30 1624 C 160.099 1.07884 -1.30604 0
M  V30 1625 O 161.305 1.02143 -1.48212 0
M  V30 1626 H 157.68 0.176134 -0.731082 0
M  V30 1627 H 159.651 -0.159815 -2.97972 0
M  V30 1628 C 158.4 1.61306 -3.08019 0
M  V30 1629 H 157.723 1.1678 -3.82364 0
M  V30 1630 H 159.163 2.18872 -3.63141 0
M  V30 1631 C 157.622 2.55848 -2.19188 0
M  V30 1632 O 158.152 3.58799 -1.80626 0
M  V30 1633 N 156.358 2.2516 -1.83715 0
M  V30 1634 H 155.905 1.41476 -2.15273 0
M  V30 1635 H 155.863 2.8867 -1.24567 0
M  V30 1636 N 159.635 1.57281 -0.100228 0
M  V30 1637 C 160.598 2.13158 0.842398 0
M  V30 1638 C 161.598 1.06202 1.20738 0
M  V30 1639 O 162.788 1.32066 1.13597 0
M  V30 1640 C 159.92 2.65639 2.13655 0
M  V30 1641 H 161.113 2.97766 0.357114 0
M  V30 1642 H 158.666 1.5559 0.148823 0
M  V30 1643 H 159.401 1.84566 2.66657 0
M  V30 1644 H 159.186 3.43844 1.88451 0
M  V30 1645 H 160.676 3.08846 2.81077 0
M  V30 1646 N 161.113 -0.173488 1.56642 0
M  V30 1647 C 162.359 -0.891784 1.8214 0
M  V30 1648 C 162.692 -1.8199 0.677736 0
M  V30 1649 O 161.967 -1.91842 -0.320446 0
M  V30 1650 C 162.25 -1.68933 3.18015 0
M  V30 1651 C 162.103 -0.784487 4.42906 0
M  V30 1652 C 163.422 -2.65748 3.50808 0
M  V30 1653 H 160.541 -0.322761 0.662567 0
M  V30 1654 H 163.183 -0.158095 1.89341 0
M  V30 1655 H 161.333 -2.31482 3.12007 0
M  V30 1656 H 163.005 -0.172046 4.60979 0
M  V30 1657 H 161.248 -0.0924117 4.33702 0
M  V30 1658 H 161.919 -1.37799 5.34524 0
M  V30 1659 H 164.395 -2.13327 3.57255 0
M  V30 1660 H 163.271 -3.18619 4.4696 0
M  V30 1661 H 163.532 -3.45842 2.75401 0
M  V30 1662 N 162.591 -1.51276 -0.441967 0
M  V30 1663 C 163.838 -1.63715 -1.19179 0
M  V30 1664 C 164.166 -0.351175 -1.91303 0
M  V30 1665 O 163.421 0.664524 -1.84072 0
M  V30 1666 C 163.72 -2.78746 -2.23686 0
M  V30 1667 C 163.386 -4.18189 -1.68607 0
M  V30 1668 C 162.048 -4.56125 -1.53308 0
M  V30 1669 C 164.4 -5.05222 -1.28062 0
M  V30 1670 C 161.728 -5.78804 -0.959317 0
M  V30 1671 C 164.08 -6.28476 -0.721162 0
M  V30 1672 C 162.744 -6.65188 -0.55504 0
M  V30 1673 H 162.014 -0.599076 -0.436106 0
M  V30 1674 H 164.661 -1.85296 -0.48351 0
M  V30 1675 H 162.966 -2.51369 -3.00535 0
M  V30 1676 H 164.663 -2.8557 -2.81515 0
M  V30 1677 H 161.253 -3.88277 -1.8149 0
M  V30 1678 H 165.437 -4.76524 -1.38704 0
M  V30 1679 H 160.693 -6.05899 -0.81833 0
M  V30 1680 H 164.867 -6.95259 -0.398458 0
M  V30 1681 H 162.494 -7.60123 -0.108311 0
M  V30 1682 N 164.069 0.697108 -1.41344 0
M  V30 1683 C 165.017 1.83237 -1.43272 0
M  V30 1684 C 166.011 1.66522 -0.310947 0
M  V30 1685 O 167.217 1.73402 -0.482899 0
M  V30 1686 H 163.592 0.603802 -0.448249 0
M  V30 1687 H 165.563 1.78727 -2.38954 0
M  V30 1688 C 164.312 3.21245 -1.33029 0
M  V30 1689 H 163.635 3.34723 -2.18633 0
M  V30 1690 H 165.075 4.00763 -1.38439 0
M  V30 1691 C 163.534 3.36873 -0.0424635 0
M  V30 1692 O 164.064 3.91177 0.913421 0
M  V30 1693 N 162.27 2.90581 0.0331145 0
M  V30 1694 H 161.817 2.46577 -0.745506 0
M  V30 1695 H 161.775 3.01416 0.894199 0
M  V30 1696 N 165.547 1.27147 0.931209 0
M  V30 1697 C 166.51 1.09615 2.01289 0
M  V30 1698 C 167.51 0.0412581 1.60747 0
M  V30 1699 O 168.7 0.285545 1.71844 0
M  V30 1700 C 165.832 0.669447 3.34262 0
M  V30 1701 H 167.025 2.05662 2.18273 0
M  V30 1702 H 164.578 1.09885 1.11153 0
M  V30 1703 H 165.313 -0.292572 3.22978 0
M  V30 1704 H 165.098 1.43127 3.65044 0
M  V30 1705 H 166.588 0.568921 4.13706 0
M  V30 1706 N 167.025 -1.13721 1.09112 0
M  V30 1707 C 167.988 -2.17222 0.731241 0
M  V30 1708 C 168.988 -1.59035 -0.237566 0
M  V30 1709 O 170.178 -1.74192 -0.0161704 0
M  V30 1710 C 167.31 -3.40804 0.0808443 0
M  V30 1711 H 168.503 -2.50573 1.64783 0
M  V30 1712 H 166.056 -1.28493 0.889897 0
M  V30 1713 H 166.791 -3.1304 -0.847127 0
M  V30 1714 H 166.576 -3.84306 0.777896 0
M  V30 1715 H 168.066 -4.1731 -0.155657 0
M  V30 1716 N 168.503 -0.877838 -1.30888 0
M  V30 1717 C 169.435 -0.296607 -2.27273 0
M  V30 1718 C 170.448 0.544799 -1.53414 0
M  V30 1719 O 171.637 0.365511 -1.74718 0
M  V30 1720 C 168.737 0.597481 -3.33592 0
M  V30 1721 C 167.91 -0.213251 -4.3688 0
M  V30 1722 C 166.969 0.610208 -5.2265 0
M  V30 1723 O 165.995 0.035441 -5.69189 0
M  V30 1724 N 167.197 1.92071 -5.47804 0
M  V30 1725 H 169.962 -1.12492 -2.77787 0
M  V30 1726 H 167.523 -0.740105 -1.43993 0
M  V30 1727 H 169.515 1.15425 -3.87891 0
M  V30 1728 H 168.085 1.32647 -2.83061 0
M  V30 1729 H 167.305 -0.951466 -3.82545 0
M  V30 1730 H 168.593 -0.769262 -5.02951 0
M  V30 1731 H 167.991 2.4107 -5.11763 0
M  V30 1732 H 166.548 2.42508 -6.05007 0
M  V30 1733 N 169.982 1.44106 -0.638065 0
M  V30 1734 C 171.229 2.01978 -0.14533 0
M  V30 1735 C 171.557 1.50234 1.23532 0
M  V30 1736 O 170.812 0.679548 1.83523 0
M  V30 1737 C 171.111 3.5729 -0.0887327 0
M  V30 1738 C 170.777 4.28317 -1.40909 0
M  V30 1739 C 169.439 4.47437 -1.77069 0
M  V30 1740 C 171.791 4.6867 -2.28031 0
M  V30 1741 C 169.119 5.04171 -3.00047 0
M  V30 1742 C 171.471 5.26766 -3.50286 0
M  V30 1743 C 170.135 5.44104 -3.86661 0
M  V30 1744 H 169.405 0.739089 -0.0531801 0
M  V30 1745 H 172.052 1.72781 -0.825761 0
M  V30 1746 H 170.357 3.8594 0.675095 0
M  V30 1747 H 172.054 3.99807 0.309145 0
M  V30 1748 H 168.644 4.1377 -1.1177 0
M  V30 1749 H 172.828 4.53604 -2.01388 0
M  V30 1750 H 168.084 5.15782 -3.28298 0
M  V30 1751 H 172.258 5.56983 -4.18023 0
M  V30 1752 H 169.885 5.87832 -4.82034 0
M  V30 1753 N 171.46 0.379036 1.52974 0
M  V30 1754 C 172.706 -0.199244 2.02422 0
M  V30 1755 C 173.061 -1.4532 1.26095 0
M  V30 1756 O 172.354 -1.88377 0.34996 0
M  V30 1757 C 172.548 -0.53096 3.53434 0
M  V30 1758 C 172.377 0.689298 4.44386 0
M  V30 1759 C 171.147 1.20546 4.9071 0
M  V30 1760 C 173.345 1.55856 4.90116 0
M  V30 1761 N 171.327 2.38434 5.65705 0
M  V30 1762 C 172.698 2.58396 5.63588 0
M  V30 1763 C 174.753 1.57986 4.7217 0
M  V30 1764 C 173.456 3.62939 6.21022 0
M  V30 1765 C 175.482 2.6143 5.30479 0
M  V30 1766 C 174.844 3.62693 6.03849 0
M  V30 1767 H 170.943 -0.0352671 0.781204 0
M  V30 1768 H 173.527 0.526614 1.87443 0
M  V30 1769 H 171.698 -1.22588 3.68547 0
M  V30 1770 H 173.43 -1.0955 3.89591 0
M  V30 1771 H 170.185 0.768022 4.67331 0
M  V30 1772 H 170.609 2.98055 6.07859 0
M  V30 1773 H 175.251 0.810475 4.14959 0
M  V30 1774 H 172.969 4.40751 6.77321 0
M  V30 1775 H 176.555 2.63949 5.18481 0
M  V30 1776 H 175.435 4.41424 6.48163 0
M  V30 1777 N 172.938 -1.57226 0.108567 0
M  V30 1778 C 174.215 -1.86333 -0.594939 0
M  V30 1779 C 174.595 -1.00788 -1.85486 0
M  V30 1780 O 173.943 -0.0839293 -2.28346 0
M  V30 1781 C 174.153 -3.37265 -0.897405 0
M  V30 1782 C 175.501 -4.05629 -1.25501 0
M  V30 1783 O 176.525 -3.42224 -0.987998 0
M  V30 1784 O 175.384 -5.17531 -1.75567 0
M  V30 1785 H 172.478 -0.771018 -0.2991 0
M  V30 1786 H 175.024 -1.69102 0.142283 0
M  V30 1787 H 173.796 -3.913 -0.00413806 0
M  V30 1788 H 173.419 -3.59889 -1.69014 0
M  V30 1789 N 174.416 0.165178 -1.56732 0
M  V30 1790 C 175.664 0.879068 -1.8198 0
M  V30 1791 C 175.985 1.82514 -0.686561 0
M  V30 1792 O 175.255 1.93694 0.293146 0
M  V30 1793 H 173.835 0.327608 -0.671329 0
M  V30 1794 H 176.497 0.163526 -1.94213 0
M  V30 1795 H 175.593 1.45228 -2.76252 0
M  V30 1796 N 175.894 1.51508 0.433938 0
M  V30 1797 C 177.31 1.39759 0.770682 0
M  V30 1798 C 177.51 0.482594 1.95636 0
M  V30 1799 O 176.566 -0.0609691 2.52426 0
M  V30 1800 C 177.879 2.81851 1.04787 0
M  V30 1801 C 179.427 2.91025 1.1521 0
M  V30 1802 C 179.902 4.34032 1.46219 0
M  V30 1803 N 181.393 4.37154 1.53136 0
M  V30 1804 C 182.128 5.4484 1.78709 0
M  V30 1805 N 181.624 6.62682 2.02051 0
M  V30 1806 N 183.417 5.32324 1.80519 0
M  V30 1807 H 175.568 2.09548 -0.346892 0
M  V30 1808 H 177.831 0.943446 -0.0928074 0
M  V30 1809 H 177.537 3.50815 0.249304 0
M  V30 1810 H 177.411 3.21386 1.97461 0
M  V30 1811 H 179.798 2.22257 1.94128 0
M  V30 1812 H 179.879 2.54983 0.204281 0
M  V30 1813 H 179.523 5.03351 0.678274 0
M  V30 1814 H 179.453 4.6759 2.42212 0
M  V30 1815 H 181.944 3.52197 1.36987 0
M  V30 1816 H 182.257 7.40543 2.20943 0
M  V30 1817 H 180.602 6.65791 1.99366 0
M  V30 1818 H 183.793 4.39246 1.61805 0
M  V30 1819 H 183.966 6.16328 2.00111 0
M  V30 1820 N 177.372 -0.689602 1.41712 0
M  V30 1821 C 178.335 -1.78521 1.43746 0
M  V30 1822 C 179.335 -1.57436 0.327191 0
M  V30 1823 O 180.525 -1.64 0.587348 0
M  V30 1824 C 177.657 -3.16971 1.25467 0
M  V30 1825 H 178.85 -1.78108 2.41283 0
M  V30 1826 H 176.403 -0.89781 1.27942 0
M  V30 1827 H 177.138 -3.23019 0.287948 0
M  V30 1828 H 176.923 -3.33678 2.05917 0
M  V30 1829 H 178.413 -3.96935 1.2974 0
M  V30 1830 N 178.85 -1.27639 -0.924453 0
M  V30 1831 C 179.797 -1.10644 -2.0255 0
M  V30 1832 C 180.767 -0.00658438 -1.66099 0
M  V30 1833 O 181.952 -0.16952 -1.90045 0
M  V30 1834 C 179.092 -0.76309 -3.36557 0
M  V30 1835 C 178.205 -1.94091 -3.85944 0
M  V30 1836 C 177.34 -1.53914 -5.08413 0
M  V30 1837 C 176.379 -2.68425 -5.50104 0
M  V30 1838 N 175.516 -2.28815 -6.63768 0
M  V30 1839 H 180.356 -2.04858 -2.16419 0
M  V30 1840 H 177.893 -1.01974 -1.06017 0
M  V30 1841 H 179.851 -0.544822 -4.13627 0
M  V30 1842 H 178.481 0.142102 -3.22487 0
M  V30 1843 H 177.533 -2.27162 -3.05125 0
M  V30 1844 H 178.845 -2.7998 -4.12811 0
M  V30 1845 H 177.999 -1.28231 -5.92994 0
M  V30 1846 H 176.738 -0.651391 -4.8333 0
M  V30 1847 H 175.743 -2.94819 -4.64071 0
M  V30 1848 H 176.968 -3.57826 -5.7718 0
M  V30 1849 H 174.914 -1.42495 -6.40337 0
M  V30 1850 H 174.831 -3.08242 -6.90306 0
M  V30 1851 H 176.099 -2.06387 -7.51681 0
M  V30 1852 N 180.328 1.1314 -1.09713 0
M  V30 1853 C 181.605 1.80762 -0.747302 0
M  V30 1854 C 181.985 1.96663 0.767265 0
M  V30 1855 O 181.333 1.53706 1.69076 0
M  V30 1856 C 181.543 3.15606 -1.48975 0
M  V30 1857 C 182.891 3.90914 -1.65746 0
M  V30 1858 O 183.915 3.25239 -1.45251 0
M  V30 1859 O 182.774 5.08718 -1.9967 0
M  V30 1860 H 179.868 0.782103 -0.268782 0
M  V30 1861 H 182.414 1.20041 -1.19951 0
M  V30 1862 H 181.186 2.99278 -2.52088 0
M  V30 1863 H 180.809 3.84029 -1.02991 0
M  V30 1864 N 181.806 0.884767 1.30421 0
M  V30 1865 C 182.736 0.367574 2.30589 0
M  V30 1866 C 183.717 -0.549464 1.60981 0
M  V30 1867 O 184.902 -0.46336 1.88591 0
M  V30 1868 C 182.032 -0.418944 3.44764 0
M  V30 1869 C 180.986 0.406316 4.26067 0
M  V30 1870 C 180.312 -0.506793 5.32293 0
M  V30 1871 C 181.612 1.64832 4.95608 0
M  V30 1872 H 183.306 1.20462 2.74097 0
M  V30 1873 H 180.852 0.580695 1.31772 0
M  V30 1874 H 182.805 -0.791395 4.13902 0
M  V30 1875 H 181.529 -1.28964 3.0006 0
M  V30 1876 H 180.188 0.760903 3.58617 0
M  V30 1877 H 179.836 -1.37519 4.83836 0
M  V30 1878 H 179.536 0.0415828 5.87585 0
M  V30 1879 H 181.06 -0.875764 6.04287 0
M  V30 1880 H 182.474 1.34646 5.57264 0
M  V30 1881 H 180.871 2.13688 5.60765 0
M  V30 1882 H 181.941 2.39284 4.21748 0
M  V30 1883 N 183.284 -1.43765 0.645699 0
M  V30 1884 C 184.532 -2.01499 0.155731 0
M  V30 1885 C 184.853 -1.51151 -1.232 0
M  V30 1886 O 184.123 -0.721044 -1.82148 0
M  V30 1887 H 182.703 -0.745003 0.0545817 0
M  V30 1888 H 185.365 -1.76075 0.835677 0
M  V30 1889 H 184.461 -3.1181 0.134577 0
M  V30 1890 N 184.763 -0.387143 -1.52771 0
M  V30 1891 C 185.673 0.456442 -2.30117 0
M  V30 1892 C 186.689 1.07342 -1.36944 0
M  V30 1893 O 187.865 1.07971 -1.70013 0
M  V30 1894 C 184.93 1.56957 -3.09136 0
M  V30 1895 C 183.991 0.977916 -4.18014 0
M  V30 1896 C 183.224 2.038 -4.93256 0
M  V30 1897 O 183.447 3.25271 -4.68567 0
M  V30 1898 O 182.381 1.6565 -5.78657 0
M  V30 1899 H 186.207 -0.17359 -3.03203 0
M  V30 1900 H 183.792 -0.150919 -1.48636 0
M  V30 1901 H 185.674 2.21628 -3.58412 0
M  V30 1902 H 184.349 2.18461 -2.38865 0
M  V30 1903 H 183.256 0.294525 -3.72939 0
M  V30 1904 H 184.589 0.407128 -4.90513 0
M  V30 1905 N 186.241 1.57166 -0.116904 0
M  V30 1906 C 187.173 2.12271 0.864507 0
M  V30 1907 C 188.186 1.06494 1.23138 0
M  V30 1908 O 189.375 1.33873 1.18069 0
M  V30 1909 C 186.475 2.60564 2.16702 0
M  V30 1910 C 185.648 3.90416 1.97216 0
M  V30 1911 C 184.707 4.24329 3.11178 0
M  V30 1912 O 183.733 4.93182 2.84184 0
M  V30 1913 N 184.935 3.8148 4.37554 0
M  V30 1914 H 187.7 2.97102 0.393726 0
M  V30 1915 H 185.261 1.61759 0.0675805 0
M  V30 1916 H 187.253 2.80282 2.91932 0
M  V30 1917 H 185.823 1.80623 2.55135 0
M  V30 1918 H 185.043 3.79627 1.06192 0
M  V30 1919 H 186.331 4.75327 1.81499 0
M  V30 1920 H 185.729 3.25943 4.62361 0
M  V30 1921 H 184.286 4.06311 5.09661 0
M  V30 1922 N 187.719 -0.156864 1.56817 0
M  V30 1923 C 188.682 -1.17781 1.96622 0
M  V30 1924 C 189.682 -1.36401 0.851555 0
M  V30 1925 O 190.872 -1.33561 1.11836 0
M  V30 1926 C 188.004 -2.54008 2.27361 0
M  V30 1927 H 189.197 -0.836564 2.87996 0
M  V30 1928 H 186.75 -0.39985 1.51099 0
M  V30 1929 H 187.485 -2.9312 1.38748 0
M  V30 1930 H 187.27 -2.41856 3.08623 0
M  V30 1931 H 188.76 -3.27558 2.59029 0
M  V30 1932 N 189.197 -1.51736 -0.425897 0
M  V30 1933 C 190.144 -1.73875 -1.51776 0
M  V30 1934 C 191.114 -0.580702 -1.55618 0
M  V30 1935 O 192.299 -0.81641 -1.72451 0
M  V30 1936 C 189.439 -1.88012 -2.89388 0
M  V30 1937 C 188.552 -3.15606 -2.94986 0
M  V30 1938 C 187.687 -3.20271 -4.23793 0
M  V30 1939 C 186.726 -4.42134 -4.23302 0
M  V30 1940 N 185.863 -4.44284 -5.43651 0
M  V30 1941 H 190.703 -2.67071 -1.32201 0
M  V30 1942 H 188.24 -1.32351 -0.642008 0
M  V30 1943 H 190.198 -1.9419 -3.69251 0
M  V30 1944 H 188.828 -0.98213 -3.07496 0
M  V30 1945 H 187.88 -3.18681 -2.07717 0
M  V30 1946 H 189.192 -4.05486 -2.90486 0
M  V30 1947 H 188.346 -3.25428 -5.12036 0
M  V30 1948 H 187.085 -2.28299 -4.30965 0
M  V30 1949 H 186.09 -4.3714 -3.3345 0
M  V30 1950 H 187.315 -5.35382 -4.17783 0
M  V30 1951 H 185.261 -3.55188 -5.51523 0
M  V30 1952 H 185.178 -5.27988 -5.41078 0
M  V30 1953 H 186.446 -4.53649 -6.33895 0
M  V30 1954 N 190.675 0.682077 -1.42076 0
M  V30 1955 C 191.923 1.4393 -1.41876 0
M  V30 1956 C 192.244 1.94971 -0.0335599 0
M  V30 1957 O 191.514 1.72591 0.926773 0
M  V30 1958 H 190.094 0.534085 -0.522267 0
M  V30 1959 H 192.756 0.806427 -1.77434 0
M  V30 1960 H 191.852 2.29588 -2.11414 0
M  V30 1961 N 192.153 1.28127 0.917671 0
M  V30 1962 C 193.564 1.13622 1.48145 0
M  V30 1963 C 193.915 -0.275207 1.9426 0
M  V30 1964 O 193.04 -1.1691 1.82102 0
M  V30 1965 C 193.635 2.05648 2.69248 0
M  V30 1966 C 192.194 1.95219 3.21818 0
M  V30 1967 C 191.341 1.97618 1.94532 0
M  V30 1968 H 194.292 1.40874 0.730772 0
M  V30 1969 H 194.313 1.61818 3.44377 0
M  V30 1970 H 193.825 3.08365 2.35653 0
M  V30 1971 H 191.926 0.955244 3.60147 0
M  V30 1972 H 192.039 2.81976 3.87333 0
M  V30 1973 H 190.403 1.41973 2.11461 0
M  V30 1974 H 191.186 3.02007 1.63238 0
M  V30 1975 N 193.631 -1.12557 1.10312 0
M  V30 1976 C 194.88 -1.83395 0.839588 0
M  V30 1977 C 195.193 -1.84939 -0.636929 0
M  V30 1978 O 196.399 -2.51761 -1.01631 0
M  V30 1979 C 194.855 -3.29303 1.45215 0
M  V30 1980 C 194.463 -3.36122 2.96186 0
M  V30 1981 C 196.207 -4.05121 1.26796 0
M  V30 1982 C 194.114 -4.76357 3.50483 0
M  V30 1983 H 193.044 -0.687133 0.310425 0
M  V30 1984 H 195.695 -1.26746 1.32694 0
M  V30 1985 H 194.077 -3.85812 0.892469 0
M  V30 1986 H 195.251 -2.89559 3.58458 0
M  V30 1987 H 193.566 -2.73776 3.13745 0
M  V30 1988 H 196.163 -5.08668 1.64806 0
M  V30 1989 H 196.506 -4.15773 0.209409 0
M  V30 1990 H 197.039 -3.54967 1.79563 0
M  V30 1991 H 193.778 -4.70899 4.55998 0
M  V30 1992 H 193.298 -5.23377 2.92978 0
M  V30 1993 H 194.977 -5.45294 3.48228 0
M  V30 1994 N 195.109 -0.891671 -1.2995 0
M  V30 1995 C 196.041 -0.320695 -2.26945 0
M  V30 1996 C 197.054 0.528497 -1.53983 0
M  V30 1997 O 198.243 0.346959 -1.75096 0
M  V30 1998 C 195.343 0.562066 -3.34207 0
M  V30 1999 C 194.516 -0.259576 -4.36629 0
M  V30 2000 C 193.575 0.554739 -5.23268 0
M  V30 2001 O 192.601 -0.0249311 -5.69195 0
M  V30 2002 N 193.803 1.8625 -5.4981 0
M  V30 2003 H 196.568 -1.15432 -2.76578 0
M  V30 2004 H 194.129 -0.755336 -1.432 0
M  V30 2005 H 196.121 1.11304 -3.89093 0
M  V30 2006 H 194.691 1.29637 -2.84452 0
M  V30 2007 H 193.911 -0.991986 -3.81514 0
M  V30 2008 H 195.199 -0.822564 -5.02107 0
M  V30 2009 H 194.597 2.35628 -5.14292 0
M  V30 2010 H 193.154 2.36078 -6.07545 0
M  V30 2011 N 196.587 1.43421 -0.653314 0
M  V30 2012 C 197.535 2.32546 0.0501531 0
M  V30 2013 C 198.529 1.48617 0.812985 0
M  V30 2014 O 199.735 1.64825 0.723375 0
M  V30 2015 H 196.11 0.751185 0.0350032 0
M  V30 2016 H 198.081 2.89602 -0.719261 0
M  V30 2017 C 196.83 3.32925 1.00279 0
M  V30 2018 H 196.153 3.97532 0.425236 0
M  V30 2019 H 197.593 3.9792 1.46409 0
M  V30 2020 C 196.052 2.63532 2.09886 0
M  V30 2021 O 196.582 2.45092 3.18265 0
M  V30 2022 N 194.788 2.22905 1.86445 0
M  V30 2023 H 194.335 2.38103 0.98309 0
M  V30 2024 H 194.293 1.76805 2.59976 0
M  V30 2025 N 198.065 0.39524 1.52563 0
M  V30 2026 C 199.29 -0.187456 2.06551 0
M  V30 2027 C 199.715 -1.39249 1.26457 0
M  V30 2028 O 199.073 -1.78947 0.291151 0
M  V30 2029 C 199.121 -0.529985 3.56684 0
M  V30 2030 O 198.225 -1.62307 3.79118 0
M  V30 2031 H 197.566 -0.0202537 0.663691 0
M  V30 2032 H 200.096 0.564426 1.96661 0
M  V30 2033 H 200.106 -0.792598 4.00227 0
M  V30 2034 H 198.781 0.350987 4.14416 0
M  V30 2035 H 197.358 -1.3537 3.47461 0
M  V30 2036 N 199.544 -1.57102 0.125237 0
M  V30 2037 C 200.79 -1.95697 -0.532035 0
M  V30 2038 C 201.123 -1.009 -1.6593 0
M  V30 2039 O 200.398 -0.047347 -1.94442 0
M  V30 2040 C 200.681 -3.44181 -1.05884 0
M  V30 2041 C 200.534 -4.49752 0.0654392 0
M  V30 2042 C 201.853 -3.94655 -1.9477 0
M  V30 2043 H 198.972 -0.711571 -0.191925 0
M  V30 2044 H 201.614 -1.88923 0.20206 0
M  V30 2045 H 199.764 -3.50085 -1.68442 0
M  V30 2046 H 201.436 -4.55943 0.700982 0
M  V30 2047 H 199.679 -4.27653 0.727709 0
M  V30 2048 H 200.35 -5.50924 -0.344505 0
M  V30 2049 H 202.826 -3.91094 -1.42074 0
M  V30 2050 H 201.702 -4.99057 -2.28546 0
M  V30 2051 H 201.963 -3.35718 -2.87656 0
M  V30 2052 N 201.022 0.148545 -1.56898 0
M  V30 2053 C 201.932 1.20293 -2.01412 0
M  V30 2054 C 202.948 1.47107 -0.929273 0
M  V30 2055 O 204.124 1.58807 -1.23863 0
M  V30 2056 C 201.189 2.51682 -2.38447 0
M  V30 2057 C 200.25 2.32529 -3.60872 0
M  V30 2058 C 199.483 3.57653 -3.96132 0
M  V30 2059 O 199.706 4.63771 -3.32073 0
M  V30 2060 O 198.64 3.50408 -4.89385 0
M  V30 2061 H 202.466 0.855025 -2.91416 0
M  V30 2062 H 200.051 0.357151 -1.45068 0
M  V30 2063 H 201.933 3.29147 -2.63135 0
M  V30 2064 H 200.608 2.86006 -1.51599 0
M  V30 2065 H 199.515 1.53019 -3.41373 0
M  V30 2066 H 200.848 2.03121 -4.48333 0
M  V30 2067 N 202.5 1.5196 0.417844 0
M  V30 2068 C 203.433 1.69387 1.52916 0
M  V30 2069 C 204.411 0.541419 1.53321 0
M  V30 2070 O 205.595 0.767695 1.72159 0
M  V30 2071 C 202.722 1.72525 2.91467 0
M  V30 2072 C 201.768 2.93967 3.09008 0
M  V30 2073 S 202.601 4.54461 2.83242 0
M  V30 2074 C 203.757 4.60372 4.24038 0
M  V30 2075 H 203.99 2.63382 1.37903 0
M  V30 2076 H 201.523 1.41889 0.608845 0
M  V30 2077 H 203.481 1.75018 3.7132 0
M  V30 2078 H 202.142 0.796733 3.03827 0
M  V30 2079 H 201.335 2.92619 4.10353 0
M  V30 2080 H 200.937 2.89316 2.37007 0
M  V30 2081 H 203.229 4.37213 5.17544 0
M  V30 2082 H 204.172 5.62273 4.30412 0
M  V30 2083 H 204.58 3.89492 4.08602 0
M  V30 2084 N 203.978 -0.674533 1.42435 0
M  V30 2085 C 204.928 -1.7807 1.4239 0
M  V30 2086 C 205.912 -1.58169 0.295202 0
M  V30 2087 O 207.104 -1.68643 0.537449 0
M  V30 2088 C 204.233 -3.16532 1.32901 0
M  V30 2089 C 203.319 -3.42055 2.50717 0
M  V30 2090 N 203.71 -3.38162 3.76139 0
M  V30 2091 C 202.008 -3.72692 2.44983 0
M  V30 2092 C 202.709 -3.63177 4.54398 0
M  V30 2093 N 201.685 -3.83954 3.84812 0
M  V30 2094 H 205.487 -1.73454 2.37257 0
M  V30 2095 H 203.001 -0.875381 1.36788 0
M  V30 2096 H 204.998 -3.958 1.30951 0
M  V30 2097 H 203.658 -3.22345 0.390363 0
M  V30 2098 H 204.669 -3.18057 4.0873 0
M  V30 2099 H 201.346 -3.85749 1.59699 0
M  V30 2100 H 202.736 -3.66125 5.63384 0
M  V30 2101 N 205.456 -1.28612 -0.910864 0
M  V30 2102 C 206.681 -1.1891 -1.69927 0
M  V30 2103 C 207.106 0.248372 -1.86453 0
M  V30 2104 O 206.464 1.17961 -1.37676 0
M  V30 2105 C 206.512 -1.89578 -3.06745 0
M  V30 2106 O 205.616 -1.20521 -3.94396 0
M  V30 2107 H 204.957 -0.412632 -0.520222 0
M  V30 2108 H 207.487 -1.69985 -1.1387 0
M  V30 2109 H 207.497 -1.97597 -3.56958 0
M  V30 2110 H 206.172 -2.94136 -2.94035 0
M  V30 2111 H 204.749 -1.20684 -3.52831 0
M  V30 2112 N 206.934 1.1197 -1.10907 0
M  V30 2113 C 208.162 1.87402 -0.876824 0
M  V30 2114 C 208.577 1.79894 0.573025 0
M  V30 2115 O 207.934 1.17629 1.39534 0
M  V30 2116 C 207.985 3.36428 -1.32282 0
M  V30 2117 O 207.706 3.43765 -2.71582 0
M  V30 2118 C 209.207 4.28783 -1.12518 0
M  V30 2119 H 206.427 0.592793 -0.314384 0
M  V30 2120 H 208.971 1.41649 -1.47499 0
M  V30 2121 H 207.126 3.79706 -0.768229 0
M  V30 2122 H 207.54 4.3652 -2.90776 0
M  V30 2123 H 209.014 5.31613 -1.48633 0
M  V30 2124 H 209.491 4.39153 -0.0642394 0
M  V30 2125 H 210.097 3.91291 -1.66648 0
M  V30 2126 N 208.412 0.89855 1.29475 0
M  V30 2127 C 209.823 0.572537 1.77705 0
M  V30 2128 C 210.174 -0.911778 1.73727 0
M  V30 2129 O 209.299 -1.71288 1.32247 0
M  V30 2130 C 209.894 1.03252 3.22683 0
M  V30 2131 C 208.453 0.757687 3.68695 0
M  V30 2132 C 207.6 1.20787 2.49612 0
M  V30 2133 H 210.551 1.08139 1.16153 0
M  V30 2134 H 210.572 0.367307 3.78723 0
M  V30 2135 H 210.084 2.11285 3.25546 0
M  V30 2136 H 208.185 -0.310079 3.71308 0
M  V30 2137 H 208.298 1.35476 4.59547 0
M  V30 2138 H 206.662 0.626888 2.46865 0
M  V30 2139 H 207.445 2.29622 2.55203 0
M  V30 2140 N 209.89 -1.43072 0.660911 0
M  V30 2141 C 210.822 -2.29108 -0.0647641 0
M  V30 2142 C 211.835 -1.42928 -0.779448 0
M  V30 2143 O 213.024 -1.66788 -0.635921 0
M  V30 2144 C 210.124 -3.20032 -1.11503 0
M  V30 2145 C 209.297 -4.34792 -0.476955 0
M  V30 2146 C 208.356 -5.06534 -1.42513 0
M  V30 2147 O 207.382 -5.61538 -0.930771 0
M  V30 2148 N 208.584 -5.1075 -2.75889 0
M  V30 2149 H 211.349 -2.92029 0.673731 0
M  V30 2150 H 208.91 -1.53846 0.50427 0
M  V30 2151 H 210.902 -3.64892 -1.75032 0
M  V30 2152 H 209.472 -2.58658 -1.75541 0
M  V30 2153 H 208.692 -3.92752 0.337572 0
M  V30 2154 H 209.98 -5.0879 -0.0318525 0
M  V30 2155 H 209.378 -4.67447 -3.18606 0
M  V30 2156 H 207.935 -5.59302 -3.347 0
M  V30 2157 N 211.368 -0.403325 -1.52352 0
M  V30 2158 C 212.298 0.416205 -2.29761 0
M  V30 2159 C 213.279 1.05123 -1.33728 0
M  V30 2160 O 214.464 1.06134 -1.62632 0
M  V30 2161 C 211.594 1.53624 -3.11475 0
M  V30 2162 C 210.548 1.02653 -4.15507 0
M  V30 2163 C 209.874 2.23971 -4.85532 0
M  V30 2164 C 211.174 0.08463 -5.22231 0
M  V30 2165 H 212.868 -0.229701 -2.98518 0
M  V30 2166 H 210.414 -0.111913 -1.43564 0
M  V30 2167 H 212.367 2.1165 -3.64393 0
M  V30 2168 H 211.091 2.20994 -2.40477 0
M  V30 2169 H 209.75 0.46871 -3.63591 0
M  V30 2170 H 209.398 2.89883 -4.11068 0
M  V30 2171 H 209.098 1.90521 -5.55856 0
M  V30 2172 H 210.622 2.82614 -5.41259 0
M  V30 2173 H 212.036 0.573509 -5.70424 0
M  V30 2174 H 210.433 -0.160783 -5.99885 0
M  V30 2175 H 211.503 -0.86237 -4.7717 0
M  V30 2176 N 212.846 1.57033 -0.133567 0
M  V30 2177 C 214.092 1.95976 0.521649 0
M  V30 2178 C 214.425 1.01779 1.65393 0
M  V30 2179 O 213.7 0.0576581 1.94415 0
M  V30 2180 C 213.983 3.44738 1.04057 0
M  V30 2181 C 213.836 4.49711 -0.0892897 0
M  V30 2182 C 215.155 3.95682 1.92675 0
M  V30 2183 H 212.274 0.712579 0.188149 0
M  V30 2184 H 214.916 1.88813 -0.212076 0
M  V30 2185 H 213.066 3.50973 1.66583 0
M  V30 2186 H 214.738 4.55565 -0.725152 0
M  V30 2187 H 212.981 4.27261 -0.750378 0
M  V30 2188 H 213.652 5.51099 0.315284 0
M  V30 2189 H 216.128 3.91841 1.39998 0
M  V30 2190 H 215.004 5.00262 2.25897 0
M  V30 2191 H 215.265 3.37239 2.85872 0
M  V30 2192 N 214.325 -0.140222 1.56975 0
M  V30 2193 C 215.235 -1.19223 2.02047 0
M  V30 2194 C 216.251 -1.46612 0.937062 0
M  V30 2195 O 217.427 -1.58148 1.24704 0
M  V30 2196 C 214.492 -2.50414 2.39778 0
M  V30 2197 C 213.553 -2.30612 3.621 0
M  V30 2198 C 212.786 -3.55547 3.98023 0
M  V30 2199 O 213.009 -4.62004 3.34528 0
M  V30 2200 O 211.943 -3.47808 4.91237 0
M  V30 2201 H 215.769 -0.839559 2.91865 0
M  V30 2202 H 213.354 -0.349453 1.45256 0
M  V30 2203 H 215.236 -3.27747 2.64877 0
M  V30 2204 H 213.911 -2.85198 1.53114 0
M  V30 2205 H 212.818 -1.51207 3.4218 0
M  V30 2206 H 214.151 -2.00741 4.49404 0
M  V30 2207 N 215.803 -1.52179 -0.40978 0
M  V30 2208 C 216.735 -1.71703 -1.51825 0
M  V30 2209 C 217.748 -0.597445 -1.51441 0
M  V30 2210 O 218.937 -0.872582 -1.55719 0
M  V30 2211 C 216.037 -1.74171 -2.90719 0
M  V30 2212 C 215.21 -3.03156 -3.15302 0
M  V30 2213 C 214.269 -2.97445 -4.34065 0
M  V30 2214 O 213.295 -3.71352 -4.31377 0
M  V30 2215 N 214.497 -2.15191 -5.39141 0
M  V30 2216 H 217.262 -2.67334 -1.35472 0
M  V30 2217 H 214.823 -1.50409 -0.599069 0
M  V30 2218 H 216.815 -1.67884 -3.68235 0
M  V30 2219 H 215.385 -0.860166 -3.00533 0
M  V30 2220 H 214.605 -3.23097 -2.25836 0
M  V30 2221 H 215.893 -3.88484 -3.28569 0
M  V30 2222 H 215.291 -1.54573 -5.44173 0
M  V30 2223 H 213.848 -2.1476 -6.15403 0
M  V30 2224 N 217.281 0.66697 -1.42791 0
M  V30 2225 C 218.509 1.45505 -1.47091 0
M  V30 2226 C 218.924 1.8861 -0.0845873 0
M  V30 2227 O 218.281 1.58632 0.90234 0
M  V30 2228 C 218.332 2.69906 -2.40485 0
M  V30 2229 O 218.053 2.28608 -3.73725 0
M  V30 2230 C 219.554 3.63396 -2.53886 0
M  V30 2231 H 216.774 0.447459 -0.500022 0
M  V30 2232 H 219.318 0.818866 -1.8739 0
M  V30 2233 H 217.473 3.29696 -2.03419 0
M  V30 2234 H 217.887 3.08997 -4.23817 0
M  V30 2235 H 219.361 4.47387 -3.2334 0
M  V30 2236 H 219.838 4.09824 -1.57927 0
M  V30 2237 H 220.444 3.09495 -2.91706 0
M  V30 2238 N 218.759 1.29093 0.90403 0
M  V30 2239 C 219.689 1.16401 2.02418 0
M  V30 2240 C 220.67 0.0593085 1.69997 0
M  V30 2241 O 221.855 0.238021 1.92736 0
M  V30 2242 C 218.985 0.835233 3.37107 0
M  V30 2243 C 217.939 1.89578 3.83724 0
M  V30 2244 C 217.265 1.42041 5.15489 0
M  V30 2245 C 218.565 3.30394 4.04521 0
M  V30 2246 H 220.259 2.10109 2.13295 0
M  V30 2247 H 217.805 1.01157 1.02486 0
M  V30 2248 H 219.758 0.733169 4.14973 0
M  V30 2249 H 218.482 -0.137543 3.2631 0
M  V30 2250 H 217.141 1.98715 3.08071 0
M  V30 2251 H 216.789 0.436426 5.01103 0
M  V30 2252 H 216.489 2.12964 5.4765 0
M  V30 2253 H 218.013 1.33176 5.959 0
M  V30 2254 H 219.427 3.24123 4.72882 0
M  V30 2255 H 217.824 3.99237 4.48029 0
M  V30 2256 H 218.894 3.73692 3.09002 0
M  V30 2257 N 220.237 -1.11381 1.11499 0
M  V30 2258 C 221.485 -1.8277 0.862524 0
M  V30 2259 C 221.806 -1.85097 -0.613534 0
M  V30 2260 O 221.076 -1.32198 -1.4457 0
M  V30 2261 H 219.656 -0.676823 0.316101 0
M  V30 2262 H 222.318 -1.34816 1.4075 0
M  V30 2263 H 221.414 -2.86614 1.23527 0
M  V30 2264 N 221.715 -0.905404 -1.28997 0
M  V30 2265 C 222.94 -0.549175 -1.99997 0
M  V30 2266 C 223.365 0.860276 -1.67275 0
M  V30 2267 O 222.723 1.57355 -0.900502 0
M  V30 2268 C 222.771 -0.755185 -3.52604 0
M  V30 2269 O 221.875 0.189692 -4.11964 0
M  V30 2270 H 221.216 -0.213899 -0.628604 0
M  V30 2271 H 223.746 -1.21856 -1.64354 0
M  V30 2272 H 223.756 -0.662045 -4.02593 0
M  V30 2273 H 222.431 -1.78271 -3.75755 0
M  V30 2274 H 221.008 0.0485257 -3.72868 0
M  V30 2275 N 223.193 1.4272 -0.668489 0
M  V30 2276 C 224.442 2.00846 -0.185389 0
M  V30 2277 C 224.755 1.53442 1.21305 0
M  V30 2278 O 225.961 2.03944 1.79218 0
M  V30 2279 C 224.417 3.58805 -0.280591 0
M  V30 2280 C 224.025 4.15198 -1.68268 0
M  V30 2281 C 225.769 4.24255 0.14412 0
M  V30 2282 C 223.676 5.655 -1.73099 0
M  V30 2283 H 222.606 0.751145 -0.0655475 0
M  V30 2284 H 225.257 1.63516 -0.832752 0
M  V30 2285 H 223.639 3.93608 0.434553 0
M  V30 2286 H 224.813 3.91866 -2.42441 0
M  V30 2287 H 223.128 3.62176 -2.05469 0
M  V30 2288 H 225.725 5.34547 0.128086 0
M  V30 2289 H 226.068 3.99277 1.17827 0
M  V30 2290 H 226.601 3.94389 -0.519798 0
M  V30 2291 H 223.34 5.95268 -2.74475 0
M  V30 2292 H 222.86 5.90842 -1.03274 0
M  V30 2293 H 224.539 6.29808 -1.48158 0
M  V30 2294 N 224.671 0.411399 1.52136 0
M  V30 2295 C 226.082 -0.0576826 1.86611 0
M  V30 2296 C 226.433 -1.44238 1.33003 0
M  V30 2297 O 225.558 -2.05759 0.670228 0
M  V30 2298 C 226.153 -0.111448 3.38617 0
M  V30 2299 C 224.712 -0.52487 3.72723 0
M  V30 2300 C 223.859 0.299176 2.75681 0
M  V30 2301 H 226.81 0.628368 1.4573 0
M  V30 2302 H 226.831 -0.926252 3.69054 0
M  V30 2303 H 226.343 0.896488 3.77604 0
M  V30 2304 H 224.444 -1.53936 3.39315 0
M  V30 2305 H 224.557 -0.267681 4.78352 0
M  V30 2306 H 222.921 -0.238814 2.53578 0
M  V30 2307 H 223.704 1.3055 3.17508 0
M  V30 2308 N 226.149 -1.5696 0.141893 0
M  V30 2309 C 227.059 -2.20066 -0.812905 0
M  V30 2310 C 228.075 -1.18344 -1.27557 0
M  V30 2311 O 229.251 -1.50902 -1.33381 0
M  V30 2312 C 226.316 -2.80583 -2.03652 0
M  V30 2313 C 225.377 -3.97414 -1.62359 0
M  V30 2314 C 224.61 -4.55036 -2.78887 0
M  V30 2315 O 224.833 -4.11538 -3.94959 0
M  V30 2316 O 223.767 -5.45376 -2.54653 0
M  V30 2317 H 227.593 -3.02157 -0.305746 0
M  V30 2318 H 225.178 -1.49159 -0.0848799 0
M  V30 2319 H 227.06 -3.19067 -2.75272 0
M  V30 2320 H 225.735 -2.01508 -2.5333 0
M  V30 2321 H 224.642 -3.63656 -0.877775 0
M  V30 2322 H 225.975 -4.77994 -1.17401 0
M  V30 2323 N 227.627 0.131896 -1.57047 0
M  V30 2324 C 228.857 0.855219 -1.88068 0
M  V30 2325 C 229.265 1.74557 -0.729817 0
M  V30 2326 O 228.608 1.81083 0.308962 0
M  V30 2327 C 228.67 1.75119 -3.13964 0
M  V30 2328 C 228.334 1.03646 -4.45091 0
M  V30 2329 C 229.331 0.383276 -5.18485 0
M  V30 2330 C 227.016 1.02148 -4.91804 0
M  V30 2331 C 229.01 -0.275347 -6.36805 0
M  V30 2332 C 226.697 0.359047 -6.10044 0
M  V30 2333 C 227.695 -0.288222 -6.82392 0
M  V30 2334 O 227.383 -0.94011 -7.98384 0
M  V30 2335 H 227.115 0.251864 -0.627328 0
M  V30 2336 H 229.669 0.124782 -2.05021 0
M  V30 2337 H 227.899 2.52295 -2.9306 0
M  V30 2338 H 229.588 2.3478 -3.31109 0
M  V30 2339 H 230.354 0.386562 -4.83457 0
M  V30 2340 H 226.233 1.5147 -4.35405 0
M  V30 2341 H 229.777 -0.781148 -6.93213 0
M  V30 2342 H 225.674 0.35348 -6.44531 0
M  V30 2343 H 226.442 -0.84329 -8.14144 0
M  V30 2344 N 229.106 1.52395 0.401703 0
M  V30 2345 C 230.352 1.67065 1.14966 0
M  V30 2346 C 230.685 0.403052 1.89971 0
M  V30 2347 O 229.96 -0.598774 1.85054 0
M  V30 2348 C 230.243 2.8975 2.13815 0
M  V30 2349 C 230.096 4.26578 1.42658 0
M  V30 2350 C 231.415 3.07965 3.14397 0
M  V30 2351 H 228.534 0.607968 0.416587 0
M  V30 2352 H 231.176 1.84965 0.434511 0
M  V30 2353 H 229.326 2.74619 2.74803 0
M  V30 2354 H 230.998 4.53451 0.847329 0
M  V30 2355 H 229.241 4.27639 0.72849 0
M  V30 2356 H 229.912 5.08483 2.14823 0
M  V30 2357 H 232.388 3.22043 2.63491 0
M  V30 2358 H 231.264 3.95308 3.80819 0
M  V30 2359 H 231.525 2.21611 3.82545 0
M  V30 2360 N 230.584 -0.659388 1.43143 0
M  V30 2361 C 231.861 -1.41627 1.34912 0
M  V30 2362 C 232.241 -2.11099 -0.00607785 0
M  V30 2363 O 231.589 -2.04353 -1.02236 0
M  V30 2364 C 231.799 -2.40604 2.52805 0
M  V30 2365 C 233.147 -3.04789 2.95616 0
M  V30 2366 O 234.171 -2.50932 2.52807 0
M  V30 2367 O 233.03 -4.02421 3.69756 0
M  V30 2368 H 230.124 -0.63246 0.532844 0
M  V30 2369 H 232.67 -0.686814 1.5518 0
M  V30 2370 H 231.442 -1.88174 3.43083 0
M  V30 2371 H 231.065 -3.21009 2.34604 0
M  V30 2372 N 232.062 -1.29571 -0.897171 0
M  V30 2373 C 233.025 -1.14913 -1.98312 0
M  V30 2374 C 234.025 -0.0838629 -1.60581 0
M  V30 2375 O 235.215 -0.331006 -1.71026 0
M  V30 2376 C 232.347 -0.757835 -3.3237 0
M  V30 2377 H 233.54 -2.11377 -2.12743 0
M  V30 2378 H 231.093 -1.12793 -1.08201 0
M  V30 2379 H 231.828 0.206837 -3.2364 0
M  V30 2380 H 231.613 -1.52755 -3.61121 0
M  V30 2381 H 233.103 -0.678408 -4.12053 0
M  V30 2382 N 233.54 1.10788 -1.12088 0
M  V30 2383 C 234.787 1.82671 -0.873931 0
M  V30 2384 C 235.115 1.85004 0.600311 0
M  V30 2385 O 234.37 1.30365 1.45957 0
M  V30 2386 C 234.669 3.29294 -1.38926 0
M  V30 2387 C 234.335 3.47113 -2.87791 0
M  V30 2388 C 232.997 3.51684 -3.28439 0
M  V30 2389 C 235.349 3.52808 -3.83635 0
M  V30 2390 C 232.677 3.59513 -4.63646 0
M  V30 2391 C 235.029 3.62169 -5.18668 0
M  V30 2392 C 233.693 3.65003 -5.58864 0
M  V30 2393 H 232.963 0.668441 -0.319794 0
M  V30 2394 H 235.61 1.30613 -1.40045 0
M  V30 2395 H 233.915 3.83894 -0.783122 0
M  V30 2396 H 235.612 3.83416 -1.17443 0
M  V30 2397 H 232.202 3.4423 -2.5535 0
M  V30 2398 H 236.386 3.4853 -3.53328 0
M  V30 2399 H 231.642 3.59987 -4.94185 0
M  V30 2400 H 235.816 3.6552 -5.92763 0
M  V30 2401 H 233.443 3.70822 -6.63623 0
M  V30 2402 N 235.018 0.912232 1.28515 0
M  V30 2403 C 236.434 0.610159 1.47476 0
M  V30 2404 C 236.634 -0.844955 1.82928 0
M  V30 2405 O 235.69 -1.62416 1.93332 0
M  V30 2406 C 237.003 1.54675 2.57868 0
M  V30 2407 C 238.551 1.55331 2.71738 0
M  V30 2408 C 239.026 2.47649 3.85272 0
M  V30 2409 N 240.517 2.45767 3.92623 0
M  V30 2410 C 241.252 3.13896 4.79851 0
M  V30 2411 N 240.748 3.9135 5.71679 0
M  V30 2412 N 242.541 3.02991 4.73448 0
M  V30 2413 H 234.692 1.85318 1.03783 0
M  V30 2414 H 236.955 0.794777 0.516753 0
M  V30 2415 H 236.661 2.5841 2.38574 0
M  V30 2416 H 236.535 1.27671 3.54937 0
M  V30 2417 H 238.922 0.52335 2.90422 0
M  V30 2418 H 239.003 1.86378 1.75205 0
M  V30 2419 H 238.647 3.50745 3.67342 0
M  V30 2420 H 238.577 2.13904 4.81199 0
M  V30 2421 H 241.068 1.89503 3.26951 0
M  V30 2422 H 241.381 4.40359 6.35062 0
M  V30 2423 H 239.726 3.95455 5.71524 0
M  V30 2424 H 242.917 2.41987 4.007 0
M  V30 2425 H 243.09 3.5636 5.41213 0
M  V30 2426 N 236.496 -1.42363 0.676048 0
M  V30 2427 C 237.443 -2.308 -0.00150904 0
M  V30 2428 C 238.413 -1.46032 -0.791444 0
M  V30 2429 O 239.598 -1.74861 -0.76344 0
M  V30 2430 C 236.738 -3.31883 -0.945919 0
M  V30 2431 C 235.851 -4.31741 -0.149675 0
M  V30 2432 C 234.986 -5.19898 -1.08995 0
M  V30 2433 C 234.025 -6.11434 -0.285465 0
M  V30 2434 N 233.162 -6.92138 -1.17851 0
M  V30 2435 H 238.002 -2.88187 0.758455 0
M  V30 2436 H 235.539 -1.41952 0.38576 0
M  V30 2437 H 237.497 -3.89019 -1.50731 0
M  V30 2438 H 236.127 -2.76093 -1.6725 0
M  V30 2439 H 235.179 -3.76713 0.528359 0
M  V30 2440 H 236.491 -4.96534 0.474866 0
M  V30 2441 H 235.645 -5.81772 -1.72123 0
M  V30 2442 H 234.384 -4.55284 -1.74837 0
M  V30 2443 H 233.389 -5.48627 0.359018 0
M  V30 2444 H 234.614 -6.78097 0.368883 0
M  V30 2445 H 232.56 -6.30152 -1.82332 0
M  V30 2446 H 232.477 -7.53542 -0.609082 0
M  V30 2447 H 233.745 -7.58499 -1.79722 0
M  V30 2448 N 237.974 -0.419461 -1.51915 0
M  V30 2449 C 238.937 0.389116 -2.25873 0
M  V30 2450 C 239.937 0.964924 -1.28631 0
M  V30 2451 O 241.127 0.842179 -1.52489 0
M  V30 2452 C 238.259 1.54874 -3.03689 0
M  V30 2453 H 239.452 -0.258799 -2.98781 0
M  V30 2454 H 237.005 -0.172209 -1.55348 0
M  V30 2455 H 237.74 2.23323 -2.35154 0
M  V30 2456 H 237.525 1.14223 -3.75094 0
M  V30 2457 H 239.015 2.12046 -3.59759 0
M  V30 2458 N 239.452 1.56882 -0.150215 0
M  V30 2459 C 240.699 1.96228 0.500093 0
M  V30 2460 C 241.027 1.03522 1.64661 0
M  V30 2461 O 240.282 0.0650683 1.95592 0
M  V30 2462 C 240.581 3.41801 1.04437 0
M  V30 2463 C 240.247 4.50897 0.0159671 0
M  V30 2464 C 238.909 4.8046 -0.266731 0
M  V30 2465 C 241.261 5.16703 -0.683192 0
M  V30 2466 C 238.589 5.73135 -1.25434 0
M  V30 2467 C 240.941 6.10441 -1.65964 0
M  V30 2468 C 239.605 6.38382 -1.95 0
M  V30 2469 H 238.875 0.718048 0.182997 0
M  V30 2470 H 241.522 1.90019 -0.237724 0
M  V30 2471 H 239.827 3.44857 1.85959 0
M  V30 2472 H 241.524 3.69573 1.55618 0
M  V30 2473 H 238.114 4.27891 0.246485 0
M  V30 2474 H 242.298 4.93993 -0.477983 0
M  V30 2475 H 237.554 5.93074 -1.48571 0
M  V30 2476 H 241.728 6.60507 -2.20689 0
M  V30 2477 H 239.355 7.09996 -2.71679 0
M  V30 2478 N 240.93 -0.123565 1.57115 0
M  V30 2479 C 242.341 -0.681198 1.73829 0
M  V30 2480 C 242.692 -1.80535 0.768214 0
M  V30 2481 O 241.817 -2.16317 -0.0599103 0
M  V30 2482 C 242.412 -1.24246 3.15196 0
M  V30 2483 C 240.971 -1.74643 3.33432 0
M  V30 2484 C 240.118 -0.644284 2.69711 0
M  V30 2485 H 243.069 0.102315 1.5837 0
M  V30 2486 H 243.09 -2.11216 3.16493 0
M  V30 2487 H 242.602 -0.424062 3.85776 0
M  V30 2488 H 240.703 -2.58974 2.67886 0
M  V30 2489 H 240.816 -1.85902 4.41562 0
M  V30 2490 H 239.18 -1.07676 2.3082 0
M  V30 2491 H 239.963 0.163058 3.42913 0
M  V30 2492 N 242.408 -1.52605 -0.393616 0
M  V30 2493 C 243.355 -1.77055 -1.48054 0
M  V30 2494 C 244.325 -0.61358 -1.54352 0
M  V30 2495 O 245.51 -0.852806 -1.70681 0
M  V30 2496 C 242.65 -1.94108 -2.85335 0
M  V30 2497 C 241.763 -3.21792 -2.88226 0
M  V30 2498 C 240.898 -3.29188 -4.16904 0
M  V30 2499 C 239.937 -4.51013 -4.13828 0
M  V30 2500 N 239.074 -4.55716 -5.34105 0
M  V30 2501 H 243.914 -2.69815 -1.26506 0
M  V30 2502 H 241.451 -1.33683 -0.61379 0
M  V30 2503 H 243.409 -2.01979 -3.65049 0
M  V30 2504 H 242.039 -1.04713 -3.05344 0
M  V30 2505 H 241.091 -3.23015 -2.00911 0
M  V30 2506 H 242.403 -4.11557 -2.8182 0
M  V30 2507 H 241.557 -3.36216 -5.05018 0
M  V30 2508 H 240.296 -2.37389 -4.26026 0
M  V30 2509 H 239.301 -4.44115 -3.24102 0
M  V30 2510 H 240.526 -5.44123 -4.06333 0
M  V30 2511 H 238.472 -3.66807 -5.43865 0
M  V30 2512 H 238.389 -5.39346 -5.29756 0
M  V30 2513 H 239.657 -4.66993 -6.2413 0
M  V30 2514 N 243.887 0.651787 -1.4349 0
M  V30 2515 C 244.85 1.74647 -1.48429 0
M  V30 2516 C 245.85 1.56513 -0.368817 0
M  V30 2517 O 247.04 1.62385 -0.630623 0
M  V30 2518 C 244.172 3.13533 -1.33827 0
M  V30 2519 H 245.365 1.71649 -2.4592 0
M  V30 2520 H 242.918 0.863573 -1.30277 0
M  V30 2521 H 243.653 3.22142 -0.37349 0
M  V30 2522 H 243.438 3.28101 -2.14691 0
M  V30 2523 H 244.928 3.93356 -1.40218 0
M  V30 2524 N 245.365 1.30045 0.890287 0
M  V30 2525 C 246.613 1.18327 1.63839 0
M  V30 2526 C 246.934 -0.263455 1.93212 0
M  V30 2527 O 246.204 -1.17856 1.56482 0
M  V30 2528 H 244.784 0.434933 0.607324 0
M  V30 2529 H 247.446 1.631 1.06698 0
M  V30 2530 H 246.542 1.74024 2.59079 0
M  V30 2531 N 246.843 -1.10192 1.12674 0
M  V30 2532 C 247.79 -2.16606 0.796906 0
M  V30 2533 C 248.76 -1.64394 -0.237476 0
M  V30 2534 O 249.945 -1.90474 -0.111484 0
M  V30 2535 C 247.085 -3.44116 0.26043 0
M  V30 2536 C 246.198 -4.10268 1.35293 0
M  V30 2537 C 245.333 -5.25507 0.775621 0
M  V30 2538 C 244.372 -5.83567 1.84706 0
M  V30 2539 N 243.509 -6.90179 1.28829 0
M  V30 2540 H 248.349 -2.44163 1.70846 0
M  V30 2541 H 245.886 -1.19846 0.85295 0
M  V30 2542 H 247.844 -4.17143 -0.0686814 0
M  V30 2543 H 246.474 -3.16901 -0.614274 0
M  V30 2544 H 245.526 -3.35184 1.79877 0
M  V30 2545 H 246.838 -4.4946 2.16303 0
M  V30 2546 H 245.992 -6.05398 0.397327 0
M  V30 2547 H 244.731 -4.87656 -0.0656581 0
M  V30 2548 H 243.736 -5.02344 2.23452 0
M  V30 2549 H 244.961 -6.23482 2.69161 0
M  V30 2550 H 242.907 -6.54322 0.468881 0
M  V30 2551 H 242.824 -7.28097 2.03497 0
M  V30 2552 H 244.092 -7.73844 0.937311 0
M  V30 2553 N 248.321 -0.919034 -1.28029 0
M  V30 2554 C 249.732 -0.600735 -1.76771 0
M  V30 2555 C 250.083 0.884024 -1.75156 0
M  V30 2556 O 249.208 1.69163 -1.34956 0
M  V30 2557 C 249.803 -1.08372 -3.21 0
M  V30 2558 C 248.362 -0.816248 -3.67443 0
M  V30 2559 C 247.509 -1.24742 -2.47658 0
M  V30 2560 H 250.46 -1.09974 -1.14418 0
M  V30 2561 H 250.481 -0.427512 -3.78091 0
M  V30 2562 H 249.993 -2.16437 -3.22144 0
M  V30 2563 H 248.094 0.250968 -3.71754 0
M  V30 2564 H 248.207 -1.4277 -4.57333 0
M  V30 2565 H 246.571 -0.666083 -2.45836 0
M  V30 2566 H 247.354 -2.33653 -2.51518 0
M  V30 2567 N 249.799 1.42003 -0.683588 0
M  V30 2568 C 251.045 2.01712 -0.209825 0
M  V30 2569 C 251.378 1.53968 1.18353 0
M  V30 2570 O 250.653 0.745661 1.79639 0
M  V30 2571 C 250.936 3.59202 -0.254197 0
M  V30 2572 C 250.789 4.17102 -1.68363 0
M  V30 2573 C 252.108 4.38344 0.392709 0
M  V30 2574 H 249.227 0.732891 -0.0777189 0
M  V30 2575 H 251.869 1.68909 -0.87004 0
M  V30 2576 H 250.019 3.87278 0.307954 0
M  V30 2577 H 251.691 3.99946 -2.29871 0
M  V30 2578 H 249.934 3.72597 -2.22157 0
M  V30 2579 H 250.605 5.26249 -1.6663 0
M  V30 2580 H 253.081 4.16011 -0.0859162 0
M  V30 2581 H 251.957 5.47901 0.331063 0
M  V30 2582 H 252.218 4.16887 1.47164 0
M  V30 2583 N 251.277 0.427512 1.51691 0
M  V30 2584 C 252.502 -0.143601 2.06902 0
M  V30 2585 C 252.927 -1.36536 1.29382 0
M  V30 2586 O 252.285 -1.78289 0.329043 0
M  V30 2587 C 252.333 -0.454207 3.57728 0
M  V30 2588 O 251.437 -1.54228 3.82475 0
M  V30 2589 H 250.778 -0.00617128 0.663971 0
M  V30 2590 H 253.308 0.606014 1.95419 0
M  V30 2591 H 253.318 -0.707525 4.01818 0
M  V30 2592 H 251.993 0.438812 4.13579 0
M  V30 2593 H 250.57 -1.2797 3.50254 0
M  V30 2594 N 252.755 -1.56801 0.158532 0
M  V30 2595 C 254.002 -1.9649 -0.489679 0
M  V30 2596 C 254.33 -1.04394 -1.6411 0
M  V30 2597 O 253.585 -0.0754401 -1.95555 0
M  V30 2598 C 253.884 -3.4235 -1.02623 0
M  V30 2599 C 253.55 -4.50899 0.00794526 0
M  V30 2600 C 252.212 -4.80312 0.292207 0
M  V30 2601 C 254.564 -5.16333 0.710584 0
M  V30 2602 C 251.892 -5.72461 1.28472 0
M  V30 2603 C 254.244 -6.09553 1.69199 0
M  V30 2604 C 252.908 -6.37339 1.98383 0
M  V30 2605 H 252.178 -0.719009 -0.179186 0
M  V30 2606 H 254.825 -1.8989 0.247798 0
M  V30 2607 H 253.13 -3.45838 -1.84128 0
M  V30 2608 H 254.827 -3.70393 -1.53656 0
M  V30 2609 H 251.417 -4.28015 -0.22379 0
M  V30 2610 H 255.601 -4.93732 0.504174 0
M  V30 2611 H 250.857 -5.92278 1.51714 0
M  V30 2612 H 255.031 -6.59327 2.24189 0
M  V30 2613 H 252.658 -7.08546 2.7544 0
M  V30 2614 N 254.233 0.115231 -1.57178 0
M  V30 2615 C 255.51 0.852873 -1.76027 0
M  V30 2616 C 255.89 1.97892 -0.73498 0
M  V30 2617 O 255.238 2.27232 0.24036 0
M  V30 2618 C 255.448 1.36608 -3.21153 0
M  V30 2619 C 256.796 1.81692 -3.83762 0
M  V30 2620 O 257.82 1.46278 -3.24779 0
M  V30 2621 O 256.679 2.47104 -4.87444 0
M  V30 2622 H 253.773 0.405296 -0.720877 0
M  V30 2623 H 256.319 0.0986785 -1.69413 0
M  V30 2624 H 255.091 0.558357 -3.87296 0
M  V30 2625 H 254.714 2.18287 -3.3232 0
M  V30 2626 N 255.711 1.52812 0.385517 0
M  V30 2627 C 256.659 1.78482 1.49155 0
M  V30 2628 C 257.653 0.652914 1.56312 0
M  V30 2629 O 258.859 0.835464 1.59436 0
M  V30 2630 H 255.234 0.5648 0.496493 0
M  V30 2631 H 257.205 2.71095 1.24699 0
M  V30 2632 C 255.954 1.97378 2.86247 0
M  V30 2633 H 255.277 2.83907 2.81491 0
M  V30 2634 H 256.717 2.19327 3.62866 0
M  V30 2635 C 255.176 0.74728 3.28508 0
M  V30 2636 O 255.706 -0.0736232 4.01633 0
M  V30 2637 N 253.912 0.576396 2.84826 0
M  V30 2638 H 253.459 1.24555 2.25486 0
M  V30 2639 H 253.417 -0.24288 3.1346 0
M  V30 2640 N 257.189 -0.644168 1.43834 0
M  V30 2641 C 258.122 -1.76906 1.44151 0
M  V30 2642 C 259.1 -1.59774 0.301857 0
M  V30 2643 O 260.284 -1.81834 0.496841 0
M  V30 2644 C 257.411 -3.14321 1.26174 0
M  V30 2645 C 256.457 -3.50134 2.43533 0
M  V30 2646 S 257.29 -3.49085 4.06079 0
M  V30 2647 C 258.446 -4.89142 3.90501 0
M  V30 2648 H 258.679 -1.76368 2.39336 0
M  V30 2649 H 256.212 -0.817624 1.30974 0
M  V30 2650 H 258.17 -3.93625 1.16489 0
M  V30 2651 H 256.831 -3.12412 0.325224 0
M  V30 2652 H 256.024 -4.50095 2.26783 0
M  V30 2653 H 255.626 -2.78264 2.4989 0
M  V30 2654 H 257.918 -5.78036 3.53385 0
M  V30 2655 H 258.861 -5.10945 4.90246 0
M  V30 2656 H 259.269 -4.63102 3.22795 0
M  V30 2657 N 258.668 -1.30515 -0.883378 0
M  V30 2658 C 259.631 -1.1701 -1.97082 0
M  V30 2659 C 260.631 -0.10089 -1.60483 0
M  V30 2660 O 261.821 -0.349127 -1.70666 0
M  V30 2661 C 258.953 -0.793045 -3.31547 0
M  V30 2662 H 260.146 -2.13622 -2.10489 0
M  V30 2663 H 257.699 -1.13935 -1.06998 0
M  V30 2664 H 258.434 0.172499 -3.23841 0
M  V30 2665 H 258.219 -1.56576 -3.5948 0
M  V30 2666 H 259.709 -0.722073 -4.1131 0
M  V30 2667 N 260.146 1.09593 -1.13257 0
M  V30 2668 C 261.076 2.18214 -0.830946 0
M  V30 2669 C 262.057 1.68812 0.208966 0
M  V30 2670 O 263.242 1.9408 0.0682666 0
M  V30 2671 C 260.372 3.46051 -0.294296 0
M  V30 2672 C 259.326 4.08778 -1.26826 0
M  V30 2673 C 258.652 5.31419 -0.591449 0
M  V30 2674 C 259.952 4.51476 -2.62615 0
M  V30 2675 H 261.646 2.43703 -1.73923 0
M  V30 2676 H 259.192 1.17128 -0.837675 0
M  V30 2677 H 261.145 4.2134 -0.0709606 0
M  V30 2678 H 259.869 3.20079 0.649366 0
M  V30 2679 H 258.528 3.35505 -1.47756 0
M  V30 2680 H 258.176 5.01727 0.357633 0
M  V30 2681 H 257.876 5.74341 -1.24123 0
M  V30 2682 H 259.4 6.09433 -0.377355 0
M  V30 2683 H 260.814 5.17999 -2.45663 0
M  V30 2684 H 259.211 5.05277 -3.23752 0
M  V30 2685 H 260.281 3.63962 -3.20406 0
M  V30 2686 N 261.624 0.925811 1.2754 0
M  V30 2687 C 262.587 0.428129 2.25166 0
M  V30 2688 C 263.587 -0.452261 1.54309 0
M  V30 2689 O 264.777 -0.253608 1.72344 0
M  V30 2690 C 261.909 -0.384749 3.38722 0
M  V30 2691 H 263.102 1.29066 2.70706 0
M  V30 2692 H 260.655 0.706323 1.3943 0
M  V30 2693 H 261.39 -1.26618 2.98561 0
M  V30 2694 H 261.175 0.246454 3.91325 0
M  V30 2695 H 262.665 -0.723389 4.11287 0
M  V30 2696 N 263.102 -1.41638 0.69111 0
M  V30 2697 C 264.351 -2.00526 0.217318 0
M  V30 2698 C 264.664 -1.55353 -1.18848 0
M  V30 2699 O 265.87 -2.06769 -1.75951 0
M  V30 2700 C 264.326 -3.58313 0.337639 0
M  V30 2701 C 263.934 -4.12469 1.74852 0
M  V30 2702 C 265.678 -4.24431 -0.0766066 0
M  V30 2703 C 263.585 -5.62675 1.82074 0
M  V30 2704 H 262.515 -0.750008 0.0774893 0
M  V30 2705 H 265.166 -1.6217 0.858661 0
M  V30 2706 H 263.548 -3.9425 -0.371879 0
M  V30 2707 H 264.722 -3.8796 2.48644 0
M  V30 2708 H 263.037 -3.58861 2.11205 0
M  V30 2709 H 265.634 -5.34683 -0.0430284 0
M  V30 2710 H 265.977 -4.01101 -1.1146 0
M  V30 2711 H 266.51 -3.93512 0.582476 0
M  V30 2712 H 263.249 -5.90826 2.83911 0
M  V30 2713 H 262.769 -5.89124 1.12661 0
M  V30 2714 H 264.448 -6.27371 1.58159 0
M  V30 2715 N 264.58 -0.43555 -1.51462 0
M  V30 2716 C 265.49 0.383001 -2.31453 0
M  V30 2717 C 266.506 1.02931 -1.4029 0
M  V30 2718 O 267.682 1.02507 -1.73362 0
M  V30 2719 C 264.747 1.47043 -3.13973 0
M  V30 2720 C 263.808 0.844433 -4.20913 0
M  V30 2721 C 263.041 1.88004 -4.9949 0
M  V30 2722 O 263.264 3.10199 -4.78678 0
M  V30 2723 O 262.198 1.47157 -5.83634 0
M  V30 2724 H 266.024 -0.269964 -3.02498 0
M  V30 2725 H 263.609 -0.19813 -1.4808 0
M  V30 2726 H 265.491 2.10113 -3.65281 0
M  V30 2727 H 264.166 2.10751 -2.45695 0
M  V30 2728 H 263.073 0.175729 -3.73687 0
M  V30 2729 H 264.406 0.250869 -4.9156 0
M  V30 2730 N 266.058 1.56714 -0.166846 0
M  V30 2731 C 267.021 2.16539 0.751232 0
M  V30 2732 C 268.021 1.11228 1.16125 0
M  V30 2733 O 269.211 1.36765 1.07894 0
M  V30 2734 C 266.343 2.74462 2.02196 0
M  V30 2735 H 267.536 2.99013 0.230499 0
M  V30 2736 H 265.089 1.56081 0.0826982 0
M  V30 2737 H 265.824 1.95709 2.58589 0
M  V30 2738 H 265.609 3.51527 1.73698 0
M  V30 2739 H 267.099 3.20489 2.67725 0
M  V30 2740 N 267.536 -0.106894 1.57237 0
M  V30 2741 C 268.766 -0.825191 1.89405 0
M  V30 2742 C 269.174 -1.73374 0.757496 0
M  V30 2743 O 268.517 -1.81552 -0.280115 0
M  V30 2744 C 268.579 -1.70102 3.1671 0
M  V30 2745 C 268.243 -0.965523 4.46684 0
M  V30 2746 C 269.24 -0.300741 5.19029 0
M  V30 2747 C 266.925 -0.943105 4.93367 0
M  V30 2748 C 268.919 0.376622 6.36286 0
M  V30 2749 C 266.606 -0.261949 6.10538 0
M  V30 2750 C 267.604 0.396748 6.81847 0
M  V30 2751 O 267.292 1.06701 7.96787 0
M  V30 2752 H 267.024 -0.241852 0.631255 0
M  V30 2753 H 269.578 -0.0921491 2.05193 0
M  V30 2754 H 267.808 -2.47601 2.97036 0
M  V30 2755 H 269.497 -2.29483 3.34802 0
M  V30 2756 H 270.263 -0.309599 4.84011 0
M  V30 2757 H 266.142 -1.44524 4.3776 0
M  V30 2758 H 269.686 0.891334 6.91882 0
M  V30 2759 H 265.583 -0.250896 6.45012 0
M  V30 2760 H 266.351 0.972707 8.127 0
M  V30 2761 N 269.014 -1.53014 -0.377408 0
M  V30 2762 C 269.924 -1.81557 -1.48574 0
M  V30 2763 C 270.94 -0.703102 -1.59162 0
M  V30 2764 O 272.116 -0.99192 -1.75279 0
M  V30 2765 C 269.181 -1.9889 -2.83978 0
M  V30 2766 C 268.242 -3.22801 -2.83016 0
M  V30 2767 C 267.475 -3.39298 -4.11962 0
M  V30 2768 O 267.698 -2.60345 -5.0752 0
M  V30 2769 O 266.632 -4.32604 -4.18494 0
M  V30 2770 H 270.458 -2.75695 -1.27382 0
M  V30 2771 H 268.043 -1.38248 -0.566373 0
M  V30 2772 H 269.925 -2.11931 -3.6423 0
M  V30 2773 H 268.6 -1.07942 -3.05172 0
M  V30 2774 H 267.507 -3.15193 -2.01505 0
M  V30 2775 H 268.84 -4.13632 -2.66775 0
M  V30 2776 N 270.492 0.636531 -1.44174 0
M  V30 2777 C 271.455 1.73063 -1.50273 0
M  V30 2778 C 272.455 1.56113 -0.385397 0
M  V30 2779 O 273.645 1.61707 -0.64781 0
M  V30 2780 C 270.777 3.12096 -1.37145 0
M  V30 2781 H 271.97 1.69031 -2.47727 0
M  V30 2782 H 269.523 0.849706 -1.31186 0
M  V30 2783 H 270.258 3.21728 -0.407636 0
M  V30 2784 H 270.043 3.25805 -2.18159 0
M  V30 2785 H 271.533 3.91846 -1.44382 0
M  V30 2786 N 271.97 1.30982 0.876444 0
M  V30 2787 C 273.198 1.23242 1.6619 0
M  V30 2788 C 273.613 -0.203345 1.87702 0
M  V30 2789 O 272.97 -1.13317 1.43057 0
M  V30 2790 C 273.021 1.96623 3.03351 0
M  V30 2791 O 272.742 3.34594 2.82804 0
M  V30 2792 C 274.243 1.95644 3.97792 0
M  V30 2793 H 271.463 0.426126 0.518322 0
M  V30 2794 H 274.007 1.7275 1.09442 0
M  V30 2795 H 272.162 1.50892 3.56806 0
M  V30 2796 H 272.576 3.71873 3.69879 0
M  V30 2797 H 274.05 2.51511 4.91372 0
M  V30 2798 H 274.527 0.937395 4.2908 0
M  V30 2799 H 275.133 2.41225 3.50272 0
M  V30 2800 N 273.449 -1.08991 1.13837 0
M  V30 2801 C 274.379 -2.17771 0.842507 0
M  V30 2802 C 275.36 -1.6892 -0.20001 0
M  V30 2803 O 276.545 -1.94113 -0.0579731 0
M  V30 2804 C 273.675 -3.4589 0.312644 0
M  V30 2805 C 272.629 -4.08099 1.28992 0
M  V30 2806 C 271.955 -5.31098 0.619623 0
M  V30 2807 C 273.255 -4.50077 2.65005 0
M  V30 2808 H 274.949 -2.42777 1.75213 0
M  V30 2809 H 272.495 -1.16682 0.843875 0
M  V30 2810 H 274.448 -4.21297 0.0933043 0
M  V30 2811 H 273.172 -3.20419 -0.632382 0
M  V30 2812 H 271.831 -3.34717 1.49533 0
M  V30 2813 H 271.479 -5.0191 -0.33102 0
M  V30 2814 H 271.179 -5.73674 1.27167 0
M  V30 2815 H 272.703 -6.09224 0.409669 0
M  V30 2816 H 274.117 -5.16688 2.48407 0
M  V30 2817 H 272.514 -5.03553 3.26427 0
M  V30 2818 H 273.584 -3.62257 3.22332 0
M  V30 2819 N 274.927 -0.932562 -1.27047 0
M  V30 2820 C 276.173 -0.576412 -1.94436 0
M  V30 2821 C 276.506 0.880891 -1.73072 0
M  V30 2822 O 275.781 1.62905 -1.06264 0
M  V30 2823 C 276.064 -0.909031 -3.48437 0
M  V30 2824 C 275.917 -2.42044 -3.79123 0
M  V30 2825 C 277.236 -0.418341 -4.38107 0
M  V30 2826 H 274.355 -0.210888 -0.706184 0
M  V30 2827 H 276.997 -1.16522 -1.50075 0
M  V30 2828 H 275.147 -0.407947 -3.86352 0
M  V30 2829 H 276.819 -2.99359 -3.50973 0
M  V30 2830 H 275.062 -2.86758 -3.25503 0
M  V30 2831 H 275.733 -2.6037 -4.86736 0
M  V30 2832 H 278.209 -0.847856 -4.0737 0
M  V30 2833 H 277.085 -0.679981 -5.44672 0
M  V30 2834 H 277.346 0.681642 -4.36814 0
M  V30 2835 N 276.405 1.4127 -0.698611 0
M  V30 2836 C 277.633 2.05503 -0.239992 0
M  V30 2837 C 278.048 1.52584 1.11191 0
M  V30 2838 O 277.405 0.675323 1.69545 0
M  V30 2839 C 277.456 3.60987 -0.192429 0
M  V30 2840 O 277.177 4.1195 -1.49094 0
M  V30 2841 C 278.678 4.42371 0.28681 0
M  V30 2842 H 275.898 0.661748 -0.111045 0
M  V30 2843 H 278.442 1.80987 -0.95205 0
M  V30 2844 H 276.597 3.84533 0.470472 0
M  V30 2845 H 277.011 5.06018 -1.38007 0
M  V30 2846 H 278.485 5.51344 0.26896 0
M  V30 2847 H 278.962 4.18699 1.32619 0
M  V30 2848 H 279.568 4.23897 -0.345201 0
M  V30 2849 N 277.883 0.443576 1.51229 0
M  V30 2850 C 279.294 -0.0180867 1.86691 0
M  V30 2851 C 279.645 -1.41384 1.36033 0
M  V30 2852 O 278.77 -2.04291 0.713722 0
M  V30 2853 C 279.365 -0.039597 3.38777 0
M  V30 2854 C 277.924 -0.445692 3.73752 0
M  V30 2855 C 277.071 0.357584 2.74985 0
M  V30 2856 H 280.022 0.659138 1.44364 0
M  V30 2857 H 280.043 -0.847761 3.70936 0
M  V30 2858 H 279.555 0.976382 3.75617 0
M  V30 2859 H 277.656 -1.46704 3.42503 0
M  V30 2860 H 277.769 -0.166155 4.78812 0
M  V30 2861 H 276.133 -0.184973 2.54027 0
M  V30 2862 H 276.916 1.37256 3.14668 0
M  V30 2863 N 279.361 -1.56624 0.175154 0
M  V30 2864 C 280.638 -1.88688 -0.515373 0
M  V30 2865 C 281.018 -1.08564 -1.81044 0
M  V30 2866 O 280.366 -0.180703 -2.27784 0
M  V30 2867 C 280.576 -3.40768 -0.753552 0
M  V30 2868 C 281.924 -4.10587 -1.08184 0
M  V30 2869 O 282.948 -3.46106 -0.841961 0
M  V30 2870 O 281.807 -5.24512 -1.53459 0
M  V30 2871 H 278.901 -0.78301 -0.26613 0
M  V30 2872 H 281.447 -1.68347 0.213877 0
M  V30 2873 H 280.219 -3.90965 0.161829 0
M  V30 2874 H 279.842 -3.66733 -1.53598 0
M  V30 2875 N 280.839 0.0985539 -1.57292 0
M  V30 2876 C 282.064 0.820196 -1.90493 0
M  V30 2877 C 282.489 1.71658 -0.769094 0
M  V30 2878 O 281.847 1.79133 0.279495 0
M  V30 2879 C 281.895 1.61242 -3.22542 0
M  V30 2880 O 280.999 2.72108 -3.09888 0
M  V30 2881 H 280.34 0.225547 -0.62452 0
M  V30 2882 H 282.87 0.0748159 -2.04463 0
M  V30 2883 H 282.88 1.99737 -3.55766 0
M  V30 2884 H 281.555 0.954535 -4.04798 0
M  V30 2885 H 280.132 2.36667 -2.88172 0
M  V30 2886 N 282.317 1.53212 0.369288 0
M  V30 2887 C 283.728 1.60943 0.946276 0
M  V30 2888 C 284.079 0.47452 1.90375 0
M  V30 2889 O 283.204 -0.399597 2.12679 0
M  V30 2890 C 283.799 2.91715 1.72302 0
M  V30 2891 C 282.358 3.01792 2.24941 0
M  V30 2892 C 281.505 2.56211 1.06072 0
M  V30 2893 H 284.456 1.58007 0.148198 0
M  V30 2894 H 284.477 2.79309 2.58393 0
M  V30 2895 H 283.989 3.74295 1.0259 0
M  V30 2896 H 282.09 2.23791 2.97906 0
M  V30 2897 H 282.203 4.06803 2.53077 0
M  V30 2898 H 280.567 2.10998 1.4266 0
M  V30 2899 H 281.35 3.41206 0.378639 0
M  V30 2900 N 283.795 -0.628877 1.44509 0
M  V30 2901 C 285.042 -1.38839 1.47411 0
M  V30 2902 C 285.37 -1.94202 0.10757 0
M  V30 2903 O 284.625 -1.74243 -0.890947 0
M  V30 2904 C 284.924 -2.56995 2.48371 0
M  V30 2905 C 284.59 -2.19908 3.93639 0
M  V30 2906 C 283.252 -2.09506 4.33198 0
M  V30 2907 C 285.604 -1.9064 4.85083 0
M  V30 2908 C 282.932 -1.68028 5.62124 0
M  V30 2909 C 285.284 -1.50655 6.14399 0
M  V30 2910 C 283.948 -1.38796 6.5291 0
M  V30 2911 H 283.218 -0.508048 0.539414 0
M  V30 2912 H 285.865 -0.712913 1.77735 0
M  V30 2913 H 284.17 -3.29786 2.11538 0
M  V30 2914 H 285.867 -3.15223 2.47861 0
M  V30 2915 H 282.457 -2.28922 3.62343 0
M  V30 2916 H 286.641 -1.97585 4.55273 0
M  V30 2917 H 281.897 -1.57452 5.90778 0
M  V30 2918 H 286.071 -1.27048 6.84713 0
M  V30 2919 H 283.698 -1.06429 7.52713 0
M  V30 2920 N 285.273 -1.31445 -0.869486 0
M  V30 2921 C 286.55 -1.11795 -1.60503 0
M  V30 2922 C 286.93 0.327168 -2.08549 0
M  V30 2923 O 286.278 1.32135 -1.8642 0
M  V30 2924 C 286.488 -2.13258 -2.76265 0
M  V30 2925 C 287.836 -2.45805 -3.46215 0
M  V30 2926 O 288.86 -2.11688 -2.86473 0
M  V30 2927 O 287.719 -3.04228 -4.5399 0
M  V30 2928 H 284.813 -0.430421 -0.706163 0
M  V30 2929 H 287.359 -1.42925 -0.914907 0
M  V30 2930 H 286.131 -3.10461 -2.3818 0
M  V30 2931 H 285.754 -1.83035 -3.52964 0
M  V30 2932 N 286.751 1.08385 -1.14413 0
M  V30 2933 C 287.681 2.17321 -0.854044 0
M  V30 2934 C 288.662 1.69024 0.191049 0
M  V30 2935 O 289.847 1.94141 0.0476779 0
M  V30 2936 C 286.977 3.45719 -0.330983 0
M  V30 2937 C 285.931 4.07409 -1.31155 0
M  V30 2938 C 285.257 5.30762 -0.64778 0
M  V30 2939 C 286.557 4.48665 -2.67388 0
M  V30 2940 H 288.251 2.41845 -1.76498 0
M  V30 2941 H 285.797 1.16233 -0.850051 0
M  V30 2942 H 287.75 4.21241 -0.115645 0
M  V30 2943 H 286.474 3.2075 0.615381 0
M  V30 2944 H 285.133 3.33919 -1.51306 0
M  V30 2945 H 284.781 5.02078 0.304398 0
M  V30 2946 H 284.481 5.72992 -1.30207 0
M  V30 2947 H 286.005 6.08998 -0.441972 0
M  V30 2948 H 287.419 5.15364 -2.51143 0
M  V30 2949 H 285.816 5.01814 -3.29093 0
M  V30 2950 H 286.886 3.60543 -3.24248 0
M  V30 2951 N 288.23 0.939286 1.26551 0
M  V30 2952 C 289.46 0.601663 1.97645 0
M  V30 2953 C 289.868 -0.827206 1.70159 0
M  V30 2954 O 289.211 -1.56291 0.965338 0
M  V30 2955 C 289.273 0.761725 3.51337 0
M  V30 2956 C 288.937 2.16487 4.0247 0
M  V30 2957 C 289.934 3.14016 4.14355 0
M  V30 2958 C 287.619 2.48494 4.36527 0
M  V30 2959 C 289.613 4.41654 4.59587 0
M  V30 2960 C 287.3 3.76364 4.81449 0
M  V30 2961 C 288.298 4.72758 4.92939 0
M  V30 2962 O 287.986 5.98352 5.36871 0
M  V30 2963 H 287.718 0.225758 0.637189 0
M  V30 2964 H 290.272 1.26178 1.62075 0
M  V30 2965 H 288.502 0.0444808 3.86674 0
M  V30 2966 H 290.191 0.427442 4.03643 0
M  V30 2967 H 290.957 2.90613 3.8829 0
M  V30 2968 H 286.836 1.74202 4.26819 0
M  V30 2969 H 290.38 5.16896 4.68471 0
M  V30 2970 H 286.277 3.99582 5.06956 0
M  V30 2971 H 287.045 6.01507 5.55096 0
M  V30 2972 N 289.708 -1.40897 0.706093 0
M  V30 2973 C 290.638 -2.33418 0.0620085 0
M  V30 2974 C 291.619 -1.52385 -0.755827 0
M  V30 2975 O 292.804 -1.80886 -0.706674 0
M  V30 2976 C 289.934 -3.36293 -0.867445 0
M  V30 2977 C 288.888 -4.27716 -0.155932 0
M  V30 2978 C 288.214 -5.2105 -1.20046 0
M  V30 2979 C 289.514 -5.12944 0.984149 0
M  V30 2980 H 291.208 -2.87527 0.83477 0
M  V30 2981 H 288.754 -1.38249 0.402875 0
M  V30 2982 H 290.707 -3.99949 -1.32735 0
M  V30 2983 H 289.431 -2.80556 -1.67199 0
M  V30 2984 H 288.09 -3.65498 0.284047 0
M  V30 2985 H 287.738 -4.61624 -1.99781 0
M  V30 2986 H 287.438 -5.83056 -0.729328 0
M  V30 2987 H 288.962 -5.87584 -1.66066 0
M  V30 2988 H 290.376 -5.70109 0.604048 0
M  V30 2989 H 288.773 -5.83945 1.38304 0
M  V30 2990 H 289.843 -4.49485 1.81911 0
M  V30 2991 N 291.186 -0.45159 -1.50991 0
M  V30 2992 C 292.133 0.352625 -2.2809 0
M  V30 2993 C 293.103 1.0044 -1.32291 0
M  V30 2994 O 294.288 1.02058 -1.6121 0
M  V30 2995 C 291.428 1.43983 -3.13629 0
M  V30 2996 C 290.541 0.804772 -4.24438 0
M  V30 2997 C 289.676 1.86822 -4.97263 0
M  V30 2998 C 288.715 1.21236 -5.99973 0
M  V30 2999 N 287.852 2.2178 -6.66152 0
M  V30 3000 H 292.692 -0.311186 -2.96371 0
M  V30 3001 H 290.229 -0.165308 -1.46168 0
M  V30 3002 H 292.187 2.08161 -3.61559 0
M  V30 3003 H 290.817 2.07307 -2.47434 0
M  V30 3004 H 289.869 0.0509129 -3.80366 0
M  V30 3005 H 291.181 0.286076 -4.97979 0
M  V30 3006 H 290.335 2.58628 -5.48813 0
M  V30 3007 H 289.074 2.42068 -4.23385 0
M  V30 3008 H 288.079 0.479828 -5.47702 0
M  V30 3009 H 289.304 0.667051 -6.75816 0
M  V30 3010 H 287.25 2.76079 -5.95077 0
M  V30 3011 H 287.167 1.74841 -7.35504 0
M  V30 3012 H 288.435 2.93026 -7.22327 0
M  V30 3013 N 292.664 1.56529 -0.183458 0
M  V30 3014 C 293.912 1.96855 0.457452 0
M  V30 3015 C 294.233 1.07104 1.62953 0
M  V30 3016 O 293.503 0.139887 1.954 0
M  V30 3017 H 292.083 0.72693 0.171992 0
M  V30 3018 H 294.745 1.93056 -0.267476 0
M  V30 3019 H 293.841 3.01423 0.809368 0
M  V30 3020 N 294.142 -0.090211 1.57342 0
M  V30 3021 C 295.419 -0.824761 1.77361 0
M  V30 3022 C 295.799 -1.96698 0.76637 0
M  V30 3023 O 295.147 -2.27586 -0.204179 0
M  V30 3024 C 295.357 -1.31481 3.23286 0
M  V30 3025 C 296.705 -1.75563 3.86604 0
M  V30 3026 O 297.729 -1.41093 3.27065 0
M  V30 3027 O 296.588 -2.39317 4.91314 0
M  V30 3028 H 293.682 -0.393776 0.727234 0
M  V30 3029 H 296.228 -0.0717138 1.69548 0
M  V30 3030 H 295 -0.496671 3.88135 0
M  V30 3031 H 294.623 -2.12973 3.35751 0
M  V30 3032 N 295.62 -1.53406 -0.361157 0
M  V30 3033 C 296.897 -1.60411 -1.11927 0
M  V30 3034 C 297.277 -0.414385 -2.06993 0
M  V30 3035 O 296.625 0.594976 -2.20618 0
M  V30 3036 C 296.835 -2.95652 -1.85448 0
M  V30 3037 C 298.183 -3.50386 -2.39823 0
M  V30 3038 O 299.207 -2.97711 -1.95568 0
M  V30 3039 O 298.066 -4.42482 -3.20737 0
M  V30 3040 H 295.16 -0.64811 -0.513695 0
M  V30 3041 H 297.706 -1.65749 -0.364065 0
M  V30 3042 H 296.478 -3.73682 -1.16091 0
M  V30 3043 H 296.101 -2.93825 -2.67866 0
M  V30 3044 N 297.098 0.621204 -1.44841 0
M  V30 3045 C 298.045 1.73267 -1.5247 0
M  V30 3046 C 299.015 1.6189 -0.371611 0
M  V30 3047 O 300.2 1.81668 -0.58321 0
M  V30 3048 C 297.34 3.11545 -1.48438 0
M  V30 3049 C 296.453 3.33827 -2.74196 0
M  V30 3050 C 295.588 4.62133 -2.61929 0
M  V30 3051 C 294.627 4.77627 -3.82804 0
M  V30 3052 N 293.764 5.97219 -3.69153 0
M  V30 3053 H 298.604 1.66082 -2.47428 0
M  V30 3054 H 296.141 0.810026 -1.22788 0
M  V30 3055 H 298.099 3.91528 -1.4409 0
M  V30 3056 H 296.729 3.1772 -0.570402 0
M  V30 3057 H 295.781 2.47715 -2.88689 0
M  V30 3058 H 297.093 3.41153 -3.6389 0
M  V30 3059 H 296.247 5.50291 -2.5547 0
M  V30 3060 H 294.986 4.57182 -1.69811 0
M  V30 3061 H 293.991 3.87896 -3.89637 0
M  V30 3062 H 295.216 4.84385 -4.75971 0
M  V30 3063 H 293.162 5.93339 -2.79794 0
M  V30 3064 H 293.079 6.05644 -4.52472 0
M  V30 3065 H 294.347 6.87912 -3.66603 0
M  V30 3066 N 298.576 1.31904 0.862503 0
M  V30 3067 C 299.539 1.20131 1.95195 0
M  V30 3068 C 300.539 0.126409 1.60302 0
M  V30 3069 O 301.729 0.376234 1.70089 0
M  V30 3070 C 298.861 0.845691 3.30244 0
M  V30 3071 H 300.054 2.16943 2.07064 0
M  V30 3072 H 297.607 1.15622 1.05172 0
M  V30 3073 H 298.342 -0.120957 3.24074 0
M  V30 3074 H 298.127 1.62276 3.56944 0
M  V30 3075 H 299.617 0.787418 4.10109 0
M  V30 3076 N 300.054 -1.07777 1.14986 0
M  V30 3077 C 300.984 -2.16865 0.865557 0
M  V30 3078 C 301.965 -1.69123 -0.182083 0
M  V30 3079 O 303.15 -1.94164 -0.0373815 0
M  V30 3080 C 300.28 -3.45539 0.349313 0
M  V30 3081 C 299.234 -4.06708 1.33313 0
M  V30 3082 C 298.56 -5.30411 0.675918 0
M  V30 3083 C 299.86 -4.47241 2.69764 0
M  V30 3084 H 301.554 -2.40905 1.77778 0
M  V30 3085 H 299.1 -1.15781 0.856203 0
M  V30 3086 H 301.053 -4.21174 0.137983 0
M  V30 3087 H 299.777 -3.21072 -0.598362 0
M  V30 3088 H 298.436 -3.33112 1.53075 0
M  V30 3089 H 298.084 -5.02232 -0.277767 0
M  V30 3090 H 297.784 -5.72293 1.33244 0
M  V30 3091 H 299.308 -6.08755 0.474262 0
M  V30 3092 H 300.722 -5.14025 2.53873 0
M  V30 3093 H 299.119 -5.00062 3.3175 0
M  V30 3094 H 300.189 -3.58818 3.26156 0
M  V30 3095 N 301.532 -0.945985 -1.26051 0
M  V30 3096 C 302.809 -0.513816 -1.88731 0
M  V30 3097 C 303.189 1.00872 -1.8544 0
M  V30 3098 O 302.537 1.8708 -1.312 0
M  V30 3099 C 302.747 -1.08062 -3.31849 0
M  V30 3100 C 304.095 -1.1522 -4.08668 0
M  V30 3101 O 305.119 -1.03155 -3.40936 0
M  V30 3102 O 303.978 -1.34044 -5.29806 0
M  V30 3103 H 301.072 -0.168193 -0.809716 0
M  V30 3104 H 303.618 -1.03886 -1.34186 0
M  V30 3105 H 302.39 -2.1241 -3.2863 0
M  V30 3106 H 302.013 -0.538307 -3.93939 0
M  V30 3107 N 303.011 1.40521 -0.713556 0
M  V30 3108 C 303.974 2.29098 -0.0684347 0
M  V30 3109 C 304.974 1.45268 0.689472 0
M  V30 3110 O 306.164 1.66205 0.521677 0
M  V30 3111 C 303.296 3.28446 0.913024 0
M  V30 3112 H 304.489 2.87645 -0.84855 0
M  V30 3113 H 302.042 1.48809 -0.47809 0
M  V30 3114 H 302.777 2.74913 1.72027 0
M  V30 3115 H 302.562 3.90327 0.372472 0
M  V30 3116 H 304.052 3.94777 1.36165 0
M  V30 3117 N 304.489 0.459591 1.5075 0
M  V30 3118 C 305.421 -0.37665 2.26084 0
M  V30 3119 C 306.434 -0.967109 1.30961 0
M  V30 3120 O 307.623 -0.857468 1.56556 0
M  V30 3121 C 304.723 -1.54112 3.01832 0
M  V30 3122 C 303.896 -1.06553 4.24223 0
M  V30 3123 C 302.955 -2.1027 4.82362 0
M  V30 3124 O 301.981 -1.68798 5.43595 0
M  V30 3125 N 303.183 -3.42974 4.68347 0
M  V30 3126 H 305.948 0.269124 2.98489 0
M  V30 3127 H 303.509 0.28972 1.59287 0
M  V30 3128 H 305.501 -2.23165 3.37608 0
M  V30 3129 H 304.071 -2.0918 2.32298 0
M  V30 3130 H 303.291 -0.201274 3.93686 0
M  V30 3131 H 304.579 -0.725516 5.03601 0
M  V30 3132 H 303.977 -3.79385 4.19623 0
M  V30 3133 H 302.534 -4.07858 5.08424 0
M  V30 3134 N 305.967 -1.56429 0.191757 0
M  V30 3135 C 306.899 -2.16154 -0.762245 0
M  V30 3136 C 307.912 -1.12247 -1.17917 0
M  V30 3137 O 309.101 -1.39353 -1.11548 0
M  V30 3138 C 306.201 -2.70606 -2.04024 0
M  V30 3139 C 305.374 -3.99381 -1.78364 0
M  V30 3140 C 304.433 -4.38692 -2.90578 0
M  V30 3141 O 303.459 -5.06179 -2.6033 0
M  V30 3142 N 304.661 -4.01922 -4.18854 0
M  V30 3143 H 307.426 -2.98643 -0.251526 0
M  V30 3144 H 304.987 -1.61897 0.00967373 0
M  V30 3145 H 306.979 -2.93891 -2.78227 0
M  V30 3146 H 305.549 -1.9259 -2.46227 0
M  V30 3147 H 304.769 -3.84262 -0.879581 0
M  V30 3148 H 306.057 -4.83445 -1.58614 0
M  V30 3149 H 305.455 -3.47631 -4.46283 0
M  V30 3150 H 304.012 -4.30165 -4.89695 0
M  V30 3151 N 307.445 0.0818655 -1.57387 0
M  V30 3152 C 308.392 1.09834 -2.0299 0
M  V30 3153 C 309.362 1.39043 -0.908639 0
M  V30 3154 O 310.547 1.50282 -1.17559 0
M  V30 3155 C 307.687 2.40971 -2.47037 0
M  V30 3156 C 306.8 2.18379 -3.7274 0
M  V30 3157 C 305.935 3.43008 -4.0561 0
M  V30 3158 C 304.974 3.15736 -5.24383 0
M  V30 3159 N 304.111 4.32667 -5.52941 0
M  V30 3160 H 308.951 0.702472 -2.89602 0
M  V30 3161 H 306.488 0.33531 -1.43227 0
M  V30 3162 H 308.446 3.1752 -2.70623 0
M  V30 3163 H 307.076 2.78379 -1.63417 0
M  V30 3164 H 306.128 1.32569 -3.56552 0
M  V30 3165 H 307.44 1.94227 -4.59431 0
M  V30 3166 H 306.594 4.27958 -4.30043 0
M  V30 3167 H 305.333 3.70225 -3.17466 0
M  V30 3168 H 304.338 2.2918 -4.99757 0
M  V30 3169 H 305.563 2.8985 -6.14136 0
M  V30 3170 H 303.509 4.59935 -4.67756 0
M  V30 3171 H 303.426 4.11753 -6.34031 0
M  V30 3172 H 304.694 5.18644 -5.81918 0
M  V30 3173 N 308.923 1.53595 0.353017 0
M  V30 3174 C 309.87 1.80919 1.43308 0
M  V30 3175 C 310.84 0.654288 1.5267 0
M  V30 3176 O 312.025 0.897759 1.6836 0
M  V30 3177 C 309.165 2.01605 2.80089 0
M  V30 3178 C 308.278 3.29321 2.79593 0
M  V30 3179 C 307.413 3.40125 4.0803 0
M  V30 3180 C 306.452 4.61826 4.01725 0
M  V30 3181 N 305.589 4.69716 5.21834 0
M  V30 3182 H 310.429 2.73074 1.19308 0
M  V30 3183 H 307.966 1.35263 0.578131 0
M  V30 3184 H 309.924 2.11586 3.59565 0
M  V30 3185 H 308.554 1.12772 3.0246 0
M  V30 3186 H 307.606 3.28229 1.92276 0
M  V30 3187 H 308.918 4.18884 2.70809 0
M  V30 3188 H 308.072 3.49488 4.95927 0
M  V30 3189 H 306.811 2.48601 4.19582 0
M  V30 3190 H 305.816 4.52552 3.12213 0
M  V30 3191 H 307.041 5.54705 3.91764 0
M  V30 3192 H 304.987 3.81097 5.33948 0
M  V30 3193 H 304.904 5.53202 5.1527 0
M  V30 3194 H 306.172 4.83376 6.11529 0
M  V30 3195 N 310.401 -0.613514 1.45168 0
M  V30 3196 C 311.649 -1.36997 1.48581 0
M  V30 3197 C 311.97 -1.94589 0.126545 0
M  V30 3198 O 311.24 -1.76816 -0.843372 0
M  V30 3199 H 309.82 -0.508558 0.547154 0
M  V30 3200 H 312.482 -0.720853 1.81079 0
M  V30 3201 H 311.578 -2.1924 2.22127 0
M  V30 3202 N 311.879 -1.3236 -0.855495 0
M  V30 3203 C 312.809 -1.23833 -1.97958 0
M  V30 3204 C 313.79 -0.122361 -1.69659 0
M  V30 3205 O 314.975 -0.30939 -1.9172 0
M  V30 3206 C 312.105 -0.959772 -3.33775 0
M  V30 3207 C 311.059 -2.03689 -3.76424 0
M  V30 3208 C 310.385 -1.61075 -5.09862 0
M  V30 3209 C 311.685 -3.4518 -3.9198 0
M  V30 3210 H 313.379 -2.1788 -2.0535 0
M  V30 3211 H 310.925 -1.04891 -0.986605 0
M  V30 3212 H 312.878 -0.886678 -4.11966 0
M  V30 3213 H 311.602 0.0163404 -3.26596 0
M  V30 3214 H 310.261 -2.10012 -3.00484 0
M  V30 3215 H 309.909 -0.622107 -4.99138 0
M  V30 3216 H 309.609 -2.33143 -5.39368 0
M  V30 3217 H 311.133 -1.55201 -5.90546 0
M  V30 3218 H 312.547 -3.4145 -4.60526 0
M  V30 3219 H 310.944 -4.1559 -4.32903 0
M  V30 3220 H 312.014 -3.84903 -2.94919 0
M  V30 3221 N 313.357 1.07166 -1.15556 0
M  V30 3222 C 314.304 2.14417 -0.854055 0
M  V30 3223 C 315.274 1.64965 0.193806 0
M  V30 3224 O 316.459 1.90703 0.0609443 0
M  V30 3225 C 313.599 3.43304 -0.351574 0
M  V30 3226 C 312.712 4.06537 -1.46123 0
M  V30 3227 C 311.847 5.23266 -0.914677 0
M  V30 3228 C 310.886 5.78464 -2.00114 0
M  V30 3229 N 310.023 6.86521 -1.47083 0
M  V30 3230 H 314.863 2.39548 -1.77259 0
M  V30 3231 H 312.4 1.17543 -0.884425 0
M  V30 3232 H 314.358 4.17179 -0.0419409 0
M  V30 3233 H 312.988 3.18419 0.530037 0
M  V30 3234 H 312.04 3.30297 -1.88701 0
M  V30 3235 H 313.352 4.43567 -2.28144 0
M  V30 3236 H 312.506 6.04131 -0.557698 0
M  V30 3237 H 311.245 4.87658 -0.0636583 0
M  V30 3238 H 310.25 4.96243 -2.36692 0
M  V30 3239 H 311.475 6.16126 -2.85597 0
M  V30 3240 H 309.421 6.52849 -0.642198 0
M  V30 3241 H 309.338 7.22446 -2.22729 0
M  V30 3242 H 310.606 7.71087 -1.14215 0
M  V30 3243 N 314.835 0.952656 1.25548 0
M  V30 3244 C 315.798 0.475794 2.24207 0
M  V30 3245 C 316.798 -0.419428 1.55234 0
M  V30 3246 O 317.988 -0.216994 1.72843 0
M  V30 3247 C 315.12 -0.312814 3.39462 0
M  V30 3248 H 316.313 1.34779 2.67908 0
M  V30 3249 H 313.866 0.735739 1.37901 0
M  V30 3250 H 314.601 -1.20257 3.01179 0
M  V30 3251 H 314.386 0.329404 3.90714 0
M  V30 3252 H 315.876 -0.635986 4.12729 0
M  V30 3253 N 316.313 -1.40141 0.720998 0
M  V30 3254 C 317.56 -2.00787 0.262842 0
M  V30 3255 C 317.888 -1.5718 -1.14563 0
M  V30 3256 O 317.143 -0.785391 -1.79249 0
M  V30 3257 C 317.442 -3.56165 0.296892 0
M  V30 3258 C 317.108 -4.19373 1.65641 0
M  V30 3259 C 315.77 -4.36352 2.02855 0
M  V30 3260 C 318.122 -4.54578 2.54968 0
M  V30 3261 C 315.45 -4.8582 3.28931 0
M  V30 3262 C 317.802 -5.05447 3.80402 0
M  V30 3263 C 316.466 -5.20635 4.17726 0
M  V30 3264 H 315.736 -0.734731 0.0961807 0
M  V30 3265 H 318.383 -1.67673 0.925093 0
M  V30 3266 H 316.688 -3.8922 -0.448932 0
M  V30 3267 H 318.385 -4.00929 -0.0755208 0
M  V30 3268 H 314.975 -4.06549 1.35704 0
M  V30 3269 H 319.159 -4.41091 2.27491 0
M  V30 3270 H 314.415 -4.95764 3.57811 0
M  V30 3271 H 318.589 -5.31663 4.49786 0
M  V30 3272 H 316.216 -5.58728 5.15487 0
M  V30 3273 N 317.792 -0.46758 -1.50504 0
M  V30 3274 C 318.725 0.374324 -2.25109 0
M  V30 3275 C 319.703 0.99921 -1.28275 0
M  V30 3276 O 320.887 1.03583 -1.57489 0
M  V30 3277 C 318.014 1.52419 -3.02467 0
M  V30 3278 C 317.06 1.01702 -4.14197 0
M  V30 3279 S 317.893 -0.0654477 -5.3546 0
M  V30 3280 C 319.049 1.08837 -6.16365 0
M  V30 3281 H 319.282 -0.258983 -2.9617 0
M  V30 3282 H 316.815 -0.252421 -1.52323 0
M  V30 3283 H 318.773 2.18322 -3.47628 0
M  V30 3284 H 317.434 2.129 -2.30938 0
M  V30 3285 H 316.627 1.87776 -4.67714 0
M  V30 3286 H 316.229 0.435757 -3.71453 0
M  V30 3287 H 318.521 2.00071 -6.47285 0
M  V30 3288 H 319.464 0.592538 -7.05616 0
M  V30 3289 H 319.872 1.34061 -5.4835 0
M  V30 3290 N 319.27 1.56325 -0.20005 0
M  V30 3291 C 320.547 1.89484 0.48529 0
M  V30 3292 C 320.927 1.1143 1.79294 0
M  V30 3293 O 320.275 0.216919 2.27468 0
M  V30 3294 C 320.485 3.41923 0.699243 0
M  V30 3295 C 321.833 4.12256 1.01638 0
M  V30 3296 O 322.857 3.47402 0.786792 0
M  V30 3297 O 321.716 5.26887 1.45095 0
M  V30 3298 H 318.81 0.787144 0.253639 0
M  V30 3299 H 321.356 1.67985 -0.240633 0
M  V30 3300 H 320.128 3.90658 -0.224008 0
M  V30 3301 H 319.751 3.69131 1.47744 0
M  V30 3302 N 320.748 -0.0735177 1.57428 0
M  V30 3303 C 321.973 -0.789787 1.91774 0
M  V30 3304 C 322.398 -1.70413 0.796306 0
M  V30 3305 O 321.756 -1.79555 -0.250961 0
M  V30 3306 C 321.804 -1.5609 3.25067 0
M  V30 3307 O 320.908 -2.67144 3.14178 0
M  V30 3308 H 320.249 -0.215582 0.628029 0
M  V30 3309 H 322.779 -0.0422781 2.04556 0
M  V30 3310 H 322.789 -1.94052 3.58898 0
M  V30 3311 H 321.464 -0.890015 4.06265 0
M  V30 3312 H 320.041 -2.32052 2.91901 0
M  V30 3313 N 322.226 -1.5378 -0.344866 0
M  V30 3314 C 323.474 -1.70625 -1.08311 0
M  V30 3315 C 323.795 -0.471447 -1.89215 0
M  V30 3316 O 323.065 0.514616 -1.8902 0
M  V30 3317 H 321.645 -0.629058 -0.402859 0
M  V30 3318 H 324.307 -1.9103 -0.386459 0
M  V30 3319 H 323.403 -2.57656 -1.76124 0
M  V30 3320 N 323.704 0.605807 -1.45491 0
M  V30 3321 C 324.944 1.37606 -1.51142 0
M  V30 3322 C 325.308 1.91413 -0.150075 0
M  V30 3323 O 326.509 2.68677 -0.0812828 0
M  V30 3324 C 324.78 2.49197 -2.56195 0
M  V30 3325 S 326.339 3.36953 -2.81083 0
M  V30 3326 H 323.157 0.469118 -0.534275 0
M  V30 3327 H 325.759 0.698845 -1.82583 0
M  V30 3328 H 324.463 2.0802 -3.53773 0
M  V30 3329 H 323.994 3.21717 -2.26411 0
M  V30 3330 H 326.009 4.47395 -2.14598 0
M  V30 3331 N 325.182 1.32811 0.848464 0
M  V30 3332 C 326.407 1.26882 1.6406 0
M  V30 3333 C 326.832 -0.15913 1.87426 0
M  V30 3334 O 326.19 -1.11258 1.43148 0
M  V30 3335 C 326.238 2.03997 2.97351 0
M  V30 3336 O 325.342 1.39201 3.88197 0
M  V30 3337 H 324.683 0.436982 0.499943 0
M  V30 3338 H 327.213 1.75224 1.0563 0
M  V30 3339 H 327.223 2.14403 3.47124 0
M  V30 3340 H 325.898 3.0783 2.79666 0
M  V30 3341 H 324.475 1.37381 3.46671 0
M  V30 3342 N 326.66 -1.06551 1.16123 0
M  V30 3343 C 327.623 -2.12132 0.867906 0
M  V30 3344 C 328.623 -1.60224 -0.135944 0
M  V30 3345 O 329.813 -1.73943 0.0946422 0
M  V30 3346 C 326.945 -3.396 0.297419 0
M  V30 3347 H 328.138 -2.39586 1.80385 0
M  V30 3348 H 325.691 -1.22574 0.969812 0
M  V30 3349 H 326.426 -3.17794 -0.64633 0
M  V30 3350 H 326.211 -3.78581 1.02073 0
M  V30 3351 H 327.701 -4.17455 0.110052 0
M  V30 3352 N 328.138 -0.959301 -1.25041 0
M  V30 3353 C 329.378 -0.624343 -1.94631 0
M  V30 3354 C 329.742 0.82403 -1.73418 0
M  V30 3355 O 330.943 1.26881 -2.3697 0
M  V30 3356 C 329.214 -0.978805 -3.43736 0
M  V30 3357 S 330.773 -0.757127 -4.32219 0
M  V30 3358 H 327.591 -0.229327 -0.673001 0
M  V30 3359 H 330.193 -1.23447 -1.51595 0
M  V30 3360 H 328.897 -2.02997 -3.56679 0
M  V30 3361 H 328.428 -0.359117 -3.91757 0
M  V30 3362 H 330.443 0.369759 -4.9482 0
M  V30 3363 N 329.616 1.39756 -0.72842 0
M  V30 3364 C 330.566 2.2792 -0.0603424 0
M  V30 3365 C 331.55 1.43922 0.719399 0
M  V30 3366 O 332.742 1.66895 0.589489 0
M  V30 3367 C 329.871 3.32582 0.851104 0
M  V30 3368 C 328.957 4.24049 0.0658641 0
M  V30 3369 N 329.348 4.96653 -0.957578 0
M  V30 3370 C 327.646 4.45013 0.296509 0
M  V30 3371 C 328.347 5.63836 -1.43052 0
M  V30 3372 N 327.323 5.38397 -0.750315 0
M  V30 3373 H 331.125 2.81504 -0.84455 0
M  V30 3374 H 328.639 1.5236 -0.562155 0
M  V30 3375 H 330.636 3.94603 1.34514 0
M  V30 3376 H 329.296 2.80558 1.63454 0
M  V30 3377 H 330.307 5.00297 -1.33877 0
M  V30 3378 H 326.984 4.03943 1.05527 0
M  V30 3379 H 328.374 6.31974 -2.28163 0
M  V30 3380 N 331.094 0.475555 1.50254 0
M  V30 3381 C 332.042 -0.330276 2.30243 0
M  V30 3382 C 333.036 -0.986306 1.37726 0
M  V30 3383 O 334.242 -0.9169 1.54897 0
M  V30 3384 H 330.617 -0.125353 0.741479 0
M  V30 3385 H 332.588 0.364702 2.96163 0
M  V30 3386 C 331.337 -1.39704 3.18399 0
M  V30 3387 H 330.66 -0.901621 3.89501 0
M  V30 3388 H 332.1 -1.93336 3.77355 0
M  V30 3389 C 330.559 -2.4014 2.36293 0
M  V30 3390 O 331.089 -3.45504 2.04914 0
M  V30 3391 N 329.295 -2.1197 1.98789 0
M  V30 3392 H 328.842 -1.2631 2.24507 0
M  V30 3393 H 328.8 -2.79403 1.44157 0
M  V30 3394 N 332.573 -1.56217 0.208337 0
M  V30 3395 C 333.821 -1.97558 -0.426076 0
M  V30 3396 C 334.142 -1.09683 -1.61229 0
M  V30 3397 O 333.412 -0.170956 -1.95153 0
M  V30 3398 H 331.992 -0.729575 -0.160405 0
M  V30 3399 H 334.654 -1.92606 0.298155 0
M  V30 3400 H 333.75 -3.02672 -0.761312 0
M  V30 3401 N 334.051 0.0651679 -1.57465 0
M  V30 3402 C 335.3 0.761916 -1.86756 0
M  V30 3403 C 335.613 1.78406 -0.801925 0
M  V30 3404 O 336.819 2.53084 -0.982885 0
M  V30 3405 C 335.275 1.40603 -3.31299 0
M  V30 3406 C 334.883 0.422115 -4.46007 0
M  V30 3407 C 336.627 2.08476 -3.69781 0
M  V30 3408 C 334.534 1.07252 -5.81593 0
M  V30 3409 H 333.464 0.288308 -0.696702 0
M  V30 3410 H 336.115 0.015344 -1.83494 0
M  V30 3411 H 334.497 2.20109 -3.29193 0
M  V30 3412 H 335.671 -0.343613 -4.59517 0
M  V30 3413 H 333.986 -0.152527 -4.16121 0
M  V30 3414 H 336.583 2.57925 -4.68379 0
M  V30 3415 H 336.926 2.88712 -2.99919 0
M  V30 3416 H 337.459 1.35792 -3.73905 0
M  V30 3417 H 334.198 0.310342 -6.54765 0
M  V30 3418 H 333.718 1.80895 -5.71872 0
M  V30 3419 H 335.397 1.59043 -6.27148 0
M  V30 3420 N 335.529 1.53961 0.336706 0
M  V30 3421 C 336.477 1.83136 1.43401 0
M  V30 3422 C 337.471 0.702313 1.54156 0
M  V30 3423 O 338.677 0.885765 1.56698 0
M  V30 3424 H 335.052 0.580309 0.478273 0
M  V30 3425 H 337.023 2.74925 1.16012 0
M  V30 3426 C 335.772 2.06385 2.79822 0
M  V30 3427 H 335.095 2.92718 2.72316 0
M  V30 3428 H 336.535 2.30761 3.55704 0
M  V30 3429 C 334.994 0.851414 3.25964 0
M  V30 3430 O 335.524 0.0541904 4.01663 0
M  V30 3431 N 333.73 0.66672 2.82848 0
M  V30 3432 H 333.277 1.31665 2.21409 0
M  V30 3433 H 333.235 -0.143032 3.14074 0
M  V30 3434 N 337.007 -0.598083 1.45811 0
M  V30 3435 C 337.937 -1.71873 1.58057 0
M  V30 3436 C 338.918 -1.64533 0.431615 0
M  V30 3437 O 340.103 -1.82787 0.65595 0
M  V30 3438 C 337.233 -3.10495 1.55597 0
M  V30 3439 C 336.187 -3.32654 2.69305 0
M  V30 3440 C 335.513 -4.71646 2.51902 0
M  V30 3441 C 336.813 -3.21981 4.11248 0
M  V30 3442 H 338.507 -1.61881 2.51863 0
M  V30 3443 H 336.053 -0.777372 1.21214 0
M  V30 3444 H 338.006 -3.88699 1.6276 0
M  V30 3445 H 336.73 -3.2135 0.583255 0
M  V30 3446 H 335.389 -2.56843 2.61586 0
M  V30 3447 H 335.037 -4.79246 1.52748 0
M  V30 3448 H 334.737 -4.87426 3.2816 0
M  V30 3449 H 336.261 -5.52038 2.60933 0
M  V30 3450 H 337.675 -3.90049 4.20161 0
M  V30 3451 H 336.072 -3.49289 4.87972 0
M  V30 3452 H 337.142 -2.1928 4.32486 0
M  V30 3453 N 338.485 -1.33259 -0.841409 0
M  V30 3454 C 339.733 -1.24326 -1.59334 0
M  V30 3455 C 340.054 0.191564 -1.94057 0
M  V30 3456 O 339.324 1.11967 -1.60749 0
M  V30 3457 H 337.904 -0.457174 -0.590763 0
M  V30 3458 H 340.566 -1.66947 -1.00571 0
M  V30 3459 H 339.662 -1.8352 -2.52442 0
M  V30 3460 N 339.963 1.05934 -1.16686 0
M  V30 3461 C 341.211 1.78447 -0.948744 0
M  V30 3462 C 341.532 1.87813 0.524523 0
M  V30 3463 O 340.802 1.38945 1.38098 0
M  V30 3464 H 339.382 0.660971 -0.348033 0
M  V30 3465 H 342.044 1.27947 -1.47022 0
M  V30 3466 H 341.14 2.80394 -1.37061 0
M  V30 3467 N 341.441 0.965919 1.2453 0
M  V30 3468 C 342.373 0.452465 2.2469 0
M  V30 3469 C 343.386 -0.437821 1.56802 0
M  V30 3470 O 344.575 -0.244283 1.76821 0
M  V30 3471 C 341.675 -0.366258 3.36915 0
M  V30 3472 C 340.848 0.513701 4.34373 0
M  V30 3473 C 339.907 -0.248716 5.25612 0
M  V30 3474 O 338.933 0.356745 5.68081 0
M  V30 3475 N 340.135 -1.53877 5.59734 0
M  V30 3476 H 342.9 1.31361 2.69378 0
M  V30 3477 H 340.461 0.837541 1.38553 0
M  V30 3478 H 342.453 -0.884297 3.94921 0
M  V30 3479 H 341.023 -1.12832 2.91526 0
M  V30 3480 H 340.243 1.21273 3.75082 0
M  V30 3481 H 341.531 1.11391 4.96457 0
M  V30 3482 H 340.929 -2.05243 5.27154 0
M  V30 3483 H 339.486 -2.00254 6.20275 0
M  V30 3484 N 342.919 -1.39368 0.735821 0
M  V30 3485 C 343.882 -2.2896 0.104874 0
M  V30 3486 C 344.882 -1.46347 -0.666274 0
M  V30 3487 O 346.072 -1.67014 -0.49517 0
M  V30 3488 C 343.204 -3.29857 -0.860656 0
M  V30 3489 H 344.397 -2.86259 0.894205 0
M  V30 3490 H 341.95 -1.48029 0.501704 0
M  V30 3491 H 342.685 -2.77615 -1.67631 0
M  V30 3492 H 342.47 -3.9087 -0.310327 0
M  V30 3493 H 343.96 -3.96893 -1.29867 0
M  V30 3494 N 344.397 -0.483516 -1.5 0
M  V30 3495 C 345.627 0.0643896 -2.065 0
M  V30 3496 C 346.035 1.32949 -1.34615 0
M  V30 3497 O 345.378 1.79003 -0.412756 0
M  V30 3498 C 345.44 0.405983 -3.572 0
M  V30 3499 C 345.104 -0.758875 -4.50655 0
M  V30 3500 C 346.101 -1.64445 -4.93208 0
M  V30 3501 C 343.786 -0.952725 -4.93182 0
M  V30 3502 C 345.78 -2.70818 -5.77006 0
M  V30 3503 C 343.467 -2.01966 -5.76761 0
M  V30 3504 C 344.465 -2.89574 -6.18576 0
M  V30 3505 O 344.153 -3.94429 -7.00486 0
M  V30 3506 H 343.885 -0.00934786 -0.675935 0
M  V30 3507 H 346.439 -0.674959 -1.93993 0
M  V30 3508 H 344.669 1.19869 -3.67652 0
M  V30 3509 H 346.358 0.890433 -3.96013 0
M  V30 3510 H 347.124 -1.50643 -4.61012 0
M  V30 3511 H 343.003 -0.280247 -4.60147 0
M  V30 3512 H 346.547 -3.3923 -6.09565 0
M  V30 3513 H 342.444 -2.1577 -6.0837 0
M  V30 3514 H 343.212 -3.91568 -7.1876 0
M  V30 3515 N 345.875 1.56104 -0.216619 0
M  V30 3516 C 347.122 1.98172 0.416416 0
M  V30 3517 C 347.45 1.10413 1.60122 0
M  V30 3518 O 346.705 0.147967 1.9514 0
M  V30 3519 C 347.004 3.45923 0.898464 0
M  V30 3520 C 346.67 4.50559 -0.175288 0
M  V30 3521 C 345.332 4.78897 -0.470271 0
M  V30 3522 C 347.684 5.1334 -0.901728 0
M  V30 3523 C 345.012 5.67299 -1.4963 0
M  V30 3524 C 347.364 6.02853 -1.91705 0
M  V30 3525 C 346.028 6.29537 -2.21901 0
M  V30 3526 H 345.298 0.725164 0.152377 0
M  V30 3527 H 347.945 1.88839 -0.318103 0
M  V30 3528 H 346.25 3.52434 1.71165 0
M  V30 3529 H 347.947 3.75841 1.39803 0
M  V30 3530 H 344.537 4.28551 0.0647806 0
M  V30 3531 H 348.721 4.91521 -0.687072 0
M  V30 3532 H 343.977 5.86239 -1.73592 0
M  V30 3533 H 348.151 6.50552 -2.48505 0
M  V30 3534 H 345.778 6.97835 -3.01548 0
M  V30 3535 N 347.353 -0.0568162 1.57498 0
M  V30 3536 C 348.764 -0.606858 1.76562 0
M  V30 3537 C 349.115 -1.77114 0.844094 0
M  V30 3538 O 348.24 -2.16376 0.0318911 0
M  V30 3539 C 348.835 -1.10766 3.20182 0
M  V30 3540 C 347.394 -1.60344 3.40539 0
M  V30 3541 C 346.541 -0.529311 2.72201 0
M  V30 3542 H 349.492 0.169393 1.57793 0
M  V30 3543 H 349.513 -1.97602 3.25167 0
M  V30 3544 H 349.025 -0.26006 3.87228 0
M  V30 3545 H 347.126 -2.47379 2.78629 0
M  V30 3546 H 347.239 -1.67006 4.4905 0
M  V30 3547 H 345.603 -0.977893 2.35179 0
M  V30 3548 H 346.386 0.308352 3.41912 0
M  V30 3549 N 348.832 -1.54138 -0.328536 0
M  V30 3550 C 350.079 -1.72105 -1.06706 0
M  V30 3551 C 350.407 -0.492111 -1.88171 0
M  V30 3552 O 349.662 0.526153 -1.88494 0
M  V30 3553 C 349.961 -2.9457 -2.02393 0
M  V30 3554 C 349.627 -4.29544 -1.37122 0
M  V30 3555 C 348.289 -4.6624 -1.19052 0
M  V30 3556 C 350.641 -5.1333 -0.902331 0
M  V30 3557 C 347.969 -5.84325 -0.527331 0
M  V30 3558 C 350.321 -6.32094 -0.252988 0
M  V30 3559 C 348.985 -6.67473 -0.0600901 0
M  V30 3560 H 348.255 -0.629775 -0.390466 0
M  V30 3561 H 350.902 -1.88372 -0.34473 0
M  V30 3562 H 349.207 -2.72969 -2.81061 0
M  V30 3563 H 350.904 -3.05665 -2.59557 0
M  V30 3564 H 347.494 -4.0067 -1.52188 0
M  V30 3565 H 351.678 -4.855 -1.02974 0
M  V30 3566 H 346.934 -6.103 -0.366634 0
M  V30 3567 H 351.108 -6.96299 0.118366 0
M  V30 3568 H 348.735 -7.58832 0.455828 0
M  V30 3569 N 350.31 0.590341 -1.46126 0
M  V30 3570 C 351.558 1.34616 -1.50742 0
M  V30 3571 C 351.879 1.94363 -0.157486 0
M  V30 3572 O 351.149 1.78136 0.815136 0
M  V30 3573 H 349.729 0.499789 -0.555175 0
M  V30 3574 H 352.391 0.691953 -1.82203 0
M  V30 3575 H 351.487 2.15678 -2.25587 0
M  V30 3576 N 351.788 1.33704 0.83433 0
M  V30 3577 C 352.718 1.26967 1.95963 0
M  V30 3578 C 353.699 0.149337 1.69443 0
M  V30 3579 O 354.884 0.339852 1.91203 0
M  V30 3580 C 352.014 1.01275 3.32206 0
M  V30 3581 C 350.968 2.09652 3.73136 0
M  V30 3582 C 350.294 1.69166 5.07235 0
M  V30 3583 C 351.594 3.51372 3.86439 0
M  V30 3584 H 353.288 2.2112 2.01857 0
M  V30 3585 H 350.834 1.06447 0.969793 0
M  V30 3586 H 352.787 0.952106 4.10503 0
M  V30 3587 H 351.511 0.0356203 3.26581 0
M  V30 3588 H 350.17 2.14766 2.97104 0
M  V30 3589 H 349.818 0.701437 4.98085 0
M  V30 3590 H 349.518 2.41694 5.35591 0
M  V30 3591 H 351.042 1.64576 5.88003 0
M  V30 3592 H 352.456 3.48734 4.55036 0
M  V30 3593 H 350.853 4.22425 4.26236 0
M  V30 3594 H 351.923 3.89546 2.88759 0
M  V30 3595 N 353.266 -1.05314 1.17247 0
M  V30 3596 C 354.512 -1.78557 0.961513 0
M  V30 3597 C 354.845 -1.87419 -0.508697 0
M  V30 3598 O 354.12 -1.37307 -1.37757 0
M  V30 3599 C 354.403 -3.22514 1.60176 0
M  V30 3600 C 354.256 -3.21673 3.14399 0
M  V30 3601 C 355.575 -4.20318 1.30463 0
M  V30 3602 H 352.694 -0.6482 0.350723 0
M  V30 3603 H 355.336 -1.23102 1.44727 0
M  V30 3604 H 353.486 -3.69867 1.18871 0
M  V30 3605 H 355.158 -2.82405 3.64753 0
M  V30 3606 H 353.401 -2.60048 3.47214 0
M  V30 3607 H 354.072 -4.23271 3.54324 0
M  V30 3608 H 356.548 -3.81454 1.66229 0
M  V30 3609 H 355.424 -5.19289 1.77848 0
M  V30 3610 H 355.685 -4.41526 0.22521 0
M  V30 3611 N 354.744 -0.972509 -1.24016 0
M  V30 3612 C 355.691 -0.505969 -2.25186 0
M  V30 3613 C 356.661 0.451009 -1.5986 0
M  V30 3614 O 357.846 0.360307 -1.87367 0
M  V30 3615 C 354.986 0.193089 -3.44559 0
M  V30 3616 C 354.099 -0.803222 -4.24467 0
M  V30 3617 C 353.234 -0.0797793 -5.3114 0
M  V30 3618 C 352.273 -1.06583 -6.02749 0
M  V30 3619 N 351.41 -0.372074 -7.01113 0
M  V30 3620 H 356.25 -1.37351 -2.64459 0
M  V30 3621 H 353.787 -0.688419 -1.29997 0
M  V30 3622 H 355.745 0.615125 -4.1264 0
M  V30 3623 H 354.375 1.02455 -3.06109 0
M  V30 3624 H 353.427 -1.34368 -3.55878 0
M  V30 3625 H 354.739 -1.55494 -4.73944 0
M  V30 3626 H 353.893 0.400015 -6.0538 0
M  V30 3627 H 352.632 0.704597 -4.82583 0
M  V30 3628 H 351.637 -1.55645 -5.27309 0
M  V30 3629 H 352.862 -1.85074 -6.53395 0
M  V30 3630 H 350.808 0.393238 -6.5482 0
M  V30 3631 H 350.725 -1.06258 -7.48495 0
M  V30 3632 H 351.993 0.0855932 -7.79453 0
M  V30 3633 N 356.222 1.38976 -0.743202 0
M  V30 3634 C 357.169 2.30544 -0.10861 0
M  V30 3635 C 358.139 1.49642 0.720869 0
M  V30 3636 O 359.324 1.78304 0.679142 0
M  V30 3637 C 356.464 3.36018 0.786496 0
M  V30 3638 C 355.577 4.31963 -0.0564849 0
M  V30 3639 C 354.712 5.24506 0.840657 0
M  V30 3640 C 353.751 6.121 -0.00658363 0
M  V30 3641 N 352.888 6.96973 0.846943 0
M  V30 3642 H 357.728 2.8424 -0.895088 0
M  V30 3643 H 355.265 1.3995 -0.453048 0
M  V30 3644 H 357.223 3.95768 1.31999 0
M  V30 3645 H 355.853 2.83758 1.53887 0
M  V30 3646 H 354.905 3.73763 -0.707492 0
M  V30 3647 H 356.217 4.93703 -0.711229 0
M  V30 3648 H 355.371 5.89322 1.4417 0
M  V30 3649 H 354.11 4.63107 1.52916 0
M  V30 3650 H 353.115 5.46289 -0.620366 0
M  V30 3651 H 354.34 6.75565 -0.691992 0
M  V30 3652 H 352.286 6.38133 1.52059 0
M  V30 3653 H 352.203 7.5559 0.248864 0
M  V30 3654 H 353.471 7.6621 1.43328 0
M  V30 3655 N 357.7 0.491464 1.49741 0
M  V30 3656 C 359.111 0.0413169 1.86654 0
M  V30 3657 C 359.462 -1.36985 1.40462 0
M  V30 3658 O 358.587 -2.01917 0.778354 0
M  V30 3659 C 359.182 0.0682023 3.38731 0
M  V30 3660 C 357.741 -0.32656 3.74981 0
M  V30 3661 C 356.888 0.444888 2.73708 0
M  V30 3662 H 359.839 0.704733 1.42194 0
M  V30 3663 H 359.86 -0.729322 3.73445 0
M  V30 3664 H 359.372 1.09539 3.72321 0
M  V30 3665 H 357.473 -1.35734 3.46997 0
M  V30 3666 H 357.586 -0.013741 4.79098 0
M  V30 3667 H 355.95 -0.104062 2.54487 0
M  V30 3668 H 356.733 1.47197 3.10142 0
M  V30 3669 N 359.178 -1.55987 0.224894 0
M  V30 3670 C 360.455 -1.90232 -0.455083 0
M  V30 3671 C 360.835 -1.14269 -1.77499 0
M  V30 3672 O 360.183 -0.253079 -2.27094 0
M  V30 3673 C 360.393 -3.42993 -0.644758 0
M  V30 3674 C 361.741 -4.13821 -0.950669 0
M  V30 3675 O 362.765 -3.4861 -0.731423 0
M  V30 3676 O 361.624 -5.29128 -1.36695 0
M  V30 3677 H 358.718 -0.79108 -0.241084 0
M  V30 3678 H 361.264 -1.67581 0.267327 0
M  V30 3679 H 360.036 -3.90252 0.28613 0
M  V30 3680 H 359.659 -3.71434 -1.41853 0
M  V30 3681 N 360.656 0.0484629 -1.57525 0
M  V30 3682 C 361.619 1.03956 -2.04269 0
M  V30 3683 C 362.619 1.30211 -0.943496 0
M  V30 3684 O 363.809 1.25539 -1.20771 0
M  V30 3685 C 360.941 2.37742 -2.44319 0
M  V30 3686 H 362.134 0.636182 -2.93075 0
M  V30 3687 H 359.687 0.294811 -1.53494 0
M  V30 3688 H 360.422 2.82866 -1.5861 0
M  V30 3689 H 360.207 2.20021 -3.24551 0
M  V30 3690 H 361.697 3.08936 -2.80978 0
M  V30 3691 N 362.134 1.5431 0.320358 0
M  V30 3692 C 363.359 1.76954 1.08175 0
M  V30 3693 C 363.784 0.518193 1.80821 0
M  V30 3694 O 363.142 -0.530411 1.73368 0
M  V30 3695 C 363.19 2.96451 2.05303 0
M  V30 3696 O 362.294 2.68221 3.13259 0
M  V30 3697 H 361.635 0.586275 0.311733 0
M  V30 3698 H 364.165 2.01342 0.363676 0
M  V30 3699 H 364.175 3.23887 2.48116 0
M  V30 3700 H 362.85 3.87196 1.51829 0
M  V30 3701 H 361.427 2.51744 2.75099 0
M  V30 3702 N 363.613 -0.582584 1.46437 0
M  V30 3703 C 364.859 -1.34278 1.51978 0
M  V30 3704 C 365.192 -1.93446 0.170973 0
M  V30 3705 O 364.467 -1.76481 -0.817608 0
M  V30 3706 C 364.75 -2.47203 2.61845 0
M  V30 3707 C 364.603 -1.93069 4.06257 0
M  V30 3708 C 365.922 -3.49247 2.67795 0
M  V30 3709 H 363.041 -0.486876 0.553282 0
M  V30 3710 H 365.683 -0.654437 1.78374 0
M  V30 3711 H 363.833 -3.0592 2.39469 0
M  V30 3712 H 365.505 -1.38808 4.3992 0
M  V30 3713 H 363.748 -1.23898 4.1573 0
M  V30 3714 H 364.419 -2.74586 4.7886 0
M  V30 3715 H 366.895 -3.00411 2.8791 0
M  V30 3716 H 365.771 -4.25719 3.46489 0
M  V30 3717 H 366.032 -4.06482 1.73852 0
M  V30 3718 N 365.091 -1.34144 -0.827227 0
M  V30 3719 C 366.021 -1.28005 -1.95287 0
M  V30 3720 C 367.002 -0.158321 -1.69362 0
M  V30 3721 O 368.187 -0.349987 -1.9102 0
M  V30 3722 C 365.317 -1.03036 -3.31664 0
M  V30 3723 C 364.271 -2.11628 -3.72019 0
M  V30 3724 C 363.597 -1.71854 -5.0633 0
M  V30 3725 C 364.897 -3.53417 -3.8457 0
M  V30 3726 H 366.591 -2.22187 -2.00682 0
M  V30 3727 H 364.137 -1.0696 -0.964135 0
M  V30 3728 H 366.09 -0.973863 -4.09993 0
M  V30 3729 H 364.814 -0.0529391 -3.26557 0
M  V30 3730 H 363.473 -2.16339 -2.95961 0
M  V30 3731 H 363.121 -0.727841 -4.97706 0
M  V30 3732 H 362.821 -2.44531 -5.34302 0
M  V30 3733 H 364.345 -1.67692 -5.87122 0
M  V30 3734 H 365.759 -3.51142 -4.5318 0
M  V30 3735 H 364.156 -4.24679 -4.2399 0
M  V30 3736 H 365.226 -3.91072 -2.86689 0
M  V30 3737 N 366.569 1.04691 -1.17803 0
M  V30 3738 C 367.98 1.59238 -0.974689 0
M  V30 3739 C 368.331 1.90306 0.477292 0
M  V30 3740 O 367.456 1.68846 1.35352 0
M  V30 3741 C 368.051 2.89318 -1.76296 0
M  V30 3742 C 366.61 3.40506 -1.60414 0
M  V30 3743 C 365.757 2.14172 -1.76141 0
M  V30 3744 H 368.708 0.874395 -1.32439 0
M  V30 3745 H 368.729 3.5944 -1.24833 0
M  V30 3746 H 368.241 2.66675 -2.81968 0
M  V30 3747 H 366.342 3.68175 -0.572519 0
M  V30 3748 H 366.455 4.14753 -2.39827 0
M  V30 3749 H 364.819 2.25176 -1.19028 0
M  V30 3750 H 365.602 1.93992 -2.83235 0
M  V30 3751 N 368.047 0.979072 1.23499 0
M  V30 3752 C 369.272 0.664845 1.96455 0
M  V30 3753 C 369.697 -0.761287 1.72006 0
M  V30 3754 O 369.055 -1.51837 0.990713 0
M  V30 3755 C 369.103 0.959479 3.47601 0
M  V30 3756 O 368.207 0.0508168 4.12369 0
M  V30 3757 H 367.548 0.250185 0.615064 0
M  V30 3758 H 370.078 1.31231 1.5697 0
M  V30 3759 H 370.088 0.895642 3.98048 0
M  V30 3760 H 368.763 1.99876 3.64723 0
M  V30 3761 H 367.34 0.16895 3.72517 0
M  V30 3762 N 369.525 -1.3858 0.750561 0
M  V30 3763 C 370.773 -1.99789 0.30477 0
M  V30 3764 C 371.094 -1.59874 -1.11649 0
M  V30 3765 O 370.364 -0.85417 -1.76297 0
M  V30 3766 H 368.944 -0.738902 0.109694 0
M  V30 3767 H 371.606 -1.69391 0.963983 0
M  V30 3768 H 370.702 -3.09952 0.365499 0
M  V30 3769 N 371.003 -0.499398 -1.49478 0
M  V30 3770 C 372.28 0.108629 -1.95298 0
M  V30 3771 C 372.66 1.54282 -1.44084 0
M  V30 3772 O 372.008 2.18944 -0.653908 0
M  V30 3773 C 372.218 0.0229111 -3.48992 0
M  V30 3774 C 373.566 0.197643 -4.2414 0
M  V30 3775 O 374.59 0.0981735 -3.56065 0
M  V30 3776 O 373.449 0.401669 -5.45022 0
M  V30 3777 H 370.543 0.096181 -0.821388 0
M  V30 3778 H 373.089 -0.561822 -1.6013 0
M  V30 3779 H 371.861 -0.977321 -3.78899 0
M  V30 3780 H 371.484 0.733579 -3.90774 0
M  V30 3781 N 372.481 1.55866 -0.233164 0
M  V30 3782 C 373.428 2.20796 0.67215 0
M  V30 3783 C 374.398 1.16731 1.18166 0
M  V30 3784 O 375.583 1.45129 1.23864 0
M  V30 3785 C 372.723 2.90072 1.86955 0
M  V30 3786 C 371.836 4.08759 1.39786 0
M  V30 3787 C 370.971 4.65787 2.55374 0
M  V30 3788 C 370.01 5.76752 2.04998 0
M  V30 3789 N 369.147 6.28021 3.13901 0
M  V30 3790 H 373.987 2.9779 0.111749 0
M  V30 3791 H 371.524 1.47036 0.0434007 0
M  V30 3792 H 373.482 3.28428 2.57276 0
M  V30 3793 H 372.112 2.15575 2.40265 0
M  V30 3794 H 371.164 3.7581 0.589173 0
M  V30 3795 H 372.476 4.88906 0.98856 0
M  V30 3796 H 371.63 5.06646 3.33758 0
M  V30 3797 H 370.369 3.84828 2.99598 0
M  V30 3798 H 369.374 5.35383 1.25079 0
M  V30 3799 H 370.599 6.59553 1.61759 0
M  V30 3800 H 368.545 5.49971 3.57586 0
M  V30 3801 H 368.462 7.03323 2.7726 0
M  V30 3802 H 369.73 6.73538 3.92386 0
M  V30 3803 N 373.959 -0.0401083 1.57549 0
M  V30 3804 C 375.207 -0.731677 1.8839 0
M  V30 3805 C 375.528 -1.76481 0.829425 0
M  V30 3806 O 374.798 -1.95411 -0.1383 0
M  V30 3807 H 373.378 -0.273225 0.695239 0
M  V30 3808 H 376.04 -0.00867725 1.94898 0
M  V30 3809 H 375.136 -1.22816 2.86919 0
M  V30 3810 N 375.437 -1.54477 -0.31217 0
M  V30 3811 C 376.853 -1.45442 -0.657185 0
M  V30 3812 C 377.053 -0.63653 -1.91182 0
M  V30 3813 O 376.109 -0.139815 -2.52113 0
M  V30 3814 C 377.422 -2.89287 -0.82058 0
M  V30 3815 C 378.97 -2.9926 -0.917188 0
M  V30 3816 C 379.445 -4.44279 -1.11267 0
M  V30 3817 N 380.936 -4.4794 -1.17914 0
M  V30 3818 C 381.671 -5.57318 -1.34848 0
M  V30 3819 N 381.167 -6.76642 -1.48752 0
M  V30 3820 N 382.96 -5.44986 -1.37647 0
M  V30 3821 H 375.111 -2.06129 0.512313 0
M  V30 3822 H 377.374 -0.933088 0.167485 0
M  V30 3823 H 377.08 -3.51687 0.0302604 0
M  V30 3824 H 376.954 -3.36061 -1.71298 0
M  V30 3825 H 379.341 -2.36981 -1.75852 0
M  V30 3826 H 379.422 -2.558 -0.00101257 0
M  V30 3827 H 379.066 -5.07149 -0.27614 0
M  V30 3828 H 378.996 -4.85359 -2.04289 0
M  V30 3829 H 381.487 -3.61969 -1.08567 0
M  V30 3830 H 381.8 -7.55758 -1.61397 0
M  V30 3831 H 380.145 -6.79529 -1.45828 0
M  V30 3832 H 383.336 -4.50715 -1.26388 0
M  V30 3833 H 383.509 -6.3028 -1.50501 0
M  V30 3834 N 376.915 0.57481 -1.46744 0
M  V30 3835 C 378.162 1.33272 -1.52462 0
M  V30 3836 C 378.49 1.93669 -0.179572 0
M  V30 3837 O 377.745 1.7743 0.825664 0
M  V30 3838 C 378.044 2.476 -2.57738 0
M  V30 3839 C 377.71 2.05146 -4.01529 0
M  V30 3840 C 376.372 1.93284 -4.40676 0
M  V30 3841 C 378.724 1.72506 -4.91824 0
M  V30 3842 C 376.052 1.47049 -5.67973 0
M  V30 3843 C 378.404 1.27748 -6.19567 0
M  V30 3844 C 377.068 1.14468 -6.57612 0
M  V30 3845 H 376.338 0.487678 -0.557899 0
M  V30 3846 H 378.985 0.646456 -1.80259 0
M  V30 3847 H 377.29 3.21708 -2.23632 0
M  V30 3848 H 378.987 3.05807 -2.5939 0
M  V30 3849 H 375.577 2.15316 -3.7059 0
M  V30 3850 H 379.761 1.80552 -4.62293 0
M  V30 3851 H 375.017 1.35417 -5.96215 0
M  V30 3852 H 379.191 1.01547 -6.88957 0
M  V30 3853 H 376.818 0.78419 -7.56145 0
M  V30 3854 N 378.394 1.34581 0.820102 0
M  V30 3855 C 379.357 1.2628 1.91275 0
M  V30 3856 C 380.357 0.177344 1.59819 0
M  V30 3857 O 381.547 0.430156 1.68806 0
M  V30 3858 C 378.679 0.950327 3.27386 0
M  V30 3859 H 379.872 2.23421 2.00057 0
M  V30 3860 H 377.425 1.1891 1.0144 0
M  V30 3861 H 378.16 -0.0177938 3.24295 0
M  V30 3862 H 377.945 1.73549 3.51601 0
M  V30 3863 H 379.435 0.917492 4.07396 0
M  V30 3864 N 379.872 -1.04064 1.18357 0
M  V30 3865 C 381.118 -1.77528 0.980397 0
M  V30 3866 C 381.451 -1.87948 -0.48879 0
M  V30 3867 O 380.726 -1.3876 -1.36293 0
M  V30 3868 C 381.009 -3.20797 1.63588 0
M  V30 3869 C 380.862 -3.1832 3.17793 0
M  V30 3870 C 382.181 -4.18911 1.34914 0
M  V30 3871 H 379.3 -0.644443 0.357578 0
M  V30 3872 H 381.942 -1.2156 1.46024 0
M  V30 3873 H 380.092 -3.68586 1.22788 0
M  V30 3874 H 381.764 -2.78521 3.67728 0
M  V30 3875 H 380.007 -2.56351 3.49952 0
M  V30 3876 H 380.678 -4.19489 3.58794 0
M  V30 3877 H 383.154 -3.7967 1.70265 0
M  V30 3878 H 382.03 -5.17374 1.83346 0
M  V30 3879 H 382.291 -4.41262 0.272027 0
M  V30 3880 N 381.35 -0.985608 -1.22978 0
M  V30 3881 C 382.578 -0.675582 -1.95559 0
M  V30 3882 C 382.993 0.758413 -1.72897 0
M  V30 3883 O 382.35 1.51094 -1.02357 0
M  V30 3884 C 382.401 -0.96293 -3.48439 0
M  V30 3885 O 382.122 -2.34057 -3.70336 0
M  V30 3886 C 383.623 -0.669585 -4.38214 0
M  V30 3887 H 380.843 -0.250523 -0.622478 0
M  V30 3888 H 383.387 -1.3184 -1.56328 0
M  V30 3889 H 381.542 -0.366033 -3.85667 0
M  V30 3890 H 381.956 -2.43424 -4.64591 0
M  V30 3891 H 383.43 -0.920967 -5.44263 0
M  V30 3892 H 383.907 0.396383 -4.37408 0
M  V30 3893 H 384.513 -1.2472 -4.06602 0
M  V30 3894 N 382.828 1.3818 -0.7579 0
M  V30 3895 C 383.775 2.30416 -0.133057 0
M  V30 3896 C 384.745 1.50398 0.704957 0
M  V30 3897 O 385.93 1.79014 0.660192 0
M  V30 3898 C 383.07 3.36834 0.750813 0
M  V30 3899 C 382.183 4.31879 -0.102297 0
M  V30 3900 C 381.318 5.25368 0.784979 0
M  V30 3901 C 380.357 6.12058 -0.0715046 0
M  V30 3902 N 379.494 6.97832 0.772972 0
M  V30 3903 H 384.334 2.83274 -0.925186 0
M  V30 3904 H 381.871 1.39461 -0.467866 0
M  V30 3905 H 383.829 3.97145 1.27794 0
M  V30 3906 H 382.459 2.85374 1.50868 0
M  V30 3907 H 381.511 3.72991 -0.747095 0
M  V30 3908 H 382.823 4.92921 -0.763552 0
M  V30 3909 H 381.977 5.90818 1.37911 0
M  V30 3910 H 380.716 4.64703 1.47996 0
M  V30 3911 H 379.721 5.456 -0.678272 0
M  V30 3912 H 380.946 6.74793 -0.763606 0
M  V30 3913 H 378.892 6.3971 1.45282 0
M  V30 3914 H 378.809 7.55812 0.168709 0
M  V30 3915 H 380.077 7.67687 1.35194 0
M  V30 3916 N 384.306 0.507319 1.49211 0
M  V30 3917 C 385.534 -0.0315749 2.06876 0
M  V30 3918 C 385.949 -1.30241 1.36685 0
M  V30 3919 O 385.306 -1.76937 0.447152 0
M  V30 3920 C 385.357 -0.282627 3.60393 0
M  V30 3921 O 385.078 0.937835 4.27944 0
M  V30 3922 C 386.579 -0.864453 4.3479 0
M  V30 3923 H 383.799 0.0233048 0.670595 0
M  V30 3924 H 386.343 0.706484 1.91909 0
M  V30 3925 H 384.498 -0.97068 3.75042 0
M  V30 3926 H 384.912 0.704567 5.19746 0
M  V30 3927 H 386.386 -0.989664 5.43056 0
M  V30 3928 H 386.863 -1.86382 3.97692 0
M  V30 3929 H 387.469 -0.213672 4.24763 0
M  V30 3930 N 385.784 -1.5574 0.241426 0
M  V30 3931 C 386.716 -2.18469 -0.693091 0
M  V30 3932 C 387.729 -1.15942 -1.14286 0
M  V30 3933 O 388.918 -1.42832 -1.07058 0
M  V30 3934 C 386.018 -2.7696 -1.95311 0
M  V30 3935 C 385.191 -4.04853 -1.65568 0
M  V30 3936 C 384.25 -4.47715 -2.76474 0
M  V30 3937 O 383.276 -5.14205 -2.44094 0
M  V30 3938 N 384.478 -4.15044 -4.05855 0
M  V30 3939 H 387.243 -2.99292 -0.156388 0
M  V30 3940 H 384.804 -1.61784 0.0611752 0
M  V30 3941 H 386.796 -3.02594 -2.68736 0
M  V30 3942 H 385.366 -2.00326 -2.39975 0
M  V30 3943 H 384.586 -3.86865 -0.756886 0
M  V30 3944 H 385.874 -4.88246 -1.43153 0
M  V30 3945 H 385.272 -3.61654 -4.34998 0
M  V30 3946 H 383.829 -4.45526 -4.75762 0
M  V30 3947 N 387.262 0.0317525 -1.57568 0
M  V30 3948 C 388.487 0.738664 -1.938 0
M  V30 3949 C 388.912 1.68242 -0.841208 0
M  V30 3950 O 388.27 1.80157 0.203267 0
M  V30 3951 C 388.318 1.47417 -3.29091 0
M  V30 3952 O 387.422 2.5872 -3.2115 0
M  V30 3953 H 386.763 0.198856 -0.633524 0
M  V30 3954 H 389.293 -0.0119713 -2.04596 0
M  V30 3955 H 389.303 1.84468 -3.63917 0
M  V30 3956 H 387.978 0.781988 -4.08482 0
M  V30 3957 H 386.555 2.24231 -2.97951 0
M  V30 3958 N 388.74 1.54641 0.303973 0
M  V30 3959 C 390.017 1.64455 1.05896 0
M  V30 3960 C 390.397 0.490923 2.05312 0
M  V30 3961 O 389.745 -0.512685 2.22674 0
M  V30 3962 C 389.955 3.02331 1.74347 0
M  V30 3963 C 391.303 3.59045 2.26653 0
M  V30 3964 O 392.327 3.04764 1.84384 0
M  V30 3965 O 391.186 4.54081 3.04093 0
M  V30 3966 H 388.28 0.666729 0.489287 0
M  V30 3967 H 390.826 1.66986 0.302298 0
M  V30 3968 H 389.598 3.77734 1.02142 0
M  V30 3969 H 389.221 3.03565 2.56777 0
M  V30 3970 N 390.218 -0.567019 1.47046 0
M  V30 3971 C 391.128 -1.70247 1.6141 0
M  V30 3972 C 392.144 -1.66746 0.497157 0
M  V30 3973 O 393.32 -1.86371 0.763389 0
M  V30 3974 C 390.385 -3.06756 1.61561 0
M  V30 3975 C 389.446 -3.21399 2.84607 0
M  V30 3976 C 388.679 -4.51396 2.84741 0
M  V30 3977 O 388.902 -5.36255 1.94388 0
M  V30 3978 O 387.836 -4.69621 3.76483 0
M  V30 3979 H 391.662 -1.61073 2.57467 0
M  V30 3980 H 389.247 -0.735894 1.30019 0
M  V30 3981 H 391.129 -3.8801 1.64396 0
M  V30 3982 H 389.804 -3.16333 0.686684 0
M  V30 3983 H 388.711 -2.39579 2.8732 0
M  V30 3984 H 390.044 -3.16721 3.76761 0
M  V30 3985 N 391.696 -1.35014 -0.812953 0
M  V30 3986 C 392.926 -1.30841 -1.59888 0
M  V30 3987 C 393.334 0.117576 -1.88834 0
M  V30 3988 O 392.677 1.07807 -1.48739 0
M  V30 3989 C 392.739 -2.0412 -2.95931 0
M  V30 3990 C 392.403 -3.53336 -2.89832 0
M  V30 3991 C 393.4 -4.48052 -2.63714 0
M  V30 3992 C 391.085 -3.95894 -3.0915 0
M  V30 3993 C 393.079 -5.833 -2.56982 0
M  V30 3994 C 390.766 -5.31239 -3.0204 0
M  V30 3995 C 391.764 -6.24754 -2.75991 0
M  V30 3996 O 391.452 -7.57617 -2.68833 0
M  V30 3997 H 391.184 -0.451215 -0.50337 0
M  V30 3998 H 393.738 -1.78354 -1.01877 0
M  V30 3999 H 391.968 -1.51235 -3.559 0
M  V30 4000 H 393.657 -1.93107 -3.57022 0
M  V30 4001 H 394.423 -4.16492 -2.48515 0
M  V30 4002 H 390.302 -3.23495 -3.28438 0
M  V30 4003 H 393.846 -6.56263 -2.36569 0
M  V30 4004 H 389.743 -5.62415 -3.16796 0
M  V30 4005 H 390.511 -7.67469 -2.84487 0
M  V30 4006 N 393.175 1.03435 -1.18907 0
M  V30 4007 C 394.421 1.77005 -0.989798 0
M  V30 4008 C 394.754 1.88205 0.478816 0
M  V30 4009 O 394.029 1.39481 1.35556 0
M  V30 4010 C 394.312 3.19925 -1.65287 0
M  V30 4011 C 394.165 3.1663 -3.19477 0
M  V30 4012 C 395.484 4.18189 -1.37134 0
M  V30 4013 H 392.603 0.642538 -0.360991 0
M  V30 4014 H 395.245 1.20784 -1.46667 0
M  V30 4015 H 393.395 3.67929 -1.24741 0
M  V30 4016 H 395.067 2.76567 -3.692 0
M  V30 4017 H 393.31 2.54491 -3.51307 0
M  V30 4018 H 393.981 4.1758 -3.61013 0
M  V30 4019 H 396.457 3.78761 -1.72276 0
M  V30 4020 H 395.333 5.16394 -1.86087 0
M  V30 4021 H 395.594 4.41112 -0.295424 0
M  V30 4022 N 394.653 0.992116 1.22453 0
M  V30 4023 C 395.9 0.667534 1.91181 0
M  V30 4024 C 396.228 -0.800317 1.77271 0
M  V30 4025 O 395.483 -1.59421 1.13505 0
M  V30 4026 C 395.782 1.01832 3.42586 0
M  V30 4027 C 395.448 2.47831 3.76684 0
M  V30 4028 C 394.11 2.87729 3.85701 0
M  V30 4029 C 396.462 3.42466 3.92895 0
M  V30 4030 C 393.79 4.21252 4.08367 0
M  V30 4031 C 396.142 4.75648 4.17064 0
M  V30 4032 C 394.806 5.15288 4.24305 0
M  V30 4033 H 394.076 0.244268 0.699581 0
M  V30 4034 H 396.723 1.24816 1.45235 0
M  V30 4035 H 395.028 0.355769 3.90181 0
M  V30 4036 H 396.725 0.745228 3.94014 0
M  V30 4037 H 393.315 2.15905 3.70247 0
M  V30 4038 H 397.499 3.12814 3.85307 0
M  V30 4039 H 392.755 4.51554 4.122 0
M  V30 4040 H 396.929 5.48924 4.2855 0
M  V30 4041 H 394.556 6.18769 4.41621 0
M  V30 4042 N 396.131 -1.37776 0.765217 0
M  V30 4043 C 397.547 -1.53297 0.444108 0
M  V30 4044 C 397.747 -1.72515 -1.04119 0
M  V30 4045 O 396.803 -1.74278 -1.82711 0
M  V30 4046 C 398.116 -2.73328 1.25349 0
M  V30 4047 C 399.664 -2.87185 1.24473 0
M  V30 4048 C 400.139 -4.10191 2.03733 0
M  V30 4049 N 401.63 -4.17291 2.01053 0
M  V30 4050 C 402.365 -5.11488 2.59166 0
M  V30 4051 N 401.861 -6.11285 3.26041 0
M  V30 4052 N 403.654 -5.03924 2.49032 0
M  V30 4053 H 395.805 -1.23552 1.72768 0
M  V30 4054 H 398.068 -0.601103 0.733062 0
M  V30 4055 H 397.774 -2.6557 2.30577 0
M  V30 4056 H 397.648 -3.66834 0.87823 0
M  V30 4057 H 400.035 -2.94418 0.20047 0
M  V30 4058 H 400.116 -1.94657 1.65959 0
M  V30 4059 H 399.76 -4.0372 3.08176 0
M  V30 4060 H 399.69 -5.01821 1.59633 0
M  V30 4061 H 402.181 -3.45825 1.5236 0
M  V30 4062 H 402.494 -6.79678 3.67774 0
M  V30 4063 H 400.839 -6.11583 3.30138 0
M  V30 4064 H 404.03 -4.24902 1.96407 0
M  V30 4065 H 404.203 -5.77152 2.94617 0
M  V30 4066 N 397.609 -0.515225 -1.4894 0
M  V30 4067 C 398.572 0.244681 -2.2789 0
M  V30 4068 C 399.572 0.881166 -1.34507 0
M  V30 4069 O 400.762 0.743497 -1.57537 0
M  V30 4070 C 397.894 1.35247 -3.12923 0
M  V30 4071 H 399.087 -0.448289 -2.96531 0
M  V30 4072 H 396.64 -0.270656 -1.53939 0
M  V30 4073 H 397.375 2.07916 -2.48881 0
M  V30 4074 H 397.16 0.901374 -3.81599 0
M  V30 4075 H 398.65 1.88737 -3.72516 0
M  V30 4076 N 399.087 1.5561 -0.249682 0
M  V30 4077 C 400.05 2.20217 0.635394 0
M  V30 4078 C 401.05 1.17227 1.10066 0
M  V30 4079 O 402.24 1.42292 1.00492 0
M  V30 4080 C 399.372 2.84794 1.87363 0
M  V30 4081 H 400.565 2.99814 0.0716752 0
M  V30 4082 H 398.118 1.563 -0.000153234 0
M  V30 4083 H 398.853 2.09142 2.47851 0
M  V30 4084 H 398.638 3.60241 1.5482 0
M  V30 4085 H 400.128 3.3423 2.5036 0
M  V30 4086 N 400.565 -0.0233959 1.57583 0
M  V30 4087 C 401.976 -0.56927 1.77809 0
M  V30 4088 C 402.327 -1.75284 0.881472 0
M  V30 4089 O 401.452 -2.1626 0.0777805 0
M  V30 4090 C 402.047 -1.03949 3.22459 0
M  V30 4091 C 400.606 -1.53084 3.43864 0
M  V30 4092 C 399.753 -0.471454 2.73263 0
M  V30 4093 H 402.704 0.202825 1.57399 0
M  V30 4094 H 402.725 -1.90661 3.29285 0
M  V30 4095 H 402.237 -0.177865 3.87692 0
M  V30 4096 H 400.338 -2.41414 2.83814 0
M  V30 4097 H 400.451 -1.57443 4.52491 0
M  V30 4098 H 398.815 -0.927788 2.37201 0
M  V30 4099 H 399.598 0.380808 3.41181 0
M  V30 4100 N 402.043 -1.548 -0.295768 0
M  V30 4101 C 402.973 -1.89115 -1.36959 0
M  V30 4102 C 403.954 -0.75059 -1.52644 0
M  V30 4103 O 405.139 -1.00678 -1.66065 0
M  V30 4104 C 402.269 -2.14307 -2.73295 0
M  V30 4105 C 401.223 -3.30151 -2.72368 0
M  V30 4106 C 400.549 -3.40772 -4.12042 0
M  V30 4107 C 401.849 -4.67126 -2.33646 0
M  V30 4108 H 403.543 -2.79053 -1.08488 0
M  V30 4109 H 401.089 -1.34266 -0.520443 0
M  V30 4110 H 403.042 -2.36898 -3.48507 0
M  V30 4111 H 401.766 -1.21145 -3.03301 0
M  V30 4112 H 400.425 -3.0749 -1.99613 0
M  V30 4113 H 400.073 -2.45117 -4.39234 0
M  V30 4114 H 399.773 -4.18645 -4.12322 0
M  V30 4115 H 401.297 -3.6563 -4.89027 0
M  V30 4116 H 402.711 -4.89414 -2.98575 0
M  V30 4117 H 401.108 -5.47751 -2.45129 0
M  V30 4118 H 402.178 -4.67489 -1.28772 0
M  V30 4119 N 403.521 0.559213 -1.47345 0
M  V30 4120 C 404.937 0.884943 -1.32819 0
M  V30 4121 C 405.137 1.98988 -0.317173 0
M  V30 4122 O 404.193 2.51031 0.272011 0
M  V30 4123 C 405.506 1.28007 -2.72093 0
M  V30 4124 C 407.054 1.39161 -2.80363 0
M  V30 4125 C 407.529 1.82031 -4.20272 0
M  V30 4126 N 409.02 1.89185 -4.22804 0
M  V30 4127 C 409.755 2.2368 -5.27973 0
M  V30 4128 N 409.251 2.56802 -6.43447 0
M  V30 4129 N 411.044 2.24436 -5.15349 0
M  V30 4130 H 403.195 -0.170304 -2.11716 0
M  V30 4131 H 405.458 -0.0135247 -0.947904 0
M  V30 4132 H 405.164 0.542027 -3.47498 0
M  V30 4133 H 405.038 2.23665 -3.03733 0
M  V30 4134 H 407.425 2.12048 -2.05231 0
M  V30 4135 H 407.506 0.41696 -2.52379 0
M  V30 4136 H 407.15 1.09715 -4.95908 0
M  V30 4137 H 407.08 2.80495 -4.45679 0
M  V30 4138 H 409.571 1.65982 -3.39497 0
M  V30 4139 H 409.884 2.82144 -7.19454 0
M  V30 4140 H 408.229 2.54387 -6.46771 0
M  V30 4141 H 411.42 1.97998 -4.24163 0
M  V30 4142 H 411.593 2.50989 -5.97418 0
M  V30 4143 N 404.999 1.35443 0.805782 0
M  V30 4144 C 405.947 1.28465 1.93906 0
M  V30 4145 C 406.941 0.17943 1.68447 0
M  V30 4146 O 408.147 0.345459 1.76654 0
M  V30 4147 H 404.522 0.399528 0.637088 0
M  V30 4148 H 406.493 2.24206 1.96912 0
M  V30 4149 C 405.242 1.07432 3.30687 0
M  V30 4150 H 404.565 1.91716 3.50835 0
M  V30 4151 H 406.005 1.06591 4.10383 0
M  V30 4152 C 404.464 -0.22179 3.36169 0
M  V30 4153 O 404.994 -1.21731 3.82811 0
M  V30 4154 N 403.2 -0.260841 2.89427 0
M  V30 4155 H 402.747 0.549884 2.51663 0
M  V30 4156 H 402.705 -1.12777 2.93477 0
M  V30 4157 N 406.477 -1.02803 1.19454 0
M  V30 4158 C 407.723 -1.76478 0.999171 0
M  V30 4159 C 408.056 -1.88456 -0.468828 0
M  V30 4160 O 407.331 -1.40198 -1.34814 0
M  V30 4161 C 407.614 -3.19044 1.66981 0
M  V30 4162 C 407.467 -3.14932 3.21151 0
M  V30 4163 C 408.786 -4.17456 1.39349 0
M  V30 4164 H 405.905 -0.640614 0.364393 0
M  V30 4165 H 408.547 -1.20005 1.47305 0
M  V30 4166 H 406.697 -3.67263 1.2669 0
M  V30 4167 H 408.369 -2.74605 3.70661 0
M  V30 4168 H 406.612 -2.52625 3.52652 0
M  V30 4169 H 407.283 -4.1566 3.63223 0
M  V30 4170 H 409.759 -3.77842 1.74283 0
M  V30 4171 H 408.635 -5.154 1.88823 0
M  V30 4172 H 408.896 -4.40949 0.318813 0
M  V30 4173 N 407.956 -0.998596 -1.21925 0
M  V30 4174 C 408.919 -0.558679 -2.22287 0
M  V30 4175 C 409.919 0.361525 -1.56683 0
M  V30 4176 O 411.109 0.152695 -1.73529 0
M  V30 4177 C 408.241 0.18661 -3.40389 0
M  V30 4178 H 409.434 -1.4463 -2.62721 0
M  V30 4179 H 406.987 -0.786413 -1.35075 0
M  V30 4180 H 407.722 1.08996 -3.05435 0
M  V30 4181 H 407.507 -0.474188 -3.89222 0
M  V30 4182 H 408.997 0.482367 -4.14805 0
M  V30 4183 N 409.434 1.37368 -0.772513 0
M  V30 4184 C 410.364 2.32856 -0.173304 0
M  V30 4185 C 411.345 1.55818 0.682262 0
M  V30 4186 O 412.53 1.84052 0.619566 0
M  V30 4187 C 409.66 3.40048 0.706007 0
M  V30 4188 C 408.614 4.27973 -0.0483144 0
M  V30 4189 C 407.94 5.26184 0.950491 0
M  V30 4190 C 409.24 5.07665 -1.22776 0
M  V30 4191 H 410.934 2.83217 -0.971002 0
M  V30 4192 H 408.48 1.3617 -0.468377 0
M  V30 4193 H 410.433 4.05827 1.13501 0
M  V30 4194 H 409.157 2.88214 1.53623 0
M  V30 4195 H 407.816 3.63726 -0.458107 0
M  V30 4196 H 407.464 4.7063 1.77529 0
M  V30 4197 H 407.164 5.85872 0.450314 0
M  V30 4198 H 408.688 5.94838 1.37842 0
M  V30 4199 H 410.102 5.66578 -0.875366 0
M  V30 4200 H 408.499 5.76681 -1.66007 0
M  V30 4201 H 409.569 4.40294 -2.03149 0
M  V30 4202 N 410.912 0.523116 1.48665 0
M  V30 4203 C 412.14 -0.0096312 2.06898 0
M  V30 4204 C 412.555 -1.28784 1.38059 0
M  V30 4205 O 411.912 -1.76453 0.465893 0
M  V30 4206 C 411.963 -0.244386 3.60673 0
M  V30 4207 O 411.684 0.983172 4.26925 0
M  V30 4208 C 413.185 -0.818289 4.35682 0
M  V30 4209 H 410.405 0.0304161 0.67031 0
M  V30 4210 H 412.949 0.726799 1.91149 0
M  V30 4211 H 411.104 -0.930847 3.76051 0
M  V30 4212 H 411.518 0.759653 5.1897 0
M  V30 4213 H 412.992 -0.93201 5.44075 0
M  V30 4214 H 413.469 -1.82153 3.99646 0
M  V30 4215 H 414.075 -0.168609 4.24966 0
M  V30 4216 N 412.39 -1.55475 0.257931 0
M  V30 4217 C 413.353 -2.20551 -0.623706 0
M  V30 4218 C 414.353 -1.17809 -1.09443 0
M  V30 4219 O 415.543 -1.42823 -0.997362 0
M  V30 4220 C 412.675 -2.85784 -1.8585 0
M  V30 4221 H 413.868 -2.99848 -0.0557743 0
M  V30 4222 H 411.421 -1.56298 0.0084422 0
M  V30 4223 H 412.156 -2.10453 -2.46739 0
M  V30 4224 H 411.941 -3.61057 -1.52907 0
M  V30 4225 H 413.431 -3.35553 -2.48584 0
M  V30 4226 N 413.868 0.0150385 -1.57593 0
M  V30 4227 C 415.279 0.559832 -1.78109 0
M  V30 4228 C 415.63 1.74814 -0.890756 0
M  V30 4229 O 414.755 2.16216 -0.0892482 0
M  V30 4230 C 415.35 1.02238 -3.23006 0
M  V30 4231 C 413.909 1.51258 -3.44671 0
M  V30 4232 C 413.056 0.456955 -2.73509 0
M  V30 4233 H 416.007 -0.211169 -1.57289 0
M  V30 4234 H 416.028 1.88912 -3.30292 0
M  V30 4235 H 415.54 0.157302 -3.87781 0
M  V30 4236 H 413.641 2.39905 -2.8509 0
M  V30 4237 H 413.754 1.55042 -4.5332 0
M  V30 4238 H 412.118 0.915196 -2.37689 0
M  V30 4239 H 412.901 -0.398896 -3.40975 0
M  V30 4240 N 415.346 1.54954 0.287554 0
M  V30 4241 C 416.576 1.78622 1.03816 0
M  V30 4242 C 416.984 0.552451 1.80955 0
M  V30 4243 O 416.327 -0.487665 1.77109 0
M  V30 4244 C 416.389 2.94975 2.055 0
M  V30 4245 C 416.053 4.32565 1.47433 0
M  V30 4246 C 417.05 5.12096 0.897436 0
M  V30 4247 C 414.735 4.79195 1.50591 0
M  V30 4248 C 416.729 6.36383 0.359851 0
M  V30 4249 C 414.416 6.03441 0.964459 0
M  V30 4250 C 415.414 6.81872 0.392413 0
M  V30 4251 O 415.102 8.03777 -0.140788 0
M  V30 4252 H 414.834 0.599144 0.313053 0
M  V30 4253 H 417.388 2.02761 0.328225 0
M  V30 4254 H 415.618 2.66493 2.80211 0
M  V30 4255 H 417.307 3.06097 2.6657 0
M  V30 4256 H 418.073 4.77209 0.865841 0
M  V30 4257 H 413.952 4.18167 1.94055 0
M  V30 4258 H 417.496 6.97545 -0.0872951 0
M  V30 4259 H 413.393 6.37813 0.993246 0
M  V30 4260 H 414.161 8.18495 -0.0287617 0
M  V30 4261 N 416.824 -0.551391 1.4764 0
M  V30 4262 C 418.071 -1.3083 1.54563 0
M  V30 4263 C 418.399 -1.93359 0.210361 0
M  V30 4264 O 417.654 -1.78721 -0.797332 0
M  V30 4265 C 417.953 -2.43469 2.61644 0
M  V30 4266 C 417.619 -1.98732 4.04742 0
M  V30 4267 C 416.281 -1.86248 4.43695 0
M  V30 4268 C 418.633 -1.64659 4.94507 0
M  V30 4269 C 415.961 -1.37995 5.70241 0
M  V30 4270 C 418.313 -1.17875 6.21521 0
M  V30 4271 C 416.977 -1.03992 6.5935 0
M  V30 4272 H 416.247 -0.478741 0.565587 0
M  V30 4273 H 418.894 -0.617697 1.81264 0
M  V30 4274 H 417.199 -3.18109 2.28722 0
M  V30 4275 H 418.896 -3.01642 2.64222 0
M  V30 4276 H 415.486 -2.09393 3.73968 0
M  V30 4277 H 419.67 -1.73174 4.65107 0
M  V30 4278 H 414.926 -1.25915 5.98294 0
M  V30 4279 H 419.1 -0.905739 6.90485 0
M  V30 4280 H 416.727 -0.663794 7.57296 0
M  V30 4281 N 418.302 -1.35869 -0.798587 0
M  V30 4282 C 419.252 -1.25982 -1.90033 0
M  V30 4283 C 420.236 -0.153303 -1.60168 0
M  V30 4284 O 421.428 -0.38527 -1.72756 0
M  V30 4285 C 418.557 -1.04211 -3.27101 0
M  V30 4286 C 417.643 -2.19289 -3.63006 0
M  V30 4287 N 418.034 -3.44559 -3.70287 0
M  V30 4288 C 416.332 -2.10852 -3.93011 0
M  V30 4289 C 417.033 -4.20283 -4.02166 0
M  V30 4290 N 416.009 -3.49124 -4.16669 0
M  V30 4291 H 419.811 -2.20883 -1.93876 0
M  V30 4292 H 417.325 -1.28457 -0.993614 0
M  V30 4293 H 419.322 -0.952155 -4.05881 0
M  V30 4294 H 417.982 -0.102013 -3.2454 0
M  V30 4295 H 418.993 -3.7881 -3.53162 0
M  V30 4296 H 415.67 -1.24744 -3.98428 0
M  V30 4297 H 417.06 -5.28575 -4.14799 0
M  V30 4298 N 419.78 1.02168 -1.19998 0
M  V30 4299 C 421.005 1.79833 -1.03319 0
M  V30 4300 C 421.43 1.83504 0.413281 0
M  V30 4301 O 420.788 1.26635 1.29743 0
M  V30 4302 C 420.836 3.22396 -1.61533 0
M  V30 4303 O 419.94 4.03555 -0.849519 0
M  V30 4304 H 419.281 0.554872 -0.364709 0
M  V30 4305 H 421.811 1.28542 -1.59179 0
M  V30 4306 H 421.821 3.73124 -1.65054 0
M  V30 4307 H 420.496 3.19039 -2.66809 0
M  V30 4308 H 419.073 3.62169 -0.888129 0
M  V30 4309 N 421.258 1.00505 1.21394 0
M  V30 4310 C 422.506 0.686415 1.90086 0
M  V30 4311 C 422.827 -0.785264 1.7849 0
M  V30 4312 O 422.097 -1.56387 1.17983 0
M  V30 4313 H 420.677 0.2509 0.703604 0
M  V30 4314 H 423.339 1.27417 1.47482 0
M  V30 4315 H 422.435 0.959621 2.96981 0
M  V30 4316 N 422.737 -1.36956 0.779787 0
M  V30 4317 C 423.669 -2.28833 0.129639 0
M  V30 4318 C 424.682 -1.4902 -0.655511 0
M  V30 4319 O 425.871 -1.71578 -0.492279 0
M  V30 4320 C 422.971 -3.2833 -0.839792 0
M  V30 4321 C 422.144 -4.3727 -0.10675 0
M  V30 4322 C 421.203 -5.16789 -0.990717 0
M  V30 4323 O 420.229 -5.67406 -0.451516 0
M  V30 4324 N 421.431 -5.32294 -2.3161 0
M  V30 4325 H 424.196 -2.85268 0.918803 0
M  V30 4326 H 421.757 -1.49019 0.632841 0
M  V30 4327 H 423.749 -3.78413 -1.43477 0
M  V30 4328 H 422.319 -2.72605 -1.52988 0
M  V30 4329 H 421.539 -3.88478 0.669216 0
M  V30 4330 H 422.827 -5.07229 0.399464 0
M  V30 4331 H 422.225 -4.92768 -2.77843 0
M  V30 4332 H 420.782 -5.85656 -2.86095 0
M  V30 4333 N 424.215 -0.530993 -1.48385 0
M  V30 4334 C 425.461 0.00274135 -2.028 0
M  V30 4335 C 425.794 1.33838 -1.40716 0
M  V30 4336 O 425.069 1.86465 -0.553277 0
M  V30 4337 C 425.352 0.123676 -3.59888 0
M  V30 4338 C 425.205 -1.2372 -4.3245 0
M  V30 4339 C 426.524 0.849967 -4.31814 0
M  V30 4340 H 423.643 -0.000477758 -0.737 0
M  V30 4341 H 426.285 -0.688217 -1.77098 0
M  V30 4342 H 424.435 0.712157 -3.81917 0
M  V30 4343 H 426.107 -1.86687 -4.21836 0
M  V30 4344 H 424.35 -1.81882 -3.93829 0
M  V30 4345 H 425.021 -1.10557 -5.40815 0
M  V30 4346 H 427.497 0.350572 -4.14621 0
M  V30 4347 H 426.373 0.903486 -5.41413 0
M  V30 4348 H 426.634 1.90047 -3.99167 0
M  V30 4349 N 425.693 1.55336 -0.266172 0
M  V30 4350 C 426.939 2.00423 0.346714 0
M  V30 4351 C 427.294 1.15132 1.54151 0
M  V30 4352 O 426.587 0.211289 1.90431 0
M  V30 4353 C 426.781 3.48606 0.787957 0
M  V30 4354 C 426.61 4.48236 -0.362535 0
M  V30 4355 C 425.38 4.98211 -0.843445 0
M  V30 4356 C 427.578 5.00199 -1.19603 0
M  V30 4357 N 425.56 5.81625 -1.96434 0
M  V30 4358 C 426.931 5.80973 -2.16497 0
M  V30 4359 C 428.986 4.82458 -1.2304 0
M  V30 4360 C 427.689 6.45896 -3.1656 0
M  V30 4361 C 429.715 5.48174 -2.21944 0
M  V30 4362 C 429.077 6.28751 -3.17571 0
M  V30 4363 H 425.176 0.776535 0.0922914 0
M  V30 4364 H 427.76 1.90792 -0.388154 0
M  V30 4365 H 425.931 3.58597 1.49207 0
M  V30 4366 H 427.663 3.80538 1.37742 0
M  V30 4367 H 424.418 4.71696 -0.424271 0
M  V30 4368 H 424.842 6.28025 -2.52813 0
M  V30 4369 H 429.484 4.19774 -0.504903 0
M  V30 4370 H 427.202 7.07734 -3.90048 0
M  V30 4371 H 430.788 5.36392 -2.25333 0
M  V30 4372 H 429.668 6.78703 -3.92851 0
M  V30 4373 N 427.171 -0.0066808 1.57599 0
M  V30 4374 C 428.081 -1.01671 2.11424 0
M  V30 4375 C 429.097 -1.38143 1.05795 0
M  V30 4376 O 430.273 -1.47011 1.37658 0
M  V30 4377 C 427.338 -2.29192 2.60139 0
M  V30 4378 C 426.399 -1.99094 3.80342 0
M  V30 4379 C 425.632 -3.20535 4.26724 0
M  V30 4380 O 425.855 -4.3199 3.72479 0
M  V30 4381 O 424.789 -3.04924 5.18946 0
M  V30 4382 H 428.615 -0.589181 2.9793 0
M  V30 4383 H 426.2 -0.225091 1.47695 0
M  V30 4384 H 428.082 -3.0412 2.917 0
M  V30 4385 H 426.757 -2.71195 1.76733 0
M  V30 4386 H 425.664 -1.21663 3.53764 0
M  V30 4387 H 426.997 -1.61931 4.648 0
M  V30 4388 N 428.649 -1.55105 -0.279332 0
M  V30 4389 C 429.579 -1.90557 -1.34945 0
M  V30 4390 C 430.56 -0.766738 -1.51839 0
M  V30 4391 O 431.745 -1.02434 -1.64988 0
M  V30 4392 C 428.875 -2.17193 -2.71006 0
M  V30 4393 C 427.829 -3.33021 -2.68851 0
M  V30 4394 C 427.155 -3.45123 -4.08405 0
M  V30 4395 C 428.455 -4.69578 -2.28678 0
M  V30 4396 H 430.149 -2.80188 -1.05522 0
M  V30 4397 H 427.695 -1.34811 -0.506173 0
M  V30 4398 H 429.648 -2.40581 -3.45975 0
M  V30 4399 H 428.372 -1.24355 -3.01999 0
M  V30 4400 H 427.031 -3.0959 -1.9634 0
M  V30 4401 H 426.679 -2.49762 -4.3661 0
M  V30 4402 H 426.379 -4.22995 -4.07859 0
M  V30 4403 H 427.903 -3.70796 -4.85121 0
M  V30 4404 H 429.317 -4.92553 -2.93368 0
M  V30 4405 H 427.714 -5.5032 -2.39306 0
M  V30 4406 H 428.784 -4.68828 -1.23807 0
M  V30 4407 N 430.127 0.543554 -1.4793 0
M  V30 4408 C 431.074 1.64942 -1.6144 0
M  V30 4409 C 432.044 1.59692 -0.456903 0
M  V30 4410 O 433.229 1.78321 -0.678688 0
M  V30 4411 C 430.369 3.03238 -1.64744 0
M  V30 4412 C 429.482 3.18823 -2.91506 0
M  V30 4413 C 428.617 4.47599 -2.86057 0
M  V30 4414 C 427.656 4.56664 -4.07584 0
M  V30 4415 N 426.793 5.76811 -4.00292 0
M  V30 4416 H 431.633 1.52733 -2.55884 0
M  V30 4417 H 429.17 0.7438 -1.2691 0
M  V30 4418 H 431.128 3.83339 -1.64641 0
M  V30 4419 H 429.758 3.1425 -0.738017 0
M  V30 4420 H 428.81 2.32064 -3.01414 0
M  V30 4421 H 430.122 3.21384 -3.81463 0
M  V30 4422 H 429.276 5.35975 -2.84281 0
M  V30 4423 H 428.015 4.47538 -1.93807 0
M  V30 4424 H 427.02 3.66697 -4.09651 0
M  V30 4425 H 428.245 4.58474 -5.00978 0
M  V30 4426 H 426.191 5.77673 -3.10853 0
M  V30 4427 H 426.108 5.80808 -4.8394 0
M  V30 4428 H 427.376 6.67512 -4.02553 0
M  V30 4429 N 431.605 1.3629 0.791371 0
M  V30 4430 C 432.882 1.20962 1.53712 0
M  V30 4431 C 433.262 -0.205021 2.10102 0
M  V30 4432 O 432.61 -1.21042 1.93807 0
M  V30 4433 C 432.82 2.29002 2.63361 0
M  V30 4434 C 434.168 2.65572 3.31295 0
M  V30 4435 O 435.192 2.2803 2.73643 0
M  V30 4436 O 434.051 3.3018 4.35481 0
M  V30 4437 H 431.145 0.47086 0.679867 0
M  V30 4438 H 433.691 1.48016 0.830021 0
M  V30 4439 H 432.463 3.2382 2.19674 0
M  V30 4440 H 432.086 2.03303 3.41692 0
M  V30 4441 N 433.083 -1.0153 1.20538 0
M  V30 4442 C 434.046 -2.0826 0.957098 0
M  V30 4443 C 435.046 -1.60657 -0.0678655 0
M  V30 4444 O 436.236 -1.73385 0.168332 0
M  V30 4445 C 433.368 -3.38033 0.441188 0
M  V30 4446 H 434.561 -2.31719 1.90384 0
M  V30 4447 H 432.114 -1.1835 1.02093 0
M  V30 4448 H 432.849 -3.20249 -0.510961 0
M  V30 4449 H 432.634 -3.73911 1.18038 0
M  V30 4450 H 434.124 -4.16613 0.287009 0
M  V30 4451 N 434.561 -1.01147 -1.20859 0
M  V30 4452 C 435.807 -0.698899 -1.90377 0
M  V30 4453 C 436.14 0.76904 -1.78324 0
M  V30 4454 O 435.415 1.55817 -1.16409 0
M  V30 4455 C 435.698 -1.12878 -3.41951 0
M  V30 4456 C 435.551 -2.65665 -3.62963 0
M  V30 4457 C 436.87 -0.696114 -4.3456 0
M  V30 4458 H 433.989 -0.255372 -0.691342 0
M  V30 4459 H 436.631 -1.25831 -1.42361 0
M  V30 4460 H 434.781 -0.652827 -3.82976 0
M  V30 4461 H 436.453 -3.21074 -3.31224 0
M  V30 4462 H 434.696 -3.06878 -3.06608 0
M  V30 4463 H 435.367 -2.90797 -4.69192 0
M  V30 4464 H 437.843 -1.10521 -4.01154 0
M  V30 4465 H 436.719 -1.025 -5.39245 0
M  V30 4466 H 436.98 0.402465 -4.40264 0
M  V30 4467 N 436.039 1.36541 -0.78704 0
M  V30 4468 C 437.002 2.28413 -0.189778 0
M  V30 4469 C 438.002 1.48719 0.611499 0
M  V30 4470 O 439.192 1.68737 0.432842 0
M  V30 4471 C 436.324 3.32824 0.737638 0
M  V30 4472 H 437.517 2.82743 -0.999831 0
M  V30 4473 H 435.07 1.46065 -0.556298 0
M  V30 4474 H 435.805 2.83646 1.57212 0
M  V30 4475 H 435.59 3.91752 0.165044 0
M  V30 4476 H 437.08 4.0144 1.15047 0
M  V30 4477 N 437.518 0.538854 1.48102 0
M  V30 4478 C 438.767 0.0059532 2.01699 0
M  V30 4479 C 439.08 -1.34476 1.42041 0
M  V30 4480 O 440.286 -1.96653 1.87189 0
M  V30 4481 C 438.742 -0.0397627 3.59878 0
M  V30 4482 C 438.35 1.30659 4.28523 0
M  V30 4483 C 440.094 -0.521024 4.2129 0
M  V30 4484 C 438.001 1.22098 5.78659 0
M  V30 4485 H 436.931 -0.00154456 0.753998 0
M  V30 4486 H 439.582 0.683963 1.70277 0
M  V30 4487 H 437.964 -0.783037 3.88181 0
M  V30 4488 H 439.138 2.06613 4.11883 0
M  V30 4489 H 437.453 1.7243 3.79021 0
M  V30 4490 H 440.05 -0.603184 5.31287 0
M  V30 4491 H 440.393 -1.52885 3.8721 0
M  V30 4492 H 440.926 0.166834 3.9745 0
M  V30 4493 H 437.665 2.20424 6.17328 0
M  V30 4494 H 437.185 0.50295 5.97688 0
M  V30 4495 H 438.864 0.915345 6.40492 0
M  V30 4496 N 438.996 -1.55193 0.274407 0
M  V30 4497 C 439.929 -2.18606 -0.654712 0
M  V30 4498 C 440.907 -1.14677 -1.15273 0
M  V30 4499 O 442.091 -1.43198 -1.22583 0
M  V30 4500 C 439.218 -2.80875 -1.89281 0
M  V30 4501 C 438.264 -3.981 -1.53032 0
M  V30 4502 S 439.097 -5.32025 -0.609107 0
M  V30 4503 C 440.253 -5.97761 -1.85559 0
M  V30 4504 H 440.486 -2.97074 -0.115894 0
M  V30 4505 H 438.019 -1.54288 0.05867 0
M  V30 4506 H 439.977 -3.17381 -2.60345 0
M  V30 4507 H 438.638 -2.02302 -2.40277 0
M  V30 4508 H 437.831 -4.40356 -2.45158 0
M  V30 4509 H 437.433 -3.63013 -0.899874 0
M  V30 4510 H 439.725 -6.16951 -2.7996 0
M  V30 4511 H 440.668 -6.92545 -1.47605 0
M  V30 4512 H 441.076 -5.27113 -2.02021 0
M  V30 4513 N 440.474 -0.00167713 -1.576 0
M  V30 4514 C 441.722 0.681471 -1.90264 0
M  V30 4515 C 442.043 1.7422 -0.875924 0
M  V30 4516 O 441.313 1.95709 0.0864412 0
M  V30 4517 H 439.893 0.254696 -0.702239 0
M  V30 4518 H 442.555 -0.0429996 -1.94853 0
M  V30 4519 H 441.651 1.15166 -2.90075 0
M  V30 4520 N 441.952 1.55251 0.271103 0
M  V30 4521 C 442.9 1.89054 1.35504 0
M  V30 4522 C 443.894 0.767064 1.51038 0
M  V30 4523 O 445.1 0.951429 1.528 0
M  V30 4524 H 441.475 0.600072 0.45323 0
M  V30 4525 H 443.446 2.79598 1.04247 0
M  V30 4526 C 442.195 2.18068 2.70817 0
M  V30 4527 H 441.518 3.04005 2.59656 0
M  V30 4528 H 442.958 2.4564 3.45597 0
M  V30 4529 C 441.417 0.988901 3.2206 0
M  V30 4530 O 441.947 0.224501 4.01072 0
M  V30 4531 N 440.153 0.786085 2.79766 0
M  V30 4532 H 439.7 1.40937 2.15626 0
M  V30 4533 H 439.658 -0.00969349 3.14399 0
M  V30 4534 N 443.43 -0.535701 1.48216 0
M  V30 4535 C 444.393 -1.623 1.61838 0
M  V30 4536 C 445.393 -1.53087 0.492024 0
M  V30 4537 O 446.583 -1.5686 0.757668 0
M  V30 4538 C 443.715 -3.01907 1.58319 0
M  V30 4539 H 444.908 -1.51564 2.58783 0
M  V30 4540 H 442.461 -0.757317 1.36727 0
M  V30 4541 H 443.196 -3.18155 0.628299 0
M  V30 4542 H 442.981 -3.10003 2.40085 0
M  V30 4543 H 444.471 -3.80969 1.71033 0
M  V30 4544 N 444.908 -1.36708 -0.784132 0
M  V30 4545 C 445.84 -1.27333 -1.90575 0
M  V30 4546 C 446.853 -0.191706 -1.61667 0
M  V30 4547 O 448.042 -0.446854 -1.72816 0
M  V30 4548 C 445.142 -0.943177 -3.25511 0
M  V30 4549 C 444.315 -2.12776 -3.82158 0
M  V30 4550 C 443.374 -1.76983 -4.95544 0
M  V30 4551 O 442.4 -2.49134 -5.11782 0
M  V30 4552 N 443.602 -0.706624 -5.76183 0
M  V30 4553 H 446.367 -2.23974 -1.99138 0
M  V30 4554 H 443.928 -1.30171 -0.962656 0
M  V30 4555 H 445.92 -0.684799 -3.98864 0
M  V30 4556 H 444.49 -0.0657333 -3.12531 0
M  V30 4557 H 443.71 -2.54863 -3.0073 0
M  V30 4558 H 444.998 -2.91904 -4.16737 0
M  V30 4559 H 444.396 -0.107643 -5.65598 0
M  V30 4560 H 442.953 -0.50808 -6.49817 0
M  V30 4561 N 446.386 1.0089 -1.21074 0
M  V30 4562 C 447.316 2.1145 -0.990523 0
M  V30 4563 C 448.297 1.69897 0.0831699 0
M  V30 4564 O 449.482 1.94052 -0.0758853 0
M  V30 4565 C 446.612 3.42914 -0.550177 0
M  V30 4566 C 445.566 3.98244 -1.56799 0
M  V30 4567 C 444.892 5.25568 -0.984013 0
M  V30 4568 C 446.192 4.30752 -2.95381 0
M  V30 4569 H 447.886 2.3013 -1.91521 0
M  V30 4570 H 445.432 1.10592 -0.92225 0
M  V30 4571 H 447.385 4.19653 -0.383305 0
M  V30 4572 H 446.109 3.24014 0.41015 0
M  V30 4573 H 444.768 3.23621 -1.72236 0
M  V30 4574 H 444.416 5.02998 -0.0155216 0
M  V30 4575 H 444.116 5.63551 -1.66384 0
M  V30 4576 H 445.64 6.04955 -0.828378 0
M  V30 4577 H 447.054 4.98349 -2.8341 0
M  V30 4578 H 445.451 4.79869 -3.60341 0
M  V30 4579 H 446.521 3.39192 -3.46521 0
M  V30 4580 N 447.864 1.01787 1.20321 0
M  V30 4581 C 449.112 0.706538 1.89347 0
M  V30 4582 C 449.433 -0.766289 1.79313 0
M  V30 4583 O 448.703 -1.55126 1.19635 0
M  V30 4584 H 447.283 0.258348 0.700903 0
M  V30 4585 H 449.945 1.28974 1.46122 0
M  V30 4586 H 449.041 0.991066 2.95946 0
M  V30 4587 N 449.342 -1.36122 0.79427 0
M  V30 4588 C 450.289 -2.29982 0.194101 0
M  V30 4589 C 451.259 -1.52214 -0.664833 0
M  V30 4590 O 452.444 -1.80702 -0.612498 0
M  V30 4591 C 449.584 -3.38706 -0.661244 0
M  V30 4592 C 448.697 -4.31456 0.216766 0
M  V30 4593 C 447.832 -5.27265 -0.645411 0
M  V30 4594 C 446.871 -6.11653 0.233756 0
M  V30 4595 N 446.008 -6.99636 -0.587682 0
M  V30 4596 H 450.848 -2.80722 0.999965 0
M  V30 4597 H 448.385 -1.38172 0.504677 0
M  V30 4598 H 450.343 -4.00394 -1.17219 0
M  V30 4599 H 448.973 -2.89274 -1.43249 0
M  V30 4600 H 448.025 -3.7088 0.845724 0
M  V30 4601 H 449.337 -4.90724 0.893973 0
M  V30 4602 H 448.491 -5.94266 -1.22198 0
M  V30 4603 H 447.23 -4.68463 -1.35623 0
M  V30 4604 H 446.235 -5.4361 0.82269 0
M  V30 4605 H 447.46 -6.72531 0.942247 0
M  V30 4606 H 445.406 -6.43337 -1.2827 0
M  V30 4607 H 445.323 -7.55993 0.0317402 0
M  V30 4608 H 446.591 -7.71001 -1.14792 0
M  V30 4609 N 450.82 -0.546701 -1.47814 0
M  V30 4610 C 451.752 0.244196 -2.27895 0
M  V30 4611 C 452.765 0.88911 -1.36377 0
M  V30 4612 O 453.954 0.764733 -1.61289 0
M  V30 4613 C 451.054 1.36252 -3.10304 0
M  V30 4614 C 450.227 0.816382 -4.29714 0
M  V30 4615 C 449.286 1.81789 -4.93801 0
M  V30 4616 O 448.312 1.36818 -5.52512 0
M  V30 4617 N 449.514 3.15085 -4.87547 0
M  V30 4618 H 452.279 -0.442694 -2.96412 0
M  V30 4619 H 449.84 -0.382095 -1.57327 0
M  V30 4620 H 451.832 2.03102 -3.50045 0
M  V30 4621 H 450.402 1.95281 -2.44099 0
M  V30 4622 H 449.622 -0.0285981 -3.9419 0
M  V30 4623 H 450.91 0.430668 -5.06974 0
M  V30 4624 H 450.308 3.54275 -4.41028 0
M  V30 4625 H 448.865 3.77522 -5.31339 0
M  V30 4626 N 452.299 1.55045 -0.282633 0
M  V30 4627 C 453.229 2.2579 0.595066 0
M  V30 4628 C 454.21 1.25074 1.15284 0
M  V30 4629 O 455.395 1.5381 1.18559 0
M  V30 4630 C 452.525 2.98472 1.77572 0
M  V30 4631 C 451.479 4.0618 1.34914 0
M  V30 4632 C 450.805 4.66477 2.6135 0
M  V30 4633 C 452.105 5.1996 0.493821 0
M  V30 4634 H 453.799 2.994 0.00505653 0
M  V30 4635 H 451.345 1.44 0.000992001 0
M  V30 4636 H 453.298 3.46677 2.39568 0
M  V30 4637 H 452.022 2.2241 2.39168 0
M  V30 4638 H 450.681 3.58797 0.752338 0
M  V30 4639 H 450.329 3.87074 3.2122 0
M  V30 4640 H 450.029 5.39207 2.33516 0
M  V30 4641 H 451.553 5.17435 3.24181 0
M  V30 4642 H 452.967 5.64172 1.01898 0
M  V30 4643 H 451.364 5.99299 0.310047 0
M  V30 4644 H 452.434 4.82462 -0.485593 0
M  V30 4645 N 453.777 0.010035 1.57597 0
M  V30 4646 C 454.74 -0.963029 2.07986 0
M  V30 4647 C 455.74 -1.26619 0.991173 0
M  V30 4648 O 456.93 -1.2097 1.25347 0
M  V30 4649 C 454.062 -2.2851 2.52974 0
M  V30 4650 H 455.255 -0.526971 2.95234 0
M  V30 4651 H 452.808 -0.237639 1.54483 0
M  V30 4652 H 453.543 -2.76784 1.69 0
M  V30 4653 H 453.328 -2.07824 3.32493 0
M  V30 4654 H 454.818 -2.98294 2.9225 0
M  V30 4655 N 455.255 -1.55392 -0.262866 0
M  V30 4656 C 456.666 -1.67079 -0.833158 0
M  V30 4657 C 457.017 -0.604539 -1.86654 0
M  V30 4658 O 456.142 0.252138 -2.14926 0
M  V30 4659 C 456.737 -3.02891 -1.51797 0
M  V30 4660 C 455.296 -3.16571 -2.03617 0
M  V30 4661 C 454.443 -2.62909 -0.881701 0
M  V30 4662 H 457.394 -1.58652 -0.0389986 0
M  V30 4663 H 457.415 -2.96445 -2.38538 0
M  V30 4664 H 456.927 -3.80473 -0.765619 0
M  V30 4665 H 455.028 -2.43782 -2.81782 0
M  V30 4666 H 455.141 -4.23271 -2.24452 0
M  V30 4667 H 453.505 -2.20324 -1.27786 0
M  V30 4668 H 454.288 -3.43003 -0.14269 0
M  V30 4669 N 456.733 0.527833 -1.48498 0
M  V30 4670 C 458.01 1.28905 -1.47115 0
M  V30 4671 C 458.39 2.10297 -0.184007 0
M  V30 4672 O 457.738 2.12728 0.834218 0
M  V30 4673 C 457.948 2.16866 -2.73441 0
M  V30 4674 C 459.296 2.76936 -3.21857 0
M  V30 4675 O 460.32 2.27152 -2.74373 0
M  V30 4676 O 459.179 3.67496 -4.04486 0
M  V30 4677 H 456.273 0.581918 -0.587623 0
M  V30 4678 H 458.819 0.544311 -1.60734 0
M  V30 4679 H 457.591 1.56521 -3.58632 0
M  V30 4680 H 457.214 2.98583 -2.62553 0
M  V30 4681 N 458.211 1.37122 0.776871 0
M  V30 4682 C 459.488 1.22586 1.52421 0
M  V30 4683 C 459.868 -0.182726 2.10308 0
M  V30 4684 O 459.216 -1.18979 1.9508 0
M  V30 4685 C 459.426 2.31782 2.60918 0
M  V30 4686 C 460.774 2.69071 3.2846 0
M  V30 4687 O 461.798 2.3092 2.71209 0
M  V30 4688 O 460.657 3.3478 4.31954 0
M  V30 4689 H 457.751 0.478045 0.674835 0
M  V30 4690 H 460.297 1.48888 0.814275 0
M  V30 4691 H 459.069 3.26131 2.16227 0
M  V30 4692 H 458.692 2.06916 3.39517 0
M  V30 4693 N 459.689 -1.00246 1.21608 0
M  V30 4694 C 460.935 -1.74319 1.03638 0
M  V30 4695 C 461.268 -1.89408 -0.428749 0
M  V30 4696 O 460.543 -1.43026 -1.3181 0
M  V30 4697 C 460.826 -3.15431 1.73711 0
M  V30 4698 C 460.679 -3.08049 3.27759 0
M  V30 4699 C 461.998 -4.14407 1.48173 0
M  V30 4700 H 459.117 -0.632741 0.377899 0
M  V30 4701 H 461.759 -1.16853 1.49818 0
M  V30 4702 H 459.909 -3.64493 1.34452 0
M  V30 4703 H 461.581 -2.66681 3.76403 0
M  V30 4704 H 459.824 -2.45088 3.57931 0
M  V30 4705 H 460.495 -4.07862 3.71958 0
M  V30 4706 H 462.971 -3.74061 1.82258 0
M  V30 4707 H 461.847 -5.11279 1.99713 0
M  V30 4708 H 462.108 -4.40174 0.412273 0
M  V30 4709 N 461.167 -1.02423 -1.1978 0
M  V30 4710 C 462.077 -0.610919 -2.26506 0
M  V30 4711 C 463.093 0.355152 -1.70337 0
M  V30 4712 O 464.269 0.214195 -2.00258 0
M  V30 4713 C 461.334 0.0365921 -3.46681 0
M  V30 4714 C 460.395 -0.976389 -4.18049 0
M  V30 4715 C 459.628 -0.359683 -5.32487 0
M  V30 4716 O 459.851 0.838601 -5.64202 0
M  V30 4717 O 458.785 -1.08022 -5.92127 0
M  V30 4718 H 462.611 -1.49965 -2.64091 0
M  V30 4719 H 460.196 -0.794156 -1.26545 0
M  V30 4720 H 462.078 0.39786 -4.19518 0
M  V30 4721 H 460.753 0.899398 -3.10954 0
M  V30 4722 H 459.66 -1.38916 -3.47352 0
M  V30 4723 H 460.993 -1.80941 -4.57735 0
M  V30 4724 N 462.645 1.35699 -0.801477 0
M  V30 4725 C 463.593 2.3177 -0.196317 0
M  V30 4726 C 464.587 1.56388 0.651081 0
M  V30 4727 O 465.793 1.71557 0.544815 0
M  V30 4728 H 462.168 0.750669 -0.0447189 0
M  V30 4729 H 464.139 2.8036 -1.02181 0
M  V30 4730 C 462.888 3.41671 0.644702 0
M  V30 4731 H 462.211 3.998 0.0019921 0
M  V30 4732 H 463.651 4.11184 1.0346 0
M  V30 4733 C 462.11 2.84271 1.80808 0
M  V30 4734 O 462.64 2.77408 2.9053 0
M  V30 4735 N 460.846 2.41391 1.61799 0
M  V30 4736 H 460.393 2.47173 0.725493 0
M  V30 4737 H 460.351 2.03334 2.39797 0
M  V30 4738 N 464.123 0.554532 1.47522 0
M  V30 4739 C 465.372 0.0273458 2.01681 0
M  V30 4740 C 465.685 -1.32962 1.43459 0
M  V30 4741 O 466.891 -1.94657 1.89265 0
M  V30 4742 C 465.347 -0.00159057 3.599 0
M  V30 4743 C 464.955 1.35197 4.27113 0
M  V30 4744 C 466.699 -0.476311 4.21819 0
M  V30 4745 C 464.606 1.28229 5.77331 0
M  V30 4746 H 463.536 0.00645269 0.753972 0
M  V30 4747 H 466.187 0.701985 1.69542 0
M  V30 4748 H 464.569 -0.741821 3.8899 0
M  V30 4749 H 465.743 2.1097 4.09668 0
M  V30 4750 H 464.058 1.76441 3.77171 0
M  V30 4751 H 466.655 -0.5468 5.31897 0
M  V30 4752 H 466.998 -1.4877 3.8881 0
M  V30 4753 H 467.531 0.20898 3.97251 0
M  V30 4754 H 464.27 2.26959 6.14955 0
M  V30 4755 H 463.79 0.566314 5.97121 0
M  V30 4756 H 465.469 0.983226 6.39485 0
M  V30 4757 N 465.601 -1.54893 0.290851 0
M  V30 4758 C 466.847 -2.0023 -0.321867 0
M  V30 4759 C 467.18 -1.179 -1.54316 0
M  V30 4760 O 466.455 -0.25293 -1.92848 0
M  V30 4761 C 466.738 -3.53456 -0.688515 0
M  V30 4762 C 466.591 -4.46532 0.541209 0
M  V30 4763 C 467.91 -4.13057 -1.51895 0
M  V30 4764 H 465.029 -0.727891 -0.115515 0
M  V30 4765 H 467.671 -1.85722 0.400931 0
M  V30 4766 H 465.821 -3.6595 -1.30433 0
M  V30 4767 H 467.493 -4.4596 1.17973 0
M  V30 4768 H 465.736 -4.17545 1.17636 0
M  V30 4769 H 466.407 -5.51475 0.240675 0
M  V30 4770 H 468.883 -4.03937 -0.99872 0
M  V30 4771 H 467.759 -5.20448 -1.74429 0
M  V30 4772 H 468.02 -3.64284 -2.50498 0
M  V30 4773 N 467.08 -0.0183926 -1.57589 0
M  V30 4774 C 468.043 0.951986 -2.08494 0
M  V30 4775 C 469.043 1.26092 -0.997874 0
M  V30 4776 O 470.233 1.20304 -1.25987 0
M  V30 4777 C 467.365 2.27165 -2.54182 0
M  V30 4778 H 468.558 0.511307 -2.95509 0
M  V30 4779 H 466.111 0.229444 -1.54607 0
M  V30 4780 H 466.846 2.75884 -1.70465 0
M  V30 4781 H 466.631 2.06057 -3.33591 0
M  V30 4782 H 468.121 2.9674 -2.93828 0
M  V30 4783 N 468.558 1.5553 0.254621 0
M  V30 4784 C 469.805 1.77 0.983736 0
M  V30 4785 C 470.133 0.58133 1.85609 0
M  V30 4786 O 469.388 -0.435621 1.9079 0
M  V30 4787 C 469.687 3.03891 1.88109 0
M  V30 4788 C 469.353 4.35597 1.16472 0
M  V30 4789 C 468.015 4.7139 0.966714 0
M  V30 4790 C 470.367 5.1705 0.656387 0
M  V30 4791 C 467.695 5.86176 0.247942 0
M  V30 4792 C 470.047 6.32581 -0.0488807 0
M  V30 4793 C 468.711 6.67 -0.258438 0
M  V30 4794 H 467.981 0.647688 0.359974 0
M  V30 4795 H 470.628 1.89802 0.254463 0
M  V30 4796 H 468.933 2.86068 2.67717 0
M  V30 4797 H 470.63 3.17701 2.44677 0
M  V30 4798 H 467.22 4.07475 1.32899 0
M  V30 4799 H 471.404 4.8986 0.796933 0
M  V30 4800 H 466.66 6.11354 0.075035 0
M  V30 4801 H 470.834 6.94942 -0.450444 0
M  V30 4802 H 468.461 7.55793 -0.817358 0
M  V30 4803 N 470.036 -0.519951 1.48776 0
M  V30 4804 C 470.966 -1.63253 1.66945 0
M  V30 4805 C 471.947 -1.62014 0.518224 0
M  V30 4806 O 473.132 -1.79053 0.751919 0
M  V30 4807 C 470.262 -3.0181 1.71836 0
M  V30 4808 C 469.216 -3.17911 2.8656 0
M  V30 4809 C 468.542 -4.5763 2.76548 0
M  V30 4810 C 469.842 -2.99729 4.27738 0
M  V30 4811 H 471.536 -1.48302 2.6009 0
M  V30 4812 H 469.082 -0.712026 1.25165 0
M  V30 4813 H 471.035 -3.79525 1.83135 0
M  V30 4814 H 469.759 -3.17806 0.752775 0
M  V30 4815 H 468.418 -2.42616 2.74833 0
M  V30 4816 H 468.066 -4.70476 1.77937 0
M  V30 4817 H 467.766 -4.69346 3.53536 0
M  V30 4818 H 469.29 -5.37431 2.89828 0
M  V30 4819 H 470.704 -3.67228 4.40246 0
M  V30 4820 H 469.101 -3.22932 5.05801 0
M  V30 4821 H 470.171 -1.96047 4.43502 0
M  V30 4822 N 471.514 -1.37532 -0.769588 0
M  V30 4823 C 472.464 -1.29984 -1.87318 0
M  V30 4824 C 473.448 -0.187242 -1.59807 0
M  V30 4825 O 474.64 -0.421827 -1.719 0
M  V30 4826 C 471.769 -1.11126 -3.24817 0
M  V30 4827 C 470.855 -2.26939 -3.58273 0
M  V30 4828 N 471.246 -3.52336 -3.62895 0
M  V30 4829 C 469.544 -2.19141 -3.8845 0
M  V30 4830 C 470.245 -4.28719 -3.9316 0
M  V30 4831 N 469.221 -3.57884 -4.0917 0
M  V30 4832 H 473.023 -2.24946 -1.89147 0
M  V30 4833 H 470.537 -1.30535 -0.966143 0
M  V30 4834 H 472.534 -1.03803 -4.0377 0
M  V30 4835 H 471.194 -0.17083 -3.2425 0
M  V30 4836 H 472.205 -3.86216 -3.45048 0
M  V30 4837 H 468.882 -1.33167 -3.95693 0
M  V30 4838 H 470.272 -5.37254 -4.03494 0
M  V30 4839 N 472.992 0.995999 -1.22138 0
M  V30 4840 C 474.217 1.77601 -1.0711 0
M  V30 4841 C 474.642 1.84339 0.374264 0
M  V30 4842 O 474 1.29359 1.27028 0
M  V30 4843 C 474.048 3.18897 -1.68336 0
M  V30 4844 O 473.152 4.01663 -0.934928 0
M  V30 4845 H 472.493 0.547011 -0.376397 0
M  V30 4846 H 475.023 1.25137 -1.6187 0
M  V30 4847 H 475.033 3.69539 -1.72931 0
M  V30 4848 H 473.708 3.13308 -2.73516 0
M  V30 4849 H 472.285 3.60204 -0.964751 0
M  V30 4850 N 474.47 1.03057 1.19235 0
M  V30 4851 C 475.4 0.633497 2.24742 0
M  V30 4852 C 476.381 -0.358335 1.66283 0
M  V30 4853 O 477.566 -0.240676 1.92703 0
M  V30 4854 C 474.696 -0.0147648 3.47297 0
M  V30 4855 C 473.65 0.899527 4.18441 0
M  V30 4856 C 472.976 0.116281 5.34574 0
M  V30 4857 C 474.276 2.21404 4.73051 0
M  V30 4858 H 475.97 1.5155 2.58211 0
M  V30 4859 H 473.516 0.73014 1.24117 0
M  V30 4860 H 475.469 -0.304202 4.20301 0
M  V30 4861 H 474.193 -0.931577 3.13032 0
M  V30 4862 H 472.852 1.17319 3.47321 0
M  V30 4863 H 472.5 -0.802619 4.96555 0
M  V30 4864 H 472.2 0.725293 5.83107 0
M  V30 4865 H 473.724 -0.166376 6.10373 0
M  V30 4866 H 475.138 1.98601 5.37802 0
M  V30 4867 H 473.535 2.77512 5.32078 0
M  V30 4868 H 474.605 2.86752 3.91026 0
M  V30 4869 N 475.948 -1.35272 0.808662 0
M  V30 4870 C 477.173 -2.03477 0.401475 0
M  V30 4871 C 477.598 -1.60537 -0.980279 0
M  V30 4872 O 476.956 -0.78304 -1.63518 0
M  V30 4873 C 477.004 -3.57181 0.495354 0
M  V30 4874 O 476.108 -4.09474 -0.490397 0
M  V30 4875 H 475.449 -0.642561 0.167366 0
M  V30 4876 H 477.979 -1.72824 1.09512 0
M  V30 4877 H 477.989 -4.06356 0.365912 0
M  V30 4878 H 476.664 -3.87784 1.5032 0
M  V30 4879 H 475.241 -3.71516 -0.321023 0
M  V30 4880 N 477.426 -0.562348 -1.47226 0
M  V30 4881 C 478.674 -0.0401371 -2.0206 0
M  V30 4882 C 478.995 1.3165 -1.43852 0
M  V30 4883 O 478.265 1.85976 -0.615599 0
M  V30 4884 H 476.845 -0.0118479 -0.746906 0
M  V30 4885 H 479.507 -0.73352 -1.8057 0
M  V30 4886 H 478.603 0.0441254 -3.12069 0
M  V30 4887 N 478.904 1.54736 -0.299062 0
M  V30 4888 C 479.851 2.23448 0.577899 0
M  V30 4889 C 480.821 1.21637 1.13109 0
M  V30 4890 O 482.006 1.50252 1.17597 0
M  V30 4891 C 479.146 2.9774 1.74484 0
M  V30 4892 C 478.259 4.1432 1.22323 0
M  V30 4893 C 477.394 4.76199 2.35388 0
M  V30 4894 C 476.433 5.84927 1.80351 0
M  V30 4895 N 475.57 6.4077 2.86982 0
M  V30 4896 H 480.41 2.97996 -0.0146545 0
M  V30 4897 H 477.947 1.47088 -0.0190013 0
M  V30 4898 H 479.905 3.39045 2.43114 0
M  V30 4899 H 478.535 2.25572 2.30905 0
M  V30 4900 H 477.587 3.7797 0.429249 0
M  V30 4901 H 478.899 4.92659 0.780309 0
M  V30 4902 H 478.053 5.20346 3.11969 0
M  V30 4903 H 476.792 3.97188 2.83006 0
M  V30 4904 H 475.797 5.40207 1.02259 0
M  V30 4905 H 477.022 6.65821 1.3364 0
M  V30 4906 H 474.968 5.64643 3.33938 0
M  V30 4907 H 474.885 7.1445 2.4718 0
M  V30 4908 H 476.153 6.89574 3.63466 0
M  V30 4909 N 480.382 0.0267497 1.57577 0
M  V30 4910 C 481.314 -0.984594 2.06974 0
M  V30 4911 C 482.327 -1.29032 0.992705 0
M  V30 4912 O 483.516 -1.25539 1.26895 0
M  V30 4913 C 480.616 -2.31262 2.47732 0
M  V30 4914 C 479.789 -2.1924 3.78487 0
M  V30 4915 C 478.848 -3.34956 4.05821 0
M  V30 4916 O 477.874 -3.11948 4.76106 0
M  V30 4917 N 479.076 -4.58672 3.55809 0
M  V30 4918 H 481.841 -0.563143 2.94362 0
M  V30 4919 H 479.402 -0.160061 1.61107 0
M  V30 4920 H 481.394 -3.07496 2.63112 0
M  V30 4921 H 479.964 -2.65056 1.65723 0
M  V30 4922 H 479.184 -1.27747 3.72927 0
M  V30 4923 H 480.472 -2.08409 4.64158 0
M  V30 4924 H 479.87 -4.8026 2.98942 0
M  V30 4925 H 478.427 -5.32083 3.76472 0
M  V30 4926 N 481.861 -1.55662 -0.24637 0
M  V30 4927 C 483.272 -1.67953 -0.81539 0
M  V30 4928 C 483.623 -0.624302 -1.86002 0
M  V30 4929 O 482.748 0.229328 -2.15181 0
M  V30 4930 C 483.343 -3.04484 -1.48576 0
M  V30 4931 C 481.902 -3.18713 -2.00248 0
M  V30 4932 C 481.049 -2.6383 -0.853766 0
M  V30 4933 H 484 -1.58685 -0.0221692 0
M  V30 4934 H 484.021 -2.98959 -2.3538 0
M  V30 4935 H 483.533 -3.81264 -0.725222 0
M  V30 4936 H 481.634 -2.46757 -2.79181 0
M  V30 4937 H 481.747 -4.25628 -2.1995 0
M  V30 4938 H 480.111 -2.21667 -1.25442 0
M  V30 4939 H 480.894 -3.43135 -0.106302 0
M  V30 4940 N 483.339 0.512053 -1.4905 0
M  V30 4941 C 484.755 0.84224 -1.35567 0
M  V30 4942 C 484.955 1.97878 -0.380319 0
M  V30 4943 O 484.011 2.51769 0.19201 0
M  V30 4944 C 485.324 1.19286 -2.76028 0
M  V30 4945 C 486.872 1.30171 -2.84648 0
M  V30 4946 C 487.347 1.68568 -4.25851 0
M  V30 4947 N 488.838 1.75638 -4.28609 0
M  V30 4948 C 489.573 2.06769 -5.34821 0
M  V30 4949 N 489.069 2.36201 -6.51292 0
M  V30 4950 N 490.862 2.07927 -5.22229 0
M  V30 4951 H 483.013 -0.237574 -2.11067 0
M  V30 4952 H 485.276 -0.0436747 -0.946993 0
M  V30 4953 H 484.982 0.431199 -3.49047 0
M  V30 4954 H 484.856 2.13889 -3.10695 0
M  V30 4955 H 487.243 2.05411 -2.11873 0
M  V30 4956 H 487.324 0.336457 -2.53578 0
M  V30 4957 H 486.968 0.938824 -4.99148 0
M  V30 4958 H 486.898 2.66174 -4.54377 0
M  V30 4959 H 489.389 1.55097 -3.44606 0
M  V30 4960 H 489.702 2.59112 -7.28066 0
M  V30 4961 H 488.047 2.33681 -6.54536 0
M  V30 4962 H 491.238 1.84403 -4.30248 0
M  V30 4963 H 491.411 2.31856 -6.05101 0
M  V30 4964 N 484.817 1.37938 0.762283 0
M  V30 4965 C 486.063 1.33866 1.52341 0
M  V30 4966 C 486.396 -0.0738961 1.94059 0
M  V30 4967 O 485.671 -1.03326 1.64785 0
M  V30 4968 C 485.954 2.28644 2.78197 0
M  V30 4969 C 485.807 3.78722 2.42672 0
M  V30 4970 C 487.126 2.21702 3.80179 0
M  V30 4971 H 484.245 0.487593 0.55265 0
M  V30 4972 H 486.887 1.68717 0.873767 0
M  V30 4973 H 485.037 1.99055 3.33631 0
M  V30 4974 H 486.709 4.18948 1.93081 0
M  V30 4975 H 484.952 3.96827 1.75244 0
M  V30 4976 H 485.623 4.40486 3.3268 0
M  V30 4977 H 488.099 2.47805 3.34263 0
M  V30 4978 H 486.975 2.90143 4.65949 0
M  V30 4979 H 487.236 1.21301 4.25133 0
M  V30 4980 N 486.295 -0.989507 1.22664 0
M  V30 4981 C 487.205 -2.11449 1.01619 0
M  V30 4982 C 488.221 -1.73962 -0.036545 0
M  V30 4983 O 489.397 -2.00788 0.156924 0
M  V30 4984 C 486.462 -3.41465 0.600204 0
M  V30 4985 C 485.523 -3.93033 1.72695 0
M  V30 4986 C 484.756 -5.16844 1.33071 0
M  V30 4987 O 484.979 -5.7001 0.210975 0
M  V30 4988 O 483.913 -5.6225 2.14845 0
M  V30 4989 H 487.739 -2.32088 1.9588 0
M  V30 4990 H 485.324 -1.09823 1.01289 0
M  V30 4991 H 487.206 -4.19695 0.37873 0
M  V30 4992 H 485.881 -3.22178 -0.313511 0
M  V30 4993 H 484.788 -3.15961 2.00298 0
M  V30 4994 H 486.121 -4.16758 2.61865 0
M  V30 4995 N 487.773 -1.03688 -1.18687 0
M  V30 4996 C 489.003 -0.756819 -1.92239 0
M  V30 4997 C 489.411 0.689374 -1.76194 0
M  V30 4998 O 488.754 1.48126 -1.08648 0
M  V30 4999 C 488.816 -1.03851 -3.44173 0
M  V30 5000 C 488.48 -2.47785 -3.83994 0
M  V30 5001 C 489.477 -3.4595 -3.88091 0
M  V30 5002 C 487.162 -2.82397 -4.154 0
M  V30 5003 C 489.156 -4.76779 -4.23038 0
M  V30 5004 C 486.843 -4.13433 -4.50018 0
M  V30 5005 C 487.841 -5.10434 -4.53813 0
M  V30 5006 O 487.529 -6.39122 -4.87625 0
M  V30 5007 H 487.261 -0.275678 -0.617234 0
M  V30 5008 H 489.815 -1.38658 -1.51536 0
M  V30 5009 H 488.045 -0.351612 -3.85098 0
M  V30 5010 H 489.734 -0.746846 -3.9897 0
M  V30 5011 H 490.5 -3.20549 -3.63969 0
M  V30 5012 H 486.379 -2.07568 -4.11627 0
M  V30 5013 H 489.923 -5.52488 -4.25914 0
M  V30 5014 H 485.82 -4.38604 -4.736 0
M  V30 5015 H 486.588 -6.43715 -5.05542 0
M  V30 5016 N 489.251 1.34841 -0.815825 0
M  V30 5017 C 490.662 1.80937 -0.46029 0
M  V30 5018 C 491.013 1.67685 1.01863 0
M  V30 5019 O 490.138 1.21277 1.79223 0
M  V30 5020 C 490.733 3.28509 -0.828708 0
M  V30 5021 C 489.292 3.72712 -0.525644 0
M  V30 5022 C 488.439 2.56676 -1.04941 0
M  V30 5023 H 491.39 1.22688 -1.00664 0
M  V30 5024 H 491.411 3.80279 -0.129757 0
M  V30 5025 H 490.923 3.38122 -1.90513 0
M  V30 5026 H 489.024 3.68642 0.541666 0
M  V30 5027 H 489.137 4.67119 -1.06474 0
M  V30 5028 H 487.501 2.50302 -0.471286 0
M  V30 5029 H 488.284 2.69063 -2.13214 0
M  V30 5030 N 490.729 0.570148 1.46925 0
M  V30 5031 C 491.659 -0.158274 2.32963 0
M  V30 5032 C 492.64 -0.896093 1.44583 0
M  V30 5033 O 493.825 -0.874022 1.7342 0
M  V30 5034 C 490.955 -1.18055 3.26619 0
M  V30 5035 C 489.909 -0.558379 4.24342 0
M  V30 5036 C 489.235 -1.68623 5.07415 0
M  V30 5037 C 490.535 0.496295 5.19937 0
M  V30 5038 H 492.229 0.560046 2.94115 0
M  V30 5039 H 489.775 0.270775 1.41431 0
M  V30 5040 H 491.728 -1.69841 3.85658 0
M  V30 5041 H 490.452 -1.92899 2.63548 0
M  V30 5042 H 489.111 -0.0617157 3.66548 0
M  V30 5043 H 488.759 -2.42402 4.40738 0
M  V30 5044 H 488.459 -1.27564 5.73586 0
M  V30 5045 H 489.983 -2.20709 5.69315 0
M  V30 5046 H 491.397 0.0640052 5.73264 0
M  V30 5047 H 489.794 0.82649 5.94381 0
M  V30 5048 H 490.864 1.38735 4.6463 0
M  V30 5049 N 492.207 -1.54576 0.307264 0
M  V30 5050 C 493.137 -2.26708 -0.55907 0
M  V30 5051 C 494.118 -1.26893 -1.1328 0
M  V30 5052 O 495.303 -1.55677 -1.16097 0
M  V30 5053 C 492.433 -3.01259 -1.72801 0
M  V30 5054 C 491.387 -4.08275 -1.28435 0
M  V30 5055 C 490.713 -4.70575 -2.53895 0
M  V30 5056 C 492.013 -5.2068 -0.411038 0
M  V30 5057 H 493.707 -2.9937 0.042576 0
M  V30 5058 H 491.253 -1.43983 0.0219173 0
M  V30 5059 H 493.206 -3.50444 -2.34023 0
M  V30 5060 H 491.93 -2.26187 -2.356 0
M  V30 5061 H 490.589 -3.59949 -0.695161 0
M  V30 5062 H 490.237 -3.92136 -3.15021 0
M  V30 5063 H 489.937 -5.42854 -2.24908 0
M  V30 5064 H 491.461 -5.22527 -3.15908 0
M  V30 5065 H 492.875 -5.65721 -0.929097 0
M  V30 5066 H 491.272 -5.99716 -0.214664 0
M  V30 5067 H 492.342 -4.81629 0.562287 0
M  V30 5068 N 493.685 -0.035106 -1.57561 0
M  V30 5069 C 495.096 0.502885 -1.798 0
M  V30 5070 C 495.447 1.71892 -0.945921 0
M  V30 5071 O 494.572 2.15822 -0.157991 0
M  V30 5072 C 495.167 0.919097 -3.26095 0
M  V30 5073 C 493.726 1.40216 -3.49308 0
M  V30 5074 C 492.873 0.369709 -2.74824 0
M  V30 5075 H 495.824 -0.261102 -1.56537 0
M  V30 5076 H 495.845 1.78308 -3.36135 0
M  V30 5077 H 495.357 0.0338526 -3.88085 0
M  V30 5078 H 493.458 2.30714 -2.92578 0
M  V30 5079 H 493.571 1.40541 -4.58023 0
M  V30 5080 H 491.935 0.839113 -2.40481 0
M  V30 5081 H 492.718 -0.507173 -3.39533 0
M  V30 5082 N 495.163 1.55791 0.238111 0
M  V30 5083 C 496.126 1.90239 1.27835 0
M  V30 5084 C 497.126 0.779552 1.4064 0
M  V30 5085 O 498.316 1.04747 1.3919 0
M  V30 5086 C 495.448 2.13859 2.65475 0
M  V30 5087 H 496.641 2.83262 0.985034 0
M  V30 5088 H 494.194 1.48818 0.477799 0
M  V30 5089 H 494.929 1.23334 2.99932 0
M  V30 5090 H 494.714 2.95643 2.57561 0
M  V30 5091 H 496.204 2.41664 3.40571 0
M  V30 5092 N 496.642 -0.504142 1.49319 0
M  V30 5093 C 497.867 -1.28729 1.62615 0
M  V30 5094 C 498.292 -1.85752 0.296309 0
M  V30 5095 O 497.65 -1.65704 -0.735649 0
M  V30 5096 C 497.698 -2.39561 2.69524 0
M  V30 5097 O 496.802 -3.43324 2.28478 0
M  V30 5098 H 496.143 -0.380172 0.544395 0
M  V30 5099 H 498.673 -0.603872 1.95485 0
M  V30 5100 H 498.683 -2.8537 2.91595 0
M  V30 5101 H 497.358 -1.97423 3.66056 0
M  V30 5102 H 495.935 -3.03455 2.16725 0
M  V30 5103 N 498.12 -1.38341 -0.754957 0
M  V30 5104 C 499.348 -1.37704 -1.54419 0
M  V30 5105 C 499.763 0.0335243 -1.8877 0
M  V30 5106 O 499.12 0.999773 -1.52679 0
M  V30 5107 C 499.171 -2.23136 -2.84416 0
M  V30 5108 O 498.892 -3.58697 -2.51531 0
M  V30 5109 C 500.393 -2.30664 -3.78562 0
M  V30 5110 H 497.613 -0.471061 -0.477852 0
M  V30 5111 H 500.157 -1.81902 -0.934446 0
M  V30 5112 H 498.312 -1.82403 -3.41772 0
M  V30 5113 H 498.726 -4.03665 -3.34896 0
M  V30 5114 H 500.2 -2.9473 -4.66732 0
M  V30 5115 H 500.677 -1.3199 -4.18898 0
M  V30 5116 H 501.283 -2.71781 -3.27131 0
M  V30 5117 N 499.598 0.982988 -1.23187 0
M  V30 5118 C 500.508 2.10907 -1.02739 0
M  V30 5119 C 501.524 1.73979 0.0273188 0
M  V30 5120 O 502.7 2.00702 -0.16757 0
M  V30 5121 C 499.765 3.41142 -0.618304 0
M  V30 5122 C 498.826 3.92112 -1.74777 0
M  V30 5123 C 498.059 5.16131 -1.3581 0
M  V30 5124 O 498.282 5.6989 -0.241201 0
M  V30 5125 O 497.216 5.61103 -2.17824 0
M  V30 5126 H 501.042 2.31046 -1.97108 0
M  V30 5127 H 498.627 1.09284 -1.01869 0
M  V30 5128 H 500.509 4.19488 -0.400982 0
M  V30 5129 H 499.184 3.2234 0.296421 0
M  V30 5130 H 498.091 3.14895 -2.0197 0
M  V30 5131 H 499.424 4.15364 -2.64071 0
M  V30 5132 N 501.076 1.04316 1.18135 0
M  V30 5133 C 502.304 0.768117 1.92113 0
M  V30 5134 C 502.719 -0.675057 1.76319 0
M  V30 5135 O 502.076 -1.46038 1.09449 0
M  V30 5136 C 502.127 1.12808 3.43448 0
M  V30 5137 O 501.848 2.5146 3.58747 0
M  V30 5138 C 503.349 0.8779 4.3452 0
M  V30 5139 H 500.569 0.279937 0.609817 0
M  V30 5140 H 503.113 1.39149 1.49859 0
M  V30 5141 H 501.268 0.549623 3.83481 0
M  V30 5142 H 501.682 2.65313 4.52448 0
M  V30 5143 H 503.156 1.17959 5.39249 0
M  V30 5144 H 503.633 -0.187239 4.38801 0
M  V30 5145 H 504.239 1.43977 4.00188 0
M  V30 5146 N 502.554 -1.34406 0.822964 0
M  V30 5147 C 503.782 -2.02508 0.424039 0
M  V30 5148 C 504.197 -1.61975 -0.970022 0
M  V30 5149 O 503.554 -0.825228 -1.62777 0
M  V30 5150 C 503.605 -3.57789 0.516657 0
M  V30 5151 O 503.326 -3.96853 1.85577 0
M  V30 5152 C 504.827 -4.43157 0.112637 0
M  V30 5153 H 502.047 -0.649063 0.170173 0
M  V30 5154 H 504.591 -1.7168 1.11113 0
M  V30 5155 H 502.746 -3.87207 -0.122353 0
M  V30 5156 H 503.16 -4.91538 1.83005 0
M  V30 5157 H 504.634 -5.51527 0.228526 0
M  V30 5158 H 505.111 -4.28939 -0.943837 0
M  V30 5159 H 505.717 -4.19067 0.725449 0
M  V30 5160 N 504.032 -0.577932 -1.46621 0
M  V30 5161 C 505.443 -0.150071 -1.86096 0
M  V30 5162 C 505.794 1.28563 -1.48209 0
M  V30 5163 O 504.919 1.97036 -0.894754 0
M  V30 5164 C 505.514 -0.265576 -3.37758 0
M  V30 5165 C 504.073 0.10738 -3.76247 0
M  V30 5166 C 503.22 -0.603711 -2.70649 0
M  V30 5167 H 506.171 -0.786438 -1.37844 0
M  V30 5168 H 506.192 0.510352 -3.77062 0
M  V30 5169 H 505.704 -1.3106 -3.65301 0
M  V30 5170 H 503.805 1.15272 -3.54321 0
M  V30 5171 H 503.918 -0.26561 -4.78363 0
M  V30 5172 H 502.282 -0.0444884 -2.54661 0
M  V30 5173 H 503.065 -1.65029 -3.01032 0
M  V30 5174 N 505.51 1.54411 -0.315457 0
M  V30 5175 C 506.926 1.59556 0.037464 0
M  V30 5176 C 507.126 1.33217 1.5118 0
M  V30 5177 O 506.182 1.11264 2.26664 0
M  V30 5178 C 507.495 2.98372 -0.373477 0
M  V30 5179 C 509.043 3.11324 -0.323452 0
M  V30 5180 C 509.518 4.52472 -0.709433 0
M  V30 5181 N 511.009 4.58437 -0.662524 0
M  V30 5182 C 511.744 5.65751 -0.933474 0
M  V30 5183 N 511.24 6.81039 -1.27114 0
M  V30 5184 N 513.033 5.55489 -0.859573 0
M  V30 5185 H 505.184 1.6979 -1.27614 0
M  V30 5186 H 507.447 0.793732 -0.518356 0
M  V30 5187 H 507.153 3.22618 -1.40037 0
M  V30 5188 H 507.027 3.76264 0.265615 0
M  V30 5189 H 509.414 2.86818 0.694223 0
M  V30 5190 H 509.495 2.35555 -0.997367 0
M  V30 5191 H 509.139 4.7771 -1.72498 0
M  V30 5192 H 509.069 5.26598 -0.0132923 0
M  V30 5193 H 511.56 3.75636 -0.413065 0
M  V30 5194 H 511.873 7.58816 -1.46348 0
M  V30 5195 H 510.218 6.82555 -1.30932 0
M  V30 5196 H 513.409 4.64299 -0.595324 0
M  V30 5197 H 513.582 6.39036 -1.0741 0
M  V30 5198 N 506.988 0.0434614 1.5754 0
M  V30 5199 C 508.399 -0.493343 1.80064 0
M  V30 5200 C 508.75 -1.71388 0.955023 0
M  V30 5201 O 507.875 -2.15736 0.169434 0
M  V30 5202 C 508.47 -0.90179 3.26578 0
M  V30 5203 C 507.029 -1.38362 3.50047 0
M  V30 5204 C 506.176 -0.355129 2.75017 0
M  V30 5205 H 509.127 0.2694 1.56397 0
M  V30 5206 H 509.148 -1.76523 3.37075 0
M  V30 5207 H 508.66 -0.013271 3.88098 0
M  V30 5208 H 506.761 -2.29159 2.93798 0
M  V30 5209 H 506.874 -1.3811 4.58762 0
M  V30 5210 H 505.238 -0.826348 2.40922 0
M  V30 5211 H 506.021 0.525172 3.39259 0
M  V30 5212 N 508.466 -1.55915 -0.229846 0
M  V30 5213 C 509.429 -1.90914 -1.26824 0
M  V30 5214 C 510.429 -0.786999 -1.40225 0
M  V30 5215 O 511.619 -1.05484 -1.38632 0
M  V30 5216 C 508.751 -2.15264 -2.64337 0
M  V30 5217 H 509.944 -2.8378 -0.969998 0
M  V30 5218 H 507.497 -1.49069 -0.4699 0
M  V30 5219 H 508.232 -1.24923 -2.99274 0
M  V30 5220 H 508.017 -2.97005 -2.55989 0
M  V30 5221 H 509.507 -2.43467 -3.39284 0
M  V30 5222 N 509.944 0.496216 -1.49584 0
M  V30 5223 C 510.854 1.62352 -1.69349 0
M  V30 5224 C 511.87 1.64184 -0.576147 0
M  V30 5225 O 513.046 1.82517 -0.85144 0
M  V30 5226 C 510.111 2.98698 -1.76013 0
M  V30 5227 C 509.172 3.07454 -2.99617 0
M  V30 5228 C 508.405 4.37296 -3.05953 0
M  V30 5229 O 508.628 5.2637 -2.19752 0
M  V30 5230 O 507.562 4.51124 -3.9846 0
M  V30 5231 H 511.388 1.48606 -2.64859 0
M  V30 5232 H 508.973 0.673022 -1.33382 0
M  V30 5233 H 510.855 3.79725 -1.82721 0
M  V30 5234 H 509.53 3.12696 -0.836828 0
M  V30 5235 H 508.437 2.25597 -2.98424 0
M  V30 5236 H 509.77 2.98385 -3.91443 0
M  V30 5237 O 511.461 1.48211 0.641547 0
M  V30 5238 H 512.152 1.44016 1.29535 0
M  V30 END ATOM
M  V30 BEGIN BOND
M  V30 END BOND
M  V30 END CTAB
M  END
$$$$
