drugbank_target|P14550 Alcohol dehydrogenase [NADP(+)] (DB02383; DB03461; DB09130)
 OpenBabel12092120513D

  0  0  0     0  0            999 V3000
M  V30 BEGIN CTAB
M  V30 COUNTS 5158 5227 0 0 0
M  V30 BEGIN ATOM
M  V30 1 H -0.908 1.98254 -0.117106 0
M  V30 2 N 0 1.576 0 0
M  V30 3 C 0.933 2.03868 1.02534 0
M  V30 4 C 1.911 0.928543 1.3348 0
M  V30 5 O 3.095 1.19667 1.45644 0
M  V30 6 C 0.222 2.43627 2.35294 0
M  V30 7 C -0.732 3.65373 2.2001 0
M  V30 8 S 0.101 5.13292 1.52614 0
M  V30 9 C 1.257 5.56322 2.86805 0
M  V30 10 H 1.49 2.90518 0.631377 0
M  V30 11 H -0.977 1.52953 0.210867 0
M  V30 12 H 0.981 2.67203 3.11629 0
M  V30 13 H -0.358 1.57376 2.7183 0
M  V30 14 H -1.165 3.90944 3.18086 0
M  V30 15 H -1.563 3.418 1.51819 0
M  V30 16 H 0.729 5.58782 3.83104 0
M  V30 17 H 1.672 6.56266 2.65933 0
M  V30 18 H 2.08 4.83886 2.90714 0
M  V30 19 N 1.4781 -0.272755 1.55222 0
M  V30 20 C 2.4411 -1.32041 1.87344 0
M  V30 21 C 3.4411 -1.42342 0.74803 0
M  V30 22 O 4.6311 -1.41488 1.0162 0
M  V30 23 C 1.7631 -2.70173 2.07893 0
M  V30 24 H 2.9561 -1.04789 2.80997 0
M  V30 25 H 0.5091 -0.51083 1.47717 0
M  V30 26 H 1.2441 -3.02605 1.16622 0
M  V30 27 H 1.0291 -2.64082 2.89833 0
M  V30 28 H 2.5191 -3.45869 2.34017 0
M  V30 29 N 2.9562 -1.48159 -0.537278 0
M  V30 30 C 3.9192 -1.61665 -1.62472 0
M  V30 31 C 4.9192 -0.490395 -1.5314 0
M  V30 32 O 6.1092 -0.755998 -1.5694 0
M  V30 33 C 3.2412 -1.57997 -3.02076 0
M  V30 34 H 4.4342 -2.58621 -1.51839 0
M  V30 35 H 1.9872 -1.36647 -0.758771 0
M  V30 36 H 2.7222 -0.624913 -3.18222 0
M  V30 37 H 2.5072 -2.39755 -3.10258 0
M  V30 38 H 3.9972 -1.70627 -3.81151 0
M  V30 39 N 4.4343 0.785586 -1.36625 0
M  V30 40 C 5.6593 1.57963 -1.34397 0
M  V30 41 C 6.0843 1.87964 0.071526 0
M  V30 42 O 5.4423 1.48182 1.0446 0
M  V30 43 C 5.4903 2.87511 -2.17646 0
M  V30 44 O 4.5943 3.81281 -1.57158 0
M  V30 45 H 3.9353 0.479014 -0.459828 0
M  V30 46 H 6.4653 0.973411 -1.79961 0
M  V30 47 H 6.4753 3.36745 -2.30362 0
M  V30 48 H 5.1503 2.65002 -3.20541 0
M  V30 49 H 3.7273 3.39885 -1.53403 0
M  V30 50 N 5.9124 1.20967 1.01018 0
M  V30 51 C 7.1524 1.03511 1.76252 0
M  V30 52 C 7.5164 -0.42458 1.87247 0
M  V30 53 O 8.7174 -0.719508 2.58991 0
M  V30 54 C 6.9884 1.70726 3.13986 0
M  V30 55 S 8.5474 1.68458 4.05176 0
M  V30 56 H 5.3654 0.371037 0.606508 0
M  V30 57 H 7.9674 1.53628 1.20908 0
M  V30 58 H 6.6714 2.76128 3.03614 0
M  V30 59 H 6.2024 1.20767 3.74405 0
M  V30 60 H 8.2174 0.721987 4.90919 0
M  V30 61 N 7.3905 -1.2043 1.01659 0
M  V30 62 C 8.6365 -1.90079 0.706963 0
M  V30 63 C 8.9695 -1.78648 -0.761474 0
M  V30 64 O 8.2445 -1.17069 -1.55323 0
M  V30 65 C 8.5275 -3.41469 1.14327 0
M  V30 66 C 8.3805 -3.61833 2.67201 0
M  V30 67 C 9.6995 -4.34261 0.714529 0
M  V30 68 H 6.8185 -0.690254 0.2583 0
M  V30 69 H 9.4605 -1.41826 1.26433 0
M  V30 70 H 7.6105 -3.82696 0.669056 0
M  V30 71 H 9.2825 -3.2986 3.22475 0
M  V30 72 H 7.5255 -3.05304 3.08175 0
M  V30 73 H 8.1965 -4.67955 2.92783 0
M  V30 74 H 10.6725 -4.00682 1.12221 0
M  V30 75 H 9.5485 -5.38806 1.04784 0
M  V30 76 H 9.8095 -4.40431 -0.383799 0
M  V30 77 N 8.8686 -0.792821 -1.36206 0
M  V30 78 C 9.7986 -0.207853 -2.32573 0
M  V30 79 C 10.7796 0.659055 -1.56813 0
M  V30 80 O 11.9646 0.592176 -1.84951 0
M  V30 81 C 9.0946 0.655449 -3.41059 0
M  V30 82 C 8.0486 -0.111842 -4.27854 0
M  V30 83 C 7.3746 0.872274 -5.27537 0
M  V30 84 C 8.6746 -1.30299 -5.05786 0
M  V30 85 H 10.3686 -1.01294 -2.81744 0
M  V30 86 H 7.9146 -0.48854 -1.3546 0
M  V30 87 H 9.8676 1.07464 -4.07467 0
M  V30 88 H 8.5916 1.49328 -2.90463 0
M  V30 89 H 7.2506 -0.512053 -3.63006 0
M  V30 90 H 6.8986 1.70523 -4.73214 0
M  V30 91 H 6.5986 0.363291 -5.86476 0
M  V30 92 H 8.1226 1.28996 -5.96818 0
M  V30 93 H 9.5366 -0.959379 -5.65216 0
M  V30 94 H 7.9336 -1.7455 -5.74154 0
M  V30 95 H 9.0036 -2.09663 -4.37229 0
M  V30 96 N 10.3467 1.47872 -0.545128 0
M  V30 97 C 11.2767 2.32661 0.197793 0
M  V30 98 C 12.2577 1.43041 0.920504 0
M  V30 99 O 13.4427 1.71912 0.90333 0
M  V30 100 C 10.5727 3.24569 1.23582 0
M  V30 101 C 9.5267 4.23333 0.630323 0
M  V30 102 C 8.8527 5.0448 1.77211 0
M  V30 103 C 10.1527 5.20704 -0.407974 0
M  V30 104 H 11.8467 2.95024 -0.510045 0
M  V30 105 H 9.3927 1.4187 -0.246731 0
M  V30 106 H 11.3457 3.8272 1.76362 0
M  V30 107 H 10.0697 2.60236 1.97344 0
M  V30 108 H 8.7287 3.6639 0.123922 0
M  V30 109 H 8.3767 4.36561 2.49847 0
M  V30 110 H 8.0767 5.71339 1.37281 0
M  V30 111 H 9.6007 5.65487 2.3034 0
M  V30 112 H 11.0147 5.7329 0.033305 0
M  V30 113 H 9.4117 5.95699 -0.725486 0
M  V30 114 H 10.4817 4.66917 -1.30828 0
M  V30 115 N 11.8248 0.280983 1.55075 0
M  V30 116 C 12.7748 -0.618585 2.19448 0
M  V30 117 C 13.7588 -1.11401 1.16098 0
M  V30 118 O 14.9508 -1.0581 1.41891 0
M  V30 119 C 12.0798 -1.79951 2.92357 0
M  V30 120 C 11.1658 -1.321 4.03002 0
M  V30 121 N 11.5568 -0.559044 5.02701 0
M  V30 122 C 9.8548 -1.60346 4.16179 0
M  V30 123 C 10.5558 -0.306722 5.80891 0
M  V30 124 N 9.5318 -0.880825 5.36416 0
M  V30 125 H 13.3338 -0.0286638 2.93886 0
M  V30 126 H 10.8478 0.0848104 1.62178 0
M  V30 127 H 12.8448 -2.45531 3.36927 0
M  V30 128 H 11.5048 -2.39333 2.19431 0
M  V30 129 H 12.5158 -0.205827 5.17491 0
M  V30 130 H 9.1928 -2.20621 3.54447 0
M  V30 131 H 10.5828 0.30391 6.71212 0
M  V30 132 N 13.3029 -1.57598 0.00835791 0
M  V30 133 C 14.5309 -1.95214 -0.68549 0
M  V30 134 C 14.9459 -0.883706 -1.66841 0
M  V30 135 O 14.3029 0.136565 -1.81988 0
M  V30 136 C 14.3539 -3.32865 -1.41007 0
M  V30 137 O 14.0749 -4.35609 -0.466552 0
M  V30 138 C 15.5759 -3.84991 -2.19765 0
M  V30 139 H 12.7959 -0.643422 -0.190392 0
M  V30 140 H 15.3399 -2.04406 0.0619607 0
M  V30 141 H 13.4949 -3.24956 -2.10908 0
M  V30 142 H 13.9089 -5.15288 -0.978699 0
M  V30 143 H 15.3829 -4.8371 -2.65948 0
M  V30 144 H 15.8599 -3.18137 -3.02796 0
M  V30 145 H 16.4659 -3.96103 -1.54864 0
M  V30 146 N 14.781 0.264519 -1.55364 0
M  V30 147 C 16.029 0.993021 -1.76021 0
M  V30 148 C 16.35 1.86511 -0.569099 0
M  V30 149 O 15.62 1.91438 0.415735 0
M  V30 150 H 14.2 0.369639 -0.649135 0
M  V30 151 H 16.862 0.286707 -1.9278 0
M  V30 152 H 15.958 1.62502 -2.66457 0
M  V30 153 N 16.2591 1.48442 0.529413 0
M  V30 154 C 17.1911 1.59095 1.64989 0
M  V30 155 C 18.2041 0.475212 1.5571 0
M  V30 156 O 19.3931 0.746081 1.6216 0
M  V30 157 C 16.4931 1.50518 3.0364 0
M  V30 158 C 15.6661 2.77142 3.38395 0
M  V30 159 C 14.7251 2.62012 4.56329 0
M  V30 160 O 13.7511 3.35898 4.59522 0
M  V30 161 N 14.9531 1.71667 5.54536 0
M  V30 162 H 17.7181 2.55723 1.56287 0
M  V30 163 H 15.2791 1.45173 0.716697 0
M  V30 164 H 17.2711 1.38091 3.80412 0
M  V30 165 H 15.8411 0.618627 3.06418 0
M  V30 166 H 15.0611 3.0413 2.50796 0
M  V30 167 H 16.3491 3.61146 3.58401 0
M  V30 168 H 15.7471 1.10841 5.54735 0
M  V30 169 H 14.3041 1.65178 6.30523 0
M  V30 170 N 17.7372 -0.778329 1.37039 0
M  V30 171 C 18.6842 -1.89139 1.32269 0
M  V30 172 C 19.6542 -1.65017 0.189387 0
M  V30 173 O 20.8392 -1.87024 0.377693 0
M  V30 174 C 17.9792 -3.26112 1.12894 0
M  V30 175 C 17.0922 -3.62233 2.35396 0
M  V30 176 C 16.2272 -4.8838 2.08946 0
M  V30 177 C 15.2662 -5.17212 3.2735 0
M  V30 178 N 14.4032 -6.34546 3.00492 0
M  V30 179 H 19.2432 -1.92552 2.27437 0
M  V30 180 H 16.7802 -0.941473 1.13025 0
M  V30 181 H 18.7382 -4.05116 0.996835 0
M  V30 182 H 17.3682 -3.22091 0.213758 0
M  V30 183 H 16.4202 -2.78265 2.5937 0
M  V30 184 H 17.7322 -3.79481 3.23721 0
M  V30 185 H 16.8862 -5.75274 1.92729 0
M  V30 186 H 15.6252 -4.73222 1.17949 0
M  V30 187 H 14.6302 -4.28796 3.44113 0
M  V30 188 H 15.8552 -5.34283 4.19188 0
M  V30 189 H 13.8012 -6.20759 2.12118 0
M  V30 190 H 13.7182 -6.52179 3.82358 0
M  V30 191 H 14.9862 -7.24394 2.87879 0
M  V30 192 N 19.2153 -1.21501 -1.00376 0
M  V30 193 C 20.1483 -0.918669 -2.08892 0
M  V30 194 C 21.1263 0.134277 -1.62045 0
M  V30 195 O 22.3103 0.00504255 -1.88499 0
M  V30 196 C 19.4373 -0.379645 -3.36566 0
M  V30 197 C 18.4833 -1.41559 -4.02323 0
M  V30 198 S 19.3163 -2.98521 -4.44574 0
M  V30 199 C 20.4723 -2.46228 -5.75433 0
M  V30 200 H 20.7053 -1.83761 -2.33707 0
M  V30 201 H 18.2383 -1.04489 -1.13673 0
M  V30 202 H 20.1963 -0.0752195 -4.10431 0
M  V30 203 H 18.8573 0.518008 -3.09799 0
M  V30 204 H 18.0503 -0.988076 -4.9422 0
M  V30 205 H 17.6523 -1.66815 -3.34737 0
M  V30 206 H 19.9443 -1.86791 -6.51241 0
M  V30 207 H 20.8873 -3.36572 -6.22997 0
M  V30 208 H 21.2953 -1.87894 -5.32312 0
M  V30 209 N 20.6934 1.19889 -1.02296 0
M  V30 210 C 22.1044 1.71124 -0.746568 0
M  V30 211 C 22.4554 1.81939 0.734335 0
M  V30 212 O 21.5804 1.48639 1.57275 0
M  V30 213 C 22.1754 3.10804 -1.34857 0
M  V30 214 C 20.7344 3.59323 -1.1209 0
M  V30 215 C 19.8814 2.3635 -1.45031 0
M  V30 216 H 22.8324 1.04813 -1.19163 0
M  V30 217 H 22.8534 3.73186 -0.742437 0
M  V30 218 H 22.3654 3.029 -2.42638 0
M  V30 219 H 20.4664 3.7255 -0.0610337 0
M  V30 220 H 20.5794 4.4378 -1.80544 0
M  V30 221 H 18.9434 2.39399 -0.869487 0
M  V30 222 H 19.7264 2.31081 -2.53883 0
M  V30 223 N 22.1715 0.800033 1.35784 0
M  V30 224 C 23.1015 0.220184 2.3246 0
M  V30 225 C 24.0825 -0.65073 1.57161 0
M  V30 226 O 25.2675 -0.582359 1.85263 0
M  V30 227 C 22.3975 -0.637353 3.41402 0
M  V30 228 C 21.3515 0.134531 4.27789 0
M  V30 229 C 20.6775 -0.844285 5.27992 0
M  V30 230 C 21.9775 1.32979 5.05088 0
M  V30 231 H 23.6715 1.02787 2.81203 0
M  V30 232 H 21.2175 0.495717 1.35199 0
M  V30 233 H 23.1705 -1.05302 4.08031 0
M  V30 234 H 21.8945 -1.47785 2.91251 0
M  V30 235 H 20.5535 0.531296 3.6273 0
M  V30 236 H 20.2015 -1.68011 4.74111 0
M  V30 237 H 19.9015 -0.332184 5.8666 0
M  V30 238 H 21.4255 -1.2583 5.97494 0
M  V30 239 H 22.8395 0.98934 5.64699 0
M  V30 240 H 21.2365 1.77593 5.7322 0
M  V30 241 H 22.3065 2.11978 4.36111 0
M  V30 242 N 23.6496 -1.47581 0.552962 0
M  V30 243 C 24.8986 -2.01684 0.0251995 0
M  V30 244 C 25.2116 -1.43317 -1.33115 0
M  V30 245 O 26.4176 -1.89057 -1.94858 0
M  V30 246 C 24.8736 -3.599 -0.00542052 0
M  V30 247 C 24.4816 -4.27257 1.34742 0
M  V30 248 C 26.2256 -4.21768 -0.4808 0
M  V30 249 C 24.1326 -5.77467 1.27614 0
M  V30 250 H 23.0626 -0.753979 0.00565033 0
M  V30 251 H 25.7136 -1.69616 0.70018 0
M  V30 252 H 24.0956 -3.88911 -0.745961 0
M  V30 253 H 25.2696 -4.09893 2.10534 0
M  V30 254 H 23.5846 -3.77358 1.76039 0
M  V30 255 H 26.1816 -5.31838 -0.55246 0
M  V30 256 H 26.5246 -3.88651 -1.49184 0
M  V30 257 H 27.0576 -3.97273 0.204752 0
M  V30 258 H 23.7966 -6.15196 2.26304 0
M  V30 259 H 23.3166 -5.9718 0.55996 0
M  V30 260 H 24.9956 -6.3959 0.976421 0
M  V30 261 N 25.1277 -0.289203 -1.54924 0
M  V30 262 C 26.3757 0.322879 -1.99504 0
M  V30 263 C 26.6967 1.55313 -1.1791 0
M  V30 264 O 25.9667 1.94001 -0.272097 0
M  V30 265 H 24.5467 0.122291 -0.736922 0
M  V30 266 H 27.2087 -0.397802 -1.90797 0
M  V30 267 H 26.3047 0.603061 -3.06218 0
M  V30 268 N 26.6058 1.57591 -0.0167156 0
M  V30 269 C 27.5358 2.12496 0.967858 0
M  V30 270 C 28.5168 1.03807 1.34752 0
M  V30 271 O 29.7018 1.31577 1.42833 0
M  V30 272 C 26.8318 2.64194 2.25431 0
M  V30 273 C 25.7858 3.77559 2.01576 0
M  V30 274 C 25.1118 4.15636 3.36379 0
M  V30 275 C 26.4118 5.04151 1.36489 0
M  V30 276 H 28.1058 2.95013 0.510643 0
M  V30 277 H 25.6518 1.41915 0.244181 0
M  V30 278 H 27.6048 3.01236 2.94678 0
M  V30 279 H 26.3288 1.78821 2.73296 0
M  V30 280 H 24.9878 3.40937 1.34751 0
M  V30 281 H 24.6358 3.27263 3.81979 0
M  V30 282 H 24.3358 4.92022 3.21229 0
M  V30 283 H 25.8598 4.5525 4.06915 0
M  V30 284 H 27.2738 5.38857 1.95718 0
M  V30 285 H 25.6708 5.85453 1.31776 0
M  V30 286 H 26.7408 4.83733 0.336219 0
M  V30 287 N 28.0839 -0.256276 1.55502 0
M  V30 288 C 29.3319 -0.983672 1.76545 0
M  V30 289 C 29.6529 -1.86206 0.578982 0
M  V30 290 O 28.9229 -1.91656 -0.405577 0
M  V30 291 H 27.5029 -0.366191 0.651086 0
M  V30 292 H 30.1649 -0.276479 1.92929 0
M  V30 293 H 29.2609 -1.61087 2.67315 0
M  V30 294 N 29.562 -1.4872 -0.521534 0
M  V30 295 C 30.79 -1.60843 -1.30142 0
M  V30 296 C 31.205 -0.271897 -1.86832 0
M  V30 297 O 30.562 0.739969 -1.66825 0
M  V30 298 C 30.613 -2.66155 -2.4463 0
M  V30 299 O 30.334 -3.94623 -1.90275 0
M  V30 300 C 31.835 -2.88795 -3.36322 0
M  V30 301 H 29.055 -0.542075 -0.395468 0
M  V30 302 H 31.599 -1.94609 -0.628285 0
M  V30 303 H 29.754 -2.35224 -3.07812 0
M  V30 304 H 30.168 -4.52468 -2.65279 0
M  V30 305 H 31.642 -3.66264 -4.12983 0
M  V30 306 H 32.119 -1.97934 -3.9207 0
M  V30 307 H 32.725 -3.21063 -2.78924 0
M  V30 308 N 31.0401 0.771051 -1.3745 0
M  V30 309 C 32.2861 1.53109 -1.339 0
M  V30 310 C 32.6411 1.9225 0.0758401 0
M  V30 311 O 31.9341 1.61264 1.03463 0
M  V30 312 C 32.1281 2.80676 -2.2126 0
M  V30 313 C 31.9571 2.54003 -3.71096 0
M  V30 314 C 30.7271 2.48097 -4.402 0
M  V30 315 C 32.9251 2.21953 -4.63941 0
M  V30 316 N 30.9071 2.13515 -5.75573 0
M  V30 317 C 32.2781 1.97516 -5.87697 0
M  V30 318 C 34.3331 2.08114 -4.5232 0
M  V30 319 C 33.0361 1.60638 -7.01133 0
M  V30 320 C 35.0621 1.72636 -5.65642 0
M  V30 321 C 34.4241 1.4906 -6.88448 0
M  V30 322 H 30.5231 0.56055 -0.54526 0
M  V30 323 H 33.1071 0.899472 -1.72678 0
M  V30 324 H 31.2781 3.41674 -1.84698 0
M  V30 325 H 33.0101 3.46578 -2.08963 0
M  V30 326 H 29.7651 2.63974 -3.93211 0
M  V30 327 H 30.1891 1.98919 -6.47117 0
M  V30 328 H 34.8311 2.25024 -3.57944 0
M  V30 329 H 32.5491 1.42467 -7.95443 0
M  V30 330 H 36.1351 1.62586 -5.58621 0
M  V30 331 H 35.0151 1.22014 -7.7465 0
M  V30 332 N 32.5182 1.22032 0.997298 0
M  V30 333 C 33.4652 0.986467 2.08656 0
M  V30 334 C 34.4352 -0.0902671 1.65855 0
M  V30 335 O 35.6202 0.0584294 1.90711 0
M  V30 336 C 32.7602 0.565569 3.40434 0
M  V30 337 C 31.8732 1.71259 3.96604 0
M  V30 338 C 31.0082 1.24011 5.16522 0
M  V30 339 C 30.0472 2.35896 5.64818 0
M  V30 340 N 29.1842 1.89726 6.7598 0
M  V30 341 H 34.0242 1.91892 2.27994 0
M  V30 342 H 31.5612 0.956199 1.11782 0
M  V30 343 H 33.5192 0.302738 4.161 0
M  V30 344 H 32.1492 -0.329879 3.2111 0
M  V30 345 H 31.2012 2.08986 3.17851 0
M  V30 346 H 32.5132 2.55436 4.28432 0
M  V30 347 H 31.6672 0.934395 5.99461 0
M  V30 348 H 30.4062 0.368487 4.86306 0
M  V30 349 H 29.4112 2.67261 4.8047 0
M  V30 350 H 30.6362 3.23567 5.97061 0
M  V30 351 H 28.5822 1.0492 6.47555 0
M  V30 352 H 28.4992 2.67471 7.07103 0
M  V30 353 H 29.7672 1.62211 7.62435 0
M  V30 354 N 33.9963 -1.19345 1.0293 0
M  V30 355 C 35.2213 -1.93538 0.745511 0
M  V30 356 C 35.6463 -1.75007 -0.689511 0
M  V30 357 O 35.0043 -1.05265 -1.47611 0
M  V30 358 C 35.0523 -3.43336 1.10239 0
M  V30 359 O 34.1563 -4.11806 0.221289 0
M  V30 360 H 33.4973 -0.604193 0.275404 0
M  V30 361 H 36.0273 -1.5141 1.37609 0
M  V30 362 H 36.0373 -3.94004 1.05947 0
M  V30 363 H 34.7123 -3.56146 2.14786 0
M  V30 364 H 33.2893 -3.715 0.322842 0
M  V30 365 N 35.4744 -0.807222 -1.35358 0
M  V30 366 C 36.3844 -0.219594 -2.3357 0
M  V30 367 C 37.4004 0.637734 -1.61892 0
M  V30 368 O 38.5764 0.549336 -1.93763 0
M  V30 369 C 35.6414 0.62158 -3.41083 0
M  V30 370 C 34.7024 -0.256315 -4.28534 0
M  V30 371 C 33.9354 0.544807 -5.30912 0
M  V30 372 O 34.1584 1.77944 -5.41934 0
M  V30 373 O 33.0924 -0.0646478 -6.01865 0
M  V30 374 H 36.9184 -1.03208 -2.85625 0
M  V30 375 H 34.5034 -0.569025 -1.38139 0
M  V30 376 H 36.3854 1.10067 -4.06772 0
M  V30 377 H 35.0604 1.41165 -2.91297 0
M  V30 378 H 33.9674 -0.782559 -3.65823 0
M  V30 379 H 35.3004 -1.01034 -4.81719 0
M  V30 380 N 36.9525 1.47285 -0.560781 0
M  V30 381 C 38.3635 1.86258 -0.128343 0
M  V30 382 C 38.7145 1.46699 1.30284 0
M  V30 383 O 37.8395 0.871698 1.98067 0
M  V30 384 C 38.4345 3.38044 -0.22614 0
M  V30 385 C 36.9935 3.76096 0.151283 0
M  V30 386 C 36.1405 2.71335 -0.572084 0
M  V30 387 H 39.0915 1.38752 -0.770297 0
M  V30 388 H 39.1125 3.76441 0.554322 0
M  V30 389 H 38.6245 3.66806 -1.26788 0
M  V30 390 H 36.7255 3.52951 1.19399 0
M  V30 391 H 36.8385 4.78641 -0.209765 0
M  V30 392 H 35.2025 2.54696 -0.0147653 0
M  V30 393 H 35.9855 3.02938 -1.61504 0
M  V30 394 N 38.4306 0.297415 1.54768 0
M  V30 395 C 39.6786 -0.312295 1.99673 0
M  V30 396 C 39.9996 -1.54686 1.18732 0
M  V30 397 O 39.2696 -1.93854 0.282382 0
M  V30 398 H 37.8496 -0.118381 0.73756 0
M  V30 399 H 40.5116 0.407915 1.90583 0
M  V30 400 H 39.6076 -0.586813 3.06534 0
M  V30 401 N 39.9087 -1.5758 0.0250728 0
M  V30 402 C 40.8407 -2.06869 -0.986796 0
M  V30 403 C 41.8537 -0.991332 -1.29137 0
M  V30 404 O 43.0427 -1.26761 -1.25674 0
M  V30 405 C 40.1427 -2.47486 -2.31525 0
M  V30 406 C 39.3157 -3.78253 -2.19643 0
M  V30 407 C 38.3747 -4.05464 -3.35388 0
M  V30 408 O 37.4007 -4.75774 -3.12454 0
M  V30 409 N 38.6027 -3.55321 -4.59051 0
M  V30 410 H 41.3677 -2.94302 -0.566276 0
M  V30 411 H 38.9287 -1.6109 -0.161776 0
M  V30 412 H 40.9207 -2.62785 -3.07776 0
M  V30 413 H 39.4907 -1.65441 -2.65232 0
M  V30 414 H 38.7107 -3.7279 -1.28144 0
M  V30 415 H 39.9987 -4.63936 -2.08903 0
M  V30 416 H 39.3967 -2.98431 -4.80578 0
M  V30 417 H 37.9537 -3.75905 -5.32483 0
M  V30 418 N 41.3868 0.248026 -1.55636 0
M  V30 419 C 42.6328 0.97767 -1.77678 0
M  V30 420 C 42.9658 1.85016 -0.590135 0
M  V30 421 O 42.2408 1.90095 0.411611 0
M  V30 422 C 42.5238 1.83914 -3.09593 0
M  V30 423 C 42.3768 0.99491 -4.38659 0
M  V30 424 C 43.6958 2.82183 -3.37729 0
M  V30 425 H 40.8148 0.354005 -0.646413 0
M  V30 426 H 43.4568 0.248253 -1.88371 0
M  V30 427 H 41.6068 2.46104 -3.00608 0
M  V30 428 H 43.2788 0.391789 -4.59633 0
M  V30 429 H 41.5218 0.299231 -4.32767 0
M  V30 430 H 42.1928 1.63145 -5.2734 0
M  V30 431 H 44.6688 2.30129 -3.4667 0
M  V30 432 H 43.5448 3.39582 -4.31249 0
M  V30 433 H 43.8058 3.58588 -2.58586 0
M  V30 434 N 42.8649 1.48995 0.513639 0
M  V30 435 C 43.8119 1.6473 1.61656 0
M  V30 436 C 44.7819 0.488984 1.58739 0
M  V30 437 O 45.9669 0.714478 1.76918 0
M  V30 438 C 43.1069 1.7082 2.99858 0
M  V30 439 C 42.2199 2.9787 3.12885 0
M  V30 440 C 41.3549 2.95017 4.41744 0
M  V30 441 C 40.3939 4.16702 4.48359 0
M  V30 442 N 39.5309 4.11832 5.68629 0
M  V30 443 H 44.3709 2.58909 1.47547 0
M  V30 444 H 41.9079 1.28382 0.71808 0
M  V30 445 H 43.8659 1.72331 3.79944 0
M  V30 446 H 42.4959 0.801181 3.12699 0
M  V30 447 H 41.5479 3.06029 2.25944 0
M  V30 448 H 42.8599 3.8786 3.13633 0
M  V30 449 H 42.0139 2.95021 5.30139 0
M  V30 450 H 40.7529 2.02784 4.43542 0
M  V30 451 H 39.7579 4.16955 3.58369 0
M  V30 452 H 40.9829 5.10113 4.48287 0
M  V30 453 H 38.9289 3.22428 5.71293 0
M  V30 454 H 38.8459 4.95543 5.7094 0
M  V30 455 H 40.1139 4.1592 6.59266 0
M  V30 456 N 44.343 -0.763751 1.37857 0
M  V30 457 C 45.306 -1.85889 1.34081 0
M  V30 458 C 46.306 -1.58949 0.243277 0
M  V30 459 O 47.496 -1.66882 0.499589 0
M  V30 460 C 44.628 -3.23176 1.08489 0
M  V30 461 H 45.821 -1.90648 2.31502 0
M  V30 462 H 43.374 -0.964367 1.23003 0
M  V30 463 H 44.109 -3.24091 0.116318 0
M  V30 464 H 43.894 -3.44124 1.8794 0
M  V30 465 H 45.384 -4.03254 1.08517 0
M  V30 466 N 45.8211 -1.22559 -0.990812 0
M  V30 467 C 46.7841 -0.998863 -2.0629 0
M  V30 468 C 47.7841 0.0354834 -1.60761 0
M  V30 469 O 48.9741 -0.203231 -1.7301 0
M  V30 470 C 46.1061 -0.509203 -3.37076 0
M  V30 471 H 47.2991 -1.95014 -2.27837 0
M  V30 472 H 44.8521 -1.04456 -1.16269 0
M  V30 473 H 45.5871 0.446335 -3.21214 0
M  V30 474 H 45.3721 -1.25547 -3.71457 0
M  V30 475 H 46.8621 -0.370888 -4.1595 0
M  V30 476 N 47.2992 1.18797 -1.03562 0
M  V30 477 C 48.5452 1.8893 -0.737113 0
M  V30 478 C 48.8782 1.79837 0.732956 0
M  V30 479 O 48.1532 1.19525 1.5344 0
M  V30 480 C 48.4362 3.39607 -1.19745 0
M  V30 481 C 48.2892 3.57537 -2.72924 0
M  V30 482 C 49.6082 4.33069 -0.783526 0
M  V30 483 H 46.7272 0.686057 -0.269249 0
M  V30 484 H 49.3692 1.39797 -1.28673 0
M  V30 485 H 47.5192 3.81583 -0.729855 0
M  V30 486 H 49.1912 3.24688 -3.27682 0
M  V30 487 H 47.4342 3.00363 -3.12993 0
M  V30 488 H 48.1052 4.63238 -3.00191 0
M  V30 489 H 50.5812 3.98846 -1.18581 0
M  V30 490 H 49.4572 5.3707 -1.13343 0
M  V30 491 H 49.7182 4.40986 0.313681 0
M  V30 492 N 48.7773 0.814389 1.34928 0
M  V30 493 C 49.7243 0.22822 2.29669 0
M  V30 494 C 50.6943 -0.642164 1.53184 0
M  V30 495 O 51.8793 -0.585605 1.81591 0
M  V30 496 C 49.0193 -0.61089 3.3965 0
M  V30 497 C 48.1323 0.280792 4.31086 0
M  V30 498 C 47.2673 -0.567067 5.28165 0
M  V30 499 C 46.3063 0.324531 6.11239 0
M  V30 500 N 45.4433 -0.483756 7.00431 0
M  V30 501 H 50.2833 1.04153 2.79206 0
M  V30 502 H 47.8203 0.525133 1.37407 0
M  V30 503 H 49.7783 -1.11263 4.0209 0
M  V30 504 H 48.4083 -1.38939 2.91369 0
M  V30 505 H 47.4603 0.900688 3.69583 0
M  V30 506 H 48.7723 0.966723 4.89342 0
M  V30 507 H 47.9263 -1.13363 5.96015 0
M  V30 508 H 46.6653 -1.28654 4.70425 0
M  V30 509 H 45.6703 0.903298 5.42329 0
M  V30 510 H 46.8953 1.04198 6.71059 0
M  V30 511 H 44.8413 -1.18706 6.45171 0
M  V30 512 H 44.7583 0.143965 7.55863 0
M  V30 513 H 46.0263 -1.03334 7.7262 0
M  V30 514 N 50.2554 -1.46986 0.568584 0
M  V30 515 C 51.4854 -2.0653 0.0539173 0
M  V30 516 C 51.8934 -1.42004 -1.25026 0
M  V30 517 O 51.2364 -0.514541 -1.76347 0
M  V30 518 C 51.2984 -3.58938 -0.200854 0
M  V30 519 C 50.9624 -4.45572 1.01559 0
M  V30 520 C 51.9594 -4.82986 1.92407 0
M  V30 521 C 49.6444 -4.8692 1.23346 0
M  V30 522 C 51.6384 -5.60559 3.03402 0
M  V30 523 C 49.3254 -5.64255 2.34649 0
M  V30 524 C 50.3234 -6.00986 3.24507 0
M  V30 525 O 50.0114 -6.76761 4.33878 0
M  V30 526 H 49.7434 -0.674292 0.0480234 0
M  V30 527 H 52.2974 -1.89812 0.784896 0
M  V30 528 H 50.5274 -3.73911 -0.986279 0
M  V30 529 H 52.2164 -4.0046 -0.662294 0
M  V30 530 H 52.9824 -4.51633 1.76785 0
M  V30 531 H 48.8614 -4.57789 0.543178 0
M  V30 532 H 52.4054 -5.89147 3.73565 0
M  V30 533 H 48.3024 -5.95021 2.5024 0
M  V30 534 H 49.0704 -6.95168 4.32068 0
M  V30 535 N 51.7335 -0.305618 -1.54608 0
M  V30 536 C 52.6965 0.555591 -2.22364 0
M  V30 537 C 53.6965 1.05768 -1.21119 0
M  V30 538 O 54.8865 0.952972 -1.45822 0
M  V30 539 C 52.0185 1.76974 -2.91364 0
M  V30 540 H 53.2115 -0.0364572 -2.99878 0
M  V30 541 H 50.7645 -0.0565007 -1.56198 0
M  V30 542 H 51.4995 2.40151 -2.17941 0
M  V30 543 H 51.2845 1.41732 -3.65588 0
M  V30 544 H 52.7745 2.38148 -3.43038 0
M  V30 545 N 53.2116 1.57565 -0.0334293 0
M  V30 546 C 54.1416 2.13511 0.945265 0
M  V30 547 C 55.1226 1.05231 1.33643 0
M  V30 548 O 56.3076 1.33084 1.41429 0
M  V30 549 C 53.4376 2.6657 2.22616 0
M  V30 550 C 52.3916 3.79676 1.97561 0
M  V30 551 C 51.7176 4.1918 3.31952 0
M  V30 552 C 53.0176 5.0557 1.31135 0
M  V30 553 H 54.7116 2.95538 0.479325 0
M  V30 554 H 52.2576 1.42166 0.229115 0
M  V30 555 H 54.2106 3.04344 2.91466 0
M  V30 556 H 52.9346 1.8171 2.71384 0
M  V30 557 H 51.5936 3.42347 1.31127 0
M  V30 558 H 51.2416 3.31296 3.78487 0
M  V30 559 H 50.9416 4.95402 3.15992 0
M  V30 560 H 52.4656 4.59541 4.02063 0
M  V30 561 H 53.8796 5.40903 1.89992 0
M  V30 562 H 52.2766 5.86818 1.25559 0
M  V30 563 H 53.3466 4.84062 0.284894 0
M  V30 564 N 54.6897 -0.239769 1.55765 0
M  V30 565 C 55.9147 -0.988373 1.82335 0
M  V30 566 C 56.3397 -1.77886 0.611421 0
M  V30 567 O 55.6977 -1.75889 -0.439639 0
M  V30 568 C 55.7457 -1.89627 3.06715 0
M  V30 569 O 54.8497 -2.98904 2.84131 0
M  V30 570 H 54.1907 -0.280858 0.601677 0
M  V30 571 H 56.7207 -0.258597 2.02959 0
M  V30 572 H 56.7307 -2.30957 3.36338 0
M  V30 573 H 55.4057 -1.31511 3.9456 0
M  V30 574 H 53.9827 -2.61651 2.65694 0
M  V30 575 N 56.1678 -1.49265 -0.50573 0
M  V30 576 C 57.4138 -1.58748 -1.26202 0
M  V30 577 C 57.7468 -0.271227 -1.92297 0
M  V30 578 O 57.0218 0.724831 -1.80489 0
M  V30 579 C 57.3048 -2.74332 -2.33268 0
M  V30 580 C 57.1578 -4.15737 -1.71705 0
M  V30 581 C 58.4768 -2.85576 -3.34865 0
M  V30 582 H 55.5958 -0.577826 -0.457478 0
M  V30 583 H 58.2378 -1.81532 -0.560897 0
M  V30 584 H 56.3878 -2.55036 -2.93068 0
M  V30 585 H 58.0598 -4.46537 -1.15769 0
M  V30 586 H 56.3028 -4.21605 -1.02135 0
M  V30 587 H 56.9738 -4.92477 -2.49341 0
M  V30 588 H 59.4498 -3.03127 -2.8505 0
M  V30 589 H 58.3258 -3.68135 -4.07146 0
M  V30 590 H 58.5868 -1.94732 -3.96903 0
M  V30 591 N 57.6459 0.756429 -1.3826 0
M  V30 592 C 58.8939 1.51248 -1.34047 0
M  V30 593 C 59.2149 1.94875 0.0698372 0
M  V30 594 O 58.4849 1.67436 1.01696 0
M  V30 595 H 57.0649 0.561018 -0.493222 0
M  V30 596 H 59.7269 0.899347 -1.7291 0
M  V30 597 H 58.8229 2.40472 -1.98947 0
M  V30 598 N 59.124 1.23083 0.984299 0
M  V30 599 C 60.354 1.08556 1.75781 0
M  V30 600 C 60.762 -0.366171 1.85623 0
M  V30 601 O 60.105 -1.26524 1.33182 0
M  V30 602 C 60.167 1.63208 3.20318 0
M  V30 603 C 59.831 3.11922 3.33997 0
M  V30 604 C 60.828 4.09259 3.2063 0
M  V30 605 C 58.513 3.51552 3.58771 0
M  V30 606 C 60.507 5.4421 3.31835 0
M  V30 607 C 58.194 4.86649 3.69616 0
M  V30 608 C 59.192 5.82787 3.56157 0
M  V30 609 O 58.88 7.15431 3.66626 0
M  V30 610 H 58.612 0.380713 0.5586 0
M  V30 611 H 61.166 1.63321 1.2456 0
M  V30 612 H 59.396 1.0286 3.72769 0
M  V30 613 H 61.085 1.44216 3.79416 0
M  V30 614 H 61.851 3.79984 3.01392 0
M  V30 615 H 57.73 2.77239 3.6832 0
M  V30 616 H 61.274 6.1923 3.21247 0
M  V30 617 H 57.171 5.15601 3.88363 0
M  V30 618 H 57.939 7.23127 3.83445 0
M  V30 619 N 60.6021 -1.18246 1.0419 0
M  V30 620 C 62.0181 -1.40269 0.761366 0
M  V30 621 C 62.2181 -1.90777 -0.648578 0
M  V30 622 O 61.2741 -2.0929 -1.41258 0
M  V30 623 C 62.5871 -2.40237 1.8085 0
M  V30 624 C 64.1351 -2.53961 1.82955 0
M  V30 625 C 64.6101 -3.57194 2.86664 0
M  V30 626 N 66.1011 -3.64702 2.85563 0
M  V30 627 C 66.8361 -4.44309 3.6246 0
M  V30 628 N 66.3321 -5.27514 4.49111 0
M  V30 629 N 68.1251 -4.39084 3.50944 0
M  V30 630 H 60.2761 -0.837882 1.95175 0
M  V30 631 H 62.5391 -0.430608 0.84456 0
M  V30 632 H 62.2451 -2.10176 2.81991 0
M  V30 633 H 62.1191 -3.39601 1.64168 0
M  V30 634 H 64.5061 -2.83338 0.824855 0
M  V30 635 H 64.5871 -1.54706 2.03715 0
M  V30 636 H 64.2311 -3.28558 3.87314 0
M  V30 637 H 64.1611 -4.5613 2.6316 0
M  V30 638 H 66.6521 -3.05289 2.22727 0
M  V30 639 H 66.9651 -5.85411 5.04493 0
M  V30 640 H 65.3101 -5.2693 4.53178 0
M  V30 641 H 68.5011 -3.7313 2.82651 0
M  V30 642 H 68.6741 -5.00883 4.11121 0
M  V30 643 N 62.0802 -0.821533 -1.34494 0
M  V30 644 C 63.0302 -0.214793 -2.26986 0
M  V30 645 C 64.0142 0.620125 -1.4847 0
M  V30 646 O 65.2062 0.474933 -1.70509 0
M  V30 647 C 62.3352 0.623566 -3.37589 0
M  V30 648 C 61.4212 -0.221904 -4.23519 0
M  V30 649 N 61.8122 -1.29223 -4.89014 0
M  V30 650 C 60.1102 -0.00600922 -4.46 0
M  V30 651 C 60.8112 -1.80965 -5.52835 0
M  V30 652 N 59.7872 -1.11376 -5.32068 0
M  V30 653 H 63.5892 -1.03354 -2.75128 0
M  V30 654 H 61.1032 -0.6642 -1.48196 0
M  V30 655 H 63.1002 1.0744 -4.02818 0
M  V30 656 H 61.7602 1.44049 -2.90998 0
M  V30 657 H 62.7712 -1.67502 -4.90065 0
M  V30 658 H 59.4482 0.77886 -4.10171 0
M  V30 659 H 60.8382 -2.70502 -6.15043 0
M  V30 660 N 63.5583 1.46682 -0.576371 0
M  V30 661 C 64.8073 2.01619 -0.0572825 0
M  V30 662 C 65.1203 1.45417 1.30818 0
M  V30 663 O 66.3263 1.92133 1.91825 0
M  V30 664 C 64.7823 3.59863 -0.0518371 0
M  V30 665 C 64.3903 4.25059 -1.41523 0
M  V30 666 C 66.1343 4.2248 0.413639 0
M  V30 667 C 64.0413 5.75364 -1.36785 0
M  V30 668 H 62.9713 0.753794 -0.0176448 0
M  V30 669 H 65.6223 1.68481 -0.727076 0
M  V30 670 H 64.0043 3.90048 0.683994 0
M  V30 671 H 65.1783 4.06491 -2.17029 0
M  V30 672 H 63.4933 3.7451 -1.8202 0
M  V30 673 H 66.0903 5.3265 0.467779 0
M  V30 674 H 66.4333 3.90976 1.42982 0
M  V30 675 H 66.9663 3.96897 -0.267929 0
M  V30 676 H 63.7053 6.11518 -2.36063 0
M  V30 677 H 63.2253 5.96214 -0.654895 0
M  V30 678 H 64.9043 6.37955 -1.07805 0
M  V30 679 N 65.0364 0.313813 1.54444 0
M  V30 680 C 66.3134 -0.345447 1.92525 0
M  V30 681 C 66.6934 -1.70667 1.24242 0
M  V30 682 O 66.0414 -2.25273 0.382654 0
M  V30 683 C 66.2514 -0.44737 3.46121 0
M  V30 684 C 67.5994 -0.712238 4.18584 0
M  V30 685 O 68.6234 -0.530678 3.52225 0
M  V30 686 O 67.4824 -1.06183 5.36085 0
M  V30 687 H 64.5764 -0.195407 0.803583 0
M  V30 688 H 67.1224 0.362813 1.65776 0
M  V30 689 H 65.8944 0.509043 3.87975 0
M  V30 690 H 65.5174 -1.20359 3.78945 0
M  V30 691 N 66.5145 -1.57545 0.0417849 0
M  V30 692 C 67.7545 -1.94185 -0.63809 0
M  V30 693 C 68.1185 -0.919339 -1.68559 0
M  V30 694 O 69.3195 -1.17236 -2.41886 0
M  V30 695 C 67.5905 -3.35672 -1.22714 0
M  V30 696 S 69.1495 -3.94256 -1.92633 0
M  V30 697 H 65.9675 -0.679353 -0.209764 0
M  V30 698 H 68.5695 -1.95199 0.108479 0
M  V30 699 H 67.2735 -4.07898 -0.452503 0
M  V30 700 H 66.8045 -3.38132 -2.01073 0
M  V30 701 H 68.8195 -3.7872 -3.20602 0
M  V30 702 N 67.9926 0.231505 -1.5589 0
M  V30 703 C 68.9556 1.27028 -1.90779 0
M  V30 704 C 69.9556 1.40308 -0.785507 0
M  V30 705 O 71.1456 1.38744 -1.05336 0
M  V30 706 C 68.2776 2.64566 -2.14983 0
M  V30 707 H 69.4706 0.973017 -2.83677 0
M  V30 708 H 67.0236 0.471486 -1.49019 0
M  V30 709 H 67.7586 2.99406 -1.24604 0
M  V30 710 H 67.5436 2.56305 -2.96732 0
M  V30 711 H 69.0336 3.39543 -2.43105 0
M  V30 712 N 69.4707 1.49531 0.497807 0
M  V30 713 C 70.4337 1.65916 1.58128 0
M  V30 714 C 71.4337 0.530825 1.51786 0
M  V30 715 O 72.6237 0.797342 1.54881 0
M  V30 716 C 69.7557 1.65951 2.9778 0
M  V30 717 H 70.9487 2.62556 1.44929 0
M  V30 718 H 68.5017 1.38611 0.722275 0
M  V30 719 H 69.2367 0.709065 3.16453 0
M  V30 720 H 69.0217 2.47897 3.03792 0
M  V30 721 H 70.5117 1.80673 3.76493 0
M  V30 722 N 70.9488 -0.749086 1.3866 0
M  V30 723 C 72.1978 -1.50371 1.3443 0
M  V30 724 C 72.5108 -1.95503 -0.0616397 0
M  V30 725 O 73.7168 -2.70554 -0.226489 0
M  V30 726 C 72.1728 -2.71644 2.36088 0
M  V30 727 C 71.7808 -2.3352 3.82325 0
M  V30 728 C 73.5248 -3.49518 2.40909 0
M  V30 729 C 71.4318 -3.51431 4.75658 0
M  V30 730 H 70.3618 -0.564628 0.499712 0
M  V30 731 H 73.0128 -0.818449 1.64237 0
M  V30 732 H 71.3948 -3.42175 1.9933 0
M  V30 733 H 72.5688 -1.70627 4.28046 0
M  V30 734 H 70.8838 -1.6877 3.80665 0
M  V30 735 H 73.4808 -4.37197 3.07836 0
M  V30 736 H 73.8238 -3.90992 1.42937 0
M  V30 737 H 74.3568 -2.86005 2.76489 0
M  V30 738 H 71.0958 -3.15019 5.74842 0
M  V30 739 H 70.6158 -4.13352 4.34627 0
M  V30 740 H 72.2948 -4.17953 4.93887 0
M  V30 741 N 72.4269 -1.23603 -0.977757 0
M  V30 742 C 73.6569 -1.09487 -1.75203 0
M  V30 743 C 74.0649 0.356321 -1.85814 0
M  V30 744 O 73.4079 1.25816 -1.33851 0
M  V30 745 C 73.4699 -1.64905 -3.19447 0
M  V30 746 C 73.1339 -3.13688 -3.32338 0
M  V30 747 C 74.1309 -4.10953 -3.18455 0
M  V30 748 C 71.8159 -3.53449 -3.56902 0
M  V30 749 C 73.8099 -5.45962 -3.28944 0
M  V30 750 C 71.4969 -4.88602 -3.6703 0
M  V30 751 C 72.4949 -5.84668 -3.53062 0
M  V30 752 O 72.1829 -7.17365 -3.62826 0
M  V30 753 H 71.9149 -0.38367 -0.556573 0
M  V30 754 H 74.4689 -1.6398 -1.23693 0
M  V30 755 H 72.6989 -1.04835 -3.72218 0
M  V30 756 H 74.3879 -1.46226 -3.78646 0
M  V30 757 H 75.1539 -3.81577 -2.99372 0
M  V30 758 H 71.0329 -2.79188 -3.66844 0
M  V30 759 H 74.5769 -6.20925 -3.17958 0
M  V30 760 H 70.4739 -5.17653 -3.85623 0
M  V30 761 H 71.2419 -7.2515 -3.79605 0
M  V30 762 N 73.905 1.17692 -1.04816 0
M  V30 763 C 75.153 1.87488 -0.754497 0
M  V30 764 C 75.474 1.81205 0.720407 0
M  V30 765 O 74.744 1.23544 1.52032 0
M  V30 766 H 73.324 0.694101 -0.276102 0
M  V30 767 H 75.986 1.42793 -1.32651 0
M  V30 768 H 75.082 2.93328 -1.06606 0
M  V30 769 N 75.3831 0.828654 1.34056 0
M  V30 770 C 76.3311 0.242973 2.31327 0
M  V30 771 C 77.3251 -0.61944 1.57668 0
M  V30 772 O 78.5311 -0.51014 1.7262 0
M  V30 773 H 74.9061 0.059834 0.749616 0
M  V30 774 H 76.8771 1.07809 2.78244 0
M  V30 775 C 75.6261 -0.575733 3.429 0
M  V30 776 H 74.9491 0.0785582 3.99723 0
M  V30 777 H 76.3891 -0.951547 4.13185 0
M  V30 778 C 74.8481 -1.75044 2.87856 0
M  V30 779 O 75.3781 -2.84882 2.83205 0
M  V30 780 N 73.5841 -1.56903 2.44602 0
M  V30 781 H 73.1311 -0.675547 2.48584 0
M  V30 782 H 73.0891 -2.35652 2.08124 0
M  V30 783 N 76.8612 -1.46375 0.584142 0
M  V30 784 C 77.7712 -2.34115 -0.150728 0
M  V30 785 C 78.7872 -1.49838 -0.884567 0
M  V30 786 O 79.9632 -1.82704 -0.847429 0
M  V30 787 C 77.0282 -3.2705 -1.15062 0
M  V30 788 C 76.0892 -4.27228 -0.421293 0
M  V30 789 C 75.3222 -5.15722 -1.37355 0
M  V30 790 O 75.5452 -5.07176 -2.61014 0
M  V30 791 O 74.4792 -5.95383 -0.883355 0
M  V30 792 H 78.3052 -2.98309 0.569708 0
M  V30 793 H 75.8902 -1.45373 0.344535 0
M  V30 794 H 77.7722 -3.84381 -1.72712 0
M  V30 795 H 76.4472 -2.65451 -1.8525 0
M  V30 796 H 75.3542 -3.7358 0.197085 0
M  V30 797 H 76.6872 -4.91616 0.239641 0
M  V30 798 N 78.3393 -0.321999 -1.54275 0
M  V30 799 C 79.7503 0.166384 -1.85957 0
M  V30 800 C 80.1013 1.51747 -1.24367 0
M  V30 801 O 79.2263 2.09317 -0.549124 0
M  V30 802 C 79.8213 0.308681 -3.37391 0
M  V30 803 C 78.3803 0.741286 -3.69028 0
M  V30 804 C 77.5273 -0.137937 -2.76957 0
M  V30 805 H 80.4783 -0.542335 -1.49146 0
M  V30 806 H 80.4993 1.13984 -3.63026 0
M  V30 807 H 80.0113 -0.674809 -3.82188 0
M  V30 808 H 78.1123 1.73458 -3.29762 0
M  V30 809 H 78.2253 0.546118 -4.75977 0
M  V30 810 H 76.5893 0.386251 -2.51754 0
M  V30 811 H 77.3723 -1.11816 -3.2458 0
M  V30 812 N 79.8174 1.5752 -0.0501392 0
M  V30 813 C 80.7274 2.14952 0.939827 0
M  V30 814 C 81.7434 1.10706 1.34239 0
M  V30 815 O 82.9194 1.42869 1.41952 0
M  V30 816 C 79.9844 2.68232 2.19665 0
M  V30 817 C 79.0454 3.87272 1.85253 0
M  V30 818 C 78.2784 4.38002 3.04943 0
M  V30 819 O 78.5014 3.87811 4.18281 0
M  V30 820 O 77.4354 5.29602 2.86017 0
M  V30 821 H 81.2614 2.9986 0.481392 0
M  V30 822 H 78.8464 1.4841 0.171699 0
M  V30 823 H 80.7284 3.02475 2.93406 0
M  V30 824 H 79.4034 1.86395 2.64648 0
M  V30 825 H 78.3104 3.5792 1.0883 0
M  V30 826 H 79.6434 4.70336 1.4507 0
M  V30 827 N 81.2955 -0.223234 1.56011 0
M  V30 828 C 82.5445 -0.945912 1.78144 0
M  V30 829 C 82.8575 -1.85567 0.618396 0
M  V30 830 O 84.0635 -2.61688 0.723318 0
M  V30 831 C 82.5195 -1.73216 3.15475 0
M  V30 832 C 82.1275 -0.868619 4.39499 0
M  V30 833 C 83.8715 -2.44615 3.46935 0
M  V30 834 C 81.7785 -1.65212 5.67855 0
M  V30 835 H 80.7085 -0.356929 0.664167 0
M  V30 836 H 83.3595 -0.199845 1.82409 0
M  V30 837 H 81.7415 -2.52107 3.05382 0
M  V30 838 H 82.9155 -0.120366 4.60643 0
M  V30 839 H 81.2305 -0.26683 4.15544 0
M  V30 840 H 83.8275 -3.03732 4.40058 0
M  V30 841 H 84.1705 -3.17417 2.69355 0
M  V30 842 H 84.7035 -1.72715 3.58349 0
M  V30 843 H 81.4425 -0.967407 6.48322 0
M  V30 844 H 80.9625 -2.37503 5.50774 0
M  V30 845 H 82.6415 -2.21322 6.07968 0
M  V30 846 N 82.7736 -1.49793 -0.48987 0
M  V30 847 C 84.0216 -1.59525 -1.24081 0
M  V30 848 C 84.3426 -0.288953 -1.92847 0
M  V30 849 O 83.6126 0.692436 -1.83254 0
M  V30 850 H 82.1926 -0.587796 -0.460983 0
M  V30 851 H 84.8546 -1.86477 -0.566778 0
M  V30 852 H 83.9506 -2.39696 -1.99881 0
M  V30 853 N 84.2517 0.741722 -1.39055 0
M  V30 854 C 85.1617 1.88621 -1.39496 0
M  V30 855 C 86.1777 1.71557 -0.290578 0
M  V30 856 O 87.3537 1.94275 -0.530954 0
M  V30 857 C 84.4187 3.24134 -1.23037 0
M  V30 858 C 83.4797 3.5364 -2.43387 0
M  V30 859 C 82.7127 4.82687 -2.27703 0
M  V30 860 O 82.9357 5.55922 -1.27696 0
M  V30 861 O 81.8697 5.1194 -3.16545 0
M  V30 862 H 85.6957 1.91203 -2.35956 0
M  V30 863 H 83.2807 0.888625 -1.20099 0
M  V30 864 H 85.1627 4.0513 -1.15964 0
M  V30 865 H 83.8377 3.22337 -0.296691 0
M  V30 866 H 82.7447 2.72758 -2.56035 0
M  V30 867 H 84.0777 3.60209 -3.35425 0
M  V30 868 N 85.7298 1.2412 0.971189 0
M  V30 869 C 86.6928 1.03156 2.04674 0
M  V30 870 C 87.6928 -0.00990322 1.60797 0
M  V30 871 O 88.8828 0.230729 1.72665 0
M  V30 872 C 86.0148 0.562765 3.36223 0
M  V30 873 H 87.2078 1.98614 2.24705 0
M  V30 874 H 84.7608 1.06293 1.14593 0
M  V30 875 H 85.4958 -0.395176 3.21883 0
M  V30 876 H 85.2808 1.31441 3.69413 0
M  V30 877 H 86.7708 0.437015 4.15307 0
M  V30 878 N 87.2079 -1.17134 1.05439 0
M  V30 879 C 88.1379 -2.2342 0.678649 0
M  V30 880 C 89.1189 -1.66971 -0.32476 0
M  V30 881 O 90.3039 -1.93149 -0.201802 0
M  V30 882 C 87.4339 -3.47256 0.0552099 0
M  V30 883 C 86.3879 -4.16543 0.98365 0
M  V30 884 C 85.7139 -5.34231 0.223961 0
M  V30 885 C 87.0139 -4.68495 2.3089 0
M  V30 886 H 88.7079 -2.55105 1.56722 0
M  V30 887 H 86.2539 -1.2262 0.754998 0
M  V30 888 H 88.2069 -4.20828 -0.21946 0
M  V30 889 H 86.9309 -3.14846 -0.868319 0
M  V30 890 H 85.5899 -3.44887 1.24293 0
M  V30 891 H 85.2379 -4.98071 -0.702412 0
M  V30 892 H 84.9379 -5.81527 0.842627 0
M  V30 893 H 86.4619 -6.10585 -0.0433671 0
M  V30 894 H 87.8759 -5.33691 2.09396 0
M  V30 895 H 86.2729 -5.26379 2.88176 0
M  V30 896 H 87.3429 -3.85169 2.94572 0
M  V30 897 N 88.686 -0.835752 -1.33615 0
M  V30 898 C 89.633 -0.26473 -2.29277 0
M  V30 899 C 90.603 0.617712 -1.54187 0
M  V30 900 O 91.788 0.556641 -1.825 0
M  V30 901 C 88.928 0.556777 -3.40579 0
M  V30 902 C 88.041 -0.349339 -4.30585 0
M  V30 903 C 87.176 0.482969 -5.29 0
M  V30 904 C 86.215 -0.421732 -6.10645 0
M  V30 905 N 85.352 0.372262 -7.01112 0
M  V30 906 H 90.192 -1.08582 -2.77514 0
M  V30 907 H 87.729 -0.546927 -1.36554 0
M  V30 908 H 89.687 1.04852 -4.03809 0
M  V30 909 H 88.317 1.34286 -2.93542 0
M  V30 910 H 87.369 -0.959372 -3.68104 0
M  V30 911 H 88.681 -1.04445 -4.87742 0
M  V30 912 H 87.835 1.03866 -5.97743 0
M  V30 913 H 86.574 1.21153 -4.72412 0
M  V30 914 H 85.579 -0.989464 -5.40823 0
M  V30 915 H 86.804 -1.14861 -6.69316 0
M  V30 916 H 84.75 1.08426 -6.46977 0
M  V30 917 H 84.667 -0.264198 -7.55538 0
M  V30 918 H 85.935 0.910293 -7.74167 0
M  V30 919 N 90.1641 1.46063 -0.591896 0
M  V30 920 C 91.0741 2.34192 0.13831 0
M  V30 921 C 92.0901 1.50305 0.876608 0
M  V30 922 O 93.2661 1.8315 0.837728 0
M  V30 923 C 90.3311 3.27656 1.13326 0
M  V30 924 C 89.3921 4.27445 0.39863 0
M  V30 925 C 88.6251 5.16443 1.34618 0
M  V30 926 O 88.8481 5.08553 2.58321 0
M  V30 927 O 87.7821 5.95843 0.851768 0
M  V30 928 H 91.6081 2.98002 -0.58552 0
M  V30 929 H 89.1931 1.45188 -0.352239 0
M  V30 930 H 91.0751 3.85291 1.70671 0
M  V30 931 H 89.7501 2.6643 1.83839 0
M  V30 932 H 88.6571 3.73471 -0.216895 0
M  V30 933 H 89.9901 4.91482 -0.265709 0
M  V30 934 N 91.6422 0.330177 1.54103 0
M  V30 935 C 92.9192 -0.325007 1.92881 0
M  V30 936 C 93.2992 -1.6934 1.26045 0
M  V30 937 O 92.6472 -2.24855 0.406526 0
M  V30 938 C 92.8572 -0.410634 3.46576 0
M  V30 939 C 94.2052 -0.667801 4.19316 0
M  V30 940 O 95.2292 -0.49329 3.52768 0
M  V30 941 O 94.0882 -1.00491 5.37181 0
M  V30 942 H 91.1822 -0.186873 0.80561 0
M  V30 943 H 93.7282 0.380376 1.65382 0
M  V30 944 H 92.5002 0.550164 3.87413 0
M  V30 945 H 92.1232 -1.16333 3.802 0
M  V30 946 N 93.1203 -1.57491 0.0584922 0
M  V30 947 C 94.3663 -1.93264 -0.614558 0
M  V30 948 C 94.6993 -0.937717 -1.7006 0
M  V30 949 O 93.9743 0.0351652 -1.94468 0
M  V30 950 C 94.2573 -3.3938 -1.20386 0
M  V30 951 C 94.1103 -4.49625 -0.125375 0
M  V30 952 C 95.4293 -3.86039 -2.11334 0
M  V30 953 H 92.5483 -0.702791 -0.221933 0
M  V30 954 H 95.1903 -1.8961 0.12175 0
M  V30 955 H 93.3403 -3.42626 -1.83139 0
M  V30 956 H 95.0123 -4.58506 0.506971 0
M  V30 957 H 93.2553 -4.30354 0.545672 0
M  V30 958 H 93.9263 -5.48967 -0.577861 0
M  V30 959 H 96.4023 -3.84716 -1.58534 0
M  V30 960 H 95.2783 -4.88914 -2.49507 0
M  V30 961 H 95.5393 -3.23215 -3.01636 0
M  V30 962 N 94.5984 0.214957 -1.56127 0
M  V30 963 C 95.8464 0.936518 -1.79091 0
M  V30 964 C 96.1674 1.84606 -0.628148 0
M  V30 965 O 95.4374 1.92664 0.35462 0
M  V30 966 H 94.0174 0.3488 -0.660566 0
M  V30 967 H 96.6794 0.22523 -1.93594 0
M  V30 968 H 95.7754 1.53943 -2.71492 0
M  V30 969 N 96.0765 1.50051 0.48192 0
M  V30 970 C 97.4875 1.5348 1.06305 0
M  V30 971 C 97.8385 0.331997 1.93371 0
M  V30 972 O 96.9635 -0.556256 2.09129 0
M  V30 973 C 97.5585 2.7813 1.93466 0
M  V30 974 C 96.1175 2.84275 2.46707 0
M  V30 975 C 95.2645 2.47637 1.24785 0
M  V30 976 H 98.2155 1.56472 0.264995 0
M  V30 977 H 98.2365 2.59372 2.78399 0
M  V30 978 H 97.7485 3.65654 1.30072 0
M  V30 979 H 95.8495 2.01077 3.13686 0
M  V30 980 H 95.9625 3.8691 2.82555 0
M  V30 981 H 94.3265 1.99835 1.57918 0
M  V30 982 H 95.1095 3.37457 0.630694 0
M  V30 983 N 97.5546 -0.734337 1.39446 0
M  V30 984 C 98.8026 -1.49096 1.36436 0
M  V30 985 C 99.1236 -1.94961 -0.0388255 0
M  V30 986 O 98.3936 -1.69033 -0.990191 0
M  V30 987 H 96.9736 -0.5531 0.502085 0
M  V30 988 H 99.6356 -0.871725 1.74319 0
M  V30 989 H 98.7316 -2.37276 2.02747 0
M  V30 990 N 99.0327 -1.24633 -0.964593 0
M  V30 991 C 99.9797 -1.04144 -2.05968 0
M  V30 992 C 100.95 0.046262 -1.66036 0
M  V30 993 O 102.135 -0.108972 -1.90489 0
M  V30 994 C 99.2747 -0.65563 -3.38815 0
M  V30 995 C 98.3877 -1.81714 -3.91923 0
M  V30 996 C 97.5227 -1.37662 -5.13052 0
M  V30 997 C 96.5617 -2.50788 -5.58365 0
M  V30 998 N 95.6987 -2.07582 -6.70712 0
M  V30 999 H 100.539 -1.9787 -2.22827 0
M  V30 1000 H 98.0757 -0.9855 -1.09208 0
M  V30 1001 H 100.034 -0.412954 -4.15151 0
M  V30 1002 H 98.6637 0.244627 -3.21872 0
M  V30 1003 H 97.7157 -2.1734 -3.12198 0
M  V30 1004 H 99.0277 -2.66705 -4.21509 0
M  V30 1005 H 98.1817 -1.093 -5.96773 0
M  V30 1006 H 96.9207 -0.497293 -4.85158 0
M  V30 1007 H 95.9257 -2.79906 -4.73215 0
M  V30 1008 H 97.1507 -3.39283 -5.88272 0
M  V30 1009 H 95.0967 -1.22051 -6.44546 0
M  V30 1010 H 95.0137 -2.86125 -6.99763 0
M  V30 1011 H 96.2817 -1.82369 -7.57867 0
M  V30 1012 N 100.511 1.16574 -1.06058 0
M  V30 1013 C 101.474 2.19085 -0.673392 0
M  V30 1014 C 102.474 1.5835 0.279648 0
M  V30 1015 O 103.664 1.74088 0.0623488 0
M  V30 1016 C 100.796 3.40899 0.00954234 0
M  V30 1017 H 101.989 2.54853 -1.58081 0
M  V30 1018 H 99.5418 1.30808 -0.855516 0
M  V30 1019 H 100.277 3.10684 0.929826 0
M  V30 1020 H 100.062 3.86233 -0.67573 0
M  V30 1021 H 101.552 4.1675 0.266245 0
M  V30 1022 N 101.989 0.842826 1.3317 0
M  V30 1023 C 103.235 0.441099 1.97945 0
M  V30 1024 C 103.568 -0.998024 1.66593 0
M  V30 1025 O 102.843 -1.69839 0.947898 0
M  V30 1026 C 103.126 0.666841 3.53872 0
M  V30 1027 C 102.979 2.15352 3.94897 0
M  V30 1028 C 104.298 0.115544 4.39948 0
M  V30 1029 H 101.417 0.161739 0.719034 0
M  V30 1030 H 104.059 1.05907 1.57746 0
M  V30 1031 H 102.209 0.140828 3.88245 0
M  V30 1032 H 103.881 2.7447 3.70761 0
M  V30 1033 H 102.124 2.63653 3.44484 0
M  V30 1034 H 102.795 2.26221 5.03516 0
M  V30 1035 H 105.271 0.565213 4.12243 0
M  V30 1036 H 104.147 0.303152 5.48062 0
M  V30 1037 H 104.408 -0.980935 4.3108 0
M  V30 1038 N 103.467 -1.45747 0.599634 0
M  V30 1039 C 104.878 -1.85853 0.177681 0
M  V30 1040 C 105.229 -1.50102 -1.26348 0
M  V30 1041 O 104.354 -0.923905 -1.95686 0
M  V30 1042 C 104.949 -3.37326 0.315688 0
M  V30 1043 C 103.508 -3.76365 -0.0515144 0
M  V30 1044 C 102.655 -2.69722 0.643822 0
M  V30 1045 H 105.606 -1.36661 0.806814 0
M  V30 1046 H 105.627 -3.77778 -0.454321 0
M  V30 1047 H 105.139 -3.63315 1.36468 0
M  V30 1048 H 103.24 -3.55993 -1.09999 0
M  V30 1049 H 103.353 -4.77916 0.336594 0
M  V30 1050 H 101.717 -2.54567 0.0822881 0
M  V30 1051 H 102.5 -2.98549 1.6948 0
M  V30 1052 N 104.945 -0.338344 -1.53925 0
M  V30 1053 C 106.361 0.0137736 -1.59594 0
M  V30 1054 C 106.561 1.49186 -1.35447 0
M  V30 1055 O 105.617 2.24987 -1.14616 0
M  V30 1056 C 106.93 -0.41773 -2.97784 0
M  V30 1057 C 108.478 -0.369633 -3.1081 0
M  V30 1058 C 108.953 -0.776524 -4.51369 0
M  V30 1059 N 110.444 -0.730506 -4.57403 0
M  V30 1060 C 111.179 -1.01736 -5.64303 0
M  V30 1061 N 110.675 -1.3721 -6.79077 0
M  V30 1062 N 112.468 -0.941942 -5.54151 0
M  V30 1063 H 104.619 -1.3012 -1.67876 0
M  V30 1064 H 106.882 -0.530082 -0.78595 0
M  V30 1065 H 106.588 -1.44811 -3.20504 0
M  V30 1066 H 106.462 0.209729 -3.76616 0
M  V30 1067 H 108.849 0.651568 -2.87817 0
M  V30 1068 H 108.93 -1.03223 -2.34049 0
M  V30 1069 H 108.574 -1.79571 -4.75096 0
M  V30 1070 H 108.504 -0.0914649 -5.26521 0
M  V30 1071 H 110.995 -0.468783 -3.74981 0
M  V30 1072 H 111.308 -1.57597 -7.5656 0
M  V30 1073 H 109.653 -1.4105 -6.80536 0
M  V30 1074 H 112.844 -0.664184 -4.63364 0
M  V30 1075 H 113.017 -1.16884 -6.37371 0
M  V30 1076 N 106.423 1.57458 -0.0668435 0
M  V30 1077 C 107.333 2.15937 0.916975 0
M  V30 1078 C 108.349 1.12123 1.33058 0
M  V30 1079 O 109.525 1.44366 1.40429 0
M  V30 1080 C 106.59 2.70547 2.16807 0
M  V30 1081 C 105.651 3.89215 1.81135 0
M  V30 1082 C 104.884 4.41211 3.0028 0
M  V30 1083 O 105.107 3.92225 4.14144 0
M  V30 1084 O 104.041 5.32605 2.80384 0
M  V30 1085 H 107.867 3.00354 0.449561 0
M  V30 1086 H 105.452 1.48584 0.155949 0
M  V30 1087 H 107.334 3.0557 2.90181 0
M  V30 1088 H 106.009 1.89192 2.62656 0
M  V30 1089 H 104.916 3.59054 1.05028 0
M  V30 1090 H 106.249 4.71848 1.40073 0
M  V30 1091 N 107.901 -0.206675 1.56239 0
M  V30 1092 C 108.811 -1.27686 1.96808 0
M  V30 1093 C 109.827 -1.50455 0.874035 0
M  V30 1094 O 111.003 -1.63295 1.17884 0
M  V30 1095 C 108.068 -2.60358 2.28942 0
M  V30 1096 C 107.129 -2.45762 3.51994 0
M  V30 1097 C 106.362 -3.72108 3.82585 0
M  V30 1098 O 106.585 -4.75776 3.14631 0
M  V30 1099 O 105.519 -3.6833 4.76043 0
M  V30 1100 H 109.345 -0.962593 2.88041 0
M  V30 1101 H 106.93 -0.410746 1.43643 0
M  V30 1102 H 108.812 -3.38687 2.50737 0
M  V30 1103 H 107.487 -2.91435 1.4088 0
M  V30 1104 H 106.394 -1.65584 3.35459 0
M  V30 1105 H 107.727 -2.19621 4.40486 0
M  V30 1106 N 109.379 -1.50304 -0.473955 0
M  V30 1107 C 110.309 -1.71886 -1.58042 0
M  V30 1108 C 111.29 -0.567799 -1.60344 0
M  V30 1109 O 112.475 -0.806623 -1.76656 0
M  V30 1110 C 109.605 -1.81036 -2.96384 0
M  V30 1111 C 108.559 -2.962 -3.08949 0
M  V30 1112 C 107.885 -2.9049 -4.48909 0
M  V30 1113 C 109.185 -4.36752 -2.86434 0
M  V30 1114 H 110.879 -2.64527 -1.40234 0
M  V30 1115 H 108.425 -1.27295 -0.673201 0
M  V30 1116 H 110.378 -1.94719 -3.73714 0
M  V30 1117 H 109.102 -0.850147 -3.15341 0
M  V30 1118 H 107.761 -2.82164 -2.3405 0
M  V30 1119 H 107.409 -1.92321 -4.64781 0
M  V30 1120 H 107.109 -3.67802 -4.58253 0
M  V30 1121 H 108.633 -3.06218 -5.28264 0
M  V30 1122 H 110.047 -4.5133 -3.53517 0
M  V30 1123 H 108.444 -5.15493 -3.07225 0
M  V30 1124 H 109.514 -4.49321 -1.82316 0
M  V30 1125 N 110.857 0.726932 -1.39834 0
M  V30 1126 C 112.104 1.48664 -1.37496 0
M  V30 1127 C 112.432 1.94482 0.0264678 0
M  V30 1128 O 111.687 1.67692 1.00886 0
M  V30 1129 C 111.986 2.73495 -2.30077 0
M  V30 1130 C 111.652 2.46502 -3.77555 0
M  V30 1131 C 110.314 2.3885 -4.17737 0
M  V30 1132 C 112.666 2.23604 -4.70798 0
M  V30 1133 C 109.994 2.06352 -5.49214 0
M  V30 1134 C 112.346 1.92622 -6.02561 0
M  V30 1135 C 111.01 1.83444 -6.41798 0
M  V30 1136 H 110.28 0.544001 -0.503135 0
M  V30 1137 H 112.927 0.833657 -1.72402 0
M  V30 1138 H 111.232 3.43575 -1.88317 0
M  V30 1139 H 112.929 3.31549 -2.25558 0
M  V30 1140 H 109.519 2.5334 -3.45712 0
M  V30 1141 H 113.703 2.28479 -4.40581 0
M  V30 1142 H 108.959 1.97776 -5.78528 0
M  V30 1143 H 113.133 1.73914 -6.74334 0
M  V30 1144 H 110.76 1.58029 -7.43593 0
M  V30 1145 N 112.336 1.25143 0.95797 0
M  V30 1146 C 113.582 1.09855 1.70469 0
M  V30 1147 C 113.915 -0.360187 1.90831 0
M  V30 1148 O 113.19 -1.26568 1.47685 0
M  V30 1149 C 113.473 1.8497 3.08963 0
M  V30 1150 C 113.326 3.38652 2.96032 0
M  V30 1151 C 114.645 1.63016 4.08795 0
M  V30 1152 H 111.764 0.400465 0.618706 0
M  V30 1153 H 114.406 1.53933 1.11376 0
M  V30 1154 H 112.556 1.47505 3.59409 0
M  V30 1155 H 114.228 3.85772 2.52938 0
M  V30 1156 H 112.471 3.66534 2.32025 0
M  V30 1157 H 113.142 3.8642 3.94187 0
M  V30 1158 H 115.618 1.95625 3.67247 0
M  V30 1159 H 114.494 2.18015 5.03747 0
M  V30 1160 H 114.755 0.570692 4.38401 0
M  V30 1161 N 113.814 -1.1601 1.06675 0
M  V30 1162 C 115.042 -1.90527 0.806667 0
M  V30 1163 C 115.457 -1.77643 -0.639396 0
M  V30 1164 O 114.814 -1.12369 -1.43803 0
M  V30 1165 C 114.865 -3.41106 1.19705 0
M  V30 1166 O 114.586 -3.53608 2.58636 0
M  V30 1167 C 116.087 -4.32663 0.965266 0
M  V30 1168 H 113.307 -0.604053 0.292166 0
M  V30 1169 H 115.851 -1.47026 1.4214 0
M  V30 1170 H 114.006 -3.82296 0.626774 0
M  V30 1171 H 114.42 -4.47011 2.74375 0
M  V30 1172 H 115.894 -5.36763 1.288 0
M  V30 1173 H 116.371 -4.39089 -0.0987936 0
M  V30 1174 H 116.977 -3.97206 1.52011 0
M  V30 1175 N 115.292 -0.849877 -1.32721 0
M  V30 1176 C 116.517 -0.463856 -2.02146 0
M  V30 1177 C 116.942 0.930449 -1.63476 0
M  V30 1178 O 116.3 1.61033 -0.832952 0
M  V30 1179 C 116.348 -0.604955 -3.55489 0
M  V30 1180 O 115.452 0.36425 -4.10788 0
M  V30 1181 H 114.793 -0.187046 -0.637111 0
M  V30 1182 H 117.323 -1.14775 -1.69375 0
M  V30 1183 H 117.333 -0.490696 -4.05038 0
M  V30 1184 H 116.008 -1.62174 -3.82978 0
M  V30 1185 H 114.585 0.206628 -3.72327 0
M  V30 1186 N 116.77 1.45427 -0.607355 0
M  V30 1187 C 117.717 2.3053 0.111625 0
M  V30 1188 C 118.687 1.4209 0.860216 0
M  V30 1189 O 119.872 1.71019 0.845998 0
M  V30 1190 C 117.012 3.26992 1.10319 0
M  V30 1191 C 116.125 4.30535 0.355493 0
M  V30 1192 C 115.26 5.14105 1.33676 0
M  V30 1193 C 114.299 6.09376 0.576862 0
M  V30 1194 N 113.436 6.85727 1.5074 0
M  V30 1195 H 118.276 2.91477 -0.620093 0
M  V30 1196 H 115.813 1.43631 -0.317594 0
M  V30 1197 H 117.771 3.81385 1.6912 0
M  V30 1198 H 116.401 2.67799 1.80232 0
M  V30 1199 H 115.453 3.78805 -0.348023 0
M  V30 1200 H 116.765 4.98235 -0.237423 0
M  V30 1201 H 115.919 5.72897 1.99684 0
M  V30 1202 H 114.658 4.46423 1.9636 0
M  V30 1203 H 113.663 5.49715 -0.0968519 0
M  V30 1204 H 114.888 6.79085 -0.0449341 0
M  V30 1205 H 112.834 6.20735 2.12189 0
M  V30 1206 H 112.751 7.49778 0.967913 0
M  V30 1207 H 114.019 7.4906 2.15706 0
M  V30 1208 N 118.248 0.346503 1.53744 0
M  V30 1209 C 119.178 -0.501193 2.28058 0
M  V30 1210 C 120.159 -1.10014 1.29734 0
M  V30 1211 O 121.344 -1.12097 1.58581 0
M  V30 1212 C 118.474 -1.65078 3.05559 0
M  V30 1213 C 117.428 -1.18003 4.11411 0
M  V30 1214 C 116.754 -2.41837 4.76884 0
M  V30 1215 C 118.054 -0.278394 5.21558 0
M  V30 1216 H 119.748 0.11875 2.99164 0
M  V30 1217 H 117.294 0.0585531 1.43881 0
M  V30 1218 H 119.247 -2.25028 3.56287 0
M  V30 1219 H 117.971 -2.29767 2.32109 0
M  V30 1220 H 116.63 -0.603331 3.61601 0
M  V30 1221 H 116.278 -3.0494 4.00026 0
M  V30 1222 H 115.978 -2.1102 5.48402 0
M  V30 1223 H 117.502 -3.02508 5.30397 0
M  V30 1224 H 118.916 -0.784823 5.67903 0
M  V30 1225 H 117.313 -0.0619707 6.00068 0
M  V30 1226 H 118.383 0.684677 4.80042 0
M  V30 1227 N 119.726 -1.57421 0.075193 0
M  V30 1228 C 120.972 -1.94716 -0.587998 0
M  V30 1229 C 121.327 -0.955205 -1.67014 0
M  V30 1230 O 120.62 0.0219842 -1.91587 0
M  V30 1231 C 120.814 -3.36428 -1.20626 0
M  V30 1232 C 120.643 -4.49317 -0.185541 0
M  V30 1233 C 119.413 -5.04772 0.23099 0
M  V30 1234 C 121.611 -5.11036 0.57854 0
M  V30 1235 N 119.593 -6.01204 1.24206 0
M  V30 1236 C 120.964 -6.02998 1.44199 0
M  V30 1237 C 123.019 -4.93844 0.634237 0
M  V30 1238 C 121.722 -6.79614 2.3562 0
M  V30 1239 C 123.748 -5.71106 1.53597 0
M  V30 1240 C 123.11 -6.6272 2.38709 0
M  V30 1241 H 119.209 -0.759536 -0.186089 0
M  V30 1242 H 121.793 -1.94097 0.153128 0
M  V30 1243 H 119.964 -3.37778 -1.9173 0
M  V30 1244 H 121.696 -3.60951 -1.8302 0
M  V30 1245 H 118.451 -4.73353 -0.152807 0
M  V30 1246 H 118.875 -6.54119 1.74521 0
M  V30 1247 H 123.517 -4.22799 -0.00960004 0
M  V30 1248 H 121.235 -7.49934 3.01038 0
M  V30 1249 H 124.821 -5.59824 1.58394 0
M  V30 1250 H 123.701 -7.2146 3.07352 0
M  V30 1251 N 121.204 0.198386 -1.56346 0
M  V30 1252 C 122.152 1.26538 -1.95169 0
M  V30 1253 C 123.146 1.47295 -0.836685 0
M  V30 1254 O 124.352 1.48195 -1.02167 0
M  V30 1255 H 120.727 0.424744 -0.620561 0
M  V30 1256 H 122.698 0.910904 -2.84157 0
M  V30 1257 C 121.447 2.6035 -2.30463 0
M  V30 1258 H 120.77 2.45192 -3.15786 0
M  V30 1259 H 122.21 3.33762 -2.61494 0
M  V30 1260 C 120.669 3.17096 -1.13806 0
M  V30 1261 O 121.199 3.99588 -0.41135 0
M  V30 1262 N 119.405 2.75795 -0.915736 0
M  V30 1263 H 118.952 2.08816 -1.50843 0
M  V30 1264 H 118.91 3.14101 -0.136979 0
M  V30 1265 N 122.682 1.50554 0.465978 0
M  V30 1266 C 123.91 1.65563 1.24083 0
M  V30 1267 C 124.325 0.341051 1.85694 0
M  V30 1268 O 123.682 -0.677543 1.69457 0
M  V30 1269 C 123.733 2.75051 2.34583 0
M  V30 1270 O 123.454 4.01413 1.75497 0
M  V30 1271 C 124.955 3.01078 3.25372 0
M  V30 1272 H 122.175 0.55638 0.375077 0
M  V30 1273 H 124.719 1.96807 0.555624 0
M  V30 1274 H 122.874 2.46486 2.9887 0
M  V30 1275 H 123.288 4.62002 2.48303 0
M  V30 1276 H 124.762 3.81339 3.99105 0
M  V30 1277 H 125.239 2.12349 3.84453 0
M  V30 1278 H 125.845 3.31194 2.66816 0
M  V30 1279 N 124.16 -0.719506 1.40217 0
M  V30 1280 C 125.107 -1.83359 1.40172 0
M  V30 1281 C 126.077 -1.64065 0.259206 0
M  V30 1282 O 127.262 -1.85254 0.456677 0
M  V30 1283 C 124.402 -3.2103 1.26624 0
M  V30 1284 C 123.515 -3.51923 2.50548 0
M  V30 1285 C 122.65 -4.79079 2.29471 0
M  V30 1286 C 121.689 -5.02863 3.48992 0
M  V30 1287 N 120.826 -6.2123 3.27135 0
M  V30 1288 H 125.666 -1.82733 2.35399 0
M  V30 1289 H 123.203 -0.892688 1.16917 0
M  V30 1290 H 125.161 -4.00524 1.16776 0
M  V30 1291 H 123.791 -3.20895 0.350176 0
M  V30 1292 H 122.843 -2.67014 2.70939 0
M  V30 1293 H 124.155 -3.6541 3.39525 0
M  V30 1294 H 123.309 -5.66582 2.16955 0
M  V30 1295 H 122.048 -4.67794 1.37913 0
M  V30 1296 H 121.053 -4.13816 3.6199 0
M  V30 1297 H 122.278 -5.16023 4.41472 0
M  V30 1298 H 120.224 -6.11204 2.38256 0
M  V30 1299 H 120.141 -6.35375 4.09675 0
M  V30 1300 H 121.409 -7.11532 3.18344 0
M  V30 1301 N 125.638 -1.25649 -0.95132 0
M  V30 1302 C 126.588 -1.03004 -2.03406 0
M  V30 1303 C 127.572 0.034187 -1.60864 0
M  V30 1304 O 128.764 -0.181549 -1.76066 0
M  V30 1305 C 125.893 -0.654255 -3.37008 0
M  V30 1306 C 124.979 -1.75542 -3.86065 0
M  V30 1307 N 125.37 -2.99113 -4.07879 0
M  V30 1308 C 123.668 -1.63669 -4.14884 0
M  V30 1309 C 124.369 -3.70611 -4.48356 0
M  V30 1310 N 123.345 -2.98247 -4.54477 0
M  V30 1311 H 127.147 -1.96813 -2.1827 0
M  V30 1312 H 124.661 -1.16017 -1.13639 0
M  V30 1313 H 126.658 -0.473206 -4.14206 0
M  V30 1314 H 125.318 0.276468 -3.23521 0
M  V30 1315 H 126.329 -3.35124 -3.94857 0
M  V30 1316 H 123.006 -0.775161 -4.10241 0
M  V30 1317 H 124.396 -4.76695 -4.73509 0
M  V30 1318 N 127.117 1.15442 -1.07289 0
M  V30 1319 C 128.067 2.18164 -0.662467 0
M  V30 1320 C 129.051 1.57845 0.312074 0
M  V30 1321 O 130.243 1.76552 0.125905 0
M  V30 1322 C 127.372 3.43246 -0.0611295 0
M  V30 1323 C 126.458 4.1062 -1.06077 0
M  V30 1324 N 126.849 4.53491 -2.24008 0
M  V30 1325 C 125.147 4.36949 -0.893964 0
M  V30 1326 C 125.848 5.05731 -2.87422 0
M  V30 1327 N 124.824 4.99236 -2.15091 0
M  V30 1328 H 128.626 2.49038 -1.56068 0
M  V30 1329 H 126.14 1.32003 -0.945988 0
M  V30 1330 H 128.137 4.16145 0.250792 0
M  V30 1331 H 126.797 3.13854 0.832207 0
M  V30 1332 H 127.808 4.46898 -2.6173 0
M  V30 1333 H 124.485 4.17466 -0.0534693 0
M  V30 1334 H 125.875 5.48865 -3.87553 0
M  V30 1335 N 128.595 0.856903 1.32268 0
M  V30 1336 C 130.006 0.515711 1.79436 0
M  V30 1337 C 130.357 -0.966586 1.70738 0
M  V30 1338 O 129.482 -1.75409 1.26731 0
M  V30 1339 C 130.077 0.929335 3.25805 0
M  V30 1340 C 128.636 0.640006 3.70919 0
M  V30 1341 C 127.783 1.12784 2.53328 0
M  V30 1342 H 130.734 1.04389 1.19535 0
M  V30 1343 H 130.755 0.246633 3.797 0
M  V30 1344 H 130.267 2.00821 3.32103 0
M  V30 1345 H 128.368 -0.428051 3.70133 0
M  V30 1346 H 128.481 1.20788 4.63624 0
M  V30 1347 H 126.845 0.548033 2.48734 0
M  V30 1348 H 127.628 2.21387 2.62379 0
M  V30 1349 N 130.073 -1.45103 0.615059 0
M  V30 1350 C 130.983 -2.34382 -0.101034 0
M  V30 1351 C 131.999 -1.51681 -0.852585 0
M  V30 1352 O 133.175 -1.8446 -0.808484 0
M  V30 1353 C 130.24 -3.29417 -1.08099 0
M  V30 1354 C 129.301 -4.28025 -0.330577 0
M  V30 1355 C 128.534 -5.1852 -1.26385 0
M  V30 1356 O 128.757 -5.12598 -2.50198 0
M  V30 1357 O 127.691 -5.97122 -0.756866 0
M  V30 1358 H 131.517 -2.97033 0.632855 0
M  V30 1359 H 129.102 -1.4461 0.375293 0
M  V30 1360 H 130.984 -3.87958 -1.6452 0
M  V30 1361 H 129.659 -2.69321 -1.79577 0
M  V30 1362 H 128.566 -3.73078 0.276283 0
M  V30 1363 H 129.899 -4.90997 0.343866 0
M  V30 1364 N 131.551 -0.354651 -1.53558 0
M  V30 1365 C 132.828 0.294281 -1.93374 0
M  V30 1366 C 133.208 1.67313 -1.28723 0
M  V30 1367 O 132.556 2.24179 -0.442247 0
M  V30 1368 C 132.766 0.355445 -3.47185 0
M  V30 1369 C 134.114 0.601007 -4.20325 0
M  V30 1370 O 135.138 0.437106 -3.53508 0
M  V30 1371 O 133.997 0.919322 -5.38712 0
M  V30 1372 H 131.091 0.174033 -0.808481 0
M  V30 1373 H 133.637 -0.406638 -1.64756 0
M  V30 1374 H 132.409 -0.611729 -3.86489 0
M  V30 1375 H 132.032 1.1027 -3.82003 0
M  V30 1376 N 133.029 1.57378 -0.0835403 0
M  V30 1377 C 134.275 1.94217 0.583733 0
M  V30 1378 C 134.608 0.964653 1.68547 0
M  V30 1379 O 133.883 -0.00422258 1.945 0
M  V30 1380 C 134.166 3.41253 1.14972 0
M  V30 1381 C 134.019 4.49768 0.0538277 0
M  V30 1382 C 135.338 3.89352 2.05166 0
M  V30 1383 H 132.457 0.706233 0.210724 0
M  V30 1384 H 135.099 1.89392 -0.1519 0
M  V30 1385 H 133.249 3.45496 1.77665 0
M  V30 1386 H 134.921 4.57641 -0.579851 0
M  V30 1387 H 133.164 4.29432 -0.614068 0
M  V30 1388 H 133.835 5.49817 0.490452 0
M  V30 1389 H 136.311 3.87189 1.52393 0
M  V30 1390 H 135.187 4.92822 2.41698 0
M  V30 1391 H 135.448 3.27973 2.96456 0
M  V30 1392 N 134.507 -0.190092 1.56449 0
M  V30 1393 C 135.417 -1.25591 1.98152 0
M  V30 1394 C 136.433 -1.49519 0.889944 0
M  V30 1395 O 137.609 -1.62036 1.19609 0
M  V30 1396 C 134.674 -2.57916 2.3169 0
M  V30 1397 C 133.735 -2.42015 3.5458 0
M  V30 1398 C 132.968 -3.6803 3.8651 0
M  V30 1399 O 133.191 -4.72413 3.1966 0
M  V30 1400 O 132.125 -3.6326 4.79923 0
M  V30 1401 H 135.951 -0.931988 2.89046 0
M  V30 1402 H 133.536 -0.395488 1.4407 0
M  V30 1403 H 135.418 -3.36008 2.54316 0
M  V30 1404 H 134.093 -2.89925 1.43963 0
M  V30 1405 H 133 -1.62017 3.37196 0
M  V30 1406 H 134.333 -2.14937 4.4279 0
M  V30 1407 N 135.985 -1.50799 -0.457987 0
M  V30 1408 C 137.396 -1.55152 -1.0385 0
M  V30 1409 C 137.747 -0.362719 -1.92818 0
M  V30 1410 O 136.872 0.522915 -2.09987 0
M  V30 1411 C 137.467 -2.81173 -1.89017 0
M  V30 1412 C 136.026 -2.88164 -2.42154 0
M  V30 1413 C 135.173 -2.49591 -1.20829 0
M  V30 1414 H 138.124 -1.56874 -0.240068 0
M  V30 1415 H 138.145 -2.63769 -2.74238 0
M  V30 1416 H 137.657 -3.67677 -1.24238 0
M  V30 1417 H 135.758 -2.06042 -3.10447 0
M  V30 1418 H 135.871 -3.91356 -2.76364 0
M  V30 1419 H 134.235 -2.02322 -1.54719 0
M  V30 1420 H 135.018 -3.38418 -0.576927 0
M  V30 1421 N 137.463 0.71206 -1.40597 0
M  V30 1422 C 138.426 1.80785 -1.40888 0
M  V30 1423 C 139.426 1.57937 -0.302103 0
M  V30 1424 O 140.616 1.64913 -0.561182 0
M  V30 1425 C 137.748 3.18927 -1.20409 0
M  V30 1426 H 138.941 1.81924 -2.38419 0
M  V30 1427 H 136.494 0.91805 -1.26497 0
M  V30 1428 H 137.229 3.23436 -0.236522 0
M  V30 1429 H 137.014 3.36911 -2.00582 0
M  V30 1430 H 138.504 3.98949 -1.23408 0
M  V30 1431 N 138.941 1.26152 0.944643 0
M  V30 1432 C 139.871 1.09902 2.06019 0
M  V30 1433 C 140.852 0.00519538 1.70099 0
M  V30 1434 O 142.037 0.176583 1.93396 0
M  V30 1435 C 139.167 0.727562 3.39594 0
M  V30 1436 C 138.121 1.77274 3.89561 0
M  V30 1437 C 137.447 1.25569 5.19747 0
M  V30 1438 C 138.747 3.17357 4.14827 0
M  V30 1439 H 140.441 2.03217 2.19871 0
M  V30 1440 H 137.987 0.978452 1.05652 0
M  V30 1441 H 139.94 0.600777 4.17095 0
M  V30 1442 H 138.664 -0.241287 3.25707 0
M  V30 1443 H 137.323 1.88814 3.14237 0
M  V30 1444 H 136.971 0.276783 5.02238 0
M  V30 1445 H 136.671 1.95433 5.54148 0
M  V30 1446 H 138.195 1.1415 5.99835 0
M  V30 1447 H 139.609 3.08914 4.82954 0
M  V30 1448 H 138.006 3.84781 4.60504 0
M  V30 1449 H 139.076 3.63673 3.20734 0
M  V30 1450 N 140.419 -1.14872 1.07899 0
M  V30 1451 C 141.835 -1.37776 0.805606 0
M  V30 1452 C 142.035 -1.92743 -0.587555 0
M  V30 1453 O 141.091 -2.13678 -1.34528 0
M  V30 1454 C 142.404 -2.34361 1.88402 0
M  V30 1455 C 143.952 -2.48012 1.90942 0
M  V30 1456 C 144.427 -3.47893 2.97883 0
M  V30 1457 N 145.918 -3.55433 2.97021 0
M  V30 1458 C 146.653 -4.32553 3.76412 0
M  V30 1459 N 146.149 -5.12959 4.65666 0
M  V30 1460 N 147.942 -4.27697 3.64735 0
M  V30 1461 H 140.093 -0.775365 1.97742 0
M  V30 1462 H 142.356 -0.403521 0.857831 0
M  V30 1463 H 142.062 -2.01098 2.88535 0
M  V30 1464 H 141.936 -3.34206 1.74889 0
M  V30 1465 H 144.323 -2.8057 0.914579 0
M  V30 1466 H 144.404 -1.48147 2.08534 0
M  V30 1467 H 144.048 -3.16069 3.97571 0
M  V30 1468 H 143.978 -4.47527 2.77538 0
M  V30 1469 H 146.469 -2.98048 2.32326 0
M  V30 1470 H 146.782 -5.69065 5.22862 0
M  V30 1471 H 145.127 -5.12245 4.69712 0
M  V30 1472 H 148.318 -3.63949 2.94378 0
M  V30 1473 H 148.491 -4.8755 4.26848 0
M  V30 1474 N 141.898 -0.863906 -1.31812 0
M  V30 1475 C 142.845 -0.313303 -2.28664 0
M  V30 1476 C 143.815 0.584868 -1.55462 0
M  V30 1477 O 145 0.517805 -1.83639 0
M  V30 1478 C 142.14 0.48441 -3.41683 0
M  V30 1479 C 141.253 -0.440594 -4.29747 0
M  V30 1480 C 140.388 0.370652 -5.29905 0
M  V30 1481 C 139.427 -0.551164 -6.09613 0
M  V30 1482 N 138.564 0.223462 -7.01744 0
M  V30 1483 H 143.404 -1.14444 -2.75148 0
M  V30 1484 H 140.941 -0.575769 -1.35364 0
M  V30 1485 H 142.899 0.962627 -4.05943 0
M  V30 1486 H 141.529 1.28029 -2.96325 0
M  V30 1487 H 140.581 -1.03724 -3.65986 0
M  V30 1488 H 141.893 -1.14767 -4.85417 0
M  V30 1489 H 141.047 0.911638 -5.99812 0
M  V30 1490 H 139.786 1.11105 -4.74876 0
M  V30 1491 H 138.791 -1.10396 -5.38603 0
M  V30 1492 H 140.016 -1.29032 -6.66729 0
M  V30 1493 H 137.962 0.946787 -6.49132 0
M  V30 1494 H 137.879 -0.424399 -7.54808 0
M  V30 1495 H 139.147 0.745876 -7.75923 0
M  V30 1496 N 143.376 1.44774 -0.622745 0
M  V30 1497 C 144.604 2.06487 -0.130722 0
M  V30 1498 C 145.019 1.46476 1.19123 0
M  V30 1499 O 144.376 0.584502 1.72887 0
M  V30 1500 C 144.427 3.615 -0.000807207 0
M  V30 1501 O 144.148 4.19274 -1.27048 0
M  V30 1502 C 145.649 4.40229 0.520898 0
M  V30 1503 H 142.869 0.666704 -0.0758106 0
M  V30 1504 H 145.413 1.85779 -0.854774 0
M  V30 1505 H 143.568 3.81498 0.673643 0
M  V30 1506 H 143.982 5.12622 -1.1099 0
M  V30 1507 H 145.456 5.49144 0.560838 0
M  V30 1508 H 145.933 4.1108 1.54627 0
M  V30 1509 H 146.539 4.25131 -0.120018 0
M  V30 1510 N 144.854 0.36279 1.53368 0
M  V30 1511 C 145.784 -0.476976 2.28576 0
M  V30 1512 C 146.765 -1.08631 1.30894 0
M  V30 1513 O 147.95 -1.10409 1.59761 0
M  V30 1514 C 145.08 -1.61828 3.07293 0
M  V30 1515 C 144.034 -1.13633 4.1264 0
M  V30 1516 C 143.36 -2.36766 4.79423 0
M  V30 1517 C 144.66 -0.223061 5.21823 0
M  V30 1518 H 146.354 0.150474 2.99022 0
M  V30 1519 H 143.9 0.0738103 1.43811 0
M  V30 1520 H 145.853 -2.21237 3.58653 0
M  V30 1521 H 144.577 -2.27292 2.34533 0
M  V30 1522 H 143.236 -0.564945 3.62221 0
M  V30 1523 H 142.884 -3.0068 4.03238 0
M  V30 1524 H 142.584 -2.05192 5.50609 0
M  V30 1525 H 144.108 -2.96865 5.33576 0
M  V30 1526 H 145.522 -0.724545 5.68703 0
M  V30 1527 H 143.919 0.001678 6.001 0
M  V30 1528 H 144.989 0.735553 4.79289 0
M  V30 1529 N 146.332 -1.57332 0.0918853 0
M  V30 1530 C 147.295 -2.12708 -0.85369 0
M  V30 1531 C 148.295 -1.05561 -1.213 0
M  V30 1532 O 149.485 -1.31461 -1.14296 0
M  V30 1533 C 146.617 -2.64503 -2.15061 0
M  V30 1534 H 147.81 -2.97573 -0.3729 0
M  V30 1535 H 145.363 -1.55509 -0.157072 0
M  V30 1536 H 146.098 -1.83149 -2.67632 0
M  V30 1537 H 145.883 -3.4284 -1.90272 0
M  V30 1538 H 147.373 -3.07351 -2.82711 0
M  V30 1539 N 147.81 0.181792 -1.56548 0
M  V30 1540 C 149.087 0.926765 -1.72251 0
M  V30 1541 C 149.467 2.00831 -0.650386 0
M  V30 1542 O 148.815 2.26008 0.336521 0
M  V30 1543 C 149.025 1.50106 -3.1507 0
M  V30 1544 C 150.373 1.97805 -3.75711 0
M  V30 1545 O 151.397 1.59922 -3.18282 0
M  V30 1546 O 150.256 2.67555 -4.76525 0
M  V30 1547 H 147.35 0.435506 -0.703039 0
M  V30 1548 H 149.896 0.170443 -1.68842 0
M  V30 1549 H 148.668 0.72212 -3.84579 0
M  V30 1550 H 148.291 2.32186 -3.22763 0
M  V30 1551 N 149.288 1.51039 0.449983 0
M  V30 1552 C 150.218 1.74379 1.55288 0
M  V30 1553 C 151.199 0.593236 1.5942 0
M  V30 1554 O 152.384 0.834625 1.7535 0
M  V30 1555 C 149.514 1.85728 2.93466 0
M  V30 1556 C 148.468 3.01078 3.04197 0
M  V30 1557 C 147.794 2.97595 4.44231 0
M  V30 1558 C 149.094 4.41254 2.7945 0
M  V30 1559 H 150.788 2.66725 1.36008 0
M  V30 1560 H 148.334 1.2835 0.652864 0
M  V30 1561 H 150.287 2.0064 3.70569 0
M  V30 1562 H 149.011 0.900207 3.13949 0
M  V30 1563 H 147.67 2.85851 2.29531 0
M  V30 1564 H 147.318 1.99691 4.61663 0
M  V30 1565 H 147.018 3.75046 4.52343 0
M  V30 1566 H 148.542 3.14583 5.23326 0
M  V30 1567 H 149.956 4.56897 3.46292 0
M  V30 1568 H 148.353 5.20315 2.98985 0
M  V30 1569 H 149.423 4.52164 1.75144 0
M  V30 1570 N 150.766 -0.704594 1.40972 0
M  V30 1571 C 151.698 -1.82974 1.38033 0
M  V30 1572 C 152.711 -1.60305 0.283931 0
M  V30 1573 O 153.9 -1.69975 0.545042 0
M  V30 1574 C 151 -3.19578 1.12795 0
M  V30 1575 C 150.173 -3.69352 2.34302 0
M  V30 1576 C 149.232 -4.84601 2.05058 0
M  V30 1577 O 148.258 -4.96682 2.7802 0
M  V30 1578 N 149.46 -5.71194 1.03528 0
M  V30 1579 H 152.225 -1.85991 2.35005 0
M  V30 1580 H 149.786 -0.886567 1.35468 0
M  V30 1581 H 151.778 -3.9429 0.911987 0
M  V30 1582 H 150.348 -3.11642 0.24452 0
M  V30 1583 H 149.568 -2.85649 2.71659 0
M  V30 1584 H 150.856 -3.99345 3.1528 0
M  V30 1585 H 150.254 -5.64054 0.431217 0
M  V30 1586 H 148.811 -6.45843 0.879205 0
M  V30 1587 N 152.244 -1.26651 -0.937939 0
M  V30 1588 C 153.174 -1.10993 -2.05433 0
M  V30 1589 C 154.155 -0.0142161 -1.70094 0
M  V30 1590 O 155.34 -0.186837 -1.93299 0
M  V30 1591 C 152.47 -0.745561 -3.39203 0
M  V30 1592 C 151.424 -1.79337 -3.88616 0
M  V30 1593 C 150.75 -1.28324 -5.19073 0
M  V30 1594 C 152.05 -3.19553 -4.13138 0
M  V30 1595 H 153.744 -2.0438 -2.1879 0
M  V30 1596 H 151.29 -0.984041 -1.05131 0
M  V30 1597 H 153.243 -0.622888 -4.16771 0
M  V30 1598 H 151.967 0.22401 -3.25831 0
M  V30 1599 H 150.626 -1.90477 -3.13231 0
M  V30 1600 H 150.274 -0.303414 -5.02084 0
M  V30 1601 H 149.974 -1.98369 -5.53103 0
M  V30 1602 H 151.498 -1.1733 -5.99221 0
M  V30 1603 H 152.912 -3.11471 -4.81309 0
M  V30 1604 H 151.309 -3.87218 -4.58457 0
M  V30 1605 H 152.379 -3.65368 -3.18801 0
M  V30 1606 N 153.722 1.14298 -1.08507 0
M  V30 1607 C 154.632 2.23027 -0.727753 0
M  V30 1608 C 155.648 1.71952 0.26619 0
M  V30 1609 O 156.824 2.011 0.109882 0
M  V30 1610 C 153.889 3.46403 -0.143541 0
M  V30 1611 C 152.95 4.12413 -1.19223 0
M  V30 1612 C 152.183 5.29899 -0.635798 0
M  V30 1613 O 152.406 5.67796 0.544393 0
M  V30 1614 O 151.34 5.85717 -1.38634 0
M  V30 1615 H 155.166 2.55945 -1.63481 0
M  V30 1616 H 152.751 1.22248 -0.858817 0
M  V30 1617 H 154.633 4.21018 0.179404 0
M  V30 1618 H 153.308 3.15206 0.736659 0
M  V30 1619 H 152.215 3.39667 -1.56772 0
M  V30 1620 H 153.548 4.47718 -2.04474 0
M  V30 1621 N 155.201 0.870884 1.31352 0
M  V30 1622 C 156.431 0.496049 2.00557 0
M  V30 1623 C 156.839 -0.916241 1.65534 0
M  V30 1624 O 156.182 -1.61188 0.881134 0
M  V30 1625 C 156.244 0.574418 3.54881 0
M  V30 1626 C 155.908 1.94849 4.1338 0
M  V30 1627 C 156.905 2.91611 4.30417 0
M  V30 1628 C 154.59 2.25005 4.49086 0
M  V30 1629 C 156.584 4.16672 4.82352 0
M  V30 1630 C 154.271 3.50315 5.00722 0
M  V30 1631 C 155.269 4.45964 5.17306 0
M  V30 1632 O 154.957 5.69052 5.67833 0
M  V30 1633 H 154.689 0.191664 0.64826 0
M  V30 1634 H 157.243 1.17409 1.68536 0
M  V30 1635 H 155.473 -0.160549 3.86367 0
M  V30 1636 H 157.162 0.212879 4.05341 0
M  V30 1637 H 157.928 2.69622 4.03149 0
M  V30 1638 H 153.807 1.51332 4.35453 0
M  V30 1639 H 157.351 4.91336 4.95211 0
M  V30 1640 H 153.248 3.72147 5.27424 0
M  V30 1641 H 154.016 5.71236 5.86201 0
M  V30 1642 N 156.679 -1.44442 0.630414 0
M  V30 1643 C 157.609 -2.33418 -0.0618083 0
M  V30 1644 C 158.59 -1.48165 -0.835541 0
M  V30 1645 O 159.775 -1.76886 -0.801564 0
M  V30 1646 C 156.905 -3.31222 -1.04449 0
M  V30 1647 C 155.859 -4.26288 -0.382436 0
M  V30 1648 C 155.185 -5.13954 -1.47497 0
M  V30 1649 C 156.485 -5.1744 0.710865 0
M  V30 1650 H 158.179 -2.91548 0.681184 0
M  V30 1651 H 155.725 -1.40191 0.329026 0
M  V30 1652 H 157.678 -3.92351 -1.53748 0
M  V30 1653 H 156.402 -2.71299 -1.81836 0
M  V30 1654 H 155.061 -3.6649 0.0899054 0
M  V30 1655 H 154.709 -4.50385 -2.2397 0
M  V30 1656 H 154.409 -5.7837 -1.03737 0
M  V30 1657 H 155.933 -5.77955 -1.96979 0
M  V30 1658 H 157.347 -5.72509 0.300996 0
M  V30 1659 H 155.744 -5.90455 1.07156 0
M  V30 1660 H 156.814 -4.58496 1.57829 0
M  V30 1661 N 158.157 -0.370918 -1.53173 0
M  V30 1662 C 159.434 0.273754 -1.93675 0
M  V30 1663 C 159.814 1.65938 -1.3049 0
M  V30 1664 O 159.162 2.23698 -0.465999 0
M  V30 1665 C 159.372 0.318602 -3.47543 0
M  V30 1666 C 160.72 0.556392 -4.20939 0
M  V30 1667 O 161.744 0.399587 -3.53952 0
M  V30 1668 O 160.603 0.862133 -5.39657 0
M  V30 1669 H 157.697 0.165448 -0.810281 0
M  V30 1670 H 160.243 -0.42409 -1.64315 0
M  V30 1671 H 159.015 -0.652687 -3.85818 0
M  V30 1672 H 158.638 1.06212 -3.83151 0
M  V30 1673 N 159.635 1.57281 -0.100228 0
M  V30 1674 C 160.565 2.17328 0.853857 0
M  V30 1675 C 161.546 1.10804 1.2906 0
M  V30 1676 O 162.731 1.38963 1.35657 0
M  V30 1677 C 159.861 2.75772 2.11109 0
M  V30 1678 C 158.815 3.87713 1.81279 0
M  V30 1679 C 158.141 4.32882 3.13874 0
M  V30 1680 C 159.441 5.10677 1.09574 0
M  V30 1681 H 161.135 2.97305 0.353545 0
M  V30 1682 H 158.681 1.43009 0.168612 0
M  V30 1683 H 160.634 3.16433 2.78296 0
M  V30 1684 H 159.358 1.93057 2.63432 0
M  V30 1685 H 158.017 3.476 1.16489 0
M  V30 1686 H 157.665 3.47051 3.64095 0
M  V30 1687 H 157.365 5.08358 2.94696 0
M  V30 1688 H 158.889 4.7618 3.82211 0
M  V30 1689 H 160.303 5.48474 1.66879 0
M  V30 1690 H 158.7 5.91615 1.00557 0
M  V30 1691 H 159.77 4.84835 0.0793299 0
M  V30 1692 N 161.113 -0.173488 1.56642 0
M  V30 1693 C 162.343 -0.904781 1.85734 0
M  V30 1694 C 162.751 -1.76431 0.68328 0
M  V30 1695 O 162.094 -1.802 -0.356865 0
M  V30 1696 C 162.156 -1.83382 3.09211 0
M  V30 1697 C 161.82 -1.15411 4.42187 0
M  V30 1698 C 162.817 -0.520609 5.17287 0
M  V30 1699 C 160.502 -1.15151 4.88923 0
M  V30 1700 C 162.496 0.106412 6.37311 0
M  V30 1701 C 160.183 -0.520664 6.08878 0
M  V30 1702 C 161.181 0.107196 6.82916 0
M  V30 1703 O 160.869 0.728102 8.00596 0
M  V30 1704 H 160.601 -0.268408 0.62043 0
M  V30 1705 H 163.155 -0.179096 2.04618 0
M  V30 1706 H 161.385 -2.59976 2.86268 0
M  V30 1707 H 163.074 -2.43476 3.24768 0
M  V30 1708 H 163.84 -0.514606 4.82262 0
M  V30 1709 H 159.719 -1.62961 4.31236 0
M  V30 1710 H 163.263 0.597081 6.9504 0
M  V30 1711 H 159.16 -0.524242 6.43368 0
M  V30 1712 H 159.928 0.627138 8.16094 0
M  V30 1713 N 162.591 -1.51276 -0.441967 0
M  V30 1714 C 163.521 -1.752 -1.54361 0
M  V30 1715 C 164.502 -0.601682 -1.59103 0
M  V30 1716 O 165.687 -0.843913 -1.74905 0
M  V30 1717 C 162.817 -1.87282 -2.92477 0
M  V30 1718 C 161.771 -3.02687 -3.02596 0
M  V30 1719 C 161.097 -2.99947 -4.42647 0
M  V30 1720 C 162.397 -4.4273 -2.77106 0
M  V30 1721 H 164.091 -2.67442 -1.34592 0
M  V30 1722 H 161.637 -1.28694 -0.646048 0
M  V30 1723 H 163.59 -2.02602 -3.695 0
M  V30 1724 H 162.314 -0.916844 -3.13467 0
M  V30 1725 H 160.973 -2.87065 -2.28012 0
M  V30 1726 H 160.621 -2.02136 -4.60597 0
M  V30 1727 H 160.321 -3.77439 -4.50348 0
M  V30 1728 H 161.845 -3.17354 -5.2165 0
M  V30 1729 H 163.259 -4.58727 -3.43864 0
M  V30 1730 H 161.656 -5.21893 -2.96222 0
M  V30 1731 H 162.726 -4.53087 -1.72744 0
M  V30 1732 N 164.069 0.697108 -1.41344 0
M  V30 1733 C 165.002 1.82134 -1.37486 0
M  V30 1734 C 165.98 1.60784 -0.242351 0
M  V30 1735 O 167.164 1.83553 -0.429012 0
M  V30 1736 C 164.291 3.18788 -1.14421 0
M  V30 1737 C 163.337 3.58932 -2.3037 0
M  V30 1738 S 164.17 3.63916 -3.92843 0
M  V30 1739 C 165.326 5.03298 -3.72078 0
M  V30 1740 H 165.559 1.85129 -2.32625 0
M  V30 1741 H 163.092 0.865671 -1.2785 0
M  V30 1742 H 165.05 3.97677 -1.018 0
M  V30 1743 H 163.711 3.13404 -0.20905 0
M  V30 1744 H 162.904 4.58202 -2.09922 0
M  V30 1745 H 162.506 2.87347 -2.39391 0
M  V30 1746 H 164.798 5.90753 -3.31688 0
M  V30 1747 H 165.741 5.28788 -4.70945 0
M  V30 1748 H 166.149 4.74764 -3.05384 0
M  V30 1749 N 165.547 1.27147 0.931209 0
M  V30 1750 C 166.497 1.06227 2.01742 0
M  V30 1751 C 167.481 -0.00859065 1.60898 0
M  V30 1752 O 168.673 0.209537 1.75755 0
M  V30 1753 C 165.802 0.707787 3.35924 0
M  V30 1754 C 164.888 1.81661 3.83223 0
M  V30 1755 N 165.279 3.05564 4.03069 0
M  V30 1756 C 163.577 1.70249 4.12227 0
M  V30 1757 C 164.278 3.77697 4.42403 0
M  V30 1758 N 163.254 3.0544 4.49675 0
M  V30 1759 H 167.056 2.00261 2.15111 0
M  V30 1760 H 164.57 1.1781 1.11779 0
M  V30 1761 H 166.567 0.539043 4.134 0
M  V30 1762 H 165.227 -0.224964 3.2392 0
M  V30 1763 H 166.238 3.41363 3.89476 0
M  V30 1764 H 162.915 0.840329 4.08956 0
M  V30 1765 H 164.305 4.84168 4.65866 0
M  V30 1766 N 167.025 -1.13721 1.09112 0
M  V30 1767 C 168.271 -1.85413 0.836283 0
M  V30 1768 C 168.626 -1.8175 -0.631249 0
M  V30 1769 O 167.919 -1.24238 -1.45861 0
M  V30 1770 C 168.113 -3.32861 1.30146 0
M  V30 1771 C 167.942 -3.50882 2.81268 0
M  V30 1772 C 166.712 -3.65312 3.49106 0
M  V30 1773 C 168.91 -3.47196 3.7942 0
M  V30 1774 N 166.892 -3.71563 4.88686 0
M  V30 1775 C 168.263 -3.59777 5.04936 0
M  V30 1776 C 170.318 -3.30577 3.72321 0
M  V30 1777 C 169.021 -3.57455 6.24194 0
M  V30 1778 C 171.047 -3.29562 4.91063 0
M  V30 1779 C 170.409 -3.42691 6.15421 0
M  V30 1780 H 166.508 -0.694812 0.358832 0
M  V30 1781 H 169.092 -1.36246 1.39087 0
M  V30 1782 H 167.263 -3.80602 0.774361 0
M  V30 1783 H 168.995 -3.92346 0.99229 0
M  V30 1784 H 165.75 -3.6685 2.9953 0
M  V30 1785 H 166.174 -3.78387 5.61384 0
M  V30 1786 H 170.816 -3.19332 2.77105 0
M  V30 1787 H 168.534 -3.67475 7.19714 0
M  V30 1788 H 172.12 -3.17905 4.87266 0
M  V30 1789 H 171 -3.41862 7.05762 0
M  V30 1790 N 168.503 -0.877838 -1.30888 0
M  V30 1791 C 169.914 -0.544193 -1.78593 0
M  V30 1792 C 170.265 0.939301 -1.72254 0
M  V30 1793 O 169.39 1.7337 -1.29505 0
M  V30 1794 C 169.985 -0.98105 -3.24285 0
M  V30 1795 C 168.544 -0.698935 -3.69854 0
M  V30 1796 C 167.691 -1.168 -2.51502 0
M  V30 1797 H 170.642 -1.06278 -1.17859 0
M  V30 1798 H 170.663 -0.307009 -3.79259 0
M  V30 1799 H 170.175 -2.06079 -3.28866 0
M  V30 1800 H 168.276 0.369112 -3.70767 0
M  V30 1801 H 168.389 -1.28148 -4.61644 0
M  V30 1802 H 166.753 -0.587535 -2.47831 0
M  V30 1803 H 167.536 -2.25533 -2.58824 0
M  V30 1804 N 169.982 1.44106 -0.638065 0
M  V30 1805 C 171.212 2.06037 -0.152394 0
M  V30 1806 C 171.62 1.47808 1.18108 0
M  V30 1807 O 170.963 0.598092 1.73691 0
M  V30 1808 C 171.025 3.59488 0.0293714 0
M  V30 1809 C 170.689 4.4022 -1.22702 0
M  V30 1810 C 171.686 4.73256 -2.15232 0
M  V30 1811 C 169.371 4.8048 -1.46437 0
M  V30 1812 C 171.365 5.45444 -3.29802 0
M  V30 1813 C 169.052 5.52417 -2.61303 0
M  V30 1814 C 170.05 5.84819 -3.52811 0
M  V30 1815 O 169.738 6.55289 -4.65673 0
M  V30 1816 H 169.47 0.671233 -0.0801401 0
M  V30 1817 H 172.024 1.85851 -0.874563 0
M  V30 1818 H 170.254 3.78191 0.806758 0
M  V30 1819 H 171.943 4.03164 0.470475 0
M  V30 1820 H 172.709 4.42684 -1.98131 0
M  V30 1821 H 168.588 4.54676 -0.760977 0
M  V30 1822 H 172.132 5.70653 -4.01249 0
M  V30 1823 H 168.029 5.82404 -2.78344 0
M  V30 1824 H 168.797 6.73762 -4.64744 0
M  V30 1825 N 171.46 0.379036 1.52974 0
M  V30 1826 C 172.423 -0.448865 2.24762 0
M  V30 1827 C 173.423 -0.998689 1.26027 0
M  V30 1828 O 174.613 -0.882313 1.50203 0
M  V30 1829 C 171.745 -1.62872 2.99476 0
M  V30 1830 H 172.938 0.179491 2.99362 0
M  V30 1831 H 170.491 0.13096 1.5575 0
M  V30 1832 H 171.226 -2.29479 2.29151 0
M  V30 1833 H 171.011 -1.24128 3.71934 0
M  V30 1834 H 172.501 -2.2151 3.5401 0
M  V30 1835 N 172.938 -1.57226 0.108567 0
M  V30 1836 C 174.185 -1.94833 -0.551943 0
M  V30 1837 C 174.513 -0.991204 -1.67348 0
M  V30 1838 O 173.768 -0.0131878 -1.95696 0
M  V30 1839 C 174.067 -3.38911 -1.13463 0
M  V30 1840 C 173.733 -4.50696 -0.135509 0
M  V30 1841 C 172.395 -4.80998 0.139252 0
M  V30 1842 C 174.747 -5.18333 0.545957 0
M  V30 1843 C 172.075 -5.76259 1.10194 0
M  V30 1844 C 174.427 -6.14627 1.49721 0
M  V30 1845 C 173.091 -6.43327 1.78006 0
M  V30 1846 H 172.361 -0.712944 -0.20197 0
M  V30 1847 H 175.008 -1.90582 0.18726 0
M  V30 1848 H 173.313 -3.39805 -1.95037 0
M  V30 1849 H 175.01 -3.65317 -1.65362 0
M  V30 1850 H 171.6 -4.27087 -0.359846 0
M  V30 1851 H 175.784 -4.95087 0.346842 0
M  V30 1852 H 171.04 -5.96804 1.32795 0
M  V30 1853 H 175.214 -6.66126 2.03099 0
M  V30 1854 H 172.841 -7.1695 2.52759 0
M  V30 1855 N 174.416 0.165178 -1.56732 0
M  V30 1856 C 175.326 1.22423 -2.00125 0
M  V30 1857 C 176.342 1.48084 -0.913619 0
M  V30 1858 O 177.518 1.60112 -1.22172 0
M  V30 1859 C 174.583 2.54197 -2.35764 0
M  V30 1860 C 173.644 2.36343 -3.58386 0
M  V30 1861 C 172.877 3.61834 -3.92316 0
M  V30 1862 O 173.1 4.67267 -3.27135 0
M  V30 1863 O 172.034 3.55579 -4.85641 0
M  V30 1864 H 175.86 0.885886 -2.90492 0
M  V30 1865 H 173.445 0.372518 -1.44681 0
M  V30 1866 H 175.327 3.3192 -2.59629 0
M  V30 1867 H 174.002 2.87598 -1.48557 0
M  V30 1868 H 172.909 1.56632 -3.39731 0
M  V30 1869 H 174.242 2.07865 -4.46154 0
M  V30 1870 N 175.894 1.51508 0.433938 0
M  V30 1871 C 177.31 1.39759 0.770682 0
M  V30 1872 C 177.51 0.482594 1.95636 0
M  V30 1873 O 176.566 -0.0609691 2.52426 0
M  V30 1874 C 177.879 2.81851 1.04787 0
M  V30 1875 C 179.427 2.91025 1.1521 0
M  V30 1876 C 179.902 4.34032 1.46219 0
M  V30 1877 N 181.393 4.37154 1.53136 0
M  V30 1878 C 182.128 5.4484 1.78709 0
M  V30 1879 N 181.624 6.62682 2.02051 0
M  V30 1880 N 183.417 5.32324 1.80519 0
M  V30 1881 H 175.568 2.09548 -0.346892 0
M  V30 1882 H 177.831 0.943446 -0.0928074 0
M  V30 1883 H 177.537 3.50815 0.249304 0
M  V30 1884 H 177.411 3.21386 1.97461 0
M  V30 1885 H 179.798 2.22257 1.94128 0
M  V30 1886 H 179.879 2.54983 0.204281 0
M  V30 1887 H 179.523 5.03351 0.678274 0
M  V30 1888 H 179.453 4.6759 2.42212 0
M  V30 1889 H 181.944 3.52197 1.36987 0
M  V30 1890 H 182.257 7.40543 2.20943 0
M  V30 1891 H 180.602 6.65791 1.99366 0
M  V30 1892 H 183.793 4.39246 1.61805 0
M  V30 1893 H 183.966 6.16328 2.00111 0
M  V30 1894 N 177.372 -0.689602 1.41712 0
M  V30 1895 C 178.62 -1.4468 1.4111 0
M  V30 1896 C 178.941 -1.94986 0.0232196 0
M  V30 1897 O 178.211 -1.72097 -0.935913 0
M  V30 1898 H 176.791 -0.536847 0.519427 0
M  V30 1899 H 179.453 -0.815825 1.77004 0
M  V30 1900 H 178.549 -2.30706 2.10193 0
M  V30 1901 N 178.85 -1.27639 -0.924453 0
M  V30 1902 C 180.127 -1.04887 -1.651 0
M  V30 1903 C 180.507 0.415327 -2.06974 0
M  V30 1904 O 179.855 1.39923 -1.80648 0
M  V30 1905 C 180.065 -2.01348 -2.85061 0
M  V30 1906 C 181.413 -2.30899 -3.56329 0
M  V30 1907 O 182.437 -1.99348 -2.95193 0
M  V30 1908 O 181.296 -2.84699 -4.66485 0
M  V30 1909 H 178.39 -0.400083 -0.723784 0
M  V30 1910 H 180.936 -1.38916 -0.974703 0
M  V30 1911 H 179.708 -3.0008 -2.51133 0
M  V30 1912 H 179.331 -1.679 -3.6041 0
M  V30 1913 N 180.328 1.1314 -1.09713 0
M  V30 1914 C 181.276 2.20717 -0.733934 0
M  V30 1915 C 182.27 1.6729 0.266506 0
M  V30 1916 O 183.476 1.79547 0.127656 0
M  V30 1917 H 179.851 0.719292 -0.21937 0
M  V30 1918 H 181.822 2.48611 -1.6503 0
M  V30 1919 C 180.571 3.47265 -0.173849 0
M  V30 1920 H 179.894 3.88716 -0.934873 0
M  V30 1921 H 181.334 4.23979 0.0423126 0
M  V30 1922 C 179.793 3.18724 1.09164 0
M  V30 1923 O 180.323 3.37762 2.17439 0
M  V30 1924 N 178.529 2.72583 1.00732 0
M  V30 1925 H 178.076 2.57291 0.126121 0
M  V30 1926 H 178.034 2.53862 1.85476 0
M  V30 1927 N 181.806 0.884767 1.30421 0
M  V30 1928 C 183.217 0.553656 1.78302 0
M  V30 1929 C 183.568 -0.930153 1.7275 0
M  V30 1930 O 182.693 -1.72681 1.30423 0
M  V30 1931 C 183.288 0.998234 3.2376 0
M  V30 1932 C 181.847 0.71854 3.69478 0
M  V30 1933 C 180.994 1.18132 2.50879 0
M  V30 1934 H 183.945 1.06901 1.17294 0
M  V30 1935 H 183.966 0.327118 3.79091 0
M  V30 1936 H 183.478 2.0782 3.27769 0
M  V30 1937 H 181.579 -0.349444 3.70958 0
M  V30 1938 H 181.692 1.30595 4.60958 0
M  V30 1939 H 180.056 0.600669 2.47516 0
M  V30 1940 H 180.839 2.26902 2.57624 0
M  V30 1941 N 183.284 -1.43765 0.645699 0
M  V30 1942 C 184.531 -2.01898 0.15604 0
M  V30 1943 C 184.859 -1.50887 -1.22733 0
M  V30 1944 O 184.114 -0.689271 -1.8316 0
M  V30 1945 C 184.413 -3.57238 0.107679 0
M  V30 1946 C 184.079 -4.27564 1.43178 0
M  V30 1947 C 182.741 -4.46492 1.7944 0
M  V30 1948 C 185.093 -4.67454 2.30513 0
M  V30 1949 C 182.421 -5.02573 3.02716 0
M  V30 1950 C 184.773 -5.24901 3.53074 0
M  V30 1951 C 183.437 -5.42046 3.89541 0
M  V30 1952 H 182.707 -0.738797 0.057099 0
M  V30 1953 H 185.354 -1.72341 0.834912 0
M  V30 1954 H 183.659 -3.86293 -0.654618 0
M  V30 1955 H 185.356 -3.99965 -0.287938 0
M  V30 1956 H 181.946 -4.13171 1.13963 0
M  V30 1957 H 186.13 -4.5253 2.0379 0
M  V30 1958 H 181.386 -5.14033 3.31028 0
M  V30 1959 H 185.56 -5.54758 4.20971 0
M  V30 1960 H 183.187 -5.85268 4.85145 0
M  V30 1961 N 184.763 -0.387143 -1.52771 0
M  V30 1962 C 186.174 0.0873634 -1.86495 0
M  V30 1963 C 186.525 1.46336 -1.30691 0
M  V30 1964 O 185.65 2.068 -0.637409 0
M  V30 1965 C 186.245 0.165305 -3.38396 0
M  V30 1966 C 184.804 0.584101 -3.7184 0
M  V30 1967 C 183.951 -0.255279 -2.76122 0
M  V30 1968 H 186.902 -0.605104 -1.46711 0
M  V30 1969 H 186.923 0.984848 -3.67534 0
M  V30 1970 H 186.435 -0.836301 -3.78982 0
M  V30 1971 H 184.536 1.59315 -3.36823 0
M  V30 1972 H 184.649 0.343749 -4.77865 0
M  V30 1973 H 183.013 0.279126 -2.53166 0
M  V30 1974 H 183.796 -1.25482 -3.19545 0
M  V30 1975 N 186.241 1.57166 -0.116904 0
M  V30 1976 C 187.188 2.15202 0.83408 0
M  V30 1977 C 188.158 1.07644 1.26499 0
M  V30 1978 O 189.343 1.35541 1.34288 0
M  V30 1979 C 186.483 2.75405 2.07957 0
M  V30 1980 C 185.596 3.97264 1.69721 0
M  V30 1981 C 184.731 4.45561 2.89221 0
M  V30 1982 C 183.77 5.59956 2.47215 0
M  V30 1983 N 182.907 6.03006 3.59622 0
M  V30 1984 H 187.747 2.96141 0.332335 0
M  V30 1985 H 185.284 1.46309 0.152349 0
M  V30 1986 H 187.242 3.08439 2.80929 0
M  V30 1987 H 185.872 1.97159 2.55594 0
M  V30 1988 H 184.924 3.70404 0.866316 0
M  V30 1989 H 186.236 4.80226 1.34849 0
M  V30 1990 H 185.39 4.80493 3.7042 0
M  V30 1991 H 184.129 3.61544 3.27318 0
M  V30 1992 H 183.134 5.2463 1.64448 0
M  V30 1993 H 184.359 6.45738 2.10238 0
M  V30 1994 H 182.305 5.21931 3.97396 0
M  V30 1995 H 182.222 6.80819 3.28667 0
M  V30 1996 H 183.49 6.42576 4.41267 0
M  V30 1997 N 187.719 -0.156864 1.56817 0
M  V30 1998 C 188.667 -1.21319 1.98455 0
M  V30 1999 C 189.661 -1.45025 0.875444 0
M  V30 2000 O 190.867 -1.45435 1.0606 0
M  V30 2001 H 187.242 -0.408142 0.631605 0
M  V30 2002 H 189.213 -0.835244 2.86472 0
M  V30 2003 C 187.962 -2.54148 2.37285 0
M  V30 2004 H 187.285 -2.36733 3.22176 0
M  V30 2005 H 188.725 -3.26712 2.70251 0
M  V30 2006 C 187.184 -3.13967 1.22173 0
M  V30 2007 O 187.714 -3.98357 0.517149 0
M  V30 2008 N 185.92 -2.7327 0.988536 0
M  V30 2009 H 185.467 -2.04744 1.56326 0
M  V30 2010 H 185.425 -3.13628 0.220209 0
M  V30 2011 N 189.197 -1.51736 -0.425897 0
M  V30 2012 C 190.16 -1.73271 -1.50032 0
M  V30 2013 C 191.16 -0.602639 -1.4908 0
M  V30 2014 O 192.35 -0.87033 -1.509 0
M  V30 2015 C 189.482 -1.79969 -2.89523 0
M  V30 2016 H 190.675 -2.69172 -1.32237 0
M  V30 2017 H 188.228 -1.41899 -0.65532 0
M  V30 2018 H 188.963 -0.859241 -3.1271 0
M  V30 2019 H 188.748 -2.62109 -2.91619 0
M  V30 2020 H 190.238 -1.9843 -3.67444 0
M  V30 2021 N 190.675 0.682077 -1.42076 0
M  V30 2022 C 191.952 1.43755 -1.32642 0
M  V30 2023 C 192.332 2.11063 0.0396611 0
M  V30 2024 O 191.68 2.02701 1.05474 0
M  V30 2025 C 191.89 2.44596 -2.48946 0
M  V30 2026 C 193.238 3.09454 -2.9073 0
M  V30 2027 O 194.262 2.54922 -2.48783 0
M  V30 2028 O 193.121 4.08253 -3.63307 0
M  V30 2029 H 190.215 0.640857 -0.522715 0
M  V30 2030 H 192.761 0.711415 -1.54068 0
M  V30 2031 H 191.533 1.93609 -3.40046 0
M  V30 2032 H 191.156 3.24701 -2.29467 0
M  V30 2033 N 192.153 1.28127 0.917671 0
M  V30 2034 C 193.401 1.14825 1.66312 0
M  V30 2035 C 193.722 -0.304379 1.9261 0
M  V30 2036 O 192.992 -1.21149 1.53947 0
M  V30 2037 H 191.572 0.421953 0.616413 0
M  V30 2038 H 194.234 1.608 1.10134 0
M  V30 2039 H 193.33 1.68489 2.62712 0
M  V30 2040 N 193.631 -1.12557 1.10312 0
M  V30 2041 C 194.859 -1.87864 0.866873 0
M  V30 2042 C 195.274 -1.79588 -0.582557 0
M  V30 2043 O 194.631 -1.16887 -1.40156 0
M  V30 2044 C 194.682 -3.37125 1.30496 0
M  V30 2045 O 194.403 -3.45201 2.69755 0
M  V30 2046 C 195.904 -4.29373 1.10243 0
M  V30 2047 H 193.124 -0.594452 0.311236 0
M  V30 2048 H 195.668 -1.42429 1.46745 0
M  V30 2049 H 193.823 -3.80109 0.748081 0
M  V30 2050 H 194.237 -4.38056 2.88457 0
M  V30 2051 H 195.711 -5.32394 1.45811 0
M  V30 2052 H 196.188 -4.39181 0.0409492 0
M  V30 2053 H 196.794 -3.92169 1.64571 0
M  V30 2054 N 195.109 -0.891671 -1.2995 0
M  V30 2055 C 196.358 -0.509521 -1.95158 0
M  V30 2056 C 196.671 0.947388 -1.71125 0
M  V30 2057 O 197.877 1.43669 -2.30372 0
M  V30 2058 C 196.333 -0.860315 -3.49466 0
M  V30 2059 C 195.941 -2.33545 -3.8231 0
M  V30 2060 C 197.685 -0.547687 -4.20952 0
M  V30 2061 C 195.592 -2.62752 -5.29826 0
M  V30 2062 H 194.522 -0.18682 -0.730489 0
M  V30 2063 H 197.173 -1.08756 -1.47798 0
M  V30 2064 H 195.555 -0.211285 -3.95436 0
M  V30 2065 H 196.729 -3.02936 -3.47227 0
M  V30 2066 H 195.044 -2.61629 -3.23944 0
M  V30 2067 H 197.641 -0.742854 -5.29515 0
M  V30 2068 H 197.984 0.51332 -4.13123 0
M  V30 2069 H 198.517 -1.1542 -3.80688 0
M  V30 2070 H 195.256 -3.6762 -5.42712 0
M  V30 2071 H 194.776 -1.97977 -5.66185 0
M  V30 2072 H 196.455 -2.48601 -5.97333 0
M  V30 2073 N 196.587 1.43421 -0.653314 0
M  V30 2074 C 197.827 2.03689 -0.170346 0
M  V30 2075 C 198.191 1.50427 1.19314 0
M  V30 2076 O 199.392 2.0234 1.76952 0
M  V30 2077 C 197.663 3.56946 -0.180183 0
M  V30 2078 S 199.222 4.38171 0.234925 0
M  V30 2079 H 196.04 0.707345 -0.0719976 0
M  V30 2080 H 198.642 1.75486 -0.86167 0
M  V30 2081 H 197.346 3.93212 -1.17526 0
M  V30 2082 H 196.877 3.89791 0.531675 0
M  V30 2083 H 198.892 4.73808 1.47378 0
M  V30 2084 N 198.065 0.39524 1.52563 0
M  V30 2085 C 199.295 -0.184675 2.05773 0
M  V30 2086 C 199.703 -1.40571 1.26635 0
M  V30 2087 O 199.046 -1.81105 0.30769 0
M  V30 2088 C 199.108 -0.613551 3.54226 0
M  V30 2089 C 198.772 0.49484 4.54313 0
M  V30 2090 C 199.769 1.3541 5.01956 0
M  V30 2091 C 197.454 0.663565 4.97898 0
M  V30 2092 C 199.448 2.36716 5.91814 0
M  V30 2093 C 197.135 1.67996 5.87555 0
M  V30 2094 C 198.133 2.53017 6.34406 0
M  V30 2095 O 197.821 3.52917 7.22291 0
M  V30 2096 H 197.553 -0.030077 0.675331 0
M  V30 2097 H 200.107 0.560708 1.97599 0
M  V30 2098 H 198.337 -1.411 3.60038 0
M  V30 2099 H 200.026 -1.11981 3.90148 0
M  V30 2100 H 200.792 1.23509 4.6901 0
M  V30 2101 H 196.671 0.0114913 4.60999 0
M  V30 2102 H 200.215 3.03113 6.28306 0
M  V30 2103 H 196.112 1.79933 6.19915 0
M  V30 2104 H 196.88 3.48996 7.40367 0
M  V30 2105 N 199.544 -1.57102 0.125237 0
M  V30 2106 C 200.821 -1.86953 -0.575142 0
M  V30 2107 C 201.201 -1.02749 -1.84407 0
M  V30 2108 O 200.549 -0.108144 -2.28244 0
M  V30 2109 C 200.759 -3.38198 -0.861583 0
M  V30 2110 C 202.107 -4.06937 -1.21192 0
M  V30 2111 O 203.131 -3.43252 -0.951645 0
M  V30 2112 O 201.99 -5.19364 -1.70068 0
M  V30 2113 H 199.084 -0.774147 -0.290906 0
M  V30 2114 H 201.63 -1.68942 0.160211 0
M  V30 2115 H 200.402 -3.91282 0.0373647 0
M  V30 2116 H 200.025 -3.61661 -1.65188 0
M  V30 2117 N 201.022 0.148545 -1.56898 0
M  V30 2118 C 202.247 0.880385 -1.87787 0
M  V30 2119 C 202.672 1.74018 -0.714093 0
M  V30 2120 O 202.03 1.78153 0.336343 0
M  V30 2121 C 202.078 1.71422 -3.17249 0
M  V30 2122 O 201.182 2.8183 -3.01074 0
M  V30 2123 H 200.523 0.245301 -0.617028 0
M  V30 2124 H 203.053 0.139826 -2.04122 0
M  V30 2125 H 203.063 2.10954 -3.49231 0
M  V30 2126 H 201.738 1.08284 -4.01556 0
M  V30 2127 H 200.315 2.45715 -2.80497 0
M  V30 2128 N 202.5 1.5196 0.417844 0
M  V30 2129 C 203.728 1.69426 1.18753 0
M  V30 2130 C 204.143 0.399955 1.84515 0
M  V30 2131 O 203.5 -0.623288 1.71527 0
M  V30 2132 C 203.551 2.82375 2.25714 0
M  V30 2133 O 203.272 4.06793 1.62638 0
M  V30 2134 C 204.773 3.11277 3.15628 0
M  V30 2135 H 201.993 0.568031 0.357186 0
M  V30 2136 H 204.537 1.98475 0.49273 0
M  V30 2137 H 202.692 2.5587 2.90877 0
M  V30 2138 H 203.106 4.69667 2.3348 0
M  V30 2139 H 204.58 3.93843 3.86771 0
M  V30 2140 H 205.057 2.24473 3.77503 0
M  V30 2141 H 205.663 3.39515 2.56144 0
M  V30 2142 N 203.978 -0.674533 1.42435 0
M  V30 2143 C 204.928 -1.7807 1.4239 0
M  V30 2144 C 205.912 -1.58169 0.295202 0
M  V30 2145 O 207.104 -1.68643 0.537449 0
M  V30 2146 C 204.233 -3.16532 1.32901 0
M  V30 2147 C 203.319 -3.42055 2.50717 0
M  V30 2148 N 203.71 -3.38162 3.76139 0
M  V30 2149 C 202.008 -3.72692 2.44983 0
M  V30 2150 C 202.709 -3.63177 4.54398 0
M  V30 2151 N 201.685 -3.83954 3.84812 0
M  V30 2152 H 205.487 -1.73454 2.37257 0
M  V30 2153 H 203.001 -0.875381 1.36788 0
M  V30 2154 H 204.998 -3.958 1.30951 0
M  V30 2155 H 203.658 -3.22345 0.390363 0
M  V30 2156 H 204.669 -3.18057 4.0873 0
M  V30 2157 H 201.346 -3.85749 1.59699 0
M  V30 2158 H 202.736 -3.66125 5.63384 0
M  V30 2159 N 205.456 -1.28612 -0.910864 0
M  V30 2160 C 206.686 -1.1862 -1.69153 0
M  V30 2161 C 207.094 0.257324 -1.87442 0
M  V30 2162 O 206.437 1.18543 -1.40332 0
M  V30 2163 C 206.499 -1.81606 -3.10257 0
M  V30 2164 C 206.163 -3.30864 -3.15243 0
M  V30 2165 C 207.16 -4.27256 -2.96223 0
M  V30 2166 C 204.845 -3.71871 -3.37664 0
M  V30 2167 C 206.839 -5.62631 -2.99541 0
M  V30 2168 C 204.526 -5.07371 -3.40614 0
M  V30 2169 C 205.524 -6.02561 -3.21573 0
M  V30 2170 O 205.212 -7.35589 -3.2429 0
M  V30 2171 H 204.944 -0.412633 -0.535453 0
M  V30 2172 H 207.498 -1.70306 -1.14827 0
M  V30 2173 H 205.728 -1.24418 -3.66138 0
M  V30 2174 H 207.417 -1.66092 -3.70362 0
M  V30 2175 H 208.183 -3.9691 -2.78725 0
M  V30 2176 H 204.062 -2.98241 -3.5153 0
M  V30 2177 H 207.606 -6.36907 -2.84597 0
M  V30 2178 H 203.503 -5.37366 -3.57642 0
M  V30 2179 H 204.271 -7.44252 -3.40633 0
M  V30 2180 N 206.934 1.1197 -1.10907 0
M  V30 2181 C 207.881 2.17846 -0.762345 0
M  V30 2182 C 208.851 1.63995 0.263599 0
M  V30 2183 O 210.036 1.90273 0.141773 0
M  V30 2184 C 207.176 3.44487 -0.205651 0
M  V30 2185 C 206.289 4.12369 -1.28748 0
M  V30 2186 C 205.424 5.26674 -0.691919 0
M  V30 2187 C 204.463 5.86431 -1.75399 0
M  V30 2188 N 203.6 6.92142 -1.17833 0
M  V30 2189 H 208.44 2.46851 -1.6694 0
M  V30 2190 H 205.977 1.21188 -0.833776 0
M  V30 2191 H 207.935 4.16981 0.135037 0
M  V30 2192 H 206.565 3.15884 0.664613 0
M  V30 2193 H 205.617 3.38003 -1.74522 0
M  V30 2194 H 206.929 4.52844 -2.09125 0
M  V30 2195 H 206.083 6.05953 -0.300963 0
M  V30 2196 H 204.822 4.8749 0.143232 0
M  V30 2197 H 203.827 5.05835 -2.15432 0
M  V30 2198 H 205.052 6.27685 -2.59208 0
M  V30 2199 H 202.998 6.54985 -0.364725 0
M  V30 2200 H 202.915 7.31242 -1.91887 0
M  V30 2201 H 204.183 7.75237 -0.81408 0
M  V30 2202 N 208.412 0.89855 1.29475 0
M  V30 2203 C 209.322 0.379974 2.31502 0
M  V30 2204 C 210.338 -0.524695 1.659 0
M  V30 2205 O 211.514 -0.414551 1.97087 0
M  V30 2206 C 208.579 -0.385138 3.44554 0
M  V30 2207 C 207.64 0.550914 4.2575 0
M  V30 2208 C 206.873 -0.177778 5.33404 0
M  V30 2209 O 207.096 -1.40189 5.52904 0
M  V30 2210 O 206.03 0.479106 5.9999 0
M  V30 2211 H 209.856 1.22639 2.77837 0
M  V30 2212 H 207.441 0.662834 1.33891 0
M  V30 2213 H 209.323 -0.817841 4.13388 0
M  V30 2214 H 207.998 -1.20763 3.0033 0
M  V30 2215 H 206.905 1.03271 3.59564 0
M  V30 2216 H 208.238 1.33979 4.73614 0
M  V30 2217 N 209.89 -1.43072 0.660911 0
M  V30 2218 C 211.118 -2.06067 0.185422 0
M  V30 2219 C 211.533 -1.49582 -1.15198 0
M  V30 2220 O 210.89 -0.630134 -1.71276 0
M  V30 2221 C 210.941 -3.61371 0.0966523 0
M  V30 2222 O 210.662 -4.15758 1.38119 0
M  V30 2223 C 212.163 -4.41455 -0.403996 0
M  V30 2224 H 209.383 -0.664459 0.0934604 0
M  V30 2225 H 211.927 -1.83447 0.90373 0
M  V30 2226 H 210.082 -3.8315 -0.572259 0
M  V30 2227 H 210.496 -5.09499 1.24542 0
M  V30 2228 H 211.97 -5.50437 -0.415045 0
M  V30 2229 H 212.447 -4.15036 -1.43674 0
M  V30 2230 H 213.053 -4.24663 0.232691 0
M  V30 2231 N 211.368 -0.403325 -1.52352 0
M  V30 2232 C 212.614 0.167015 -2.02713 0
M  V30 2233 C 212.969 1.43296 -1.28391 0
M  V30 2234 O 212.262 1.87796 -0.379885 0
M  V30 2235 C 212.456 0.474665 -3.54234 0
M  V30 2236 C 212.285 -0.759909 -4.43233 0
M  V30 2237 C 211.055 -1.28338 -4.88731 0
M  V30 2238 C 213.253 -1.63634 -4.87574 0
M  V30 2239 N 211.235 -2.47404 -5.6184 0
M  V30 2240 C 212.606 -2.67329 -5.59406 0
M  V30 2241 C 214.661 -1.65478 -4.69597 0
M  V30 2242 C 213.364 -3.72773 -6.15169 0
M  V30 2243 C 215.39 -2.69837 -5.26253 0
M  V30 2244 C 214.752 -3.72253 -5.98002 0
M  V30 2245 H 210.851 0.0228343 -0.781667 0
M  V30 2246 H 213.435 -0.556368 -1.86581 0
M  V30 2247 H 211.606 1.16709 -3.7045 0
M  V30 2248 H 213.338 1.03338 -3.91284 0
M  V30 2249 H 210.093 -0.842273 -4.6605 0
M  V30 2250 H 210.517 -3.07688 -6.0304 0
M  V30 2251 H 215.159 -0.876389 -4.13617 0
M  V30 2252 H 212.877 -4.51471 -6.70223 0
M  V30 2253 H 216.463 -2.72164 -5.14216 0
M  V30 2254 H 215.343 -4.51679 -6.41058 0
M  V30 2255 N 212.846 1.57033 -0.133567 0
M  V30 2256 C 213.793 2.16074 0.811208 0
M  V30 2257 C 214.763 1.08979 1.2535 0
M  V30 2258 O 215.948 1.36958 1.32843 0
M  V30 2259 C 213.088 2.77595 2.05024 0
M  V30 2260 C 212.201 3.99042 1.65498 0
M  V30 2261 C 211.336 4.48603 2.84479 0
M  V30 2262 C 210.375 5.62547 2.41262 0
M  V30 2263 N 209.512 6.06787 3.53206 0
M  V30 2264 H 214.352 2.96477 0.300906 0
M  V30 2265 H 211.889 1.46462 0.136822 0
M  V30 2266 H 213.847 3.11402 2.77642 0
M  V30 2267 H 212.477 1.99859 2.53488 0
M  V30 2268 H 211.529 3.71302 0.826981 0
M  V30 2269 H 212.841 4.81629 1.29748 0
M  V30 2270 H 211.995 4.84395 3.65303 0
M  V30 2271 H 210.734 3.64995 3.23465 0
M  V30 2272 H 209.739 5.26345 1.58874 0
M  V30 2273 H 210.964 6.47931 2.03377 0
M  V30 2274 H 208.91 5.26117 3.91838 0
M  V30 2275 H 208.827 6.84266 3.21427 0
M  V30 2276 H 210.095 6.4722 4.34427 0
M  V30 2277 N 214.325 -0.140222 1.56975 0
M  V30 2278 C 215.288 -1.15689 1.97861 0
M  V30 2279 C 216.288 -1.3549 0.865974 0
M  V30 2280 O 217.478 -1.32367 1.13246 0
M  V30 2281 C 214.61 -2.51582 2.30042 0
M  V30 2282 H 215.803 -0.805971 2.88867 0
M  V30 2283 H 213.356 -0.383801 1.51515 0
M  V30 2284 H 214.091 -2.91632 1.41849 0
M  V30 2285 H 213.876 -2.38569 3.11171 0
M  V30 2286 H 215.366 -3.24792 2.62488 0
M  V30 2287 N 215.803 -1.52179 -0.40978 0
M  V30 2288 C 216.733 -1.78435 -1.5061 0
M  V30 2289 C 217.714 -0.635295 -1.57791 0
M  V30 2290 O 218.899 -0.880823 -1.73076 0
M  V30 2291 C 216.029 -1.93444 -2.88439 0
M  V30 2292 C 214.983 -3.09038 -2.96108 0
M  V30 2293 C 214.309 -3.09268 -4.36185 0
M  V30 2294 C 215.609 -4.48508 -2.67652 0
M  V30 2295 H 217.303 -2.70237 -1.28889 0
M  V30 2296 H 214.849 -1.30036 -0.618605 0
M  V30 2297 H 216.802 -2.10394 -3.65119 0
M  V30 2298 H 215.526 -0.983129 -3.11452 0
M  V30 2299 H 214.185 -2.91837 -2.21872 0
M  V30 2300 H 213.833 -2.11861 -4.56206 0
M  V30 2301 H 213.533 -3.86907 -4.42241 0
M  V30 2302 H 215.057 -3.28348 -5.14801 0
M  V30 2303 H 216.471 -4.65918 -3.34056 0
M  V30 2304 H 214.868 -5.28059 -2.85085 0
M  V30 2305 H 215.938 -4.56649 -1.63095 0
M  V30 2306 N 217.281 0.66697 -1.42791 0
M  V30 2307 C 218.191 1.80962 -1.49299 0
M  V30 2308 C 219.207 1.69775 -0.381108 0
M  V30 2309 O 220.383 1.91188 -0.633188 0
M  V30 2310 C 217.448 3.17156 -1.40045 0
M  V30 2311 C 216.509 3.40242 -2.6179 0
M  V30 2312 C 215.742 4.69939 -2.52969 0
M  V30 2313 O 215.965 5.48372 -1.56985 0
M  V30 2314 O 214.899 4.94441 -3.43237 0
M  V30 2315 H 218.725 1.78427 -2.45759 0
M  V30 2316 H 216.31 0.823713 -1.24641 0
M  V30 2317 H 218.192 3.98413 -1.37276 0
M  V30 2318 H 216.867 3.20312 -0.467138 0
M  V30 2319 H 215.774 2.58802 -2.70134 0
M  V30 2320 H 217.107 3.41923 -3.54047 0
M  V30 2321 N 218.759 1.29093 0.90403 0
M  V30 2322 C 219.722 1.1386 1.98919 0
M  V30 2323 C 220.722 0.0753457 1.60623 0
M  V30 2324 O 221.912 0.321931 1.71199 0
M  V30 2325 C 219.044 0.740198 3.32767 0
M  V30 2326 H 220.237 2.10246 2.13861 0
M  V30 2327 H 217.79 1.12218 1.08797 0
M  V30 2328 H 218.525 -0.223997 3.23525 0
M  V30 2329 H 218.31 1.50838 3.61926 0
M  V30 2330 H 219.8 0.656546 4.12407 0
M  V30 2331 N 220.237 -1.11381 1.11499 0
M  V30 2332 C 221.167 -2.19509 0.796125 0
M  V30 2333 C 222.148 -1.68458 -0.235796 0
M  V30 2334 O 223.333 -1.93947 -0.0991344 0
M  V30 2335 C 220.463 -3.46475 0.239205 0
M  V30 2336 C 219.417 -4.10744 1.20307 0
M  V30 2337 C 218.743 -5.32293 0.50683 0
M  V30 2338 C 220.043 -4.55597 2.55399 0
M  V30 2339 H 221.737 -2.46439 1.70024 0
M  V30 2340 H 219.283 -1.18446 0.818935 0
M  V30 2341 H 221.236 -4.214 0.00392006 0
M  V30 2342 H 219.96 -3.19006 -0.700206 0
M  V30 2343 H 218.619 -3.37813 1.42399 0
M  V30 2344 H 218.267 -5.01095 -0.437408 0
M  V30 2345 H 217.967 -5.76243 1.1497 0
M  V30 2346 H 219.491 -6.09956 0.280351 0
M  V30 2347 H 220.905 -5.21841 2.37391 0
M  V30 2348 H 219.302 -5.10363 3.15673 0
M  V30 2349 H 220.372 -3.69013 3.14575 0
M  V30 2350 N 221.715 -0.905404 -1.28997 0
M  V30 2351 C 222.961 -0.535039 -1.95615 0
M  V30 2352 C 223.294 0.917404 -1.71165 0
M  V30 2353 O 222.569 1.65123 -1.02785 0
M  V30 2354 C 222.852 -0.834918 -3.50287 0
M  V30 2355 C 222.705 -2.33948 -3.84172 0
M  V30 2356 C 224.024 -0.325318 -4.38896 0
M  V30 2357 H 221.143 -0.195861 -0.710498 0
M  V30 2358 H 223.785 -1.13313 -1.52513 0
M  V30 2359 H 221.935 -0.325904 -3.87131 0
M  V30 2360 H 223.607 -2.91847 -3.57243 0
M  V30 2361 H 221.85 -2.79789 -3.31513 0
M  V30 2362 H 222.521 -2.49987 -4.92149 0
M  V30 2363 H 224.997 -0.761256 -4.09077 0
M  V30 2364 H 223.873 -0.564295 -5.45992 0
M  V30 2365 H 224.134 0.774144 -4.35269 0
M  V30 2366 N 223.193 1.4272 -0.668489 0
M  V30 2367 C 224.156 2.292 0.00448567 0
M  V30 2368 C 225.156 1.43001 0.735339 0
M  V30 2369 O 226.346 1.64461 0.57429 0
M  V30 2370 C 223.478 3.25375 1.01705 0
M  V30 2371 H 224.671 2.90199 -0.756608 0
M  V30 2372 H 222.224 1.50254 -0.430506 0
M  V30 2373 H 222.959 2.69301 1.80686 0
M  V30 2374 H 222.744 3.88944 0.496463 0
M  V30 2375 H 224.234 3.90245 1.48655 0
M  V30 2376 N 224.671 0.411399 1.52136 0
M  V30 2377 C 225.618 -0.412975 2.27075 0
M  V30 2378 C 226.588 -1.03912 1.29582 0
M  V30 2379 O 227.773 -1.06296 1.58448 0
M  V30 2380 C 224.913 -1.52247 3.09701 0
M  V30 2381 C 224.026 -0.917021 4.22155 0
M  V30 2382 C 223.161 -1.9994 4.92135 0
M  V30 2383 C 222.2 -1.37101 5.96548 0
M  V30 2384 N 221.337 -2.39364 6.60038 0
M  V30 2385 H 226.177 0.232499 2.97092 0
M  V30 2386 H 223.714 0.126496 1.46555 0
M  V30 2387 H 225.672 -2.17674 3.55913 0
M  V30 2388 H 224.302 -2.13794 2.41851 0
M  V30 2389 H 223.354 -0.151742 3.80097 0
M  V30 2390 H 224.666 -0.418006 4.97045 0
M  V30 2391 H 223.82 -2.73088 5.41763 0
M  V30 2392 H 222.559 -2.53208 4.16818 0
M  V30 2393 H 221.564 -0.624873 5.46237 0
M  V30 2394 H 222.789 -0.845998 6.7381 0
M  V30 2395 H 220.735 -2.91759 5.87548 0
M  V30 2396 H 220.652 -1.9428 7.3061 0
M  V30 2397 H 221.92 -3.12074 7.14304 0
M  V30 2398 N 226.149 -1.5696 0.141893 0
M  V30 2399 C 227.397 -1.95573 -0.509484 0
M  V30 2400 C 227.718 -1.02746 -1.65736 0
M  V30 2401 O 226.988 -0.0880311 -1.95702 0
M  V30 2402 H 225.568 -0.722115 -0.191205 0
M  V30 2403 H 228.23 -1.93697 0.216196 0
M  V30 2404 H 227.326 -2.99171 -0.889 0
M  V30 2405 N 227.627 0.131896 -1.57047 0
M  V30 2406 C 228.557 1.16384 -2.02428 0
M  V30 2407 C 229.538 1.43936 -0.90644 0
M  V30 2408 O 230.723 1.54599 -1.17528 0
M  V30 2409 C 227.853 2.49328 -2.4177 0
M  V30 2410 C 226.807 2.36266 -3.56879 0
M  V30 2411 C 226.133 3.74057 -3.8208 0
M  V30 2412 C 227.433 1.834 -4.89042 0
M  V30 2413 H 229.127 0.786433 -2.88887 0
M  V30 2414 H 226.673 0.376855 -1.38981 0
M  V30 2415 H 228.626 3.21759 -2.7212 0
M  V30 2416 H 227.35 2.88934 -1.52266 0
M  V30 2417 H 226.009 1.66286 -3.26718 0
M  V30 2418 H 225.657 4.11125 -2.89803 0
M  V30 2419 H 225.357 3.66174 -4.59554 0
M  V30 2420 H 226.881 4.48012 -4.1487 0
M  V30 2421 H 228.295 2.45636 -5.18011 0
M  V30 2422 H 226.692 1.8637 -5.70426 0
M  V30 2423 H 227.762 0.790662 -4.7841 0
M  V30 2424 N 229.106 1.52395 0.401703 0
M  V30 2425 C 230.352 1.67065 1.14966 0
M  V30 2426 C 230.685 0.403052 1.89971 0
M  V30 2427 O 229.96 -0.598774 1.85054 0
M  V30 2428 C 230.243 2.8975 2.13815 0
M  V30 2429 C 230.096 4.26578 1.42658 0
M  V30 2430 C 231.415 3.07965 3.14397 0
M  V30 2431 H 228.534 0.607968 0.416587 0
M  V30 2432 H 231.176 1.84965 0.434511 0
M  V30 2433 H 229.326 2.74619 2.74803 0
M  V30 2434 H 230.998 4.53451 0.847329 0
M  V30 2435 H 229.241 4.27639 0.72849 0
M  V30 2436 H 229.912 5.08483 2.14823 0
M  V30 2437 H 232.388 3.22043 2.63491 0
M  V30 2438 H 231.264 3.95308 3.80819 0
M  V30 2439 H 231.525 2.21611 3.82545 0
M  V30 2440 N 230.584 -0.659388 1.43143 0
M  V30 2441 C 231.516 -1.7849 1.43784 0
M  V30 2442 C 232.529 -1.5932 0.334787 0
M  V30 2443 O 233.718 -1.68155 0.598842 0
M  V30 2444 C 230.818 -3.15828 1.22906 0
M  V30 2445 C 229.991 -3.61711 2.45934 0
M  V30 2446 C 229.05 -4.77831 2.20371 0
M  V30 2447 O 228.076 -4.87586 2.93681 0
M  V30 2448 N 229.278 -5.67611 1.21647 0
M  V30 2449 H 232.043 -1.7842 2.40803 0
M  V30 2450 H 229.604 -0.84302 1.3822 0
M  V30 2451 H 231.596 -3.91189 1.03697 0
M  V30 2452 H 230.166 -3.10707 0.343542 0
M  V30 2453 H 229.386 -2.76861 2.80609 0
M  V30 2454 H 230.674 -3.89112 3.27825 0
M  V30 2455 H 230.072 -5.62397 0.610449 0
M  V30 2456 H 228.629 -6.42719 1.08423 0
M  V30 2457 N 232.062 -1.29571 -0.897171 0
M  V30 2458 C 233.025 -1.14913 -1.98312 0
M  V30 2459 C 234.025 -0.0838629 -1.60581 0
M  V30 2460 O 235.215 -0.331006 -1.71026 0
M  V30 2461 C 232.347 -0.757835 -3.3237 0
M  V30 2462 H 233.54 -2.11377 -2.12743 0
M  V30 2463 H 231.093 -1.12793 -1.08201 0
M  V30 2464 H 231.828 0.206837 -3.2364 0
M  V30 2465 H 231.613 -1.52755 -3.61121 0
M  V30 2466 H 233.103 -0.678408 -4.12053 0
M  V30 2467 N 233.54 1.10788 -1.12088 0
M  V30 2468 C 234.47 2.19083 -0.807755 0
M  V30 2469 C 235.451 1.6858 0.226859 0
M  V30 2470 O 236.636 1.93997 0.0888475 0
M  V30 2471 C 233.766 3.46344 -0.257576 0
M  V30 2472 C 232.72 4.101 -1.22483 0
M  V30 2473 C 232.046 5.32016 -0.535052 0
M  V30 2474 C 233.346 4.54236 -2.57811 0
M  V30 2475 H 235.04 2.45534 -1.71328 0
M  V30 2476 H 232.586 1.1801 -0.825205 0
M  V30 2477 H 234.539 4.21392 -0.0262679 0
M  V30 2478 H 233.263 3.19373 0.683278 0
M  V30 2479 H 231.922 3.37054 -1.44189 0
M  V30 2480 H 231.57 5.01319 0.410827 0
M  V30 2481 H 231.27 5.75625 -1.18024 0
M  V30 2482 H 232.794 6.09799 -0.312695 0
M  V30 2483 H 234.208 5.20575 -2.40155 0
M  V30 2484 H 232.605 5.08682 -3.18375 0
M  V30 2485 H 233.675 3.6734 -3.16528 0
M  V30 2486 N 235.018 0.912232 1.28515 0
M  V30 2487 C 236.266 0.543523 1.94654 0
M  V30 2488 C 236.587 -0.9155 1.72173 0
M  V30 2489 O 235.857 -1.64708 1.06058 0
M  V30 2490 H 234.437 0.198017 0.720277 0
M  V30 2491 H 237.099 1.16126 1.56527 0
M  V30 2492 H 236.195 0.736684 3.03281 0
M  V30 2493 N 236.496 -1.42363 0.676048 0
M  V30 2494 C 237.426 -2.33497 0.0124832 0
M  V30 2495 C 238.407 -1.50748 -0.787981 0
M  V30 2496 O 239.592 -1.79346 -0.744884 0
M  V30 2497 C 236.722 -3.34377 -0.938582 0
M  V30 2498 C 235.676 -4.27289 -0.246622 0
M  V30 2499 C 235.002 -5.18386 -1.31071 0
M  V30 2500 C 236.302 -5.14916 0.875125 0
M  V30 2501 H 237.996 -2.89233 0.773593 0
M  V30 2502 H 235.542 -1.39073 0.37346 0
M  V30 2503 H 237.495 -3.97044 -1.41188 0
M  V30 2504 H 236.219 -2.76947 -1.73113 0
M  V30 2505 H 234.878 -3.66018 0.206456 0
M  V30 2506 H 234.526 -4.57282 -2.09528 0
M  V30 2507 H 234.226 -5.81378 -0.852839 0
M  V30 2508 H 235.75 -5.83929 -1.78492 0
M  V30 2509 H 237.164 -5.71262 0.482983 0
M  V30 2510 H 235.561 -5.86747 1.25887 0
M  V30 2511 H 236.631 -4.53242 1.72335 0
M  V30 2512 N 237.974 -0.419461 -1.51915 0
M  V30 2513 C 239.199 0.154572 -2.06823 0
M  V30 2514 C 239.624 1.3722 -1.28656 0
M  V30 2515 O 238.982 1.78461 -0.319583 0
M  V30 2516 C 239.03 0.473172 -3.57482 0
M  V30 2517 O 238.134 1.56255 -3.81652 0
M  V30 2518 H 237.475 0.0096924 -0.663929 0
M  V30 2519 H 240.005 -0.595642 -1.95738 0
M  V30 2520 H 240.015 0.728825 -4.01438 0
M  V30 2521 H 238.69 -0.416873 -4.13805 0
M  V30 2522 H 237.267 1.29825 -3.49571 0
M  V30 2523 N 239.452 1.56882 -0.150215 0
M  V30 2524 C 240.4 2.18214 0.805313 0
M  V30 2525 C 241.394 1.14006 1.25296 0
M  V30 2526 O 242.6 1.3225 1.22107 0
M  V30 2527 H 238.975 0.698762 0.277913 0
M  V30 2528 H 240.946 2.97231 0.263862 0
M  V30 2529 C 239.695 2.82065 2.03309 0
M  V30 2530 H 239.018 3.61968 1.69763 0
M  V30 2531 H 240.458 3.28477 2.68103 0
M  V30 2532 C 238.917 1.80739 2.84315 0
M  V30 2533 O 239.447 1.27983 3.80767 0
M  V30 2534 N 237.653 1.4997 2.48913 0
M  V30 2535 H 237.2 1.93062 1.70542 0
M  V30 2536 H 237.158 0.824217 3.03404 0
M  V30 2537 N 240.93 -0.123565 1.57115 0
M  V30 2538 C 242.177 -0.832153 1.84612 0
M  V30 2539 C 242.505 -1.80093 0.734627 0
M  V30 2540 O 241.76 -1.93766 -0.27442 0
M  V30 2541 C 242.059 -1.62016 3.18568 0
M  V30 2542 C 241.725 -0.796084 4.43817 0
M  V30 2543 C 240.387 -0.568816 4.77826 0
M  V30 2544 C 242.739 -0.221364 5.2073 0
M  V30 2545 C 240.067 0.243499 5.86194 0
M  V30 2546 C 242.419 0.578117 6.29953 0
M  V30 2547 C 241.083 0.815744 6.62497 0
M  V30 2548 H 240.353 -0.304507 0.675542 0
M  V30 2549 H 243 -0.0947248 1.91266 0
M  V30 2550 H 241.305 -2.42837 3.0747 0
M  V30 2551 H 243.002 -2.17231 3.37064 0
M  V30 2552 H 239.592 -0.983307 4.17168 0
M  V30 2553 H 243.776 -0.384173 4.94811 0
M  V30 2554 H 239.032 0.436871 6.09837 0
M  V30 2555 H 243.206 1.03046 6.88734 0
M  V30 2556 H 240.833 1.44701 7.46301 0
M  V30 2557 N 242.408 -1.52605 -0.393616 0
M  V30 2558 C 243.356 -1.77688 -1.50099 0
M  V30 2559 C 244.35 -0.644615 -1.56656 0
M  V30 2560 O 245.556 -0.826997 -1.59877 0
M  V30 2561 H 241.931 -0.562159 -0.499481 0
M  V30 2562 H 243.902 -2.7043 -1.26135 0
M  V30 2563 C 242.651 -1.95858 -2.87289 0
M  V30 2564 H 241.974 -2.8241 -2.82992 0
M  V30 2565 H 243.414 -2.174 -3.64024 0
M  V30 2566 C 241.873 -0.729848 -3.28899 0
M  V30 2567 O 242.403 0.0949217 -4.01588 0
M  V30 2568 N 240.609 -0.561283 -2.85128 0
M  V30 2569 H 240.156 -1.23357 -2.26143 0
M  V30 2570 H 240.114 0.2595 -3.13327 0
M  V30 2571 N 243.887 0.651787 -1.4349 0
M  V30 2572 C 245.112 1.44434 -1.48841 0
M  V30 2573 C 245.537 1.8779 -0.107955 0
M  V30 2574 O 244.895 1.57464 0.898602 0
M  V30 2575 C 244.943 2.65458 -2.44059 0
M  V30 2576 O 244.047 3.64566 -1.92784 0
M  V30 2577 H 243.388 0.433005 -0.503391 0
M  V30 2578 H 245.918 0.797451 -1.88419 0
M  V30 2579 H 245.928 3.13255 -2.6141 0
M  V30 2580 H 244.603 2.33244 -3.4434 0
M  V30 2581 H 243.18 3.23716 -1.851 0
M  V30 2582 N 245.365 1.30045 0.890287 0
M  V30 2583 C 246.781 1.08261 1.17268 0
M  V30 2584 C 246.981 -0.160063 2.00863 0
M  V30 2585 O 246.037 -0.855181 2.37577 0
M  V30 2586 C 247.35 2.34323 1.8845 0
M  V30 2587 C 248.898 2.39735 2.01237 0
M  V30 2588 C 249.373 3.65625 2.7583 0
M  V30 2589 N 250.864 3.66402 2.83379 0
M  V30 2590 C 251.599 4.60498 3.41657 0
M  V30 2591 N 251.095 5.64933 4.01026 0
M  V30 2592 N 252.888 4.48051 3.39421 0
M  V30 2593 H 245.039 2.09777 0.332762 0
M  V30 2594 H 247.302 0.92446 0.209948 0
M  V30 2595 H 247.008 3.2498 1.34465 0
M  V30 2596 H 246.882 2.4256 2.88867 0
M  V30 2597 H 249.269 1.4956 2.54393 0
M  V30 2598 H 249.35 2.35476 0.999232 0
M  V30 2599 H 248.994 4.56156 2.23347 0
M  V30 2600 H 248.924 3.67144 3.77509 0
M  V30 2601 H 251.415 2.90896 2.41222 0
M  V30 2602 H 251.728 6.32841 4.43545 0
M  V30 2603 H 250.073 5.68732 3.99461 0
M  V30 2604 H 253.264 3.65649 2.92264 0
M  V30 2605 H 253.437 5.21565 3.84544 0
M  V30 2606 N 246.843 -1.10192 1.12674 0
M  V30 2607 C 247.775 -2.16418 0.754701 0
M  V30 2608 C 248.788 -1.61309 -0.21986 0
M  V30 2609 O 249.977 -1.785 -0.000826841 0
M  V30 2610 C 247.077 -3.38762 0.096698 0
M  V30 2611 C 246.25 -4.23307 1.10136 0
M  V30 2612 C 245.309 -5.24092 0.470513 0
M  V30 2613 O 244.335 -5.57906 1.12824 0
M  V30 2614 N 245.537 -5.75491 -0.760948 0
M  V30 2615 H 248.302 -2.48943 1.66875 0
M  V30 2616 H 245.863 -1.25834 1.01869 0
M  V30 2617 H 247.855 -4.03291 -0.337384 0
M  V30 2618 H 246.425 -3.04192 -0.720153 0
M  V30 2619 H 245.645 -3.55036 1.71299 0
M  V30 2620 H 246.933 -4.76624 1.78064 0
M  V30 2621 H 246.331 -5.50222 -1.31424 0
M  V30 2622 H 244.888 -6.41792 -1.13781 0
M  V30 2623 N 248.321 -0.919034 -1.28029 0
M  V30 2624 C 249.57 -0.550802 -1.94034 0
M  V30 2625 C 249.883 0.910877 -1.73096 0
M  V30 2626 O 251.089 1.3875 -2.33368 0
M  V30 2627 C 249.545 -0.934249 -3.47563 0
M  V30 2628 C 249.153 -2.41602 -3.7727 0
M  V30 2629 C 250.897 -0.636854 -4.19696 0
M  V30 2630 C 248.804 -2.73932 -5.24133 0
M  V30 2631 H 247.734 -0.202273 -0.726362 0
M  V30 2632 H 250.385 -1.11867 -1.45458 0
M  V30 2633 H 248.767 -0.295115 -3.94899 0
M  V30 2634 H 249.941 -3.10233 -3.40723 0
M  V30 2635 H 248.256 -2.68441 -3.18321 0
M  V30 2636 H 250.853 -0.855005 -5.2782 0
M  V30 2637 H 251.196 0.425575 -4.14119 0
M  V30 2638 H 251.729 -1.23469 -3.78154 0
M  V30 2639 H 248.468 -3.79049 -5.34792 0
M  V30 2640 H 247.988 -2.09942 -5.61858 0
M  V30 2641 H 249.667 -2.61215 -5.91925 0
M  V30 2642 N 249.799 1.42003 -0.683588 0
M  V30 2643 C 251.076 1.95112 -0.138075 0
M  V30 2644 C 251.456 1.62359 1.34918 0
M  V30 2645 O 250.804 0.924311 2.08971 0
M  V30 2646 C 251.014 3.46505 -0.416581 0
M  V30 2647 C 252.362 4.23254 -0.337834 0
M  V30 2648 O 253.386 3.54468 -0.35082 0
M  V30 2649 O 252.245 5.45743 -0.287596 0
M  V30 2650 H 249.339 0.826961 -0.00797996 0
M  V30 2651 H 251.885 1.51784 -0.758924 0
M  V30 2652 H 250.657 3.63582 -1.4465 0
M  V30 2653 H 250.28 3.969 0.235839 0
M  V30 2654 N 251.277 0.427512 1.51691 0
M  V30 2655 C 252.554 -0.201684 1.94557 0
M  V30 2656 C 252.934 -1.60981 1.36559 0
M  V30 2657 O 252.282 -2.21814 0.548702 0
M  V30 2658 C 252.492 -0.189394 3.48486 0
M  V30 2659 C 253.84 -0.39978 4.22714 0
M  V30 2660 O 254.864 -0.267945 3.55191 0
M  V30 2661 O 253.723 -0.661249 5.42485 0
M  V30 2662 H 250.817 -0.135261 0.815864 0
M  V30 2663 H 253.363 0.484782 1.62628 0
M  V30 2664 H 252.135 0.795431 3.8313 0
M  V30 2665 H 251.758 -0.919187 3.86829 0
M  V30 2666 N 252.755 -1.56801 0.158532 0
M  V30 2667 C 254.004 -1.95665 -0.489702 0
M  V30 2668 C 254.317 -1.04654 -1.65248 0
M  V30 2669 O 255.523 -1.33146 -2.3661 0
M  V30 2670 C 253.979 -3.47874 -0.922582 0
M  V30 2671 C 253.587 -4.47489 0.213893 0
M  V30 2672 C 255.331 -3.95583 -1.53996 0
M  V30 2673 C 253.238 -5.90921 -0.237903 0
M  V30 2674 H 252.168 -0.730516 -0.186716 0
M  V30 2675 H 254.819 -1.81861 0.244722 0
M  V30 2676 H 253.201 -3.57051 -1.71261 0
M  V30 2677 H 254.375 -4.50017 0.991036 0
M  V30 2678 H 252.69 -4.09764 0.740407 0
M  V30 2679 H 255.287 -5.0019 -1.8898 0
M  V30 2680 H 255.63 -3.37789 -2.43319 0
M  V30 2681 H 256.163 -3.8937 -0.814611 0
M  V30 2682 H 252.902 -6.52559 0.620236 0
M  V30 2683 H 252.422 -5.91729 -0.980676 0
M  V30 2684 H 254.101 -6.43352 -0.686067 0
M  V30 2685 N 254.233 0.115231 -1.57178 0
M  V30 2686 C 255.163 1.1423 -2.03651 0
M  V30 2687 C 256.144 1.42967 -0.921655 0
M  V30 2688 O 257.329 1.53343 -1.19162 0
M  V30 2689 C 254.459 2.4675 -2.44401 0
M  V30 2690 C 253.413 2.32467 -3.59365 0
M  V30 2691 C 252.739 3.69984 -3.86026 0
M  V30 2692 C 254.039 1.78203 -4.90959 0
M  V30 2693 H 255.733 0.755749 -2.89705 0
M  V30 2694 H 253.279 0.362093 -1.39373 0
M  V30 2695 H 255.232 3.18854 -2.75517 0
M  V30 2696 H 253.956 2.87302 -1.55322 0
M  V30 2697 H 252.615 1.62811 -3.28463 0
M  V30 2698 H 252.263 4.08028 -2.94147 0
M  V30 2699 H 251.963 3.61279 -4.63412 0
M  V30 2700 H 253.487 4.43587 -4.19599 0
M  V30 2701 H 254.901 2.40128 -5.20587 0
M  V30 2702 H 253.298 1.8031 -5.72371 0
M  V30 2703 H 254.368 0.739876 -4.79222 0
M  V30 2704 N 255.711 1.52812 0.385517 0
M  V30 2705 C 256.936 1.72207 1.15583 0
M  V30 2706 C 257.361 0.441034 1.82857 0
M  V30 2707 O 256.719 -0.603465 1.70962 0
M  V30 2708 C 256.767 2.87476 2.17692 0
M  V30 2709 O 255.871 2.54693 3.24354 0
M  V30 2710 H 255.212 0.572526 0.336319 0
M  V30 2711 H 257.742 1.99618 0.448744 0
M  V30 2712 H 257.752 3.13072 2.6163 0
M  V30 2713 H 256.427 3.80408 1.68115 0
M  V30 2714 H 255.004 2.3985 2.85529 0
M  V30 2715 N 257.189 -0.644168 1.43834 0
M  V30 2716 C 258.435 -1.40603 1.46146 0
M  V30 2717 C 258.768 -1.93997 0.0887717 0
M  V30 2718 O 258.043 -1.72854 -0.891724 0
M  V30 2719 C 258.326 -2.58086 2.51124 0
M  V30 2720 C 258.179 -2.10126 3.97702 0
M  V30 2721 C 259.498 -3.60291 2.52742 0
M  V30 2722 H 256.617 -0.509905 0.532134 0
M  V30 2723 H 259.259 -0.729502 1.75437 0
M  V30 2724 H 257.409 -3.15801 2.26278 0
M  V30 2725 H 259.081 -1.57342 4.33637 0
M  V30 2726 H 257.324 -1.41419 4.10101 0
M  V30 2727 H 257.995 -2.94649 4.66783 0
M  V30 2728 H 260.471 -3.12352 2.7491 0
M  V30 2729 H 259.347 -4.40032 3.28121 0
M  V30 2730 H 259.608 -4.1349 1.56455 0
M  V30 2731 N 258.668 -1.30515 -0.883378 0
M  V30 2732 C 259.631 -1.1701 -1.97082 0
M  V30 2733 C 260.631 -0.10089 -1.60483 0
M  V30 2734 O 261.821 -0.349127 -1.70666 0
M  V30 2735 C 258.953 -0.793045 -3.31547 0
M  V30 2736 H 260.146 -2.13622 -2.10489 0
M  V30 2737 H 257.699 -1.13935 -1.06998 0
M  V30 2738 H 258.434 0.172499 -3.23841 0
M  V30 2739 H 258.219 -1.56576 -3.5948 0
M  V30 2740 H 259.709 -0.722073 -4.1131 0
M  V30 2741 N 260.146 1.09593 -1.13257 0
M  V30 2742 C 261.371 1.8604 -0.916732 0
M  V30 2743 C 261.796 1.80504 0.529146 0
M  V30 2744 O 261.154 1.18127 1.37534 0
M  V30 2745 C 261.202 3.32017 -1.40703 0
M  V30 2746 O 260.306 4.08141 -0.591153 0
M  V30 2747 H 259.647 0.576943 -0.328683 0
M  V30 2748 H 262.177 1.38405 -1.50682 0
M  V30 2749 H 262.187 3.82865 -1.4099 0
M  V30 2750 H 260.862 3.35361 -2.45979 0
M  V30 2751 H 259.439 3.67084 -0.656005 0
M  V30 2752 N 261.624 0.925811 1.2754 0
M  V30 2753 C 262.87 0.566092 1.94739 0
M  V30 2754 C 263.203 -0.890057 1.72603 0
M  V30 2755 O 262.478 -1.63467 1.05399 0
M  V30 2756 C 262.761 0.89054 3.48915 0
M  V30 2757 C 262.614 2.4003 3.80402 0
M  V30 2758 C 263.933 0.395101 4.38323 0
M  V30 2759 H 261.052 0.20714 0.707292 0
M  V30 2760 H 263.694 1.15725 1.50691 0
M  V30 2761 H 261.844 0.387452 3.86563 0
M  V30 2762 H 263.516 2.97494 3.52555 0
M  V30 2763 H 261.759 2.85028 3.2702 0
M  V30 2764 H 262.43 2.57785 4.8811 0
M  V30 2765 H 264.906 0.826241 4.07814 0
M  V30 2766 H 263.782 0.651086 5.45025 0
M  V30 2767 H 264.043 -0.704798 4.36446 0
M  V30 2768 N 263.102 -1.41638 0.69111 0
M  V30 2769 C 264.518 -1.55435 0.362224 0
M  V30 2770 C 264.718 -1.66754 -1.13117 0
M  V30 2771 O 263.774 -1.64348 -1.91692 0
M  V30 2772 C 265.087 -2.79588 1.10684 0
M  V30 2773 C 266.635 -2.9338 1.09075 0
M  V30 2774 C 267.11 -4.20414 1.81703 0
M  V30 2775 N 268.601 -4.27362 1.7865 0
M  V30 2776 C 269.336 -5.24507 2.31689 0
M  V30 2777 N 268.832 -6.27708 2.93179 0
M  V30 2778 N 270.625 -5.16416 2.2197 0
M  V30 2779 H 262.776 -1.32536 1.65976 0
M  V30 2780 H 265.039 -0.639115 0.700168 0
M  V30 2781 H 264.745 -2.77419 2.16175 0
M  V30 2782 H 264.619 -3.70973 0.682545 0
M  V30 2783 H 267.006 -2.95067 0.0441238 0
M  V30 2784 H 267.087 -2.0318 1.55407 0
M  V30 2785 H 266.731 -4.19488 2.86343 0
M  V30 2786 H 266.661 -5.09578 1.32808 0
M  V30 2787 H 269.152 -3.53415 1.33815 0
M  V30 2788 H 269.465 -6.98217 3.31229 0
M  V30 2789 H 267.81 -6.28223 2.97255 0
M  V30 2790 H 271.001 -4.34716 1.73607 0
M  V30 2791 H 271.174 -5.91958 2.63609 0
M  V30 2792 N 264.58 -0.43555 -1.51462 0
M  V30 2793 C 265.991 0.0279871 -1.86679 0
M  V30 2794 C 266.342 1.42104 -1.35281 0
M  V30 2795 O 265.467 2.04667 -0.702878 0
M  V30 2796 C 266.062 0.0575626 -3.38751 0
M  V30 2797 C 264.621 0.465507 -3.7351 0
M  V30 2798 C 263.768 -0.342996 -2.75171 0
M  V30 2799 H 266.719 -0.651473 -1.44712 0
M  V30 2800 H 266.74 0.867421 -3.70481 0
M  V30 2801 H 266.252 -0.956448 -3.7613 0
M  V30 2802 H 264.353 1.48519 -3.41721 0
M  V30 2803 H 264.466 0.191546 -4.78717 0
M  V30 2804 H 262.83 0.198442 -2.53926 0
M  V30 2805 H 263.613 -1.35585 -3.15391 0
M  V30 2806 N 266.058 1.56714 -0.166846 0
M  V30 2807 C 267.021 2.16539 0.751232 0
M  V30 2808 C 268.021 1.11228 1.16125 0
M  V30 2809 O 269.211 1.36765 1.07894 0
M  V30 2810 C 266.343 2.74462 2.02196 0
M  V30 2811 H 267.536 2.99013 0.230499 0
M  V30 2812 H 265.089 1.56081 0.0826982 0
M  V30 2813 H 265.824 1.95709 2.58589 0
M  V30 2814 H 265.609 3.51527 1.73698 0
M  V30 2815 H 267.099 3.20489 2.67725 0
M  V30 2816 N 267.536 -0.106894 1.57237 0
M  V30 2817 C 268.782 -0.81373 1.85759 0
M  V30 2818 C 269.115 -1.78952 0.754315 0
M  V30 2819 O 268.39 -1.93029 -0.23879 0
M  V30 2820 C 268.673 -1.55293 3.24894 0
M  V30 2821 C 268.526 -0.595929 4.45835 0
M  V30 2822 C 269.845 -2.5063 3.61763 0
M  V30 2823 H 266.964 -0.294369 0.67566 0
M  V30 2824 H 269.606 -0.0776472 1.89841 0
M  V30 2825 H 267.756 -2.1804 3.21544 0
M  V30 2826 H 269.428 0.0236262 4.61294 0
M  V30 2827 H 267.671 0.0916191 4.33703 0
M  V30 2828 H 268.342 -1.15004 5.39887 0
M  V30 2829 H 270.818 -1.97982 3.65981 0
M  V30 2830 H 269.694 -2.99376 4.60071 0
M  V30 2831 H 269.955 -3.3385 2.89821 0
M  V30 2832 N 269.014 -1.53014 -0.377408 0
M  V30 2833 C 269.944 -1.81589 -1.46791 0
M  V30 2834 C 270.925 -0.668622 -1.56408 0
M  V30 2835 O 272.11 -0.917337 -1.71168 0
M  V30 2836 C 269.24 -1.99519 -2.8427 0
M  V30 2837 C 268.194 -3.15249 -2.89486 0
M  V30 2838 C 267.52 -3.18451 -4.29527 0
M  V30 2839 C 268.82 -4.54084 -2.58079 0
M  V30 2840 H 270.514 -2.7291 -1.23127 0
M  V30 2841 H 268.06 -1.31319 -0.590883 0
M  V30 2842 H 270.013 -2.18092 -3.60575 0
M  V30 2843 H 268.737 -1.04897 -3.09296 0
M  V30 2844 H 267.396 -2.96477 -2.15631 0
M  V30 2845 H 267.044 -2.2149 -4.5161 0
M  V30 2846 H 266.744 -3.962 -4.33934 0
M  V30 2847 H 268.268 -3.39193 -5.07721 0
M  V30 2848 H 269.682 -4.72899 -3.24098 0
M  V30 2849 H 268.079 -5.33987 -2.7382 0
M  V30 2850 H 269.149 -4.60006 -1.53372 0
M  V30 2851 N 270.492 0.636531 -1.44174 0
M  V30 2852 C 271.424 1.7618 -1.46606 0
M  V30 2853 C 272.437 1.58768 -0.360091 0
M  V30 2854 O 273.626 1.67181 -0.625518 0
M  V30 2855 C 270.726 3.13833 -1.27915 0
M  V30 2856 C 269.899 3.57753 -2.51658 0
M  V30 2857 C 268.958 4.74265 -2.27945 0
M  V30 2858 O 267.984 4.82852 -3.01401 0
M  V30 2859 N 269.186 5.65604 -1.30662 0
M  V30 2860 H 271.951 1.74567 -2.43612 0
M  V30 2861 H 269.512 0.820924 -1.39544 0
M  V30 2862 H 271.504 3.8949 -1.09907 0
M  V30 2863 H 270.074 3.10121 -0.39293 0
M  V30 2864 H 269.294 2.72362 -2.84978 0
M  V30 2865 H 270.582 3.83847 -3.33974 0
M  V30 2866 H 269.98 5.61354 -0.699844 0
M  V30 2867 H 268.537 6.40913 -1.18634 0
M  V30 2868 N 271.97 1.30982 0.876444 0
M  V30 2869 C 273.216 1.20474 1.63138 0
M  V30 2870 C 273.549 -0.238096 1.92735 0
M  V30 2871 O 272.824 -1.1692 1.55435 0
M  V30 2872 C 273.107 2.04244 2.96574 0
M  V30 2873 C 272.96 3.56793 2.73896 0
M  V30 2874 C 274.279 1.88684 3.97601 0
M  V30 2875 H 271.398 0.439001 0.591985 0
M  V30 2876 H 274.04 1.60704 1.01361 0
M  V30 2877 H 272.19 1.70063 3.493 0
M  V30 2878 H 273.862 4.01077 2.27892 0
M  V30 2879 H 272.105 3.80548 2.08245 0
M  V30 2880 H 272.776 4.10706 3.68815 0
M  V30 2881 H 275.252 2.18584 3.54062 0
M  V30 2882 H 274.128 2.4961 4.88862 0
M  V30 2883 H 274.389 0.848343 4.33884 0
M  V30 2884 N 273.449 -1.08991 1.13837 0
M  V30 2885 C 274.359 -2.19301 0.833333 0
M  V30 2886 C 275.375 -1.73026 -0.183847 0
M  V30 2887 O 276.551 -2.01395 -0.0138092 0
M  V30 2888 C 273.616 -3.45323 0.308651 0
M  V30 2889 C 272.677 -4.06255 1.38764 0
M  V30 2890 C 271.91 -5.26262 0.887896 0
M  V30 2891 O 272.133 -5.69747 -0.27287 0
M  V30 2892 O 271.067 -5.78435 1.66421 0
M  V30 2893 H 274.893 -2.47854 1.75506 0
M  V30 2894 H 272.478 -1.18012 0.916166 0
M  V30 2895 H 274.36 -4.21394 0.0216739 0
M  V30 2896 H 273.035 -3.18362 -0.585431 0
M  V30 2897 H 271.942 -3.318 1.72799 0
M  V30 2898 H 273.275 -4.37452 2.25602 0
M  V30 2899 N 274.927 -0.932562 -1.27047 0
M  V30 2900 C 276.167 -0.582919 -1.95912 0
M  V30 2901 C 276.531 0.860629 -1.71631 0
M  V30 2902 O 277.732 1.31878 -2.34225 0
M  V30 2903 C 276.003 -0.905673 -3.45734 0
M  V30 2904 S 277.562 -0.665277 -4.33727 0
M  V30 2905 H 274.38 -0.215 -0.677714 0
M  V30 2906 H 276.982 -1.20204 -1.54179 0
M  V30 2907 H 275.686 -1.95386 -3.60905 0
M  V30 2908 H 275.217 -0.275939 -3.92431 0
M  V30 2909 H 277.232 0.474635 -4.93925 0
M  V30 2910 N 276.405 1.4127 -0.698611 0
M  V30 2911 C 277.355 2.27997 -0.0119836 0
M  V30 2912 C 278.339 1.42363 0.749765 0
M  V30 2913 O 279.531 1.65607 0.624758 0
M  V30 2914 C 276.66 3.30702 0.921458 0
M  V30 2915 C 275.746 4.23814 0.155796 0
M  V30 2916 N 276.137 4.98572 -0.852015 0
M  V30 2917 C 274.435 4.44284 0.390836 0
M  V30 2918 C 275.136 5.66744 -1.3106 0
M  V30 2919 N 274.112 5.39867 -0.635944 0
M  V30 2920 H 277.914 2.83232 -0.784649 0
M  V30 2921 H 275.428 1.53518 -0.529711 0
M  V30 2922 H 277.425 3.91661 1.42854 0
M  V30 2923 H 276.085 2.77028 1.69369 0
M  V30 2924 H 277.096 5.03024 -1.23235 0
M  V30 2925 H 273.773 4.01614 1.14071 0
M  V30 2926 H 275.163 6.36672 -2.14707 0
M  V30 2927 N 277.883 0.443576 1.51229 0
M  V30 2928 C 279.294 -0.0180867 1.86691 0
M  V30 2929 C 279.645 -1.41384 1.36033 0
M  V30 2930 O 278.77 -2.04291 0.713722 0
M  V30 2931 C 279.365 -0.039597 3.38777 0
M  V30 2932 C 277.924 -0.445692 3.73752 0
M  V30 2933 C 277.071 0.357584 2.74985 0
M  V30 2934 H 280.022 0.659138 1.44364 0
M  V30 2935 H 280.043 -0.847761 3.70936 0
M  V30 2936 H 279.555 0.976382 3.75617 0
M  V30 2937 H 277.656 -1.46704 3.42503 0
M  V30 2938 H 277.769 -0.166155 4.78812 0
M  V30 2939 H 276.133 -0.184973 2.54027 0
M  V30 2940 H 276.916 1.37256 3.14668 0
M  V30 2941 N 279.361 -1.56624 0.175154 0
M  V30 2942 C 280.591 -2.01082 -0.474283 0
M  V30 2943 C 280.999 -1.05447 -1.57091 0
M  V30 2944 O 280.342 -0.0480595 -1.83637 0
M  V30 2945 C 280.404 -3.41963 -1.10911 0
M  V30 2946 C 280.068 -4.56742 -0.153666 0
M  V30 2947 C 281.065 -5.16076 0.629448 0
M  V30 2948 C 278.75 -5.02277 -0.0483776 0
M  V30 2949 C 280.744 -6.19377 1.50501 0
M  V30 2950 C 278.431 -6.05427 0.830768 0
M  V30 2951 C 279.429 -6.63849 1.60605 0
M  V30 2952 O 279.117 -7.64998 2.47049 0
M  V30 2953 H 278.849 -0.664261 -0.125432 0
M  V30 2954 H 281.403 -2.03549 0.275163 0
M  V30 2955 H 279.633 -3.36422 -1.90676 0
M  V30 2956 H 281.322 -3.70352 -1.66114 0
M  V30 2957 H 282.088 -4.81776 0.558297 0
M  V30 2958 H 277.967 -4.56513 -0.641611 0
M  V30 2959 H 281.511 -6.64906 2.1106 0
M  V30 2960 H 277.408 -6.39151 0.903107 0
M  V30 2961 H 278.176 -7.82336 2.40607 0
M  V30 2962 N 280.839 0.0985539 -1.57292 0
M  V30 2963 C 281.769 1.12064 -2.04851 0
M  V30 2964 C 282.75 1.41981 -0.936767 0
M  V30 2965 O 283.935 1.52071 -1.20781 0
M  V30 2966 C 281.065 2.44144 -2.47004 0
M  V30 2967 C 280.019 2.28643 -3.6181 0
M  V30 2968 C 279.345 3.65869 -3.89929 0
M  V30 2969 C 280.645 1.72986 -4.92822 0
M  V30 2970 H 282.339 0.724979 -2.9049 0
M  V30 2971 H 279.885 0.34729 -1.39749 0
M  V30 2972 H 281.838 3.15914 -2.78884 0
M  V30 2973 H 280.562 2.85639 -1.5836 0
M  V30 2974 H 279.221 1.59318 -3.30172 0
M  V30 2975 H 278.869 4.04885 -2.98458 0
M  V30 2976 H 278.569 3.56344 -4.67218 0
M  V30 2977 H 280.093 4.39112 -4.2428 0
M  V30 2978 H 281.507 2.34593 -5.23105 0
M  V30 2979 H 279.904 1.74229 -5.74251 0
M  V30 2980 H 280.974 0.689007 -4.7998 0
M  V30 2981 N 282.317 1.53212 0.369288 0
M  V30 2982 C 283.28 1.7872 1.43498 0
M  V30 2983 C 284.28 0.657554 1.46741 0
M  V30 2984 O 285.47 0.925736 1.47566 0
M  V30 2985 C 282.602 1.90591 2.82645 0
M  V30 2986 H 283.795 2.73894 1.22156 0
M  V30 2987 H 281.348 1.44233 0.602203 0
M  V30 2988 H 282.083 0.974709 3.09306 0
M  V30 2989 H 281.868 2.72751 2.8169 0
M  V30 2990 H 283.358 2.11931 3.59826 0
M  V30 2991 N 283.795 -0.628877 1.44509 0
M  V30 2992 C 284.727 -1.754 1.47538 0
M  V30 2993 C 285.74 -1.58575 0.368506 0
M  V30 2994 O 286.929 -1.66847 0.634376 0
M  V30 2995 C 284.029 -3.1315 1.29577 0
M  V30 2996 C 283.202 -3.56413 2.53551 0
M  V30 2997 C 282.261 -4.7305 2.30457 0
M  V30 2998 O 281.287 -4.81247 3.03957 0
M  V30 2999 N 282.489 -5.64903 1.3366 0
M  V30 3000 H 285.254 -1.73272 2.44534 0
M  V30 3001 H 282.815 -0.813512 1.39977 0
M  V30 3002 H 284.807 -3.88902 1.11971 0
M  V30 3003 H 283.377 -3.09908 0.409371 0
M  V30 3004 H 282.597 -2.70847 2.86419 0
M  V30 3005 H 283.885 -3.82071 3.36005 0
M  V30 3006 H 283.283 -5.60975 0.729604 0
M  V30 3007 H 281.84 -6.40275 1.22032 0
M  V30 3008 N 285.273 -1.31445 -0.869486 0
M  V30 3009 C 286.221 -1.19067 -1.99814 0
M  V30 3010 C 287.215 -0.0988569 -1.69111 0
M  V30 3011 O 288.421 -0.260781 -1.78101 0
M  V30 3012 H 284.796 -0.368677 -0.655425 0
M  V30 3013 H 286.767 -2.14555 -2.07385 0
M  V30 3014 C 285.516 -0.915323 -3.35436 0
M  V30 3015 H 284.839 -1.74759 -3.59582 0
M  V30 3016 H 286.279 -0.868895 -4.15001 0
M  V30 3017 C 284.738 0.381928 -3.34728 0
M  V30 3018 O 285.268 1.39857 -3.76567 0
M  V30 3019 N 283.474 0.398633 -2.87853 0
M  V30 3020 H 283.021 -0.429186 -2.54 0
M  V30 3021 H 282.979 1.26651 -2.87762 0
M  V30 3022 N 286.751 1.08385 -1.14413 0
M  V30 3023 C 287.661 2.18856 -0.844951 0
M  V30 3024 C 288.677 1.73121 0.174668 0
M  V30 3025 O 289.853 2.014 0.00312857 0
M  V30 3026 C 286.918 3.45155 -0.32696 0
M  V30 3027 C 285.979 4.05513 -1.40916 0
M  V30 3028 C 285.212 5.25784 -0.915793 0
M  V30 3029 O 285.435 5.69884 0.242651 0
M  V30 3030 O 284.369 5.77545 -1.69487 0
M  V30 3031 H 288.195 2.46919 -1.76818 0
M  V30 3032 H 285.78 1.17524 -0.922411 0
M  V30 3033 H 287.662 4.21377 -0.0440211 0
M  V30 3034 H 286.337 3.18668 0.568539 0
M  V30 3035 H 285.244 3.30879 -1.74556 0
M  V30 3036 H 286.577 4.3625 -2.27919 0
M  V30 3037 N 288.23 0.939286 1.26551 0
M  V30 3038 C 289.16 0.465044 2.28822 0
M  V30 3039 C 290.141 -0.480692 1.63167 0
M  V30 3040 O 291.326 -0.382955 1.90387 0
M  V30 3041 C 288.456 -0.27234 3.46231 0
M  V30 3042 C 287.41 0.58666 4.2396 0
M  V30 3043 C 286.736 -0.280573 5.33963 0
M  V30 3044 C 288.036 1.85704 4.88171 0
M  V30 3045 H 289.73 1.31979 2.68741 0
M  V30 3046 H 287.276 0.636061 1.29191 0
M  V30 3047 H 289.229 -0.615133 4.16886 0
M  V30 3048 H 287.953 -1.16121 3.0526 0
M  V30 3049 H 286.612 0.91232 3.55067 0
M  V30 3050 H 286.26 -1.16874 4.89234 0
M  V30 3051 H 285.96 0.29076 5.8688 0
M  V30 3052 H 287.484 -0.618678 6.07458 0
M  V30 3053 H 288.898 1.58161 5.51052 0
M  V30 3054 H 287.295 2.37279 5.51197 0
M  V30 3055 H 288.365 2.56957 4.11219 0
M  V30 3056 N 289.708 -1.40897 0.706093 0
M  V30 3057 C 290.957 -2.00284 0.238574 0
M  V30 3058 C 291.27 -1.56604 -1.17194 0
M  V30 3059 O 292.476 -2.08624 -1.73748 0
M  V30 3060 C 290.932 -3.57934 0.375623 0
M  V30 3061 C 290.54 -4.10591 1.79217 0
M  V30 3062 C 292.284 -4.24488 -0.0315857 0
M  V30 3063 C 290.191 -5.60712 1.88032 0
M  V30 3064 H 289.121 -0.749144 0.0854398 0
M  V30 3065 H 291.772 -1.61251 0.875813 0
M  V30 3066 H 290.154 -3.94622 -0.330042 0
M  V30 3067 H 291.328 -3.85301 2.52745 0
M  V30 3068 H 289.643 -3.56601 2.15 0
M  V30 3069 H 292.24 -5.34698 0.0136842 0
M  V30 3070 H 292.583 -4.02261 -1.072 0
M  V30 3071 H 293.116 -3.92873 0.624181 0
M  V30 3072 H 289.855 -5.87781 2.90161 0
M  V30 3073 H 289.375 -5.87896 1.18903 0
M  V30 3074 H 291.054 -6.25658 1.64805 0
M  V30 3075 N 291.186 -0.45159 -1.50991 0
M  V30 3076 C 292.149 0.341117 -2.26647 0
M  V30 3077 C 293.149 0.937422 -1.30649 0
M  V30 3078 O 294.339 0.809644 -1.54241 0
M  V30 3079 C 291.471 1.48398 -3.06905 0
M  V30 3080 H 292.664 -0.322117 -2.98165 0
M  V30 3081 H 290.217 -0.205122 -1.54948 0
M  V30 3082 H 290.952 2.18284 -2.39838 0
M  V30 3083 H 290.737 1.06241 -3.77432 0
M  V30 3084 H 292.227 2.04367 -3.64176 0
M  V30 3085 N 292.664 1.56529 -0.183458 0
M  V30 3086 C 293.614 2.1515 0.754605 0
M  V30 3087 C 294.598 1.08904 1.18443 0
M  V30 3088 O 295.79 1.34997 1.14476 0
M  V30 3089 C 292.919 2.80531 1.97881 0
M  V30 3090 C 292.005 3.93952 1.57043 0
M  V30 3091 N 292.396 4.98221 0.87231 0
M  V30 3092 C 290.694 4.05338 1.86057 0
M  V30 3093 C 291.395 5.77836 0.669377 0
M  V30 3094 N 290.371 5.29858 1.21454 0
M  V30 3095 H 294.173 2.93132 0.212387 0
M  V30 3096 H 291.687 1.62391 0.0167725 0
M  V30 3097 H 293.684 3.20914 2.6612 0
M  V30 3098 H 292.344 2.04035 2.52586 0
M  V30 3099 H 293.355 5.15191 0.529033 0
M  V30 3100 H 290.032 3.39957 2.42354 0
M  V30 3101 H 291.422 6.71799 0.116422 0
M  V30 3102 N 294.142 -0.090211 1.57342 0
M  V30 3103 C 295.382 -0.798365 1.88163 0
M  V30 3104 C 295.746 -1.75662 0.775046 0
M  V30 3105 O 296.947 -2.50849 0.965816 0
M  V30 3106 C 295.218 -1.50376 3.24225 0
M  V30 3107 S 296.777 -2.24952 3.76752 0
M  V30 3108 H 293.595 -0.265883 0.659414 0
M  V30 3109 H 296.197 -0.055264 1.95422 0
M  V30 3110 H 294.901 -0.792286 4.0268 0
M  V30 3111 H 294.432 -2.28666 3.20118 0
M  V30 3112 H 296.447 -3.51173 3.5056 0
M  V30 3113 N 295.62 -1.53406 -0.361157 0
M  V30 3114 C 296.552 -1.76446 -1.46286 0
M  V30 3115 C 297.565 -0.645322 -1.49464 0
M  V30 3116 O 298.754 -0.921681 -1.52864 0
M  V30 3117 C 295.854 -1.83332 -2.85031 0
M  V30 3118 C 295.027 -3.13033 -3.05498 0
M  V30 3119 C 294.086 -3.11104 -4.24383 0
M  V30 3120 O 293.112 -3.84888 -4.19344 0
M  V30 3121 N 294.314 -2.32234 -5.32022 0
M  V30 3122 H 297.079 -2.71508 -1.26899 0
M  V30 3123 H 294.64 -1.52238 -0.550915 0
M  V30 3124 H 296.632 -1.79514 -3.62708 0
M  V30 3125 H 295.202 -0.955342 -2.97644 0
M  V30 3126 H 294.422 -3.30119 -2.15442 0
M  V30 3127 H 295.71 -3.9874 -3.16044 0
M  V30 3128 H 295.108 -1.71807 -5.38979 0
M  V30 3129 H 293.665 -2.3423 -6.08259 0
M  V30 3130 N 297.098 0.621204 -1.44841 0
M  V30 3131 C 298.061 1.71459 -1.521 0
M  V30 3132 C 299.061 1.55696 -0.401933 0
M  V30 3133 O 300.251 1.61011 -0.664925 0
M  V30 3134 C 297.383 3.10624 -1.40447 0
M  V30 3135 H 298.576 1.66394 -2.49506 0
M  V30 3136 H 296.129 0.835745 -1.3208 0
M  V30 3137 H 296.864 3.21277 -0.441737 0
M  V30 3138 H 296.649 3.23473 -2.21602 0
M  V30 3139 H 298.139 3.90293 -1.4853 0
M  V30 3140 N 298.576 1.31904 0.862503 0
M  V30 3141 C 299.992 1.10724 1.14945 0
M  V30 3142 C 300.192 -0.117421 2.01158 0
M  V30 3143 O 299.248 -0.804595 2.39338 0
M  V30 3144 C 300.561 2.38267 1.83437 0
M  V30 3145 C 302.109 2.43949 1.96106 0
M  V30 3146 C 302.584 3.71394 2.68013 0
M  V30 3147 N 304.075 3.72331 2.75543 0
M  V30 3148 C 304.81 4.67641 3.31812 0
M  V30 3149 N 304.306 5.73313 3.88953 0
M  V30 3150 N 306.099 4.5515 3.29841 0
M  V30 3151 H 298.25 2.10436 0.288191 0
M  V30 3152 H 300.513 0.928705 0.190292 0
M  V30 3153 H 300.219 3.27759 1.27542 0
M  V30 3154 H 300.093 2.48633 2.83657 0
M  V30 3155 H 302.48 1.54922 2.51164 0
M  V30 3156 H 302.561 2.37543 0.949059 0
M  V30 3157 H 302.205 4.60791 2.13621 0
M  V30 3158 H 302.135 3.75069 3.69636 0
M  V30 3159 H 304.626 2.95947 2.34997 0
M  V30 3160 H 304.939 6.42107 4.30022 0
M  V30 3161 H 303.284 5.77077 3.87308 0
M  V30 3162 H 306.475 3.71766 2.84443 0
M  V30 3163 H 306.648 5.29604 3.73394 0
M  V30 3164 N 300.054 -1.07777 1.14986 0
M  V30 3165 C 301.302 -1.79934 0.920235 0
M  V30 3166 C 301.623 -1.86955 -0.554336 0
M  V30 3167 O 300.893 -1.36731 -1.40291 0
M  V30 3168 H 299.473 -0.666424 0.337473 0
M  V30 3169 H 302.135 -1.3027 1.44968 0
M  V30 3170 H 301.231 -2.82539 1.32583 0
M  V30 3171 N 301.532 -0.945985 -1.26051 0
M  V30 3172 C 302.462 -0.477172 -2.28572 0
M  V30 3173 C 303.443 0.472032 -1.63419 0
M  V30 3174 O 304.628 0.372853 -1.90587 0
M  V30 3175 C 301.758 0.253975 -3.4637 0
M  V30 3176 C 300.712 -0.609135 -4.23643 0
M  V30 3177 C 300.038 0.252252 -5.34105 0
M  V30 3178 C 301.338 -1.8829 -4.8718 0
M  V30 3179 H 303.032 -1.33402 -2.68038 0
M  V30 3180 H 300.578 -0.642904 -1.28852 0
M  V30 3181 H 302.531 0.593016 -4.17207 0
M  V30 3182 H 301.255 1.145 -3.05871 0
M  V30 3183 H 299.914 -0.931138 -3.54578 0
M  V30 3184 H 299.562 1.14278 -4.89846 0
M  V30 3185 H 299.262 -0.32188 -5.86718 0
M  V30 3186 H 300.786 0.586454 -6.07777 0
M  V30 3187 H 302.2 -1.61081 -5.50205 0
M  V30 3188 H 300.597 -2.40199 -5.49931 0
M  V30 3189 H 301.667 -2.59134 -4.09851 0
M  V30 3190 N 303.011 1.40521 -0.713556 0
M  V30 3191 C 303.921 2.34522 -0.0606667 0
M  V30 3192 C 304.937 1.57193 0.74607 0
M  V30 3193 O 306.113 1.89591 0.679493 0
M  V30 3194 C 303.178 3.36081 0.851491 0
M  V30 3195 C 302.239 4.29286 0.0349339 0
M  V30 3196 C 301.472 5.25994 0.903649 0
M  V30 3197 O 301.695 5.28616 2.14292 0
M  V30 3198 O 300.629 6.00918 0.343723 0
M  V30 3199 H 304.455 2.91968 -0.835972 0
M  V30 3200 H 302.04 1.41681 -0.47402 0
M  V30 3201 H 303.922 3.98369 1.37404 0
M  V30 3202 H 302.597 2.81052 1.60598 0
M  V30 3203 H 301.504 3.70289 -0.532633 0
M  V30 3204 H 302.837 4.87462 -0.681287 0
M  V30 3205 N 304.489 0.459591 1.5075 0
M  V30 3206 C 305.735 -0.0994966 2.02556 0
M  V30 3207 C 306.068 -1.40399 1.3417 0
M  V30 3208 O 305.343 -1.88892 0.463683 0
M  V30 3209 C 305.626 -0.295242 3.58888 0
M  V30 3210 C 305.479 1.02947 4.37861 0
M  V30 3211 C 306.798 -1.05502 4.27267 0
M  V30 3212 H 303.917 -0.034686 0.736183 0
M  V30 3213 H 306.559 0.602938 1.8018 0
M  V30 3214 H 304.709 -0.893563 3.78084 0
M  V30 3215 H 306.381 1.66348 4.30263 0
M  V30 3216 H 304.624 1.62885 4.02058 0
M  V30 3217 H 305.295 0.846281 5.45474 0
M  V30 3218 H 307.771 -0.547993 4.12476 0
M  V30 3219 H 306.647 -1.16077 5.36486 0
M  V30 3220 H 306.908 -2.08875 3.89645 0
M  V30 3221 N 305.967 -1.56429 0.191757 0
M  V30 3222 C 307.195 -2.01867 -0.453586 0
M  V30 3223 C 307.61 -1.07191 -1.5542 0
M  V30 3224 O 306.967 -0.0762108 -1.82341 0
M  V30 3225 C 307.018 -3.47017 -1.013 0
M  V30 3226 O 306.739 -4.38078 0.0437005 0
M  V30 3227 C 308.24 -4.07956 -1.73456 0
M  V30 3228 H 305.46 -0.661211 -0.114199 0
M  V30 3229 H 308.004 -2.02295 0.299483 0
M  V30 3230 H 306.159 -3.47298 -1.71647 0
M  V30 3231 H 306.573 -5.23178 -0.372212 0
M  V30 3232 H 308.047 -5.1138 -2.07833 0
M  V30 3233 H 308.524 -3.51222 -2.63704 0
M  V30 3234 H 309.13 -4.11437 -1.07702 0
M  V30 3235 N 307.445 0.0818655 -1.57387 0
M  V30 3236 C 308.408 1.08265 -2.02018 0
M  V30 3237 C 309.408 1.32183 -0.915664 0
M  V30 3238 O 310.598 1.28073 -1.18081 0
M  V30 3239 C 307.73 2.42871 -2.39221 0
M  V30 3240 H 308.923 0.698204 -2.91659 0
M  V30 3241 H 306.476 0.327303 -1.52835 0
M  V30 3242 H 307.211 2.86167 -1.52575 0
M  V30 3243 H 306.996 2.26855 -3.19811 0
M  V30 3244 H 308.486 3.14826 -2.74362 0
M  V30 3245 N 308.923 1.53595 0.353017 0
M  V30 3246 C 310.153 1.74058 1.11299 0
M  V30 3247 C 310.561 0.475205 1.83135 0
M  V30 3248 O 309.904 -0.562344 1.74881 0
M  V30 3249 C 309.966 2.85994 2.17825 0
M  V30 3250 C 309.63 4.25923 1.65647 0
M  V30 3251 C 310.627 5.07829 1.11383 0
M  V30 3252 C 308.312 4.72377 1.7078 0
M  V30 3253 C 310.306 6.34285 0.629439 0
M  V30 3254 C 307.993 5.98808 1.21953 0
M  V30 3255 C 308.991 6.79594 0.681265 0
M  V30 3256 O 308.679 8.03651 0.200248 0
M  V30 3257 H 308.411 0.585327 0.338183 0
M  V30 3258 H 310.965 2.01186 0.413927 0
M  V30 3259 H 309.195 2.54368 2.91262 0
M  V30 3260 H 310.884 2.94515 2.79313 0
M  V30 3261 H 311.65 4.73107 1.06746 0
M  V30 3262 H 307.529 4.0956 2.11617 0
M  V30 3263 H 311.073 6.97288 0.208636 0
M  V30 3264 H 306.97 6.33026 1.26287 0
M  V30 3265 H 307.738 8.1788 0.318416 0
M  V30 3266 N 310.401 -0.613514 1.45168 0
M  V30 3267 C 311.626 -1.40437 1.52618 0
M  V30 3268 C 312.051 -1.87438 0.157707 0
M  V30 3269 O 311.409 -1.59791 -0.856537 0
M  V30 3270 C 311.457 -2.58894 2.51011 0
M  V30 3271 O 310.561 -3.59326 2.02382 0
M  V30 3272 H 309.902 -0.419506 0.514695 0
M  V30 3273 H 312.432 -0.747215 1.90467 0
M  V30 3274 H 312.442 -3.06214 2.69624 0
M  V30 3275 H 311.117 -2.24032 3.50403 0
M  V30 3276 H 309.694 -3.18695 1.93618 0
M  V30 3277 N 311.879 -1.3236 -0.855495 0
M  V30 3278 C 313.29 -1.2056 -1.42556 0
M  V30 3279 C 313.641 0.182209 -1.95352 0
M  V30 3280 O 312.766 1.08088 -1.87472 0
M  V30 3281 C 313.361 -2.1826 -2.59129 0
M  V30 3282 C 311.92 -2.10351 -3.12137 0
M  V30 3283 C 311.067 -2.06674 -1.84882 0
M  V30 3284 H 314.018 -1.442 -0.662727 0
M  V30 3285 H 314.039 -1.78064 -3.36264 0
M  V30 3286 H 313.551 -3.19257 -2.20673 0
M  V30 3287 H 311.652 -1.12599 -3.55179 0
M  V30 3288 H 311.765 -3.00135 -3.73438 0
M  V30 3289 H 310.129 -1.51901 -2.04446 0
M  V30 3290 H 310.912 -3.09451 -1.48643 0
M  V30 3291 N 313.357 1.07166 -1.15556 0
M  V30 3292 C 314.287 2.16403 -0.877046 0
M  V30 3293 C 315.268 1.69217 0.173111 0
M  V30 3294 O 316.453 1.94181 0.027084 0
M  V30 3295 C 313.583 3.45349 -0.367632 0
M  V30 3296 C 312.537 4.05995 -1.35468 0
M  V30 3297 C 311.863 5.30045 -0.704038 0
M  V30 3298 C 313.163 4.45804 -2.72132 0
M  V30 3299 H 314.857 2.39959 -1.79053 0
M  V30 3300 H 312.403 1.15325 -0.862331 0
M  V30 3301 H 314.356 4.21095 -0.160317 0
M  V30 3302 H 313.08 3.21385 0.581326 0
M  V30 3303 H 311.739 3.32296 -1.54839 0
M  V30 3304 H 311.387 5.02373 0.251128 0
M  V30 3305 H 311.087 5.71579 -1.36277 0
M  V30 3306 H 312.611 6.08495 -0.50654 0
M  V30 3307 H 314.025 5.12671 -2.56595 0
M  V30 3308 H 312.422 4.98296 -3.34397 0
M  V30 3309 H 313.492 3.57083 -3.28054 0
M  V30 3310 N 314.835 0.952656 1.25548 0
M  V30 3311 C 316.083 0.605176 1.92826 0
M  V30 3312 C 316.404 -0.860261 1.74999 0
M  V30 3313 O 315.674 -1.6125 1.11244 0
M  V30 3314 H 314.254 0.220832 0.713612 0
M  V30 3315 H 316.916 1.21047 1.52754 0
M  V30 3316 H 316.012 0.832798 3.00784 0
M  V30 3317 N 316.313 -1.40141 0.720998 0
M  V30 3318 C 317.538 -2.05618 0.271258 0
M  V30 3319 C 317.963 -1.53978 -1.08039 0
M  V30 3320 O 317.321 -0.677463 -1.68167 0
M  V30 3321 C 317.369 -3.59609 0.267197 0
M  V30 3322 O 316.473 -4.05526 -0.749814 0
M  V30 3323 H 315.814 -0.651904 0.126162 0
M  V30 3324 H 318.344 -1.79439 0.982997 0
M  V30 3325 H 318.354 -4.0786 0.106744 0
M  V30 3326 H 317.029 -3.96559 1.25354 0
M  V30 3327 H 315.606 -3.68722 -0.556644 0
M  V30 3328 N 317.792 -0.46758 -1.50504 0
M  V30 3329 C 319.017 0.0886943 -2.0721 0
M  V30 3330 C 319.442 1.33057 -1.32956 0
M  V30 3331 O 318.8 1.77354 -0.376197 0
M  V30 3332 C 318.848 0.359202 -3.58806 0
M  V30 3333 O 317.952 1.44034 -3.8643 0
M  V30 3334 H 317.293 -0.0114349 -0.663902 0
M  V30 3335 H 319.823 -0.657613 -1.93744 0
M  V30 3336 H 319.833 0.600742 -4.03553 0
M  V30 3337 H 318.508 -0.548311 -4.1227 0
M  V30 3338 H 317.085 1.18638 -3.53524 0
M  V30 3339 N 319.27 1.56325 -0.20005 0
M  V30 3340 C 320.547 1.89484 0.48529 0
M  V30 3341 C 320.927 1.1143 1.79294 0
M  V30 3342 O 320.275 0.216919 2.27468 0
M  V30 3343 C 320.485 3.41923 0.699243 0
M  V30 3344 C 321.833 4.12256 1.01638 0
M  V30 3345 O 322.857 3.47402 0.786792 0
M  V30 3346 O 321.716 5.26887 1.45095 0
M  V30 3347 H 318.81 0.787144 0.253639 0
M  V30 3348 H 321.356 1.67985 -0.240633 0
M  V30 3349 H 320.128 3.90658 -0.224008 0
M  V30 3350 H 319.751 3.69131 1.47744 0
M  V30 3351 N 320.748 -0.0735177 1.57428 0
M  V30 3352 C 322.164 -0.428264 1.53747 0
M  V30 3353 C 322.364 -1.79272 0.91998 0
M  V30 3354 O 321.42 -2.47051 0.521745 0
M  V30 3355 C 322.733 -0.370914 2.98404 0
M  V30 3356 C 324.281 -0.451224 3.0973 0
M  V30 3357 C 324.756 -0.4238 4.56035 0
M  V30 3358 N 326.247 -0.483925 4.60665 0
M  V30 3359 C 326.982 -0.484891 5.71346 0
M  V30 3360 N 326.478 -0.440775 6.91396 0
M  V30 3361 N 328.271 -0.531319 5.59583 0
M  V30 3362 H 320.422 0.819949 1.95935 0
M  V30 3363 H 322.685 0.307493 0.896745 0
M  V30 3364 H 322.391 0.564956 3.47133 0
M  V30 3365 H 322.265 -1.18176 3.5821 0
M  V30 3366 H 324.652 -1.37752 2.60976 0
M  V30 3367 H 324.733 0.388167 2.52838 0
M  V30 3368 H 324.377 0.498638 5.05446 0
M  V30 3369 H 324.307 -1.2807 5.10789 0
M  V30 3370 H 326.798 -0.522338 3.74273 0
M  V30 3371 H 327.111 -0.44539 7.71515 0
M  V30 3372 H 325.456 -0.40749 6.93804 0
M  V30 3373 H 328.647 -0.563464 4.64696 0
M  V30 3374 H 328.82 -0.528603 6.4584 0
M  V30 3375 N 322.226 -1.5378 -0.344866 0
M  V30 3376 C 323.189 -1.80981 -1.40637 0
M  V30 3377 C 324.189 -0.680816 -1.45676 0
M  V30 3378 O 325.379 -0.949095 -1.46075 0
M  V30 3379 C 322.511 -1.95063 -2.79577 0
M  V30 3380 H 323.704 -2.75803 -1.17783 0
M  V30 3381 H 321.257 -1.45173 -0.579181 0
M  V30 3382 H 321.992 -1.02379 -3.07716 0
M  V30 3383 H 321.777 -2.77198 -2.77315 0
M  V30 3384 H 323.267 -2.17629 -3.56409 0
M  V30 3385 N 323.704 0.605807 -1.45491 0
M  V30 3386 C 324.95 1.36481 -1.50813 0
M  V30 3387 C 325.305 1.91826 -0.148469 0
M  V30 3388 O 324.598 1.72211 0.839869 0
M  V30 3389 C 324.792 2.53012 -2.52428 0
M  V30 3390 C 324.621 2.09078 -3.98141 0
M  V30 3391 C 323.391 1.95167 -4.66088 0
M  V30 3392 C 325.589 1.66438 -4.86624 0
M  V30 3393 N 323.571 1.45062 -5.96515 0
M  V30 3394 C 324.942 1.27761 -6.06694 0
M  V30 3395 C 326.997 1.54046 -4.7347 0
M  V30 3396 C 325.7 0.779286 -7.15066 0
M  V30 3397 C 327.726 1.05618 -5.81892 0
M  V30 3398 C 327.088 0.67906 -7.01119 0
M  V30 3399 H 323.187 0.493267 -0.606805 0
M  V30 3400 H 325.771 0.692347 -1.81974 0
M  V30 3401 H 323.942 3.17851 -2.23215 0
M  V30 3402 H 325.674 3.19897 -2.47887 0
M  V30 3403 H 322.429 2.16407 -4.21266 0
M  V30 3404 H 322.853 1.22237 -6.65873 0
M  V30 3405 H 327.495 1.81827 -3.81705 0
M  V30 3406 H 325.213 0.489026 -8.06619 0
M  V30 3407 H 328.799 0.964529 -5.73749 0
M  V30 3408 H 327.679 0.310091 -7.83587 0
M  V30 3409 N 325.182 1.32811 0.848464 0
M  V30 3410 C 326.598 1.11937 1.13764 0
M  V30 3411 C 326.798 -0.0960789 2.01271 0
M  V30 3412 O 325.854 -0.779165 2.40178 0
M  V30 3413 C 327.167 2.402 1.809 0
M  V30 3414 C 328.715 2.46016 1.93508 0
M  V30 3415 C 329.19 3.74215 2.64059 0
M  V30 3416 N 330.681 3.75232 2.71579 0
M  V30 3417 C 331.416 4.71134 3.26833 0
M  V30 3418 N 330.912 5.77406 3.8285 0
M  V30 3419 N 332.705 4.58623 3.24995 0
M  V30 3420 H 324.856 2.1073 0.265855 0
M  V30 3421 H 327.119 0.930671 0.180431 0
M  V30 3422 H 326.825 3.29093 1.24058 0
M  V30 3423 H 326.699 2.51628 2.81004 0
M  V30 3424 H 329.086 1.57577 2.49506 0
M  V30 3425 H 329.167 2.38536 0.923811 0
M  V30 3426 H 328.811 4.63031 2.08722 0
M  V30 3427 H 328.741 3.78968 3.65637 0
M  V30 3428 H 331.232 2.98423 2.31845 0
M  V30 3429 H 331.545 6.46632 4.23187 0
M  V30 3430 H 329.89 5.81152 3.81165 0
M  V30 3431 H 333.081 3.74762 2.80484 0
M  V30 3432 H 333.254 5.33535 3.67756 0
M  V30 3433 N 326.66 -1.06551 1.16123 0
M  V30 3434 C 327.937 -1.76097 0.85142 0
M  V30 3435 C 328.317 -2.00802 -0.6513 0
M  V30 3436 O 327.665 -1.63302 -1.59827 0
M  V30 3437 C 327.875 -3.06384 1.67122 0
M  V30 3438 C 329.223 -3.80585 1.88255 0
M  V30 3439 O 330.247 -3.16218 1.63966 0
M  V30 3440 O 329.106 -4.96212 2.2899 0
M  V30 3441 H 326.2 -0.765102 0.313923 0
M  V30 3442 H 328.746 -1.12844 1.26745 0
M  V30 3443 H 327.518 -2.84071 2.69108 0
M  V30 3444 H 327.141 -3.77371 1.25206 0
M  V30 3445 N 328.138 -0.959301 -1.25041 0
M  V30 3446 C 329.549 -0.65667 -1.74771 0
M  V30 3447 C 329.9 0.827852 -1.77879 0
M  V30 3448 O 329.025 1.64783 -1.40269 0
M  V30 3449 C 329.62 -1.1853 -3.1739 0
M  V30 3450 C 328.179 -0.932734 -3.6466 0
M  V30 3451 C 327.326 -1.32558 -2.43564 0
M  V30 3452 H 330.277 -1.13558 -1.10862 0
M  V30 3453 H 330.298 -0.547582 -3.76539 0
M  V30 3454 H 329.81 -2.26576 -3.15095 0
M  V30 3455 H 327.911 0.13257 -3.72364 0
M  V30 3456 H 328.024 -1.57248 -4.52559 0
M  V30 3457 H 326.388 -0.743956 -2.43593 0
M  V30 3458 H 327.171 -2.41537 -2.43957 0
M  V30 3459 N 329.616 1.39756 -0.72842 0
M  V30 3460 C 330.893 1.94574 -0.200079 0
M  V30 3461 C 331.273 1.66569 1.29684 0
M  V30 3462 O 330.621 0.990326 2.05924 0
M  V30 3463 C 330.831 3.45004 -0.526608 0
M  V30 3464 C 332.179 4.21965 -0.472318 0
M  V30 3465 O 333.203 3.53173 -0.463413 0
M  V30 3466 O 332.062 5.44552 -0.461075 0
M  V30 3467 H 329.156 0.826289 -0.0342851 0
M  V30 3468 H 331.702 1.49293 -0.806829 0
M  V30 3469 H 330.474 3.58796 -1.56144 0
M  V30 3470 H 330.097 3.97449 0.109449 0
M  V30 3471 N 331.094 0.475555 1.50254 0
M  V30 3472 C 332.004 -0.321501 2.32387 0
M  V30 3473 C 333.02 -0.991755 1.42969 0
M  V30 3474 O 334.196 -0.978747 1.76018 0
M  V30 3475 C 331.261 -1.38667 3.17762 0
M  V30 3476 C 330.322 -0.732538 4.23004 0
M  V30 3477 C 329.555 -1.74695 5.04299 0
M  V30 3478 O 329.778 -2.97399 4.86734 0
M  V30 3479 O 328.712 -1.31631 5.8733 0
M  V30 3480 H 332.538 0.350071 3.01676 0
M  V30 3481 H 330.123 0.237321 1.47503 0
M  V30 3482 H 332.005 -2.00354 3.70724 0
M  V30 3483 H 330.68 -2.04163 2.51196 0
M  V30 3484 H 329.587 -0.0765902 3.74022 0
M  V30 3485 H 330.92 -0.120452 4.92053 0
M  V30 3486 N 332.573 -1.56217 0.208337 0
M  V30 3487 C 333.984 -1.84243 -0.301904 0
M  V30 3488 C 334.335 -1.12939 -1.60434 0
M  V30 3489 O 333.46 -0.39461 -2.12772 0
M  V30 3490 C 334.055 -3.34231 -0.554543 0
M  V30 3491 C 332.614 -3.62621 -1.00912 0
M  V30 3492 C 331.761 -2.77224 -0.064933 0
M  V30 3493 H 334.712 -1.52712 0.431833 0
M  V30 3494 H 334.733 -3.5372 -1.40223 0
M  V30 3495 H 334.245 -3.86099 0.393561 0
M  V30 3496 H 332.346 -3.16197 -1.97104 0
M  V30 3497 H 332.459 -4.7071 -0.892674 0
M  V30 3498 H 330.823 -2.48256 -0.56929 0
M  V30 3499 H 331.606 -3.31887 0.877851 0
M  V30 3500 N 334.051 0.0651679 -1.57465 0
M  V30 3501 C 335.297 0.764193 -1.87851 0
M  V30 3502 C 335.63 1.76889 -0.801495 0
M  V30 3503 O 334.905 1.93594 0.187528 0
M  V30 3504 C 335.188 1.46625 -3.28897 0
M  V30 3505 C 335.041 0.477515 -4.47258 0
M  V30 3506 C 336.36 2.4095 -3.68281 0
M  V30 3507 H 333.479 0.276351 -0.683227 0
M  V30 3508 H 336.121 0.0272868 -1.8998 0
M  V30 3509 H 334.271 2.09438 -3.27212 0
M  V30 3510 H 335.943 -0.145922 -4.61069 0
M  V30 3511 H 334.186 -0.206576 -4.33308 0
M  V30 3512 H 334.857 1.0065 -5.42746 0
M  V30 3513 H 337.333 1.88209 -3.71102 0
M  V30 3514 H 336.209 2.87072 -4.67847 0
M  V30 3515 H 336.47 3.26049 -2.98571 0
M  V30 3516 N 335.529 1.53961 0.336706 0
M  V30 3517 C 336.459 1.85417 1.41925 0
M  V30 3518 C 337.44 0.709856 1.5458 0
M  V30 3519 O 338.625 0.962396 1.68676 0
M  V30 3520 C 335.755 2.06985 2.78881 0
M  V30 3521 C 334.709 3.22813 2.81026 0
M  V30 3522 C 334.035 3.29727 4.20932 0
M  V30 3523 C 335.335 4.60767 2.45949 0
M  V30 3524 H 337.029 2.76079 1.15848 0
M  V30 3525 H 334.575 1.32839 0.555859 0
M  V30 3526 H 336.528 2.27575 3.54665 0
M  V30 3527 H 335.252 1.13061 3.06406 0
M  V30 3528 H 333.911 3.0209 2.07695 0
M  V30 3529 H 333.559 2.33385 4.45579 0
M  V30 3530 H 333.259 4.07566 4.23277 0
M  V30 3531 H 334.783 3.52536 4.98549 0
M  V30 3532 H 336.197 4.81325 3.11446 0
M  V30 3533 H 334.594 5.4106 2.59566 0
M  V30 3534 H 335.664 4.6391 1.41122 0
M  V30 3535 N 337.007 -0.598083 1.45811 0
M  V30 3536 C 337.937 -1.71873 1.58057 0
M  V30 3537 C 338.918 -1.64533 0.431615 0
M  V30 3538 O 340.103 -1.82787 0.65595 0
M  V30 3539 C 337.233 -3.10495 1.55597 0
M  V30 3540 C 336.187 -3.32654 2.69305 0
M  V30 3541 C 335.513 -4.71646 2.51902 0
M  V30 3542 C 336.813 -3.21981 4.11248 0
M  V30 3543 H 338.507 -1.61881 2.51863 0
M  V30 3544 H 336.053 -0.777372 1.21214 0
M  V30 3545 H 338.006 -3.88699 1.6276 0
M  V30 3546 H 336.73 -3.2135 0.583255 0
M  V30 3547 H 335.389 -2.56843 2.61586 0
M  V30 3548 H 335.037 -4.79246 1.52748 0
M  V30 3549 H 334.737 -4.87426 3.2816 0
M  V30 3550 H 336.261 -5.52038 2.60933 0
M  V30 3551 H 337.675 -3.90049 4.20161 0
M  V30 3552 H 336.072 -3.49289 4.87972 0
M  V30 3553 H 337.142 -2.1928 4.32486 0
M  V30 3554 N 338.485 -1.33259 -0.841409 0
M  V30 3555 C 339.395 -1.25332 -1.98316 0
M  V30 3556 C 340.411 -0.164364 -1.73222 0
M  V30 3557 O 341.587 -0.387486 -1.97637 0
M  V30 3558 C 338.652 -0.990078 -3.32262 0
M  V30 3559 C 337.713 -2.16879 -3.70489 0
M  V30 3560 C 336.946 -1.91801 -4.98044 0
M  V30 3561 O 337.169 -0.867075 -5.63771 0
M  V30 3562 O 336.103 -2.78267 -5.33714 0
M  V30 3563 H 339.929 -2.21344 -2.07944 0
M  V30 3564 H 337.514 -1.1328 -0.974058 0
M  V30 3565 H 339.396 -0.860321 -4.12524 0
M  V30 3566 H 338.071 -0.0602155 -3.23644 0
M  V30 3567 H 336.978 -2.35407 -2.90748 0
M  V30 3568 H 338.311 -3.0819 -3.8377 0
M  V30 3569 N 339.963 1.05934 -1.16686 0
M  V30 3570 C 340.873 2.17014 -0.891183 0
M  V30 3571 C 341.889 1.73453 0.137907 0
M  V30 3572 O 343.065 2.01361 -0.039592 0
M  V30 3573 C 340.13 3.44384 -0.400099 0
M  V30 3574 C 339.191 4.02433 -1.49486 0
M  V30 3575 C 338.424 5.23723 -1.02711 0
M  V30 3576 O 338.647 5.7027 0.121716 0
M  V30 3577 O 337.581 5.7382 -1.81699 0
M  V30 3578 H 341.407 2.43113 -1.82015 0
M  V30 3579 H 338.992 1.15541 -0.947132 0
M  V30 3580 H 340.874 4.21189 -0.133392 0
M  V30 3581 H 339.549 3.19802 0.500817 0
M  V30 3582 H 338.456 3.27102 -1.81535 0
M  V30 3583 H 339.789 4.31317 -2.37121 0
M  V30 3584 N 341.441 0.965919 1.2453 0
M  V30 3585 C 342.852 0.665929 1.7442 0
M  V30 3586 C 343.203 -0.818407 1.78316 0
M  V30 3587 O 342.328 -1.64037 1.41141 0
M  V30 3588 C 342.923 1.20211 3.16757 0
M  V30 3589 C 341.482 0.952059 3.6416 0
M  V30 3590 C 340.629 1.33848 2.42858 0
M  V30 3591 H 343.58 1.14144 1.10258 0
M  V30 3592 H 343.601 0.567544 3.76244 0
M  V30 3593 H 343.113 2.28244 3.13889 0
M  V30 3594 H 341.214 -0.112821 3.72429 0
M  V30 3595 H 341.327 1.59645 4.51719 0
M  V30 3596 H 339.691 0.756864 2.43195 0
M  V30 3597 H 340.474 2.42827 2.42673 0
M  V30 3598 N 342.919 -1.39368 0.735821 0
M  V30 3599 C 344.165 -2.00794 0.284544 0
M  V30 3600 C 344.498 -1.58255 -1.12557 0
M  V30 3601 O 343.773 -0.811819 -1.76748 0
M  V30 3602 C 344.056 -3.58011 0.387337 0
M  V30 3603 C 343.909 -4.10566 1.83728 0
M  V30 3604 C 345.228 -4.395 -0.22975 0
M  V30 3605 H 342.347 -0.729501 0.104866 0
M  V30 3606 H 344.989 -1.65564 0.93213 0
M  V30 3607 H 343.139 -3.88154 -0.164006 0
M  V30 3608 H 344.811 -3.91139 2.44556 0
M  V30 3609 H 343.054 -3.64095 2.35833 0
M  V30 3610 H 343.725 -5.19702 1.86047 0
M  V30 3611 H 346.201 -4.15406 0.240257 0
M  V30 3612 H 345.077 -5.48752 -0.127485 0
M  V30 3613 H 345.338 -4.22062 -1.3159 0
M  V30 3614 N 344.397 -0.483516 -1.5 0
M  V30 3615 C 345.643 0.0672592 -2.02688 0
M  V30 3616 C 345.976 1.38247 -1.36387 0
M  V30 3617 O 345.251 1.88131 -0.493675 0
M  V30 3618 C 345.534 0.238109 -3.59312 0
M  V30 3619 C 345.387 -1.099 -4.36168 0
M  V30 3620 C 346.706 0.986916 -4.28892 0
M  V30 3621 H 343.825 0.0229696 -0.736642 0
M  V30 3622 H 346.467 -0.631527 -1.79197 0
M  V30 3623 H 344.617 0.8333 -3.79458 0
M  V30 3624 H 346.289 -1.73172 -4.27562 0
M  V30 3625 H 344.532 -1.69261 -3.99416 0
M  V30 3626 H 345.203 -0.932954 -5.44059 0
M  V30 3627 H 347.679 0.482302 -4.13295 0
M  V30 3628 H 346.555 1.07527 -5.38265 0
M  V30 3629 H 346.816 2.0265 -3.92919 0
M  V30 3630 N 345.875 1.56104 -0.216619 0
M  V30 3631 C 346.805 2.23063 0.690296 0
M  V30 3632 C 347.786 1.20072 1.20485 0
M  V30 3633 O 348.971 1.48643 1.24976 0
M  V30 3634 C 346.101 2.90672 1.90072 0
M  V30 3635 C 345.055 4.00092 1.5202 0
M  V30 3636 C 344.381 4.54972 2.80899 0
M  V30 3637 C 345.681 5.17398 0.71391 0
M  V30 3638 H 347.375 2.99109 0.132038 0
M  V30 3639 H 344.921 1.43866 0.0620664 0
M  V30 3640 H 346.874 3.36204 2.54057 0
M  V30 3641 H 345.598 2.12066 2.48386 0
M  V30 3642 H 344.257 3.55283 0.903839 0
M  V30 3643 H 343.905 3.73102 3.37348 0
M  V30 3644 H 343.605 5.28817 2.56176 0
M  V30 3645 H 345.129 5.0322 3.45836 0
M  V30 3646 H 346.543 5.59342 1.25735 0
M  V30 3647 H 344.94 5.97444 0.563951 0
M  V30 3648 H 346.01 4.84088 -0.280527 0
M  V30 3649 N 347.353 -0.0568162 1.57498 0
M  V30 3650 C 348.316 -1.05038 2.03715 0
M  V30 3651 C 349.316 -1.30709 0.936577 0
M  V30 3652 O 350.506 -1.26178 1.20103 0
M  V30 3653 C 347.638 -2.39034 2.43055 0
M  V30 3654 H 348.831 -0.651715 2.92733 0
M  V30 3655 H 346.384 -0.302947 1.53336 0
M  V30 3656 H 347.119 -2.83703 1.57108 0
M  V30 3657 H 346.904 -2.21739 3.2338 0
M  V30 3658 H 348.394 -3.10421 2.79336 0
M  V30 3659 N 348.832 -1.54138 -0.328536 0
M  V30 3660 C 349.762 -1.86167 -1.40939 0
M  V30 3661 C 350.743 -0.718044 -1.54202 0
M  V30 3662 O 351.928 -0.971328 -1.68163 0
M  V30 3663 C 349.058 -2.08461 -2.77779 0
M  V30 3664 C 348.012 -3.24299 -2.7931 0
M  V30 3665 C 347.338 -3.31955 -4.19178 0
M  V30 3666 C 348.638 -4.62065 -2.43502 0
M  V30 3667 H 350.332 -2.76689 -1.14383 0
M  V30 3668 H 347.878 -1.33132 -0.548806 0
M  V30 3669 H 349.831 -2.29453 -3.53454 0
M  V30 3670 H 348.555 -1.14684 -3.05802 0
M  V30 3671 H 347.214 -3.03187 -2.0609 0
M  V30 3672 H 346.862 -2.35745 -4.44335 0
M  V30 3673 H 346.562 -4.09805 -4.2111 0
M  V30 3674 H 348.086 -3.55175 -4.96672 0
M  V30 3675 H 349.5 -4.8297 -3.08889 0
M  V30 3676 H 347.897 -5.42429 -2.56693 0
M  V30 3677 H 348.967 -4.64652 -1.38659 0
M  V30 3678 N 350.31 0.590341 -1.46126 0
M  V30 3679 C 351.273 1.68194 -1.55703 0
M  V30 3680 C 352.273 1.54808 -0.434868 0
M  V30 3681 O 353.463 1.59564 -0.698928 0
M  V30 3682 C 350.595 3.07575 -1.47005 0
M  V30 3683 H 351.788 1.61064 -2.52979 0
M  V30 3684 H 349.341 0.807541 -1.33823 0
M  V30 3685 H 350.076 3.20268 -0.509785 0
M  V30 3686 H 349.861 3.187 -2.28414 0
M  V30 3687 H 351.351 3.87055 -1.56776 0
M  V30 3688 N 351.788 1.33704 0.83433 0
M  V30 3689 C 352.698 1.26382 1.97648 0
M  V30 3690 C 353.714 0.173548 1.73132 0
M  V30 3691 O 354.89 0.397962 1.97429 0
M  V30 3692 C 351.955 1.00769 3.31733 0
M  V30 3693 C 351.016 2.1884 3.69334 0
M  V30 3694 C 350.249 1.9444 4.9702 0
M  V30 3695 O 350.472 0.896961 5.63303 0
M  V30 3696 O 349.406 2.81093 5.32231 0
M  V30 3697 H 353.232 2.22444 2.06767 0
M  V30 3698 H 350.817 1.13795 0.968037 0
M  V30 3699 H 352.699 0.882186 4.12062 0
M  V30 3700 H 351.374 0.0773783 3.23608 0
M  V30 3701 H 350.281 2.36946 2.89495 0
M  V30 3702 H 351.614 3.10221 3.82131 0
M  V30 3703 N 353.266 -1.05314 1.17247 0
M  V30 3704 C 354.213 -2.13031 0.888058 0
M  V30 3705 C 355.183 -1.65253 -0.167537 0
M  V30 3706 O 356.368 -1.90775 -0.0305974 0
M  V30 3707 C 353.508 -3.42702 0.406147 0
M  V30 3708 C 352.621 -4.04161 1.52572 0
M  V30 3709 C 351.756 -5.21744 0.997808 0
M  V30 3710 C 350.795 -5.75207 2.09291 0
M  V30 3711 N 349.932 -6.84094 1.57986 0
M  V30 3712 H 354.772 -2.36698 1.81048 0
M  V30 3713 H 352.309 -1.16121 0.903013 0
M  V30 3714 H 354.267 -4.17059 0.108305 0
M  V30 3715 H 352.897 -3.19222 -0.479313 0
M  V30 3716 H 351.949 -3.27253 1.93931 0
M  V30 3717 H 353.261 -4.39881 2.35172 0
M  V30 3718 H 352.415 -6.03168 0.653739 0
M  V30 3719 H 351.154 -4.87495 0.141232 0
M  V30 3720 H 350.159 -4.92414 2.44557 0
M  V30 3721 H 351.384 -6.11505 2.95362 0
M  V30 3722 H 349.33 -6.51745 0.74598 0
M  V30 3723 H 349.247 -7.18811 2.34195 0
M  V30 3724 H 350.515 -7.69172 1.26468 0
M  V30 3725 N 354.744 -0.972509 -1.24016 0
M  V30 3726 C 355.974 -0.653853 -1.9598 0
M  V30 3727 C 356.382 0.781801 -1.72292 0
M  V30 3728 O 355.725 1.53677 -1.00644 0
M  V30 3729 C 355.787 -0.854608 -3.49194 0
M  V30 3730 C 355.451 -2.27082 -3.96589 0
M  V30 3731 C 356.448 -3.24892 -4.05883 0
M  V30 3732 C 354.133 -2.5998 -4.29786 0
M  V30 3733 C 356.127 -4.53684 -4.47716 0
M  V30 3734 C 353.814 -3.88997 -4.71301 0
M  V30 3735 C 354.812 -4.85661 -4.80232 0
M  V30 3736 O 354.5 -6.12376 -5.20818 0
M  V30 3737 H 354.232 -0.242572 -0.630979 0
M  V30 3738 H 356.786 -1.30431 -1.58673 0
M  V30 3739 H 355.016 -0.146985 -3.86421 0
M  V30 3740 H 356.705 -0.534311 -4.02368 0
M  V30 3741 H 357.471 -3.00805 -3.80449 0
M  V30 3742 H 353.35 -1.85457 -4.22051 0
M  V30 3743 H 356.894 -5.29135 -4.54601 0
M  V30 3744 H 352.791 -4.12882 -4.96184 0
M  V30 3745 H 353.559 -6.16013 -5.38953 0
M  V30 3746 N 356.222 1.38976 -0.743202 0
M  V30 3747 C 357.47 1.99948 -0.29417 0
M  V30 3748 C 357.791 1.59279 1.12495 0
M  V30 3749 O 357.061 0.844808 1.76748 0
M  V30 3750 H 355.641 0.739473 -0.105774 0
M  V30 3751 H 358.303 1.699 -0.954986 0
M  V30 3752 H 357.399 3.10142 -0.349056 0
M  V30 3753 N 357.7 0.491464 1.49741 0
M  V30 3754 C 359.116 0.146835 1.58923 0
M  V30 3755 C 359.316 -1.34804 1.49767 0
M  V30 3756 O 358.372 -2.12317 1.36667 0
M  V30 3757 C 359.685 0.715157 2.92072 0
M  V30 3758 C 361.233 0.680407 3.05515 0
M  V30 3759 C 361.708 1.22663 4.41269 0
M  V30 3760 N 363.199 1.18691 4.47735 0
M  V30 3761 C 363.934 1.57984 5.51207 0
M  V30 3762 N 363.43 2.04824 6.6183 0
M  V30 3763 N 365.223 1.49459 5.41866 0
M  V30 3764 H 357.374 1.46347 1.53936 0
M  V30 3765 H 359.637 0.606453 0.728642 0
M  V30 3766 H 359.343 1.76317 3.04311 0
M  V30 3767 H 359.217 0.17018 3.76816 0
M  V30 3768 H 361.604 -0.358743 2.92911 0
M  V30 3769 H 361.685 1.26242 2.22478 0
M  V30 3770 H 361.329 2.26451 4.54623 0
M  V30 3771 H 361.259 0.620637 5.2293 0
M  V30 3772 H 363.75 0.843605 3.68364 0
M  V30 3773 H 364.063 2.32901 7.3687 0
M  V30 3774 H 362.408 2.08791 6.62896 0
M  V30 3775 H 365.599 1.12692 4.54333 0
M  V30 3776 H 365.772 1.80406 6.22381 0
M  V30 3777 N 359.178 -1.55987 0.224894 0
M  V30 3778 C 360.403 -2.03232 -0.41369 0
M  V30 3779 C 360.828 -1.10359 -1.52323 0
M  V30 3780 O 360.186 -0.092395 -1.81064 0
M  V30 3781 C 360.234 -3.48682 -0.919405 0
M  V30 3782 O 359.338 -3.58947 -2.03054 0
M  V30 3783 H 358.679 -0.657428 -0.0931903 0
M  V30 3784 H 361.209 -2.01679 0.34451 0
M  V30 3785 H 361.219 -3.8907 -1.22835 0
M  V30 3786 H 359.894 -4.15761 -0.107339 0
M  V30 3787 H 358.471 -3.30448 -1.72796 0
M  V30 3788 N 360.656 0.0484629 -1.57525 0
M  V30 3789 C 362.067 0.597486 -1.76881 0
M  V30 3790 C 362.418 1.76664 -0.853475 0
M  V30 3791 O 361.543 2.16357 -0.0433656 0
M  V30 3792 C 362.138 1.09066 -3.20765 0
M  V30 3793 C 360.697 1.58535 -3.41385 0
M  V30 3794 C 359.844 0.514868 -2.72478 0
M  V30 3795 H 362.795 -0.177758 -1.57701 0
M  V30 3796 H 362.816 1.95875 -3.2621 0
M  V30 3797 H 362.328 0.239521 -3.8736 0
M  V30 3798 H 360.429 2.45898 -2.79937 0
M  V30 3799 H 360.542 1.64622 -4.49929 0
M  V30 3800 H 358.906 0.965407 -2.35695 0
M  V30 3801 H 359.689 -0.32648 -3.41744 0
M  V30 3802 N 362.134 1.5431 0.320358 0
M  V30 3803 C 363.097 1.83195 1.3774 0
M  V30 3804 C 364.097 0.703906 1.44575 0
M  V30 3805 O 365.287 0.972214 1.44546 0
M  V30 3806 C 362.419 1.99487 2.76438 0
M  V30 3807 H 363.612 2.77642 1.1338 0
M  V30 3808 H 361.165 1.46076 0.556012 0
M  V30 3809 H 361.9 1.07262 3.06048 0
M  V30 3810 H 361.685 2.81575 2.7287 0
M  V30 3811 H 363.175 2.23271 3.52902 0
M  V30 3812 N 363.613 -0.582584 1.46437 0
M  V30 3813 C 364.545 -1.70618 1.53043 0
M  V30 3814 C 365.558 -1.57322 0.418769 0
M  V30 3815 O 366.747 -1.64744 0.687136 0
M  V30 3816 C 363.847 -3.08869 1.39474 0
M  V30 3817 C 363.02 -3.48166 2.64762 0
M  V30 3818 C 362.079 -4.65478 2.4539 0
M  V30 3819 O 361.105 -4.71333 3.19114 0
M  V30 3820 N 362.307 -5.60365 1.51564 0
M  V30 3821 H 365.072 -1.65405 2.49923 0
M  V30 3822 H 362.633 -0.768567 1.42494 0
M  V30 3823 H 364.625 -3.85143 1.24287 0
M  V30 3824 H 363.195 -3.08449 0.507758 0
M  V30 3825 H 362.415 -2.61598 2.9489 0
M  V30 3826 H 363.703 -3.71188 3.4799 0
M  V30 3827 H 363.101 -5.5837 0.907705 0
M  V30 3828 H 361.658 -6.36068 1.4234 0
M  V30 3829 N 365.091 -1.34144 -0.827227 0
M  V30 3830 C 366.34 -1.25602 -1.5782 0
M  V30 3831 C 366.653 0.173445 -1.94829 0
M  V30 3832 O 367.859 0.380984 -2.68814 0
M  V30 3833 C 366.315 -2.20151 -2.84713 0
M  V30 3834 C 365.923 -3.68331 -2.55021 0
M  V30 3835 C 367.667 -2.20508 -3.62735 0
M  V30 3836 C 365.574 -4.54762 -3.78082 0
M  V30 3837 H 364.504 -0.466573 -0.592306 0
M  V30 3838 H 367.155 -1.59283 -0.911116 0
M  V30 3839 H 365.537 -1.79417 -3.53023 0
M  V30 3840 H 366.711 -4.17577 -1.94849 0
M  V30 3841 H 365.026 -3.7038 -1.90283 0
M  V30 3842 H 367.623 -2.82306 -4.54101 0
M  V30 3843 H 367.966 -1.20322 -3.98533 0
M  V30 3844 H 368.499 -2.59664 -3.01362 0
M  V30 3845 H 365.238 -5.55867 -3.47407 0
M  V30 3846 H 364.758 -4.10254 -4.37552 0
M  V30 3847 H 366.437 -4.69153 -4.45538 0
M  V30 3848 N 366.569 1.04691 -1.17803 0
M  V30 3849 C 367.499 2.14494 -0.92275 0
M  V30 3850 C 368.48 1.69546 0.137179 0
M  V30 3851 O 369.665 1.94195 -0.0141108 0
M  V30 3852 C 366.795 3.44491 -0.440803 0
M  V30 3853 C 365.749 4.03031 -1.4405 0
M  V30 3854 C 365.075 5.28432 -0.81631 0
M  V30 3855 C 366.375 4.39932 -2.81527 0
M  V30 3856 H 368.069 2.36107 -1.84103 0
M  V30 3857 H 365.615 1.1347 -0.886599 0
M  V30 3858 H 367.568 4.2066 -0.249602 0
M  V30 3859 H 366.292 3.22546 0.513025 0
M  V30 3860 H 364.951 3.28937 -1.61853 0
M  V30 3861 H 364.599 5.02792 0.144511 0
M  V30 3862 H 364.299 5.68559 -1.48371 0
M  V30 3863 H 365.823 6.07284 -0.635496 0
M  V30 3864 H 367.237 5.07113 -2.67412 0
M  V30 3865 H 365.634 4.9109 -3.44892 0
M  V30 3866 H 366.704 3.50045 -3.35554 0
M  V30 3867 N 368.047 0.979072 1.23499 0
M  V30 3868 C 368.977 0.537606 2.27227 0
M  V30 3869 C 369.958 -0.428539 1.64613 0
M  V30 3870 O 371.143 -0.322191 1.91509 0
M  V30 3871 C 368.273 -0.162052 3.46922 0
M  V30 3872 C 367.227 0.721242 4.21879 0
M  V30 3873 C 366.553 -0.110555 5.34586 0
M  V30 3874 C 367.853 2.01141 4.82016 0
M  V30 3875 H 369.547 1.40462 2.64406 0
M  V30 3876 H 367.093 0.67684 1.27102 0
M  V30 3877 H 369.046 -0.482192 4.18632 0
M  V30 3878 H 367.77 -1.06351 3.08799 0
M  V30 3879 H 366.429 1.02482 3.51984 0
M  V30 3880 H 366.077 -1.0125 4.92704 0
M  V30 3881 H 365.777 0.477325 5.85658 0
M  V30 3882 H 367.301 -0.425107 6.09118 0
M  V30 3883 H 368.715 1.75612 5.45741 0
M  V30 3884 H 367.112 2.54695 5.43369 0
M  V30 3885 H 368.182 2.69909 4.02836 0
M  V30 3886 N 369.525 -1.3858 0.750561 0
M  V30 3887 C 370.941 -1.53759 0.427824 0
M  V30 3888 C 371.141 -1.71401 -1.05943 0
M  V30 3889 O 370.197 -1.72331 -1.84549 0
M  V30 3890 C 371.51 -2.74642 1.22443 0
M  V30 3891 C 373.058 -2.88489 1.2142 0
M  V30 3892 C 373.533 -4.12329 1.9937 0
M  V30 3893 N 375.024 -4.194 1.96616 0
M  V30 3894 C 375.759 -5.14209 2.53727 0
M  V30 3895 N 375.255 -6.14709 3.19539 0
M  V30 3896 N 377.048 -5.06537 2.43673 0
M  V30 3897 H 369.199 -1.25377 1.71447 0
M  V30 3898 H 371.462 -0.608844 0.726645 0
M  V30 3899 H 371.168 -2.68 2.27747 0
M  V30 3900 H 371.042 -3.67745 0.839273 0
M  V30 3901 H 373.429 -2.94614 0.169232 0
M  V30 3902 H 373.51 -1.96406 1.63885 0
M  V30 3903 H 373.154 -4.06966 3.03877 0
M  V30 3904 H 373.084 -5.03486 1.54302 0
M  V30 3905 H 375.575 -3.47421 1.48684 0
M  V30 3906 H 375.888 -6.8354 3.60545 0
M  V30 3907 H 374.233 -6.1505 3.23633 0
M  V30 3908 H 377.424 -4.26962 1.91889 0
M  V30 3909 H 377.597 -5.80245 2.88479 0
M  V30 3910 N 371.003 -0.499398 -1.49478 0
M  V30 3911 C 372.249 0.0377587 -2.03365 0
M  V30 3912 C 372.604 1.3484 -1.37244 0
M  V30 3913 O 371.897 1.85 -0.498547 0
M  V30 3914 C 372.091 0.248424 -3.56536 0
M  V30 3915 C 371.92 -1.04025 -4.37503 0
M  V30 3916 C 370.69 -1.59159 -4.79579 0
M  V30 3917 C 372.888 -1.9431 -4.76181 0
M  V30 3918 N 370.87 -2.82634 -5.44969 0
M  V30 3919 C 372.241 -3.02364 -5.41272 0
M  V30 3920 C 374.296 -1.95008 -4.58123 0
M  V30 3921 C 372.999 -4.1114 -5.90217 0
M  V30 3922 C 375.025 -3.02758 -5.08027 0
M  V30 3923 C 374.387 -4.09531 -5.73118 0
M  V30 3924 H 370.486 -0.026923 -0.781536 0
M  V30 3925 H 373.07 -0.673901 -1.82665 0
M  V30 3926 H 371.241 0.929139 -3.77123 0
M  V30 3927 H 372.973 0.782445 -3.97064 0
M  V30 3928 H 369.728 -1.13696 -4.5975 0
M  V30 3929 H 370.152 -3.45416 -5.82252 0
M  V30 3930 H 374.794 -1.13766 -4.07207 0
M  V30 3931 H 372.512 -4.93181 -6.40155 0
M  V30 3932 H 376.098 -3.04315 -4.95866 0
M  V30 3933 H 374.978 -4.91534 -6.11035 0
M  V30 3934 N 372.481 1.55866 -0.233164 0
M  V30 3935 C 373.413 2.18099 0.704668 0
M  V30 3936 C 374.426 1.15334 1.14899 0
M  V30 3937 O 375.615 1.42262 1.07814 0
M  V30 3938 C 372.715 2.7592 1.96777 0
M  V30 3939 C 371.888 4.03969 1.67713 0
M  V30 3940 C 370.947 4.46242 2.78845 0
M  V30 3941 O 369.973 5.12903 2.46818 0
M  V30 3942 N 371.175 4.12886 4.08051 0
M  V30 3943 H 373.94 2.99205 0.172258 0
M  V30 3944 H 371.501 1.61815 -0.0525945 0
M  V30 3945 H 373.493 3.01165 2.70337 0
M  V30 3946 H 372.063 1.99051 2.41034 0
M  V30 3947 H 371.283 3.86459 0.777391 0
M  V30 3948 H 372.571 4.8748 1.4574 0
M  V30 3949 H 371.969 3.59342 4.3691 0
M  V30 3950 H 370.526 4.42997 4.78118 0
M  V30 3951 N 373.959 -0.0401083 1.57549 0
M  V30 3952 C 375.205 -0.734211 1.89043 0
M  V30 3953 C 375.538 -1.75591 0.829535 0
M  V30 3954 O 374.813 -1.93868 -0.156706 0
M  V30 3955 C 375.096 -1.41374 3.31188 0
M  V30 3956 C 374.949 -0.406299 4.47961 0
M  V30 3957 C 376.268 -2.35061 3.72068 0
M  V30 3958 H 373.387 -0.265447 0.687537 0
M  V30 3959 H 376.029 0.00294087 1.9 0
M  V30 3960 H 374.179 -2.04206 3.30503 0
M  V30 3961 H 375.851 0.219255 4.60779 0
M  V30 3962 H 374.094 0.275485 4.32924 0
M  V30 3963 H 374.765 -0.920022 5.44279 0
M  V30 3964 H 377.241 -1.82282 3.74049 0
M  V30 3965 H 376.117 -2.79593 4.72355 0
M  V30 3966 H 376.378 -3.21258 3.0372 0
M  V30 3967 N 375.437 -1.54477 -0.31217 0
M  V30 3968 C 376.369 -1.81011 -1.40598 0
M  V30 3969 C 377.382 -0.692546 -1.47335 0
M  V30 3970 O 378.571 -0.969847 -1.49854 0
M  V30 3971 C 375.671 -1.92307 -2.79054 0
M  V30 3972 C 374.844 -3.22594 -2.95384 0
M  V30 3973 C 373.903 -3.24448 -4.1427 0
M  V30 3974 O 372.929 -3.98035 -4.06887 0
M  V30 3975 N 374.131 -2.49042 -5.24365 0
M  V30 3976 H 376.896 -2.75408 -1.18196 0
M  V30 3977 H 374.457 -1.53914 -0.502202 0
M  V30 3978 H 376.449 -1.90962 -3.56813 0
M  V30 3979 H 375.019 -1.04955 -2.94454 0
M  V30 3980 H 374.239 -3.36806 -2.04831 0
M  V30 3981 H 375.527 -4.08593 -3.03198 0
M  V30 3982 H 374.925 -1.88867 -5.33241 0
M  V30 3983 H 373.482 -2.53463 -6.005 0
M  V30 3984 N 376.915 0.57481 -1.46744 0
M  V30 3985 C 378.331 0.898981 -1.31873 0
M  V30 3986 C 378.531 1.99313 -0.29605 0
M  V30 3987 O 377.587 2.50728 0.298621 0
M  V30 3988 C 378.9 1.30886 -2.7072 0
M  V30 3989 C 380.448 1.42127 -2.78871 0
M  V30 3990 C 380.923 1.86478 -4.18318 0
M  V30 3991 N 382.414 1.93658 -4.20774 0
M  V30 3992 C 383.149 2.29267 -5.2557 0
M  V30 3993 N 382.645 2.63612 -6.40688 0
M  V30 3994 N 384.438 2.29889 -5.1294 0
M  V30 3995 H 376.589 -0.147839 -2.11885 0
M  V30 3996 H 378.852 -0.00347013 -0.947994 0
M  V30 3997 H 378.558 0.578853 -3.46904 0
M  V30 3998 H 378.432 2.26874 -3.01343 0
M  V30 3999 H 380.819 2.14213 -2.0297 0
M  V30 4000 H 380.9 0.443705 -2.51922 0
M  V30 4001 H 380.544 1.14968 -4.94717 0
M  V30 4002 H 380.474 2.85207 -4.42679 0
M  V30 4003 H 382.965 1.69574 -3.37718 0
M  V30 4004 H 383.278 2.89759 -7.16421 0
M  V30 4005 H 381.623 2.61232 -6.44036 0
M  V30 4006 H 384.814 2.02485 -4.22039 0
M  V30 4007 H 384.987 2.57312 -5.94722 0
M  V30 4008 N 378.394 1.34581 0.820102 0
M  V30 4009 C 379.341 1.2639 1.93117 0
M  V30 4010 C 380.311 0.138554 1.65521 0
M  V30 4011 O 381.496 0.320004 1.88097 0
M  V30 4012 C 378.636 1.02812 3.29429 0
M  V30 4013 C 377.749 2.24146 3.693 0
M  V30 4014 C 376.884 1.93829 4.94574 0
M  V30 4015 C 375.923 3.1129 5.27034 0
M  V30 4016 N 375.06 2.80838 6.43486 0
M  V30 4017 H 379.9 2.21408 1.99455 0
M  V30 4018 H 377.437 1.10077 0.975784 0
M  V30 4019 H 379.395 0.871788 4.0799 0
M  V30 4020 H 378.025 0.114612 3.22596 0
M  V30 4021 H 377.077 2.50691 2.86109 0
M  V30 4022 H 378.389 3.11899 3.89257 0
M  V30 4023 H 377.543 1.74948 5.80929 0
M  V30 4024 H 376.282 1.03341 4.76626 0
M  V30 4025 H 375.287 3.30764 4.39175 0
M  V30 4026 H 376.512 4.02561 5.4692 0
M  V30 4027 H 374.458 1.92929 6.26988 0
M  V30 4028 H 374.375 3.62123 6.63629 0
M  V30 4029 H 375.643 2.65467 7.32903 0
M  V30 4030 N 379.872 -1.04064 1.18357 0
M  V30 4031 C 381.118 -1.77528 0.980397 0
M  V30 4032 C 381.451 -1.87948 -0.48879 0
M  V30 4033 O 380.726 -1.3876 -1.36293 0
M  V30 4034 C 381.009 -3.20797 1.63588 0
M  V30 4035 C 380.862 -3.1832 3.17793 0
M  V30 4036 C 382.181 -4.18911 1.34914 0
M  V30 4037 H 379.3 -0.644443 0.357578 0
M  V30 4038 H 381.942 -1.2156 1.46024 0
M  V30 4039 H 380.092 -3.68586 1.22788 0
M  V30 4040 H 381.764 -2.78521 3.67728 0
M  V30 4041 H 380.007 -2.56351 3.49952 0
M  V30 4042 H 380.678 -4.19489 3.58794 0
M  V30 4043 H 383.154 -3.7967 1.70265 0
M  V30 4044 H 382.03 -5.17374 1.83346 0
M  V30 4045 H 382.291 -4.41262 0.272027 0
M  V30 4046 N 381.35 -0.985608 -1.22978 0
M  V30 4047 C 382.599 -0.652881 -1.90841 0
M  V30 4048 C 382.912 0.817842 -1.77681 0
M  V30 4049 O 384.118 1.26185 -2.40395 0
M  V30 4050 C 382.574 -1.11717 -3.42122 0
M  V30 4051 C 382.182 -2.6126 -3.63933 0
M  V30 4052 C 383.926 -0.85843 -4.1573 0
M  V30 4053 C 381.833 -3.0133 -5.08876 0
M  V30 4054 H 380.763 -0.240491 -0.714619 0
M  V30 4055 H 383.414 -1.1942 -1.39324 0
M  V30 4056 H 381.796 -0.504027 -3.92779 0
M  V30 4057 H 382.97 -3.27858 -3.23799 0
M  V30 4058 H 381.285 -2.84937 -3.03644 0
M  V30 4059 H 383.882 -1.13359 -5.22546 0
M  V30 4060 H 384.225 0.205461 -4.15793 0
M  V30 4061 H 384.758 -1.43341 -3.71077 0
M  V30 4062 H 381.497 -4.06864 -5.13947 0
M  V30 4063 H 381.017 -2.3943 -5.49939 0
M  V30 4064 H 382.696 -2.92224 -5.77247 0
M  V30 4065 N 382.828 1.3818 -0.7579 0
M  V30 4066 C 384.068 2.01864 -0.320968 0
M  V30 4067 C 384.432 1.58863 1.07827 0
M  V30 4068 O 385.633 2.14908 1.61456 0
M  V30 4069 C 383.904 3.54626 -0.44446 0
M  V30 4070 S 385.463 4.38706 -0.0907467 0
M  V30 4071 H 382.281 0.700056 -0.124268 0
M  V30 4072 H 384.883 1.68611 -0.989468 0
M  V30 4073 H 383.587 3.83411 -1.4637 0
M  V30 4074 H 383.118 3.92661 0.241073 0
M  V30 4075 H 385.133 4.83435 1.11826 0
M  V30 4076 N 384.306 0.507319 1.49211 0
M  V30 4077 C 385.555 -0.0368315 2.01666 0
M  V30 4078 C 385.868 -1.37459 1.39156 0
M  V30 4079 O 387.074 -2.00579 1.82976 0
M  V30 4080 C 385.53 -0.116089 3.59713 0
M  V30 4081 C 385.138 1.2154 4.31198 0
M  V30 4082 C 386.882 -0.610268 4.2009 0
M  V30 4083 C 384.789 1.09796 5.81119 0
M  V30 4084 H 383.719 -0.0175376 0.753796 0
M  V30 4085 H 386.37 0.647691 1.71689 0
M  V30 4086 H 384.752 -0.8652 3.86433 0
M  V30 4087 H 385.926 1.9783 4.16173 0
M  V30 4088 H 384.241 1.64352 3.82593 0
M  V30 4089 H 386.838 -0.715742 5.29888 0
M  V30 4090 H 387.181 -1.61064 3.8388 0
M  V30 4091 H 387.714 0.0824916 3.97714 0
M  V30 4092 H 384.453 2.0728 6.21864 0
M  V30 4093 H 383.973 0.376058 5.9862 0
M  V30 4094 H 385.652 0.779281 6.4229 0
M  V30 4095 N 385.784 -1.5574 0.241426 0
M  V30 4096 C 387.195 -1.84842 -0.262755 0
M  V30 4097 C 387.546 -1.16317 -1.58003 0
M  V30 4098 O 386.671 -0.439653 -2.11887 0
M  V30 4099 C 387.266 -3.35332 -0.483523 0
M  V30 4100 C 385.825 -3.6468 -0.931977 0
M  V30 4101 C 384.972 -2.77299 -0.0061151 0
M  V30 4102 H 387.923 -1.51761 0.464129 0
M  V30 4103 H 387.944 -3.56615 -1.32688 0
M  V30 4104 H 387.456 -3.85178 0.47537 0
M  V30 4105 H 385.557 -3.20307 -1.90353 0
M  V30 4106 H 385.67 -4.72498 -0.792628 0
M  V30 4107 H 384.034 -2.49408 -0.516503 0
M  V30 4108 H 384.817 -3.2995 0.948052 0
M  V30 4109 N 387.262 0.0317525 -1.57568 0
M  V30 4110 C 388.209 1.0332 -2.06382 0
M  V30 4111 C 389.179 1.36082 -0.952414 0
M  V30 4112 O 390.364 1.46466 -1.2228 0
M  V30 4113 C 387.504 2.32989 -2.54578 0
M  V30 4114 C 386.617 2.0641 -3.79498 0
M  V30 4115 C 385.752 3.2993 -4.16317 0
M  V30 4116 C 384.791 2.98893 -5.34162 0
M  V30 4117 N 383.928 4.14857 -5.66426 0
M  V30 4118 H 388.768 0.609982 -2.9169 0
M  V30 4119 H 386.305 0.289573 -1.44222 0
M  V30 4120 H 388.263 3.0875 -2.80587 0
M  V30 4121 H 386.893 2.73039 -1.7219 0
M  V30 4122 H 385.945 1.21158 -3.6059 0
M  V30 4123 H 387.257 1.79513 -4.65378 0
M  V30 4124 H 386.411 4.1406 -4.4344 0
M  V30 4125 H 385.15 3.59938 -3.29083 0
M  V30 4126 H 384.155 2.13164 -5.06795 0
M  V30 4127 H 385.38 2.70165 -6.23047 0
M  V30 4128 H 383.326 4.44821 -4.82151 0
M  V30 4129 H 383.243 3.91374 -6.4681 0
M  V30 4130 H 384.511 4.99868 -5.98124 0
M  V30 4131 N 388.74 1.54641 0.303973 0
M  V30 4132 C 389.965 1.78092 1.06292 0
M  V30 4133 C 390.39 0.537342 1.80262 0
M  V30 4134 O 389.748 -0.511993 1.7392 0
M  V30 4135 C 389.796 2.98612 2.02147 0
M  V30 4136 O 388.9 2.71528 3.10397 0
M  V30 4137 H 388.241 0.589548 0.305497 0
M  V30 4138 H 390.771 2.01716 0.3423 0
M  V30 4139 H 390.781 3.265 2.44667 0
M  V30 4140 H 389.456 3.88785 1.47714 0
M  V30 4141 H 388.033 2.54648 2.72413 0
M  V30 4142 N 390.218 -0.567019 1.47046 0
M  V30 4143 C 391.467 -1.32091 1.5243 0
M  V30 4144 C 391.78 -1.94704 0.187021 0
M  V30 4145 O 392.986 -2.7124 0.118771 0
M  V30 4146 C 391.442 -2.39479 2.68659 0
M  V30 4147 C 391.05 -1.831 4.08874 0
M  V30 4148 C 392.794 -3.16111 2.83327 0
M  V30 4149 C 390.701 -2.8821 5.16419 0
M  V30 4150 H 389.631 -0.496629 0.56734 0
M  V30 4151 H 392.282 -0.603354 1.73297 0
M  V30 4152 H 390.664 -3.14105 2.41152 0
M  V30 4153 H 391.838 -1.14913 4.46242 0
M  V30 4154 H 390.153 -1.19085 3.99008 0
M  V30 4155 H 392.75 -3.94585 3.60842 0
M  V30 4156 H 393.093 -3.69686 1.91411 0
M  V30 4157 H 393.626 -2.48595 3.10556 0
M  V30 4158 H 390.365 -2.39504 6.10179 0
M  V30 4159 H 389.885 -3.54839 4.8358 0
M  V30 4160 H 391.564 -3.51881 5.42945 0
M  V30 4161 N 391.696 -1.35014 -0.812953 0
M  V30 4162 C 392.924 -1.31031 -1.6012 0
M  V30 4163 C 393.339 0.113558 -1.88458 0
M  V30 4164 O 392.696 1.06363 -1.48301 0
M  V30 4165 C 392.747 -2.10872 -2.93624 0
M  V30 4166 O 392.468 -3.47706 -2.66518 0
M  V30 4167 C 393.969 -2.14401 -3.88004 0
M  V30 4168 H 391.189 -0.45037 -0.497401 0
M  V30 4169 H 393.733 -1.77775 -1.01076 0
M  V30 4170 H 391.888 -1.67744 -3.492 0
M  V30 4171 H 392.302 -3.89097 -3.51715 0
M  V30 4172 H 393.776 -2.74669 -4.78812 0
M  V30 4173 H 394.253 -1.14105 -4.24119 0
M  V30 4174 H 394.859 -2.57662 -3.38364 0
M  V30 4175 N 393.175 1.03435 -1.18907 0
M  V30 4176 C 394.586 1.58195 -0.991523 0
M  V30 4177 C 394.937 1.90801 0.457081 0
M  V30 4178 O 394.062 1.70272 1.33553 0
M  V30 4179 C 394.657 2.87432 -1.79355 0
M  V30 4180 C 393.216 3.38785 -1.64017 0
M  V30 4181 C 392.363 2.12292 -1.78402 0
M  V30 4182 H 395.314 0.860299 -1.33359 0
M  V30 4183 H 395.335 3.58096 -1.28638 0
M  V30 4184 H 394.847 2.63669 -2.84781 0
M  V30 4185 H 392.948 3.67547 -0.611536 0
M  V30 4186 H 393.061 4.12186 -2.44212 0
M  V30 4187 H 391.425 2.23901 -1.2141 0
M  V30 4188 H 392.208 1.90977 -2.85277 0
M  V30 4189 N 394.653 0.992116 1.22453 0
M  V30 4190 C 395.878 0.685644 1.95739 0
M  V30 4191 C 396.303 -0.743 1.72804 0
M  V30 4192 O 395.661 -1.50778 1.00676 0
M  V30 4193 C 395.709 0.996293 3.46564 0
M  V30 4194 O 394.813 0.0945512 4.12292 0
M  V30 4195 H 394.154 0.256694 0.612376 0
M  V30 4196 H 396.684 1.32888 1.5557 0
M  V30 4197 H 396.694 0.93781 3.97076 0
M  V30 4198 H 395.369 2.03733 3.62582 0
M  V30 4199 H 393.946 0.208451 3.72317 0
M  V30 4200 N 396.131 -1.37776 0.765217 0
M  V30 4201 C 397.547 -1.53297 0.444108 0
M  V30 4202 C 397.747 -1.72515 -1.04119 0
M  V30 4203 O 396.803 -1.74278 -1.82711 0
M  V30 4204 C 398.116 -2.73328 1.25349 0
M  V30 4205 C 399.664 -2.87185 1.24473 0
M  V30 4206 C 400.139 -4.10191 2.03733 0
M  V30 4207 N 401.63 -4.17291 2.01053 0
M  V30 4208 C 402.365 -5.11488 2.59166 0
M  V30 4209 N 401.861 -6.11285 3.26041 0
M  V30 4210 N 403.654 -5.03924 2.49032 0
M  V30 4211 H 395.805 -1.23552 1.72768 0
M  V30 4212 H 398.068 -0.601103 0.733062 0
M  V30 4213 H 397.774 -2.6557 2.30577 0
M  V30 4214 H 397.648 -3.66834 0.87823 0
M  V30 4215 H 400.035 -2.94418 0.20047 0
M  V30 4216 H 400.116 -1.94657 1.65959 0
M  V30 4217 H 399.76 -4.0372 3.08176 0
M  V30 4218 H 399.69 -5.01821 1.59633 0
M  V30 4219 H 402.181 -3.45825 1.5236 0
M  V30 4220 H 402.494 -6.79678 3.67774 0
M  V30 4221 H 400.839 -6.11583 3.30138 0
M  V30 4222 H 404.03 -4.24902 1.96407 0
M  V30 4223 H 404.203 -5.77152 2.94617 0
M  V30 4224 N 397.609 -0.515225 -1.4894 0
M  V30 4225 C 398.858 0.0261361 -2.01683 0
M  V30 4226 C 399.171 1.36719 -1.39883 0
M  V30 4227 O 400.377 1.99606 -1.84037 0
M  V30 4228 C 398.833 0.0970111 -3.59769 0
M  V30 4229 C 398.441 -1.23825 -4.30548 0
M  V30 4230 C 400.185 0.587981 -4.20408 0
M  V30 4231 C 398.092 -1.12877 -5.80528 0
M  V30 4232 H 397.022 0.0135398 -0.753878 0
M  V30 4233 H 399.673 -0.656787 -1.71343 0
M  V30 4234 H 398.055 0.844694 -3.86886 0
M  V30 4235 H 399.229 -2.00034 -4.15118 0
M  V30 4236 H 397.544 -1.66379 -3.81716 0
M  V30 4237 H 400.141 0.68763 -5.3026 0
M  V30 4238 H 400.484 1.59026 -3.84729 0
M  V30 4239 H 401.017 -0.103582 -3.97665 0
M  V30 4240 H 397.756 -2.10575 -6.20756 0
M  V30 4241 H 397.276 -0.407799 -5.98412 0
M  V30 4242 H 398.955 -0.813332 -6.41868 0
M  V30 4243 N 399.087 1.5561 -0.249682 0
M  V30 4244 C 400.017 2.24477 0.642826 0
M  V30 4245 C 400.998 1.22601 1.17911 0
M  V30 4246 O 402.183 1.5126 1.21795 0
M  V30 4247 C 399.313 2.94638 1.83863 0
M  V30 4248 C 398.267 4.03227 1.435 0
M  V30 4249 C 397.593 4.60828 2.71186 0
M  V30 4250 C 398.893 5.18796 0.604002 0
M  V30 4251 H 400.587 2.99321 0.0685625 0
M  V30 4252 H 398.133 1.43965 0.0315363 0
M  V30 4253 H 400.086 3.41517 2.46868 0
M  V30 4254 H 398.81 2.17287 2.43832 0
M  V30 4255 H 397.469 3.57121 0.828275 0
M  V30 4256 H 397.117 3.80174 3.29358 0
M  V30 4257 H 396.817 5.34132 2.44901 0
M  V30 4258 H 398.341 5.10442 3.35084 0
M  V30 4259 H 399.755 5.61883 1.13842 0
M  V30 4260 H 398.152 5.98506 0.437097 0
M  V30 4261 H 399.222 4.83384 -0.383147 0
M  V30 4262 N 400.565 -0.0233959 1.57583 0
M  V30 4263 C 401.497 -1.04994 2.03737 0
M  V30 4264 C 402.51 -1.32125 0.951152 0
M  V30 4265 O 403.699 -1.29512 1.22837 0
M  V30 4266 C 400.799 -2.39026 2.40249 0
M  V30 4267 C 399.972 -2.31171 3.7132 0
M  V30 4268 C 399.031 -3.47698 3.94959 0
M  V30 4269 O 398.057 -3.26937 4.65941 0
M  V30 4270 N 399.259 -4.6976 3.41037 0
M  V30 4271 H 402.024 -0.656507 2.92421 0
M  V30 4272 H 399.585 -0.211235 1.60516 0
M  V30 4273 H 401.577 -3.15712 2.53196 0
M  V30 4274 H 400.147 -2.70194 1.57207 0
M  V30 4275 H 399.367 -1.39547 3.68674 0
M  V30 4276 H 400.655 -2.23071 4.57293 0
M  V30 4277 H 400.053 -4.89528 2.83512 0
M  V30 4278 H 398.61 -5.43791 3.59353 0
M  V30 4279 N 402.043 -1.548 -0.295768 0
M  V30 4280 C 402.991 -1.86874 -1.38495 0
M  V30 4281 C 403.985 -0.742938 -1.52239 0
M  V30 4282 O 405.191 -0.926999 -1.54294 0
M  V30 4283 H 401.566 -0.592786 -0.462719 0
M  V30 4284 H 403.537 -2.77904 -1.08682 0
M  V30 4285 C 402.286 -2.13732 -2.74252 0
M  V30 4286 H 401.609 -2.99835 -2.64459 0
M  V30 4287 H 403.049 -2.4011 -3.49461 0
M  V30 4288 C 401.508 -0.937539 -3.23592 0
M  V30 4289 O 402.038 -0.160665 -4.01379 0
M  V30 4290 N 400.244 -0.741478 -2.80981 0
M  V30 4291 H 399.791 -1.37489 -2.1784 0
M  V30 4292 H 399.749 0.0597103 -3.14343 0
M  V30 4293 N 403.521 0.559213 -1.47345 0
M  V30 4294 C 404.77 1.31281 -1.53128 0
M  V30 4295 C 405.083 1.94602 -0.197344 0
M  V30 4296 O 406.289 2.71173 -0.133154 0
M  V30 4297 C 404.745 2.38051 -2.69925 0
M  V30 4298 C 404.353 1.8093 -4.0984 0
M  V30 4299 C 406.097 3.14604 -2.84999 0
M  V30 4300 C 404.004 2.85468 -5.1794 0
M  V30 4301 H 402.934 0.493614 -0.569966 0
M  V30 4302 H 405.585 0.594155 -1.73615 0
M  V30 4303 H 403.967 3.12822 -2.42814 0
M  V30 4304 H 405.141 1.12544 -4.46845 0
M  V30 4305 H 403.456 1.16967 -3.99634 0
M  V30 4306 H 406.053 3.92666 -3.62929 0
M  V30 4307 H 406.396 3.68665 -1.93369 0
M  V30 4308 H 406.929 2.46945 -3.1187 0
M  V30 4309 H 403.668 2.36264 -6.1144 0
M  V30 4310 H 403.188 3.52269 -4.85455 0
M  V30 4311 H 404.867 3.48996 -5.44803 0
M  V30 4312 N 404.999 1.35443 0.805782 0
M  V30 4313 C 405.946 1.28431 1.91766 0
M  V30 4314 C 406.916 0.156102 1.65365 0
M  V30 4315 O 408.101 0.339936 1.87747 0
M  V30 4316 C 405.241 1.06301 3.2832 0
M  V30 4317 C 404.354 2.2805 3.66902 0
M  V30 4318 C 403.489 1.99064 4.92491 0
M  V30 4319 C 402.528 3.16863 5.23703 0
M  V30 4320 N 401.665 2.87647 6.40471 0
M  V30 4321 H 406.505 2.23511 1.97096 0
M  V30 4322 H 404.042 1.11105 0.964054 0
M  V30 4323 H 406 0.915012 4.07042 0
M  V30 4324 H 404.63 0.148822 3.22457 0
M  V30 4325 H 403.682 2.53711 2.83434 0
M  V30 4326 H 404.994 3.1601 3.85927 0
M  V30 4327 H 404.148 1.81099 5.7904 0
M  V30 4328 H 402.887 1.0839 4.75503 0
M  V30 4329 H 401.892 3.35404 4.35642 0
M  V30 4330 H 403.117 4.08339 5.4262 0
M  V30 4331 H 401.063 1.99568 6.24907 0
M  V30 4332 H 400.98 3.69141 6.59751 0
M  V30 4333 H 402.248 2.73226 7.30047 0
M  V30 4334 N 406.477 -1.02803 1.19454 0
M  V30 4335 C 407.723 -1.76478 0.999171 0
M  V30 4336 C 408.056 -1.88456 -0.468828 0
M  V30 4337 O 407.331 -1.40198 -1.34814 0
M  V30 4338 C 407.614 -3.19044 1.66981 0
M  V30 4339 C 407.467 -3.14932 3.21151 0
M  V30 4340 C 408.786 -4.17456 1.39349 0
M  V30 4341 H 405.905 -0.640614 0.364393 0
M  V30 4342 H 408.547 -1.20005 1.47305 0
M  V30 4343 H 406.697 -3.67263 1.2669 0
M  V30 4344 H 408.369 -2.74605 3.70661 0
M  V30 4345 H 406.612 -2.52625 3.52652 0
M  V30 4346 H 407.283 -4.1566 3.63223 0
M  V30 4347 H 409.759 -3.77842 1.74283 0
M  V30 4348 H 408.635 -5.154 1.88823 0
M  V30 4349 H 408.896 -4.40949 0.318813 0
M  V30 4350 N 407.956 -0.998596 -1.21925 0
M  V30 4351 C 409.203 -0.677663 -1.90824 0
M  V30 4352 C 409.531 0.790905 -1.77693 0
M  V30 4353 O 408.786 1.58817 -1.14349 0
M  V30 4354 C 409.085 -1.03648 -3.42041 0
M  V30 4355 C 408.751 -2.49825 -3.75364 0
M  V30 4356 C 407.413 -2.8977 -3.8417 0
M  V30 4357 C 409.765 -3.44545 -3.91073 0
M  V30 4358 C 407.093 -4.23412 -4.06127 0
M  V30 4359 C 409.445 -4.77853 -4.14535 0
M  V30 4360 C 408.109 -5.17531 -4.21566 0
M  V30 4361 H 407.379 -0.247975 -0.698276 0
M  V30 4362 H 410.026 -1.25584 -1.44571 0
M  V30 4363 H 408.331 -0.376457 -3.89987 0
M  V30 4364 H 410.028 -0.766113 -3.93614 0
M  V30 4365 H 406.618 -2.17866 -3.69097 0
M  V30 4366 H 410.802 -3.14853 -3.83642 0
M  V30 4367 H 406.058 -4.53734 -4.09799 0
M  V30 4368 H 410.232 -5.51189 -4.25633 0
M  V30 4369 H 407.859 -6.21102 -4.38333 0
M  V30 4370 N 409.434 1.37368 -0.772513 0
M  V30 4371 C 410.711 1.93839 -0.26188 0
M  V30 4372 C 411.091 1.7061 1.24319 0
M  V30 4373 O 410.439 1.05534 2.02669 0
M  V30 4374 C 410.649 3.43154 -0.636102 0
M  V30 4375 C 411.997 4.20249 -0.606324 0
M  V30 4376 O 413.021 3.5152 -0.575538 0
M  V30 4377 O 411.88 5.42809 -0.634086 0
M  V30 4378 H 408.974 0.82478 -0.0605555 0
M  V30 4379 H 411.52 1.4665 -0.853917 0
M  V30 4380 H 410.292 3.53647 -1.6748 0
M  V30 4381 H 409.915 3.97596 -0.0170516 0
M  V30 4382 N 410.912 0.523116 1.48665 0
M  V30 4383 C 412.159 -0.0134763 2.02496 0
M  V30 4384 C 412.487 -1.3493 1.40086 0
M  V30 4385 O 411.742 -1.88286 0.533567 0
M  V30 4386 C 412.041 -0.191671 3.56886 0
M  V30 4387 C 411.707 1.06893 4.38046 0
M  V30 4388 C 410.369 1.41443 4.59943 0
M  V30 4389 C 412.721 1.90584 4.85106 0
M  V30 4390 C 410.049 2.59594 5.26144 0
M  V30 4391 C 412.401 3.07907 5.52609 0
M  V30 4392 C 411.065 3.42811 5.72745 0
M  V30 4393 H 410.335 -0.00493133 0.740984 0
M  V30 4394 H 412.982 0.687751 1.78724 0
M  V30 4395 H 411.287 -0.97561 3.79459 0
M  V30 4396 H 412.984 -0.621659 3.96152 0
M  V30 4397 H 409.574 0.789848 4.21259 0
M  V30 4398 H 413.758 1.65203 4.67997 0
M  V30 4399 H 409.014 2.86847 5.39934 0
M  V30 4400 H 413.188 3.73066 5.88043 0
M  V30 4401 H 410.815 4.34462 6.23816 0
M  V30 4402 N 412.39 -1.55475 0.257931 0
M  V30 4403 C 413.618 -2.03609 -0.367559 0
M  V30 4404 C 414.033 -1.13687 -1.50734 0
M  V30 4405 O 413.39 -0.153479 -1.81853 0
M  V30 4406 C 413.441 -3.51001 -0.864908 0
M  V30 4407 O 413.162 -4.37499 0.229465 0
M  V30 4408 C 414.663 -4.14946 -1.55997 0
M  V30 4409 H 411.883 -0.665459 -0.0860521 0
M  V30 4410 H 414.427 -2.00843 0.385014 0
M  V30 4411 H 412.582 -3.54266 -1.56762 0
M  V30 4412 H 412.996 -5.24286 -0.14998 0
M  V30 4413 H 414.47 -5.19735 -1.85956 0
M  V30 4414 H 414.947 -3.6209 -2.4857 0
M  V30 4415 H 415.553 -4.15635 -0.901543 0
M  V30 4416 N 413.868 0.0150385 -1.57593 0
M  V30 4417 C 415.115 0.703001 -1.89906 0
M  V30 4418 C 415.443 1.74604 -0.856944 0
M  V30 4419 O 414.698 1.95197 0.140287 0
M  V30 4420 C 414.997 1.39686 -3.28972 0
M  V30 4421 C 414.663 0.488457 -4.48246 0
M  V30 4422 C 413.325 0.2383 -4.8061 0
M  V30 4423 C 415.677 -0.137881 -5.21018 0
M  V30 4424 C 413.005 -0.646738 -5.83125 0
M  V30 4425 C 415.357 -1.0107 -6.24474 0
M  V30 4426 C 414.021 -1.27019 -6.55303 0
M  V30 4427 H 413.291 0.257246 -0.694914 0
M  V30 4428 H 415.938 -0.037259 -1.91464 0
M  V30 4429 H 414.243 2.21079 -3.23468 0
M  V30 4430 H 415.94 1.93495 -3.51227 0
M  V30 4431 H 412.53 0.693593 -4.22951 0
M  V30 4432 H 416.714 0.0423953 -4.96282 0
M  V30 4433 H 411.97 -0.855937 -6.05379 0
M  V30 4434 H 416.144 -1.50247 -6.79999 0
M  V30 4435 H 413.771 -1.95769 -7.3456 0
M  V30 4436 N 415.346 1.54954 0.287554 0
M  V30 4437 C 416.571 1.79209 1.04397 0
M  V30 4438 C 416.996 0.556431 1.79682 0
M  V30 4439 O 416.354 -0.493518 1.74454 0
M  V30 4440 C 416.402 3.00739 1.98969 0
M  V30 4441 O 415.506 2.74805 3.075 0
M  V30 4442 H 414.847 0.592755 0.299227 0
M  V30 4443 H 417.377 2.02068 0.320886 0
M  V30 4444 H 417.387 3.29077 2.4119 0
M  V30 4445 H 416.062 3.90329 1.43582 0
M  V30 4446 H 414.639 2.57523 2.69697 0
M  V30 4447 N 416.824 -0.551391 1.4764 0
M  V30 4448 C 418.235 -1.13349 1.48354 0
M  V30 4449 C 418.586 -1.94709 0.241432 0
M  V30 4450 O 417.711 -2.06306 -0.653205 0
M  V30 4451 C 418.306 -2.0623 2.68802 0
M  V30 4452 C 416.865 -2.597 2.72457 0
M  V30 4453 C 416.012 -1.36201 2.41546 0
M  V30 4454 H 418.963 -0.337698 1.55065 0
M  V30 4455 H 418.984 -2.90196 2.46103 0
M  V30 4456 H 418.496 -1.46987 3.59188 0
M  V30 4457 H 416.597 -3.22724 1.86225 0
M  V30 4458 H 416.71 -3.00296 3.73308 0
M  V30 4459 H 415.074 -1.67068 1.9225 0
M  V30 4460 H 415.857 -0.787425 3.34147 0
M  V30 4461 N 418.302 -1.35869 -0.798587 0
M  V30 4462 C 419.212 -1.31578 -1.94228 0
M  V30 4463 C 420.228 -0.21939 -1.72611 0
M  V30 4464 O 421.404 -0.450167 -1.96305 0
M  V30 4465 C 418.469 -1.09528 -3.28944 0
M  V30 4466 C 417.53 -2.28556 -3.63402 0
M  V30 4467 C 416.763 -2.07549 -4.9169 0
M  V30 4468 O 416.986 -1.046 -5.60727 0
M  V30 4469 O 415.92 -2.95106 -5.24591 0
M  V30 4470 H 419.746 -2.27847 -2.00796 0
M  V30 4471 H 417.331 -1.16322 -0.937526 0
M  V30 4472 H 419.213 -0.991127 -4.09579 0
M  V30 4473 H 417.888 -0.16315 -3.23289 0
M  V30 4474 H 416.795 -2.44538 -2.83112 0
M  V30 4475 H 418.128 -3.20244 -3.73771 0
M  V30 4476 N 419.78 1.02168 -1.19998 0
M  V30 4477 C 420.69 2.14069 -0.959774 0
M  V30 4478 C 421.706 1.73804 0.082655 0
M  V30 4479 O 422.882 2.01133 -0.103633 0
M  V30 4480 C 419.947 3.42936 -0.509459 0
M  V30 4481 C 419.008 3.97474 -1.62213 0
M  V30 4482 C 418.241 5.2019 -1.19321 0
M  V30 4483 O 418.464 5.70369 -0.0597726 0
M  V30 4484 O 417.398 5.67749 -1.99863 0
M  V30 4485 H 421.224 2.37199 -1.89658 0
M  V30 4486 H 418.809 1.12469 -0.983411 0
M  V30 4487 H 420.691 4.20551 -0.267322 0
M  V30 4488 H 419.366 3.21234 0.398821 0
M  V30 4489 H 418.273 3.21161 -1.9185 0
M  V30 4490 H 419.606 4.23555 -2.50723 0
M  V30 4491 N 421.258 1.00505 1.21394 0
M  V30 4492 C 422.191 0.51032 2.22421 0
M  V30 4493 C 423.169 -0.436 1.56645 0
M  V30 4494 O 424.353 -0.358709 1.85055 0
M  V30 4495 C 421.48 -0.258733 3.3771 0
M  V30 4496 C 420.526 0.635395 4.2174 0
M  V30 4497 S 421.359 2.09783 4.92698 0
M  V30 4498 C 422.515 1.33862 6.11418 0
M  V30 4499 H 422.748 1.36637 2.64041 0
M  V30 4500 H 420.281 0.812991 1.31262 0
M  V30 4501 H 422.239 -0.696372 4.0455 0
M  V30 4502 H 420.9 -1.0902 2.94573 0
M  V30 4503 H 420.093 0.0430189 5.03982 0
M  V30 4504 H 419.695 1.01031 3.60095 0
M  V30 4505 H 421.987 0.612541 6.74725 0
M  V30 4506 H 422.93 2.13675 6.75092 0
M  V30 4507 H 423.338 0.846568 5.58116 0
M  V30 4508 N 422.737 -1.36956 0.779787 0
M  V30 4509 C 423.684 -2.30175 0.169697 0
M  V30 4510 C 424.654 -1.51501 -0.68094 0
M  V30 4511 O 425.839 -1.80042 -0.631629 0
M  V30 4512 C 422.979 -3.37985 -0.697131 0
M  V30 4513 C 422.092 -4.31661 0.170992 0
M  V30 4514 C 421.227 -5.2655 -0.701298 0
M  V30 4515 C 420.266 -6.11867 0.168869 0
M  V30 4516 N 419.403 -6.98973 -0.661855 0
M  V30 4517 H 424.243 -2.81767 0.970135 0
M  V30 4518 H 421.78 -1.38699 0.489994 0
M  V30 4519 H 423.738 -3.99128 -1.2146 0
M  V30 4520 H 422.368 -2.87739 -1.46309 0
M  V30 4521 H 421.42 -3.71756 0.80634 0
M  V30 4522 H 422.732 -4.91644 0.841875 0
M  V30 4523 H 421.886 -5.92937 -1.28494 0
M  V30 4524 H 420.625 -4.66998 -1.40584 0
M  V30 4525 H 419.63 -5.44452 0.764986 0
M  V30 4526 H 420.855 -6.73493 0.870863 0
M  V30 4527 H 418.801 -6.41941 -1.35086 0
M  V30 4528 H 418.718 -7.55984 -0.0484447 0
M  V30 4529 H 419.986 -7.6974 -1.22963 0
M  V30 4530 N 424.215 -0.530993 -1.48385 0
M  V30 4531 C 425.147 0.268353 -2.27624 0
M  V30 4532 C 426.16 0.903525 -1.35426 0
M  V30 4533 O 427.349 0.781796 -1.60469 0
M  V30 4534 C 424.449 1.39535 -3.08842 0
M  V30 4535 C 423.622 0.861913 -4.28824 0
M  V30 4536 C 422.681 1.87016 -4.91845 0
M  V30 4537 O 421.707 1.4267 -5.5103 0
M  V30 4538 N 422.909 3.20238 -4.84178 0
M  V30 4539 H 425.674 -0.41123 -2.96865 0
M  V30 4540 H 423.235 -0.365387 -1.57723 0
M  V30 4541 H 425.227 2.06803 -3.47871 0
M  V30 4542 H 423.797 1.97859 -2.42014 0
M  V30 4543 H 423.017 0.0132126 -3.94198 0
M  V30 4544 H 424.305 0.484415 -5.06489 0
M  V30 4545 H 423.703 3.58932 -4.37246 0
M  V30 4546 H 422.26 3.83136 -5.27305 0
M  V30 4547 N 425.693 1.55336 -0.266172 0
M  V30 4548 C 426.623 2.25146 0.618981 0
M  V30 4549 C 427.604 1.23845 1.16604 0
M  V30 4550 O 428.789 1.52544 1.20183 0
M  V30 4551 C 425.919 2.96572 1.80728 0
M  V30 4552 C 424.873 4.04726 1.39215 0
M  V30 4553 C 424.199 4.63678 2.66283 0
M  V30 4554 C 425.499 5.19407 0.548942 0
M  V30 4555 H 427.193 2.99377 0.0368116 0
M  V30 4556 H 424.739 1.43991 0.0162651 0
M  V30 4557 H 426.692 3.44116 2.43232 0
M  V30 4558 H 425.416 2.19861 2.41514 0
M  V30 4559 H 424.075 3.57979 0.790351 0
M  V30 4560 H 423.723 3.83646 3.25308 0
M  V30 4561 H 423.423 5.367 2.39222 0
M  V30 4562 H 424.947 5.13967 3.29651 0
M  V30 4563 H 426.361 5.63059 1.07876 0
M  V30 4564 H 424.758 5.98936 0.373593 0
M  V30 4565 H 425.828 4.8295 -0.434394 0
M  V30 4566 N 427.171 -0.0066808 1.57599 0
M  V30 4567 C 428.119 -1.01851 2.09115 0
M  V30 4568 C 429.113 -1.36021 1.00969 0
M  V30 4569 O 430.319 -1.34663 1.19439 0
M  V30 4570 H 426.694 -0.346083 0.667631 0
M  V30 4571 H 428.665 -0.558394 2.93129 0
M  V30 4572 C 427.414 -2.30374 2.60429 0
M  V30 4573 H 426.737 -2.04947 3.43273 0
M  V30 4574 H 428.177 -2.99466 3.00161 0
M  V30 4575 C 426.636 -3.00893 1.51542 0
M  V30 4576 O 427.166 -3.91614 0.894484 0
M  V30 4577 N 425.372 -2.62603 1.2445 0
M  V30 4578 H 424.919 -1.88911 1.75129 0
M  V30 4579 H 424.877 -3.10101 0.518137 0
M  V30 4580 N 428.649 -1.55105 -0.279332 0
M  V30 4581 C 429.612 -1.86783 -1.32834 0
M  V30 4582 C 430.612 -0.74199 -1.42657 0
M  V30 4583 O 431.802 -1.0102 -1.41918 0
M  V30 4584 C 428.934 -2.06746 -2.71052 0
M  V30 4585 H 430.127 -2.8055 -1.05979 0
M  V30 4586 H 427.68 -1.47499 -0.517087 0
M  V30 4587 H 428.415 -1.15339 -3.03097 0
M  V30 4588 H 428.2 -2.88711 -2.65309 0
M  V30 4589 H 429.69 -2.32549 -3.46858 0
M  V30 4590 N 430.127 0.543554 -1.4793 0
M  V30 4591 C 431.057 1.65888 -1.64327 0
M  V30 4592 C 432.038 1.62818 -0.492383 0
M  V30 4593 O 433.223 1.80226 -0.723338 0
M  V30 4594 C 430.353 3.04506 -1.67013 0
M  V30 4595 C 429.307 3.2243 -2.81466 0
M  V30 4596 C 428.633 4.61972 -2.69233 0
M  V30 4597 C 429.933 3.06496 -4.22915 0
M  V30 4598 H 431.627 1.52421 -2.57698 0
M  V30 4599 H 429.173 0.731849 -1.24016 0
M  V30 4600 H 431.126 3.82391 -1.77074 0
M  V30 4601 H 429.85 3.18964 -0.70212 0
M  V30 4602 H 428.509 2.46957 -2.70938 0
M  V30 4603 H 428.157 4.73247 -1.7043 0
M  V30 4604 H 427.857 4.74911 -3.46025 0
M  V30 4605 H 429.381 5.41974 -2.81242 0
M  V30 4606 H 430.795 3.74186 -4.34348 0
M  V30 4607 H 429.192 3.30938 -5.006 0
M  V30 4608 H 430.262 2.03077 -4.40327 0
M  V30 4609 N 431.605 1.3629 0.791371 0
M  V30 4610 C 432.553 1.30514 1.92533 0
M  V30 4611 C 433.547 0.197285 1.68247 0
M  V30 4612 O 434.753 0.364176 1.76278 0
M  V30 4613 H 431.128 0.406263 0.632815 0
M  V30 4614 H 433.099 2.26282 1.94523 0
M  V30 4615 C 431.848 1.10933 3.29529 0
M  V30 4616 H 431.171 1.95427 3.48781 0
M  V30 4617 H 432.611 1.10937 4.0923 0
M  V30 4618 C 431.07 -0.186123 3.36385 0
M  V30 4619 O 431.6 -1.17664 3.84081 0
M  V30 4620 N 429.806 -0.230128 2.89687 0
M  V30 4621 H 429.353 0.576545 2.51065 0
M  V30 4622 H 429.311 -1.09658 2.94657 0
M  V30 4623 N 433.083 -1.0153 1.20538 0
M  V30 4624 C 434.03 -2.10098 0.955383 0
M  V30 4625 C 435 -1.65702 -0.114878 0
M  V30 4626 O 436.185 -1.90776 0.0301118 0
M  V30 4627 C 433.325 -3.41236 0.514969 0
M  V30 4628 C 432.438 -3.99102 1.65353 0
M  V30 4629 C 431.573 -5.18306 1.16329 0
M  V30 4630 C 430.612 -5.68258 2.27485 0
M  V30 4631 N 429.749 -6.78722 1.7967 0
M  V30 4632 H 434.589 -2.30818 1.88486 0
M  V30 4633 H 432.126 -1.13189 0.939499 0
M  V30 4634 H 434.084 -4.16504 0.240935 0
M  V30 4635 H 432.714 -3.20585 -0.377512 0
M  V30 4636 H 431.766 -3.20918 2.04245 0
M  V30 4637 H 433.078 -4.32177 2.49047 0
M  V30 4638 H 432.232 -6.00782 0.845302 0
M  V30 4639 H 430.971 -4.86799 0.296254 0
M  V30 4640 H 429.976 -4.84385 2.60099 0
M  V30 4641 H 431.201 -6.01798 3.14667 0
M  V30 4642 H 429.147 -6.49042 0.95295 0
M  V30 4643 H 429.064 -7.10996 2.56944 0
M  V30 4644 H 430.332 -7.64759 1.50875 0
M  V30 4645 N 434.561 -1.01147 -1.20859 0
M  V30 4646 C 435.509 -0.57059 -2.25493 0
M  V30 4647 C 436.503 0.388109 -1.64894 0
M  V30 4648 O 437.709 0.258592 -1.78133 0
M  V30 4649 H 434.084 -0.166191 -0.733406 0
M  V30 4650 H 436.055 -1.46411 -2.60012 0
M  V30 4651 C 434.804 0.0805241 -3.47607 0
M  V30 4652 H 434.127 -0.648156 -3.94511 0
M  V30 4653 H 435.567 0.352197 -4.22535 0
M  V30 4654 C 434.026 1.32175 -3.09889 0
M  V30 4655 O 434.556 2.41553 -3.20959 0
M  V30 4656 N 432.762 1.20392 -2.64488 0
M  V30 4657 H 432.309 0.313905 -2.5568 0
M  V30 4658 H 432.267 2.03541 -2.39621 0
M  V30 4659 N 436.039 1.36541 -0.78704 0
M  V30 4660 C 437.285 2.00044 -0.367938 0
M  V30 4661 C 437.64 1.61345 1.04812 0
M  V30 4662 O 436.933 0.856936 1.71368 0
M  V30 4663 C 437.127 3.54343 -0.466485 0
M  V30 4664 C 436.956 4.08029 -1.89058 0
M  V30 4665 C 435.726 4.38284 -2.51466 0
M  V30 4666 C 437.924 4.27954 -2.85236 0
M  V30 4667 N 435.906 4.77778 -3.85488 0
M  V30 4668 C 437.277 4.70227 -4.04088 0
M  V30 4669 C 439.332 4.10119 -2.82324 0
M  V30 4670 C 438.035 4.96532 -5.20432 0
M  V30 4671 C 440.061 4.37569 -3.97854 0
M  V30 4672 C 439.423 4.80095 -5.15449 0
M  V30 4673 H 435.522 0.760525 -0.182004 0
M  V30 4674 H 438.106 1.65589 -1.02413 0
M  V30 4675 H 436.277 3.88072 0.159606 0
M  V30 4676 H 438.009 4.04693 -0.0238577 0
M  V30 4677 H 434.764 4.27905 -2.02965 0
M  V30 4678 H 435.188 5.01813 -4.54437 0
M  V30 4679 H 439.83 3.76399 -1.92571 0
M  V30 4680 H 437.548 5.29134 -6.10773 0
M  V30 4681 H 441.134 4.25341 -3.96958 0
M  V30 4682 H 440.014 5.00925 -6.0336 0
M  V30 4683 N 437.518 0.538854 1.48102 0
M  V30 4684 C 438.934 0.19732 1.58376 0
M  V30 4685 C 439.134 -1.29971 1.5398 0
M  V30 4686 O 438.19 -2.07861 1.43352 0
M  V30 4687 C 439.503 0.807716 2.89649 0
M  V30 4688 C 441.051 0.77726 3.03196 0
M  V30 4689 C 441.526 1.36639 4.37143 0
M  V30 4690 N 443.017 1.32875 4.43732 0
M  V30 4691 C 443.752 1.7544 5.45901 0
M  V30 4692 N 443.248 2.25776 6.54979 0
M  V30 4693 N 445.041 1.66623 5.36836 0
M  V30 4694 H 437.192 1.5117 1.49202 0
M  V30 4695 H 439.455 0.629327 0.708979 0
M  V30 4696 H 439.161 1.85909 2.98548 0
M  V30 4697 H 439.035 0.289975 3.76084 0
M  V30 4698 H 441.422 -0.265374 2.93904 0
M  V30 4699 H 441.503 1.33256 2.18349 0
M  V30 4700 H 441.147 2.408 4.47189 0
M  V30 4701 H 441.077 0.786689 5.20691 0
M  V30 4702 H 443.568 0.96037 3.65493 0
M  V30 4703 H 443.881 2.56226 7.29087 0
M  V30 4704 H 442.226 2.29775 6.55918 0
M  V30 4705 H 445.417 1.27089 4.50517 0
M  V30 4706 H 445.59 2.00115 6.16326 0
M  V30 4707 N 438.996 -1.55193 0.274407 0
M  V30 4708 C 440.226 -2.03692 -0.345442 0
M  V30 4709 C 440.634 -1.15224 -1.50067 0
M  V30 4710 O 439.977 -0.164749 -1.8296 0
M  V30 4711 C 440.039 -3.48325 -0.88939 0
M  V30 4712 C 439.703 -4.56794 0.137115 0
M  V30 4713 C 440.7 -5.11028 0.956378 0
M  V30 4714 C 438.385 -5.01568 0.27115 0
M  V30 4715 C 440.379 -6.08552 1.89587 0
M  V30 4716 C 438.066 -5.98918 1.21412 0
M  V30 4717 C 439.064 -6.52291 2.02498 0
M  V30 4718 O 438.752 -7.47738 2.952 0
M  V30 4719 H 438.484 -0.670893 -0.0829332 0
M  V30 4720 H 441.038 -2.01387 0.404056 0
M  V30 4721 H 439.268 -3.47867 -1.68895 0
M  V30 4722 H 440.957 -3.80167 -1.42225 0
M  V30 4723 H 441.723 -4.7725 0.863559 0
M  V30 4724 H 437.602 -4.5967 -0.349987 0
M  V30 4725 H 441.146 -6.50137 2.52918 0
M  V30 4726 H 437.043 -6.32114 1.30776 0
M  V30 4727 H 437.811 -7.65451 2.89874 0
M  V30 4728 N 440.474 -0.00167713 -1.576 0
M  V30 4729 C 441.723 0.682021 -1.89819 0
M  V30 4730 C 442.036 1.74844 -0.876871 0
M  V30 4731 O 443.242 2.48688 -1.08934 0
M  V30 4732 C 441.698 1.26425 -3.36964 0
M  V30 4733 C 441.306 0.232568 -4.47396 0
M  V30 4734 C 443.05 1.92604 -3.78291 0
M  V30 4735 C 440.957 0.824882 -5.85619 0
M  V30 4736 H 439.887 0.258499 -0.708304 0
M  V30 4737 H 442.538 -0.0624957 -1.83394 0
M  V30 4738 H 440.92 2.05949 -3.38232 0
M  V30 4739 H 442.094 -0.5382 -4.57646 0
M  V30 4740 H 440.409 -0.32888 -4.15099 0
M  V30 4741 H 443.006 2.37827 -4.78897 0
M  V30 4742 H 443.349 2.75732 -3.11894 0
M  V30 4743 H 443.882 1.19812 -3.79328 0
M  V30 4744 H 440.621 0.0323542 -6.55492 0
M  V30 4745 H 440.141 1.56477 -5.79029 0
M  V30 4746 H 441.82 1.32301 -6.33329 0
M  V30 4747 N 441.952 1.55251 0.271103 0
M  V30 4748 C 443.198 1.76207 1.00394 0
M  V30 4749 C 443.531 0.562604 1.85872 0
M  V30 4750 O 442.806 -0.439785 1.89463 0
M  V30 4751 C 443.089 3.06828 1.8849 0
M  V30 4752 C 442.942 4.37134 1.05992 0
M  V30 4753 C 444.261 3.33503 2.87165 0
M  V30 4754 H 441.38 0.641086 0.363562 0
M  V30 4755 H 444.022 1.87982 0.276189 0
M  V30 4756 H 442.172 2.96921 2.5054 0
M  V30 4757 H 443.844 4.59001 0.459978 0
M  V30 4758 H 442.087 4.32275 0.363443 0
M  V30 4759 H 442.758 5.2486 1.70955 0
M  V30 4760 H 445.234 3.43215 2.3525 0
M  V30 4761 H 444.11 4.2616 3.45946 0
M  V30 4762 H 444.371 2.53235 3.62387 0
M  V30 4763 N 443.43 -0.535701 1.48216 0
M  V30 4764 C 444.841 -1.11769 1.49548 0
M  V30 4765 C 445.192 -1.94442 0.26207 0
M  V30 4766 O 444.317 -2.06987 -0.631287 0
M  V30 4767 C 444.912 -2.03367 2.70975 0
M  V30 4768 C 443.471 -2.56795 2.75196 0
M  V30 4769 C 442.618 -1.33631 2.42977 0
M  V30 4770 H 445.569 -0.321232 1.55415 0
M  V30 4771 H 445.59 -2.87569 2.49167 0
M  V30 4772 H 445.102 -1.43169 3.60727 0
M  V30 4773 H 443.203 -3.20731 1.89638 0
M  V30 4774 H 443.316 -2.9632 3.76472 0
M  V30 4775 H 441.68 -1.6502 1.94012 0
M  V30 4776 H 442.463 -0.75194 3.34964 0
M  V30 4777 N 444.908 -1.36708 -0.784132 0
M  V30 4778 C 445.841 -1.25827 -1.90375 0
M  V30 4779 C 446.819 -0.141331 -1.61985 0
M  V30 4780 O 448.003 -0.313389 -1.85877 0
M  V30 4781 C 445.13 -0.942621 -3.25319 0
M  V30 4782 C 444.176 -2.07474 -3.72635 0
M  V30 4783 S 445.009 -3.69317 -3.8777 0
M  V30 4784 C 446.165 -3.39876 -5.25581 0
M  V30 4785 H 446.398 -2.20593 -1.99314 0
M  V30 4786 H 443.931 -1.22186 -0.943926 0
M  V30 4787 H 445.889 -0.767321 -4.03265 0
M  V30 4788 H 444.55 -0.0126566 -3.14097 0
M  V30 4789 H 443.743 -1.80858 -4.70432 0
M  V30 4790 H 443.345 -2.20953 -3.01754 0
M  V30 4791 H 445.637 -2.94097 -6.10339 0
M  V30 4792 H 446.58 -4.36956 -5.57203 0
M  V30 4793 H 446.988 -2.75098 -4.92931 0
M  V30 4794 N 446.386 1.0089 -1.21074 0
M  V30 4795 C 447.316 2.1145 -0.990523 0
M  V30 4796 C 448.297 1.69897 0.0831699 0
M  V30 4797 O 449.482 1.94052 -0.0758853 0
M  V30 4798 C 446.612 3.42914 -0.550177 0
M  V30 4799 C 445.566 3.98244 -1.56799 0
M  V30 4800 C 444.892 5.25568 -0.984013 0
M  V30 4801 C 446.192 4.30752 -2.95381 0
M  V30 4802 H 447.886 2.3013 -1.91521 0
M  V30 4803 H 445.432 1.10592 -0.92225 0
M  V30 4804 H 447.385 4.19653 -0.383305 0
M  V30 4805 H 446.109 3.24014 0.41015 0
M  V30 4806 H 444.768 3.23621 -1.72236 0
M  V30 4807 H 444.416 5.02998 -0.0155216 0
M  V30 4808 H 444.116 5.63551 -1.66384 0
M  V30 4809 H 445.64 6.04955 -0.828378 0
M  V30 4810 H 447.054 4.98349 -2.8341 0
M  V30 4811 H 445.451 4.79869 -3.60341 0
M  V30 4812 H 446.521 3.39192 -3.46521 0
M  V30 4813 N 447.864 1.01787 1.20321 0
M  V30 4814 C 449.092 0.727194 1.937 0
M  V30 4815 C 449.507 -0.712305 1.74848 0
M  V30 4816 O 448.864 -1.48327 1.06327 0
M  V30 4817 C 448.915 1.05497 3.45764 0
M  V30 4818 O 448.636 2.43794 3.64 0
M  V30 4819 C 450.137 0.785534 4.36285 0
M  V30 4820 H 447.357 0.266939 0.615617 0
M  V30 4821 H 449.901 1.35939 1.52777 0
M  V30 4822 H 448.056 0.468158 3.84561 0
M  V30 4823 H 448.47 2.55656 4.57974 0
M  V30 4824 H 449.944 1.06495 5.4163 0
M  V30 4825 H 450.421 -0.280273 4.38305 0
M  V30 4826 H 451.027 1.35456 4.03152 0
M  V30 4827 N 449.342 -1.36122 0.79427 0
M  V30 4828 C 450.588 -1.99406 0.369452 0
M  V30 4829 C 450.921 -1.62886 -1.05743 0
M  V30 4830 O 450.196 -0.886053 -1.73145 0
M  V30 4831 C 450.479 -3.56046 0.538833 0
M  V30 4832 C 450.332 -4.02404 2.00976 0
M  V30 4833 C 451.651 -4.40079 -0.0431359 0
M  V30 4834 H 448.77 -0.724397 0.135712 0
M  V30 4835 H 451.412 -1.61461 1.00151 0
M  V30 4836 H 449.562 -3.885 0.000771004 0
M  V30 4837 H 451.234 -3.80415 2.60926 0
M  V30 4838 H 449.477 -3.53765 2.51063 0
M  V30 4839 H 450.148 -5.11344 2.07922 0
M  V30 4840 H 452.624 -4.14013 0.416228 0
M  V30 4841 H 451.5 -5.48799 0.105374 0
M  V30 4842 H 451.761 -4.27264 -1.13571 0
M  V30 4843 N 450.82 -0.546701 -1.47814 0
M  V30 4844 C 452.097 0.0464413 -1.95545 0
M  V30 4845 C 452.477 1.4962 -1.48919 0
M  V30 4846 O 451.825 2.16752 -0.723232 0
M  V30 4847 C 452.035 -0.0881298 -3.48889 0
M  V30 4848 C 453.383 0.0626059 -4.24554 0
M  V30 4849 O 454.407 -0.0151555 -3.56197 0
M  V30 4850 O 453.266 0.228071 -5.46024 0
M  V30 4851 H 450.36 0.0700004 -0.824032 0
M  V30 4852 H 452.906 -0.612482 -1.58262 0
M  V30 4853 H 451.678 -1.09737 -3.75597 0
M  V30 4854 H 451.301 0.608886 -3.9291 0
M  V30 4855 N 452.299 1.55045 -0.282633 0
M  V30 4856 C 453.547 1.99365 0.331334 0
M  V30 4857 C 453.868 1.1725 1.55812 0
M  V30 4858 O 453.138 0.263871 1.94115 0
M  V30 4859 H 451.718 0.736397 0.125414 0
M  V30 4860 H 454.38 1.90964 -0.389711 0
M  V30 4861 H 453.476 3.0596 0.616036 0
M  V30 4862 N 453.777 0.010035 1.57597 0
M  V30 4863 C 454.724 -0.978122 2.09049 0
M  V30 4864 C 455.694 -1.33509 0.988159 0
M  V30 4865 O 456.879 -1.43172 1.26121 0
M  V30 4866 C 454.019 -2.26158 2.60666 0
M  V30 4867 C 453.132 -1.96275 3.84838 0
M  V30 4868 C 452.267 -3.18776 4.24918 0
M  V30 4869 C 451.306 -2.84625 5.41899 0
M  V30 4870 N 450.443 -3.99693 5.77226 0
M  V30 4871 H 455.283 -0.532431 2.93205 0
M  V30 4872 H 452.82 -0.251234 1.44939 0
M  V30 4873 H 454.778 -3.01202 2.88675 0
M  V30 4874 H 453.408 -2.68378 1.79369 0
M  V30 4875 H 452.46 -1.11555 3.63675 0
M  V30 4876 H 453.772 -1.67111 4.69974 0
M  V30 4877 H 452.926 -4.02157 4.54262 0
M  V30 4878 H 451.665 -3.51087 3.38511 0
M  V30 4879 H 450.67 -1.99653 5.12268 0
M  V30 4880 H 451.895 -2.53551 6.29991 0
M  V30 4881 H 449.841 -4.31882 4.93776 0
M  V30 4882 H 449.758 -3.74087 6.56959 0
M  V30 4883 H 451.026 -4.83834 6.11167 0
M  V30 4884 N 455.255 -1.55392 -0.262866 0
M  V30 4885 C 456.671 -1.47459 -0.610582 0
M  V30 4886 C 456.871 -0.697031 -1.8906 0
M  V30 4887 O 455.927 -0.219952 -2.5154 0
M  V30 4888 C 457.24 -2.91751 -0.728131 0
M  V30 4889 C 458.788 -3.02027 -0.821517 0
M  V30 4890 C 459.263 -4.47594 -0.97076 0
M  V30 4891 N 460.754 -4.51465 -1.03603 0
M  V30 4892 C 461.489 -5.61326 -1.17049 0
M  V30 4893 N 460.985 -6.81032 -1.2715 0
M  V30 4894 N 462.778 -5.49089 -1.20239 0
M  V30 4895 H 454.929 -2.04395 0.577632 0
M  V30 4896 H 457.192 -0.927287 0.197086 0
M  V30 4897 H 456.898 -3.51413 0.142132 0
M  V30 4898 H 456.772 -3.4134 -1.6052 0
M  V30 4899 H 459.159 -2.42456 -1.68224 0
M  V30 4900 H 459.24 -2.55674 0.0803688 0
M  V30 4901 H 458.884 -5.07771 -0.114655 0
M  V30 4902 H 458.814 -4.91613 -1.88745 0
M  V30 4903 H 461.305 -3.6524 -0.96996 0
M  V30 4904 H 461.618 -7.60511 -1.37271 0
M  V30 4905 H 459.963 -6.83824 -1.24136 0
M  V30 4906 H 463.154 -4.54507 -1.11985 0
M  V30 4907 H 463.327 -6.34749 -1.30373 0
M  V30 4908 N 456.733 0.527833 -1.48498 0
M  V30 4909 C 457.979 1.28545 -1.56857 0
M  V30 4910 C 458.312 1.92678 -0.242651 0
M  V30 4911 O 457.587 1.79394 0.751545 0
M  V30 4912 C 457.87 2.37314 -2.70839 0
M  V30 4913 C 457.723 1.77858 -4.13142 0
M  V30 4914 C 459.042 3.39068 -2.80573 0
M  V30 4915 H 456.161 0.466006 -0.570971 0
M  V30 4916 H 458.803 0.587784 -1.8068 0
M  V30 4917 H 456.953 2.96821 -2.50658 0
M  V30 4918 H 458.625 1.22385 -4.44769 0
M  V30 4919 H 456.868 1.08383 -4.20042 0
M  V30 4920 H 457.539 2.56624 -4.88721 0
M  V30 4921 H 460.015 2.89518 -2.98862 0
M  V30 4922 H 458.891 4.12566 -3.6205 0
M  V30 4923 H 459.152 3.9975 -1.88818 0
M  V30 4924 N 458.211 1.37122 0.776871 0
M  V30 4925 C 459.622 1.28667 1.35284 0
M  V30 4926 C 459.973 -0.0680035 1.96082 0
M  V30 4927 O 459.098 -0.969743 1.93455 0
M  V30 4928 C 459.693 2.32997 2.45963 0
M  V30 4929 C 458.252 2.28191 2.99342 0
M  V30 4930 C 457.399 2.17101 1.72517 0
M  V30 4931 H 460.35 1.47819 0.577527 0
M  V30 4932 H 460.371 1.97366 3.2531 0
M  V30 4933 H 459.883 3.3158 2.01684 0
M  V30 4934 H 457.984 1.33115 3.4801 0
M  V30 4935 H 458.097 3.21397 3.55304 0
M  V30 4936 H 456.461 1.63562 1.95242 0
M  V30 4937 H 457.244 3.17591 1.30348 0
M  V30 4938 N 459.689 -1.00246 1.21608 0
M  V30 4939 C 461.105 -1.26435 0.973975 0
M  V30 4940 C 461.305 -1.98642 -0.338143 0
M  V30 4941 O 460.361 -2.29026 -1.06317 0
M  V30 4942 C 461.674 -2.08551 2.16626 0
M  V30 4943 C 463.222 -2.21769 2.20879 0
M  V30 4944 C 463.697 -3.07267 3.39633 0
M  V30 4945 N 465.188 -3.14855 3.39736 0
M  V30 4946 C 465.923 -3.81274 4.28273 0
M  V30 4947 N 465.419 -4.497 5.27012 0
M  V30 4948 N 467.212 -3.7794 4.16074 0
M  V30 4949 H 459.363 -0.518089 2.05984 0
M  V30 4950 H 461.626 -0.291368 0.902113 0
M  V30 4951 H 461.332 -1.62847 3.11727 0
M  V30 4952 H 461.206 -3.09303 2.15897 0
M  V30 4953 H 463.593 -2.66691 1.26332 0
M  V30 4954 H 463.674 -1.20478 2.25652 0
M  V30 4955 H 463.318 -2.63047 4.34475 0
M  V30 4956 H 463.248 -4.08678 3.321 0
M  V30 4957 H 465.739 -2.66147 2.6828 0
M  V30 4958 H 466.052 -4.98092 5.90867 0
M  V30 4959 H 464.397 -4.48479 5.30935 0
M  V30 4960 H 467.588 -3.23638 3.38195 0
M  V30 4961 H 467.761 -4.29424 4.85282 0
M  V30 4962 N 461.167 -1.02423 -1.1978 0
M  V30 4963 C 462.444 -0.632802 -1.85081 0
M  V30 4964 C 462.824 0.888745 -1.9148 0
M  V30 4965 O 462.172 1.78357 -1.42832 0
M  V30 4966 C 462.382 -1.28947 -3.24305 0
M  V30 4967 C 463.73 -1.40976 -4.00513 0
M  V30 4968 O 464.754 -1.24628 -3.33686 0
M  V30 4969 O 463.613 -1.67467 -5.20209 0
M  V30 4970 H 460.707 -0.219348 -0.79738 0
M  V30 4971 H 463.253 -1.12209 -1.27307 0
M  V30 4972 H 462.025 -2.3288 -3.14456 0
M  V30 4973 H 461.648 -0.787748 -3.89718 0
M  V30 4974 N 462.645 1.35699 -0.801477 0
M  V30 4975 C 463.608 2.28199 -0.213994 0
M  V30 4976 C 464.608 1.49359 0.595691 0
M  V30 4977 O 465.798 1.69186 0.414921 0
M  V30 4978 C 462.93 3.33587 0.702297 0
M  V30 4979 H 464.123 2.81666 -1.02976 0
M  V30 4980 H 461.676 1.45467 -0.571759 0
M  V30 4981 H 462.411 2.85297 1.54195 0
M  V30 4982 H 462.196 3.91906 0.123484 0
M  V30 4983 H 463.686 4.02638 1.10783 0
M  V30 4984 N 464.123 0.554532 1.47522 0
M  V30 4985 C 465.371 0.0294208 2.02079 0
M  V30 4986 C 465.692 -1.32411 1.43151 0
M  V30 4987 O 464.962 -1.863 0.605728 0
M  V30 4988 H 463.542 0.00788672 0.746958 0
M  V30 4989 H 466.204 0.723934 1.80956 0
M  V30 4990 H 465.3 -0.0606745 3.12041 0
M  V30 4991 N 465.601 -1.54893 0.290851 0
M  V30 4992 C 466.551 -2.19838 -0.604599 0
M  V30 4993 C 467.535 -1.16805 -1.10659 0
M  V30 4994 O 468.727 -1.42562 -1.04905 0
M  V30 4995 C 465.856 -2.93497 -1.78086 0
M  V30 4996 C 464.942 -4.03835 -1.29531 0
M  V30 4997 N 465.333 -5.03047 -0.527024 0
M  V30 4998 C 463.631 -4.17192 -1.57693 0
M  V30 4999 C 464.332 -5.81074 -0.269728 0
M  V30 5000 N 463.308 -5.36966 -0.846651 0
M  V30 5001 H 467.11 -2.93898 -0.00995032 0
M  V30 5002 H 464.624 -1.62121 0.0951353 0
M  V30 5003 H 466.621 -3.38484 -2.43381 0
M  V30 5004 H 465.281 -2.2095 -2.37931 0
M  V30 5005 H 466.292 -5.17611 -0.172872 0
M  V30 5006 H 462.969 -3.55845 -2.18359 0
M  V30 5007 H 464.359 -6.71005 0.346643 0
M  V30 5008 N 467.08 -0.0183926 -1.57589 0
M  V30 5009 C 468.491 0.521927 -1.79256 0
M  V30 5010 C 468.842 1.72885 -0.927636 0
M  V30 5011 O 467.967 2.15978 -0.135091 0
M  V30 5012 C 468.562 0.953632 -3.25102 0
M  V30 5013 C 467.121 1.43913 -3.47801 0
M  V30 5014 C 466.268 0.398837 -2.74417 0
M  V30 5015 H 469.219 -0.244485 -1.56805 0
M  V30 5016 H 469.24 1.81863 -3.34224 0
M  V30 5017 H 468.752 0.0750123 -3.88028 0
M  V30 5018 H 466.853 2.33804 -2.90115 0
M  V30 5019 H 466.966 1.45391 -4.56507 0
M  V30 5020 H 465.33 0.864572 -2.39577 0
M  V30 5021 H 466.113 -0.471132 -3.40052 0
M  V30 5022 N 468.558 1.5553 0.254621 0
M  V30 5023 C 469.488 1.9268 1.31897 0
M  V30 5024 C 470.469 0.790797 1.506 0
M  V30 5025 O 471.654 1.05045 1.63337 0
M  V30 5026 C 468.784 2.21477 2.67517 0
M  V30 5027 C 467.738 3.37256 2.63519 0
M  V30 5028 C 467.064 3.51576 4.02862 0
M  V30 5029 C 468.364 4.73157 2.21179 0
M  V30 5030 H 470.058 2.81832 1.01051 0
M  V30 5031 H 467.604 1.35599 0.484662 0
M  V30 5032 H 469.557 2.46055 3.42104 0
M  V30 5033 H 468.281 1.29144 2.99982 0
M  V30 5034 H 466.94 3.12675 1.9139 0
M  V30 5035 H 466.588 2.56676 4.32581 0
M  V30 5036 H 466.288 4.2943 4.01078 0
M  V30 5037 H 467.812 3.78467 4.79161 0
M  V30 5038 H 469.226 4.97158 2.85494 0
M  V30 5039 H 467.623 5.54058 2.30521 0
M  V30 5040 H 468.693 4.70739 1.16332 0
M  V30 5041 N 470.036 -0.519951 1.48776 0
M  V30 5042 C 471.266 -1.29783 1.60748 0
M  V30 5043 C 471.674 -1.87253 0.27072 0
M  V30 5044 O 471.017 -1.67628 -0.751438 0
M  V30 5045 C 471.079 -2.47984 2.60277 0
M  V30 5046 C 470.743 -2.11526 4.051 0
M  V30 5047 C 471.74 -1.66608 4.92481 0
M  V30 5048 C 469.425 -2.21742 4.50706 0
M  V30 5049 C 471.419 -1.32384 6.23501 0
M  V30 5050 C 469.106 -1.87129 5.81744 0
M  V30 5051 C 470.104 -1.42523 6.67964 0
M  V30 5052 O 469.792 -1.0837 7.96562 0
M  V30 5053 H 469.524 -0.400562 0.544542 0
M  V30 5054 H 472.078 -0.632879 1.95407 0
M  V30 5055 H 470.308 -3.17493 2.2076 0
M  V30 5056 H 471.997 -3.10036 2.61978 0
M  V30 5057 H 472.763 -1.58178 4.58481 0
M  V30 5058 H 468.642 -2.55415 3.83776 0
M  V30 5059 H 472.186 -0.974949 6.90754 0
M  V30 5060 H 468.083 -1.95204 6.15277 0
M  V30 5061 H 468.851 -1.21681 8.09405 0
M  V30 5062 N 471.514 -1.37532 -0.769588 0
M  V30 5063 C 472.925 -1.29382 -1.346 0
M  V30 5064 C 473.276 0.0576039 -1.96115 0
M  V30 5065 O 472.401 0.95947 -1.93967 0
M  V30 5066 C 472.996 -2.34298 -2.44724 0
M  V30 5067 C 471.555 -2.29776 -2.98128 0
M  V30 5068 C 470.702 -2.18013 -1.71364 0
M  V30 5069 H 473.653 -1.48123 -0.56968 0
M  V30 5070 H 473.674 -1.99089 -3.24259 0
M  V30 5071 H 473.186 -3.32645 -1.99922 0
M  V30 5072 H 471.287 -1.34959 -3.47299 0
M  V30 5073 H 471.4 -3.23276 -3.53595 0
M  V30 5074 H 469.764 -1.64595 -1.94372 0
M  V30 5075 H 470.547 -3.18278 -1.28662 0
M  V30 5076 N 472.992 0.995999 -1.22138 0
M  V30 5077 C 474.239 1.7351 -1.04406 0
M  V30 5078 C 474.567 1.89884 0.421244 0
M  V30 5079 O 473.822 1.43683 1.32867 0
M  V30 5080 C 474.121 3.14553 -1.6968 0
M  V30 5081 C 473.787 3.18102 -3.19565 0
M  V30 5082 C 472.449 3.18778 -3.60464 0
M  V30 5083 C 474.801 3.14636 -4.15516 0
M  V30 5084 C 472.129 3.13684 -4.95801 0
M  V30 5085 C 474.481 3.11084 -5.50826 0
M  V30 5086 C 473.145 3.10074 -5.91109 0
M  V30 5087 H 472.415 0.634916 -0.38205 0
M  V30 5088 H 475.062 1.1667 -1.51857 0
M  V30 5089 H 473.367 3.74682 -1.14546 0
M  V30 5090 H 475.064 3.70477 -1.53454 0
M  V30 5091 H 471.654 3.18324 -2.86998 0
M  V30 5092 H 475.838 3.13266 -3.84939 0
M  V30 5093 H 471.094 3.11245 -5.26247 0
M  V30 5094 H 475.268 3.07357 -6.24904 0
M  V30 5095 H 472.895 3.05882 -6.95946 0
M  V30 5096 N 474.47 1.03057 1.19235 0
M  V30 5097 C 475.418 0.606391 2.24557 0
M  V30 5098 C 476.412 -0.361826 1.65491 0
M  V30 5099 O 477.618 -0.23022 1.78522 0
M  V30 5100 H 473.993 0.177838 0.730669 0
M  V30 5101 H 475.964 1.50529 2.5765 0
M  V30 5102 C 474.713 -0.0252127 3.47691 0
M  V30 5103 H 474.036 0.710838 3.9343 0
M  V30 5104 H 475.476 -0.284931 4.23042 0
M  V30 5105 C 473.935 -1.27229 3.11953 0
M  V30 5106 O 474.465 -2.36416 3.24762 0
M  V30 5107 N 472.671 -1.16169 2.6637 0
M  V30 5108 H 472.218 -0.273189 2.56147 0
M  V30 5109 H 472.176 -1.99703 2.42829 0
M  V30 5110 N 475.948 -1.35272 0.808662 0
M  V30 5111 C 477.225 -1.93077 0.313181 0
M  V30 5112 C 477.605 -1.73847 -1.19752 0
M  V30 5113 O 476.953 -1.1087 -1.998 0
M  V30 5114 C 477.163 -3.41347 0.726859 0
M  V30 5115 C 478.511 -4.18493 0.717532 0
M  V30 5116 O 479.535 -3.4987 0.668535 0
M  V30 5117 O 478.394 -5.40937 0.777779 0
M  V30 5118 H 475.488 -0.822885 0.0824018 0
M  V30 5119 H 478.034 -1.44335 0.892499 0
M  V30 5120 H 476.806 -3.49082 1.76797 0
M  V30 5121 H 476.429 -3.97411 0.122461 0
M  V30 5122 N 477.426 -0.562348 -1.47226 0
M  V30 5123 C 478.837 -0.130325 -1.86245 0
M  V30 5124 C 479.188 1.30128 -1.46838 0
M  V30 5125 O 478.313 1.97974 -0.873805 0
M  V30 5126 C 478.908 -0.229738 -3.3802 0
M  V30 5127 C 477.467 0.14728 -3.76112 0
M  V30 5128 C 476.614 -0.574971 -2.71274 0
M  V30 5129 H 479.565 -0.771773 -1.3867 0
M  V30 5130 H 479.586 0.550316 -3.76499 0
M  V30 5131 H 479.098 -1.27178 -3.66671 0
M  V30 5132 H 477.199 1.19023 -3.53078 0
M  V30 5133 H 477.312 -0.214858 -4.78618 0
M  V30 5134 H 475.676 -0.0174756 -2.54694 0
M  V30 5135 H 476.459 -1.61827 -3.02766 0
M  V30 5136 N 478.904 1.54736 -0.299062 0
M  V30 5137 C 480.134 2.04215 0.312992 0
M  V30 5138 C 480.542 1.17596 1.48215 0
M  V30 5139 O 479.885 0.193835 1.82674 0
M  V30 5140 C 479.947 3.49696 0.833862 0
M  V30 5141 C 479.611 4.56518 -0.20977 0
M  V30 5142 C 480.608 5.09442 -1.03756 0
M  V30 5143 C 478.293 5.01073 -0.35091 0
M  V30 5144 C 480.287 6.05459 -1.99244 0
M  V30 5145 C 477.974 5.9691 -1.30924 0
M  V30 5146 C 478.972 6.48987 -2.1285 0
M  V30 5147 O 478.66 7.42947 -3.07059 0
M  V30 5148 H 478.392 0.672128 0.0722494 0
M  V30 5149 H 480.946 2.00718 -0.436043 0
M  V30 5150 H 479.176 3.5051 1.63339 0
M  V30 5151 H 480.865 3.82381 1.36159 0
M  V30 5152 H 481.631 4.75816 -0.939376 0
M  V30 5153 H 477.51 4.60168 0.276813 0
M  V30 5154 H 481.054 6.46031 -2.63229 0
M  V30 5155 H 476.951 6.29953 -1.40815 0
M  V30 5156 H 477.719 7.60743 -3.02015 0
M  V30 5157 O 480.421 0.165592 1.60649 0
M  V30 5158 H 481.112 -0.425141 1.88977 0
M  V30 END ATOM
M  V30 BEGIN BOND
M  V30 END BOND
M  V30 END CTAB
M  END
$$$$
