drugbank_target|P14621 Acylphosphatase-2 (DB01942)
 OpenBabel12092120553D

  0  0  0     0  0            999 V3000
M  V30 BEGIN CTAB
M  V30 COUNTS 1560 1573 0 0 0
M  V30 BEGIN ATOM
M  V30 1 H -0.908 1.98254 -0.117106 0
M  V30 2 N 0 1.576 0 0
M  V30 3 C 0.933 2.03868 1.02534 0
M  V30 4 C 1.911 0.928543 1.3348 0
M  V30 5 O 3.095 1.19667 1.45644 0
M  V30 6 C 0.222 2.43627 2.35294 0
M  V30 7 C -0.732 3.65373 2.2001 0
M  V30 8 S 0.101 5.13292 1.52614 0
M  V30 9 C 1.257 5.56322 2.86805 0
M  V30 10 H 1.49 2.90518 0.631377 0
M  V30 11 H -0.977 1.52953 0.210867 0
M  V30 12 H 0.981 2.67203 3.11629 0
M  V30 13 H -0.358 1.57376 2.7183 0
M  V30 14 H -1.165 3.90944 3.18086 0
M  V30 15 H -1.563 3.418 1.51819 0
M  V30 16 H 0.729 5.58782 3.83104 0
M  V30 17 H 1.672 6.56266 2.65933 0
M  V30 18 H 2.08 4.83886 2.90714 0
M  V30 19 N 1.4781 -0.272755 1.55222 0
M  V30 20 C 2.7031 -1.02683 1.80197 0
M  V30 21 C 3.1281 -1.79142 0.573551 0
M  V30 22 O 2.4861 -1.74917 -0.476849 0
M  V30 23 C 2.5341 -1.9609 3.02624 0
M  V30 24 O 1.6381 -3.04863 2.77727 0
M  V30 25 H 0.9791 -0.293557 0.595584 0
M  V30 26 H 3.5091 -0.30159 2.02365 0
M  V30 27 H 3.5191 -2.38039 3.31363 0
M  V30 28 H 2.1941 -1.39851 3.91682 0
M  V30 29 H 0.7711 -2.67228 2.60084 0
M  V30 30 N 2.9562 -1.48159 -0.537278 0
M  V30 31 C 4.1842 -1.59454 -1.31841 0
M  V30 32 C 4.5992 -0.252065 -1.8711 0
M  V30 33 O 3.9562 0.757621 -1.66031 0
M  V30 34 C 4.0072 -2.63546 -2.47439 0
M  V30 35 O 3.7282 -3.92583 -1.94449 0
M  V30 36 C 5.2292 -2.85212 -3.39366 0
M  V30 37 H 2.4492 -0.53785 -0.401196 0
M  V30 38 H 4.9932 -1.93932 -0.648891 0
M  V30 39 H 3.1482 -2.31946 -3.1029 0
M  V30 40 H 3.5622 -4.49629 -2.70063 0
M  V30 41 H 5.0362 -3.61863 -4.16844 0
M  V30 42 H 5.5132 -1.93765 -3.94147 0
M  V30 43 H 6.1192 -3.18086 -2.82314 0
M  V30 44 N 4.4343 0.785586 -1.36625 0
M  V30 45 C 5.3973 1.87999 -1.31107 0
M  V30 46 C 6.3973 1.59316 -0.217959 0
M  V30 47 O 7.5873 1.67656 -0.472977 0
M  V30 48 C 4.7193 3.24861 -1.03334 0
M  V30 49 H 5.9123 1.94307 -2.2844 0
M  V30 50 H 3.4653 0.983813 -1.21453 0
M  V30 51 H 4.2003 3.24235 -0.0647432 0
M  V30 52 H 3.9853 3.4707 -1.82441 0
M  V30 53 H 5.4753 4.04929 -1.02088 0
M  V30 54 N 5.9124 1.20967 1.01018 0
M  V30 55 C 6.8444 0.922059 2.09835 0
M  V30 56 C 7.8574 -0.0927106 1.62536 0
M  V30 57 O 9.0464 0.139127 1.77957 0
M  V30 58 C 6.1464 0.362004 3.36961 0
M  V30 59 C 5.3194 1.42986 4.13369 0
M  V30 60 C 4.3784 0.879976 5.1879 0
M  V30 61 O 3.4044 1.56219 5.47343 0
M  V30 62 N 4.6064 -0.307396 5.79686 0
M  V30 63 H 7.3714 1.8588 2.35093 0
M  V30 64 H 4.9324 1.11422 1.1746 0
M  V30 65 H 6.9244 -0.0201474 4.04695 0
M  V30 66 H 5.4944 -0.479437 3.08902 0
M  V30 67 H 4.7144 1.98608 3.40512 0
M  V30 68 H 6.0024 2.14885 4.61196 0
M  V30 69 H 5.4004 -0.878796 5.58832 0
M  V30 70 H 3.9574 -0.631115 6.48737 0
M  V30 71 N 7.3905 -1.2043 1.01659 0
M  V30 72 C 8.6155 -1.94318 0.724942 0
M  V30 73 C 9.0405 -1.74266 -0.708034 0
M  V30 74 O 8.3985 -1.03694 -1.48719 0
M  V30 75 C 8.4465 -3.44486 1.06591 0
M  V30 76 O 7.5505 -4.12017 0.177599 0
M  V30 77 H 6.8915 -0.60708 0.26898 0
M  V30 78 H 9.4215 -1.52861 1.35995 0
M  V30 79 H 9.4315 -3.95106 1.01762 0
M  V30 80 H 8.1065 -3.58404 2.10997 0
M  V30 81 H 6.6835 -3.71821 0.283421 0
M  V30 82 N 8.8686 -0.792821 -1.36206 0
M  V30 83 C 9.7986 -0.207853 -2.32573 0
M  V30 84 C 10.7796 0.659055 -1.56813 0
M  V30 85 O 11.9646 0.592176 -1.84951 0
M  V30 86 C 9.0946 0.655449 -3.41059 0
M  V30 87 C 8.0486 -0.111842 -4.27854 0
M  V30 88 C 7.3746 0.872274 -5.27537 0
M  V30 89 C 8.6746 -1.30299 -5.05786 0
M  V30 90 H 10.3686 -1.01294 -2.81744 0
M  V30 91 H 7.9146 -0.48854 -1.3546 0
M  V30 92 H 9.8676 1.07464 -4.07467 0
M  V30 93 H 8.5916 1.49328 -2.90463 0
M  V30 94 H 7.2506 -0.512053 -3.63006 0
M  V30 95 H 6.8986 1.70523 -4.73214 0
M  V30 96 H 6.5986 0.363291 -5.86476 0
M  V30 97 H 8.1226 1.28996 -5.96818 0
M  V30 98 H 9.5366 -0.959379 -5.65216 0
M  V30 99 H 7.9336 -1.7455 -5.74154 0
M  V30 100 H 9.0036 -2.09663 -4.37229 0
M  V30 101 N 10.3467 1.47872 -0.545128 0
M  V30 102 C 11.2937 2.29849 0.2093 0
M  V30 103 C 12.2637 1.38313 0.919707 0
M  V30 104 O 13.4487 1.67277 0.917772 0
M  V30 105 C 10.5887 3.22019 1.24088 0
M  V30 106 C 9.7017 4.2864 0.537778 0
M  V30 107 C 8.8367 5.07973 1.5536 0
M  V30 108 C 7.8757 6.06381 0.8348 0
M  V30 109 N 7.0127 6.78717 1.79688 0
M  V30 110 H 11.8527 2.93845 -0.49591 0
M  V30 111 H 9.3897 1.44848 -0.256389 0
M  V30 112 H 11.3477 3.73868 1.85144 0
M  V30 113 H 9.9777 2.59914 1.91428 0
M  V30 114 H 9.0297 3.7994 -0.187046 0
M  V30 115 H 10.3417 4.98793 -0.0258907 0
M  V30 116 H 9.4957 5.63912 2.23803 0
M  V30 117 H 8.2347 4.37693 2.15118 0
M  V30 118 H 7.2397 5.49631 0.136388 0
M  V30 119 H 8.4647 6.78665 0.24313 0
M  V30 120 H 6.4107 6.11177 2.38326 0
M  V30 121 H 6.3277 7.44998 1.28505 0
M  V30 122 H 7.5957 7.39237 2.47282 0
M  V30 123 N 11.8248 0.280983 1.55075 0
M  V30 124 C 13.0498 -0.340154 2.04592 0
M  V30 125 C 13.4748 -1.48246 1.15779 0
M  V30 126 O 12.8328 -1.80614 0.15761 0
M  V30 127 C 12.8808 -0.793104 3.5177 0
M  V30 128 O 11.9848 -1.89981 3.66034 0
M  V30 129 H 11.3258 -0.0694289 0.66036 0
M  V30 130 H 13.8558 0.416993 2.00306 0
M  V30 131 H 13.8658 -1.08729 3.93245 0
M  V30 132 H 12.5408 0.0426163 4.15878 0
M  V30 133 H 11.1178 -1.60771 3.36463 0
M  V30 134 N 13.3029 -1.57598 0.00835791 0
M  V30 135 C 14.5489 -1.91211 -0.675732 0
M  V30 136 C 14.8819 -0.883139 -1.72958 0
M  V30 137 O 14.1569 0.097016 -1.94258 0
M  V30 138 C 14.4399 -3.35379 -1.31123 0
M  V30 139 C 14.2929 -4.48999 -0.268356 0
M  V30 140 C 15.6119 -3.7912 -2.23508 0
M  V30 141 H 12.7309 -0.695374 -0.244179 0
M  V30 142 H 15.3729 -1.89901 0.0613655 0
M  V30 143 H 13.5229 -3.36626 -1.93946 0
M  V30 144 H 15.1949 -4.59887 0.360844 0
M  V30 145 H 13.4379 -4.31873 0.408482 0
M  V30 146 H 14.1089 -5.46851 -0.752218 0
M  V30 147 H 16.5849 -3.79477 -1.70693 0
M  V30 148 H 15.4609 -4.80729 -2.64936 0
M  V30 149 H 15.7219 -3.13455 -3.11766 0
M  V30 150 N 14.781 0.264519 -1.55364 0
M  V30 151 C 16.058 1.01677 -1.67096 0
M  V30 152 C 16.438 2.03996 -0.543015 0
M  V30 153 O 15.786 2.23907 0.45585 0
M  V30 154 C 15.996 1.66596 -3.0667 0
M  V30 155 C 17.344 2.17442 -3.64697 0
M  V30 156 O 18.368 1.76568 -3.09358 0
M  V30 157 O 17.227 2.92439 -4.61673 0
M  V30 158 H 14.321 0.472161 -0.678965 0
M  V30 159 H 16.867 0.259703 -1.67701 0
M  V30 160 H 15.639 0.924962 -3.80211 0
M  V30 161 H 15.262 2.48968 -3.10001 0
M  V30 162 N 16.2591 1.48442 0.529413 0
M  V30 163 C 17.4891 1.59919 1.30804 0
M  V30 164 C 17.8971 0.258792 1.87422 0
M  V30 165 O 17.2401 -0.762096 1.67146 0
M  V30 166 C 17.3021 2.58693 2.49636 0
M  V30 167 C 16.9661 4.03745 2.14101 0
M  V30 168 C 17.9631 4.9141 1.6974 0
M  V30 169 C 15.6481 4.49285 2.24607 0
M  V30 170 C 17.6421 6.22645 1.36351 0
M  V30 171 C 15.3291 5.8054 1.9083 0
M  V30 172 C 16.3271 6.67043 1.46773 0
M  V30 173 O 16.0151 7.95856 1.1344 0
M  V30 174 H 15.7471 0.541981 0.404021 0
M  V30 175 H 18.3011 1.95 0.645309 0
M  V30 176 H 16.5311 2.18734 3.18892 0
M  V30 177 H 18.2201 2.59999 3.11698 0
M  V30 178 H 18.9861 4.57465 1.61094 0
M  V30 179 H 14.8651 3.82142 2.57854 0
M  V30 180 H 18.4091 6.90119 1.01891 0
M  V30 181 H 14.3061 6.14022 1.99117 0
M  V30 182 H 15.0741 8.08613 1.26832 0
M  V30 183 N 17.7372 -0.778329 1.37039 0
M  V30 184 C 18.6472 -1.92253 1.34446 0
M  V30 185 C 19.6632 -1.72267 0.244991 0
M  V30 186 O 20.8392 -1.95615 0.479258 0
M  V30 187 C 17.9042 -3.27282 1.144 0
M  V30 188 C 16.9652 -3.59969 2.33925 0
M  V30 189 C 16.1982 -4.88555 2.14825 0
M  V30 190 O 16.4212 -5.59113 1.12912 0
M  V30 191 O 15.3552 -5.20153 3.02861 0
M  V30 192 H 19.1812 -1.97392 2.30803 0
M  V30 193 H 16.7662 -0.920154 1.17701 0
M  V30 194 H 18.6482 -4.08062 1.05182 0
M  V30 195 H 17.3232 -3.23011 0.211124 0
M  V30 196 H 16.2302 -2.7945 2.48714 0
M  V30 197 H 17.5632 -3.68976 3.25757 0
M  V30 198 N 19.2153 -1.21501 -1.00376 0
M  V30 199 C 20.4613 -1.03452 -1.74429 0
M  V30 200 C 20.7943 0.430764 -1.89362 0
M  V30 201 O 20.0693 1.31962 -1.42886 0
M  V30 202 C 20.3523 -1.73375 -3.15615 0
M  V30 203 C 20.2053 -3.27431 -3.08397 0
M  V30 204 C 21.5243 -1.47732 -4.14564 0
M  V30 205 H 18.6433 -0.377226 -0.633143 0
M  V30 206 H 21.2853 -1.49693 -1.17013 0
M  V30 207 H 19.4353 -1.34064 -3.64636 0
M  V30 208 H 21.1073 -3.76119 -2.67081 0
M  V30 209 H 19.3503 -3.5767 -2.45468 0
M  V30 210 H 20.0213 -3.71524 -4.08258 0
M  V30 211 H 22.4973 -1.8186 -3.74254 0
M  V30 212 H 21.3733 -1.99169 -5.11491 0
M  V30 213 H 21.6343 -0.407589 -4.40217 0
M  V30 214 N 20.6934 1.19889 -1.02296 0
M  V30 215 C 21.9404 1.8942 -0.715972 0
M  V30 216 C 22.2684 1.79251 0.754944 0
M  V30 217 O 21.5234 1.17526 1.56481 0
M  V30 218 C 21.8224 3.39883 -1.10518 0
M  V30 219 C 21.4884 3.70254 -2.57337 0
M  V30 220 C 20.1504 3.78254 -2.97452 0
M  V30 221 C 22.5024 3.84052 -3.52354 0
M  V30 222 C 19.8304 3.97514 -4.31509 0
M  V30 223 C 22.1824 4.04824 -4.86108 0
M  V30 224 C 20.8464 4.11054 -5.25919 0
M  V30 225 H 20.1164 0.693138 -0.261993 0
M  V30 226 H 22.7634 1.42012 -1.28472 0
M  V30 227 H 21.0684 3.8915 -0.454953 0
M  V30 228 H 22.7654 3.9199 -0.845261 0
M  V30 229 H 19.3554 3.64632 -2.25258 0
M  V30 230 H 23.5394 3.77221 -3.22518 0
M  V30 231 H 18.7954 4.00574 -4.61898 0
M  V30 232 H 22.9694 4.14442 -5.59653 0
M  V30 233 H 20.5964 4.2573 -6.29808 0
M  V30 234 N 22.1715 0.800033 1.35784 0
M  V30 235 C 23.4195 0.376597 1.9856 0
M  V30 236 C 23.7405 -1.05812 1.63795 0
M  V30 237 O 23.0105 -1.73103 0.917171 0
M  V30 238 H 21.5905 0.136261 0.734467 0
M  V30 239 H 24.2525 1.02442 1.65806 0
M  V30 240 H 23.3485 0.477002 3.08433 0
M  V30 241 N 23.6496 -1.47581 0.552962 0
M  V30 242 C 25.0656 -1.5818 0.212424 0
M  V30 243 C 25.2656 -1.55213 -1.28496 0
M  V30 244 O 24.3216 -1.45329 -2.06484 0
M  V30 245 C 25.6346 -2.88865 0.835318 0
M  V30 246 C 27.1826 -3.0244 0.806156 0
M  V30 247 C 27.6576 -4.35819 1.40804 0
M  V30 248 N 29.1486 -4.42444 1.37103 0
M  V30 249 C 29.8836 -5.44202 1.80641 0
M  V30 250 N 29.3796 -6.52795 2.32015 0
M  V30 251 N 31.1726 -5.35222 1.71738 0
M  V30 252 H 23.3236 -1.47753 1.52587 0
M  V30 253 H 25.5866 -0.702941 0.636064 0
M  V30 254 H 25.2926 -2.9676 1.88749 0
M  V30 255 H 25.1666 -3.7579 0.325848 0
M  V30 256 H 27.5536 -2.94144 -0.237317 0
M  V30 257 H 27.6346 -2.17068 1.35334 0
M  V30 258 H 27.2786 -4.44871 2.45056 0
M  V30 259 H 27.2086 -5.19916 0.836338 0
M  V30 260 H 29.6996 -3.6456 0.995202 0
M  V30 261 H 30.0126 -7.26609 2.63171 0
M  V30 262 H 28.3576 -6.53696 2.36023 0
M  V30 263 H 31.5486 -4.49284 1.31382 0
M  V30 264 H 31.7216 -6.14389 2.05987 0
M  V30 265 N 25.1277 -0.289203 -1.54924 0
M  V30 266 C 26.3737 0.323998 -2.00195 0
M  V30 267 C 26.7067 1.54441 -1.17735 0
M  V30 268 O 25.9817 1.92875 -0.250878 0
M  V30 269 C 26.2647 0.692276 -3.53383 0
M  V30 270 C 26.1177 -0.536457 -4.46589 0
M  V30 271 C 27.4367 1.52335 -4.12895 0
M  V30 272 H 24.5557 0.116289 -0.727768 0
M  V30 273 H 27.1977 -0.398954 -1.85764 0
M  V30 274 H 25.3477 1.30822 -3.65811 0
M  V30 275 H 27.0197 -1.17499 -4.46085 0
M  V30 276 H 25.2627 -1.17192 -4.1767 0
M  V30 277 H 25.9337 -0.234806 -5.515 0
M  V30 278 H 28.4097 1.00302 -4.0383 0
M  V30 279 H 27.2857 1.74982 -5.20262 0
M  V30 280 H 27.5467 2.50886 -3.64018 0
M  V30 281 N 26.6058 1.57591 -0.0167156 0
M  V30 282 C 27.5378 2.06343 0.997753 0
M  V30 283 C 28.5508 0.984469 1.29661 0
M  V30 284 O 29.7398 1.26093 1.26344 0
M  V30 285 C 26.8398 2.46255 2.32834 0
M  V30 286 C 26.0128 3.77083 2.21646 0
M  V30 287 C 25.0718 4.0368 3.37534 0
M  V30 288 O 24.0978 4.7411 3.14973 0
M  V30 289 N 25.2998 3.52881 4.60929 0
M  V30 290 H 28.0648 2.93997 0.581875 0
M  V30 291 H 25.6258 1.61002 0.170316 0
M  V30 292 H 27.6178 2.61149 3.09166 0
M  V30 293 H 26.1878 1.64032 2.66106 0
M  V30 294 H 25.4078 3.72106 1.30119 0
M  V30 295 H 26.6958 4.62822 2.11361 0
M  V30 296 H 26.0938 2.95878 4.82154 0
M  V30 297 H 24.6508 3.73076 5.34469 0
M  V30 298 N 28.0839 -0.256276 1.55502 0
M  V30 299 C 29.3319 -0.983672 1.76545 0
M  V30 300 C 29.6529 -1.86206 0.578982 0
M  V30 301 O 28.9229 -1.91656 -0.405577 0
M  V30 302 H 27.5029 -0.366191 0.651086 0
M  V30 303 H 30.1649 -0.276479 1.92929 0
M  V30 304 H 29.2609 -1.61087 2.67315 0
M  V30 305 N 29.562 -1.4872 -0.521534 0
M  V30 306 C 30.808 -1.574 -1.27879 0
M  V30 307 C 31.141 -0.250817 -1.92573 0
M  V30 308 O 30.416 0.743934 -1.79711 0
M  V30 309 C 30.699 -2.71843 -2.36164 0
M  V30 310 C 30.552 -4.13893 -1.76105 0
M  V30 311 C 31.871 -2.82008 -3.37875 0
M  V30 312 H 28.99 -0.572941 -0.463581 0
M  V30 313 H 31.632 -1.80927 -0.580119 0
M  V30 314 H 29.782 -2.51914 -2.95756 0
M  V30 315 H 31.454 -4.45284 -1.20499 0
M  V30 316 H 29.697 -4.20498 -1.06601 0
M  V30 317 H 30.368 -4.89804 -2.5455 0
M  V30 318 H 32.844 -3.00086 -2.88249 0
M  V30 319 H 31.72 -3.63796 -4.11028 0
M  V30 320 H 31.981 -1.90511 -3.98946 0
M  V30 321 N 31.0401 0.771051 -1.3745 0
M  V30 322 C 32.2801 1.54264 -1.34096 0
M  V30 323 C 32.6441 1.91858 0.0737639 0
M  V30 324 O 33.8451 2.67797 0.23203 0
M  V30 325 C 32.1161 2.77326 -2.25445 0
M  V30 326 S 33.6751 3.67383 -2.39948 0
M  V30 327 H 30.4931 0.528122 -0.476034 0
M  V30 328 H 33.0951 0.906633 -1.73206 0
M  V30 329 H 31.7991 2.47788 -3.27153 0
M  V30 330 H 31.3301 3.45886 -1.87421 0
M  V30 331 H 33.3451 4.69334 -1.61059 0
M  V30 332 N 32.5182 1.22032 0.997298 0
M  V30 333 C 33.7652 1.04222 1.73621 0
M  V30 334 C 34.0932 -0.423264 1.89839 0
M  V30 335 O 33.3482 -1.3302 1.43542 0
M  V30 336 C 33.6472 1.69345 3.14733 0
M  V30 337 C 33.3132 3.19226 3.18442 0
M  V30 338 C 31.9752 3.60124 3.19161 0
M  V30 339 C 34.3272 4.15181 3.15078 0
M  V30 340 C 31.6552 4.95467 3.14212 0
M  V30 341 C 34.0072 5.50495 3.1167 0
M  V30 342 C 32.6712 5.90779 3.10703 0
M  V30 343 H 31.9412 0.381374 0.635323 0
M  V30 344 H 34.5882 1.51732 1.16831 0
M  V30 345 H 32.8932 1.14147 3.74803 0
M  V30 346 H 34.5902 1.53059 3.7064 0
M  V30 347 H 31.1802 2.86659 3.18629 0
M  V30 348 H 35.3642 3.84605 3.13676 0
M  V30 349 H 30.6202 5.25916 3.11805 0
M  V30 350 H 34.7942 6.24576 3.08022 0
M  V30 351 H 32.4212 6.9562 3.06622 0
M  V30 352 N 33.9963 -1.19345 1.0293 0
M  V30 353 C 35.4123 -1.41069 0.746446 0
M  V30 354 C 35.6123 -1.90078 -0.668776 0
M  V30 355 O 34.6683 -2.0778 -1.4347 0
M  V30 356 C 35.9813 -2.42141 1.78292 0
M  V30 357 C 37.5293 -2.55887 1.80252 0
M  V30 358 C 38.0043 -3.60214 2.8286 0
M  V30 359 N 39.4953 -3.67711 2.81679 0
M  V30 360 C 40.2303 -4.48128 3.57727 0
M  V30 361 N 39.7263 -5.32248 4.43491 0
M  V30 362 N 41.5193 -4.42782 3.46267 0
M  V30 363 H 33.6703 -0.858536 1.94275 0
M  V30 364 H 35.9333 -0.439541 0.839945 0
M  V30 365 H 35.6393 -2.13155 2.79746 0
M  V30 366 H 35.5133 -3.41323 1.60557 0
M  V30 367 H 37.9003 -2.84196 0.794757 0
M  V30 368 H 37.9813 -1.56858 2.02062 0
M  V30 369 H 37.6253 -3.32647 3.83807 0
M  V30 370 H 37.5553 -4.58895 2.58307 0
M  V30 371 H 40.0463 -3.07634 2.19476 0
M  V30 372 H 40.3593 -5.90729 4.98256 0
M  V30 373 H 38.7043 -5.31707 4.47564 0
M  V30 374 H 41.8953 -3.76107 2.78677 0
M  V30 375 H 42.0683 -5.05215 4.05785 0
M  V30 376 N 35.4744 -0.807222 -1.35358 0
M  V30 377 C 36.4074 -0.163572 -2.27613 0
M  V30 378 C 37.3854 0.670817 -1.48118 0
M  V30 379 O 38.5694 0.63796 -1.77376 0
M  V30 380 C 35.6964 0.773015 -3.29761 0
M  V30 381 C 34.7424 0.0181653 -4.26496 0
M  V30 382 S 35.5754 -1.31831 -5.19019 0
M  V30 383 C 36.7314 -0.38619 -6.24707 0
M  V30 384 H 36.9644 -0.945757 -2.81856 0
M  V30 385 H 34.4974 -0.602315 -1.42167 0
M  V30 386 H 36.4554 1.30788 -3.89108 0
M  V30 387 H 35.1164 1.52859 -2.74396 0
M  V30 388 H 34.3094 0.729534 -4.98692 0
M  V30 389 H 33.9114 -0.446761 -3.71322 0
M  V30 390 H 36.2034 0.428295 -6.76145 0
M  V30 391 H 37.1464 -1.07736 -6.99856 0
M  V30 392 H 37.5544 0.018398 -5.64497 0
M  V30 393 N 36.9525 1.47285 -0.560781 0
M  V30 394 C 38.1825 2.06555 -0.0429638 0
M  V30 395 C 38.5905 1.41339 1.25777 0
M  V30 396 O 37.9335 0.505182 1.76617 0
M  V30 397 C 37.9955 3.58827 0.219887 0
M  V30 398 C 37.6595 4.46105 -0.991944 0
M  V30 399 C 38.6565 4.84 -1.89843 0
M  V30 400 C 36.3415 4.87567 -1.20762 0
M  V30 401 C 38.3355 5.6216 -3.00425 0
M  V30 402 C 36.0225 5.65491 -2.31653 0
M  V30 403 C 37.0205 6.02699 -3.21315 0
M  V30 404 O 36.7085 6.79052 -4.30283 0
M  V30 405 H 36.4405 0.674537 -0.0444468 0
M  V30 406 H 38.9945 1.90225 -0.774818 0
M  V30 407 H 37.2245 3.73383 1.00609 0
M  V30 408 H 38.9135 4.00103 0.683522 0
M  V30 409 H 39.6795 4.52564 -1.74387 0
M  V30 410 H 35.5585 4.5807 -0.518893 0
M  V30 411 H 39.1025 5.9112 -3.70436 0
M  V30 412 H 34.9995 5.9634 -2.47081 0
M  V30 413 H 35.7675 6.9745 -4.28376 0
M  V30 414 N 38.4306 0.297415 1.54768 0
M  V30 415 C 39.6586 -0.315623 2.04478 0
M  V30 416 C 40.0736 -1.47792 1.17486 0
M  V30 417 O 39.4306 -1.81404 0.19971 0
M  V30 418 C 39.4816 -0.7753 3.53088 0
M  V30 419 O 39.2026 0.340732 4.36773 0
M  V30 420 C 40.7036 -1.45386 4.18781 0
M  V30 421 H 37.9236 -0.0690887 0.667434 0
M  V30 422 H 40.4676 0.436003 1.99798 0
M  V30 423 H 38.6226 -1.47696 3.58141 0
M  V30 424 H 39.0366 -0.0165035 5.24497 0
M  V30 425 H 40.5106 -1.72669 5.24299 0
M  V30 426 H 40.9876 -2.39275 3.68299 0
M  V30 427 H 41.5936 -0.795475 4.17795 0
M  V30 428 N 39.9087 -1.5758 0.0250728 0
M  V30 429 C 40.8187 -2.1343 -0.973905 0
M  V30 430 C 41.8347 -1.08556 -1.35984 0
M  V30 431 O 43.0107 -1.40592 -1.44207 0
M  V30 432 C 40.0757 -2.64703 -2.23904 0
M  V30 433 C 39.1367 -3.84276 -1.91391 0
M  V30 434 C 38.3697 -4.33095 -3.11873 0
M  V30 435 O 38.5927 -3.81107 -4.24398 0
M  V30 436 O 37.5267 -5.24984 -2.94406 0
M  V30 437 H 41.3527 -2.99057 -0.529036 0
M  V30 438 H 38.9377 -1.48118 -0.195288 0
M  V30 439 H 40.8197 -2.97769 -2.98181 0
M  V30 440 H 39.4947 -1.82161 -2.6758 0
M  V30 441 H 38.4017 -3.56143 -1.14511 0
M  V30 442 H 39.7347 -4.67968 -1.52534 0
M  V30 443 N 41.3868 0.248026 -1.55636 0
M  V30 444 C 42.6638 0.998988 -1.68165 0
M  V30 445 C 43.0438 2.03409 -0.564621 0
M  V30 446 O 42.3918 2.24378 0.432076 0
M  V30 447 C 42.6018 1.63334 -3.0842 0
M  V30 448 C 43.9498 2.13562 -3.66983 0
M  V30 449 O 44.9738 1.73277 -3.11213 0
M  V30 450 O 43.8328 2.87526 -4.64749 0
M  V30 451 H 40.9268 0.464933 -0.683935 0
M  V30 452 H 43.4728 0.241902 -1.67967 0
M  V30 453 H 42.2448 0.884583 -3.8117 0
M  V30 454 H 41.8678 2.45666 -3.12624 0
M  V30 455 N 42.8649 1.48995 0.513639 0
M  V30 456 C 43.7749 1.67443 1.64317 0
M  V30 457 C 44.7909 0.556947 1.64846 0
M  V30 458 O 45.9669 0.830082 1.83498 0
M  V30 459 C 43.0319 1.72515 3.00732 0
M  V30 460 C 42.0929 2.96009 3.1093 0
M  V30 461 C 41.3259 3.00829 4.40837 0
M  V30 462 O 41.5489 2.13594 5.28898 0
M  V30 463 O 40.4829 3.93168 4.55744 0
M  V30 464 H 44.3089 2.63106 1.51687 0
M  V30 465 H 41.8939 1.32588 0.688543 0
M  V30 466 H 43.7759 1.78277 3.81831 0
M  V30 467 H 42.4509 0.800278 3.13651 0
M  V30 468 H 41.3579 2.9577 2.29065 0
M  V30 469 H 42.6909 3.87934 3.02933 0
M  V30 470 N 44.343 -0.763751 1.37857 0
M  V30 471 C 45.306 -1.85889 1.34081 0
M  V30 472 C 46.306 -1.58949 0.243277 0
M  V30 473 O 47.496 -1.66882 0.499589 0
M  V30 474 C 44.628 -3.23176 1.08489 0
M  V30 475 H 45.821 -1.90648 2.31502 0
M  V30 476 H 43.374 -0.964367 1.23003 0
M  V30 477 H 44.109 -3.24091 0.116318 0
M  V30 478 H 43.894 -3.44124 1.8794 0
M  V30 479 H 45.384 -4.03254 1.08517 0
M  V30 480 N 45.8211 -1.22559 -0.990812 0
M  V30 481 C 47.2371 -0.985996 -1.255 0
M  V30 482 C 47.4371 0.319173 -1.98956 0
M  V30 483 O 46.4931 1.04127 -2.3003 0
M  V30 484 C 47.8061 -2.18607 -2.06474 0
M  V30 485 C 49.3541 -2.22985 -2.19651 0
M  V30 486 C 49.8291 -3.4255 -3.04012 0
M  V30 487 N 51.3201 -3.42725 -3.11599 0
M  V30 488 C 52.0551 -4.31892 -3.7717 0
M  V30 489 N 51.5511 -5.31279 -4.44651 0
M  V30 490 N 53.3441 -4.19662 -3.73952 0
M  V30 491 H 45.4951 -2.06469 -0.49841 0
M  V30 492 H 47.7581 -0.904853 -0.282747 0
M  V30 493 H 47.4641 -3.13267 -1.59865 0
M  V30 494 H 47.3381 -2.18838 -3.07229 0
M  V30 495 H 49.7251 -1.28871 -2.65474 0
M  V30 496 H 49.8061 -2.26791 -1.18319 0
M  V30 497 H 49.4501 -4.36965 -2.58889 0
M  V30 498 H 49.3801 -3.35984 -4.0549 0
M  V30 499 H 51.8711 -2.70807 -2.63575 0
M  V30 500 H 52.1841 -5.95593 -4.92431 0
M  V30 501 H 50.5291 -5.3519 -4.43392 0
M  V30 502 H 53.7201 -3.41268 -3.20396 0
M  V30 503 H 53.8931 -4.89358 -4.24774 0
M  V30 504 N 47.2992 1.18797 -1.03562 0
M  V30 505 C 48.2462 2.22253 -0.622259 0
M  V30 506 C 49.2162 1.61987 0.36736 0
M  V30 507 O 50.4012 1.88986 0.262492 0
M  V30 508 C 47.5412 3.45097 0.0138462 0
M  V30 509 C 46.6542 4.19722 -1.02263 0
M  V30 510 C 45.7892 5.30009 -0.355573 0
M  V30 511 C 44.8282 5.96399 -1.37749 0
M  V30 512 N 43.9652 6.98234 -0.735766 0
M  V30 513 H 48.8052 2.56968 -1.50903 0
M  V30 514 H 46.3422 1.26245 -0.755017 0
M  V30 515 H 48.3002 4.15279 0.399948 0
M  V30 516 H 46.9302 3.11018 0.864158 0
M  V30 517 H 45.9822 3.48418 -1.52673 0
M  V30 518 H 47.2942 4.65227 -1.79903 0
M  V30 519 H 46.4482 6.0664 0.0850095 0
M  V30 520 H 45.1872 4.85592 0.452967 0
M  V30 521 H 44.1922 5.18512 -1.82826 0
M  V30 522 H 45.4172 6.42899 -2.18764 0
M  V30 523 H 43.3632 6.55979 0.0525597 0
M  V30 524 H 43.2802 7.41965 -1.44995 0
M  V30 525 H 44.5482 7.78845 -0.31941 0
M  V30 526 N 48.7773 0.814389 1.34928 0
M  V30 527 C 50.0263 0.394871 1.97797 0
M  V30 528 C 50.3393 -1.04555 1.65311 0
M  V30 529 O 51.5453 -1.56856 2.21604 0
M  V30 530 C 50.0013 0.655103 3.53888 0
M  V30 531 C 49.6093 2.10858 3.95276 0
M  V30 532 C 51.3533 0.301329 4.23429 0
M  V30 533 C 49.2603 2.31415 5.44244 0
M  V30 534 H 48.1903 0.143913 0.740139 0
M  V30 535 H 50.8413 0.999544 1.53888 0
M  V30 536 H 49.2233 -0.0196253 3.95995 0
M  V30 537 H 50.3973 2.82176 3.64298 0
M  V30 538 H 48.7123 2.42297 3.38646 0
M  V30 539 H 51.3093 0.432869 5.32945 0
M  V30 540 H 51.6523 -0.75331 4.09428 0
M  V30 541 H 52.1853 0.930288 3.86769 0
M  V30 542 H 48.9243 3.35353 5.63222 0
M  V30 543 H 48.4443 1.6463 5.76764 0
M  V30 544 H 50.1233 2.13352 6.10811 0
M  V30 545 N 50.2554 -1.46986 0.568584 0
M  V30 546 C 51.5034 -2.02041 0.0487022 0
M  V30 547 C 51.8244 -1.44408 -1.31039 0
M  V30 548 O 51.0944 -0.623477 -1.85714 0
M  V30 549 H 49.6744 -0.746849 0.015014 0
M  V30 550 H 52.3364 -1.80257 0.741168 0
M  V30 551 H 51.4324 -3.12085 -0.0308961 0
M  V30 552 N 51.7335 -0.305618 -1.54608 0
M  V30 553 C 52.9795 0.302746 -2.00528 0
M  V30 554 C 53.3125 1.53184 -1.19367 0
M  V30 555 O 52.5875 1.92598 -0.271321 0
M  V30 556 C 52.8705 0.654756 -3.54097 0
M  V30 557 C 52.7235 -0.583793 -4.45995 0
M  V30 558 C 54.0425 1.47947 -4.14487 0
M  V30 559 H 51.1615 0.108564 -0.72896 0
M  V30 560 H 53.8035 -0.418634 -1.85331 0
M  V30 561 H 51.9535 1.26935 -3.67178 0
M  V30 562 H 53.6255 -1.22224 -4.44814 0
M  V30 563 H 51.8685 -1.21615 -4.16404 0
M  V30 564 H 52.5395 -0.293287 -5.5122 0
M  V30 565 H 55.0155 0.96013 -4.04871 0
M  V30 566 H 53.8915 1.69454 -5.22088 0
M  V30 567 H 54.1525 2.47011 -3.66658 0
M  V30 568 N 53.2116 1.57565 -0.0334293 0
M  V30 569 C 54.4576 1.92262 0.645226 0
M  V30 570 C 54.7906 0.910543 1.71531 0
M  V30 571 O 54.0656 -0.066099 1.94388 0
M  V30 572 C 54.3486 3.37422 1.2577 0
M  V30 573 C 54.2016 4.49369 0.196891 0
M  V30 574 C 55.5206 3.82628 2.17449 0
M  V30 575 H 52.6396 0.699171 0.233085 0
M  V30 576 H 55.2816 1.89779 -0.0915694 0
M  V30 577 H 53.4316 3.39669 1.88566 0
M  V30 578 H 55.1036 4.59254 -0.433962 0
M  V30 579 H 53.3466 4.31168 -0.477137 0
M  V30 580 H 54.0176 5.47978 0.665124 0
M  V30 581 H 56.4936 3.82145 1.64634 0
M  V30 582 H 55.3696 4.84883 2.57254 0
M  V30 583 H 55.6306 3.18376 3.0674 0
M  V30 584 N 54.6897 -0.239769 1.55765 0
M  V30 585 C 55.9377 -0.964892 1.77579 0
M  V30 586 C 56.2587 -1.85582 0.598699 0
M  V30 587 O 55.5287 -1.92075 -0.385226 0
M  V30 588 H 54.1087 -0.359265 0.654933 0
M  V30 589 H 56.7707 -0.256001 1.93211 0
M  V30 590 H 55.8667 -1.58243 2.69009 0
M  V30 591 N 56.1678 -1.49265 -0.50573 0
M  V30 592 C 57.4138 -1.59723 -1.25937 0
M  V30 593 C 57.7688 -0.278236 -1.90378 0
M  V30 594 O 57.0618 0.72113 -1.77511 0
M  V30 595 C 57.2558 -2.69008 -2.35308 0
M  V30 596 C 57.0848 -4.11405 -1.81592 0
M  V30 597 C 55.8548 -4.78252 -1.63105 0
M  V30 598 C 58.0528 -4.96792 -1.33048 0
M  V30 599 N 56.0348 -6.0498 -1.04269 0
M  V30 600 C 57.4058 -6.13962 -0.863168 0
M  V30 601 C 59.4608 -4.82828 -1.21577 0
M  V30 602 C 58.1638 -7.18705 -0.292489 0
M  V30 603 C 60.1898 -5.87716 -0.65907 0
M  V30 604 C 59.5518 -7.0411 -0.201954 0
M  V30 605 H 55.6508 -0.638864 -0.450973 0
M  V30 606 H 58.2348 -1.86251 -0.567326 0
M  V30 607 H 56.4058 -2.4426 -3.01979 0
M  V30 608 H 58.1378 -2.69013 -3.02348 0
M  V30 609 H 54.8928 -4.34974 -1.87336 0
M  V30 610 H 55.3168 -6.72631 -0.767919 0
M  V30 611 H 59.9588 -3.93159 -1.55518 0
M  V30 612 H 57.6768 -8.08078 0.0591987 0
M  V30 613 H 61.2628 -5.7897 -0.573156 0
M  V30 614 H 60.1428 -7.83885 0.222101 0
M  V30 615 N 57.6459 0.756429 -1.3826 0
M  V30 616 C 58.8919 1.51772 -1.34511 0
M  V30 617 C 59.2249 1.94089 0.0656691 0
M  V30 618 O 58.4999 1.65221 1.02626 0
M  V30 619 C 58.7829 2.77226 -2.29821 0
M  V30 620 C 58.6359 2.41065 -3.79747 0
M  V30 621 C 59.9549 3.79236 -2.23312 0
M  V30 622 H 57.0739 0.550578 -0.489931 0
M  V30 623 H 59.7159 0.866607 -1.69086 0
M  V30 624 H 57.8659 3.32784 -2.00467 0
M  V30 625 H 59.5379 1.91303 -4.19763 0
M  V30 626 H 57.7809 1.7356 -3.97567 0
M  V30 627 H 58.4519 3.3081 -4.41892 0
M  V30 628 H 60.9279 3.3321 -2.49219 0
M  V30 629 H 59.8039 4.64714 -2.92116 0
M  V30 630 H 60.0649 4.24615 -1.23102 0
M  V30 631 N 59.124 1.23083 0.984299 0
M  V30 632 C 60.071 1.00854 2.07598 0
M  V30 633 C 61.041 -0.0726709 1.65941 0
M  V30 634 O 62.226 0.0786535 1.90638 0
M  V30 635 C 59.366 0.601645 3.39815 0
M  V30 636 C 58.479 1.75456 3.94765 0
M  V30 637 C 57.614 1.29482 5.15177 0
M  V30 638 C 56.653 2.41873 5.62284 0
M  V30 639 N 55.79 1.96885 6.73929 0
M  V30 640 H 60.63 1.943 2.25946 0
M  V30 641 H 58.167 0.968001 1.10762 0
M  V30 642 H 60.125 0.346854 4.15756 0
M  V30 643 H 58.755 -0.295803 3.21442 0
M  V30 644 H 57.807 2.12346 3.15616 0
M  V30 645 H 59.119 2.59965 4.25699 0
M  V30 646 H 58.273 0.997923 5.98437 0
M  V30 647 H 57.012 0.420046 4.85888 0
M  V30 648 H 56.017 2.72342 4.77608 0
M  V30 649 H 57.242 3.29881 5.93595 0
M  V30 650 H 55.188 1.11782 6.46406 0
M  V30 651 H 55.105 2.74956 7.04227 0
M  V30 652 H 56.373 1.70289 7.60672 0
M  V30 653 N 60.6021 -1.18246 1.0419 0
M  V30 654 C 61.5501 -2.23968 0.627792 0
M  V30 655 C 62.5441 -1.65828 -0.346019 0
M  V30 656 O 63.7501 -1.78733 -0.213175 0
M  V30 657 H 60.1251 -0.728939 0.184802 0
M  V30 658 H 62.0961 -2.56202 1.52981 0
M  V30 659 C 60.8451 -3.47699 0.00796591 0
M  V30 660 H 60.1681 -3.92734 0.748347 0
M  V30 661 H 61.6081 -4.23294 -0.24455 0
M  V30 662 C 60.0671 -3.13153 -1.24246 0
M  V30 663 O 60.5971 -3.27003 -2.33307 0
M  V30 664 N 58.8031 -2.67467 -1.13622 0
M  V30 665 H 58.3501 -2.56396 -0.248734 0
M  V30 666 H 58.3081 -2.44724 -1.97377 0
M  V30 667 N 62.0802 -0.821533 -1.34494 0
M  V30 668 C 63.3082 -0.421884 -2.02553 0
M  V30 669 C 63.7232 0.971745 -1.61872 0
M  V30 670 O 63.0802 1.62864 -0.823496 0
M  V30 671 C 63.1312 -0.51285 -3.57844 0
M  V30 672 O 62.8522 -1.85155 -3.97051 0
M  V30 673 C 64.3532 -0.107921 -4.43169 0
M  V30 674 H 61.5732 -0.169482 -0.649243 0
M  V30 675 H 64.1172 -1.1093 -1.71798 0
M  V30 676 H 62.2722 0.126474 -3.87193 0
M  V30 677 H 62.6862 -1.82482 -4.91732 0
M  V30 678 H 64.1602 -0.222657 -5.51551 0
M  V30 679 H 64.6372 0.948401 -4.28838 0
M  V30 680 H 65.2432 -0.720989 -4.19144 0
M  V30 681 N 63.5583 1.46682 -0.576371 0
M  V30 682 C 64.7833 2.07304 -0.0630475 0
M  V30 683 C 65.2083 1.42329 1.2298 0
M  V30 684 O 64.5663 0.504865 1.74129 0
M  V30 685 C 64.6143 3.60472 0.095895 0
M  V30 686 O 63.7183 3.95927 1.15394 0
M  V30 687 H 63.0593 0.661288 -0.0599463 0
M  V30 688 H 65.5893 1.88417 -0.797511 0
M  V30 689 H 65.5993 4.06865 0.304071 0
M  V30 690 H 64.2743 4.07157 -0.84828 0
M  V30 691 H 62.8513 3.61252 0.924724 0
M  V30 692 N 65.0364 0.313813 1.54444 0
M  V30 693 C 65.9834 -0.55655 2.23989 0
M  V30 694 C 66.9534 -1.11943 1.22711 0
M  V30 695 O 68.1384 -1.16158 1.51367 0
M  V30 696 C 65.2784 -1.71635 2.99392 0
M  V30 697 C 64.3914 -1.18364 4.15468 0
M  V30 698 C 63.5264 -2.30834 4.78424 0
M  V30 699 C 62.5654 -1.74762 5.86622 0
M  V30 700 N 61.7024 -2.80855 6.43479 0
M  V30 701 H 66.5424 0.0430893 2.97969 0
M  V30 702 H 64.0794 0.0330359 1.47063 0
M  V30 703 H 66.0374 -2.39868 3.41349 0
M  V30 704 H 64.6674 -2.28742 2.27765 0
M  V30 705 H 63.7194 -0.393163 3.78363 0
M  V30 706 H 65.0314 -0.733262 4.93381 0
M  V30 707 H 64.1854 -3.0699 5.23299 0
M  V30 708 H 62.9244 -2.79204 3.99871 0
M  V30 709 H 61.9294 -0.970995 5.41158 0
M  V30 710 H 63.1544 -1.2728 6.67066 0
M  V30 711 H 61.1004 -3.28535 5.67804 0
M  V30 712 H 61.0174 -2.40351 7.16776 0
M  V30 713 H 62.2854 -3.5687 6.93011 0
M  V30 714 N 66.5145 -1.57545 0.0417849 0
M  V30 715 C 67.7625 -1.91937 -0.632829 0
M  V30 716 C 68.0835 -0.919978 -1.71934 0
M  V30 717 O 67.3535 0.0366064 -1.95866 0
M  V30 718 H 65.9335 -0.708493 -0.236742 0
M  V30 719 H 68.5955 -1.9468 0.0925745 0
M  V30 720 H 67.6915 -2.92912 -1.07746 0
M  V30 721 N 67.9926 0.231505 -1.5589 0
M  V30 722 C 69.2206 0.974505 -1.82513 0
M  V30 723 C 69.6356 1.78344 -0.619591 0
M  V30 724 O 68.9926 1.77792 0.411848 0
M  V30 725 C 69.0436 1.90007 -3.07538 0
M  V30 726 O 68.7646 1.12385 -4.2344 0
M  V30 727 C 70.2656 2.75779 -3.47075 0
M  V30 728 H 67.4856 0.286065 -0.606966 0
M  V30 729 H 70.0296 0.249739 -2.02969 0
M  V30 730 H 68.1846 2.57891 -2.89086 0
M  V30 731 H 68.5986 1.75125 -4.944 0
M  V30 732 H 70.0726 3.36443 -4.37619 0
M  V30 733 H 70.5496 3.47672 -2.68367 0
M  V30 734 H 71.1556 2.13323 -3.67931 0
M  V30 735 N 69.4707 1.49531 0.497807 0
M  V30 736 C 70.7167 1.59415 1.25358 0
M  V30 737 C 71.0497 0.281422 1.9215 0
M  V30 738 O 70.3247 -0.715249 1.80871 0
M  V30 739 C 70.6077 2.75566 2.3181 0
M  V30 740 C 70.4607 4.16642 1.69498 0
M  V30 741 C 71.7797 2.87347 3.33346 0
M  V30 742 H 68.8987 0.580244 0.454408 0
M  V30 743 H 71.5407 1.81827 0.551262 0
M  V30 744 H 69.6907 2.56587 2.91711 0
M  V30 745 H 71.3627 4.47145 1.13399 0
M  V30 746 H 69.6057 4.22141 0.998978 0
M  V30 747 H 70.2767 4.93792 2.46725 0
M  V30 748 H 72.7527 3.04634 2.83438 0
M  V30 749 H 71.6287 3.70289 4.05188 0
M  V30 750 H 71.8897 1.96834 3.95865 0
M  V30 751 N 70.9488 -0.749086 1.3866 0
M  V30 752 C 72.1768 -1.53834 1.38358 0
M  V30 753 C 72.5918 -1.88783 -0.0255219 0
M  V30 754 O 71.9488 -1.53101 -0.993292 0
M  V30 755 C 71.9998 -2.83468 2.2434 0
M  V30 756 O 71.7208 -2.50008 3.5976 0
M  V30 757 C 73.2218 -3.7758 2.32267 0
M  V30 758 H 70.4418 -0.47585 0.473083 0
M  V30 759 H 72.9858 -0.926726 1.82297 0
M  V30 760 H 71.1408 -3.40995 1.83851 0
M  V30 761 H 71.5548 -3.33182 4.05081 0
M  V30 762 H 73.0288 -4.65478 2.96706 0
M  V30 763 H 73.5058 -4.18334 1.33765 0
M  V30 764 H 74.1118 -3.25976 2.73166 0
M  V30 765 N 72.4269 -1.23603 -0.977757 0
M  V30 766 C 73.6749 -1.06759 -1.71601 0
M  V30 767 C 73.9959 0.395929 -1.90938 0
M  V30 768 O 73.2659 1.28356 -1.47992 0
M  V30 769 H 71.8459 -0.392062 -0.635843 0
M  V30 770 H 74.5079 -1.55362 -1.1768 0
M  V30 771 H 73.6039 -1.55763 -2.70452 0
M  V30 772 N 73.905 1.17692 -1.04816 0
M  V30 773 C 74.837 2.21103 -0.603822 0
M  V30 774 C 75.85 1.59411 0.33046 0
M  V30 775 O 77.039 1.7807 0.12379 0
M  V30 776 C 74.139 3.38623 0.136898 0
M  V30 777 C 73.312 4.29888 -0.807137 0
M  V30 778 C 72.371 5.26088 -0.10836 0
M  V30 779 O 71.397 5.64353 -0.741232 0
M  V30 780 N 72.599 5.68882 1.15558 0
M  V30 781 H 75.364 2.59848 -1.49329 0
M  V30 782 H 72.925 1.32553 -0.929587 0
M  V30 783 H 74.917 4.00009 0.614401 0
M  V30 784 H 73.487 2.98508 0.927993 0
M  V30 785 H 72.707 3.65993 -1.46434 0
M  V30 786 H 73.995 4.87759 -1.44807 0
M  V30 787 H 73.393 5.39861 1.69015 0
M  V30 788 H 71.95 6.32429 1.57722 0
M  V30 789 N 75.3831 0.828654 1.34056 0
M  V30 790 C 76.6291 0.42008 1.98402 0
M  V30 791 C 76.9621 -1.01564 1.65525 0
M  V30 792 O 76.2371 -1.70834 0.929831 0
M  V30 793 C 76.5201 0.62927 3.54559 0
M  V30 794 C 76.3731 2.11152 3.97159 0
M  V30 795 C 77.6921 0.0688756 4.40046 0
M  V30 796 H 74.8111 0.154104 0.720709 0
M  V30 797 H 77.4531 1.04228 1.5886 0
M  V30 798 H 75.6031 0.0996418 3.88372 0
M  V30 799 H 77.2751 2.70522 3.73651 0
M  V30 800 H 75.5181 2.59985 3.47261 0
M  V30 801 H 76.1891 2.20868 5.05887 0
M  V30 802 H 78.6651 0.521458 4.1282 0
M  V30 803 H 77.5411 0.245006 5.48353 0
M  V30 804 H 77.8021 -1.0266 4.30015 0
M  V30 805 N 76.8612 -1.46375 0.584142 0
M  V30 806 C 77.7932 -2.28443 -0.186119 0
M  V30 807 C 78.8062 -1.38596 -0.854115 0
M  V30 808 O 79.9952 -1.63183 -0.723438 0
M  V30 809 C 77.0952 -3.13671 -1.28311 0
M  V30 810 C 76.2682 -4.31652 -0.706758 0
M  V30 811 C 75.3272 -4.98267 -1.69163 0
M  V30 812 O 74.3532 -5.55815 -1.22712 0
M  V30 813 N 75.5552 -4.95408 -3.02575 0
M  V30 814 H 78.3202 -2.9519 0.517986 0
M  V30 815 H 75.8812 -1.56303 0.42201 0
M  V30 816 H 77.8732 -3.55101 -1.94128 0
M  V30 817 H 76.4432 -2.48989 -1.89005 0
M  V30 818 H 75.6632 -3.93989 0.128908 0
M  V30 819 H 76.9512 -5.07906 -0.301506 0
M  V30 820 H 76.3492 -4.49902 -3.42936 0
M  V30 821 H 74.9062 -5.40774 -3.63877 0
M  V30 822 N 78.3393 -0.321999 -1.54275 0
M  V30 823 C 79.5873 0.280489 -2.00144 0
M  V30 824 C 79.9083 1.52777 -1.21178 0
M  V30 825 O 79.1783 1.9338 -0.313187 0
M  V30 826 H 77.7583 0.106632 -0.73935 0
M  V30 827 H 80.4203 -0.438184 -1.8991 0
M  V30 828 H 79.5163 0.537972 -3.07428 0
M  V30 829 N 79.8174 1.5752 -0.0501392 0
M  V30 830 C 81.2284 1.80271 0.485705 0
M  V30 831 C 81.5794 0.96228 1.70981 0
M  V30 832 O 80.7044 0.178578 2.15662 0
M  V30 833 C 81.2994 3.26957 0.887938 0
M  V30 834 C 79.8584 3.5063 1.36877 0
M  V30 835 C 79.0054 2.75165 0.343468 0
M  V30 836 H 81.9564 1.56281 -0.276028 0
M  V30 837 H 81.9774 3.37821 1.75093 0
M  V30 838 H 81.4894 3.881 -0.0031809 0
M  V30 839 H 79.5904 2.94766 2.27911 0
M  V30 840 H 79.7034 4.59343 1.36164 0
M  V30 841 H 78.0674 2.4127 0.816128 0
M  V30 842 H 78.8504 3.39034 -0.539548 0
M  V30 843 N 81.2955 -0.223234 1.56011 0
M  V30 844 C 82.2055 -1.29766 1.95443 0
M  V30 845 C 83.2215 -1.51373 0.858028 0
M  V30 846 O 84.3975 -1.64536 1.16146 0
M  V30 847 C 81.4625 -2.62772 2.26167 0
M  V30 848 C 80.5235 -2.49482 3.49367 0
M  V30 849 C 79.7565 -3.76145 3.78616 0
M  V30 850 O 79.9795 -4.79087 3.09568 0
M  V30 851 O 78.9135 -3.73358 4.72109 0
M  V30 852 H 82.7395 -0.99309 2.87004 0
M  V30 853 H 80.3245 -0.425958 1.43199 0
M  V30 854 H 82.2065 -3.41327 2.47131 0
M  V30 855 H 80.8815 -2.92913 1.37781 0
M  V30 856 H 79.7885 -1.69133 3.33684 0
M  V30 857 H 81.1215 -2.2428 4.38131 0
M  V30 858 N 82.7736 -1.49793 -0.48987 0
M  V30 859 C 84.0506 -1.50348 -1.25119 0
M  V30 860 C 84.4306 -0.237466 -2.0976 0
M  V30 861 O 83.7786 0.77981 -2.14782 0
M  V30 862 C 83.9886 -2.78872 -2.09837 0
M  V30 863 C 85.3366 -3.288 -2.68655 0
M  V30 864 O 86.3606 -2.80065 -2.20096 0
M  V30 865 O 85.2196 -4.13707 -3.57083 0
M  V30 866 H 82.3136 -0.602242 -0.566775 0
M  V30 867 H 84.8596 -1.62067 -0.503229 0
M  V30 868 H 83.6316 -3.62499 -1.47343 0
M  V30 869 H 83.2546 -2.70066 -2.91805 0
M  V30 870 N 84.2517 0.741722 -1.39055 0
M  V30 871 C 85.1987 1.85566 -1.37237 0
M  V30 872 C 86.1687 1.64457 -0.233072 0
M  V30 873 O 87.3537 1.85957 -0.427147 0
M  V30 874 C 84.4937 3.23004 -1.215 0
M  V30 875 C 83.6067 3.55864 -2.44918 0
M  V30 876 C 82.7417 4.82669 -2.21821 0
M  V30 877 C 81.7807 5.08351 -3.40948 0
M  V30 878 N 80.9177 6.26356 -3.17211 0
M  V30 879 H 85.7577 1.86455 -2.32462 0
M  V30 880 H 83.2947 0.911176 -1.15482 0
M  V30 881 H 85.2527 4.02331 -1.10389 0
M  V30 882 H 83.8827 3.21411 -0.29908 0
M  V30 883 H 82.9347 2.7129 -2.66657 0
M  V30 884 H 84.2467 3.70765 -3.33668 0
M  V30 885 H 83.4007 5.69962 -2.07914 0
M  V30 886 H 82.1397 4.69929 -1.30454 0
M  V30 887 H 81.1447 4.19522 -3.55361 0
M  V30 888 H 82.3697 5.22981 -4.33207 0
M  V30 889 H 80.3157 6.14917 -2.28502 0
M  V30 890 H 80.2327 6.41813 -3.99515 0
M  V30 891 H 81.5007 7.16506 -3.06984 0
M  V30 892 N 85.7298 1.2412 0.971189 0
M  V30 893 C 86.9758 1.08041 1.71625 0
M  V30 894 C 87.3088 -0.380407 1.90438 0
M  V30 895 O 86.5838 -1.28127 1.46334 0
M  V30 896 C 86.8668 1.81682 3.10908 0
M  V30 897 C 86.7198 3.35493 2.99608 0
M  V30 898 C 88.0388 1.58671 4.10501 0
M  V30 899 H 85.1578 0.39388 0.622919 0
M  V30 900 H 87.7998 1.52743 1.13003 0
M  V30 901 H 85.9498 1.43684 3.60953 0
M  V30 902 H 87.6218 3.83068 2.57015 0
M  V30 903 H 85.8648 3.64052 2.35899 0
M  V30 904 H 86.5358 3.82217 3.98264 0
M  V30 905 H 89.0118 1.91719 3.69301 0
M  V30 906 H 87.8878 2.1266 5.06031 0
M  V30 907 H 88.1488 0.524161 4.38982 0
M  V30 908 N 87.2079 -1.17134 1.05439 0
M  V30 909 C 88.1559 -2.23289 0.651511 0
M  V30 910 C 89.1499 -1.66186 -0.328411 0
M  V30 911 O 90.3559 -1.78949 -0.194206 0
M  V30 912 H 86.7309 -0.726938 0.192523 0
M  V30 913 H 88.7019 -2.54565 1.55689 0
M  V30 914 C 87.4509 -3.47671 0.0448436 0
M  V30 915 H 86.7739 -3.91918 0.78996 0
M  V30 916 H 88.2139 -4.2353 -0.19964 0
M  V30 917 C 86.6729 -3.14453 -1.20918 0
M  V30 918 O 87.2029 -3.29459 -2.29825 0
M  V30 919 N 85.4089 -2.68657 -1.10779 0
M  V30 920 H 84.9559 -2.56646 -0.221526 0
M  V30 921 H 84.9139 -2.46804 -1.9477 0
M  V30 922 N 88.686 -0.835752 -1.33615 0
M  V30 923 C 89.911 -0.442389 -2.02627 0
M  V30 924 C 90.336 0.947735 -1.62479 0
M  V30 925 O 89.694 1.61907 -0.815826 0
M  V30 926 C 89.742 -0.567216 -3.56111 0
M  V30 927 O 88.846 0.407799 -4.10379 0
M  V30 928 H 88.187 -0.180278 -0.639059 0
M  V30 929 H 90.717 -1.12972 -1.70583 0
M  V30 930 H 90.727 -0.447708 -4.05536 0
M  V30 931 H 89.402 -1.58103 -3.84677 0
M  V30 932 H 87.979 0.246107 -3.72087 0
M  V30 933 N 90.1641 1.46063 -0.591896 0
M  V30 934 C 91.0971 2.27452 0.184617 0
M  V30 935 C 92.0751 1.36188 0.888351 0
M  V30 936 O 93.2591 1.65606 0.90039 0
M  V30 937 C 90.3861 3.14162 1.26571 0
M  V30 938 C 89.4321 4.21255 0.666814 0
M  V30 939 S 90.2651 5.33034 -0.513345 0
M  V30 940 C 91.4211 6.23311 0.56872 0
M  V30 941 H 91.6541 2.92963 -0.505939 0
M  V30 942 H 89.1871 1.49676 -0.379014 0
M  V30 943 H 91.1451 3.6468 1.88463 0
M  V30 944 H 89.8061 2.47946 1.92826 0
M  V30 945 H 88.9991 4.81788 1.47974 0
M  V30 946 H 88.6011 3.73797 0.123359 0
M  V30 947 H 90.8931 6.61758 1.45198 0
M  V30 948 H 91.8361 7.081 -7.23824e-05 0
M  V30 949 H 92.2441 5.57646 0.876996 0
M  V30 950 N 91.6422 0.330177 1.54103 0
M  V30 951 C 92.5892 -0.532762 2.24567 0
M  V30 952 C 93.5592 -1.10635 1.23892 0
M  V30 953 O 94.7442 -1.14546 1.5259 0
M  V30 954 C 91.8842 -1.6845 3.01195 0
M  V30 955 C 90.9972 -1.13951 4.167 0
M  V30 956 C 90.1322 -2.25746 4.80845 0
M  V30 957 C 89.1712 -1.6853 5.88442 0
M  V30 958 N 88.3082 -2.74014 6.46421 0
M  V30 959 H 93.1482 0.0746905 2.97906 0
M  V30 960 H 90.6852 0.048632 1.4702 0
M  V30 961 H 92.6432 -2.36234 3.43874 0
M  V30 962 H 91.2732 -2.26314 2.30178 0
M  V30 963 H 90.3252 -0.35301 3.78758 0
M  V30 964 H 91.6372 -0.680892 4.94131 0
M  V30 965 H 90.7912 -3.01422 5.26526 0
M  V30 966 H 89.5302 -2.74947 4.0281 0
M  V30 967 H 88.5352 -0.913543 5.42157 0
M  V30 968 H 89.7602 -1.20198 6.68378 0
M  V30 969 H 87.7062 -3.22494 5.71256 0
M  V30 970 H 87.6232 -2.32735 7.19285 0
M  V30 971 H 88.8912 -3.49499 6.96757 0
M  V30 972 N 93.1203 -1.57491 0.0584922 0
M  V30 973 C 94.3453 -1.97711 -0.62652 0
M  V30 974 C 94.7703 -0.936132 -1.63151 0
M  V30 975 O 94.1283 0.099811 -1.81025 0
M  V30 976 C 94.1763 -3.36989 -1.28338 0
M  V30 977 O 93.2803 -3.35433 -2.39913 0
M  V30 978 H 92.6213 -0.643868 -0.162266 0
M  V30 979 H 95.1513 -2.04193 0.129064 0
M  V30 980 H 95.1613 -3.73879 -1.63335 0
M  V30 981 H 93.8363 -4.12289 -0.546889 0
M  V30 982 H 92.4133 -3.10298 -2.06809 0
M  V30 983 N 94.5984 0.214957 -1.56127 0
M  V30 984 C 95.8444 0.935325 -1.80619 0
M  V30 985 C 96.1994 1.81706 -0.632507 0
M  V30 986 O 95.4924 1.87931 0.373182 0
M  V30 987 C 95.6864 1.80314 -3.0858 0
M  V30 988 C 95.5154 1.00691 -4.38282 0
M  V30 989 C 94.2854 0.699211 -5.00439 0
M  V30 990 C 96.4834 0.369057 -5.12974 0
M  V30 991 N 94.4654 -0.117734 -6.13787 0
M  V30 992 C 95.8364 -0.310981 -6.1922 0
M  V30 993 C 97.8914 0.282759 -4.97096 0
M  V30 994 C 96.5944 -1.06907 -7.11311 0
M  V30 995 C 98.6204 -0.461881 -5.89594 0
M  V30 996 C 97.9824 -1.13044 -6.9527 0
M  V30 997 H 94.0814 0.322307 -0.71249 0
M  V30 998 H 96.6654 0.205649 -1.93611 0
M  V30 999 H 94.8364 2.50458 -2.96859 0
M  V30 1000 H 96.5684 2.46148 -3.21237 0
M  V30 1001 H 93.3234 1.01884 -4.62511 0
M  V30 1002 H 93.7474 -0.515235 -6.75037 0
M  V30 1003 H 98.3894 0.785292 -4.15443 0
M  V30 1004 H 96.1074 -1.5831 -7.92442 0
M  V30 1005 H 99.6934 -0.529746 -5.79383 0
M  V30 1006 H 98.5734 -1.69742 -7.65609 0
M  V30 1007 N 96.0765 1.50051 0.48192 0
M  V30 1008 C 97.0065 1.71046 1.58951 0
M  V30 1009 C 97.9875 0.559288 1.60642 0
M  V30 1010 O 99.1725 0.797243 1.77081 0
M  V30 1011 C 96.3025 1.79462 2.97339 0
M  V30 1012 C 95.2565 2.94558 3.10515 0
M  V30 1013 C 94.5825 2.88105 4.50444 0
M  V30 1014 C 95.8825 4.35227 2.88747 0
M  V30 1015 H 97.5765 2.6378 1.41635 0
M  V30 1016 H 95.1225 1.26936 0.679942 0
M  V30 1017 H 97.0755 1.92734 3.74742 0
M  V30 1018 H 95.7995 0.833412 3.15788 0
M  V30 1019 H 94.4585 2.80918 2.35543 0
M  V30 1020 H 94.1065 1.89853 4.65795 0
M  V30 1021 H 93.8065 3.65366 4.60197 0
M  V30 1022 H 95.3305 3.03412 5.29881 0
M  V30 1023 H 96.7445 4.49449 3.55905 0
M  V30 1024 H 95.1415 5.13856 3.09955 0
M  V30 1025 H 96.2115 4.48347 1.84696 0
M  V30 1026 N 97.5546 -0.734337 1.39446 0
M  V30 1027 C 98.7796 -1.52866 1.40167 0
M  V30 1028 C 99.2046 -1.881 -0.00171513 0
M  V30 1029 O 98.5626 -1.51957 -0.988879 0
M  V30 1030 C 98.6106 -2.79235 2.28167 0
M  V30 1031 O 97.7146 -3.75185 1.71201 0
M  V30 1032 H 97.0556 -0.461618 0.477289 0
M  V30 1033 H 99.5856 -0.905949 1.8345 0
M  V30 1034 H 99.5956 -3.27963 2.42702 0
M  V30 1035 H 98.2706 -2.52923 3.30156 0
M  V30 1036 H 96.8476 -3.33958 1.65912 0
M  V30 1037 N 99.0327 -1.24633 -0.964593 0
M  V30 1038 C 99.9797 -1.04144 -2.05968 0
M  V30 1039 C 100.95 0.046262 -1.66036 0
M  V30 1040 O 102.135 -0.108972 -1.90489 0
M  V30 1041 C 99.2747 -0.65563 -3.38815 0
M  V30 1042 C 98.3877 -1.81714 -3.91923 0
M  V30 1043 C 97.5227 -1.37662 -5.13052 0
M  V30 1044 C 96.5617 -2.50788 -5.58365 0
M  V30 1045 N 95.6987 -2.07582 -6.70712 0
M  V30 1046 H 100.539 -1.9787 -2.22827 0
M  V30 1047 H 98.0757 -0.9855 -1.09208 0
M  V30 1048 H 100.034 -0.412954 -4.15151 0
M  V30 1049 H 98.6637 0.244627 -3.21872 0
M  V30 1050 H 97.7157 -2.1734 -3.12198 0
M  V30 1051 H 99.0277 -2.66705 -4.21509 0
M  V30 1052 H 98.1817 -1.093 -5.96773 0
M  V30 1053 H 96.9207 -0.497293 -4.85158 0
M  V30 1054 H 95.9257 -2.79906 -4.73215 0
M  V30 1055 H 97.1507 -3.39283 -5.88272 0
M  V30 1056 H 95.0967 -1.22051 -6.44546 0
M  V30 1057 H 95.0137 -2.86125 -6.99763 0
M  V30 1058 H 96.2817 -1.82369 -7.57867 0
M  V30 1059 N 100.511 1.16574 -1.06058 0
M  V30 1060 C 101.757 1.87324 -0.777022 0
M  V30 1061 C 102.09 1.81351 0.694645 0
M  V30 1062 O 101.365 1.22753 1.50871 0
M  V30 1063 C 101.648 3.36991 -1.26922 0
M  V30 1064 C 101.501 3.51667 -2.80447 0
M  V30 1065 C 102.82 4.3131 -0.87521 0
M  V30 1066 H 99.9388 0.680191 -0.28374 0
M  V30 1067 H 102.581 1.37036 -1.3161 0
M  V30 1068 H 100.731 3.79949 -0.81063 0
M  V30 1069 H 102.403 3.17664 -3.34495 0
M  V30 1070 H 100.646 2.93656 -3.19294 0
M  V30 1071 H 101.317 4.56766 -3.0995 0
M  V30 1072 H 103.793 3.9624 -1.27014 0
M  V30 1073 H 102.669 5.34545 -1.2471 0
M  V30 1074 H 102.93 4.41552 0.220071 0
M  V30 1075 N 101.989 0.842826 1.3317 0
M  V30 1076 C 103.237 0.439577 1.97262 0
M  V30 1077 C 103.558 -1.00548 1.67078 0
M  V30 1078 O 102.828 -1.70098 0.971779 0
M  V30 1079 H 101.408 0.159558 0.72976 0
M  V30 1080 H 104.07 1.07665 1.62463 0
M  V30 1081 H 103.166 0.574886 3.0676 0
M  V30 1082 N 103.467 -1.45747 0.599634 0
M  V30 1083 C 104.692 -2.07178 0.0960198 0
M  V30 1084 C 105.117 -1.44268 -1.207 0
M  V30 1085 O 104.475 -0.532503 -1.73303 0
M  V30 1086 C 104.523 -3.60579 -0.0385348 0
M  V30 1087 O 103.627 -3.97713 -1.0908 0
M  V30 1088 H 102.968 -0.660251 0.0704593 0
M  V30 1089 H 105.498 -1.87124 0.827385 0
M  V30 1090 H 105.508 -4.07298 -0.239304 0
M  V30 1091 H 104.183 -4.05756 0.912947 0
M  V30 1092 H 102.76 -3.62678 -0.867135 0
M  V30 1093 N 104.945 -0.338344 -1.53925 0
M  V30 1094 C 106.356 0.146651 -1.86123 0
M  V30 1095 C 106.707 1.5042 -1.2597 0
M  V30 1096 O 105.832 2.08723 -0.571294 0
M  V30 1097 C 106.427 0.272879 -3.37699 0
M  V30 1098 C 104.986 0.702103 -3.69794 0
M  V30 1099 C 104.133 -0.167304 -2.76795 0
M  V30 1100 H 107.084 -0.558123 -1.48562 0
M  V30 1101 H 107.105 1.10128 -3.64214 0
M  V30 1102 H 106.617 -0.715307 -3.81451 0
M  V30 1103 H 104.718 1.6995 -3.31584 0
M  V30 1104 H 104.831 0.495604 -4.7653 0
M  V30 1105 H 103.195 0.359527 -2.5215 0
M  V30 1106 H 103.978 -1.15253 -3.23375 0
M  V30 1107 N 106.423 1.57458 -0.0668435 0
M  V30 1108 C 107.648 1.9804 0.616027 0
M  V30 1109 C 108.073 0.944771 1.62652 0
M  V30 1110 O 107.431 -0.0902094 1.81075 0
M  V30 1111 C 107.479 3.37665 1.26549 0
M  V30 1112 O 106.583 3.36701 2.38131 0
M  V30 1113 H 105.924 0.644719 0.158849 0
M  V30 1114 H 108.454 2.04121 -0.139891 0
M  V30 1115 H 108.464 3.7474 1.6135 0
M  V30 1116 H 107.139 4.12573 0.525016 0
M  V30 1117 H 105.716 3.1139 2.0516 0
M  V30 1118 N 107.901 -0.206675 1.56239 0
M  V30 1119 C 109.126 -0.949474 1.8439 0
M  V30 1120 C 109.551 -1.76549 0.649016 0
M  V30 1121 O 108.909 -1.76782 -0.402231 0
M  V30 1122 C 108.957 -1.83078 3.10668 0
M  V30 1123 O 108.061 -2.9281 2.90407 0
M  V30 1124 H 107.402 -0.268033 0.607499 0
M  V30 1125 H 109.932 -0.215488 2.03462 0
M  V30 1126 H 109.942 -2.2377 3.41161 0
M  V30 1127 H 108.617 -1.23112 3.97261 0
M  V30 1128 H 107.194 -2.55956 2.71184 0
M  V30 1129 N 109.379 -1.50304 -0.473955 0
M  V30 1130 C 110.795 -1.37667 -0.807466 0
M  V30 1131 C 110.995 -0.430555 -1.96846 0
M  V30 1132 O 110.051 0.127874 -2.52176 0
M  V30 1133 C 111.364 -2.78974 -1.12223 0
M  V30 1134 C 112.912 -2.87868 -1.22885 0
M  V30 1135 C 113.387 -4.30003 -1.57676 0
M  V30 1136 N 114.878 -4.3294 -1.64673 0
M  V30 1137 C 115.613 -5.3991 -1.93091 0
M  V30 1138 N 115.109 -6.57092 -2.1955 0
M  V30 1139 N 116.902 -5.27351 -1.94569 0
M  V30 1140 H 109.053 -2.10394 0.291212 0
M  V30 1141 H 111.316 -0.945575 0.0677609 0
M  V30 1142 H 111.022 -3.50031 -0.342229 0
M  V30 1143 H 110.896 -3.16038 -2.05913 0
M  V30 1144 H 113.283 -2.17032 -1.99953 0
M  V30 1145 H 113.364 -2.54352 -0.271814 0
M  V30 1146 H 113.008 -5.01375 -0.81149 0
M  V30 1147 H 112.938 -4.61004 -2.54525 0
M  V30 1148 H 115.429 -3.48441 -1.46277 0
M  V30 1149 H 115.742 -7.34425 -2.405 0
M  V30 1150 H 114.087 -6.60272 -2.16948 0
M  V30 1151 H 117.278 -4.34801 -1.73394 0
M  V30 1152 H 117.451 -6.10805 -2.16381 0
M  V30 1153 N 110.857 0.726932 -1.39834 0
M  V30 1154 C 112.106 1.48214 -1.36805 0
M  V30 1155 C 112.419 1.95576 0.0305291 0
M  V30 1156 O 113.625 2.7088 0.183417 0
M  V30 1157 C 112.081 2.67854 -2.40379 0
M  V30 1158 C 111.689 2.27408 -3.85992 0
M  V30 1159 C 113.433 3.45641 -2.46439 0
M  V30 1160 C 111.34 3.43819 -4.81189 0
M  V30 1161 H 110.27 0.556606 -0.508631 0
M  V30 1162 H 112.921 0.792216 -1.65518 0
M  V30 1163 H 111.303 3.3896 -2.04749 0
M  V30 1164 H 112.477 1.63795 -4.30706 0
M  V30 1165 H 110.792 1.62692 -3.83302 0
M  V30 1166 H 113.389 4.32244 -3.14753 0
M  V30 1167 H 113.732 3.88669 -1.49139 0
M  V30 1168 H 114.265 2.8157 -2.81004 0
M  V30 1169 H 111.004 3.05834 -5.79781 0
M  V30 1170 H 110.524 4.06385 -4.41148 0
M  V30 1171 H 112.203 4.10043 -5.00474 0
M  V30 1172 N 112.336 1.25143 0.95797 0
M  V30 1173 C 113.613 1.00472 1.67823 0
M  V30 1174 C 113.993 -0.470056 2.058 0
M  V30 1175 O 113.341 -1.44663 1.76875 0
M  V30 1176 C 113.551 1.9372 2.90299 0
M  V30 1177 C 114.899 2.21371 3.62326 0
M  V30 1178 O 115.923 1.91451 3.00375 0
M  V30 1179 O 114.782 2.72231 4.7387 0
M  V30 1180 H 111.876 0.380752 0.734137 0
M  V30 1181 H 114.422 1.36283 1.01119 0
M  V30 1182 H 113.194 2.93316 2.59001 0
M  V30 1183 H 112.817 1.58286 3.64735 0
M  V30 1184 N 113.814 -1.1601 1.06675 0
M  V30 1185 C 115.23 -1.38622 0.790948 0
M  V30 1186 C 115.43 -1.92109 -0.607965 0
M  V30 1187 O 114.486 -2.12239 -1.36787 0
M  V30 1188 C 115.799 -2.36347 1.85905 0
M  V30 1189 C 117.347 -2.50023 1.88301 0
M  V30 1190 C 117.822 -3.51033 2.94176 0
M  V30 1191 N 119.313 -3.58563 2.93235 0
M  V30 1192 C 120.048 -4.36521 3.71803 0
M  V30 1193 N 119.544 -5.17869 4.602 0
M  V30 1194 N 121.337 -4.31541 3.60178 0
M  V30 1195 H 113.488 -0.796294 1.96908 0
M  V30 1196 H 115.751 -0.412597 0.853503 0
M  V30 1197 H 115.457 -2.04147 2.86386 0
M  V30 1198 H 115.331 -3.36042 1.71334 0
M  V30 1199 H 117.718 -2.81524 0.884769 0
M  V30 1200 H 117.799 -1.5035 2.06951 0
M  V30 1201 H 117.443 -3.20268 3.94196 0
M  V30 1202 H 117.373 -4.50445 2.72776 0
M  V30 1203 H 119.864 -3.00496 2.29152 0
M  V30 1204 H 120.177 -5.74578 5.16797 0
M  V30 1205 H 118.522 -5.17199 4.64253 0
M  V30 1206 H 121.713 -3.67051 2.90502 0
M  V30 1207 H 121.886 -4.9205 4.21653 0
M  V30 1208 N 115.292 -0.849877 -1.32721 0
M  V30 1209 C 116.52 -0.464754 -2.01613 0
M  V30 1210 C 116.935 0.937191 -1.63897 0
M  V30 1211 O 116.292 1.61081 -0.857856 0
M  V30 1212 C 116.343 -0.588638 -3.56675 0
M  V30 1213 O 116.064 -1.93535 -3.93034 0
M  V30 1214 C 117.565 -0.2019 -4.4284 0
M  V30 1215 H 114.785 -0.183215 -0.645502 0
M  V30 1216 H 117.329 -1.1455 -1.69407 0
M  V30 1217 H 115.484 0.0443159 -3.87375 0
M  V30 1218 H 115.898 -1.92871 -4.87751 0
M  V30 1219 H 117.372 -0.339599 -5.50954 0
M  V30 1220 H 117.849 0.857224 -4.30753 0
M  V30 1221 H 118.455 -0.809733 -4.17521 0
M  V30 1222 N 116.77 1.45427 -0.607355 0
M  V30 1223 C 117.718 2.32269 0.12411 0
M  V30 1224 C 118.712 1.45955 0.859854 0
M  V30 1225 O 119.918 1.6244 0.775447 0
M  V30 1226 H 116.293 0.749691 0.0588839 0
M  V30 1227 H 118.264 2.91743 -0.626762 0
M  V30 1228 C 117.013 3.29567 1.1082 0
M  V30 1229 H 116.336 3.95978 0.551492 0
M  V30 1230 H 117.776 3.93061 1.58995 0
M  V30 1231 C 116.235 2.56722 2.18164 0
M  V30 1232 O 116.765 2.34842 3.25902 0
M  V30 1233 N 114.971 2.16861 1.93442 0
M  V30 1234 H 114.518 2.34855 1.05834 0
M  V30 1235 H 114.476 1.68444 2.65469 0
M  V30 1236 N 118.248 0.346503 1.53744 0
M  V30 1237 C 119.495 -0.249104 2.00962 0
M  V30 1238 C 119.823 -1.5032 1.23426 0
M  V30 1239 O 119.078 -1.93217 0.310761 0
M  V30 1240 C 119.377 -0.605809 3.52228 0
M  V30 1241 C 119.043 0.551747 4.47512 0
M  V30 1242 C 117.705 0.86941 4.73281 0
M  V30 1243 C 120.057 1.32818 5.03993 0
M  V30 1244 C 117.385 1.96582 5.52786 0
M  V30 1245 C 119.737 2.41486 5.84694 0
M  V30 1246 C 118.401 2.73808 6.08757 0
M  V30 1247 H 117.671 -0.0911538 0.735372 0
M  V30 1248 H 120.318 0.475027 1.85515 0
M  V30 1249 H 118.623 -1.4107 3.65522 0
M  V30 1250 H 120.32 -1.07858 3.86222 0
M  V30 1251 H 116.91 0.294102 4.2759 0
M  V30 1252 H 121.094 1.09602 4.84047 0
M  V30 1253 H 116.35 2.22045 5.69654 0
M  V30 1254 H 120.524 3.02078 6.27473 0
M  V30 1255 H 118.151 3.58892 6.7015 0
M  V30 1256 N 119.726 -1.57421 0.075193 0
M  V30 1257 C 120.951 -1.98364 -0.605515 0
M  V30 1258 C 121.376 -0.953383 -1.62149 0
M  V30 1259 O 120.734 0.0806053 -1.81121 0
M  V30 1260 C 120.782 -3.38332 -1.24756 0
M  V30 1261 O 119.886 -3.37959 -2.36342 0
M  V30 1262 H 119.227 -0.645553 -0.155428 0
M  V30 1263 H 121.757 -2.04044 0.150714 0
M  V30 1264 H 121.767 -3.75591 -1.5936 0
M  V30 1265 H 120.442 -4.12846 -0.503129 0
M  V30 1266 H 119.019 -3.12474 -2.03506 0
M  V30 1267 N 121.204 0.198386 -1.56346 0
M  V30 1268 C 122.152 1.26538 -1.95169 0
M  V30 1269 C 123.146 1.47295 -0.836685 0
M  V30 1270 O 124.352 1.48195 -1.02167 0
M  V30 1271 H 120.727 0.424744 -0.620561 0
M  V30 1272 H 122.698 0.910904 -2.84157 0
M  V30 1273 C 121.447 2.6035 -2.30463 0
M  V30 1274 H 120.77 2.45192 -3.15786 0
M  V30 1275 H 122.21 3.33762 -2.61494 0
M  V30 1276 C 120.669 3.17096 -1.13806 0
M  V30 1277 O 121.199 3.99588 -0.41135 0
M  V30 1278 N 119.405 2.75795 -0.915736 0
M  V30 1279 H 118.952 2.08816 -1.50843 0
M  V30 1280 H 118.91 3.14101 -0.136979 0
M  V30 1281 N 122.682 1.50554 0.465978 0
M  V30 1282 C 123.592 1.72585 1.58907 0
M  V30 1283 C 124.608 0.60911 1.6299 0
M  V30 1284 O 125.784 0.88804 1.80765 0
M  V30 1285 C 122.849 1.81995 2.95091 0
M  V30 1286 C 121.91 3.05751 3.01355 0
M  V30 1287 C 121.143 3.14702 4.31043 0
M  V30 1288 O 121.366 2.30313 5.21835 0
M  V30 1289 O 120.3 4.07468 4.43005 0
M  V30 1290 H 124.126 2.67799 1.43239 0
M  V30 1291 H 121.711 1.34711 0.646013 0
M  V30 1292 H 123.593 1.90335 3.75966 0
M  V30 1293 H 122.268 0.899659 3.10947 0
M  V30 1294 H 121.175 3.02908 2.19539 0
M  V30 1295 H 122.508 3.97375 2.90437 0
M  V30 1296 N 124.16 -0.719506 1.40217 0
M  V30 1297 C 125.107 -1.83359 1.40172 0
M  V30 1298 C 126.077 -1.64065 0.259206 0
M  V30 1299 O 127.262 -1.85254 0.456677 0
M  V30 1300 C 124.402 -3.2103 1.26624 0
M  V30 1301 C 123.515 -3.51923 2.50548 0
M  V30 1302 C 122.65 -4.79079 2.29471 0
M  V30 1303 C 121.689 -5.02863 3.48992 0
M  V30 1304 N 120.826 -6.2123 3.27135 0
M  V30 1305 H 125.666 -1.82733 2.35399 0
M  V30 1306 H 123.203 -0.892688 1.16917 0
M  V30 1307 H 125.161 -4.00524 1.16776 0
M  V30 1308 H 123.791 -3.20895 0.350176 0
M  V30 1309 H 122.843 -2.67014 2.70939 0
M  V30 1310 H 124.155 -3.6541 3.39525 0
M  V30 1311 H 123.309 -5.66582 2.16955 0
M  V30 1312 H 122.048 -4.67794 1.37913 0
M  V30 1313 H 121.053 -4.13816 3.6199 0
M  V30 1314 H 122.278 -5.16023 4.41472 0
M  V30 1315 H 120.224 -6.11204 2.38256 0
M  V30 1316 H 120.141 -6.35375 4.09675 0
M  V30 1317 H 121.409 -7.11532 3.18344 0
M  V30 1318 N 125.638 -1.25649 -0.95132 0
M  V30 1319 C 126.866 -1.13343 -1.73092 0
M  V30 1320 C 127.281 0.312434 -1.86197 0
M  V30 1321 O 126.638 1.21465 -1.36207 0
M  V30 1322 C 126.689 -1.78602 -3.14299 0
M  V30 1323 O 126.41 -3.17537 -3.01831 0
M  V30 1324 C 127.911 -1.72119 -4.08522 0
M  V30 1325 H 125.131 -0.395181 -0.542285 0
M  V30 1326 H 127.675 -1.66076 -1.19328 0
M  V30 1327 H 125.83 -1.29832 -3.64996 0
M  V30 1328 H 126.244 -3.49676 -3.90931 0
M  V30 1329 H 127.718 -2.22435 -5.052 0
M  V30 1330 H 128.195 -0.685635 -4.33815 0
M  V30 1331 H 128.801 -2.20393 -3.63741 0
M  V30 1332 N 127.117 1.15442 -1.07289 0
M  V30 1333 C 128.366 1.85557 -0.790669 0
M  V30 1334 C 128.679 1.83186 0.685739 0
M  V30 1335 O 129.885 2.48977 1.0827 0
M  V30 1336 C 128.341 3.33038 -1.36433 0
M  V30 1337 C 127.949 3.43856 -2.8717 0
M  V30 1338 C 129.693 4.0834 -1.1601 0
M  V30 1339 C 127.6 4.85482 -3.3773 0
M  V30 1340 H 126.53 0.695122 -0.292098 0
M  V30 1341 H 129.181 1.30219 -1.29287 0
M  V30 1342 H 127.563 3.88043 -0.789864 0
M  V30 1343 H 128.737 2.98961 -3.50655 0
M  V30 1344 H 127.052 2.81998 -3.06376 0
M  V30 1345 H 129.649 5.12859 -1.51262 0
M  V30 1346 H 129.992 4.16182 -0.0991007 0
M  V30 1347 H 130.525 3.59603 -1.70089 0
M  V30 1348 H 127.264 4.82823 -4.43353 0
M  V30 1349 H 126.784 5.30961 -2.78999 0
M  V30 1350 H 128.463 5.54335 -3.33648 0
M  V30 1351 N 128.595 0.856903 1.32268 0
M  V30 1352 C 129.82 0.474569 2.01897 0
M  V30 1353 C 130.245 -0.921766 1.63967 0
M  V30 1354 O 129.603 -1.60589 0.84148 0
M  V30 1355 C 129.651 0.623799 3.55164 0
M  V30 1356 O 128.755 -0.342459 4.10976 0
M  V30 1357 H 128.096 0.190422 0.63611 0
M  V30 1358 H 130.626 1.15672 1.68764 0
M  V30 1359 H 130.636 0.512169 4.04773 0
M  V30 1360 H 129.311 1.64202 3.82113 0
M  V30 1361 H 127.888 -0.18688 3.72431 0
M  V30 1362 N 130.073 -1.45103 0.615059 0
M  V30 1363 C 131.02 -2.30586 -0.0993978 0
M  V30 1364 C 131.99 -1.42544 -0.852669 0
M  V30 1365 O 133.175 -1.71465 -0.836917 0
M  V30 1366 C 130.315 -3.27572 -1.08583 0
M  V30 1367 C 129.428 -4.30717 -0.332656 0
M  V30 1368 C 128.563 -5.14807 -1.30947 0
M  V30 1369 C 127.602 -6.09673 -0.544538 0
M  V30 1370 N 126.739 -6.86517 -1.47101 0
M  V30 1371 H 131.579 -2.91144 0.635542 0
M  V30 1372 H 129.116 -1.4346 0.325206 0
M  V30 1373 H 131.074 -3.82276 -1.67095 0
M  V30 1374 H 129.704 -2.68751 -1.78809 0
M  V30 1375 H 128.756 -3.78615 0.368107 0
M  V30 1376 H 130.068 -4.98102 0.263842 0
M  V30 1377 H 129.222 -5.73948 -1.96643 0
M  V30 1378 H 127.961 -4.47458 -1.9399 0
M  V30 1379 H 126.966 -5.49656 0.126003 0
M  V30 1380 H 128.191 -6.79052 0.080947 0
M  V30 1381 H 126.137 -6.21851 -2.08895 0
M  V30 1382 H 126.054 -7.50281 -0.928137 0
M  V30 1383 H 127.322 -7.50194 -2.11731 0
M  V30 1384 N 131.551 -0.354651 -1.53558 0
M  V30 1385 C 132.481 0.489091 -2.2832 0
M  V30 1386 C 133.462 1.09324 -1.30316 0
M  V30 1387 O 134.647 1.11255 -1.59173 0
M  V30 1388 C 131.777 1.63456 -3.0643 0
M  V30 1389 C 130.731 1.1582 -4.12031 0
M  V30 1390 C 130.057 2.39305 -4.7816 0
M  V30 1391 C 131.357 0.250731 -5.21698 0
M  V30 1392 H 133.051 -0.134614 -2.99097 0
M  V30 1393 H 130.597 -0.0661826 -1.43848 0
M  V30 1394 H 132.55 2.23136 -3.57475 0
M  V30 1395 H 131.274 2.28533 -2.33325 0
M  V30 1396 H 129.933 0.584146 -3.61916 0
M  V30 1397 H 129.581 3.02814 -4.01637 0
M  V30 1398 H 129.281 2.08109 -5.49513 0
M  V30 1399 H 130.805 2.99691 -5.31994 0
M  V30 1400 H 132.219 0.754695 -5.68311 0
M  V30 1401 H 130.616 0.0301468 -6.00092 0
M  V30 1402 H 131.686 -0.710125 -4.79672 0
M  V30 1403 N 133.029 1.57378 -0.0835403 0
M  V30 1404 C 133.939 2.16897 0.894021 0
M  V30 1405 C 134.955 1.13528 1.31861 0
M  V30 1406 O 136.131 1.45848 1.3889 0
M  V30 1407 C 133.196 2.72831 2.13925 0
M  V30 1408 C 132.257 3.91115 1.76997 0
M  V30 1409 C 131.49 4.44371 2.95584 0
M  V30 1410 O 131.713 3.96596 4.09961 0
M  V30 1411 O 130.647 5.35549 2.74719 0
M  V30 1412 H 134.473 3.00814 0.417679 0
M  V30 1413 H 132.058 1.48741 0.140181 0
M  V30 1414 H 133.94 3.0863 2.86924 0
M  V30 1415 H 132.615 1.91967 2.60635 0
M  V30 1416 H 131.522 3.60148 1.01214 0
M  V30 1417 H 132.855 4.73307 1.3506 0
M  V30 1418 N 134.507 -0.190092 1.56449 0
M  V30 1419 C 135.737 -0.92443 1.84764 0
M  V30 1420 C 136.145 -1.77146 0.664529 0
M  V30 1421 O 135.488 -1.79812 -0.375957 0
M  V30 1422 C 135.55 -1.86651 3.07248 0
M  V30 1423 C 135.214 -1.20094 4.40938 0
M  V30 1424 C 136.211 -0.575445 5.16706 0
M  V30 1425 C 133.896 -1.2033 4.87674 0
M  V30 1426 C 135.89 0.0388111 6.37388 0
M  V30 1427 C 133.577 -0.585214 6.08291 0
M  V30 1428 C 134.575 0.0347578 6.82991 0
M  V30 1429 O 134.263 0.643147 8.01323 0
M  V30 1430 H 133.995 -0.274974 0.617548 0
M  V30 1431 H 136.549 -0.200788 2.04416 0
M  V30 1432 H 134.779 -2.62998 2.83494 0
M  V30 1433 H 136.468 -2.46907 3.22167 0
M  V30 1434 H 137.234 -0.565728 4.81689 0
M  V30 1435 H 133.113 -1.67526 4.29484 0
M  V30 1436 H 136.657 0.523329 6.95634 0
M  V30 1437 H 132.554 -0.592451 6.42775 0
M  V30 1438 H 133.322 0.540545 8.16713 0
M  V30 1439 N 135.985 -1.50799 -0.457987 0
M  V30 1440 C 137.21 -1.66496 -1.23668 0
M  V30 1441 C 137.635 -0.353288 -1.84752 0
M  V30 1442 O 136.993 0.684346 -1.67888 0
M  V30 1443 C 137.041 -2.76763 -2.3116 0
M  V30 1444 O 136.145 -2.38928 -3.36136 0
M  V30 1445 H 135.486 -0.555828 -0.363252 0
M  V30 1446 H 138.016 -1.9725 -0.543474 0
M  V30 1447 H 138.026 -3.00232 -2.76269 0
M  V30 1448 H 136.701 -3.71954 -1.86073 0
M  V30 1449 H 135.278 -2.25953 -2.96647 0
M  V30 1450 N 137.463 0.71206 -1.40597 0
M  V30 1451 C 138.411 1.84746 -1.41321 0
M  V30 1452 C 139.405 1.66842 -0.293268 0
M  V30 1453 O 140.611 1.73904 -0.464481 0
M  V30 1454 H 136.986 0.608522 -0.441819 0
M  V30 1455 H 138.957 1.81252 -2.37045 0
M  V30 1456 C 137.706 3.22638 -1.29614 0
M  V30 1457 H 137.029 3.37023 -2.15071 0
M  V30 1458 H 138.469 4.02209 -1.3418 0
M  V30 1459 C 136.928 3.36899 -0.00673121 0
M  V30 1460 O 137.458 3.90186 0.954859 0
M  V30 1461 N 135.664 2.9053 0.0639327 0
M  V30 1462 H 135.211 2.47353 -0.719311 0
M  V30 1463 H 135.169 3.0045 0.926118 0
M  V30 1464 N 138.941 1.26152 0.944643 0
M  V30 1465 C 140.188 1.11492 1.69044 0
M  V30 1466 C 140.516 -0.342366 1.91463 0
M  V30 1467 O 139.771 -1.26812 1.49054 0
M  V30 1468 C 140.07 1.82541 3.07268 0
M  V30 1469 C 139.736 3.32445 3.04616 0
M  V30 1470 C 138.398 3.73337 3.036 0
M  V30 1471 C 140.75 4.28171 2.97185 0
M  V30 1472 C 138.078 5.08348 2.92915 0
M  V30 1473 C 140.43 5.63218 2.88041 0
M  V30 1474 C 139.094 6.03426 2.85366 0
M  V30 1475 H 138.364 0.407977 0.618576 0
M  V30 1476 H 141.011 1.56551 1.10291 0
M  V30 1477 H 139.316 1.29941 3.69625 0
M  V30 1478 H 141.013 1.68642 3.63815 0
M  V30 1479 H 137.603 2.99915 3.06185 0
M  V30 1480 H 141.787 3.97563 2.97081 0
M  V30 1481 H 137.043 5.38667 2.89219 0
M  V30 1482 H 141.217 6.37078 2.81254 0
M  V30 1483 H 138.844 7.07999 2.76842 0
M  V30 1484 N 140.419 -1.14872 1.07899 0
M  V30 1485 C 141.644 -1.90202 0.826926 0
M  V30 1486 C 142.069 -1.77774 -0.614664 0
M  V30 1487 O 141.427 -1.11431 -1.43013 0
M  V30 1488 C 141.475 -3.38352 1.24702 0
M  V30 1489 O 140.579 -4.10497 0.39575 0
M  V30 1490 H 139.92 -0.591968 0.300782 0
M  V30 1491 H 142.45 -1.45437 1.43907 0
M  V30 1492 H 142.46 -3.89156 1.22563 0
M  V30 1493 H 141.135 -3.46715 2.29698 0
M  V30 1494 H 139.712 -3.69796 0.480117 0
M  V30 1495 N 141.898 -0.863906 -1.31812 0
M  V30 1496 C 143.147 -0.46801 -1.96195 0
M  V30 1497 C 143.46 0.983474 -1.69077 0
M  V30 1498 O 144.666 1.48523 -2.27273 0
M  V30 1499 C 143.122 -0.785995 -3.51212 0
M  V30 1500 C 142.73 -2.25383 -3.87178 0
M  V30 1501 C 144.474 -0.458274 -4.22019 0
M  V30 1502 C 142.381 -2.51455 -5.3528 0
M  V30 1503 H 141.311 -0.171283 -0.734287 0
M  V30 1504 H 143.962 -1.05597 -1.50072 0
M  V30 1505 H 142.344 -0.127359 -3.95795 0
M  V30 1506 H 143.518 -2.95502 -3.53575 0
M  V30 1507 H 141.833 -2.54698 -3.2942 0
M  V30 1508 H 144.43 -0.630369 -5.30971 0
M  V30 1509 H 144.773 0.600834 -4.11941 0
M  V30 1510 H 145.306 -1.07319 -3.8305 0
M  V30 1511 H 142.045 -3.56025 -5.50387 0
M  V30 1512 H 141.565 -1.85923 -5.70257 0
M  V30 1513 H 143.244 -2.35874 -6.02472 0
M  V30 1514 N 143.376 1.44774 -0.622745 0
M  V30 1515 C 144.792 1.56986 -0.287652 0
M  V30 1516 C 144.992 1.61167 1.20944 0
M  V30 1517 O 144.048 1.55015 1.99315 0
M  V30 1518 C 145.361 2.84551 -0.972188 0
M  V30 1519 C 146.909 2.9825 -0.949536 0
M  V30 1520 C 147.384 4.28605 -1.61437 0
M  V30 1521 N 148.875 4.35399 -1.58057 0
M  V30 1522 C 149.61 5.34964 -2.064 0
M  V30 1523 N 149.106 6.40981 -2.62897 0
M  V30 1524 N 150.899 5.26419 -1.97078 0
M  V30 1525 H 143.05 1.40304 -1.59463 0
M  V30 1526 H 145.313 0.671794 -0.668878 0
M  V30 1527 H 145.019 2.87417 -2.02693 0
M  V30 1528 H 144.893 3.73807 -0.504771 0
M  V30 1529 H 147.28 2.94941 0.0967067 0
M  V30 1530 H 147.361 2.10364 -1.45536 0
M  V30 1531 H 147.005 4.32672 -2.66002 0
M  V30 1532 H 146.935 5.15334 -1.08344 0
M  V30 1533 H 149.426 3.59397 -1.16801 0
M  V30 1534 H 149.739 7.13225 -2.97539 0
M  V30 1535 H 148.084 6.4169 -2.66943 0
M  V30 1536 H 151.275 4.42504 -1.52669 0
M  V30 1537 H 151.448 6.03861 -2.35066 0
M  V30 1538 N 144.854 0.36279 1.53368 0
M  V30 1539 C 146.084 -0.228281 2.05335 0
M  V30 1540 C 146.492 -1.43226 1.23625 0
M  V30 1541 O 145.835 -1.81717 0.269206 0
M  V30 1542 C 145.897 -0.688549 3.52845 0
M  V30 1543 C 145.561 0.398362 4.5526 0
M  V30 1544 C 146.558 1.24732 5.04716 0
M  V30 1545 C 144.243 0.557805 4.99193 0
M  V30 1546 C 146.237 2.2411 5.96702 0
M  V30 1547 C 143.924 1.55495 5.90986 0
M  V30 1548 C 144.922 2.39503 6.39631 0
M  V30 1549 O 144.61 3.37517 7.29615 0
M  V30 1550 H 144.342 -0.044395 0.674541 0
M  V30 1551 H 146.896 0.518668 1.98744 0
M  V30 1552 H 145.126 -1.48706 3.56964 0
M  V30 1553 H 146.815 -1.20231 3.87685 0
M  V30 1554 H 147.581 1.13532 4.71525 0
M  V30 1555 H 143.46 -0.0862959 4.60919 0
M  V30 1556 H 147.004 2.89718 6.34594 0
M  V30 1557 H 142.901 1.66744 6.23592 0
M  V30 1558 H 143.669 3.33213 7.47604 0
M  V30 1559 O 146.371 -1.59827 0.231878 0
M  V30 1560 H 147.062 -1.90573 -0.346636 0
M  V30 END ATOM
M  V30 BEGIN BOND
M  V30 END BOND
M  V30 END CTAB
M  END
$$$$
