drugbank_target|P14616 Insulin receptor-related protein (DB12010)
 OpenBabel12092121153D

  0  0  0     0  0            999 V3000
M  V30 BEGIN CTAB
M  V30 COUNTS 20042 20294 0 0 0
M  V30 BEGIN ATOM
M  V30 1 H -0.908 1.98254 -0.117106 0
M  V30 2 N 0 1.576 0 0
M  V30 3 C 0.933 2.03868 1.02534 0
M  V30 4 C 1.911 0.928543 1.3348 0
M  V30 5 O 3.095 1.19667 1.45644 0
M  V30 6 C 0.222 2.43627 2.35294 0
M  V30 7 C -0.732 3.65373 2.2001 0
M  V30 8 S 0.101 5.13292 1.52614 0
M  V30 9 C 1.257 5.56322 2.86805 0
M  V30 10 H 1.49 2.90518 0.631377 0
M  V30 11 H -0.977 1.52953 0.210867 0
M  V30 12 H 0.981 2.67203 3.11629 0
M  V30 13 H -0.358 1.57376 2.7183 0
M  V30 14 H -1.165 3.90944 3.18086 0
M  V30 15 H -1.563 3.418 1.51819 0
M  V30 16 H 0.729 5.58782 3.83104 0
M  V30 17 H 1.672 6.56266 2.65933 0
M  V30 18 H 2.08 4.83886 2.90714 0
M  V30 19 N 1.4781 -0.272755 1.55222 0
M  V30 20 C 2.4411 -1.32041 1.87344 0
M  V30 21 C 3.4411 -1.42342 0.74803 0
M  V30 22 O 4.6311 -1.41488 1.0162 0
M  V30 23 C 1.7631 -2.70173 2.07893 0
M  V30 24 H 2.9561 -1.04789 2.80997 0
M  V30 25 H 0.5091 -0.51083 1.47717 0
M  V30 26 H 1.2441 -3.02605 1.16622 0
M  V30 27 H 1.0291 -2.64082 2.89833 0
M  V30 28 H 2.5191 -3.45869 2.34017 0
M  V30 29 N 2.9562 -1.48159 -0.537278 0
M  V30 30 C 4.2022 -1.56035 -1.29541 0
M  V30 31 C 4.5352 -0.230377 -1.92829 0
M  V30 32 O 3.8102 0.762952 -1.78911 0
M  V30 33 C 4.0932 -2.69323 -2.39034 0
M  V30 34 C 3.9462 -4.12002 -1.80485 0
M  V30 35 C 5.2652 -2.78408 -3.40847 0
M  V30 36 H 2.3842 -0.567992 -0.469632 0
M  V30 37 H 5.0262 -1.80302 -0.599277 0
M  V30 38 H 3.1762 -2.48763 -2.98412 0
M  V30 39 H 4.8482 -4.43981 -1.25215 0
M  V30 40 H 3.0912 -4.19344 -1.11055 0
M  V30 41 H 3.7622 -4.87077 -2.59731 0
M  V30 42 H 6.2382 -2.97012 -2.91416 0
M  V30 43 H 5.1142 -3.59416 -4.14863 0
M  V30 44 H 5.3752 -1.86269 -4.00944 0
M  V30 45 N 4.4343 0.785586 -1.36625 0
M  V30 46 C 5.8453 1.36101 -1.27803 0
M  V30 47 C 6.1963 1.96035 0.0804875 0
M  V30 48 O 5.3213 1.92834 0.982042 0
M  V30 49 C 5.9163 2.47442 -2.31426 0
M  V30 50 C 4.4753 3.00789 -2.26281 0
M  V30 51 C 3.6223 1.73896 -2.15999 0
M  V30 52 H 6.5733 0.586928 -1.47448 0
M  V30 53 H 6.5943 3.2656 -1.95291 0
M  V30 54 H 6.1063 2.03791 -3.30289 0
M  V30 55 H 4.2073 3.48851 -1.30896 0
M  V30 56 H 4.3203 3.57343 -3.19128 0
M  V30 57 H 2.6843 1.9628 -1.62316 0
M  V30 58 H 3.4673 1.32368 -3.16755 0
M  V30 59 N 5.9124 1.20967 1.01018 0
M  V30 60 C 7.1374 1.0503 1.78839 0
M  V30 61 C 7.5624 -0.395752 1.8389 0
M  V30 62 O 6.9204 -1.28529 1.27867 0
M  V30 63 C 6.9684 1.64602 3.2084 0
M  V30 64 O 6.0724 0.887988 4.02726 0
M  V30 65 H 5.4134 0.369987 0.551367 0
M  V30 66 H 7.9434 1.60399 1.27018 0
M  V30 67 H 7.9534 1.68607 3.71532 0
M  V30 68 H 6.6284 2.69841 3.16479 0
M  V30 69 H 5.2054 0.922648 3.61305 0
M  V30 70 N 7.3905 -1.2043 1.01659 0
M  V30 71 C 8.3205 -2.25466 0.607226 0
M  V30 72 C 9.3015 -1.65853 -0.377716 0
M  V30 73 O 10.4865 -1.92409 -0.263149 0
M  V30 74 C 7.6165 -3.47256 -0.0552949 0
M  V30 75 C 6.5705 -4.19462 0.850632 0
M  V30 76 C 5.8965 -5.34673 0.0538859 0
M  V30 77 C 7.1965 -4.75603 2.15868 0
M  V30 78 H 8.8905 -2.59962 1.48526 0
M  V30 79 H 6.4365 -1.2496 0.715605 0
M  V30 80 H 8.3895 -4.19917 -0.353233 0
M  V30 81 H 7.1135 -3.11924 -0.968045 0
M  V30 82 H 5.7725 -3.48667 1.13257 0
M  V30 83 H 5.4205 -4.95585 -0.860514 0
M  V30 84 H 5.1205 -5.83913 0.657192 0
M  V30 85 H 6.6445 -6.10138 -0.237598 0
M  V30 86 H 8.0585 -5.40083 1.92311 0
M  V30 87 H 6.4555 -5.3528 2.71284 0
M  V30 88 H 7.5255 -3.94346 2.82169 0
M  V30 89 N 8.8686 -0.792821 -1.36206 0
M  V30 90 C 10.1146 -0.376415 -1.99887 0
M  V30 91 C 10.4696 1.04127 -1.61788 0
M  V30 92 O 9.7626 1.71004 -0.864193 0
M  V30 93 C 9.9566 -0.481501 -3.54142 0
M  V30 94 C 9.7856 -1.90786 -4.07223 0
M  V30 95 C 8.5556 -2.53322 -4.37214 0
M  V30 96 C 10.7536 -2.87048 -4.26741 0
M  V30 97 N 8.7356 -3.8751 -4.7614 0
M  V30 98 C 10.1066 -4.06077 -4.6851 0
M  V30 99 C 12.1616 -2.8406 -4.08918 0
M  V30 100 C 10.8646 -5.22532 -4.94321 0
M  V30 101 C 12.8906 -3.99705 -4.35878 0
M  V30 102 C 12.2526 -5.1748 -4.77906 0
M  V30 103 H 8.3516 -0.185226 -0.759747 0
M  V30 104 H 10.9356 -1.03114 -1.65153 0
M  V30 105 H 9.1066 0.143154 -3.88136 0
M  V30 106 H 10.8386 -0.0410128 -4.04679 0
M  V30 107 H 7.5936 -2.04777 -4.2704 0
M  V30 108 H 8.0176 -4.5656 -4.99882 0
M  V30 109 H 12.6596 -1.94165 -3.75579 0
M  V30 110 H 10.3776 -6.1301 -5.2654 0
M  V30 111 H 13.9636 -3.98758 -4.23655 0
M  V30 112 H 12.8436 -6.05478 -4.98363 0
M  V30 113 N 10.3467 1.47872 -0.545128 0
M  V30 114 C 11.7577 1.86384 -0.108581 0
M  V30 115 C 12.1087 1.45309 1.31832 0
M  V30 116 O 11.2337 0.850641 1.9898 0
M  V30 117 C 11.8287 3.38265 -0.190274 0
M  V30 118 C 10.3877 3.75914 0.191164 0
M  V30 119 C 9.5347 2.71926 -0.543273 0
M  V30 120 H 12.4857 1.39561 -0.755537 0
M  V30 121 H 12.5067 3.75831 0.594217 0
M  V30 122 H 12.0187 3.6813 -1.2289 0
M  V30 123 H 10.1197 3.51665 1.23136 0
M  V30 124 H 10.2327 4.78836 -0.158987 0
M  V30 125 H 8.5967 2.54697 0.0122495 0
M  V30 126 H 9.3797 3.04634 -1.58282 0
M  V30 127 N 11.8248 0.280983 1.55075 0
M  V30 128 C 13.0708 -0.327573 2.00745 0
M  V30 129 C 13.4258 -1.53045 1.16598 0
M  V30 130 O 12.7188 -1.90221 0.229451 0
M  V30 131 C 12.9128 -0.754656 3.49342 0
M  V30 132 C 12.7418 0.40529 4.4787 0
M  V30 133 C 11.5118 0.890947 4.97383 0
M  V30 134 C 13.7098 1.24371 4.99035 0
M  V30 135 N 11.6918 2.01975 5.79724 0
M  V30 136 C 13.0628 2.22031 5.7888 0
M  V30 137 C 15.1178 1.27638 4.81262 0
M  V30 138 C 13.8208 3.22709 6.42846 0
M  V30 139 C 15.8468 2.27164 5.46031 0
M  V30 140 C 15.2088 3.23556 6.25692 0
M  V30 141 H 11.3078 -0.0848774 0.77738 0
M  V30 142 H 13.8918 0.406342 1.90413 0
M  V30 143 H 12.0628 -1.45778 3.60005 0
M  V30 144 H 13.7948 -1.34105 3.81835 0
M  V30 145 H 10.5498 0.469262 4.71269 0
M  V30 146 H 10.9738 2.58794 6.25584 0
M  V30 147 H 15.6158 0.544936 4.19274 0
M  V30 148 H 13.3338 3.96784 7.0398 0
M  V30 149 H 16.9198 2.30441 5.34217 0
M  V30 150 H 15.7998 3.99309 6.74924 0
M  V30 151 N 13.3029 -1.57598 0.00835791 0
M  V30 152 C 14.5509 -1.90551 -0.6734 0
M  V30 153 C 14.8719 -0.883301 -1.73847 0
M  V30 154 O 14.1419 0.0781442 -1.95744 0
M  V30 155 H 12.7219 -0.703312 -0.251717 0
M  V30 156 H 15.3839 -1.94833 0.0512592 0
M  V30 157 H 14.4799 -2.9056 -1.13935 0
M  V30 158 N 14.781 0.264519 -1.55364 0
M  V30 159 C 15.744 1.31046 -1.88042 0
M  V30 160 C 16.744 1.41943 -0.755569 0
M  V30 161 O 17.934 1.40947 -1.02369 0
M  V30 162 C 15.066 2.69067 -2.09323 0
M  V30 163 H 16.259 1.03297 -2.81549 0
M  V30 164 H 13.812 0.502989 -1.47986 0
M  V30 165 H 14.547 3.01982 -1.18226 0
M  V30 166 H 14.332 2.62542 -2.91229 0
M  V30 167 H 15.822 3.44623 -2.35848 0
M  V30 168 N 16.2591 1.48442 0.529413 0
M  V30 169 C 17.4991 1.58086 1.29569 0
M  V30 170 C 17.8631 0.249302 1.90375 0
M  V30 171 O 19.0641 0.220738 2.67892 0
M  V30 172 C 17.3351 2.68793 2.35552 0
M  V30 173 S 18.8941 2.98207 3.21898 0
M  V30 174 H 15.7121 0.557922 0.440732 0
M  V30 175 H 18.3141 1.85966 0.603059 0
M  V30 176 H 17.0181 3.64102 1.89363 0
M  V30 177 H 16.5491 2.42817 3.09522 0
M  V30 178 H 18.5641 2.37548 4.35644 0
M  V30 179 N 17.7372 -0.778329 1.37039 0
M  V30 180 C 18.6672 -1.90546 1.34962 0
M  V30 181 C 19.6482 -1.68681 0.219274 0
M  V30 182 O 20.8332 -1.89634 0.418624 0
M  V30 183 C 17.9632 -3.27734 1.14925 0
M  V30 184 C 16.9172 -3.64147 2.24902 0
M  V30 185 C 16.2432 -4.99806 1.89996 0
M  V30 186 C 17.5432 -3.71579 3.67051 0
M  V30 187 H 19.2372 -1.92541 2.29277 0
M  V30 188 H 16.7832 -0.924948 1.10366 0
M  V30 189 H 18.7362 -4.06215 1.12104 0
M  V30 190 H 17.4602 -3.26154 0.170631 0
M  V30 191 H 16.1192 -2.8797 2.26868 0
M  V30 192 H 15.7672 -4.94759 0.906796 0
M  V30 193 H 15.4672 -5.25139 2.63634 0
M  V30 194 H 16.9912 -5.80694 1.88749 0
M  V30 195 H 18.4052 -4.40227 3.67251 0
M  V30 196 H 16.8022 -4.08405 4.39688 0
M  V30 197 H 17.8722 -2.72404 4.01154 0
M  V30 198 N 19.2153 -1.21501 -1.00376 0
M  V30 199 C 20.6263 -1.03146 -1.55621 0
M  V30 200 C 20.9773 0.408375 -1.91903 0
M  V30 201 O 20.1023 1.29177 -1.73616 0
M  V30 202 C 20.6973 -1.86612 -2.82775 0
M  V30 203 C 19.2563 -1.72586 -3.34501 0
M  V30 204 C 18.4033 -1.83747 -2.07683 0
M  V30 205 H 21.3543 -1.35505 -0.826081 0
M  V30 206 H 21.3753 -1.3771 -3.54706 0
M  V30 207 H 20.8873 -2.91399 -2.56336 0
M  V30 208 H 18.9883 -0.704877 -3.65872 0
M  V30 209 H 19.1013 -2.54623 -4.05837 0
M  V30 210 H 17.4653 -1.27069 -2.20739 0
M  V30 211 H 18.2483 -2.90044 -1.83655 0
M  V30 212 N 20.6934 1.19889 -1.02296 0
M  V30 213 C 21.9394 1.89701 -0.717033 0
M  V30 214 C 22.2724 1.7905 0.751989 0
M  V30 215 O 21.5474 1.17891 1.547 0
M  V30 216 C 21.8304 3.40858 -1.16136 0
M  V30 217 C 21.6834 3.60411 -2.69117 0
M  V30 218 C 23.0024 4.33876 -0.737549 0
M  V30 219 H 20.1214 0.688874 -0.261957 0
M  V30 220 H 22.7634 1.41154 -1.27183 0
M  V30 221 H 20.9134 3.82335 -0.689342 0
M  V30 222 H 22.5854 3.28145 -3.2422 0
M  V30 223 H 20.8284 3.03665 -3.0979 0
M  V30 224 H 21.4994 4.66396 -2.95261 0
M  V30 225 H 23.9754 4.00081 -1.14344 0
M  V30 226 H 22.8514 5.38242 -1.0764 0
M  V30 227 H 23.1124 4.40628 0.360436 0
M  V30 228 N 22.1715 0.800033 1.35784 0
M  V30 229 C 23.4205 0.37387 1.98205 0
M  V30 230 C 23.7335 -1.06302 1.64193 0
M  V30 231 O 24.9395 -1.59198 2.19928 0
M  V30 232 C 23.3955 0.617532 3.54562 0
M  V30 233 C 23.0035 2.06654 3.9749 0
M  V30 234 C 24.7475 0.256401 4.23725 0
M  V30 235 C 22.6545 2.2563 5.46667 0
M  V30 236 H 21.5845 0.136055 0.741623 0
M  V30 237 H 24.2355 0.983166 1.54939 0
M  V30 238 H 22.6175 -0.0616248 3.95952 0
M  V30 239 H 23.7915 2.78296 3.67271 0
M  V30 240 H 22.1065 2.38691 3.41197 0
M  V30 241 H 24.7035 0.376318 5.33374 0
M  V30 242 H 25.0465 -0.796692 4.08606 0
M  V30 243 H 25.5795 0.889214 3.87734 0
M  V30 244 H 22.3185 3.2936 5.66747 0
M  V30 245 H 21.8385 1.58504 5.78478 0
M  V30 246 H 23.5175 2.06861 6.1304 0
M  V30 247 N 23.6496 -1.47581 0.552962 0
M  V30 248 C 24.8966 -2.02482 0.0273243 0
M  V30 249 C 25.2246 -1.42776 -1.32081 0
M  V30 250 O 24.4796 -0.571393 -1.87173 0
M  V30 251 C 24.7786 -3.57199 -0.119728 0
M  V30 252 C 24.4446 -4.35804 1.15697 0
M  V30 253 C 23.1066 -4.57 1.50681 0
M  V30 254 C 25.4586 -4.81167 2.00319 0
M  V30 255 C 22.7866 -5.20807 2.70142 0
M  V30 256 C 25.1386 -5.46293 3.18978 0
M  V30 257 C 23.8026 -5.65722 3.54281 0
M  V30 258 H 23.0726 -0.740933 0.00999866 0
M  V30 259 H 25.7196 -1.77302 0.72362 0
M  V30 260 H 24.0246 -3.81348 -0.89896 0
M  V30 261 H 25.7216 -3.97324 -0.541718 0
M  V30 262 H 22.3116 -4.19582 0.874561 0
M  V30 263 H 26.4956 -4.64574 1.74599 0
M  V30 264 H 21.7516 -5.34045 2.97668 0
M  V30 265 H 25.9256 -5.80407 3.84838 0
M  V30 266 H 23.5526 -6.14936 4.46942 0
M  V30 267 N 25.1277 -0.289203 -1.54924 0
M  V30 268 C 26.0577 0.58549 -2.2604 0
M  V30 269 C 27.0387 1.14753 -1.25562 0
M  V30 270 O 28.2237 1.17906 -1.54311 0
M  V30 271 C 25.3537 1.76305 -2.99222 0
M  V30 272 C 24.3077 1.33191 -4.06748 0
M  V30 273 C 23.6337 2.5937 -4.6758 0
M  V30 274 C 24.9337 0.471775 -5.20165 0
M  V30 275 H 26.6277 -0.00763532 -2.99399 0
M  V30 276 H 24.1737 -0.00511229 -1.43999 0
M  V30 277 H 26.1267 2.38097 -3.47689 0
M  V30 278 H 24.8507 2.38223 -2.23422 0
M  V30 279 H 23.5097 0.737121 -3.59113 0
M  V30 280 H 23.1577 3.19576 -3.88433 0
M  V30 281 H 22.8577 2.31228 -5.40192 0
M  V30 282 H 24.3817 3.21985 -5.18804 0
M  V30 283 H 25.7957 0.995056 -5.64599 0
M  V30 284 H 24.1927 0.284639 -5.99425 0
M  V30 285 H 25.2627 -0.506041 -4.82252 0
M  V30 286 N 26.6058 1.57591 -0.0167156 0
M  V30 287 C 27.8308 1.9598 0.67872 0
M  V30 288 C 28.2558 0.892546 1.65575 0
M  V30 289 O 27.6138 -0.147772 1.80697 0
M  V30 290 C 27.6618 3.33468 1.37227 0
M  V30 291 O 26.7658 3.28954 2.48722 0
M  V30 292 H 26.1068 0.639339 0.17928 0
M  V30 293 H 28.6368 2.04463 -0.0748802 0
M  V30 294 H 28.6468 3.69417 1.7319 0
M  V30 295 H 27.3218 4.10694 0.656007 0
M  V30 296 H 25.8988 3.04705 2.14963 0
M  V30 297 N 28.0839 -0.256276 1.55502 0
M  V30 298 C 29.0139 -1.32102 1.92539 0
M  V30 299 C 29.9949 -1.50684 0.789194 0
M  V30 300 O 31.1799 -1.63449 1.04872 0
M  V30 301 C 28.3099 -2.67752 2.21192 0
M  V30 302 C 27.2639 -2.63878 3.36975 0
M  V30 303 C 26.5899 -4.03236 3.51147 0
M  V30 304 C 27.8899 -2.21682 4.72921 0
M  V30 305 H 29.5839 -1.01351 2.81724 0
M  V30 306 H 27.1299 -0.486105 1.35547 0
M  V30 307 H 29.0829 -3.42365 2.45691 0
M  V30 308 H 27.8069 -3.0012 1.28824 0
M  V30 309 H 26.4659 -1.91722 3.12471 0
M  V30 310 H 26.1139 -4.32854 2.56216 0
M  V30 311 H 25.8139 -4.01535 4.29003 0
M  V30 312 H 27.3379 -4.79563 3.77957 0
M  V30 313 H 28.7519 -2.86023 4.96854 0
M  V30 314 H 27.1489 -2.3111 5.53812 0
M  V30 315 H 28.2189 -1.16833 4.70615 0
M  V30 316 N 29.562 -1.4872 -0.521534 0
M  V30 317 C 30.81 -1.56857 -1.27437 0
M  V30 318 C 31.131 -0.247982 -1.93417 0
M  V30 319 O 30.401 0.731151 -1.81744 0
M  V30 320 H 28.981 -0.577885 -0.473347 0
M  V30 321 H 31.643 -1.85233 -0.606205 0
M  V30 322 H 30.739 -2.35402 -2.0492 0
M  V30 323 N 31.0401 0.771051 -1.3745 0
M  V30 324 C 32.2871 1.52963 -1.32697 0
M  V30 325 C 32.6151 1.94299 0.0883274 0
M  V30 326 O 31.8701 1.64397 1.0617 0
M  V30 327 C 32.1691 2.80676 -2.2126 0
M  V30 328 C 31.8351 2.58389 -3.69521 0
M  V30 329 C 30.4971 2.52019 -4.09927 0
M  V30 330 C 32.8491 2.38469 -4.63446 0
M  V30 331 C 30.1771 2.23721 -5.42371 0
M  V30 332 C 32.5291 2.11694 -5.96128 0
M  V30 333 C 31.1931 2.03769 -6.35637 0
M  V30 334 H 30.4631 0.559732 -0.485573 0
M  V30 335 H 33.1101 0.888083 -1.69662 0
M  V30 336 H 31.4151 3.49392 -1.77291 0
M  V30 337 H 33.1121 3.38557 -2.14895 0
M  V30 338 H 29.7021 2.6421 -3.37478 0
M  V30 339 H 33.8861 2.4238 -4.33089 0
M  V30 340 H 29.1421 2.16081 -5.71943 0
M  V30 341 H 33.3161 1.9528 -6.6846 0
M  V30 342 H 30.9431 1.81606 -7.38189 0
M  V30 343 N 32.5182 1.22032 0.997298 0
M  V30 344 C 33.7662 1.04016 1.73278 0
M  V30 345 C 34.0872 -0.426255 1.90284 0
M  V30 346 O 33.3572 -1.30694 1.45931 0
M  V30 347 H 31.9372 0.381897 0.642 0
M  V30 348 H 34.5992 1.5347 1.20137 0
M  V30 349 H 33.6952 1.51441 2.72896 0
M  V30 350 N 33.9963 -1.19345 1.0293 0
M  V30 351 C 34.9263 -2.2481 0.631105 0
M  V30 352 C 35.9073 -1.66245 -0.360104 0
M  V30 353 O 37.0923 -1.92677 -0.242726 0
M  V30 354 C 34.2223 -3.47295 -0.0184607 0
M  V30 355 C 33.1763 -4.18536 0.895073 0
M  V30 356 C 32.5023 -5.34586 0.110592 0
M  V30 357 C 33.8023 -4.73287 2.209 0
M  V30 358 H 35.4963 -2.58372 1.51275 0
M  V30 359 H 33.0423 -1.24194 0.728818 0
M  V30 360 H 34.9953 -4.20268 -0.308675 0
M  V30 361 H 33.7193 -3.12933 -0.934907 0
M  V30 362 H 32.3783 -3.47446 1.16949 0
M  V30 363 H 32.0263 -4.96469 -0.807902 0
M  V30 364 H 31.7263 -5.83183 0.719087 0
M  V30 365 H 33.2503 -6.10355 -0.172871 0
M  V30 366 H 34.6643 -5.38013 1.98028 0
M  V30 367 H 33.0613 -5.32373 2.76946 0
M  V30 368 H 34.1313 -3.91331 2.86336 0
M  V30 369 N 35.4744 -0.807222 -1.35358 0
M  V30 370 C 36.7514 -0.311126 -1.9311 0
M  V30 371 C 37.1314 1.19937 -1.73719 0
M  V30 372 O 36.4794 1.99918 -1.10657 0
M  V30 373 C 36.6894 -0.723226 -3.41424 0
M  V30 374 C 38.0374 -0.713078 -4.18569 0
M  V30 375 O 39.0614 -0.664811 -3.49941 0
M  V30 376 O 37.9204 -0.772022 -5.41019 0
M  V30 377 H 35.0144 -0.081526 -0.822972 0
M  V30 378 H 37.5604 -0.890962 -1.4443 0
M  V30 379 H 36.3324 -1.76426 -3.4927 0
M  V30 380 H 35.9554 -0.118232 -3.97424 0
M  V30 381 N 36.9525 1.47285 -0.560781 0
M  V30 382 C 38.1805 2.06855 -0.0430262 0
M  V30 383 C 38.5955 1.41291 1.25229 0
M  V30 384 O 37.9525 0.510648 1.7521 0
M  V30 385 C 38.0035 3.61178 0.152518 0
M  V30 386 O 37.7245 4.24285 -1.0915 0
M  V30 387 C 39.2255 4.37624 0.707145 0
M  V30 388 H 36.4455 0.669319 -0.0474652 0
M  V30 389 H 38.9895 1.89237 -0.77521 0
M  V30 390 H 37.1445 3.78298 0.834843 0
M  V30 391 H 37.5585 5.16868 -0.891482 0
M  V30 392 H 39.0325 5.46271 0.793244 0
M  V30 393 H 39.5095 4.04152 1.71923 0
M  V30 394 H 40.1155 4.25257 0.0604027 0
M  V30 395 N 38.4306 0.297415 1.54768 0
M  V30 396 C 39.6766 -0.313376 2.00364 0
M  V30 397 C 40.0096 -1.53815 1.18553 0
M  V30 398 O 39.2846 -1.92739 0.261103 0
M  V30 399 C 39.5676 -0.673525 3.53745 0
M  V30 400 C 39.4206 0.560133 4.46299 0
M  V30 401 C 40.7396 -1.50143 4.13697 0
M  V30 402 H 37.8586 -0.112428 0.728374 0
M  V30 403 H 40.5006 0.4088 1.8555 0
M  V30 404 H 38.6506 -1.28881 3.665 0
M  V30 405 H 40.3226 1.19863 4.45455 0
M  V30 406 H 38.5656 1.19405 4.17043 0
M  V30 407 H 39.2366 0.26405 5.51368 0
M  V30 408 H 41.7126 -0.981588 4.04356 0
M  V30 409 H 40.5886 -1.72221 5.21182 0
M  V30 410 H 40.8496 -2.48952 3.65343 0
M  V30 411 N 39.9087 -1.5758 0.0250728 0
M  V30 412 C 40.8187 -2.1343 -0.973905 0
M  V30 413 C 41.8347 -1.08556 -1.35984 0
M  V30 414 O 43.0107 -1.40592 -1.44207 0
M  V30 415 C 40.0757 -2.64703 -2.23904 0
M  V30 416 C 39.1367 -3.84276 -1.91391 0
M  V30 417 C 38.3697 -4.33095 -3.11873 0
M  V30 418 O 38.5927 -3.81107 -4.24398 0
M  V30 419 O 37.5267 -5.24984 -2.94406 0
M  V30 420 H 41.3527 -2.99057 -0.529036 0
M  V30 421 H 38.9377 -1.48118 -0.195288 0
M  V30 422 H 40.8197 -2.97769 -2.98181 0
M  V30 423 H 39.4947 -1.82161 -2.6758 0
M  V30 424 H 38.4017 -3.56143 -1.14511 0
M  V30 425 H 39.7347 -4.67968 -1.52534 0
M  V30 426 N 41.3868 0.248026 -1.55636 0
M  V30 427 C 42.6328 0.97767 -1.77678 0
M  V30 428 C 42.9658 1.85016 -0.590135 0
M  V30 429 O 42.2408 1.90095 0.411611 0
M  V30 430 C 42.5238 1.83914 -3.09593 0
M  V30 431 C 42.3768 0.99491 -4.38659 0
M  V30 432 C 43.6958 2.82183 -3.37729 0
M  V30 433 H 40.8148 0.354005 -0.646413 0
M  V30 434 H 43.4568 0.248253 -1.88371 0
M  V30 435 H 41.6068 2.46104 -3.00608 0
M  V30 436 H 43.2788 0.391789 -4.59633 0
M  V30 437 H 41.5218 0.299231 -4.32767 0
M  V30 438 H 42.1928 1.63145 -5.2734 0
M  V30 439 H 44.6688 2.30129 -3.4667 0
M  V30 440 H 43.5448 3.39582 -4.31249 0
M  V30 441 H 43.8058 3.58588 -2.58586 0
M  V30 442 N 42.8649 1.48995 0.513639 0
M  V30 443 C 44.1049 1.59452 1.27885 0
M  V30 444 C 44.4689 0.269479 1.90099 0
M  V30 445 O 45.6699 0.249139 2.67643 0
M  V30 446 C 43.9409 2.71277 2.32688 0
M  V30 447 S 45.4999 3.01604 3.18717 0
M  V30 448 H 42.3179 0.562565 0.434789 0
M  V30 449 H 44.9199 1.86595 0.583301 0
M  V30 450 H 43.6239 3.66089 1.8549 0
M  V30 451 H 43.1549 2.46086 3.06929 0
M  V30 452 H 45.1699 2.42155 4.331 0
M  V30 453 N 44.343 -0.763751 1.37857 0
M  V30 454 C 45.754 -1.3405 1.29952 0
M  V30 455 C 46.105 -1.96138 -0.0492898 0
M  V30 456 O 45.23 -1.94372 -0.951239 0
M  V30 457 C 45.825 -2.43729 2.35333 0
M  V30 458 C 44.384 -2.97151 2.31037 0
M  V30 459 C 43.531 -1.70438 2.18738 0
M  V30 460 H 46.482 -0.563396 1.48363 0
M  V30 461 H 46.503 -3.23412 2.00462 0
M  V30 462 H 46.015 -1.9851 3.33489 0
M  V30 463 H 44.116 -3.46724 1.3643 0
M  V30 464 H 44.229 -3.52221 3.24772 0
M  V30 465 H 42.593 -1.93673 1.65418 0
M  V30 466 H 43.376 -1.27312 3.18821 0
M  V30 467 N 45.8211 -1.22559 -0.990812 0
M  V30 468 C 47.0461 -1.07862 -1.77145 0
M  V30 469 C 47.4711 0.366447 -1.84496 0
M  V30 470 O 46.8291 1.26478 -1.29896 0
M  V30 471 C 46.8771 -1.69686 -3.18181 0
M  V30 472 O 45.9811 -0.951946 -4.01263 0
M  V30 473 H 45.3221 -0.378712 -0.545411 0
M  V30 474 H 47.8521 -1.62399 -1.2445 0
M  V30 475 H 47.8621 -1.74496 -3.68802 0
M  V30 476 H 46.5371 -2.74841 -3.12146 0
M  V30 477 H 45.1141 -0.980011 -3.59792 0
M  V30 478 N 47.2992 1.18797 -1.03562 0
M  V30 479 C 48.2292 2.24472 -0.643019 0
M  V30 480 C 49.2102 1.66433 0.351283 0
M  V30 481 O 50.3952 1.92803 0.232505 0
M  V30 482 C 47.5252 3.473 4.24935e-05 0
M  V30 483 C 46.4792 4.18055 -0.917257 0
M  V30 484 C 45.8052 5.34519 -0.138941 0
M  V30 485 C 47.1052 4.72109 -2.23407 0
M  V30 486 H 48.7992 2.57566 -1.52643 0
M  V30 487 H 46.3452 1.23806 -0.735394 0
M  V30 488 H 48.2982 4.20426 0.286383 0
M  V30 489 H 47.0222 3.13424 0.918299 0
M  V30 490 H 45.6812 3.46821 -1.1879 0
M  V30 491 H 45.3292 4.96891 0.781562 0
M  V30 492 H 45.0292 5.82794 -0.750005 0
M  V30 493 H 46.5532 6.10438 0.1405 0
M  V30 494 H 47.9672 5.36955 -2.00879 0
M  V30 495 H 46.3642 5.30897 -2.79765 0
M  V30 496 H 47.4342 3.89807 -2.88407 0
M  V30 497 N 48.7773 0.814389 1.34928 0
M  V30 498 C 50.0543 0.321363 1.92942 0
M  V30 499 C 50.4343 -1.19014 1.74353 0
M  V30 500 O 49.7823 -1.99328 1.11716 0
M  V30 501 C 49.9923 0.741323 3.41036 0
M  V30 502 C 51.3403 0.735266 4.18185 0
M  V30 503 O 52.3643 0.68336 3.49584 0
M  V30 504 O 51.2233 0.800703 5.40602 0
M  V30 505 H 48.3173 0.0858893 0.822528 0
M  V30 506 H 50.8633 0.898609 1.43955 0
M  V30 507 H 49.6353 1.78276 3.4833 0
M  V30 508 H 49.2583 0.139307 3.97356 0
M  V30 509 N 50.2554 -1.46986 0.568584 0
M  V30 510 C 51.5044 -2.01646 0.0465894 0
M  V30 511 C 51.8174 -1.44721 -1.31587 0
M  V30 512 O 53.0234 -1.91113 -1.92842 0
M  V30 513 C 51.4794 -3.59885 0.032752 0
M  V30 514 C 51.0874 -4.25804 1.39266 0
M  V30 515 C 52.8314 -4.22255 -0.436038 0
M  V30 516 C 50.7384 -5.76081 1.33732 0
M  V30 517 H 49.6684 -0.753876 0.013647 0
M  V30 518 H 52.3194 -1.68864 0.718131 0
M  V30 519 H 50.7014 -3.8968 -0.704669 0
M  V30 520 H 51.8754 -4.07637 2.1487 0
M  V30 521 H 50.1904 -3.7547 1.80032 0
M  V30 522 H 52.7874 -5.32394 -0.49602 0
M  V30 523 H 53.1304 -3.90212 -1.45053 0
M  V30 524 H 53.6634 -3.97033 0.246877 0
M  V30 525 H 50.4024 -6.12761 2.32817 0
M  V30 526 H 49.9224 -5.96553 0.623267 0
M  V30 527 H 51.6014 -6.38518 1.0442 0
M  V30 528 N 51.7335 -0.305618 -1.54608 0
M  V30 529 C 53.1495 0.0476228 -1.59529 0
M  V30 530 C 53.3495 1.52025 -1.32252 0
M  V30 531 O 52.4055 2.27368 -1.09818 0
M  V30 532 C 53.7185 -0.354471 -2.98603 0
M  V30 533 C 55.2665 -0.303622 -3.11524 0
M  V30 534 C 55.7415 -0.680608 -4.52915 0
M  V30 535 N 57.2325 -0.63332 -4.5885 0
M  V30 536 C 57.9675 -0.897432 -5.66334 0
M  V30 537 N 57.4635 -1.22775 -6.81834 0
M  V30 538 N 59.2565 -0.824186 -5.56025 0
M  V30 539 H 51.4075 -1.2653 -1.70599 0
M  V30 540 H 53.6705 -0.513291 -0.797017 0
M  V30 541 H 53.3765 -1.3798 -3.23503 0
M  V30 542 H 53.2505 0.289568 -3.76087 0
M  V30 543 H 55.6375 0.712472 -2.8637 0
M  V30 544 H 55.7185 -0.982348 -2.36185 0
M  V30 545 H 55.3625 -1.69453 -4.78799 0
M  V30 546 H 55.2925 0.0202385 -5.26596 0
M  V30 547 H 57.7835 -0.389138 -3.75891 0
M  V30 548 H 58.0965 -1.41513 -7.59733 0
M  V30 549 H 56.4415 -1.26583 -6.83375 0
M  V30 550 H 59.6325 -0.565748 -4.64669 0
M  V30 551 H 59.8055 -1.03338 -6.39707 0
M  V30 552 N 53.2116 1.57565 -0.0334293 0
M  V30 553 C 54.4366 1.96689 0.657895 0
M  V30 554 C 54.8616 0.910057 1.64619 0
M  V30 555 O 54.2196 -0.128598 1.80843 0
M  V30 556 C 54.2676 3.34905 1.33683 0
M  V30 557 O 53.3716 3.31574 2.45219 0
M  V30 558 H 52.7126 0.641205 0.172489 0
M  V30 559 H 55.2426 2.04372 -0.0965621 0
M  V30 560 H 55.2526 3.71234 1.69262 0
M  V30 561 H 53.9276 4.11366 0.612411 0
M  V30 562 H 52.5046 3.06968 2.11719 0
M  V30 563 N 54.6897 -0.239769 1.55765 0
M  V30 564 C 55.5997 -1.31831 1.94056 0
M  V30 565 C 56.6157 -1.52275 0.841925 0
M  V30 566 O 57.7917 -1.65759 1.14394 0
M  V30 567 C 54.8567 -2.65156 2.23368 0
M  V30 568 C 53.9177 -2.53173 3.46701 0
M  V30 569 C 53.1507 -3.8014 3.74606 0
M  V30 570 O 53.3737 -4.82343 3.04469 0
M  V30 571 O 52.3077 -3.78344 4.68123 0
M  V30 572 H 56.1337 -1.02347 2.85935 0
M  V30 573 H 53.7187 -0.441123 1.42739 0
M  V30 574 H 55.6007 -3.43929 2.43497 0
M  V30 575 H 54.2757 -2.94358 1.34666 0
M  V30 576 H 53.1827 -1.72662 3.31871 0
M  V30 577 H 54.5157 -2.28915 4.35728 0
M  V30 578 N 56.1678 -1.49265 -0.50573 0
M  V30 579 C 57.4138 -1.58748 -1.26202 0
M  V30 580 C 57.7468 -0.271227 -1.92297 0
M  V30 581 O 57.0218 0.724831 -1.80489 0
M  V30 582 C 57.3048 -2.74332 -2.33268 0
M  V30 583 C 57.1578 -4.15737 -1.71705 0
M  V30 584 C 58.4768 -2.85576 -3.34865 0
M  V30 585 H 55.5958 -0.577826 -0.457478 0
M  V30 586 H 58.2378 -1.81532 -0.560897 0
M  V30 587 H 56.3878 -2.55036 -2.93068 0
M  V30 588 H 58.0598 -4.46537 -1.15769 0
M  V30 589 H 56.3028 -4.21605 -1.02135 0
M  V30 590 H 56.9738 -4.92477 -2.49341 0
M  V30 591 H 59.4498 -3.03127 -2.8505 0
M  V30 592 H 58.3258 -3.68135 -4.07146 0
M  V30 593 H 58.5868 -1.94732 -3.96903 0
M  V30 594 N 57.6459 0.756429 -1.3826 0
M  V30 595 C 58.6089 1.85176 -1.35065 0
M  V30 596 C 59.6089 1.58818 -0.251703 0
M  V30 597 O 60.7989 1.66615 -0.508433 0
M  V30 598 C 57.9309 3.22596 -1.10201 0
M  V30 599 H 59.1239 1.89417 -2.3251 0
M  V30 600 H 56.6769 0.95783 -1.23512 0
M  V30 601 H 57.4119 3.24025 -0.133504 0
M  V30 602 H 57.1969 3.43122 -1.89762 0
M  V30 603 H 58.6869 4.02673 -1.10654 0
M  V30 604 N 59.124 1.23083 0.984299 0
M  V30 605 C 60.034 1.02515 2.11016 0
M  V30 606 C 61.05 -0.0291702 1.73976 0
M  V30 607 O 62.226 0.165434 2.00719 0
M  V30 608 C 59.291 0.614673 3.41208 0
M  V30 609 C 58.352 1.74359 3.92297 0
M  V30 610 C 57.585 1.35261 5.16275 0
M  V30 611 O 57.808 0.235136 5.69915 0
M  V30 612 O 56.742 2.17227 5.61334 0
M  V30 613 H 60.568 1.96862 2.31255 0
M  V30 614 H 58.153 1.01753 1.09392 0
M  V30 615 H 60.035 0.396518 4.1953 0
M  V30 616 H 58.71 -0.299851 3.22308 0
M  V30 617 H 57.617 2.01635 3.1511 0
M  V30 618 H 58.95 2.63629 4.15645 0
M  V30 619 N 60.6021 -1.18246 1.0419 0
M  V30 620 C 61.5321 -2.24127 0.654914 0
M  V30 621 C 62.5131 -1.66617 -0.342451 0
M  V30 622 O 63.6981 -1.92924 -0.222277 0
M  V30 623 C 60.8281 -3.47295 0.0183757 0
M  V30 624 C 59.7821 -4.17563 0.939414 0
M  V30 625 C 59.1081 -5.34438 0.167286 0
M  V30 626 C 60.4081 -4.70917 2.25908 0
M  V30 627 H 62.1021 -2.56753 1.54007 0
M  V30 628 H 59.6481 -1.23414 0.74195 0
M  V30 629 H 61.6011 -4.20572 -0.264082 0
M  V30 630 H 60.3251 -3.13907 -0.901664 0
M  V30 631 H 58.9841 -3.46186 1.20628 0
M  V30 632 H 58.6321 -4.97298 -0.7552 0
M  V30 633 H 58.3321 -5.82388 0.780901 0
M  V30 634 H 59.8561 -6.10504 -0.108125 0
M  V30 635 H 61.2701 -5.35882 2.03724 0
M  V30 636 H 59.6671 -5.29406 2.82577 0
M  V30 637 H 60.7371 -3.88272 2.9047 0
M  V30 638 N 62.0802 -0.821533 -1.34494 0
M  V30 639 C 63.4962 -0.507117 -1.51329 0
M  V30 640 C 63.6962 0.968964 -1.76673 0
M  V30 641 O 62.7522 1.75348 -1.81685 0
M  V30 642 C 64.0652 -1.36544 -2.67911 0
M  V30 643 C 65.6132 -1.36242 -2.81793 0
M  V30 644 C 66.0882 -2.2052 -4.01416 0
M  V30 645 N 67.5792 -2.18136 -4.08621 0
M  V30 646 C 68.3142 -2.80095 -5.00334 0
M  V30 647 N 67.8102 -3.51039 -5.9728 0
M  V30 648 N 69.6032 -2.69656 -4.93196 0
M  V30 649 H 61.7542 -1.77729 -1.16302 0
M  V30 650 H 64.0172 -0.757291 -0.570276 0
M  V30 651 H 63.7232 -2.41361 -2.55808 0
M  V30 652 H 63.5972 -1.02917 -3.62888 0
M  V30 653 H 65.9842 -0.322041 -2.93338 0
M  V30 654 H 66.0652 -1.73866 -1.87628 0
M  V30 655 H 65.7092 -3.24607 -3.90631 0
M  V30 656 H 65.6392 -1.80247 -4.94791 0
M  V30 657 H 68.1302 -1.6653 -3.39229 0
M  V30 658 H 68.4432 -3.95565 -6.63889 0
M  V30 659 H 66.7882 -3.55145 -5.97409 0
M  V30 660 H 69.9792 -2.13808 -4.16418 0
M  V30 661 H 70.1522 -3.1823 -5.64476 0
M  V30 662 N 63.5583 1.46682 -0.576371 0
M  V30 663 C 64.4903 2.28341 0.198231 0
M  V30 664 C 65.5033 1.38141 0.861453 0
M  V30 665 O 66.6923 1.62797 0.732082 0
M  V30 666 C 63.7923 3.12986 1.29972 0
M  V30 667 C 62.9653 4.31271 0.729639 0
M  V30 668 C 62.0243 4.97363 1.71803 0
M  V30 669 O 61.0503 5.55156 1.25658 0
M  V30 670 N 62.2523 4.93796 3.05198 0
M  V30 671 H 65.0173 2.9546 -0.502324 0
M  V30 672 H 62.5783 1.56525 -0.413715 0
M  V30 673 H 64.5703 3.54066 1.96008 0
M  V30 674 H 63.1403 2.47984 1.90323 0
M  V30 675 H 62.3603 3.94052 -0.108012 0
M  V30 676 H 63.6483 5.07739 0.328438 0
M  V30 677 H 63.0463 4.48077 3.45317 0
M  V30 678 H 61.6033 5.38837 3.6674 0
M  V30 679 N 65.0364 0.313813 1.54444 0
M  V30 680 C 65.9664 -0.549454 2.26943 0
M  V30 681 C 66.9474 -1.12741 1.27372 0
M  V30 682 O 68.1324 -1.15436 1.56167 0
M  V30 683 C 65.2624 -1.71523 3.01989 0
M  V30 684 C 64.2164 -1.26703 4.08816 0
M  V30 685 C 63.5424 -2.51898 4.71647 0
M  V30 686 C 64.8424 -0.388962 5.2085 0
M  V30 687 H 66.5364 0.0552661 2.99349 0
M  V30 688 H 64.0824 0.0280207 1.43973 0
M  V30 689 H 66.0354 -2.32535 3.51433 0
M  V30 690 H 64.7594 -2.34639 2.27183 0
M  V30 691 H 63.4184 -0.679896 3.6024 0
M  V30 692 H 63.0664 -3.13356 3.93468 0
M  V30 693 H 62.7664 -2.22605 5.43802 0
M  V30 694 H 64.2904 -3.1369 5.23861 0
M  V30 695 H 65.7044 -0.905107 5.6611 0
M  V30 696 H 64.1014 -0.18924 5.99802 0
M  V30 697 H 65.1714 0.582699 4.81386 0
M  V30 698 N 66.5145 -1.57545 0.0417849 0
M  V30 699 C 67.4245 -2.14451 -0.951213 0
M  V30 700 C 68.4405 -1.09992 -1.34825 0
M  V30 701 O 69.6165 -1.42114 -1.42708 0
M  V30 702 C 66.6815 -2.67063 -2.21084 0
M  V30 703 C 65.7425 -3.86284 -1.87304 0
M  V30 704 C 64.9755 -4.36378 -3.07261 0
M  V30 705 O 65.1985 -3.85587 -4.20332 0
M  V30 706 O 64.1325 -5.28077 -2.88822 0
M  V30 707 H 67.9585 -2.99601 -0.497287 0
M  V30 708 H 65.5435 -1.48317 -0.179567 0
M  V30 709 H 67.4255 -3.00914 -2.95006 0
M  V30 710 H 66.1005 -1.84989 -2.65633 0
M  V30 711 H 65.0075 -3.57338 -1.10727 0
M  V30 712 H 66.3405 -4.6956 -1.47562 0
M  V30 713 N 67.9926 0.231505 -1.5589 0
M  V30 714 C 68.9406 1.30649 -1.92441 0
M  V30 715 C 69.9346 1.49037 -0.805254 0
M  V30 716 O 71.1406 1.50329 -0.990007 0
M  V30 717 H 67.5156 0.437812 -0.611412 0
M  V30 718 H 69.4866 0.970973 -2.82161 0
M  V30 719 C 68.2356 2.65179 -2.24889 0
M  V30 720 H 67.5586 2.51835 -3.10514 0
M  V30 721 H 68.9986 3.39234 -2.54355 0
M  V30 722 C 67.4576 3.19439 -1.07054 0
M  V30 723 O 67.9876 4.00371 -0.326499 0
M  V30 724 N 66.1936 2.77675 -0.85703 0
M  V30 725 H 65.7406 2.11969 -1.46379 0
M  V30 726 H 65.6986 3.14321 -0.0703223 0
M  V30 727 N 69.4707 1.49531 0.497807 0
M  V30 728 C 70.7107 1.60799 1.26187 0
M  V30 729 C 71.0747 0.289627 1.89803 0
M  V30 730 O 72.2757 0.277512 2.67364 0
M  V30 731 C 70.5467 2.73729 2.29798 0
M  V30 732 S 72.1057 3.04968 3.155 0
M  V30 733 H 68.9237 0.567145 0.428798 0
M  V30 734 H 71.5257 1.87204 0.563477 0
M  V30 735 H 70.2297 3.68036 1.81597 0
M  V30 736 H 69.7607 2.49328 3.04301 0
M  V30 737 H 71.7757 2.46735 4.30507 0
M  V30 738 N 70.9488 -0.749086 1.3866 0
M  V30 739 C 72.1738 -1.54344 1.38538 0
M  V30 740 C 72.5988 -1.88088 -0.0216655 0
M  V30 741 O 71.9568 -1.50899 -1.00494 0
M  V30 742 C 72.0048 -2.8164 2.25192 0
M  V30 743 O 71.1088 -3.7698 1.67212 0
M  V30 744 H 70.4498 -0.466654 0.472367 0
M  V30 745 H 72.9798 -0.925355 1.82478 0
M  V30 746 H 72.9898 -3.30519 2.3921 0
M  V30 747 H 71.6648 -2.56411 3.27454 0
M  V30 748 H 70.2418 -3.35699 1.6236 0
M  V30 749 N 72.4269 -1.23603 -0.977757 0
M  V30 750 C 73.6729 -1.07129 -1.72195 0
M  V30 751 C 74.0059 0.390501 -1.90233 0
M  V30 752 O 73.2809 1.28902 -1.45653 0
M  V30 753 C 73.5639 -1.80031 -3.11867 0
M  V30 754 C 73.4169 -3.33899 -3.01383 0
M  V30 755 C 74.7359 -1.56492 -4.11337 0
M  V30 756 H 71.8549 -0.390571 -0.624999 0
M  V30 757 H 74.4969 -1.52142 -1.13811 0
M  V30 758 H 72.6469 -1.41768 -3.6171 0
M  V30 759 H 74.3189 -3.81699 -2.59043 0
M  V30 760 H 72.5619 -3.62796 -2.37827 0
M  V30 761 H 73.2329 -3.801 -4.00285 0
M  V30 762 H 75.7089 -1.89757 -3.70313 0
M  V30 763 H 74.5849 -2.09973 -5.07151 0
M  V30 764 H 74.8459 -0.500874 -4.39254 0
M  V30 765 N 73.905 1.17692 -1.04816 0
M  V30 766 C 75.151 1.88137 -0.75711 0
M  V30 767 C 75.484 1.80604 0.713841 0
M  V30 768 O 74.759 1.21146 1.52164 0
M  V30 769 C 75.042 3.38318 -1.2334 0
M  V30 770 C 74.895 3.54622 -2.76701 0
M  V30 771 C 76.214 4.32214 -0.829415 0
M  V30 772 H 73.333 0.683163 -0.27651 0
M  V30 773 H 75.975 1.38424 -1.30149 0
M  V30 774 H 74.125 3.80787 -0.770286 0
M  V30 775 H 75.797 3.21194 -3.31107 0
M  V30 776 H 74.04 2.97026 -3.16161 0
M  V30 777 H 74.711 4.60028 -3.05088 0
M  V30 778 H 77.187 3.97565 -1.22805 0
M  V30 779 H 76.063 5.35838 -1.19033 0
M  V30 780 H 76.324 4.41294 0.266891 0
M  V30 781 N 75.3831 0.828654 1.34056 0
M  V30 782 C 76.2931 0.256725 2.33191 0
M  V30 783 C 77.3091 -0.611898 1.62886 0
M  V30 784 O 78.4851 -0.51844 1.94613 0
M  V30 785 C 75.5501 -0.567238 3.42028 0
M  V30 786 C 74.6111 0.324458 4.28072 0
M  V30 787 C 73.8441 -0.460274 5.31712 0
M  V30 788 O 74.0671 -1.693 5.44696 0
M  V30 789 O 73.0011 0.160391 6.01686 0
M  V30 790 H 76.8271 1.07739 2.83947 0
M  V30 791 H 74.4121 0.59093 1.37217 0
M  V30 792 H 76.2941 -1.03582 4.08471 0
M  V30 793 H 74.9691 -1.36513 2.93506 0
M  V30 794 H 73.8761 0.840659 3.64532 0
M  V30 795 H 75.2091 1.08685 4.8005 0
M  V30 796 N 76.8612 -1.46375 0.584142 0
M  V30 797 C 78.1092 -2.01978 0.0701287 0
M  V30 798 C 78.4302 -1.4579 -1.295 0
M  V30 799 O 77.7002 -0.64314 -1.85042 0
M  V30 800 H 76.2802 -0.746648 0.0229345 0
M  V30 801 H 78.9422 -1.79461 0.760245 0
M  V30 802 H 78.0382 -3.121 0.0022064 0
M  V30 803 N 78.3393 -0.321999 -1.54275 0
M  V30 804 C 79.2893 0.560185 -2.21011 0
M  V30 805 C 80.2733 1.08283 -1.19011 0
M  V30 806 O 81.4653 1.02011 -1.44647 0
M  V30 807 C 78.5943 1.72137 -2.97025 0
M  V30 808 C 77.6803 1.21369 -4.06363 0
M  V30 809 N 78.0713 0.425566 -5.04007 0
M  V30 810 C 76.3693 1.49255 -4.20284 0
M  V30 811 C 77.0703 0.152601 -5.815 0
M  V30 812 N 76.0463 0.738294 -5.38563 0
M  V30 813 H 79.8483 -0.049265 -2.93859 0
M  V30 814 H 77.3623 -0.127779 -1.61897 0
M  V30 815 H 79.3593 2.36512 -3.43319 0
M  V30 816 H 78.0193 2.33431 -2.25699 0
M  V30 817 H 79.0303 0.068551 -5.17855 0
M  V30 818 H 75.7073 2.11145 -3.60172 0
M  V30 819 H 77.0973 -0.481764 -6.70171 0
M  V30 820 N 79.8174 1.5752 -0.0501392 0
M  V30 821 C 80.7474 2.14502 0.922566 0
M  V30 822 C 81.7284 1.06642 1.3252 0
M  V30 823 O 82.9134 1.34577 1.4001 0
M  V30 824 C 80.0434 2.68916 2.19776 0
M  V30 825 C 78.9974 3.8175 1.93523 0
M  V30 826 C 78.3234 4.22677 3.27487 0
M  V30 827 C 79.6234 5.06932 1.25765 0
M  V30 828 H 81.3174 2.9603 0.447952 0
M  V30 829 H 78.8634 1.42401 0.214024 0
M  V30 830 H 80.8164 3.07419 2.88222 0
M  V30 831 H 79.5404 1.84578 2.69441 0
M  V30 832 H 78.1994 3.43718 1.27489 0
M  V30 833 H 77.8474 3.35291 3.74952 0
M  V30 834 H 77.5474 4.98725 3.1072 0
M  V30 835 H 79.0714 4.63779 3.97166 0
M  V30 836 H 80.4854 5.42888 1.84244 0
M  V30 837 H 78.8824 5.88116 1.19328 0
M  V30 838 H 79.9524 4.84337 0.233536 0
M  V30 839 N 81.2955 -0.223234 1.56011 0
M  V30 840 C 82.2275 -1.30006 1.88762 0
M  V30 841 C 83.2405 -1.43129 0.775746 0
M  V30 842 O 84.4295 -1.44057 1.05403 0
M  V30 843 C 81.5295 -2.67589 2.07965 0
M  V30 844 C 80.7025 -2.76434 3.38973 0
M  V30 845 C 79.7615 -3.95019 3.47629 0
M  V30 846 O 78.7875 -3.83436 4.20672 0
M  V30 847 N 79.9895 -5.09249 2.78649 0
M  V30 848 H 82.7545 -1.02238 2.81722 0
M  V30 849 H 80.3155 -0.413278 1.56536 0
M  V30 850 H 82.3075 -3.45297 2.11073 0
M  V30 851 H 80.8775 -2.87964 1.21638 0
M  V30 852 H 80.0975 -1.85216 3.47978 0
M  V30 853 H 81.3855 -2.79313 4.25278 0
M  V30 854 H 80.7835 -5.21556 2.19081 0
M  V30 855 H 79.3405 -5.85007 2.8742 0
M  V30 856 N 82.7736 -1.49793 -0.48987 0
M  V30 857 C 84.0226 -1.59085 -1.23995 0
M  V30 858 C 84.3356 -0.287907 -1.9347 0
M  V30 859 O 85.5416 -0.259506 -2.70257 0
M  V30 860 C 83.9976 -2.80736 -2.252 0
M  V30 861 C 83.6056 -4.17833 -1.61614 0
M  V30 862 C 85.3496 -2.99364 -3.00967 0
M  V30 863 C 83.2566 -5.30693 -2.60996 0
M  V30 864 H 82.1866 -0.592372 -0.466488 0
M  V30 865 H 84.8376 -1.76197 -0.51252 0
M  V30 866 H 83.2196 -2.57142 -3.01154 0
M  V30 867 H 84.3936 -4.51608 -0.915774 0
M  V30 868 H 82.7086 -4.04656 -0.981977 0
M  V30 869 H 85.3056 -3.80851 -3.75308 0
M  V30 870 H 85.6486 -2.10356 -3.59244 0
M  V30 871 H 86.1816 -3.2305 -2.32128 0
M  V30 872 H 82.9206 -6.21796 -2.07485 0
M  V30 873 H 82.4406 -5.01359 -3.2924 0
M  V30 874 H 84.1196 -5.6049 -3.23202 0
M  V30 875 N 84.2517 0.741722 -1.39055 0
M  V30 876 C 85.1817 1.869 -1.39966 0
M  V30 877 C 86.1627 1.6804 -0.26392 0
M  V30 878 O 87.3477 1.88458 -0.468755 0
M  V30 879 C 84.4777 3.24572 -1.23574 0
M  V30 880 C 83.4317 3.58056 -2.34477 0
M  V30 881 C 82.7577 4.94593 -2.0318 0
M  V30 882 C 84.0577 3.61716 -3.76774 0
M  V30 883 H 85.7517 1.86395 -2.34302 0
M  V30 884 H 83.2977 0.895361 -1.1278 0
M  V30 885 H 85.2507 4.031 -1.22834 0
M  V30 886 H 83.9747 3.25587 -0.257045 0
M  V30 887 H 82.6337 2.81854 -2.34423 0
M  V30 888 H 82.2817 4.92181 -1.03765 0
M  V30 889 H 81.9817 5.17964 -2.77465 0
M  V30 890 H 83.5057 5.75486 -2.04079 0
M  V30 891 H 84.9197 4.30335 -3.78794 0
M  V30 892 H 83.3167 3.96603 -4.50362 0
M  V30 893 H 84.3867 2.61672 -4.08235 0
M  V30 894 N 85.7298 1.2412 0.971189 0
M  V30 895 C 86.6598 1.05508 2.08304 0
M  V30 896 C 87.6408 -0.0308864 1.70072 0
M  V30 897 O 88.8258 0.135521 1.93727 0
M  V30 898 C 85.9558 0.655365 3.4106 0
M  V30 899 C 84.9098 1.68971 3.93234 0
M  V30 900 C 84.2358 1.14516 5.22293 0
M  V30 901 C 85.5358 3.08487 4.21465 0
M  V30 902 H 87.2298 1.98507 2.24132 0
M  V30 903 H 84.7758 0.955821 1.07704 0
M  V30 904 H 86.7288 0.51217 4.18276 0
M  V30 905 H 85.4528 -0.31032 3.25122 0
M  V30 906 H 84.1118 1.82106 3.18171 0
M  V30 907 H 83.7598 0.170189 5.02712 0
M  V30 908 H 83.4598 1.83635 5.58168 0
M  V30 909 H 84.9838 1.01401 6.02121 0
M  V30 910 H 86.3978 2.98601 4.89398 0
M  V30 911 H 84.7948 3.74926 4.68562 0
M  V30 912 H 85.8648 3.56787 3.28376 0
M  V30 913 N 87.2079 -1.17134 1.05439 0
M  V30 914 C 88.1409 -2.2012 0.601855 0
M  V30 915 C 89.1189 -1.58314 -0.370854 0
M  V30 916 O 90.3029 -1.8638 -0.281882 0
M  V30 917 C 87.4299 -3.38491 -0.118868 0
M  V30 918 C 86.4759 -4.18752 0.809242 0
M  V30 919 S 87.3089 -4.83602 2.29977 0
M  V30 920 C 88.4649 -6.0536 1.59029 0
M  V30 921 H 88.6979 -2.58165 1.47438 0
M  V30 922 H 86.2309 -1.27788 0.866573 0
M  V30 923 H 88.1889 -4.07084 -0.528495 0
M  V30 924 H 86.8499 -2.98829 -0.967465 0
M  V30 925 H 86.0429 -5.03373 0.251379 0
M  V30 926 H 85.6449 -3.5561 1.15835 0
M  V30 927 H 87.9369 -6.71615 0.891017 0
M  V30 928 H 88.8799 -6.65679 2.41407 0
M  V30 929 H 89.2879 -5.54138 1.07663 0
M  V30 930 N 88.686 -0.835752 -1.33615 0
M  V30 931 C 89.933 -0.429959 -1.97883 0
M  V30 932 C 90.261 1.01006 -1.66217 0
M  V30 933 O 89.516 1.72047 -0.93265 0
M  V30 934 C 89.815 -0.593925 -3.52431 0
M  V30 935 C 89.481 -2.00158 -4.04039 0
M  V30 936 C 88.143 -2.38662 -4.17844 0
M  V30 937 C 90.495 -2.92117 -4.31644 0
M  V30 938 C 87.823 -3.68435 -4.56588 0
M  V30 939 C 90.175 -4.21368 -4.71838 0
M  V30 940 C 88.839 -4.59833 -4.83849 0
M  V30 941 H 88.109 -0.157333 -0.724104 0
M  V30 942 H 90.756 -1.06217 -1.59343 0
M  V30 943 H 89.061 0.121619 -3.91611 0
M  V30 944 H 90.758 -0.260282 -4.00154 0
M  V30 945 H 87.348 -1.69252 -3.93766 0
M  V30 946 H 91.532 -2.63608 -4.20505 0
M  V30 947 H 86.788 -3.98046 -4.64079 0
M  V30 948 H 90.962 -4.92703 -4.92155 0
M  V30 949 H 88.589 -5.60438 -5.13627 0
M  V30 950 N 90.1641 1.46063 -0.591896 0
M  V30 951 C 91.3921 2.06717 -0.0868936 0
M  V30 952 C 91.8071 1.43916 1.22203 0
M  V30 953 O 91.1641 0.547698 1.74088 0
M  V30 954 C 91.2151 3.6142 0.0758725 0
M  V30 955 O 90.9361 4.21874 -1.18126 0
M  V30 956 C 92.4371 4.39025 0.61416 0
M  V30 957 H 89.6571 0.668162 -0.0616518 0
M  V30 958 H 92.2011 1.8755 -0.815175 0
M  V30 959 H 90.3561 3.79983 0.754413 0
M  V30 960 H 90.7701 5.14861 -1.00092 0
M  V30 961 H 92.2441 5.4783 0.677193 0
M  V30 962 H 92.7211 4.07708 1.63312 0
M  V30 963 H 93.3271 4.2529 -0.0298142 0
M  V30 964 N 91.6422 0.330177 1.54103 0
M  V30 965 C 92.6052 -0.520144 2.2322 0
M  V30 966 C 93.6052 -1.03828 1.22786 0
M  V30 967 O 94.7952 -0.929652 1.4732 0
M  V30 968 C 91.9272 -1.72317 2.94142 0
M  V30 969 H 93.1202 0.0841605 2.99782 0
M  V30 970 H 90.6732 0.0813433 1.56088 0
M  V30 971 H 91.4082 -2.36653 2.21734 0
M  V30 972 H 91.1932 -1.35898 3.67796 0
M  V30 973 H 92.6832 -2.3266 3.46784 0
M  V30 974 N 93.1203 -1.57491 0.0584922 0
M  V30 975 C 94.3483 -1.97296 -0.623037 0
M  V30 976 C 94.7633 -0.936338 -1.63946 0
M  V30 977 O 94.1203 0.0785981 -1.82331 0
M  V30 978 C 94.1713 -3.37183 -1.30345 0
M  V30 979 O 93.8923 -4.36872 -0.32773 0
M  V30 980 C 95.3933 -3.91788 -2.07406 0
M  V30 981 H 92.6133 -0.649153 -0.169826 0
M  V30 982 H 95.1573 -2.04106 0.12696 0
M  V30 983 H 93.3123 -3.31502 -2.00463 0
M  V30 984 H 93.7263 -5.18141 -0.814269 0
M  V30 985 H 95.2003 -4.91926 -2.50425 0
M  V30 986 H 95.6773 -3.27609 -2.92521 0
M  V30 987 H 96.2833 -4.00829 -1.42184 0
M  V30 988 N 94.5984 0.214957 -1.56127 0
M  V30 989 C 95.8464 0.936518 -1.79091 0
M  V30 990 C 96.1674 1.84606 -0.628148 0
M  V30 991 O 95.4374 1.92664 0.35462 0
M  V30 992 H 94.0174 0.3488 -0.660566 0
M  V30 993 H 96.6794 0.22523 -1.93594 0
M  V30 994 H 95.7754 1.53943 -2.71492 0
M  V30 995 N 96.0765 1.50051 0.48192 0
M  V30 996 C 96.9865 1.7089 1.60728 0
M  V30 997 C 98.0025 0.591788 1.63627 0
M  V30 998 O 99.1785 0.868817 1.81696 0
M  V30 999 C 96.2435 1.78855 2.97005 0
M  V30 1000 C 95.3045 3.02537 3.04581 0
M  V30 1001 C 94.5375 3.10112 4.34357 0
M  V30 1002 O 94.7605 2.24765 5.24249 0
M  V30 1003 O 93.6945 4.02747 4.47301 0
M  V30 1004 H 97.5205 2.66264 1.46072 0
M  V30 1005 H 95.1055 1.34018 0.660264 0
M  V30 1006 H 96.9875 1.86336 3.77964 0
M  V30 1007 H 95.6625 0.866628 3.11883 0
M  V30 1008 H 94.5695 3.00563 2.22739 0
M  V30 1009 H 95.9025 3.94272 2.94636 0
M  V30 1010 N 97.5546 -0.734337 1.39446 0
M  V30 1011 C 98.8316 -1.48579 1.27215 0
M  V30 1012 C 99.2116 -2.1077 -0.117968 0
M  V30 1013 O 98.5596 -1.98646 -1.12924 0
M  V30 1014 C 98.7696 -2.53667 2.39696 0
M  V30 1015 C 100.118 -3.20031 2.79044 0
M  V30 1016 O 101.142 -2.6398 2.39151 0
M  V30 1017 O 100.001 -4.21455 3.47905 0
M  V30 1018 H 97.0946 -0.659816 0.49857 0
M  V30 1019 H 99.6406 -0.768106 1.51322 0
M  V30 1020 H 98.4126 -2.06096 3.32626 0
M  V30 1021 H 98.0356 -3.32994 2.17258 0
M  V30 1022 N 99.0327 -1.24633 -0.964593 0
M  V30 1023 C 100.28 -1.08788 -1.70796 0
M  V30 1024 C 100.608 0.372783 -1.90894 0
M  V30 1025 O 99.8627 1.29167 -1.47018 0
M  V30 1026 C 100.162 -1.7763 -3.10133 0
M  V30 1027 C 99.8277 -3.27557 -3.09866 0
M  V30 1028 C 98.4897 -3.6846 -3.09501 0
M  V30 1029 C 100.842 -4.23389 -3.03959 0
M  V30 1030 C 98.1697 -5.03624 -3.00965 0
M  V30 1031 C 100.522 -5.58565 -2.96965 0
M  V30 1032 C 99.1857 -5.98809 -2.9493 0
M  V30 1033 H 98.4557 -0.398084 -0.624988 0
M  V30 1034 H 101.103 -1.54777 -1.12767 0
M  V30 1035 H 99.4077 -1.24044 -3.71645 0
M  V30 1036 H 101.105 -1.62832 -3.66451 0
M  V30 1037 H 97.6947 -2.95006 -3.10917 0
M  V30 1038 H 101.879 -3.92787 -3.03368 0
M  V30 1039 H 97.1347 -5.33998 -2.97752 0
M  V30 1040 H 101.309 -6.32523 -2.91354 0
M  V30 1041 H 98.9357 -7.03505 -2.88071 0
M  V30 1042 N 100.511 1.16574 -1.06058 0
M  V30 1043 C 101.927 1.3904 -0.783585 0
M  V30 1044 C 102.127 1.91784 0.618145 0
M  V30 1045 O 101.183 2.11511 1.37911 0
M  V30 1046 C 102.496 2.37329 -1.84649 0
M  V30 1047 C 104.044 2.51018 -1.86973 0
M  V30 1048 C 104.519 3.52588 -2.92311 0
M  V30 1049 N 106.01 3.60113 -2.91329 0
M  V30 1050 C 106.745 4.38486 -3.69482 0
M  V30 1051 N 106.241 5.20302 -4.57447 0
M  V30 1052 N 108.034 4.33446 -3.57885 0
M  V30 1053 H 100.185 0.806725 -1.96483 0
M  V30 1054 H 102.448 0.417117 -0.851303 0
M  V30 1055 H 102.154 2.05663 -2.85299 0
M  V30 1056 H 102.028 3.36946 -1.6955 0
M  V30 1057 H 104.415 2.81989 -0.869827 0
M  V30 1058 H 104.496 1.51445 -2.0615 0
M  V30 1059 H 104.14 3.22354 -3.92492 0
M  V30 1060 H 104.07 4.51886 -2.70383 0
M  V30 1061 H 106.561 3.01707 -2.27555 0
M  V30 1062 H 106.874 5.77311 -5.13743 0
M  V30 1063 H 105.219 5.19653 -4.61503 0
M  V30 1064 H 108.41 3.68586 -2.88551 0
M  V30 1065 H 108.583 4.94279 -4.19037 0
M  V30 1066 N 101.989 0.842826 1.3317 0
M  V30 1067 C 103.237 0.439577 1.97262 0
M  V30 1068 C 103.558 -1.00548 1.67078 0
M  V30 1069 O 102.828 -1.70098 0.971779 0
M  V30 1070 H 101.408 0.159558 0.72976 0
M  V30 1071 H 104.07 1.07665 1.62463 0
M  V30 1072 H 103.166 0.574886 3.0676 0
M  V30 1073 N 103.467 -1.45747 0.599634 0
M  V30 1074 C 104.397 -2.33235 -0.111306 0
M  V30 1075 C 105.378 -1.46359 -0.866781 0
M  V30 1076 O 106.563 -1.75146 -0.838904 0
M  V30 1077 C 103.693 -3.28932 -1.11451 0
M  V30 1078 C 102.647 -4.25381 -0.472772 0
M  V30 1079 C 101.973 -5.1071 -1.58365 0
M  V30 1080 C 103.273 -5.18831 0.600948 0
M  V30 1081 H 104.967 -2.92927 0.61919 0
M  V30 1082 H 102.513 -1.40857 0.299215 0
M  V30 1083 H 104.466 -3.89002 -1.62036 0
M  V30 1084 H 103.19 -2.67381 -1.8755 0
M  V30 1085 H 101.849 -3.66598 0.0121472 0
M  V30 1086 H 101.497 -4.45533 -2.33473 0
M  V30 1087 H 101.197 -5.7604 -1.15982 0
M  V30 1088 H 102.721 -5.73647 -2.09194 0
M  V30 1089 H 104.135 -5.73019 0.179491 0
M  V30 1090 H 102.532 -5.92595 0.946076 0
M  V30 1091 H 103.602 -4.6174 1.48068 0
M  V30 1092 N 104.945 -0.338344 -1.53925 0
M  V30 1093 C 106.17 0.263987 -2.05713 0
M  V30 1094 C 106.595 1.43847 -1.21201 0
M  V30 1095 O 105.953 1.79904 -0.224535 0
M  V30 1096 C 106.001 0.662 -3.54471 0
M  V30 1097 O 105.105 1.76265 -3.72833 0
M  V30 1098 H 104.446 0.0448722 -0.662482 0
M  V30 1099 H 106.976 -0.491048 -1.9862 0
M  V30 1100 H 106.986 0.940594 -3.9701 0
M  V30 1101 H 105.661 -0.196937 -4.15433 0
M  V30 1102 H 104.238 1.48173 -3.42198 0
M  V30 1103 N 106.423 1.57458 -0.0668435 0
M  V30 1104 C 107.67 1.93301 0.603406 0
M  V30 1105 C 107.998 0.946486 1.69917 0
M  V30 1106 O 107.253 -0.0387021 1.95662 0
M  V30 1107 C 107.552 3.35784 1.22409 0
M  V30 1108 C 107.218 4.50179 0.254955 0
M  V30 1109 C 105.88 4.81199 -0.0116746 0
M  V30 1110 C 108.232 5.19598 -0.408338 0
M  V30 1111 C 105.56 5.78978 -0.94877 0
M  V30 1112 C 107.912 6.18381 -1.33372 0
M  V30 1113 C 106.576 6.47821 -1.60887 0
M  V30 1114 H 105.846 0.707338 0.220802 0
M  V30 1115 H 108.493 1.91012 -0.136665 0
M  V30 1116 H 106.798 3.34515 2.03978 0
M  V30 1117 H 108.495 3.60804 1.74989 0
M  V30 1118 H 105.085 4.25983 0.472954 0
M  V30 1119 H 109.269 4.95832 -0.215456 0
M  V30 1120 H 104.525 6.00115 -1.16925 0
M  V30 1121 H 108.699 6.71277 -1.85367 0
M  V30 1122 H 106.326 7.23399 -2.33661 0
M  V30 1123 N 107.901 -0.206675 1.56239 0
M  V30 1124 C 109.312 -0.772383 1.69974 0
M  V30 1125 C 109.663 -1.84353 0.671436 0
M  V30 1126 O 108.788 -2.15695 -0.174491 0
M  V30 1127 C 109.383 -1.40779 3.08167 0
M  V30 1128 C 107.942 -1.92072 3.23706 0
M  V30 1129 C 107.089 -0.786347 2.65917 0
M  V30 1130 H 110.04 0.0182223 1.5869 0
M  V30 1131 H 110.061 -2.27696 3.04852 0
M  V30 1132 H 109.573 -0.627958 3.82986 0
M  V30 1133 H 107.674 -2.7281 2.53782 0
M  V30 1134 H 107.787 -2.09046 4.31087 0
M  V30 1135 H 106.151 -1.1976 2.24788 0
M  V30 1136 H 106.934 -0.0189416 3.43295 0
M  V30 1137 N 109.379 -1.50304 -0.473955 0
M  V30 1138 C 110.795 -1.37667 -0.807466 0
M  V30 1139 C 110.995 -0.430555 -1.96846 0
M  V30 1140 O 110.051 0.127874 -2.52176 0
M  V30 1141 C 111.364 -2.78974 -1.12223 0
M  V30 1142 C 112.912 -2.87868 -1.22885 0
M  V30 1143 C 113.387 -4.30003 -1.57676 0
M  V30 1144 N 114.878 -4.3294 -1.64673 0
M  V30 1145 C 115.613 -5.3991 -1.93091 0
M  V30 1146 N 115.109 -6.57092 -2.1955 0
M  V30 1147 N 116.902 -5.27351 -1.94569 0
M  V30 1148 H 109.053 -2.10394 0.291212 0
M  V30 1149 H 111.316 -0.945575 0.0677609 0
M  V30 1150 H 111.022 -3.50031 -0.342229 0
M  V30 1151 H 110.896 -3.16038 -2.05913 0
M  V30 1152 H 113.283 -2.17032 -1.99953 0
M  V30 1153 H 113.364 -2.54352 -0.271814 0
M  V30 1154 H 113.008 -5.01375 -0.81149 0
M  V30 1155 H 112.938 -4.61004 -2.54525 0
M  V30 1156 H 115.429 -3.48441 -1.46277 0
M  V30 1157 H 115.742 -7.34425 -2.405 0
M  V30 1158 H 114.087 -6.60272 -2.16948 0
M  V30 1159 H 117.278 -4.34801 -1.73394 0
M  V30 1160 H 117.451 -6.10805 -2.16381 0
M  V30 1161 N 110.857 0.726932 -1.39834 0
M  V30 1162 C 111.787 1.85405 -1.41941 0
M  V30 1163 C 112.768 1.67751 -0.281728 0
M  V30 1164 O 113.953 1.8795 -0.488717 0
M  V30 1165 C 111.083 3.23243 -1.2701 0
M  V30 1166 C 110.037 3.55549 -2.38262 0
M  V30 1167 C 109.363 4.9241 -2.08415 0
M  V30 1168 C 110.663 3.577 -3.80589 0
M  V30 1169 H 112.357 1.83899 -2.36266 0
M  V30 1170 H 109.903 0.883349 -1.13723 0
M  V30 1171 H 111.856 4.01775 -1.27103 0
M  V30 1172 H 110.58 3.25296 -0.291564 0
M  V30 1173 H 109.239 2.79351 -2.37399 0
M  V30 1174 H 108.887 4.91052 -1.0898 0
M  V30 1175 H 108.587 5.14992 -2.82943 0
M  V30 1176 H 110.111 5.73289 -2.10171 0
M  V30 1177 H 111.525 4.26293 -3.83337 0
M  V30 1178 H 109.922 3.91804 -4.54543 0
M  V30 1179 H 110.992 2.57328 -4.10987 0
M  V30 1180 N 112.336 1.25143 0.95797 0
M  V30 1181 C 113.564 1.12424 1.73691 0
M  V30 1182 C 113.979 -0.322304 1.86029 0
M  V30 1183 O 113.336 -1.22186 1.35561 0
M  V30 1184 C 113.387 1.76933 3.15241 0
M  V30 1185 O 113.108 3.15932 3.03511 0
M  V30 1186 C 114.609 1.6995 4.09429 0
M  V30 1187 H 111.829 0.3923 0.544373 0
M  V30 1188 H 114.373 1.6544 1.20207 0
M  V30 1189 H 112.528 1.27895 3.6568 0
M  V30 1190 H 112.942 3.47598 3.9278 0
M  V30 1191 H 114.416 2.19753 5.06372 0
M  V30 1192 H 114.893 0.662619 4.34173 0
M  V30 1193 H 115.499 2.18461 3.64904 0
M  V30 1194 N 113.814 -1.1601 1.06675 0
M  V30 1195 C 114.746 -2.20115 0.638921 0
M  V30 1196 C 115.759 -1.59916 -0.305057 0
M  V30 1197 O 116.948 -1.78245 -0.0954446 0
M  V30 1198 C 114.048 -3.38798 -0.0830083 0
M  V30 1199 C 113.221 -4.2855 0.875426 0
M  V30 1200 C 112.28 -5.25849 0.192042 0
M  V30 1201 O 111.306 -5.63102 0.830921 0
M  V30 1202 N 112.508 -5.70648 -1.06493 0
M  V30 1203 H 115.273 -2.57439 1.53444 0
M  V30 1204 H 112.834 -1.31057 0.950557 0
M  V30 1205 H 114.826 -4.00936 -0.550685 0
M  V30 1206 H 113.396 -2.99947 -0.880386 0
M  V30 1207 H 112.616 -3.63617 1.52238 0
M  V30 1208 H 113.904 -4.85393 1.52548 0
M  V30 1209 H 113.302 -5.42482 -1.60405 0
M  V30 1210 H 111.859 -6.34859 -1.47641 0
M  V30 1211 N 115.292 -0.849877 -1.32721 0
M  V30 1212 C 116.538 -0.451591 -1.97708 0
M  V30 1213 C 116.871 0.989175 -1.6712 0
M  V30 1214 O 116.146 1.69334 -0.956891 0
M  V30 1215 C 116.429 -0.685598 -3.53513 0
M  V30 1216 C 116.282 -2.17444 -3.93749 0
M  V30 1217 C 117.601 -0.138874 -4.39881 0
M  V30 1218 H 114.72 -0.16555 -0.718166 0
M  V30 1219 H 117.362 -1.06742 -1.57182 0
M  V30 1220 H 115.512 -0.161416 -3.88165 0
M  V30 1221 H 117.184 -2.76433 -3.693 0
M  V30 1222 H 115.427 -2.65476 -3.43081 0
M  V30 1223 H 116.098 -2.28888 -5.02309 0
M  V30 1224 H 118.574 -0.587068 -4.11938 0
M  V30 1225 H 117.45 -0.332213 -5.47894 0
M  V30 1226 H 117.711 0.95806 -4.31594 0
M  V30 1227 N 116.77 1.45427 -0.607355 0
M  V30 1228 C 117.998 2.06614 -0.108814 0
M  V30 1229 C 118.413 1.45204 1.2067 0
M  V30 1230 O 117.77 0.566132 1.73497 0
M  V30 1231 C 117.821 3.61481 0.0375347 0
M  V30 1232 O 117.542 4.20598 -1.22593 0
M  V30 1233 C 119.043 4.39652 0.567561 0
M  V30 1234 H 116.263 0.66747 -0.0687351 0
M  V30 1235 H 118.807 1.86675 -0.835022 0
M  V30 1236 H 116.962 3.80762 0.714068 0
M  V30 1237 H 117.376 5.1377 -1.05547 0
M  V30 1238 H 118.85 5.48518 0.61905 0
M  V30 1239 H 119.327 4.09417 1.58978 0
M  V30 1240 H 119.933 4.25234 -0.0749202 0
M  V30 1241 N 118.248 0.346503 1.53744 0
M  V30 1242 C 119.525 -0.304532 1.93215 0
M  V30 1243 C 119.905 -1.67993 1.27834 0
M  V30 1244 O 119.253 -2.24411 0.430352 0
M  V30 1245 C 119.463 -0.373852 3.46992 0
M  V30 1246 C 120.811 -0.62329 4.2 0
M  V30 1247 O 121.835 -0.455847 3.53271 0
M  V30 1248 O 120.694 -0.947879 5.38217 0
M  V30 1249 H 117.788 -0.178318 0.807547 0
M  V30 1250 H 120.334 0.397895 1.64969 0
M  V30 1251 H 119.106 0.591224 3.86808 0
M  V30 1252 H 118.729 -1.12294 3.81413 0
M  V30 1253 N 119.726 -1.57421 0.075193 0
M  V30 1254 C 120.956 -1.97659 -0.601203 0
M  V30 1255 C 121.364 -0.952427 -1.63479 0
M  V30 1256 O 120.707 0.0688241 -1.83571 0
M  V30 1257 C 120.769 -3.34218 -1.32434 0
M  V30 1258 C 120.433 -4.5484 -0.443826 0
M  V30 1259 C 121.43 -5.19034 0.299969 0
M  V30 1260 C 119.115 -5.00952 -0.367709 0
M  V30 1261 C 121.109 -6.27695 1.10807 0
M  V30 1262 C 118.796 -6.09484 0.444058 0
M  V30 1263 C 119.794 -6.72719 1.18061 0
M  V30 1264 O 119.482 -7.79161 1.97898 0
M  V30 1265 H 119.214 -0.65494 -0.167422 0
M  V30 1266 H 121.768 -2.04886 0.145157 0
M  V30 1267 H 119.998 -3.23615 -2.11685 0
M  V30 1268 H 121.687 -3.59038 -1.89331 0
M  V30 1269 H 122.453 -4.84351 0.250776 0
M  V30 1270 H 118.332 -4.51509 -0.930638 0
M  V30 1271 H 121.876 -6.76982 1.68347 0
M  V30 1272 H 117.773 -6.43601 0.494803 0
M  V30 1273 H 118.541 -7.96055 1.90367 0
M  V30 1274 N 121.204 0.198386 -1.56346 0
M  V30 1275 C 122.134 1.24865 -1.9731 0
M  V30 1276 C 123.115 1.47651 -0.844576 0
M  V30 1277 O 124.3 1.59444 -1.10866 0
M  V30 1278 C 121.43 2.59358 -2.30977 0
M  V30 1279 C 120.384 2.5119 -3.46537 0
M  V30 1280 C 119.71 3.89926 -3.65871 0
M  V30 1281 C 121.01 2.03977 -4.80823 0
M  V30 1282 H 122.704 0.908252 -2.85291 0
M  V30 1283 H 120.25 0.435462 -1.37258 0
M  V30 1284 H 122.203 3.33011 -2.58228 0
M  V30 1285 H 120.927 2.95132 -1.39874 0
M  V30 1286 H 119.586 1.79993 -3.19371 0
M  V30 1287 H 119.234 4.23046 -2.72105 0
M  V30 1288 H 118.934 3.85336 -4.4361 0
M  V30 1289 H 120.458 4.65205 -3.95495 0
M  V30 1290 H 121.872 2.67386 -5.07127 0
M  V30 1291 H 120.269 2.10397 -5.62008 0
M  V30 1292 H 121.339 0.992861 -4.74626 0
M  V30 1293 N 122.682 1.50554 0.465978 0
M  V30 1294 C 123.612 1.72722 1.57128 0
M  V30 1295 C 124.593 0.576294 1.6004 0
M  V30 1296 O 125.778 0.81598 1.76225 0
M  V30 1297 C 122.908 1.82605 2.95419 0
M  V30 1298 C 121.862 2.97835 3.07373 0
M  V30 1299 C 121.188 2.92867 4.47363 0
M  V30 1300 C 122.488 4.38265 2.84114 0
M  V30 1301 H 124.182 2.65267 1.38829 0
M  V30 1302 H 121.728 1.2765 0.666441 0
M  V30 1303 H 123.681 1.96698 3.72677 0
M  V30 1304 H 122.405 0.866858 3.14886 0
M  V30 1305 H 121.064 2.83401 2.3255 0
M  V30 1306 H 120.712 1.94783 4.63755 0
M  V30 1307 H 120.412 3.70227 4.56296 0
M  V30 1308 H 121.936 3.09015 5.26633 0
M  V30 1309 H 123.35 4.53198 3.51118 0
M  V30 1310 H 121.747 5.17115 3.04487 0
M  V30 1311 H 122.817 4.50281 1.7993 0
M  V30 1312 N 124.16 -0.719506 1.40217 0
M  V30 1313 C 125.09 -1.8465 1.42922 0
M  V30 1314 C 126.071 -1.67599 0.29062 0
M  V30 1315 O 127.256 -1.87688 0.498677 0
M  V30 1316 C 124.386 -3.22565 1.28722 0
M  V30 1317 C 123.34 -3.54281 2.40144 0
M  V30 1318 C 122.666 -4.91298 2.11023 0
M  V30 1319 C 123.966 -3.55676 3.82481 0
M  V30 1320 H 125.66 -1.82644 2.37237 0
M  V30 1321 H 123.206 -0.877305 1.1419 0
M  V30 1322 H 125.159 -4.01095 1.29232 0
M  V30 1323 H 123.883 -3.25137 0.308811 0
M  V30 1324 H 122.542 -2.78088 2.38877 0
M  V30 1325 H 122.19 -4.90468 1.11582 0
M  V30 1326 H 121.89 -5.13485 2.8567 0
M  V30 1327 H 123.414 -5.72166 2.13209 0
M  V30 1328 H 124.828 -4.24254 3.85592 0
M  V30 1329 H 123.225 -3.89388 4.56614 0
M  V30 1330 H 124.295 -2.55144 4.12346 0
M  V30 1331 N 125.638 -1.25649 -0.95132 0
M  V30 1332 C 126.885 -1.10594 -1.69633 0
M  V30 1333 C 127.213 0.352515 -1.91279 0
M  V30 1334 O 126.468 1.27601 -1.4838 0
M  V30 1335 C 126.767 -1.80909 -3.08231 0
M  V30 1336 C 126.433 -3.30825 -3.06375 0
M  V30 1337 C 125.095 -3.71722 -3.05576 0
M  V30 1338 C 127.447 -4.26589 -2.99452 0
M  V30 1339 C 124.775 -5.06788 -2.95606 0
M  V30 1340 C 127.127 -5.61683 -2.91024 0
M  V30 1341 C 125.791 -6.01904 -2.88562 0
M  V30 1342 H 125.061 -0.404691 -0.620731 0
M  V30 1343 H 127.708 -1.55964 -1.11119 0
M  V30 1344 H 126.013 -1.27979 -3.70309 0
M  V30 1345 H 127.71 -1.6671 -3.64704 0
M  V30 1346 H 124.3 -2.98287 -3.07771 0
M  V30 1347 H 128.484 -3.95982 -2.99185 0
M  V30 1348 H 123.74 -5.37126 -2.92071 0
M  V30 1349 H 127.914 -6.35578 -2.84629 0
M  V30 1350 H 125.541 -7.06521 -2.80593 0
M  V30 1351 N 127.117 1.15442 -1.07289 0
M  V30 1352 C 128.533 1.38201 -0.798288 0
M  V30 1353 C 128.733 1.92429 0.597769 0
M  V30 1354 O 127.789 2.12962 1.3566 0
M  V30 1355 C 129.102 2.35357 -1.87156 0
M  V30 1356 C 130.65 2.49021 -1.89624 0
M  V30 1357 C 131.125 3.49468 -2.96034 0
M  V30 1358 N 132.616 3.57003 -2.95132 0
M  V30 1359 C 133.351 4.34543 -3.74112 0
M  V30 1360 N 132.847 5.15421 -4.6294 0
M  V30 1361 N 134.64 4.29625 -3.62462 0
M  V30 1362 H 126.791 0.78584 -1.97328 0
M  V30 1363 H 129.054 0.408065 -0.855679 0
M  V30 1364 H 128.76 2.02626 -2.87464 0
M  V30 1365 H 128.634 3.35129 -1.73114 0
M  V30 1366 H 131.021 2.81051 -0.899687 0
M  V30 1367 H 131.102 1.4925 -2.07745 0
M  V30 1368 H 130.746 3.18173 -3.95889 0
M  V30 1369 H 130.676 4.48992 -2.75161 0
M  V30 1370 H 133.167 2.99276 -2.30743 0
M  V30 1371 H 133.48 5.7183 -5.19837 0
M  V30 1372 H 131.825 5.14729 -4.66989 0
M  V30 1373 H 135.016 3.65505 -2.92444 0
M  V30 1374 H 135.189 4.89807 -4.24256 0
M  V30 1375 N 128.595 0.856903 1.32268 0
M  V30 1376 C 129.841 0.462069 1.97466 0
M  V30 1377 C 130.174 -0.980298 1.67642 0
M  V30 1378 O 129.449 -1.68824 0.965858 0
M  V30 1379 C 129.732 0.704336 3.53145 0
M  V30 1380 C 129.585 2.19529 3.9259 0
M  V30 1381 C 130.904 0.1622 4.39801 0
M  V30 1382 H 128.023 0.169357 0.717278 0
M  V30 1383 H 130.665 1.07574 1.56614 0
M  V30 1384 H 128.815 0.181999 3.88073 0
M  V30 1385 H 130.487 2.78387 3.67829 0
M  V30 1386 H 128.73 2.67292 3.41668 0
M  V30 1387 H 129.401 2.31549 5.01088 0
M  V30 1388 H 131.877 0.608905 4.11621 0
M  V30 1389 H 130.753 0.361265 5.4771 0
M  V30 1390 H 131.014 -0.935158 4.32096 0
M  V30 1391 N 130.073 -1.45103 0.615059 0
M  V30 1392 C 131.303 -2.06254 0.119596 0
M  V30 1393 C 131.711 -1.4591 -1.20445 0
M  V30 1394 O 131.054 -0.570384 -1.7462 0
M  V30 1395 C 131.116 -3.59396 -0.0865591 0
M  V30 1396 C 130.78 -4.42116 1.15683 0
M  V30 1397 C 131.777 -4.7662 2.07676 0
M  V30 1398 C 129.462 -4.82749 1.38775 0
M  V30 1399 C 131.456 -5.50622 3.21082 0
M  V30 1400 C 129.143 -5.56504 2.52481 0
M  V30 1401 C 130.141 -5.90358 3.43463 0
M  V30 1402 O 129.829 -6.62615 4.55189 0
M  V30 1403 H 129.561 -0.672423 0.0694512 0
M  V30 1404 H 132.115 -1.87219 0.844885 0
M  V30 1405 H 130.345 -3.76859 -0.866823 0
M  V30 1406 H 132.034 -4.02365 -0.534555 0
M  V30 1407 H 132.8 -4.4578 1.91063 0
M  V30 1408 H 128.679 -4.55829 0.688545 0
M  V30 1409 H 132.223 -5.76965 3.92119 0
M  V30 1410 H 128.12 -5.86759 2.69043 0
M  V30 1411 H 128.888 -6.81071 4.53966 0
M  V30 1412 N 131.551 -0.354651 -1.53558 0
M  V30 1413 C 132.799 0.237972 -2.00694 0
M  V30 1414 C 133.12 1.50173 -1.24391 0
M  V30 1415 O 132.39 1.92673 -0.354135 0
M  V30 1416 H 130.97 0.0909256 -0.741446 0
M  V30 1417 H 133.632 -0.478368 -1.88938 0
M  V30 1418 H 132.728 0.47264 -3.085 0
M  V30 1419 N 133.029 1.57378 -0.0835403 0
M  V30 1420 C 133.959 2.1641 0.87686 0
M  V30 1421 C 134.94 1.09429 1.30228 0
M  V30 1422 O 136.125 1.37516 1.37124 0
M  V30 1423 C 133.255 2.73517 2.14022 0
M  V30 1424 C 132.209 3.85769 1.85381 0
M  V30 1425 C 131.535 4.29529 3.18448 0
M  V30 1426 C 132.835 5.09486 1.14984 0
M  V30 1427 H 134.529 2.96914 0.385059 0
M  V30 1428 H 132.075 1.42823 0.18377 0
M  V30 1429 H 134.028 3.13463 2.81636 0
M  V30 1430 H 132.752 1.90252 2.65465 0
M  V30 1431 H 131.411 3.46345 1.20169 0
M  V30 1432 H 131.059 3.43169 3.67755 0
M  V30 1433 H 130.759 5.05204 3.00071 0
M  V30 1434 H 132.283 4.72099 3.8724 0
M  V30 1435 H 133.697 5.46674 1.72687 0
M  V30 1436 H 132.094 5.90515 1.06826 0
M  V30 1437 H 133.164 4.84724 0.130749 0
M  V30 1438 N 134.507 -0.190092 1.56449 0
M  V30 1439 C 135.417 -1.25591 1.98152 0
M  V30 1440 C 136.433 -1.49519 0.889944 0
M  V30 1441 O 137.609 -1.62036 1.19609 0
M  V30 1442 C 134.674 -2.57916 2.3169 0
M  V30 1443 C 133.735 -2.42015 3.5458 0
M  V30 1444 C 132.968 -3.6803 3.8651 0
M  V30 1445 O 133.191 -4.72413 3.1966 0
M  V30 1446 O 132.125 -3.6326 4.79923 0
M  V30 1447 H 135.951 -0.931988 2.89046 0
M  V30 1448 H 133.536 -0.395488 1.4407 0
M  V30 1449 H 135.418 -3.36008 2.54316 0
M  V30 1450 H 134.093 -2.89925 1.43963 0
M  V30 1451 H 133 -1.62017 3.37196 0
M  V30 1452 H 134.333 -2.14937 4.4279 0
M  V30 1453 N 135.985 -1.50799 -0.457987 0
M  V30 1454 C 137.21 -1.66496 -1.23668 0
M  V30 1455 C 137.635 -0.353288 -1.84752 0
M  V30 1456 O 136.993 0.684346 -1.67888 0
M  V30 1457 C 137.041 -2.76763 -2.3116 0
M  V30 1458 O 136.145 -2.38928 -3.36136 0
M  V30 1459 H 135.486 -0.555828 -0.363252 0
M  V30 1460 H 138.016 -1.9725 -0.543474 0
M  V30 1461 H 138.026 -3.00232 -2.76269 0
M  V30 1462 H 136.701 -3.71954 -1.86073 0
M  V30 1463 H 135.278 -2.25953 -2.96647 0
M  V30 1464 N 137.463 0.71206 -1.40597 0
M  V30 1465 C 138.393 1.83889 -1.43899 0
M  V30 1466 C 139.374 1.67442 -0.299504 0
M  V30 1467 O 140.559 1.87421 -0.508624 0
M  V30 1468 C 137.689 3.21877 -1.30431 0
M  V30 1469 C 136.643 3.53002 -2.42019 0
M  V30 1470 C 135.969 4.90172 -2.13626 0
M  V30 1471 C 137.269 3.53643 -3.84362 0
M  V30 1472 H 138.963 1.81383 -2.38203 0
M  V30 1473 H 136.509 0.871237 -1.14654 0
M  V30 1474 H 138.462 4.00404 -1.31357 0
M  V30 1475 H 137.186 3.24968 -0.326049 0
M  V30 1476 H 135.845 2.76818 -2.40349 0
M  V30 1477 H 135.493 4.89869 -1.14182 0
M  V30 1478 H 135.193 5.11962 -2.88389 0
M  V30 1479 H 136.717 5.71028 -2.1624 0
M  V30 1480 H 138.131 4.22203 -3.87837 0
M  V30 1481 H 136.528 3.86961 -4.58673 0
M  V30 1482 H 137.598 2.52954 -4.13693 0
M  V30 1483 N 138.941 1.26152 0.944643 0
M  V30 1484 C 140.357 1.03189 1.21754 0
M  V30 1485 C 140.557 -0.245112 2.00004 0
M  V30 1486 O 139.613 -0.955176 2.33736 0
M  V30 1487 C 140.926 2.26119 1.98219 0
M  V30 1488 C 142.474 2.30984 2.11224 0
M  V30 1489 C 142.949 3.53597 2.91089 0
M  V30 1490 N 144.44 3.54053 2.98664 0
M  V30 1491 C 145.175 4.45593 3.60881 0
M  V30 1492 N 144.671 5.47416 4.24626 0
M  V30 1493 N 146.464 4.33252 3.58119 0
M  V30 1494 H 138.615 2.08177 0.421437 0
M  V30 1495 H 140.878 0.914723 0.248969 0
M  V30 1496 H 140.584 3.18984 1.48128 0
M  V30 1497 H 140.458 2.3009 2.98895 0
M  V30 1498 H 142.845 1.38635 2.60508 0
M  V30 1499 H 142.926 2.31026 1.09821 0
M  V30 1500 H 142.57 4.46273 2.42493 0
M  V30 1501 H 142.5 3.50802 3.92741 0
M  V30 1502 H 144.991 2.80403 2.53343 0
M  V30 1503 H 145.304 6.13459 4.69987 0
M  V30 1504 H 143.649 5.51278 4.23223 0
M  V30 1505 H 146.84 3.52924 3.0751 0
M  V30 1506 H 147.013 5.04786 4.06319 0
M  V30 1507 N 140.419 -1.14872 1.07899 0
M  V30 1508 C 141.696 -1.81928 0.71845 0
M  V30 1509 C 142.076 -1.95417 -0.798455 0
M  V30 1510 O 141.424 -1.50997 -1.715 0
M  V30 1511 C 141.634 -3.17937 1.43935 0
M  V30 1512 C 142.982 -3.93501 1.59506 0
M  V30 1513 O 144.006 -3.27509 1.40058 0
M  V30 1514 O 142.865 -5.1183 1.91551 0
M  V30 1515 H 139.959 -0.78628 0.256305 0
M  V30 1516 H 142.505 -1.21934 1.18026 0
M  V30 1517 H 141.277 -3.0325 2.47295 0
M  V30 1518 H 140.9 -3.85619 0.968687 0
M  V30 1519 N 141.898 -0.863906 -1.31812 0
M  V30 1520 C 142.828 -0.330843 -2.31144 0
M  V30 1521 C 143.809 0.575005 -1.60087 0
M  V30 1522 O 144.994 0.493304 -1.8783 0
M  V30 1523 C 142.124 0.47374 -3.44054 0
M  V30 1524 C 141.078 -0.338481 -4.26659 0
M  V30 1525 C 140.404 0.591412 -5.31419 0
M  V30 1526 C 141.704 -1.56926 -4.98168 0
M  V30 1527 H 143.398 -1.16086 -2.75979 0
M  V30 1528 H 140.944 -0.559657 -1.32679 0
M  V30 1529 H 142.897 0.857143 -4.12591 0
M  V30 1530 H 141.621 1.33721 -2.9797 0
M  V30 1531 H 140.28 -0.703754 -3.59782 0
M  V30 1532 H 139.928 1.45199 -4.81587 0
M  V30 1533 H 139.628 0.0519022 -5.87577 0
M  V30 1534 H 141.152 0.97179 -6.02817 0
M  V30 1535 H 142.566 -1.25764 -5.59336 0
M  V30 1536 H 140.963 -2.04739 -5.64094 0
M  V30 1537 H 142.033 -2.32544 -4.25501 0
M  V30 1538 N 143.376 1.44774 -0.622745 0
M  V30 1539 C 144.623 2.02121 -0.1239 0
M  V30 1540 C 144.951 1.48915 1.25118 0
M  V30 1541 O 144.206 0.660045 1.84233 0
M  V30 1542 C 144.505 3.57364 -0.0508323 0
M  V30 1543 C 144.171 4.29787 -1.36358 0
M  V30 1544 C 142.833 4.4929 -1.72314 0
M  V30 1545 C 145.185 4.71062 -2.23048 0
M  V30 1546 C 142.513 5.07325 -2.94682 0
M  V30 1547 C 144.865 5.30452 -3.44679 0
M  V30 1548 C 143.529 5.48175 -3.80868 0
M  V30 1549 H 142.799 0.739612 -0.0453381 0
M  V30 1550 H 145.446 1.73648 -0.807389 0
M  V30 1551 H 143.751 3.85202 0.715991 0
M  V30 1552 H 145.448 3.99456 0.351533 0
M  V30 1553 H 142.038 4.14932 -1.07375 0
M  V30 1554 H 146.222 4.55715 -1.96565 0
M  V30 1555 H 141.478 5.19235 -3.22809 0
M  V30 1556 H 145.652 5.61385 -4.12092 0
M  V30 1557 H 143.279 5.92912 -4.75773 0
M  V30 1558 N 144.854 0.36279 1.53368 0
M  V30 1559 C 146.265 -0.117022 1.86333 0
M  V30 1560 C 146.616 -1.48397 1.28347 0
M  V30 1561 O 145.741 -2.07787 0.604428 0
M  V30 1562 C 146.336 -0.21912 3.38091 0
M  V30 1563 C 144.895 -0.643184 3.70864 0
M  V30 1564 C 144.042 0.211318 2.76494 0
M  V30 1565 H 146.993 0.581687 1.47655 0
M  V30 1566 H 147.014 -1.04319 3.6592 0
M  V30 1567 H 146.526 0.775902 3.80265 0
M  V30 1568 H 144.627 -1.64654 3.34245 0
M  V30 1569 H 144.74 -0.41973 4.77258 0
M  V30 1570 H 143.104 -0.319367 2.5269 0
M  V30 1571 H 143.887 1.20383 3.21501 0
M  V30 1572 N 146.332 -1.57332 0.0918853 0
M  V30 1573 C 147.28 -2.15075 -0.885747 0
M  V30 1574 C 148.274 -1.09277 -1.29441 0
M  V30 1575 O 149.48 -1.27627 -1.26931 0
M  V30 1576 H 145.855 -0.687966 -0.303656 0
M  V30 1577 H 147.826 -2.96047 -0.373995 0
M  V30 1578 C 146.575 -2.74325 -2.13638 0
M  V30 1579 H 145.898 -3.55418 -1.8308 0
M  V30 1580 H 147.338 -3.183 -2.80109 0
M  V30 1581 C 145.797 -1.70062 -2.90827 0
M  V30 1582 O 146.327 -1.13763 -3.85254 0
M  V30 1583 N 144.533 -1.40628 -2.54307 0
M  V30 1584 H 144.08 -1.866 -1.7759 0
M  V30 1585 H 144.038 -0.711043 -3.06254 0
M  V30 1586 N 147.81 0.181792 -1.56548 0
M  V30 1587 C 148.74 1.22765 -1.98623 0
M  V30 1588 C 149.721 1.46747 -0.860189 0
M  V30 1589 O 150.906 1.58259 -1.12551 0
M  V30 1590 C 148.036 2.56894 -2.33715 0
M  V30 1591 C 146.99 2.475 -3.49182 0
M  V30 1592 C 146.316 3.86023 -3.69986 0
M  V30 1593 C 147.616 1.98866 -4.82959 0
M  V30 1594 H 149.31 0.877942 -2.86239 0
M  V30 1595 H 146.856 0.42088 -1.37712 0
M  V30 1596 H 148.809 3.30253 -2.61746 0
M  V30 1597 H 147.533 2.93632 -1.42997 0
M  V30 1598 H 146.192 1.76596 -3.21262 0
M  V30 1599 H 145.84 4.20136 -2.76576 0
M  V30 1600 H 145.54 3.80609 -4.47672 0
M  V30 1601 H 147.064 4.60984 -4.00407 0
M  V30 1602 H 148.478 2.61992 -5.09934 0
M  V30 1603 H 146.875 2.04424 -5.64208 0
M  V30 1604 H 147.945 0.942465 -4.75653 0
M  V30 1605 N 149.288 1.51039 0.449983 0
M  V30 1606 C 150.251 1.70863 1.5277 0
M  V30 1607 C 151.251 0.578846 1.5002 0
M  V30 1608 O 152.441 0.846213 1.52266 0
M  V30 1609 C 149.573 1.75341 2.9235 0
M  V30 1610 H 150.766 2.67034 1.36502 0
M  V30 1611 H 148.319 1.40838 0.677812 0
M  V30 1612 H 149.054 0.809383 3.14037 0
M  V30 1613 H 148.839 2.57436 2.95752 0
M  V30 1614 H 150.329 1.92559 3.70555 0
M  V30 1615 N 150.766 -0.704594 1.40972 0
M  V30 1616 C 152.012 -1.46675 1.40051 0
M  V30 1617 C 152.345 -1.94199 0.00641102 0
M  V30 1618 O 151.62 -1.68916 -0.964235 0
M  V30 1619 C 151.903 -2.68505 2.39952 0
M  V30 1620 C 151.756 -2.26805 3.88432 0
M  V30 1621 C 153.075 -3.70686 2.37233 0
M  V30 1622 H 150.194 -0.532015 0.510028 0
M  V30 1623 H 152.836 -0.803255 1.72185 0
M  V30 1624 H 150.986 -3.25114 2.1268 0
M  V30 1625 H 152.658 -1.75592 4.26574 0
M  V30 1626 H 150.901 -1.58685 4.03734 0
M  V30 1627 H 151.572 -3.14181 4.53866 0
M  V30 1628 H 154.048 -3.23731 2.61415 0
M  V30 1629 H 152.924 -4.53553 3.09162 0
M  V30 1630 H 153.185 -4.19754 1.38777 0
M  V30 1631 N 152.244 -1.26651 -0.937939 0
M  V30 1632 C 153.493 -1.11775 -1.67897 0
M  V30 1633 C 153.806 0.33794 -1.92659 0
M  V30 1634 O 155.012 0.607434 -2.64618 0
M  V30 1635 C 153.468 -1.9523 -3.02346 0
M  V30 1636 C 153.076 -3.45393 -2.8532 0
M  V30 1637 C 154.82 -1.88972 -3.80118 0
M  V30 1638 C 152.727 -4.21083 -4.15263 0
M  V30 1639 H 151.657 -0.414696 -0.629717 0
M  V30 1640 H 154.308 -1.50988 -1.04283 0
M  V30 1641 H 152.69 -1.48853 -3.66959 0
M  V30 1642 H 153.864 -3.99561 -2.29537 0
M  V30 1643 H 152.179 -3.52921 -2.20988 0
M  V30 1644 H 154.776 -2.42805 -4.76392 0
M  V30 1645 H 155.119 -0.86113 -4.07296 0
M  V30 1646 H 155.652 -2.33189 -3.22285 0
M  V30 1647 H 152.391 -5.24425 -3.93267 0
M  V30 1648 H 151.911 -3.71695 -4.70747 0
M  V30 1649 H 153.59 -4.29706 -4.83696 0
M  V30 1650 N 153.722 1.14298 -1.08507 0
M  V30 1651 C 155.138 1.37347 -0.812901 0
M  V30 1652 C 155.338 1.93052 0.577325 0
M  V30 1653 O 154.394 2.14389 1.33393 0
M  V30 1654 C 155.707 2.33359 -1.89642 0
M  V30 1655 C 157.255 2.46996 -1.92255 0
M  V30 1656 C 157.73 3.46309 -2.99724 0
M  V30 1657 N 159.221 3.53853 -2.98902 0
M  V30 1658 C 159.956 4.3055 -3.787 0
M  V30 1659 N 159.452 5.10482 -4.6838 0
M  V30 1660 N 161.245 4.25757 -3.66998 0
M  V30 1661 H 153.396 0.764867 -1.9815 0
M  V30 1662 H 155.659 0.398966 -0.859959 0
M  V30 1663 H 155.365 1.99565 -2.89597 0
M  V30 1664 H 155.239 3.33274 -1.76659 0
M  V30 1665 H 157.626 2.80081 -0.929445 0
M  V30 1666 H 157.707 1.47039 -2.09316 0
M  V30 1667 H 157.351 3.13957 -3.99241 0
M  V30 1668 H 157.281 4.46049 -2.79907 0
M  V30 1669 H 159.772 2.96812 -2.33904 0
M  V30 1670 H 160.085 5.66284 -5.25873 0
M  V30 1671 H 158.43 5.09747 -4.72422 0
M  V30 1672 H 161.621 3.62383 -2.96304 0
M  V30 1673 H 161.794 4.85279 -4.29427 0
M  V30 1674 N 155.201 0.870884 1.31352 0
M  V30 1675 C 156.449 0.48132 1.96285 0
M  V30 1676 C 156.77 -0.969813 1.69173 0
M  V30 1677 O 156.04 -1.67998 1.00764 0
M  V30 1678 H 154.62 0.175002 0.726212 0
M  V30 1679 H 157.282 1.11087 1.60143 0
M  V30 1680 H 156.378 0.639825 3.05471 0
M  V30 1681 N 156.679 -1.44442 0.630414 0
M  V30 1682 C 157.907 -2.06414 0.141671 0
M  V30 1683 C 158.322 -1.47105 -1.18345 0
M  V30 1684 O 157.679 -0.593662 -1.72574 0
M  V30 1685 C 157.73 -3.61494 0.0199784 0
M  V30 1686 O 157.451 -4.18594 1.29269 0
M  V30 1687 C 158.952 -4.40499 -0.497544 0
M  V30 1688 H 156.172 -0.666292 0.0793452 0
M  V30 1689 H 158.716 -1.85323 0.864614 0
M  V30 1690 H 156.871 -3.8185 -0.653402 0
M  V30 1691 H 157.285 -5.12026 1.13707 0
M  V30 1692 H 158.759 -5.49433 -0.531708 0
M  V30 1693 H 159.236 -4.11895 -1.52445 0
M  V30 1694 H 159.842 -4.25061 0.142562 0
M  V30 1695 N 158.157 -0.370918 -1.53173 0
M  V30 1696 C 159.573 -0.0200818 -1.59587 0
M  V30 1697 C 159.773 1.46279 -1.38581 0
M  V30 1698 O 158.829 2.22506 -1.19363 0
M  V30 1699 C 160.142 -0.4808 -2.96831 0
M  V30 1700 C 161.69 -0.435477 -3.09956 0
M  V30 1701 C 162.165 -0.872092 -4.4962 0
M  V30 1702 N 163.656 -0.827364 -4.55751 0
M  V30 1703 C 164.391 -1.13683 -5.62018 0
M  V30 1704 N 163.887 -1.51584 -6.76014 0
M  V30 1705 N 165.68 -1.05927 -5.52029 0
M  V30 1706 H 157.831 -1.33652 -1.65079 0
M  V30 1707 H 160.094 -0.546634 -0.774529 0
M  V30 1708 H 159.8 -1.51577 -3.1736 0
M  V30 1709 H 159.674 0.129796 -3.76977 0
M  V30 1710 H 162.061 0.590371 -2.89134 0
M  V30 1711 H 162.142 -1.08164 -2.31806 0
M  V30 1712 H 161.786 -1.89608 -4.71181 0
M  V30 1713 H 161.716 -0.203127 -5.26208 0
M  V30 1714 H 164.207 -0.548216 -3.73902 0
M  V30 1715 H 164.52 -1.73609 -7.53047 0
M  V30 1716 H 162.865 -1.55454 -6.77391 0
M  V30 1717 H 166.056 -0.762321 -4.61851 0
M  V30 1718 H 166.229 -1.30378 -6.34749 0
M  V30 1719 N 159.635 1.57281 -0.100228 0
M  V30 1720 C 160.565 2.17328 0.853857 0
M  V30 1721 C 161.546 1.10804 1.2906 0
M  V30 1722 O 162.731 1.38963 1.35657 0
M  V30 1723 C 159.861 2.75772 2.11109 0
M  V30 1724 C 158.815 3.87713 1.81279 0
M  V30 1725 C 158.141 4.32882 3.13874 0
M  V30 1726 C 159.441 5.10677 1.09574 0
M  V30 1727 H 161.135 2.97305 0.353545 0
M  V30 1728 H 158.681 1.43009 0.168612 0
M  V30 1729 H 160.634 3.16433 2.78296 0
M  V30 1730 H 159.358 1.93057 2.63432 0
M  V30 1731 H 158.017 3.476 1.16489 0
M  V30 1732 H 157.665 3.47051 3.64095 0
M  V30 1733 H 157.365 5.08358 2.94696 0
M  V30 1734 H 158.889 4.7618 3.82211 0
M  V30 1735 H 160.303 5.48474 1.66879 0
M  V30 1736 H 158.7 5.91615 1.00557 0
M  V30 1737 H 159.77 4.84835 0.0793299 0
M  V30 1738 N 161.113 -0.173488 1.56642 0
M  V30 1739 C 162.36 -0.890465 1.81871 0
M  V30 1740 C 162.688 -1.82339 0.67696 0
M  V30 1741 O 161.943 -1.92795 -0.335926 0
M  V30 1742 C 162.242 -1.72069 3.13252 0
M  V30 1743 C 161.908 -0.936878 4.41059 0
M  V30 1744 C 160.57 -0.720545 4.75775 0
M  V30 1745 C 162.922 -0.386919 5.19762 0
M  V30 1746 C 160.25 0.0568829 5.86672 0
M  V30 1747 C 162.602 0.37741 6.31473 0
M  V30 1748 C 161.266 0.604563 6.64757 0
M  V30 1749 H 160.536 -0.325844 0.665512 0
M  V30 1750 H 163.183 -0.155527 1.90867 0
M  V30 1751 H 161.488 -2.52496 2.99588 0
M  V30 1752 H 163.185 -2.27844 3.29982 0
M  V30 1753 H 159.775 -1.11553 4.13828 0
M  V30 1754 H 163.959 -0.541398 4.93338 0
M  V30 1755 H 159.215 0.242635 6.10918 0
M  V30 1756 H 163.389 0.810825 6.91664 0
M  V30 1757 H 161.016 1.20885 7.50527 0
M  V30 1758 N 162.591 -1.51276 -0.441967 0
M  V30 1759 C 163.521 -1.752 -1.54361 0
M  V30 1760 C 164.502 -0.601682 -1.59103 0
M  V30 1761 O 165.687 -0.843913 -1.74905 0
M  V30 1762 C 162.817 -1.87282 -2.92477 0
M  V30 1763 C 161.771 -3.02687 -3.02596 0
M  V30 1764 C 161.097 -2.99947 -4.42647 0
M  V30 1765 C 162.397 -4.4273 -2.77106 0
M  V30 1766 H 164.091 -2.67442 -1.34592 0
M  V30 1767 H 161.637 -1.28694 -0.646048 0
M  V30 1768 H 163.59 -2.02602 -3.695 0
M  V30 1769 H 162.314 -0.916844 -3.13467 0
M  V30 1770 H 160.973 -2.87065 -2.28012 0
M  V30 1771 H 160.621 -2.02136 -4.60597 0
M  V30 1772 H 160.321 -3.77439 -4.50348 0
M  V30 1773 H 161.845 -3.17354 -5.2165 0
M  V30 1774 H 163.259 -4.58727 -3.43864 0
M  V30 1775 H 161.656 -5.21893 -2.96222 0
M  V30 1776 H 162.726 -4.53087 -1.72744 0
M  V30 1777 N 164.069 0.697108 -1.41344 0
M  V30 1778 C 165.317 1.45426 -1.40341 0
M  V30 1779 C 165.638 1.94996 -0.0128787 0
M  V30 1780 O 164.908 1.71599 0.945027 0
M  V30 1781 H 163.488 0.539594 -0.516573 0
M  V30 1782 H 166.15 0.825201 -1.76569 0
M  V30 1783 H 165.246 2.31817 -2.08967 0
M  V30 1784 N 165.547 1.27147 0.931209 0
M  V30 1785 C 166.777 1.15914 1.71019 0
M  V30 1786 C 167.185 -0.287112 1.87009 0
M  V30 1787 O 166.528 -1.20761 1.38429 0
M  V30 1788 C 166.59 1.76647 3.13107 0
M  V30 1789 C 166.254 3.25807 3.20467 0
M  V30 1790 C 167.251 4.22489 3.02983 0
M  V30 1791 C 164.936 3.66452 3.43538 0
M  V30 1792 C 166.93 5.57794 3.08454 0
M  V30 1793 C 164.617 5.01888 3.48643 0
M  V30 1794 C 165.615 5.97369 3.31119 0
M  V30 1795 O 165.303 7.30337 3.35952 0
M  V30 1796 H 165.035 0.404062 0.54195 0
M  V30 1797 H 167.589 1.68457 1.17521 0
M  V30 1798 H 165.819 1.18578 3.68071 0
M  V30 1799 H 167.508 1.60179 3.72958 0
M  V30 1800 H 168.274 3.92425 2.85004 0
M  V30 1801 H 164.153 2.92611 3.5623 0
M  V30 1802 H 167.697 6.32298 2.94694 0
M  V30 1803 H 163.594 5.31609 3.66145 0
M  V30 1804 H 164.362 7.38739 3.5243 0
M  V30 1805 N 167.025 -1.13721 1.09112 0
M  V30 1806 C 167.988 -2.17222 0.731241 0
M  V30 1807 C 168.988 -1.59035 -0.237566 0
M  V30 1808 O 170.178 -1.74192 -0.0161704 0
M  V30 1809 C 167.31 -3.40804 0.0808443 0
M  V30 1810 H 168.503 -2.50573 1.64783 0
M  V30 1811 H 166.056 -1.28493 0.889897 0
M  V30 1812 H 166.791 -3.1304 -0.847127 0
M  V30 1813 H 166.576 -3.84306 0.777896 0
M  V30 1814 H 168.066 -4.1731 -0.155657 0
M  V30 1815 N 168.503 -0.877838 -1.30888 0
M  V30 1816 C 169.433 -0.35534 -2.3078 0
M  V30 1817 C 170.414 0.557994 -1.60687 0
M  V30 1818 O 171.599 0.473355 -1.88343 0
M  V30 1819 C 168.729 0.437221 -3.44537 0
M  V30 1820 C 167.683 -0.383715 -4.26276 0
M  V30 1821 C 167.009 0.535014 -5.32017 0
M  V30 1822 C 168.309 -1.62201 -4.96476 0
M  V30 1823 H 170.003 -1.19007 -2.74732 0
M  V30 1824 H 167.549 -0.573698 -1.32078 0
M  V30 1825 H 169.502 0.813334 -4.13477 0
M  V30 1826 H 168.226 1.30553 -2.99372 0
M  V30 1827 H 166.885 -0.741874 -3.59015 0
M  V30 1828 H 166.533 1.40083 -4.831 0
M  V30 1829 H 166.233 -0.0104211 -5.87599 0
M  V30 1830 H 167.757 0.907799 -6.03814 0
M  V30 1831 H 169.171 -1.31689 -5.5797 0
M  V30 1832 H 167.568 -2.10711 -5.61891 0
M  V30 1833 H 168.638 -2.37044 -4.23011 0
M  V30 1834 N 169.982 1.44106 -0.638065 0
M  V30 1835 C 171.228 2.02277 -0.145546 0
M  V30 1836 C 171.561 1.50125 1.23191 0
M  V30 1837 O 170.836 0.688133 1.8192 0
M  V30 1838 C 171.119 3.59829 -0.139791 0
M  V30 1839 C 170.972 4.22247 -1.55008 0
M  V30 1840 C 172.291 4.36873 0.531966 0
M  V30 1841 H 169.41 0.734992 -0.0543632 0
M  V30 1842 H 172.052 1.71592 -0.815863 0
M  V30 1843 H 170.202 3.86102 0.431007 0
M  V30 1844 H 171.874 4.07057 -2.1703 0
M  V30 1845 H 170.117 3.79476 -2.10191 0
M  V30 1846 H 170.788 5.31284 -1.49804 0
M  V30 1847 H 173.264 4.16074 0.0464781 0
M  V30 1848 H 172.14 5.4657 0.505206 0
M  V30 1849 H 172.401 4.11995 1.60352 0
M  V30 1850 N 171.46 0.379036 1.52974 0
M  V30 1851 C 172.709 -0.207612 2.00629 0
M  V30 1852 C 173.022 -1.48758 1.27006 0
M  V30 1853 O 174.228 -2.15365 1.65318 0
M  V30 1854 C 172.684 -0.42053 3.57435 0
M  V30 1855 C 172.292 0.845587 4.39948 0
M  V30 1856 C 174.036 -0.964102 4.13407 0
M  V30 1857 C 171.943 0.601513 5.88333 0
M  V30 1858 H 170.873 -0.0813591 0.749598 0
M  V30 1859 H 173.524 0.499853 1.76561 0
M  V30 1860 H 171.906 -1.18959 3.7771 0
M  V30 1861 H 173.08 1.61848 4.31442 0
M  V30 1862 H 171.395 1.31336 3.95145 0
M  V30 1863 H 173.992 -1.16225 5.21916 0
M  V30 1864 H 174.335 -1.93019 3.68849 0
M  V30 1865 H 174.868 -0.25487 3.96983 0
M  V30 1866 H 171.607 1.53831 6.37194 0
M  V30 1867 H 171.127 -0.132628 5.99653 0
M  V30 1868 H 172.806 0.232134 6.46583 0
M  V30 1869 N 172.938 -1.57226 0.108567 0
M  V30 1870 C 174.185 -1.94833 -0.551943 0
M  V30 1871 C 174.513 -0.991204 -1.67348 0
M  V30 1872 O 173.768 -0.0131878 -1.95696 0
M  V30 1873 C 174.067 -3.38911 -1.13463 0
M  V30 1874 C 173.733 -4.50696 -0.135509 0
M  V30 1875 C 172.395 -4.80998 0.139252 0
M  V30 1876 C 174.747 -5.18333 0.545957 0
M  V30 1877 C 172.075 -5.76259 1.10194 0
M  V30 1878 C 174.427 -6.14627 1.49721 0
M  V30 1879 C 173.091 -6.43327 1.78006 0
M  V30 1880 H 172.361 -0.712944 -0.20197 0
M  V30 1881 H 175.008 -1.90582 0.18726 0
M  V30 1882 H 173.313 -3.39805 -1.95037 0
M  V30 1883 H 175.01 -3.65317 -1.65362 0
M  V30 1884 H 171.6 -4.27087 -0.359846 0
M  V30 1885 H 175.784 -4.95087 0.346842 0
M  V30 1886 H 171.04 -5.96804 1.32795 0
M  V30 1887 H 175.214 -6.66126 2.03099 0
M  V30 1888 H 172.841 -7.1695 2.52759 0
M  V30 1889 N 174.416 0.165178 -1.56732 0
M  V30 1890 C 175.326 1.22423 -2.00125 0
M  V30 1891 C 176.342 1.48084 -0.913619 0
M  V30 1892 O 177.518 1.60112 -1.22172 0
M  V30 1893 C 174.583 2.54197 -2.35764 0
M  V30 1894 C 173.644 2.36343 -3.58386 0
M  V30 1895 C 172.877 3.61834 -3.92316 0
M  V30 1896 O 173.1 4.67267 -3.27135 0
M  V30 1897 O 172.034 3.55579 -4.85641 0
M  V30 1898 H 175.86 0.885886 -2.90492 0
M  V30 1899 H 173.445 0.372518 -1.44681 0
M  V30 1900 H 175.327 3.3192 -2.59629 0
M  V30 1901 H 174.002 2.87598 -1.48557 0
M  V30 1902 H 172.909 1.56632 -3.39731 0
M  V30 1903 H 174.242 2.07865 -4.46154 0
M  V30 1904 N 175.894 1.51508 0.433938 0
M  V30 1905 C 176.827 1.67756 1.54704 0
M  V30 1906 C 177.805 0.525127 1.53887 0
M  V30 1907 O 178.989 0.749393 1.72963 0
M  V30 1908 C 176.116 1.69424 2.9328 0
M  V30 1909 C 175.162 2.90673 3.12108 0
M  V30 1910 S 175.995 4.51431 2.88046 0
M  V30 1911 C 177.151 4.55849 4.28897 0
M  V30 1912 H 177.384 2.61904 1.40689 0
M  V30 1913 H 174.917 1.41235 0.62386 0
M  V30 1914 H 176.875 1.7107 3.73156 0
M  V30 1915 H 175.536 0.764464 3.04655 0
M  V30 1916 H 174.729 2.88251 4.13434 0
M  V30 1917 H 174.331 2.86786 2.40062 0
M  V30 1918 H 176.623 4.31699 5.22152 0
M  V30 1919 H 177.566 5.57676 4.36351 0
M  V30 1920 H 177.974 3.85137 4.12711 0
M  V30 1921 N 177.372 -0.689602 1.41712 0
M  V30 1922 C 178.783 -1.26973 1.36875 0
M  V30 1923 C 179.134 -1.96124 0.054748 0
M  V30 1924 O 178.259 -1.99141 -0.84687 0
M  V30 1925 C 178.854 -2.30912 2.47922 0
M  V30 1926 C 177.413 -2.84486 2.46464 0
M  V30 1927 C 176.56 -1.58603 2.27465 0
M  V30 1928 H 179.511 -0.48396 1.51141 0
M  V30 1929 H 179.532 -3.12331 2.17323 0
M  V30 1930 H 179.044 -1.80554 3.43543 0
M  V30 1931 H 177.145 -3.39005 1.54617 0
M  V30 1932 H 177.258 -3.34511 3.42986 0
M  V30 1933 H 175.622 -1.84632 1.75451 0
M  V30 1934 H 176.405 -1.10233 3.25121 0
M  V30 1935 N 178.85 -1.27639 -0.924453 0
M  V30 1936 C 179.8 -1.07295 -2.01176 0
M  V30 1937 C 180.784 5.77352e-05 -1.609 0
M  V30 1938 O 181.976 -0.218855 -1.75642 0
M  V30 1939 C 179.105 -0.725592 -3.35544 0
M  V30 1940 C 178.191 -1.83691 -3.82254 0
M  V30 1941 N 178.582 -3.07697 -4.01443 0
M  V30 1942 C 176.88 -1.72433 -4.11319 0
M  V30 1943 C 177.581 -3.80037 -4.40394 0
M  V30 1944 N 176.557 -3.0782 -4.48049 0
M  V30 1945 H 180.359 -2.01399 -2.14046 0
M  V30 1946 H 177.873 -1.18401 -1.11153 0
M  V30 1947 H 179.87 -0.560959 -4.13109 0
M  V30 1948 H 178.53 0.207782 -3.24034 0
M  V30 1949 H 179.541 -3.43424 -3.8766 0
M  V30 1950 H 176.218 -0.862005 -4.08504 0
M  V30 1951 H 177.608 -4.86632 -4.63291 0
M  V30 1952 N 180.328 1.1314 -1.09713 0
M  V30 1953 C 181.258 2.20748 -0.761102 0
M  V30 1954 C 182.239 1.68061 0.262566 0
M  V30 1955 O 183.424 1.93765 0.129977 0
M  V30 1956 C 180.554 3.46812 -0.184054 0
M  V30 1957 C 179.508 4.12606 -1.13757 0
M  V30 1958 C 178.834 5.33031 -0.422083 0
M  V30 1959 C 180.134 4.59603 -2.48118 0
M  V30 1960 H 181.828 2.49113 -1.66082 0
M  V30 1961 H 179.374 1.19734 -0.799987 0
M  V30 1962 H 181.327 4.21353 0.0631215 0
M  V30 1963 H 180.051 3.17851 0.750868 0
M  V30 1964 H 178.71 3.40036 -1.37007 0
M  V30 1965 H 178.358 5.00335 0.517072 0
M  V30 1966 H 178.058 5.77999 -1.05788 0
M  V30 1967 H 179.582 6.10325 -0.183277 0
M  V30 1968 H 180.996 5.25552 -2.29059 0
M  V30 1969 H 179.393 5.15321 -3.07514 0
M  V30 1970 H 180.463 3.73971 -3.08665 0
M  V30 1971 N 181.806 0.884767 1.30421 0
M  V30 1972 C 183.222 0.57874 1.48737 0
M  V30 1973 C 183.422 -0.883567 1.81095 0
M  V30 1974 O 182.478 -1.6648 1.89844 0
M  V30 1975 C 183.791 1.49171 2.61091 0
M  V30 1976 C 185.339 1.49532 2.74971 0
M  V30 1977 C 185.814 2.39421 3.90438 0
M  V30 1978 N 187.305 2.37383 3.97748 0
M  V30 1979 C 188.04 3.03647 4.86401 0
M  V30 1980 N 187.536 3.79136 5.79852 0
M  V30 1981 N 189.329 2.9288 4.79768 0
M  V30 1982 H 181.48 1.83075 1.0769 0
M  V30 1983 H 183.743 0.783637 0.533495 0
M  V30 1984 H 183.449 2.53291 2.44001 0
M  V30 1985 H 183.323 1.20113 3.57565 0
M  V30 1986 H 185.71 0.46163 2.91467 0
M  V30 1987 H 185.791 1.8262 1.79119 0
M  V30 1988 H 185.435 3.42874 3.74699 0
M  V30 1989 H 185.365 2.03649 4.85628 0
M  V30 1990 H 187.856 1.82525 3.30897 0
M  V30 1991 H 188.169 4.26789 6.4426 0
M  V30 1992 H 186.514 3.83243 5.79784 0
M  V30 1993 H 189.705 2.33433 4.05742 0
M  V30 1994 H 189.878 3.448 5.4865 0
M  V30 1995 N 183.284 -1.43765 0.645699 0
M  V30 1996 C 184.561 -1.9541 0.0862963 0
M  V30 1997 C 184.941 -1.58725 -1.39175 0
M  V30 1998 O 184.289 -0.868581 -2.11348 0
M  V30 1999 C 184.499 -3.47488 0.324565 0
M  V30 2000 C 185.847 -4.24001 0.225497 0
M  V30 2001 O 186.871 -3.55274 0.256715 0
M  V30 2002 O 185.73 -5.46313 0.142801 0
M  V30 2003 H 182.824 -0.826882 -0.0139483 0
M  V30 2004 H 185.37 -1.53743 0.718415 0
M  V30 2005 H 184.142 -3.67289 1.3496 0
M  V30 2006 H 183.765 -3.96135 -0.340987 0
M  V30 2007 N 184.763 -0.387143 -1.52771 0
M  V30 2008 C 186.009 0.196025 -2.0185 0
M  V30 2009 C 186.342 1.46641 -1.27319 0
M  V30 2010 O 185.617 1.90889 -0.373032 0
M  V30 2011 C 185.9 0.466136 -3.5707 0
M  V30 2012 C 185.753 -0.819385 -4.42274 0
M  V30 2013 C 187.072 1.25768 -4.21747 0
M  V30 2014 H 184.191 0.0697708 -0.73369 0
M  V30 2015 H 186.833 -0.516286 -1.82851 0
M  V30 2016 H 184.983 1.07293 -3.7339 0
M  V30 2017 H 186.655 -1.4563 -4.37709 0
M  V30 2018 H 184.898 -1.43517 -4.09372 0
M  V30 2019 H 185.569 -0.585065 -5.48891 0
M  V30 2020 H 188.045 0.744167 -4.09391 0
M  V30 2021 H 186.921 1.41541 -5.30337 0
M  V30 2022 H 187.182 2.27228 -3.79236 0
M  V30 2023 N 186.241 1.57166 -0.116904 0
M  V30 2024 C 187.204 2.14039 0.819742 0
M  V30 2025 C 188.204 1.07477 1.19605 0
M  V30 2026 O 189.394 1.33263 1.1219 0
M  V30 2027 C 186.526 2.67891 2.10826 0
M  V30 2028 H 187.719 2.98128 0.325511 0
M  V30 2029 H 185.272 1.55739 0.132312 0
M  V30 2030 H 186.007 1.87384 2.64685 0
M  V30 2031 H 185.792 3.45823 1.84793 0
M  V30 2032 H 187.282 3.11809 2.77785 0
M  V30 2033 N 187.719 -0.156864 1.56817 0
M  V30 2034 C 188.649 -1.19589 2.00551 0
M  V30 2035 C 189.63 -1.4536 0.883426 0
M  V30 2036 O 190.815 -1.56449 1.15054 0
M  V30 2037 C 187.945 -2.53143 2.37773 0
M  V30 2038 C 186.899 -2.41913 3.53075 0
M  V30 2039 C 186.225 -3.80088 3.76081 0
M  V30 2040 C 187.525 -1.91157 4.86062 0
M  V30 2041 H 189.219 -0.832293 2.87599 0
M  V30 2042 H 186.765 -0.398918 1.38364 0
M  V30 2043 H 188.718 -3.26047 2.66967 0
M  V30 2044 H 187.442 -2.91319 1.4765 0
M  V30 2045 H 186.101 -1.71462 3.24031 0
M  V30 2046 H 185.749 -4.15683 2.83225 0
M  V30 2047 H 185.449 -3.73439 4.53671 0
M  V30 2048 H 186.973 -4.54556 4.0769 0
M  V30 2049 H 188.387 -2.53846 5.14038 0
M  V30 2050 H 186.784 -1.95422 5.67389 0
M  V30 2051 H 187.854 -0.866673 4.77092 0
M  V30 2052 N 189.197 -1.51736 -0.425897 0
M  V30 2053 C 190.608 -1.5732 -1.00536 0
M  V30 2054 C 190.959 -0.403537 -1.92005 0
M  V30 2055 O 190.084 0.478256 -2.11049 0
M  V30 2056 C 190.679 -2.85119 -1.8301 0
M  V30 2057 C 189.238 -2.93236 -2.35987 0
M  V30 2058 C 188.385 -2.52098 -1.15508 0
M  V30 2059 H 191.336 -1.57348 -0.206739 0
M  V30 2060 H 191.357 -2.69526 -2.68581 0
M  V30 2061 H 190.869 -3.7023 -1.16411 0
M  V30 2062 H 188.97 -2.12581 -3.06007 0
M  V30 2063 H 189.083 -3.9713 -2.68001 0
M  V30 2064 H 187.447 -2.05558 -1.50393 0
M  V30 2065 H 188.23 -3.39565 -0.505014 0
M  V30 2066 N 190.675 0.682077 -1.42076 0
M  V30 2067 C 191.638 1.77756 -1.44691 0
M  V30 2068 C 192.638 1.5726 -0.335535 0
M  V30 2069 O 193.828 1.63686 -0.596037 0
M  V30 2070 C 190.96 3.16301 -1.27146 0
M  V30 2071 H 192.153 1.76826 -2.42224 0
M  V30 2072 H 189.706 0.891012 -1.28416 0
M  V30 2073 H 190.441 3.22862 -0.305075 0
M  V30 2074 H 190.226 3.32581 -2.07683 0
M  V30 2075 H 191.716 3.96241 -1.31843 0
M  V30 2076 N 192.153 1.28127 0.917671 0
M  V30 2077 C 193.083 1.14248 2.03641 0
M  V30 2078 C 194.064 0.0412748 1.7005 0
M  V30 2079 O 195.249 0.217566 1.92977 0
M  V30 2080 C 192.379 0.799431 3.37974 0
M  V30 2081 C 191.333 1.85497 3.85713 0
M  V30 2082 C 190.659 1.36565 5.16966 0
M  V30 2083 C 191.959 3.26085 4.08002 0
M  V30 2084 H 193.653 2.07835 2.15511 0
M  V30 2085 H 191.199 1.00064 1.03553 0
M  V30 2086 H 193.152 0.689114 4.15727 0
M  V30 2087 H 191.876 -0.172145 3.26146 0
M  V30 2088 H 190.535 1.95437 3.10161 0
M  V30 2089 H 190.183 0.383253 5.01538 0
M  V30 2090 H 189.883 2.07143 5.49878 0
M  V30 2091 H 191.407 1.26848 5.97279 0
M  V30 2092 H 192.821 3.19089 4.76293 0
M  V30 2093 H 191.218 3.94462 4.52238 0
M  V30 2094 H 192.288 3.70394 3.12948 0
M  V30 2095 N 193.631 -1.12557 1.10312 0
M  V30 2096 C 194.879 -1.83675 0.843091 0
M  V30 2097 C 195.2 -1.84435 -0.633131 0
M  V30 2098 O 194.47 -1.30657 -1.45964 0
M  V30 2099 H 193.05 -0.680138 0.308904 0
M  V30 2100 H 195.712 -1.36301 1.39313 0
M  V30 2101 H 194.808 -2.87908 1.2048 0
M  V30 2102 N 195.109 -0.891671 -1.2995 0
M  V30 2103 C 196.072 -0.36828 -2.26222 0
M  V30 2104 C 197.072 0.493014 -1.53056 0
M  V30 2105 O 198.262 0.299213 -1.71611 0
M  V30 2106 C 195.394 0.47442 -3.37583 0
M  V30 2107 H 196.587 -1.21844 -2.74033 0
M  V30 2108 H 194.14 -0.669107 -1.41254 0
M  V30 2109 H 194.875 1.34489 -2.95099 0
M  V30 2110 H 194.66 -0.142615 -3.91841 0
M  V30 2111 H 196.15 0.83218 -4.09224 0
M  V30 2112 N 196.587 1.43421 -0.653314 0
M  V30 2113 C 197.833 2.02111 -0.166992 0
M  V30 2114 C 198.166 1.51423 1.21592 0
M  V30 2115 O 197.441 0.707389 1.8118 0
M  V30 2116 C 197.724 3.5966 -0.177948 0
M  V30 2117 C 197.577 4.20579 -1.59478 0
M  V30 2118 C 198.896 4.37413 0.4856 0
M  V30 2119 H 196.015 0.734374 -0.0621557 0
M  V30 2120 H 198.657 1.70717 -0.834016 0
M  V30 2121 H 196.807 3.86537 0.390032 0
M  V30 2122 H 198.479 4.04732 -2.21336 0
M  V30 2123 H 196.722 3.77226 -2.14204 0
M  V30 2124 H 197.393 5.29665 -1.5543 0
M  V30 2125 H 199.869 4.161 0.00234528 0
M  V30 2126 H 198.745 5.47075 0.447207 0
M  V30 2127 H 199.006 4.13672 1.55974 0
M  V30 2128 N 198.065 0.39524 1.52563 0
M  V30 2129 C 198.995 -0.428384 2.29537 0
M  V30 2130 C 199.976 -1.05831 1.33169 0
M  V30 2131 O 201.161 -1.06995 1.62067 0
M  V30 2132 C 198.291 -1.55274 3.10656 0
M  V30 2133 C 197.245 -1.04855 4.14957 0
M  V30 2134 C 196.571 -2.26543 4.84337 0
M  V30 2135 C 197.871 -0.112324 5.22179 0
M  V30 2136 H 199.565 0.213867 2.98635 0
M  V30 2137 H 197.111 0.104298 1.43622 0
M  V30 2138 H 199.064 -2.1358 3.63265 0
M  V30 2139 H 197.788 -2.22266 2.39302 0
M  V30 2140 H 196.447 -0.487985 3.63338 0
M  V30 2141 H 196.095 -2.92059 4.09525 0
M  V30 2142 H 195.795 -1.93466 5.54837 0
M  V30 2143 H 197.319 -2.85481 5.39753 0
M  V30 2144 H 198.733 -0.603752 5.70112 0
M  V30 2145 H 197.13 0.128968 5.99961 0
M  V30 2146 H 198.2 0.837052 4.77621 0
M  V30 2147 N 199.544 -1.57102 0.125237 0
M  V30 2148 C 200.96 -1.57915 -0.231322 0
M  V30 2149 C 201.16 -1.13833 -1.66266 0
M  V30 2150 O 200.216 -0.828581 -2.38518 0
M  V30 2151 C 201.529 -3.00699 0.00766489 0
M  V30 2152 C 203.077 -3.12947 -0.0577483 0
M  V30 2153 C 203.552 -4.57742 0.153626 0
M  V30 2154 N 205.043 -4.63092 0.0998073 0
M  V30 2155 C 205.778 -5.72905 0.238174 0
M  V30 2156 N 205.274 -6.91445 0.433057 0
M  V30 2157 N 207.067 -5.6182 0.177308 0
M  V30 2158 H 199.218 -1.84055 1.06007 0
M  V30 2159 H 201.481 -0.850905 0.417929 0
M  V30 2160 H 201.187 -3.3726 0.997431 0
M  V30 2161 H 201.061 -3.70236 -0.721452 0
M  V30 2162 H 203.448 -2.7624 -1.03804 0
M  V30 2163 H 203.529 -2.4594 0.70335 0
M  V30 2164 H 203.173 -4.95149 1.13092 0
M  V30 2165 H 203.103 -5.22848 -0.627534 0
M  V30 2166 H 205.594 -3.77871 -0.047051 0
M  V30 2167 H 205.907 -7.70985 0.529332 0
M  V30 2168 H 204.252 -6.93415 0.469109 0
M  V30 2169 H 207.443 -4.68093 0.0259748 0
M  V30 2170 H 207.616 -6.47357 0.288582 0
M  V30 2171 N 201.022 0.148545 -1.56898 0
M  V30 2172 C 202.27 0.859717 -1.82902 0
M  V30 2173 C 202.591 1.81775 -0.70588 0
M  V30 2174 O 201.861 1.93994 0.272586 0
M  V30 2175 H 200.441 0.320469 -0.674766 0
M  V30 2176 H 203.103 0.142918 -1.94375 0
M  V30 2177 H 202.199 1.4229 -2.77777 0
M  V30 2178 N 202.5 1.5196 0.417844 0
M  V30 2179 C 203.463 1.74065 1.49111 0
M  V30 2180 C 204.463 0.610537 1.48758 0
M  V30 2181 O 205.653 0.87832 1.50437 0
M  V30 2182 C 202.785 1.81502 2.88565 0
M  V30 2183 H 203.978 2.69869 1.30807 0
M  V30 2184 H 201.531 1.42244 0.647785 0
M  V30 2185 H 202.266 0.875813 3.1225 0
M  V30 2186 H 202.051 2.63651 2.90225 0
M  V30 2187 H 203.541 2.00376 3.66387 0
M  V30 2188 N 203.978 -0.674533 1.42435 0
M  V30 2189 C 205.224 -1.43671 1.43131 0
M  V30 2190 C 205.557 -1.94142 0.0476021 0
M  V30 2191 O 204.832 -1.70924 -0.928188 0
M  V30 2192 C 205.115 -2.63355 2.45594 0
M  V30 2193 C 204.968 -2.18514 3.93156 0
M  V30 2194 C 206.287 -3.65571 2.45043 0
M  V30 2195 H 203.406 -0.521077 0.521198 0
M  V30 2196 H 206.048 -0.766551 1.7385 0
M  V30 2197 H 204.198 -3.2053 2.19528 0
M  V30 2198 H 205.87 -1.66504 4.30202 0
M  V30 2199 H 204.113 -1.50086 4.07009 0
M  V30 2200 H 204.784 -3.04484 4.60428 0
M  V30 2201 H 207.26 -3.18113 2.68223 0
M  V30 2202 H 206.136 -4.46893 3.18713 0
M  V30 2203 H 206.397 -4.16716 1.47649 0
M  V30 2204 N 205.456 -1.28612 -0.910864 0
M  V30 2205 C 206.872 -1.06381 -1.18976 0
M  V30 2206 C 207.072 0.191998 -2.00583 0
M  V30 2207 O 206.128 0.892869 -2.36187 0
M  V30 2208 C 207.441 -2.31295 -1.92154 0
M  V30 2209 C 208.989 -2.36503 -2.05025 0
M  V30 2210 C 209.464 -3.61191 -2.81612 0
M  V30 2211 N 210.955 -3.61847 -2.89172 0
M  V30 2212 C 211.69 -4.55004 -3.4894 0
M  V30 2213 N 211.186 -5.58482 -4.09963 0
M  V30 2214 N 212.979 -4.42594 -3.46506 0
M  V30 2215 H 205.13 -2.09221 -0.366094 0
M  V30 2216 H 207.393 -0.921003 -0.224629 0
M  V30 2217 H 207.099 -3.228 -1.39618 0
M  V30 2218 H 206.973 -2.37934 -2.9269 0
M  V30 2219 H 209.36 -1.45494 -2.5674 0
M  V30 2220 H 209.441 -2.33857 -1.03657 0
M  V30 2221 H 209.085 -4.52545 -2.30576 0
M  V30 2222 H 209.015 -3.61092 -3.83302 0
M  V30 2223 H 211.506 -2.87022 -2.45819 0
M  V30 2224 H 211.819 -6.25704 -4.53557 0
M  V30 2225 H 210.164 -5.62305 -4.08459 0
M  V30 2226 H 213.355 -3.60953 -2.98045 0
M  V30 2227 H 213.528 -5.15381 -3.92793 0
M  V30 2228 N 206.934 1.1197 -1.10907 0
M  V30 2229 C 208.18 1.8386 -0.855773 0
M  V30 2230 C 208.513 1.84134 0.617103 0
M  V30 2231 O 207.788 1.29041 1.45529 0
M  V30 2232 C 208.071 3.31305 -1.411 0
M  V30 2233 C 207.924 3.39456 -2.9511 0
M  V30 2234 C 209.243 4.2721 -1.05736 0
M  V30 2235 H 206.362 0.667545 -0.312334 0
M  V30 2236 H 209.004 1.31331 -1.37303 0
M  V30 2237 H 207.154 3.76169 -0.97105 0
M  V30 2238 H 208.826 3.03191 -3.47668 0
M  V30 2239 H 207.069 2.79849 -3.31462 0
M  V30 2240 H 207.74 4.43209 -3.29044 0
M  V30 2241 H 210.216 3.90497 -1.43706 0
M  V30 2242 H 209.092 5.28775 -1.47269 0
M  V30 2243 H 209.353 4.42088 0.0325958 0
M  V30 2244 N 208.412 0.89855 1.29475 0
M  V30 2245 C 209.322 0.379974 2.31502 0
M  V30 2246 C 210.338 -0.524695 1.659 0
M  V30 2247 O 211.514 -0.414551 1.97087 0
M  V30 2248 C 208.579 -0.385138 3.44554 0
M  V30 2249 C 207.64 0.550914 4.2575 0
M  V30 2250 C 206.873 -0.177778 5.33404 0
M  V30 2251 O 207.096 -1.40189 5.52904 0
M  V30 2252 O 206.03 0.479106 5.9999 0
M  V30 2253 H 209.856 1.22639 2.77837 0
M  V30 2254 H 207.441 0.662834 1.33891 0
M  V30 2255 H 209.323 -0.817841 4.13388 0
M  V30 2256 H 207.998 -1.20763 3.0033 0
M  V30 2257 H 206.905 1.03271 3.59564 0
M  V30 2258 H 208.238 1.33979 4.73614 0
M  V30 2259 N 209.89 -1.43072 0.660911 0
M  V30 2260 C 210.837 -2.30785 -0.0259884 0
M  V30 2261 C 211.807 -1.45184 -0.806888 0
M  V30 2262 O 212.992 -1.74041 -0.781943 0
M  V30 2263 C 210.132 -3.30861 -0.981067 0
M  V30 2264 C 209.245 -4.31558 -0.195458 0
M  V30 2265 C 208.38 -5.18712 -1.14503 0
M  V30 2266 C 207.419 -6.11097 -0.350299 0
M  V30 2267 N 206.556 -6.90849 -1.25186 0
M  V30 2268 H 211.396 -2.88975 0.727846 0
M  V30 2269 H 208.933 -1.42353 0.370682 0
M  V30 2270 H 210.891 -3.87399 -1.54849 0
M  V30 2271 H 209.521 -2.74304 -1.70169 0
M  V30 2272 H 208.573 -3.77252 0.488374 0
M  V30 2273 H 209.885 -4.9701 0.422176 0
M  V30 2274 H 209.039 -5.79914 -1.78284 0
M  V30 2275 H 207.778 -4.53404 -1.79656 0
M  V30 2276 H 206.783 -5.48976 0.300808 0
M  V30 2277 H 208.008 -6.7845 0.296941 0
M  V30 2278 H 205.954 -6.28182 -1.89005 0
M  V30 2279 H 205.871 -7.52854 -0.688971 0
M  V30 2280 H 207.139 -7.5655 -1.87757 0
M  V30 2281 N 211.368 -0.403325 -1.52352 0
M  V30 2282 C 212.316 0.439752 -2.28405 0
M  V30 2283 C 213.31 1.05089 -1.32863 0
M  V30 2284 O 214.516 0.989759 -1.50345 0
M  V30 2285 H 210.891 0.160587 -0.734653 0
M  V30 2286 H 212.862 -0.222983 -2.97566 0
M  V30 2287 C 211.611 1.54736 -3.11371 0
M  V30 2288 H 210.934 1.08643 -3.84755 0
M  V30 2289 H 212.374 2.1112 -3.67701 0
M  V30 2290 C 210.833 2.51141 -2.24566 0
M  V30 2291 O 211.363 3.54887 -1.88196 0
M  V30 2292 N 209.569 2.21213 -1.8845 0
M  V30 2293 H 209.116 1.36878 -2.18225 0
M  V30 2294 H 209.074 2.85963 -1.30662 0
M  V30 2295 N 212.846 1.57033 -0.133567 0
M  V30 2296 C 213.778 2.13176 0.841944 0
M  V30 2297 C 214.791 1.07794 1.22001 0
M  V30 2298 O 215.98 1.35117 1.16643 0
M  V30 2299 C 213.08 2.62847 2.13926 0
M  V30 2300 C 212.253 3.92486 1.93064 0
M  V30 2301 C 211.312 4.27605 3.0666 0
M  V30 2302 O 210.338 4.96168 2.78937 0
M  V30 2303 N 211.54 3.861 4.33483 0
M  V30 2304 H 214.305 2.97503 0.362192 0
M  V30 2305 H 211.866 1.61821 0.05042 0
M  V30 2306 H 213.858 2.83363 2.88942 0
M  V30 2307 H 212.428 1.83319 2.53205 0
M  V30 2308 H 211.648 3.80732 1.02159 0
M  V30 2309 H 212.936 4.77225 1.76447 0
M  V30 2310 H 212.334 3.30828 4.58878 0
M  V30 2311 H 210.891 4.11694 5.05323 0
M  V30 2312 N 214.325 -0.140222 1.56975 0
M  V30 2313 C 215.235 -1.19223 2.02047 0
M  V30 2314 C 216.251 -1.46612 0.937062 0
M  V30 2315 O 217.427 -1.58148 1.24704 0
M  V30 2316 C 214.492 -2.50414 2.39778 0
M  V30 2317 C 213.553 -2.30612 3.621 0
M  V30 2318 C 212.786 -3.55547 3.98023 0
M  V30 2319 O 213.009 -4.62004 3.34528 0
M  V30 2320 O 211.943 -3.47808 4.91237 0
M  V30 2321 H 215.769 -0.839559 2.91865 0
M  V30 2322 H 213.354 -0.349453 1.45256 0
M  V30 2323 H 215.236 -3.27747 2.64877 0
M  V30 2324 H 213.911 -2.85198 1.53114 0
M  V30 2325 H 212.818 -1.51207 3.4218 0
M  V30 2326 H 214.151 -2.00741 4.49404 0
M  V30 2327 N 215.803 -1.52179 -0.40978 0
M  V30 2328 C 216.733 -1.78435 -1.5061 0
M  V30 2329 C 217.714 -0.635295 -1.57791 0
M  V30 2330 O 218.899 -0.880823 -1.73076 0
M  V30 2331 C 216.029 -1.93444 -2.88439 0
M  V30 2332 C 214.983 -3.09038 -2.96108 0
M  V30 2333 C 214.309 -3.09268 -4.36185 0
M  V30 2334 C 215.609 -4.48508 -2.67652 0
M  V30 2335 H 217.303 -2.70237 -1.28889 0
M  V30 2336 H 214.849 -1.30036 -0.618605 0
M  V30 2337 H 216.802 -2.10394 -3.65119 0
M  V30 2338 H 215.526 -0.983129 -3.11452 0
M  V30 2339 H 214.185 -2.91837 -2.21872 0
M  V30 2340 H 213.833 -2.11861 -4.56206 0
M  V30 2341 H 213.533 -3.86907 -4.42241 0
M  V30 2342 H 215.057 -3.28348 -5.14801 0
M  V30 2343 H 216.471 -4.65918 -3.34056 0
M  V30 2344 H 214.868 -5.28059 -2.85085 0
M  V30 2345 H 215.938 -4.56649 -1.63095 0
M  V30 2346 N 217.281 0.66697 -1.42791 0
M  V30 2347 C 218.521 1.43892 -1.4517 0
M  V30 2348 C 218.885 1.91877 -0.0687551 0
M  V30 2349 O 220.086 2.6878 0.0327455 0
M  V30 2350 C 218.357 2.59839 -2.45395 0
M  V30 2351 S 219.916 3.48572 -2.66539 0
M  V30 2352 H 216.734 0.491356 -0.513897 0
M  V30 2353 H 219.336 0.775656 -1.79454 0
M  V30 2354 H 218.04 2.22838 -3.44632 0
M  V30 2355 H 217.571 3.3103 -2.12562 0
M  V30 2356 H 219.586 4.56094 -1.95429 0
M  V30 2357 N 218.759 1.29093 0.90403 0
M  V30 2358 C 219.709 1.10482 1.99443 0
M  V30 2359 C 220.693 0.0255401 1.6088 0
M  V30 2360 O 221.885 0.24677 1.75271 0
M  V30 2361 C 219.014 0.778882 3.34348 0
M  V30 2362 C 218.1 1.89749 3.79284 0
M  V30 2363 N 218.491 3.14045 3.96497 0
M  V30 2364 C 216.789 1.78955 4.08523 0
M  V30 2365 C 217.49 3.86996 4.34292 0
M  V30 2366 N 216.466 3.14909 4.43095 0
M  V30 2367 H 220.268 2.04778 2.10815 0
M  V30 2368 H 217.782 1.20155 1.09255 0
M  V30 2369 H 219.779 0.62661 4.12164 0
M  V30 2370 H 218.439 -0.156205 3.24324 0
M  V30 2371 H 219.45 3.49548 3.82148 0
M  V30 2372 H 216.127 0.926886 4.07081 0
M  V30 2373 H 217.517 4.93941 4.55491 0
M  V30 2374 N 220.237 -1.11381 1.11499 0
M  V30 2375 C 221.167 -2.19509 0.796125 0
M  V30 2376 C 222.148 -1.68458 -0.235796 0
M  V30 2377 O 223.333 -1.93947 -0.0991344 0
M  V30 2378 C 220.463 -3.46475 0.239205 0
M  V30 2379 C 219.417 -4.10744 1.20307 0
M  V30 2380 C 218.743 -5.32293 0.50683 0
M  V30 2381 C 220.043 -4.55597 2.55399 0
M  V30 2382 H 221.737 -2.46439 1.70024 0
M  V30 2383 H 219.283 -1.18446 0.818935 0
M  V30 2384 H 221.236 -4.214 0.00392006 0
M  V30 2385 H 219.96 -3.19006 -0.700206 0
M  V30 2386 H 218.619 -3.37813 1.42399 0
M  V30 2387 H 218.267 -5.01095 -0.437408 0
M  V30 2388 H 217.967 -5.76243 1.1497 0
M  V30 2389 H 219.491 -6.09956 0.280351 0
M  V30 2390 H 220.905 -5.21841 2.37391 0
M  V30 2391 H 219.302 -5.10363 3.15673 0
M  V30 2392 H 220.372 -3.69013 3.14575 0
M  V30 2393 N 221.715 -0.905404 -1.28997 0
M  V30 2394 C 222.94 -0.549175 -1.99997 0
M  V30 2395 C 223.365 0.860276 -1.67275 0
M  V30 2396 O 222.723 1.57355 -0.900502 0
M  V30 2397 C 222.771 -0.755185 -3.52604 0
M  V30 2398 O 221.875 0.189692 -4.11964 0
M  V30 2399 H 221.216 -0.213899 -0.628604 0
M  V30 2400 H 223.746 -1.21856 -1.64354 0
M  V30 2401 H 223.756 -0.662045 -4.02593 0
M  V30 2402 H 222.431 -1.78271 -3.75755 0
M  V30 2403 H 221.008 0.0485257 -3.72868 0
M  V30 2404 N 223.193 1.4272 -0.668489 0
M  V30 2405 C 224.421 2.05966 -0.196348 0
M  V30 2406 C 224.836 1.50191 1.14403 0
M  V30 2407 O 224.193 0.639208 1.7094 0
M  V30 2408 C 224.244 3.61314 -0.115815 0
M  V30 2409 O 223.965 4.1502 -1.40322 0
M  V30 2410 C 225.466 4.41663 0.380579 0
M  V30 2411 H 222.686 0.663954 -0.0969829 0
M  V30 2412 H 225.23 1.82966 -0.913446 0
M  V30 2413 H 223.385 3.83448 0.551931 0
M  V30 2414 H 223.799 5.08832 -1.27243 0
M  V30 2415 H 225.273 5.5065 0.385848 0
M  V30 2416 H 225.75 4.15792 1.41471 0
M  V30 2417 H 226.356 4.24534 -0.255209 0
M  V30 2418 N 224.671 0.411399 1.52136 0
M  V30 2419 C 225.92 -0.165009 2.01024 0
M  V30 2420 C 226.233 -1.4603 1.30133 0
M  V30 2421 O 227.439 -2.1181 1.69849 0
M  V30 2422 C 225.895 -0.344618 3.58246 0
M  V30 2423 C 225.503 0.938716 4.38055 0
M  V30 2424 C 227.247 -0.876195 4.15359 0
M  V30 2425 C 225.154 0.726172 5.86925 0
M  V30 2426 H 224.084 -0.0654407 0.751155 0
M  V30 2427 H 226.735 0.537192 1.75461 0
M  V30 2428 H 225.117 -1.10921 3.80148 0
M  V30 2429 H 226.291 1.70963 4.27912 0
M  V30 2430 H 224.606 1.39688 3.92271 0
M  V30 2431 H 227.203 -1.05128 5.24263 0
M  V30 2432 H 227.546 -1.85152 3.7286 0
M  V30 2433 H 228.079 -0.170607 3.97434 0
M  V30 2434 H 224.818 1.67312 6.33788 0
M  V30 2435 H 224.338 -0.00540283 5.998 0
M  V30 2436 H 226.017 0.369231 6.45946 0
M  V30 2437 N 226.149 -1.5696 0.141893 0
M  V30 2438 C 227.426 -1.87553 -0.555281 0
M  V30 2439 C 227.806 -1.04699 -1.83306 0
M  V30 2440 O 227.154 -0.132346 -2.28116 0
M  V30 2441 C 227.364 -3.39093 -0.825664 0
M  V30 2442 C 228.712 -4.08199 -1.16869 0
M  V30 2443 O 229.736 -3.44242 -0.915185 0
M  V30 2444 O 228.595 -5.21139 -1.6455 0
M  V30 2445 H 225.689 -0.777188 -0.282679 0
M  V30 2446 H 228.235 -1.68763 0.17812 0
M  V30 2447 H 227.007 -3.91221 0.0788633 0
M  V30 2448 H 226.63 -3.63393 -1.61343 0
M  V30 2449 N 227.627 0.131896 -1.57047 0
M  V30 2450 C 228.873 0.838268 -1.85323 0
M  V30 2451 C 229.228 1.78098 -0.727937 0
M  V30 2452 O 228.521 1.89645 0.27304 0
M  V30 2453 C 228.715 1.63703 -3.17704 0
M  V30 2454 C 228.544 0.773167 -4.43004 0
M  V30 2455 C 227.314 0.432956 -5.03442 0
M  V30 2456 C 229.512 0.0966216 -5.14209 0
M  V30 2457 N 227.494 -0.442924 -6.123 0
M  V30 2458 C 228.865 -0.638778 -6.16701 0
M  V30 2459 C 230.92 0.018861 -4.97896 0
M  V30 2460 C 229.623 -1.44462 -7.04644 0
M  V30 2461 C 231.649 -0.773762 -5.86316 0
M  V30 2462 C 231.011 -1.4974 -6.883 0
M  V30 2463 H 227.11 0.284086 -0.728573 0
M  V30 2464 H 229.694 0.102731 -1.94429 0
M  V30 2465 H 227.865 2.3437 -3.09718 0
M  V30 2466 H 229.597 2.28774 -3.33833 0
M  V30 2467 H 226.352 0.772237 -4.67262 0
M  V30 2468 H 226.776 -0.872332 -6.71356 0
M  V30 2469 H 231.418 0.56397 -4.19022 0
M  V30 2470 H 229.136 -2.00093 -7.82936 0
M  V30 2471 H 232.722 -0.83612 -5.75761 0
M  V30 2472 H 231.602 -2.10087 -7.55535 0
M  V30 2473 N 229.106 1.52395 0.401703 0
M  V30 2474 C 230.354 1.66488 1.14569 0
M  V30 2475 C 230.675 0.400897 1.90835 0
M  V30 2476 O 229.945 -0.584415 1.8698 0
M  V30 2477 H 228.525 0.613672 0.425929 0
M  V30 2478 H 231.187 1.89464 0.457093 0
M  V30 2479 H 230.283 2.50942 1.85566 0
M  V30 2480 N 230.584 -0.659388 1.43143 0
M  V30 2481 C 231.514 -1.78422 1.50625 0
M  V30 2482 C 232.495 -1.66216 0.361443 0
M  V30 2483 O 233.68 -1.85404 0.577834 0
M  V30 2484 C 230.81 -3.16815 1.42287 0
M  V30 2485 C 229.764 -3.43777 2.54954 0
M  V30 2486 C 229.09 -4.81905 2.31671 0
M  V30 2487 C 230.39 -3.39134 3.97222 0
M  V30 2488 H 232.084 -1.72417 2.44771 0
M  V30 2489 H 229.63 -0.828084 1.17808 0
M  V30 2490 H 231.583 -3.95253 1.46127 0
M  V30 2491 H 230.307 -3.23534 0.446435 0
M  V30 2492 H 228.966 -2.67707 2.50457 0
M  V30 2493 H 228.614 -4.85294 1.32284 0
M  V30 2494 H 228.314 -5.00906 3.07192 0
M  V30 2495 H 229.838 -5.62609 2.37284 0
M  V30 2496 H 231.252 -4.07518 4.03239 0
M  V30 2497 H 229.649 -3.69671 4.72719 0
M  V30 2498 H 230.719 -2.37426 4.22797 0
M  V30 2499 N 232.062 -1.29571 -0.897171 0
M  V30 2500 C 232.992 -1.17473 -2.01798 0
M  V30 2501 C 233.973 -0.068323 -1.69963 0
M  V30 2502 O 235.158 -0.248239 -1.92607 0
M  V30 2503 C 232.288 -0.853099 -3.36659 0
M  V30 2504 C 231.242 -1.9161 -3.82713 0
M  V30 2505 C 230.568 -1.44773 -5.14728 0
M  V30 2506 C 231.868 -3.32535 -4.02763 0
M  V30 2507 H 233.562 -2.11237 -2.12177 0
M  V30 2508 H 231.108 -1.01699 -1.01948 0
M  V30 2509 H 233.061 -0.755165 -4.14578 0
M  V30 2510 H 231.785 0.120236 -3.26379 0
M  V30 2511 H 230.444 -2.00346 -3.07013 0
M  V30 2512 H 230.092 -0.462995 -5.00865 0
M  V30 2513 H 229.792 -2.15865 -5.46513 0
M  V30 2514 H 231.316 -1.36334 -5.95185 0
M  V30 2515 H 232.73 -3.26626 -4.71156 0
M  V30 2516 H 231.127 -4.01607 -4.45905 0
M  V30 2517 H 232.197 -3.75326 -3.07016 0
M  V30 2518 N 233.54 1.10788 -1.12088 0
M  V30 2519 C 234.472 2.16816 -0.743213 0
M  V30 2520 C 235.485 1.6119 0.228412 0
M  V30 2521 O 236.674 1.78497 0.0102931 0
M  V30 2522 C 233.774 3.38809 -0.0787313 0
M  V30 2523 C 232.947 4.23885 -1.0789 0
M  V30 2524 C 232.006 5.24334 -0.442713 0
M  V30 2525 O 231.032 5.58497 -1.09864 0
M  V30 2526 N 232.234 5.75079 0.791457 0
M  V30 2527 H 234.999 2.49825 -1.65552 0
M  V30 2528 H 232.56 1.26373 -1.012 0
M  V30 2529 H 234.552 4.03107 0.358766 0
M  V30 2530 H 233.122 3.03805 0.736275 0
M  V30 2531 H 232.342 3.55939 -1.69414 0
M  V30 2532 H 233.63 4.77562 -1.75533 0
M  V30 2533 H 233.028 5.49517 1.3434 0
M  V30 2534 H 231.585 6.4118 1.17183 0
M  V30 2535 N 235.018 0.912232 1.28515 0
M  V30 2536 C 236.429 0.591352 1.77087 0
M  V30 2537 C 236.78 -0.8933 1.74684 0
M  V30 2538 O 235.905 -1.69876 1.34056 0
M  V30 2539 C 236.5 1.06668 3.2157 0
M  V30 2540 C 235.059 0.79675 3.67871 0
M  V30 2541 C 234.206 1.23427 2.48316 0
M  V30 2542 H 237.157 1.09365 1.15 0
M  V30 2543 H 237.178 0.407455 3.78312 0
M  V30 2544 H 236.69 2.14726 3.23287 0
M  V30 2545 H 234.791 -0.270679 3.71616 0
M  V30 2546 H 234.904 1.40343 4.58084 0
M  V30 2547 H 233.268 0.653036 2.46186 0
M  V30 2548 H 234.051 2.32316 2.52753 0
M  V30 2549 N 236.496 -1.42363 0.676048 0
M  V30 2550 C 237.459 -2.29199 0.00766941 0
M  V30 2551 C 238.459 -1.43389 -0.727745 0
M  V30 2552 O 239.649 -1.64764 -0.56556 0
M  V30 2553 C 236.781 -3.2591 -0.999785 0
M  V30 2554 H 237.974 -2.89794 0.771988 0
M  V30 2555 H 235.527 -1.50024 0.438468 0
M  V30 2556 H 236.262 -2.70256 -1.79255 0
M  V30 2557 H 236.047 -3.89202 -0.475829 0
M  V30 2558 H 237.537 -3.91028 -1.46583 0
M  V30 2559 N 237.974 -0.419461 -1.51915 0
M  V30 2560 C 239.385 0.0477853 -1.86639 0
M  V30 2561 C 239.736 1.43531 -1.33766 0
M  V30 2562 O 238.861 2.05401 -0.68113 0
M  V30 2563 C 239.456 0.0934885 -3.38671 0
M  V30 2564 C 238.015 0.505097 -3.72996 0
M  V30 2565 C 237.162 -0.313792 -2.75519 0
M  V30 2566 H 240.113 -0.636088 -1.45395 0
M  V30 2567 H 240.134 0.906667 -3.6954 0
M  V30 2568 H 239.646 -0.916501 -3.77123 0
M  V30 2569 H 237.747 1.52135 -3.40126 0
M  V30 2570 H 237.86 0.242309 -4.78487 0
M  V30 2571 H 236.224 0.225363 -2.53701 0
M  V30 2572 H 237.007 -1.32232 -3.16812 0
M  V30 2573 N 239.452 1.56882 -0.150215 0
M  V30 2574 C 240.7 1.9584 0.499105 0
M  V30 2575 C 241.021 1.03623 1.65188 0
M  V30 2576 O 240.291 0.0984084 1.95653 0
M  V30 2577 H 238.871 0.723119 0.187373 0
M  V30 2578 H 241.533 1.9358 -0.226466 0
M  V30 2579 H 240.629 2.99638 0.873122 0
M  V30 2580 N 240.93 -0.123565 1.57115 0
M  V30 2581 C 241.893 -1.13583 1.99076 0
M  V30 2582 C 242.893 -1.34564 0.880296 0
M  V30 2583 O 244.083 -1.31158 1.14644 0
M  V30 2584 C 241.215 -2.49128 2.32698 0
M  V30 2585 H 242.408 -0.775287 2.89706 0
M  V30 2586 H 239.961 -0.36771 1.51913 0
M  V30 2587 H 240.696 -2.90111 1.44934 0
M  V30 2588 H 240.481 -2.35255 3.13684 0
M  V30 2589 H 241.971 -3.2199 2.65918 0
M  V30 2590 N 242.408 -1.52605 -0.393616 0
M  V30 2591 C 243.356 -1.77688 -1.50099 0
M  V30 2592 C 244.35 -0.644615 -1.56656 0
M  V30 2593 O 245.556 -0.826997 -1.59877 0
M  V30 2594 H 241.931 -0.562159 -0.499481 0
M  V30 2595 H 243.902 -2.7043 -1.26135 0
M  V30 2596 C 242.651 -1.95858 -2.87289 0
M  V30 2597 H 241.974 -2.8241 -2.82992 0
M  V30 2598 H 243.414 -2.174 -3.64024 0
M  V30 2599 C 241.873 -0.729848 -3.28899 0
M  V30 2600 O 242.403 0.0949217 -4.01588 0
M  V30 2601 N 240.609 -0.561283 -2.85128 0
M  V30 2602 H 240.156 -1.23357 -2.26143 0
M  V30 2603 H 240.114 0.2595 -3.13327 0
M  V30 2604 N 243.887 0.651787 -1.4349 0
M  V30 2605 C 244.837 1.75783 -1.45205 0
M  V30 2606 C 245.821 1.57679 -0.320328 0
M  V30 2607 O 247.013 1.67767 -0.564211 0
M  V30 2608 C 244.142 3.14377 -1.3792 0
M  V30 2609 C 243.228 3.38023 -2.56127 0
M  V30 2610 N 243.619 3.32135 -3.81471 0
M  V30 2611 C 241.917 3.68747 -2.50882 0
M  V30 2612 C 242.618 3.55902 -4.60118 0
M  V30 2613 N 241.594 3.77783 -3.90872 0
M  V30 2614 H 245.396 1.69657 -2.39987 0
M  V30 2615 H 242.91 0.853508 -1.38163 0
M  V30 2616 H 244.907 3.93666 -1.37231 0
M  V30 2617 H 243.567 3.21683 -0.441596 0
M  V30 2618 H 244.578 3.11515 -4.13738 0
M  V30 2619 H 241.255 3.8316 -1.65816 0
M  V30 2620 H 242.645 3.57116 -5.69138 0
M  V30 2621 N 245.365 1.30045 0.890287 0
M  V30 2622 C 246.614 1.17929 1.63633 0
M  V30 2623 C 246.927 -0.266204 1.9378 0
M  V30 2624 O 248.133 -0.508804 2.6669 0
M  V30 2625 C 246.589 2.06317 2.94892 0
M  V30 2626 C 246.197 3.55745 2.72305 0
M  V30 2627 C 247.941 2.0295 3.72843 0
M  V30 2628 C 245.848 4.36205 3.99348 0
M  V30 2629 H 244.778 0.437782 0.613892 0
M  V30 2630 H 247.429 1.54754 0.986075 0
M  V30 2631 H 245.811 1.6237 3.61182 0
M  V30 2632 H 246.985 4.07805 2.1455 0
M  V30 2633 H 245.3 3.6088 2.07737 0
M  V30 2634 H 247.897 2.60319 4.67053 0
M  V30 2635 H 248.24 1.0117 4.0382 0
M  V30 2636 H 248.773 2.4499 3.13408 0
M  V30 2637 H 245.512 5.38659 3.73533 0
M  V30 2638 H 245.032 3.8891 4.56628 0
M  V30 2639 H 246.711 4.47362 4.67415 0
M  V30 2640 N 246.843 -1.10192 1.12674 0
M  V30 2641 C 248.089 -1.82475 0.884915 0
M  V30 2642 C 248.422 -1.85093 -0.58773 0
M  V30 2643 O 247.697 -1.3134 -1.43457 0
M  V30 2644 C 247.98 -3.29018 1.46353 0
M  V30 2645 C 247.833 -3.34718 3.00473 0
M  V30 2646 C 249.152 -4.25473 1.12519 0
M  V30 2647 H 246.271 -0.662492 0.322915 0
M  V30 2648 H 248.913 -1.2913 1.39375 0
M  V30 2649 H 247.063 -3.74576 1.03077 0
M  V30 2650 H 248.735 -2.97622 3.52447 0
M  V30 2651 H 246.978 -2.74541 3.35872 0
M  V30 2652 H 247.649 -4.37918 3.36053 0
M  V30 2653 H 250.125 -3.88161 1.499 0
M  V30 2654 H 249.001 -5.26365 1.55663 0
M  V30 2655 H 249.262 -4.42084 0.0377407 0
M  V30 2656 N 248.321 -0.919034 -1.28029 0
M  V30 2657 C 249.569 -0.553838 -1.94363 0
M  V30 2658 C 249.89 0.906357 -1.72656 0
M  V30 2659 O 249.16 1.64143 -1.0693 0
M  V30 2660 H 247.74 -0.201834 -0.719216 0
M  V30 2661 H 250.402 -1.16954 -1.55909 0
M  V30 2662 H 249.498 -0.752758 -3.02886 0
M  V30 2663 N 249.799 1.42003 -0.683588 0
M  V30 2664 C 250.747 2.326 0.000815408 0
M  V30 2665 C 251.741 1.50308 0.781278 0
M  V30 2666 O 252.947 1.66322 0.688251 0
M  V30 2667 H 249.322 0.751758 0.0190616 0
M  V30 2668 H 251.293 2.88011 -0.780528 0
M  V30 2669 C 250.042 3.34978 0.93195 0
M  V30 2670 H 249.365 3.98345 0.340817 0
M  V30 2671 H 250.805 4.00936 1.37936 0
M  V30 2672 C 249.264 2.67925 2.04249 0
M  V30 2673 O 249.794 2.51788 3.12995 0
M  V30 2674 N 248 2.2681 1.81675 0
M  V30 2675 H 247.547 2.40135 0.932363 0
M  V30 2676 H 247.505 1.8228 2.56167 0
M  V30 2677 N 251.277 0.427512 1.51691 0
M  V30 2678 C 252.224 -0.388867 2.275 0
M  V30 2679 C 253.194 -1.02532 1.30677 0
M  V30 2680 O 254.379 -1.0461 1.59566 0
M  V30 2681 C 251.519 -1.48954 3.11298 0
M  V30 2682 C 250.632 -0.872194 4.23104 0
M  V30 2683 C 249.767 -1.94709 4.94228 0
M  V30 2684 C 248.806 -1.30766 5.97969 0
M  V30 2685 N 247.943 -2.32349 6.62539 0
M  V30 2686 H 252.783 0.263997 2.96828 0
M  V30 2687 H 250.32 0.142033 1.46413 0
M  V30 2688 H 252.278 -2.13887 3.58201 0
M  V30 2689 H 250.908 -2.11217 2.44105 0
M  V30 2690 H 249.96 -0.111419 3.80237 0
M  V30 2691 H 251.272 -0.365264 4.97461 0
M  V30 2692 H 250.426 -2.67327 5.44629 0
M  V30 2693 H 249.165 -2.48773 4.1948 0
M  V30 2694 H 248.17 -0.566902 5.4687 0
M  V30 2695 H 249.395 -0.774483 6.74669 0
M  V30 2696 H 247.341 -2.85511 5.90609 0
M  V30 2697 H 247.258 -1.8652 7.3263 0
M  V30 2698 H 248.526 -3.04481 7.17574 0
M  V30 2699 N 252.755 -1.56801 0.158532 0
M  V30 2700 C 253.685 -2.20347 -0.772609 0
M  V30 2701 C 254.666 -1.15518 -1.24859 0
M  V30 2702 O 255.851 -1.43902 -1.30406 0
M  V30 2703 C 252.981 -2.83417 -2.00729 0
M  V30 2704 C 251.935 -3.94174 -1.66765 0
M  V30 2705 C 251.261 -4.44233 -2.97592 0
M  V30 2706 C 252.561 -5.14392 -0.905447 0
M  V30 2707 H 254.255 -2.98413 -0.242959 0
M  V30 2708 H 251.801 -1.43537 -0.115419 0
M  V30 2709 H 253.754 -3.26543 -2.6636 0
M  V30 2710 H 252.478 -2.02701 -2.56086 0
M  V30 2711 H 251.137 -3.51684 -1.03508 0
M  V30 2712 H 250.785 -3.60325 -3.50963 0
M  V30 2713 H 250.485 -5.18945 -2.75626 0
M  V30 2714 H 252.009 -4.90037 -3.64274 0
M  V30 2715 H 253.423 -5.5429 -1.46408 0
M  V30 2716 H 251.82 -5.9494 -0.7853 0
M  V30 2717 H 252.89 -4.84795 0.100668 0
M  V30 2718 N 254.233 0.115231 -1.57178 0
M  V30 2719 C 255.481 0.820727 -1.84685 0
M  V30 2720 C 255.802 1.80237 -0.744279 0
M  V30 2721 O 255.072 1.94529 0.231375 0
M  V30 2722 H 253.652 0.306084 -0.681411 0
M  V30 2723 H 256.314 0.101656 -1.94635 0
M  V30 2724 H 255.41 1.36366 -2.80733 0
M  V30 2725 N 255.711 1.52812 0.385517 0
M  V30 2726 C 256.621 1.80766 1.49535 0
M  V30 2727 C 257.637 0.694651 1.59532 0
M  V30 2728 O 258.813 0.982611 1.75803 0
M  V30 2729 C 255.878 1.97381 2.85029 0
M  V30 2730 C 254.939 3.21295 2.84724 0
M  V30 2731 C 254.172 3.37108 4.13756 0
M  V30 2732 O 254.395 2.5765 5.08893 0
M  V30 2733 O 253.329 4.30378 4.20783 0
M  V30 2734 H 257.155 2.75015 1.28842 0
M  V30 2735 H 254.74 1.37946 0.573697 0
M  V30 2736 H 256.622 2.09996 3.65349 0
M  V30 2737 H 255.297 1.06322 3.05741 0
M  V30 2738 H 254.204 3.1412 2.03174 0
M  V30 2739 H 255.537 4.12212 2.68965 0
M  V30 2740 N 257.189 -0.644168 1.43834 0
M  V30 2741 C 258.099 -1.78563 1.52159 0
M  V30 2742 C 259.115 -1.69147 0.408069 0
M  V30 2743 O 260.291 -1.90156 0.663524 0
M  V30 2744 C 257.356 -3.14888 1.45073 0
M  V30 2745 C 256.417 -3.36034 2.6717 0
M  V30 2746 C 255.65 -4.65855 2.60413 0
M  V30 2747 O 255.873 -5.45805 1.65689 0
M  V30 2748 O 254.807 -4.88918 3.5106 0
M  V30 2749 H 258.633 -1.74494 2.48567 0
M  V30 2750 H 256.218 -0.80378 1.25935 0
M  V30 2751 H 258.1 -3.96179 1.43597 0
M  V30 2752 H 256.775 -3.19528 0.518037 0
M  V30 2753 H 255.682 -2.54472 2.74217 0
M  V30 2754 H 257.015 -3.36247 3.59442 0
M  V30 2755 N 258.668 -1.30515 -0.883378 0
M  V30 2756 C 259.908 -1.20716 -1.64946 0
M  V30 2757 C 260.272 0.234072 -1.90568 0
M  V30 2758 O 261.473 0.455335 -2.64915 0
M  V30 2759 C 259.744 -2.01444 -2.9522 0
M  V30 2760 S 261.303 -2.0836 -3.86175 0
M  V30 2761 H 258.121 -0.430165 -0.566109 0
M  V30 2762 H 260.723 -1.65011 -1.04841 0
M  V30 2763 H 259.427 -3.05268 -2.74298 0
M  V30 2764 H 258.958 -1.57817 -3.60357 0
M  V30 2765 H 260.973 -1.21215 -4.81167 0
M  V30 2766 N 260.146 1.09593 -1.13257 0
M  V30 2767 C 261.109 2.14359 -0.811358 0
M  V30 2768 C 262.109 1.59808 0.178377 0
M  V30 2769 O 263.299 1.74132 -0.0484911 0
M  V30 2770 C 260.431 3.40269 -0.207276 0
M  V30 2771 H 261.624 2.44284 -1.73969 0
M  V30 2772 H 259.177 1.25102 -0.936973 0
M  V30 2773 H 259.912 3.15969 0.73036 0
M  V30 2774 H 259.697 3.81154 -0.919992 0
M  V30 2775 H 261.187 4.176 0.000667944 0
M  V30 2776 N 261.624 0.925811 1.2754 0
M  V30 2777 C 262.901 0.483726 1.89524 0
M  V30 2778 C 263.281 -1.03809 1.83812 0
M  V30 2779 O 262.629 -1.89143 1.28207 0
M  V30 2780 C 262.839 1.02769 3.33526 0
M  V30 2781 C 264.187 1.08703 4.10449 0
M  V30 2782 O 265.211 0.977175 3.42534 0
M  V30 2783 O 264.07 1.25599 5.31871 0
M  V30 2784 H 261.164 0.15529 0.812289 0
M  V30 2785 H 263.71 1.01738 1.35822 0
M  V30 2786 H 262.482 2.07155 3.31967 0
M  V30 2787 H 262.105 0.475567 3.94746 0
M  V30 2788 N 263.102 -1.41638 0.69111 0
M  V30 2789 C 264.348 -2.01598 0.220519 0
M  V30 2790 C 264.681 -1.54594 -1.17535 0
M  V30 2791 O 263.956 -0.755177 -1.79241 0
M  V30 2792 C 264.239 -3.59062 0.273243 0
M  V30 2793 C 264.092 -4.16203 1.70573 0
M  V30 2794 C 265.411 -4.38546 -0.369457 0
M  V30 2795 H 262.53 -0.732468 0.0816045 0
M  V30 2796 H 265.172 -1.68445 0.878986 0
M  V30 2797 H 263.322 -3.87435 -0.287411 0
M  V30 2798 H 264.994 -3.98722 2.31989 0
M  V30 2799 H 263.237 -3.71414 2.2413 0
M  V30 2800 H 263.908 -5.25358 1.69419 0
M  V30 2801 H 266.384 -4.1596 0.107977 0
M  V30 2802 H 265.26 -5.48069 -0.302002 0
M  V30 2803 H 265.521 -4.17662 -1.44951 0
M  V30 2804 N 264.58 -0.43555 -1.51462 0
M  V30 2805 C 265.82 0.130708 -2.03982 0
M  V30 2806 C 266.184 1.40117 -1.31268 0
M  V30 2807 O 267.385 2.04755 -1.74152 0
M  V30 2808 C 265.656 0.346102 -3.5572 0
M  V30 2809 S 267.215 0.876022 -4.29967 0
M  V30 2810 H 264.033 0.0326881 -0.710248 0
M  V30 2811 H 266.635 -0.594544 -1.8624 0
M  V30 2812 H 265.339 -0.584911 -4.0621 0
M  V30 2813 H 264.87 1.09849 -3.77752 0
M  V30 2814 H 266.885 2.15379 -4.47019 0
M  V30 2815 N 266.058 1.56714 -0.166846 0
M  V30 2816 C 267.469 1.83378 0.350646 0
M  V30 2817 C 267.82 1.08646 1.63372 0
M  V30 2818 O 266.945 0.338058 2.13743 0
M  V30 2819 C 267.54 3.32643 0.642963 0
M  V30 2820 C 266.099 3.59818 1.10491 0
M  V30 2821 C 265.246 2.76954 0.138411 0
M  V30 2822 H 268.197 1.53803 -0.391193 0
M  V30 2823 H 268.218 3.49878 1.49551 0
M  V30 2824 H 267.73 3.87007 -0.291055 0
M  V30 2825 H 265.831 3.1086 2.05418 0
M  V30 2826 H 265.944 4.68178 1.01716 0
M  V30 2827 H 264.308 2.4666 0.634911 0
M  V30 2828 H 265.091 3.34097 -0.789549 0
M  V30 2829 N 267.536 -0.106894 1.57237 0
M  V30 2830 C 268.784 -0.810921 1.85117 0
M  V30 2831 C 269.105 -1.7984 0.753827 0
M  V30 2832 O 268.375 -1.94649 -0.221056 0
M  V30 2833 H 266.955 -0.302466 0.683025 0
M  V30 2834 H 269.617 -0.0913324 1.94686 0
M  V30 2835 H 268.713 -1.34875 2.81452 0
M  V30 2836 N 269.014 -1.53014 -0.377408 0
M  V30 2837 C 270.26 -1.68872 -1.12294 0
M  V30 2838 C 270.593 -0.433224 -1.89306 0
M  V30 2839 O 269.868 0.569258 -1.85983 0
M  V30 2840 C 270.151 -2.93115 -2.09179 0
M  V30 2841 C 270.004 -4.28794 -1.35853 0
M  V30 2842 C 271.323 -3.12928 -3.09458 0
M  V30 2843 H 268.442 -0.614518 -0.406862 0
M  V30 2844 H 271.084 -1.85633 -0.40503 0
M  V30 2845 H 269.234 -2.78956 -2.70399 0
M  V30 2846 H 270.906 -4.54742 -0.775082 0
M  V30 2847 H 269.149 -4.28744 -0.660364 0
M  V30 2848 H 269.82 -5.11837 -2.06706 0
M  V30 2849 H 272.296 -3.26194 -2.58334 0
M  V30 2850 H 271.172 -4.01316 -3.74482 0
M  V30 2851 H 271.433 -2.27669 -3.78971 0
M  V30 2852 N 270.492 0.636531 -1.44174 0
M  V30 2853 C 271.422 1.76003 -1.53444 0
M  V30 2854 C 272.403 1.65619 -0.387841 0
M  V30 2855 O 273.588 1.84461 -0.607257 0
M  V30 2856 C 270.718 3.14511 -1.4731 0
M  V30 2857 C 269.672 3.39677 -2.60391 0
M  V30 2858 C 268.998 4.78159 -2.39308 0
M  V30 2859 C 270.298 3.32772 -4.02567 0
M  V30 2860 H 271.992 1.68501 -2.47483 0
M  V30 2861 H 269.538 0.809237 -1.19111 0
M  V30 2862 H 271.491 3.92878 -1.52397 0
M  V30 2863 H 270.215 3.22783 -0.49785 0
M  V30 2864 H 268.874 2.63688 -2.54684 0
M  V30 2865 H 268.522 4.83128 -1.39988 0
M  V30 2866 H 268.222 4.95956 -3.15122 0
M  V30 2867 H 269.746 5.58762 -2.46205 0
M  V30 2868 H 271.16 4.01051 -4.09672 0
M  V30 2869 H 269.557 3.62104 -4.7854 0
M  V30 2870 H 270.627 2.30669 -4.2652 0
M  V30 2871 N 271.97 1.30982 0.876444 0
M  V30 2872 C 273.218 1.20058 1.62575 0
M  V30 2873 C 273.539 -0.242947 1.93481 0
M  V30 2874 O 272.809 -1.1619 1.57724 0
M  V30 2875 H 271.389 0.44135 0.602677 0
M  V30 2876 H 274.051 1.64222 1.04962 0
M  V30 2877 H 273.147 1.76762 2.57219 0
M  V30 2878 N 273.449 -1.08991 1.13837 0
M  V30 2879 C 274.412 -2.13925 0.822715 0
M  V30 2880 C 275.412 -1.599 -0.1699 0
M  V30 2881 O 276.602 -1.74104 0.0577251 0
M  V30 2882 C 273.734 -3.40155 0.225318 0
M  V30 2883 H 274.927 -2.43358 1.75262 0
M  V30 2884 H 272.48 -1.24603 0.943594 0
M  V30 2885 H 273.215 -3.16352 -0.713594 0
M  V30 2886 H 273 -3.80661 0.940193 0
M  V30 2887 H 274.49 -4.17594 0.0214784 0
M  V30 2888 N 274.927 -0.932562 -1.27047 0
M  V30 2889 C 275.89 -0.440064 -2.24936 0
M  V30 2890 C 276.89 0.444071 -1.54547 0
M  V30 2891 O 278.08 0.244465 -1.72476 0
M  V30 2892 C 275.212 0.36678 -3.38921 0
M  V30 2893 H 276.405 -1.305 -2.70018 0
M  V30 2894 H 273.958 -0.713707 -1.39054 0
M  V30 2895 H 274.693 1.25033 -2.99228 0
M  V30 2896 H 274.478 -0.267204 -3.91188 0
M  V30 2897 H 275.968 0.701567 -4.11665 0
M  V30 2898 N 276.405 1.4127 -0.698611 0
M  V30 2899 C 277.653 2.00782 -0.230409 0
M  V30 2900 C 277.974 1.5562 1.17505 0
M  V30 2901 O 277.244 0.78815 1.79346 0
M  V30 2902 H 275.824 0.742464 -0.0821944 0
M  V30 2903 H 278.486 1.72852 -0.90045 0
M  V30 2904 H 277.582 3.11095 -0.25021 0
M  V30 2905 N 277.883 0.443576 1.51229 0
M  V30 2906 C 278.793 -0.370721 2.31652 0
M  V30 2907 C 279.809 -1.02186 1.40833 0
M  V30 2908 O 280.985 -1.01586 1.73903 0
M  V30 2909 C 278.05 -1.45376 3.14749 0
M  V30 2910 C 277.111 -0.822099 4.21355 0
M  V30 2911 C 276.344 -1.85353 5.0048 0
M  V30 2912 O 276.567 -3.07656 4.80316 0
M  V30 2913 O 275.501 -1.4406 5.84406 0
M  V30 2914 H 279.327 0.286002 3.0235 0
M  V30 2915 H 276.912 0.20598 1.47973 0
M  V30 2916 H 278.794 -2.08173 3.66391 0
M  V30 2917 H 277.469 -2.09445 2.46809 0
M  V30 2918 H 276.376 -0.155909 3.73775 0
M  V30 2919 H 277.709 -0.224797 4.91686 0
M  V30 2920 N 279.361 -1.56624 0.175154 0
M  V30 2921 C 280.772 -1.83561 -0.340916 0
M  V30 2922 C 281.123 -1.09511 -1.62794 0
M  V30 2923 O 280.248 -0.349389 -2.13561 0
M  V30 2924 C 280.843 -3.32979 -0.625313 0
M  V30 2925 C 279.402 -3.60399 -1.08581 0
M  V30 2926 C 278.549 -2.77024 -0.123722 0
M  V30 2927 H 281.5 -1.53593 0.399344 0
M  V30 2928 H 281.521 -3.50666 -1.47694 0
M  V30 2929 H 281.033 -3.86847 0.311575 0
M  V30 2930 H 279.134 -3.11945 -2.03767 0
M  V30 2931 H 279.247 -4.68711 -0.992317 0
M  V30 2932 H 277.611 -2.46993 -0.621821 0
M  V30 2933 H 278.394 -3.33674 0.807256 0
M  V30 2934 N 280.839 0.0985539 -1.57292 0
M  V30 2935 C 282.079 0.808332 -1.87737 0
M  V30 2936 C 282.443 1.7607 -0.76572 0
M  V30 2937 O 283.644 2.51358 -0.952499 0
M  V30 2938 C 281.915 1.52093 -3.23423 0
M  V30 2939 S 283.474 2.26947 -3.75554 0
M  V30 2940 H 280.292 0.269377 -0.657995 0
M  V30 2941 H 282.894 0.0656269 -1.9539 0
M  V30 2942 H 281.598 0.81363 -4.02254 0
M  V30 2943 H 281.129 2.30361 -3.189 0
M  V30 2944 H 283.144 3.53027 -3.48692 0
M  V30 2945 N 282.317 1.53212 0.369288 0
M  V30 2946 C 283.28 1.7872 1.43498 0
M  V30 2947 C 284.28 0.657554 1.46741 0
M  V30 2948 O 285.47 0.925736 1.47566 0
M  V30 2949 C 282.602 1.90591 2.82645 0
M  V30 2950 H 283.795 2.73894 1.22156 0
M  V30 2951 H 281.348 1.44233 0.602203 0
M  V30 2952 H 282.083 0.974709 3.09306 0
M  V30 2953 H 281.868 2.72751 2.8169 0
M  V30 2954 H 283.358 2.11931 3.59826 0
M  V30 2955 N 283.795 -0.628877 1.44509 0
M  V30 2956 C 284.742 -1.74074 1.51549 0
M  V30 2957 C 285.712 -1.62084 0.363021 0
M  V30 2958 O 286.897 -1.81975 0.573567 0
M  V30 2959 C 284.037 -3.12328 1.46784 0
M  V30 2960 C 283.15 -3.35277 2.72422 0
M  V30 2961 C 282.285 -4.63515 2.59475 0
M  V30 2962 C 281.324 -4.7965 3.80266 0
M  V30 2963 N 280.461 -5.99168 3.65981 0
M  V30 2964 H 285.301 -1.67392 2.46544 0
M  V30 2965 H 282.838 -0.816527 1.22357 0
M  V30 2966 H 284.796 -3.92286 1.42012 0
M  V30 2967 H 283.426 -3.18018 0.553544 0
M  V30 2968 H 282.478 -2.49242 2.87372 0
M  V30 2969 H 283.79 -3.43078 3.62076 0
M  V30 2970 H 282.944 -5.51638 2.52548 0
M  V30 2971 H 281.683 -4.58076 1.67384 0
M  V30 2972 H 280.688 -3.89957 3.87574 0
M  V30 2973 H 281.913 -4.86902 4.73395 0
M  V30 2974 H 279.859 -5.94814 2.76644 0
M  V30 2975 H 279.776 -6.08035 4.49254 0
M  V30 2976 H 281.044 -6.89846 3.6295 0
M  V30 2977 N 285.273 -1.31445 -0.869486 0
M  V30 2978 C 286.501 -1.24122 -1.65534 0
M  V30 2979 C 286.916 0.193387 -1.87807 0
M  V30 2980 O 286.273 1.12557 -1.43656 0
M  V30 2981 C 286.324 -1.98229 -3.02304 0
M  V30 2982 O 286.045 -3.3609 -2.81026 0
M  V30 2983 C 287.546 -1.97751 -3.96749 0
M  V30 2984 H 284.766 -0.428868 -0.516055 0
M  V30 2985 H 287.31 -1.73328 -1.08525 0
M  V30 2986 H 285.465 -1.52782 -3.56001 0
M  V30 2987 H 285.879 -3.7383 -3.67902 0
M  V30 2988 H 287.353 -2.54114 -4.90031 0
M  V30 2989 H 287.83 -0.960137 -4.28577 0
M  V30 2990 H 288.436 -2.43079 -3.48988 0
M  V30 2991 N 286.751 1.08385 -1.14413 0
M  V30 2992 C 287.979 1.84517 -0.936001 0
M  V30 2993 C 288.394 1.81626 0.515503 0
M  V30 2994 O 287.751 1.22008 1.35721 0
M  V30 2995 C 287.802 3.32049 -1.42918 0
M  V30 2996 O 287.523 3.34951 -2.82381 0
M  V30 2997 C 289.024 4.24986 -1.26103 0
M  V30 2998 H 286.244 0.582491 -0.333084 0
M  V30 2999 H 288.788 1.36885 -1.5193 0
M  V30 3000 H 286.943 3.7707 -0.888641 0
M  V30 3001 H 287.357 4.27048 -3.04517 0
M  V30 3002 H 288.831 5.26615 -1.6547 0
M  V30 3003 H 289.308 4.38726 -0.20392 0
M  V30 3004 H 289.914 3.85791 -1.79012 0
M  V30 3005 N 288.23 0.939286 1.26551 0
M  V30 3006 C 289.477 0.585847 1.9384 0
M  V30 3007 C 289.805 -0.874784 1.73718 0
M  V30 3008 O 289.06 -1.64092 1.06642 0
M  V30 3009 C 289.359 0.872106 3.46596 0
M  V30 3010 C 289.025 2.31632 3.86856 0
M  V30 3011 C 287.687 2.71111 3.97558 0
M  V30 3012 C 290.039 3.25494 4.07066 0
M  V30 3013 C 287.367 4.03553 4.25866 0
M  V30 3014 C 289.719 4.57531 4.36862 0
M  V30 3015 C 288.383 4.96828 4.45778 0
M  V30 3016 H 287.653 0.214377 0.709312 0
M  V30 3017 H 290.3 1.18544 1.50398 0
M  V30 3018 H 288.605 0.18996 3.91339 0
M  V30 3019 H 290.302 0.577442 3.96821 0
M  V30 3020 H 286.892 2.00008 3.79071 0
M  V30 3021 H 291.076 2.9619 3.98227 0
M  V30 3022 H 286.332 4.33665 4.30981 0
M  V30 3023 H 290.506 5.30254 4.51446 0
M  V30 3024 H 288.133 5.99482 4.67468 0
M  V30 3025 N 289.708 -1.40897 0.706093 0
M  V30 3026 C 290.933 -2.05895 0.249435 0
M  V30 3027 C 291.358 -1.52823 -1.09666 0
M  V30 3028 O 290.716 -0.659589 -1.68876 0
M  V30 3029 C 290.764 -3.59872 0.22904 0
M  V30 3030 O 289.868 -4.04708 -0.792784 0
M  V30 3031 H 289.209 -0.653206 0.119241 0
M  V30 3032 H 291.739 -1.80471 0.96391 0
M  V30 3033 H 291.749 -4.07951 0.0634791 0
M  V30 3034 H 290.424 -3.97866 1.21141 0
M  V30 3035 H 289.001 -3.68111 -0.59572 0
M  V30 3036 N 291.186 -0.45159 -1.50991 0
M  V30 3037 C 292.434 0.109857 -2.01801 0
M  V30 3038 C 292.755 1.41958 -1.3369 0
M  V30 3039 O 292.025 1.9003 -0.475951 0
M  V30 3040 H 290.605 0.0435884 -0.745727 0
M  V30 3041 H 293.267 -0.597557 -1.85514 0
M  V30 3042 H 292.363 0.275489 -3.10882 0
M  V30 3043 N 292.664 1.56529 -0.183458 0
M  V30 3044 C 293.614 2.1515 0.754605 0
M  V30 3045 C 294.598 1.08904 1.18443 0
M  V30 3046 O 295.79 1.34997 1.14476 0
M  V30 3047 C 292.919 2.80531 1.97881 0
M  V30 3048 C 292.005 3.93952 1.57043 0
M  V30 3049 N 292.396 4.98221 0.87231 0
M  V30 3050 C 290.694 4.05338 1.86057 0
M  V30 3051 C 291.395 5.77836 0.669377 0
M  V30 3052 N 290.371 5.29858 1.21454 0
M  V30 3053 H 294.173 2.93132 0.212387 0
M  V30 3054 H 291.687 1.62391 0.0167725 0
M  V30 3055 H 293.684 3.20914 2.6612 0
M  V30 3056 H 292.344 2.04035 2.52586 0
M  V30 3057 H 293.355 5.15191 0.529033 0
M  V30 3058 H 290.032 3.39957 2.42354 0
M  V30 3059 H 291.422 6.71799 0.116422 0
M  V30 3060 N 294.142 -0.090211 1.57342 0
M  V30 3061 C 295.37 -0.806224 1.90546 0
M  V30 3062 C 295.785 -1.72041 0.777644 0
M  V30 3063 O 295.142 -1.80778 -0.250103 0
M  V30 3064 C 295.193 -1.61546 3.23396 0
M  V30 3065 O 294.914 -0.738043 4.31839 0
M  V30 3066 C 296.415 -2.4341 3.70495 0
M  V30 3067 H 293.635 -0.230256 0.630257 0
M  V30 3068 H 296.179 -0.0659843 2.04394 0
M  V30 3069 H 294.334 -2.30816 3.11131 0
M  V30 3070 H 294.748 -1.29901 5.08159 0
M  V30 3071 H 296.222 -2.95676 4.66133 0
M  V30 3072 H 296.699 -3.22098 2.98579 0
M  V30 3073 H 297.305 -1.79331 3.85643 0
M  V30 3074 N 295.62 -1.53406 -0.361157 0
M  V30 3075 C 296.897 -1.60411 -1.11927 0
M  V30 3076 C 297.277 -0.414385 -2.06993 0
M  V30 3077 O 296.625 0.594976 -2.20618 0
M  V30 3078 C 296.835 -2.95652 -1.85448 0
M  V30 3079 C 298.183 -3.50386 -2.39823 0
M  V30 3080 O 299.207 -2.97711 -1.95568 0
M  V30 3081 O 298.066 -4.42482 -3.20737 0
M  V30 3082 H 295.16 -0.64811 -0.513695 0
M  V30 3083 H 297.706 -1.65749 -0.364065 0
M  V30 3084 H 296.478 -3.73682 -1.16091 0
M  V30 3085 H 296.101 -2.93825 -2.67866 0
M  V30 3086 N 297.098 0.621204 -1.44841 0
M  V30 3087 C 298.328 1.40548 -1.51426 0
M  V30 3088 C 298.736 1.88673 -0.141083 0
M  V30 3089 O 298.079 1.62053 0.865128 0
M  V30 3090 C 298.141 2.65325 -2.42576 0
M  V30 3091 C 297.805 2.3893 -3.89566 0
M  V30 3092 C 298.802 2.00138 -4.79834 0
M  V30 3093 C 296.487 2.52263 -4.3436 0
M  V30 3094 C 298.481 1.75021 -6.129 0
M  V30 3095 C 296.168 2.2676 -5.67471 0
M  V30 3096 C 297.166 1.88199 -6.56559 0
M  V30 3097 O 296.854 1.62986 -7.87204 0
M  V30 3098 H 296.586 0.437122 -0.515655 0
M  V30 3099 H 299.14 0.765987 -1.90583 0
M  V30 3100 H 297.37 3.31947 -1.98364 0
M  V30 3101 H 299.059 3.27347 -2.39998 0
M  V30 3102 H 299.825 1.89386 -4.46495 0
M  V30 3103 H 295.704 2.81246 -3.65269 0
M  V30 3104 H 299.248 1.44848 -6.82396 0
M  V30 3105 H 295.145 2.37125 -6.00368 0
M  V30 3106 H 295.913 1.7715 -7.991 0
M  V30 3107 N 298.576 1.31904 0.862503 0
M  V30 3108 C 299.992 1.10724 1.14945 0
M  V30 3109 C 300.192 -0.117421 2.01158 0
M  V30 3110 O 299.248 -0.804595 2.39338 0
M  V30 3111 C 300.561 2.38267 1.83437 0
M  V30 3112 C 302.109 2.43949 1.96106 0
M  V30 3113 C 302.584 3.71394 2.68013 0
M  V30 3114 N 304.075 3.72331 2.75543 0
M  V30 3115 C 304.81 4.67641 3.31812 0
M  V30 3116 N 304.306 5.73313 3.88953 0
M  V30 3117 N 306.099 4.5515 3.29841 0
M  V30 3118 H 298.25 2.10436 0.288191 0
M  V30 3119 H 300.513 0.928705 0.190292 0
M  V30 3120 H 300.219 3.27759 1.27542 0
M  V30 3121 H 300.093 2.48633 2.83657 0
M  V30 3122 H 302.48 1.54922 2.51164 0
M  V30 3123 H 302.561 2.37543 0.949059 0
M  V30 3124 H 302.205 4.60791 2.13621 0
M  V30 3125 H 302.135 3.75069 3.69636 0
M  V30 3126 H 304.626 2.95947 2.34997 0
M  V30 3127 H 304.939 6.42107 4.30022 0
M  V30 3128 H 303.284 5.77077 3.87308 0
M  V30 3129 H 306.475 3.71766 2.84443 0
M  V30 3130 H 306.648 5.29604 3.73394 0
M  V30 3131 N 300.054 -1.07777 1.14986 0
M  V30 3132 C 301.294 -1.81888 0.932527 0
M  V30 3133 C 301.658 -1.84509 -0.531064 0
M  V30 3134 O 302.859 -2.54448 -0.866577 0
M  V30 3135 C 301.13 -3.23244 1.52473 0
M  V30 3136 S 302.689 -4.14154 1.44989 0
M  V30 3137 H 299.507 -0.626752 0.335712 0
M  V30 3138 H 302.109 -1.29503 1.46455 0
M  V30 3139 H 300.813 -3.18922 2.58296 0
M  V30 3140 H 300.344 -3.80704 0.991381 0
M  V30 3141 H 302.359 -4.94247 0.439799 0
M  V30 3142 N 301.532 -0.945985 -1.26051 0
M  V30 3143 C 302.778 -0.606539 -1.94146 0
M  V30 3144 C 303.133 0.84586 -1.72809 0
M  V30 3145 O 302.426 1.59781 -1.05738 0
M  V30 3146 C 302.62 -0.890475 -3.46129 0
M  V30 3147 C 302.449 -2.36892 -3.82246 0
M  V30 3148 C 301.219 -3.02494 -4.04753 0
M  V30 3149 C 303.417 -3.34772 -3.90425 0
M  V30 3150 N 301.399 -4.40302 -4.27794 0
M  V30 3151 C 302.77 -4.57855 -4.18054 0
M  V30 3152 C 304.825 -3.2973 -3.73072 0
M  V30 3153 C 303.528 -5.76522 -4.30134 0
M  V30 3154 C 305.554 -4.47727 -3.86386 0
M  V30 3155 C 304.916 -5.69593 -4.14419 0
M  V30 3156 H 301.015 -0.272407 -0.73302 0
M  V30 3157 H 303.599 -1.21638 -1.52027 0
M  V30 3158 H 301.77 -0.309638 -3.87164 0
M  V30 3159 H 303.502 -0.51181 -4.01451 0
M  V30 3160 H 300.257 -2.53095 -4.003 0
M  V30 3161 H 300.681 -5.11646 -4.43337 0
M  V30 3162 H 305.323 -2.36565 -3.50424 0
M  V30 3163 H 303.041 -6.70136 -4.51601 0
M  V30 3164 H 306.627 -4.45363 -3.74356 0
M  V30 3165 H 305.507 -6.59375 -4.24493 0
M  V30 3166 N 303.011 1.40521 -0.713556 0
M  V30 3167 C 304.239 2.05237 -0.261775 0
M  V30 3168 C 304.654 1.53755 1.09567 0
M  V30 3169 O 304.011 0.693268 1.6882 0
M  V30 3170 C 304.062 3.60763 -0.230706 0
M  V30 3171 O 303.783 4.10345 -1.53455 0
M  V30 3172 C 305.284 4.42651 0.239874 0
M  V30 3173 H 302.504 0.660533 -0.118057 0
M  V30 3174 H 305.048 1.79967 -0.971192 0
M  V30 3175 H 303.203 3.8501 0.429661 0
M  V30 3176 H 303.617 5.04526 -1.43366 0
M  V30 3177 H 305.091 5.51599 0.210468 0
M  V30 3178 H 305.568 4.20082 1.28171 0
M  V30 3179 H 306.174 4.23507 -0.390142 0
M  V30 3180 N 304.489 0.459591 1.5075 0
M  V30 3181 C 305.714 -0.0996819 2.0716 0
M  V30 3182 C 306.139 -1.33761 1.32249 0
M  V30 3183 O 305.497 -1.77551 0.366786 0
M  V30 3184 C 305.545 -0.378226 3.58611 0
M  V30 3185 O 304.649 -1.46081 3.85661 0
M  V30 3186 H 303.99 0.00791392 0.663953 0
M  V30 3187 H 306.52 0.647329 1.9409 0
M  V30 3188 H 306.53 -0.622135 4.03229 0
M  V30 3189 H 305.205 0.526439 4.12555 0
M  V30 3190 H 303.782 -1.20511 3.5289 0
M  V30 3191 N 305.967 -1.56429 0.191757 0
M  V30 3192 C 307.192 -2.02309 -0.456706 0
M  V30 3193 C 307.617 -1.07103 -1.5463 0
M  V30 3194 O 306.975 -0.0539677 -1.8122 0
M  V30 3195 C 307.023 -3.46654 -0.993159 0
M  V30 3196 O 306.127 -3.54559 -2.10622 0
M  V30 3197 H 305.468 -0.655303 -0.107114 0
M  V30 3198 H 307.998 -2.02364 0.301653 0
M  V30 3199 H 308.008 -3.86377 -1.31061 0
M  V30 3200 H 306.683 -4.1544 -0.195504 0
M  V30 3201 H 305.26 -3.26708 -1.79767 0
M  V30 3202 N 307.445 0.0818655 -1.57387 0
M  V30 3203 C 308.395 1.10501 -1.99433 0
M  V30 3204 C 309.379 1.35041 -0.874798 0
M  V30 3205 O 310.571 1.35511 -1.13868 0
M  V30 3206 C 307.7 2.42159 -2.43339 0
M  V30 3207 C 306.786 2.20937 -3.62005 0
M  V30 3208 N 307.177 1.69616 -4.76512 0
M  V30 3209 C 305.475 2.51451 -3.68359 0
M  V30 3210 C 306.176 1.62973 -5.58404 0
M  V30 3211 N 305.152 2.08664 -5.01956 0
M  V30 3212 H 308.954 0.701373 -2.85408 0
M  V30 3213 H 306.468 0.289096 -1.59806 0
M  V30 3214 H 308.465 3.16208 -2.71695 0
M  V30 3215 H 307.125 2.83249 -1.58746 0
M  V30 3216 H 308.136 1.38624 -4.99003 0
M  V30 3217 H 304.813 2.95975 -2.94457 0
M  V30 3218 H 306.203 1.24233 -6.60315 0
M  V30 3219 N 308.923 1.53595 0.353017 0
M  V30 3220 C 310.163 1.72094 1.10286 0
M  V30 3221 C 310.527 0.469217 1.86178 0
M  V30 3222 O 311.728 0.531083 2.63501 0
M  V30 3223 C 309.999 2.94386 2.02661 0
M  V30 3224 S 311.558 3.33651 2.84996 0
M  V30 3225 H 308.376 0.605433 0.372789 0
M  V30 3226 H 310.978 1.91722 0.38248 0
M  V30 3227 H 309.682 3.83669 1.45691 0
M  V30 3228 H 309.213 2.77197 2.79152 0
M  V30 3229 H 311.228 2.86645 4.0503 0
M  V30 3230 N 310.401 -0.613514 1.45168 0
M  V30 3231 C 311.333 -1.73825 1.4939 0
M  V30 3232 C 312.346 -1.58175 0.385304 0
M  V30 3233 O 313.535 -1.66165 0.652036 0
M  V30 3234 C 310.635 -3.11758 1.32891 0
M  V30 3235 C 309.808 -3.53704 2.57317 0
M  V30 3236 C 308.867 -4.70579 2.35462 0
M  V30 3237 O 307.893 -4.77996 3.09044 0
M  V30 3238 N 309.095 -5.63454 1.39644 0
M  V30 3239 H 311.86 -1.70669 2.46358 0
M  V30 3240 H 309.421 -0.79862 1.40832 0
M  V30 3241 H 311.413 -3.87692 1.1609 0
M  V30 3242 H 309.983 -3.09456 0.442218 0
M  V30 3243 H 309.203 -2.67794 2.89275 0
M  V30 3244 H 310.491 -3.78486 3.40038 0
M  V30 3245 H 309.889 -5.6017 0.789062 0
M  V30 3246 H 308.446 -6.38944 1.28816 0
M  V30 3247 N 311.879 -1.3236 -0.855495 0
M  V30 3248 C 313.295 -1.11332 -1.14356 0
M  V30 3249 C 313.495 0.106751 -2.01217 0
M  V30 3250 O 312.551 0.791891 -2.39761 0
M  V30 3251 C 313.864 -2.39237 -1.82171 0
M  V30 3252 C 315.412 -2.44986 -1.9481 0
M  V30 3253 C 315.887 -3.7281 -2.66039 0
M  V30 3254 N 317.378 -3.73787 -2.73565 0
M  V30 3255 C 318.113 -4.69394 -3.29327 0
M  V30 3256 N 317.609 -5.75367 -3.85907 0
M  V30 3257 N 319.402 -4.56893 -3.27423 0
M  V30 3258 H 311.553 -2.10586 -0.277027 0
M  V30 3259 H 313.816 -0.929701 -0.185364 0
M  V30 3260 H 313.522 -3.28431 -1.25802 0
M  V30 3261 H 313.396 -2.50134 -2.82335 0
M  V30 3262 H 315.783 -1.56252 -2.50338 0
M  V30 3263 H 315.864 -2.38043 -0.936448 0
M  V30 3264 H 315.508 -4.61918 -2.11174 0
M  V30 3265 H 315.438 -3.77024 -3.67642 0
M  V30 3266 H 317.929 -2.97189 -2.33424 0
M  V30 3267 H 318.242 -6.44378 -4.26611 0
M  V30 3268 H 316.587 -5.79123 -3.84242 0
M  V30 3269 H 319.778 -3.73269 -2.82467 0
M  V30 3270 H 319.951 -5.31577 -3.7058 0
M  V30 3271 N 313.357 1.07166 -1.15556 0
M  V30 3272 C 314.603 1.80065 -0.932984 0
M  V30 3273 C 314.936 1.86586 0.53845 0
M  V30 3274 O 314.211 1.35098 1.39924 0
M  V30 3275 C 314.494 3.25022 -1.55025 0
M  V30 3276 C 314.347 3.26634 -3.09242 0
M  V30 3277 C 315.666 4.22341 -1.2376 0
M  V30 3278 H 312.785 0.653697 -0.340366 0
M  V30 3279 H 315.427 1.25389 -1.4275 0
M  V30 3280 H 313.577 3.71712 -1.12972 0
M  V30 3281 H 315.249 2.88173 -3.60214 0
M  V30 3282 H 313.492 2.65539 -3.43033 0
M  V30 3283 H 314.163 4.28854 -3.47546 0
M  V30 3284 H 316.639 3.8405 -1.60139 0
M  V30 3285 H 315.515 5.22053 -1.69564 0
M  V30 3286 H 315.776 4.41828 -0.154938 0
M  V30 3287 N 314.835 0.952656 1.25548 0
M  V30 3288 C 316.075 0.614013 1.9496 0
M  V30 3289 C 316.439 -0.833215 1.72978 0
M  V30 3290 O 317.64 -1.28135 2.36294 0
M  V30 3291 C 315.911 0.960562 3.4425 0
M  V30 3292 S 317.47 0.734195 4.32614 0
M  V30 3293 H 314.288 0.225754 0.674208 0
M  V30 3294 H 316.89 1.22641 1.52248 0
M  V30 3295 H 315.594 2.01103 3.57751 0
M  V30 3296 H 315.125 0.338336 3.91942 0
M  V30 3297 H 317.14 -0.395995 4.94617 0
M  V30 3298 N 316.313 -1.40141 0.720998 0
M  V30 3299 C 317.724 -1.83678 0.334553 0
M  V30 3300 C 318.075 -1.6027 -1.13173 0
M  V30 3301 O 317.2 -1.08643 -1.87152 0
M  V30 3302 C 317.795 -3.33437 0.600437 0
M  V30 3303 C 316.354 -3.75447 0.267642 0
M  V30 3304 C 315.501 -2.63296 0.870097 0
M  V30 3305 H 318.452 -1.29331 0.919732 0
M  V30 3306 H 318.473 -3.80269 -0.132517 0
M  V30 3307 H 317.985 -3.50442 1.66768 0
M  V30 3308 H 316.086 -3.64035 -0.794329 0
M  V30 3309 H 316.199 -4.73344 0.74042 0
M  V30 3310 H 314.563 -2.52954 0.297739 0
M  V30 3311 H 315.346 -2.83112 1.94172 0
M  V30 3312 N 317.792 -0.46758 -1.50504 0
M  V30 3313 C 319.032 0.0874114 -2.04213 0
M  V30 3314 C 319.396 1.37301 -1.34211 0
M  V30 3315 O 320.597 2.01015 -1.78456 0
M  V30 3316 C 318.868 0.270571 -3.56374 0
M  V30 3317 S 320.427 0.784623 -4.31728 0
M  V30 3318 H 317.245 0.0176153 -0.710782 0
M  V30 3319 H 319.847 -0.633915 -1.84937 0
M  V30 3320 H 318.551 -0.670942 -4.04878 0
M  V30 3321 H 318.082 1.01811 -3.79997 0
M  V30 3322 H 320.097 2.05849 -4.51487 0
M  V30 3323 N 319.27 1.56325 -0.20005 0
M  V30 3324 C 320.681 1.8408 0.31167 0
M  V30 3325 C 321.032 1.12087 1.61031 0
M  V30 3326 O 320.157 0.38332 2.12978 0
M  V30 3327 C 320.752 3.33932 0.57226 0
M  V30 3328 C 319.311 3.6208 1.02834 0
M  V30 3329 C 318.458 2.77186 0.079634 0
M  V30 3330 H 321.409 1.52939 -0.423729 0
M  V30 3331 H 321.43 3.52971 1.42096 0
M  V30 3332 H 320.942 3.86303 -0.37308 0
M  V30 3333 H 319.043 3.15147 1.98778 0
M  V30 3334 H 319.156 4.7023 0.917624 0
M  V30 3335 H 317.52 2.47951 0.582448 0
M  V30 3336 H 318.303 3.32347 -0.860238 0
M  V30 3337 N 320.748 -0.0735177 1.57428 0
M  V30 3338 C 321.698 -1.09442 2.00016 0
M  V30 3339 C 322.682 -1.34575 0.881947 0
M  V30 3340 O 323.874 -1.34905 1.14585 0
M  V30 3341 C 321.003 -2.40865 2.4462 0
M  V30 3342 C 320.089 -2.19014 3.63172 0
M  V30 3343 N 320.48 -1.67087 4.77405 0
M  V30 3344 C 318.778 -2.49494 3.69688 0
M  V30 3345 C 319.479 -1.6001 5.5926 0
M  V30 3346 N 318.455 -2.05999 5.03056 0
M  V30 3347 H 322.257 -0.686227 2.85776 0
M  V30 3348 H 319.771 -0.280617 1.59957 0
M  V30 3349 H 321.768 -3.14763 2.73368 0
M  V30 3350 H 320.428 -2.82403 1.60246 0
M  V30 3351 H 321.439 -1.35975 4.99731 0
M  V30 3352 H 318.116 -2.94409 2.96023 0
M  V30 3353 H 319.506 -1.2073 6.60964 0
M  V30 3354 N 322.226 -1.5378 -0.344866 0
M  V30 3355 C 323.474 -1.70625 -1.08311 0
M  V30 3356 C 323.795 -0.471447 -1.89215 0
M  V30 3357 O 323.065 0.514616 -1.8902 0
M  V30 3358 H 321.645 -0.629058 -0.402859 0
M  V30 3359 H 324.307 -1.9103 -0.386459 0
M  V30 3360 H 323.403 -2.57656 -1.76124 0
M  V30 3361 N 323.704 0.605807 -1.45491 0
M  V30 3362 C 324.637 1.73022 -1.48791 0
M  V30 3363 C 325.615 1.58917 -0.344112 0
M  V30 3364 O 326.799 1.80453 -0.544876 0
M  V30 3365 C 323.926 3.10865 -1.34463 0
M  V30 3366 C 322.972 3.43554 -2.5273 0
M  V30 3367 S 323.805 3.38196 -4.15191 0
M  V30 3368 C 324.961 4.78616 -4.03333 0
M  V30 3369 H 325.194 1.69961 -2.43928 0
M  V30 3370 H 322.727 0.782611 -1.33096 0
M  V30 3371 H 324.685 3.90398 -1.26884 0
M  V30 3372 H 323.346 3.1144 -0.40794 0
M  V30 3373 H 322.539 4.43924 -2.38637 0
M  V30 3374 H 322.141 2.71541 -2.5718 0
M  V30 3375 H 324.433 5.68463 -3.68587 0
M  V30 3376 H 325.376 4.97767 -5.03621 0
M  V30 3377 H 325.784 4.54381 -3.34959 0
M  V30 3378 N 325.182 1.32811 0.848464 0
M  V30 3379 C 326.145 1.22194 1.9391 0
M  V30 3380 C 327.145 0.143404 1.60159 0
M  V30 3381 O 328.335 0.394253 1.6968 0
M  V30 3382 C 325.467 0.88067 3.29328 0
M  V30 3383 H 326.66 2.19127 2.04752 0
M  V30 3384 H 324.213 1.16731 1.0394 0
M  V30 3385 H 324.948 -0.0865776 3.24184 0
M  V30 3386 H 324.733 1.66052 3.55203 0
M  V30 3387 H 326.223 0.830871 4.09251 0
M  V30 3388 N 326.66 -1.06551 1.16123 0
M  V30 3389 C 327.9 -1.80889 0.951766 0
M  V30 3390 C 328.264 -1.85062 -0.511465 0
M  V30 3391 O 329.465 -2.55353 -0.83954 0
M  V30 3392 C 327.736 -3.21609 1.55893 0
M  V30 3393 S 329.295 -4.12593 1.49373 0
M  V30 3394 H 326.113 -0.623156 0.342341 0
M  V30 3395 H 328.715 -1.27943 1.47821 0
M  V30 3396 H 327.419 -3.16165 2.61664 0
M  V30 3397 H 326.95 -3.79631 1.0317 0
M  V30 3398 H 328.965 -4.93753 0.492196 0
M  V30 3399 N 328.138 -0.959301 -1.25041 0
M  V30 3400 C 329.366 -0.633949 -1.96948 0
M  V30 3401 C 329.781 0.794916 -1.7125 0
M  V30 3402 O 329.138 1.53231 -0.991287 0
M  V30 3403 C 329.189 -0.888805 -3.50403 0
M  V30 3404 O 328.91 -2.26149 -3.75218 0
M  V30 3405 C 330.411 -0.576482 -4.39536 0
M  V30 3406 H 327.631 -0.237263 -0.627652 0
M  V30 3407 H 330.175 -1.28495 -1.59089 0
M  V30 3408 H 328.33 -0.284145 -3.86357 0
M  V30 3409 H 328.744 -2.33514 -4.6965 0
M  V30 3410 H 330.218 -0.805314 -5.46094 0
M  V30 3411 H 330.695 0.489075 -4.36468 0
M  V30 3412 H 331.301 -1.16067 -4.09156 0
M  V30 3413 N 329.616 1.39756 -0.72842 0
M  V30 3414 C 330.579 2.29012 -0.0927297 0
M  V30 3415 C 331.579 1.45992 0.674025 0
M  V30 3416 O 332.769 1.66749 0.50402 0
M  V30 3417 C 329.901 3.29396 0.878137 0
M  V30 3418 H 331.094 2.86729 -0.879011 0
M  V30 3419 H 328.647 1.48293 -0.493847 0
M  V30 3420 H 329.382 2.76722 1.69101 0
M  V30 3421 H 329.167 3.907 0.331051 0
M  V30 3422 H 330.657 3.96199 1.3197 0
M  V30 3423 N 331.094 0.475555 1.50254 0
M  V30 3424 C 332.51 0.12997 1.5907 0
M  V30 3425 C 332.71 -1.36385 1.48328 0
M  V30 3426 O 331.766 -2.13754 1.34407 0
M  V30 3427 C 333.079 0.684139 2.92814 0
M  V30 3428 C 334.627 0.647965 3.0622 0
M  V30 3429 C 335.102 1.17975 4.42545 0
M  V30 3430 N 336.593 1.13936 4.48969 0
M  V30 3431 C 337.328 1.52129 5.52851 0
M  V30 3432 N 336.824 1.97793 6.63965 0
M  V30 3433 N 338.617 1.43704 5.4342 0
M  V30 3434 H 330.768 1.44706 1.55479 0
M  V30 3435 H 333.031 0.598691 0.735033 0
M  V30 3436 H 332.737 1.73079 3.06164 0
M  V30 3437 H 332.611 0.130204 3.76975 0
M  V30 3438 H 334.998 -0.38979 2.92514 0
M  V30 3439 H 335.079 1.23876 2.23805 0
M  V30 3440 H 334.723 2.21616 4.57 0
M  V30 3441 H 334.653 0.565138 5.23559 0
M  V30 3442 H 337.144 0.804488 3.69238 0
M  V30 3443 H 337.457 2.25072 7.39299 0
M  V30 3444 H 335.802 2.01749 6.65073 0
M  V30 3445 H 338.993 1.07867 4.55502 0
M  V30 3446 H 339.166 1.73794 6.24259 0
M  V30 3447 N 332.573 -1.56217 0.208337 0
M  V30 3448 C 333.821 -1.97558 -0.426076 0
M  V30 3449 C 334.142 -1.09683 -1.61229 0
M  V30 3450 O 333.412 -0.170956 -1.95153 0
M  V30 3451 H 331.992 -0.729575 -0.160405 0
M  V30 3452 H 334.654 -1.92606 0.298155 0
M  V30 3453 H 333.75 -3.02672 -0.761312 0
M  V30 3454 N 334.051 0.0651679 -1.57465 0
M  V30 3455 C 334.961 1.09448 -2.07505 0
M  V30 3456 C 335.977 1.41974 -1.00595 0
M  V30 3457 O 337.153 1.52018 -1.32107 0
M  V30 3458 C 334.218 2.38689 -2.51453 0
M  V30 3459 C 333.279 2.13073 -3.72691 0
M  V30 3460 C 332.512 3.36152 -4.14533 0
M  V30 3461 O 332.735 4.45517 -3.56189 0
M  V30 3462 O 331.669 3.23974 -5.07272 0
M  V30 3463 H 335.495 0.69935 -2.95538 0
M  V30 3464 H 333.08 0.279752 -1.46757 0
M  V30 3465 H 334.962 3.14736 -2.80212 0
M  V30 3466 H 333.637 2.77568 -1.66546 0
M  V30 3467 H 332.544 1.34709 -3.49005 0
M  V30 3468 H 333.877 1.79071 -4.5847 0
M  V30 3469 N 335.529 1.53961 0.336706 0
M  V30 3470 C 336.769 1.73254 1.08454 0
M  V30 3471 C 337.133 0.488937 1.8567 0
M  V30 3472 O 338.334 0.559001 2.62923 0
M  V30 3473 C 336.605 2.96519 1.99528 0
M  V30 3474 S 338.164 3.36655 2.81441 0
M  V30 3475 H 334.982 0.609353 0.366347 0
M  V30 3476 H 337.584 1.92117 0.362124 0
M  V30 3477 H 336.288 3.85193 1.41614 0
M  V30 3478 H 335.819 2.80142 2.76196 0
M  V30 3479 H 337.834 2.90925 4.01967 0
M  V30 3480 N 337.007 -0.598083 1.45811 0
M  V30 3481 C 338.247 -1.36802 1.5187 0
M  V30 3482 C 338.611 -1.9133 0.160224 0
M  V30 3483 O 339.812 -2.6863 0.0955302 0
M  V30 3484 C 338.083 -2.47835 2.57513 0
M  V30 3485 S 339.642 -3.35458 2.82866 0
M  V30 3486 H 336.46 -0.466278 0.536755 0
M  V30 3487 H 339.062 -0.689152 1.82951 0
M  V30 3488 H 337.766 -2.06141 3.54872 0
M  V30 3489 H 337.297 -3.20512 2.28114 0
M  V30 3490 H 339.312 -4.46251 2.16967 0
M  V30 3491 N 338.485 -1.33259 -0.841409 0
M  V30 3492 C 339.435 -1.19872 -1.93945 0
M  V30 3493 C 340.419 -0.102269 -1.60575 0
M  V30 3494 O 341.611 -0.330114 -1.73894 0
M  V30 3495 C 338.74 -0.937517 -3.30251 0
M  V30 3496 C 337.826 -2.07629 -3.69799 0
M  V30 3497 N 338.217 -3.32604 -3.81062 0
M  V30 3498 C 336.515 -1.98242 -3.9952 0
M  V30 3499 C 337.216 -4.07275 -4.15333 0
M  V30 3500 N 336.192 -3.35691 -4.27566 0
M  V30 3501 H 339.994 -2.14604 -2.00805 0
M  V30 3502 H 337.508 -1.2523 -1.03398 0
M  V30 3503 H 339.505 -0.822545 -4.08705 0
M  V30 3504 H 338.165 0.00128798 -3.247 0
M  V30 3505 H 339.176 -3.67382 -3.65035 0
M  V30 3506 H 335.853 -1.12005 -4.02195 0
M  V30 3507 H 337.243 -5.1511 -4.31406 0
M  V30 3508 N 339.963 1.05934 -1.16686 0
M  V30 3509 C 341.191 1.8249 -0.974929 0
M  V30 3510 C 341.606 1.82679 0.476861 0
M  V30 3511 O 340.963 1.2486 1.33103 0
M  V30 3512 C 341.014 3.28943 -1.49929 0
M  V30 3513 O 340.735 3.28886 -2.89423 0
M  V30 3514 C 342.236 4.22215 -1.35089 0
M  V30 3515 H 339.456 0.575295 -0.345365 0
M  V30 3516 H 342 1.33631 -1.548 0
M  V30 3517 H 340.155 3.751 -0.968423 0
M  V30 3518 H 340.569 4.20493 -3.13506 0
M  V30 3519 H 342.043 5.22987 -1.76603 0
M  V30 3520 H 342.52 4.38195 -0.296935 0
M  V30 3521 H 343.126 3.81907 -1.87155 0
M  V30 3522 N 341.441 0.965919 1.2453 0
M  V30 3523 C 342.351 0.502154 2.29163 0
M  V30 3524 C 343.367 -0.436017 1.68448 0
M  V30 3525 O 344.543 -0.309497 1.99008 0
M  V30 3526 C 341.608 -0.201956 3.46111 0
M  V30 3527 C 340.669 0.775821 4.22232 0
M  V30 3528 C 339.902 0.105217 5.33596 0
M  V30 3529 O 340.125 -1.10683 5.59558 0
M  V30 3530 O 339.059 0.796475 5.96607 0
M  V30 3531 H 342.885 1.37194 2.70946 0
M  V30 3532 H 340.47 0.732875 1.30189 0
M  V30 3533 H 342.352 -0.597564 4.17142 0
M  V30 3534 H 341.027 -1.04673 3.06309 0
M  V30 3535 H 339.934 1.22185 3.53584 0
M  V30 3536 H 341.267 1.58896 4.65846 0
M  V30 3537 N 342.919 -1.39368 0.735821 0
M  V30 3538 C 344.159 -2.02349 0.288813 0
M  V30 3539 C 344.523 -1.57127 -1.10341 0
M  V30 3540 O 345.724 -2.12312 -1.64854 0
M  V30 3541 C 343.995 -3.55288 0.387986 0
M  V30 3542 S 345.554 -4.38795 0.0209408 0
M  V30 3543 H 342.372 -0.701944 0.113115 0
M  V30 3544 H 344.974 -1.70164 0.962518 0
M  V30 3545 H 343.678 -3.85691 1.40252 0
M  V30 3546 H 343.209 -3.92227 -0.303512 0
M  V30 3547 H 345.224 -4.81595 -1.19503 0
M  V30 3548 N 344.397 -0.483516 -1.5 0
M  V30 3549 C 345.327 0.293829 -2.31644 0
M  V30 3550 C 346.308 0.978864 -1.39112 0
M  V30 3551 O 347.493 0.973644 -1.68029 0
M  V30 3552 C 344.623 1.36897 -3.19181 0
M  V30 3553 C 343.577 0.804833 -4.20365 0
M  V30 3554 C 342.903 1.9792 -4.96721 0
M  V30 3555 C 344.203 -0.192313 -5.21946 0
M  V30 3556 H 345.897 -0.387616 -2.9688 0
M  V30 3557 H 343.443 -0.187856 -1.42769 0
M  V30 3558 H 345.396 1.92037 -3.751 0
M  V30 3559 H 344.12 2.07936 -2.51853 0
M  V30 3560 H 342.779 0.275319 -3.65565 0
M  V30 3561 H 342.427 2.67686 -4.25856 0
M  V30 3562 H 342.127 1.60789 -5.65173 0
M  V30 3563 H 343.651 2.53526 -5.55479 0
M  V30 3564 H 345.065 0.270333 -5.72662 0
M  V30 3565 H 343.462 -0.478543 -5.98189 0
M  V30 3566 H 344.532 -1.11409 -4.71928 0
M  V30 3567 N 345.875 1.56104 -0.216619 0
M  V30 3568 C 347.123 1.97781 0.415593 0
M  V30 3569 C 347.444 1.10536 1.60645 0
M  V30 3570 O 346.714 0.181303 1.95059 0
M  V30 3571 H 345.294 0.730415 0.156534 0
M  V30 3572 H 347.956 1.92445 -0.308366 0
M  V30 3573 H 347.052 3.03072 0.74525 0
M  V30 3574 N 347.353 -0.0568162 1.57498 0
M  V30 3575 C 348.601 -0.751617 1.87604 0
M  V30 3576 C 348.922 -1.77351 0.81066 0
M  V30 3577 O 348.192 -1.95254 -0.159018 0
M  V30 3578 H 346.772 -0.280583 0.692302 0
M  V30 3579 H 349.434 -0.0293483 1.94878 0
M  V30 3580 H 348.53 -1.25852 2.856 0
M  V30 3581 N 348.832 -1.54138 -0.328536 0
M  V30 3582 C 350.072 -1.73827 -1.07534 0
M  V30 3583 C 350.436 -0.498777 -1.85408 0
M  V30 3584 O 351.637 -0.572937 -2.62623 0
M  V30 3585 C 349.908 -2.97573 -1.97952 0
M  V30 3586 S 351.467 -3.38143 -2.79652 0
M  V30 3587 H 348.285 -0.611287 -0.36311 0
M  V30 3588 H 350.887 -1.92306 -0.351931 0
M  V30 3589 H 349.591 -3.85939 -1.39569 0
M  V30 3590 H 349.122 -2.81603 -2.74706 0
M  V30 3591 H 351.137 -2.93052 -4.00418 0
M  V30 3592 N 350.31 0.590341 -1.46126 0
M  V30 3593 C 351.535 1.37991 -1.54833 0
M  V30 3594 C 351.96 1.87163 -0.187506 0
M  V30 3595 O 351.318 1.61133 0.831008 0
M  V30 3596 C 351.366 2.54867 -2.55098 0
M  V30 3597 O 350.47 3.56061 -2.08073 0
M  V30 3598 H 349.811 0.411265 -0.521303 0
M  V30 3599 H 352.341 0.716819 -1.91632 0
M  V30 3600 H 352.351 3.01886 -2.74461 0
M  V30 3601 H 351.026 2.18429 -3.53923 0
M  V30 3602 H 349.603 3.15574 -1.98664 0
M  V30 3603 N 351.788 1.33704 0.83433 0
M  V30 3604 C 352.72 1.20172 1.9517 0
M  V30 3605 C 353.733 0.131572 1.62267 0
M  V30 3606 O 354.922 0.382406 1.74356 0
M  V30 3607 C 352.022 0.821716 3.28787 0
M  V30 3608 C 351.195 1.98446 3.89792 0
M  V30 3609 C 350.254 1.58469 5.01771 0
M  V30 3610 O 349.28 2.29968 5.20676 0
M  V30 3611 N 350.482 0.492291 5.78409 0
M  V30 3612 H 353.247 2.16429 2.07313 0
M  V30 3613 H 350.808 1.26509 1.0103 0
M  V30 3614 H 352.8 0.536291 4.01131 0
M  V30 3615 H 351.37 -0.0503058 3.1256 0
M  V30 3616 H 350.59 2.43526 3.09982 0
M  V30 3617 H 351.878 2.76236 4.27283 0
M  V30 3618 H 351.276 -0.102349 5.65607 0
M  V30 3619 H 349.833 0.266555 6.51255 0
M  V30 3620 N 353.266 -1.05314 1.17247 0
M  V30 3621 C 354.677 -1.59753 0.96623 0
M  V30 3622 C 355.028 -1.9005 -0.487378 0
M  V30 3623 O 354.153 -1.68126 -1.36245 0
M  V30 3624 C 354.748 -2.90249 1.74759 0
M  V30 3625 C 353.307 -3.41352 1.58606 0
M  V30 3626 C 352.454 -2.15103 1.75002 0
M  V30 3627 H 355.405 -0.881406 1.31973 0
M  V30 3628 H 355.426 -3.60097 1.22925 0
M  V30 3629 H 354.938 -2.68166 2.8055 0
M  V30 3630 H 353.039 -3.68474 0.552985 0
M  V30 3631 H 353.152 -4.16019 2.37624 0
M  V30 3632 H 351.516 -2.25804 1.17833 0
M  V30 3633 H 352.299 -1.95491 2.82202 0
M  V30 3634 N 354.744 -0.972509 -1.24016 0
M  V30 3635 C 355.654 -0.5143 -2.28893 0
M  V30 3636 C 356.67 0.427078 -1.68677 0
M  V30 3637 O 357.846 0.298939 -1.99169 0
M  V30 3638 C 354.911 0.183598 -3.46214 0
M  V30 3639 C 353.972 -0.798202 -4.21814 0
M  V30 3640 C 353.205 -0.133514 -5.33533 0
M  V30 3641 O 353.428 1.07714 -5.60137 0
M  V30 3642 O 352.362 -0.828103 -5.96176 0
M  V30 3643 H 356.188 -1.38629 -2.70214 0
M  V30 3644 H 353.773 -0.739769 -1.29799 0
M  V30 3645 H 355.655 0.575433 -4.17453 0
M  V30 3646 H 354.33 1.03048 -3.0686 0
M  V30 3647 H 353.237 -1.24059 -3.52931 0
M  V30 3648 H 354.57 -1.61364 -4.64997 0
M  V30 3649 N 356.222 1.38976 -0.743202 0
M  V30 3650 C 357.499 1.94351 -0.220705 0
M  V30 3651 C 357.879 1.67935 1.2791 0
M  V30 3652 O 357.227 1.01211 2.04862 0
M  V30 3653 C 357.437 3.44426 -0.563171 0
M  V30 3654 C 358.785 4.2144 -0.517046 0
M  V30 3655 O 359.809 3.52661 -0.500846 0
M  V30 3656 O 358.668 5.44032 -0.518806 0
M  V30 3657 H 355.762 0.825879 -0.043047 0
M  V30 3658 H 358.308 1.48429 -0.822618 0
M  V30 3659 H 357.08 3.5712 -1.59941 0
M  V30 3660 H 356.703 3.97543 0.0672883 0
M  V30 3661 N 357.7 0.491464 1.49741 0
M  V30 3662 C 359.111 0.0413169 1.86654 0
M  V30 3663 C 359.462 -1.36985 1.40462 0
M  V30 3664 O 358.587 -2.01917 0.778354 0
M  V30 3665 C 359.182 0.0682023 3.38731 0
M  V30 3666 C 357.741 -0.32656 3.74981 0
M  V30 3667 C 356.888 0.444888 2.73708 0
M  V30 3668 H 359.839 0.704733 1.42194 0
M  V30 3669 H 359.86 -0.729322 3.73445 0
M  V30 3670 H 359.372 1.09539 3.72321 0
M  V30 3671 H 357.473 -1.35734 3.46997 0
M  V30 3672 H 357.586 -0.013741 4.79098 0
M  V30 3673 H 355.95 -0.104062 2.54487 0
M  V30 3674 H 356.733 1.47197 3.10142 0
M  V30 3675 N 359.178 -1.55987 0.224894 0
M  V30 3676 C 360.594 -1.59066 -0.130426 0
M  V30 3677 C 360.794 -1.24176 -1.5869 0
M  V30 3678 O 359.85 -0.978592 -2.32766 0
M  V30 3679 C 361.163 -3.00042 0.198883 0
M  V30 3680 C 362.711 -3.1268 0.141391 0
M  V30 3681 C 363.186 -4.55839 0.444422 0
M  V30 3682 N 364.677 -4.6152 0.394115 0
M  V30 3683 C 365.412 -5.70231 0.602038 0
M  V30 3684 N 364.908 -6.87291 0.871914 0
M  V30 3685 N 366.701 -5.59555 0.534245 0
M  V30 3686 H 358.852 -1.76941 1.17497 0
M  V30 3687 H 361.115 -0.822604 0.471197 0
M  V30 3688 H 360.821 -3.30234 1.2099 0
M  V30 3689 H 360.695 -3.74075 -0.484535 0
M  V30 3690 H 363.082 -2.82283 -0.860265 0
M  V30 3691 H 363.163 -2.40969 0.858335 0
M  V30 3692 H 362.807 -4.86954 1.44353 0
M  V30 3693 H 362.737 -5.2578 -0.293752 0
M  V30 3694 H 365.228 -3.77405 0.193356 0
M  V30 3695 H 365.541 -7.66058 1.01858 0
M  V30 3696 H 363.886 -6.89028 0.909145 0
M  V30 3697 H 367.077 -4.6698 0.323612 0
M  V30 3698 H 367.25 -6.44211 0.699693 0
M  V30 3699 N 360.656 0.0484629 -1.57525 0
M  V30 3700 C 361.619 1.03956 -2.04269 0
M  V30 3701 C 362.619 1.30211 -0.943496 0
M  V30 3702 O 363.809 1.25539 -1.20771 0
M  V30 3703 C 360.941 2.37742 -2.44319 0
M  V30 3704 H 362.134 0.636182 -2.93075 0
M  V30 3705 H 359.687 0.294811 -1.53494 0
M  V30 3706 H 360.422 2.82866 -1.5861 0
M  V30 3707 H 360.207 2.20021 -3.24551 0
M  V30 3708 H 361.697 3.08936 -2.80978 0
M  V30 3709 N 362.134 1.5431 0.320358 0
M  V30 3710 C 363.374 1.74395 1.0661 0
M  V30 3711 C 363.738 0.508602 1.85141 0
M  V30 3712 O 364.939 0.586856 2.62316 0
M  V30 3713 C 363.21 2.98619 1.96371 0
M  V30 3714 S 364.769 3.39621 2.77854 0
M  V30 3715 H 361.587 0.613204 0.359863 0
M  V30 3716 H 364.189 1.9249 0.341727 0
M  V30 3717 H 362.893 3.86673 1.3752 0
M  V30 3718 H 362.424 2.83055 2.73209 0
M  V30 3719 H 364.439 2.95172 3.98858 0
M  V30 3720 N 363.613 -0.582584 1.46437 0
M  V30 3721 C 364.859 -1.34278 1.51978 0
M  V30 3722 C 365.192 -1.93446 0.170973 0
M  V30 3723 O 364.467 -1.76481 -0.817608 0
M  V30 3724 C 364.75 -2.47203 2.61845 0
M  V30 3725 C 364.603 -1.93069 4.06257 0
M  V30 3726 C 365.922 -3.49247 2.67795 0
M  V30 3727 H 363.041 -0.486876 0.553282 0
M  V30 3728 H 365.683 -0.654437 1.78374 0
M  V30 3729 H 363.833 -3.0592 2.39469 0
M  V30 3730 H 365.505 -1.38808 4.3992 0
M  V30 3731 H 363.748 -1.23898 4.1573 0
M  V30 3732 H 364.419 -2.74586 4.7886 0
M  V30 3733 H 366.895 -3.00411 2.8791 0
M  V30 3734 H 365.771 -4.25719 3.46489 0
M  V30 3735 H 366.032 -4.06482 1.73852 0
M  V30 3736 N 365.091 -1.34144 -0.827227 0
M  V30 3737 C 366.054 -1.25264 -1.91942 0
M  V30 3738 C 367.054 -0.168866 -1.59911 0
M  V30 3739 O 368.244 -0.421198 -1.69031 0
M  V30 3740 C 365.376 -0.932952 -3.27885 0
M  V30 3741 H 366.569 -2.22357 -2.0124 0
M  V30 3742 H 364.122 -1.1837 -1.0207 0
M  V30 3743 H 364.857 0.0349917 -3.24281 0
M  V30 3744 H 364.642 -1.71682 -3.52516 0
M  V30 3745 H 366.132 -0.895874 -4.07877 0
M  V30 3746 N 366.569 1.04691 -1.17803 0
M  V30 3747 C 367.809 1.79352 -0.980423 0
M  V30 3748 C 368.173 1.85853 0.481958 0
M  V30 3749 O 369.374 2.56656 0.798809 0
M  V30 3750 C 367.645 3.19088 -1.6099 0
M  V30 3751 S 369.204 4.10164 -1.55918 0
M  V30 3752 H 366.022 0.617631 -0.352211 0
M  V30 3753 H 368.624 1.25575 -1.49837 0
M  V30 3754 H 367.328 3.11962 -2.66661 0
M  V30 3755 H 366.859 3.77941 -1.09197 0
M  V30 3756 H 368.874 4.92907 -0.570685 0
M  V30 3757 N 368.047 0.979072 1.23499 0
M  V30 3758 C 369.463 0.687475 1.44034 0
M  V30 3759 C 369.663 -0.746801 1.8715 0
M  V30 3760 O 368.719 -1.51939 2.0167 0
M  V30 3761 C 370.032 1.68127 2.49307 0
M  V30 3762 C 371.58 1.69516 2.63122 0
M  V30 3763 C 372.055 2.67723 3.71603 0
M  V30 3764 N 373.546 2.66233 3.79044 0
M  V30 3765 C 374.281 3.38891 4.62537 0
M  V30 3766 N 373.777 4.21103 5.50131 0
M  V30 3767 N 375.57 3.27661 4.56721 0
M  V30 3768 H 367.721 1.90559 0.938135 0
M  V30 3769 H 369.984 0.821051 0.473897 0
M  V30 3770 H 369.69 2.70693 2.2454 0
M  V30 3771 H 369.564 1.46306 3.4767 0
M  V30 3772 H 371.951 0.676561 2.8724 0
M  V30 3773 H 372.032 1.95404 1.65079 0
M  V30 3774 H 371.676 3.69724 3.48233 0
M  V30 3775 H 371.606 2.39111 4.69184 0
M  V30 3776 H 374.097 2.06568 3.16446 0
M  V30 3777 H 374.41 4.73403 6.10827 0
M  V30 3778 H 372.755 4.25195 5.49759 0
M  V30 3779 H 375.946 2.62887 3.87309 0
M  V30 3780 H 376.119 3.84547 5.21562 0
M  V30 3781 N 369.525 -1.3858 0.750561 0
M  V30 3782 C 370.475 -2.27795 0.0965949 0
M  V30 3783 C 371.459 -1.45048 -0.696411 0
M  V30 3784 O 372.651 -1.67812 -0.562863 0
M  V30 3785 C 369.78 -3.33894 -0.798085 0
M  V30 3786 C 368.866 -4.241 0.0016067 0
M  V30 3787 N 369.257 -4.95067 1.03647 0
M  V30 3788 C 367.555 -4.45429 -0.225674 0
M  V30 3789 C 368.256 -5.61489 1.52004 0
M  V30 3790 N 367.232 -5.37135 0.835874 0
M  V30 3791 H 371.034 -2.80125 0.889228 0
M  V30 3792 H 368.548 -1.51446 0.586323 0
M  V30 3793 H 370.545 -3.96693 -1.28219 0
M  V30 3794 H 369.205 -2.83123 -1.5897 0
M  V30 3795 H 370.216 -4.98104 1.41819 0
M  V30 3796 H 366.893 -4.05571 -0.990872 0
M  V30 3797 H 368.283 -6.28264 2.38188 0
M  V30 3798 N 371.003 -0.499398 -1.49478 0
M  V30 3799 C 371.933 0.269244 -2.31943 0
M  V30 3800 C 372.914 0.964054 -1.40143 0
M  V30 3801 O 374.099 0.955767 -1.69052 0
M  V30 3802 C 371.229 1.33504 -3.20615 0
M  V30 3803 C 370.183 0.760202 -4.21195 0
M  V30 3804 C 369.509 1.9264 -4.98792 0
M  V30 3805 C 370.809 -0.247661 -5.21712 0
M  V30 3806 H 372.503 -0.419082 -2.96452 0
M  V30 3807 H 370.049 -0.202988 -1.42562 0
M  V30 3808 H 372.002 1.88048 -3.77115 0
M  V30 3809 H 370.726 2.05253 -2.54045 0
M  V30 3810 H 369.385 0.23653 -3.65836 0
M  V30 3811 H 369.033 2.63154 -4.28671 0
M  V30 3812 H 368.733 1.54785 -5.66847 0
M  V30 3813 H 370.257 2.4762 -5.58137 0
M  V30 3814 H 371.671 0.209579 -5.72917 0
M  V30 3815 H 370.068 -0.541962 -5.97648 0
M  V30 3816 H 371.138 -1.16409 -4.7072 0
M  V30 3817 N 372.481 1.55866 -0.233164 0
M  V30 3818 C 373.711 2.02704 0.399325 0
M  V30 3819 C 374.119 1.11204 1.53069 0
M  V30 3820 O 373.462 0.116182 1.83332 0
M  V30 3821 C 373.524 3.45844 0.981429 0
M  V30 3822 C 373.188 4.56997 -0.0159561 0
M  V30 3823 C 374.185 5.13384 -0.820552 0
M  V30 3824 C 371.87 5.0211 -0.138072 0
M  V30 3825 C 373.864 6.13365 -1.73386 0
M  V30 3826 C 371.551 6.01926 -1.0549 0
M  V30 3827 C 372.549 6.57431 -1.85132 0
M  V30 3828 O 372.237 7.55302 -2.75272 0
M  V30 3829 H 371.969 0.668459 0.100692 0
M  V30 3830 H 374.523 2.02387 -0.35052 0
M  V30 3831 H 372.753 3.43267 1.78058 0
M  V30 3832 H 374.442 3.76262 1.52255 0
M  V30 3833 H 375.208 4.79372 -0.736721 0
M  V30 3834 H 371.087 4.5858 0.471737 0
M  V30 3835 H 374.631 6.56614 -2.35592 0
M  V30 3836 H 370.528 6.35359 -1.1397 0
M  V30 3837 H 371.296 7.72867 -2.69477 0
M  V30 3838 N 373.959 -0.0401083 1.57549 0
M  V30 3839 C 375.206 -0.733125 1.88763 0
M  V30 3840 C 375.534 -1.75946 0.829058 0
M  V30 3841 O 374.789 -1.94949 -0.171323 0
M  V30 3842 C 375.088 -1.44902 3.26708 0
M  V30 3843 C 374.754 -0.559707 4.47413 0
M  V30 3844 C 373.416 -0.314731 4.8017 0
M  V30 3845 C 375.768 0.0549743 5.21171 0
M  V30 3846 C 373.096 0.553886 5.8408 0
M  V30 3847 C 375.448 0.911229 6.26003 0
M  V30 3848 C 374.112 1.16577 6.57241 0
M  V30 3849 H 373.382 -0.268269 0.690733 0
M  V30 3850 H 376.029 0.00679408 1.91499 0
M  V30 3851 H 374.334 -2.26197 3.1991 0
M  V30 3852 H 376.031 -1.99058 3.48105 0
M  V30 3853 H 372.621 -0.760793 4.21794 0
M  V30 3854 H 376.805 -0.121344 4.96152 0
M  V30 3855 H 372.061 0.759518 6.06664 0
M  V30 3856 H 376.235 1.3941 6.82303 0
M  V30 3857 H 373.862 1.84058 7.37582 0
M  V30 3858 N 375.437 -1.54477 -0.31217 0
M  V30 3859 C 376.369 -1.81011 -1.40598 0
M  V30 3860 C 377.382 -0.692546 -1.47335 0
M  V30 3861 O 378.571 -0.969847 -1.49854 0
M  V30 3862 C 375.671 -1.92307 -2.79054 0
M  V30 3863 C 374.844 -3.22594 -2.95384 0
M  V30 3864 C 373.903 -3.24448 -4.1427 0
M  V30 3865 O 372.929 -3.98035 -4.06887 0
M  V30 3866 N 374.131 -2.49042 -5.24365 0
M  V30 3867 H 376.896 -2.75408 -1.18196 0
M  V30 3868 H 374.457 -1.53914 -0.502202 0
M  V30 3869 H 376.449 -1.90962 -3.56813 0
M  V30 3870 H 375.019 -1.04955 -2.94454 0
M  V30 3871 H 374.239 -3.36806 -2.04831 0
M  V30 3872 H 375.527 -4.08593 -3.03198 0
M  V30 3873 H 374.925 -1.88867 -5.33241 0
M  V30 3874 H 373.482 -2.53463 -6.005 0
M  V30 3875 N 376.915 0.57481 -1.46744 0
M  V30 3876 C 378.163 1.33009 -1.52161 0
M  V30 3877 C 378.484 1.94185 -0.178092 0
M  V30 3878 O 377.754 1.7899 0.796196 0
M  V30 3879 H 376.334 0.493873 -0.560445 0
M  V30 3880 H 378.996 0.672589 -1.82927 0
M  V30 3881 H 378.092 2.13273 -2.27862 0
M  V30 3882 N 378.394 1.34581 0.820102 0
M  V30 3883 C 379.357 1.2628 1.91275 0
M  V30 3884 C 380.357 0.177344 1.59819 0
M  V30 3885 O 381.547 0.430156 1.68806 0
M  V30 3886 C 378.679 0.950327 3.27386 0
M  V30 3887 H 379.872 2.23421 2.00057 0
M  V30 3888 H 377.425 1.1891 1.0144 0
M  V30 3889 H 378.16 -0.0177938 3.24295 0
M  V30 3890 H 377.945 1.73549 3.51601 0
M  V30 3891 H 379.435 0.917492 4.07396 0
M  V30 3892 N 379.872 -1.04064 1.18357 0
M  V30 3893 C 381.112 -1.78829 0.989921 0
M  V30 3894 C 381.476 -1.86106 -0.472095 0
M  V30 3895 O 382.677 -2.57076 -0.785187 0
M  V30 3896 C 380.948 -3.1823 1.6268 0
M  V30 3897 S 382.507 -4.09332 1.58091 0
M  V30 3898 H 379.325 -0.615754 0.355482 0
M  V30 3899 H 381.927 -1.24778 1.50501 0
M  V30 3900 H 380.631 -3.10543 2.68311 0
M  V30 3901 H 380.162 -3.77357 1.112 0
M  V30 3902 H 382.177 -4.92598 0.596817 0
M  V30 3903 N 381.35 -0.985608 -1.22978 0
M  V30 3904 C 382.28 -0.549649 -2.26939 0
M  V30 3905 C 383.261 0.419803 -1.64838 0
M  V30 3906 O 384.446 0.31203 -1.91677 0
M  V30 3907 C 381.576 0.143652 -3.47003 0
M  V30 3908 C 380.53 -0.743606 -4.21491 0
M  V30 3909 C 379.856 0.0822027 -5.34637 0
M  V30 3910 C 381.156 -2.03694 -4.80943 0
M  V30 3911 H 382.85 -1.41862 -2.63658 0
M  V30 3912 H 380.396 -0.683571 -1.26741 0
M  V30 3913 H 382.349 0.459985 -4.18882 0
M  V30 3914 H 381.073 1.04711 -3.09359 0
M  V30 3915 H 379.732 -1.04347 -3.51436 0
M  V30 3916 H 379.38 0.986359 -4.93234 0
M  V30 3917 H 379.08 -0.508377 -5.85397 0
M  V30 3918 H 380.604 0.392797 -6.09335 0
M  V30 3919 H 382.018 -1.78504 -5.44802 0
M  V30 3920 H 380.415 -2.57573 -5.42011 0
M  V30 3921 H 381.485 -2.72042 -4.01399 0
M  V30 3922 N 382.828 1.3818 -0.7579 0
M  V30 3923 C 384.074 2.0078 -0.325423 0
M  V30 3924 C 384.429 1.59085 1.08211 0
M  V30 3925 O 383.722 0.820394 1.73148 0
M  V30 3926 C 383.916 3.55252 -0.391218 0
M  V30 3927 C 383.745 4.11947 -1.8036 0
M  V30 3928 C 382.515 4.43519 -2.42113 0
M  V30 3929 C 384.713 4.33908 -2.76095 0
M  V30 3930 N 382.695 4.85847 -3.75267 0
M  V30 3931 C 384.066 4.78692 -3.94023 0
M  V30 3932 C 386.121 4.16015 -2.73561 0
M  V30 3933 C 384.824 5.07459 -5.09782 0
M  V30 3934 C 386.85 4.45909 -3.88483 0
M  V30 3935 C 386.212 4.90921 -5.0515 0
M  V30 3936 H 382.311 0.764215 -0.165831 0
M  V30 3937 H 384.895 1.67724 -0.988776 0
M  V30 3938 H 383.066 3.87646 0.241886 0
M  V30 3939 H 384.798 4.04653 0.061989 0
M  V30 3940 H 381.553 4.32113 -1.93842 0
M  V30 3941 H 381.977 5.11339 -4.4369 0
M  V30 3942 H 386.619 3.80399 -1.84544 0
M  V30 3943 H 384.337 5.4197 -5.99412 0
M  V30 3944 H 387.923 4.33666 -3.87847 0
M  V30 3945 H 386.803 5.1361 -5.92599 0
M  V30 3946 N 384.306 0.507319 1.49211 0
M  V30 3947 C 385.269 -0.256763 2.27757 0
M  V30 3948 C 386.269 -0.888287 1.34038 0
M  V30 3949 O 387.459 -0.751841 1.5714 0
M  V30 3950 C 384.591 -1.36905 3.12202 0
M  V30 3951 H 385.784 0.432557 2.96764 0
M  V30 3952 H 383.337 0.262488 1.5408 0
M  V30 3953 H 384.072 -2.09233 2.47775 0
M  V30 3954 H 383.857 -0.921599 3.81115 0
M  V30 3955 H 385.347 -1.9071 3.7151 0
M  V30 3956 N 385.784 -1.5574 0.241426 0
M  V30 3957 C 387.024 -2.00714 -0.38644 0
M  V30 3958 C 387.388 -1.12586 -1.55526 0
M  V30 3959 O 388.589 -1.46992 -2.25048 0
M  V30 3960 C 386.86 -3.48534 -0.791128 0
M  V30 3961 S 388.419 -4.15519 -1.41029 0
M  V30 3962 H 385.237 -0.700484 -0.121834 0
M  V30 3963 H 387.839 -1.92243 0.355377 0
M  V30 3964 H 386.543 -4.10342 0.0689225 0
M  V30 3965 H 386.074 -3.6092 -1.56526 0
M  V30 3966 H 388.089 -4.16352 -2.69936 0
M  V30 3967 N 387.262 0.0317525 -1.57568 0
M  V30 3968 C 388.673 0.578692 -1.77505 0
M  V30 3969 C 389.024 1.75749 -0.872164 0
M  V30 3970 O 388.149 2.16298 -0.0663106 0
M  V30 3971 C 388.744 1.05658 -3.21904 0
M  V30 3972 C 387.303 1.54906 -3.43047 0
M  V30 3973 C 386.45 0.485939 -2.73009 0
M  V30 3974 H 389.401 -0.194475 -1.57504 0
M  V30 3975 H 389.422 1.92404 -3.28269 0
M  V30 3976 H 388.934 0.198422 -3.87592 0
M  V30 3977 H 387.035 2.42915 -2.82529 0
M  V30 3978 H 387.148 1.59841 -4.5165 0
M  V30 3979 H 385.512 0.940354 -2.36705 0
M  V30 3980 H 386.295 -0.362709 -3.41379 0
M  V30 3981 N 388.74 1.54641 0.303973 0
M  V30 3982 C 390.151 1.64811 0.877163 0
M  V30 3983 C 390.502 0.554838 1.88191 0
M  V30 3984 O 389.627 -0.309033 2.14182 0
M  V30 3985 C 390.222 2.9876 1.59775 0
M  V30 3986 C 388.781 3.11061 2.11938 0
M  V30 3987 C 387.928 2.60479 0.951097 0
M  V30 3988 H 390.879 1.58493 0.0810486 0
M  V30 3989 H 390.9 2.90017 2.46314 0
M  V30 3990 H 390.412 3.7831 0.866226 0
M  V30 3991 H 388.513 2.36225 2.88146 0
M  V30 3992 H 388.626 4.17171 2.35595 0
M  V30 3993 H 386.99 2.16859 1.33583 0
M  V30 3994 H 387.773 3.42504 0.233581 0
M  V30 3995 N 390.218 -0.567019 1.47046 0
M  V30 3996 C 391.466 -1.322 1.52864 0
M  V30 3997 C 391.787 -1.94088 0.188388 0
M  V30 3998 O 391.057 -1.7941 -0.786693 0
M  V30 3999 H 389.637 -0.490894 0.563056 0
M  V30 4000 H 392.299 -0.662879 1.83281 0
M  V30 4001 H 391.395 -2.12062 2.2899 0
M  V30 4002 N 391.696 -1.35014 -0.812953 0
M  V30 4003 C 392.924 -1.31031 -1.6012 0
M  V30 4004 C 393.339 0.113558 -1.88458 0
M  V30 4005 O 392.696 1.06363 -1.48301 0
M  V30 4006 C 392.747 -2.10872 -2.93624 0
M  V30 4007 O 392.468 -3.47706 -2.66518 0
M  V30 4008 C 393.969 -2.14401 -3.88004 0
M  V30 4009 H 391.189 -0.45037 -0.497401 0
M  V30 4010 H 393.733 -1.77775 -1.01076 0
M  V30 4011 H 391.888 -1.67744 -3.492 0
M  V30 4012 H 392.302 -3.89097 -3.51715 0
M  V30 4013 H 393.776 -2.74669 -4.78812 0
M  V30 4014 H 394.253 -1.14105 -4.24119 0
M  V30 4015 H 394.859 -2.57662 -3.38364 0
M  V30 4016 N 393.175 1.03435 -1.18907 0
M  V30 4017 C 394.405 1.8012 -1.01195 0
M  V30 4018 C 394.813 1.8395 0.442613 0
M  V30 4019 O 394.156 1.27836 1.31923 0
M  V30 4020 C 394.218 3.26792 -1.49823 0
M  V30 4021 C 393.882 3.46609 -2.97844 0
M  V30 4022 C 394.879 3.37278 -3.95651 0
M  V30 4023 C 392.564 3.73001 -3.36416 0
M  V30 4024 C 394.558 3.54054 -5.30023 0
M  V30 4025 C 392.245 3.89423 -4.70949 0
M  V30 4026 C 393.243 3.79951 -5.67562 0
M  V30 4027 O 392.931 3.95895 -6.99659 0
M  V30 4028 H 392.663 0.573865 -0.357289 0
M  V30 4029 H 395.217 1.31207 -1.58031 0
M  V30 4030 H 393.447 3.76703 -0.873578 0
M  V30 4031 H 395.136 3.85055 -1.28404 0
M  V30 4032 H 395.902 3.16846 -3.67197 0
M  V30 4033 H 391.781 3.79469 -2.61772 0
M  V30 4034 H 395.325 3.46577 -6.05417 0
M  V30 4035 H 391.222 4.09351 -4.99101 0
M  V30 4036 H 391.99 4.13019 -7.06653 0
M  V30 4037 N 394.653 0.992116 1.22453 0
M  V30 4038 C 395.585 0.500024 2.23679 0
M  V30 4039 C 396.598 -0.404463 1.57696 0
M  V30 4040 O 397.787 -0.206722 1.77299 0
M  V30 4041 C 394.887 -0.294711 3.37616 0
M  V30 4042 C 394.06 0.605723 4.33186 0
M  V30 4043 C 393.119 -0.13717 5.26021 0
M  V30 4044 O 392.145 0.477164 5.67196 0
M  V30 4045 N 393.347 -1.4197 5.62872 0
M  V30 4046 H 396.112 1.37045 2.66531 0
M  V30 4047 H 393.673 0.866741 1.36745 0
M  V30 4048 H 395.665 -0.800329 3.96707 0
M  V30 4049 H 394.235 -1.06623 2.93854 0
M  V30 4050 H 393.455 1.29202 3.72425 0
M  V30 4051 H 394.743 1.21896 4.93983 0
M  V30 4052 H 394.141 -1.94015 5.31389 0
M  V30 4053 H 392.698 -1.87052 6.24383 0
M  V30 4054 N 396.131 -1.37776 0.765217 0
M  V30 4055 C 397.361 -2.03828 0.337277 0
M  V30 4056 C 397.769 -1.57841 -1.04321 0
M  V30 4057 O 397.112 -0.752043 -1.67601 0
M  V30 4058 C 397.174 -3.58292 0.294407 0
M  V30 4059 C 396.838 -4.27384 1.61838 0
M  V30 4060 C 397.835 -4.51956 2.56967 0
M  V30 4061 C 395.52 -4.65345 1.89102 0
M  V30 4062 C 397.514 -5.13536 3.77571 0
M  V30 4063 C 395.201 -5.26647 3.09978 0
M  V30 4064 C 396.199 -5.50679 4.04032 0
M  V30 4065 O 395.887 -6.10702 5.2278 0
M  V30 4066 H 395.619 -0.661292 0.140248 0
M  V30 4067 H 398.173 -1.77222 1.03834 0
M  V30 4068 H 396.403 -3.83918 -0.462983 0
M  V30 4069 H 398.092 -4.05763 -0.105581 0
M  V30 4070 H 398.858 -4.23048 2.37183 0
M  V30 4071 H 394.737 -4.45978 1.16725 0
M  V30 4072 H 398.281 -5.3221 4.50997 0
M  V30 4073 H 394.178 -5.54979 3.29649 0
M  V30 4074 H 394.946 -6.29183 5.23517 0
M  V30 4075 N 397.609 -0.515225 -1.4894 0
M  V30 4076 C 398.519 0.259774 -2.33157 0
M  V30 4077 C 399.535 0.953501 -1.45548 0
M  V30 4078 O 400.711 0.931735 -1.78552 0
M  V30 4079 C 397.776 1.30193 -3.21326 0
M  V30 4080 C 396.837 0.620129 -4.24797 0
M  V30 4081 C 396.07 1.61263 -5.08753 0
M  V30 4082 O 396.293 2.84389 -4.94448 0
M  V30 4083 O 395.227 1.16013 -5.90614 0
M  V30 4084 H 399.053 -0.429932 -3.00641 0
M  V30 4085 H 396.638 -0.276346 -1.46822 0
M  V30 4086 H 398.52 1.90455 -3.75905 0
M  V30 4087 H 397.195 1.97431 -2.56521 0
M  V30 4088 H 396.102 -0.0226019 -3.74093 0
M  V30 4089 H 397.435 -0.0100493 -4.92199 0
M  V30 4090 N 399.087 1.5561 -0.249682 0
M  V30 4091 C 400.312 2.03865 0.381305 0
M  V30 4092 C 400.737 1.12769 1.50548 0
M  V30 4093 O 400.095 0.121189 1.80895 0
M  V30 4094 C 400.143 3.50101 0.863816 0
M  V30 4095 O 399.247 3.62132 1.97318 0
M  V30 4096 H 398.588 0.658827 0.0827194 0
M  V30 4097 H 401.118 2.01105 -0.376552 0
M  V30 4098 H 401.128 3.90975 1.1663 0
M  V30 4099 H 399.803 4.1588 0.0411816 0
M  V30 4100 H 398.38 3.33155 1.67517 0
M  V30 4101 N 400.565 -0.0233959 1.57583 0
M  V30 4102 C 401.811 -0.708611 1.90657 0
M  V30 4103 C 402.166 -1.7266 0.848895 0
M  V30 4104 O 401.459 -1.91075 -0.141749 0
M  V30 4105 C 401.653 -1.41428 3.28227 0
M  V30 4106 C 401.482 -0.466155 4.47277 0
M  V30 4107 C 400.252 -0.085117 5.05228 0
M  V30 4108 C 402.45 0.257836 5.13653 0
M  V30 4109 N 400.432 0.863672 6.07794 0
M  V30 4110 C 401.803 1.06209 6.10835 0
M  V30 4111 C 403.858 0.324174 4.96844 0
M  V30 4112 C 402.561 1.9266 6.93018 0
M  V30 4113 C 404.587 1.17583 5.79593 0
M  V30 4114 C 403.949 1.96799 6.7635 0
M  V30 4115 H 400.048 -0.233222 0.746412 0
M  V30 4116 H 402.632 0.0314512 1.94675 0
M  V30 4117 H 400.803 -2.12477 3.25128 0
M  V30 4118 H 402.535 -2.05233 3.488 0
M  V30 4119 H 399.29 -0.448516 4.71471 0
M  V30 4120 H 399.714 1.33274 6.63752 0
M  V30 4121 H 404.356 -0.273975 4.21911 0
M  V30 4122 H 402.074 2.53552 7.67292 0
M  V30 4123 H 405.66 1.23076 5.68633 0
M  V30 4124 H 404.54 2.61635 7.39268 0
M  V30 4125 N 402.043 -1.548 -0.295768 0
M  V30 4126 C 403.459 -1.4613 -0.641722 0
M  V30 4127 C 403.659 -0.656771 -1.90496 0
M  V30 4128 O 402.715 -0.166547 -2.5195 0
M  V30 4129 C 404.028 -2.90141 -0.789852 0
M  V30 4130 C 405.576 -3.00216 -0.885396 0
M  V30 4131 C 406.051 -4.45434 -1.06548 0
M  V30 4132 N 407.542 -4.49166 -1.13156 0
M  V30 4133 C 408.277 -5.58717 -1.28929 0
M  V30 4134 N 407.773 -6.78182 -1.41567 0
M  V30 4135 N 409.566 -5.46415 -1.31859 0
M  V30 4136 H 401.717 -2.05574 0.534147 0
M  V30 4137 H 403.98 -0.931259 0.177372 0
M  V30 4138 H 403.686 -3.51635 0.0675598 0
M  V30 4139 H 403.56 -3.37859 -1.67724 0
M  V30 4140 H 405.947 -2.38833 -1.73329 0
M  V30 4141 H 406.028 -2.55787 0.0261185 0
M  V30 4142 H 405.672 -5.07413 -0.222335 0
M  V30 4143 H 405.602 -4.87499 -1.9913 0
M  V30 4144 H 408.093 -3.631 -1.04721 0
M  V30 4145 H 408.406 -7.57428 -1.53372 0
M  V30 4146 H 406.751 -6.81037 -1.38613 0
M  V30 4147 H 409.942 -4.5203 -1.21601 0
M  V30 4148 H 410.115 -6.31841 -1.43808 0
M  V30 4149 N 403.521 0.559213 -1.47345 0
M  V30 4150 C 404.761 1.32728 -1.55444 0
M  V30 4151 C 405.125 1.90838 -0.210895 0
M  V30 4152 O 406.326 2.68282 -0.166719 0
M  V30 4153 C 404.597 2.4092 -2.63993 0
M  V30 4154 S 406.156 3.2784 -2.91661 0
M  V30 4155 H 402.974 0.451883 -0.548929 0
M  V30 4156 H 405.576 0.640404 -1.84714 0
M  V30 4157 H 404.28 1.9666 -3.60212 0
M  V30 4158 H 403.811 3.14351 -2.36531 0
M  V30 4159 H 405.826 4.40341 -2.28722 0
M  V30 4160 N 404.999 1.35443 0.805782 0
M  V30 4161 C 406.245 1.28952 1.56522 0
M  V30 4162 C 406.578 -0.135597 1.93726 0
M  V30 4163 O 405.853 -1.08516 1.61414 0
M  V30 4164 C 406.136 2.19678 2.85331 0
M  V30 4165 C 405.989 3.7081 2.54598 0
M  V30 4166 C 407.308 2.09495 3.8704 0
M  V30 4167 H 404.427 0.469764 0.567883 0
M  V30 4168 H 407.069 1.65851 0.927001 0
M  V30 4169 H 405.219 1.8834 3.39795 0
M  V30 4170 H 406.891 4.12593 2.06312 0
M  V30 4171 H 405.134 3.91051 1.8778 0
M  V30 4172 H 405.805 4.29679 3.46525 0
M  V30 4173 H 408.281 2.37045 3.41978 0
M  V30 4174 H 407.157 2.75173 4.74943 0
M  V30 4175 H 407.418 1.07714 4.28777 0
M  V30 4176 N 406.477 -1.02803 1.19454 0
M  V30 4177 C 407.705 -1.79841 1.02297 0
M  V30 4178 C 408.12 -1.83879 -0.428259 0
M  V30 4179 O 407.477 -1.28345 -1.29745 0
M  V30 4180 C 407.528 -3.24852 1.58598 0
M  V30 4181 O 407.249 -3.21097 2.98041 0
M  V30 4182 C 408.75 -4.18485 1.46236 0
M  V30 4183 H 405.97 -0.565936 0.360496 0
M  V30 4184 H 408.514 -1.2948 1.58288 0
M  V30 4185 H 406.669 -3.72401 1.06753 0
M  V30 4186 H 407.083 -4.12033 3.24545 0
M  V30 4187 H 408.557 -5.18121 1.90407 0
M  V30 4188 H 409.034 -4.37254 0.41301 0
M  V30 4189 H 409.64 -3.76811 1.97215 0
M  V30 4190 N 407.956 -0.998596 -1.21925 0
M  V30 4191 C 408.919 -0.558679 -2.22287 0
M  V30 4192 C 409.919 0.361525 -1.56683 0
M  V30 4193 O 411.109 0.152695 -1.73529 0
M  V30 4194 C 408.241 0.18661 -3.40389 0
M  V30 4195 H 409.434 -1.4463 -2.62721 0
M  V30 4196 H 406.987 -0.786413 -1.35075 0
M  V30 4197 H 407.722 1.08996 -3.05435 0
M  V30 4198 H 407.507 -0.474188 -3.89222 0
M  V30 4199 H 408.997 0.482367 -4.14805 0
M  V30 4200 N 409.434 1.37368 -0.772513 0
M  V30 4201 C 410.344 2.34053 -0.160081 0
M  V30 4202 C 411.36 1.60216 0.678728 0
M  V30 4203 O 412.536 1.92303 0.59847 0
M  V30 4204 C 409.601 3.3939 0.708182 0
M  V30 4205 C 408.662 4.29048 -0.147172 0
M  V30 4206 C 407.895 5.29354 0.679744 0
M  V30 4207 O 408.118 5.3723 1.91678 0
M  V30 4208 O 407.052 6.01835 0.0885444 0
M  V30 4209 H 410.878 2.88159 -0.959053 0
M  V30 4210 H 408.463 1.39543 -0.533685 0
M  V30 4211 H 410.345 4.03839 1.20384 0
M  V30 4212 H 409.02 2.8761 1.48533 0
M  V30 4213 H 407.927 3.67697 -0.689205 0
M  V30 4214 H 409.26 4.84134 -0.887423 0
M  V30 4215 N 410.912 0.523116 1.48665 0
M  V30 4216 C 412.328 0.180511 1.58576 0
M  V30 4217 C 412.528 -1.31597 1.52592 0
M  V30 4218 O 411.584 -2.0937 1.4114 0
M  V30 4219 C 412.897 0.776949 2.90489 0
M  V30 4220 C 414.445 0.745058 3.04003 0
M  V30 4221 C 414.92 1.31995 4.38567 0
M  V30 4222 N 416.411 1.28162 4.45117 0
M  V30 4223 C 417.146 1.6964 5.47731 0
M  V30 4224 N 416.642 2.18816 6.57337 0
M  V30 4225 N 418.435 1.6092 5.38573 0
M  V30 4226 H 410.586 1.4958 1.50797 0
M  V30 4227 H 412.849 0.621772 0.715614 0
M  V30 4228 H 412.555 1.82732 3.00503 0
M  V30 4229 H 412.429 0.25007 3.7637 0
M  V30 4230 H 414.816 -0.296532 2.93606 0
M  V30 4231 H 414.897 1.30933 2.1975 0
M  V30 4232 H 414.541 2.36043 4.49718 0
M  V30 4233 H 414.471 0.731418 5.21496 0
M  V30 4234 H 416.962 0.92155 3.66491 0
M  V30 4235 H 417.275 2.48478 7.31764 0
M  V30 4236 H 415.62 2.22805 6.58318 0
M  V30 4237 H 418.811 1.22304 4.5184 0
M  V30 4238 H 418.984 1.93567 6.18414 0
M  V30 4239 N 412.39 -1.55475 0.257931 0
M  V30 4240 C 413.63 -2.01112 -0.365129 0
M  V30 4241 C 413.994 -1.1423 -1.54323 0
M  V30 4242 O 415.195 -1.49371 -2.23477 0
M  V30 4243 C 413.466 -3.49353 -0.754117 0
M  V30 4244 S 415.025 -4.16992 -1.36614 0
M  V30 4245 H 411.843 -0.701737 -0.114397 0
M  V30 4246 H 414.445 -1.91855 0.375747 0
M  V30 4247 H 413.149 -4.10246 0.112441 0
M  V30 4248 H 412.68 -3.6256 -1.52689 0
M  V30 4249 H 414.695 -4.19191 -2.65505 0
M  V30 4250 N 413.868 0.0150385 -1.57593 0
M  V30 4251 C 414.831 0.995996 -2.06428 0
M  V30 4252 C 415.831 1.2818 -0.970903 0
M  V30 4253 O 417.021 1.22949 -1.23406 0
M  V30 4254 C 414.153 2.32506 -2.49307 0
M  V30 4255 H 415.346 0.573873 -2.94358 0
M  V30 4256 H 412.899 0.262186 -1.54085 0
M  V30 4257 H 413.634 2.79438 -1.64575 0
M  V30 4258 H 413.419 2.13087 -3.29145 0
M  V30 4259 H 414.909 3.02906 -2.87468 0
M  V30 4260 N 415.346 1.54954 0.287554 0
M  V30 4261 C 416.571 1.79209 1.04397 0
M  V30 4262 C 416.996 0.556431 1.79682 0
M  V30 4263 O 416.354 -0.493518 1.74454 0
M  V30 4264 C 416.402 3.00739 1.98969 0
M  V30 4265 O 415.506 2.74805 3.075 0
M  V30 4266 H 414.847 0.592755 0.299227 0
M  V30 4267 H 417.377 2.02068 0.320886 0
M  V30 4268 H 417.387 3.29077 2.4119 0
M  V30 4269 H 416.062 3.90329 1.43582 0
M  V30 4270 H 414.639 2.57523 2.69697 0
M  V30 4271 N 416.824 -0.551391 1.4764 0
M  V30 4272 C 417.754 -1.66757 1.63445 0
M  V30 4273 C 418.735 -1.63077 0.483742 0
M  V30 4274 O 419.92 -1.80607 0.71377 0
M  V30 4275 C 417.05 -3.05387 1.65396 0
M  V30 4276 C 416.004 -3.23918 2.79752 0
M  V30 4277 C 415.33 -4.63393 2.66779 0
M  V30 4278 C 416.63 -3.08735 4.21284 0
M  V30 4279 H 418.324 -1.53786 2.56886 0
M  V30 4280 H 415.87 -0.738415 1.23626 0
M  V30 4281 H 417.823 -3.83325 1.75043 0
M  V30 4282 H 416.547 -3.19332 0.685195 0
M  V30 4283 H 415.206 -2.48391 2.69625 0
M  V30 4284 H 414.854 -4.74144 1.67918 0
M  V30 4285 H 414.554 -4.7674 3.43501 0
M  V30 4286 H 416.078 -5.43458 2.78364 0
M  V30 4287 H 417.492 -3.76484 4.32357 0
M  V30 4288 H 415.889 -3.33588 4.98838 0
M  V30 4289 H 416.959 -2.0541 4.39243 0
M  V30 4290 N 418.302 -1.35869 -0.798587 0
M  V30 4291 C 419.252 -1.25982 -1.90033 0
M  V30 4292 C 420.236 -0.153303 -1.60168 0
M  V30 4293 O 421.428 -0.38527 -1.72756 0
M  V30 4294 C 418.557 -1.04211 -3.27101 0
M  V30 4295 C 417.643 -2.19289 -3.63006 0
M  V30 4296 N 418.034 -3.44559 -3.70287 0
M  V30 4297 C 416.332 -2.10852 -3.93011 0
M  V30 4298 C 417.033 -4.20283 -4.02166 0
M  V30 4299 N 416.009 -3.49124 -4.16669 0
M  V30 4300 H 419.811 -2.20883 -1.93876 0
M  V30 4301 H 417.325 -1.28457 -0.993614 0
M  V30 4302 H 419.322 -0.952155 -4.05881 0
M  V30 4303 H 417.982 -0.102013 -3.2454 0
M  V30 4304 H 418.993 -3.7881 -3.53162 0
M  V30 4305 H 415.67 -1.24744 -3.98428 0
M  V30 4306 H 417.06 -5.28575 -4.14799 0
M  V30 4307 N 419.78 1.02168 -1.19998 0
M  V30 4308 C 421.005 1.79833 -1.03319 0
M  V30 4309 C 421.43 1.83504 0.413281 0
M  V30 4310 O 420.788 1.26635 1.29743 0
M  V30 4311 C 420.836 3.22396 -1.61533 0
M  V30 4312 O 419.94 4.03555 -0.849519 0
M  V30 4313 H 419.281 0.554872 -0.364709 0
M  V30 4314 H 421.811 1.28542 -1.59179 0
M  V30 4315 H 421.821 3.73124 -1.65054 0
M  V30 4316 H 420.496 3.19039 -2.66809 0
M  V30 4317 H 419.073 3.62169 -0.888129 0
M  V30 4318 N 421.258 1.00505 1.21394 0
M  V30 4319 C 422.504 0.688793 1.90745 0
M  V30 4320 C 422.837 -0.778486 1.77914 0
M  V30 4321 O 422.112 -1.56433 1.15581 0
M  V30 4322 C 422.395 1.11063 3.42545 0
M  V30 4323 C 422.248 2.63737 3.64367 0
M  V30 4324 C 423.567 0.673059 4.34923 0
M  V30 4325 H 420.686 0.251702 0.692687 0
M  V30 4326 H 423.328 1.25074 1.43026 0
M  V30 4327 H 421.478 0.632508 3.83317 0
M  V30 4328 H 423.15 3.19313 3.32922 0
M  V30 4329 H 421.393 3.05248 3.08231 0
M  V30 4330 H 422.064 2.88305 4.70727 0
M  V30 4331 H 424.54 1.08392 4.01734 0
M  V30 4332 H 423.416 0.996383 5.39781 0
M  V30 4333 H 423.677 -0.425808 4.40045 0
M  V30 4334 N 422.737 -1.36956 0.779787 0
M  V30 4335 C 424.148 -1.82094 0.412156 0
M  V30 4336 C 424.499 -1.64926 -1.06273 0
M  V30 4337 O 423.624 -1.16483 -1.82375 0
M  V30 4338 C 424.219 -3.3059 0.741319 0
M  V30 4339 C 422.778 -3.73974 0.426641 0
M  V30 4340 C 421.925 -2.59368 0.980987 0
M  V30 4341 H 424.876 -1.25314 0.973758 0
M  V30 4342 H 424.897 -3.80489 0.028887 0
M  V30 4343 H 424.409 -3.43054 1.81482 0
M  V30 4344 H 422.51 -3.67076 -0.639215 0
M  V30 4345 H 422.623 -4.69778 0.940515 0
M  V30 4346 H 420.987 -2.51463 0.404757 0
M  V30 4347 H 421.77 -2.74621 2.06005 0
M  V30 4348 N 424.215 -0.530993 -1.48385 0
M  V30 4349 C 425.463 0.00273189 -2.021 0
M  V30 4350 C 425.784 1.34672 -1.41027 0
M  V30 4351 O 425.054 1.8724 -0.576012 0
M  V30 4352 H 423.634 0.00399774 -0.746989 0
M  V30 4353 H 426.296 -0.695054 -1.82085 0
M  V30 4354 H 425.392 0.11031 -3.11905 0
M  V30 4355 N 425.693 1.55336 -0.266172 0
M  V30 4356 C 427.109 1.59356 0.0882065 0
M  V30 4357 C 427.309 1.2834 1.55342 0
M  V30 4358 O 426.365 1.03996 2.30089 0
M  V30 4359 C 427.678 2.99409 -0.278364 0
M  V30 4360 C 429.226 3.12196 -0.224243 0
M  V30 4361 C 429.701 4.545 -0.565123 0
M  V30 4362 N 431.192 4.60313 -0.51634 0
M  V30 4363 C 431.927 5.68434 -0.753013 0
M  V30 4364 N 431.423 6.84738 -1.05383 0
M  V30 4365 N 433.216 5.57942 -0.682414 0
M  V30 4366 H 425.367 1.73764 -1.22147 0
M  V30 4367 H 427.63 0.809822 -0.492841 0
M  V30 4368 H 427.336 3.2691 -1.29703 0
M  V30 4369 H 427.21 3.75228 0.385186 0
M  V30 4370 H 429.597 2.84464 0.78512 0
M  V30 4371 H 429.678 2.38609 -0.921922 0
M  V30 4372 H 429.322 4.82956 -1.57213 0
M  V30 4373 H 429.252 5.26374 0.154248 0
M  V30 4374 H 431.743 3.7676 -0.29335 0
M  V30 4375 H 432.056 7.63088 -1.22133 0
M  V30 4376 H 430.401 6.86375 -1.09151 0
M  V30 4377 H 433.592 4.65958 -0.44731 0
M  V30 4378 H 433.765 6.4213 -0.870248 0
M  V30 4379 N 427.171 -0.0066808 1.57599 0
M  V30 4380 C 428.134 -0.985035 2.06953 0
M  V30 4381 C 429.134 -1.27663 0.977687 0
M  V30 4382 O 430.324 -1.22293 1.24057 0
M  V30 4383 C 427.456 -2.3118 2.50536 0
M  V30 4384 H 428.649 -0.558255 2.94658 0
M  V30 4385 H 426.202 -0.254011 1.54222 0
M  V30 4386 H 426.937 -2.78561 1.66054 0
M  V30 4387 H 426.722 -2.11338 3.3027 0
M  V30 4388 H 428.212 -3.01377 2.8907 0
M  V30 4389 N 428.649 -1.55105 -0.279332 0
M  V30 4390 C 429.874 -1.7976 -1.03446 0
M  V30 4391 C 430.299 -0.565952 -1.79384 0
M  V30 4392 O 429.657 0.484259 -1.74713 0
M  V30 4393 C 429.705 -3.0179 -1.97371 0
M  V30 4394 O 428.809 -2.76432 -3.06038 0
M  V30 4395 H 428.15 -0.594334 -0.29608 0
M  V30 4396 H 430.68 -2.02235 -0.310165 0
M  V30 4397 H 430.69 -3.30351 -2.39441 0
M  V30 4398 H 429.365 -3.91085 -1.4151 0
M  V30 4399 H 427.942 -2.58949 -2.68328 0
M  V30 4400 N 430.127 0.543554 -1.4793 0
M  V30 4401 C 431.355 1.32516 -1.58894 0
M  V30 4402 C 431.77 1.87215 -0.244131 0
M  V30 4403 O 431.127 1.65709 0.764652 0
M  V30 4404 C 431.178 2.48554 -2.62494 0
M  V30 4405 O 430.899 1.96112 -3.91755 0
M  V30 4406 C 432.4 3.40572 -2.8377 0
M  V30 4407 H 429.62 0.403472 -0.536145 0
M  V30 4408 H 432.164 0.657106 -1.93655 0
M  V30 4409 H 430.319 3.1127 -2.30629 0
M  V30 4410 H 430.733 2.71967 -4.4848 0
M  V30 4411 H 432.207 4.18375 -3.60093 0
M  V30 4412 H 432.684 3.94965 -1.92092 0
M  V30 4413 H 433.29 2.8366 -3.16887 0
M  V30 4414 N 431.605 1.3629 0.791371 0
M  V30 4415 C 432.852 1.30412 1.54916 0
M  V30 4416 C 433.18 -0.117162 1.94147 0
M  V30 4417 O 432.435 -1.08599 1.62803 0
M  V30 4418 C 432.734 2.17068 2.8393 0
M  V30 4419 C 432.4 3.65645 2.63846 0
M  V30 4420 C 431.062 4.0614 2.58077 0
M  V30 4421 C 433.414 4.59855 2.45322 0
M  V30 4422 C 430.742 5.3899 2.31748 0
M  V30 4423 C 433.094 5.9292 2.2052 0
M  V30 4424 C 431.758 6.32542 2.13183 0
M  V30 4425 H 431.028 0.47721 0.566879 0
M  V30 4426 H 433.675 1.68325 0.913172 0
M  V30 4427 H 431.98 1.72085 3.51986 0
M  V30 4428 H 433.677 2.09846 3.4171 0
M  V30 4429 H 430.267 3.33518 2.69191 0
M  V30 4430 H 434.451 4.29443 2.48782 0
M  V30 4431 H 429.707 5.68672 2.24548 0
M  V30 4432 H 433.881 6.65487 2.05182 0
M  V30 4433 H 431.508 7.35412 1.92544 0
M  V30 4434 N 433.083 -1.0153 1.20538 0
M  V30 4435 C 434.331 -1.74803 1.01432 0
M  V30 4436 C 434.652 -1.8963 -0.454456 0
M  V30 4437 O 433.922 -1.43975 -1.32846 0
M  V30 4438 H 432.502 -0.647598 0.372324 0
M  V30 4439 H 435.164 -1.22402 1.5167 0
M  V30 4440 H 434.26 -2.75114 1.47373 0
M  V30 4441 N 434.561 -1.01147 -1.20859 0
M  V30 4442 C 435.81 -0.693214 -1.89413 0
M  V30 4443 C 436.123 0.779969 -1.79376 0
M  V30 4444 O 437.329 1.21057 -2.43017 0
M  V30 4445 C 435.785 -1.18949 -3.39675 0
M  V30 4446 C 435.393 -2.68921 -3.58309 0
M  V30 4447 C 437.137 -0.94642 -4.13815 0
M  V30 4448 C 435.044 -3.12056 -5.0237 0
M  V30 4449 H 433.974 -0.255595 -0.709357 0
M  V30 4450 H 436.625 -1.22349 -1.36759 0
M  V30 4451 H 435.007 -0.587228 -3.91622 0
M  V30 4452 H 436.181 -3.34652 -3.16772 0
M  V30 4453 H 434.496 -2.91314 -2.97532 0
M  V30 4454 H 437.093 -1.24417 -5.20023 0
M  V30 4455 H 437.436 0.117219 -4.16135 0
M  V30 4456 H 437.969 -1.5118 -3.67953 0
M  V30 4457 H 434.708 -4.17674 -5.05202 0
M  V30 4458 H 434.228 -2.51041 -5.44737 0
M  V30 4459 H 435.907 -3.04403 -5.70918 0
M  V30 4460 N 436.039 1.36541 -0.78704 0
M  V30 4461 C 436.989 2.27459 -0.156957 0
M  V30 4462 C 437.973 1.46843 0.657709 0
M  V30 4463 O 439.165 1.69245 0.518173 0
M  V30 4464 C 436.294 3.35893 0.709278 0
M  V30 4465 C 435.38 4.23947 -0.114049 0
M  V30 4466 N 435.771 4.92145 -1.16736 0
M  V30 4467 C 434.069 4.4587 0.107497 0
M  V30 4468 C 434.77 5.57261 -1.66837 0
M  V30 4469 N 433.746 5.3473 -0.977992 0
M  V30 4470 H 437.548 2.77669 -0.963185 0
M  V30 4471 H 435.062 1.49839 -0.62627 0
M  V30 4472 H 437.059 3.99953 1.17656 0
M  V30 4473 H 435.719 2.87238 1.51408 0
M  V30 4474 H 436.73 4.94169 -1.54976 0
M  V30 4475 H 433.407 4.08056 0.882994 0
M  V30 4476 H 434.797 6.21728 -2.54762 0
M  V30 4477 N 437.518 0.538854 1.48102 0
M  V30 4478 C 438.45 -0.256278 2.27763 0
M  V30 4479 C 439.463 -0.89633 1.35904 0
M  V30 4480 O 440.652 -0.773275 1.60881 0
M  V30 4481 C 437.752 -1.37896 3.09577 0
M  V30 4482 C 436.925 -0.839159 4.29275 0
M  V30 4483 C 435.984 -1.84405 4.9283 0
M  V30 4484 O 435.01 -1.39746 5.51779 0
M  V30 4485 N 436.212 -3.17666 4.85869 0
M  V30 4486 H 438.977 0.426968 2.96643 0
M  V30 4487 H 436.538 0.373747 1.57527 0
M  V30 4488 H 438.53 -2.04955 3.48963 0
M  V30 4489 H 437.1 -1.96572 2.4306 0
M  V30 4490 H 436.32 0.00769287 3.94199 0
M  V30 4491 H 437.608 -0.457548 5.06739 0
M  V30 4492 H 437.006 -3.56609 4.39143 0
M  V30 4493 H 435.563 -3.80334 5.29329 0
M  V30 4494 N 438.996 -1.55193 0.274407 0
M  V30 4495 C 440.244 -1.99187 -0.341902 0
M  V30 4496 C 440.565 -1.16422 -1.56431 0
M  V30 4497 O 439.835 -0.253573 -1.94252 0
M  V30 4498 H 438.415 -0.735721 -0.129317 0
M  V30 4499 H 441.077 -1.91168 0.379578 0
M  V30 4500 H 440.173 -3.05629 -0.632253 0
M  V30 4501 N 440.474 -0.00167713 -1.576 0
M  V30 4502 C 441.699 0.69739 -1.95323 0
M  V30 4503 C 442.124 1.6642 -0.876706 0
M  V30 4504 O 441.482 1.80548 0.165007 0
M  V30 4505 C 441.53 1.40403 -3.32144 0
M  V30 4506 O 440.634 2.5185 -3.26566 0
M  V30 4507 H 439.975 0.185373 -0.637599 0
M  V30 4508 H 442.505 -0.0553665 -2.04525 0
M  V30 4509 H 442.515 1.76707 -3.67748 0
M  V30 4510 H 441.19 0.695167 -4.10049 0
M  V30 4511 H 439.767 2.17861 -3.0264 0
M  V30 4512 N 441.952 1.55251 0.271103 0
M  V30 4513 C 443.192 1.77698 1.01008 0
M  V30 4514 C 443.556 0.567246 1.83429 0
M  V30 4515 O 444.757 0.670013 2.60316 0
M  V30 4516 C 443.028 3.04715 1.86772 0
M  V30 4517 S 444.587 3.48289 2.66909 0
M  V30 4518 H 441.405 0.624343 0.340172 0
M  V30 4519 H 444.007 1.9348 0.280315 0
M  V30 4520 H 442.711 3.90853 1.25149 0
M  V30 4521 H 442.242 2.91604 2.64066 0
M  V30 4522 H 444.257 3.07712 3.89266 0
M  V30 4523 N 443.43 -0.535701 1.48216 0
M  V30 4524 C 444.36 -1.65014 1.65204 0
M  V30 4525 C 445.341 -1.62554 0.501011 0
M  V30 4526 O 446.526 -1.7984 0.732886 0
M  V30 4527 C 443.656 -3.03616 1.68626 0
M  V30 4528 C 442.61 -3.20932 2.83172 0
M  V30 4529 C 441.936 -4.60537 2.71679 0
M  V30 4530 C 443.236 -3.04249 4.24535 0
M  V30 4531 H 444.93 -1.51053 2.58502 0
M  V30 4532 H 442.476 -0.725262 1.24402 0
M  V30 4533 H 444.429 -3.81446 1.79099 0
M  V30 4534 H 443.153 -3.18587 0.719026 0
M  V30 4535 H 441.812 -2.45517 2.72244 0
M  V30 4536 H 441.46 -4.72336 1.72937 0
M  V30 4537 H 441.16 -4.73069 3.48538 0
M  V30 4538 H 442.684 -5.40475 2.84112 0
M  V30 4539 H 444.098 -3.71877 4.36326 0
M  V30 4540 H 442.495 -3.28278 5.02348 0
M  V30 4541 H 443.565 -2.00739 4.41397 0
M  V30 4542 N 444.908 -1.36708 -0.784132 0
M  V30 4543 C 445.871 -1.31307 -1.87859 0
M  V30 4544 C 446.871 -0.219654 -1.59293 0
M  V30 4545 O 448.061 -0.47476 -1.67606 0
M  V30 4546 C 445.193 -1.03679 -3.24751 0
M  V30 4547 H 446.386 -2.28647 -1.94064 0
M  V30 4548 H 443.939 -1.21558 -0.98252 0
M  V30 4549 H 444.674 -0.0681936 -3.24228 0
M  V30 4550 H 444.459 -1.82811 -3.46876 0
M  V30 4551 H 445.949 -1.02518 -4.04821 0
M  V30 4552 N 446.386 1.0089 -1.21074 0
M  V30 4553 C 447.318 2.09737 -0.924291 0
M  V30 4554 C 448.331 1.62546 0.0909809 0
M  V30 4555 O 449.52 1.77942 -0.141021 0
M  V30 4556 C 446.62 3.36922 -0.36559 0
M  V30 4557 C 445.793 4.13216 -1.43426 0
M  V30 4558 C 444.852 5.18696 -0.885496 0
M  V30 4559 O 443.878 5.47176 -1.56801 0
M  V30 4560 N 445.08 5.79718 0.301227 0
M  V30 4561 H 447.845 2.34895 -1.8613 0
M  V30 4562 H 445.406 1.17341 -1.11546 0
M  V30 4563 H 447.398 4.04697 0.0158407 0
M  V30 4564 H 445.968 3.08952 0.476149 0
M  V30 4565 H 445.188 3.40301 -1.9897 0
M  V30 4566 H 446.476 4.60967 -2.15376 0
M  V30 4567 H 445.874 5.58926 0.872849 0
M  V30 4568 H 444.431 6.48804 0.624211 0
M  V30 4569 N 447.864 1.01787 1.20321 0
M  V30 4570 C 449.104 0.716493 1.91431 0
M  V30 4571 C 449.468 -0.740352 1.77152 0
M  V30 4572 O 450.669 -1.1543 2.42754 0
M  V30 4573 C 448.94 1.14169 3.38674 0
M  V30 4574 S 450.499 0.962482 4.28114 0
M  V30 4575 H 447.317 0.261175 0.661293 0
M  V30 4576 H 449.919 1.30539 1.45533 0
M  V30 4577 H 448.623 2.19784 3.46588 0
M  V30 4578 H 448.154 0.545621 3.89598 0
M  V30 4579 H 450.169 -0.133253 4.96021 0
M  V30 4580 N 449.342 -1.36122 0.79427 0
M  V30 4581 C 450.753 -1.81646 0.431446 0
M  V30 4582 C 451.104 -1.66043 -1.04518 0
M  V30 4583 O 450.229 -1.1841 -1.8113 0
M  V30 4584 C 450.824 -3.29785 0.776341 0
M  V30 4585 C 449.383 -3.73501 0.466282 0
M  V30 4586 C 448.53 -2.58313 1.00844 0
M  V30 4587 H 451.481 -1.24274 0.986995 0
M  V30 4588 H 451.502 -3.80437 0.0692413 0
M  V30 4589 H 451.014 -3.4111 1.8511 0
M  V30 4590 H 449.115 -3.67733 -0.600245 0
M  V30 4591 H 449.228 -4.68754 0.990288 0
M  V30 4592 H 447.592 -2.5102 0.431406 0
M  V30 4593 H 448.375 -2.72421 2.08906 0
M  V30 4594 N 450.82 -0.546701 -1.47814 0
M  V30 4595 C 452.045 -0.021268 -2.07389 0
M  V30 4596 C 452.47 1.25822 -1.39822 0
M  V30 4597 O 451.828 1.75111 -0.46968 0
M  V30 4598 C 451.876 0.168502 -3.60206 0
M  V30 4599 O 450.98 1.23347 -3.93522 0
M  V30 4600 H 450.321 -0.0466108 -0.662362 0
M  V30 4601 H 452.851 -0.759387 -1.89985 0
M  V30 4602 H 452.861 0.385982 -4.0617 0
M  V30 4603 H 451.536 -0.766075 -4.08784 0
M  V30 4604 H 450.113 0.997319 -3.59316 0
M  V30 4605 N 452.299 1.55045 -0.282633 0
M  V30 4606 C 453.547 1.99365 0.331334 0
M  V30 4607 C 453.868 1.1725 1.55812 0
M  V30 4608 O 453.138 0.263871 1.94115 0
M  V30 4609 H 451.718 0.736397 0.125414 0
M  V30 4610 H 454.38 1.90964 -0.389711 0
M  V30 4611 H 453.476 3.0596 0.616036 0
M  V30 4612 N 453.777 0.010035 1.57597 0
M  V30 4613 C 455.024 -0.6727 1.91 0
M  V30 4614 C 455.352 -1.73219 0.884614 0
M  V30 4615 O 454.607 -1.95395 -0.109215 0
M  V30 4616 C 454.906 -1.34434 3.31153 0
M  V30 4617 C 454.572 -0.417083 4.48967 0
M  V30 4618 C 453.234 -0.161809 4.80928 0
M  V30 4619 C 455.586 0.220753 5.20732 0
M  V30 4620 C 452.914 0.739426 5.82022 0
M  V30 4621 C 455.266 1.10993 6.22787 0
M  V30 4622 C 453.93 1.37428 6.532 0
M  V30 4623 H 453.2 -0.246158 0.698918 0
M  V30 4624 H 455.847 0.0677145 1.9138 0
M  V30 4625 H 454.152 -2.15905 3.26944 0
M  V30 4626 H 455.849 -1.87883 3.54261 0
M  V30 4627 H 452.439 -0.626217 4.24001 0
M  V30 4628 H 456.623 0.0365643 4.96287 0
M  V30 4629 H 451.879 0.952139 6.03941 0
M  V30 4630 H 456.053 1.61046 6.77523 0
M  V30 4631 H 453.68 2.0743 7.31353 0
M  V30 4632 N 455.255 -1.55392 -0.262866 0
M  V30 4633 C 456.483 -1.80513 -1.01108 0
M  V30 4634 C 456.898 -0.583533 -1.79556 0
M  V30 4635 O 456.255 0.447585 -1.76926 0
M  V30 4636 C 456.306 -3.03648 -1.96164 0
M  V30 4637 O 456.027 -4.2109 -1.20893 0
M  V30 4638 C 457.528 -3.41448 -2.82715 0
M  V30 4639 H 454.748 -0.601079 -0.298236 0
M  V30 4640 H 457.292 -2.02425 -0.290582 0
M  V30 4641 H 455.447 -2.83832 -2.63663 0
M  V30 4642 H 455.861 -4.90771 -1.85051 0
M  V30 4643 H 457.335 -4.30751 -3.45192 0
M  V30 4644 H 457.812 -2.61308 -3.53008 0
M  V30 4645 H 458.418 -3.63559 -2.20693 0
M  V30 4646 N 456.733 0.527833 -1.48498 0
M  V30 4647 C 458.149 0.856571 -1.34666 0
M  V30 4648 C 458.349 1.98271 -0.35931 0
M  V30 4649 O 457.405 2.51551 0.218703 0
M  V30 4650 C 458.718 1.22207 -2.74747 0
M  V30 4651 C 460.266 1.33183 -2.83251 0
M  V30 4652 C 460.741 1.73075 -4.24039 0
M  V30 4653 N 462.232 1.80174 -4.26722 0
M  V30 4654 C 462.967 2.1243 -5.32598 0
M  V30 4655 N 462.463 2.43096 -6.4875 0
M  V30 4656 N 464.256 2.13454 -5.19994 0
M  V30 4657 H 456.407 -0.215174 -2.11307 0
M  V30 4658 H 458.67 -0.0336281 -0.947403 0
M  V30 4659 H 458.376 0.468195 -3.4857 0
M  V30 4660 H 458.25 2.17173 -3.08409 0
M  V30 4661 H 460.637 2.07647 -2.09683 0
M  V30 4662 H 460.718 0.363333 -2.53206 0
M  V30 4663 H 460.362 0.991712 -4.98124 0
M  V30 4664 H 460.292 2.70979 -4.51529 0
M  V30 4665 H 462.783 1.58744 -3.42942 0
M  V30 4666 H 463.096 2.6682 -7.25277 0
M  V30 4667 H 461.441 2.40611 -6.52021 0
M  V30 4668 H 464.632 1.88956 -4.28268 0
M  V30 4669 H 464.805 2.38261 -6.02608 0
M  V30 4670 N 458.211 1.37122 0.776871 0
M  V30 4671 C 459.159 1.32549 1.91138 0
M  V30 4672 C 460.153 0.215119 1.68029 0
M  V30 4673 O 461.359 0.382852 1.75881 0
M  V30 4674 H 457.734 0.412952 0.62847 0
M  V30 4675 H 459.705 2.28332 1.92112 0
M  V30 4676 C 458.454 1.14422 3.28333 0
M  V30 4677 H 457.777 1.99115 3.46689 0
M  V30 4678 H 459.217 1.15272 4.0803 0
M  V30 4679 C 457.676 -0.150434 3.36564 0
M  V30 4680 O 458.206 -1.13584 3.85307 0
M  V30 4681 N 456.412 -0.19939 2.89915 0
M  V30 4682 H 455.959 0.603142 2.5044 0
M  V30 4683 H 455.917 -1.06526 2.95803 0
M  V30 4684 N 459.689 -1.00246 1.21608 0
M  V30 4685 C 460.914 -1.78167 1.06167 0
M  V30 4686 C 461.339 -1.84138 -0.384035 0
M  V30 4687 O 460.697 -1.28683 -1.27712 0
M  V30 4688 C 460.745 -3.19786 1.66642 0
M  V30 4689 O 459.849 -4.02153 0.913613 0
M  V30 4690 H 459.19 -0.549 0.37349 0
M  V30 4691 H 461.72 -1.25994 1.61204 0
M  V30 4692 H 461.73 -3.70451 1.70969 0
M  V30 4693 H 460.405 -3.14754 2.7185 0
M  V30 4694 H 458.982 -3.60711 0.945635 0
M  V30 4695 N 461.167 -1.02423 -1.1978 0
M  V30 4696 C 462.392 -0.7373 -1.93852 0
M  V30 4697 C 462.817 0.696923 -1.74713 0
M  V30 4698 O 462.175 1.48056 -1.04638 0
M  V30 4699 C 462.223 -1.08783 -3.438 0
M  V30 4700 O 461.327 -0.20383 -4.11896 0
M  V30 4701 H 460.668 -0.27284 -0.605355 0
M  V30 4702 H 463.198 -1.36966 -1.51992 0
M  V30 4703 H 463.208 -1.04276 -3.9445 0
M  V30 4704 H 461.883 -2.13274 -3.57053 0
M  V30 4705 H 460.46 -0.307091 -3.71633 0
M  V30 4706 N 462.645 1.35699 -0.801477 0
M  V30 4707 C 463.87 2.03687 -0.390678 0
M  V30 4708 C 464.295 1.60015 0.988778 0
M  V30 4709 O 463.653 0.774357 1.63931 0
M  V30 4710 C 463.701 3.57439 -0.476404 0
M  V30 4711 O 462.805 4.09208 0.512106 0
M  V30 4712 H 462.146 0.64344 -0.163956 0
M  V30 4713 H 464.676 1.73403 -1.08594 0
M  V30 4714 H 464.686 4.06544 -0.344357 0
M  V30 4715 H 463.361 3.88576 -1.48262 0
M  V30 4716 H 461.938 3.7134 0.340721 0
M  V30 4717 N 464.123 0.554532 1.47522 0
M  V30 4718 C 465.372 0.0273458 2.01681 0
M  V30 4719 C 465.685 -1.32962 1.43459 0
M  V30 4720 O 466.891 -1.94657 1.89265 0
M  V30 4721 C 465.347 -0.00159057 3.599 0
M  V30 4722 C 464.955 1.35197 4.27113 0
M  V30 4723 C 466.699 -0.476311 4.21819 0
M  V30 4724 C 464.606 1.28229 5.77331 0
M  V30 4725 H 463.536 0.00645269 0.753972 0
M  V30 4726 H 466.187 0.701985 1.69542 0
M  V30 4727 H 464.569 -0.741821 3.8899 0
M  V30 4728 H 465.743 2.1097 4.09668 0
M  V30 4729 H 464.058 1.76441 3.77171 0
M  V30 4730 H 466.655 -0.5468 5.31897 0
M  V30 4731 H 466.998 -1.4877 3.8881 0
M  V30 4732 H 467.531 0.20898 3.97251 0
M  V30 4733 H 464.27 2.26959 6.14955 0
M  V30 4734 H 463.79 0.566314 5.97121 0
M  V30 4735 H 465.469 0.983226 6.39485 0
M  V30 4736 N 465.601 -1.54893 0.290851 0
M  V30 4737 C 466.848 -1.99933 -0.321391 0
M  V30 4738 C 467.176 -1.17927 -1.54672 0
M  V30 4739 O 466.431 -0.240902 -1.94212 0
M  V30 4740 C 466.73 -3.49815 -0.732397 0
M  V30 4741 C 466.396 -4.4921 0.390056 0
M  V30 4742 C 465.058 -4.76107 0.698223 0
M  V30 4743 C 467.41 -5.08453 1.14562 0
M  V30 4744 C 464.738 -5.59514 1.76526 0
M  V30 4745 C 467.09 -5.9302 2.2025 0
M  V30 4746 C 465.754 -6.18232 2.51684 0
M  V30 4747 H 465.024 -0.731608 -0.117605 0
M  V30 4748 H 467.671 -1.87107 0.407839 0
M  V30 4749 H 465.976 -3.60199 -1.54155 0
M  V30 4750 H 467.673 -3.82083 -1.21712 0
M  V30 4751 H 464.263 -4.28372 0.13976 0
M  V30 4752 H 468.447 -4.87683 0.920801 0
M  V30 4753 H 463.703 -5.77289 2.01364 0
M  V30 4754 H 467.877 -6.37955 2.7926 0
M  V30 4755 H 465.504 -6.82653 3.34499 0
M  V30 4756 N 467.08 -0.0183926 -1.57589 0
M  V30 4757 C 468.32 0.666846 -1.93216 0
M  V30 4758 C 468.684 1.69905 -0.894215 0
M  V30 4759 O 469.885 2.436 -1.13633 0
M  V30 4760 C 468.156 1.27684 -3.33814 0
M  V30 4761 S 469.715 1.98464 -3.91353 0
M  V30 4762 H 466.533 0.219826 -0.676164 0
M  V30 4763 H 469.135 -0.0794893 -1.95338 0
M  V30 4764 H 467.839 0.513006 -4.07181 0
M  V30 4765 H 467.37 2.06071 -3.3511 0
M  V30 4766 H 469.385 3.26189 -3.73918 0
M  V30 4767 N 468.558 1.5553 0.254621 0
M  V30 4768 C 469.508 1.86057 1.31783 0
M  V30 4769 C 470.492 0.720827 1.4385 0
M  V30 4770 O 471.684 0.982586 1.47222 0
M  V30 4771 C 468.813 2.15203 2.67475 0
M  V30 4772 C 467.899 3.35484 2.59444 0
M  V30 4773 N 468.29 4.54945 2.2104 0
M  V30 4774 C 466.588 3.38441 2.90472 0
M  V30 4775 C 467.289 5.3707 2.23453 0
M  V30 4776 N 466.265 4.75936 2.62652 0
M  V30 4777 H 470.067 2.75953 1.01129 0
M  V30 4778 H 467.581 1.55653 0.463255 0
M  V30 4779 H 469.578 2.35235 3.44195 0
M  V30 4780 H 468.238 1.26601 2.99002 0
M  V30 4781 H 469.249 4.8071 1.92712 0
M  V30 4782 H 465.926 2.60087 3.2659 0
M  V30 4783 H 467.316 6.42626 1.96166 0
M  V30 4784 N 470.036 -0.519951 1.48776 0
M  V30 4785 C 470.983 -1.62352 1.64044 0
M  V30 4786 C 471.953 -1.58945 0.482251 0
M  V30 4787 O 473.138 -1.77219 0.706971 0
M  V30 4788 C 470.278 -3.00579 1.69547 0
M  V30 4789 C 469.391 -3.14145 2.96541 0
M  V30 4790 C 468.526 -4.42991 2.93142 0
M  V30 4791 C 467.565 -4.50122 4.14797 0
M  V30 4792 N 466.702 -5.7037 4.09418 0
M  V30 4793 H 471.542 -1.48643 2.58281 0
M  V30 4794 H 469.079 -0.723516 1.28077 0
M  V30 4795 H 471.037 -3.80671 1.70719 0
M  V30 4796 H 469.667 -3.13036 0.787918 0
M  V30 4797 H 468.719 -2.27239 3.05068 0
M  V30 4798 H 470.031 -3.15275 3.86527 0
M  V30 4799 H 469.185 -5.31385 2.92772 0
M  V30 4800 H 467.924 -4.44398 2.00902 0
M  V30 4801 H 466.929 -3.60133 4.15433 0
M  V30 4802 H 468.154 -4.50445 5.08208 0
M  V30 4803 H 466.1 -5.72655 3.20004 0
M  V30 4804 H 466.017 -5.73036 4.93119 0
M  V30 4805 H 467.285 -6.61023 4.13121 0
M  V30 4806 N 471.514 -1.37532 -0.769588 0
M  V30 4807 C 472.754 -1.34261 -1.54122 0
M  V30 4808 C 473.118 0.0717222 -1.91866 0
M  V30 4809 O 474.319 0.22918 -2.67821 0
M  V30 4810 C 472.59 -2.2574 -2.77086 0
M  V30 4811 S 474.149 -2.40339 -3.67127 0
M  V30 4812 H 470.967 -0.476595 -0.527615 0
M  V30 4813 H 473.569 -1.73303 -0.90479 0
M  V30 4814 H 472.273 -3.27417 -2.4744 0
M  V30 4815 H 471.804 -1.87789 -3.45686 0
M  V30 4816 H 473.819 -1.61558 -4.69163 0
M  V30 4817 N 472.992 0.995999 -1.22138 0
M  V30 4818 C 473.902 2.11985 -1.00496 0
M  V30 4819 C 474.918 1.7394 0.0457701 0
M  V30 4820 O 476.094 2.00868 -0.146273 0
M  V30 4821 C 473.159 3.41779 -0.582086 0
M  V30 4822 C 472.22 3.93943 -1.70608 0
M  V30 4823 C 471.453 5.17542 -1.30328 0
M  V30 4824 O 471.676 5.70114 -0.180743 0
M  V30 4825 O 470.61 5.63382 -2.11861 0
M  V30 4826 H 474.436 2.33123 -1.94647 0
M  V30 4827 H 472.021 1.10358 -1.00705 0
M  V30 4828 H 473.903 4.1989 -0.356467 0
M  V30 4829 H 472.578 3.22007 0.330592 0
M  V30 4830 H 471.485 3.17019 -1.98619 0
M  V30 4831 H 472.818 4.18141 -2.59651 0
M  V30 4832 N 474.47 1.03057 1.19235 0
M  V30 4833 C 475.718 0.726581 1.88587 0
M  V30 4834 C 476.039 -0.747227 1.80115 0
M  V30 4835 O 475.309 -1.53849 1.21274 0
M  V30 4836 H 473.889 0.265768 0.698124 0
M  V30 4837 H 476.551 1.30516 1.44746 0
M  V30 4838 H 475.647 1.0224 2.94879 0
M  V30 4839 N 475.948 -1.35272 0.808662 0
M  V30 4840 C 476.878 -2.32315 0.234981 0
M  V30 4841 C 477.859 -1.57572 -0.64071 0
M  V30 4842 O 479.044 -1.8563 -0.570551 0
M  V30 4843 C 476.174 -3.41801 -0.615601 0
M  V30 4844 C 475.128 -4.27694 0.161767 0
M  V30 4845 C 474.454 -5.28519 -0.810649 0
M  V30 4846 C 475.754 -5.04231 1.36193 0
M  V30 4847 H 477.448 -2.80543 1.04575 0
M  V30 4848 H 474.994 -1.3488 0.504315 0
M  V30 4849 H 476.947 -4.08693 -1.02702 0
M  V30 4850 H 475.671 -2.92186 -1.45928 0
M  V30 4851 H 474.33 -3.62384 0.554382 0
M  V30 4852 H 473.978 -4.75171 -1.64988 0
M  V30 4853 H 473.678 -5.8686 -0.294822 0
M  V30 4854 H 475.202 -5.98283 -1.22023 0
M  V30 4855 H 476.616 -5.64058 1.02528 0
M  V30 4856 H 475.013 -5.72077 1.81239 0
M  V30 4857 H 476.083 -4.34753 2.14751 0
M  V30 4858 N 477.426 -0.562348 -1.47226 0
M  V30 4859 C 478.666 -0.0426374 -2.04356 0
M  V30 4860 C 479.03 1.28487 -1.42671 0
M  V30 4861 O 480.231 1.89259 -1.90878 0
M  V30 4862 C 478.502 0.0433826 -3.57374 0
M  V30 4863 S 480.061 0.508472 -4.35844 0
M  V30 4864 H 476.879 -0.0276234 -0.710463 0
M  V30 4865 H 479.481 -0.750245 -1.80531 0
M  V30 4866 H 478.185 -0.927072 -3.99792 0
M  V30 4867 H 477.716 0.774387 -3.85703 0
M  V30 4868 H 479.731 1.76719 -4.63665 0
M  V30 4869 N 478.904 1.54736 -0.299062 0
M  V30 4870 C 480.315 1.8569 0.193971 0
M  V30 4871 C 480.666 1.22101 1.53577 0
M  V30 4872 O 479.791 0.51799 2.10109 0
M  V30 4873 C 480.386 3.36895 0.358733 0
M  V30 4874 C 478.945 3.67887 0.795986 0
M  V30 4875 C 478.092 2.77131 -0.096807 0
M  V30 4876 H 481.043 1.49934 -0.520134 0
M  V30 4877 H 481.064 3.61294 1.19361 0
M  V30 4878 H 480.576 3.83148 -0.617998 0
M  V30 4879 H 478.677 3.27151 1.78334 0
M  V30 4880 H 478.79 4.75114 0.616718 0
M  V30 4881 H 477.154 2.51153 0.423581 0
M  V30 4882 H 477.937 3.26204 -1.06986 0
M  V30 4883 N 480.382 0.0267497 1.57577 0
M  V30 4884 C 481.329 -0.955894 2.10075 0
M  V30 4885 C 482.299 -1.32453 1.00226 0
M  V30 4886 O 483.484 -1.41826 1.27632 0
M  V30 4887 C 480.624 -2.2338 2.6305 0
M  V30 4888 C 479.737 -1.92183 3.86898 0
M  V30 4889 C 478.872 -3.14251 4.28275 0
M  V30 4890 C 477.911 -2.78862 5.44888 0
M  V30 4891 N 477.048 -3.93548 5.81433 0
M  V30 4892 H 481.888 -0.501303 2.93753 0
M  V30 4893 H 479.425 -0.235847 1.45197 0
M  V30 4894 H 481.383 -2.98124 2.91853 0
M  V30 4895 H 480.013 -2.6646 1.82205 0
M  V30 4896 H 479.065 -1.07692 3.64838 0
M  V30 4897 H 480.377 -1.62117 4.7172 0
M  V30 4898 H 479.531 -3.97317 4.58502 0
M  V30 4899 H 478.27 -3.47476 3.42215 0
M  V30 4900 H 477.275 -1.94208 5.14357 0
M  V30 4901 H 478.5 -2.46855 6.32645 0
M  V30 4902 H 476.446 -4.2662 4.98328 0
M  V30 4903 H 476.363 -3.67098 6.6089 0
M  V30 4904 H 477.631 -4.77325 6.16264 0
M  V30 4905 N 481.861 -1.55662 -0.24637 0
M  V30 4906 C 482.771 -1.93495 -1.32653 0
M  V30 4907 C 483.787 -0.835462 -1.5263 0
M  V30 4908 O 484.963 -1.1369 -1.66242 0
M  V30 4909 C 482.028 -2.22242 -2.66101 0
M  V30 4910 C 481.089 -3.45625 -2.54641 0
M  V30 4911 C 480.322 -3.72991 -3.81724 0
M  V30 4912 O 480.545 -3.02421 -4.8363 0
M  V30 4913 O 479.479 -4.66515 -3.80325 0
M  V30 4914 H 483.305 -2.85498 -1.03559 0
M  V30 4915 H 480.89 -1.42551 -0.44717 0
M  V30 4916 H 482.772 -2.42037 -3.44958 0
M  V30 4917 H 481.447 -1.33417 -2.94926 0
M  V30 4918 H 480.354 -3.31136 -1.74067 0
M  V30 4919 H 481.687 -4.34754 -2.3076 0
M  V30 4920 N 483.339 0.512053 -1.4905 0
M  V30 4921 C 484.579 1.27715 -1.59588 0
M  V30 4922 C 484.943 1.90071 -0.271502 0
M  V30 4923 O 486.144 2.67616 -0.251987 0
M  V30 4924 C 484.415 2.32399 -2.71524 0
M  V30 4925 S 485.974 3.18396 -3.01943 0
M  V30 4926 H 482.792 0.43419 -0.563027 0
M  V30 4927 H 485.394 0.581315 -1.86657 0
M  V30 4928 H 484.098 1.85101 -3.66287 0
M  V30 4929 H 483.629 3.06667 -2.46412 0
M  V30 4930 H 485.644 4.32842 -2.42616 0
M  V30 4931 N 484.817 1.37938 0.762283 0
M  V30 4932 C 485.764 1.34467 1.87583 0
M  V30 4933 C 486.734 0.208633 1.64785 0
M  V30 4934 O 487.919 0.399494 1.86571 0
M  V30 4935 C 485.059 1.16692 3.24772 0
M  V30 4936 C 484.172 2.39608 3.59461 0
M  V30 4937 C 483.307 2.14631 4.85908 0
M  V30 4938 C 482.346 3.33364 5.13357 0
M  V30 4939 N 481.483 3.07877 6.30996 0
M  V30 4940 H 486.323 2.29669 1.89885 0
M  V30 4941 H 483.86 1.14116 0.928219 0
M  V30 4942 H 485.818 1.04405 4.03925 0
M  V30 4943 H 484.448 0.251333 3.2182 0
M  V30 4944 H 483.5 2.626 2.75219 0
M  V30 4945 H 484.812 3.28128 3.75678 0
M  V30 4946 H 483.966 1.99429 5.72986 0
M  V30 4947 H 482.705 1.23463 4.71814 0
M  V30 4948 H 481.71 3.49094 4.24751 0
M  V30 4949 H 482.935 4.25395 5.29354 0
M  V30 4950 H 480.881 2.19348 6.18241 0
M  V30 4951 H 480.798 3.89944 6.47673 0
M  V30 4952 H 482.066 2.96313 7.20985 0
M  V30 4953 N 486.295 -0.989507 1.22664 0
M  V30 4954 C 487.541 -1.7321 1.05481 0
M  V30 4955 C 487.874 -1.89852 -0.408635 0
M  V30 4956 O 487.149 -1.44416 -1.30285 0
M  V30 4957 C 487.432 -3.1357 1.77047 0
M  V30 4958 C 487.285 -3.04555 3.31008 0
M  V30 4959 C 488.604 -4.12812 1.5256 0
M  V30 4960 H 485.723 -0.628697 0.384589 0
M  V30 4961 H 488.365 -1.15258 1.51049 0
M  V30 4962 H 486.515 -3.63046 1.3831 0
M  V30 4963 H 488.187 -2.62674 3.7921 0
M  V30 4964 H 486.43 -2.41278 3.6051 0
M  V30 4965 H 487.101 -4.03894 3.76263 0
M  V30 4966 H 489.577 -3.72106 1.86215 0
M  V30 4967 H 488.453 -5.09132 2.05124 0
M  V30 4968 H 488.714 -4.39711 0.458936 0
M  V30 4969 N 487.773 -1.03688 -1.18687 0
M  V30 4970 C 489.021 -0.736572 -1.88199 0
M  V30 4971 C 489.342 0.737665 -1.80509 0
M  V30 4972 O 488.612 1.53204 -1.22088 0
M  V30 4973 H 487.192 -0.269466 -0.696704 0
M  V30 4974 H 489.854 -1.31282 -1.44052 0
M  V30 4975 H 488.95 -1.03802 -2.94332 0
M  V30 4976 N 489.251 1.34841 -0.815825 0
M  V30 4977 C 490.479 2.0273 -0.413294 0
M  V30 4978 C 490.894 1.61459 0.978599 0
M  V30 4979 O 490.251 0.816584 1.63212 0
M  V30 4980 C 490.302 3.58058 -0.497676 0
M  V30 4981 O 490.023 3.97832 -1.8347 0
M  V30 4982 C 491.524 4.4321 -0.0891339 0
M  V30 4983 H 488.744 0.649956 -0.166728 0
M  V30 4984 H 491.288 1.72267 -1.10201 0
M  V30 4985 H 489.443 3.87136 0.142886 0
M  V30 4986 H 489.857 4.92501 -1.80396 0
M  V30 4987 H 491.331 5.5164 -0.199274 0
M  V30 4988 H 491.808 4.28432 0.966571 0
M  V30 4989 H 492.414 4.19446 -0.703214 0
M  V30 4990 N 490.729 0.570148 1.46925 0
M  V30 4991 C 491.676 -0.170257 2.30171 0
M  V30 4992 C 492.646 -0.896099 1.39855 0
M  V30 4993 O 493.831 -0.889248 1.68811 0
M  V30 4994 C 490.971 -1.18605 3.24079 0
M  V30 4995 C 490.084 -0.464947 4.29491 0
M  V30 4996 C 489.219 -1.46716 5.10537 0
M  V30 4997 C 488.258 -0.731758 6.0771 0
M  V30 4998 N 487.395 -1.68142 6.81669 0
M  V30 4999 H 492.235 0.545713 2.92961 0
M  V30 5000 H 489.772 0.280938 1.44392 0
M  V30 5001 H 491.73 -1.78771 3.76957 0
M  V30 5002 H 490.36 -1.86989 2.63125 0
M  V30 5003 H 489.412 0.251506 3.79568 0
M  V30 5004 H 490.724 0.110548 4.98677 0
M  V30 5005 H 489.878 -2.14199 5.6763 0
M  V30 5006 H 488.617 -2.07658 4.41282 0
M  V30 5007 H 487.622 -0.0430787 5.49783 0
M  V30 5008 H 488.847 -0.127904 6.7898 0
M  V30 5009 H 486.793 -2.27918 6.15134 0
M  V30 5010 H 486.71 -1.15841 7.47072 0
M  V30 5011 H 487.978 -2.347 7.43328 0
M  V30 5012 N 492.207 -1.54576 0.307264 0
M  V30 5013 C 493.435 -2.04675 -0.302597 0
M  V30 5014 C 493.85 -1.18425 -1.47041 0
M  V30 5015 O 493.207 -0.211257 -1.81273 0
M  V30 5016 C 493.258 -3.53575 -0.752801 0
M  V30 5017 O 492.979 -4.36547 0.368536 0
M  V30 5018 C 494.48 -4.19699 -1.42717 0
M  V30 5019 H 491.7 -0.66786 -0.0648374 0
M  V30 5020 H 494.244 -1.99516 0.448716 0
M  V30 5021 H 492.399 -3.59074 -1.45412 0
M  V30 5022 H 492.813 -5.24497 0.0168937 0
M  V30 5023 H 494.287 -5.25388 -1.69327 0
M  V30 5024 H 494.764 -3.69815 -2.36925 0
M  V30 5025 H 495.37 -4.18293 -0.768856 0
M  V30 5026 N 493.685 -0.035106 -1.57561 0
M  V30 5027 C 494.934 0.641604 -1.91223 0
M  V30 5028 C 495.247 1.72944 -0.913761 0
M  V30 5029 O 496.453 2.46321 -1.14185 0
M  V30 5030 C 494.909 1.19249 -3.3957 0
M  V30 5031 C 494.517 0.137616 -4.47789 0
M  V30 5032 C 496.261 1.84537 -3.82291 0
M  V30 5033 C 494.168 0.700478 -5.87237 0
M  V30 5034 H 493.098 0.243417 -0.713627 0
M  V30 5035 H 495.749 -0.101382 -1.8322 0
M  V30 5036 H 494.131 1.98728 -3.42525 0
M  V30 5037 H 495.305 -0.635153 -4.56402 0
M  V30 5038 H 493.62 -0.416855 -4.14308 0
M  V30 5039 H 496.217 2.27616 -4.83834 0
M  V30 5040 H 496.56 2.69054 -3.17672 0
M  V30 5041 H 497.093 1.11739 -3.81784 0
M  V30 5042 H 493.832 -0.106693 -6.55413 0
M  V30 5043 H 493.352 1.4416 -5.82218 0
M  V30 5044 H 495.031 1.18837 -6.35993 0
M  V30 5045 N 495.163 1.55791 0.238111 0
M  V30 5046 C 496.44 1.68798 0.98826 0
M  V30 5047 C 496.82 0.577562 2.03045 0
M  V30 5048 O 496.168 -0.41778 2.24648 0
M  V30 5049 C 496.378 3.09454 1.61367 0
M  V30 5050 C 497.726 3.68335 2.11221 0
M  V30 5051 O 498.75 3.1231 1.71292 0
M  V30 5052 O 497.609 4.6657 2.84561 0
M  V30 5053 H 494.703 0.686881 0.460568 0
M  V30 5054 H 497.249 1.68118 0.231202 0
M  V30 5055 H 496.021 3.81726 0.860295 0
M  V30 5056 H 495.644 3.14182 2.4367 0
M  V30 5057 N 496.642 -0.504142 1.49319 0
M  V30 5058 C 497.867 -1.28729 1.62615 0
M  V30 5059 C 498.292 -1.85752 0.296309 0
M  V30 5060 O 497.65 -1.65704 -0.735649 0
M  V30 5061 C 497.698 -2.39561 2.69524 0
M  V30 5062 O 496.802 -3.43324 2.28478 0
M  V30 5063 H 496.143 -0.380172 0.544395 0
M  V30 5064 H 498.673 -0.603872 1.95485 0
M  V30 5065 H 498.683 -2.8537 2.91595 0
M  V30 5066 H 497.358 -1.97423 3.66056 0
M  V30 5067 H 495.935 -3.03455 2.16725 0
M  V30 5068 N 498.12 -1.38341 -0.754957 0
M  V30 5069 C 499.369 -1.33791 -1.5094 0
M  V30 5070 C 499.682 0.0699267 -1.95475 0
M  V30 5071 O 500.888 0.237956 -2.70455 0
M  V30 5072 C 499.344 -2.34934 -2.72643 0
M  V30 5073 C 498.952 -3.81332 -2.35138 0
M  V30 5074 C 500.696 -2.39425 -3.50536 0
M  V30 5075 C 498.603 -4.74164 -3.53444 0
M  V30 5076 H 497.533 -0.497314 -0.566741 0
M  V30 5077 H 500.184 -1.63888 -0.825403 0
M  V30 5078 H 498.566 -1.97878 -3.43017 0
M  V30 5079 H 499.74 -4.27319 -1.7244 0
M  V30 5080 H 498.055 -3.79946 -1.70382 0
M  V30 5081 H 500.652 -3.0598 -4.38498 0
M  V30 5082 H 500.995 -1.41278 -3.91594 0
M  V30 5083 H 501.528 -2.75274 -2.87174 0
M  V30 5084 H 498.267 -5.73501 -3.17453 0
M  V30 5085 H 497.787 -4.3287 -4.15191 0
M  V30 5086 H 499.466 -4.92111 -4.20043 0
M  V30 5087 N 499.598 0.982988 -1.23187 0
M  V30 5088 C 500.53 2.07729 -0.968572 0
M  V30 5089 C 501.543 1.62702 0.0564821 0
M  V30 5090 O 502.732 1.77603 -0.178733 0
M  V30 5091 C 499.832 3.36071 -0.436974 0
M  V30 5092 C 499.005 4.10081 -1.52159 0
M  V30 5093 C 498.064 5.16701 -0.99532 0
M  V30 5094 O 497.09 5.43727 -1.68373 0
M  V30 5095 N 498.292 5.80226 0.178192 0
M  V30 5096 H 501.057 2.30894 -1.9107 0
M  V30 5097 H 498.618 1.14949 -1.1401 0
M  V30 5098 H 500.61 4.04639 -0.0700051 0
M  V30 5099 H 499.18 3.09893 0.410509 0
M  V30 5100 H 498.4 3.36004 -2.06144 0
M  V30 5101 H 499.688 4.56295 -2.25105 0
M  V30 5102 H 499.086 5.60651 0.754096 0
M  V30 5103 H 497.643 6.49982 0.486449 0
M  V30 5104 N 501.076 1.04316 1.18135 0
M  V30 5105 C 502.039 0.640794 2.2006 0
M  V30 5106 C 503.039 -0.303124 1.57917 0
M  V30 5107 O 504.229 -0.0881855 1.73977 0
M  V30 5108 C 501.361 -0.060148 3.40847 0
M  V30 5109 H 502.554 1.54281 2.57172 0
M  V30 5110 H 500.107 0.836004 1.32063 0
M  V30 5111 H 500.842 -0.975845 3.0927 0
M  V30 5112 H 500.627 0.618319 3.87194 0
M  V30 5113 H 502.117 -0.328082 4.16309 0
M  V30 5114 N 502.554 -1.34406 0.822964 0
M  V30 5115 C 503.517 -2.2783 0.250271 0
M  V30 5116 C 504.517 -1.50288 -0.571854 0
M  V30 5117 O 505.707 -1.69825 -0.387952 0
M  V30 5118 C 502.839 -3.34663 -0.649137 0
M  V30 5119 H 504.032 -2.79992 1.07444 0
M  V30 5120 H 501.585 -1.44539 0.594829 0
M  V30 5121 H 502.32 -2.87714 -1.49637 0
M  V30 5122 H 502.105 -3.92052 -0.0611199 0
M  V30 5123 H 503.595 -4.04349 -1.04363 0
M  V30 5124 N 504.032 -0.577932 -1.46621 0
M  V30 5125 C 504.964 0.195801 -2.28362 0
M  V30 5126 C 505.977 0.859983 -1.38232 0
M  V30 5127 O 507.166 0.730349 -1.62875 0
M  V30 5128 C 504.266 1.29639 -3.13124 0
M  V30 5129 C 503.439 0.725049 -4.31349 0
M  V30 5130 C 502.498 1.71274 -4.97546 0
M  V30 5131 O 501.524 1.25067 -5.5529 0
M  V30 5132 N 502.726 3.04672 -4.94121 0
M  V30 5133 H 505.491 -0.505468 -2.95407 0
M  V30 5134 H 503.052 -0.415381 -1.56481 0
M  V30 5135 H 505.044 1.95631 -3.54275 0
M  V30 5136 H 503.614 1.90059 -2.48186 0
M  V30 5137 H 502.834 -0.112205 -3.9404 0
M  V30 5138 H 504.122 0.323034 -5.07774 0
M  V30 5139 H 503.52 3.4484 -4.48444 0
M  V30 5140 H 502.077 3.66166 -5.39227 0
M  V30 5141 N 505.51 1.54411 -0.315457 0
M  V30 5142 C 506.787 1.92562 0.343398 0
M  V30 5143 C 507.167 1.24423 1.70535 0
M  V30 5144 O 506.515 0.385051 2.25232 0
M  V30 5145 C 506.725 3.46168 0.443687 0
M  V30 5146 C 508.073 4.18659 0.707783 0
M  V30 5147 O 509.097 3.52281 0.52693 0
M  V30 5148 O 507.956 5.36198 1.05612 0
M  V30 5149 H 505.05 0.80379 0.194552 0
M  V30 5150 H 507.596 1.65738 -0.364577 0
M  V30 5151 H 506.368 3.8792 -0.513172 0
M  V30 5152 H 505.991 3.79073 1.19956 0
M  V30 5153 N 506.988 0.0434614 1.5754 0
M  V30 5154 C 507.918 -0.931651 2.14109 0
M  V30 5155 C 508.899 -1.32971 1.06079 0
M  V30 5156 O 510.084 -1.40579 1.33982 0
M  V30 5157 C 507.214 -2.20914 2.67982 0
M  V30 5158 C 506.168 -1.95139 3.80926 0
M  V30 5159 C 505.494 -3.29276 4.21285 0
M  V30 5160 C 506.794 -1.27913 5.06395 0
M  V30 5161 H 508.488 -0.460497 2.95837 0
M  V30 5162 H 506.034 -0.220058 1.42309 0
M  V30 5163 H 507.987 -2.89522 3.06194 0
M  V30 5164 H 506.711 -2.70221 1.83434 0
M  V30 5165 H 505.37 -1.28945 3.43175 0
M  V30 5166 H 505.018 -3.76369 3.33699 0
M  V30 5167 H 504.718 -3.12831 4.97404 0
M  V30 5168 H 506.242 -3.99129 4.62091 0
M  V30 5169 H 507.656 -1.86544 5.42102 0
M  V30 5170 H 506.053 -1.2182 5.87605 0
M  V30 5171 H 507.123 -0.254066 4.84234 0
M  V30 5172 N 508.466 -1.55915 -0.229846 0
M  V30 5173 C 509.712 -1.78807 -0.956868 0
M  V30 5174 C 510.045 -0.611687 -1.84315 0
M  V30 5175 O 509.32 0.389398 -1.90562 0
M  V30 5176 C 509.603 -3.11718 -1.80288 0
M  V30 5177 C 509.456 -4.3979 -0.943649 0
M  V30 5178 C 510.775 -3.40999 -2.78222 0
M  V30 5179 H 507.894 -0.6505 -0.346437 0
M  V30 5180 H 510.536 -1.88648 -0.226252 0
M  V30 5181 H 508.686 -3.03459 -2.42579 0
M  V30 5182 H 510.358 -4.60059 -0.338121 0
M  V30 5183 H 508.601 -4.33086 -0.248705 0
M  V30 5184 H 509.272 -5.29208 -1.5698 0
M  V30 5185 H 511.748 -3.49332 -2.26067 0
M  V30 5186 H 510.624 -4.35183 -3.34526 0
M  V30 5187 H 510.885 -2.62754 -3.55546 0
M  V30 5188 N 509.944 0.496216 -1.49584 0
M  V30 5189 C 511.192 1.24756 -1.58998 0
M  V30 5190 C 511.513 1.92968 -0.280775 0
M  V30 5191 O 510.783 1.82959 0.700198 0
M  V30 5192 H 509.363 0.463471 -0.585836 0
M  V30 5193 H 512.025 0.574678 -1.86235 0
M  V30 5194 H 511.121 2.00895 -2.38847 0
M  V30 5195 N 511.423 1.38739 0.74761 0
M  V30 5196 C 512.663 1.36695 1.51966 0
M  V30 5197 C 513.027 -0.0411889 1.91956 0
M  V30 5198 O 514.228 -0.186543 2.68152 0
M  V30 5199 C 512.499 2.30119 2.73459 0
M  V30 5200 S 514.058 2.4615 3.63257 0
M  V30 5201 H 510.876 0.484929 0.519966 0
M  V30 5202 H 513.478 1.7472 0.877104 0
M  V30 5203 H 512.182 3.31312 2.422 0
M  V30 5204 H 511.713 1.93265 3.42655 0
M  V30 5205 H 513.728 1.69001 4.66533 0
M  V30 5206 N 512.901 -0.976442 1.23707 0
M  V30 5207 C 514.129 -1.75341 1.09833 0
M  V30 5208 C 514.544 -1.8553 -0.349885 0
M  V30 5209 O 513.901 -1.33732 -1.24185 0
M  V30 5210 C 513.952 -3.17833 1.72233 0
M  V30 5211 O 513.673 -3.08167 3.11391 0
M  V30 5212 C 515.174 -4.11906 1.63853 0
M  V30 5213 H 512.394 -0.550137 0.384175 0
M  V30 5214 H 514.938 -1.2265 1.63638 0
M  V30 5215 H 513.093 -3.67538 1.22452 0
M  V30 5216 H 513.507 -3.97897 3.41729 0
M  V30 5217 H 514.981 -5.09579 2.12211 0
M  V30 5218 H 515.458 -4.35109 0.598092 0
M  V30 5219 H 516.064 -3.68107 2.13019 0
M  V30 5220 N 514.379 -1.04941 -1.1758 0
M  V30 5221 C 515.329 -0.618378 -2.19454 0
M  V30 5222 C 516.313 0.343813 -1.57184 0
M  V30 5223 O 517.505 0.16145 -1.76262 0
M  V30 5224 C 514.634 0.00803847 -3.43299 0
M  V30 5225 C 513.72 -0.977827 -4.12673 0
M  V30 5226 N 514.111 -2.14826 -4.57912 0
M  V30 5227 C 512.409 -0.805748 -4.38661 0
M  V30 5228 C 513.11 -2.77174 -5.11419 0
M  V30 5229 N 512.086 -2.04989 -5.03468 0
M  V30 5230 H 515.888 -1.51018 -2.52132 0
M  V30 5231 H 513.402 -0.919201 -1.33882 0
M  V30 5232 H 515.399 0.334584 -4.15555 0
M  V30 5233 H 514.059 0.895272 -3.12114 0
M  V30 5234 H 515.07 -2.52673 -4.52081 0
M  V30 5235 H 511.747 0.0306506 -4.17489 0
M  V30 5236 H 513.137 -3.76416 -5.56562 0
M  V30 5237 N 515.857 1.33968 -0.830081 0
M  V30 5238 C 517.103 1.98357 -0.422191 0
M  V30 5239 C 517.436 1.65633 1.01387 0
M  V30 5240 O 516.711 0.931648 1.70735 0
M  V30 5241 C 516.994 3.54492 -0.633043 0
M  V30 5242 C 516.847 3.96934 -2.11574 0
M  V30 5243 C 518.166 4.40039 -0.0735584 0
M  V30 5244 H 515.285 0.720544 -0.154871 0
M  V30 5245 H 517.927 1.58749 -1.04397 0
M  V30 5246 H 516.077 3.88361 -0.103775 0
M  V30 5247 H 517.749 3.73363 -2.7092 0
M  V30 5248 H 515.992 3.46984 -2.60354 0
M  V30 5249 H 516.663 5.05651 -2.21406 0
M  V30 5250 H 519.139 4.12764 -0.52585 0
M  V30 5251 H 518.015 5.48327 -0.250841 0
M  V30 5252 H 518.276 4.30124 1.02202 0
M  V30 5253 N 517.335 0.585699 1.46312 0
M  V30 5254 C 518.245 -0.148236 2.34131 0
M  V30 5255 C 519.261 -0.882972 1.49932 0
M  V30 5256 O 520.437 -0.845484 1.82794 0
M  V30 5257 C 517.502 -1.14714 3.27172 0
M  V30 5258 C 516.563 -0.416746 4.27272 0
M  V30 5259 C 515.796 -1.36806 5.15868 0
M  V30 5260 O 516.019 -2.60475 5.07454 0
M  V30 5261 O 514.953 -0.877018 5.95476 0
M  V30 5262 H 518.779 0.572882 2.98248 0
M  V30 5263 H 516.364 0.346082 1.45336 0
M  V30 5264 H 518.246 -1.72303 3.84564 0
M  V30 5265 H 516.921 -1.84967 2.65648 0
M  V30 5266 H 515.828 0.201061 3.73559 0
M  V30 5267 H 517.161 0.244872 4.9159 0
M  V30 5268 N 518.813 -1.54241 0.323641 0
M  V30 5269 C 520.061 -2.00174 -0.278359 0
M  V30 5270 C 520.382 -1.2134 -1.52648 0
M  V30 5271 O 519.652 -0.315244 -1.93347 0
M  V30 5272 H 518.232 -0.739463 -0.105845 0
M  V30 5273 H 520.894 -1.89864 0.440204 0
M  V30 5274 H 519.99 -3.07486 -0.5347 0
M  V30 5275 N 520.291 -0.0518155 -1.57515 0
M  V30 5276 C 521.516 0.634896 -1.97443 0
M  V30 5277 C 521.941 1.63546 -0.929207 0
M  V30 5278 O 521.299 1.80981 0.107484 0
M  V30 5279 C 521.347 1.29765 -3.36442 0
M  V30 5280 O 520.451 2.41333 -3.34413 0
M  V30 5281 H 519.792 0.164994 -0.643174 0
M  V30 5282 H 522.322 -0.120407 -2.04245 0
M  V30 5283 H 522.332 1.64918 -3.73184 0
M  V30 5284 H 521.007 0.564361 -4.12053 0
M  V30 5285 H 519.584 2.08122 -3.09418 0
M  V30 5286 N 521.769 1.56035 0.221574 0
M  V30 5287 C 522.699 1.95434 1.2778 0
M  V30 5288 C 523.68 0.822564 1.48889 0
M  V30 5289 O 524.865 1.08486 1.61072 0
M  V30 5290 C 521.995 2.27102 2.62759 0
M  V30 5291 C 520.949 3.4277 2.56306 0
M  V30 5292 C 520.275 3.60043 3.95314 0
M  V30 5293 C 521.575 4.77742 2.11093 0
M  V30 5294 H 523.269 2.83912 0.950504 0
M  V30 5295 H 520.815 1.36596 0.455791 0
M  V30 5296 H 522.768 2.53256 3.36807 0
M  V30 5297 H 521.492 1.35478 2.97176 0
M  V30 5298 H 520.151 3.16664 1.84715 0
M  V30 5299 H 519.799 2.65794 4.27039 0
M  V30 5300 H 519.499 4.37841 3.91879 0
M  V30 5301 H 521.023 3.88545 4.71025 0
M  V30 5302 H 522.437 5.03102 2.74885 0
M  V30 5303 H 520.834 5.58823 2.18716 0
M  V30 5304 H 521.904 4.731 1.06321 0
M  V30 5305 N 523.247 -0.488276 1.49845 0
M  V30 5306 C 524.496 -1.23826 1.59217 0
M  V30 5307 C 524.809 -1.93439 0.289966 0
M  V30 5308 O 526.015 -2.70229 0.262382 0
M  V30 5309 C 524.471 -2.24902 2.80976 0
M  V30 5310 C 524.079 -1.6117 4.18005 0
M  V30 5311 C 525.823 -3.00648 2.99685 0
M  V30 5312 C 523.73 -2.60431 5.3097 0
M  V30 5313 H 522.66 -0.465858 0.592868 0
M  V30 5314 H 525.311 -0.510645 1.76252 0
M  V30 5315 H 523.693 -3.0088 2.57463 0
M  V30 5316 H 524.867 -0.910968 4.51706 0
M  V30 5317 H 523.182 -0.97767 4.0476 0
M  V30 5318 H 525.779 -3.74903 3.81251 0
M  V30 5319 H 526.122 -3.5902 2.10738 0
M  V30 5320 H 526.655 -2.31784 3.23297 0
M  V30 5321 H 523.394 -2.06823 6.22017 0
M  V30 5322 H 522.914 -3.28707 5.01709 0
M  V30 5323 H 524.593 -3.22606 5.60834 0
M  V30 5324 N 524.725 -1.39134 -0.740242 0
M  V30 5325 C 525.655 -1.40165 -1.86751 0
M  V30 5326 C 526.636 -0.265708 -1.68012 0
M  V30 5327 O 527.821 -0.47076 -1.88408 0
M  V30 5328 C 524.951 -1.2392 -3.2444 0
M  V30 5329 C 523.905 -2.34858 -3.57807 0
M  V30 5330 C 523.231 -2.03707 -4.94376 0
M  V30 5331 C 524.531 -3.77159 -3.61315 0
M  V30 5332 H 526.225 -2.345 -1.86145 0
M  V30 5333 H 523.771 -1.12875 -0.89416 0
M  V30 5334 H 525.724 -1.23263 -4.02969 0
M  V30 5335 H 524.448 -0.26051 -3.25559 0
M  V30 5336 H 523.107 -2.34723 -2.81604 0
M  V30 5337 H 522.755 -1.04289 -4.9207 0
M  V30 5338 H 522.455 -2.78016 -5.17669 0
M  V30 5339 H 523.979 -2.04691 -5.75268 0
M  V30 5340 H 525.393 -3.79252 -4.29931 0
M  V30 5341 H 523.79 -4.50784 -3.96124 0
M  V30 5342 H 524.86 -4.08513 -2.61238 0
M  V30 5343 N 526.204 0.969867 -1.24223 0
M  V30 5344 C 527.152 2.08535 -1.03034 0
M  V30 5345 C 528.146 1.69366 0.0340379 0
M  V30 5346 O 529.352 1.79597 -0.12034 0
M  V30 5347 H 525.727 0.682313 -0.316154 0
M  V30 5348 H 527.698 2.23569 -1.97635 0
M  V30 5349 C 526.447 3.4158 -0.649509 0
M  V30 5350 H 525.77 3.72177 -1.46028 0
M  V30 5351 H 527.21 4.20536 -0.540841 0
M  V30 5352 C 525.669 3.30703 0.643194 0
M  V30 5353 O 526.199 3.64443 1.68951 0
M  V30 5354 N 524.405 2.83841 0.623095 0
M  V30 5355 H 523.952 2.56583 -0.228719 0
M  V30 5356 H 523.91 2.76946 1.48823 0
M  V30 5357 N 527.682 1.05563 1.17022 0
M  V30 5358 C 528.612 0.681026 2.23348 0
M  V30 5359 C 529.593 -0.322983 1.67005 0
M  V30 5360 O 530.778 -0.199746 1.9317 0
M  V30 5361 C 527.908 0.0589053 3.4725 0
M  V30 5362 C 526.862 0.988082 4.16438 0
M  V30 5363 C 526.188 0.229646 5.34207 0
M  V30 5364 C 527.488 2.31388 4.68249 0
M  V30 5365 H 529.182 1.56993 2.54938 0
M  V30 5366 H 526.728 0.756302 1.2254 0
M  V30 5367 H 528.681 -0.214982 4.20851 0
M  V30 5368 H 527.405 -0.864968 3.14938 0
M  V30 5369 H 526.064 1.24659 3.44754 0
M  V30 5370 H 525.712 -0.697111 4.98146 0
M  V30 5371 H 525.412 0.848815 5.81437 0
M  V30 5372 H 526.936 -0.0368694 6.10589 0
M  V30 5373 H 528.35 2.09964 5.33468 0
M  V30 5374 H 526.747 2.88736 5.26072 0
M  V30 5375 H 527.817 2.94982 3.84855 0
M  V30 5376 N 529.16 -1.33526 0.837174 0
M  V30 5377 C 530.576 -1.50727 0.524743 0
M  V30 5378 C 530.776 -1.77792 -0.948279 0
M  V30 5379 O 529.832 -1.83719 -1.73216 0
M  V30 5380 C 531.145 -2.66299 1.39661 0
M  V30 5381 C 532.693 -2.80183 1.39521 0
M  V30 5382 C 533.168 -3.98815 2.25189 0
M  V30 5383 N 534.659 -4.06047 2.2289 0
M  V30 5384 C 535.394 -4.97032 2.85915 0
M  V30 5385 N 534.89 -5.93143 3.57985 0
M  V30 5386 N 536.683 -4.90015 2.75394 0
M  V30 5387 H 528.834 -1.1422 1.79074 0
M  V30 5388 H 531.097 -0.561399 0.763894 0
M  V30 5389 H 530.803 -2.52974 2.4433 0
M  V30 5390 H 530.677 -3.61663 1.07145 0
M  V30 5391 H 533.064 -2.92942 0.356253 0
M  V30 5392 H 533.145 -1.85586 1.76044 0
M  V30 5393 H 532.789 -3.86817 3.29143 0
M  V30 5394 H 532.719 -4.92654 1.86009 0
M  V30 5395 H 535.21 -3.37262 1.70478 0
M  V30 5396 H 535.523 -6.59227 4.03286 0
M  V30 5397 H 533.868 -5.93223 3.62093 0
M  V30 5398 H 537.059 -4.13894 2.18654 0
M  V30 5399 H 537.232 -5.60724 3.24796 0
M  V30 5400 N 530.638 -0.59345 -1.46 0
M  V30 5401 C 531.57 0.171569 -2.28557 0
M  V30 5402 C 532.583 0.845273 -1.39137 0
M  V30 5403 O 533.772 0.713033 -1.6364 0
M  V30 5404 C 530.872 1.26311 -3.14482 0
M  V30 5405 C 530.045 0.679258 -4.32094 0
M  V30 5406 C 529.104 1.65987 -4.99334 0
M  V30 5407 O 528.13 1.19171 -5.56585 0
M  V30 5408 N 529.332 2.99414 -4.97324 0
M  V30 5409 H 532.097 -0.536771 -2.94854 0
M  V30 5410 H 529.658 -0.431954 -1.56031 0
M  V30 5411 H 531.65 1.91863 -3.5633 0
M  V30 5412 H 530.22 1.87416 -2.50188 0
M  V30 5413 H 529.44 -0.153992 -3.93899 0
M  V30 5414 H 530.728 0.26916 -5.08088 0
M  V30 5415 H 530.126 3.40064 -4.52076 0
M  V30 5416 H 528.683 3.60426 -5.4308 0
M  V30 5417 N 532.116 1.54067 -0.331816 0
M  V30 5418 C 533.364 2.00319 0.267739 0
M  V30 5419 C 533.685 1.22148 1.52003 0
M  V30 5420 O 532.955 0.325494 1.93177 0
M  V30 5421 H 531.535 0.740014 0.101922 0
M  V30 5422 H 534.197 1.89628 -0.450267 0
M  V30 5423 H 533.293 3.07765 0.518385 0
M  V30 5424 N 533.594 0.0601682 1.57485 0
M  V30 5425 C 534.824 -0.620037 1.97076 0
M  V30 5426 C 535.232 -1.64381 0.936784 0
M  V30 5427 O 534.575 -1.83497 -0.0863377 0
M  V30 5428 C 534.637 -1.35617 3.32939 0
M  V30 5429 C 534.301 -0.487208 4.54396 0
M  V30 5430 C 535.298 0.250428 5.19297 0
M  V30 5431 C 532.983 -0.415494 5.00579 0
M  V30 5432 C 534.977 1.04812 6.28723 0
M  V30 5433 C 532.664 0.385879 6.0988 0
M  V30 5434 C 533.662 1.11637 6.73815 0
M  V30 5435 O 533.35 1.90454 7.81014 0
M  V30 5436 H 533.082 -0.173664 0.653312 0
M  V30 5437 H 535.636 0.1256 2.05016 0
M  V30 5438 H 533.866 -2.14763 3.2158 0
M  V30 5439 H 535.555 -1.92749 3.57215 0
M  V30 5440 H 536.321 0.204546 4.84568 0
M  V30 5441 H 532.2 -0.973679 4.506 0
M  V30 5442 H 535.744 1.6188 6.78558 0
M  V30 5443 H 531.641 0.433366 6.44044 0
M  V30 5444 H 532.409 1.82762 7.97835 0
M  V30 5445 N 535.072 -1.5615 -0.213296 0
M  V30 5446 C 536.02 -1.93953 -1.28394 0
M  V30 5447 C 537.014 -0.822592 -1.48087 0
M  V30 5448 O 538.22 -1.00748 -1.49164 0
M  V30 5449 H 534.595 -0.61648 -0.430646 0
M  V30 5450 H 536.566 -2.83275 -0.937977 0
M  V30 5451 C 535.315 -2.27969 -2.62537 0
M  V30 5452 H 534.638 -3.13432 -2.48194 0
M  V30 5453 H 536.078 -2.58297 -3.36242 0
M  V30 5454 C 534.537 -1.10775 -3.18167 0
M  V30 5455 O 535.067 -0.373201 -3.99963 0
M  V30 5456 N 533.273 -0.889377 -2.76656 0
M  V30 5457 H 532.82 -1.48843 -2.10246 0
M  V30 5458 H 532.778 -0.107 -3.14218 0
M  V30 5459 N 536.55 0.480323 -1.50102 0
M  V30 5460 C 537.48 1.58769 -1.71215 0
M  V30 5461 C 538.461 1.60583 -0.560997 0
M  V30 5462 O 539.646 1.76996 -0.799127 0
M  V30 5463 C 536.776 2.97148 -1.79778 0
M  V30 5464 C 535.73 3.10201 -2.94888 0
M  V30 5465 C 535.056 4.50137 -2.88584 0
M  V30 5466 C 536.356 2.88283 -4.35534 0
M  V30 5467 H 538.05 1.41354 -2.6393 0
M  V30 5468 H 535.596 0.678591 -1.27008 0
M  V30 5469 H 537.549 3.74536 -1.93133 0
M  V30 5470 H 536.273 3.15699 -0.836772 0
M  V30 5471 H 534.932 2.35244 -2.81169 0
M  V30 5472 H 534.58 4.65593 -1.90349 0
M  V30 5473 H 534.28 4.59808 -3.65856 0
M  V30 5474 H 535.804 5.29558 -3.03976 0
M  V30 5475 H 537.218 3.55427 -4.49827 0
M  V30 5476 H 535.615 3.09408 -5.14186 0
M  V30 5477 H 536.685 1.84219 -4.48544 0
M  V30 5478 N 538.028 1.39524 0.732853 0
M  V30 5479 C 538.938 1.40695 1.87729 0
M  V30 5480 C 539.954 0.301496 1.71368 0
M  V30 5481 O 541.13 0.543313 1.93933 0
M  V30 5482 C 538.195 1.25098 3.23344 0
M  V30 5483 C 537.256 2.45634 3.52083 0
M  V30 5484 C 536.489 2.30772 4.81228 0
M  V30 5485 O 536.712 1.31233 5.55098 0
M  V30 5486 O 535.646 3.19799 5.09914 0
M  V30 5487 H 539.472 2.37168 1.89697 0
M  V30 5488 H 537.057 1.20663 0.880959 0
M  V30 5489 H 538.939 1.18541 4.04383 0
M  V30 5490 H 537.614 0.317209 3.22142 0
M  V30 5491 H 536.521 2.57767 2.71122 0
M  V30 5492 H 537.854 3.37712 3.58066 0
M  V30 5493 N 539.506 -0.963266 1.24736 0
M  V30 5494 C 540.917 -1.52145 1.08207 0
M  V30 5495 C 541.268 -1.93142 -0.345061 0
M  V30 5496 O 540.393 -1.77769 -1.23399 0
M  V30 5497 C 540.988 -2.76486 1.95808 0
M  V30 5498 C 539.547 -3.28646 1.8349 0
M  V30 5499 C 538.694 -2.01529 1.90476 0
M  V30 5500 H 541.645 -0.781083 1.38148 0
M  V30 5501 H 541.666 -3.49986 1.49297 0
M  V30 5502 H 541.178 -2.46617 2.99669 0
M  V30 5503 H 539.279 -3.63357 0.824787 0
M  V30 5504 H 539.392 -3.97246 2.67829 0
M  V30 5505 H 537.756 -2.16442 1.34258 0
M  V30 5506 H 538.539 -1.7402 2.95926 0
M  V30 5507 N 540.985 -1.06182 -1.16461 0
M  V30 5508 C 541.917 -0.629584 -2.20383 0
M  V30 5509 C 542.93 0.311834 -1.59786 0
M  V30 5510 O 544.119 0.103 -1.78203 0
M  V30 5511 C 541.219 0.0973695 -3.3876 0
M  V30 5512 C 540.392 -0.857252 -4.28917 0
M  V30 5513 C 539.451 -0.169749 -5.25926 0
M  V30 5514 O 538.477 -0.807044 -5.6345 0
M  V30 5515 N 539.679 1.08911 -5.70192 0
M  V30 5516 H 542.444 -1.52352 -2.58087 0
M  V30 5517 H 540.005 -0.944993 -1.31459 0
M  V30 5518 H 541.997 0.567676 -4.00699 0
M  V30 5519 H 540.567 0.893093 -2.99571 0
M  V30 5520 H 539.787 -1.50696 -3.64259 0
M  V30 5521 H 541.075 -1.50489 -4.86035 0
M  V30 5522 H 540.473 1.62703 -5.41797 0
M  V30 5523 H 539.03 1.50331 -6.34227 0
M  V30 5524 N 542.463 1.3308 -0.844243 0
M  V30 5525 C 543.393 2.3161 -0.296493 0
M  V30 5526 C 544.374 1.59215 0.598707 0
M  V30 5527 O 545.559 1.87077 0.521134 0
M  V30 5528 C 542.689 3.43313 0.524762 0
M  V30 5529 C 541.643 4.27115 -0.275106 0
M  V30 5530 C 540.969 5.30483 0.670236 0
M  V30 5531 C 542.269 5.00443 -1.49514 0
M  V30 5532 H 543.963 2.77672 -1.11976 0
M  V30 5533 H 541.509 1.33496 -0.539899 0
M  V30 5534 H 543.462 4.11273 0.918298 0
M  V30 5535 H 542.186 2.95952 1.3813 0
M  V30 5536 H 540.845 3.60787 -0.650267 0
M  V30 5537 H 540.493 4.79379 1.52332 0
M  V30 5538 H 540.193 5.87435 0.139123 0
M  V30 5539 H 541.717 6.01308 1.06117 0
M  V30 5540 H 543.131 5.61141 -1.17447 0
M  V30 5541 H 541.528 5.67071 -1.96343 0
M  V30 5542 H 542.598 4.28906 -2.26202 0
M  V30 5543 N 543.941 0.601185 1.45683 0
M  V30 5544 C 544.873 -0.159446 2.28645 0
M  V30 5545 C 545.886 -0.837882 1.39583 0
M  V30 5546 O 547.075 -0.704344 1.64016 0
M  V30 5547 C 544.175 -1.24641 3.15147 0
M  V30 5548 C 543.348 -0.656334 4.32448 0
M  V30 5549 C 542.407 -1.63337 5.00208 0
M  V30 5550 O 541.433 -1.16217 5.57209 0
M  V30 5551 N 542.635 -2.96773 4.98905 0
M  V30 5552 H 545.4 0.5524 2.94565 0
M  V30 5553 H 542.961 0.440223 1.558 0
M  V30 5554 H 544.953 -1.8997 3.57342 0
M  V30 5555 H 543.523 -1.86087 2.51178 0
M  V30 5556 H 542.743 0.174879 3.93812 0
M  V30 5557 H 544.031 -0.242211 5.08223 0
M  V30 5558 H 543.429 -3.37662 4.53873 0
M  V30 5559 H 541.986 -3.57541 5.44984 0
M  V30 5560 N 545.419 -1.53889 0.339982 0
M  V30 5561 C 546.369 -2.2165 -0.534354 0
M  V30 5562 C 547.353 -1.20266 -1.06887 0
M  V30 5563 O 548.545 -1.45827 -1.00316 0
M  V30 5564 C 545.674 -2.99014 -1.68659 0
M  V30 5565 C 544.76 -4.07751 -1.16618 0
M  V30 5566 N 545.151 -5.04469 -0.366717 0
M  V30 5567 C 543.449 -4.21998 -1.4434 0
M  V30 5568 C 544.15 -5.81638 -0.0847275 0
M  V30 5569 N 543.126 -5.39388 -0.675391 0
M  V30 5570 H 546.928 -2.93781 0.0835562 0
M  V30 5571 H 544.442 -1.61736 0.146665 0
M  V30 5572 H 546.439 -3.46056 -2.32489 0
M  V30 5573 H 545.099 -2.28408 -2.30781 0
M  V30 5574 H 546.11 -5.17899 -0.00811038 0
M  V30 5575 H 542.787 -3.62612 -2.06928 0
M  V30 5576 H 544.177 -6.69563 0.559943 0
M  V30 5577 N 546.897 -0.0685191 -1.57451 0
M  V30 5578 C 548.122 0.613919 -1.98106 0
M  V30 5579 C 548.547 1.62551 -0.946501 0
M  V30 5580 O 547.905 1.81085 0.0882824 0
M  V30 5581 C 547.953 1.26189 -3.378 0
M  V30 5582 O 547.057 2.37773 -3.36954 0
M  V30 5583 H 546.398 0.158163 -0.644888 0
M  V30 5584 H 548.928 -0.142063 -2.04106 0
M  V30 5585 H 548.938 1.60951 -3.74912 0
M  V30 5586 H 547.613 0.520625 -4.12629 0
M  V30 5587 H 546.19 2.04829 -3.11608 0
M  V30 5588 N 548.375 1.56261 0.205012 0
M  V30 5589 C 549.305 1.96779 1.257 0
M  V30 5590 C 550.286 0.838309 1.48008 0
M  V30 5591 O 551.471 1.10189 1.59913 0
M  V30 5592 C 548.601 2.29876 2.60335 0
M  V30 5593 C 547.555 3.45469 2.52656 0
M  V30 5594 C 546.881 3.64215 3.91473 0
M  V30 5595 C 548.181 4.79954 2.06014 0
M  V30 5596 H 549.875 2.84904 0.920338 0
M  V30 5597 H 547.421 1.37072 0.441277 0
M  V30 5598 H 549.374 2.56814 3.34102 0
M  V30 5599 H 548.098 1.38622 2.95722 0
M  V30 5600 H 546.757 3.18605 1.81345 0
M  V30 5601 H 546.405 2.70309 4.24196 0
M  V30 5602 H 546.105 4.41973 3.87213 0
M  V30 5603 H 547.629 3.93519 4.66878 0
M  V30 5604 H 549.043 5.05989 2.69533 0
M  V30 5605 H 547.44 5.61111 2.12777 0
M  V30 5606 H 548.51 4.74201 1.01297 0
M  V30 5607 N 549.853 -0.472356 1.50355 0
M  V30 5608 C 551.101 -1.22211 1.60962 0
M  V30 5609 C 551.422 -1.92497 0.311439 0
M  V30 5610 O 550.692 -1.8405 -0.671002 0
M  V30 5611 H 549.272 -0.454092 0.593135 0
M  V30 5612 H 551.934 -0.544977 1.87126 0
M  V30 5613 H 551.03 -1.9707 2.42012 0
M  V30 5614 N 551.331 -1.39911 -0.725443 0
M  V30 5615 C 552.261 -1.42138 -1.85254 0
M  V30 5616 C 553.242 -0.283513 -1.67721 0
M  V30 5617 O 554.427 -0.490717 -1.87898 0
M  V30 5618 C 551.557 -1.27354 -3.23107 0
M  V30 5619 C 550.511 -2.3864 -3.55296 0
M  V30 5620 C 549.837 -2.08939 -4.92188 0
M  V30 5621 C 551.137 -3.8097 -3.57295 0
M  V30 5622 H 552.831 -2.36461 -1.83648 0
M  V30 5623 H 550.377 -1.13817 -0.882138 0
M  V30 5624 H 552.33 -1.2753 -4.01639 0
M  V30 5625 H 551.054 -0.295025 -3.25265 0
M  V30 5626 H 549.713 -2.37696 -2.79099 0
M  V30 5627 H 549.361 -1.09502 -4.90936 0
M  V30 5628 H 549.061 -2.83491 -5.14691 0
M  V30 5629 H 550.585 -2.10781 -5.73065 0
M  V30 5630 H 551.999 -3.8379 -4.25885 0
M  V30 5631 H 550.396 -4.5496 -3.9132 0
M  V30 5632 H 551.466 -4.11261 -2.5689 0
M  V30 5633 N 552.809 0.956637 -1.25245 0
M  V30 5634 C 554.055 1.70352 -1.10036 0
M  V30 5635 C 554.388 1.90869 0.358156 0
M  V30 5636 O 553.663 1.47819 1.26411 0
M  V30 5637 C 553.946 3.08766 -1.85298 0
M  V30 5638 C 553.799 2.95672 -3.38966 0
M  V30 5639 C 555.118 4.08622 -1.63451 0
M  V30 5640 H 552.237 0.618279 -0.401123 0
M  V30 5641 H 554.879 1.11212 -1.54051 0
M  V30 5642 H 553.029 3.59252 -1.47887 0
M  V30 5643 H 554.701 2.52527 -3.86041 0
M  V30 5644 H 552.944 2.31634 -3.6678 0
M  V30 5645 H 553.615 3.93776 -3.86839 0
M  V30 5646 H 556.091 3.67038 -1.96015 0
M  V30 5647 H 554.967 5.03514 -2.18551 0
M  V30 5648 H 555.228 4.3834 -0.575357 0
M  V30 5649 N 554.287 1.06798 1.15896 0
M  V30 5650 C 555.197 0.694564 2.24083 0
M  V30 5651 C 556.213 -0.291687 1.71538 0
M  V30 5652 O 557.389 -0.139723 2.00915 0
M  V30 5653 C 554.454 0.0921014 3.46578 0
M  V30 5654 C 553.515 1.13087 4.14137 0
M  V30 5655 C 552.748 0.557064 5.30785 0
M  V30 5656 O 552.971 -0.628623 5.66925 0
M  V30 5657 O 551.905 1.29924 5.8771 0
M  V30 5658 H 555.731 1.59663 2.58344 0
M  V30 5659 H 553.316 0.840575 1.2351 0
M  V30 5660 H 555.198 -0.241884 4.20705 0
M  V30 5661 H 553.873 -0.78337 3.14078 0
M  V30 5662 H 552.78 1.51712 3.41957 0
M  V30 5663 H 554.113 1.97805 4.50704 0
M  V30 5664 N 555.766 -1.3263 0.851289 0
M  V30 5665 C 556.994 -2.01563 0.466899 0
M  V30 5666 C 557.409 -1.63996 -0.935447 0
M  V30 5667 O 556.766 -0.85957 -1.6099 0
M  V30 5668 C 556.817 -3.56613 0.592433 0
M  V30 5669 O 556.538 -3.92828 1.93954 0
M  V30 5670 C 558.039 -4.42818 0.206612 0
M  V30 5671 H 555.259 -0.645307 0.183902 0
M  V30 5672 H 557.803 -1.69285 1.1473 0
M  V30 5673 H 555.958 -3.87379 -0.0401936 0
M  V30 5674 H 556.372 -4.87545 1.9339 0
M  V30 5675 H 557.846 -5.50918 0.345462 0
M  V30 5676 H 558.323 -4.30844 -0.85264 0
M  V30 5677 H 558.929 -4.17434 0.814176 0
M  V30 5678 N 557.244 -0.608902 -1.45362 0
M  V30 5679 C 558.493 -0.10218 -2.01441 0
M  V30 5680 C 558.806 1.27546 -1.48295 0
M  V30 5681 O 560.012 1.87498 -1.96359 0
M  V30 5682 C 558.468 -0.131985 -3.59658 0
M  V30 5683 C 558.076 -1.50956 -4.21801 0
M  V30 5684 C 559.82 0.319427 -4.23296 0
M  V30 5685 C 557.727 -1.49568 -5.72174 0
M  V30 5686 H 556.657 -0.0344314 -0.753213 0
M  V30 5687 H 559.308 -0.764426 -1.6682 0
M  V30 5688 H 557.69 0.596939 -3.91475 0
M  V30 5689 H 558.864 -2.26029 -4.01556 0
M  V30 5690 H 557.179 -1.90318 -3.70362 0
M  V30 5691 H 559.776 0.349013 -5.3356 0
M  V30 5692 H 560.119 1.34237 -3.94064 0
M  V30 5693 H 560.652 -0.356273 -3.96201 0
M  V30 5694 H 557.391 -2.49626 -6.06108 0
M  V30 5695 H 556.911 -0.787542 -5.94607 0
M  V30 5696 H 558.59 -1.21989 -6.35396 0
M  V30 5697 N 558.722 1.53707 -0.348139 0
M  V30 5698 C 559.95 2.05406 0.248224 0
M  V30 5699 C 560.365 1.22282 1.43849 0
M  V30 5700 O 559.722 0.259244 1.80649 0
M  V30 5701 C 559.773 3.55446 0.658793 0
M  V30 5702 O 559.494 4.35417 -0.484149 0
M  V30 5703 C 560.995 4.23335 1.31539 0
M  V30 5704 H 558.215 0.669344 0.0471075 0
M  V30 5705 H 560.759 1.98257 -0.501456 0
M  V30 5706 H 558.914 3.62803 1.35841 0
M  V30 5707 H 559.328 5.24268 -0.155949 0
M  V30 5708 H 560.802 5.29692 1.55338 0
M  V30 5709 H 561.279 3.75967 2.27036 0
M  V30 5710 H 561.885 4.20184 0.657683 0
M  V30 5711 N 560.2 0.0768682 1.57412 0
M  V30 5712 C 561.448 -0.589918 1.93299 0
M  V30 5713 C 561.769 -1.69842 0.958049 0
M  V30 5714 O 561.039 -1.95899 0.00703261 0
M  V30 5715 H 559.619 -0.220901 0.713591 0
M  V30 5716 H 562.281 0.135917 1.94425 0
M  V30 5717 H 561.377 -1.01195 2.95239 0
M  V30 5718 N 561.678 -1.56367 -0.196722 0
M  V30 5719 C 562.925 -1.80529 -0.917366 0
M  V30 5720 C 563.253 -0.649817 -1.83324 0
M  V30 5721 O 562.508 0.36451 -1.92275 0
M  V30 5722 C 562.807 -3.10663 -1.767 0
M  V30 5723 C 562.473 -4.3962 -1.00225 0
M  V30 5724 C 561.135 -4.74653 -0.791095 0
M  V30 5725 C 563.487 -5.1913 -0.464035 0
M  V30 5726 C 560.815 -5.86692 -0.0302155 0
M  V30 5727 C 563.167 -6.31964 0.283625 0
M  V30 5728 C 561.831 -6.65581 0.505813 0
M  V30 5729 H 561.101 -0.660602 -0.335688 0
M  V30 5730 H 563.748 -1.90615 -0.183844 0
M  V30 5731 H 562.053 -2.95807 -2.56915 0
M  V30 5732 H 563.75 -3.26563 -2.32718 0
M  V30 5733 H 560.34 -4.12127 -1.17684 0
M  V30 5734 H 564.524 -4.9248 -0.614575 0
M  V30 5735 H 559.78 -6.11211 0.151917 0
M  V30 5736 H 563.954 -6.92791 0.708057 0
M  V30 5737 H 561.581 -7.52239 1.0973 0
M  V30 5738 N 563.156 0.464375 -1.50603 0
M  V30 5739 C 564.086 1.56944 -1.72889 0
M  V30 5740 C 565.067 1.59979 -0.577997 0
M  V30 5741 O 566.252 1.76138 -0.817855 0
M  V30 5742 C 563.382 2.95225 -1.8292 0
M  V30 5743 C 562.336 3.07056 -2.98162 0
M  V30 5744 C 561.662 4.47051 -2.93343 0
M  V30 5745 C 562.962 2.83648 -4.38567 0
M  V30 5746 H 564.656 1.38547 -2.65415 0
M  V30 5747 H 562.202 0.665082 -1.27721 0
M  V30 5748 H 564.155 3.72467 -1.97095 0
M  V30 5749 H 562.879 3.14793 -0.870209 0
M  V30 5750 H 561.538 2.32248 -2.83648 0
M  V30 5751 H 561.186 4.63547 -1.95276 0
M  V30 5752 H 560.886 4.55902 -3.70712 0
M  V30 5753 H 562.41 5.26304 -3.09575 0
M  V30 5754 H 563.824 3.50636 -4.53572 0
M  V30 5755 H 562.221 3.03937 -5.17438 0
M  V30 5756 H 563.291 1.79451 -4.50472 0
M  V30 5757 N 564.634 1.40294 0.718013 0
M  V30 5758 C 565.581 1.40367 1.8321 0
M  V30 5759 C 566.551 0.260952 1.64037 0
M  V30 5760 O 567.736 0.458648 1.85205 0
M  V30 5761 C 564.876 1.26965 3.20895 0
M  V30 5762 C 563.989 2.50922 3.51656 0
M  V30 5763 C 563.124 2.29981 4.78834 0
M  V30 5764 C 562.163 3.49527 5.02491 0
M  V30 5765 N 561.3 3.27796 6.20882 0
M  V30 5766 H 566.14 2.35593 1.82482 0
M  V30 5767 H 563.677 1.17012 0.891444 0
M  V30 5768 H 565.635 1.17202 4.00399 0
M  V30 5769 H 564.265 0.353591 3.20858 0
M  V30 5770 H 563.317 2.71223 2.66725 0
M  V30 5771 H 564.629 3.39913 3.65048 0
M  V30 5772 H 563.783 2.17558 5.66351 0
M  V30 5773 H 562.522 1.38411 4.67647 0
M  V30 5774 H 561.527 3.6243 4.1343 0
M  V30 5775 H 562.752 4.42021 5.15553 0
M  V30 5776 H 560.698 2.38906 6.1095 0
M  V30 5777 H 560.615 4.10351 6.34939 0
M  V30 5778 H 561.883 3.19101 7.11193 0
M  V30 5779 N 566.112 -0.949982 1.2575 0
M  V30 5780 C 567.361 -1.68956 1.10168 0
M  V30 5781 C 567.674 -1.92327 -0.356309 0
M  V30 5782 O 568.88 -2.64026 -0.632657 0
M  V30 5783 C 567.336 -3.04196 1.92336 0
M  V30 5784 C 566.944 -2.88603 3.42655 0
M  V30 5785 C 568.688 -3.81904 1.85336 0
M  V30 5786 C 566.595 -4.19262 4.17101 0
M  V30 5787 H 565.525 -0.633645 0.408668 0
M  V30 5788 H 568.176 -1.05719 1.49986 0
M  V30 5789 H 566.558 -3.68363 1.45344 0
M  V30 5790 H 567.732 -2.3334 3.97353 0
M  V30 5791 H 566.047 -2.24345 3.50796 0
M  V30 5792 H 568.644 -4.78688 2.38248 0
M  V30 5793 H 568.987 -4.08099 0.822226 0
M  V30 5794 H 569.52 -3.24495 2.30104 0
M  V30 5795 H 566.259 -3.98254 5.20648 0
M  V30 5796 H 565.779 -4.74273 3.67186 0
M  V30 5797 H 567.458 -4.87775 4.25071 0
M  V30 5798 N 567.59 -1.07411 -1.15328 0
M  V30 5799 C 568.537 -0.694995 -2.20087 0
M  V30 5800 C 569.507 0.313904 -1.63107 0
M  V30 5801 O 570.692 0.200216 -1.89747 0
M  V30 5802 C 567.832 -0.0996218 -3.44956 0
M  V30 5803 C 566.945 -1.16007 -4.16133 0
M  V30 5804 C 566.08 -0.529636 -5.28553 0
M  V30 5805 C 565.119 -1.57283 -5.91548 0
M  V30 5806 N 564.256 -0.964932 -6.95438 0
M  V30 5807 H 569.096 -1.5927 -2.51867 0
M  V30 5808 H 566.633 -0.796115 -1.23695 0
M  V30 5809 H 568.591 0.263197 -4.16369 0
M  V30 5810 H 567.221 0.761435 -3.13691 0
M  V30 5811 H 566.273 -1.64045 -3.4321 0
M  V30 5812 H 567.585 -1.95101 -4.59061 0
M  V30 5813 H 566.739 -0.114487 -6.06592 0
M  V30 5814 H 565.478 0.29307 -4.86819 0
M  V30 5815 H 564.483 -1.99775 -5.12221 0
M  V30 5816 H 565.708 -2.39783 -6.35359 0
M  V30 5817 H 563.654 -0.16314 -6.55797 0
M  V30 5818 H 563.571 -1.69311 -7.36797 0
M  V30 5819 H 564.839 -0.575305 -7.77374 0
M  V30 5820 N 569.068 1.32177 -0.85831 0
M  V30 5821 C 570.018 2.26307 -0.277307 0
M  V30 5822 C 571.002 1.50123 0.578946 0
M  V30 5823 O 572.194 1.71754 0.427731 0
M  V30 5824 C 569.323 3.39181 0.530232 0
M  V30 5825 C 568.409 4.22746 -0.338613 0
M  V30 5826 N 568.8 4.85265 -1.4266 0
M  V30 5827 C 567.098 4.45813 -0.129 0
M  V30 5828 C 567.799 5.47634 -1.96142 0
M  V30 5829 N 566.775 5.28794 -1.26007 0
M  V30 5830 H 570.577 2.72173 -1.10902 0
M  V30 5831 H 568.091 1.46308 -0.704816 0
M  V30 5832 H 570.088 4.05628 0.962904 0
M  V30 5833 H 568.748 2.9486 1.35969 0
M  V30 5834 H 569.759 4.85259 -1.80953 0
M  V30 5835 H 566.436 4.12163 0.665451 0
M  V30 5836 H 567.826 6.0735 -2.8736 0
M  V30 5837 N 570.547 0.616602 1.45037 0
M  V30 5838 C 571.772 0.120192 2.07051 0
M  V30 5839 C 572.197 -1.19008 1.45666 0
M  V30 5840 O 571.555 -1.7267 0.552692 0
M  V30 5841 C 571.603 0.00354901 3.606 0
M  V30 5842 O 570.707 -1.04431 3.98958 0
M  V30 5843 H 570.048 0.0781599 0.659384 0
M  V30 5844 H 572.578 0.849167 1.86146 0
M  V30 5845 H 572.588 -0.191754 4.07549 0
M  V30 5846 H 571.263 0.960239 4.04663 0
M  V30 5847 H 569.84 -0.824749 3.63665 0
M  V30 5848 N 572.025 -1.5352 0.356285 0
M  V30 5849 C 573.272 -2.01117 -0.236303 0
M  V30 5850 C 573.6 -1.24381 -1.49531 0
M  V30 5851 O 572.855 -0.323057 -1.93015 0
M  V30 5852 C 573.154 -3.52607 -0.583369 0
M  V30 5853 C 572.82 -4.47151 0.58023 0
M  V30 5854 C 571.482 -4.72718 0.899528 0
M  V30 5855 C 573.834 -5.03137 1.36024 0
M  V30 5856 C 571.162 -5.51523 2.00098 0
M  V30 5857 C 573.514 -5.83145 2.45204 0
M  V30 5858 C 572.178 -6.07001 2.77679 0
M  V30 5859 H 571.448 -0.735938 -0.0864695 0
M  V30 5860 H 574.095 -1.85209 0.48683 0
M  V30 5861 H 572.4 -3.66413 -1.38739 0
M  V30 5862 H 574.097 -3.86901 -1.05397 0
M  V30 5863 H 570.687 -4.27394 0.321322 0
M  V30 5864 H 574.871 -4.83339 1.12682 0
M  V30 5865 H 570.127 -5.68229 2.25668 0
M  V30 5866 H 574.301 -6.25537 3.06067 0
M  V30 5867 H 571.928 -6.67851 3.63151 0
M  V30 5868 N 573.503 -0.0852151 -1.57369 0
M  V30 5869 C 574.466 0.8627 -2.12344 0
M  V30 5870 C 575.466 1.21746 -1.05046 0
M  V30 5871 O 576.656 1.14852 -1.30976 0
M  V30 5872 C 573.788 2.1618 -2.63589 0
M  V30 5873 H 574.981 0.385511 -2.97412 0
M  V30 5874 H 572.534 0.163663 -1.55441 0
M  V30 5875 H 573.269 2.68406 -1.82013 0
M  V30 5876 H 573.054 1.91723 -3.4203 0
M  V30 5877 H 574.544 2.84011 -3.06149 0
M  V30 5878 N 574.981 1.5647 0.188427 0
M  V30 5879 C 575.911 1.98101 1.23606 0
M  V30 5880 C 576.892 0.853961 1.47111 0
M  V30 5881 O 578.077 1.11879 1.58735 0
M  V30 5882 C 575.207 2.32624 2.57882 0
M  V30 5883 C 574.161 3.48129 2.48978 0
M  V30 5884 C 573.487 3.68347 3.87588 0
M  V30 5885 C 574.787 4.82112 2.00911 0
M  V30 5886 H 576.481 2.85864 0.890068 0
M  V30 5887 H 574.027 1.37532 0.426714 0
M  V30 5888 H 575.98 2.60343 3.3136 0
M  V30 5889 H 574.704 1.41751 2.94235 0
M  V30 5890 H 573.363 3.20511 1.77956 0
M  V30 5891 H 573.011 2.74793 4.21305 0
M  V30 5892 H 572.711 4.46055 3.82503 0
M  V30 5893 H 574.235 3.98449 4.62678 0
M  V30 5894 H 575.649 5.08819 2.64151 0
M  V30 5895 H 574.046 5.63337 2.06814 0
M  V30 5896 H 575.116 4.75249 0.96262 0
M  V30 5897 N 576.459 -0.456382 1.50847 0
M  V30 5898 C 577.705 -1.20914 1.62811 0
M  V30 5899 C 578.038 -1.91301 0.334304 0
M  V30 5900 O 577.313 -1.82775 -0.665098 0
M  V30 5901 C 577.596 -2.24122 2.81853 0
M  V30 5902 C 577.449 -1.57944 4.21158 0
M  V30 5903 C 578.768 -3.25295 2.96431 0
M  V30 5904 H 575.887 -0.438233 0.592554 0
M  V30 5905 H 578.529 -0.50091 1.83278 0
M  V30 5906 H 576.679 -2.84524 2.64534 0
M  V30 5907 H 578.351 -1.01025 4.50102 0
M  V30 5908 H 576.594 -0.882185 4.24735 0
M  V30 5909 H 577.265 -2.33014 5.00408 0
M  V30 5910 H 579.741 -2.7493 3.12335 0
M  V30 5911 H 578.617 -3.94822 3.81322 0
M  V30 5912 H 578.878 -3.90286 2.07676 0
M  V30 5913 N 577.937 -1.40673 -0.710563 0
M  V30 5914 C 579.162 -1.42741 -1.50465 0
M  V30 5915 C 579.587 -0.0302116 -1.88076 0
M  V30 5916 O 578.945 0.962945 -1.53613 0
M  V30 5917 C 578.993 -2.32873 -2.75322 0
M  V30 5918 O 578.097 -1.77544 -3.72226 0
M  V30 5919 H 577.438 -0.485056 -0.45345 0
M  V30 5920 H 579.968 -1.84961 -0.874681 0
M  V30 5921 H 579.978 -2.48233 -3.23797 0
M  V30 5922 H 578.653 -3.34401 -2.47283 0
M  V30 5923 H 577.23 -1.71556 -3.31093 0
M  V30 5924 N 579.415 0.9433 -1.26252 0
M  V30 5925 C 580.345 2.05902 -1.10122 0
M  V30 5926 C 581.326 1.70099 -0.00700552 0
M  V30 5927 O 582.511 1.93377 -0.178641 0
M  V30 5928 C 579.641 3.39516 -0.731175 0
M  V30 5929 C 578.595 3.89372 -1.77688 0
M  V30 5930 C 577.921 5.19613 -1.26122 0
M  V30 5931 C 579.221 4.14489 -3.17799 0
M  V30 5932 H 580.915 2.19655 -2.03451 0
M  V30 5933 H 578.461 1.05548 -0.979576 0
M  V30 5934 H 580.414 4.17031 -0.605215 0
M  V30 5935 H 579.138 3.25733 0.23782 0
M  V30 5936 H 577.797 3.14036 -1.89148 0
M  V30 5937 H 577.445 5.02208 -0.282128 0
M  V30 5938 H 577.145 5.53939 -1.96023 0
M  V30 5939 H 578.669 5.99713 -1.14789 0
M  V30 5940 H 580.083 4.82625 -3.09428 0
M  V30 5941 H 578.48 4.60094 -3.85271 0
M  V30 5942 H 579.55 3.20347 -3.64014 0
M  V30 5943 N 580.893 1.08022 1.14757 0
M  V30 5944 C 582.141 0.805913 1.85336 0
M  V30 5945 C 582.462 -0.670162 1.83122 0
M  V30 5946 O 581.732 -1.48567 1.2769 0
M  V30 5947 H 580.312 0.295138 0.686223 0
M  V30 5948 H 582.974 1.36538 1.3908 0
M  V30 5949 H 582.07 1.14655 2.90277 0
M  V30 5950 N 582.371 -1.3172 0.865308 0
M  V30 5951 C 583.618 -1.96876 0.473931 0
M  V30 5952 C 583.946 -1.68425 -0.972786 0
M  V30 5953 O 583.201 -0.970742 -1.69927 0
M  V30 5954 C 583.5 -3.5102 0.672283 0
M  V30 5955 C 583.166 -3.9948 2.09108 0
M  V30 5956 C 581.828 -4.12425 2.4791 0
M  V30 5957 C 584.18 -4.2503 3.0166 0
M  V30 5958 C 581.508 -4.48267 3.78515 0
M  V30 5959 C 583.86 -4.62335 4.31774 0
M  V30 5960 C 582.524 -4.73486 4.70497 0
M  V30 5961 H 581.794 -0.72042 0.173424 0
M  V30 5962 H 584.441 -1.56937 1.0974 0
M  V30 5963 H 582.746 -3.91785 -0.034356 0
M  V30 5964 H 584.443 -3.99475 0.349353 0
M  V30 5965 H 581.033 -3.89898 1.77981 0
M  V30 5966 H 585.217 -4.14529 2.7291 0
M  V30 5967 H 580.473 -4.55097 4.08285 0
M  V30 5968 H 584.647 -4.81058 5.03543 0
M  V30 5969 H 582.274 -5.01016 5.71741 0
M  V30 5970 N 583.85 -0.624285 -1.44708 0
M  V30 5971 C 585.096 -0.126051 -2.02107 0
M  V30 5972 C 585.425 1.2496 -1.49048 0
M  V30 5973 O 584.68 1.84163 -0.662005 0
M  V30 5974 C 584.979 -0.0546353 -3.57358 0
M  V30 5975 C 584.644 -1.36815 -4.29642 0
M  V30 5976 C 583.307 -1.72792 -4.49106 0
M  V30 5977 C 585.659 -2.23549 -4.70824 0
M  V30 5978 C 582.986 -2.95222 -5.07012 0
M  V30 5979 C 585.339 -3.45243 -5.30085 0
M  V30 5980 C 584.003 -3.81452 -5.47769 0
M  V30 5981 H 583.273 -0.0461252 -0.739563 0
M  V30 5982 H 585.92 -0.809236 -1.73562 0
M  V30 5983 H 584.225 0.711891 -3.85278 0
M  V30 5984 H 585.922 0.347282 -3.99493 0
M  V30 5985 H 582.512 -1.07817 -4.14817 0
M  V30 5986 H 586.696 -1.9705 -4.55505 0
M  V30 5987 H 581.952 -3.23361 -5.18891 0
M  V30 5988 H 586.125 -4.12689 -5.60946 0
M  V30 5989 H 583.753 -4.76403 -5.92405 0
M  V30 5990 N 585.328 1.53329 -0.364422 0
M  V30 5991 C 586.275 2.25698 0.482607 0
M  V30 5992 C 587.245 1.26325 1.07848 0
M  V30 5993 O 588.43 1.55104 1.11119 0
M  V30 5994 C 585.57 3.04873 1.61699 0
M  V30 5995 C 584.683 4.19135 1.0464 0
M  V30 5996 C 583.818 4.85754 2.14979 0
M  V30 5997 C 582.857 5.9205 1.5538 0
M  V30 5998 N 581.994 6.52365 2.59547 0
M  V30 5999 H 586.834 2.97666 -0.141032 0
M  V30 6000 H 584.371 1.46875 -0.0813692 0
M  V30 6001 H 586.329 3.49051 2.28516 0
M  V30 6002 H 584.959 2.35162 2.2113 0
M  V30 6003 H 584.011 3.79451 0.268553 0
M  V30 6004 H 585.323 4.95525 0.570653 0
M  V30 6005 H 584.477 5.3311 2.89619 0
M  V30 6006 H 583.216 4.08834 2.65906 0
M  V30 6007 H 582.221 5.44058 0.792549 0
M  V30 6008 H 583.446 6.7089 1.0528 0
M  V30 6009 H 581.392 5.78298 3.09689 0
M  V30 6010 H 581.309 7.2429 2.16655 0
M  V30 6011 H 582.577 7.0437 3.33892 0
M  V30 6012 N 586.806 0.0935595 1.57322 0
M  V30 6013 C 587.754 -0.883457 2.15169 0
M  V30 6014 C 588.748 -1.29324 1.09415 0
M  V30 6015 O 589.954 -1.26795 1.27762 0
M  V30 6016 H 586.329 -0.302923 0.688289 0
M  V30 6017 H 588.3 -0.370845 2.96087 0
M  V30 6018 C 587.049 -2.13345 2.74552 0
M  V30 6019 H 586.372 -1.82702 3.55612 0
M  V30 6020 H 587.812 -2.7977 3.18598 0
M  V30 6021 C 586.271 -2.90646 1.70371 0
M  V30 6022 O 586.801 -3.85133 1.14173 0
M  V30 6023 N 585.007 -2.54157 1.40899 0
M  V30 6024 H 584.554 -1.77391 1.86789 0
M  V30 6025 H 584.512 -3.06178 0.714301 0
M  V30 6026 N 588.284 -1.56567 -0.180126 0
M  V30 6027 C 589.214 -1.98753 -1.22553 0
M  V30 6028 C 590.195 -0.86175 -1.46656 0
M  V30 6029 O 591.38 -1.12719 -1.58139 0
M  V30 6030 C 588.51 -2.33988 -2.56645 0
M  V30 6031 C 587.464 -3.49445 -2.47128 0
M  V30 6032 C 586.79 -3.70397 -3.8563 0
M  V30 6033 C 588.09 -4.83171 -1.98352 0
M  V30 6034 H 589.784 -2.86332 -0.874896 0
M  V30 6035 H 587.33 -1.37757 -0.419414 0
M  V30 6036 H 589.283 -2.62097 -3.29974 0
M  V30 6037 H 588.007 -1.43309 -2.93479 0
M  V30 6038 H 586.666 -3.2145 -1.76254 0
M  V30 6039 H 586.314 -2.77023 -4.19842 0
M  V30 6040 H 586.014 -4.48077 -3.80132 0
M  V30 6041 H 587.538 -4.00897 -4.60558 0
M  V30 6042 H 588.952 -5.10213 -2.61449 0
M  V30 6043 H 587.349 -5.64425 -2.03823 0
M  V30 6044 H 588.419 -4.75753 -0.937402 0
M  V30 6045 N 589.762 0.448376 -1.51087 0
M  V30 6046 C 590.709 1.54341 -1.71603 0
M  V30 6047 C 591.679 1.56463 -0.557536 0
M  V30 6048 O 592.864 1.73644 -0.79072 0
M  V30 6049 C 590.004 2.92148 -1.83695 0
M  V30 6050 C 589.117 2.99639 -3.11192 0
M  V30 6051 C 588.252 4.285 -3.13944 0
M  V30 6052 C 587.291 4.29819 -4.35801 0
M  V30 6053 N 586.428 5.50186 -4.36164 0
M  V30 6054 H 591.268 1.36151 -2.65079 0
M  V30 6055 H 588.805 0.661585 -1.31383 0
M  V30 6056 H 590.763 3.72093 -1.88687 0
M  V30 6057 H 589.393 3.0892 -0.936374 0
M  V30 6058 H 588.445 2.12425 -3.15562 0
M  V30 6059 H 589.757 2.96474 -4.01129 0
M  V30 6060 H 588.911 5.16811 -3.17791 0
M  V30 6061 H 587.65 4.34307 -2.21876 0
M  V30 6062 H 586.655 3.39902 -4.32142 0
M  V30 6063 H 587.88 4.25685 -5.29121 0
M  V30 6064 H 585.826 5.56735 -3.46961 0
M  V30 6065 H 585.743 5.48856 -5.19897 0
M  V30 6066 H 587.011 6.40559 -4.44189 0
M  V30 6067 N 591.24 1.41047 0.703093 0
M  V30 6068 C 592.17 1.45067 1.82969 0
M  V30 6069 C 593.151 0.31016 1.67248 0
M  V30 6070 O 594.336 0.520548 1.87093 0
M  V30 6071 C 591.466 1.32478 3.2104 0
M  V30 6072 C 590.42 2.44262 3.51454 0
M  V30 6073 C 589.746 2.16742 4.88801 0
M  V30 6074 C 591.046 3.86606 3.51189 0
M  V30 6075 H 592.74 2.39353 1.79863 0
M  V30 6076 H 590.286 1.15206 0.863919 0
M  V30 6077 H 592.239 1.33904 3.99559 0
M  V30 6078 H 590.963 0.346735 3.24754 0
M  V30 6079 H 589.622 2.42107 2.75282 0
M  V30 6080 H 589.27 1.17299 4.89132 0
M  V30 6081 H 588.97 2.91643 5.10116 0
M  V30 6082 H 590.494 2.19872 5.69639 0
M  V30 6083 H 591.908 3.90517 4.19725 0
M  V30 6084 H 590.305 4.61128 3.84033 0
M  V30 6085 H 591.375 4.15296 2.50315 0
M  V30 6086 N 592.718 -0.936591 1.26751 0
M  V30 6087 C 593.967 -1.67778 1.11953 0
M  V30 6088 C 594.28 -1.92694 -0.33589 0
M  V30 6089 O 595.486 -2.64682 -0.604618 0
M  V30 6090 C 593.942 -3.02138 1.95551 0
M  V30 6091 C 593.55 -2.84953 3.45696 0
M  V30 6092 C 595.294 -3.79917 1.89377 0
M  V30 6093 C 593.201 -4.14814 4.21525 0
M  V30 6094 H 592.131 -0.629275 0.415366 0
M  V30 6095 H 594.782 -1.04122 1.51099 0
M  V30 6096 H 593.164 -3.668 1.49243 0
M  V30 6097 H 594.338 -2.29112 3.99805 0
M  V30 6098 H 592.653 -2.20612 3.53156 0
M  V30 6099 H 595.25 -4.76134 2.43312 0
M  V30 6100 H 595.593 -4.07204 0.865464 0
M  V30 6101 H 596.126 -3.22037 2.33532 0
M  V30 6102 H 592.865 -3.92709 5.24843 0
M  V30 6103 H 592.385 -4.70352 3.72195 0
M  V30 6104 H 594.064 -4.83239 4.3022 0
M  V30 6105 N 594.196 -1.08629 -1.14182 0
M  V30 6106 C 595.612 -0.814363 -1.3726 0
M  V30 6107 C 595.812 0.575271 -1.93114 0
M  V30 6108 O 594.868 1.33165 -2.1453 0
M  V30 6109 C 596.181 -1.8989 -2.33157 0
M  V30 6110 C 597.729 -1.92518 -2.46791 0
M  V30 6111 C 598.204 -3.00092 -3.45989 0
M  V30 6112 N 599.695 -2.99279 -3.53534 0
M  V30 6113 C 600.43 -3.79158 -4.30147 0
M  V30 6114 N 599.926 -4.68923 -5.09983 0
M  V30 6115 N 601.719 -3.67451 -4.25366 0
M  V30 6116 H 593.87 -1.98232 -0.762758 0
M  V30 6117 H 596.133 -0.860383 -0.398051 0
M  V30 6118 H 595.839 -2.89809 -1.99257 0
M  V30 6119 H 595.713 -1.77013 -3.33086 0
M  V30 6120 H 598.1 -0.932425 -2.79982 0
M  V30 6121 H 598.181 -2.09473 -1.46816 0
M  V30 6122 H 597.825 -3.99575 -3.13532 0
M  V30 6123 H 597.755 -2.80382 -4.45751 0
M  V30 6124 H 600.246 -2.3422 -2.96563 0
M  V30 6125 H 600.559 -5.26475 -5.65724 0
M  V30 6126 H 598.904 -4.72964 -5.09244 0
M  V30 6127 H 602.095 -2.9669 -3.62067 0
M  V30 6128 H 602.268 -4.29944 -4.84822 0
M  V30 6129 N 595.674 1.31259 -0.872281 0
M  V30 6130 C 596.922 1.96233 -0.483409 0
M  V30 6131 C 597.243 1.69276 0.968012 0
M  V30 6132 O 596.513 1.00943 1.67891 0
M  V30 6133 H 595.093 0.726025 -0.175774 0
M  V30 6134 H 597.755 1.60024 -1.11258 0
M  V30 6135 H 596.851 3.05403 -0.643075 0
M  V30 6136 N 597.152 0.631951 1.44375 0
M  V30 6137 C 598.429 0.067646 1.95483 0
M  V30 6138 C 598.809 -1.40683 1.57389 0
M  V30 6139 O 598.157 -2.12167 0.848375 0
M  V30 6140 C 598.367 0.291392 3.47781 0
M  V30 6141 C 599.715 0.185028 4.24197 0
M  V30 6142 O 600.739 0.222803 3.55503 0
M  V30 6143 O 599.598 0.0906642 5.46425 0
M  V30 6144 H 596.692 -0.0218379 0.826712 0
M  V30 6145 H 599.238 0.703711 1.54421 0
M  V30 6146 H 598.01 1.31449 3.68561 0
M  V30 6147 H 597.633 -0.378772 3.95792 0
M  V30 6148 N 598.631 -1.53133 0.372548 0
M  V30 6149 C 599.594 -2.24569 -0.458389 0
M  V30 6150 C 600.594 -1.25603 -1.00402 0
M  V30 6151 O 601.784 -1.49827 -0.888672 0
M  V30 6152 C 598.916 -2.98783 -1.6414 0
M  V30 6153 H 600.109 -2.99436 0.166799 0
M  V30 6154 H 597.662 -1.55805 0.124357 0
M  V30 6155 H 598.397 -2.28176 -2.30448 0
M  V30 6156 H 598.182 -3.71404 -1.25704 0
M  V30 6157 H 599.672 -3.53068 -2.23008 0
M  V30 6158 N 600.109 -0.101901 -1.5727 0
M  V30 6159 C 601.042 0.891377 -2.10071 0
M  V30 6160 C 602.02 1.27197 -1.01291 0
M  V30 6161 O 603.204 1.37602 -1.28833 0
M  V30 6162 C 600.331 2.19049 -2.58331 0
M  V30 6163 C 599.377 1.95925 -3.78834 0
M  V30 6164 S 600.21 1.19106 -5.22086 0
M  V30 6165 C 601.366 2.50234 -5.73702 0
M  V30 6166 H 601.599 0.442212 -2.93993 0
M  V30 6167 H 599.132 0.111529 -1.53997 0
M  V30 6168 H 601.09 2.937 -2.86793 0
M  V30 6169 H 599.751 2.61086 -1.74622 0
M  V30 6170 H 598.944 2.92143 -4.10693 0
M  V30 6171 H 598.546 1.29401 -3.50901 0
M  V30 6172 H 600.838 3.46173 -5.82384 0
M  V30 6173 H 601.781 2.22944 -6.72088 0
M  V30 6174 H 602.189 2.58818 -5.01671 0
M  V30 6175 N 601.587 1.56661 0.17182 0
M  V30 6176 C 602.833 1.82235 0.889845 0
M  V30 6177 C 603.166 0.679673 1.81918 0
M  V30 6178 O 602.441 -0.318404 1.91876 0
M  V30 6179 C 602.724 3.18195 1.68595 0
M  V30 6180 C 602.577 4.42989 0.779773 0
M  V30 6181 C 603.896 3.5109 2.65375 0
M  V30 6182 H 601.015 0.66291 0.322056 0
M  V30 6183 H 603.657 1.89358 0.15608 0
M  V30 6184 H 601.807 3.12253 2.3115 0
M  V30 6185 H 603.479 4.60997 0.16714 0
M  V30 6186 H 601.722 4.33711 0.0877964 0
M  V30 6187 H 602.393 5.3467 1.3723 0
M  V30 6188 H 604.869 3.57482 2.12946 0
M  V30 6189 H 603.745 4.47298 3.18144 0
M  V30 6190 H 604.006 2.75768 3.45549 0
M  V30 6191 N 603.065 -0.440357 1.51323 0
M  V30 6192 C 604.342 -1.20109 1.5438 0
M  V30 6193 C 604.722 -2.08866 0.306303 0
M  V30 6194 O 604.07 -2.1723 -0.708773 0
M  V30 6195 C 604.28 -2.00555 2.8562 0
M  V30 6196 C 605.628 -2.577 3.37455 0
M  V30 6197 O 606.652 -2.10769 2.8715 0
M  V30 6198 O 605.511 -3.43289 4.25224 0
M  V30 6199 H 602.605 -0.546668 0.620551 0
M  V30 6200 H 605.151 -0.449672 1.63634 0
M  V30 6201 H 603.923 -1.35346 3.67147 0
M  V30 6202 H 603.546 -2.82768 2.79514 0
M  V30 6203 N 604.543 -1.41418 -0.695603 0
M  V30 6204 C 605.791 -1.40496 -1.45277 0
M  V30 6205 C 606.112 -0.0149538 -1.94994 0
M  V30 6206 O 605.382 0.9432 -1.71699 0
M  V30 6207 H 603.962 -0.517147 -0.539044 0
M  V30 6208 H 606.624 -1.76656 -0.823321 0
M  V30 6209 H 605.72 -2.09214 -2.31595 0
M  V30 6210 N 606.021 0.929856 -1.27246 0
M  V30 6211 C 606.969 2.05151 -1.09616 0
M  V30 6212 C 607.963 1.69388 -0.0198617 0
M  V30 6213 O 609.169 1.79124 -0.177417 0
M  V30 6214 H 605.544 0.671909 -0.337701 0
M  V30 6215 H 607.515 2.17168 -2.04648 0
M  V30 6216 C 606.264 3.3934 -0.757851 0
M  V30 6217 H 605.587 3.67343 -1.57795 0
M  V30 6218 H 607.027 4.18603 -0.674358 0
M  V30 6219 C 605.486 3.32582 0.537658 0
M  V30 6220 O 606.016 3.69633 1.57271 0
M  V30 6221 N 604.222 2.8568 0.532478 0
M  V30 6222 H 603.769 2.55725 -0.310233 0
M  V30 6223 H 603.727 2.81541 1.39936 0
M  V30 6224 N 607.499 1.09233 1.13605 0
M  V30 6225 C 608.729 0.847677 1.88409 0
M  V30 6226 C 609.137 -0.604524 1.79282 0
M  V30 6227 O 608.48 -1.42773 1.15592 0
M  V30 6228 C 608.542 1.20153 3.38827 0
M  V30 6229 C 608.206 2.65824 3.71735 0
M  V30 6230 C 609.203 3.64072 3.71143 0
M  V30 6231 C 606.888 3.01894 4.01454 0
M  V30 6232 C 608.882 4.96419 3.99808 0
M  V30 6233 C 606.569 4.34433 4.29781 0
M  V30 6234 C 607.567 5.31505 4.28942 0
M  V30 6235 O 607.255 6.61659 4.56576 0
M  V30 6236 H 606.987 0.304813 0.603378 0
M  V30 6237 H 609.541 1.4573 1.44748 0
M  V30 6238 H 607.771 0.534946 3.82982 0
M  V30 6239 H 609.46 0.936349 3.94952 0
M  V30 6240 H 610.226 3.37549 3.4826 0
M  V30 6241 H 606.105 2.26971 4.01255 0
M  V30 6242 H 609.649 5.7218 3.99069 0
M  V30 6243 H 605.546 4.607 4.52135 0
M  V30 6244 H 606.314 6.67102 4.74254 0
M  V30 6245 N 608.977 -1.30795 0.87923 0
M  V30 6246 C 610.205 -2.00527 0.509548 0
M  V30 6247 C 610.62 -1.65944 -0.90045 0
M  V30 6248 O 609.977 -0.893525 -1.5913 0
M  V30 6249 C 610.028 -3.55276 0.667943 0
M  V30 6250 O 609.749 -3.88625 2.02242 0
M  V30 6251 C 611.25 -4.4228 0.300494 0
M  V30 6252 H 608.47 -0.641261 0.197549 0
M  V30 6253 H 611.014 -1.66813 1.18295 0
M  V30 6254 H 609.169 -3.87377 0.0419843 0
M  V30 6255 H 609.583 -4.83334 2.03688 0
M  V30 6256 H 611.057 -5.50061 0.462242 0
M  V30 6257 H 611.534 -4.32556 -0.76106 0
M  V30 6258 H 612.14 -4.15613 0.902536 0
M  V30 6259 N 610.455 -0.639598 -1.44038 0
M  V30 6260 C 611.385 0.0469443 -2.33453 0
M  V30 6261 C 612.366 0.82609 -1.48694 0
M  V30 6262 O 613.551 0.790285 -1.77393 0
M  V30 6263 C 610.681 1.02338 -3.3188 0
M  V30 6264 C 609.635 0.355284 -4.26523 0
M  V30 6265 C 608.961 1.44221 -5.14883 0
M  V30 6266 C 610.261 -0.743798 -5.16977 0
M  V30 6267 H 611.955 -0.699735 -2.91108 0
M  V30 6268 H 609.501 -0.337946 -1.39978 0
M  V30 6269 H 611.454 1.51247 -3.93322 0
M  V30 6270 H 610.178 1.80105 -2.72451 0
M  V30 6271 H 608.837 -0.113239 -3.66425 0
M  V30 6272 H 608.485 2.21097 -4.51802 0
M  V30 6273 H 608.185 1.00052 -5.79019 0
M  V30 6274 H 609.709 1.93295 -5.79197 0
M  V30 6275 H 611.123 -0.337444 -5.72306 0
M  V30 6276 H 609.52 -1.10914 -5.89761 0
M  V30 6277 H 610.59 -1.60745 -4.57481 0
M  V30 6278 N 611.933 1.52934 -0.380664 0
M  V30 6279 C 613.163 2.05587 0.204302 0
M  V30 6280 C 613.571 1.25288 1.41773 0
M  V30 6281 O 612.914 0.290394 1.8139 0
M  V30 6282 C 612.976 3.53624 0.647324 0
M  V30 6283 C 612.64 4.54765 -0.451465 0
M  V30 6284 C 613.637 5.03226 -1.30614 0
M  V30 6285 C 611.322 4.98508 -0.616025 0
M  V30 6286 C 613.316 5.94046 -2.31058 0
M  V30 6287 C 611.003 5.89131 -1.62381 0
M  V30 6288 C 612.001 6.36792 -2.46952 0
M  V30 6289 O 611.689 7.25626 -3.46009 0
M  V30 6290 H 611.421 0.675013 0.0365198 0
M  V30 6291 H 613.975 1.98125 -0.541827 0
M  V30 6292 H 612.205 3.58676 1.44529 0
M  V30 6293 H 613.894 3.89061 1.15698 0
M  V30 6294 H 614.66 4.70167 -1.19027 0
M  V30 6295 H 610.539 4.60989 0.0324987 0
M  V30 6296 H 614.083 6.3117 -2.97104 0
M  V30 6297 H 609.98 6.21603 -1.7401 0
M  V30 6298 H 610.748 7.43664 -3.41916 0
M  V30 6299 N 613.412 0.11024 1.57214 0
M  V30 6300 C 614.658 -0.550684 1.9518 0
M  V30 6301 C 614.991 -1.66885 0.993122 0
M  V30 6302 O 614.266 -1.94479 0.0287907 0
M  V30 6303 C 614.549 -1.09163 3.43155 0
M  V30 6304 C 614.402 0.0225198 4.49794 0
M  V30 6305 C 615.721 -1.98527 3.92778 0
M  V30 6306 H 612.84 -0.198706 0.709708 0
M  V30 6307 H 615.482 0.184024 1.89107 0
M  V30 6308 H 613.632 -1.71775 3.48462 0
M  V30 6309 H 615.304 0.657443 4.56591 0
M  V30 6310 H 613.547 0.686868 4.28328 0
M  V30 6311 H 614.218 -0.39706 5.5057 0
M  V30 6312 H 616.694 -1.458 3.8972 0
M  V30 6313 H 615.57 -2.33298 4.96853 0
M  V30 6314 H 615.831 -2.90846 3.32958 0
M  V30 6315 N 614.89 -1.56749 -0.16351 0
M  V30 6316 C 615.82 -2.00042 -1.20438 0
M  V30 6317 C 616.801 -0.877256 -1.45733 0
M  V30 6318 O 617.986 -1.1439 -1.56935 0
M  V30 6319 C 615.116 -2.36697 -2.54149 0
M  V30 6320 C 614.07 -3.52046 -2.43408 0
M  V30 6321 C 613.396 -3.74466 -3.81679 0
M  V30 6322 C 614.696 -4.85247 -1.93216 0
M  V30 6323 H 616.39 -2.87244 -0.844477 0
M  V30 6324 H 613.936 -1.38194 -0.40478 0
M  V30 6325 H 615.889 -2.65582 -3.27176 0
M  V30 6326 H 614.613 -1.46414 -2.91943 0
M  V30 6327 H 613.272 -3.23301 -1.72834 0
M  V30 6328 H 612.92 -2.81461 -4.1688 0
M  V30 6329 H 612.62 -4.52084 -3.75359 0
M  V30 6330 H 614.144 -4.0576 -4.5628 0
M  V30 6331 H 615.558 -5.12957 -2.56023 0
M  V30 6332 H 613.955 -5.66556 -1.97825 0
M  V30 6333 H 615.025 -4.7672 -0.88689 0
M  V30 6334 N 616.368 0.432326 -1.51554 0
M  V30 6335 C 617.645 1.19288 -1.55015 0
M  V30 6336 C 618.025 2.08701 -0.317375 0
M  V30 6337 O 617.373 2.17602 0.697243 0
M  V30 6338 C 617.583 1.99037 -2.86679 0
M  V30 6339 C 618.931 2.55907 -3.38817 0
M  V30 6340 O 619.955 2.09243 -2.88263 0
M  V30 6341 O 618.814 3.41029 -4.27038 0
M  V30 6342 H 615.908 0.543369 -0.623441 0
M  V30 6343 H 618.454 0.440988 -1.6387 0
M  V30 6344 H 617.226 1.33397 -3.6786 0
M  V30 6345 H 616.849 2.81281 -2.8101 0
M  V30 6346 N 617.846 1.41785 0.688094 0
M  V30 6347 C 618.794 1.44436 1.82321 0
M  V30 6348 C 619.788 0.321544 1.6632 0
M  V30 6349 O 620.994 0.493931 1.73091 0
M  V30 6350 H 617.369 0.452084 0.600936 0
M  V30 6351 H 619.34 2.40087 1.77202 0
M  V30 6352 C 618.089 1.35071 3.20392 0
M  V30 6353 H 617.412 2.2076 3.33324 0
M  V30 6354 H 618.852 1.40988 3.99873 0
M  V30 6355 C 617.311 0.0639127 3.36839 0
M  V30 6356 O 617.841 -0.888495 3.91751 0
M  V30 6357 N 616.047 -0.0146114 2.90596 0
M  V30 6358 H 615.594 0.761191 2.46097 0
M  V30 6359 H 615.552 -0.874988 3.01979 0
M  V30 6360 N 619.324 -0.923095 1.27737 0
M  V30 6361 C 620.256 -2.02871 1.06658 0
M  V30 6362 C 621.269 -1.62786 0.0212095 0
M  V30 6363 O 622.458 -1.76548 0.263267 0
M  V30 6364 C 619.558 -3.33603 0.59682 0
M  V30 6365 C 618.731 -4.02354 1.71551 0
M  V30 6366 C 617.79 -5.11364 1.24071 0
M  V30 6367 O 616.816 -5.35075 1.94123 0
M  V30 6368 N 618.018 -5.80416 0.0988444 0
M  V30 6369 H 620.783 -2.21515 2.01869 0
M  V30 6370 H 618.344 -1.09378 1.19365 0
M  V30 6371 H 620.336 -4.03845 0.262984 0
M  V30 6372 H 618.906 -3.11499 -0.262187 0
M  V30 6373 H 618.126 -3.25786 2.2194 0
M  V30 6374 H 619.414 -4.45035 2.46619 0
M  V30 6375 H 618.812 -5.63611 -0.485743 0
M  V30 6376 H 617.369 -6.51563 -0.17578 0
M  V30 6377 N 620.802 -1.09834 -1.13024 0
M  V30 6378 C 621.75 -0.736283 -2.20639 0
M  V30 6379 C 622.744 0.264725 -1.67319 0
M  V30 6380 O 623.95 0.125745 -1.7956 0
M  V30 6381 H 620.325 -0.220136 -0.719058 0
M  V30 6382 H 622.296 -1.65295 -2.48436 0
M  V30 6383 C 621.045 -0.177544 -3.47246 0
M  V30 6384 H 620.368 -0.939009 -3.88616 0
M  V30 6385 H 621.808 0.0378007 -4.23983 0
M  V30 6386 C 620.267 1.08824 -3.1884 0
M  V30 6387 O 620.797 2.1708 -3.37993 0
M  V30 6388 N 619.003 1.00442 -2.7269 0
M  V30 6389 H 618.55 0.123383 -2.57304 0
M  V30 6390 H 618.508 1.85206 -2.5406 0
M  V30 6391 N 622.28 1.30327 -0.886154 0
M  V30 6392 C 623.21 2.30549 -0.370028 0
M  V30 6393 C 624.191 1.61039 0.547751 0
M  V30 6394 O 625.376 1.8864 0.461353 0
M  V30 6395 C 622.506 3.44808 0.415275 0
M  V30 6396 C 621.46 4.26024 -0.41085 0
M  V30 6397 C 620.786 5.32347 0.501128 0
M  V30 6398 C 622.086 4.95433 -1.65359 0
M  V30 6399 H 623.78 2.73969 -1.20754 0
M  V30 6400 H 621.326 1.3171 -0.582097 0
M  V30 6401 H 623.279 4.13986 0.78699 0
M  V30 6402 H 622.003 3.00197 1.28644 0
M  V30 6403 H 620.662 3.58535 -0.764719 0
M  V30 6404 H 620.31 4.83982 1.37004 0
M  V30 6405 H 620.01 5.87581 -0.0478356 0
M  V30 6406 H 621.534 6.0438 0.869333 0
M  V30 6407 H 622.948 5.5712 -1.35239 0
M  V30 6408 H 621.345 5.60537 -2.14284 0
M  V30 6409 H 622.415 4.21493 -2.39733 0
M  V30 6410 N 623.758 0.647228 1.43697 0
M  V30 6411 C 624.69 -0.0866232 2.29036 0
M  V30 6412 C 625.703 -0.793051 1.42178 0
M  V30 6413 O 626.892 -0.651807 1.66174 0
M  V30 6414 C 623.992 -1.14552 3.18953 0
M  V30 6415 C 623.165 -0.518422 4.34317 0
M  V30 6416 C 622.224 -1.4734 5.05151 0
M  V30 6417 O 621.25 -0.984312 5.60625 0
M  V30 6418 N 622.452 -2.8075 5.08094 0
M  V30 6419 H 625.217 0.645834 2.92659 0
M  V30 6420 H 622.778 0.489567 1.54321 0
M  V30 6421 H 624.77 -1.78505 3.63205 0
M  V30 6422 H 623.34 -1.78001 2.56971 0
M  V30 6423 H 622.56 0.300079 3.93056 0
M  V30 6424 H 623.848 -0.080401 5.08736 0
M  V30 6425 H 623.246 -3.23052 4.64386 0
M  V30 6426 H 621.803 -3.40022 5.56083 0
M  V30 6427 N 625.236 -1.5273 0.388769 0
M  V30 6428 C 626.168 -2.24081 -0.481704 0
M  V30 6429 C 627.181 -1.26307 -1.02715 0
M  V30 6430 O 628.37 -1.52386 -0.929565 0
M  V30 6431 C 625.47 -2.94315 -1.68024 0
M  V30 6432 C 624.643 -4.18791 -1.26226 0
M  V30 6433 C 623.702 -4.72028 -2.32542 0
M  V30 6434 O 622.728 -5.35129 -1.93972 0
M  V30 6435 N 623.93 -4.51838 -3.64448 0
M  V30 6436 H 626.695 -2.9942 0.129591 0
M  V30 6437 H 624.256 -1.60465 0.2151 0
M  V30 6438 H 626.248 -3.26831 -2.38671 0
M  V30 6439 H 624.818 -2.22287 -2.19789 0
M  V30 6440 H 624.038 -3.92318 -0.384703 0
M  V30 6441 H 625.326 -4.99668 -0.959647 0
M  V30 6442 H 624.724 -4.01468 -3.98547 0
M  V30 6443 H 623.281 -4.88845 -4.31131 0
M  V30 6444 N 626.714 -0.118576 -1.57153 0
M  V30 6445 C 627.644 0.828436 -2.1831 0
M  V30 6446 C 628.625 1.27758 -1.12303 0
M  V30 6447 O 629.81 1.34026 -1.40537 0
M  V30 6448 C 626.94 2.07876 -2.78217 0
M  V30 6449 C 625.894 1.76742 -3.89803 0
M  V30 6450 C 625.22 3.08801 -4.36516 0
M  V30 6451 C 626.52 1.03606 -5.11921 0
M  V30 6452 H 628.214 0.318824 -2.97698 0
M  V30 6453 H 625.76 0.151911 -1.43196 0
M  V30 6454 H 627.713 2.74584 -3.19659 0
M  V30 6455 H 626.437 2.61161 -1.96118 0
M  V30 6456 H 625.096 1.12424 -3.48936 0
M  V30 6457 H 624.744 3.6002 -3.51276 0
M  V30 6458 H 624.444 2.88743 -5.11763 0
M  V30 6459 H 625.968 3.76627 -4.80608 0
M  V30 6460 H 627.382 1.60467 -5.50385 0
M  V30 6461 H 625.779 0.936454 -5.92748 0
M  V30 6462 H 626.849 0.0227421 -4.84895 0
M  V30 6463 N 628.193 1.56834 0.155195 0
M  V30 6464 C 629.441 1.82536 0.867462 0
M  V30 6465 C 629.762 0.698168 1.82073 0
M  V30 6466 O 629.032 -0.280807 1.93877 0
M  V30 6467 H 627.612 0.673401 0.323327 0
M  V30 6468 H 630.274 1.94313 0.151156 0
M  V30 6469 H 629.37 2.77171 1.43466 0
M  V30 6470 N 629.671 -0.424282 1.51781 0
M  V30 6471 C 630.896 -1.19928 1.6921 0
M  V30 6472 C 631.321 -1.8392 0.394355 0
M  V30 6473 O 630.679 -1.69371 -0.646778 0
M  V30 6474 C 630.727 -2.24937 2.81843 0
M  V30 6475 O 629.831 -3.3073 2.46356 0
M  V30 6476 H 629.172 -0.35078 0.563781 0
M  V30 6477 H 631.702 -0.499401 1.98412 0
M  V30 6478 H 631.712 -2.69512 3.06312 0
M  V30 6479 H 630.387 -1.77742 3.76006 0
M  V30 6480 H 628.964 -2.9154 2.32505 0
M  V30 6481 N 631.149 -1.42148 -0.680565 0
M  V30 6482 C 632.395 -1.4352 -1.44131 0
M  V30 6483 C 632.75 -0.0486244 -1.92339 0
M  V30 6484 O 632.043 0.92819 -1.67616 0
M  V30 6485 C 632.237 -2.38945 -2.65782 0
M  V30 6486 C 632.066 -3.86743 -2.29477 0
M  V30 6487 C 630.836 -4.5532 -2.19115 0
M  V30 6488 C 633.034 -4.77321 -1.91491 0
M  V30 6489 N 631.016 -5.88174 -1.75853 0
M  V30 6490 C 632.387 -5.99238 -1.59103 0
M  V30 6491 C 634.442 -4.64829 -1.78432 0
M  V30 6492 C 633.145 -7.10053 -1.14968 0
M  V30 6493 C 635.171 -5.75621 -1.35702 0
M  V30 6494 C 634.533 -6.96645 -1.04234 0
M  V30 6495 H 630.632 -0.580363 -0.524121 0
M  V30 6496 H 633.216 -1.78132 -0.785939 0
M  V30 6497 H 631.387 -2.06403 -3.29017 0
M  V30 6498 H 633.119 -2.30935 -3.32342 0
M  V30 6499 H 629.874 -4.09456 -2.37998 0
M  V30 6500 H 630.298 -6.58625 -1.56661 0
M  V30 6501 H 634.94 -3.71745 -2.01409 0
M  V30 6502 H 632.658 -8.0299 -0.907365 0
M  V30 6503 H 636.244 -5.67964 -1.26126 0
M  V30 6504 H 635.124 -7.80918 -0.716707 0
M  V30 6505 N 632.627 0.916307 -1.28225 0
M  V30 6506 C 633.873 1.66765 -1.154 0
M  V30 6507 C 634.206 1.91912 0.297251 0
M  V30 6508 O 633.481 1.51766 1.21644 0
M  V30 6509 C 633.764 3.02715 -1.95028 0
M  V30 6510 C 633.617 2.84738 -3.48201 0
M  V30 6511 C 634.936 4.03215 -1.76369 0
M  V30 6512 H 632.055 0.605205 -0.42059 0
M  V30 6513 H 634.697 1.06255 -1.57512 0
M  V30 6514 H 632.847 3.54365 -1.59242 0
M  V30 6515 H 634.519 2.40118 -3.9388 0
M  V30 6516 H 632.762 2.19848 -3.73964 0
M  V30 6517 H 633.433 3.8127 -3.99171 0
M  V30 6518 H 635.909 3.60617 -2.07593 0
M  V30 6519 H 634.785 4.96306 -2.34459 0
M  V30 6520 H 635.046 4.36288 -0.71452 0
M  V30 6521 N 634.105 1.10431 1.1244 0
M  V30 6522 C 635.068 0.756542 2.16354 0
M  V30 6523 C 636.068 -0.21899 1.59302 0
M  V30 6524 O 637.258 0.00415969 1.742 0
M  V30 6525 C 634.39 0.120612 3.40687 0
M  V30 6526 H 635.583 1.67696 2.48632 0
M  V30 6527 H 633.136 0.904832 1.27446 0
M  V30 6528 H 633.871 -0.810536 3.14008 0
M  V30 6529 H 633.656 0.822693 3.83372 0
M  V30 6530 H 635.146 -0.106945 4.17463 0
M  V30 6531 N 635.583 -1.29855 0.893053 0
M  V30 6532 C 636.546 -2.26183 0.370687 0
M  V30 6533 C 637.546 -1.53108 -0.491385 0
M  V30 6534 O 638.736 -1.71643 -0.297386 0
M  V30 6535 C 635.868 -3.37633 -0.470827 0
M  V30 6536 H 637.061 -2.73903 1.22135 0
M  V30 6537 H 634.614 -1.41183 0.67061 0
M  V30 6538 H 635.349 -2.95241 -1.34175 0
M  V30 6539 H 635.134 -3.91825 0.146784 0
M  V30 6540 H 636.624 -4.09313 -0.827825 0
M  V30 6541 N 637.061 -0.65484 -1.43351 0
M  V30 6542 C 638.309 -0.168559 -2.01396 0
M  V30 6543 C 638.63 1.22235 -1.51933 0
M  V30 6544 O 637.9 1.81685 -0.732627 0
M  V30 6545 H 636.48 -0.0593244 -0.744641 0
M  V30 6546 H 639.142 -0.846871 -1.75539 0
M  V30 6547 H 638.238 -0.154428 -3.11718 0
M  V30 6548 N 638.539 1.52521 -0.396863 0
M  V30 6549 C 639.469 2.29582 0.425941 0
M  V30 6550 C 640.45 1.33281 1.05689 0
M  V30 6551 O 641.635 1.62181 1.06823 0
M  V30 6552 C 638.765 3.10821 1.54943 0
M  V30 6553 C 637.719 4.15069 1.04413 0
M  V30 6554 C 637.045 4.84578 2.26028 0
M  V30 6555 C 638.345 5.22191 0.106767 0
M  V30 6556 H 640.039 2.98612 -0.217045 0
M  V30 6557 H 637.585 1.43611 -0.105826 0
M  V30 6558 H 639.538 3.63492 2.13193 0
M  V30 6559 H 638.262 2.39538 2.22011 0
M  V30 6560 H 636.921 3.63389 0.484118 0
M  V30 6561 H 636.569 4.09835 2.91623 0
M  V30 6562 H 636.269 5.55043 1.92876 0
M  V30 6563 H 637.793 5.40056 2.84906 0
M  V30 6564 H 639.207 5.70176 0.597685 0
M  V30 6565 H 637.604 5.99947 -0.135352 0
M  V30 6566 H 638.674 4.77531 -0.842134 0
M  V30 6567 N 640.017 0.126909 1.57088 0
M  V30 6568 C 641.245 -0.53667 1.99819 0
M  V30 6569 C 641.66 -1.5972 1.00673 0
M  V30 6570 O 641.017 -1.825 0.000747365 0
M  V30 6571 C 641.068 -1.15563 3.42531 0
M  V30 6572 O 640.789 -0.137483 4.37884 0
M  V30 6573 C 642.29 -1.90176 4.00435 0
M  V30 6574 H 639.51 -0.141443 0.655923 0
M  V30 6575 H 642.054 0.215578 2.03361 0
M  V30 6576 H 640.209 -1.85861 3.39904 0
M  V30 6577 H 640.623 -0.588229 5.21191 0
M  V30 6578 H 642.097 -2.28801 5.02349 0
M  V30 6579 H 642.574 -2.78002 3.40017 0
M  V30 6580 H 643.18 -1.24623 4.06632 0
M  V30 6581 N 641.495 -1.56914 -0.146875 0
M  V30 6582 C 642.744 -1.82546 -0.857898 0
M  V30 6583 C 643.057 -0.708169 -1.8233 0
M  V30 6584 O 644.263 -0.850093 -2.57848 0
M  V30 6585 C 642.719 -3.23548 -1.57623 0
M  V30 6586 C 642.327 -4.43212 -0.653224 0
M  V30 6587 C 644.071 -3.58453 -2.27402 0
M  V30 6588 C 641.978 -5.75237 -1.37318 0
M  V30 6589 H 640.908 -0.680786 -0.32411 0
M  V30 6590 H 643.559 -1.83166 -0.110639 0
M  V30 6591 H 641.941 -3.17315 -2.36912 0
M  V30 6592 H 643.115 -4.60682 0.104452 0
M  V30 6593 H 641.43 -4.16351 -0.0638336 0
M  V30 6594 H 644.027 -4.54349 -2.81907 0
M  V30 6595 H 644.37 -2.84516 -3.03901 0
M  V30 6596 H 644.903 -3.66347 -1.55032 0
M  V30 6597 H 641.642 -6.52269 -0.650041 0
M  V30 6598 H 641.162 -5.61703 -2.10357 0
M  V30 6599 H 642.841 -6.18039 -1.91406 0
M  V30 6600 N 642.974 0.416227 -1.52004 0
M  V30 6601 C 644.385 0.995319 -1.57957 0
M  V30 6602 C 644.736 1.91744 -0.415754 0
M  V30 6603 O 643.861 2.11349 0.464808 0
M  V30 6604 C 644.456 1.81191 -2.86278 0
M  V30 6605 C 643.015 2.34115 -2.94732 0
M  V30 6606 C 642.162 1.139 -2.52828 0
M  V30 6607 H 645.113 0.196716 -1.57476 0
M  V30 6608 H 645.134 2.66859 -2.71231 0
M  V30 6609 H 644.646 1.14051 -3.70963 0
M  V30 6610 H 642.747 3.04647 -2.14525 0
M  V30 6611 H 642.86 2.65466 -3.98829 0
M  V30 6612 H 641.224 1.49081 -2.06511 0
M  V30 6613 H 642.007 0.483383 -3.3988 0
M  V30 6614 N 644.452 1.42507 0.673017 0
M  V30 6615 C 645.698 1.43284 1.43519 0
M  V30 6616 C 646.031 0.049668 1.94136 0
M  V30 6617 O 645.306 -0.926369 1.71022 0
M  V30 6618 C 645.589 2.45874 2.63093 0
M  V30 6619 C 645.442 3.93388 2.18096 0
M  V30 6620 C 646.761 2.45431 3.6531 0
M  V30 6621 H 643.88 0.521752 0.520522 0
M  V30 6622 H 646.522 1.73932 0.764701 0
M  V30 6623 H 644.672 2.19869 3.20296 0
M  V30 6624 H 646.344 4.30379 1.66046 0
M  V30 6625 H 644.587 4.07169 1.49652 0
M  V30 6626 H 645.258 4.60752 3.03993 0
M  V30 6627 H 647.734 2.68561 3.17827 0
M  V30 6628 H 646.61 3.19189 4.46553 0
M  V30 6629 H 646.871 1.48092 4.16559 0
M  V30 6630 N 645.93 -0.909495 1.28709 0
M  V30 6631 C 647.178 -1.65577 1.15882 0
M  V30 6632 C 647.499 -1.928 -0.292108 0
M  V30 6633 O 646.769 -1.54716 -1.20166 0
M  V30 6634 H 645.349 -0.613714 0.425869 0
M  V30 6635 H 648.011 -1.09108 1.61498 0
M  V30 6636 H 647.107 -2.61634 1.70159 0
M  V30 6637 N 647.408 -1.11026 -1.11852 0
M  V30 6638 C 648.355 -0.764662 -2.17765 0
M  V30 6639 C 649.325 0.261854 -1.64023 0
M  V30 6640 O 650.51 0.139748 -1.90288 0
M  V30 6641 C 647.65 -0.209317 -3.44465 0
M  V30 6642 C 646.763 -1.29187 -4.12231 0
M  V30 6643 C 645.898 -0.697523 -5.266 0
M  V30 6644 C 644.937 -1.76023 -5.86244 0
M  V30 6645 N 644.074 -1.18569 -6.92016 0
M  V30 6646 H 648.914 -1.67202 -2.46673 0
M  V30 6647 H 646.451 -0.835065 -1.21099 0
M  V30 6648 H 648.409 0.130599 -4.16996 0
M  V30 6649 H 647.039 0.661251 -3.15955 0
M  V30 6650 H 646.091 -1.74881 -3.37818 0
M  V30 6651 H 647.403 -2.09607 -4.52622 0
M  V30 6652 H 646.557 -0.307412 -6.05921 0
M  V30 6653 H 645.296 0.138044 -4.87505 0
M  V30 6654 H 644.301 -2.1597 -5.05606 0
M  V30 6655 H 645.526 -2.59875 -6.27409 0
M  V30 6656 H 643.472 -0.371695 -6.54946 0
M  V30 6657 H 643.389 -1.92666 -7.31038 0
M  V30 6658 H 644.657 -0.82233 -7.7515 0
M  V30 6659 N 648.886 1.2938 -0.899927 0
M  V30 6660 C 650.135 1.9483 -0.521937 0
M  V30 6661 C 650.448 1.71725 0.936473 0
M  V30 6662 O 651.654 2.31282 1.42199 0
M  V30 6663 C 650.11 3.48911 -0.88255 0
M  V30 6664 C 649.718 3.80815 -2.35974 0
M  V30 6665 C 651.462 4.20595 -0.57448 0
M  V30 6666 C 649.369 5.28142 -2.66121 0
M  V30 6667 H 648.299 0.729285 -0.191468 0
M  V30 6668 H 650.95 1.47103 -1.09695 0
M  V30 6669 H 649.332 3.95293 -0.236459 0
M  V30 6670 H 650.506 3.45291 -3.05141 0
M  V30 6671 H 648.821 3.22271 -2.63686 0
M  V30 6672 H 651.418 5.29031 -0.776556 0
M  V30 6673 H 651.761 4.13442 0.487005 0
M  V30 6674 H 652.294 3.79945 -1.17842 0
M  V30 6675 H 649.033 5.4036 -3.71068 0
M  V30 6676 H 648.553 5.64913 -2.01578 0
M  V30 6677 H 650.232 5.95738 -2.52399 0
M  V30 6678 N 650.364 0.662433 1.43002 0
M  V30 6679 C 651.594 0.187343 2.05749 0
M  V30 6680 C 652.002 -1.15582 1.49791 0
M  V30 6681 O 651.345 -1.72651 0.627487 0
M  V30 6682 C 651.407 0.0316493 3.59486 0
M  V30 6683 C 651.071 1.30156 4.38073 0
M  V30 6684 C 652.068 2.23234 4.69535 0
M  V30 6685 C 649.753 1.54572 4.77926 0
M  V30 6686 C 651.747 3.39012 5.39768 0
M  V30 6687 C 649.434 2.70641 5.47902 0
M  V30 6688 C 650.432 3.62687 5.78746 0
M  V30 6689 O 650.12 4.76728 6.47291 0
M  V30 6690 H 649.852 0.0915214 0.669776 0
M  V30 6691 H 652.406 0.905982 1.8434 0
M  V30 6692 H 650.636 -0.742451 3.79506 0
M  V30 6693 H 652.325 -0.401977 4.03905 0
M  V30 6694 H 653.091 2.05616 4.39257 0
M  V30 6695 H 648.97 0.83804 4.53319 0
M  V30 6696 H 652.514 4.10877 5.63761 0
M  V30 6697 H 648.411 2.88189 5.77596 0
M  V30 6698 H 649.179 4.76113 6.65777 0
M  V30 6699 N 651.842 -1.52309 0.404946 0
M  V30 6700 C 653.089 -2.01767 -0.1722 0
M  V30 6701 C 653.417 -1.29075 -1.45498 0
M  V30 6702 O 652.672 -0.3843 -1.9189 0
M  V30 6703 C 652.971 -3.54284 -0.470895 0
M  V30 6704 C 652.637 -4.45079 0.722194 0
M  V30 6705 C 651.299 -4.69617 1.04946 0
M  V30 6706 C 653.651 -4.98555 1.51962 0
M  V30 6707 C 650.979 -5.44878 2.17543 0
M  V30 6708 C 653.331 -5.75049 2.63632 0
M  V30 6709 C 651.995 -5.9786 2.9685 0
M  V30 6710 H 651.265 -0.738316 -0.0630125 0
M  V30 6711 H 653.912 -1.83566 0.545506 0
M  V30 6712 H 652.217 -3.70642 -1.27012 0
M  V30 6713 H 653.914 -3.90058 -0.930346 0
M  V30 6714 H 650.504 -4.26155 0.457131 0
M  V30 6715 H 654.688 -4.79509 1.28002 0
M  V30 6716 H 649.944 -5.60762 2.43631 0
M  V30 6717 H 654.118 -6.15483 3.25813 0
M  V30 6718 H 651.745 -6.5596 3.84215 0
M  V30 6719 N 653.32 -0.135238 -1.57019 0
M  V30 6720 C 654.283 0.794707 -2.14981 0
M  V30 6721 C 655.283 1.18342 -1.08866 0
M  V30 6722 O 656.473 1.10627 -1.34563 0
M  V30 6723 C 653.605 2.07685 -2.70333 0
M  V30 6724 H 654.798 0.290696 -2.98488 0
M  V30 6725 H 652.351 0.114128 -1.55883 0
M  V30 6726 H 653.086 2.6248 -1.9046 0
M  V30 6727 H 652.871 1.80745 -3.47957 0
M  V30 6728 H 654.361 2.74127 -3.1503 0
M  V30 6729 N 654.798 1.5699 0.138552 0
M  V30 6730 C 656.045 1.83809 0.849732 0
M  V30 6731 C 656.373 0.717409 1.80786 0
M  V30 6732 O 655.628 -0.292897 1.93496 0
M  V30 6733 C 655.927 3.17007 1.65049 0
M  V30 6734 C 655.593 4.43037 0.838398 0
M  V30 6735 C 654.255 4.77262 0.614385 0
M  V30 6736 C 656.607 5.20495 0.271044 0
M  V30 6737 C 653.935 5.864 -0.187552 0
M  V30 6738 C 656.287 6.30476 -0.517979 0
M  V30 6739 C 654.951 6.63245 -0.75249 0
M  V30 6740 H 654.221 0.672605 0.310939 0
M  V30 6741 H 656.868 1.91166 0.112971 0
M  V30 6742 H 655.173 3.05138 2.4576 0
M  V30 6743 H 656.87 3.34975 2.20437 0
M  V30 6744 H 653.46 4.16211 1.02307 0
M  V30 6745 H 657.644 4.94422 0.431371 0
M  V30 6746 H 652.9 6.10226 -0.378659 0
M  V30 6747 H 657.074 6.89686 -0.964694 0
M  V30 6748 H 654.701 7.47648 -1.37573 0
M  V30 6749 N 656.276 -0.40816 1.52223 0
M  V30 6750 C 657.224 -1.51788 1.76248 0
M  V30 6751 C 658.218 -1.57264 0.629638 0
M  V30 6752 O 659.424 -1.60659 0.811704 0
M  V30 6753 H 655.799 -0.504823 0.557367 0
M  V30 6754 H 657.77 -1.2871 2.69214 0
M  V30 6755 C 656.519 -2.89145 1.93107 0
M  V30 6756 H 655.842 -2.85674 2.79697 0
M  V30 6757 H 657.282 -3.66082 2.13916 0
M  V30 6758 C 655.741 -3.29581 0.698431 0
M  V30 6759 O 656.271 -4.01479 -0.133238 0
M  V30 6760 N 654.477 -2.85651 0.53405 0
M  V30 6761 H 654.024 -2.2731 1.21194 0
M  V30 6762 H 653.982 -3.13065 -0.289387 0
M  V30 6763 N 657.755 -1.42862 -0.66545 0
M  V30 6764 C 659.166 -1.3901 -1.24632 0
M  V30 6765 C 659.517 -0.0880285 -1.96002 0
M  V30 6766 O 658.642 0.812947 -2.0055 0
M  V30 6767 C 659.237 -2.51806 -2.2667 0
M  V30 6768 C 657.796 -2.51257 -2.80262 0
M  V30 6769 C 656.943 -2.30124 -1.5472 0
M  V30 6770 H 659.894 -1.5194 -0.458237 0
M  V30 6771 H 659.915 -2.22593 -3.08598 0
M  V30 6772 H 659.427 -3.46558 -1.74697 0
M  V30 6773 H 657.528 -1.60349 -3.36332 0
M  V30 6774 H 657.641 -3.48614 -3.28641 0
M  V30 6775 H 656.005 -1.7856 -1.81627 0
M  V30 6776 H 656.788 -3.26945 -1.04699 0
M  V30 6777 N 659.233 0.902656 -1.29189 0
M  V30 6778 C 660.649 1.18296 -1.07137 0
M  V30 6779 C 660.849 2.00701 0.179223 0
M  V30 6780 O 659.905 2.3675 0.877812 0
M  V30 6781 C 661.218 1.90677 -2.32514 0
M  V30 6782 C 662.766 2.03515 -2.37804 0
M  V30 6783 C 663.241 2.79307 -3.62976 0
M  V30 6784 N 664.732 2.86862 -3.63681 0
M  V30 6785 C 665.467 3.46035 -4.57217 0
M  V30 6786 N 664.963 4.06399 -5.61081 0
M  V30 6787 N 666.756 3.43681 -4.44792 0
M  V30 6788 H 658.907 0.352765 -2.0945 0
M  V30 6789 H 661.17 0.21876 -0.922414 0
M  V30 6790 H 660.876 1.3756 -3.23682 0
M  V30 6791 H 660.75 2.91169 -2.39793 0
M  V30 6792 H 663.137 2.55809 -1.47125 0
M  V30 6793 H 663.218 1.02166 -2.34512 0
M  V30 6794 H 662.862 2.2769 -4.54004 0
M  V30 6795 H 662.792 3.80995 -3.63525 0
M  V30 6796 H 665.283 2.43987 -2.88581 0
M  V30 6797 H 665.596 4.49564 -6.2858 0
M  V30 6798 H 663.941 4.0487 -5.64894 0
M  V30 6799 H 667.132 2.9574 -3.62843 0
M  V30 6800 H 667.305 3.89503 -5.17872 0
M  V30 6801 N 660.711 1.11618 1.11262 0
M  V30 6802 C 661.641 0.79846 2.19424 0
M  V30 6803 C 662.622 -0.234003 1.68483 0
M  V30 6804 O 663.807 -0.0970704 1.93957 0
M  V30 6805 C 660.937 0.242892 3.4645 0
M  V30 6806 C 659.891 1.20744 4.10615 0
M  V30 6807 C 659.217 0.512494 5.32238 0
M  V30 6808 C 660.517 2.55884 4.55325 0
M  V30 6809 H 662.211 1.70286 2.46258 0
M  V30 6810 H 659.757 0.820195 1.18359 0
M  V30 6811 H 661.71 0.00840447 4.21399 0
M  V30 6812 H 660.434 -0.696811 3.1908 0
M  V30 6813 H 659.093 1.42759 3.37662 0
M  V30 6814 H 658.741 -0.432075 5.01141 0
M  V30 6815 H 658.441 1.15583 5.7612 0
M  V30 6816 H 659.965 0.286842 6.09926 0
M  V30 6817 H 661.379 2.37946 5.21588 0
M  V30 6818 H 659.776 3.16216 5.10027 0
M  V30 6819 H 660.846 3.14968 3.68678 0
M  V30 6820 N 662.189 -1.289 0.906776 0
M  V30 6821 C 663.429 -1.97046 0.543329 0
M  V30 6822 C 663.793 -1.69862 -0.895034 0
M  V30 6823 O 664.994 -2.31521 -1.36571 0
M  V30 6824 C 663.265 -3.47489 0.835833 0
M  V30 6825 S 664.824 -4.3498 0.577756 0
M  V30 6826 H 661.642 -0.681908 0.201302 0
M  V30 6827 H 664.244 -1.5657 1.17073 0
M  V30 6828 H 662.948 -3.64768 1.88075 0
M  V30 6829 H 662.479 -3.92907 0.196817 0
M  V30 6830 H 664.494 -4.92868 -0.574052 0
M  V30 6831 N 663.667 -0.670007 -1.42649 0
M  V30 6832 C 664.597 -0.00258501 -2.335 0
M  V30 6833 C 665.578 0.794364 -1.50412 0
M  V30 6834 O 666.763 0.75248 -1.79029 0
M  V30 6835 C 663.893 0.952748 -3.33976 0
M  V30 6836 C 662.847 0.264733 -4.2718 0
M  V30 6837 C 662.173 1.33267 -5.17826 0
M  V30 6838 C 663.473 -0.853289 -5.15283 0
M  V30 6839 H 665.167 -0.761326 -2.89559 0
M  V30 6840 H 662.713 -0.367561 -1.3923 0
M  V30 6841 H 664.666 1.4287 -3.96442 0
M  V30 6842 H 663.39 1.74285 -2.7621 0
M  V30 6843 H 662.049 -0.190938 -3.66102 0
M  V30 6844 H 661.697 2.11464 -4.5639 0
M  V30 6845 H 661.397 0.877476 -5.81011 0
M  V30 6846 H 662.921 1.80965 -5.83167 0
M  V30 6847 H 664.335 -0.458763 -5.71462 0
M  V30 6848 H 662.732 -1.23398 -5.87276 0
M  V30 6849 H 663.802 -1.70412 -4.53969 0
M  V30 6850 N 665.145 1.52092 -0.413018 0
M  V30 6851 C 666.055 2.30858 0.417318 0
M  V30 6852 C 667.071 1.38746 1.05003 0
M  V30 6853 O 668.247 1.71821 1.05069 0
M  V30 6854 C 665.312 3.11756 1.51687 0
M  V30 6855 C 664.373 4.19613 0.906825 0
M  V30 6856 C 663.606 4.96644 1.95399 0
M  V30 6857 O 663.829 4.7402 3.17271 0
M  V30 6858 O 662.763 5.81385 1.55805 0
M  V30 6859 H 666.589 3.02865 -0.225028 0
M  V30 6860 H 664.174 1.48358 -0.176126 0
M  V30 6861 H 666.056 3.62122 2.15512 0
M  V30 6862 H 664.731 2.42539 2.14375 0
M  V30 6863 H 663.638 3.73385 0.231183 0
M  V30 6864 H 664.971 4.91134 0.323814 0
M  V30 6865 N 666.623 0.143563 1.56945 0
M  V30 6866 C 667.573 -0.809115 2.1316 0
M  V30 6867 C 668.557 -1.21176 1.05855 0
M  V30 6868 O 669.749 -1.17875 1.3204 0
M  V30 6869 C 666.878 -2.04957 2.75405 0
M  V30 6870 C 665.964 -1.67018 3.89828 0
M  V30 6871 N 666.355 -0.998822 4.9584 0
M  V30 6872 C 664.653 -1.96313 4.00471 0
M  V30 6873 C 665.354 -0.816217 5.75945 0
M  V30 6874 N 664.33 -1.349 5.26596 0
M  V30 6875 H 668.132 -0.286919 2.92496 0
M  V30 6876 H 665.646 -0.0580948 1.62296 0
M  V30 6877 H 667.643 -2.74201 3.14037 0
M  V30 6878 H 666.303 -2.57697 1.97541 0
M  V30 6879 H 667.314 -0.659975 5.13678 0
M  V30 6880 H 663.991 -2.50927 3.33679 0
M  V30 6881 H 665.381 -0.287353 6.71285 0
M  V30 6882 N 668.101 -1.57061 -0.130224 0
M  V30 6883 C 669.35 -1.83446 -0.838488 0
M  V30 6884 C 669.663 -0.727468 -1.81569 0
M  V30 6885 O 670.869 -0.877394 -2.56932 0
M  V30 6886 C 669.325 -3.25201 -1.54182 0
M  V30 6887 C 668.933 -4.4388 -0.606178 0
M  V30 6888 C 670.677 -3.60844 -2.23588 0
M  V30 6889 C 668.584 -5.76661 -1.31209 0
M  V30 6890 H 667.514 -0.684185 -0.316871 0
M  V30 6891 H 670.165 -1.83273 -0.0912059 0
M  V30 6892 H 668.547 -3.1981 -2.33533 0
M  V30 6893 H 669.721 -4.60545 0.153308 0
M  V30 6894 H 668.036 -4.16395 -0.0196705 0
M  V30 6895 H 670.633 -4.57313 -2.77072 0
M  V30 6896 H 670.976 -2.87724 -3.00867 0
M  V30 6897 H 671.509 -3.67971 -1.51137 0
M  V30 6898 H 668.248 -6.52922 -0.580823 0
M  V30 6899 H 667.768 -5.63902 -2.04387 0
M  V30 6900 H 669.447 -6.20035 -1.8484 0
M  V30 6901 N 669.579 0.400081 -1.52437 0
M  V30 6902 C 670.809 1.16598 -1.70553 0
M  V30 6903 C 671.217 1.8451 -0.418665 0
M  V30 6904 O 670.56 1.73069 0.615855 0
M  V30 6905 C 670.622 2.26517 -2.7916 0
M  V30 6906 C 670.286 1.78666 -4.20628 0
M  V30 6907 C 671.283 1.26946 -5.04163 0
M  V30 6908 C 668.968 1.85225 -4.66902 0
M  V30 6909 C 670.962 0.824187 -6.32049 0
M  V30 6910 C 668.649 1.40309 -5.94774 0
M  V30 6911 C 669.647 0.889922 -6.77178 0
M  V30 6912 O 669.335 0.447281 -8.02655 0
M  V30 6913 H 669.067 0.356023 -0.574651 0
M  V30 6914 H 671.621 0.475598 -1.99818 0
M  V30 6915 H 669.851 2.98946 -2.45292 0
M  V30 6916 H 671.54 2.88237 -2.85787 0
M  V30 6917 H 672.306 1.21244 -4.69601 0
M  V30 6918 H 668.185 2.24111 -4.02859 0
M  V30 6919 H 671.729 0.422958 -6.96317 0
M  V30 6920 H 667.626 1.45693 -6.28843 0
M  V30 6921 H 668.394 0.569768 -8.16514 0
M  V30 6922 N 671.057 1.43213 0.657864 0
M  V30 6923 C 672.473 1.26511 0.972992 0
M  V30 6924 C 672.673 0.181477 2.00681 0
M  V30 6925 O 671.729 -0.441649 2.48608 0
M  V30 6926 C 673.042 2.62784 1.46168 0
M  V30 6927 C 674.59 2.70278 1.57857 0
M  V30 6928 C 675.065 4.06958 2.10117 0
M  V30 6929 N 676.556 4.08999 2.17426 0
M  V30 6930 C 677.291 5.11585 2.58975 0
M  V30 6931 N 676.787 6.24548 2.99853 0
M  V30 6932 N 678.58 4.9894 2.58873 0
M  V30 6933 H 670.731 2.12384 -0.0263129 0
M  V30 6934 H 672.994 0.946638 0.0507992 0
M  V30 6935 H 672.7 3.43022 0.776474 0
M  V30 6936 H 672.574 2.87863 2.43751 0
M  V30 6937 H 674.961 1.90376 2.25479 0
M  V30 6938 H 675.042 2.4897 0.587179 0
M  V30 6939 H 674.686 4.87325 1.43098 0
M  V30 6940 H 674.616 4.25628 3.10078 0
M  V30 6941 H 677.107 3.27457 1.88627 0
M  V30 6942 H 677.42 6.98661 3.30292 0
M  V30 6943 H 675.765 6.28027 2.97669 0
M  V30 6944 H 678.956 4.09757 2.26311 0
M  V30 6945 H 679.129 5.79019 2.90932 0
M  V30 6946 N 672.536 -0.895792 1.29666 0
M  V30 6947 C 673.466 -2.01673 1.17688 0
M  V30 6948 C 674.447 -1.69955 0.0701317 0
M  V30 6949 O 675.632 -1.9258 0.250289 0
M  V30 6950 C 672.762 -3.36568 0.856681 0
M  V30 6951 C 671.716 -3.82509 1.92017 0
M  V30 6952 C 671.042 -5.14574 1.4532 0
M  V30 6953 C 672.342 -4.02409 3.32963 0
M  V30 6954 H 674.036 -2.11953 2.11463 0
M  V30 6955 H 671.582 -1.01839 1.01807 0
M  V30 6956 H 673.535 -4.14498 0.759577 0
M  V30 6957 H 672.259 -3.26391 -0.116763 0
M  V30 6958 H 670.918 -3.068 2.00673 0
M  V30 6959 H 670.566 -5.00815 0.468325 0
M  V30 6960 H 670.266 -5.46283 2.16447 0
M  V30 6961 H 671.79 -5.9504 1.36968 0
M  V30 6962 H 673.204 -4.70808 3.27127 0
M  V30 6963 H 671.601 -4.45478 4.02082 0
M  V30 6964 H 672.671 -3.06616 3.75652 0
M  V30 6965 N 674.014 -1.12206 -1.10668 0
M  V30 6966 C 674.924 -0.800686 -2.20513 0
M  V30 6967 C 675.94 0.209512 -1.72734 0
M  V30 6968 O 677.116 0.043705 -2.01353 0
M  V30 6969 C 674.181 -0.257353 -3.45744 0
M  V30 6970 C 673.242 -1.32718 -4.0827 0
M  V30 6971 C 672.475 -0.809674 -5.27522 0
M  V30 6972 O 672.698 0.35742 -5.69279 0
M  V30 6973 O 671.632 -1.57816 -5.80842 0
M  V30 6974 H 675.458 -1.71807 -2.50432 0
M  V30 6975 H 673.043 -0.898546 -1.19359 0
M  V30 6976 H 674.925 0.0408849 -4.2138 0
M  V30 6977 H 673.6 0.632627 -3.17458 0
M  V30 6978 H 672.507 -1.67855 -3.34329 0
M  V30 6979 H 673.84 -2.19083 -4.40753 0
M  V30 6980 N 675.492 1.28418 -0.913599 0
M  V30 6981 C 676.402 2.31043 -0.406965 0
M  V30 6982 C 677.418 1.66501 0.505298 0
M  V30 6983 O 678.594 1.97558 0.391522 0
M  V30 6984 C 675.659 3.4498 0.344901 0
M  V30 6985 C 674.72 4.25078 -0.600563 0
M  V30 6986 C 673.953 5.33575 0.115516 0
M  V30 6987 O 674.176 5.54503 1.33727 0
M  V30 6988 O 673.11 5.9939 -0.549095 0
M  V30 6989 H 676.936 2.76387 -1.25873 0
M  V30 6990 H 674.521 1.33109 -0.678415 0
M  V30 6991 H 676.403 4.14314 0.769542 0
M  V30 6992 H 675.078 3.01719 1.1725 0
M  V30 6993 H 673.985 3.58334 -1.0746 0
M  V30 6994 H 675.318 4.72018 -1.39497 0
M  V30 6995 N 676.97 0.677563 1.42291 0
M  V30 6996 C 678.216 0.201272 2.01799 0
M  V30 6997 C 678.549 -1.19004 1.53465 0
M  V30 6998 O 677.824 -1.79953 0.738039 0
M  V30 6999 C 678.107 0.238968 3.59306 0
M  V30 7000 C 677.96 1.66594 4.17812 0
M  V30 7001 C 679.279 -0.411287 4.38174 0
M  V30 7002 H 676.398 0.0746114 0.733214 0
M  V30 7003 H 679.04 0.862872 1.69276 0
M  V30 7004 H 677.19 -0.324368 3.87144 0
M  V30 7005 H 678.862 2.28173 4.00917 0
M  V30 7006 H 677.105 2.20576 3.73536 0
M  V30 7007 H 677.776 1.64398 5.26951 0
M  V30 7008 H 680.252 0.0682804 4.16044 0
M  V30 7009 H 679.128 -0.354286 5.47755 0
M  V30 7010 H 679.389 -1.4893 4.1626 0
M  V30 7011 N 678.448 -1.51871 0.421078 0
M  V30 7012 C 679.676 -2.06356 -0.14994 0
M  V30 7013 C 680.091 -1.29006 -1.37851 0
M  V30 7014 O 679.448 -0.345139 -1.79207 0
M  V30 7015 C 679.499 -3.58185 -0.488454 0
M  V30 7016 O 679.22 -4.32611 0.691341 0
M  V30 7017 C 680.721 -4.29129 -1.11191 0
M  V30 7018 H 677.941 -0.67083 -0.0151186 0
M  V30 7019 H 680.485 -1.95638 0.595476 0
M  V30 7020 H 678.64 -3.68871 -1.18376 0
M  V30 7021 H 679.054 -5.22927 0.405906 0
M  V30 7022 H 680.528 -5.36501 -1.29889 0
M  V30 7023 H 681.005 -3.86371 -2.0884 0
M  V30 7024 H 681.611 -4.22843 -0.456458 0
M  V30 7025 N 679.926 -0.151884 -1.56866 0
M  V30 7026 C 681.174 0.497021 -1.95893 0
M  V30 7027 C 681.495 1.65078 -1.03799 0
M  V30 7028 O 680.765 1.95642 -0.10049 0
M  V30 7029 H 679.345 0.186603 -0.723318 0
M  V30 7030 H 682.007 -0.228525 -1.93556 0
M  V30 7031 H 681.103 0.869933 -2.99731 0
M  V30 7032 N 681.404 1.57128 0.121893 0
M  V30 7033 C 682.632 1.88883 0.844451 0
M  V30 7034 C 683.047 0.742824 1.73573 0
M  V30 7035 O 682.404 -0.286475 1.80238 0
M  V30 7036 C 682.455 3.20076 1.68029 0
M  V30 7037 O 682.176 4.30264 0.824898 0
M  V30 7038 C 683.677 3.65515 2.50826 0
M  V30 7039 H 680.897 0.62549 0.242907 0
M  V30 7040 H 683.441 2.04219 0.107151 0
M  V30 7041 H 681.596 3.06418 2.37038 0
M  V30 7042 H 682.01 5.05439 1.40113 0
M  V30 7043 H 683.484 4.60081 3.05008 0
M  V30 7044 H 683.961 2.92029 3.28048 0
M  V30 7045 H 684.567 3.81952 1.87064 0
M  V30 7046 N 682.882 -0.391992 1.52647 0
M  V30 7047 C 684.298 -0.731848 1.41831 0
M  V30 7048 C 684.498 -1.9423 0.536361 0
M  V30 7049 O 683.554 -2.52499 0.00866571 0
M  V30 7050 C 684.867 -0.969743 2.84634 0
M  V30 7051 C 686.415 -1.0714 2.94092 0
M  V30 7052 C 686.89 -1.34195 4.37899 0
M  V30 7053 N 688.381 -1.41023 4.41211 0
M  V30 7054 C 689.116 -1.63616 5.49561 0
M  V30 7055 N 688.612 -1.83699 6.68002 0
M  V30 7056 N 690.405 -1.65771 5.371 0
M  V30 7057 H 682.556 0.404547 2.08512 0
M  V30 7058 H 684.819 0.11879 0.940528 0
M  V30 7059 H 684.525 -0.152465 3.51369 0
M  V30 7060 H 684.399 -1.88523 3.26709 0
M  V30 7061 H 686.786 -1.87925 2.27526 0
M  V30 7062 H 686.867 -0.133887 2.55449 0
M  V30 7063 H 686.511 -0.539207 5.0503 0
M  V30 7064 H 686.441 -2.29226 4.74092 0
M  V30 7065 H 688.932 -1.27223 3.55841 0
M  V30 7066 H 689.245 -2.00437 7.46354 0
M  V30 7067 H 687.59 -1.8093 6.71036 0
M  V30 7068 H 690.781 -1.4963 4.43541 0
M  V30 7069 H 690.954 -1.83038 6.21612 0
M  V30 7070 N 684.36 -1.4356 -0.65026 0
M  V30 7071 C 685.608 -1.45046 -1.40734 0
M  V30 7072 C 685.929 -0.0769822 -1.94848 0
M  V30 7073 O 685.199 0.888098 -1.74613 0
M  V30 7074 H 683.779 -0.534034 -0.522318 0
M  V30 7075 H 686.441 -1.79186 -0.766703 0
M  V30 7076 H 685.537 -2.16476 -2.24822 0
M  V30 7077 N 685.838 0.888903 -1.30139 0
M  V30 7078 C 687.254 1.17153 -1.08385 0
M  V30 7079 C 687.454 2.0088 0.157925 0
M  V30 7080 O 686.51 2.37668 0.852652 0
M  V30 7081 C 687.823 1.882 -2.34523 0
M  V30 7082 C 689.371 2.00981 -2.39949 0
M  V30 7083 C 689.846 2.75441 -3.65918 0
M  V30 7084 N 691.337 2.82989 -3.66704 0
M  V30 7085 C 692.072 3.41167 -4.60861 0
M  V30 7086 N 691.568 4.00425 -5.6536 0
M  V30 7087 N 693.361 3.38944 -4.48412 0
M  V30 7088 H 685.512 0.33053 -2.09812 0
M  V30 7089 H 687.775 0.208964 -0.924683 0
M  V30 7090 H 687.481 1.34119 -3.25123 0
M  V30 7091 H 687.355 2.88609 -2.42868 0
M  V30 7092 H 689.742 2.54234 -1.4983 0
M  V30 7093 H 689.823 0.996725 -2.35582 0
M  V30 7094 H 689.467 2.22861 -4.56394 0
M  V30 7095 H 689.397 3.77118 -3.67546 0
M  V30 7096 H 691.888 2.40912 -2.91153 0
M  V30 7097 H 692.201 4.42871 -6.33313 0
M  V30 7098 H 690.546 3.98856 -5.69157 0
M  V30 7099 H 693.737 2.91875 -3.6596 0
M  V30 7100 H 693.91 3.83989 -5.21974 0
M  V30 7101 N 687.317 1.12792 1.10072 0
M  V30 7102 C 688.249 0.757003 2.16338 0
M  V30 7103 C 689.262 -0.218144 1.61332 0
M  V30 7104 O 690.451 0.0010727 1.785 0
M  V30 7105 C 687.551 0.100303 3.38752 0
M  V30 7106 C 686.724 1.10586 4.2319 0
M  V30 7107 C 685.783 0.47609 5.24042 0
M  V30 7108 O 684.809 1.13418 5.57786 0
M  V30 7109 N 686.011 -0.754823 5.75572 0
M  V30 7110 H 688.776 1.6714 2.48766 0
M  V30 7111 H 686.337 1.02003 1.25726 0
M  V30 7112 H 688.329 -0.333092 4.03327 0
M  V30 7113 H 686.899 -0.716915 3.04268 0
M  V30 7114 H 686.119 1.71677 3.54853 0
M  V30 7115 H 687.407 1.78571 4.76435 0
M  V30 7116 H 686.805 -1.30838 5.50362 0
M  V30 7117 H 685.362 -1.13098 6.41913 0
M  V30 7118 N 688.795 -1.27931 0.920396 0
M  V30 7119 C 689.743 -2.29061 0.404191 0
M  V30 7120 C 690.737 -1.61615 -0.507634 0
M  V30 7121 O 691.943 -1.75765 -0.388144 0
M  V30 7122 H 688.318 -0.743594 0.112123 0
M  V30 7123 H 690.289 -2.70021 1.27008 0
M  V30 7124 C 689.038 -3.46088 -0.334466 0
M  V30 7125 H 688.361 -3.98194 0.35797 0
M  V30 7126 H 689.801 -4.18829 -0.660196 0
M  V30 7127 C 688.26 -2.99396 -1.54479 0
M  V30 7128 O 688.79 -3.02439 -2.64374 0
M  V30 7129 N 686.996 -2.54978 -1.39408 0
M  V30 7130 H 686.543 -2.52701 -0.500009 0
M  V30 7131 H 686.501 -2.24098 -2.20516 0
M  V30 7132 N 690.273 -0.685099 -1.4193 0
M  V30 7133 C 691.22 -0.0131869 -2.30796 0
M  V30 7134 C 692.19 0.782129 -1.46533 0
M  V30 7135 O 693.375 0.75229 -1.75343 0
M  V30 7136 C 690.515 0.924768 -3.32479 0
M  V30 7137 C 689.628 0.122181 -4.31827 0
M  V30 7138 C 688.763 1.05682 -5.20581 0
M  V30 7139 C 687.802 0.246526 -6.11603 0
M  V30 7140 N 686.939 1.13442 -6.92875 0
M  V30 7141 H 691.779 -0.776789 -2.87698 0
M  V30 7142 H 689.316 -0.394791 -1.41703 0
M  V30 7143 H 691.274 1.48251 -3.89971 0
M  V30 7144 H 689.904 1.65488 -2.77152 0
M  V30 7145 H 688.956 -0.552335 -3.76369 0
M  V30 7146 H 690.268 -0.506473 -4.96222 0
M  V30 7147 H 689.422 1.68415 -5.82856 0
M  V30 7148 H 688.161 1.71935 -4.56388 0
M  V30 7149 H 687.166 -0.393944 -5.48387 0
M  V30 7150 H 688.391 -0.412053 -6.77849 0
M  V30 7151 H 686.337 1.78316 -6.313 0
M  V30 7152 H 686.254 0.561089 -7.53915 0
M  V30 7153 H 687.522 1.74889 -7.59628 0
M  V30 7154 N 691.751 1.51645 -0.429126 0
M  V30 7155 C 692.714 2.26116 0.374726 0
M  V30 7156 C 693.714 1.29242 0.956714 0
M  V30 7157 O 694.904 1.53022 0.832452 0
M  V30 7158 C 692.036 3.04669 1.52937 0
M  V30 7159 H 693.229 2.9861 -0.277818 0
M  V30 7160 H 690.782 1.55236 -0.182097 0
M  V30 7161 H 691.517 2.36571 2.21821 0
M  V30 7162 H 691.302 3.75814 1.11833 0
M  V30 7163 H 692.792 3.61102 2.09751 0
M  V30 7164 N 693.229 0.160201 1.56784 0
M  V30 7165 C 694.139 -0.787167 2.21 0
M  V30 7166 C 695.155 -1.26167 1.19825 0
M  V30 7167 O 696.331 -1.31611 1.52448 0
M  V30 7168 C 693.396 -2.00364 2.8294 0
M  V30 7169 C 692.457 -1.5771 3.99282 0
M  V30 7170 C 691.69 -2.73558 4.58259 0
M  V30 7171 O 691.913 -3.90129 4.16119 0
M  V30 7172 O 690.847 -2.48271 5.48311 0
M  V30 7173 H 694.673 -0.270462 3.02493 0
M  V30 7174 H 692.258 -0.0674666 1.49248 0
M  V30 7175 H 694.14 -2.71529 3.22257 0
M  V30 7176 H 692.815 -2.50961 2.04451 0
M  V30 7177 H 691.722 -0.835274 3.64656 0
M  V30 7178 H 693.055 -1.11815 4.79331 0
M  V30 7179 N 694.707 -1.5719 -0.113559 0
M  V30 7180 C 695.956 -1.84325 -0.818984 0
M  V30 7181 C 696.269 -0.746685 -1.80787 0
M  V30 7182 O 697.475 -0.904596 -2.55987 0
M  V30 7183 C 695.931 -3.26818 -1.50724 0
M  V30 7184 C 695.539 -4.44498 -0.559065 0
M  V30 7185 C 697.283 -3.63196 -2.19748 0
M  V30 7186 C 695.19 -5.7802 -1.25086 0
M  V30 7187 H 694.12 -0.687507 -0.309596 0
M  V30 7188 H 696.771 -1.8336 -0.0717621 0
M  V30 7189 H 695.153 -3.22269 -2.30128 0
M  V30 7190 H 696.327 -4.60356 0.202146 0
M  V30 7191 H 694.642 -4.16393 0.024495 0
M  V30 7192 H 697.239 -4.60226 -2.72206 0
M  V30 7193 H 697.582 -2.90899 -2.97798 0
M  V30 7194 H 698.115 -3.69553 -1.47226 0
M  V30 7195 H 694.854 -6.53501 -0.511539 0
M  V30 7196 H 694.374 -5.66038 -1.98395 0
M  V30 7197 H 696.053 -6.2196 -1.78253 0
M  V30 7198 N 696.185 0.383891 -1.52853 0
M  V30 7199 C 697.133 1.48965 -1.7864 0
M  V30 7200 C 698.127 1.56242 -0.654577 0
M  V30 7201 O 699.333 1.59347 -0.83716 0
M  V30 7202 H 695.708 0.495892 -0.565328 0
M  V30 7203 H 697.679 1.24411 -2.71228 0
M  V30 7204 C 696.428 2.86036 -1.97683 0
M  V30 7205 H 695.751 2.81188 -2.84206 0
M  V30 7206 H 697.191 3.62632 -2.19713 0
M  V30 7207 C 695.65 3.28428 -0.750776 0
M  V30 7208 O 696.18 4.0164 0.0693491 0
M  V30 7209 N 694.386 2.84765 -0.579427 0
M  V30 7210 H 693.933 2.25353 -1.24795 0
M  V30 7211 H 693.891 3.13486 0.239544 0
M  V30 7212 N 697.663 1.43903 0.642637 0
M  V30 7213 C 699.074 1.40975 1.22404 0
M  V30 7214 C 699.425 0.1192 1.95838 0
M  V30 7215 O 698.55 -0.780939 2.01818 0
M  V30 7216 C 699.145 2.5538 2.22636 0
M  V30 7217 C 697.704 2.55684 2.76229 0
M  V30 7218 C 696.851 2.32556 1.51039 0
M  V30 7219 H 699.802 1.5265 0.434006 0
M  V30 7220 H 699.823 2.27474 3.05017 0
M  V30 7221 H 699.335 3.49294 1.69161 0
M  V30 7222 H 697.436 1.65679 3.33738 0
M  V30 7223 H 697.549 3.53799 3.23053 0
M  V30 7224 H 695.913 1.81427 1.78764 0
M  V30 7225 H 696.696 3.28569 0.99484 0
M  V30 7226 N 699.141 -0.881989 1.30609 0
M  V30 7227 C 700.557 -1.16576 1.09005 0
M  V30 7228 C 700.757 -2.00961 -0.14727 0
M  V30 7229 O 699.813 -2.38117 -0.840036 0
M  V30 7230 C 701.126 -1.86954 2.35518 0
M  V30 7231 C 702.674 -1.99706 2.41011 0
M  V30 7232 C 703.149 -2.73497 3.67374 0
M  V30 7233 N 704.64 -2.8104 3.68199 0
M  V30 7234 C 705.375 -3.38718 4.62664 0
M  V30 7235 N 704.871 -3.97421 5.67475 0
M  V30 7236 N 706.664 -3.36561 4.50203 0
M  V30 7237 H 698.815 -0.319398 2.09985 0
M  V30 7238 H 701.078 -0.204058 0.925778 0
M  V30 7239 H 700.784 -1.32393 3.2583 0
M  V30 7240 H 700.658 -2.87317 2.44395 0
M  V30 7241 H 703.045 -2.53436 1.51176 0
M  V30 7242 H 703.126 -0.984218 2.36108 0
M  V30 7243 H 702.77 -2.20438 4.57569 0
M  V30 7244 H 702.7 -3.75163 3.6954 0
M  V30 7245 H 705.191 -2.39365 2.92426 0
M  V30 7246 H 705.504 -4.39507 6.35652 0
M  V30 7247 H 703.849 -3.95832 5.71264 0
M  V30 7248 H 707.04 -2.8993 3.67503 0
M  V30 7249 H 707.213 -3.81215 5.24003 0
M  V30 7250 N 700.619 -1.13374 -1.09472 0
M  V30 7251 C 701.847 -0.918351 -1.85402 0
M  V30 7252 C 702.262 0.53281 -1.81126 0
M  V30 7253 O 701.619 1.36879 -1.20708 0
M  V30 7254 C 701.67 -1.39743 -3.33398 0
M  V30 7255 O 701.391 -2.79172 -3.37631 0
M  V30 7256 C 702.892 -1.22042 -4.2617 0
M  V30 7257 H 700.112 -0.327511 -0.585643 0
M  V30 7258 H 702.656 -1.50617 -1.38328 0
M  V30 7259 H 700.811 -0.852619 -3.77901 0
M  V30 7260 H 701.225 -3.00428 -4.29934 0
M  V30 7261 H 702.699 -1.60438 -5.2817 0
M  V30 7262 H 703.176 -0.162047 -4.38901 0
M  V30 7263 H 703.782 -1.75323 -3.87482 0
M  V30 7264 N 702.098 1.27442 -0.927168 0
M  V30 7265 C 703.046 2.28844 -0.416333 0
M  V30 7266 C 704.04 1.61882 0.499057 0
M  V30 7267 O 705.246 1.75969 0.378817 0
M  V30 7268 H 701.621 0.742989 -0.116065 0
M  V30 7269 H 703.592 2.69344 -1.28438 0
M  V30 7270 C 702.341 3.4626 0.316107 0
M  V30 7271 H 701.664 3.97999 -0.379082 0
M  V30 7272 H 703.104 4.19173 0.637975 0
M  V30 7273 C 701.563 3.00211 1.5289 0
M  V30 7274 O 702.093 3.03837 2.62766 0
M  V30 7275 N 700.299 2.55713 1.38054 0
M  V30 7276 H 699.846 2.52962 0.4866 0
M  V30 7277 H 699.804 2.25264 2.19325 0
M  V30 7278 N 703.576 0.692616 1.41565 0
M  V30 7279 C 704.824 0.221896 2.00878 0
M  V30 7280 C 705.145 -1.18164 1.5512 0
M  V30 7281 O 704.415 -1.79679 0.78054 0
M  V30 7282 H 702.995 0.0790463 0.742806 0
M  V30 7283 H 705.657 0.893115 1.73232 0
M  V30 7284 H 704.753 0.23702 3.11199 0
M  V30 7285 N 705.054 -1.51416 0.437162 0
M  V30 7286 C 706.331 -1.94682 -0.189292 0
M  V30 7287 C 706.711 -1.37581 -1.60108 0
M  V30 7288 O 706.059 -0.562815 -2.2146 0
M  V30 7289 C 706.269 -3.48599 -0.167201 0
M  V30 7290 C 707.617 -4.2296 -0.372856 0
M  V30 7291 O 708.641 -3.55354 -0.245323 0
M  V30 7292 O 707.5 -5.42895 -0.626693 0
M  V30 7293 H 704.594 -0.816708 -0.130063 0
M  V30 7294 H 707.14 -1.62316 0.495128 0
M  V30 7295 H 705.912 -3.82616 0.81981 0
M  V30 7296 H 705.535 -3.87406 -0.894537 0
M  V30 7297 N 706.532 -0.168513 -1.56696 0
M  V30 7298 C 707.948 0.187686 -1.58493 0
M  V30 7299 C 708.148 1.63063 -1.18375 0
M  V30 7300 O 707.204 2.36142 -0.894042 0
M  V30 7301 C 708.517 -0.0905858 -3.00564 0
M  V30 7302 C 710.065 -0.028575 -3.12987 0
M  V30 7303 C 710.54 -0.279799 -4.57145 0
M  V30 7304 N 712.031 -0.227476 -4.62641 0
M  V30 7305 C 712.766 -0.396073 -5.7203 0
M  V30 7306 N 712.262 -0.623572 -6.89988 0
M  V30 7307 N 714.055 -0.332173 -5.61118 0
M  V30 7308 H 706.206 -1.11042 -1.81062 0
M  V30 7309 H 708.469 -0.441235 -0.839056 0
M  V30 7310 H 708.175 -1.09006 -3.34381 0
M  V30 7311 H 708.049 0.619078 -3.72085 0
M  V30 7312 H 710.436 0.961471 -2.78998 0
M  V30 7313 H 710.517 -0.770905 -2.43907 0
M  V30 7314 H 710.161 -1.26704 -4.91842 0
M  V30 7315 H 710.091 0.48311 -5.24379 0
M  V30 7316 H 712.582 -0.0571723 -3.77857 0
M  V30 7317 H 712.895 -0.741745 -7.69232 0
M  V30 7318 H 711.24 -0.660153 -6.91858 0
M  V30 7319 H 714.431 -0.155051 -4.67843 0
M  V30 7320 H 714.604 -0.466994 -6.46315 0
M  V30 7321 N 708.01 1.57248 0.105221 0
M  V30 7322 C 708.973 2.00388 1.11252 0
M  V30 7323 C 709.973 0.89594 1.33527 0
M  V30 7324 O 711.163 1.16166 1.29811 0
M  V30 7325 C 708.295 2.35589 2.46395 0
M  V30 7326 H 709.488 2.90591 0.741424 0
M  V30 7327 H 707.041 1.52332 0.349956 0
M  V30 7328 H 707.776 1.4831 2.884 0
M  V30 7329 H 707.561 3.16408 2.31578 0
M  V30 7330 H 709.051 2.69658 3.18864 0
M  V30 7331 N 709.488 -0.375779 1.53054 0
M  V30 7332 C 710.451 -1.44254 1.7811 0
M  V30 7333 C 711.451 -1.47018 0.651328 0
M  V30 7334 O 712.641 -1.47957 0.919472 0
M  V30 7335 C 709.773 -2.8345 1.89391 0
M  V30 7336 H 710.966 -1.23316 2.73374 0
M  V30 7337 H 708.519 -0.608312 1.43977 0
M  V30 7338 H 709.254 -3.09716 0.961589 0
M  V30 7339 H 709.039 -2.82844 2.71555 0
M  V30 7340 H 710.529 -3.60722 2.10404 0
M  V30 7341 N 710.966 -1.44241 -0.634997 0
M  V30 7342 C 712.206 -1.48339 -1.40623 0
M  V30 7343 C 712.57 -0.111479 -1.91676 0
M  V30 7344 O 713.771 -0.0271345 -2.68786 0
M  V30 7345 C 712.042 -2.51122 -2.54308 0
M  V30 7346 S 713.601 -2.74237 -3.42548 0
M  V30 7347 H 710.419 -0.524715 -0.479787 0
M  V30 7348 H 713.021 -1.81138 -0.735489 0
M  V30 7349 H 711.725 -3.49511 -2.15106 0
M  V30 7350 H 711.256 -2.19883 -3.26213 0
M  V30 7351 H 713.271 -2.0554 -4.51628 0
M  V30 7352 N 712.444 0.87505 -1.31075 0
M  V30 7353 C 713.376 1.98773 -1.14114 0
M  V30 7354 C 714.389 1.62595 -0.0816119 0
M  V30 7355 O 715.578 1.75449 -0.32861 0
M  V30 7356 C 712.678 3.31159 -0.720224 0
M  V30 7357 C 711.851 3.9571 -1.86366 0
M  V30 7358 C 710.91 5.06407 -1.42965 0
M  V30 7359 O 709.936 5.27501 -2.13848 0
M  V30 7360 N 711.138 5.79649 -0.314194 0
M  V30 7361 H 713.903 2.1387 -2.09951 0
M  V30 7362 H 711.464 1.04873 -1.23342 0
M  V30 7363 H 713.456 4.0259 -0.412687 0
M  V30 7364 H 712.026 3.12257 0.146396 0
M  V30 7365 H 711.246 3.17324 -2.33879 0
M  V30 7366 H 712.534 4.35576 -2.62966 0
M  V30 7367 H 711.932 5.65025 0.276228 0
M  V30 7368 H 710.489 6.51766 -0.0661641 0
M  V30 7369 N 713.922 1.13953 1.08869 0
M  V30 7370 C 715.15 0.92817 1.84912 0
M  V30 7371 C 715.565 -0.523197 1.81406 0
M  V30 7372 O 714.922 -1.36237 1.21432 0
M  V30 7373 C 714.973 1.41509 3.32652 0
M  V30 7374 O 714.694 2.80959 3.36145 0
M  V30 7375 C 716.195 1.243 4.25517 0
M  V30 7376 H 713.415 0.330612 0.583898 0
M  V30 7377 H 715.959 1.51349 1.37527 0
M  V30 7378 H 714.114 0.872648 3.77444 0
M  V30 7379 H 714.528 3.02704 4.28335 0
M  V30 7380 H 716.002 1.63237 5.27312 0
M  V30 7381 H 716.479 0.18532 4.38809 0
M  V30 7382 H 717.085 1.77375 3.86546 0
M  V30 7383 N 715.4 -1.26948 0.933913 0
M  V30 7384 C 716.816 -1.46419 0.635103 0
M  V30 7385 C 717.016 -1.84336 -0.813785 0
M  V30 7386 O 716.072 -1.96061 -1.59111 0
M  V30 7387 C 717.385 -2.55206 1.5903 0
M  V30 7388 C 718.933 -2.69062 1.5992 0
M  V30 7389 C 719.408 -3.81013 2.54152 0
M  V30 7390 N 720.899 -3.88395 2.52395 0
M  V30 7391 C 721.634 -4.74454 3.21996 0
M  V30 7392 N 721.13 -5.64954 4.00997 0
M  V30 7393 N 722.923 -4.68237 3.10983 0
M  V30 7394 H 715.074 -1.00622 1.87053 0
M  V30 7395 H 717.337 -0.503189 0.803433 0
M  V30 7396 H 717.043 -2.34153 2.62422 0
M  V30 7397 H 716.917 -3.52719 1.33677 0
M  V30 7398 H 719.304 -2.89492 0.572569 0
M  V30 7399 H 719.385 -1.72016 1.89325 0
M  V30 7400 H 719.029 -3.61336 3.5693 0
M  V30 7401 H 718.959 -4.77499 2.22041 0
M  V30 7402 H 721.45 -3.23687 1.95025 0
M  V30 7403 H 721.763 -6.27496 4.51074 0
M  V30 7404 H 720.108 -5.6473 4.05099 0
M  V30 7405 H 723.299 -3.96535 2.48753 0
M  V30 7406 H 723.472 -5.35087 3.65494 0
M  V30 7407 N 716.879 -0.700114 -1.41195 0
M  V30 7408 C 718.107 -0.242179 -2.05478 0
M  V30 7409 C 718.522 1.11029 -1.52702 0
M  V30 7410 O 717.879 1.69473 -0.677127 0
M  V30 7411 C 717.93 -0.196271 -3.60967 0
M  V30 7412 O 717.651 -1.49532 -4.11791 0
M  V30 7413 C 719.152 0.282102 -4.42401 0
M  V30 7414 H 716.372 -0.111749 -0.661629 0
M  V30 7415 H 718.916 -0.953975 -1.80885 0
M  V30 7416 H 717.071 0.46638 -3.84582 0
M  V30 7417 H 717.485 -1.38545 -5.05871 0
M  V30 7418 H 718.959 0.263093 -5.51373 0
M  V30 7419 H 719.436 1.32174 -4.1884 0
M  V30 7420 H 720.042 -0.349712 -4.2386 0
M  V30 7421 N 718.357 1.51182 -0.445186 0
M  V30 7422 C 719.287 2.30821 0.352686 0
M  V30 7423 C 720.268 1.36576 1.01395 0
M  V30 7424 O 721.453 1.65497 1.01609 0
M  V30 7425 C 718.583 3.15593 1.44976 0
M  V30 7426 C 717.537 4.1818 0.911553 0
M  V30 7427 C 716.863 4.91523 2.10497 0
M  V30 7428 C 718.163 5.22266 -0.059418 0
M  V30 7429 H 719.857 2.97771 -0.311936 0
M  V30 7430 H 717.403 1.43201 -0.151461 0
M  V30 7431 H 719.356 3.70091 2.01521 0
M  V30 7432 H 718.08 2.4648 2.14278 0
M  V30 7433 H 716.739 3.64746 0.368264 0
M  V30 7434 H 716.387 4.18906 2.78437 0
M  V30 7435 H 716.087 5.60898 1.7512 0
M  V30 7436 H 717.611 5.48847 2.6758 0
M  V30 7437 H 719.025 5.71789 0.415985 0
M  V30 7438 H 717.422 5.99213 -0.326152 0
M  V30 7439 H 718.492 4.7461 -0.993631 0
M  V30 7440 N 719.835 0.176821 1.56605 0
M  V30 7441 C 721.251 -0.179278 1.5859 0
M  V30 7442 C 721.451 -1.62433 1.19238 0
M  V30 7443 O 720.507 -2.35665 0.906552 0
M  V30 7444 C 721.82 0.106524 3.00511 0
M  V30 7445 C 723.368 0.0451731 3.12967 0
M  V30 7446 C 723.843 0.304038 4.5699 0
M  V30 7447 N 725.334 0.252008 4.62514 0
M  V30 7448 C 726.069 0.426404 5.71812 0
M  V30 7449 N 725.565 0.660155 6.89648 0
M  V30 7450 N 727.358 0.361926 5.60934 0
M  V30 7451 H 719.509 1.12001 1.8047 0
M  V30 7452 H 721.772 0.445679 0.836704 0
M  V30 7453 H 721.478 1.10778 3.33798 0
M  V30 7454 H 721.352 -0.599337 3.72408 0
M  V30 7455 H 723.739 -0.946662 2.79504 0
M  V30 7456 H 723.82 0.78383 2.43495 0
M  V30 7457 H 723.464 1.29311 4.91163 0
M  V30 7458 H 723.394 -0.455294 5.24628 0
M  V30 7459 H 725.885 0.0772102 3.77821 0
M  V30 7460 H 726.198 0.782529 7.68828 0
M  V30 7461 H 724.543 0.696835 6.91498 0
M  V30 7462 H 727.734 0.17986 4.67754 0
M  V30 7463 H 727.907 0.501263 6.46058 0
M  V30 7464 N 721.313 -1.57302 -0.09688 0
M  V30 7465 C 722.56 -1.85997 -0.800699 0
M  V30 7466 C 722.888 -0.765089 -1.7882 0
M  V30 7467 O 722.143 0.241492 -1.94204 0
M  V30 7468 C 722.442 -3.21272 -1.56586 0
M  V30 7469 C 722.108 -4.45104 -0.72064 0
M  V30 7470 C 720.77 -4.78723 -0.487632 0
M  V30 7471 C 723.122 -5.2103 -0.132948 0
M  V30 7472 C 720.45 -5.85697 0.34296 0
M  V30 7473 C 722.802 -6.28881 0.684957 0
M  V30 7474 C 721.466 -6.61017 0.928073 0
M  V30 7475 H 720.736 -0.680613 -0.292997 0
M  V30 7476 H 723.383 -1.91399 -0.0622474 0
M  V30 7477 H 721.688 -3.11547 -2.37583 0
M  V30 7478 H 723.385 -3.40702 -2.11478 0
M  V30 7479 H 719.975 -4.18777 -0.912359 0
M  V30 7480 H 724.159 -4.95392 -0.300132 0
M  V30 7481 H 719.415 -6.09008 0.540317 0
M  V30 7482 H 723.589 -6.86886 1.14721 0
M  V30 7483 H 721.216 -7.43738 1.57348 0
M  V30 7484 N 722.791 0.367657 -1.53252 0
M  V30 7485 C 724.037 1.11216 -1.69584 0
M  V30 7486 C 724.37 1.89026 -0.445269 0
M  V30 7487 O 723.645 1.86342 0.557404 0
M  V30 7488 C 723.928 2.07308 -2.94441 0
M  V30 7489 C 723.781 1.3312 -4.2965 0
M  V30 7490 C 725.1 3.07459 -3.14892 0
M  V30 7491 H 722.219 0.40294 -0.617096 0
M  V30 7492 H 724.861 0.393201 -1.85887 0
M  V30 7493 H 723.011 2.68617 -2.80673 0
M  V30 7494 H 724.683 0.746111 -4.55226 0
M  V30 7495 H 722.926 0.633051 -4.29156 0
M  V30 7496 H 723.597 2.03443 -5.13142 0
M  V30 7497 H 726.073 2.56252 -3.27832 0
M  V30 7498 H 724.949 3.71919 -4.03693 0
M  V30 7499 H 725.21 3.77514 -2.30077 0
M  V30 7500 N 724.269 1.44576 0.627338 0
M  V30 7501 C 725.494 1.51271 1.41887 0
M  V30 7502 C 725.919 0.139814 1.8758 0
M  V30 7503 O 725.277 -0.871746 1.58966 0
M  V30 7504 C 725.325 2.48529 2.61277 0
M  V30 7505 O 724.429 1.98944 3.61241 0
M  V30 7506 H 723.77 0.510668 0.424399 0
M  V30 7507 H 726.3 1.89746 0.765356 0
M  V30 7508 H 726.31 2.66689 3.08773 0
M  V30 7509 H 724.985 3.48249 2.27366 0
M  V30 7510 H 723.562 1.90568 3.20528 0
M  V30 7511 N 725.747 -0.868086 1.31537 0
M  V30 7512 C 726.695 -1.99688 1.1928 0
M  V30 7513 C 727.689 -1.69101 0.100656 0
M  V30 7514 O 728.895 -1.78073 0.262677 0
M  V30 7515 H 725.27 -0.655032 0.369374 0
M  V30 7516 H 727.241 -2.07157 2.14776 0
M  V30 7517 C 725.99 -3.35338 0.918892 0
M  V30 7518 H 725.313 -3.59396 1.75142 0
M  V30 7519 H 726.753 -4.14909 0.873311 0
M  V30 7520 C 725.212 -3.34769 -0.378366 0
M  V30 7521 O 725.742 -3.76716 -1.39456 0
M  V30 7522 N 723.948 -2.87895 -0.39557 0
M  V30 7523 H 723.495 -2.53954 0.431889 0
M  V30 7524 H 723.453 -2.87897 -1.26344 0
M  V30 7525 N 727.225 -1.14528 -1.08264 0
M  V30 7526 C 728.471 -0.91576 -1.80947 0
M  V30 7527 C 728.804 0.55623 -1.86064 0
M  V30 7528 O 728.079 1.41207 -1.33756 0
M  V30 7529 C 728.362 -1.51917 -3.26486 0
M  V30 7530 C 728.215 -3.06111 -3.2957 0
M  V30 7531 C 729.534 -1.19724 -4.23502 0
M  V30 7532 H 726.653 -0.334113 -0.656915 0
M  V30 7533 H 729.295 -1.41547 -1.26746 0
M  V30 7534 H 727.445 -1.0942 -3.72773 0
M  V30 7535 H 729.117 -3.57448 -2.91597 0
M  V30 7536 H 727.36 -3.40483 -2.688 0
M  V30 7537 H 728.031 -3.43438 -4.32151 0
M  V30 7538 H 730.507 -1.56467 -3.85561 0
M  V30 7539 H 729.383 -1.64575 -5.23647 0
M  V30 7540 H 729.644 -0.112771 -4.41956 0
M  V30 7541 N 728.703 1.26451 -0.940633 0
M  V30 7542 C 729.931 1.97868 -0.604642 0
M  V30 7543 C 730.346 1.70051 0.820251 0
M  V30 7544 O 729.703 0.96843 1.54686 0
M  V30 7545 C 729.754 3.51684 -0.836689 0
M  V30 7546 O 729.475 3.78533 -2.20554 0
M  V30 7547 C 730.976 4.40343 -0.511169 0
M  V30 7548 H 728.196 0.631105 -0.227919 0
M  V30 7549 H 730.74 1.60979 -1.26119 0
M  V30 7550 H 728.895 3.86736 -0.226759 0
M  V30 7551 H 729.309 4.73065 -2.26517 0
M  V30 7552 H 730.783 5.47229 -0.724157 0
M  V30 7553 H 731.26 4.35694 0.553815 0
M  V30 7554 H 731.866 4.10834 -1.0998 0
M  V30 7555 N 730.181 0.707592 1.40822 0
M  V30 7556 C 731.091 0.0507246 2.34545 0
M  V30 7557 C 732.107 -0.752727 1.56876 0
M  V30 7558 O 733.283 -0.687524 1.89302 0
M  V30 7559 C 730.348 -0.865731 3.35717 0
M  V30 7560 C 729.409 -0.0531313 4.29267 0
M  V30 7561 C 728.642 -0.925939 5.25606 0
M  V30 7562 O 728.865 -2.16531 5.27703 0
M  V30 7563 O 727.799 -0.369194 6.00767 0
M  V30 7564 H 731.625 0.823587 2.9232 0
M  V30 7565 H 729.21 0.46801 1.4188 0
M  V30 7566 H 731.092 -1.39091 3.97783 0
M  V30 7567 H 729.767 -1.61788 2.80368 0
M  V30 7568 H 728.674 0.516931 3.70511 0
M  V30 7569 H 730.007 0.660617 4.87747 0
M  V30 7570 N 731.66 -1.50943 0.453197 0
M  V30 7571 C 732.623 -2.26684 -0.338705 0
M  V30 7572 C 733.623 -1.30748 -0.936032 0
M  V30 7573 O 734.813 -1.54327 -0.808002 0
M  V30 7574 C 731.945 -3.07063 -1.48071 0
M  V30 7575 H 733.138 -2.98131 0.325289 0
M  V30 7576 H 730.691 -1.54926 0.206771 0
M  V30 7577 H 731.426 -2.4007 -2.18029 0
M  V30 7578 H 731.211 -3.77545 -1.0584 0
M  V30 7579 H 732.701 -3.64393 -2.0398 0
M  V30 7580 N 733.138 -0.185124 -1.56509 0
M  V30 7581 C 734.415 0.503348 -1.89013 0
M  V30 7582 C 734.795 1.80349 -1.09715 0
M  V30 7583 O 734.143 2.27665 -0.195203 0
M  V30 7584 C 734.353 0.731839 -3.41241 0
M  V30 7585 C 735.701 1.05568 -4.11267 0
M  V30 7586 O 736.725 0.819906 -3.46635 0
M  V30 7587 O 735.584 1.50116 -5.25478 0
M  V30 7588 H 732.678 0.261139 -0.784688 0
M  V30 7589 H 735.224 -0.224592 -1.68207 0
M  V30 7590 H 733.996 -0.18672 -3.90854 0
M  V30 7591 H 733.619 1.5126 -3.67704 0
M  V30 7592 N 734.616 1.57351 0.0885366 0
M  V30 7593 C 736.032 1.53331 0.442916 0
M  V30 7594 C 736.232 0.902831 1.80142 0
M  V30 7595 O 735.288 0.498147 2.47537 0
M  V30 7596 C 736.601 2.98036 0.399372 0
M  V30 7597 C 738.149 3.09286 0.480759 0
M  V30 7598 C 738.624 4.5561 0.467296 0
M  V30 7599 N 740.115 4.60182 0.52786 0
M  V30 7600 C 740.85 5.70857 0.539388 0
M  V30 7601 N 740.346 6.90944 0.506729 0
M  V30 7602 N 742.139 5.59051 0.584691 0
M  V30 7603 H 734.29 1.96709 -0.801215 0
M  V30 7604 H 736.553 0.899639 -0.298922 0
M  V30 7605 H 736.259 3.47656 -0.531806 0
M  V30 7606 H 736.133 3.57066 1.21589 0
M  V30 7607 H 738.52 2.5965 1.40236 0
M  V30 7608 H 738.601 2.53197 -0.364023 0
M  V30 7609 H 738.245 5.05899 -0.450384 0
M  V30 7610 H 738.175 5.09544 1.32938 0
M  V30 7611 H 740.666 3.73757 0.558028 0
M  V30 7612 H 740.979 7.71055 0.518989 0
M  V30 7613 H 739.324 6.93384 0.473675 0
M  V30 7614 H 742.515 4.64138 0.607781 0
M  V30 7615 H 742.688 6.45307 0.590206 0
M  V30 7616 N 736.094 -0.359525 1.53444 0
M  V30 7617 C 737.343 -1.09886 1.69139 0
M  V30 7618 C 737.656 -1.90285 0.452863 0
M  V30 7619 O 738.862 -2.67033 0.490459 0
M  V30 7620 C 737.318 -2.0028 2.99025 0
M  V30 7621 C 736.926 -1.25164 4.30161 0
M  V30 7622 C 738.67 -2.74168 3.24086 0
M  V30 7623 C 736.577 -2.14494 5.51132 0
M  V30 7624 H 735.507 -0.413936 0.630217 0
M  V30 7625 H 738.158 -0.359434 1.79945 0
M  V30 7626 H 736.54 -2.77978 2.82036 0
M  V30 7627 H 737.714 -0.524867 4.57801 0
M  V30 7628 H 736.029 -0.631116 4.11589 0
M  V30 7629 H 738.626 -3.41243 4.11652 0
M  V30 7630 H 738.969 -3.39868 2.40407 0
M  V30 7631 H 739.502 -2.0355 3.41778 0
M  V30 7632 H 736.241 -1.53362 6.37307 0
M  V30 7633 H 735.761 -2.85004 5.27762 0
M  V30 7634 H 737.44 -2.73914 5.86157 0
M  V30 7635 N 737.572 -1.44907 -0.619662 0
M  V30 7636 C 738.502 -1.55488 -1.742 0
M  V30 7637 C 739.483 -0.407143 -1.65156 0
M  V30 7638 O 740.668 -0.628743 -1.8374 0
M  V30 7639 C 737.798 -1.5097 -3.1277 0
M  V30 7640 C 736.752 -2.64337 -3.36615 0
M  V30 7641 C 736.078 -2.44872 -4.75333 0
M  V30 7642 C 737.378 -4.06423 -3.28051 0
M  V30 7643 H 739.072 -2.49432 -1.65602 0
M  V30 7644 H 736.618 -1.20047 -0.795281 0
M  V30 7645 H 738.571 -1.56971 -3.91073 0
M  V30 7646 H 737.295 -0.535486 -3.2218 0
M  V30 7647 H 735.954 -2.57744 -2.60698 0
M  V30 7648 H 735.602 -1.45617 -4.81461 0
M  V30 7649 H 735.302 -3.20888 -4.92244 0
M  V30 7650 H 736.826 -2.52709 -5.55851 0
M  V30 7651 H 738.24 -4.14324 -3.96243 0
M  V30 7652 H 736.637 -4.82733 -3.56495 0
M  V30 7653 H 737.707 -4.29183 -2.25676 0
M  V30 7654 N 739.05 0.861098 -1.31996 0
M  V30 7655 C 739.98 1.98482 -1.22993 0
M  V30 7656 C 740.961 1.6971 -0.115168 0
M  V30 7657 O 742.146 1.91849 -0.30126 0
M  V30 7658 C 739.276 3.34179 -0.945615 0
M  V30 7659 C 738.23 3.77284 -2.02091 0
M  V30 7660 C 737.556 5.1054 -1.58912 0
M  V30 7661 C 738.856 3.93439 -3.43515 0
M  V30 7662 H 740.55 2.06271 -2.17008 0
M  V30 7663 H 738.096 0.991043 -1.04472 0
M  V30 7664 H 740.049 4.12338 -0.869206 0
M  V30 7665 H 738.773 3.26586 0.0301849 0
M  V30 7666 H 737.432 3.01371 -2.08737 0
M  V30 7667 H 737.08 4.99397 -0.600942 0
M  V30 7668 H 736.78 5.40352 -2.30854 0
M  V30 7669 H 738.304 5.91199 -1.52696 0
M  V30 7670 H 739.718 4.6197 -3.39495 0
M  V30 7671 H 738.115 4.34661 -4.13751 0
M  V30 7672 H 739.185 2.96548 -3.8365 0
M  V30 7673 N 740.528 1.15101 1.07655 0
M  V30 7674 C 741.944 0.893004 1.32279 0
M  V30 7675 C 742.144 -0.461701 1.96139 0
M  V30 7676 O 741.2 -1.20431 2.21929 0
M  V30 7677 C 742.513 2.03161 2.21689 0
M  V30 7678 C 744.061 2.06579 2.35147 0
M  V30 7679 C 744.536 3.19754 3.27905 0
M  V30 7680 N 746.027 3.19382 3.35484 0
M  V30 7681 C 746.762 4.03592 4.07309 0
M  V30 7682 N 746.258 4.97859 4.81776 0
M  V30 7683 N 748.051 3.91626 4.03219 0
M  V30 7684 H 740.202 2.02341 0.645886 0
M  V30 7685 H 742.465 0.882127 0.347211 0
M  V30 7686 H 742.171 3.00934 1.82021 0
M  V30 7687 H 742.045 1.96132 3.22199 0
M  V30 7688 H 744.432 1.09408 2.74069 0
M  V30 7689 H 744.513 2.17676 1.34353 0
M  V30 7690 H 744.157 4.17175 2.89702 0
M  V30 7691 H 744.087 3.05893 4.28645 0
M  V30 7692 H 746.578 2.51112 2.82403 0
M  V30 7693 H 746.891 5.58563 5.34067 0
M  V30 7694 H 745.236 5.0185 4.80803 0
M  V30 7695 H 748.427 3.17295 3.44154 0
M  V30 7696 H 748.6 4.57479 4.5893 0
M  V30 7697 N 742.006 -1.2595 0.947325 0
M  V30 7698 C 743.252 -1.94081 0.608604 0
M  V30 7699 C 743.607 -1.72899 -0.844021 0
M  V30 7700 O 742.9 -1.05908 -1.59669 0
M  V30 7701 C 743.094 -3.46034 0.894158 0
M  V30 7702 C 742.923 -3.81994 2.37299 0
M  V30 7703 C 741.693 -4.04431 3.02925 0
M  V30 7704 C 743.891 -3.90069 3.35188 0
M  V30 7705 N 741.873 -4.27325 4.40757 0
M  V30 7706 C 743.244 -4.17567 4.58299 0
M  V30 7707 C 745.299 -3.72721 3.30127 0
M  V30 7708 C 744.002 -4.2952 5.76979 0
M  V30 7709 C 746.028 -3.8591 4.48138 0
M  V30 7710 C 745.39 -4.13812 5.70034 0
M  V30 7711 H 741.489 -0.73273 0.273187 0
M  V30 7712 H 744.073 -1.51898 1.218 0
M  V30 7713 H 742.244 -3.87131 0.313758 0
M  V30 7714 H 743.976 -4.01396 0.516082 0
M  V30 7715 H 740.731 -4.0003 2.53521 0
M  V30 7716 H 741.155 -4.42792 5.12118 0
M  V30 7717 H 745.797 -3.50172 2.36938 0
M  V30 7718 H 743.515 -4.50888 6.70616 0
M  V30 7719 H 747.101 -3.73882 4.45762 0
M  V30 7720 H 745.981 -4.23791 6.59827 0
M  V30 7721 N 743.484 -0.715051 -1.40445 0
M  V30 7722 C 744.394 -0.0631624 -2.34515 0
M  V30 7723 C 745.41 0.744397 -1.57273 0
M  V30 7724 O 746.586 0.677475 -1.89663 0
M  V30 7725 C 743.651 0.847915 -3.36172 0
M  V30 7726 C 742.712 0.0303655 -4.29289 0
M  V30 7727 C 741.945 0.898051 -5.2609 0
M  V30 7728 O 742.168 2.13729 -5.28844 0
M  V30 7729 O 741.102 0.337328 -6.00954 0
M  V30 7730 H 744.928 -0.839078 -2.91879 0
M  V30 7731 H 742.513 -0.475527 -1.4163 0
M  V30 7732 H 744.395 1.3698 -3.98515 0
M  V30 7733 H 743.07 1.60299 -2.81222 0
M  V30 7734 H 741.977 -0.536573 -3.70232 0
M  V30 7735 H 743.31 -0.686474 -4.87389 0
M  V30 7736 N 744.962 1.50701 -0.461195 0
M  V30 7737 C 746.378 1.59187 -0.114786 0
M  V30 7738 C 746.578 1.4702 1.37794 0
M  V30 7739 O 745.634 1.32361 2.15027 0
M  V30 7740 C 746.947 2.93453 -0.656167 0
M  V30 7741 C 748.495 3.06824 -0.618715 0
M  V30 7742 C 748.97 4.4365 -1.13747 0
M  V30 7743 N 750.461 4.50035 -1.09646 0
M  V30 7744 C 751.196 5.54278 -1.46846 0
M  V30 7745 N 750.692 6.65822 -1.91448 0
M  V30 7746 N 752.485 5.44767 -1.38512 0
M  V30 7747 H 744.636 1.56853 -1.43216 0
M  V30 7748 H 746.899 0.740712 -0.59165 0
M  V30 7749 H 746.605 3.07802 -1.7015 0
M  V30 7750 H 746.479 3.77082 -0.0942261 0
M  V30 7751 H 748.866 2.92129 0.417685 0
M  V30 7752 H 748.947 2.24976 -1.21734 0
M  V30 7753 H 748.591 4.59093 -2.17245 0
M  V30 7754 H 748.521 5.24074 -0.515153 0
M  V30 7755 H 751.012 3.69988 -0.769217 0
M  V30 7756 H 751.325 7.41413 -2.18007 0
M  V30 7757 H 749.67 6.66968 -1.95393 0
M  V30 7758 H 752.861 4.56511 -1.03516 0
M  V30 7759 H 753.034 6.25889 -1.6783 0
M  V30 7760 N 746.441 0.193421 1.56409 0
M  V30 7761 C 747.671 -0.450783 2.01622 0
M  V30 7762 C 748.079 -1.5585 1.07273 0
M  V30 7763 O 747.422 -1.83569 0.0694875 0
M  V30 7764 C 747.484 -1.06913 3.43235 0
M  V30 7765 C 747.148 -0.100352 4.5689 0
M  V30 7766 C 748.145 0.689633 5.15306 0
M  V30 7767 C 745.83 0.0102436 5.02299 0
M  V30 7768 C 747.824 1.5772 6.17579 0
M  V30 7769 C 745.511 0.901368 6.04416 0
M  V30 7770 C 746.509 1.68341 6.61929 0
M  V30 7771 O 746.197 2.5596 7.62063 0
M  V30 7772 H 745.929 -0.117671 0.66568 0
M  V30 7773 H 748.483 0.2989 2.03214 0
M  V30 7774 H 746.713 -1.86736 3.38624 0
M  V30 7775 H 748.402 -1.61781 3.72266 0
M  V30 7776 H 749.168 0.614485 4.81092 0
M  V30 7777 H 745.047 -0.58829 4.57231 0
M  V30 7778 H 748.591 2.18805 6.62397 0
M  V30 7779 H 744.488 0.977637 6.38054 0
M  V30 7780 H 745.256 2.49721 7.79475 0
M  V30 7781 N 747.919 -1.57396 -0.0801906 0
M  V30 7782 C 748.829 -2.06451 -1.11423 0
M  V30 7783 C 749.845 -0.992352 -1.42928 0
M  V30 7784 O 751.021 -1.30651 -1.53272 0
M  V30 7785 C 748.086 -2.49164 -2.41077 0
M  V30 7786 C 747.147 -3.70641 -2.16619 0
M  V30 7787 C 746.38 -4.11307 -3.40092 0
M  V30 7788 O 746.603 -3.51922 -4.48895 0
M  V30 7789 O 745.537 -5.04157 -3.288 0
M  V30 7790 H 749.363 -2.94857 -0.727519 0
M  V30 7791 H 746.948 -1.46484 -0.293743 0
M  V30 7792 H 748.83 -2.77196 -3.17396 0
M  V30 7793 H 747.505 -1.6389 -2.79145 0
M  V30 7794 H 746.412 -3.47703 -1.38033 0
M  V30 7795 H 747.745 -4.5674 -1.83437 0
M  V30 7796 N 749.397 0.351382 -1.53633 0
M  V30 7797 C 750.808 0.927429 -1.62036 0
M  V30 7798 C 751.159 1.89809 -0.496706 0
M  V30 7799 O 750.284 2.1313 0.374749 0
M  V30 7800 C 750.879 1.68886 -2.93706 0
M  V30 7801 C 749.438 2.21404 -3.04397 0
M  V30 7802 C 748.585 1.03075 -2.57431 0
M  V30 7803 H 751.536 0.129748 -1.58169 0
M  V30 7804 H 751.557 2.55116 -2.82305 0
M  V30 7805 H 751.069 0.982149 -3.75467 0
M  V30 7806 H 749.17 2.95274 -2.27253 0
M  V30 7807 H 749.283 2.48312 -4.09729 0
M  V30 7808 H 747.647 1.40188 -2.12649 0
M  V30 7809 H 748.43 0.338793 -3.41624 0
M  V30 7810 N 750.875 1.45233 0.611969 0
M  V30 7811 C 751.805 1.5641 1.73373 0
M  V30 7812 C 752.786 0.415896 1.64937 0
M  V30 7813 O 753.971 0.638478 1.83404 0
M  V30 7814 C 751.101 1.52627 3.11965 0
M  V30 7815 C 750.055 2.66119 3.35208 0
M  V30 7816 C 749.381 2.4739 4.74028 0
M  V30 7817 C 750.681 4.08157 3.25891 0
M  V30 7818 H 752.375 2.50307 1.64277 0
M  V30 7819 H 749.921 1.20467 0.788904 0
M  V30 7820 H 751.874 1.59043 3.90235 0
M  V30 7821 H 750.598 0.552564 3.21892 0
M  V30 7822 H 749.257 2.59123 2.59327 0
M  V30 7823 H 748.905 1.48168 4.80682 0
M  V30 7824 H 748.605 3.23494 4.90536 0
M  V30 7825 H 750.129 2.55653 5.54503 0
M  V30 7826 H 751.543 4.1642 3.9404 0
M  V30 7827 H 749.94 4.84617 3.5393 0
M  V30 7828 H 751.01 4.30374 2.23397 0
M  V30 7829 N 752.353 -0.854086 1.3245 0
M  V30 7830 C 753.263 -1.99503 1.23434 0
M  V30 7831 C 754.279 -1.73371 0.147828 0
M  V30 7832 O 755.455 -1.97998 0.368609 0
M  V30 7833 C 752.52 -3.33192 0.958328 0
M  V30 7834 C 751.581 -3.72542 2.13333 0
M  V30 7835 C 750.814 -4.99852 1.8704 0
M  V30 7836 O 751.037 -5.64573 0.813239 0
M  V30 7837 O 749.971 -5.36345 2.73161 0
M  V30 7838 H 753.797 -2.10046 2.1935 0
M  V30 7839 H 751.382 -0.984823 1.12346 0
M  V30 7840 H 753.264 -4.13327 0.820918 0
M  V30 7841 H 751.939 -3.23687 0.0293299 0
M  V30 7842 H 750.846 -2.92981 2.32622 0
M  V30 7843 H 752.179 -3.86694 3.04514 0
M  V30 7844 N 753.831 -1.1567 -1.07043 0
M  V30 7845 C 754.794 -0.858906 -2.12498 0
M  V30 7846 C 755.794 0.142735 -1.60165 0
M  V30 7847 O 756.984 -0.0872678 -1.73981 0
M  V30 7848 C 754.116 -0.283021 -3.39723 0
M  V30 7849 H 755.309 -1.79368 -2.40348 0
M  V30 7850 H 752.862 -0.964608 -1.22984 0
M  V30 7851 H 753.597 0.659796 -3.17517 0
M  V30 7852 H 753.382 -1.00467 -3.7901 0
M  V30 7853 H 754.872 -0.0923543 -4.17498 0
M  V30 7854 N 755.309 1.25446 -0.953992 0
M  V30 7855 C 756.725 1.4539 -0.658316 0
M  V30 7856 C 756.925 1.85607 0.784356 0
M  V30 7857 O 755.981 1.98568 1.55972 0
M  V30 7858 C 757.294 2.52643 -1.6307 0
M  V30 7859 C 758.842 2.66484 -1.64181 0
M  V30 7860 C 759.317 3.76921 -2.60182 0
M  V30 7861 N 760.808 3.84331 -2.58542 0
M  V30 7862 C 761.543 4.69271 -3.29503 0
M  V30 7863 N 761.039 5.58503 -4.09934 0
M  V30 7864 N 762.832 4.6323 -3.18393 0
M  V30 7865 H 754.983 0.976337 -1.8863 0
M  V30 7866 H 757.246 0.490343 -0.811337 0
M  V30 7867 H 756.952 2.29949 -2.66114 0
M  V30 7868 H 756.826 3.50547 -1.39271 0
M  V30 7869 H 759.213 2.88545 -0.618552 0
M  V30 7870 H 759.294 1.68982 -1.92038 0
M  V30 7871 H 758.938 3.55612 -3.62633 0
M  V30 7872 H 758.868 4.73906 -2.29609 0
M  V30 7873 H 761.359 3.20544 -2.0015 0
M  V30 7874 H 761.672 6.20241 -4.61 0
M  V30 7875 H 760.017 5.58214 -4.14032 0
M  V30 7876 H 763.208 3.92527 -2.5503 0
M  V30 7877 H 763.381 5.29204 -3.73961 0
M  V30 7878 N 756.787 0.722489 1.40064 0
M  V30 7879 C 758.064 0.191829 1.94657 0
M  V30 7880 C 758.444 -1.30389 1.66018 0
M  V30 7881 O 757.792 -2.06342 0.981588 0
M  V30 7882 C 758.002 0.511978 3.45224 0
M  V30 7883 C 759.35 0.454426 4.22161 0
M  V30 7884 O 760.374 0.448438 3.53366 0
M  V30 7885 O 759.233 0.437986 5.44742 0
M  V30 7886 H 756.327 0.0307821 0.826427 0
M  V30 7887 H 758.873 0.800493 1.49634 0
M  V30 7888 H 757.645 1.54622 3.59455 0
M  V30 7889 H 757.268 -0.126296 3.97399 0
M  V30 7890 N 758.265 -1.50454 0.469181 0
M  V30 7891 C 759.195 -2.31353 -0.31592 0
M  V30 7892 C 760.176 -1.38172 -0.992094 0
M  V30 7893 O 761.361 -1.67093 -0.989633 0
M  V30 7894 C 758.491 -3.1786 -1.39937 0
M  V30 7895 C 757.445 -4.19578 -0.844909 0
M  V30 7896 C 756.771 -4.9481 -2.0265 0
M  V30 7897 C 758.071 -5.22106 0.142499 0
M  V30 7898 H 759.765 -2.97237 0.359269 0
M  V30 7899 H 757.311 -1.42942 0.174224 0
M  V30 7900 H 759.264 -3.7325 -1.95607 0
M  V30 7901 H 757.988 -2.49858 -2.1033 0
M  V30 7902 H 756.647 -3.65285 -0.310189 0
M  V30 7903 H 756.295 -4.23282 -2.71737 0
M  V30 7904 H 755.995 -5.63613 -1.66174 0
M  V30 7905 H 757.519 -5.53035 -2.58815 0
M  V30 7906 H 758.933 -5.72378 -0.324966 0
M  V30 7907 H 757.33 -5.98618 0.421441 0
M  V30 7908 H 758.4 -4.7297 1.06901 0
M  V30 7909 N 759.743 -0.201713 -1.56304 0
M  V30 7910 C 760.673 0.71155 -2.22394 0
M  V30 7911 C 761.654 1.21625 -1.18917 0
M  V30 7912 O 762.839 1.26388 -1.47444 0
M  V30 7913 C 759.969 1.92837 -2.88845 0
M  V30 7914 C 758.923 1.55831 -3.98623 0
M  V30 7915 C 758.249 2.85228 -4.52271 0
M  V30 7916 C 759.549 0.763249 -5.16693 0
M  V30 7917 H 761.243 0.160573 -2.98969 0
M  V30 7918 H 758.789 0.0757916 -1.438 0
M  V30 7919 H 760.742 2.57253 -3.33764 0
M  V30 7920 H 759.466 2.50398 -2.09686 0
M  V30 7921 H 758.125 0.9377 -3.54405 0
M  V30 7922 H 757.773 3.40893 -3.69866 0
M  V30 7923 H 757.473 2.6121 -5.26349 0
M  V30 7924 H 758.997 3.50622 -4.99897 0
M  V30 7925 H 760.411 1.31066 -5.58117 0
M  V30 7926 H 758.808 0.620935 -5.96879 0
M  V30 7927 H 759.878 -0.234322 -4.84334 0
M  V30 7928 N 761.222 1.57436 0.0718424 0
M  V30 7929 C 762.447 1.91858 0.787745 0
M  V30 7930 C 762.872 0.798119 1.70328 0
M  V30 7931 O 762.23 -0.24905 1.79581 0
M  V30 7932 C 762.278 3.25232 1.55744 0
M  V30 7933 O 761.382 3.14462 2.6681 0
M  V30 7934 H 760.723 0.628258 0.214914 0
M  V30 7935 H 763.253 2.04561 0.0401012 0
M  V30 7936 H 763.263 3.59105 1.9367 0
M  V30 7937 H 761.938 4.0636 0.885691 0
M  V30 7938 H 760.515 2.92148 2.31741 0
M  V30 7939 N 762.7 -0.34323 1.53817 0
M  V30 7940 C 763.947 -1.08344 1.71079 0
M  V30 7941 C 764.275 -1.88633 0.474133 0
M  V30 7942 O 763.53 -1.87984 -0.544116 0
M  V30 7943 C 763.829 -2.05195 2.92626 0
M  V30 7944 C 763.495 -1.41215 4.28216 0
M  V30 7945 C 762.157 -1.23495 4.65083 0
M  V30 7946 C 764.509 -0.951273 5.12445 0
M  V30 7947 C 761.837 -0.583065 5.83796 0
M  V30 7948 C 764.189 -0.313292 6.31824 0
M  V30 7949 C 762.853 -0.123779 6.67385 0
M  V30 7950 H 762.123 -0.396458 0.626021 0
M  V30 7951 H 764.77 -0.362689 1.88034 0
M  V30 7952 H 763.075 -2.83653 2.70275 0
M  V30 7953 H 764.772 -2.62462 3.03175 0
M  V30 7954 H 761.362 -1.56005 3.992 0
M  V30 7955 H 765.546 -1.07602 4.84495 0
M  V30 7956 H 760.802 -0.424854 6.09922 0
M  V30 7957 H 764.976 0.0519179 6.96381 0
M  V30 7958 H 762.603 0.383398 7.59233 0
M  V30 7959 N 764.178 -1.45556 -0.604258 0
M  V30 7960 C 765.427 -1.49019 -1.35928 0
M  V30 7961 C 765.74 -0.137409 -1.95117 0
M  V30 7962 O 766.946 -0.0497032 -2.71455 0
M  V30 7963 C 765.402 -2.62477 -2.46239 0
M  V30 7964 C 765.01 -4.04082 -1.93447 0
M  V30 7965 C 766.754 -2.7519 -3.23219 0
M  V30 7966 C 764.661 -5.08917 -3.0126 0
M  V30 7967 H 763.591 -0.554518 -0.510907 0
M  V30 7968 H 766.242 -1.71705 -0.647262 0
M  V30 7969 H 764.624 -2.3308 -3.2014 0
M  V30 7970 H 765.798 -4.43173 -1.26232 0
M  V30 7971 H 764.113 -3.95849 -1.29201 0
M  V30 7972 H 766.71 -3.50683 -4.0364 0
M  V30 7973 H 767.053 -1.81941 -3.74437 0
M  V30 7974 H 767.586 -3.04129 -2.56418 0
M  V30 7975 H 764.325 -6.03886 -2.54955 0
M  V30 7976 H 763.845 -4.74393 -3.67031 0
M  V30 7977 H 765.524 -5.33814 -3.65584 0
M  V30 7978 N 765.656 0.84705 -1.32902 0
M  V30 7979 C 766.902 1.60414 -1.24078 0
M  V30 7980 C 767.235 1.93217 0.195105 0
M  V30 7981 O 766.51 1.58001 1.13428 0
M  V30 7982 C 766.793 2.91951 -2.108 0
M  V30 7983 C 766.646 2.6588 -3.62805 0
M  V30 7984 C 767.965 3.93299 -1.97494 0
M  V30 7985 H 765.084 0.58206 -0.452079 0
M  V30 7986 H 767.726 0.977562 -1.62922 0
M  V30 7987 H 765.876 3.45425 -1.77802 0
M  V30 7988 H 767.548 2.18902 -4.06054 0
M  V30 7989 H 765.791 1.99716 -3.85092 0
M  V30 7990 H 766.462 3.59574 -4.1882 0
M  V30 7991 H 768.938 3.49105 -2.26417 0
M  V30 7992 H 767.814 4.8318 -2.60438 0
M  V30 7993 H 768.075 4.31887 -0.944782 0
M  V30 7994 N 767.134 1.16236 1.06428 0
M  V30 7995 C 768.364 0.965782 1.82637 0
M  V30 7996 C 768.772 -0.489284 1.82764 0
M  V30 7997 O 768.115 -1.35133 1.24438 0
M  V30 7998 C 768.177 1.41458 3.30499 0
M  V30 7999 C 767.841 2.88926 3.54077 0
M  V30 8000 C 768.838 3.86939 3.47238 0
M  V30 8001 C 766.523 3.26814 3.81442 0
M  V30 8002 C 768.517 5.20841 3.67428 0
M  V30 8003 C 766.204 4.60886 4.01282 0
M  V30 8004 C 767.202 5.57708 3.94272 0
M  V30 8005 O 766.89 6.89357 4.13573 0
M  V30 8006 H 766.622 0.342569 0.582772 0
M  V30 8007 H 769.176 1.54641 1.35187 0
M  V30 8008 H 767.406 0.777426 3.78805 0
M  V30 8009 H 769.095 1.18563 3.88198 0
M  V30 8010 H 769.861 3.59014 3.26089 0
M  V30 8011 H 765.74 2.5203 3.86008 0
M  V30 8012 H 769.284 5.96401 3.61873 0
M  V30 8013 H 765.181 4.88522 4.21921 0
M  V30 8014 H 765.949 6.95913 4.30869 0
M  V30 8015 N 768.612 -1.24939 0.960631 0
M  V30 8016 C 769.842 -1.96595 0.635123 0
M  V30 8017 C 770.25 -1.71538 -0.798206 0
M  V30 8018 O 769.593 -0.991727 -1.5463 0
M  V30 8019 C 769.655 -3.49994 0.821248 0
M  V30 8020 C 769.319 -3.98738 2.23287 0
M  V30 8021 C 770.316 -4.08965 3.21004 0
M  V30 8022 C 768.001 -4.32247 2.55867 0
M  V30 8023 C 769.995 -4.52025 4.49391 0
M  V30 8024 C 767.682 -4.74991 3.84482 0
M  V30 8025 C 768.68 -4.84844 4.81056 0
M  V30 8026 O 768.368 -5.26638 6.07378 0
M  V30 8027 H 768.1 -0.633265 0.23654 0
M  V30 8028 H 770.654 -1.5991 1.28911 0
M  V30 8029 H 768.884 -3.86543 0.110105 0
M  V30 8030 H 770.573 -4.02859 0.495892 0
M  V30 8031 H 771.339 -3.83302 2.97161 0
M  V30 8032 H 767.218 -4.23801 1.81421 0
M  V30 8033 H 770.762 -4.5963 5.24773 0
M  V30 8034 H 766.659 -5.00101 4.08129 0
M  V30 8035 H 767.427 -5.44807 6.10842 0
M  V30 8036 N 770.09 -0.729906 -1.39679 0
M  V30 8037 C 771.037 -0.0866063 -2.30637 0
M  V30 8038 C 772.007 0.735115 -1.48947 0
M  V30 8039 O 773.192 0.696125 -1.77648 0
M  V30 8040 C 770.332 0.818524 -3.35252 0
M  V30 8041 C 769.445 -0.0152635 -4.31997 0
M  V30 8042 C 768.58 0.890669 -5.2368 0
M  V30 8043 C 767.619 0.0518246 -6.12078 0
M  V30 8044 N 766.756 0.913411 -6.96133 0
M  V30 8045 H 771.596 -0.867925 -2.85081 0
M  V30 8046 H 769.133 -0.439673 -1.40376 0
M  V30 8047 H 771.091 1.3577 -3.9449 0
M  V30 8048 H 769.721 1.56587 -2.82277 0
M  V30 8049 H 768.773 -0.671794 -3.74421 0
M  V30 8050 H 770.085 -0.664086 -4.9436 0
M  V30 8051 H 769.239 1.49787 -5.87919 0
M  V30 8052 H 767.978 1.57328 -4.61627 0
M  V30 8053 H 766.983 -0.568209 -5.46856 0
M  V30 8054 H 768.208 -0.627497 -6.76195 0
M  V30 8055 H 766.154 1.58141 -6.36653 0
M  V30 8056 H 766.071 0.320952 -7.55318 0
M  V30 8057 H 767.339 1.50633 -7.64807 0
M  V30 8058 N 771.568 1.50203 -0.477153 0
M  V30 8059 C 772.478 2.32421 0.319027 0
M  V30 8060 C 773.494 1.43075 0.990233 0
M  V30 8061 O 774.67 1.76123 0.976873 0
M  V30 8062 C 771.735 3.17909 1.38328 0
M  V30 8063 C 770.796 4.23082 0.728036 0
M  V30 8064 C 770.029 5.04484 1.74158 0
M  V30 8065 O 770.252 4.8705 2.96881 0
M  V30 8066 O 769.186 5.8747 1.31006 0
M  V30 8067 H 773.012 3.01638 -0.353281 0
M  V30 8068 H 770.597 1.47478 -0.238891 0
M  V30 8069 H 772.479 3.70937 1.9996 0
M  V30 8070 H 771.154 2.51413 2.03895 0
M  V30 8071 H 770.061 3.7403 0.07261 0
M  V30 8072 H 771.394 4.92065 0.115216 0
M  V30 8073 N 773.046 0.209999 1.56195 0
M  V30 8074 C 774.271 -0.433064 2.02828 0
M  V30 8075 C 774.696 -1.5337 1.08901 0
M  V30 8076 O 774.054 -1.81144 0.0751132 0
M  V30 8077 C 774.102 -0.952635 3.47789 0
M  V30 8078 O 773.206 -2.0647 3.56993 0
M  V30 8079 H 772.547 -0.0994594 0.656509 0
M  V30 8080 H 775.077 0.32525 2.01998 0
M  V30 8081 H 775.087 -1.26542 3.8788 0
M  V30 8082 H 773.762 -0.147007 4.1564 0
M  V30 8083 H 772.339 -1.75942 3.28784 0
M  V30 8084 N 774.524 -1.57472 -0.0634922 0
M  V30 8085 C 775.935 -1.76303 -0.614337 0
M  V30 8086 C 776.286 -0.836578 -1.77471 0
M  V30 8087 O 775.411 -0.0227184 -2.16388 0
M  V30 8088 C 776.006 -3.19709 -1.12122 0
M  V30 8089 C 774.565 -3.39856 -1.61786 0
M  V30 8090 C 773.712 -2.71975 -0.540845 0
M  V30 8091 H 776.663 -1.57864 0.162702 0
M  V30 8092 H 776.684 -3.24326 -1.98979 0
M  V30 8093 H 776.196 -3.87114 -0.276472 0
M  V30 8094 H 774.297 -2.77578 -2.48558 0
M  V30 8095 H 774.41 -4.48338 -1.68908 0
M  V30 8096 H 772.774 -2.34763 -0.987854 0
M  V30 8097 H 773.557 -3.4204 0.293856 0
M  V30 8098 N 776.003 0.335068 -1.53997 0
M  V30 8099 C 777.25 1.07435 -1.71651 0
M  V30 8100 C 777.578 1.88378 -0.48413 0
M  V30 8101 O 776.833 1.8827 0.534139 0
M  V30 8102 C 777.132 2.0364 -2.9371 0
M  V30 8103 C 776.798 1.38942 -4.28959 0
M  V30 8104 C 775.46 1.21027 -4.65732 0
M  V30 8105 C 777.812 0.924083 -5.12943 0
M  V30 8106 C 775.14 0.552097 -5.84097 0
M  V30 8107 C 777.492 0.27978 -6.31981 0
M  V30 8108 C 776.156 0.0883843 -6.67441 0
M  V30 8109 H 775.426 0.393133 -0.628114 0
M  V30 8110 H 778.073 0.352712 -1.88224 0
M  V30 8111 H 776.378 2.82215 -2.71775 0
M  V30 8112 H 778.075 2.6085 -3.04562 0
M  V30 8113 H 774.665 1.53885 -4.00022 0
M  V30 8114 H 778.849 1.05032 -4.85059 0
M  V30 8115 H 774.105 0.392502 -6.10139 0
M  V30 8116 H 778.279 -0.0888479 -6.96343 0
M  V30 8117 H 775.906 -0.423657 -7.59019 0
M  V30 8118 N 777.481 1.45874 0.596531 0
M  V30 8119 C 778.413 1.51408 1.7207 0
M  V30 8120 C 779.426 0.403738 1.57714 0
M  V30 8121 O 780.615 0.671384 1.65393 0
M  V30 8122 C 777.715 1.3652 3.10186 0
M  V30 8123 C 776.888 2.61428 3.50677 0
M  V30 8124 C 775.947 2.40937 4.67799 0
M  V30 8125 O 774.973 3.14602 4.74357 0
M  V30 8126 N 776.175 1.4621 5.61785 0
M  V30 8127 H 778.94 2.48333 1.67782 0
M  V30 8128 H 776.501 1.41755 0.782129 0
M  V30 8129 H 778.493 1.20606 3.86311 0
M  V30 8130 H 777.063 0.478302 3.08919 0
M  V30 8131 H 776.283 2.92381 2.644 0
M  V30 8132 H 777.571 3.44432 3.74491 0
M  V30 8133 H 776.969 0.854382 5.59211 0
M  V30 8134 H 775.526 1.36264 6.37397 0
M  V30 8135 N 778.959 -0.83999 1.33349 0
M  V30 8136 C 779.907 -1.97113 1.23488 0
M  V30 8137 C 780.901 -1.68849 0.136503 0
M  V30 8138 O 782.107 -1.77476 0.300389 0
M  V30 8139 H 778.482 -0.647049 0.383185 0
M  V30 8140 H 780.453 -2.02554 2.19122 0
M  V30 8141 C 779.202 -3.33314 0.989815 0
M  V30 8142 H 778.525 -3.556 1.82726 0
M  V30 8143 H 779.965 -4.12963 0.961123 0
M  V30 8144 C 778.424 -3.35496 -0.307272 0
M  V30 8145 O 778.954 -3.79589 -1.31434 0
M  V30 8146 N 777.16 -2.88669 -0.334414 0
M  V30 8147 H 776.707 -2.5298 0.485659 0
M  V30 8148 H 776.665 -2.90512 -1.20209 0
M  V30 8149 N 780.437 -1.16799 -1.0581 0
M  V30 8150 C 781.4 -0.881396 -2.11575 0
M  V30 8151 C 782.4 0.12574 -1.60308 0
M  V30 8152 O 783.59 -0.105716 -1.73879 0
M  V30 8153 C 780.722 -0.319037 -3.39404 0
M  V30 8154 H 781.915 -1.81907 -2.38432 0
M  V30 8155 H 779.468 -0.977597 -1.21954 0
M  V30 8156 H 780.203 0.626082 -3.18199 0
M  V30 8157 H 779.988 -1.04481 -3.77923 0
M  V30 8158 H 781.478 -0.13663 -4.17376 0
M  V30 8159 N 781.915 1.24427 -0.967243 0
M  V30 8160 C 783.143 1.96541 -0.646477 0
M  V30 8161 C 783.558 1.71753 0.783996 0
M  V30 8162 O 782.915 1.00102 1.52597 0
M  V30 8163 C 782.966 3.4983 -0.911098 0
M  V30 8164 O 782.687 3.7377 -2.28534 0
M  V30 8165 C 784.188 4.3916 -0.604458 0
M  V30 8166 H 781.408 0.626129 -0.241255 0
M  V30 8167 H 783.952 1.58268 -1.29505 0
M  V30 8168 H 782.107 3.86168 -0.308741 0
M  V30 8169 H 782.521 4.68154 -2.365 0
M  V30 8170 H 783.995 5.4557 -0.840069 0
M  V30 8171 H 784.472 4.36771 0.461273 0
M  V30 8172 H 785.078 4.08409 -1.1867 0
M  V30 8173 N 783.393 0.737304 1.3929 0
M  V30 8174 C 784.303 0.100464 2.34385 0
M  V30 8175 C 785.319 -0.719282 1.58437 0
M  V30 8176 O 786.495 -0.647216 1.90717 0
M  V30 8177 C 783.56 -0.794325 3.37478 0
M  V30 8178 C 782.621 0.0379345 4.29283 0
M  V30 8179 C 781.854 -0.814241 5.27452 0
M  V30 8180 O 782.077 -2.05288 5.32177 0
M  V30 8181 O 781.011 -0.241679 6.01415 0
M  V30 8182 H 784.837 0.885407 2.90507 0
M  V30 8183 H 782.422 0.497999 1.40856 0
M  V30 8184 H 784.304 -1.30622 4.00644 0
M  V30 8185 H 782.979 -1.55804 2.83737 0
M  V30 8186 H 781.886 0.595405 3.69331 0
M  V30 8187 H 783.219 0.763926 4.86236 0
M  V30 8188 N 784.871 -1.49948 0.485112 0
M  V30 8189 C 785.821 -2.25734 -0.320658 0
M  V30 8190 C 786.805 -1.29907 -0.949373 0
M  V30 8191 O 787.997 -1.54725 -0.859601 0
M  V30 8192 C 785.126 -3.13728 -1.39391 0
M  V30 8193 C 784.212 -4.1701 -0.772225 0
M  V30 8194 N 784.603 -5.05667 0.115782 0
M  V30 8195 C 782.901 -4.33834 -1.03461 0
M  V30 8196 C 783.602 -5.79798 0.47004 0
M  V30 8197 N 782.578 -5.4337 -0.158204 0
M  V30 8198 H 786.38 -2.91647 0.36319 0
M  V30 8199 H 783.894 -1.59602 0.300154 0
M  V30 8200 H 785.891 -3.66639 -1.98447 0
M  V30 8201 H 784.551 -2.49365 -2.0796 0
M  V30 8202 H 785.562 -5.15619 0.485557 0
M  V30 8203 H 782.239 -3.80684 -1.71424 0
M  V30 8204 H 783.629 -6.61177 1.19558 0
M  V30 8205 N 786.349 -0.21828 -1.56081 0
M  V30 8206 C 787.595 0.414921 -1.9851 0
M  V30 8207 C 787.928 1.59648 -1.10573 0
M  V30 8208 O 787.203 1.93818 -0.162695 0
M  V30 8209 C 787.486 0.852647 -3.4986 0
M  V30 8210 C 787.339 -0.33232 -4.48571 0
M  V30 8211 C 788.658 1.70998 -4.05521 0
M  V30 8212 H 785.777 0.149344 -0.72171 0
M  V30 8213 H 788.419 -0.313858 -1.8739 0
M  V30 8214 H 786.569 1.47362 -3.59467 0
M  V30 8215 H 788.241 -0.970418 -4.50977 0
M  V30 8216 H 786.484 -0.980302 -4.22578 0
M  V30 8217 H 787.155 0.0168407 -5.51997 0
M  V30 8218 H 789.631 1.18606 -3.98838 0
M  V30 8219 H 788.507 1.98517 -5.11744 0
M  V30 8220 H 788.768 2.67219 -3.52202 0
M  V30 8221 N 787.827 1.57504 0.0551401 0
M  V30 8222 C 789.075 1.87684 0.74962 0
M  V30 8223 C 789.396 0.812547 1.77264 0
M  V30 8224 O 788.666 -0.15694 1.9527 0
M  V30 8225 H 787.246 0.6926 0.279846 0
M  V30 8226 H 789.908 1.94881 0.0272745 0
M  V30 8227 H 789.004 2.85734 1.25548 0
M  V30 8228 N 789.305 -0.326896 1.54172 0
M  V30 8229 C 790.716 -0.901533 1.63491 0
M  V30 8230 C 791.067 -1.88994 0.52684 0
M  V30 8231 O 790.192 -2.137 -0.340794 0
M  V30 8232 C 790.787 -1.64192 2.96355 0
M  V30 8233 C 789.346 -2.16533 3.07881 0
M  V30 8234 C 788.493 -0.98966 2.59039 0
M  V30 8235 H 791.444 -0.104568 1.58355 0
M  V30 8236 H 791.465 -2.50592 2.86328 0
M  V30 8237 H 790.977 -0.922291 3.76982 0
M  V30 8238 H 789.078 -2.91622 2.31922 0
M  V30 8239 H 789.191 -2.41762 4.13628 0
M  V30 8240 H 787.555 -1.36787 2.14852 0
M  V30 8241 H 788.338 -0.284401 3.4212 0
M  V30 8242 N 790.784 -1.46188 -0.588786 0
M  V30 8243 C 792.061 -1.41659 -1.34878 0
M  V30 8244 C 792.441 -0.0968913 -2.10878 0
M  V30 8245 O 791.789 0.921468 -2.09096 0
M  V30 8246 C 791.999 -2.6424 -2.27988 0
M  V30 8247 C 793.347 -3.1013 -2.90008 0
M  V30 8248 O 794.371 -2.64745 -2.38303 0
M  V30 8249 O 793.23 -3.88944 -3.83908 0
M  V30 8250 H 790.324 -0.563058 -0.605718 0
M  V30 8251 H 792.87 -1.58346 -0.610309 0
M  V30 8252 H 791.642 -3.51853 -1.71217 0
M  V30 8253 H 791.265 -2.49982 -3.09184 0
M  V30 8254 N 792.262 0.832906 -1.33792 0
M  V30 8255 C 793.225 1.92471 -1.24449 0
M  V30 8256 C 794.225 1.59981 -0.162085 0
M  V30 8257 O 795.415 1.69208 -0.414029 0
M  V30 8258 C 792.547 3.28278 -0.919044 0
M  V30 8259 H 793.74 2.0218 -2.21502 0
M  V30 8260 H 791.293 1.0257 -1.17936 0
M  V30 8261 H 792.028 3.24263 0.048738 0
M  V30 8262 H 791.813 3.53241 -1.70187 0
M  V30 8263 H 793.303 4.08253 -0.878576 0
M  V30 8264 N 793.74 1.17359 1.05189 0
M  V30 8265 C 794.98 0.972812 1.79766 0
M  V30 8266 C 795.344 -0.489832 1.85647 0
M  V30 8267 O 796.545 -0.809682 2.56315 0
M  V30 8268 C 794.816 1.59636 3.19767 0
M  V30 8269 S 796.375 1.54178 4.10822 0
M  V30 8270 H 793.193 0.34959 0.619119 0
M  V30 8271 H 795.795 1.49304 1.26209 0
M  V30 8272 H 794.499 2.65336 3.13089 0
M  V30 8273 H 794.03 1.07594 3.78401 0
M  V30 8274 H 796.045 0.549785 4.93145 0
M  V30 8275 N 795.218 -1.23913 0.973828 0
M  V30 8276 C 796.466 -1.91771 0.637817 0
M  V30 8277 C 796.787 -1.76434 -0.830435 0
M  V30 8278 O 796.057 -1.13965 -1.59339 0
M  V30 8279 H 794.637 -0.709761 0.232912 0
M  V30 8280 H 797.299 -1.50677 1.23622 0
M  V30 8281 H 796.395 -2.99327 0.883731 0
M  V30 8282 N 796.696 -0.74468 -1.38897 0
M  V30 8283 C 797.924 -0.307428 -2.04603 0
M  V30 8284 C 798.339 1.06115 -1.56157 0
M  V30 8285 O 797.696 1.67233 -0.730701 0
M  V30 8286 C 797.747 -0.31101 -3.6016 0
M  V30 8287 O 797.468 -1.62557 -4.06825 0
M  V30 8288 C 798.969 0.141213 -4.43075 0
M  V30 8289 H 796.189 -0.132741 -0.657739 0
M  V30 8290 H 798.733 -1.01104 -1.77759 0
M  V30 8291 H 796.888 0.343792 -3.85872 0
M  V30 8292 H 797.302 -1.54569 -5.01207 0
M  V30 8293 H 798.776 0.0875449 -5.51931 0
M  V30 8294 H 799.253 1.18782 -4.22833 0
M  V30 8295 H 799.859 -0.484383 -4.22533 0
M  V30 8296 N 798.174 1.49689 -0.493057 0
M  V30 8297 C 799.106 2.26867 0.326195 0
M  V30 8298 C 800.119 1.33083 0.937697 0
M  V30 8299 O 801.308 1.58427 0.822382 0
M  V30 8300 C 798.408 3.0519 1.4735 0
M  V30 8301 C 797.581 4.26491 0.970767 0
M  V30 8302 C 796.64 4.86926 1.99473 0
M  V30 8303 O 795.666 5.47221 1.56647 0
M  V30 8304 N 796.868 4.75871 3.32456 0
M  V30 8305 H 799.633 2.97816 -0.335547 0
M  V30 8306 H 797.194 1.58602 -0.325129 0
M  V30 8307 H 799.186 3.42496 2.15589 0
M  V30 8308 H 797.756 2.369 2.03954 0
M  V30 8309 H 796.976 3.94036 0.113529 0
M  V30 8310 H 798.264 5.05092 0.613156 0
M  V30 8311 H 797.662 4.2797 3.69944 0
M  V30 8312 H 796.219 5.17383 3.96431 0
M  V30 8313 N 799.652 0.226554 1.55963 0
M  V30 8314 C 800.877 -0.411527 2.03276 0
M  V30 8315 C 801.302 -1.52206 1.10521 0
M  V30 8316 O 800.66 -1.81054 0.0943217 0
M  V30 8317 C 800.708 -0.915694 3.4878 0
M  V30 8318 O 799.812 -2.02672 3.59163 0
M  V30 8319 H 799.153 -0.0924907 0.657527 0
M  V30 8320 H 801.683 0.346656 2.01642 0
M  V30 8321 H 801.693 -1.22421 3.892 0
M  V30 8322 H 800.368 -0.102915 4.15773 0
M  V30 8323 H 798.945 -1.72445 3.30632 0
M  V30 8324 N 801.13 -1.57531 -0.0467866 0
M  V30 8325 C 802.376 -1.89584 -0.736837 0
M  V30 8326 C 802.731 -0.82317 -1.73901 0
M  V30 8327 O 802.024 0.170098 -1.90843 0
M  V30 8328 C 802.218 -3.26091 -1.46285 0
M  V30 8329 C 802.047 -4.46536 -0.532502 0
M  V30 8330 C 800.817 -5.05046 -0.160109 0
M  V30 8331 C 803.015 -5.13979 0.181555 0
M  V30 8332 N 800.997 -6.09009 0.773349 0
M  V30 8333 C 802.368 -6.12345 0.971297 0
M  V30 8334 C 804.423 -4.9727 0.250382 0
M  V30 8335 C 803.126 -6.95802 1.82351 0
M  V30 8336 C 805.152 -5.81275 1.08965 0
M  V30 8337 C 804.514 -6.79197 1.86737 0
M  V30 8338 H 800.613 -0.742868 -0.244277 0
M  V30 8339 H 803.197 -1.947 0.0025481 0
M  V30 8340 H 801.368 -3.21938 -2.1728 0
M  V30 8341 H 803.1 -3.45715 -2.10389 0
M  V30 8342 H 799.855 -4.70754 -0.518457 0
M  V30 8343 H 800.279 -6.65658 1.23406 0
M  V30 8344 H 804.921 -4.21458 -0.336578 0
M  V30 8345 H 802.639 -7.70971 2.42134 0
M  V30 8346 H 806.225 -5.70397 1.14621 0
M  V30 8347 H 805.105 -7.4307 2.50631 0
M  V30 8348 N 802.608 0.318715 -1.54344 0
M  V30 8349 C 803.556 1.41254 -1.84798 0
M  V30 8350 C 804.55 1.53325 -0.720256 0
M  V30 8351 O 805.756 1.55653 -0.903992 0
M  V30 8352 H 802.131 0.471468 -0.585851 0
M  V30 8353 H 804.102 1.12795 -2.7626 0
M  V30 8354 C 802.851 2.77395 -2.09637 0
M  V30 8355 H 802.174 2.68881 -2.95876 0
M  V30 8356 H 803.614 3.52987 -2.34896 0
M  V30 8357 C 802.073 3.24948 -0.889398 0
M  V30 8358 O 802.603 4.01573 -0.101063 0
M  V30 8359 N 800.809 2.82051 -0.699684 0
M  V30 8360 H 800.356 2.19858 -1.3424 0
M  V30 8361 H 800.314 3.1422 0.106368 0
M  V30 8362 N 804.086 1.46499 0.581025 0
M  V30 8363 C 805.016 1.60052 1.70017 0
M  V30 8364 C 805.997 0.450788 1.64018 0
M  V30 8365 O 807.182 0.677237 1.82009 0
M  V30 8366 C 804.312 1.5921 3.08658 0
M  V30 8367 C 803.266 2.73169 3.29488 0
M  V30 8368 C 802.592 2.57389 4.68674 0
M  V30 8369 C 803.892 4.14978 3.1716 0
M  V30 8370 H 805.586 2.53735 1.5893 0
M  V30 8371 H 803.132 1.22113 0.763173 0
M  V30 8372 H 805.085 1.67285 3.86773 0
M  V30 8373 H 803.809 0.620718 3.20647 0
M  V30 8374 H 802.468 2.64566 2.53773 0
M  V30 8375 H 802.116 1.58331 4.77431 0
M  V30 8376 H 801.816 3.33826 4.83564 0
M  V30 8377 H 803.34 2.67358 5.48956 0
M  V30 8378 H 804.754 4.24684 3.85119 0
M  V30 8379 H 803.151 4.92016 3.4357 0
M  V30 8380 H 804.221 4.35016 2.14218 0
M  V30 8381 N 805.565 -0.825799 1.34232 0
M  V30 8382 C 806.495 -1.95151 1.28212 0
M  V30 8383 C 807.476 -1.69345 0.160123 0
M  V30 8384 O 808.661 -1.90983 0.352019 0
M  V30 8385 C 805.791 -3.31554 1.03388 0
M  V30 8386 C 804.745 -3.71793 2.12023 0
M  V30 8387 C 804.071 -5.06147 1.72392 0
M  V30 8388 C 805.371 -3.84193 3.53826 0
M  V30 8389 H 807.065 -2.00445 2.22401 0
M  V30 8390 H 804.611 -0.962996 1.07063 0
M  V30 8391 H 806.564 -4.09889 0.978225 0
M  V30 8392 H 805.288 -3.26551 0.0564142 0
M  V30 8393 H 803.947 -2.95731 2.16654 0
M  V30 8394 H 803.595 -4.97628 0.733137 0
M  V30 8395 H 803.295 -5.34041 2.451 0
M  V30 8396 H 804.819 -5.86943 1.68317 0
M  V30 8397 H 806.233 -4.52806 3.51624 0
M  V30 8398 H 804.63 -4.23538 4.2513 0
M  V30 8399 H 805.7 -2.86272 3.91377 0
M  V30 8400 N 807.043 -1.17915 -1.04565 0
M  V30 8401 C 808.32 -0.881187 -1.74627 0
M  V30 8402 C 808.7 0.617123 -2.01878 0
M  V30 8403 O 808.048 1.57032 -1.65991 0
M  V30 8404 C 808.258 -1.72299 -3.03503 0
M  V30 8405 C 809.606 -1.94688 -3.77335 0
M  V30 8406 O 810.63 -1.6931 -3.13389 0
M  V30 8407 O 809.489 -2.37379 -4.92253 0
M  V30 8408 H 806.583 -0.326864 -0.759664 0
M  V30 8409 H 809.129 -1.28642 -1.10676 0
M  V30 8410 H 807.901 -2.73891 -2.79462 0
M  V30 8411 H 807.524 -1.31593 -3.75192 0
M  V30 8412 N 808.521 1.23394 -0.980386 0
M  V30 8413 C 809.767 1.92094 -0.650223 0
M  V30 8414 C 810.1 1.76309 0.814173 0
M  V30 8415 O 809.375 1.12406 1.5873 0
M  V30 8416 C 809.658 3.44713 -1.04139 0
M  V30 8417 C 809.511 3.69606 -2.56342 0
M  V30 8418 C 810.83 4.36191 -0.585296 0
M  V30 8419 H 807.949 0.697618 -0.237695 0
M  V30 8420 H 810.591 1.45517 -1.22167 0
M  V30 8421 H 808.741 3.84513 -0.55515 0
M  V30 8422 H 810.413 3.39288 -3.1254 0
M  V30 8423 H 808.656 3.14318 -2.98976 0
M  V30 8424 H 809.327 4.76441 -2.78762 0
M  V30 8425 H 811.803 4.03836 -1.00276 0
M  V30 8426 H 810.679 5.41679 -0.887428 0
M  V30 8427 H 810.94 4.39097 0.51438 0
M  V30 8428 N 809.999 0.752036 1.385 0
M  V30 8429 C 810.909 0.125318 2.34265 0
M  V30 8430 C 811.925 -0.702437 1.59191 0
M  V30 8431 O 813.101 -0.626951 1.91393 0
M  V30 8432 C 810.166 -0.758486 3.38301 0
M  V30 8433 C 809.227 0.0834636 4.29219 0
M  V30 8434 C 808.46 -0.758252 5.28286 0
M  V30 8435 O 808.683 -1.99632 5.34325 0
M  V30 8436 O 807.617 -0.177878 6.01637 0
M  V30 8437 H 811.443 0.91617 2.89551 0
M  V30 8438 H 809.028 0.512911 1.4032 0
M  V30 8439 H 810.91 -1.26365 4.02007 0
M  V30 8440 H 809.585 -1.52786 2.85374 0
M  V30 8441 H 808.492 0.634545 3.68679 0
M  V30 8442 H 809.825 0.815455 4.85398 0
M  V30 8443 N 811.477 -1.49425 0.500989 0
M  V30 8444 C 812.407 -2.31971 -0.266775 0
M  V30 8445 C 813.388 -1.40245 -0.962563 0
M  V30 8446 O 814.573 -1.69154 -0.953968 0
M  V30 8447 C 811.703 -3.20757 -1.33163 0
M  V30 8448 C 810.657 -4.21275 -0.75572 0
M  V30 8449 C 809.983 -4.98997 -1.92109 0
M  V30 8450 C 811.283 -5.21686 0.253213 0
M  V30 8451 H 812.977 -2.96408 0.422237 0
M  V30 8452 H 810.523 -1.4254 0.204505 0
M  V30 8453 H 812.476 -3.77315 -1.87646 0
M  V30 8454 H 811.2 -2.54263 -2.04983 0
M  V30 8455 H 809.859 -3.65861 -0.232637 0
M  V30 8456 H 809.507 -4.28951 -2.62698 0
M  V30 8457 H 809.207 -5.67011 -1.54182 0
M  V30 8458 H 810.731 -5.584 -2.47026 0
M  V30 8459 H 812.145 -5.72939 -0.203483 0
M  V30 8460 H 810.542 -5.9759 0.548322 0
M  V30 8461 H 811.612 -4.70596 1.16909 0
M  V30 8462 N 812.955 -0.234822 -1.55841 0
M  V30 8463 C 814.366 0.270588 -1.84729 0
M  V30 8464 C 814.717 1.58494 -1.15646 0
M  V30 8465 O 813.842 2.12071 -0.430667 0
M  V30 8466 C 814.437 0.497733 -3.35124 0
M  V30 8467 C 812.996 0.947428 -3.64281 0
M  V30 8468 C 812.143 0.01787 -2.77294 0
M  V30 8469 H 815.094 -0.457691 -1.51957 0
M  V30 8470 H 815.115 1.34199 -3.56049 0
M  V30 8471 H 814.627 -0.459037 -3.85376 0
M  V30 8472 H 812.728 1.91709 -3.19497 0
M  V30 8473 H 812.841 0.812651 -4.72158 0
M  V30 8474 H 811.205 0.527071 -2.49187 0
M  V30 8475 H 811.988 -0.934056 -3.30349 0
M  V30 8476 N 814.433 1.57553 0.0384317 0
M  V30 8477 C 815.363 2.0898 1.04161 0
M  V30 8478 C 816.344 0.99029 1.38301 0
M  V30 8479 O 817.529 1.26499 1.47349 0
M  V30 8480 C 814.659 2.56145 2.34536 0
M  V30 8481 C 813.613 3.70275 2.14663 0
M  V30 8482 C 812.939 4.03612 3.50715 0
M  V30 8483 C 814.239 4.99067 1.54045 0
M  V30 8484 H 815.933 2.93046 0.613548 0
M  V30 8485 H 813.479 1.40973 0.293684 0
M  V30 8486 H 815.432 2.90741 3.05037 0
M  V30 8487 H 814.156 1.6915 2.79385 0
M  V30 8488 H 812.815 3.36013 1.46597 0
M  V30 8489 H 812.463 3.13698 3.93195 0
M  V30 8490 H 812.163 4.80482 3.38247 0
M  V30 8491 H 813.687 4.40735 4.22593 0
M  V30 8492 H 815.101 5.3168 2.14451 0
M  V30 8493 H 813.498 5.80484 1.52178 0
M  V30 8494 H 814.568 4.8226 0.505259 0
M  V30 8495 N 815.911 -0.310526 1.54511 0
M  V30 8496 C 817.136 -1.07046 1.7764 0
M  V30 8497 C 817.561 -1.80488 0.529696 0
M  V30 8498 O 816.919 -1.73702 -0.519361 0
M  V30 8499 C 816.967 -2.03411 2.97752 0
M  V30 8500 O 816.071 -3.11545 2.7021 0
M  V30 8501 H 815.412 -0.307994 0.588248 0
M  V30 8502 H 817.942 -0.350848 2.01569 0
M  V30 8503 H 817.952 -2.46048 3.2546 0
M  V30 8504 H 816.627 -1.49361 3.88155 0
M  V30 8505 H 815.204 -2.7349 2.53491 0
M  V30 8506 N 817.389 -1.46805 -0.573248 0
M  V30 8507 C 818.805 -1.31969 -0.897577 0
M  V30 8508 C 819.005 -0.298171 -1.99282 0
M  V30 8509 O 818.061 0.295953 -2.5076 0
M  V30 8510 C 819.374 -2.70859 -1.30598 0
M  V30 8511 C 820.922 -2.79022 -1.4183 0
M  V30 8512 C 821.397 -4.18516 -1.86033 0
M  V30 8513 N 822.888 -4.2098 -1.9321 0
M  V30 8514 C 823.623 -5.25814 -2.28707 0
M  V30 8515 N 823.119 -6.40968 -2.6293 0
M  V30 8516 N 824.912 -5.13184 -2.29343 0
M  V30 8517 H 817.063 -2.11869 0.150094 0
M  V30 8518 H 819.326 -0.947989 0.00447895 0
M  V30 8519 H 819.032 -3.46965 -0.575161 0
M  V30 8520 H 818.906 -3.01585 -2.26554 0
M  V30 8521 H 821.293 -2.03198 -2.13996 0
M  V30 8522 H 821.374 -2.51969 -0.441024 0
M  V30 8523 H 821.018 -4.94839 -1.14442 0
M  V30 8524 H 820.948 -4.42982 -2.84735 0
M  V30 8525 H 823.439 -3.37898 -1.69214 0
M  V30 8526 H 823.752 -7.16729 -2.88996 0
M  V30 8527 H 822.097 -6.44314 -2.60547 0
M  V30 8528 H 825.288 -4.22255 -2.02036 0
M  V30 8529 H 825.461 -5.94996 -2.56679 0
M  V30 8530 N 818.867 0.818669 -1.34668 0
M  V30 8531 C 820.095 1.60674 -1.30351 0
M  V30 8532 C 820.51 1.88408 0.121546 0
M  V30 8533 O 819.867 1.47849 1.06991 0
M  V30 8534 C 819.918 2.94516 -2.09625 0
M  V30 8535 O 819.639 2.6799 -3.46573 0
M  V30 8536 C 821.14 3.8891 -2.12754 0
M  V30 8537 H 818.36 0.499306 -0.448258 0
M  V30 8538 H 820.904 1.01828 -1.77345 0
M  V30 8539 H 819.059 3.49908 -1.66262 0
M  V30 8540 H 819.473 3.53361 -3.87603 0
M  V30 8541 H 820.947 4.79972 -2.72637 0
M  V30 8542 H 821.424 4.24599 -1.12306 0
M  V30 8543 H 822.03 3.39453 -2.56225 0
M  V30 8544 N 820.346 1.18468 1.03938 0
M  V30 8545 C 821.278 0.870615 2.12021 0
M  V30 8546 C 822.291 -0.132318 1.62261 0
M  V30 8547 O 823.48 0.0956901 1.78243 0
M  V30 8548 C 820.58 0.279727 3.37744 0
M  V30 8549 C 819.753 1.32863 4.16733 0
M  V30 8550 C 818.812 0.753204 5.20781 0
M  V30 8551 O 817.838 1.42825 5.5099 0
M  V30 8552 N 819.04 -0.448664 5.78764 0
M  V30 8553 H 821.805 1.80091 2.39556 0
M  V30 8554 H 819.366 1.08524 1.20142 0
M  V30 8555 H 821.358 -0.118829 4.04526 0
M  V30 8556 H 819.928 -0.554621 3.07641 0
M  V30 8557 H 819.148 1.90245 3.45254 0
M  V30 8558 H 820.436 2.03574 4.66299 0
M  V30 8559 H 819.834 -1.01481 5.56523 0
M  V30 8560 H 818.391 -0.789125 6.47005 0
M  V30 8561 N 821.824 -1.22873 0.986916 0
M  V30 8562 C 822.734 -2.28277 0.540978 0
M  V30 8563 C 823.75 -1.69164 -0.407363 0
M  V30 8564 O 824.926 -1.99504 -0.275674 0
M  V30 8565 C 821.991 -3.46404 -0.143181 0
M  V30 8566 C 821.052 -4.20854 0.847375 0
M  V30 8567 C 820.285 -5.33341 0.19577 0
M  V30 8568 O 820.508 -5.61356 -1.0117 0
M  V30 8569 O 819.442 -5.95169 0.897623 0
M  V30 8570 H 823.268 -2.68578 1.41773 0
M  V30 8571 H 820.853 -1.28927 0.754867 0
M  V30 8572 H 822.735 -4.18096 -0.526676 0
M  V30 8573 H 821.41 -3.08041 -0.994593 0
M  V30 8574 H 820.317 -3.51459 1.28169 0
M  V30 8575 H 821.65 -4.63082 1.6678 0
M  V30 8576 N 823.302 -0.75937 -1.38099 0
M  V30 8577 C 824.713 -0.385078 -1.82686 0
M  V30 8578 C 825.064 1.0871 -1.6333 0
M  V30 8579 O 824.189 1.84084 -1.13762 0
M  V30 8580 C 824.784 -0.692161 -3.31654 0
M  V30 8581 C 823.343 -0.371077 -3.74566 0
M  V30 8582 C 822.49 -0.942375 -2.60796 0
M  V30 8583 H 825.441 -0.955048 -1.26746 0
M  V30 8584 H 825.462 0.0276001 -3.8049 0
M  V30 8585 H 824.974 -1.76369 -3.4571 0
M  V30 8586 H 823.075 0.693637 -3.66087 0
M  V30 8587 H 823.188 -0.870672 -4.71122 0
M  V30 8588 H 821.552 -0.367383 -2.52036 0
M  V30 8589 H 822.335 -2.01905 -2.77649 0
M  V30 8590 N 824.78 1.49157 -0.508906 0
M  V30 8591 C 826.028 2.02073 0.0327335 0
M  V30 8592 C 826.349 1.39012 1.3675 0
M  V30 8593 O 825.619 0.548153 1.88075 0
M  V30 8594 H 824.199 0.746848 0.0150864 0
M  V30 8595 H 826.861 1.83097 -0.667946 0
M  V30 8596 H 825.957 3.11707 0.1566 0
M  V30 8597 N 826.258 0.243083 1.55714 0
M  V30 8598 C 827.504 -0.383287 1.99145 0
M  V30 8599 C 827.837 -1.57868 1.13098 0
M  V30 8600 O 827.112 -1.93535 0.193509 0
M  V30 8601 C 827.395 -0.796879 3.51172 0
M  V30 8602 C 827.248 0.403642 4.47985 0
M  V30 8603 C 828.567 -1.64525 4.08191 0
M  V30 8604 H 825.686 -0.137843 0.723995 0
M  V30 8605 H 828.328 0.343631 1.86867 0
M  V30 8606 H 826.478 -1.41625 3.61766 0
M  V30 8607 H 828.15 1.04204 4.49376 0
M  V30 8608 H 826.393 1.04741 4.20965 0
M  V30 8609 H 827.064 0.0709794 5.51954 0
M  V30 8610 H 829.54 -1.12246 4.00674 0
M  V30 8611 H 828.416 -1.9035 5.14838 0
M  V30 8612 H 828.677 -2.61582 3.56409 0
M  V30 8613 N 827.736 -1.57571 -0.0300757 0
M  V30 8614 C 828.964 -1.93485 -0.732891 0
M  V30 8615 C 829.379 -0.842758 -1.68947 0
M  V30 8616 O 828.736 0.180904 -1.81601 0
M  V30 8617 C 828.787 -3.29328 -1.49082 0
M  V30 8618 O 828.508 -4.34341 -0.572639 0
M  V30 8619 C 830.009 -3.79517 -2.29088 0
M  V30 8620 H 827.229 -0.638588 -0.206026 0
M  V30 8621 H 829.773 -2.04496 0.0120966 0
M  V30 8622 H 827.928 -3.19716 -2.1877 0
M  V30 8623 H 828.342 -5.12748 -1.10406 0
M  V30 8624 H 829.816 -4.77081 -2.77665 0
M  V30 8625 H 830.293 -3.10659 -3.10464 0
M  V30 8626 H 830.899 -3.92208 -1.64477 0
M  V30 8627 N 829.214 0.302327 -1.54673 0
M  V30 8628 C 830.144 1.37759 -1.88533 0
M  V30 8629 C 831.125 1.52961 -0.744113 0
M  V30 8630 O 832.31 1.6649 -0.999731 0
M  V30 8631 C 829.44 2.74201 -2.13146 0
M  V30 8632 C 828.394 2.73765 -3.28993 0
M  V30 8633 C 827.72 4.13483 -3.39022 0
M  V30 8634 C 829.02 2.35624 -4.66132 0
M  V30 8635 H 830.714 1.0967 -2.78591 0
M  V30 8636 H 828.26 0.52613 -1.34044 0
M  V30 8637 H 830.213 3.49508 -2.35419 0
M  V30 8638 H 828.937 3.03812 -1.19858 0
M  V30 8639 H 827.596 2.00914 -3.06642 0
M  V30 8640 H 827.244 4.40269 -2.43253 0
M  V30 8641 H 826.944 4.14093 -4.16894 0
M  V30 8642 H 828.468 4.90572 -3.63553 0
M  V30 8643 H 829.882 3.00647 -4.88143 0
M  V30 8644 H 828.279 2.47449 -5.46707 0
M  V30 8645 H 829.349 1.30753 -4.66939 0
M  V30 8646 N 830.692 1.47107 0.565454 0
M  V30 8647 C 831.655 1.58535 1.65527 0
M  V30 8648 C 832.655 0.461081 1.54048 0
M  V30 8649 O 833.845 0.725911 1.58355 0
M  V30 8650 C 830.977 1.52204 3.05036 0
M  V30 8651 H 832.17 2.55676 1.56747 0
M  V30 8652 H 829.723 1.35174 0.78471 0
M  V30 8653 H 830.458 0.564071 3.19357 0
M  V30 8654 H 830.243 2.3379 3.14777 0
M  V30 8655 H 831.733 1.63322 3.84338 0
M  V30 8656 N 832.17 -0.811516 1.35101 0
M  V30 8657 C 833.395 -1.60499 1.31358 0
M  V30 8658 C 833.82 -1.87793 -0.107383 0
M  V30 8659 O 833.178 -1.46161 -1.07268 0
M  V30 8660 C 833.226 -2.91612 2.12119 0
M  V30 8661 O 832.33 -3.84211 1.49853 0
M  V30 8662 H 831.671 -0.487702 0.450603 0
M  V30 8663 H 834.201 -1.00758 1.7807 0
M  V30 8664 H 834.211 -3.4108 2.23894 0
M  V30 8665 H 832.886 -2.71071 3.15426 0
M  V30 8666 H 831.463 -3.42751 1.46889 0
M  V30 8667 N 833.648 -1.19017 -1.03309 0
M  V30 8668 C 834.578 -0.94772 -2.13402 0
M  V30 8669 C 835.559 0.117383 -1.69694 0
M  V30 8670 O 836.744 -0.0367733 -1.94165 0
M  V30 8671 C 833.874 -0.480977 -3.43953 0
M  V30 8672 C 832.828 -1.48743 -4.01322 0
M  V30 8673 C 832.154 -0.877924 -5.27443 0
M  V30 8674 C 833.454 -2.86642 -4.36616 0
M  V30 8675 H 835.148 -1.86846 -2.33942 0
M  V30 8676 H 832.694 -0.899781 -1.12427 0
M  V30 8677 H 834.647 -0.298677 -4.2034 0
M  V30 8678 H 833.371 0.475348 -3.23122 0
M  V30 8679 H 832.03 -1.65681 -3.27025 0
M  V30 8680 H 831.678 0.0858232 -5.02927 0
M  V30 8681 H 831.378 -1.54996 -5.66789 0
M  V30 8682 H 832.902 -0.706326 -6.06501 0
M  V30 8683 H 834.316 -2.73312 -5.03958 0
M  V30 8684 H 832.713 -3.50599 -4.87032 0
M  V30 8685 H 833.783 -3.39617 -3.46105 0
M  V30 8686 N 835.127 1.22348 -0.993418 0
M  V30 8687 C 836.074 2.24294 -0.544118 0
M  V30 8688 C 837.044 1.60602 0.42381 0
M  V30 8689 O 838.229 1.87952 0.328453 0
M  V30 8690 C 835.369 3.44837 0.134578 0
M  V30 8691 C 834.482 4.23043 -0.875151 0
M  V30 8692 C 833.617 5.30928 -0.169919 0
M  V30 8693 C 832.656 6.00853 -1.16798 0
M  V30 8694 N 831.793 7.00381 -0.491021 0
M  V30 8695 H 836.633 2.6209 -1.4182 0
M  V30 8696 H 834.17 1.2881 -0.710384 0
M  V30 8697 H 836.128 4.13625 0.544998 0
M  V30 8698 H 834.758 3.07804 0.972446 0
M  V30 8699 H 833.81 3.53546 -1.40389 0
M  V30 8700 H 835.122 4.71237 -1.63516 0
M  V30 8701 H 834.276 6.05972 0.297205 0
M  V30 8702 H 833.015 4.8371 0.622586 0
M  V30 8703 H 832.02 5.24591 -1.64573 0
M  V30 8704 H 833.245 6.50159 -1.96137 0
M  V30 8705 H 831.191 6.55393 0.282037 0
M  V30 8706 H 831.108 7.46584 -1.18947 0
M  V30 8707 H 832.376 7.79486 -0.0467169 0
M  V30 8708 N 836.605 0.766683 1.37694 0
M  V30 8709 C 838.016 0.394761 1.82479 0
M  V30 8710 C 838.367 -1.07842 1.63904 0
M  V30 8711 O 837.492 -1.83479 1.14737 0
M  V30 8712 C 838.087 0.70974 3.31283 0
M  V30 8713 C 836.646 0.390936 3.74364 0
M  V30 8714 C 835.793 0.956192 2.60293 0
M  V30 8715 H 838.744 0.961756 1.26238 0
M  V30 8716 H 838.765 -0.00742144 3.80499 0
M  V30 8717 H 838.277 1.782 3.4477 0
M  V30 8718 H 836.378 -0.674213 3.66449 0
M  V30 8719 H 836.491 0.895645 4.70654 0
M  V30 8720 H 834.855 0.380744 2.51838 0
M  V30 8721 H 835.638 2.03375 2.76575 0
M  V30 8722 N 838.083 -1.48885 0.516809 0
M  V30 8723 C 839.329 -2.03395 -0.0140225 0
M  V30 8724 C 839.684 -1.38808 -1.33229 0
M  V30 8725 O 838.977 -0.520104 -1.84406 0
M  V30 8726 C 839.171 -3.56801 -0.206798 0
M  V30 8727 C 839 -4.36259 1.09124 0
M  V30 8728 C 837.77 -4.77689 1.64745 0
M  V30 8729 C 839.968 -4.73881 1.99854 0
M  V30 8730 N 837.95 -5.41634 2.88975 0
M  V30 8731 C 839.321 -5.37707 3.08661 0
M  V30 8732 C 841.376 -4.55816 2.00341 0
M  V30 8733 C 840.079 -5.85379 4.18001 0
M  V30 8734 C 842.105 -5.04459 3.08666 0
M  V30 8735 C 841.467 -5.68299 4.16191 0
M  V30 8736 H 837.566 -0.781169 0.036042 0
M  V30 8737 H 840.15 -1.81867 0.695173 0
M  V30 8738 H 838.321 -3.78181 -0.885064 0
M  V30 8739 H 840.053 -3.9795 -0.736053 0
M  V30 8740 H 836.808 -4.58392 1.19054 0
M  V30 8741 H 837.232 -5.78181 3.52187 0
M  V30 8742 H 841.874 -4.05851 1.18511 0
M  V30 8743 H 839.592 -6.34356 5.00618 0
M  V30 8744 H 843.178 -4.92281 3.10082 0
M  V30 8745 H 842.058 -6.05257 4.98631 0
M  V30 8746 N 839.561 -0.251338 -1.55583 0
M  V30 8747 C 840.789 0.376187 -2.03451 0
M  V30 8748 C 841.204 1.51215 -1.13047 0
M  V30 8749 O 840.561 1.81917 -0.145769 0
M  V30 8750 C 840.612 0.879779 -3.50631 0
M  V30 8751 O 840.333 -0.210917 -4.37592 0
M  V30 8752 C 841.834 1.57754 -4.14281 0
M  V30 8753 H 839.054 0.0888722 -0.665089 0
M  V30 8754 H 841.598 -0.376497 -2.01004 0
M  V30 8755 H 839.753 1.58263 -3.53598 0
M  V30 8756 H 840.167 0.172203 -5.24217 0
M  V30 8757 H 841.641 1.88158 -5.18942 0
M  V30 8758 H 842.118 2.50103 -3.61034 0
M  V30 8759 H 842.724 0.919154 -4.15249 0
M  V30 8760 N 841.039 1.57585 0.0217189 0
M  V30 8761 C 841.971 2.03849 1.04777 0
M  V30 8762 C 842.984 0.952558 1.32023 0
M  V30 8763 O 844.173 1.22974 1.29381 0
M  V30 8764 C 841.273 2.40504 2.3877 0
M  V30 8765 C 840.446 3.71566 2.30775 0
M  V30 8766 C 839.505 3.95329 3.47277 0
M  V30 8767 O 838.531 4.66289 3.26441 0
M  V30 8768 N 839.733 3.41536 4.69397 0
M  V30 8769 H 842.498 2.92491 0.653395 0
M  V30 8770 H 840.059 1.60538 0.209527 0
M  V30 8771 H 842.051 2.53532 3.15442 0
M  V30 8772 H 840.621 1.57494 2.70027 0
M  V30 8773 H 839.841 3.68822 1.39155 0
M  V30 8774 H 841.129 4.5753 2.22584 0
M  V30 8775 H 840.527 2.84033 4.89226 0
M  V30 8776 H 839.084 3.59932 5.43408 0
M  V30 8777 N 842.517 -0.29412 1.54831 0
M  V30 8778 C 843.747 -1.04572 1.7818 0
M  V30 8779 C 844.155 -1.81187 0.544776 0
M  V30 8780 O 843.498 -1.769 -0.495169 0
M  V30 8781 C 843.56 -2.06748 2.94101 0
M  V30 8782 C 843.224 -1.49265 4.31936 0
M  V30 8783 C 844.221 -0.919136 5.11711 0
M  V30 8784 C 841.906 -1.52621 4.78552 0
M  V30 8785 C 843.9 -0.386824 6.36225 0
M  V30 8786 C 841.587 -0.990031 6.03027 0
M  V30 8787 C 842.585 -0.421315 6.81699 0
M  V30 8788 O 842.273 0.106713 8.03829 0
M  V30 8789 H 842.005 -0.31559 0.597812 0
M  V30 8790 H 844.559 -0.336817 2.0262 0
M  V30 8791 H 842.789 -2.81339 2.65303 0
M  V30 8792 H 844.478 -2.67865 3.04964 0
M  V30 8793 H 845.244 -0.886062 4.76837 0
M  V30 8794 H 841.123 -1.95826 4.17341 0
M  V30 8795 H 844.667 0.0577248 6.97576 0
M  V30 8796 H 840.564 -1.02027 6.37386 0
M  V30 8797 H 841.332 -0.00593526 8.185 0
M  V30 8798 N 843.995 -1.47404 -0.557645 0
M  V30 8799 C 844.958 -1.59411 -1.64684 0
M  V30 8800 C 845.958 -0.469244 -1.53801 0
M  V30 8801 O 847.148 -0.734298 -1.57967 0
M  V30 8802 C 844.28 -1.5382 -3.04224 0
M  V30 8803 H 845.473 -2.56504 -1.55389 0
M  V30 8804 H 843.026 -1.35588 -0.777531 0
M  V30 8805 H 843.761 -0.581 -3.19053 0
M  V30 8806 H 843.546 -2.35456 -3.13533 0
M  V30 8807 H 845.036 -1.65358 -3.83466 0
M  V30 8808 N 845.473 0.80434 -1.35529 0
M  V30 8809 C 846.719 1.56385 -1.29118 0
M  V30 8810 C 847.052 1.9374 0.133536 0
M  V30 8811 O 846.327 1.6153 1.08344 0
M  V30 8812 C 846.61 2.85097 -2.19981 0
M  V30 8813 C 846.463 2.54204 -3.7108 0
M  V30 8814 C 847.782 3.86817 -2.09907 0
M  V30 8815 H 844.901 0.567382 -0.470368 0
M  V30 8816 H 847.543 0.925235 -1.6595 0
M  V30 8817 H 845.693 3.39594 -1.88701 0
M  V30 8818 H 847.365 2.05872 -4.12813 0
M  V30 8819 H 845.608 1.87364 -3.91251 0
M  V30 8820 H 846.279 3.46068 -4.30048 0
M  V30 8821 H 848.755 3.41725 -2.37409 0
M  V30 8822 H 847.631 4.7465 -2.75678 0
M  V30 8823 H 847.892 4.28663 -1.08171 0
M  V30 8824 N 846.951 1.19563 1.02676 0
M  V30 8825 C 848.198 0.999568 1.7611 0
M  V30 8826 C 848.526 -0.469432 1.8875 0
M  V30 8827 O 847.781 -1.36481 1.40255 0
M  V30 8828 C 848.08 1.61619 3.18769 0
M  V30 8829 C 847.746 3.11366 3.26132 0
M  V30 8830 C 846.408 3.52234 3.27848 0
M  V30 8831 C 848.76 4.07374 3.25109 0
M  V30 8832 C 846.088 4.87658 3.26201 0
M  V30 8833 C 848.44 5.42731 3.25002 0
M  V30 8834 C 847.104 5.83027 3.25017 0
M  V30 8835 H 846.374 0.365768 0.644434 0
M  V30 8836 H 849.021 1.48838 1.20497 0
M  V30 8837 H 847.326 1.04974 3.77476 0
M  V30 8838 H 849.023 1.43975 3.74262 0
M  V30 8839 H 845.613 2.78804 3.25525 0
M  V30 8840 H 849.797 3.76842 3.22961 0
M  V30 8841 H 845.053 5.18156 3.24537 0
M  V30 8842 H 849.227 6.16879 3.23161 0
M  V30 8843 H 846.854 6.87936 3.23494 0
M  V30 8844 N 848.429 -1.21819 0.999893 0
M  V30 8845 C 849.675 -1.91035 0.680701 0
M  V30 8846 C 850.008 -1.77582 -0.786021 0
M  V30 8847 O 849.283 -1.14917 -1.56921 0
M  V30 8848 C 849.566 -3.43013 1.0961 0
M  V30 8849 C 849.419 -3.65481 2.6219 0
M  V30 8850 C 850.738 -4.35204 0.654616 0
M  V30 8851 H 847.857 -0.693748 0.248763 0
M  V30 8852 H 850.499 -1.43555 1.24466 0
M  V30 8853 H 848.649 -3.83581 0.616253 0
M  V30 8854 H 850.321 -3.34273 3.17899 0
M  V30 8855 H 848.564 -3.09522 3.03938 0
M  V30 8856 H 849.235 -4.71945 2.86307 0
M  V30 8857 H 851.711 -4.0219 1.06688 0
M  V30 8858 H 850.587 -5.40198 0.973492 0
M  V30 8859 H 850.848 -4.3986 -0.444458 0
M  V30 8860 N 849.908 -0.773975 -1.37286 0
M  V30 8861 C 851.324 -0.45386 -1.53011 0
M  V30 8862 C 851.524 1.03018 -1.73175 0
M  V30 8863 O 850.58 1.81597 -1.75438 0
M  V30 8864 C 851.893 -1.27087 -2.72524 0
M  V30 8865 C 853.441 -1.26299 -2.86387 0
M  V30 8866 C 853.916 -2.0634 -4.08886 0
M  V30 8867 N 855.407 -2.03706 -4.16003 0
M  V30 8868 C 856.142 -2.62418 -5.09828 0
M  V30 8869 N 855.638 -3.29926 -6.09197 0
M  V30 8870 N 857.431 -2.52236 -5.02328 0
M  V30 8871 H 849.582 -1.73551 -1.22449 0
M  V30 8872 H 851.845 -0.736874 -0.596423 0
M  V30 8873 H 851.551 -2.32263 -2.64096 0
M  V30 8874 H 851.425 -0.90157 -3.66267 0
M  V30 8875 H 853.812 -0.219213 -2.94285 0
M  V30 8876 H 853.893 -1.67195 -1.93596 0
M  V30 8877 H 853.537 -3.10741 -4.01749 0
M  V30 8878 H 853.467 -1.62825 -5.00795 0
M  V30 8879 H 855.958 -1.54559 -3.44848 0
M  V30 8880 H 856.271 -3.72095 -6.77322 0
M  V30 8881 H 854.616 -3.34026 -6.09469 0
M  V30 8882 H 857.807 -1.99108 -4.23643 0
M  V30 8883 H 857.98 -2.98286 -5.75265 0
M  V30 8884 N 851.386 1.48609 -0.524698 0
M  V30 8885 C 852.349 2.28041 0.230166 0
M  V30 8886 C 853.349 1.35065 0.872584 0
M  V30 8887 O 854.539 1.58007 0.73345 0
M  V30 8888 C 851.671 3.13778 1.33252 0
M  V30 8889 H 852.864 2.96239 -0.467161 0
M  V30 8890 H 850.417 1.53763 -0.280452 0
M  V30 8891 H 851.152 2.502 2.06327 0
M  V30 8892 H 850.937 3.82165 0.877058 0
M  V30 8893 H 852.427 3.7371 1.86362 0
M  V30 8894 N 852.864 0.259585 1.55447 0
M  V30 8895 C 854.113 -0.362163 1.98422 0
M  V30 8896 C 854.426 -1.58135 1.1512 0
M  V30 8897 O 855.632 -2.27506 1.48166 0
M  V30 8898 C 854.088 -0.695722 3.53111 0
M  V30 8899 C 853.696 0.502784 4.4517 0
M  V30 8900 C 855.44 -1.28096 4.04712 0
M  V30 8901 C 853.347 0.144674 5.91223 0
M  V30 8902 H 852.277 -0.139092 0.74106 0
M  V30 8903 H 854.928 0.361798 1.79898 0
M  V30 8904 H 853.31 -1.47816 3.67378 0
M  V30 8905 H 854.484 1.27994 4.42667 0
M  V30 8906 H 852.799 1.0038 4.0412 0
M  V30 8907 H 855.396 -1.56243 5.11363 0
M  V30 8908 H 855.739 -2.20969 3.52815 0
M  V30 8909 H 856.272 -0.561146 3.93822 0
M  V30 8910 H 853.011 1.04087 6.47183 0
M  V30 8911 H 852.531 -0.596023 5.96831 0
M  V30 8912 H 854.21 -0.268651 6.46442 0
M  V30 8913 N 854.342 -1.57594 -0.0133615 0
M  V30 8914 C 855.57 -1.94251 -0.712328 0
M  V30 8915 C 855.985 -0.86063 -1.68043 0
M  V30 8916 O 855.342 0.161632 -1.81783 0
M  V30 8917 C 855.393 -3.30891 -1.45581 0
M  V30 8918 O 855.114 -4.34924 -0.526539 0
M  V30 8919 C 856.615 -3.81926 -2.2505 0
M  V30 8920 H 853.835 -0.640737 -0.199241 0
M  V30 8921 H 856.379 -2.04472 0.0337855 0
M  V30 8922 H 854.534 -3.22019 -2.15366 0
M  V30 8923 H 854.948 -5.1389 -1.04962 0
M  V30 8924 H 856.422 -4.79999 -2.72589 0
M  V30 8925 H 856.899 -3.13934 -3.07152 0
M  V30 8926 H 857.505 -3.93931 -1.60308 0
M  V30 8927 N 855.82 0.285905 -1.54985 0
M  V30 8928 C 856.75 1.35752 -1.89983 0
M  V30 8929 C 857.731 1.52163 -0.760295 0
M  V30 8930 O 858.916 1.65421 -1.01733 0
M  V30 8931 C 856.046 2.71925 -2.16042 0
M  V30 8932 C 855 2.70261 -3.31878 0
M  V30 8933 C 854.326 4.09864 -3.43388 0
M  V30 8934 C 855.626 2.30667 -4.68604 0
M  V30 8935 H 857.32 1.06709 -2.79738 0
M  V30 8936 H 854.866 0.511884 -1.34595 0
M  V30 8937 H 856.819 3.46992 -2.39113 0
M  V30 8938 H 855.543 3.02523 -1.23074 0
M  V30 8939 H 854.202 1.97651 -3.08755 0
M  V30 8940 H 853.85 4.37664 -2.47909 0
M  V30 8941 H 853.55 4.09648 -4.21262 0
M  V30 8942 H 855.074 4.86689 -3.68736 0
M  V30 8943 H 856.488 2.95453 -4.91305 0
M  V30 8944 H 854.885 2.41637 -5.49301 0
M  V30 8945 H 855.955 1.25793 -4.68299 0
M  V30 8946 N 857.298 1.47698 0.54982 0
M  V30 8947 C 858.526 1.5833 1.33188 0
M  V30 8948 C 858.941 0.236193 1.87317 0
M  V30 8949 O 858.298 -0.77167 1.65383 0
M  V30 8950 C 858.349 2.61438 2.49664 0
M  V30 8951 O 858.07 3.9092 1.97771 0
M  V30 8952 C 859.571 2.82324 3.41772 0
M  V30 8953 H 856.791 0.53443 0.405741 0
M  V30 8954 H 859.335 1.93375 0.665309 0
M  V30 8955 H 857.49 2.29307 3.12245 0
M  V30 8956 H 857.904 4.47323 2.73866 0
M  V30 8957 H 859.378 3.58316 4.19897 0
M  V30 8958 H 859.855 1.90416 3.95776 0
M  V30 8959 H 860.461 3.15682 2.85 0
M  V30 8960 N 858.776 -0.797141 1.35954 0
M  V30 8961 C 860.004 -1.5858 1.32891 0
M  V30 8962 C 860.419 -1.88578 -0.0915564 0
M  V30 8963 O 859.776 -1.49532 -1.04625 0
M  V30 8964 C 859.827 -2.91143 2.14284 0
M  V30 8965 O 859.548 -2.62442 3.50793 0
M  V30 8966 C 861.049 -3.85476 2.18914 0
M  V30 8967 H 858.269 -0.492111 0.456144 0
M  V30 8968 H 860.813 -0.98994 1.78943 0
M  V30 8969 H 858.968 -3.47219 1.71807 0
M  V30 8970 H 859.382 -3.4715 3.93175 0
M  V30 8971 H 860.856 -4.75574 2.80238 0
M  V30 8972 H 861.333 -4.22758 1.19047 0
M  V30 8973 H 861.939 -3.35334 2.61593 0
M  V30 8974 N 860.254 -1.20106 -1.0204 0
M  V30 8975 C 861.164 -0.962051 -2.13967 0
M  V30 8976 C 862.18 0.0808053 -1.73812 0
M  V30 8977 O 863.356 -0.105774 -2.01122 0
M  V30 8978 C 860.421 -0.513108 -3.42882 0
M  V30 8979 C 859.482 -1.62636 -3.97301 0
M  V30 8980 C 858.715 -1.19875 -5.20063 0
M  V30 8981 O 858.938 -0.0658423 -5.70362 0
M  V30 8982 O 857.872 -2.00467 -5.67536 0
M  V30 8983 H 861.698 -1.8991 -2.36998 0
M  V30 8984 H 859.283 -0.984608 -1.12365 0
M  V30 8985 H 861.165 -0.271797 -4.20523 0
M  V30 8986 H 859.84 0.395402 -3.21276 0
M  V30 8987 H 858.747 -1.92192 -3.20957 0
M  V30 8988 H 860.08 -2.51174 -4.23288 0
M  V30 8989 N 861.732 1.21287 -1.00634 0
M  V30 8990 C 862.642 2.27388 -0.577226 0
M  V30 8991 C 863.658 1.69791 0.380399 0
M  V30 8992 O 864.834 1.99918 0.2439 0
M  V30 8993 C 861.899 3.46588 0.0880532 0
M  V30 8994 C 860.96 4.19453 -0.914222 0
M  V30 8995 C 860.193 5.32962 -0.280596 0
M  V30 8996 O 860.416 5.62895 0.922265 0
M  V30 8997 O 859.35 5.93666 -0.992196 0
M  V30 8998 H 863.176 2.66289 -1.46028 0
M  V30 8999 H 860.761 1.2771 -0.775283 0
M  V30 9000 H 862.643 4.18881 0.460094 0
M  V30 9001 H 861.318 3.09585 0.945461 0
M  V30 9002 H 860.225 3.49376 -1.33744 0
M  V30 9003 H 861.558 4.6037 -1.74126 0
M  V30 9004 N 863.21 0.781244 1.36873 0
M  V30 9005 C 864.487 0.274217 1.93668 0
M  V30 9006 C 864.867 -1.2323 1.71399 0
M  V30 9007 O 864.215 -2.01993 1.06822 0
M  V30 9008 C 864.425 0.657939 3.42742 0
M  V30 9009 C 865.773 0.63307 4.19854 0
M  V30 9010 O 866.797 0.597909 3.51146 0
M  V30 9011 O 865.656 0.668636 5.42394 0
M  V30 9012 H 862.75 0.0658059 0.824378 0
M  V30 9013 H 865.296 0.863238 1.46104 0
M  V30 9014 H 864.068 1.69728 3.52573 0
M  V30 9015 H 863.691 0.0423678 3.97577 0
M  V30 9016 N 864.689 -1.48329 0.532571 0
M  V30 9017 C 865.914 -2.074 0.00147755 0
M  V30 9018 C 866.339 -1.38615 -1.27151 0
M  V30 9019 O 865.697 -0.452949 -1.75551 0
M  V30 9020 C 865.745 -3.60029 -0.202866 0
M  V30 9021 O 864.849 -3.92327 -1.27097 0
M  V30 9022 H 864.19 -0.662777 0.0402883 0
M  V30 9023 H 866.72 -1.90701 0.741224 0
M  V30 9024 H 866.73 -4.05783 -0.424722 0
M  V30 9025 H 865.405 -4.09496 0.727033 0
M  V30 9026 H 863.982 -3.58348 -1.03156 0
M  V30 9027 N 866.167 -0.267825 -1.55308 0
M  V30 9028 C 867.578 0.231344 -1.85261 0
M  V30 9029 C 867.929 1.56006 -1.18982 0
M  V30 9030 O 867.054 2.1111 -0.475554 0
M  V30 9031 C 867.649 0.426537 -3.36104 0
M  V30 9032 C 866.208 0.869945 -3.66209 0
M  V30 9033 C 865.355 -0.0409522 -2.7727 0
M  V30 9034 H 868.306 -0.489821 -1.50952 0
M  V30 9035 H 868.327 1.26616 -3.58816 0
M  V30 9036 H 867.839 -0.540678 -3.84315 0
M  V30 9037 H 865.94 1.84889 -3.23492 0
M  V30 9038 H 866.053 0.712316 -4.73775 0
M  V30 9039 H 864.417 0.474097 -2.50249 0
M  V30 9040 H 865.2 -1.00392 -3.28293 0
M  V30 9041 N 867.645 1.57599 0.00500368 0
M  V30 9042 C 868.595 2.04585 1.00643 0
M  V30 9043 C 869.579 0.939622 1.30614 0
M  V30 9044 O 870.771 1.20342 1.29796 0
M  V30 9045 C 867.9 2.5486 2.30002 0
M  V30 9046 C 866.986 3.7235 2.03017 0
M  V30 9047 N 867.377 4.84218 1.46173 0
M  V30 9048 C 865.675 3.80185 2.33185 0
M  V30 9049 C 866.376 5.65688 1.35544 0
M  V30 9050 N 865.352 5.11536 1.83933 0
M  V30 9051 H 869.154 2.8849 0.561332 0
M  V30 9052 H 866.668 1.61026 0.210808 0
M  V30 9053 H 868.665 2.86794 3.0258 0
M  V30 9054 H 867.325 1.72372 2.75169 0
M  V30 9055 H 868.336 5.0517 1.1412 0
M  V30 9056 H 865.013 3.08543 2.81261 0
M  V30 9057 H 866.403 6.65588 0.918791 0
M  V30 9058 N 869.123 -0.277682 1.55134 0
M  V30 9059 C 870.055 -1.36531 1.84098 0
M  V30 9060 C 871.068 -1.45756 0.725194 0
M  V30 9061 O 872.257 -1.47656 1.00299 0
M  V30 9062 C 869.357 -2.74701 1.98476 0
M  V30 9063 C 868.53 -2.88125 3.29094 0
M  V30 9064 C 867.589 -4.0694 3.33596 0
M  V30 9065 O 866.615 -3.9792 4.06999 0
M  V30 9066 N 867.817 -5.18687 2.60661 0
M  V30 9067 H 870.582 -1.12032 2.77973 0
M  V30 9068 H 868.143 -0.467793 1.54995 0
M  V30 9069 H 870.135 -3.52471 1.98863 0
M  V30 9070 H 868.705 -2.92043 1.11488 0
M  V30 9071 H 867.925 -1.97277 3.41285 0
M  V30 9072 H 869.213 -2.94021 4.15246 0
M  V30 9073 H 868.611 -5.28901 2.00699 0
M  V30 9074 H 867.168 -5.94705 2.66776 0
M  V30 9075 N 870.601 -1.47988 -0.541979 0
M  V30 9076 C 871.849 -1.55086 -1.29587 0
M  V30 9077 C 872.17 -0.221304 -1.9374 0
M  V30 9078 O 871.44 0.756128 -1.80719 0
M  V30 9079 H 870.02 -0.571307 -0.481266 0
M  V30 9080 H 872.682 -1.8438 -0.631675 0
M  V30 9081 H 871.778 -2.32556 -2.08144 0
M  V30 9082 N 872.079 0.78992 -1.36375 0
M  V30 9083 C 873.042 1.88414 -1.30509 0
M  V30 9084 C 874.042 1.59384 -0.2129 0
M  V30 9085 O 875.232 1.67805 -0.467651 0
M  V30 9086 C 872.364 3.25188 -1.02302 0
M  V30 9087 H 873.557 1.95031 -2.27822 0
M  V30 9088 H 871.11 0.987664 -1.2114 0
M  V30 9089 H 871.845 3.24254 -0.0544486 0
M  V30 9090 H 871.63 3.47647 -1.81338 0
M  V30 9091 H 873.12 4.05252 -1.00801 0
M  V30 9092 N 873.557 1.20646 1.01402 0
M  V30 9093 C 874.489 0.915392 2.10127 0
M  V30 9094 C 875.502 -0.0978705 1.62506 0
M  V30 9095 O 876.691 0.133477 1.78 0
M  V30 9096 C 873.791 0.351304 3.37074 0
M  V30 9097 C 872.964 1.41673 4.13821 0
M  V30 9098 C 872.023 0.8635 5.19067 0
M  V30 9099 O 871.049 1.54481 5.47836 0
M  V30 9100 N 872.251 -0.325799 5.79585 0
M  V30 9101 H 875.016 1.85132 2.35682 0
M  V30 9102 H 872.577 1.11048 1.17813 0
M  V30 9103 H 874.569 -0.032996 4.04687 0
M  V30 9104 H 873.139 -0.489242 3.08748 0
M  V30 9105 H 872.359 1.97526 3.41141 0
M  V30 9106 H 873.647 2.1342 4.61876 0
M  V30 9107 H 873.045 -0.896534 5.58551 0
M  V30 9108 H 871.602 -0.651708 6.48534 0
M  V30 9109 N 875.035 -1.20752 1.01276 0
M  V30 9110 C 876.26 -1.94547 0.718769 0
M  V30 9111 C 876.685 -1.7404 -0.713563 0
M  V30 9112 O 876.043 -1.03221 -1.49047 0
M  V30 9113 C 876.091 -3.44823 1.05497 0
M  V30 9114 O 875.195 -4.12072 0.164516 0
M  V30 9115 H 874.536 -0.607931 0.267051 0
M  V30 9116 H 877.066 -1.53292 1.35509 0
M  V30 9117 H 877.076 -3.95427 1.00507 0
M  V30 9118 H 875.751 -3.59072 2.09858 0
M  V30 9119 H 874.328 -3.71909 0.271615 0
M  V30 9120 N 876.513 -0.788492 -1.36457 0
M  V30 9121 C 877.924 -0.423742 -1.81828 0
M  V30 9122 C 878.275 1.05221 -1.65599 0
M  V30 9123 O 877.4 1.8163 -1.17641 0
M  V30 9124 C 877.995 -0.762354 -3.30112 0
M  V30 9125 C 876.554 -0.450445 -3.73695 0
M  V30 9126 C 875.701 -0.997482 -2.58738 0
M  V30 9127 H 878.652 -0.981718 -1.24692 0
M  V30 9128 H 878.673 -0.0531136 -3.80463 0
M  V30 9129 H 878.185 -1.83662 -3.41891 0
M  V30 9130 H 876.286 0.615829 -3.67476 0
M  V30 9131 H 876.399 -0.970408 -4.69169 0
M  V30 9132 H 874.763 -0.420761 -2.51201 0
M  V30 9133 H 875.546 -2.07749 -2.73304 0
M  V30 9134 N 877.991 1.48044 -0.54043 0
M  V30 9135 C 879.24 2.01698 -0.00809961 0
M  V30 9136 C 879.553 1.42184 1.34325 0
M  V30 9137 O 880.759 1.87398 1.96454 0
M  V30 9138 C 879.215 3.59882 0.035933 0
M  V30 9139 C 878.823 4.28384 -1.31115 0
M  V30 9140 C 880.567 4.21346 0.51654 0
M  V30 9141 C 878.474 5.78529 -1.22714 0
M  V30 9142 H 877.404 0.754 0.000742174 0
M  V30 9143 H 880.055 1.70204 -0.685775 0
M  V30 9144 H 878.437 3.88264 0.778906 0
M  V30 9145 H 879.611 4.11663 -2.07051 0
M  V30 9146 H 877.926 3.78837 -1.72834 0
M  V30 9147 H 880.523 5.31351 0.597529 0
M  V30 9148 H 880.866 3.87373 1.52473 0
M  V30 9149 H 881.399 3.97432 -0.171064 0
M  V30 9150 H 878.138 6.17093 -2.21081 0
M  V30 9151 H 877.658 5.97634 -0.50931 0
M  V30 9152 H 879.337 6.40395 -0.92216 0
M  V30 9153 N 879.47 0.276058 1.55163 0
M  V30 9154 C 880.716 -0.340959 1.99913 0
M  V30 9155 C 881.049 -1.55434 1.16422 0
M  V30 9156 O 880.324 -1.93081 0.234517 0
M  V30 9157 C 880.607 -0.722211 3.52783 0
M  V30 9158 C 880.46 0.498575 4.47028 0
M  V30 9159 C 881.779 -1.5583 4.11589 0
M  V30 9160 H 878.898 -0.122455 0.726756 0
M  V30 9161 H 881.54 0.38319 1.86096 0
M  V30 9162 H 879.69 -1.33919 3.64689 0
M  V30 9163 H 881.362 1.13713 4.47065 0
M  V30 9164 H 879.605 1.13646 4.18649 0
M  V30 9165 H 880.276 0.188041 5.5168 0
M  V30 9166 H 882.752 -1.03722 4.02965 0
M  V30 9167 H 881.628 -1.79387 5.1876 0
M  V30 9168 H 881.889 -2.53963 3.61877 0
M  V30 9169 N 880.948 -1.576 0.00335426 0
M  V30 9170 C 882.178 -1.94713 -0.690682 0
M  V30 9171 C 882.586 -0.876915 -1.67651 0
M  V30 9172 O 881.929 0.152434 -1.83066 0
M  V30 9173 C 881.991 -3.27833 -1.47532 0
M  V30 9174 C 881.655 -4.52344 -0.650704 0
M  V30 9175 C 882.652 -5.19862 0.0630537 0
M  V30 9176 C 880.337 -4.98755 -0.595687 0
M  V30 9177 C 882.331 -6.32093 0.820779 0
M  V30 9178 C 880.018 -6.10875 0.165761 0
M  V30 9179 C 881.016 -6.77401 0.872724 0
M  V30 9180 O 880.704 -7.87372 1.62174 0
M  V30 9181 H 880.436 -0.646627 -0.197104 0
M  V30 9182 H 882.99 -2.05335 0.0516082 0
M  V30 9183 H 881.22 -3.13628 -2.26217 0
M  V30 9184 H 882.909 -3.50034 -2.05501 0
M  V30 9185 H 883.675 -4.84991 0.0297223 0
M  V30 9186 H 879.554 -4.46797 -1.13549 0
M  V30 9187 H 883.098 -6.83953 1.37312 0
M  V30 9188 H 878.995 -6.45187 0.200901 0
M  V30 9189 H 879.763 -8.03905 1.5388 0
M  V30 9190 N 882.426 0.269451 -1.5528 0
M  V30 9191 C 883.356 1.33729 -1.91413 0
M  V30 9192 C 884.337 1.51348 -0.776391 0
M  V30 9193 O 885.522 1.64332 -1.03482 0
M  V30 9194 C 882.652 2.69618 -2.18914 0
M  V30 9195 C 881.606 2.66725 -3.34726 0
M  V30 9196 C 880.932 4.06199 -3.47716 0
M  V30 9197 C 882.232 2.25684 -4.71025 0
M  V30 9198 H 883.926 1.03736 -2.80854 0
M  V30 9199 H 881.472 0.497579 -1.3513 0
M  V30 9200 H 883.425 3.44436 -2.42779 0
M  V30 9201 H 882.149 3.01201 -1.26275 0
M  V30 9202 H 880.808 1.94365 -3.10834 0
M  V30 9203 H 880.456 4.3501 -2.52537 0
M  V30 9204 H 880.156 4.05157 -4.25583 0
M  V30 9205 H 881.68 4.8275 -3.73877 0
M  V30 9206 H 883.094 2.90225 -4.94411 0
M  V30 9207 H 881.491 2.35797 -5.51833 0
M  V30 9208 H 882.561 1.20819 -4.69607 0
M  V30 9209 N 883.904 1.48273 0.534124 0
M  V30 9210 C 885.32 1.34302 0.862272 0
M  V30 9211 C 885.52 0.350902 1.98421 0
M  V30 9212 O 884.576 -0.229364 2.51456 0
M  V30 9213 C 885.889 2.74227 1.23371 0
M  V30 9214 C 887.437 2.82684 1.34383 0
M  V30 9215 C 887.912 4.23301 1.74871 0
M  V30 9216 N 889.403 4.25954 1.81981 0
M  V30 9217 C 890.138 5.31693 2.14686 0
M  V30 9218 N 889.634 6.47714 2.45844 0
M  V30 9219 N 891.427 5.19084 2.15657 0
M  V30 9220 H 883.578 2.11397 -0.206215 0
M  V30 9221 H 885.841 0.947537 -0.0296116 0
M  V30 9222 H 885.547 3.48368 0.482967 0
M  V30 9223 H 885.421 3.07485 2.18478 0
M  V30 9224 H 887.808 2.08801 2.08534 0
M  V30 9225 H 887.889 2.5305 0.374063 0
M  V30 9226 H 887.533 4.97699 1.01282 0
M  V30 9227 H 887.463 4.50376 2.7289 0
M  V30 9228 H 889.954 3.42266 1.60196 0
M  V30 9229 H 890.267 7.2414 2.69892 0
M  V30 9230 H 888.612 6.50995 2.43372 0
M  V30 9231 H 891.803 4.27463 1.9077 0
M  V30 9232 H 891.976 6.01592 2.40813 0
M  V30 9233 N 885.382 -0.782676 1.36792 0
M  V30 9234 C 886.61 -1.57162 1.34565 0
M  V30 9235 C 887.025 -1.88664 -0.0715501 0
M  V30 9236 O 886.382 -1.50633 -1.03033 0
M  V30 9237 C 886.433 -2.88854 2.1736 0
M  V30 9238 O 886.154 -2.58707 3.53557 0
M  V30 9239 C 887.655 -3.83132 2.2299 0
M  V30 9240 H 884.875 -0.487245 0.461338 0
M  V30 9241 H 887.419 -0.970905 1.79982 0
M  V30 9242 H 885.574 -3.45377 1.7548 0
M  V30 9243 H 885.988 -3.42961 3.96835 0
M  V30 9244 H 887.462 -4.72575 2.85266 0
M  V30 9245 H 887.939 -4.21472 1.23524 0
M  V30 9246 H 888.545 -3.32541 2.65135 0
M  V30 9247 N 886.86 -1.21182 -1.00761 0
M  V30 9248 C 887.79 -0.992773 -2.11344 0
M  V30 9249 C 888.771 0.0813618 -1.69905 0
M  V30 9250 O 889.956 -0.0779503 -1.94043 0
M  V30 9251 C 887.086 -0.553826 -3.42856 0
M  V30 9252 C 886.04 -1.57223 -3.98077 0
M  V30 9253 C 885.366 -0.989605 -5.25463 0
M  V30 9254 C 886.666 -2.95839 -4.30438 0
M  V30 9255 H 888.36 -1.91766 -2.29927 0
M  V30 9256 H 885.906 -0.923426 -1.10494 0
M  V30 9257 H 887.859 -0.387771 -4.19612 0
M  V30 9258 H 886.583 0.406702 -3.24058 0
M  V30 9259 H 885.242 -1.7258 -3.23437 0
M  V30 9260 H 884.89 -0.0208743 -5.02996 0
M  V30 9261 H 884.59 -1.66984 -5.63374 0
M  V30 9262 H 886.114 -0.834815 -6.04866 0
M  V30 9263 H 887.528 -2.8394 -4.98047 0
M  V30 9264 H 885.925 -3.60851 -4.79486 0
M  V30 9265 H 886.995 -3.46882 -3.38823 0
M  V30 9266 N 888.338 1.20213 -1.01915 0
M  V30 9267 C 889.749 1.7136 -0.741131 0
M  V30 9268 C 890.1 1.81705 0.740107 0
M  V30 9269 O 889.225 1.48139 1.57746 0
M  V30 9270 C 889.82 3.11231 -1.33869 0
M  V30 9271 C 888.379 3.59677 -1.10948 0
M  V30 9272 C 887.526 2.36809 -1.4428 0
M  V30 9273 H 890.477 1.05191 -1.1883 0
M  V30 9274 H 890.498 3.7342 -0.730585 0
M  V30 9275 H 890.01 3.03669 -2.41675 0
M  V30 9276 H 888.111 3.72568 -0.0492052 0
M  V30 9277 H 888.224 4.44351 -1.79134 0
M  V30 9278 H 886.588 2.39674 -0.861881 0
M  V30 9279 H 887.371 2.31886 -2.53148 0
M  V30 9280 N 889.816 0.795718 1.36037 0
M  V30 9281 C 890.779 0.204318 2.28287 0
M  V30 9282 C 891.779 -0.602017 1.49105 0
M  V30 9283 O 892.969 -0.422089 1.69009 0
M  V30 9284 C 890.101 -0.716431 3.33287 0
M  V30 9285 H 891.294 1.01781 2.821 0
M  V30 9286 H 888.847 0.565588 1.45708 0
M  V30 9287 H 889.582 -1.55403 2.84641 0
M  V30 9288 H 889.367 -0.140096 3.9185 0
M  V30 9289 H 890.857 -1.12488 4.02164 0
M  V30 9290 N 891.294 -1.47756 0.548274 0
M  V30 9291 C 892.257 -2.28379 -0.193857 0
M  V30 9292 C 893.257 -1.36436 -0.850986 0
M  V30 9293 O 894.447 -1.59154 -0.70822 0
M  V30 9294 C 891.579 -3.15858 -1.28243 0
M  V30 9295 H 892.772 -2.95458 0.514231 0
M  V30 9296 H 890.325 -1.53298 0.304879 0
M  V30 9297 H 891.06 -2.5345 -2.0232 0
M  V30 9298 H 890.845 -3.83512 -0.816148 0
M  V30 9299 H 892.335 -3.76627 -1.80393 0
M  V30 9300 N 892.772 -0.284283 -1.55015 0
M  V30 9301 C 894.183 0.211681 -1.85496 0
M  V30 9302 C 894.534 1.54735 -1.2063 0
M  V30 9303 O 893.659 2.10594 -0.497918 0
M  V30 9304 C 894.254 0.390864 -3.36538 0
M  V30 9305 C 892.813 0.831055 -3.67111 0
M  V30 9306 C 891.96 -0.0703581 -2.77211 0
M  V30 9307 H 894.911 -0.505803 -1.50424 0
M  V30 9308 H 894.932 1.22803 -3.60138 0
M  V30 9309 H 894.444 -0.581409 -3.8372 0
M  V30 9310 H 892.545 1.81447 -3.25434 0
M  V30 9311 H 892.658 0.662026 -4.74504 0
M  V30 9312 H 891.022 0.447528 -2.50737 0
M  V30 9313 H 891.805 -1.03868 -3.2721 0
M  V30 9314 N 894.251 1.57596 -0.0117121 0
M  V30 9315 C 895.479 1.9536 0.681334 0
M  V30 9316 C 895.894 0.887255 1.66653 0
M  V30 9317 O 895.251 -0.132692 1.82017 0
M  V30 9318 C 895.302 3.33165 1.40298 0
M  V30 9319 O 895.023 4.35707 0.45728 0
M  V30 9320 C 896.524 3.85458 2.18946 0
M  V30 9321 H 893.744 0.643826 0.189023 0
M  V30 9322 H 896.288 2.04392 -0.066311 0
M  V30 9323 H 894.443 3.25404 2.10216 0
M  V30 9324 H 894.857 5.15495 0.96773 0
M  V30 9325 H 896.331 4.84275 2.64918 0
M  V30 9326 H 896.808 3.18781 3.02118 0
M  V30 9327 H 897.414 3.96431 1.5402 0
M  V30 9328 N 895.729 -0.261212 1.5542 0
M  V30 9329 C 896.975 -0.992699 1.76843 0
M  V30 9330 C 897.308 -1.8551 0.574428 0
M  V30 9331 O 896.583 -1.89739 -0.427713 0
M  V30 9332 C 896.866 -1.86532 3.08022 0
M  V30 9333 C 896.719 -1.03206 4.378 0
M  V30 9334 C 898.038 -2.85036 3.35324 0
M  V30 9335 H 895.157 -0.359473 0.643388 0
M  V30 9336 H 897.799 -0.264214 1.88154 0
M  V30 9337 H 895.949 -2.48644 2.9851 0
M  V30 9338 H 897.621 -0.430743 4.59285 0
M  V30 9339 H 895.864 -0.335911 4.32497 0
M  V30 9340 H 896.535 -1.6761 5.25938 0
M  V30 9341 H 899.011 -2.3306 3.44706 0
M  V30 9342 H 897.887 -3.43226 4.28354 0
M  V30 9343 H 898.148 -3.60768 2.55537 0
M  V30 9344 N 897.207 -1.48554 -0.526253 0
M  V30 9345 C 898.618 -1.50256 -1.10815 0
M  V30 9346 C 898.969 -0.274445 -1.94271 0
M  V30 9347 O 898.094 0.618094 -2.07385 0
M  V30 9348 C 898.689 -2.72264 -2.01638 0
M  V30 9349 C 897.248 -2.76826 -2.55038 0
M  V30 9350 C 896.395 -2.43823 -1.32081 0
M  V30 9351 H 899.346 -1.55616 -0.31133 0
M  V30 9352 H 899.367 -2.50993 -2.85977 0
M  V30 9353 H 898.879 -3.61632 -1.4087 0
M  V30 9354 H 896.98 -1.91676 -3.19517 0
M  V30 9355 H 897.093 -3.78351 -2.93917 0
M  V30 9356 H 895.457 -1.95058 -1.63781 0
M  V30 9357 H 896.24 -3.35436 -0.730596 0
M  V30 9358 N 898.685 0.775411 -1.37205 0
M  V30 9359 C 899.617 1.89761 -1.28544 0
M  V30 9360 C 900.63 1.61542 -0.201996 0
M  V30 9361 O 901.819 1.72528 -0.457848 0
M  V30 9362 C 898.919 3.24904 -0.963885 0
M  V30 9363 C 898.092 3.80796 -2.15205 0
M  V30 9364 C 897.151 4.94407 -1.80135 0
M  V30 9365 O 896.177 5.10185 -2.52388 0
M  V30 9366 N 897.379 5.75722 -0.743298 0
M  V30 9367 H 900.144 1.97708 -2.25237 0
M  V30 9368 H 897.705 0.954348 -1.30782 0
M  V30 9369 H 899.697 3.9842 -0.710182 0
M  V30 9370 H 898.267 3.12483 -0.085632 0
M  V30 9371 H 897.487 2.99101 -2.56773 0
M  V30 9372 H 898.775 4.1487 -2.94552 0
M  V30 9373 H 898.173 5.65518 -0.143655 0
M  V30 9374 H 896.73 6.4948 -0.549446 0
M  V30 9375 N 900.163 1.21714 1.00117 0
M  V30 9376 C 901.44 0.945391 1.71236 0
M  V30 9377 C 901.82 -0.541772 2.0403 0
M  V30 9378 O 901.168 -1.50763 1.71705 0
M  V30 9379 C 901.378 1.83444 2.96899 0
M  V30 9380 C 902.726 2.08558 3.69849 0
M  V30 9381 O 903.75 1.80824 3.06889 0
M  V30 9382 O 902.609 2.55485 4.83104 0
M  V30 9383 H 899.703 0.354834 0.747009 0
M  V30 9384 H 902.249 1.32661 1.05825 0
M  V30 9385 H 901.021 2.84075 2.69105 0
M  V30 9386 H 900.644 1.45428 3.70049 0
M  V30 9387 N 901.641 -1.19671 1.02551 0
M  V30 9388 C 902.887 -1.89548 0.721069 0
M  V30 9389 C 903.22 -1.79209 -0.748176 0
M  V30 9390 O 902.495 -1.1822 -1.54448 0
M  V30 9391 C 902.778 -3.4061 1.16861 0
M  V30 9392 C 902.631 -3.59838 2.69883 0
M  V30 9393 C 903.95 -4.33718 0.746782 0
M  V30 9394 H 901.069 -0.688315 0.263422 0
M  V30 9395 H 903.711 -1.40883 1.27483 0
M  V30 9396 H 901.861 -3.82188 0.697477 0
M  V30 9397 H 903.533 -3.27454 3.24917 0
M  V30 9398 H 901.776 -3.03005 3.10435 0
M  V30 9399 H 902.447 -4.65766 2.96253 0
M  V30 9400 H 904.923 -3.99837 1.15195 0
M  V30 9401 H 903.799 -5.38012 1.08786 0
M  V30 9402 H 904.06 -4.40704 -0.351057 0
M  V30 9403 N 903.119 -0.802921 -1.35613 0
M  V30 9404 C 904.368 -0.378087 -1.98125 0
M  V30 9405 C 904.681 1.05953 -1.64418 0
M  V30 9406 O 905.887 1.58729 -2.20266 0
M  V30 9407 C 904.343 -0.625077 -3.5443 0
M  V30 9408 C 903.951 -2.07499 -3.97049 0
M  V30 9409 C 905.695 -0.265419 -4.23669 0
M  V30 9410 C 903.602 -2.26793 -5.46186 0
M  V30 9411 H 902.532 -0.137633 -0.741332 0
M  V30 9412 H 905.183 -0.986461 -1.54729 0
M  V30 9413 H 903.565 0.0531975 -3.95964 0
M  V30 9414 H 904.739 -2.79077 -3.66678 0
M  V30 9415 H 903.054 -2.39417 -3.40688 0
M  V30 9416 H 905.651 -0.387669 -5.33293 0
M  V30 9417 H 905.994 0.787994 -4.08774 0
M  V30 9418 H 906.527 -0.897464 -3.87544 0
M  V30 9419 H 903.266 -3.30566 -5.66045 0
M  V30 9420 H 902.786 -1.59735 -5.78139 0
M  V30 9421 H 904.465 -2.08165 -6.12598 0
M  V30 9422 N 904.597 1.47463 -0.556102 0
M  V30 9423 C 905.822 2.07371 -0.0344729 0
M  V30 9424 C 906.247 1.40621 1.2493 0
M  V30 9425 O 905.605 0.48082 1.74808 0
M  V30 9426 C 905.653 3.60306 0.145563 0
M  V30 9427 O 904.757 3.94299 1.20839 0
M  V30 9428 H 904.098 0.662052 -0.0508274 0
M  V30 9429 H 906.628 1.89498 -0.771469 0
M  V30 9430 H 906.638 4.06408 0.360112 0
M  V30 9431 H 905.313 4.08288 -0.792089 0
M  V30 9432 H 903.89 3.59944 0.97442 0
M  V30 9433 N 906.075 0.2925 1.54862 0
M  V30 9434 C 907.303 -0.322113 2.04377 0
M  V30 9435 C 907.718 -1.48164 1.17016 0
M  V30 9436 O 907.075 -1.81466 0.19395 0
M  V30 9437 C 907.126 -0.786506 3.5284 0
M  V30 9438 O 906.847 0.326863 4.36879 0
M  V30 9439 C 908.348 -1.46715 4.18318 0
M  V30 9440 H 905.568 -0.0712074 0.667211 0
M  V30 9441 H 908.112 0.429657 1.99935 0
M  V30 9442 H 906.267 -1.48832 3.5767 0
M  V30 9443 H 906.681 -0.0331558 5.2449 0
M  V30 9444 H 908.155 -1.74333 5.23748 0
M  V30 9445 H 908.632 -2.40443 3.67538 0
M  V30 9446 H 909.238 -0.808735 4.1754 0
M  V30 9447 N 907.553 -1.57587 0.0200696 0
M  V30 9448 C 908.778 -1.96124 -0.674547 0
M  V30 9449 C 909.203 -0.896068 -1.65385 0
M  V30 9450 O 908.561 0.143925 -1.80728 0
M  V30 9451 C 908.609 -3.3376 -1.36517 0
M  V30 9452 O 907.713 -3.29483 -2.48022 0
M  V30 9453 H 907.054 -0.639719 -0.177919 0
M  V30 9454 H 909.584 -2.04447 0.0792317 0
M  V30 9455 H 909.594 -3.69785 -1.72403 0
M  V30 9456 H 908.269 -4.10832 -0.647265 0
M  V30 9457 H 906.846 -3.05162 -2.14314 0
M  V30 9458 N 909.032 0.252966 -1.55557 0
M  V30 9459 C 909.98 1.33289 -1.90622 0
M  V30 9460 C 910.974 1.50133 -0.784638 0
M  V30 9461 O 912.18 1.51679 -0.969196 0
M  V30 9462 H 908.555 0.446196 -0.605321 0
M  V30 9463 H 910.526 1.00977 -2.80796 0
M  V30 9464 C 909.275 2.68254 -2.21213 0
M  V30 9465 H 908.598 2.5609 -3.07014 0
M  V30 9466 H 910.038 3.42707 -2.49656 0
M  V30 9467 C 908.497 3.20884 -1.02642 0
M  V30 9468 O 909.027 4.00783 -0.271292 0
M  V30 9469 N 907.233 2.7883 -0.818682 0
M  V30 9470 H 906.78 2.13966 -1.43444 0
M  V30 9471 H 906.738 3.14388 -0.0269989 0
M  V30 9472 N 910.51 1.48831 0.518367 0
M  V30 9473 C 911.735 1.61379 1.30275 0
M  V30 9474 C 912.16 0.278571 1.86026 0
M  V30 9475 O 911.518 -0.751427 1.64995 0
M  V30 9476 C 911.566 2.67225 2.42122 0
M  V30 9477 O 910.67 2.25192 3.45489 0
M  V30 9478 H 910.011 0.540742 0.385349 0
M  V30 9479 H 912.541 1.949 0.622498 0
M  V30 9480 H 912.551 2.88859 2.8814 0
M  V30 9481 H 911.226 3.64155 2.00907 0
M  V30 9482 H 909.803 2.13819 3.05509 0
M  V30 9483 N 911.988 -0.768124 1.37614 0
M  V30 9484 C 913.213 -1.56239 1.36397 0
M  V30 9485 C 913.638 -1.8804 -0.0475839 0
M  V30 9486 O 912.996 -1.495 -1.02564 0
M  V30 9487 C 913.044 -2.84716 2.21289 0
M  V30 9488 O 912.148 -3.79249 1.62001 0
M  V30 9489 H 911.489 -0.473119 0.465891 0
M  V30 9490 H 914.019 -0.950415 1.81186 0
M  V30 9491 H 914.029 -3.33784 2.34632 0
M  V30 9492 H 912.704 -2.60899 3.2389 0
M  V30 9493 H 911.281 -3.37904 1.57719 0
M  V30 9494 N 913.466 -1.22244 -0.994698 0
M  V30 9495 C 914.691 -1.07299 -1.77487 0
M  V30 9496 C 915.116 0.372302 -1.84379 0
M  V30 9497 O 914.474 1.2689 -1.29494 0
M  V30 9498 C 914.522 -1.68675 -3.18718 0
M  V30 9499 O 913.626 -0.939202 -4.01563 0
M  V30 9500 H 912.967 -0.376979 -0.546611 0
M  V30 9501 H 915.497 -1.62003 -1.24965 0
M  V30 9502 H 915.507 -1.73324 -3.69354 0
M  V30 9503 H 914.182 -2.73849 -3.13017 0
M  V30 9504 H 912.759 -0.968583 -3.60101 0
M  V30 9505 N 914.944 1.19125 -1.03184 0
M  V30 9506 C 915.894 2.20348 -0.585731 0
M  V30 9507 C 916.878 1.56656 0.367109 0
M  V30 9508 O 918.07 1.76003 0.187598 0
M  V30 9509 C 915.199 3.43249 0.0590006 0
M  V30 9510 C 914.285 4.1408 -0.916457 0
M  V30 9511 N 914.676 4.61051 -2.08005 0
M  V30 9512 C 912.974 4.39809 -0.74054 0
M  V30 9513 C 913.675 5.15477 -2.69552 0
M  V30 9514 N 912.651 5.06456 -1.97493 0
M  V30 9515 H 916.453 2.54346 -1.47259 0
M  V30 9516 H 913.967 1.35232 -0.899225 0
M  V30 9517 H 915.964 4.15013 0.396236 0
M  V30 9518 H 914.624 3.1075 0.941507 0
M  V30 9519 H 915.635 4.55782 -2.45934 0
M  V30 9520 H 912.312 4.17397 0.0926238 0
M  V30 9521 H 913.702 5.62088 -3.68112 0
M  V30 9522 N 916.422 0.810101 1.35185 0
M  V30 9523 C 917.352 0.237453 2.32289 0
M  V30 9524 C 918.333 -0.639032 1.5764 0
M  V30 9525 O 919.518 -0.568575 1.8569 0
M  V30 9526 C 916.648 -0.611964 3.41866 0
M  V30 9527 C 915.602 0.166318 4.27677 0
M  V30 9528 C 914.928 -0.805024 5.28605 0
M  V30 9529 C 916.228 1.36729 5.04086 0
M  V30 9530 H 917.922 1.04874 2.80432 0
M  V30 9531 H 915.468 0.505751 1.34826 0
M  V30 9532 H 917.421 -1.02267 4.08802 0
M  V30 9533 H 916.145 -1.45617 2.92341 0
M  V30 9534 H 914.804 0.558238 3.62325 0
M  V30 9535 H 914.452 -1.64483 4.75347 0
M  V30 9536 H 914.152 -0.288577 5.86891 0
M  V30 9537 H 915.676 -1.21386 5.98413 0
M  V30 9538 H 917.09 1.03128 5.63948 0
M  V30 9539 H 915.487 1.81848 5.71884 0
M  V30 9540 H 916.557 2.15214 4.34524 0
M  V30 9541 N 917.9 -1.47166 0.563914 0
M  V30 9542 C 918.83 -2.32894 -0.168148 0
M  V30 9543 C 919.811 -1.44202 -0.902214 0
M  V30 9544 O 920.996 -1.73048 -0.881365 0
M  V30 9545 C 918.126 -3.26116 -1.19439 0
M  V30 9546 C 917.08 -4.24101 -0.576363 0
M  V30 9547 C 916.406 -5.06696 -1.70772 0
M  V30 9548 C 917.706 -5.20142 0.47425 0
M  V30 9549 H 919.4 -2.9435 0.547573 0
M  V30 9550 H 916.946 -1.41545 0.264778 0
M  V30 9551 H 918.899 -3.84935 -1.71474 0
M  V30 9552 H 917.623 -2.62728 -1.94014 0
M  V30 9553 H 916.282 -3.66519 -0.0772534 0
M  V30 9554 H 915.93 -4.39707 -2.44268 0
M  V30 9555 H 915.63 -5.7304 -1.29994 0
M  V30 9556 H 917.154 -5.68375 -2.2312 0
M  V30 9557 H 918.568 -5.73286 0.0397035 0
M  V30 9558 H 916.965 -5.94726 0.801287 0
M  V30 9559 H 918.035 -4.65214 1.36764 0
M  V30 9560 N 919.378 -0.300708 -1.54705 0
M  V30 9561 C 920.624 0.309111 -2.0043 0
M  V30 9562 C 920.957 1.53562 -1.1888 0
M  V30 9563 O 920.232 1.92683 -0.265205 0
M  V30 9564 C 920.515 0.665995 -3.53888 0
M  V30 9565 C 920.368 -0.56963 -4.46178 0
M  V30 9566 C 921.687 1.49262 -4.14016 0
M  V30 9567 H 918.806 0.110878 -0.728612 0
M  V30 9568 H 921.448 -0.412748 -1.85463 0
M  V30 9569 H 919.598 1.281 -3.66773 0
M  V30 9570 H 921.27 -1.20811 -4.45199 0
M  V30 9571 H 919.513 -1.20292 -4.16788 0
M  V30 9572 H 920.184 -0.275785 -5.51311 0
M  V30 9573 H 922.66 0.972979 -4.04564 0
M  V30 9574 H 921.536 1.71111 -5.21548 0
M  V30 9575 H 921.797 2.48174 -3.65872 0
M  V30 9576 N 920.856 1.57574 -0.0284266 0
M  V30 9577 C 922.272 1.56194 0.327958 0
M  V30 9578 C 922.472 1.03397 1.72949 0
M  V30 9579 O 921.528 0.680392 2.4316 0
M  V30 9580 C 922.841 3.00177 0.177196 0
M  V30 9581 C 924.389 3.12 0.250014 0
M  V30 9582 C 924.864 4.57821 0.128049 0
M  V30 9583 N 926.355 4.6283 0.185054 0
M  V30 9584 C 927.09 5.73286 0.114454 0
M  V30 9585 N 926.586 6.928 -0.00719225 0
M  V30 9586 N 928.379 5.61848 0.16839 0
M  V30 9587 H 920.53 1.90224 -0.944921 0
M  V30 9588 H 922.793 0.874987 -0.364832 0
M  V30 9589 H 922.499 3.42753 -0.788224 0
M  V30 9590 H 922.373 3.65101 0.94768 0
M  V30 9591 H 924.76 2.69337 1.20589 0
M  V30 9592 H 924.841 2.49799 -0.550835 0
M  V30 9593 H 924.485 5.01165 -0.824407 0
M  V30 9594 H 924.415 5.18001 0.947753 0
M  V30 9595 H 926.906 3.76867 0.279247 0
M  V30 9596 H 927.219 7.72781 -0.0543903 0
M  V30 9597 H 925.564 6.94987 -0.0419648 0
M  V30 9598 H 928.755 4.67367 0.261821 0
M  V30 9599 H 928.928 6.47907 0.109908 0
M  V30 9600 N 922.334 -0.244713 1.55689 0
M  V30 9601 C 923.58 -0.969623 1.78801 0
M  V30 9602 C 923.935 -1.8288 0.597716 0
M  V30 9603 O 923.228 -1.87184 -0.408978 0
M  V30 9604 C 923.422 -1.8617 3.05083 0
M  V30 9605 C 923.251 -1.09036 4.36281 0
M  V30 9606 C 922.021 -0.794585 4.99013 0
M  V30 9607 C 924.219 -0.466883 5.12176 0
M  V30 9608 N 922.201 0.000579944 6.139 0
M  V30 9609 C 923.572 0.192755 6.197 0
M  V30 9610 C 925.627 -0.377571 4.96466 0
M  V30 9611 C 924.33 0.933132 7.13222 0
M  V30 9612 C 926.356 0.349281 5.90368 0
M  V30 9613 C 925.718 0.997549 6.97301 0
M  V30 9614 H 921.817 -0.335845 0.70621 0
M  V30 9615 H 924.401 -0.242559 1.93183 0
M  V30 9616 H 922.572 -2.56077 2.92026 0
M  V30 9617 H 924.304 -2.52234 3.16481 0
M  V30 9618 H 921.059 -1.10691 4.60483 0
M  V30 9619 H 921.483 0.38632 6.75897 0
M  V30 9620 H 926.125 -0.86443 4.13869 0
M  V30 9621 H 923.843 1.43159 7.95318 0
M  V30 9622 H 927.429 0.419082 5.80289 0
M  V30 9623 H 926.309 1.551 7.68709 0
M  V30 9624 N 923.813 -1.49104 -0.510467 0
M  V30 9625 C 924.76 -1.65074 -1.61305 0
M  V30 9626 C 925.73 -0.492362 -1.58635 0
M  V30 9627 O 926.915 -0.718241 -1.76765 0
M  V30 9628 C 924.055 -1.71457 -2.99493 0
M  V30 9629 C 923.168 -2.98536 -3.12251 0
M  V30 9630 C 922.303 -2.95957 -4.41116 0
M  V30 9631 C 921.342 -4.17655 -4.47471 0
M  V30 9632 N 920.479 -4.13041 -5.67751 0
M  V30 9633 H 925.319 -2.59222 -1.46996 0
M  V30 9634 H 922.856 -1.28535 -0.715346 0
M  V30 9635 H 924.814 -1.7314 -3.79577 0
M  V30 9636 H 923.444 -0.807834 -3.12528 0
M  V30 9637 H 922.496 -3.06509 -2.25292 0
M  V30 9638 H 923.808 -3.88527 -3.12807 0
M  V30 9639 H 922.962 -2.96149 -5.2951 0
M  V30 9640 H 921.701 -2.03728 -4.4311 0
M  V30 9641 H 920.706 -4.17717 -3.57481 0
M  V30 9642 H 921.931 -5.11066 -4.472 0
M  V30 9643 H 919.877 -3.23643 -5.70606 0
M  V30 9644 H 919.794 -4.96757 -5.69884 0
M  V30 9645 H 921.062 -4.17322 -6.58379 0
M  V30 9646 N 925.291 0.760815 -1.38019 0
M  V30 9647 C 926.702 1.33773 -1.30237 0
M  V30 9648 C 927.053 1.96148 0.0451153 0
M  V30 9649 O 926.178 1.94574 0.9471 0
M  V30 9650 C 926.773 2.43227 -2.35851 0
M  V30 9651 C 925.332 2.96659 -2.31669 0
M  V30 9652 C 924.479 1.69972 -2.191 0
M  V30 9653 H 927.43 0.560237 -1.48482 0
M  V30 9654 H 927.451 3.22985 -2.01149 0
M  V30 9655 H 926.963 1.978 -3.33911 0
M  V30 9656 H 925.064 3.46433 -1.37167 0
M  V30 9657 H 925.177 3.51529 -3.25521 0
M  V30 9658 H 923.541 1.9332 -1.65829 0
M  V30 9659 H 924.324 1.26633 -3.19091 0
M  V30 9660 N 926.769 1.22769 0.988202 0
M  V30 9661 C 928.18 1.0512 1.54294 0
M  V30 9662 C 928.531 -0.383904 1.92407 0
M  V30 9663 O 927.656 -1.26955 1.75246 0
M  V30 9664 C 928.251 1.90198 2.80375 0
M  V30 9665 C 926.81 1.76831 3.32276 0
M  V30 9666 C 925.957 1.86377 2.05326 0
M  V30 9667 H 928.908 1.36546 0.808758 0
M  V30 9668 H 928.929 1.42216 3.52923 0
M  V30 9669 H 928.441 2.9464 2.52605 0
M  V30 9670 H 926.542 0.751412 3.64945 0
M  V30 9671 H 926.655 2.59771 4.02562 0
M  V30 9672 H 925.019 1.2987 2.19103 0
M  V30 9673 H 925.802 2.9236 1.79946 0
M  V30 9674 N 928.247 -1.18576 1.03814 0
M  V30 9675 C 929.475 -1.92437 0.759966 0
M  V30 9676 C 929.89 -1.76031 -0.682526 0
M  V30 9677 O 929.247 -1.08829 -1.46501 0
M  V30 9678 C 929.298 -3.43923 1.11351 0
M  V30 9679 O 929.019 -3.5981 2.49937 0
M  V30 9680 C 930.52 -4.34888 0.859472 0
M  V30 9681 H 927.74 -0.610998 0.277349 0
M  V30 9682 H 930.284 -1.50448 1.38512 0
M  V30 9683 H 928.439 -3.83711 0.533362 0
M  V30 9684 H 928.853 -4.53569 2.63393 0
M  V30 9685 H 930.327 -5.39744 1.15672 0
M  V30 9686 H 930.804 -4.38717 -0.205839 0
M  V30 9687 H 931.41 -4.00795 1.42279 0
M  V30 9688 N 929.725 -0.817259 -1.34754 0
M  V30 9689 C 930.657 -0.192695 -2.28389 0
M  V30 9690 C 931.67 0.614167 -1.50771 0
M  V30 9691 O 932.859 0.444776 -1.7287 0
M  V30 9692 C 929.959 0.748929 -3.30521 0
M  V30 9693 C 929.132 -0.0138762 -4.37398 0
M  V30 9694 C 928.191 0.847825 -5.19325 0
M  V30 9695 O 927.217 0.29487 -5.68436 0
M  V30 9696 N 928.419 2.16843 -5.38479 0
M  V30 9697 H 931.184 -0.997122 -2.82626 0
M  V30 9698 H 928.745 -0.673696 -1.47217 0
M  V30 9699 H 930.737 1.32987 -3.82226 0
M  V30 9700 H 929.307 1.45412 -2.7672 0
M  V30 9701 H 928.527 -0.776093 -3.86485 0
M  V30 9702 H 929.815 -0.539191 -5.05935 0
M  V30 9703 H 929.213 2.64148 -5.00242 0
M  V30 9704 H 927.77 2.69835 -5.93323 0
M  V30 9705 N 931.203 1.46865 -0.571711 0
M  V30 9706 C 932.619 1.57897 -0.23255 0
M  V30 9707 C 932.819 1.56836 1.26509 0
M  V30 9708 O 931.875 1.47947 2.04617 0
M  V30 9709 C 933.188 2.87778 -0.872036 0
M  V30 9710 C 934.736 3.01389 -0.844605 0
M  V30 9711 C 935.211 4.33991 -1.46343 0
M  V30 9712 N 936.702 4.40662 -1.42727 0
M  V30 9713 C 937.437 5.41858 -1.87557 0
M  V30 9714 N 936.933 6.49787 -2.4031 0
M  V30 9715 N 938.726 5.32992 -1.7854 0
M  V30 9716 H 930.877 1.45798 -1.54457 0
M  V30 9717 H 933.14 0.694785 -0.644964 0
M  V30 9718 H 932.846 2.94332 -1.92513 0
M  V30 9719 H 932.72 3.75345 -0.373677 0
M  V30 9720 H 935.107 2.94423 0.19984 0
M  V30 9721 H 935.188 2.15327 -1.38087 0
M  V30 9722 H 934.832 4.41714 -2.50701 0
M  V30 9723 H 934.762 5.18809 -0.902479 0
M  V30 9724 H 937.253 3.63263 -1.04155 0
M  V30 9725 H 937.566 7.23199 -2.72403 0
M  V30 9726 H 935.911 6.50637 -2.44329 0
M  V30 9727 H 939.102 4.47575 -1.37093 0
M  V30 9728 H 939.275 6.11716 -2.13794 0
M  V30 9729 N 932.681 0.308908 1.54543 0
M  V30 9730 C 933.629 -0.579326 2.2527 0
M  V30 9731 C 934.623 -1.13058 1.26152 0
M  V30 9732 O 935.829 -1.08031 1.43977 0
M  V30 9733 H 932.204 -0.205444 0.723392 0
M  V30 9734 H 934.175 0.0396415 2.98374 0
M  V30 9735 C 932.924 -1.73584 3.01271 0
M  V30 9736 H 932.247 -1.32089 3.77349 0
M  V30 9737 H 933.687 -2.33324 3.54028 0
M  V30 9738 C 932.146 -2.6447 2.08703 0
M  V30 9739 O 932.676 -3.65785 1.66025 0
M  V30 9740 N 930.882 -2.32379 1.74495 0
M  V30 9741 H 930.429 -1.50034 2.09398 0
M  V30 9742 H 930.387 -2.93454 1.12836 0
M  V30 9743 N 934.159 -1.57557 0.0367827 0
M  V30 9744 C 935.407 -1.91735 -0.63892 0
M  V30 9745 C 935.728 -0.914515 -1.72226 0
M  V30 9746 O 934.998 0.0428248 -1.95853 0
M  V30 9747 H 933.578 -0.707738 -0.23899 0
M  V30 9748 H 936.24 -1.94708 0.0863931 0
M  V30 9749 H 935.336 -2.92568 -1.08676 0
M  V30 9750 N 935.637 0.236453 -1.55816 0
M  V30 9751 C 936.585 1.31259 -1.92025 0
M  V30 9752 C 937.579 1.49292 -0.800518 0
M  V30 9753 O 938.785 1.50643 -0.985229 0
M  V30 9754 H 935.16 0.439751 -0.610019 0
M  V30 9755 H 937.131 0.979926 -2.81851 0
M  V30 9756 C 935.88 2.65892 -2.24046 0
M  V30 9757 H 935.203 2.5282 -3.09713 0
M  V30 9758 H 936.643 3.40039 -2.53277 0
M  V30 9759 C 935.102 3.19777 -1.0604 0
M  V30 9760 O 935.632 4.00473 -0.313786 0
M  V30 9761 N 933.838 2.77946 -0.848209 0
M  V30 9762 H 933.385 2.12433 -1.45706 0
M  V30 9763 H 933.343 3.14342 -0.0603424 0
M  V30 9764 N 937.115 1.49373 0.502552 0
M  V30 9765 C 938.045 1.68839 1.61294 0
M  V30 9766 C 939.026 0.537096 1.61398 0
M  V30 9767 O 940.211 0.772764 1.78163 0
M  V30 9768 C 937.341 1.75347 2.99784 0
M  V30 9769 C 936.295 2.90251 3.14545 0
M  V30 9770 C 935.621 2.8187 4.54371 0
M  V30 9771 C 936.921 4.31207 2.94717 0
M  V30 9772 H 938.615 2.61803 1.45257 0
M  V30 9773 H 936.161 1.25987 0.697371 0
M  V30 9774 H 938.114 1.87552 3.77362 0
M  V30 9775 H 936.838 0.789814 3.16906 0
M  V30 9776 H 935.497 2.77646 2.39392 0
M  V30 9777 H 935.145 1.83416 4.68367 0
M  V30 9778 H 934.845 3.5899 4.65188 0
M  V30 9779 H 936.369 2.96081 5.34012 0
M  V30 9780 H 937.783 4.44501 3.62065 0
M  V30 9781 H 936.18 5.09536 3.17007 0
M  V30 9782 H 937.25 4.45759 1.90857 0
M  V30 9783 N 938.594 -0.753485 1.38421 0
M  V30 9784 C 939.822 -1.54272 1.37868 0
M  V30 9785 C 940.237 -1.88774 -0.0315155 0
M  V30 9786 O 939.594 -1.52785 -0.998148 0
M  V30 9787 C 939.645 -2.84179 2.23438 0
M  V30 9788 O 939.366 -2.51149 3.58965 0
M  V30 9789 C 940.867 -3.78316 2.31067 0
M  V30 9790 H 938.087 -0.47735 0.47157 0
M  V30 9791 H 940.631 -0.932509 1.82001 0
M  V30 9792 H 938.786 -3.41577 1.82767 0
M  V30 9793 H 939.2 -3.34466 4.04021 0
M  V30 9794 H 940.674 -4.66418 2.95226 0
M  V30 9795 H 941.151 -4.18757 1.32436 0
M  V30 9796 H 941.757 -3.26842 2.72129 0
M  V30 9797 N 940.072 -1.23292 -0.981677 0
M  V30 9798 C 941.302 -1.0893 -1.7555 0
M  V30 9799 C 941.71 0.362219 -1.857 0
M  V30 9800 O 941.053 1.2624 -1.33451 0
M  V30 9801 C 941.115 -1.6389 -3.19969 0
M  V30 9802 C 940.779 -3.12632 -3.33332 0
M  V30 9803 C 941.776 -4.0994 -3.19758 0
M  V30 9804 C 939.461 -3.52314 -3.58022 0
M  V30 9805 C 941.455 -5.44915 -3.30676 0
M  V30 9806 C 939.142 -4.87434 -3.6858 0
M  V30 9807 C 940.14 -5.83544 -3.54916 0
M  V30 9808 O 939.828 -7.16209 -3.65102 0
M  V30 9809 H 939.56 -0.381901 -0.557788 0
M  V30 9810 H 942.114 -1.63586 -1.24213 0
M  V30 9811 H 940.344 -1.03653 -3.72549 0
M  V30 9812 H 942.033 -1.45023 -3.79108 0
M  V30 9813 H 942.799 -3.80625 -3.00582 0
M  V30 9814 H 938.678 -2.78022 -3.67729 0
M  V30 9815 H 942.222 -6.19913 -3.19928 0
M  V30 9816 H 938.119 -5.16426 -3.87265 0
M  V30 9817 H 938.887 -7.23941 -3.81905 0
M  V30 9818 N 941.55 1.18024 -1.04442 0
M  V30 9819 C 942.78 1.91753 -0.769044 0
M  V30 9820 C 943.188 1.76629 0.678141 0
M  V30 9821 O 942.531 1.09589 1.47431 0
M  V30 9822 C 942.593 3.43505 -1.0604 0
M  V30 9823 C 942.257 3.82409 -2.50225 0
M  V30 9824 C 943.254 3.8588 -3.48414 0
M  V30 9825 C 940.939 4.13594 -2.85036 0
M  V30 9826 C 942.933 4.19993 -4.79463 0
M  V30 9827 C 940.62 4.47377 -4.1629 0
M  V30 9828 C 941.618 4.50553 -5.13314 0
M  V30 9829 O 941.306 4.83546 -6.42214 0
M  V30 9830 H 941.038 0.615466 -0.279603 0
M  V30 9831 H 943.592 1.5065 -1.3962 0
M  V30 9832 H 941.822 3.84866 -0.376125 0
M  V30 9833 H 943.511 3.98486 -0.772235 0
M  V30 9834 H 944.277 3.6192 -3.2286 0
M  V30 9835 H 940.156 4.10297 -2.10185 0
M  V30 9836 H 943.7 4.22387 -5.55189 0
M  V30 9837 H 939.597 4.70798 -4.4161 0
M  V30 9838 H 940.365 5.01433 -6.46921 0
M  V30 9839 N 943.028 0.824394 1.34319 0
M  V30 9840 C 943.958 0.262077 2.32025 0
M  V30 9841 C 944.939 -0.622277 1.58309 0
M  V30 9842 O 946.124 -0.548848 1.86283 0
M  V30 9843 C 943.254 -0.57567 3.42496 0
M  V30 9844 C 942.208 0.21167 4.27476 0
M  V30 9845 C 941.534 -0.748913 5.29429 0
M  V30 9846 C 942.834 1.42068 5.02607 0
M  V30 9847 H 944.528 1.07842 2.79304 0
M  V30 9848 H 942.074 0.520022 1.34282 0
M  V30 9849 H 944.027 -0.979251 4.09864 0
M  V30 9850 H 942.751 -1.42508 2.93869 0
M  V30 9851 H 941.41 0.596636 3.61712 0
M  V30 9852 H 941.058 -1.59432 4.77064 0
M  V30 9853 H 940.758 -0.226313 5.87164 0
M  V30 9854 H 942.282 -1.15032 5.99667 0
M  V30 9855 H 943.696 1.09103 5.62823 0
M  V30 9856 H 942.093 1.87903 5.69923 0
M  V30 9857 H 943.163 2.1981 4.32217 0
M  V30 9858 N 944.506 -1.46559 0.579492 0
M  V30 9859 C 945.752 -2.02699 0.0639363 0
M  V30 9860 C 946.085 -1.4504 -1.29139 0
M  V30 9861 O 945.36 -0.614284 -1.84545 0
M  V30 9862 C 945.643 -3.601 -0.00528618 0
M  V30 9863 C 945.496 -4.28149 1.37871 0
M  V30 9864 C 946.815 -4.34375 -0.707537 0
M  V30 9865 H 943.934 -0.736586 0.0247085 0
M  V30 9866 H 946.576 -1.74739 0.746071 0
M  V30 9867 H 944.726 -3.84052 -0.586206 0
M  V30 9868 H 946.398 -4.1547 2.00455 0
M  V30 9869 H 944.641 -3.87636 1.94732 0
M  V30 9870 H 945.312 -5.36888 1.28278 0
M  V30 9871 H 947.788 -4.15549 -0.214064 0
M  V30 9872 H 946.664 -5.44091 -0.724992 0
M  V30 9873 H 946.925 -4.052 -1.7682 0
M  V30 9874 N 945.984 -0.3171 -1.54377 0
M  V30 9875 C 946.914 0.544623 -2.2706 0
M  V30 9876 C 947.895 1.12469 -1.27611 0
M  V30 9877 O 949.08 1.15103 -1.56413 0
M  V30 9878 C 946.21 1.70879 -3.02353 0
M  V30 9879 C 945.164 1.25833 -4.09084 0
M  V30 9880 C 944.49 2.50894 -4.72182 0
M  V30 9881 C 945.79 0.377876 -5.20931 0
M  V30 9882 H 947.484 -0.0616372 -2.99337 0
M  V30 9883 H 945.03 -0.0310848 -1.43966 0
M  V30 9884 H 946.983 2.31787 -3.51927 0
M  V30 9885 H 945.707 2.34155 -2.27682 0
M  V30 9886 H 944.366 0.672228 -3.60384 0
M  V30 9887 H 944.014 3.12518 -3.94134 0
M  V30 9888 H 943.714 2.21447 -5.44275 0
M  V30 9889 H 945.238 3.12575 -5.24528 0
M  V30 9890 H 946.652 0.893056 -5.66302 0
M  V30 9891 H 945.049 0.176474 -5.9984 0
M  V30 9892 H 946.119 -0.592943 -4.81261 0
M  V30 9893 N 947.462 1.57535 -0.0451378 0
M  V30 9894 C 948.708 1.93558 0.62505 0
M  V30 9895 C 949.063 0.923159 1.68806 0
M  V30 9896 O 948.356 -0.0585419 1.91511 0
M  V30 9897 C 948.55 3.34065 1.27024 0
M  V30 9898 C 948.379 4.48881 0.271253 0
M  V30 9899 C 947.149 5.05121 -0.13462 0
M  V30 9900 C 949.347 5.12047 -0.480911 0
M  V30 9901 N 947.329 6.03465 -1.1271 0
M  V30 9902 C 948.7 6.0564 -1.32666 0
M  V30 9903 C 950.755 4.94964 -0.539878 0
M  V30 9904 C 949.458 6.83987 -2.22608 0
M  V30 9905 C 951.484 5.73933 -1.4267 0
M  V30 9906 C 950.846 6.67154 -2.26019 0
M  V30 9907 H 946.945 0.755846 0.20055 0
M  V30 9908 H 949.529 1.94354 -0.116059 0
M  V30 9909 H 947.7 3.34058 1.98141 0
M  V30 9910 H 949.432 3.57393 1.89875 0
M  V30 9911 H 946.187 4.72976 0.243112 0
M  V30 9912 H 946.611 6.5733 -1.62006 0
M  V30 9913 H 951.253 4.22704 0.0902834 0
M  V30 9914 H 948.971 7.55543 -2.86672 0
M  V30 9915 H 952.557 5.62744 -1.47682 0
M  V30 9916 H 951.437 7.27194 -2.93528 0
M  V30 9917 N 948.94 -0.228186 1.55939 0
M  V30 9918 C 949.872 -1.30605 1.88348 0
M  V30 9919 C 950.885 -1.43375 0.771198 0
M  V30 9920 O 952.074 -1.44391 1.04945 0
M  V30 9921 C 949.174 -2.68248 2.07115 0
M  V30 9922 C 948.347 -2.77509 3.38094 0
M  V30 9923 C 947.406 -3.96121 3.46373 0
M  V30 9924 O 946.432 -3.8477 4.19453 0
M  V30 9925 N 947.634 -5.10132 2.77031 0
M  V30 9926 H 950.399 -1.03132 2.81396 0
M  V30 9927 H 947.96 -0.418245 1.56404 0
M  V30 9928 H 949.952 -3.45966 2.09976 0
M  V30 9929 H 948.522 -2.88348 1.20723 0
M  V30 9930 H 947.742 -1.8632 3.47388 0
M  V30 9931 H 949.03 -2.80662 4.2439 0
M  V30 9932 H 948.428 -5.22249 2.17424 0
M  V30 9933 H 946.985 -5.85916 2.85561 0
M  V30 9934 N 950.418 -1.49637 -0.494624 0
M  V30 9935 C 951.834 -1.36541 -0.826361 0
M  V30 9936 C 952.034 -0.403386 -1.97421 0
M  V30 9937 O 951.09 0.162614 -2.51976 0
M  V30 9938 C 952.403 -2.77401 -1.16057 0
M  V30 9939 C 953.951 -2.86148 -1.26841 0
M  V30 9940 C 954.426 -4.27789 -1.63587 0
M  V30 9941 N 955.917 -4.3063 -1.70624 0
M  V30 9942 C 956.652 -5.37198 -2.00514 0
M  V30 9943 N 956.148 -6.54004 -2.28584 0
M  V30 9944 N 957.941 -5.2462 -2.01818 0
M  V30 9945 H 950.092 -2.10776 0.26219 0
M  V30 9946 H 952.355 -0.946419 0.0547235 0
M  V30 9947 H 952.061 -3.49526 -0.390434 0
M  V30 9948 H 951.935 -3.1317 -2.10249 0
M  V30 9949 H 954.322 -2.14256 -2.02925 0
M  V30 9950 H 954.403 -2.53953 -0.30684 0
M  V30 9951 H 954.047 -5.00209 -0.880507 0
M  V30 9952 H 953.977 -4.57453 -2.60854 0
M  V30 9953 H 956.468 -3.46393 -1.51065 0
M  V30 9954 H 956.781 -7.31041 -2.50598 0
M  V30 9955 H 955.126 -6.57219 -2.26027 0
M  V30 9956 H 958.317 -4.32371 -1.79369 0
M  V30 9957 H 958.49 -6.07765 -2.24778 0
M  V30 9958 N 951.896 0.746133 -1.38819 0
M  V30 9959 C 952.826 1.87344 -1.39372 0
M  V30 9960 C 953.807 1.68123 -0.258583 0
M  V30 9961 O 954.992 1.88606 -0.462769 0
M  V30 9962 C 952.122 3.24962 -1.22543 0
M  V30 9963 C 951.076 3.58799 -2.33339 0
M  V30 9964 C 950.402 4.95235 -2.01609 0
M  V30 9965 C 951.702 3.62911 -3.75624 0
M  V30 9966 H 953.396 1.87138 -2.33709 0
M  V30 9967 H 950.942 0.898937 -1.12495 0
M  V30 9968 H 952.895 4.03488 -1.21554 0
M  V30 9969 H 951.619 3.25667 -0.246707 0
M  V30 9970 H 950.278 2.82596 -2.33527 0
M  V30 9971 H 949.926 4.92508 -1.02202 0
M  V30 9972 H 949.626 5.18843 -2.75819 0
M  V30 9973 H 951.15 5.76131 -2.02251 0
M  V30 9974 H 952.564 4.31535 -3.77426 0
M  V30 9975 H 950.961 3.98031 -4.491 0
M  V30 9976 H 952.031 2.62967 -4.07402 0
M  V30 9977 N 953.375 1.23811 0.975125 0
M  V30 9978 C 954.338 1.02505 2.05001 0
M  V30 9979 C 955.338 -0.0150084 1.60793 0
M  V30 9980 O 956.528 0.225246 1.72738 0
M  V30 9981 C 953.66 0.552087 3.364 0
M  V30 9982 H 954.853 1.979 2.25335 0
M  V30 9983 H 952.406 1.05929 1.1493 0
M  V30 9984 H 953.141 -0.405394 3.21756 0
M  V30 9985 H 952.926 1.30267 3.69828 0
M  V30 9986 H 954.416 0.423828 4.15444 0
M  V30 9987 N 954.853 -1.17469 1.05066 0
M  V30 9988 C 955.763 -2.25089 0.661222 0
M  V30 9989 C 956.779 -1.71086 -0.31712 0
M  V30 9990 O 957.955 -2.00685 -0.169534 0
M  V30 9991 C 955.02 -3.46676 0.0406415 0
M  V30 9992 C 954.081 -4.15771 1.06927 0
M  V30 9993 C 953.314 -5.31553 0.478208 0
M  V30 9994 O 953.537 -5.6593 -0.712714 0
M  V30 9995 O 952.471 -5.89574 1.21185 0
M  V30 9996 H 956.297 -2.60685 1.5581 0
M  V30 9997 H 953.882 -1.24744 0.822147 0
M  V30 9998 H 955.764 -4.203 -0.304312 0
M  V30 9999 H 954.439 -3.1288 -0.829909 0
M  V30 10000 H 953.346 -3.44171 1.46619 0
M  V30 10001 H 954.679 -4.53591 1.91092 0
M  V30 10002 N 956.331 -0.831506 -1.3388 0
M  V30 10003 C 957.608 -0.345907 -1.92517 0
M  V30 10004 C 957.988 1.16784 -1.75854 0
M  V30 10005 O 957.336 1.97889 -1.14245 0
M  V30 10006 C 957.546 -0.784692 -3.40064 0
M  V30 10007 C 958.894 -0.78846 -4.17215 0
M  V30 10008 O 959.918 -0.727823 -3.48685 0
M  V30 10009 O 958.777 -0.869481 -5.39539 0
M  V30 10010 H 955.871 -0.0963568 -0.821367 0
M  V30 10011 H 958.417 -0.916868 -1.42799 0
M  V30 10012 H 957.189 -1.82697 -3.46031 0
M  V30 10013 H 956.812 -0.189897 -3.97146 0
M  V30 10014 N 957.809 1.4625 -0.587256 0
M  V30 10015 C 959.057 2.01963 -0.0744273 0
M  V30 10016 C 959.378 1.46065 1.29189 0
M  V30 10017 O 958.648 0.647077 1.84905 0
M  V30 10018 H 957.228 0.746597 -0.0245236 0
M  V30 10019 H 959.89 1.79299 -0.764063 0
M  V30 10020 H 958.986 3.12099 -0.00884894 0
M  V30 10021 N 959.287 0.325282 1.54207 0
M  V30 10022 C 960.564 -0.33113 1.92777 0
M  V30 10023 C 960.944 -1.69739 1.25506 0
M  V30 10024 O 960.292 -2.24983 0.399385 0
M  V30 10025 C 960.502 -0.421636 3.46444 0
M  V30 10026 C 961.85 -0.681111 4.19101 0
M  V30 10027 O 962.874 -0.504488 3.52609 0
M  V30 10028 O 961.733 -1.02196 5.3686 0
M  V30 10029 H 958.827 -0.18943 0.805013 0
M  V30 10030 H 961.373 0.375123 1.65502 0
M  V30 10031 H 960.145 0.537862 3.87586 0
M  V30 10032 H 959.768 -1.1754 3.79829 0
M  V30 10033 N 960.765 -1.57509 0.0534917 0
M  V30 10034 C 961.695 -2.14698 -0.917999 0
M  V30 10035 C 962.676 -1.06924 -1.32292 0
M  V30 10036 O 963.861 -1.34875 -1.39723 0
M  V30 10037 C 960.991 -2.69383 -2.19203 0
M  V30 10038 C 959.945 -3.82161 -1.9271 0
M  V30 10039 C 959.271 -4.23373 -3.26587 0
M  V30 10040 C 960.571 -5.07199 -1.24686 0
M  V30 10041 H 962.265 -2.96125 -0.44165 0
M  V30 10042 H 959.811 -1.42446 -0.210993 0
M  V30 10043 H 961.764 -3.08031 -2.87567 0
M  V30 10044 H 960.488 -1.85151 -2.69048 0
M  V30 10045 H 959.147 -3.43989 -1.26757 0
M  V30 10046 H 958.795 -3.36089 -3.74237 0
M  V30 10047 H 958.495 -4.99385 -3.09658 0
M  V30 10048 H 960.019 -4.64623 -3.96178 0
M  V30 10049 H 961.433 -5.43279 -1.83088 0
M  V30 10050 H 959.83 -5.88369 -1.18076 0
M  V30 10051 H 960.9 -4.84386 -0.223227 0
M  V30 10052 N 962.243 0.219913 -1.56058 0
M  V30 10053 C 963.473 0.959521 -1.82967 0
M  V30 10054 C 963.881 1.78382 -0.630602 0
M  V30 10055 O 963.224 1.79062 0.410203 0
M  V30 10056 C 963.286 1.92481 -3.0363 0
M  V30 10057 C 962.95 1.28487 -4.38566 0
M  V30 10058 C 963.947 0.673946 -5.15513 0
M  V30 10059 C 961.632 1.29615 -4.85289 0
M  V30 10060 C 963.626 0.0828324 -6.37346 0
M  V30 10061 C 961.313 0.701191 -6.07064 0
M  V30 10062 C 962.311 0.0955877 -6.82933 0
M  V30 10063 O 961.999 -0.490109 -8.02405 0
M  V30 10064 H 961.731 0.286709 -0.612188 0
M  V30 10065 H 964.285 0.239761 -2.03996 0
M  V30 10066 H 962.515 2.6836 -2.78424 0
M  V30 10067 H 964.204 2.5301 -3.17397 0
M  V30 10068 H 964.97 0.657548 -4.80522 0
M  V30 10069 H 960.849 1.75691 -4.26208 0
M  V30 10070 H 964.393 -0.390482 -6.96506 0
M  V30 10071 H 960.29 0.715007 -6.41528 0
M  V30 10072 H 961.058 -0.384588 -8.17596 0
M  V30 10073 N 963.721 1.49897 0.486681 0
M  V30 10074 C 964.651 1.7054 1.59494 0
M  V30 10075 C 965.632 0.554184 1.60819 0
M  V30 10076 O 966.817 0.791617 1.77333 0
M  V30 10077 C 963.947 1.78517 2.97908 0
M  V30 10078 C 962.901 2.93571 3.11449 0
M  V30 10079 C 962.227 2.86674 4.51356 0
M  V30 10080 C 963.527 4.34308 2.90127 0
M  V30 10081 H 965.221 2.63329 1.42472 0
M  V30 10082 H 962.767 1.2672 0.683969 0
M  V30 10083 H 964.72 1.91544 3.75352 0
M  V30 10084 H 963.444 0.823381 3.16051 0
M  V30 10085 H 962.103 2.80169 2.36433 0
M  V30 10086 H 961.751 1.88373 4.66395 0
M  V30 10087 H 961.451 3.63903 4.61355 0
M  V30 10088 H 962.975 3.01728 5.30841 0
M  V30 10089 H 964.389 4.48317 3.57331 0
M  V30 10090 H 962.786 5.12869 3.11585 0
M  V30 10091 H 963.856 4.47759 1.86119 0
M  V30 10092 N 965.199 -0.738761 1.39212 0
M  V30 10093 C 966.147 -1.8741 1.3777 0
M  V30 10094 C 967.141 -1.67371 0.261375 0
M  V30 10095 O 968.347 -1.74759 0.431209 0
M  V30 10096 H 964.722 -0.616843 0.430126 0
M  V30 10097 H 966.693 -1.85742 2.33543 0
M  V30 10098 C 965.442 -3.25053 1.23433 0
M  V30 10099 H 964.765 -3.41066 2.086 0
M  V30 10100 H 966.205 -4.04696 1.2648 0
M  V30 10101 C 964.664 -3.36851 -0.0575624 0
M  V30 10102 O 965.194 -3.88293 -1.02915 0
M  V30 10103 N 963.4 -2.90355 -0.119364 0
M  V30 10104 H 962.947 -2.48681 0.671976 0
M  V30 10105 H 962.905 -2.98628 -0.983286 0
M  V30 10106 N 966.677 -1.24326 -0.968545 0
M  V30 10107 C 967.954 -0.990459 -1.68669 0
M  V30 10108 C 968.334 0.487487 -2.05394 0
M  V30 10109 O 967.682 1.46158 -1.75642 0
M  V30 10110 C 967.892 -1.91251 -2.91931 0
M  V30 10111 C 969.24 -2.18291 -3.6419 0
M  V30 10112 O 970.264 -1.88897 -3.01987 0
M  V30 10113 O 969.123 -2.68204 -4.76161 0
M  V30 10114 H 966.217 -0.374515 -0.737338 0
M  V30 10115 H 968.763 -1.35421 -1.02271 0
M  V30 10116 H 967.535 -2.9111 -2.61478 0
M  V30 10117 H 967.158 -1.55188 -3.66064 0
M  V30 10118 N 968.156 1.1691 -1.05688 0
M  V30 10119 C 969.386 1.90927 -0.789339 0
M  V30 10120 C 969.794 1.77339 0.659369 0
M  V30 10121 O 969.137 1.11147 1.4626 0
M  V30 10122 C 969.199 3.42361 -1.09677 0
M  V30 10123 C 968.863 3.79733 -2.54267 0
M  V30 10124 C 969.86 3.82163 -3.52487 0
M  V30 10125 C 967.545 4.10547 -2.89406 0
M  V30 10126 C 969.539 4.14884 -4.8389 0
M  V30 10127 C 967.226 4.42936 -4.21011 0
M  V30 10128 C 968.224 4.45084 -5.18063 0
M  V30 10129 O 967.912 4.76707 -6.47307 0
M  V30 10130 H 967.644 0.612466 -0.286115 0
M  V30 10131 H 970.198 1.4916 -1.4121 0
M  V30 10132 H 968.428 3.84446 -0.416924 0
M  V30 10133 H 970.117 3.97645 -0.814456 0
M  V30 10134 H 970.883 3.58476 -3.26681 0
M  V30 10135 H 966.762 4.08044 -2.14525 0
M  V30 10136 H 970.306 4.16475 -5.59638 0
M  V30 10137 H 966.203 4.66088 -4.46579 0
M  V30 10138 H 966.971 4.94544 -6.52203 0
M  V30 10139 N 969.634 0.838594 1.33437 0
M  V30 10140 C 970.874 0.440239 1.99603 0
M  V30 10141 C 971.238 -0.982061 1.64984 0
M  V30 10142 O 972.439 -1.48413 2.24114 0
M  V30 10143 C 970.71 0.654201 3.51362 0
M  V30 10144 S 972.269 0.351025 4.37394 0
M  V30 10145 H 969.087 0.165608 0.691444 0
M  V30 10146 H 971.689 1.08782 1.6244 0
M  V30 10147 H 970.393 1.68873 3.74045 0
M  V30 10148 H 969.924 -0.00754449 3.93399 0
M  V30 10149 H 971.939 -0.829298 4.89221 0
M  V30 10150 N 971.112 -1.45937 0.595003 0
M  V30 10151 C 972.062 -2.27491 -0.152331 0
M  V30 10152 C 973.046 -1.36591 -0.850396 0
M  V30 10153 O 974.238 -1.60675 -0.742462 0
M  V30 10154 C 971.367 -3.23203 -1.15735 0
M  V30 10155 C 970.453 -4.2159 -0.46077 0
M  V30 10156 N 970.844 -5.03416 0.490555 0
M  V30 10157 C 969.142 -4.40313 -0.709949 0
M  V30 10158 C 969.843 -5.74714 0.898825 0
M  V30 10159 N 968.819 -5.43046 0.24529 0
M  V30 10160 H 972.621 -2.8815 0.578526 0
M  V30 10161 H 970.135 -1.56936 0.417716 0
M  V30 10162 H 972.132 -3.8035 -1.70704 0
M  V30 10163 H 970.792 -2.64104 -1.8889 0
M  V30 10164 H 971.803 -5.10597 0.866692 0
M  V30 10165 H 968.48 -3.92351 -1.42713 0
M  V30 10166 H 969.87 -6.50487 1.68273 0
M  V30 10167 N 972.59 -0.333456 -1.54032 0
M  V30 10168 C 974.006 0.0188405 -1.59589 0
M  V30 10169 C 974.206 1.49615 -1.34972 0
M  V30 10170 O 973.262 2.2535 -1.13901 0
M  V30 10171 C 974.575 -0.408273 -2.97915 0
M  V30 10172 C 976.123 -0.359763 -3.10926 0
M  V30 10173 C 976.598 -0.76219 -4.51613 0
M  V30 10174 N 978.089 -0.715981 -4.57633 0
M  V30 10175 C 978.824 -0.999436 -5.64623 0
M  V30 10176 N 978.32 -1.35053 -6.79509 0
M  V30 10177 N 980.113 -0.924343 -5.54448 0
M  V30 10178 H 972.264 -1.29587 -1.68289 0
M  V30 10179 H 974.527 -0.527584 -0.787629 0
M  V30 10180 H 974.233 -1.43793 -3.20962 0
M  V30 10181 H 974.107 0.221685 -3.76548 0
M  V30 10182 H 976.494 0.660703 -2.87609 0
M  V30 10183 H 976.575 -1.02479 -2.34375 0
M  V30 10184 H 976.219 -1.78062 -4.75664 0
M  V30 10185 H 976.149 -0.0747478 -5.26547 0
M  V30 10186 H 978.64 -0.456875 -3.75128 0
M  V30 10187 H 978.953 -1.55194 -7.57057 0
M  V30 10188 H 977.298 -1.38889 -6.80981 0
M  V30 10189 H 980.489 -0.649469 -4.63573 0
M  V30 10190 H 980.662 -1.1486 -6.37739 0
M  V30 10191 N 974.068 1.57479 -0.061844 0
M  V30 10192 C 975.316 1.92727 0.608336 0
M  V30 10193 C 975.637 0.941799 1.70749 0
M  V30 10194 O 974.907 -0.0116608 1.95897 0
M  V30 10195 H 973.487 0.71145 0.2277 0
M  V30 10196 H 976.149 1.94546 -0.117359 0
M  V30 10197 H 975.245 2.9426 1.04007 0
M  V30 10198 N 975.546 -0.211634 1.56173 0
M  V30 10199 C 976.476 -1.26533 1.96244 0
M  V30 10200 C 977.457 -1.48362 0.832028 0
M  V30 10201 O 978.642 -1.60378 1.0951 0
M  V30 10202 C 975.772 -2.61307 2.2877 0
M  V30 10203 C 974.726 -2.54119 3.44395 0
M  V30 10204 C 974.052 -3.93014 3.62552 0
M  V30 10205 C 975.352 -2.08046 4.79076 0
M  V30 10206 H 977.046 -0.932407 2.84511 0
M  V30 10207 H 974.592 -0.447084 1.36884 0
M  V30 10208 H 976.545 -3.35188 2.55396 0
M  V30 10209 H 975.269 -2.96307 1.37367 0
M  V30 10210 H 973.928 -1.82694 3.17834 0
M  V30 10211 H 973.576 -4.25338 2.68508 0
M  V30 10212 H 973.276 -3.89083 4.40327 0
M  V30 10213 H 974.8 -4.68542 3.91537 0
M  V30 10214 H 976.214 -2.71676 5.04842 0
M  V30 10215 H 974.611 -2.15154 5.60204 0
M  V30 10216 H 975.681 -1.03306 4.73768 0
M  V30 10217 N 977.024 -1.50153 -0.478725 0
M  V30 10218 C 978.44 -1.3741 -0.811833 0
M  V30 10219 C 978.64 -0.424303 -1.96982 0
M  V30 10220 O 977.696 0.13588 -2.52134 0
M  V30 10221 C 979.009 -2.78616 -1.13108 0
M  V30 10222 C 980.557 -2.87477 -1.23798 0
M  V30 10223 C 981.032 -4.295 -1.5904 0
M  V30 10224 N 982.523 -4.32415 -1.66047 0
M  V30 10225 C 983.258 -5.39295 -1.94805 0
M  V30 10226 N 982.754 -6.56392 -2.21635 0
M  V30 10227 N 984.547 -5.26731 -1.96243 0
M  V30 10228 H 976.698 -2.10486 0.284531 0
M  V30 10229 H 978.961 -0.945786 0.0647585 0
M  V30 10230 H 978.667 -3.49921 -0.35334 0
M  V30 10231 H 978.541 -3.15382 -2.06915 0
M  V30 10232 H 980.928 -2.16396 -2.00641 0
M  V30 10233 H 981.009 -2.54264 -0.279888 0
M  V30 10234 H 980.653 -5.01115 -0.827404 0
M  V30 10235 H 980.583 -4.60194 -2.55987 0
M  V30 10236 H 983.074 -3.47975 -1.47383 0
M  V30 10237 H 983.387 -7.33658 -2.4283 0
M  V30 10238 H 981.732 -6.59579 -2.19043 0
M  V30 10239 H 984.923 -4.34249 -1.74773 0
M  V30 10240 H 985.096 -6.10115 -2.1832 0
M  V30 10241 N 978.502 0.731368 -1.39602 0
M  V30 10242 C 979.432 1.85855 -1.41351 0
M  V30 10243 C 980.413 1.67839 -0.2764 0
M  V30 10244 O 981.598 1.88104 -0.482747 0
M  V30 10245 C 978.728 3.23644 -1.25983 0
M  V30 10246 C 977.682 3.56304 -2.37132 0
M  V30 10247 C 977.008 4.93069 -2.0685 0
M  V30 10248 C 978.308 3.58906 -3.79452 0
M  V30 10249 H 980.002 1.84648 -2.3568 0
M  V30 10250 H 977.548 0.886955 -1.13442 0
M  V30 10251 H 979.501 4.02176 -1.25826 0
M  V30 10252 H 978.225 3.25387 -0.281234 0
M  V30 10253 H 976.884 2.80104 -2.36511 0
M  V30 10254 H 976.532 4.91396 -1.0742 0
M  V30 10255 H 976.232 5.15888 -2.81306 0
M  V30 10256 H 977.756 5.73953 -2.0835 0
M  V30 10257 H 979.17 4.27508 -3.81982 0
M  V30 10258 H 977.567 3.93246 -4.53297 0
M  V30 10259 H 978.637 2.58631 -4.10168 0
M  V30 10260 N 979.98 1.24838 0.961938 0
M  V30 10261 C 981.391 1.08369 1.5203 0
M  V30 10262 C 981.742 -0.343005 1.93178 0
M  V30 10263 O 980.867 -1.2321 1.779 0
M  V30 10264 C 981.462 1.96102 2.76278 0
M  V30 10265 C 980.021 1.8384 3.28451 0
M  V30 10266 C 979.168 1.9069 2.01327 0
M  V30 10267 H 982.119 1.38231 0.779613 0
M  V30 10268 H 982.14 1.4967 3.49827 0
M  V30 10269 H 981.652 2.99931 2.46298 0
M  V30 10270 H 979.753 0.828653 3.63269 0
M  V30 10271 H 979.866 2.68251 3.96961 0
M  V30 10272 H 978.23 1.34488 2.16299 0
M  V30 10273 H 979.013 2.96111 1.73705 0
M  V30 10274 N 981.458 -1.16348 1.06306 0
M  V30 10275 C 982.686 -1.90782 0.800614 0
M  V30 10276 C 983.101 -1.77439 -0.645033 0
M  V30 10277 O 982.458 -1.11912 -1.4416 0
M  V30 10278 C 982.509 -3.41484 1.18621 0
M  V30 10279 O 982.23 -3.54428 2.57512 0
M  V30 10280 C 983.731 -4.32968 0.951525 0
M  V30 10281 H 980.951 -0.604977 0.290247 0
M  V30 10282 H 983.495 -1.47476 1.41672 0
M  V30 10283 H 981.65 -3.82493 0.614633 0
M  V30 10284 H 982.064 -4.4788 2.72954 0
M  V30 10285 H 983.538 -5.37169 1.27095 0
M  V30 10286 H 984.015 -4.39055 -0.112734 0
M  V30 10287 H 984.621 -3.97687 1.50749 0
M  V30 10288 N 982.937 -0.845659 -1.3299 0
M  V30 10289 C 984.162 -0.457435 -2.02293 0
M  V30 10290 C 984.587 0.935634 -1.63179 0
M  V30 10291 O 983.945 1.61297 -0.827835 0
M  V30 10292 C 983.993 -0.593665 -3.5568 0
M  V30 10293 O 983.097 0.37729 -4.10671 0
M  V30 10294 H 982.438 -0.185022 -0.637701 0
M  V30 10295 H 984.968 -1.14237 -1.69738 0
M  V30 10296 H 984.978 -0.477834 -4.05192 0
M  V30 10297 H 983.653 -1.60957 -3.83491 0
M  V30 10298 H 982.23 0.218448 -3.7226 0
M  V30 10299 N 984.415 1.45619 -0.602734 0
M  V30 10300 C 985.363 2.32228 0.131484 0
M  V30 10301 C 986.357 1.45681 0.864484 0
M  V30 10302 O 987.563 1.62193 0.7806 0
M  V30 10303 H 983.938 0.7495 0.0612638 0
M  V30 10304 H 985.909 2.91941 -0.617496 0
M  V30 10305 C 984.658 3.29213 1.11866 0
M  V30 10306 H 983.981 3.95801 0.564061 0
M  V30 10307 H 985.421 3.92554 1.60242 0
M  V30 10308 C 983.88 2.56028 2.18978 0
M  V30 10309 O 984.41 2.33806 3.26646 0
M  V30 10310 N 982.616 2.16245 1.94129 0
M  V30 10311 H 982.163 2.34518 1.06579 0
M  V30 10312 H 982.121 1.67601 2.66003 0
M  V30 10313 N 985.893 0.34162 1.53853 0
M  V30 10314 C 986.841 -0.531412 2.26448 0
M  V30 10315 C 987.835 -1.10357 1.28521 0
M  V30 10316 O 989.041 -1.04953 1.46236 0
M  V30 10317 H 985.416 -0.190054 0.727588 0
M  V30 10318 H 987.387 0.102922 2.98222 0
M  V30 10319 C 986.136 -1.67154 3.04885 0
M  V30 10320 H 985.459 -1.24055 3.80066 0
M  V30 10321 H 986.899 -2.25762 3.58898 0
M  V30 10322 C 985.358 -2.59984 2.14266 0
M  V30 10323 O 985.888 -3.62181 1.73746 0
M  V30 10324 N 984.094 -2.28625 1.79385 0
M  V30 10325 H 983.641 -1.45559 2.12533 0
M  V30 10326 H 983.599 -2.90995 1.19035 0
M  V30 10327 N 987.371 -1.57444 0.0701946 0
M  V30 10328 C 988.648 -1.84826 -0.6402 0
M  V30 10329 C 989.028 -0.962344 -1.87889 0
M  V30 10330 O 988.376 -0.0282209 -2.28483 0
M  V30 10331 C 988.586 -3.34976 -0.979382 0
M  V30 10332 C 989.934 -4.02448 -1.35355 0
M  V30 10333 O 990.958 -3.39713 -1.07116 0
M  V30 10334 O 989.817 -5.13096 -1.88136 0
M  V30 10335 H 986.911 -0.763494 -0.317813 0
M  V30 10336 H 989.457 -1.69399 0.101004 0
M  V30 10337 H 988.229 -3.91173 -0.0995576 0
M  V30 10338 H 987.852 -3.5566 -1.7774 0
M  V30 10339 N 988.849 0.203349 -1.56283 0
M  V30 10340 C 990.26 0.768764 -1.70138 0
M  V30 10341 C 990.611 1.8421 -0.675358 0
M  V30 10342 O 989.736 2.15732 0.1699 0
M  V30 10343 C 990.331 1.40123 -3.08466 0
M  V30 10344 C 988.89 1.91382 -3.24114 0
M  V30 10345 C 988.037 0.780685 -2.66084 0
M  V30 10346 H 990.988 -0.0215997 -1.58685 0
M  V30 10347 H 991.009 2.27046 -3.05336 0
M  V30 10348 H 990.521 0.619805 -3.83119 0
M  V30 10349 H 988.622 2.7227 -2.54362 0
M  V30 10350 H 988.735 2.08128 -4.31531 0
M  V30 10351 H 987.099 1.19281 -2.25042 0
M  V30 10352 H 987.882 0.0116351 -3.43298 0
M  V30 10353 N 990.327 1.50405 0.470755 0
M  V30 10354 C 991.743 1.37838 0.804534 0
M  V30 10355 C 991.943 0.434743 1.96754 0
M  V30 10356 O 990.999 -0.122507 2.52203 0
M  V30 10357 C 992.312 2.79212 1.11629 0
M  V30 10358 C 993.86 2.88129 1.22272 0
M  V30 10359 C 994.335 4.30337 1.5676 0
M  V30 10360 N 995.826 4.3329 1.63751 0
M  V30 10361 C 996.561 5.4032 1.91942 0
M  V30 10362 N 996.057 6.57558 2.18151 0
M  V30 10363 N 997.85 5.27764 1.93446 0
M  V30 10364 H 990.001 2.10332 -0.295689 0
M  V30 10365 H 992.264 0.945429 -0.0697733 0
M  V30 10366 H 991.97 3.50103 0.334778 0
M  V30 10367 H 991.844 3.16475 2.0524 0
M  V30 10368 H 994.231 2.17457 1.9949 0
M  V30 10369 H 994.312 2.54409 0.2664 0
M  V30 10370 H 993.956 5.01547 0.800817 0
M  V30 10371 H 993.886 4.61545 2.53543 0
M  V30 10372 H 996.377 3.48752 1.45535 0
M  V30 10373 H 996.69 7.34935 2.38936 0
M  V30 10374 H 995.035 6.60732 2.15542 0
M  V30 10375 H 998.226 4.35169 1.72468 0
M  V30 10376 H 998.399 6.11264 2.15081 0
M  V30 10377 N 991.805 -0.723954 1.39988 0
M  V30 10378 C 993.052 -1.48371 1.37812 0
M  V30 10379 C 993.38 -1.94487 -0.0223285 0
M  V30 10380 O 992.635 -1.67906 -1.00529 0
M  V30 10381 C 992.934 -2.73004 2.30659 0
M  V30 10382 C 992.6 -2.45698 3.78078 0
M  V30 10383 C 991.262 -2.37961 4.18244 0
M  V30 10384 C 993.614 -2.22601 4.71273 0
M  V30 10385 C 990.942 -2.05183 5.49652 0
M  V30 10386 C 993.294 -1.91339 6.0297 0
M  V30 10387 C 991.958 -1.82078 6.42187 0
M  V30 10388 H 991.228 -0.542929 0.504291 0
M  V30 10389 H 993.875 -0.829986 1.72579 0
M  V30 10390 H 992.18 -3.43174 1.89048 0
M  V30 10391 H 993.877 -3.31068 2.26263 0
M  V30 10392 H 990.467 -2.52603 3.46251 0
M  V30 10393 H 994.651 -2.2754 4.41066 0
M  V30 10394 H 989.907 -1.96544 5.78948 0
M  V30 10395 H 994.081 -1.72479 6.74703 0
M  V30 10396 H 991.708 -1.56446 7.43928 0
M  V30 10397 N 993.283 -1.25346 -0.955304 0
M  V30 10398 C 994.56 -1.00829 -1.67609 0
M  V30 10399 C 994.94 0.465675 -2.059 0
M  V30 10400 O 994.288 1.44287 -1.77182 0
M  V30 10401 C 994.498 -1.94337 -2.89886 0
M  V30 10402 C 995.846 -2.22142 -3.61854 0
M  V30 10403 O 996.87 -1.9209 -2.99967 0
M  V30 10404 O 995.729 -2.73239 -4.73289 0
M  V30 10405 H 992.823 -0.382314 -0.733325 0
M  V30 10406 H 995.369 -1.36498 -1.00829 0
M  V30 10407 H 994.141 -2.93867 -2.58376 0
M  V30 10408 H 993.764 -1.59062 -3.64397 0
M  V30 10409 N 994.761 1.15782 -1.06922 0
M  V30 10410 C 996.009 1.86097 -0.788192 0
M  V30 10411 C 996.33 1.82475 0.687606 0
M  V30 10412 O 995.6 1.26266 1.49778 0
M  V30 10413 H 994.18 0.689008 -0.288577 0
M  V30 10414 H 996.842 1.40377 -1.35205 0
M  V30 10415 H 995.938 2.91358 -1.1188 0
M  V30 10416 N 996.239 0.8527 1.3254 0
M  V30 10417 C 997.149 0.298744 2.3269 0
M  V30 10418 C 998.165 -0.582418 1.63963 0
M  V30 10419 O 999.341 -0.483253 1.95516 0
M  V30 10420 C 996.406 -0.505453 3.42996 0
M  V30 10421 C 995.467 0.401618 4.27417 0
M  V30 10422 C 994.7 -0.364294 5.32455 0
M  V30 10423 O 994.923 -1.59448 5.47661 0
M  V30 10424 O 993.857 0.268892 6.01299 0
M  V30 10425 H 997.683 1.12843 2.81958 0
M  V30 10426 H 995.268 0.615584 1.36128 0
M  V30 10427 H 997.15 -0.961974 4.10273 0
M  V30 10428 H 995.825 -1.31197 2.95921 0
M  V30 10429 H 994.732 0.906274 3.62957 0
M  V30 10430 H 996.065 1.17327 4.78012 0
M  V30 10431 N 997.718 -1.45297 0.610449 0
M  V30 10432 C 998.995 -1.95562 0.0386189 0
M  V30 10433 C 999.375 -1.55284 -1.43004 0
M  V30 10434 O 998.723 -0.816785 -2.13403 0
M  V30 10435 C 998.933 -3.48176 0.239731 0
M  V30 10436 C 1000.28 -4.24425 0.122035 0
M  V30 10437 O 1001.3 -3.55794 0.170003 0
M  V30 10438 O 1000.16 -5.46499 0.00953695 0
M  V30 10439 H 997.258 -0.826296 -0.0341081 0
M  V30 10440 H 999.804 -1.55449 0.68071 0
M  V30 10441 H 998.576 -3.70471 1.25963 0
M  V30 10442 H 998.199 -3.95186 -0.437486 0
M  V30 10443 N 999.196 -0.349774 -1.5367 0
M  V30 10444 C 1000.44 0.244343 -2.00617 0
M  V30 10445 C 1000.76 1.50567 -1.23914 0
M  V30 10446 O 1000.03 1.92784 -0.348016 0
M  V30 10447 H 998.615 0.0932792 -0.741153 0
M  V30 10448 H 1001.28 -0.472367 -1.89089 0
M  V30 10449 H 1000.37 0.482433 -3.08349 0
M  V30 10450 N 1000.67 1.57404 -0.0785433 0
M  V30 10451 C 1001.95 1.85163 0.630389 0
M  V30 10452 C 1002.33 0.972295 1.87376 0
M  V30 10453 O 1001.68 0.0403375 2.28464 0
M  V30 10454 C 1001.89 3.35491 0.961604 0
M  V30 10455 C 1003.24 4.0316 1.33219 0
M  V30 10456 O 1004.26 3.40276 1.05313 0
M  V30 10457 O 1003.12 5.14086 1.85412 0
M  V30 10458 H 1000.21 0.765169 0.31376 0
M  V30 10459 H 1002.76 1.69343 -0.109986 0
M  V30 10460 H 1001.53 3.91221 0.0788113 0
M  V30 10461 H 1001.15 3.56598 1.75852 0
M  V30 10462 N 1002.15 -0.195058 1.56388 0
M  V30 10463 C 1003.56 -0.75973 1.70543 0
M  V30 10464 C 1003.91 -1.83849 0.685118 0
M  V30 10465 O 1003.04 -2.15819 -0.158457 0
M  V30 10466 C 1003.63 -1.38485 3.09204 0
M  V30 10467 C 1002.19 -1.89661 3.25124 0
M  V30 10468 C 1001.34 -0.766563 2.66494 0
M  V30 10469 H 1004.29 0.0300148 1.58672 0
M  V30 10470 H 1004.31 -2.25424 3.06536 0
M  V30 10471 H 1003.82 -0.599479 3.83442 0
M  V30 10472 H 1001.92 -2.70917 2.55802 0
M  V30 10473 H 1002.04 -2.05837 4.32629 0
M  V30 10474 H 1000.4 -1.18086 2.25672 0
M  V30 10475 H 1001.18 0.00657102 3.43299 0
M  V30 10476 N 1003.63 -1.50653 -0.462772 0
M  V30 10477 C 1004.54 -1.72923 -1.58539 0
M  V30 10478 C 1005.56 -0.612577 -1.6286 0
M  V30 10479 O 1006.73 -0.891885 -1.80575 0
M  V30 10480 C 1003.8 -1.82623 -2.94703 0
M  V30 10481 C 1002.86 -3.06392 -3.00704 0
M  V30 10482 C 1002.09 -3.15618 -4.30373 0
M  V30 10483 O 1002.31 -2.31423 -5.21344 0
M  V30 10484 O 1001.25 -4.0841 -4.42136 0
M  V30 10485 H 1005.07 -2.68103 -1.42669 0
M  V30 10486 H 1002.66 -1.34848 -0.643144 0
M  V30 10487 H 1004.54 -1.91134 -3.7556 0
M  V30 10488 H 1003.22 -0.906275 -3.10754 0
M  V30 10489 H 1002.12 -3.03375 -2.18894 0
M  V30 10490 H 1003.46 -3.97992 -2.89591 0
M  V30 10491 N 1005.11 0.71652 -1.4037 0
M  V30 10492 C 1006.07 1.81231 -1.40313 0
M  V30 10493 C 1007.07 1.58032 -0.297087 0
M  V30 10494 O 1008.26 1.65091 -0.555944 0
M  V30 10495 C 1005.39 3.19308 -1.19395 0
M  V30 10496 H 1006.59 1.8268 -2.3784 0
M  V30 10497 H 1004.14 0.922062 -1.26205 0
M  V30 10498 H 1004.87 3.2351 -0.226252 0
M  V30 10499 H 1004.66 3.37546 -1.99512 0
M  V30 10500 H 1006.15 3.99339 -1.22141 0
M  V30 10501 N 1006.59 1.25851 0.948643 0
M  V30 10502 C 1007.5 1.08516 2.07994 0
M  V30 10503 C 1008.51 0.0206696 1.73988 0
M  V30 10504 O 1009.69 0.222854 2.00163 0
M  V30 10505 C 1006.75 0.712145 3.39307 0
M  V30 10506 C 1005.81 1.85523 3.87143 0
M  V30 10507 C 1005.05 1.49992 5.1219 0
M  V30 10508 O 1005.27 0.398268 5.69008 0
M  V30 10509 O 1004.2 2.33215 5.54882 0
M  V30 10510 H 1008.03 2.03405 2.25522 0
M  V30 10511 H 1005.62 1.04844 1.06433 0
M  V30 10512 H 1007.5 0.516512 4.18223 0
M  V30 10513 H 1006.17 -0.207416 3.23035 0
M  V30 10514 H 1005.08 2.10578 3.09205 0
M  V30 10515 H 1006.41 2.75425 4.07924 0
M  V30 10516 N 1008.06 -1.15214 1.07534 0
M  V30 10517 C 1009 -2.18999 0.641461 0
M  V30 10518 C 1009.98 -1.58958 -0.342238 0
M  V30 10519 O 1011.16 -1.86859 -0.248218 0
M  V30 10520 C 1008.29 -3.38651 -0.0577939 0
M  V30 10521 C 1007.33 -4.17225 0.884641 0
M  V30 10522 S 1008.17 -4.79375 2.38663 0
M  V30 10523 C 1009.32 -6.02393 1.69923 0
M  V30 10524 H 1009.55 -2.55464 1.52071 0
M  V30 10525 H 1007.09 -1.26205 0.889481 0
M  V30 10526 H 1009.05 -4.07971 -0.454982 0
M  V30 10527 H 1007.71 -3.00526 -0.913407 0
M  V30 10528 H 1006.9 -5.02837 0.342133 0
M  V30 10529 H 1006.5 -3.53463 1.2223 0
M  V30 10530 H 1008.79 -6.69899 1.01201 0
M  V30 10531 H 1009.74 -6.61216 2.53375 0
M  V30 10532 H 1010.14 -5.52106 1.1764 0
M  V30 10533 N 1009.54 -0.859717 -1.32086 0
M  V30 10534 C 1010.45 -0.31108 -2.32528 0
M  V30 10535 C 1011.47 0.573714 -1.6427 0
M  V30 10536 O 1012.64 0.472878 -1.9577 0
M  V30 10537 C 1009.71 0.487256 -3.43259 0
M  V30 10538 C 1008.77 -0.424279 -4.27198 0
M  V30 10539 C 1008 0.336051 -5.32641 0
M  V30 10540 O 1008.23 1.56541 -5.48499 0
M  V30 10541 O 1007.16 -0.300777 -6.01148 0
M  V30 10542 H 1010.99 -1.14336 -2.81355 0
M  V30 10543 H 1008.57 -0.622794 -1.358 0
M  V30 10544 H 1010.45 0.940203 -4.10777 0
M  V30 10545 H 1009.13 1.29626 -2.96612 0
M  V30 10546 H 1008.04 -0.925509 -3.62471 0
M  V30 10547 H 1009.37 -1.1986 -4.77383 0
M  V30 10548 N 1011.02 1.44971 -0.618145 0
M  V30 10549 C 1012.25 2.07039 -0.122395 0
M  V30 10550 C 1012.67 1.45793 1.18853 0
M  V30 10551 O 1012.03 0.55453 1.72611 0
M  V30 10552 C 1012.08 3.60599 -0.0073864 0
M  V30 10553 O 1011.18 3.99069 1.04007 0
M  V30 10554 H 1010.52 0.6593 -0.0788615 0
M  V30 10555 H 1013.05 1.86055 -0.851147 0
M  V30 10556 H 1013.06 4.07569 0.187417 0
M  V30 10557 H 1011.74 4.04561 -0.964544 0
M  V30 10558 H 1010.31 3.63753 0.820879 0
M  V30 10559 N 1012.5 0.357919 1.53482 0
M  V30 10560 C 1013.78 -0.290164 1.93436 0
M  V30 10561 C 1014.16 -1.67039 1.29079 0
M  V30 10562 O 1013.5 -2.24085 0.447017 0
M  V30 10563 C 1013.71 -0.348055 3.4726 0
M  V30 10564 C 1015.06 -0.59206 4.20452 0
M  V30 10565 O 1016.09 -0.429581 3.536 0
M  V30 10566 O 1014.94 -0.907855 5.38907 0
M  V30 10567 H 1012.04 -0.172312 0.80885 0
M  V30 10568 H 1014.58 0.410144 1.64669 0
M  V30 10569 H 1013.36 0.619953 3.86358 0
M  V30 10570 H 1012.98 -1.09457 3.82237 0
M  V30 10571 N 1013.98 -1.5736 0.0868897 0
M  V30 10572 C 1015.22 -1.95933 -0.582212 0
M  V30 10573 C 1015.58 -0.967238 -1.65857 0
M  V30 10574 O 1016.78 -1.24116 -2.3843 0
M  V30 10575 C 1015.05 -3.39049 -1.1305 0
M  V30 10576 S 1016.61 -3.99612 -1.81262 0
M  V30 10577 H 1013.43 -0.685082 -0.190221 0
M  V30 10578 H 1016.03 -1.94808 0.164341 0
M  V30 10579 H 1014.74 -4.09026 -0.335492 0
M  V30 10580 H 1014.27 -3.43752 -1.91307 0
M  V30 10581 H 1016.28 -3.87747 -3.09624 0
M  V30 10582 N 1015.45 0.186762 -1.56489 0
M  V30 10583 C 1016.69 0.912523 -1.829 0
M  V30 10584 C 1017.06 1.80094 -0.665598 0
M  V30 10585 O 1018.26 2.56312 -0.809787 0
M  V30 10586 C 1016.53 1.70022 -3.14368 0
M  V30 10587 S 1018.09 2.47686 -3.62211 0
M  V30 10588 H 1014.91 0.305916 -0.641823 0
M  V30 10589 H 1017.51 0.175289 -1.94713 0
M  V30 10590 H 1016.21 1.03832 -3.97048 0
M  V30 10591 H 1015.74 2.47912 -3.05456 0
M  V30 10592 H 1017.76 3.72058 -3.28309 0
M  V30 10593 N 1016.93 1.50896 0.454776 0
M  V30 10594 C 1018.34 1.55372 1.0352 0
M  V30 10595 C 1018.69 0.366822 1.9274 0
M  V30 10596 O 1017.82 -0.518444 2.10098 0
M  V30 10597 C 1018.41 2.81574 1.88418 0
M  V30 10598 C 1016.97 2.88679 2.4154 0
M  V30 10599 C 1016.12 2.49847 1.20298 0
M  V30 10600 H 1019.07 1.56924 0.236729 0
M  V30 10601 H 1019.09 2.64352 2.73676 0
M  V30 10602 H 1018.6 3.67941 1.23455 0
M  V30 10603 H 1016.71 2.06702 3.10008 0
M  V30 10604 H 1016.82 3.91944 2.7553 0
M  V30 10605 H 1015.18 2.02651 1.54288 0
M  V30 10606 H 1015.97 3.3854 0.569723 0
M  V30 10607 N 1018.41 -0.709066 1.40748 0
M  V30 10608 C 1019.65 -1.48139 1.40834 0
M  V30 10609 C 1020.01 -1.91996 0.0117625 0
M  V30 10610 O 1021.22 -2.68564 -0.112524 0
M  V30 10611 C 1019.49 -2.67009 2.37573 0
M  V30 10612 S 1021.05 -3.56331 2.56073 0
M  V30 10613 H 1017.86 -0.506396 0.499084 0
M  V30 10614 H 1020.47 -0.828588 1.77072 0
M  V30 10615 H 1019.17 -2.32971 3.37865 0
M  V30 10616 H 1018.7 -3.37195 2.02641 0
M  V30 10617 H 1020.72 -4.61695 1.81803 0
M  V30 10618 N 1019.89 -1.26353 -0.941956 0
M  V30 10619 C 1020.82 -1.03634 -2.04432 0
M  V30 10620 C 1021.83 0.00295864 -1.628 0
M  V30 10621 O 1023.02 -0.237029 -1.76919 0
M  V30 10622 C 1020.12 -0.547231 -3.34453 0
M  V30 10623 C 1019.3 -1.65559 -4.04857 0
M  V30 10624 C 1018.36 -1.16466 -5.13149 0
M  V30 10625 O 1017.38 -1.86158 -5.37898 0
M  V30 10626 N 1018.58 -0.0126703 -5.80499 0
M  V30 10627 H 1021.35 -1.98558 -2.24488 0
M  V30 10628 H 1018.91 -1.17728 -1.11138 0
M  V30 10629 H 1020.9 -0.203004 -4.04191 0
M  V30 10630 H 1019.47 0.308401 -3.11075 0
M  V30 10631 H 1018.69 -2.17079 -3.29044 0
M  V30 10632 H 1019.98 -2.39985 -4.48647 0
M  V30 10633 H 1019.38 0.569358 -5.62828 0
M  V30 10634 H 1017.93 0.272486 -6.5123 0
M  V30 10635 N 1021.37 1.14642 -1.08144 0
M  V30 10636 C 1022.32 2.17665 -0.678661 0
M  V30 10637 C 1023.3 1.58072 0.300336 0
M  V30 10638 O 1024.49 1.7664 0.112781 0
M  V30 10639 C 1021.62 3.43191 -0.0866362 0
M  V30 10640 C 1020.71 4.0982 -1.09126 0
M  V30 10641 N 1021.1 4.51814 -2.27372 0
M  V30 10642 C 1019.4 4.36272 -0.926411 0
M  V30 10643 C 1020.1 5.03581 -2.91172 0
M  V30 10644 N 1019.07 4.97624 -2.18795 0
M  V30 10645 H 1022.88 2.47872 -1.57914 0
M  V30 10646 H 1020.39 1.31296 -0.955772 0
M  V30 10647 H 1022.39 4.1632 0.219859 0
M  V30 10648 H 1021.05 3.14464 0.80886 0
M  V30 10649 H 1022.06 4.44941 -2.65044 0
M  V30 10650 H 1018.74 4.17414 -0.084492 0
M  V30 10651 H 1020.13 5.45969 -3.91621 0
M  V30 10652 N 1022.85 0.866709 1.31628 0
M  V30 10653 C 1024.26 0.529032 1.79048 0
M  V30 10654 C 1024.61 -0.953871 1.71452 0
M  V30 10655 O 1023.73 -1.74462 1.28031 0
M  V30 10656 C 1024.33 0.953522 3.25105 0
M  V30 10657 C 1022.89 0.667554 3.70433 0
M  V30 10658 C 1022.03 1.14664 2.52483 0
M  V30 10659 H 1024.98 1.05275 1.18756 0
M  V30 10660 H 1025.01 0.274844 3.79506 0
M  V30 10661 H 1024.52 2.03283 3.30602 0
M  V30 10662 H 1022.62 -0.400532 3.70441 0
M  V30 10663 H 1022.73 1.2423 4.62714 0
M  V30 10664 H 1021.1 0.566502 2.4832 0
M  V30 10665 H 1021.88 2.2333 2.60727 0
M  V30 10666 N 1024.32 -1.44642 0.625825 0
M  V30 10667 C 1025.73 -1.85502 0.211175 0
M  V30 10668 C 1026.09 -1.52356 -1.2362 0
M  V30 10669 O 1025.21 -0.959051 -1.93988 0
M  V30 10670 C 1025.81 -3.36702 0.37648 0
M  V30 10671 C 1024.36 -3.76396 0.0163795 0
M  V30 10672 C 1023.51 -2.68517 0.692368 0
M  V30 10673 H 1026.46 -1.35183 0.831333 0
M  V30 10674 H 1026.48 -3.78536 -0.386106 0
M  V30 10675 H 1026 -3.60795 1.42999 0
M  V30 10676 H 1024.1 -3.57919 -1.0356 0
M  V30 10677 H 1024.21 -4.77231 0.422742 0
M  V30 10678 H 1022.57 -2.54377 0.128191 0
M  V30 10679 H 1023.36 -2.95444 1.74837 0
M  V30 10680 N 1025.8 -0.366053 -1.5329 0
M  V30 10681 C 1027.21 0.113056 -1.86357 0
M  V30 10682 C 1027.56 1.48123 -1.28662 0
M  V30 10683 O 1026.69 2.07658 -0.608849 0
M  V30 10684 C 1027.28 0.211923 -3.38137 0
M  V30 10685 C 1025.84 0.635289 -3.71 0
M  V30 10686 C 1024.99 -0.217203 -2.76448 0
M  V30 10687 H 1027.94 -0.584829 -1.47531 0
M  V30 10688 H 1027.96 1.0354 -3.66142 0
M  V30 10689 H 1027.47 -0.783994 -3.80099 0
M  V30 10690 H 1025.57 1.63942 -3.34595 0
M  V30 10691 H 1025.69 0.409571 -4.77346 0
M  V30 10692 H 1024.05 0.313988 -2.52757 0
M  V30 10693 H 1024.83 -1.21067 -3.21244 0
M  V30 10694 N 1027.28 1.57312 -0.0952337 0
M  V30 10695 C 1028.53 1.93974 0.567319 0
M  V30 10696 C 1028.85 0.977805 1.68713 0
M  V30 10697 O 1028.12 0.0298944 1.95877 0
M  V30 10698 H 1026.7 0.71612 0.212558 0
M  V30 10699 H 1029.36 1.94254 -0.158598 0
M  V30 10700 H 1028.46 2.964 0.977423 0
M  V30 10701 N 1028.76 -0.17846 1.56586 0
M  V30 10702 C 1029.69 -1.24547 1.92408 0
M  V30 10703 C 1030.7 -1.40849 0.816421 0
M  V30 10704 O 1031.89 -1.40979 1.09486 0
M  V30 10705 C 1028.99 -2.61523 2.15544 0
M  V30 10706 C 1028.16 -2.66613 3.46751 0
M  V30 10707 C 1027.22 -3.84901 3.588 0
M  V30 10708 O 1026.25 -3.71231 4.31482 0
M  V30 10709 N 1027.45 -5.0106 2.9312 0
M  V30 10710 H 1030.22 -0.941275 2.84535 0
M  V30 10711 H 1027.78 -0.368275 1.57656 0
M  V30 10712 H 1029.77 -3.3911 2.20876 0
M  V30 10713 H 1028.34 -2.84362 1.29835 0
M  V30 10714 H 1027.56 -1.75174 3.5314 0
M  V30 10715 H 1028.85 -2.67018 4.33104 0
M  V30 10716 H 1028.25 -5.15067 2.33928 0
M  V30 10717 H 1026.8 -5.76535 3.04057 0
M  V30 10718 N 1030.24 -1.51135 -0.446768 0
M  V30 10719 C 1031.48 -1.63578 -1.19875 0
M  V30 10720 C 1031.81 -0.346478 -1.91084 0
M  V30 10721 O 1031.09 0.653447 -1.83195 0
M  V30 10722 C 1031.37 -2.83275 -2.22323 0
M  V30 10723 C 1031.23 -4.22155 -1.55259 0
M  V30 10724 C 1032.54 -2.98496 -3.23401 0
M  V30 10725 H 1029.66 -0.595333 -0.434452 0
M  V30 10726 H 1032.31 -1.83593 -0.48923 0
M  V30 10727 H 1030.46 -2.6634 -2.82834 0
M  V30 10728 H 1032.13 -4.50736 -0.981571 0
M  V30 10729 H 1030.37 -4.25288 -0.855122 0
M  V30 10730 H 1031.04 -5.01882 -2.29823 0
M  V30 10731 H 1033.52 -3.14079 -2.72935 0
M  V30 10732 H 1032.39 -3.83828 -3.92386 0
M  V30 10733 H 1032.65 -2.10157 -3.88956 0
M  V30 10734 N 1031.71 0.701592 -1.41122 0
M  V30 10735 C 1032.64 1.82815 -1.45262 0
M  V30 10736 C 1033.62 1.67215 -0.311939 0
M  V30 10737 O 1034.81 1.87038 -0.522538 0
M  V30 10738 C 1031.94 3.20899 -1.32819 0
M  V30 10739 C 1030.89 3.51194 -2.44636 0
M  V30 10740 C 1030.22 4.8857 -2.17263 0
M  V30 10741 C 1031.52 3.50777 -3.86979 0
M  V30 10742 H 1033.21 1.79608 -2.39544 0
M  V30 10743 H 1030.76 0.862693 -1.15298 0
M  V30 10744 H 1032.71 3.99417 -1.34329 0
M  V30 10745 H 1031.44 3.24717 -0.350191 0
M  V30 10746 H 1030.1 2.75024 -2.42399 0
M  V30 10747 H 1029.74 4.89007 -1.17819 0
M  V30 10748 H 1029.44 5.09805 -2.92186 0
M  V30 10749 H 1030.97 5.69405 -2.20478 0
M  V30 10750 H 1032.38 4.19309 -3.90964 0
M  V30 10751 H 1030.78 3.83542 -4.61536 0
M  V30 10752 H 1031.85 2.49873 -4.15562 0
M  V30 10753 N 1033.19 1.2685 0.935242 0
M  V30 10754 C 1034.6 1.11569 1.49697 0
M  V30 10755 C 1034.95 -0.301952 1.93863 0
M  V30 10756 O 1034.08 -1.19408 1.80473 0
M  V30 10757 C 1034.67 2.01918 2.72056 0
M  V30 10758 C 1033.23 1.90765 3.24477 0
M  V30 10759 C 1032.38 1.94918 1.97237 0
M  V30 10760 H 1035.33 1.39853 0.750116 0
M  V30 10761 H 1035.35 1.57056 3.46574 0
M  V30 10762 H 1034.86 3.05088 2.39881 0
M  V30 10763 H 1032.96 0.905521 3.61429 0
M  V30 10764 H 1033.08 2.76611 3.91182 0
M  V30 10765 H 1031.44 1.39046 2.13397 0
M  V30 10766 H 1032.22 2.99729 1.67385 0
M  V30 10767 N 1034.67 -1.14067 1.0875 0
M  V30 10768 C 1036.08 -1.66747 0.839778 0
M  V30 10769 C 1036.43 -1.85711 -0.632909 0
M  V30 10770 O 1035.56 -1.57084 -1.48841 0
M  V30 10771 C 1036.15 -3.02896 1.51787 0
M  V30 10772 C 1034.71 -3.52596 1.3173 0
M  V30 10773 C 1033.86 -2.27994 1.57841 0
M  V30 10774 H 1036.81 -0.980838 1.24761 0
M  V30 10775 H 1036.83 -3.68526 0.947057 0
M  V30 10776 H 1036.34 -2.89062 2.58969 0
M  V30 10777 H 1034.44 -3.71647 0.266339 0
M  V30 10778 H 1034.56 -4.33151 2.04736 0
M  V30 10779 H 1032.92 -2.34241 1.00015 0
M  V30 10780 H 1033.7 -2.16732 2.66237 0
M  V30 10781 N 1036.15 -0.873678 -1.31166 0
M  V30 10782 C 1037.08 -0.348011 -2.30892 0
M  V30 10783 C 1038.06 0.563092 -1.60509 0
M  V30 10784 O 1039.24 0.479332 -1.88192 0
M  V30 10785 C 1036.37 0.448158 -3.44396 0
M  V30 10786 C 1035.33 -0.370179 -4.26396 0
M  V30 10787 C 1034.65 0.551903 -5.31844 0
M  V30 10788 C 1035.95 -1.60624 -4.96988 0
M  V30 10789 H 1037.65 -1.18134 -2.75109 0
M  V30 10790 H 1035.19 -0.569502 -1.3226 0
M  V30 10791 H 1037.15 0.826458 -4.13216 0
M  V30 10792 H 1035.87 1.31503 -2.98956 0
M  V30 10793 H 1034.53 -0.730472 -3.59249 0
M  V30 10794 H 1034.18 1.41616 -4.82653 0
M  V30 10795 H 1033.88 0.00823478 -5.87599 0
M  V30 10796 H 1035.4 0.926965 -6.03523 0
M  V30 10797 H 1036.82 -1.29917 -5.58386 0
M  V30 10798 H 1035.21 -2.08926 -5.62557 0
M  V30 10799 H 1036.28 -2.357 -4.23761 0
M  V30 10800 N 1037.63 1.44308 -0.633487 0
M  V30 10801 C 1038.54 2.34492 0.0711787 0
M  V30 10802 C 1039.55 1.52754 0.8332 0
M  V30 10803 O 1040.73 1.85475 0.784929 0
M  V30 10804 C 1037.79 3.30767 1.03895 0
M  V30 10805 C 1036.85 4.28412 0.276043 0
M  V30 10806 C 1036.09 5.20087 1.19772 0
M  V30 10807 O 1036.31 5.15743 2.4365 0
M  V30 10808 O 1035.24 5.98038 0.680764 0
M  V30 10809 H 1039.07 2.96203 -0.67063 0
M  V30 10810 H 1036.66 1.4412 -0.393678 0
M  V30 10811 H 1038.54 3.90021 1.59566 0
M  V30 10812 H 1037.21 2.71586 1.76133 0
M  V30 10813 H 1036.12 3.72696 -0.32377 0
M  V30 10814 H 1037.45 4.9052 -0.406364 0
M  V30 10815 N 1039.1 0.374177 1.53094 0
M  V30 10816 C 1040.07 -0.455999 2.24618 0
M  V30 10817 C 1041.07 -1.00269 1.25709 0
M  V30 10818 O 1042.26 -0.887077 1.49922 0
M  V30 10819 C 1039.39 -1.63822 2.98957 0
M  V30 10820 H 1040.58 0.169986 2.99418 0
M  V30 10821 H 1038.14 0.126015 1.55791 0
M  V30 10822 H 1038.87 -2.30205 2.28421 0
M  V30 10823 H 1038.66 -1.25308 3.71538 0
M  V30 10824 H 1040.15 -2.22633 3.53305 0
M  V30 10825 N 1040.58 -1.57259 0.103575 0
M  V30 10826 C 1041.51 -2.1153 -0.882472 0
M  V30 10827 C 1042.53 -1.05446 -1.24036 0
M  V30 10828 O 1043.72 -1.32867 -1.192 0
M  V30 10829 C 1040.82 -2.58717 -2.18903 0
M  V30 10830 C 1039.99 -3.8873 -2.00519 0
M  V30 10831 C 1039.05 -4.21675 -3.14764 0
M  V30 10832 O 1038.07 -4.90755 -2.88355 0
M  V30 10833 N 1039.28 -3.77757 -4.40772 0
M  V30 10834 H 1042.04 -2.96758 -0.418901 0
M  V30 10835 H 1039.6 -1.61696 -0.0812921 0
M  V30 10836 H 1041.59 -2.77797 -2.94297 0
M  V30 10837 H 1040.16 -1.78454 -2.56657 0
M  V30 10838 H 1039.38 -3.78714 -1.09406 0
M  V30 10839 H 1040.67 -4.73771 -1.85522 0
M  V30 10840 H 1040.07 -3.22011 -4.65108 0
M  V30 10841 H 1038.63 -4.01975 -5.13088 0
M  V30 10842 N 1042.06 0.170153 -1.56679 0
M  V30 10843 C 1042.97 1.23057 -1.99735 0
M  V30 10844 C 1043.99 1.48374 -0.908912 0
M  V30 10845 O 1045.16 1.60499 -1.21663 0
M  V30 10846 C 1042.23 2.54944 -2.34956 0
M  V30 10847 C 1041.29 2.3748 -3.57634 0
M  V30 10848 C 1040.52 3.63078 -3.91165 0
M  V30 10849 O 1040.74 4.68304 -3.2565 0
M  V30 10850 O 1039.68 3.57119 -4.8451 0
M  V30 10851 H 1043.5 0.895104 -2.9021 0
M  V30 10852 H 1041.09 0.377109 -1.44562 0
M  V30 10853 H 1042.97 3.32742 -2.58574 0
M  V30 10854 H 1041.65 2.88068 -1.47643 0
M  V30 10855 H 1040.55 1.57709 -3.39232 0
M  V30 10856 H 1041.89 2.0928 -4.45491 0
M  V30 10857 N 1043.54 1.5137 0.438746 0
M  V30 10858 C 1044.5 1.71993 1.51496 0
M  V30 10859 C 1045.5 0.589978 1.49586 0
M  V30 10860 O 1046.69 0.857505 1.51633 0
M  V30 10861 C 1043.82 1.77508 2.91039 0
M  V30 10862 H 1045.02 2.68041 1.34514 0
M  V30 10863 H 1042.57 1.41338 0.667326 0
M  V30 10864 H 1043.3 0.832698 3.13427 0
M  V30 10865 H 1043.09 2.59627 2.9383 0
M  V30 10866 H 1044.58 1.95308 3.69113 0
M  V30 10867 N 1045.02 -0.694098 1.41492 0
M  V30 10868 C 1046.24 -1.48789 1.44488 0
M  V30 10869 C 1046.67 -1.88028 0.0521588 0
M  V30 10870 O 1046.02 -1.54727 -0.944952 0
M  V30 10871 C 1046.07 -2.72586 2.3607 0
M  V30 10872 O 1045.18 -3.70128 1.81876 0
M  V30 10873 H 1044.52 -0.447758 0.490315 0
M  V30 10874 H 1047.05 -0.853036 1.85969 0
M  V30 10875 H 1047.06 -3.20877 2.51995 0
M  V30 10876 H 1045.73 -2.43363 3.37264 0
M  V30 10877 H 1044.31 -3.29069 1.75408 0
M  V30 10878 N 1046.49 -1.27344 -0.928501 0
M  V30 10879 C 1047.74 -1.13635 -1.6761 0
M  V30 10880 C 1048.07 0.317957 -1.91884 0
M  V30 10881 O 1047.32 1.24904 -1.50657 0
M  V30 10882 C 1047.62 -1.86439 -3.04918 0
M  V30 10883 C 1047.29 -3.36298 -3.00358 0
M  V30 10884 C 1045.95 -3.77173 -2.98821 0
M  V30 10885 C 1048.3 -4.31921 -2.91708 0
M  V30 10886 C 1045.63 -5.12037 -2.86417 0
M  V30 10887 C 1047.98 -5.66841 -2.80846 0
M  V30 10888 C 1046.65 -6.07011 -2.77659 0
M  V30 10889 H 1045.92 -0.415821 -0.61333 0
M  V30 10890 H 1048.56 -1.57943 -1.08288 0
M  V30 10891 H 1046.87 -1.34638 -3.6794 0
M  V30 10892 H 1048.57 -1.73261 -3.61637 0
M  V30 10893 H 1045.16 -3.0379 -3.0234 0
M  V30 10894 H 1049.34 -4.01314 -2.91994 0
M  V30 10895 H 1044.6 -5.42307 -2.82336 0
M  V30 10896 H 1048.77 -6.40608 -2.73119 0
M  V30 10897 H 1046.4 -7.11467 -2.67804 0
M  V30 10898 N 1047.97 1.13488 -1.09353 0
M  V30 10899 C 1048.9 2.18563 -0.69012 0
M  V30 10900 C 1049.92 1.60585 0.267651 0
M  V30 10901 O 1051.11 1.78419 0.0538176 0
M  V30 10902 C 1048.21 3.389 0.00391255 0
M  V30 10903 C 1047.38 4.2639 -0.975209 0
M  V30 10904 C 1046.44 5.25258 -0.314719 0
M  V30 10905 O 1045.46 5.6101 -0.962119 0
M  V30 10906 N 1046.67 5.72978 0.931458 0
M  V30 10907 H 1049.43 2.53788 -1.59411 0
M  V30 10908 H 1046.99 1.28803 -0.980886 0
M  V30 10909 H 1048.98 4.02112 0.45696 0
M  V30 10910 H 1047.55 3.0192 0.81014 0
M  V30 10911 H 1046.77 3.59964 -1.60684 0
M  V30 10912 H 1048.06 4.817 -1.63836 0
M  V30 10913 H 1047.46 5.46078 1.477 0
M  V30 10914 H 1046.02 6.38131 1.32784 0
M  V30 10915 N 1049.45 0.880621 1.30701 0
M  V30 10916 C 1050.4 0.342397 2.28246 0
M  V30 10917 C 1051.37 -0.565023 1.56194 0
M  V30 10918 O 1052.55 -0.494377 1.84284 0
M  V30 10919 C 1049.69 -0.440859 3.42272 0
M  V30 10920 C 1048.81 0.495284 4.29151 0
M  V30 10921 C 1047.94 -0.303141 5.30334 0
M  V30 10922 C 1046.98 0.628751 6.08862 0
M  V30 10923 N 1046.12 -0.13408 7.01972 0
M  V30 10924 H 1050.96 1.17938 2.73669 0
M  V30 10925 H 1048.49 0.59296 1.34619 0
M  V30 10926 H 1050.45 -0.910854 4.07135 0
M  V30 10927 H 1049.08 -1.24245 2.97931 0
M  V30 10928 H 1048.13 1.08376 3.64635 0
M  V30 10929 H 1049.45 1.2094 4.83916 0
M  V30 10930 H 1048.6 -0.835181 6.00924 0
M  V30 10931 H 1047.34 -1.05049 4.76252 0
M  V30 10932 H 1046.34 1.17246 5.37153 0
M  V30 10933 H 1047.57 1.37512 6.65032 0
M  V30 10934 H 1045.52 -0.864046 6.50285 0
M  V30 10935 H 1045.43 0.520486 7.54206 0
M  V30 10936 H 1046.7 -0.647005 7.7681 0
M  V30 10937 N 1050.93 -1.4397 0.641131 0
M  V30 10938 C 1051.88 -2.30728 -0.0577905 0
M  V30 10939 C 1052.85 -1.44059 -0.826819 0
M  V30 10940 O 1054.03 -1.72947 -0.805853 0
M  V30 10941 C 1051.17 -3.29478 -1.02657 0
M  V30 10942 C 1050.28 -4.31247 -0.254913 0
M  V30 10943 C 1049.42 -5.17085 -1.2164 0
M  V30 10944 C 1048.46 -6.10556 -0.434481 0
M  V30 10945 N 1047.6 -6.89059 -1.34694 0
M  V30 10946 H 1052.44 -2.8995 0.687953 0
M  V30 10947 H 1049.97 -1.4285 0.351029 0
M  V30 10948 H 1051.93 -3.85228 -1.60173 0
M  V30 10949 H 1050.56 -2.71932 -1.73933 0
M  V30 10950 H 1049.61 -3.77889 0.436338 0
M  V30 10951 H 1050.92 -4.97545 0.353642 0
M  V30 10952 H 1050.08 -5.77402 -1.86258 0
M  V30 10953 H 1048.82 -4.50885 -1.85888 0
M  V30 10954 H 1047.82 -5.49339 0.225125 0
M  V30 10955 H 1049.05 -6.78795 0.203415 0
M  V30 10956 H 1046.99 -6.25518 -1.97644 0
M  V30 10957 H 1046.91 -7.51833 -0.792657 0
M  V30 10958 H 1048.18 -7.5389 -1.98165 0
M  V30 10959 N 1052.41 -0.382291 -1.52893 0
M  V30 10960 C 1053.65 0.202133 -2.01489 0
M  V30 10961 C 1053.98 1.47399 -1.26901 0
M  V30 10962 O 1053.24 1.92439 -0.355771 0
M  V30 10963 C 1053.54 0.523437 -3.53546 0
M  V30 10964 C 1053.2 -0.656042 -4.46102 0
M  V30 10965 C 1051.86 -0.979633 -4.71123 0
M  V30 10966 C 1054.22 -1.44545 -5.00756 0
M  V30 10967 C 1051.54 -2.0943 -5.48047 0
M  V30 10968 C 1053.9 -2.55066 -5.78899 0
M  V30 10969 C 1052.56 -2.87942 -6.02201 0
M  V30 10970 H 1051.83 0.0739659 -0.737299 0
M  V30 10971 H 1054.48 -0.518196 -1.84356 0
M  V30 10972 H 1052.78 1.325 -3.68715 0
M  V30 10973 H 1054.48 0.988148 -3.88634 0
M  V30 10974 H 1051.07 -0.393818 -4.26787 0
M  V30 10975 H 1055.25 -1.20869 -4.81357 0
M  V30 10976 H 1050.51 -2.3528 -5.64317 0
M  V30 10977 H 1054.68 -3.1664 -6.20252 0
M  V30 10978 H 1052.31 -3.74435 -6.61591 0
M  V30 10979 N 1053.89 1.57202 -0.111913 0
M  V30 10980 C 1054.8 2.18475 0.854753 0
M  V30 10981 C 1055.81 1.15888 1.29792 0
M  V30 10982 O 1056.99 1.48329 1.36237 0
M  V30 10983 C 1054.05 2.76645 2.0897 0
M  V30 10984 C 1053.11 3.94244 1.69913 0
M  V30 10985 C 1052.35 4.49631 2.8752 0
M  V30 10986 O 1052.57 4.03926 4.02741 0
M  V30 10987 O 1051.5 5.40417 2.65015 0
M  V30 10988 H 1055.33 3.01519 0.363352 0
M  V30 10989 H 1052.91 1.4897 0.113329 0
M  V30 10990 H 1054.8 3.13755 2.81311 0
M  V30 10991 H 1053.47 1.96637 2.5713 0
M  V30 10992 H 1052.38 3.61915 0.947013 0
M  V30 10993 H 1053.71 4.75666 1.26501 0
M  V30 10994 N 1055.36 -0.161842 1.56767 0
M  V30 10995 C 1056.31 -1.21948 1.98069 0
M  V30 10996 C 1057.31 -1.45303 0.870835 0
M  V30 10997 O 1058.51 -1.45771 1.05598 0
M  V30 10998 H 1054.89 -0.410145 0.630306 0
M  V30 10999 H 1056.86 -0.844336 2.86205 0
M  V30 11000 C 1055.61 -2.549 2.36477 0
M  V30 11001 H 1054.93 -2.37755 3.21423 0
M  V30 11002 H 1056.37 -3.27568 2.69212 0
M  V30 11003 C 1054.83 -3.14353 1.21176 0
M  V30 11004 O 1055.36 -3.98519 0.504499 0
M  V30 11005 N 1053.56 -2.73582 0.979855 0
M  V30 11006 H 1053.11 -2.05239 1.55675 0
M  V30 11007 H 1053.07 -3.13696 0.21025 0
M  V30 11008 N 1056.84 -1.516 -0.430713 0
M  V30 11009 C 1058.09 -1.64596 -1.17959 0
M  V30 11010 C 1058.42 -0.365382 -1.91037 0
M  V30 11011 O 1057.67 0.650826 -1.84561 0
M  V30 11012 C 1057.97 -2.804 -2.21609 0
M  V30 11013 C 1057.64 -4.19431 -1.65495 0
M  V30 11014 C 1056.3 -4.57252 -1.49915 0
M  V30 11015 C 1058.65 -5.0616 -1.24304 0
M  V30 11016 C 1055.98 -5.79501 -0.916276 0
M  V30 11017 C 1058.33 -6.28995 -0.674437 0
M  V30 11018 C 1056.99 -6.65582 -0.505591 0
M  V30 11019 H 1056.26 -0.602301 -0.431642 0
M  V30 11020 H 1058.91 -1.8565 -0.469726 0
M  V30 11021 H 1057.22 -2.53595 -2.98658 0
M  V30 11022 H 1058.91 -2.87654 -2.79385 0
M  V30 11023 H 1055.5 -3.89615 -1.78599 0
M  V30 11024 H 1059.69 -4.77541 -1.35159 0
M  V30 11025 H 1054.94 -6.0649 -0.77328 0
M  V30 11026 H 1059.12 -6.95536 -0.346779 0
M  V30 11027 H 1056.74 -7.60182 -0.0518188 0
M  V30 11028 N 1058.32 0.686584 -1.41858 0
M  V30 11029 C 1059.25 1.81264 -1.47193 0
M  V30 11030 C 1060.23 1.66875 -0.329657 0
M  V30 11031 O 1061.42 1.86473 -0.542347 0
M  V30 11032 C 1058.55 3.19472 -1.36216 0
M  V30 11033 C 1057.5 3.4858 -2.48347 0
M  V30 11034 C 1056.83 4.86239 -2.22432 0
M  V30 11035 C 1058.13 3.46653 -3.90678 0
M  V30 11036 H 1059.82 1.77057 -2.41436 0
M  V30 11037 H 1057.37 0.850415 -1.16206 0
M  V30 11038 H 1059.32 3.97969 -1.38558 0
M  V30 11039 H 1058.04 3.24327 -0.384611 0
M  V30 11040 H 1056.7 2.72437 -2.45303 0
M  V30 11041 H 1056.35 4.8773 -1.22999 0
M  V30 11042 H 1056.05 5.06677 -2.97577 0
M  V30 11043 H 1057.57 5.67034 -2.26505 0
M  V30 11044 H 1058.99 4.15139 -3.95389 0
M  V30 11045 H 1057.38 3.78625 -4.65578 0
M  V30 11046 H 1058.45 2.45451 -4.18189 0
M  V30 11047 N 1059.8 1.27835 0.921735 0
M  V30 11048 C 1060.75 1.07723 2.00947 0
M  V30 11049 C 1061.73 0.00336676 1.609 0
M  V30 11050 O 1062.92 0.222593 1.75595 0
M  V30 11051 C 1060.05 0.732732 3.35389 0
M  V30 11052 C 1059.14 1.84504 3.81863 0
M  V30 11053 N 1059.53 3.08551 4.00787 0
M  V30 11054 C 1057.83 1.73308 4.10951 0
M  V30 11055 C 1058.53 3.80974 4.39584 0
M  V30 11056 N 1057.5 3.08773 4.47393 0
M  V30 11057 H 1061.31 2.01854 2.13617 0
M  V30 11058 H 1058.82 1.18637 1.109 0
M  V30 11059 H 1060.82 0.56975 4.12988 0
M  V30 11060 H 1059.48 -0.200885 3.24078 0
M  V30 11061 H 1060.49 3.44248 3.86928 0
M  V30 11062 H 1057.17 0.870698 4.0832 0
M  V30 11063 H 1058.56 4.87617 4.62255 0
M  V30 11064 N 1061.28 -1.12907 1.09954 0
M  V30 11065 C 1062.22 -2.20561 0.73863 0
M  V30 11066 C 1063.22 -1.67347 -0.262944 0
M  V30 11067 O 1064.42 -1.79574 -0.123834 0
M  V30 11068 H 1060.8 -0.718823 0.220901 0
M  V30 11069 H 1062.77 -2.4826 1.65559 0
M  V30 11070 C 1061.52 -3.47227 0.181239 0
M  V30 11071 H 1060.84 -3.88516 0.943144 0
M  V30 11072 H 1062.28 -4.23987 -0.0332888 0
M  V30 11073 C 1060.74 -3.18956 -1.08485 0
M  V30 11074 O 1061.27 -3.38224 -2.1672 0
M  V30 11075 N 1059.48 -2.72797 -1.00151 0
M  V30 11076 H 1059.02 -2.57317 -0.120645 0
M  V30 11077 H 1058.98 -2.54256 -1.84935 0
M  V30 11078 N 1062.75 -0.88754 -1.30232 0
M  V30 11079 C 1063.72 -0.361095 -2.26338 0
M  V30 11080 C 1064.72 0.497871 -1.52898 0
M  V30 11081 O 1065.91 0.30466 -1.71515 0
M  V30 11082 C 1063.04 0.485135 -3.3743 0
M  V30 11083 H 1064.23 -1.20973 -2.74419 0
M  V30 11084 H 1061.78 -0.664619 -1.41466 0
M  V30 11085 H 1062.52 1.35425 -2.9467 0
M  V30 11086 H 1062.3 -0.130173 -3.91884 0
M  V30 11087 H 1063.79 0.845169 -4.08958 0
M  V30 11088 N 1064.23 1.43628 -0.648757 0
M  V30 11089 C 1065.48 2.01083 -0.157692 0
M  V30 11090 C 1065.79 1.51756 1.23408 0
M  V30 11091 O 1067 2.01455 1.82012 0
M  V30 11092 C 1065.46 3.59157 -0.231118 0
M  V30 11093 C 1065.06 4.17478 -1.6253 0
M  V30 11094 C 1066.81 4.24016 0.202573 0
M  V30 11095 C 1064.72 5.67832 -1.6529 0
M  V30 11096 H 1063.65 0.751977 -0.0551897 0
M  V30 11097 H 1066.3 1.64648 -0.810139 0
M  V30 11098 H 1064.68 3.92972 0.488755 0
M  V30 11099 H 1065.85 3.9517 -2.37017 0
M  V30 11100 H 1064.17 3.64973 -2.00459 0
M  V30 11101 H 1066.76 5.34319 0.20174 0
M  V30 11102 H 1067.11 3.97616 1.23319 0
M  V30 11103 H 1067.64 3.95068 -0.465398 0
M  V30 11104 H 1064.38 5.98994 -2.66246 0
M  V30 11105 H 1063.9 5.92209 -0.951217 0
M  V30 11106 H 1065.58 6.3179 -1.39465 0
M  V30 11107 N 1065.71 0.390394 1.52688 0
M  V30 11108 C 1066.94 -0.191485 2.06012 0
M  V30 11109 C 1067.35 -1.40422 1.26202 0
M  V30 11110 O 1066.71 -1.79866 0.308963 0
M  V30 11111 C 1066.76 -0.560521 3.57128 0
M  V30 11112 O 1066.48 0.60404 4.33916 0
M  V30 11113 C 1067.98 -1.19814 4.26801 0
M  V30 11114 H 1065.2 -0.0286311 0.670389 0
M  V30 11115 H 1067.75 0.555939 1.96798 0
M  V30 11116 H 1065.9 -1.25784 3.66411 0
M  V30 11117 H 1066.32 0.300467 5.23639 0
M  V30 11118 H 1067.79 -1.40672 5.33775 0
M  V30 11119 H 1068.27 -2.16582 3.82085 0
M  V30 11120 H 1068.87 -0.541558 4.21838 0
M  V30 11121 N 1067.19 -1.57141 0.120249 0
M  V30 11122 C 1068.44 -1.94413 -0.53727 0
M  V30 11123 C 1068.75 -1.00594 -1.67751 0
M  V30 11124 O 1069.96 -1.27336 -2.39787 0
M  V30 11125 C 1068.41 -3.45521 -1.00714 0
M  V30 11126 C 1068.02 -4.47878 0.104706 0
M  V30 11127 C 1069.76 -3.9171 -1.63596 0
M  V30 11128 C 1067.67 -5.90165 -0.381932 0
M  V30 11129 H 1066.6 -0.725745 -0.204475 0
M  V30 11130 H 1069.25 -1.82404 0.200302 0
M  V30 11131 H 1067.63 -3.52769 -1.79917 0
M  V30 11132 H 1068.81 -4.523 0.881002 0
M  V30 11133 H 1067.12 -4.11448 0.640264 0
M  V30 11134 H 1069.72 -4.95433 -2.01122 0
M  V30 11135 H 1070.06 -3.31756 -2.51483 0
M  V30 11136 H 1070.6 -3.87268 -0.909319 0
M  V30 11137 H 1067.34 -6.53877 0.460921 0
M  V30 11138 H 1066.86 -5.89161 -1.12468 0
M  V30 11139 H 1068.53 -6.41488 -0.842748 0
M  V30 11140 N 1068.67 0.153526 -1.5685 0
M  V30 11141 C 1070.08 0.714247 -1.72498 0
M  V30 11142 C 1070.43 1.81968 -0.733621 0
M  V30 11143 O 1069.55 2.16163 0.10118 0
M  V30 11144 C 1070.15 1.30238 -3.12767 0
M  V30 11145 C 1068.71 1.80974 -3.30038 0
M  V30 11146 C 1067.85 0.695638 -2.68433 0
M  V30 11147 H 1070.81 -0.0720733 -1.58536 0
M  V30 11148 H 1070.83 2.17217 -3.12405 0
M  V30 11149 H 1070.34 0.497605 -3.84897 0
M  V30 11150 H 1068.44 2.64039 -2.62895 0
M  V30 11151 H 1068.55 1.94294 -4.37934 0
M  V30 11152 H 1066.92 1.12061 -2.28723 0
M  V30 11153 H 1067.7 -0.0975885 -3.43161 0
M  V30 11154 N 1070.14 1.51827 0.422667 0
M  V30 11155 C 1071.39 1.6445 1.16786 0
M  V30 11156 C 1071.71 0.373792 1.91995 0
M  V30 11157 O 1072.91 0.379621 2.68833 0
M  V30 11158 C 1071.37 2.90488 2.12473 0
M  V30 11159 C 1070.98 4.24617 1.42844 0
M  V30 11160 C 1072.72 3.12472 2.87335 0
M  V30 11161 C 1070.63 5.41791 2.371 0
M  V30 11162 H 1069.56 0.612561 0.439641 0
M  V30 11163 H 1072.21 1.78305 0.433534 0
M  V30 11164 H 1070.59 2.703 2.89402 0
M  V30 11165 H 1071.76 4.55239 0.71372 0
M  V30 11166 H 1070.08 4.08628 0.800769 0
M  V30 11167 H 1072.68 3.9719 3.57973 0
M  V30 11168 H 1073.02 2.26148 3.49518 0
M  V30 11169 H 1073.55 3.33069 2.17509 0
M  V30 11170 H 1070.29 6.3042 1.79584 0
M  V30 11171 H 1069.81 5.15526 3.06583 0
M  V30 11172 H 1071.49 5.74329 2.97918 0
M  V30 11173 N 1071.62 -0.679052 1.4222 0
M  V30 11174 C 1072.85 -1.47248 1.46058 0
M  V30 11175 C 1073.27 -1.87962 0.0720987 0
M  V30 11176 O 1072.63 -1.5572 -0.928488 0
M  V30 11177 C 1072.68 -2.70067 2.38948 0
M  V30 11178 O 1071.78 -3.68178 1.85791 0
M  V30 11179 H 1071.12 -0.442533 0.495036 0
M  V30 11180 H 1073.65 -0.833263 1.86863 0
M  V30 11181 H 1073.66 -3.18187 2.55385 0
M  V30 11182 H 1072.34 -2.39773 3.39826 0
M  V30 11183 H 1070.92 -3.2719 1.78889 0
M  V30 11184 N 1073.1 -1.28322 -0.914942 0
M  V30 11185 C 1074.51 -1.13937 -1.47903 0
M  V30 11186 C 1074.86 0.271072 -1.94318 0
M  V30 11187 O 1073.99 1.16522 -1.8235 0
M  V30 11188 C 1074.58 -2.06221 -2.68809 0
M  V30 11189 C 1073.14 -1.95903 -3.21402 0
M  V30 11190 C 1072.29 -1.98031 -1.94111 0
M  V30 11191 H 1075.24 -1.41029 -0.727772 0
M  V30 11192 H 1075.26 -1.6255 -3.44031 0
M  V30 11193 H 1074.77 -3.08866 -2.34997 0
M  V30 11194 H 1072.87 -0.962907 -3.59943 0
M  V30 11195 H 1072.99 -2.82799 -3.86732 0
M  V30 11196 H 1071.35 -1.42423 -2.11158 0
M  V30 11197 H 1072.13 -3.02354 -1.62595 0
M  V30 11198 N 1074.58 1.12322 -1.10551 0
M  V30 11199 C 1075.82 1.84333 -0.859826 0
M  V30 11200 C 1076.18 1.82539 0.608052 0
M  V30 11201 O 1075.47 1.26086 1.44267 0
M  V30 11202 C 1075.67 3.31177 -1.34375 0
M  V30 11203 C 1075.5 3.47272 -2.85714 0
M  V30 11204 C 1074.27 3.60837 -3.5373 0
M  V30 11205 C 1076.46 3.42336 -3.83811 0
M  V30 11206 N 1074.45 3.65309 -4.93378 0
M  V30 11207 C 1075.82 3.53318 -5.09477 0
M  V30 11208 C 1077.87 3.25809 -3.76501 0
M  V30 11209 C 1076.57 3.49477 -6.28695 0
M  V30 11210 C 1078.6 3.23282 -4.9522 0
M  V30 11211 C 1077.96 3.34826 -6.19735 0
M  V30 11212 H 1074.06 0.690186 -0.367651 0
M  V30 11213 H 1076.65 1.34463 -1.40811 0
M  V30 11214 H 1074.82 3.79585 -0.822767 0
M  V30 11215 H 1076.55 3.91051 -1.04217 0
M  V30 11216 H 1073.3 3.63005 -3.04178 0
M  V30 11217 H 1073.73 3.71207 -5.66157 0
M  V30 11218 H 1078.37 3.15777 -2.81149 0
M  V30 11219 H 1076.09 3.5828 -7.24335 0
M  V30 11220 H 1079.67 3.11674 -4.91274 0
M  V30 11221 H 1078.55 3.32847 -7.10058 0
M  V30 11222 N 1076.06 0.894434 1.2976 0
M  V30 11223 C 1077 0.366586 2.2787 0
M  V30 11224 C 1077.97 -0.548425 1.56785 0
M  V30 11225 O 1079.16 -0.474804 1.84798 0
M  V30 11226 C 1076.3 -0.404531 3.42721 0
M  V30 11227 C 1075.41 0.540774 4.28602 0
M  V30 11228 C 1074.55 -0.246875 5.30626 0
M  V30 11229 C 1073.59 0.693294 6.08161 0
M  V30 11230 N 1072.72 -0.059619 7.02075 0
M  V30 11231 H 1077.56 1.20834 2.72402 0
M  V30 11232 H 1075.1 0.607205 1.33983 0
M  V30 11233 H 1077.06 -0.86762 4.08079 0
M  V30 11234 H 1075.69 -1.21078 2.99232 0
M  V30 11235 H 1074.74 1.12237 3.63465 0
M  V30 11236 H 1076.05 1.26065 4.82606 0
M  V30 11237 H 1075.21 -0.771398 6.01776 0
M  V30 11238 H 1073.94 -0.999918 4.77339 0
M  V30 11239 H 1072.95 1.22936 5.35879 0
M  V30 11240 H 1074.17 1.44558 6.63536 0
M  V30 11241 H 1072.12 -0.795026 6.51165 0
M  V30 11242 H 1072.04 0.60045 7.53612 0
M  V30 11243 H 1073.31 -0.564577 7.77453 0
M  V30 11244 N 1077.53 -1.43282 0.656365 0
M  V30 11245 C 1078.78 -2.02075 0.171293 0
M  V30 11246 C 1079.11 -1.51682 -1.21269 0
M  V30 11247 O 1078.39 -0.711243 -1.81029 0
M  V30 11248 C 1078.67 -3.59621 0.185602 0
M  V30 11249 C 1078.52 -4.20239 1.60373 0
M  V30 11250 C 1079.84 -4.37515 -0.476289 0
M  V30 11251 H 1076.96 -0.73424 0.0637185 0
M  V30 11252 H 1079.6 -1.70539 0.837648 0
M  V30 11253 H 1077.75 -3.86619 -0.381804 0
M  V30 11254 H 1079.43 -4.0426 2.22197 0
M  V30 11255 H 1077.67 -3.76769 2.15006 0
M  V30 11256 H 1078.34 -5.29333 1.56557 0
M  V30 11257 H 1080.82 -4.16099 0.00651073 0
M  V30 11258 H 1079.69 -5.47169 -0.435562 0
M  V30 11259 H 1079.95 -4.14003 -1.55093 0
M  V30 11260 N 1079.01 -0.398486 -1.52479 0
M  V30 11261 C 1080.24 0.180557 -2.06111 0
M  V30 11262 C 1080.66 1.39751 -1.26945 0
M  V30 11263 O 1080.01 1.79699 -0.318497 0
M  V30 11264 C 1080.06 0.541573 -3.5742 0
M  V30 11265 O 1079.79 -0.627043 -4.33589 0
M  V30 11266 C 1081.29 1.17549 -4.27431 0
M  V30 11267 H 1078.51 0.0250754 -0.670531 0
M  V30 11268 H 1081.05 -0.566368 -1.96501 0
M  V30 11269 H 1079.21 1.23839 -3.67073 0
M  V30 11270 H 1079.62 -0.328233 -5.23472 0
M  V30 11271 H 1081.09 1.37839 -5.34513 0
M  V30 11272 H 1081.57 2.14553 -3.83228 0
M  V30 11273 H 1082.18 0.51918 -4.22119 0
M  V30 11274 N 1080.49 1.57075 -0.12858 0
M  V30 11275 C 1081.72 2.00305 0.537839 0
M  V30 11276 C 1082.14 1.00787 1.58819 0
M  V30 11277 O 1081.5 -0.0190839 1.8129 0
M  V30 11278 C 1081.55 3.42371 1.13201 0
M  V30 11279 O 1080.65 3.45786 2.24735 0
M  V30 11280 H 1079.99 0.650456 0.133428 0
M  V30 11281 H 1082.52 2.03415 -0.219882 0
M  V30 11282 H 1082.53 3.80783 1.4652 0
M  V30 11283 H 1081.21 4.14315 0.362713 0
M  V30 11284 H 1079.78 3.19201 1.92783 0
M  V30 11285 N 1081.97 -0.145205 1.5693 0
M  V30 11286 C 1083.22 -0.855955 1.82637 0
M  V30 11287 C 1083.53 -1.82255 0.710109 0
M  V30 11288 O 1084.74 -2.57758 0.852837 0
M  V30 11289 C 1083.19 -1.57278 3.23715 0
M  V30 11290 C 1082.8 -0.648507 4.43281 0
M  V30 11291 C 1084.55 -2.27021 3.58695 0
M  V30 11292 C 1082.45 -1.36706 5.75383 0
M  V30 11293 H 1081.38 -0.323385 0.68113 0
M  V30 11294 H 1084.03 -0.10869 1.83178 0
M  V30 11295 H 1082.42 -2.36574 3.17567 0
M  V30 11296 H 1083.59 0.109355 4.6067 0
M  V30 11297 H 1081.9 -0.0594029 4.16358 0
M  V30 11298 H 1084.5 -2.81423 4.54648 0
M  V30 11299 H 1084.84 -3.03598 2.8484 0
M  V30 11300 H 1085.38 -1.54642 3.66512 0
M  V30 11301 H 1082.12 -0.6431 6.52338 0
M  V30 11302 H 1081.64 -2.09759 5.61926 0
M  V30 11303 H 1083.32 -1.90748 6.18243 0
M  V30 11304 N 1083.45 -1.52049 -0.414609 0
M  V30 11305 C 1084.4 -1.75603 -1.52533 0
M  V30 11306 C 1085.39 -0.622965 -1.57529 0
M  V30 11307 O 1086.6 -0.804886 -1.61002 0
M  V30 11308 H 1082.97 -0.555222 -0.507181 0
M  V30 11309 H 1084.94 -2.68666 -1.2985 0
M  V30 11310 C 1083.69 -1.9188 -2.89961 0
M  V30 11311 H 1083.01 -2.78483 -2.86857 0
M  V30 11312 H 1084.45 -2.12363 -3.66985 0
M  V30 11313 C 1082.91 -0.684453 -3.29874 0
M  V30 11314 O 1083.44 0.150256 -4.01419 0
M  V30 11315 N 1081.65 -0.521936 -2.85874 0
M  V30 11316 H 1081.2 -1.20229 -2.27822 0
M  V30 11317 H 1081.15 0.302655 -3.1294 0
M  V30 11318 N 1084.93 0.6715 -1.42579 0
M  V30 11319 C 1085.87 1.78496 -1.46314 0
M  V30 11320 C 1086.84 1.63091 -0.314743 0
M  V30 11321 O 1088.03 1.83597 -0.519292 0
M  V30 11322 C 1085.17 3.16548 -1.37447 0
M  V30 11323 C 1084.28 3.43216 -2.62348 0
M  V30 11324 C 1083.42 4.71014 -2.456 0
M  V30 11325 C 1082.45 4.90728 -3.65859 0
M  V30 11326 N 1081.59 6.09769 -3.48032 0
M  V30 11327 H 1086.43 1.74638 -2.41466 0
M  V30 11328 H 1083.97 0.852491 -1.19879 0
M  V30 11329 H 1085.93 3.96329 -1.30303 0
M  V30 11330 H 1084.56 3.19522 -0.458891 0
M  V30 11331 H 1083.61 2.57664 -2.79846 0
M  V30 11332 H 1084.92 3.53675 -3.51732 0
M  V30 11333 H 1084.07 5.58892 -2.3606 0
M  V30 11334 H 1082.81 4.62843 -1.53712 0
M  V30 11335 H 1081.82 4.01291 -3.75827 0
M  V30 11336 H 1083.04 5.00741 -4.58732 0
M  V30 11337 H 1080.99 6.02765 -2.58864 0
M  V30 11338 H 1080.91 6.21104 -4.31005 0
M  V30 11339 H 1082.17 7.00317 -3.42311 0
M  V30 11340 N 1086.4 1.28806 0.908124 0
M  V30 11341 C 1087.63 1.19271 1.69674 0
M  V30 11342 C 1088.05 -0.244403 1.86505 0
M  V30 11343 O 1087.41 -1.17668 1.37927 0
M  V30 11344 C 1087.46 1.9023 3.06341 0
M  V30 11345 O 1086.56 1.2136 3.94139 0
M  V30 11346 H 1085.9 0.413738 0.519343 0
M  V30 11347 H 1088.43 1.70227 1.13508 0
M  V30 11348 H 1088.44 1.98356 3.56537 0
M  V30 11349 H 1087.12 2.94762 2.93408 0
M  V30 11350 H 1085.7 1.21435 3.52573 0
M  V30 11351 N 1087.88 -1.11734 1.11145 0
M  V30 11352 C 1089.29 -1.64928 0.874959 0
M  V30 11353 C 1089.64 -1.87012 -0.593375 0
M  V30 11354 O 1088.77 -1.60206 -1.45475 0
M  V30 11355 C 1089.36 -2.99608 1.58178 0
M  V30 11356 C 1087.92 -3.49723 1.39179 0
M  V30 11357 C 1087.07 -2.24595 1.62642 0
M  V30 11358 H 1090.02 -0.954154 1.26813 0
M  V30 11359 H 1090.04 -3.66434 1.02501 0
M  V30 11360 H 1089.55 -2.83504 2.65042 0
M  V30 11361 H 1087.65 -3.70998 0.345111 0
M  V30 11362 H 1087.77 -4.28711 2.13878 0
M  V30 11363 H 1086.13 -2.32067 1.04961 0
M  V30 11364 H 1086.91 -2.11036 2.70774 0
M  V30 11365 N 1089.36 -0.901303 -1.29284 0
M  V30 11366 C 1090.29 -0.337552 -2.26701 0
M  V30 11367 C 1091.3 0.517039 -1.54371 0
M  V30 11368 O 1092.49 0.333937 -1.75349 0
M  V30 11369 C 1089.59 0.537214 -3.34615 0
M  V30 11370 C 1088.77 -0.292017 -4.36424 0
M  V30 11371 C 1087.83 0.515837 -5.23666 0
M  V30 11372 O 1086.85 -0.0672303 -5.6916 0
M  V30 11373 N 1088.05 1.82159 -5.51179 0
M  V30 11374 H 1090.82 -1.17484 -2.75713 0
M  V30 11375 H 1088.38 -0.765957 -1.42635 0
M  V30 11376 H 1090.37 1.0841 -3.8991 0
M  V30 11377 H 1088.94 1.2752 -2.85408 0
M  V30 11378 H 1088.16 -1.02031 -3.80767 0
M  V30 11379 H 1089.45 -0.859855 -5.01482 0
M  V30 11380 H 1088.85 2.318 -5.16028 0
M  V30 11381 H 1087.4 2.31556 -6.09282 0
M  V30 11382 N 1090.84 1.42931 -0.663954 0
M  V30 11383 C 1092.25 1.56098 -0.332496 0
M  V30 11384 C 1092.45 1.64564 1.16279 0
M  V30 11385 O 1091.51 1.6066 1.94794 0
M  V30 11386 C 1092.82 2.81649 -1.05329 0
M  V30 11387 C 1094.37 2.95408 -1.03457 0
M  V30 11388 C 1094.85 4.23805 -1.73647 0
M  V30 11389 N 1096.34 4.30693 -1.70462 0
M  V30 11390 C 1097.07 5.28833 -2.21637 0
M  V30 11391 N 1096.57 6.33189 -2.81147 0
M  V30 11392 N 1098.36 5.20558 -2.12075 0
M  V30 11393 H 1090.51 1.3568 -1.63416 0
M  V30 11394 H 1092.77 0.652361 -0.687844 0
M  V30 11395 H 1092.48 2.81494 -2.10842 0
M  V30 11396 H 1092.35 3.72208 -0.611626 0
M  V30 11397 H 1094.74 2.95097 0.0121936 0
M  V30 11398 H 1094.82 2.06109 -1.51502 0
M  V30 11399 H 1094.47 4.24876 -2.78285 0
M  V30 11400 H 1094.4 5.12019 -1.2306 0
M  V30 11401 H 1096.89 3.55904 -1.27046 0
M  V30 11402 H 1097.2 7.04411 -3.17844 0
M  V30 11403 H 1095.55 6.33781 -2.85212 0
M  V30 11404 H 1098.74 4.3795 -1.6528 0
M  V30 11405 H 1098.91 5.96881 -2.52264 0
M  V30 11406 N 1092.32 0.406567 1.52266 0
M  V30 11407 C 1093.59 -0.228477 1.94261 0
M  V30 11408 C 1093.97 -1.62848 1.34328 0
M  V30 11409 O 1093.32 -2.22549 0.518082 0
M  V30 11410 C 1093.53 -0.237401 3.48192 0
M  V30 11411 C 1094.88 -0.457997 4.22123 0
M  V30 11412 O 1095.9 -0.316868 3.54788 0
M  V30 11413 O 1094.76 -0.735946 5.41522 0
M  V30 11414 H 1091.86 -0.146492 0.813922 0
M  V30 11415 H 1094.4 0.462325 1.63281 0
M  V30 11416 H 1093.17 0.742556 3.8419 0
M  V30 11417 H 1092.8 -0.972408 3.85526 0
M  V30 11418 N 1093.79 -1.57004 0.136909 0
M  V30 11419 C 1095.02 -2.00587 -0.527209 0
M  V30 11420 C 1095.44 -1.01628 -1.58283 0
M  V30 11421 O 1094.8 0.00946934 -1.81298 0
M  V30 11422 C 1094.85 -3.42967 -1.11384 0
M  V30 11423 O 1093.95 -3.46973 -2.22898 0
M  V30 11424 H 1093.3 -0.651155 -0.129976 0
M  V30 11425 H 1095.83 -2.03296 0.230667 0
M  V30 11426 H 1095.84 -3.81555 -1.44499 0
M  V30 11427 H 1094.51 -4.14502 -0.340736 0
M  V30 11428 H 1093.09 -3.20219 -1.91087 0
M  V30 11429 N 1095.27 0.136881 -1.57004 0
M  V30 11430 C 1096.52 0.8461 -1.83536 0
M  V30 11431 C 1096.84 1.81246 -0.71937 0
M  V30 11432 O 1096.11 1.94191 0.258161 0
M  V30 11433 H 1094.69 0.315446 -0.677128 0
M  V30 11434 H 1097.35 0.128469 -1.94476 0
M  V30 11435 H 1096.45 1.40221 -2.78827 0
M  V30 11436 N 1096.75 1.52266 0.40654 0
M  V30 11437 C 1098.17 1.41127 0.745348 0
M  V30 11438 C 1098.37 0.517802 1.94733 0
M  V30 11439 O 1097.42 -0.0154286 2.52495 0
M  V30 11440 C 1098.74 2.83696 0.996859 0
M  V30 11441 C 1100.28 2.93056 1.09942 0
M  V30 11442 C 1100.76 4.36599 1.38367 0
M  V30 11443 N 1102.25 4.39845 1.45226 0
M  V30 11444 C 1102.98 5.47975 1.68852 0
M  V30 11445 N 1102.48 6.66219 1.90065 0
M  V30 11446 N 1104.27 5.35494 1.70888 0
M  V30 11447 H 1096.42 2.08888 -0.384632 0
M  V30 11448 H 1098.69 0.941619 -0.109809 0
M  V30 11449 H 1098.39 3.51208 0.185986 0
M  V30 11450 H 1098.27 3.24895 1.91632 0
M  V30 11451 H 1100.65 2.25723 1.90088 0
M  V30 11452 H 1100.74 2.5531 0.158256 0
M  V30 11453 H 1100.38 5.04492 0.587373 0
M  V30 11454 H 1100.31 4.71883 2.33739 0
M  V30 11455 H 1102.8 3.54611 1.30612 0
M  V30 11456 H 1103.11 7.44408 2.0755 0
M  V30 11457 H 1101.46 6.69279 1.87325 0
M  V30 11458 H 1104.65 4.42093 1.53856 0
M  V30 11459 H 1104.82 6.19837 1.88962 0
M  V30 11460 N 1098.23 -0.663929 1.42933 0
M  V30 11461 C 1099.18 -1.77007 1.4371 0
M  V30 11462 C 1100.16 -1.57945 0.306948 0
M  V30 11463 O 1101.35 -1.68239 0.549967 0
M  V30 11464 C 1098.48 -3.15535 1.3525 0
M  V30 11465 C 1097.57 -3.40183 2.53252 0
M  V30 11466 N 1097.96 -3.35357 3.78641 0
M  V30 11467 C 1096.26 -3.70861 2.47746 0
M  V30 11468 C 1096.96 -3.5979 4.57085 0
M  V30 11469 N 1095.94 -3.81084 3.87655 0
M  V30 11470 H 1099.74 -1.71686 2.3854 0
M  V30 11471 H 1097.25 -0.865191 1.37434 0
M  V30 11472 H 1099.25 -3.94816 1.33888 0
M  V30 11473 H 1097.91 -3.22046 0.414308 0
M  V30 11474 H 1098.92 -3.15011 4.11082 0
M  V30 11475 H 1095.6 -3.84552 1.62561 0
M  V30 11476 H 1096.99 -3.61928 5.6609 0
M  V30 11477 N 1099.71 -1.29285 -0.901281 0
M  V30 11478 C 1101.12 -1.07263 -1.18182 0
M  V30 11479 C 1101.32 0.177087 -2.0072 0
M  V30 11480 O 1100.38 0.875292 -2.36844 0
M  V30 11481 C 1101.69 -2.32717 -1.9043 0
M  V30 11482 C 1103.24 -2.3802 -2.03262 0
M  V30 11483 C 1103.71 -3.63273 -2.7892 0
M  V30 11484 N 1105.21 -3.63986 -2.86475 0
M  V30 11485 C 1105.94 -4.57585 -3.45549 0
M  V30 11486 N 1105.44 -5.61513 -4.05801 0
M  V30 11487 N 1107.23 -4.45157 -3.43208 0
M  V30 11488 H 1099.38 -2.09487 -0.350536 0
M  V30 11489 H 1101.64 -0.922647 -0.217778 0
M  V30 11490 H 1101.35 -3.23828 -1.37216 0
M  V30 11491 H 1101.22 -2.40102 -2.90913 0
M  V30 11492 H 1103.61 -1.47398 -2.55652 0
M  V30 11493 H 1103.69 -2.3462 -1.01916 0
M  V30 11494 H 1103.34 -4.54246 -2.27206 0
M  V30 11495 H 1103.27 -3.6393 -3.80608 0
M  V30 11496 H 1105.76 -2.8884 -2.43679 0
M  V30 11497 H 1106.07 -6.29058 -4.48894 0
M  V30 11498 H 1104.41 -5.65325 -4.04268 0
M  V30 11499 H 1107.61 -3.63158 -2.95354 0
M  V30 11500 H 1107.78 -5.18286 -3.88952 0
M  V30 11501 N 1101.18 1.11143 -1.11736 0
M  V30 11502 C 1102.6 1.34962 -0.851905 0
M  V30 11503 C 1102.8 1.94627 0.521797 0
M  V30 11504 O 1101.86 2.18121 1.27198 0
M  V30 11505 C 1103.17 2.27832 -1.96248 0
M  V30 11506 C 1104.72 2.41388 -1.9925 0
M  V30 11507 C 1105.19 3.37582 -3.09519 0
M  V30 11508 N 1106.68 3.45147 -3.08914 0
M  V30 11509 C 1107.42 4.19527 -3.90876 0
M  V30 11510 N 1106.91 4.96858 -4.82809 0
M  V30 11511 N 1108.71 4.15071 -3.79042 0
M  V30 11512 H 1100.86 0.707801 -2.0026 0
M  V30 11513 H 1103.12 0.374172 -0.871033 0
M  V30 11514 H 1102.83 1.91189 -2.95194 0
M  V30 11515 H 1102.7 3.28078 -1.86132 0
M  V30 11516 H 1105.09 2.77304 -1.00928 0
M  V30 11517 H 1105.17 1.40983 -2.13442 0
M  V30 11518 H 1104.81 3.02393 -4.0807 0
M  V30 11519 H 1104.74 4.37849 -2.92568 0
M  V30 11520 H 1107.23 2.89991 -2.42309 0
M  V30 11521 H 1107.55 5.5099 -5.41876 0
M  V30 11522 H 1105.89 4.96008 -4.86828 0
M  V30 11523 H 1109.08 3.53748 -3.06562 0
M  V30 11524 H 1109.26 4.72781 -4.4315 0
M  V30 11525 N 1102.66 0.908147 1.28804 0
M  V30 11526 C 1103.63 0.397058 2.25735 0
M  V30 11527 C 1104.63 -0.473483 1.53671 0
M  V30 11528 O 1105.82 -0.277335 1.71978 0
M  V30 11529 C 1102.95 -0.431392 3.38159 0
M  V30 11530 H 1104.14 1.25323 2.72459 0
M  V30 11531 H 1101.69 0.687041 1.4039 0
M  V30 11532 H 1102.43 -1.3072 2.96787 0
M  V30 11533 H 1102.21 0.192502 3.91627 0
M  V30 11534 H 1103.7 -0.78 4.10251 0
M  V30 11535 N 1104.14 -1.42577 0.671525 0
M  V30 11536 C 1105.1 -2.292 0.000392482 0
M  V30 11537 C 1106.1 -1.43158 -0.732294 0
M  V30 11538 O 1107.29 -1.64583 -0.570789 0
M  V30 11539 C 1104.43 -3.25591 -1.01013 0
M  V30 11540 H 1105.62 -2.90037 0.762783 0
M  V30 11541 H 1103.17 -1.50162 0.433703 0
M  V30 11542 H 1103.91 -2.69685 -1.80112 0
M  V30 11543 H 1103.69 -3.89049 -0.488183 0
M  V30 11544 H 1105.18 -3.90561 -1.47824 0
M  V30 11545 N 1105.62 -0.414636 -1.52048 0
M  V30 11546 C 1106.87 0.159034 -2.01473 0
M  V30 11547 C 1107.19 1.45176 -1.30188 0
M  V30 11548 O 1106.46 1.91134 -0.429469 0
M  V30 11549 H 1105.04 0.0617604 -0.744443 0
M  V30 11550 H 1107.7 -0.552141 -1.86916 0
M  V30 11551 H 1106.8 0.351217 -3.10118 0
M  V30 11552 N 1107.1 1.56929 -0.145233 0
M  V30 11553 C 1108.51 1.82877 0.375884 0
M  V30 11554 C 1108.86 1.06384 1.64854 0
M  V30 11555 O 1107.98 0.30857 2.14189 0
M  V30 11556 C 1108.58 3.31725 0.688744 0
M  V30 11557 C 1107.14 3.58261 1.15439 0
M  V30 11558 C 1106.28 2.76737 0.176565 0
M  V30 11559 H 1109.24 1.54328 -0.36996 0
M  V30 11560 H 1109.26 3.47784 1.54359 0
M  V30 11561 H 1108.77 3.87371 -0.237694 0
M  V30 11562 H 1106.87 3.08 2.09683 0
M  V30 11563 H 1106.98 4.66732 1.08158 0
M  V30 11564 H 1105.35 2.45761 0.668843 0
M  V30 11565 H 1106.13 3.35154 -0.743432 0
M  V30 11566 N 1108.58 -0.128553 1.57075 0
M  V30 11567 C 1109.51 -1.15953 2.02675 0
M  V30 11568 C 1110.49 -1.43743 0.909501 0
M  V30 11569 O 1111.67 -1.54348 1.17857 0
M  V30 11570 C 1108.8 -2.48813 2.423 0
M  V30 11571 C 1107.76 -2.35506 3.57381 0
M  V30 11572 C 1107.08 -3.73243 3.82875 0
M  V30 11573 C 1108.38 -1.82359 4.89431 0
M  V30 11574 H 1110.08 -0.780283 2.89054 0
M  V30 11575 H 1107.62 -0.373896 1.39061 0
M  V30 11576 H 1109.57 -3.21179 2.72804 0
M  V30 11577 H 1108.3 -2.88609 1.52881 0
M  V30 11578 H 1106.96 -1.6559 3.27071 0
M  V30 11579 H 1106.61 -4.10507 2.90677 0
M  V30 11580 H 1106.31 -3.65195 4.60333 0
M  V30 11581 H 1107.83 -4.47128 4.15823 0
M  V30 11582 H 1109.24 -2.44533 5.18533 0
M  V30 11583 H 1107.64 -1.85156 5.70822 0
M  V30 11584 H 1108.71 -0.780478 4.78578 0
M  V30 11585 N 1110.05 -1.5248 -0.398459 0
M  V30 11586 C 1111.47 -1.4152 -0.737854 0
M  V30 11587 C 1111.67 -0.528122 -1.94456 0
M  V30 11588 O 1110.73 0.00203799 -2.525 0
M  V30 11589 C 1112.04 -2.8422 -0.9818 0
M  V30 11590 C 1113.59 -2.93635 -1.08386 0
M  V30 11591 C 1114.06 -4.37327 -1.3605 0
M  V30 11592 N 1115.55 -4.40609 -1.42892 0
M  V30 11593 C 1116.29 -5.48863 -1.65944 0
M  V30 11594 N 1115.78 -6.67217 -1.86529 0
M  V30 11595 N 1117.58 -5.36393 -1.68046 0
M  V30 11596 H 1109.73 -2.08681 0.395705 0
M  V30 11597 H 1111.99 -0.941023 0.114801 0
M  V30 11598 H 1111.7 -3.51302 -0.167358 0
M  V30 11599 H 1111.57 -3.25907 -1.89907 0
M  V30 11600 H 1113.96 -2.26728 -1.88888 0
M  V30 11601 H 1114.04 -2.5539 -0.144714 0
M  V30 11602 H 1113.68 -5.04797 -0.56061 0
M  V30 11603 H 1113.61 -4.73116 -2.31233 0
M  V30 11604 H 1116.1 -3.55298 -1.2873 0
M  V30 11605 H 1116.42 -7.45498 -2.03599 0
M  V30 11606 H 1114.76 -6.70263 -1.83773 0
M  V30 11607 H 1117.95 -4.42903 -1.51509 0
M  V30 11608 H 1118.13 -6.2083 -1.85672 0
M  V30 11609 N 1111.53 0.65634 -1.43283 0
M  V30 11610 C 1112.46 1.78101 -1.51004 0
M  V30 11611 C 1113.44 1.66138 -0.36498 0
M  V30 11612 O 1114.63 1.85281 -0.581778 0
M  V30 11613 C 1111.76 3.16511 -1.42961 0
M  V30 11614 C 1110.71 3.43233 -2.55685 0
M  V30 11615 C 1110.04 4.81411 -2.32696 0
M  V30 11616 C 1111.34 3.38288 -3.97943 0
M  V30 11617 H 1113.03 1.71896 -2.45137 0
M  V30 11618 H 1110.58 0.825575 -1.17984 0
M  V30 11619 H 1112.53 3.94941 -1.46968 0
M  V30 11620 H 1111.25 3.23439 -0.45332 0
M  V30 11621 H 1109.91 2.67173 -2.51026 0
M  V30 11622 H 1109.56 4.85011 -1.33317 0
M  V30 11623 H 1109.26 5.00251 -3.08257 0
M  V30 11624 H 1110.79 5.62102 -2.38481 0
M  V30 11625 H 1112.2 4.06659 -4.04106 0
M  V30 11626 H 1110.6 3.68664 -4.73505 0
M  V30 11627 H 1111.67 2.36525 -4.23301 0
M  V30 11628 N 1113.01 1.29761 0.894412 0
M  V30 11629 C 1114.26 1.17806 1.64214 0
M  V30 11630 C 1114.58 -0.269588 1.93127 0
M  V30 11631 O 1113.85 -1.18352 1.56107 0
M  V30 11632 H 1112.43 0.433002 0.608702 0
M  V30 11633 H 1115.09 1.6276 1.07216 0
M  V30 11634 H 1114.19 1.73201 2.5963 0
M  V30 11635 N 1114.49 -1.10549 1.12324 0
M  V30 11636 C 1115.74 -1.82124 0.876083 0
M  V30 11637 C 1116.06 -1.85547 -0.599761 0
M  V30 11638 O 1115.33 -1.33269 -1.43584 0
M  V30 11639 H 1113.91 -0.674455 0.321122 0
M  V30 11640 H 1116.57 -1.33766 1.41748 0
M  V30 11641 H 1115.66 -2.85688 1.25653 0
M  V30 11642 N 1115.97 -0.914965 -1.28321 0
M  V30 11643 C 1116.91 -0.394477 -2.29231 0
M  V30 11644 C 1117.91 0.514481 -1.61398 0
M  V30 11645 O 1119.11 0.395591 -1.75599 0
M  V30 11646 H 1115.49 -0.108969 -0.744063 0
M  V30 11647 H 1117.46 -1.25862 -2.70557 0
M  V30 11648 C 1116.21 0.349134 -3.45943 0
M  V30 11649 H 1115.53 -0.341087 -3.98342 0
M  V30 11650 H 1116.97 0.677944 -4.18545 0
M  V30 11651 C 1115.43 1.55747 -2.98738 0
M  V30 11652 O 1115.96 2.65654 -3.01315 0
M  V30 11653 N 1114.17 1.40488 -2.54384 0
M  V30 11654 H 1113.71 0.510716 -2.52487 0
M  V30 11655 H 1113.67 2.21464 -2.23161 0
M  V30 11656 N 1117.44 1.42219 -0.679077 0
M  V30 11657 C 1118.67 2.06333 -0.210097 0
M  V30 11658 C 1119.09 1.50703 1.12562 0
M  V30 11659 O 1118.45 0.627241 1.70104 0
M  V30 11660 C 1118.5 3.60243 -0.160322 0
M  V30 11661 O 1117.6 4.03122 0.869872 0
M  V30 11662 H 1116.94 0.655362 -0.106754 0
M  V30 11663 H 1119.47 1.82278 -0.929294 0
M  V30 11664 H 1119.48 4.07997 0.014384 0
M  V30 11665 H 1118.16 4.00106 -1.13526 0
M  V30 11666 H 1116.74 3.66907 0.66586 0
M  V30 11667 N 1118.92 0.422693 1.51826 0
M  V30 11668 C 1120.15 -0.15017 2.06856 0
M  V30 11669 C 1120.57 -1.36946 1.28948 0
M  V30 11670 O 1119.93 -1.78393 0.32338 0
M  V30 11671 C 1119.98 -0.465563 3.57582 0
M  V30 11672 O 1119.08 -1.55442 3.81984 0
M  V30 11673 H 1118.42 -0.00827931 0.663948 0
M  V30 11674 H 1120.95 0.599806 1.95611 0
M  V30 11675 H 1120.96 -0.720279 4.01592 0
M  V30 11676 H 1119.64 0.425679 4.13716 0
M  V30 11677 H 1118.21 -1.29081 3.49846 0
M  V30 11678 N 1120.4 -1.5685 0.153553 0
M  V30 11679 C 1121.68 -1.8796 -0.541328 0
M  V30 11680 C 1122.06 -1.06059 -1.82523 0
M  V30 11681 O 1121.4 -0.149295 -2.28012 0
M  V30 11682 C 1121.61 -3.39697 -0.800442 0
M  V30 11683 C 1122.96 -4.09057 -1.13832 0
M  V30 11684 O 1123.99 -3.44913 -0.889578 0
M  V30 11685 O 1122.85 -5.22347 -1.60673 0
M  V30 11686 H 1119.94 -0.779268 -0.276895 0
M  V30 11687 H 1122.49 -1.68626 0.190657 0
M  V30 11688 H 1121.26 -3.91151 0.107935 0
M  V30 11689 H 1120.88 -3.64582 -1.58638 0
M  V30 11690 N 1121.88 0.120221 -1.57141 0
M  V30 11691 C 1123.12 0.828222 -1.84788 0
M  V30 11692 C 1123.45 1.79936 -0.738459 0
M  V30 11693 O 1122.71 1.93824 0.270295 0
M  V30 11694 C 1123.01 1.61338 -3.18912 0
M  V30 11695 C 1122.67 0.786637 -4.43985 0
M  V30 11696 C 1121.33 0.558645 -4.77946 0
M  V30 11697 C 1123.69 0.210281 -5.20776 0
M  V30 11698 C 1121.01 -0.255975 -5.86141 0
M  V30 11699 C 1123.37 -0.591523 -6.29828 0
M  V30 11700 C 1122.03 -0.829843 -6.62322 0
M  V30 11701 H 1121.3 0.303068 -0.676188 0
M  V30 11702 H 1123.95 0.0906538 -1.91285 0
M  V30 11703 H 1122.25 2.42182 -3.07986 0
M  V30 11704 H 1123.95 2.16513 -3.37525 0
M  V30 11705 H 1120.54 0.974426 -4.17376 0
M  V30 11706 H 1124.72 0.373641 -4.94892 0
M  V30 11707 H 1119.98 -0.449849 -6.09743 0
M  V30 11708 H 1124.15 -1.04512 -6.88513 0
M  V30 11709 H 1121.78 -1.4629 -7.45992 0
M  V30 11710 N 1123.36 1.52689 0.390367 0
M  V30 11711 C 1124.27 1.8029 1.50108 0
M  V30 11712 C 1125.28 0.689582 1.59752 0
M  V30 11713 O 1126.46 0.977024 1.76114 0
M  V30 11714 C 1123.52 1.96475 2.85654 0
M  V30 11715 C 1122.58 3.2039 2.85743 0
M  V30 11716 C 1121.82 3.35793 4.14824 0
M  V30 11717 O 1122.04 2.56033 5.09709 0
M  V30 11718 O 1120.97 4.2904 4.22147 0
M  V30 11719 H 1124.8 2.74605 1.29715 0
M  V30 11720 H 1122.39 1.37763 0.578074 0
M  V30 11721 H 1124.27 2.08835 3.66013 0
M  V30 11722 H 1122.94 1.05351 3.06077 0
M  V30 11723 H 1121.85 3.13473 2.0417 0
M  V30 11724 H 1123.18 4.11356 2.70272 0
M  V30 11725 N 1124.83 -0.648732 1.43629 0
M  V30 11726 C 1126.08 -1.40446 1.44768 0
M  V30 11727 C 1126.4 -1.95447 0.0773445 0
M  V30 11728 O 1127.6 -2.71479 -0.0337942 0
M  V30 11729 C 1126.06 -2.54194 2.54781 0
M  V30 11730 C 1125.67 -2.05781 3.97942 0
M  V30 11731 C 1127.41 -3.31529 2.65121 0
M  V30 11732 C 1125.32 -3.16767 4.99412 0
M  V30 11733 H 1124.25 -0.527717 0.538545 0
M  V30 11734 H 1126.9 -0.699756 1.69634 0
M  V30 11735 H 1125.28 -3.27156 2.23125 0
M  V30 11736 H 1126.45 -1.398 4.39081 0
M  V30 11737 H 1124.77 -1.41312 3.91688 0
M  V30 11738 H 1127.37 -4.14233 3.38105 0
M  V30 11739 H 1127.71 -3.79855 1.70341 0
M  V30 11740 H 1128.24 -2.65649 2.961 0
M  V30 11741 H 1124.98 -2.73404 5.9576 0
M  V30 11742 H 1124.5 -3.81445 4.62882 0
M  V30 11743 H 1126.18 -3.81827 5.22319 0
M  V30 11744 N 1126.31 -1.30234 -0.887518 0
M  V30 11745 C 1127.24 -1.12212 -1.99853 0
M  V30 11746 C 1128.26 -0.0660929 -1.62666 0
M  V30 11747 O 1129.45 -0.311853 -1.75755 0
M  V30 11748 C 1126.55 -0.688591 -3.31831 0
M  V30 11749 C 1125.72 -1.82581 -3.97471 0
M  V30 11750 C 1124.78 -1.38126 -5.07748 0
M  V30 11751 O 1123.8 -2.08805 -5.29518 0
M  V30 11752 N 1125.01 -0.258868 -5.79923 0
M  V30 11753 H 1127.77 -2.07901 -2.15864 0
M  V30 11754 H 1125.33 -1.22336 -1.06045 0
M  V30 11755 H 1127.32 -0.374252 -4.02966 0
M  V30 11756 H 1125.89 0.176185 -3.12103 0
M  V30 11757 H 1125.11 -2.3084 -3.19541 0
M  V30 11758 H 1126.4 -2.58798 -4.38065 0
M  V30 11759 H 1125.8 0.330131 -5.64736 0
M  V30 11760 H 1124.36 -0.00396813 -6.518 0
M  V30 11761 N 1127.79 1.09952 -1.12909 0
M  V30 11762 C 1128.7 2.19999 -0.81471 0
M  V30 11763 C 1129.72 1.72864 0.19851 0
M  V30 11764 O 1130.89 2.01376 0.0308832 0
M  V30 11765 C 1127.96 3.45573 -0.279363 0
M  V30 11766 C 1127.02 4.07417 -1.35314 0
M  V30 11767 C 1126.25 5.26996 -0.843247 0
M  V30 11768 O 1126.47 5.69495 0.321164 0
M  V30 11769 O 1125.41 5.79826 -1.61511 0
M  V30 11770 H 1129.23 2.49333 -1.73398 0
M  V30 11771 H 1126.82 1.18784 -0.906128 0
M  V30 11772 H 1128.7 4.21398 0.0140531 0
M  V30 11773 H 1127.38 3.17854 0.612401 0
M  V30 11774 H 1126.28 3.33253 -1.6998 0
M  V30 11775 H 1127.62 4.39349 -2.21885 0
M  V30 11776 N 1129.27 0.921757 1.27833 0
M  V30 11777 C 1130.55 0.477706 1.89677 0
M  V30 11778 C 1130.93 -1.04392 1.83481 0
M  V30 11779 O 1130.27 -1.89549 1.27606 0
M  V30 11780 C 1130.48 1.01709 3.33851 0
M  V30 11781 C 1131.83 1.074 4.10792 0
M  V30 11782 O 1132.86 0.966295 3.42843 0
M  V30 11783 O 1131.71 1.23909 5.32268 0
M  V30 11784 H 1128.81 0.15271 0.812778 0
M  V30 11785 H 1131.35 1.01306 1.36144 0
M  V30 11786 H 1130.13 2.061 3.32623 0
M  V30 11787 H 1129.75 0.463031 3.94895 0
M  V30 11788 N 1130.75 -1.41857 0.686609 0
M  V30 11789 C 1131.69 -2.30795 0.015643 0
M  V30 11790 C 1132.66 -1.46616 -0.780569 0
M  V30 11791 O 1133.85 -1.75423 -0.750424 0
M  V30 11792 C 1130.99 -3.32577 -0.921229 0
M  V30 11793 C 1130.1 -4.3184 -0.117585 0
M  V30 11794 C 1129.24 -5.20693 -1.05128 0
M  V30 11795 C 1128.28 -6.11629 -0.240018 0
M  V30 11796 N 1127.41 -6.92995 -1.12704 0
M  V30 11797 H 1132.25 -2.87615 0.77985 0
M  V30 11798 H 1129.79 -1.41661 0.396298 0
M  V30 11799 H 1131.75 -3.90129 -1.47836 0
M  V30 11800 H 1130.38 -2.77328 -1.65193 0
M  V30 11801 H 1129.43 -3.7631 0.55634 0
M  V30 11802 H 1130.74 -4.96168 0.511753 0
M  V30 11803 H 1129.9 -5.83035 -1.67795 0
M  V30 11804 H 1128.63 -4.5657 -1.71449 0
M  V30 11805 H 1127.64 -5.48345 0.399779 0
M  V30 11806 H 1128.86 -6.77805 0.419266 0
M  V30 11807 H 1126.81 -6.31489 -1.77644 0
M  V30 11808 H 1126.73 -7.53974 -0.553065 0
M  V30 11809 H 1128 -7.59813 -1.7408 0
M  V30 11810 N 1132.22 -0.430739 -1.51599 0
M  V30 11811 C 1133.47 0.138133 -2.02329 0
M  V30 11812 C 1133.8 1.42934 -1.31466 0
M  V30 11813 O 1133.08 1.89743 -0.427551 0
M  V30 11814 C 1133.36 0.363677 -3.58259 0
M  V30 11815 C 1133.21 -0.94572 -4.39746 0
M  V30 11816 C 1134.53 1.13637 -4.25176 0
M  V30 11817 H 1131.65 0.0487287 -0.735387 0
M  V30 11818 H 1134.29 -0.568444 -1.81297 0
M  V30 11819 H 1132.44 0.965552 -3.7631 0
M  V30 11820 H 1134.12 -1.58107 -4.33359 0
M  V30 11821 H 1132.36 -1.55183 -4.05094 0
M  V30 11822 H 1133.03 -0.742031 -5.4699 0
M  V30 11823 H 1135.51 0.626608 -4.11355 0
M  V30 11824 H 1134.38 1.26294 -5.34173 0
M  V30 11825 H 1134.64 2.16273 -3.85588 0
M  V30 11826 N 1133.7 1.56767 -0.161869 0
M  V30 11827 C 1135.11 1.83265 0.356466 0
M  V30 11828 C 1135.46 1.08127 1.63716 0
M  V30 11829 O 1134.59 0.33127 2.13849 0
M  V30 11830 C 1135.18 3.32437 0.653521 0
M  V30 11831 C 1133.74 3.59465 1.11633 0
M  V30 11832 C 1132.89 2.76909 0.147204 0
M  V30 11833 H 1135.84 1.53926 -0.386308 0
M  V30 11834 H 1135.86 3.49401 1.50662 0
M  V30 11835 H 1135.37 3.87098 -0.278766 0
M  V30 11836 H 1133.48 3.10206 2.06404 0
M  V30 11837 H 1133.59 4.67853 1.03202 0
M  V30 11838 H 1131.95 2.46457 0.642739 0
M  V30 11839 H 1132.74 3.34346 -0.778938 0
M  V30 11840 N 1135.18 -0.111886 1.57202 0
M  V30 11841 C 1136.6 -0.465629 1.52657 0
M  V30 11842 C 1136.8 -1.81463 0.875989 0
M  V30 11843 O 1135.85 -2.4825 0.461345 0
M  V30 11844 C 1137.17 -0.443571 2.9741 0
M  V30 11845 C 1138.71 -0.52662 3.08538 0
M  V30 11846 C 1139.19 -0.53488 4.54866 0
M  V30 11847 N 1140.68 -0.596117 4.59348 0
M  V30 11848 C 1141.41 -0.624073 5.69994 0
M  V30 11849 N 1140.91 -0.609245 6.90116 0
M  V30 11850 N 1142.7 -0.667619 5.58121 0
M  V30 11851 H 1134.85 0.771925 1.97876 0
M  V30 11852 H 1137.12 0.285534 0.903977 0
M  V30 11853 H 1136.82 0.480138 3.48407 0
M  V30 11854 H 1136.7 -1.26876 3.55221 0
M  V30 11855 H 1139.08 -1.44075 2.57539 0
M  V30 11856 H 1139.17 0.326396 2.53709 0
M  V30 11857 H 1138.81 0.375233 5.06512 0
M  V30 11858 H 1138.74 -1.40488 5.07514 0
M  V30 11859 H 1141.23 -0.613452 3.72888 0
M  V30 11860 H 1141.54 -0.633396 7.702 0
M  V30 11861 H 1139.89 -0.576557 6.92604 0
M  V30 11862 H 1143.08 -0.676616 4.63184 0
M  V30 11863 H 1143.25 -0.685938 6.44359 0
M  V30 11864 N 1136.66 -1.52894 -0.382264 0
M  V30 11865 C 1137.57 -1.81084 -1.4915 0
M  V30 11866 C 1138.58 -0.698045 -1.59384 0
M  V30 11867 O 1139.76 -0.98635 -1.75594 0
M  V30 11868 C 1136.83 -1.97987 -2.84608 0
M  V30 11869 C 1135.89 -3.219 -2.8404 0
M  V30 11870 C 1135.12 -3.37988 -4.13037 0
M  V30 11871 O 1135.34 -2.58733 -5.08344 0
M  V30 11872 O 1134.28 -4.31273 -4.19866 0
M  V30 11873 H 1138.1 -2.75289 -1.28257 0
M  V30 11874 H 1135.69 -1.38068 -0.57076 0
M  V30 11875 H 1137.57 -2.10773 -3.64901 0
M  V30 11876 H 1136.24 -1.06972 -3.05514 0
M  V30 11877 H 1135.15 -3.14551 -2.02505 0
M  V30 11878 H 1136.48 -4.12783 -2.68087 0
M  V30 11879 N 1138.14 0.641106 -1.43971 0
M  V30 11880 C 1139.55 0.958161 -1.27638 0
M  V30 11881 C 1139.75 2.00456 -0.204885 0
M  V30 11882 O 1138.81 2.49106 0.412606 0
M  V30 11883 C 1140.12 1.43091 -2.64472 0
M  V30 11884 C 1141.67 1.54692 -2.72102 0
M  V30 11885 C 1142.15 2.05353 -4.09382 0
M  V30 11886 N 1143.64 2.12638 -4.11509 0
M  V30 11887 C 1144.37 2.52987 -5.14573 0
M  V30 11888 N 1143.87 2.92544 -6.28005 0
M  V30 11889 N 1145.66 2.53033 -5.01927 0
M  V30 11890 H 1137.81 -0.0510973 -2.12339 0
M  V30 11891 H 1140.07 0.039748 -0.947166 0
M  V30 11892 H 1139.78 0.736389 -3.43904 0
M  V30 11893 H 1139.65 2.40375 -2.90688 0
M  V30 11894 H 1142.04 2.23242 -1.92994 0
M  V30 11895 H 1142.12 0.558083 -2.49638 0
M  V30 11896 H 1141.77 1.37401 -4.88962 0
M  V30 11897 H 1141.7 3.0509 -4.29218 0
M  V30 11898 H 1144.19 1.84792 -3.29636 0
M  V30 11899 H 1144.5 3.22116 -7.02468 0
M  V30 11900 H 1142.85 2.90319 -6.31458 0
M  V30 11901 H 1146.04 2.21514 -4.1237 0
M  V30 11902 H 1146.21 2.84155 -5.82375 0
M  V30 11903 N 1139.62 1.30703 0.880598 0
M  V30 11904 C 1140.58 1.17429 1.96832 0
M  V30 11905 C 1141.58 0.104305 1.60461 0
M  V30 11906 O 1142.77 0.352758 1.70591 0
M  V30 11907 C 1139.9 0.800099 3.31378 0
M  V30 11908 H 1141.09 2.14069 2.10034 0
M  V30 11909 H 1138.65 1.14162 1.06755 0
M  V30 11910 H 1139.38 -0.165606 3.23877 0
M  V30 11911 H 1139.17 1.57341 3.59146 0
M  V30 11912 H 1140.66 0.730826 4.11155 0
M  V30 11913 N 1141.09 -1.09351 1.1349 0
M  V30 11914 C 1142.34 -1.81812 0.898452 0
M  V30 11915 C 1142.67 -1.85525 -0.573959 0
M  V30 11916 O 1141.95 -1.32403 -1.42477 0
M  V30 11917 C 1142.23 -3.27921 1.48794 0
M  V30 11918 C 1142.08 -3.32476 3.02952 0
M  V30 11919 C 1143.4 -4.24625 1.15678 0
M  V30 11920 H 1140.52 -0.660074 0.327829 0
M  V30 11921 H 1143.16 -1.28091 1.40331 0
M  V30 11922 H 1141.31 -3.738 1.05858 0
M  V30 11923 H 1142.99 -2.94994 3.54649 0
M  V30 11924 H 1141.23 -2.72037 3.37903 0
M  V30 11925 H 1141.9 -4.35409 3.39298 0
M  V30 11926 H 1144.38 -3.87036 1.52781 0
M  V30 11927 H 1143.25 -5.25194 1.59571 0
M  V30 11928 H 1143.51 -4.42044 0.0705933 0
M  V30 11929 N 1142.57 -0.928524 -1.27343 0
M  V30 11930 C 1143.5 -0.445627 -2.29208 0
M  V30 11931 C 1144.48 0.494508 -1.62753 0
M  V30 11932 O 1145.67 0.399082 -1.90055 0
M  V30 11933 C 1142.8 0.301684 -3.45987 0
M  V30 11934 C 1141.75 -0.550695 -4.24442 0
M  V30 11935 C 1141.08 0.325833 -5.33706 0
M  V30 11936 C 1142.38 -1.81559 -4.89728 0
M  V30 11937 H 1144.07 -1.29696 -2.69851 0
M  V30 11938 H 1141.62 -0.625085 -1.29725 0
M  V30 11939 H 1143.57 0.650455 -4.1635 0
M  V30 11940 H 1142.29 1.18705 -3.04264 0
M  V30 11941 H 1140.95 -0.882185 -3.55827 0
M  V30 11942 H 1140.6 1.21018 -4.88225 0
M  V30 11943 H 1140.3 -0.240994 -5.87106 0
M  V30 11944 H 1141.83 0.670156 -6.06911 0
M  V30 11945 H 1143.24 -1.53483 -5.52373 0
M  V30 11946 H 1141.64 -2.32598 -5.53189 0
M  V30 11947 H 1142.71 -2.53461 -4.13383 0
M  V30 11948 N 1144.05 1.41491 -0.694123 0
M  V30 11949 C 1145.27 2.06099 -0.23197 0
M  V30 11950 C 1145.7 1.51888 1.10958 0
M  V30 11951 O 1145.06 0.645247 1.69429 0
M  V30 11952 C 1145.11 3.60053 -0.198522 0
M  V30 11953 O 1144.21 4.04021 0.827067 0
M  V30 11954 H 1143.55 0.654193 -0.113699 0
M  V30 11955 H 1146.08 1.81282 -0.948575 0
M  V30 11956 H 1146.09 4.0799 -0.0288904 0
M  V30 11957 H 1144.77 3.98879 -1.17764 0
M  V30 11958 H 1143.34 3.67593 0.626908 0
M  V30 11959 N 1145.53 0.438773 1.51369 0
M  V30 11960 C 1146.78 -0.126962 2.01701 0
M  V30 11961 C 1147.1 -1.43086 1.32481 0
M  V30 11962 O 1146.37 -1.90427 0.459823 0
M  V30 11963 H 1144.95 -0.0499092 0.745331 0
M  V30 11964 H 1147.61 0.581808 1.86013 0
M  V30 11965 H 1146.7 -0.301836 3.10637 0
M  V30 11966 N 1147.01 -1.56678 0.170181 0
M  V30 11967 C 1147.94 -2.20916 -0.756213 0
M  V30 11968 C 1148.92 -1.16442 -1.23997 0
M  V30 11969 O 1150.1 -1.44867 -1.29333 0
M  V30 11970 C 1147.23 -2.84901 -1.98617 0
M  V30 11971 C 1146.19 -3.95403 -1.63831 0
M  V30 11972 C 1145.51 -4.46432 -2.94282 0
M  V30 11973 C 1146.81 -5.15051 -0.867195 0
M  V30 11974 H 1148.51 -2.98585 -0.220776 0
M  V30 11975 H 1146.05 -1.43619 -0.104748 0
M  V30 11976 H 1148 -3.28514 -2.63926 0
M  V30 11977 H 1146.73 -2.04598 -2.54572 0
M  V30 11978 H 1145.39 -3.52444 -1.00891 0
M  V30 11979 H 1145.04 -3.62923 -3.48276 0
M  V30 11980 H 1144.74 -5.20979 -2.71762 0
M  V30 11981 H 1146.26 -4.92731 -3.60622 0
M  V30 11982 H 1147.67 -5.55363 -1.42285 0
M  V30 11983 H 1146.07 -5.95507 -0.741065 0
M  V30 11984 H 1147.14 -4.84707 0.136693 0
M  V30 11985 N 1148.48 0.103547 -1.57259 0
M  V30 11986 C 1149.9 0.457527 -1.52901 0
M  V30 11987 C 1150.1 1.80995 -0.8856 0
M  V30 11988 O 1149.16 2.48001 -0.474504 0
M  V30 11989 C 1150.47 0.427793 -2.97641 0
M  V30 11990 C 1152.02 0.51025 -3.08813 0
M  V30 11991 C 1152.49 0.51075 -4.55143 0
M  V30 11992 N 1153.98 0.571748 -4.59658 0
M  V30 11993 C 1154.72 0.593836 -5.70317 0
M  V30 11994 N 1154.21 0.572638 -6.90429 0
M  V30 11995 N 1156.01 0.638011 -5.58467 0
M  V30 11996 H 1148.16 -0.782408 -1.97464 0
M  V30 11997 H 1150.42 -0.290324 -0.90245 0
M  V30 11998 H 1150.13 -0.498608 -3.48148 0
M  V30 11999 H 1150 1.24991 -3.55889 0
M  V30 12000 H 1152.39 1.42707 -2.583 0
M  V30 12001 H 1152.47 -0.339846 -2.53532 0
M  V30 12002 H 1152.11 -0.40209 -5.06306 0
M  V30 12003 H 1152.04 1.37794 -5.08252 0
M  V30 12004 H 1154.53 0.593668 -3.73208 0
M  V30 12005 H 1154.85 0.592542 -7.70525 0
M  V30 12006 H 1153.19 0.539818 -6.929 0
M  V30 12007 H 1156.38 0.652042 -4.63536 0
M  V30 12008 H 1156.56 0.651756 -6.44714 0
M  V30 12009 N 1149.96 1.53094 0.37415 0
M  V30 12010 C 1150.91 1.75307 1.45779 0
M  V30 12011 C 1151.9 0.607409 1.48994 0
M  V30 12012 O 1153.09 0.865777 1.5438 0
M  V30 12013 C 1150.22 1.93871 2.83318 0
M  V30 12014 C 1149.3 3.14413 2.84614 0
M  V30 12015 N 1149.69 4.36486 2.55565 0
M  V30 12016 C 1147.99 3.14961 3.15778 0
M  V30 12017 C 1148.69 5.18178 2.64322 0
M  V30 12018 N 1147.67 4.54196 2.98675 0
M  V30 12019 H 1151.47 2.67305 1.22169 0
M  V30 12020 H 1148.98 1.51603 0.582254 0
M  V30 12021 H 1150.98 2.0791 3.61357 0
M  V30 12022 H 1149.64 1.03096 3.07898 0
M  V30 12023 H 1150.65 4.64366 2.29314 0
M  V30 12024 H 1147.33 2.34048 3.45728 0
M  V30 12025 H 1148.72 6.25529 2.45282 0
M  V30 12026 N 1151.44 -0.633461 1.44309 0
M  V30 12027 C 1152.69 -1.39306 1.46969 0
M  V30 12028 C 1153.01 -1.94235 0.101403 0
M  V30 12029 O 1152.27 -1.73959 -0.896475 0
M  V30 12030 C 1152.57 -2.57783 2.47554 0
M  V30 12031 C 1152.23 -2.21156 3.92939 0
M  V30 12032 C 1150.9 -2.1088 4.32531 0
M  V30 12033 C 1153.25 -1.9218 4.84475 0
M  V30 12034 C 1150.58 -1.69812 5.61588 0
M  V30 12035 C 1152.93 -1.52605 6.13917 0
M  V30 12036 C 1151.59 -1.40868 6.52466 0
M  V30 12037 H 1150.86 -0.509758 0.537799 0
M  V30 12038 H 1153.51 -0.718552 1.77508 0
M  V30 12039 H 1151.81 -3.30456 2.1049 0
M  V30 12040 H 1153.51 -3.16009 2.46859 0
M  V30 12041 H 1150.1 -2.30072 3.61614 0
M  V30 12042 H 1154.29 -1.9903 4.54644 0
M  V30 12043 H 1149.54 -1.59327 5.90275 0
M  V30 12044 H 1153.72 -1.29221 6.84306 0
M  V30 12045 H 1151.34 -1.08818 7.52371 0
M  V30 12046 N 1152.92 -1.31168 -0.873655 0
M  V30 12047 C 1154.15 -1.23595 -1.65927 0
M  V30 12048 C 1154.56 0.199349 -1.87745 0
M  V30 12049 O 1153.92 1.13013 -1.43298 0
M  V30 12050 C 1153.97 -1.97268 -3.02932 0
M  V30 12051 O 1153.69 -3.35196 -2.82091 0
M  V30 12052 C 1155.19 -1.9649 -3.97374 0
M  V30 12053 H 1152.41 -0.427228 -0.517414 0
M  V30 12054 H 1154.96 -1.72983 -1.09074 0
M  V30 12055 H 1153.11 -1.51651 -3.56484 0
M  V30 12056 H 1153.52 -3.7266 -3.69087 0
M  V30 12057 H 1155 -2.52557 -4.90835 0
M  V30 12058 H 1155.48 -0.946525 -4.28879 0
M  V30 12059 H 1156.08 -2.4197 -3.49758 0
M  V30 12060 N 1154.4 1.08748 -1.14068 0
M  V30 12061 C 1155.31 2.19123 -0.837998 0
M  V30 12062 C 1156.32 1.73065 0.180164 0
M  V30 12063 O 1157.5 2.01398 0.00952285 0
M  V30 12064 C 1154.56 3.45257 -0.316 0
M  V30 12065 C 1153.62 4.05959 -1.39628 0
M  V30 12066 C 1152.86 5.26072 -0.899095 0
M  V30 12067 O 1153.08 5.69804 0.260744 0
M  V30 12068 O 1152.01 5.7808 -1.67652 0
M  V30 12069 H 1155.84 2.4748 -1.76033 0
M  V30 12070 H 1153.43 1.17816 -0.918675 0
M  V30 12071 H 1155.31 4.21389 -0.0306425 0
M  V30 12072 H 1153.98 3.18486 0.578654 0
M  V30 12073 H 1152.89 3.31432 -1.73505 0
M  V30 12074 H 1154.22 4.36971 -2.26533 0
M  V30 12075 N 1155.87 0.935264 1.26849 0
M  V30 12076 C 1157.1 0.595384 1.97835 0
M  V30 12077 C 1157.51 -0.832605 1.69895 0
M  V30 12078 O 1156.86 -1.56597 0.960371 0
M  V30 12079 C 1156.92 0.750567 3.51578 0
M  V30 12080 C 1156.58 2.15208 4.03156 0
M  V30 12081 C 1157.58 3.12699 4.15349 0
M  V30 12082 C 1155.26 2.47106 4.37314 0
M  V30 12083 C 1157.26 4.40193 4.60987 0
M  V30 12084 C 1154.94 3.74834 4.82641 0
M  V30 12085 C 1155.94 4.7119 4.94438 0
M  V30 12086 O 1155.63 5.96644 5.38768 0
M  V30 12087 H 1155.36 0.223734 0.637902 0
M  V30 12088 H 1157.92 1.25663 1.62475 0
M  V30 12089 H 1156.15 0.0322039 3.86687 0
M  V30 12090 H 1157.84 0.414625 4.03777 0
M  V30 12091 H 1158.6 2.89378 3.89211 0
M  V30 12092 H 1154.48 1.72846 4.2737 0
M  V30 12093 H 1158.02 5.15406 4.70109 0
M  V30 12094 H 1153.92 3.9797 5.08222 0
M  V30 12095 H 1154.69 5.99741 5.57003 0
M  V30 12096 N 1157.35 -1.41121 0.701616 0
M  V30 12097 C 1158.77 -1.55162 0.373766 0
M  V30 12098 C 1158.97 -1.6759 -1.11875 0
M  V30 12099 O 1158.02 -1.65768 -1.90465 0
M  V30 12100 C 1159.34 -2.78758 1.12759 0
M  V30 12101 C 1160.89 -2.92561 1.11253 0
M  V30 12102 C 1161.36 -4.19052 1.84822 0
M  V30 12103 N 1162.85 -4.26023 1.81821 0
M  V30 12104 C 1163.59 -5.22771 2.3558 0
M  V30 12105 N 1163.08 -6.25512 2.97836 0
M  V30 12106 N 1164.88 -5.14752 2.25802 0
M  V30 12107 H 1157.03 -1.31299 1.66956 0
M  V30 12108 H 1159.29 -0.633894 0.704898 0
M  V30 12109 H 1159 -2.75804 2.18231 0
M  V30 12110 H 1158.87 -3.70456 0.710095 0
M  V30 12111 H 1161.26 -2.95026 0.0660506 0
M  V30 12112 H 1161.34 -2.0202 1.56913 0
M  V30 12113 H 1160.98 -4.17349 2.89452 0
M  V30 12114 H 1160.91 -5.08577 1.36592 0
M  V30 12115 H 1163.4 -3.52411 1.36438 0
M  V30 12116 H 1163.72 -6.95736 3.36409 0
M  V30 12117 H 1162.06 -6.25997 3.01916 0
M  V30 12118 H 1165.25 -4.33414 1.76833 0
M  V30 12119 H 1165.42 -5.89983 2.68001 0
M  V30 12120 N 1158.83 -0.446794 -1.51134 0
M  V30 12121 C 1160.08 0.118047 -2.01354 0
M  V30 12122 C 1160.39 1.42953 -1.33505 0
M  V30 12123 O 1161.6 2.07788 -1.74747 0
M  V30 12124 C 1160.05 0.260912 -3.58953 0
M  V30 12125 C 1159.66 -1.0407 -4.35745 0
M  V30 12126 C 1161.41 0.779014 -4.17291 0
M  V30 12127 C 1159.31 -0.862958 -5.8507 0
M  V30 12128 H 1158.24 0.0478915 -0.752478 0
M  V30 12129 H 1160.89 -0.577997 -1.74159 0
M  V30 12130 H 1159.28 1.02018 -3.82633 0
M  V30 12131 H 1160.45 -1.80903 -4.23805 0
M  V30 12132 H 1158.77 -1.48805 -3.88904 0
M  V30 12133 H 1161.36 0.928636 -5.26574 0
M  V30 12134 H 1161.71 1.76399 -3.7708 0
M  V30 12135 H 1162.24 0.0778022 -3.97724 0
M  V30 12136 H 1158.98 -1.82059 -6.2971 0
M  V30 12137 H 1158.5 -0.134588 -5.99649 0
M  V30 12138 H 1160.18 -0.51989 -6.44908 0
M  V30 12139 N 1160.31 1.56586 -0.178487 0
M  V30 12140 C 1161.59 1.88798 0.511356 0
M  V30 12141 C 1161.97 1.08949 1.80813 0
M  V30 12142 O 1161.31 0.185551 2.27745 0
M  V30 12143 C 1161.52 3.40927 0.746298 0
M  V30 12144 C 1162.87 4.10816 1.0731 0
M  V30 12145 O 1163.9 3.46285 0.834592 0
M  V30 12146 O 1162.75 5.24837 1.52343 0
M  V30 12147 H 1159.85 0.783574 0.264463 0
M  V30 12148 H 1162.39 1.68301 -0.21746 0
M  V30 12149 H 1161.17 3.9093 -0.17015 0
M  V30 12150 H 1160.79 3.67059 1.52817 0
M  V30 12151 N 1161.79 -0.095206 1.57312 0
M  V30 12152 C 1163.04 -0.797417 1.85268 0
M  V30 12153 C 1163.35 -1.79903 0.767733 0
M  V30 12154 O 1164.55 -2.54914 0.934409 0
M  V30 12155 C 1163.01 -1.469 3.28555 0
M  V30 12156 C 1162.62 -0.507152 4.4512 0
M  V30 12157 C 1164.36 -2.15494 3.65735 0
M  V30 12158 C 1162.27 -1.18331 5.79441 0
M  V30 12159 H 1161.2 -0.301552 0.691074 0
M  V30 12160 H 1163.85 -0.0503584 1.83431 0
M  V30 12161 H 1162.23 -2.26351 3.24933 0
M  V30 12162 H 1163.41 0.255858 4.60089 0
M  V30 12163 H 1161.72 0.0730882 4.16336 0
M  V30 12164 H 1164.32 -2.66816 4.63371 0
M  V30 12165 H 1164.66 -2.94383 2.94354 0
M  V30 12166 H 1165.19 -1.42903 3.71246 0
M  V30 12167 H 1161.93 -0.435238 6.54053 0
M  V30 12168 H 1161.45 -1.91775 5.68315 0
M  V30 12169 H 1163.13 -1.70983 6.23998 0
M  V30 12170 N 1163.26 -1.53291 -0.366026 0
M  V30 12171 C 1164.21 -1.76077 -1.44847 0
M  V30 12172 C 1165.2 -0.615302 -1.4867 0
M  V30 12173 O 1166.39 -0.873952 -1.53919 0
M  V30 12174 C 1163.52 -1.95371 -2.82286 0
M  V30 12175 C 1162.61 -3.15918 -2.82943 0
M  V30 12176 N 1163 -4.37835 -2.53247 0
M  V30 12177 C 1161.29 -3.16631 -3.14103 0
M  V30 12178 C 1162 -5.19573 -2.6157 0
M  V30 12179 N 1160.97 -4.55773 -2.96263 0
M  V30 12180 H 1164.77 -2.67949 -1.2075 0
M  V30 12181 H 1162.29 -1.5191 -0.574206 0
M  V30 12182 H 1164.28 -2.09823 -3.6025 0
M  V30 12183 H 1162.94 -1.04727 -3.07347 0
M  V30 12184 H 1163.96 -4.65575 -2.26848 0
M  V30 12185 H 1160.63 -2.35878 -3.44482 0
M  V30 12186 H 1162.02 -6.26821 -2.41961 0
M  V30 12187 N 1164.74 0.6258 -1.44643 0
M  V30 12188 C 1165.71 1.71941 -1.51555 0
M  V30 12189 C 1166.71 1.55822 -0.396988 0
M  V30 12190 O 1167.9 1.61221 -0.65981 0
M  V30 12191 C 1165.03 3.11068 -1.39461 0
M  V30 12192 H 1166.22 1.67185 -2.48976 0
M  V30 12193 H 1163.77 0.839934 -1.31814 0
M  V30 12194 H 1164.51 3.21416 -0.431534 0
M  V30 12195 H 1164.29 3.24175 -2.20574 0
M  V30 12196 H 1165.78 3.90762 -1.4729 0
M  V30 12197 N 1166.22 1.31629 0.866686 0
M  V30 12198 C 1167.46 1.22806 1.63395 0
M  V30 12199 C 1167.82 -0.209785 1.9085 0
M  V30 12200 O 1169.03 -0.421562 2.65474 0
M  V30 12201 C 1167.3 2.05187 2.92631 0
M  V30 12202 S 1168.86 2.13261 3.83491 0
M  V30 12203 H 1165.67 0.437339 0.560585 0
M  V30 12204 H 1168.28 1.66333 1.02731 0
M  V30 12205 H 1166.98 3.08736 2.70389 0
M  V30 12206 H 1166.51 1.62393 3.58318 0
M  V30 12207 H 1168.53 1.27333 4.79584 0
M  V30 12208 N 1167.7 -1.08142 1.14644 0
M  V30 12209 C 1168.65 -2.17229 0.831513 0
M  V30 12210 C 1169.64 -1.68311 -0.19173 0
M  V30 12211 O 1170.85 -1.79937 -0.0475596 0
M  V30 12212 H 1167.22 -0.708807 0.25119 0
M  V30 12213 H 1169.19 -2.41014 1.75939 0
M  V30 12214 C 1167.94 -3.46146 0.328347 0
M  V30 12215 H 1167.27 -3.84166 1.10708 0
M  V30 12216 H 1168.71 -4.23747 0.146568 0
M  V30 12217 C 1167.16 -3.2327 -0.948594 0
M  V30 12218 O 1167.69 -3.47111 -2.0218 0
M  V30 12219 N 1165.9 -2.76799 -0.884909 0
M  V30 12220 H 1165.45 -2.57597 -0.011399 0
M  V30 12221 H 1165.41 -2.61871 -1.73985 0
M  V30 12222 N 1169.18 -0.941978 -1.26351 0
M  V30 12223 C 1170.13 -0.423053 -2.24041 0
M  V30 12224 C 1171.11 0.480668 -1.53553 0
M  V30 12225 O 1172.3 0.315783 -1.7416 0
M  V30 12226 C 1169.43 0.309814 -3.41899 0
M  V30 12227 C 1168.52 -0.611245 -4.19672 0
M  V30 12228 N 1168.91 -1.73738 -4.75025 0
M  V30 12229 C 1167.21 -0.416985 -4.44046 0
M  V30 12230 C 1167.91 -2.31141 -5.33806 0
M  V30 12231 N 1166.88 -1.59934 -5.1954 0
M  V30 12232 H 1170.69 -1.28268 -2.64433 0
M  V30 12233 H 1168.2 -0.797941 -1.41445 0
M  V30 12234 H 1170.2 0.698618 -4.11005 0
M  V30 12235 H 1168.86 1.1662 -3.03035 0
M  V30 12236 H 1169.87 -2.1195 -4.72544 0
M  V30 12237 H 1166.55 0.397561 -4.15603 0
M  V30 12238 H 1167.94 -3.26029 -5.87499 0
M  V30 12239 N 1170.66 1.40747 -0.709091 0
M  V30 12240 C 1171.62 2.29118 -0.0611607 0
M  V30 12241 C 1172.62 1.45049 0.694081 0
M  V30 12242 O 1173.81 1.66039 0.526952 0
M  V30 12243 C 1170.94 3.28154 0.923447 0
M  V30 12244 H 1172.13 2.87913 -0.839413 0
M  V30 12245 H 1169.69 1.4896 -0.473363 0
M  V30 12246 H 1170.42 2.74366 1.72899 0
M  V30 12247 H 1170.21 3.90207 0.384862 0
M  V30 12248 H 1171.7 3.94343 1.37417 0
M  V30 12249 N 1172.13 0.454803 1.50895 0
M  V30 12250 C 1173.1 -0.336293 2.26719 0
M  V30 12251 C 1174.1 -0.93464 1.30848 0
M  V30 12252 O 1175.29 -0.80636 1.54413 0
M  V30 12253 C 1172.42 -1.47744 3.07221 0
M  V30 12254 H 1173.61 0.328462 2.98096 0
M  V30 12255 H 1171.16 0.208419 1.54904 0
M  V30 12256 H 1171.9 -2.17773 2.40302 0
M  V30 12257 H 1171.68 -1.05438 3.77658 0
M  V30 12258 H 1173.17 -2.03592 3.6461 0
M  V30 12259 N 1173.61 -1.56489 0.186789 0
M  V30 12260 C 1174.56 -2.15311 -0.750024 0
M  V30 12261 C 1175.55 -1.09156 -1.18211 0
M  V30 12262 O 1176.74 -1.3524 -1.14189 0
M  V30 12263 C 1173.87 -2.80952 -1.97284 0
M  V30 12264 C 1172.95 -3.94286 -1.56204 0
M  V30 12265 N 1173.34 -4.98406 -0.861705 0
M  V30 12266 C 1171.64 -4.05733 -1.85194 0
M  V30 12267 C 1172.34 -5.77977 -0.657078 0
M  V30 12268 N 1171.32 -5.30116 -1.20326 0
M  V30 12269 H 1175.12 -2.93176 -0.206148 0
M  V30 12270 H 1172.63 -1.62395 -0.0133163 0
M  V30 12271 H 1174.63 -3.21479 -2.65437 0
M  V30 12272 H 1173.29 -2.04572 -2.52152 0
M  V30 12273 H 1174.3 -5.15302 -0.518067 0
M  V30 12274 H 1170.98 -3.40472 -2.4163 0
M  V30 12275 H 1172.37 -6.71822 -0.102123 0
M  V30 12276 N 1175.09 0.086862 -1.5736 0
M  V30 12277 C 1176.32 0.802167 -1.90717 0
M  V30 12278 C 1176.73 1.71875 -0.781304 0
M  V30 12279 O 1176.09 1.80831 0.246255 0
M  V30 12280 C 1176.14 1.60858 -3.23739 0
M  V30 12281 O 1175.86 0.728851 -4.31995 0
M  V30 12282 C 1177.36 2.42621 -3.71012 0
M  V30 12283 H 1174.58 0.228914 -0.630745 0
M  V30 12284 H 1177.13 0.061634 -2.04407 0
M  V30 12285 H 1175.28 2.30153 -3.11622 0
M  V30 12286 H 1175.7 1.2882 -5.08435 0
M  V30 12287 H 1177.17 2.94683 -4.66761 0
M  V30 12288 H 1177.65 3.21462 -2.99264 0
M  V30 12289 H 1178.25 1.78509 -3.86024 0
M  V30 12290 N 1176.57 1.53483 0.357892 0
M  V30 12291 C 1177.81 1.70289 1.10134 0
M  V30 12292 C 1178.15 0.457296 1.88739 0
M  V30 12293 O 1177.42 -0.545527 1.86693 0
M  V30 12294 C 1177.7 2.95755 2.05429 0
M  V30 12295 C 1177.56 4.30489 1.30382 0
M  V30 12296 C 1178.88 3.16844 3.05447 0
M  V30 12297 H 1176 0.61965 0.399003 0
M  V30 12298 H 1178.64 1.86133 0.381357 0
M  V30 12299 H 1176.79 2.82377 2.66825 0
M  V30 12300 H 1178.46 4.55692 0.71711 0
M  V30 12301 H 1176.7 4.2955 0.605712 0
M  V30 12302 H 1177.37 5.14427 2.00171 0
M  V30 12303 H 1179.85 3.29458 2.54159 0
M  V30 12304 H 1178.73 4.06053 3.69341 0
M  V30 12305 H 1178.99 2.32476 3.76041 0
M  V30 12306 N 1178.05 -0.61812 1.44973 0
M  V30 12307 C 1179.29 -1.37468 1.48145 0
M  V30 12308 C 1179.61 -1.94628 0.120366 0
M  V30 12309 O 1178.88 -1.76548 -0.848982 0
M  V30 12310 H 1177.46 -0.510293 0.545536 0
M  V30 12311 H 1180.13 -0.726598 1.8085 0
M  V30 12312 H 1179.22 -2.19944 2.2143 0
M  V30 12313 N 1179.52 -1.32087 -0.859693 0
M  V30 12314 C 1180.76 -1.23671 -1.62742 0
M  V30 12315 C 1181.13 0.19966 -1.90959 0
M  V30 12316 O 1182.33 0.407478 -2.65694 0
M  V30 12317 C 1180.6 -2.06736 -2.91539 0
M  V30 12318 S 1182.16 -2.15292 -3.82354 0
M  V30 12319 H 1178.98 -0.440306 -0.558258 0
M  V30 12320 H 1181.58 -1.66875 -1.01848 0
M  V30 12321 H 1180.28 -3.10166 -2.68747 0
M  V30 12322 H 1179.81 -1.64291 -3.57452 0
M  V30 12323 H 1181.83 -1.29874 -4.78902 0
M  V30 12324 N 1181 1.07532 -1.15215 0
M  V30 12325 C 1182.23 1.84356 -0.950139 0
M  V30 12326 C 1182.65 1.81429 0.496502 0
M  V30 12327 O 1182.01 1.20589 1.35381 0
M  V30 12328 C 1182.06 3.29425 -1.46669 0
M  V30 12329 O 1181.16 4.07008 -0.664674 0
M  V30 12330 H 1180.5 0.570921 -0.339036 0
M  V30 12331 H 1183.03 1.35665 -1.53154 0
M  V30 12332 H 1183.04 3.8026 -1.47873 0
M  V30 12333 H 1181.72 3.3087 -2.51988 0
M  V30 12334 H 1180.29 3.65841 -0.72211 0
M  V30 12335 N 1182.48 0.948665 1.2585 0
M  V30 12336 C 1183.44 0.468673 2.24357 0
M  V30 12337 C 1184.44 -0.424355 1.551 0
M  V30 12338 O 1185.63 -0.222481 1.72773 0
M  V30 12339 C 1182.77 -0.32359 3.39361 0
M  V30 12340 H 1183.96 1.33928 2.68334 0
M  V30 12341 H 1181.51 0.731357 1.38133 0
M  V30 12342 H 1182.25 -1.21212 3.00796 0
M  V30 12343 H 1182.03 0.316998 3.90816 0
M  V30 12344 H 1183.52 -0.649087 4.12525 0
M  V30 12345 N 1183.96 -1.40369 0.716545 0
M  V30 12346 C 1184.92 -2.29083 0.0733105 0
M  V30 12347 C 1185.92 -1.45415 -0.686378 0
M  V30 12348 O 1187.11 -1.66316 -0.518139 0
M  V30 12349 C 1184.24 -3.28639 -0.906032 0
M  V30 12350 H 1185.44 -2.87464 0.85467 0
M  V30 12351 H 1182.99 -1.48706 0.481256 0
M  V30 12352 H 1183.72 -2.75279 -1.71441 0
M  V30 12353 H 1183.51 -3.90405 -0.364163 0
M  V30 12354 H 1185 -3.95066 -1.35324 0
M  V30 12355 N 1185.44 -0.462799 -1.50652 0
M  V30 12356 C 1186.66 0.0929761 -2.06691 0
M  V30 12357 C 1187.08 1.34241 -1.32758 0
M  V30 12358 O 1186.44 1.78187 -0.394427 0
M  V30 12359 C 1186.49 0.389492 -3.59396 0
M  V30 12360 O 1186.21 -0.810379 -4.3054 0
M  V30 12361 C 1187.71 0.993147 -4.32032 0
M  V30 12362 H 1184.93 -0.00338664 -0.670991 0
M  V30 12363 H 1187.47 -0.649201 -1.93922 0
M  V30 12364 H 1185.63 1.08159 -3.71995 0
M  V30 12365 H 1186.04 -0.54996 -5.21609 0
M  V30 12366 H 1187.52 1.15044 -5.39878 0
M  V30 12367 H 1187.99 1.98106 -3.91983 0
M  V30 12368 H 1188.6 0.339677 -4.23941 0
M  V30 12369 N 1186.91 1.56388 -0.195085 0
M  V30 12370 C 1188.16 1.9758 0.443686 0
M  V30 12371 C 1188.49 1.08196 1.61629 0
M  V30 12372 O 1187.74 0.121061 1.95325 0
M  V30 12373 C 1188.04 3.44651 0.946051 0
M  V30 12374 C 1187.71 4.50758 -0.11318 0
M  V30 12375 C 1186.37 4.79499 -0.404229 0
M  V30 12376 C 1188.72 5.14534 -0.830899 0
M  V30 12377 C 1186.05 5.69307 -1.41797 0
M  V30 12378 C 1188.4 6.05438 -1.83379 0
M  V30 12379 C 1187.07 6.32535 -2.13204 0
M  V30 12380 H 1186.34 0.722995 0.162356 0
M  V30 12381 H 1188.98 1.8926 -0.292049 0
M  V30 12382 H 1187.29 3.50042 1.76006 0
M  V30 12383 H 1188.99 3.73878 1.44969 0
M  V30 12384 H 1185.58 4.28421 0.123833 0
M  V30 12385 H 1189.76 4.92421 -0.61927 0
M  V30 12386 H 1185.02 5.88575 -1.65496 0
M  V30 12387 H 1189.19 6.53915 -2.39516 0
M  V30 12388 H 1186.82 7.01924 -2.91902 0
M  V30 12389 N 1188.39 -0.0785156 1.57404 0
M  V30 12390 C 1189.64 -0.780092 1.87196 0
M  V30 12391 C 1189.97 -1.77562 0.78647 0
M  V30 12392 O 1189.25 -1.93428 -0.203935 0
M  V30 12393 C 1189.53 -1.49408 3.27642 0
M  V30 12394 C 1189.38 -0.515416 4.46837 0
M  V30 12395 C 1190.7 -2.44064 3.66225 0
M  V30 12396 H 1187.82 -0.282134 0.680859 0
M  V30 12397 H 1190.46 -0.0433926 1.8995 0
M  V30 12398 H 1188.61 -2.12205 3.25425 0
M  V30 12399 H 1190.28 0.106827 4.61176 0
M  V30 12400 H 1188.53 0.169832 4.33467 0
M  V30 12401 H 1189.2 -1.05247 5.41874 0
M  V30 12402 H 1191.67 -1.91349 3.69493 0
M  V30 12403 H 1190.55 -2.91029 4.65396 0
M  V30 12404 H 1190.81 -3.28569 2.95796 0
M  V30 12405 N 1189.87 -1.5367 -0.349747 0
M  V30 12406 C 1191.12 -1.70618 -1.09068 0
M  V30 12407 C 1191.45 -0.466133 -1.88832 0
M  V30 12408 O 1190.7 0.552079 -1.87751 0
M  V30 12409 C 1191 -2.91753 -2.06434 0
M  V30 12410 C 1190.67 -4.27614 -1.43029 0
M  V30 12411 C 1189.33 -4.64555 -1.25466 0
M  V30 12412 C 1191.68 -5.12037 -0.972987 0
M  V30 12413 C 1189.01 -5.83543 -0.607807 0
M  V30 12414 C 1191.36 -6.31685 -0.340073 0
M  V30 12415 C 1190.02 -6.67327 -0.152069 0
M  V30 12416 H 1189.29 -0.624334 -0.399108 0
M  V30 12417 H 1191.94 -1.87879 -0.370657 0
M  V30 12418 H 1190.25 -2.6907 -2.84796 0
M  V30 12419 H 1191.94 -3.02059 -2.63744 0
M  V30 12420 H 1188.53 -3.98535 -1.57696 0
M  V30 12421 H 1192.72 -4.84035 -1.09655 0
M  V30 12422 H 1187.97 -6.09737 -0.450705 0
M  V30 12423 H 1192.15 -6.96396 0.0223973 0
M  V30 12424 H 1189.77 -7.59388 0.35121 0
M  V30 12425 N 1191.35 0.610423 -1.45298 0
M  V30 12426 C 1192.31 1.70324 -1.5337 0
M  V30 12427 C 1193.31 1.55393 -0.413492 0
M  V30 12428 O 1194.5 1.60512 -0.676872 0
M  V30 12429 C 1191.63 3.09572 -1.42752 0
M  V30 12430 H 1192.83 1.64535 -2.50736 0
M  V30 12431 H 1190.38 0.825906 -1.32697 0
M  V30 12432 H 1191.11 3.2094 -0.465601 0
M  V30 12433 H 1190.9 3.21817 -2.24 0
M  V30 12434 H 1192.39 3.89178 -1.51427 0
M  V30 12435 N 1192.83 1.32541 0.852676 0
M  V30 12436 C 1194.24 1.11575 1.14119 0
M  V30 12437 C 1194.44 -0.102469 2.01239 0
M  V30 12438 O 1193.5 -0.786786 2.39929 0
M  V30 12439 C 1194.81 2.39624 1.81661 0
M  V30 12440 C 1196.36 2.454 1.94288 0
M  V30 12441 C 1196.83 3.73375 2.65245 0
M  V30 12442 N 1198.33 3.74368 2.72769 0
M  V30 12443 C 1199.06 4.70094 3.28328 0
M  V30 12444 N 1198.56 5.76187 3.84682 0
M  V30 12445 N 1200.35 4.57588 3.26449 0
M  V30 12446 H 1192.5 2.10644 0.272544 0
M  V30 12447 H 1194.76 0.930094 0.183385 0
M  V30 12448 H 1194.47 3.28698 1.25102 0
M  V30 12449 H 1194.34 2.50734 2.81802 0
M  V30 12450 H 1196.73 1.56784 2.50005 0
M  V30 12451 H 1196.81 2.38241 0.931379 0
M  V30 12452 H 1196.46 4.62366 2.10191 0
M  V30 12453 H 1196.39 3.77806 3.66838 0
M  V30 12454 H 1198.88 2.97685 2.32791 0
M  V30 12455 H 1199.19 6.45285 4.25238 0
M  V30 12456 H 1197.53 5.79939 3.83008 0
M  V30 12457 H 1200.73 3.7387 2.81672 0
M  V30 12458 H 1200.9 5.32365 3.69448 0
M  V30 12459 N 1194.3 -1.0692 1.15784 0
M  V30 12460 C 1195.53 -1.8331 0.959422 0
M  V30 12461 C 1195.95 -1.82268 -0.492332 0
M  V30 12462 O 1195.3 -1.23727 -1.34156 0
M  V30 12463 C 1195.36 -3.30202 1.47135 0
M  V30 12464 O 1195.08 -3.31328 2.86624 0
M  V30 12465 C 1196.58 -4.23346 1.31504 0
M  V30 12466 H 1193.8 -0.578202 0.340475 0
M  V30 12467 H 1196.34 -1.34939 1.53661 0
M  V30 12468 H 1194.5 -3.75908 0.936587 0
M  V30 12469 H 1194.91 -4.23135 3.0993 0
M  V30 12470 H 1196.38 -5.24465 1.72163 0
M  V30 12471 H 1196.86 -4.38431 0.259773 0
M  V30 12472 H 1197.47 -3.8348 1.83911 0
M  V30 12473 N 1195.78 -0.955326 -1.25345 0
M  V30 12474 C 1196.72 -0.420299 -2.24296 0
M  V30 12475 C 1197.69 0.498753 -1.54762 0
M  V30 12476 O 1198.88 0.432971 -1.8346 0
M  V30 12477 C 1196 0.394576 -3.36394 0
M  V30 12478 C 1195.05 -0.464973 -4.23958 0
M  V30 12479 S 1195.88 -1.89764 -5.00749 0
M  V30 12480 C 1197.04 -1.09121 -6.16314 0
M  V30 12481 H 1197.27 -1.25888 -2.69331 0
M  V30 12482 H 1194.81 -0.759449 -1.34431 0
M  V30 12483 H 1196.76 0.858788 -4.01416 0
M  V30 12484 H 1195.42 1.20799 -2.89942 0
M  V30 12485 H 1194.62 0.160055 -5.03746 0
M  V30 12486 H 1194.22 -0.864422 -3.63873 0
M  V30 12487 H 1196.51 -0.340218 -6.76645 0
M  V30 12488 H 1197.45 -1.86304 -6.83152 0
M  V30 12489 H 1197.86 -0.621033 -5.61073 0
M  V30 12490 N 1197.26 1.39987 -0.723979 0
M  V30 12491 C 1198.67 1.83606 -0.338461 0
M  V30 12492 C 1199.02 1.6051 1.12831 0
M  V30 12493 O 1198.15 1.09041 1.8692 0
M  V30 12494 C 1198.74 3.33308 -0.607533 0
M  V30 12495 C 1197.3 3.75389 -0.275632 0
M  V30 12496 C 1196.45 2.6311 -0.875699 0
M  V30 12497 H 1199.4 1.29135 -0.922483 0
M  V30 12498 H 1199.42 3.80297 0.124424 0
M  V30 12499 H 1198.93 3.50087 -1.67514 0
M  V30 12500 H 1197.03 3.64203 0.786579 0
M  V30 12501 H 1197.15 4.73185 -0.750492 0
M  V30 12502 H 1195.51 2.5289 -0.303122 0
M  V30 12503 H 1196.29 2.82698 -1.94774 0
M  V30 12504 N 1198.74 0.470782 1.50404 0
M  V30 12505 C 1199.69 -0.342183 2.25418 0
M  V30 12506 C 1200.67 -0.961726 1.28995 0
M  V30 12507 O 1201.87 -0.874327 1.53898 0
M  V30 12508 C 1198.99 -1.42378 3.12383 0
M  V30 12509 C 1198.08 -0.811982 4.16254 0
M  V30 12510 N 1198.47 0.0675245 5.05755 0
M  V30 12511 C 1196.77 -1.07596 4.32827 0
M  V30 12512 C 1197.47 0.414693 5.8022 0
M  V30 12513 N 1196.45 -0.210047 5.43194 0
M  V30 12514 H 1200.25 0.335344 2.91981 0
M  V30 12515 H 1197.76 0.284911 1.59881 0
M  V30 12516 H 1199.76 -2.01936 3.64729 0
M  V30 12517 H 1198.42 -2.1033 2.47369 0
M  V30 12518 H 1199.43 0.436333 5.16059 0
M  V30 12519 H 1196.11 -1.75048 3.79031 0
M  V30 12520 H 1197.5 1.13243 6.62288 0
M  V30 12521 N 1200.22 -1.56282 0.203376 0
M  V30 12522 C 1201.63 -1.58871 -0.152335 0
M  V30 12523 C 1201.83 -1.21978 -1.60386 0
M  V30 12524 O 1200.89 -0.946422 -2.34092 0
M  V30 12525 C 1202.2 -3.00287 0.157515 0
M  V30 12526 C 1203.75 -3.12846 0.098287 0
M  V30 12527 C 1204.23 -4.56408 0.38156 0
M  V30 12528 N 1205.72 -4.6202 0.330475 0
M  V30 12529 C 1206.45 -5.71006 0.523397 0
M  V30 12530 N 1205.95 -6.88428 0.777115 0
M  V30 12531 N 1207.74 -5.60238 0.457082 0
M  V30 12532 H 1199.89 -1.78543 1.15048 0
M  V30 12533 H 1202.15 -0.829019 0.459816 0
M  V30 12534 H 1201.86 -3.3187 1.16427 0
M  V30 12535 H 1201.73 -3.73372 -0.536041 0
M  V30 12536 H 1204.12 -2.8107 -0.899085 0
M  V30 12537 H 1204.2 -2.42129 0.825045 0
M  V30 12538 H 1203.85 -4.88897 1.37629 0
M  V30 12539 H 1203.78 -5.25325 -0.366182 0
M  V30 12540 H 1206.27 -3.77636 0.141327 0
M  V30 12541 H 1206.58 -7.67389 0.912911 0
M  V30 12542 H 1204.93 -6.90215 0.814104 0
M  V30 12543 H 1208.12 -4.67382 0.259226 0
M  V30 12544 H 1208.29 -6.45114 0.610848 0
M  V30 12545 N 1201.7 0.070167 -1.57444 0
M  V30 12546 C 1202.61 1.10106 -2.07157 0
M  V30 12547 C 1203.62 1.42293 -1.00143 0
M  V30 12548 O 1204.8 1.52437 -1.31624 0
M  V30 12549 C 1201.86 2.39486 -2.50694 0
M  V30 12550 C 1200.92 2.14255 -3.72012 0
M  V30 12551 C 1200.16 3.37466 -4.13464 0
M  V30 12552 O 1200.38 4.46645 -3.54773 0
M  V30 12553 O 1199.31 3.25583 -5.0624 0
M  V30 12554 H 1203.14 0.70873 -2.95315 0
M  V30 12555 H 1200.72 0.28441 -1.46668 0
M  V30 12556 H 1202.61 3.15625 -2.79212 0
M  V30 12557 H 1201.28 2.78095 -1.65664 0
M  V30 12558 H 1200.19 1.35816 -3.48575 0
M  V30 12559 H 1201.52 1.80525 -4.57899 0
M  V30 12560 N 1203.17 1.53854 0.341593 0
M  V30 12561 C 1204.14 1.8128 1.40251 0
M  V30 12562 C 1205.14 0.683915 1.45531 0
M  V30 12563 O 1206.33 0.952202 1.45872 0
M  V30 12564 C 1203.46 1.95658 2.79161 0
M  V30 12565 H 1204.65 2.76053 1.17195 0
M  V30 12566 H 1202.2 1.45296 0.57609 0
M  V30 12567 H 1202.94 1.03034 3.07497 0
M  V30 12568 H 1202.72 2.77788 2.76724 0
M  V30 12569 H 1204.21 2.18387 3.55945 0
M  V30 12570 N 1204.65 -0.602709 1.4562 0
M  V30 12571 C 1205.93 -1.36224 1.40366 0
M  V30 12572 C 1206.31 -2.1096 0.0767645 0
M  V30 12573 O 1205.66 -2.08207 -0.941378 0
M  V30 12574 C 1205.87 -2.30499 2.62052 0
M  V30 12575 C 1207.21 -2.92954 3.07348 0
M  V30 12576 O 1208.24 -2.40818 2.62459 0
M  V30 12577 O 1207.1 -3.87601 3.85263 0
M  V30 12578 H 1204.19 -0.611064 0.557253 0
M  V30 12579 H 1206.74 -0.625391 1.57756 0
M  V30 12580 H 1205.51 -1.74566 3.50203 0
M  V30 12581 H 1205.13 -3.11556 2.4702 0
M  V30 12582 N 1206.13 -1.32992 -0.845635 0
M  V30 12583 C 1207.38 -1.2382 -1.59728 0
M  V30 12584 C 1207.7 0.197724 -1.93995 0
M  V30 12585 O 1206.97 1.12477 -1.60392 0
M  V30 12586 H 1205.55 -0.455296 -0.592212 0
M  V30 12587 H 1208.21 -1.66627 -1.01101 0
M  V30 12588 H 1207.31 -1.82717 -2.53023 0
M  V30 12589 N 1207.61 1.06304 -1.1635 0
M  V30 12590 C 1208.86 1.78487 -0.939423 0
M  V30 12591 C 1209.17 1.8817 0.533998 0
M  V30 12592 O 1210.38 2.56981 0.875962 0
M  V30 12593 C 1208.83 3.20796 -1.63149 0
M  V30 12594 C 1208.44 3.19281 -3.14267 0
M  V30 12595 C 1210.18 3.97514 -1.48938 0
M  V30 12596 C 1208.09 4.56309 -3.76213 0
M  V30 12597 H 1207.02 0.668973 -0.347837 0
M  V30 12598 H 1209.67 1.19237 -1.3948 0
M  V30 12599 H 1208.05 3.80305 -1.10382 0
M  V30 12600 H 1209.23 2.69356 -3.73877 0
M  V30 12601 H 1207.54 2.56062 -3.28362 0
M  V30 12602 H 1210.14 4.98808 -1.926 0
M  V30 12603 H 1210.48 4.13986 -0.438319 0
M  V30 12604 H 1211.02 3.44528 -1.98861 0
M  V30 12605 H 1207.75 4.45042 -4.81267 0
M  V30 12606 H 1207.27 5.06429 -3.21388 0
M  V30 12607 H 1208.95 5.25266 -3.77762 0
M  V30 12608 N 1209.09 0.96196 1.24836 0
M  V30 12609 C 1210.5 0.660388 1.7463 0
M  V30 12610 C 1210.85 -0.824064 1.78055 0
M  V30 12611 O 1209.97 -1.64485 1.40619 0
M  V30 12612 C 1210.57 1.19205 3.17137 0
M  V30 12613 C 1209.13 0.940493 3.64461 0
M  V30 12614 C 1208.27 1.33076 2.43282 0
M  V30 12615 H 1211.22 1.13794 1.1062 0
M  V30 12616 H 1211.25 0.555595 3.76422 0
M  V30 12617 H 1210.76 2.27247 3.14612 0
M  V30 12618 H 1208.86 -0.124645 3.72391 0
M  V30 12619 H 1208.97 1.5821 4.52224 0
M  V30 12620 H 1207.34 0.749139 2.43434 0
M  V30 12621 H 1208.12 2.42055 2.43442 0
M  V30 12622 N 1210.56 -1.39601 0.731392 0
M  V30 12623 C 1211.81 -2.0019 0.277208 0
M  V30 12624 C 1212.13 -1.5832 -1.13841 0
M  V30 12625 O 1211.4 -0.829793 -1.77458 0
M  V30 12626 H 1209.98 -0.740344 0.0995006 0
M  V30 12627 H 1212.64 -1.70704 0.940547 0
M  V30 12628 H 1211.74 -3.10427 0.322749 0
M  V30 12629 N 1212.04 -0.478751 -1.50152 0
M  V30 12630 C 1212.99 0.311426 -2.28689 0
M  V30 12631 C 1213.96 0.980375 -1.34082 0
M  V30 12632 O 1215.14 0.991337 -1.63025 0
M  V30 12633 C 1212.28 1.38302 -3.16175 0
M  V30 12634 C 1211.4 0.728084 -4.2582 0
M  V30 12635 C 1210.53 1.77822 -5.00552 0
M  V30 12636 C 1209.57 1.10395 -6.02063 0
M  V30 12637 N 1208.71 2.09728 -6.70044 0
M  V30 12638 H 1213.55 -0.364592 -2.95761 0
M  V30 12639 H 1211.09 -0.191645 -1.45846 0
M  V30 12640 H 1213.04 2.01606 -3.65255 0
M  V30 12641 H 1211.67 2.0281 -2.51133 0
M  V30 12642 H 1210.73 -0.0177026 -3.80396 0
M  V30 12643 H 1212.04 0.196209 -4.98414 0
M  V30 12644 H 1211.19 2.48687 -5.53389 0
M  V30 12645 H 1209.93 2.34392 -4.27682 0
M  V30 12646 H 1208.94 0.38096 -5.48479 0
M  V30 12647 H 1210.16 0.545045 -6.76909 0
M  V30 12648 H 1208.11 2.65301 -5.9996 0
M  V30 12649 H 1208.02 1.61546 -7.38538 0
M  V30 12650 H 1209.29 2.7995 -7.27495 0
M  V30 12651 N 1213.52 1.56172 -0.211661 0
M  V30 12652 C 1214.77 1.98332 0.423332 0
M  V30 12653 C 1215.1 1.09895 1.60115 0
M  V30 12654 O 1214.37 0.154477 1.93886 0
M  V30 12655 C 1214.66 3.49495 0.86747 0
M  V30 12656 C 1214.51 4.48708 -0.313302 0
M  V30 12657 C 1215.83 4.04793 1.72716 0
M  V30 12658 H 1212.95 0.72107 0.152402 0
M  V30 12659 H 1215.59 1.87521 -0.305912 0
M  V30 12660 H 1213.74 3.58839 1.48885 0
M  V30 12661 H 1215.41 4.51385 -0.951291 0
M  V30 12662 H 1213.66 4.2299 -0.96238 0
M  V30 12663 H 1214.33 5.51985 0.0402402 0
M  V30 12664 H 1216.8 3.98332 1.20296 0
M  V30 12665 H 1215.68 5.10898 2.00684 0
M  V30 12666 H 1215.94 3.51067 2.68709 0
M  V30 12667 N 1215 -0.0618163 1.57479 0
M  V30 12668 C 1215.96 -1.05684 2.0338 0
M  V30 12669 C 1216.96 -1.31006 0.932423 0
M  V30 12670 O 1218.15 -1.26559 1.19702 0
M  V30 12671 C 1215.28 -2.39805 2.42294 0
M  V30 12672 H 1216.48 -0.661006 2.92525 0
M  V30 12673 H 1214.03 -0.307814 1.53239 0
M  V30 12674 H 1214.76 -2.84201 1.56207 0
M  V30 12675 H 1214.55 -2.22764 3.22674 0
M  V30 12676 H 1216.04 -3.11307 2.78349 0
M  V30 12677 N 1216.48 -1.54033 -0.333429 0
M  V30 12678 C 1217.72 -1.72958 -1.07038 0
M  V30 12679 C 1218.08 -0.492055 -1.86002 0
M  V30 12680 O 1217.37 0.515453 -1.84536 0
M  V30 12681 C 1217.56 -2.93926 -2.03328 0
M  V30 12682 C 1217.39 -4.29324 -1.33831 0
M  V30 12683 C 1216.16 -4.93647 -1.07892 0
M  V30 12684 C 1218.36 -5.08664 -0.75929 0
M  V30 12685 N 1216.34 -6.12897 -0.35082 0
M  V30 12686 C 1217.71 -6.19788 -0.162281 0
M  V30 12687 C 1219.77 -4.93491 -0.661131 0
M  V30 12688 C 1218.47 -7.17394 0.523351 0
M  V30 12689 C 1220.5 -5.91399 0.0107794 0
M  V30 12690 C 1219.86 -7.01867 0.596775 0
M  V30 12691 H 1215.96 -0.685828 -0.375718 0
M  V30 12692 H 1218.54 -1.91478 -0.35274 0
M  V30 12693 H 1216.71 -2.76889 -2.72373 0
M  V30 12694 H 1218.45 -3.01524 -2.69936 0
M  V30 12695 H 1215.2 -4.53392 -1.36868 0
M  V30 12696 H 1215.63 -6.77 -0.00120039 0
M  V30 12697 H 1220.27 -4.08242 -1.09991 0
M  V30 12698 H 1217.99 -8.02209 0.973994 0
M  V30 12699 H 1221.57 -5.81736 0.0862353 0
M  V30 12700 H 1220.45 -7.76327 1.10845 0
M  V30 12701 N 1217.95 0.594978 -1.45938 0
M  V30 12702 C 1218.86 1.73296 -1.58132 0
M  V30 12703 C 1219.88 1.67665 -0.465245 0
M  V30 12704 O 1221.06 1.87794 -0.727684 0
M  V30 12705 C 1218.12 3.09783 -1.55677 0
M  V30 12706 C 1217.18 3.26772 -2.78422 0
M  V30 12707 C 1216.42 4.56748 -2.76075 0
M  V30 12708 O 1216.64 5.39867 -1.84119 0
M  V30 12709 O 1215.57 4.76721 -3.67452 0
M  V30 12710 H 1219.4 1.65957 -2.54346 0
M  V30 12711 H 1216.98 0.760572 -1.28591 0
M  V30 12712 H 1218.87 3.91077 -1.56961 0
M  V30 12713 H 1217.54 3.17585 -0.626191 0
M  V30 12714 H 1216.45 2.45018 -2.82696 0
M  V30 12715 H 1217.78 3.23853 -3.70648 0
M  V30 12716 N 1219.43 1.33438 0.838571 0
M  V30 12717 C 1220.4 1.23632 1.92997 0
M  V30 12718 C 1221.4 0.155302 1.60048 0
M  V30 12719 O 1222.59 0.406852 1.69382 0
M  V30 12720 C 1219.72 0.90512 3.28665 0
M  V30 12721 H 1220.91 2.20643 2.03117 0
M  V30 12722 H 1218.46 1.17501 1.03069 0
M  V30 12723 H 1219.2 -0.0624833 3.2424 0
M  V30 12724 H 1218.98 1.68688 3.53959 0
M  V30 12725 H 1220.47 0.861262 4.08622 0
M  V30 12726 N 1220.91 -1.05686 1.16912 0
M  V30 12727 C 1222.14 -1.82821 0.979348 0
M  V30 12728 C 1222.56 -1.82196 -0.467575 0
M  V30 12729 O 1221.92 -1.22727 -1.33445 0
M  V30 12730 C 1221.97 -3.2705 1.51891 0
M  V30 12731 O 1221.07 -4.05899 0.729341 0
M  V30 12732 H 1220.41 -0.565455 0.348076 0
M  V30 12733 H 1222.94 -1.33211 1.55293 0
M  V30 12734 H 1222.95 -3.77859 1.53904 0
M  V30 12735 H 1221.63 -3.26819 2.5722 0
M  V30 12736 H 1220.2 -3.64646 0.780221 0
M  V30 12737 N 1222.39 -0.968567 -1.24324 0
M  V30 12738 C 1223.61 -0.648166 -1.97012 0
M  V30 12739 C 1224.04 0.775842 -1.71354 0
M  V30 12740 O 1223.4 1.52672 -0.977804 0
M  V30 12741 C 1223.44 -0.929974 -3.48402 0
M  V30 12742 O 1222.55 -0.015854 -4.12397 0
M  V30 12743 H 1221.89 -0.244961 -0.617163 0
M  V30 12744 H 1224.42 -1.29895 -1.58077 0
M  V30 12745 H 1224.43 -0.861863 -3.98793 0
M  V30 12746 H 1223.1 -1.96776 -3.66404 0
M  V30 12747 H 1221.68 -0.137361 -3.72647 0
M  V30 12748 N 1223.87 1.39211 -0.738786 0
M  V30 12749 C 1224.81 2.30578 -0.10129 0
M  V30 12750 C 1225.78 1.49412 0.725616 0
M  V30 12751 O 1226.97 1.78087 0.684799 0
M  V30 12752 C 1224.11 3.35767 0.797161 0
M  V30 12753 C 1223.22 4.31979 -0.0427701 0
M  V30 12754 C 1222.36 5.24236 0.857306 0
M  V30 12755 C 1221.4 6.12099 0.0128501 0
M  V30 12756 N 1220.53 6.96701 0.869067 0
M  V30 12757 H 1225.37 2.84522 -0.88606 0
M  V30 12758 H 1222.91 1.40093 -0.448602 0
M  V30 12759 H 1224.87 3.95347 1.33255 0
M  V30 12760 H 1223.5 2.83268 1.54787 0
M  V30 12761 H 1222.55 3.73986 -0.695622 0
M  V30 12762 H 1223.86 4.93927 -0.69555 0
M  V30 12763 H 1223.02 5.88861 1.4604 0
M  V30 12764 H 1221.75 4.62619 1.54386 0
M  V30 12765 H 1220.76 5.46483 -0.603018 0
M  V30 12766 H 1221.98 6.75781 -0.67054 0
M  V30 12767 H 1219.93 6.37647 1.54084 0
M  V30 12768 H 1219.85 7.55507 0.272852 0
M  V30 12769 H 1221.12 7.65751 1.4576 0
M  V30 12770 N 1225.34 0.486708 1.49896 0
M  V30 12771 C 1226.29 -0.313156 2.30482 0
M  V30 12772 C 1227.29 -0.976043 1.38455 0
M  V30 12773 O 1228.49 -0.905364 1.55574 0
M  V30 12774 H 1224.87 -0.119839 0.74239 0
M  V30 12775 H 1226.84 0.386701 2.95884 0
M  V30 12776 C 1225.59 -1.37334 3.19429 0
M  V30 12777 H 1224.91 -0.87265 3.9016 0
M  V30 12778 H 1226.35 -1.90526 3.78782 0
M  V30 12779 C 1224.81 -2.38378 2.38071 0
M  V30 12780 O 1225.34 -3.43972 2.07476 0
M  V30 12781 N 1223.55 -2.10486 2.00359 0
M  V30 12782 H 1223.09 -1.24638 2.2544 0
M  V30 12783 H 1223.05 -2.78324 1.46229 0
M  V30 12784 N 1226.82 -1.56058 0.219941 0
M  V30 12785 C 1228.05 -2.031 -0.42014 0
M  V30 12786 C 1228.47 -1.09875 -1.52673 0
M  V30 12787 O 1227.83 -0.0866458 -1.81093 0
M  V30 12788 C 1227.88 -3.48389 -0.93047 0
M  V30 12789 O 1226.98 -3.583 -2.04192 0
M  V30 12790 H 1226.32 -0.657129 -0.0952772 0
M  V30 12791 H 1228.85 -2.01787 0.338105 0
M  V30 12792 H 1228.86 -3.88678 -1.2407 0
M  V30 12793 H 1227.54 -4.15725 -0.120539 0
M  V30 12794 H 1226.12 -3.29898 -1.73845 0
M  V30 12795 N 1228.3 0.053464 -1.57509 0
M  V30 12796 C 1229.55 0.750212 -1.88414 0
M  V30 12797 C 1229.88 1.76288 -0.814619 0
M  V30 12798 O 1229.16 1.93728 0.173136 0
M  V30 12799 C 1229.44 1.44176 -3.29978 0
M  V30 12800 C 1229.29 0.444263 -4.47601 0
M  V30 12801 C 1230.61 2.38207 -3.70061 0
M  V30 12802 H 1227.73 0.271266 -0.685262 0
M  V30 12803 H 1230.37 0.0131676 -1.89995 0
M  V30 12804 H 1228.52 2.07001 -3.2876 0
M  V30 12805 H 1230.19 -0.180182 -4.60948 0
M  V30 12806 H 1228.44 -0.238771 -4.33142 0
M  V30 12807 H 1229.11 0.966134 -5.43479 0
M  V30 12808 H 1231.58 1.85446 -3.7249 0
M  V30 12809 H 1230.46 2.83588 -4.69967 0
M  V30 12810 H 1230.72 3.23821 -3.00985 0
M  V30 12811 N 1229.78 1.54207 0.325255 0
M  V30 12812 C 1230.71 1.86467 1.40543 0
M  V30 12813 C 1231.69 0.721324 1.54048 0
M  V30 12814 O 1232.88 0.974905 1.67956 0
M  V30 12815 C 1230.01 2.09052 2.77335 0
M  V30 12816 C 1228.96 3.24893 2.78619 0
M  V30 12817 C 1228.29 3.32846 4.1847 0
M  V30 12818 C 1229.59 4.62582 2.42518 0
M  V30 12819 H 1231.28 2.76932 1.13794 0
M  V30 12820 H 1228.83 1.33248 0.545971 0
M  V30 12821 H 1230.78 2.30204 3.52964 0
M  V30 12822 H 1229.5 1.15335 3.05558 0
M  V30 12823 H 1228.16 3.03625 2.05444 0
M  V30 12824 H 1227.81 2.3669 4.43832 0
M  V30 12825 H 1227.51 4.10701 4.20237 0
M  V30 12826 H 1229.03 3.56231 4.95915 0
M  V30 12827 H 1230.45 4.83627 3.07861 0
M  V30 12828 H 1228.84 5.42974 2.55538 0
M  V30 12829 H 1229.91 4.64946 1.3767 0
M  V30 12830 N 1231.26 -0.58723 1.46251 0
M  V30 12831 C 1232.19 -1.70694 1.5933 0
M  V30 12832 C 1233.17 -1.64208 0.443831 0
M  V30 12833 O 1234.35 -1.82294 0.669516 0
M  V30 12834 C 1231.48 -3.0933 1.579 0
M  V30 12835 C 1230.44 -3.30643 2.7177 0
M  V30 12836 C 1229.76 -4.69761 2.554 0
M  V30 12837 C 1231.06 -3.18916 4.1363 0
M  V30 12838 H 1232.76 -1.60004 2.53059 0
M  V30 12839 H 1230.3 -0.768343 1.21789 0
M  V30 12840 H 1232.26 -3.87479 1.65644 0
M  V30 12841 H 1230.98 -3.20907 0.60712 0
M  V30 12842 H 1229.64 -2.54892 2.63488 0
M  V30 12843 H 1229.29 -4.78098 1.56306 0
M  V30 12844 H 1228.99 -4.84974 3.31774 0
M  V30 12845 H 1230.51 -5.50084 2.65028 0
M  V30 12846 H 1231.93 -3.86915 4.23048 0
M  V30 12847 H 1230.32 -3.45653 4.90555 0
M  V30 12848 H 1231.39 -2.1606 4.34104 0
M  V30 12849 N 1232.74 -1.33881 -0.831482 0
M  V30 12850 C 1234.15 -1.13376 -1.1233 0
M  V30 12851 C 1234.35 0.0704402 -2.01377 0
M  V30 12852 O 1233.41 0.748516 -2.4115 0
M  V30 12853 C 1234.72 -2.42484 -1.77826 0
M  V30 12854 C 1236.27 -2.4846 -1.90359 0
M  V30 12855 C 1236.74 -3.77548 -2.59272 0
M  V30 12856 N 1238.23 -3.7866 -2.66778 0
M  V30 12857 C 1238.97 -4.75258 -3.20807 0
M  V30 12858 N 1238.47 -5.82234 -3.75466 0
M  V30 12859 N 1240.26 -4.62724 -3.19128 0
M  V30 12860 H 1232.41 -2.11051 -0.238998 0
M  V30 12861 H 1234.67 -0.932893 -0.168565 0
M  V30 12862 H 1234.38 -3.30647 -1.19857 0
M  V30 12863 H 1234.25 -2.55186 -2.77777 0
M  V30 12864 H 1236.64 -1.60742 -2.47479 0
M  V30 12865 H 1236.72 -2.39693 -0.893359 0
M  V30 12866 H 1236.36 -4.65651 -2.02808 0
M  V30 12867 H 1236.29 -3.83594 -3.60781 0
M  V30 12868 H 1238.79 -3.01351 -2.28026 0
M  V30 12869 H 1239.1 -6.51968 -4.14918 0
M  V30 12870 H 1237.44 -5.85959 -3.73733 0
M  V30 12871 H 1240.63 -3.78303 -2.75688 0
M  V30 12872 H 1240.81 -5.38175 -3.60932 0
M  V30 12873 N 1234.21 1.05064 -1.1747 0
M  V30 12874 C 1235.46 1.78491 -0.975314 0
M  V30 12875 C 1235.81 1.86036 0.490734 0
M  V30 12876 O 1235.11 1.35005 1.35956 0
M  V30 12877 C 1235.3 3.21961 -1.55164 0
M  V30 12878 C 1235.13 3.28399 -3.0722 0
M  V30 12879 C 1233.9 3.37611 -3.75962 0
M  V30 12880 C 1236.1 3.17234 -4.04805 0
M  V30 12881 N 1234.08 3.33193 -5.15612 0
M  V30 12882 C 1235.45 3.20202 -5.30915 0
M  V30 12883 C 1237.51 3.01205 -3.96459 0
M  V30 12884 C 1236.21 3.08787 -6.49648 0
M  V30 12885 C 1238.24 2.91133 -5.14777 0
M  V30 12886 C 1237.6 2.94735 -6.39774 0
M  V30 12887 H 1233.7 0.665407 -0.4108 0
M  V30 12888 H 1236.28 1.25236 -1.49077 0
M  V30 12889 H 1234.45 3.73585 -1.0625 0
M  V30 12890 H 1236.18 3.83632 -1.28876 0
M  V30 12891 H 1232.94 3.42926 -3.26648 0
M  V30 12892 H 1233.36 3.3445 -5.88619 0
M  V30 12893 H 1238 2.97258 -3.00662 0
M  V30 12894 H 1235.72 3.11489 -7.45654 0
M  V30 12895 H 1239.31 2.798 -5.10101 0
M  V30 12896 H 1238.19 2.87016 -7.29789 0
M  V30 12897 N 1235.69 0.975146 1.23809 0
M  V30 12898 C 1236.62 0.530389 2.27396 0
M  V30 12899 C 1237.6 -0.433763 1.64476 0
M  V30 12900 O 1238.79 -0.32827 1.91405 0
M  V30 12901 C 1235.92 -0.173066 3.46869 0
M  V30 12902 C 1234.87 0.707844 4.22106 0
M  V30 12903 C 1234.2 -0.127527 5.34548 0
M  V30 12904 C 1235.5 1.99609 4.82652 0
M  V30 12905 H 1237.19 1.39622 2.64851 0
M  V30 12906 H 1234.74 0.672802 1.27316 0
M  V30 12907 H 1236.69 -0.495481 4.18477 0
M  V30 12908 H 1235.41 -1.0733 3.0846 0
M  V30 12909 H 1234.07 1.01364 3.52308 0
M  V30 12910 H 1233.72 -1.02814 4.9238 0
M  V30 12911 H 1233.42 0.458728 5.85807 0
M  V30 12912 H 1234.95 -0.444443 6.0898 0
M  V30 12913 H 1236.36 1.73878 5.46296 0
M  V30 12914 H 1234.76 2.52969 5.44175 0
M  V30 12915 H 1235.83 2.68629 4.03691 0
M  V30 12916 N 1237.17 -1.38817 0.746158 0
M  V30 12917 C 1238.08 -2.34316 0.115386 0
M  V30 12918 C 1239.1 -1.58892 -0.709179 0
M  V30 12919 O 1240.27 -1.91126 -0.635059 0
M  V30 12920 C 1237.34 -3.37977 -0.772821 0
M  V30 12921 C 1236.4 -4.2925 0.0652679 0
M  V30 12922 C 1235.63 -5.2796 -0.78064 0
M  V30 12923 O 1235.85 -5.33474 -2.01896 0
M  V30 12924 O 1234.79 -6.01556 -0.20338 0
M  V30 12925 H 1238.61 -2.89937 0.903887 0
M  V30 12926 H 1236.2 -1.40536 0.506958 0
M  V30 12927 H 1238.08 -4.01468 -1.28068 0
M  V30 12928 H 1236.76 -2.84723 -1.53994 0
M  V30 12929 H 1235.66 -3.68945 0.61891 0
M  V30 12930 H 1237 -4.85739 0.794871 0
M  V30 12931 N 1238.65 -0.49465 -1.49636 0
M  V30 12932 C 1240.06 -0.0452894 -1.86645 0
M  V30 12933 C 1240.41 1.36686 -1.40753 0
M  V30 12934 O 1239.53 2.01751 -0.78265 0
M  V30 12935 C 1240.13 -0.0754115 -3.38716 0
M  V30 12936 C 1238.69 0.318579 -3.75049 0
M  V30 12937 C 1237.84 -0.450712 -2.73613 0
M  V30 12938 H 1240.79 -0.707758 -1.42044 0
M  V30 12939 H 1240.81 0.721372 -3.73599 0
M  V30 12940 H 1240.32 -1.10331 -3.72087 0
M  V30 12941 H 1238.42 1.34995 -3.47285 0
M  V30 12942 H 1238.53 0.00354416 -4.791 0
M  V30 12943 H 1236.9 0.0986455 -2.54509 0
M  V30 12944 H 1237.68 -1.47857 -3.09828 0
M  V30 12945 N 1240.13 1.55939 -0.228214 0
M  V30 12946 C 1241.54 1.84612 0.278417 0
M  V30 12947 C 1241.89 1.14973 1.58983 0
M  V30 12948 O 1241.01 0.421673 2.12252 0
M  V30 12949 C 1241.61 3.3491 0.511935 0
M  V30 12950 C 1240.17 3.63876 0.962861 0
M  V30 12951 C 1239.31 2.77284 0.0296246 0
M  V30 12952 H 1242.26 1.52149 -0.451245 0
M  V30 12953 H 1242.29 3.55477 1.35707 0
M  V30 12954 H 1241.8 3.85567 -0.442697 0
M  V30 12955 H 1239.9 3.18682 1.93062 0
M  V30 12956 H 1240.01 4.71809 0.832659 0
M  V30 12957 H 1238.38 2.48961 0.53763 0
M  V30 12958 H 1239.16 3.30742 -0.920044 0
M  V30 12959 N 1241.6 -0.0451101 1.57535 0
M  V30 12960 C 1242.88 -0.773625 1.79651 0
M  V30 12961 C 1243.26 -1.94422 0.822391 0
M  V30 12962 O 1242.61 -2.28077 -0.138913 0
M  V30 12963 C 1242.82 -1.22168 3.26919 0
M  V30 12964 C 1244.17 -1.64419 3.91474 0
M  V30 12965 O 1245.19 -1.31668 3.30971 0
M  V30 12966 O 1244.05 -2.25148 4.97967 0
M  V30 12967 H 1241.14 -0.372786 0.738214 0
M  V30 12968 H 1243.69 -0.0231245 1.69684 0
M  V30 12969 H 1242.46 -0.385302 3.89398 0
M  V30 12970 H 1242.09 -2.03269 3.41713 0
M  V30 12971 N 1243.08 -1.54377 -0.317073 0
M  V30 12972 C 1244.49 -1.64062 -0.891105 0
M  V30 12973 C 1244.84 -0.538863 -1.88655 0
M  V30 12974 O 1243.97 0.32718 -2.13912 0
M  V30 12975 C 1244.56 -2.97395 -1.62302 0
M  V30 12976 C 1243.12 -3.09253 -2.14568 0
M  V30 12977 C 1242.27 -2.59664 -0.973146 0
M  V30 12978 H 1245.22 -1.58418 -0.0944829 0
M  V30 12979 H 1245.24 -2.87918 -2.48764 0
M  V30 12980 H 1244.75 -3.77562 -0.898268 0
M  V30 12981 H 1242.86 -2.33774 -2.90139 0
M  V30 12982 H 1242.97 -4.15159 -2.39123 0
M  V30 12983 H 1241.33 -2.15719 -1.35416 0
M  V30 12984 H 1242.12 -3.42294 -0.262611 0
M  V30 12985 N 1244.56 0.579466 -1.4656 0
M  V30 12986 C 1245.51 1.70937 -1.57744 0
M  V30 12987 C 1246.5 1.6343 -0.44577 0
M  V30 12988 O 1247.71 1.68884 -0.622762 0
M  V30 12989 H 1244.08 0.565218 -0.496017 0
M  V30 12990 H 1246.05 1.58636 -2.52739 0
M  V30 12991 C 1244.8 3.09321 -1.58794 0
M  V30 12992 H 1244.13 3.1577 -2.45213 0
M  V30 12993 H 1245.57 3.88132 -1.70674 0
M  V30 12994 C 1244.03 3.35404 -0.317165 0
M  V30 12995 O 1244.56 3.97325 0.591228 0
M  V30 12996 N 1242.76 2.89883 -0.204071 0
M  V30 12997 H 1242.31 2.39672 -0.944194 0
M  V30 12998 H 1242.27 3.07706 0.645303 0
M  V30 12999 N 1246.04 1.3432 0.824371 0
M  V30 13000 C 1247.29 1.26345 1.57738 0
M  V30 13001 C 1247.61 -0.166836 1.94285 0
M  V30 13002 O 1246.88 -1.09911 1.62162 0
M  V30 13003 H 1245.46 0.46466 0.584893 0
M  V30 13004 H 1248.12 1.68214 0.984373 0
M  V30 13005 H 1247.22 1.8672 2.50084 0
M  V30 13006 N 1247.52 -1.0444 1.18026 0
M  V30 13007 C 1248.45 -2.14297 0.927314 0
M  V30 13008 C 1249.43 -1.69575 -0.13357 0
M  V30 13009 O 1250.61 -1.94191 0.0182439 0
M  V30 13010 C 1247.74 -3.44397 0.448134 0
M  V30 13011 C 1246.7 -4.02723 1.44907 0
M  V30 13012 C 1246.02 -5.28257 0.827555 0
M  V30 13013 C 1247.32 -4.39331 2.82463 0
M  V30 13014 H 1249.02 -2.35715 1.84605 0
M  V30 13015 H 1246.56 -1.13281 0.889012 0
M  V30 13016 H 1248.52 -4.20606 0.258554 0
M  V30 13017 H 1247.24 -3.22654 -0.506159 0
M  V30 13018 H 1245.9 -3.28591 1.62552 0
M  V30 13019 H 1245.55 -5.02822 -0.13381 0
M  V30 13020 H 1245.25 -5.68242 1.49581 0
M  V30 13021 H 1246.77 -6.07147 0.64842 0
M  V30 13022 H 1248.18 -5.06543 2.68491 0
M  V30 13023 H 1246.58 -4.90355 3.45936 0
M  V30 13024 H 1247.65 -3.4933 3.36299 0
M  V30 13025 N 1248.99 -0.981699 -1.2329 0
M  V30 13026 C 1250.24 -0.646818 -1.91048 0
M  V30 13027 C 1250.56 0.823479 -1.77421 0
M  V30 13028 O 1251.76 1.26948 -2.39993 0
M  V30 13029 C 1250.22 -1.1063 -3.42475 0
M  V30 13030 C 1249.83 -2.60103 -3.6476 0
M  V30 13031 C 1251.57 -0.845227 -4.16 0
M  V30 13032 C 1249.48 -2.99712 -5.0983 0
M  V30 13033 H 1248.41 -0.238221 -0.715379 0
M  V30 13034 H 1251.06 -1.18977 -1.39702 0
M  V30 13035 H 1249.44 -0.491554 -3.92937 0
M  V30 13036 H 1250.61 -3.26828 -3.24839 0
M  V30 13037 H 1248.93 -2.83972 -3.04547 0
M  V30 13038 H 1251.53 -1.11699 -5.22903 0
M  V30 13039 H 1251.87 0.218661 -4.15725 0
M  V30 13040 H 1252.4 -1.42162 -3.7153 0
M  V30 13041 H 1249.14 -4.0523 -5.15237 0
M  V30 13042 H 1248.66 -2.37683 -5.50697 0
M  V30 13043 H 1250.34 -2.9039 -5.78172 0
M  V30 13044 N 1250.47 1.3842 -0.753509 0
M  V30 13045 C 1251.4 2.33073 -0.141198 0
M  V30 13046 C 1252.38 1.54863 0.70367 0
M  V30 13047 O 1253.57 1.8318 0.644872 0
M  V30 13048 C 1250.7 3.39043 0.752802 0
M  V30 13049 C 1249.65 4.27999 0.0106692 0
M  V30 13050 C 1248.98 5.24824 1.02291 0
M  V30 13051 C 1250.28 5.09308 -1.15768 0
M  V30 13052 H 1251.97 2.84528 -0.93188 0
M  V30 13053 H 1249.52 1.36802 -0.449567 0
M  V30 13054 H 1251.47 4.04224 1.19083 0
M  V30 13055 H 1250.2 2.8607 1.57581 0
M  V30 13056 H 1248.85 3.64323 -0.407939 0
M  V30 13057 H 1248.5 4.68139 1.83998 0
M  V30 13058 H 1248.2 5.85196 0.53101 0
M  V30 13059 H 1249.73 5.92882 1.46026 0
M  V30 13060 H 1251.14 5.6773 -0.797203 0
M  V30 13061 H 1249.54 5.78914 -1.58044 0
M  V30 13062 H 1250.61 4.43051 -1.97062 0
M  V30 13063 N 1251.95 0.502579 1.49372 0
M  V30 13064 C 1252.9 -0.275004 2.29156 0
M  V30 13065 C 1253.87 -0.95892 1.35624 0
M  V30 13066 O 1255.05 -0.965276 1.64581 0
M  V30 13067 C 1252.19 -1.33255 3.18335 0
M  V30 13068 C 1251.31 -0.660248 4.26925 0
M  V30 13069 C 1250.44 -1.69837 5.03318 0
M  V30 13070 C 1249.48 -1.00802 6.03743 0
M  V30 13071 N 1248.62 -1.99042 6.73295 0
M  V30 13072 H 1253.46 0.411599 2.95144 0
M  V30 13073 H 1250.99 0.214824 1.45523 0
M  V30 13074 H 1252.95 -1.95769 3.68416 0
M  V30 13075 H 1251.58 -1.98789 2.54328 0
M  V30 13076 H 1250.63 0.0782181 3.8032 0
M  V30 13077 H 1251.95 -0.11689 4.98663 0
M  V30 13078 H 1251.1 -2.39852 5.57275 0
M  V30 13079 H 1249.84 -2.27558 4.31357 0
M  V30 13080 H 1248.84 -0.293654 5.49015 0
M  V30 13081 H 1250.07 -0.437285 6.77691 0
M  V30 13082 H 1248.01 -2.55722 6.04104 0
M  V30 13083 H 1247.93 -1.49776 7.41015 0
M  V30 13084 H 1249.2 -2.6834 7.31856 0
M  V30 13085 N 1253.43 -1.55816 0.23648 0
M  V30 13086 C 1254.66 -2.02789 -0.39501 0
M  V30 13087 C 1255.07 -1.1153 -1.52832 0
M  V30 13088 O 1254.41 -0.120084 -1.83307 0
M  V30 13089 C 1254.47 -3.46052 -0.974066 0
M  V30 13090 C 1254.14 -4.56993 0.0256825 0
M  V30 13091 C 1255.13 -5.13208 0.831477 0
M  V30 13092 C 1252.82 -5.0208 0.148759 0
M  V30 13093 C 1254.81 -6.12994 1.74691 0
M  V30 13094 C 1252.5 -6.017 1.0677 0
M  V30 13095 C 1253.5 -6.57035 1.86531 0
M  V30 13096 O 1253.18 -7.54714 2.76878 0
M  V30 13097 H 1252.92 -0.668672 -0.0992687 0
M  V30 13098 H 1255.47 -2.02312 0.354826 0
M  V30 13099 H 1253.7 -3.43645 -1.77327 0
M  V30 13100 H 1255.39 -3.76586 -1.51453 0
M  V30 13101 H 1256.16 -4.79214 0.746922 0
M  V30 13102 H 1252.03 -4.58679 -0.461976 0
M  V30 13103 H 1255.58 -6.56111 2.36989 0
M  V30 13104 H 1251.48 -6.35115 1.15322 0
M  V30 13105 H 1252.24 -7.72292 2.71122 0
M  V30 13106 N 1254.91 0.036755 -1.57557 0
M  V30 13107 C 1255.82 1.05687 -2.09446 0
M  V30 13108 C 1256.83 1.40137 -1.03139 0
M  V30 13109 O 1258.01 1.49611 -1.34828 0
M  V30 13110 C 1255.07 2.34114 -2.55717 0
M  V30 13111 C 1254.13 2.06316 -3.76473 0
M  V30 13112 C 1253.37 3.2862 -4.20529 0
M  V30 13113 O 1253.59 4.3902 -3.64167 0
M  V30 13114 O 1252.52 3.14772 -5.13033 0
M  V30 13115 H 1256.35 0.64593 -2.96751 0
M  V30 13116 H 1253.94 0.253235 -1.47238 0
M  V30 13117 H 1255.82 3.09631 -2.85844 0
M  V30 13118 H 1254.49 2.74519 -1.71526 0
M  V30 13119 H 1253.4 1.28392 -3.51378 0
M  V30 13120 H 1254.73 1.70772 -4.61625 0
M  V30 13121 N 1256.39 1.54543 0.308881 0
M  V30 13122 C 1257.63 1.7266 1.04266 0
M  V30 13123 C 1257.95 0.51518 1.88694 0
M  V30 13124 O 1259.15 0.577988 2.65276 0
M  V30 13125 C 1257.61 3.05448 1.9034 0
M  V30 13126 C 1257.22 4.34043 1.10953 0
M  V30 13127 C 1258.96 3.32925 2.63365 0
M  V30 13128 C 1256.87 5.57886 1.96258 0
M  V30 13129 H 1255.8 0.643485 0.392992 0
M  V30 13130 H 1258.45 1.8103 0.300077 0
M  V30 13131 H 1256.83 2.91023 2.68555 0
M  V30 13132 H 1258.01 4.59279 0.374069 0
M  V30 13133 H 1256.32 4.13442 0.495453 0
M  V30 13134 H 1258.92 4.22649 3.27524 0
M  V30 13135 H 1259.26 2.51451 3.3178 0
M  V30 13136 H 1259.79 3.48285 1.92204 0
M  V30 13137 H 1256.53 6.42005 1.32326 0
M  V30 13138 H 1256.05 5.36847 2.67498 0
M  V30 13139 H 1257.73 5.94846 2.54494 0
M  V30 13140 N 1257.86 -0.571685 1.46866 0
M  V30 13141 C 1258.81 -1.67992 1.58263 0
M  V30 13142 C 1259.78 -1.60535 0.426345 0
M  V30 13143 O 1260.97 -1.79584 0.644534 0
M  V30 13144 C 1258.11 -3.06327 1.58927 0
M  V30 13145 C 1257.22 -3.24328 2.85369 0
M  V30 13146 C 1256.35 -4.52976 2.77464 0
M  V30 13147 C 1255.39 -4.64359 3.98795 0
M  V30 13148 N 1254.53 -5.84345 3.89211 0
M  V30 13149 H 1259.37 -1.57589 2.52922 0
M  V30 13150 H 1256.91 -0.767883 1.25467 0
M  V30 13151 H 1258.86 -3.86411 1.57296 0
M  V30 13152 H 1257.49 -3.15601 0.677912 0
M  V30 13153 H 1256.55 -2.37774 2.96931 0
M  V30 13154 H 1257.86 -3.28605 3.7526 0
M  V30 13155 H 1257.01 -5.41303 2.74001 0
M  V30 13156 H 1255.75 -4.51155 1.85231 0
M  V30 13157 H 1254.76 -3.74448 4.02578 0
M  V30 13158 H 1255.98 -4.6795 4.92137 0
M  V30 13159 H 1253.93 -5.835 2.99772 0
M  V30 13160 H 1253.84 -5.89938 4.72768 0
M  V30 13161 H 1255.11 -6.75072 3.89741 0
M  V30 13162 N 1259.34 -1.34755 -0.817236 0
M  V30 13163 C 1260.57 -1.30333 -1.60303 0
M  V30 13164 C 1260.98 0.12357 -1.88796 0
M  V30 13165 O 1260.32 1.08279 -1.48396 0
M  V30 13166 C 1260.38 -2.03179 -2.96578 0
M  V30 13167 C 1260.05 -3.52414 -2.90952 0
M  V30 13168 C 1261.05 -4.47213 -2.65136 0
M  V30 13169 C 1258.73 -3.9491 -3.10405 0
M  V30 13170 C 1260.72 -5.82481 -2.58832 0
M  V30 13171 C 1258.41 -5.30277 -3.03726 0
M  V30 13172 C 1259.41 -6.23875 -2.77973 0
M  V30 13173 O 1259.1 -7.5676 -2.71237 0
M  V30 13174 H 1258.83 -0.449615 -0.5048 0
M  V30 13175 H 1261.38 -1.7803 -1.02443 0
M  V30 13176 H 1259.61 -1.50104 -3.56379 0
M  V30 13177 H 1261.3 -1.91972 -3.57633 0
M  V30 13178 H 1262.07 -4.157 -2.49836 0
M  V30 13179 H 1257.95 -3.22451 -3.29464 0
M  V30 13180 H 1261.49 -6.55508 -2.38652 0
M  V30 13181 H 1257.39 -5.61406 -3.1858 0
M  V30 13182 H 1258.16 -7.66562 -2.86923 0
M  V30 13183 N 1260.82 1.03812 -1.18578 0
M  V30 13184 C 1262.24 1.29271 -0.936011 0
M  V30 13185 C 1262.44 1.97551 0.396965 0
M  V30 13186 O 1261.49 2.25769 1.13069 0
M  V30 13187 C 1262.8 2.1489 -2.1034 0
M  V30 13188 C 1264.35 2.28228 -2.14198 0
M  V30 13189 C 1264.83 3.17214 -3.30362 0
M  V30 13190 N 1266.32 3.24802 -3.30239 0
M  V30 13191 C 1267.05 3.9382 -4.16765 0
M  V30 13192 N 1266.55 4.65147 -5.1343 0
M  V30 13193 N 1268.34 3.90125 -4.04671 0
M  V30 13194 H 1260.49 0.579011 -2.04356 0
M  V30 13195 H 1262.76 0.318021 -0.893066 0
M  V30 13196 H 1262.46 1.72029 -3.06755 0
M  V30 13197 H 1262.34 3.15576 -2.06619 0
M  V30 13198 H 1264.72 2.70324 -1.18359 0
M  V30 13199 H 1264.8 1.27124 -2.21976 0
M  V30 13200 H 1264.45 2.75829 -4.26475 0
M  V30 13201 H 1264.38 4.18356 -3.19821 0
M  V30 13202 H 1266.87 2.73994 -2.60261 0
M  V30 13203 H 1267.18 5.15414 -5.7582 0
M  V30 13204 H 1265.53 4.64043 -5.17387 0
M  V30 13205 H 1268.72 3.33536 -3.28438 0
M  V30 13206 H 1268.89 4.43641 -4.7232 0
M  V30 13207 N 1262.3 0.988223 1.22768 0
M  V30 13208 C 1263.71 0.69816 1.4352 0
M  V30 13209 C 1263.91 -0.732872 1.877 0
M  V30 13210 O 1262.97 -1.50436 2.02793 0
M  V30 13211 C 1264.28 1.69975 2.4805 0
M  V30 13212 C 1265.83 1.71467 2.61855 0
M  V30 13213 C 1266.31 2.70477 3.69603 0
M  V30 13214 N 1267.8 2.69043 3.77055 0
M  V30 13215 C 1268.53 3.42319 4.60006 0
M  V30 13216 N 1268.03 4.2518 5.46986 0
M  V30 13217 N 1269.82 3.31047 4.54274 0
M  V30 13218 H 1261.97 1.91251 0.923948 0
M  V30 13219 H 1264.23 0.82455 0.467783 0
M  V30 13220 H 1263.94 2.72354 2.22523 0
M  V30 13221 H 1263.81 1.48885 3.46573 0
M  V30 13222 H 1266.2 0.697889 2.86729 0
M  V30 13223 H 1266.28 1.96625 1.63622 0
M  V30 13224 H 1265.93 3.72302 3.45476 0
M  V30 13225 H 1265.86 2.42591 4.67394 0
M  V30 13226 H 1268.35 2.08914 3.14902 0
M  V30 13227 H 1268.66 4.77929 6.07292 0
M  V30 13228 H 1267.01 4.29268 5.46584 0
M  V30 13229 H 1270.2 2.65758 3.85345 0
M  V30 13230 H 1270.37 3.88413 5.1869 0
M  V30 13231 N 1263.78 -1.38018 0.760839 0
M  V30 13232 C 1264.71 -2.32995 0.153557 0
M  V30 13233 C 1265.69 -1.55234 -0.695448 0
M  V30 13234 O 1266.87 -1.8352 -0.635148 0
M  V30 13235 C 1264 -3.39437 -0.734811 0
M  V30 13236 C 1262.96 -4.27998 0.0120287 0
M  V30 13237 C 1262.28 -5.25359 -0.995067 0
M  V30 13238 C 1263.58 -5.08687 1.18468 0
M  V30 13239 H 1265.28 -2.8403 0.946956 0
M  V30 13240 H 1262.82 -1.36562 0.456816 0
M  V30 13241 H 1264.77 -4.0485 -1.16938 0
M  V30 13242 H 1263.5 -2.86901 -1.56061 0
M  V30 13243 H 1262.16 -3.64102 0.427254 0
M  V30 13244 H 1261.81 -4.69108 -1.81512 0
M  V30 13245 H 1261.51 -5.85469 -0.499969 0
M  V30 13246 H 1263.03 -5.93648 -1.4288 0
M  V30 13247 H 1264.44 -5.67299 0.8273 0
M  V30 13248 H 1262.84 -5.78068 1.61112 0
M  V30 13249 H 1263.91 -4.42 1.99409 0
M  V30 13250 N 1265.25 -0.510493 -1.49103 0
M  V30 13251 C 1266.5 0.0305831 -2.02077 0
M  V30 13252 C 1266.82 1.36602 -1.39157 0
M  V30 13253 O 1266.09 1.88016 -0.550154 0
M  V30 13254 H 1264.67 0.0142916 -0.746863 0
M  V30 13255 H 1267.33 -0.669895 -1.83026 0
M  V30 13256 H 1266.43 0.153283 -3.11723 0
M  V30 13257 N 1266.73 1.55688 -0.24474 0
M  V30 13258 C 1267.64 2.24933 0.666519 0
M  V30 13259 C 1268.66 1.26471 1.19503 0
M  V30 13260 O 1269.83 1.59342 1.23176 0
M  V30 13261 C 1266.9 2.9336 1.84772 0
M  V30 13262 C 1265.96 4.07225 1.35889 0
M  V30 13263 C 1265.19 4.72381 2.48379 0
M  V30 13264 O 1265.42 4.36605 3.67059 0
M  V30 13265 O 1264.35 5.60933 2.18261 0
M  V30 13266 H 1268.18 3.03513 0.106507 0
M  V30 13267 H 1265.76 1.49394 -0.0133309 0
M  V30 13268 H 1267.64 3.36468 2.53708 0
M  V30 13269 H 1266.32 2.17721 2.39539 0
M  V30 13270 H 1265.22 3.68639 0.636881 0
M  V30 13271 H 1266.56 4.84676 0.857333 0
M  V30 13272 N 1268.21 -0.0283989 1.57574 0
M  V30 13273 C 1269.12 -1.04575 2.10003 0
M  V30 13274 C 1270.14 -1.39588 1.03881 0
M  V30 13275 O 1271.31 -1.48894 1.35619 0
M  V30 13276 C 1268.38 -2.32755 2.56955 0
M  V30 13277 C 1267.44 -2.04317 3.77562 0
M  V30 13278 C 1266.67 -3.26385 4.22266 0
M  V30 13279 O 1266.89 -4.37082 3.66491 0
M  V30 13280 O 1265.83 -3.12046 5.14695 0
M  V30 13281 H 1269.65 -0.630183 2.9709 0
M  V30 13282 H 1267.24 -0.245423 1.4737 0
M  V30 13283 H 1269.12 -3.08111 2.87482 0
M  V30 13284 H 1267.8 -2.73605 1.72979 0
M  V30 13285 H 1266.7 -1.26527 3.52054 0
M  V30 13286 H 1268.04 -1.68321 4.62524 0
M  V30 13287 N 1269.69 -1.54705 -0.300681 0
M  V30 13288 C 1270.65 -1.84934 -1.35395 0
M  V30 13289 C 1271.65 -0.72226 -1.43666 0
M  V30 13290 O 1272.84 -0.990543 -1.43296 0
M  V30 13291 C 1269.97 -2.02991 -2.73875 0
M  V30 13292 H 1271.17 -2.79063 -1.09835 0
M  V30 13293 H 1268.72 -1.46772 -0.537365 0
M  V30 13294 H 1269.45 -1.11151 -3.04657 0
M  V30 13295 H 1269.24 -2.85027 -2.69262 0
M  V30 13296 H 1270.73 -2.27747 -3.5003 0
M  V30 13297 N 1271.17 0.563888 -1.47167 0
M  V30 13298 C 1272.39 1.34693 -1.57052 0
M  V30 13299 C 1272.81 1.87534 -0.218308 0
M  V30 13300 O 1272.17 1.64639 0.787416 0
M  V30 13301 C 1272.22 2.52148 -2.59044 0
M  V30 13302 O 1271.94 2.01492 -3.89015 0
M  V30 13303 C 1273.44 3.4445 -2.7905 0
M  V30 13304 H 1270.66 0.410822 -0.530534 0
M  V30 13305 H 1273.2 0.683731 -1.92731 0
M  V30 13306 H 1271.36 3.14419 -2.26317 0
M  V30 13307 H 1271.77 2.78122 -4.44689 0
M  V30 13308 H 1273.25 4.23297 -3.54293 0
M  V30 13309 H 1273.72 3.97575 -1.86631 0
M  V30 13310 H 1274.33 2.88 -3.12948 0
M  V30 13311 N 1272.64 1.35187 0.810078 0
M  V30 13312 C 1273.89 1.28454 1.56931 0
M  V30 13313 C 1274.22 -0.141747 1.93682 0
M  V30 13314 O 1273.5 -1.09028 1.61069 0
M  V30 13315 C 1273.78 2.18771 2.86027 0
M  V30 13316 C 1273.63 3.69999 2.55774 0
M  V30 13317 C 1274.95 2.08265 3.87703 0
M  V30 13318 H 1272.07 0.467959 0.569371 0
M  V30 13319 H 1274.71 1.65556 0.932262 0
M  V30 13320 H 1272.86 1.8726 3.40391 0
M  V30 13321 H 1274.54 4.11936 2.07621 0
M  V30 13322 H 1272.78 3.90453 1.89021 0
M  V30 13323 H 1273.45 4.28577 3.47888 0
M  V30 13324 H 1275.93 2.35958 3.42729 0
M  V30 13325 H 1274.8 2.73663 4.75815 0
M  V30 13326 H 1275.06 1.06352 4.29117 0
M  V30 13327 N 1274.12 -1.03182 1.19127 0
M  V30 13328 C 1275.05 -2.13301 0.94999 0
M  V30 13329 C 1276.03 -1.69707 -0.115577 0
M  V30 13330 O 1277.22 -1.94161 0.0388395 0
M  V30 13331 C 1274.35 -3.43902 0.484637 0
M  V30 13332 C 1273.3 -4.01164 1.4917 0
M  V30 13333 C 1272.63 -5.2735 0.883537 0
M  V30 13334 C 1273.93 -4.36311 2.87107 0
M  V30 13335 H 1275.62 -2.33743 1.87095 0
M  V30 13336 H 1273.17 -1.12332 0.900977 0
M  V30 13337 H 1275.12 -4.20308 0.30315 0
M  V30 13338 H 1273.85 -3.23173 -0.471909 0
M  V30 13339 H 1272.5 -3.26849 1.66028 0
M  V30 13340 H 1272.15 -5.02936 -0.0804712 0
M  V30 13341 H 1271.85 -5.66624 1.55599 0
M  V30 13342 H 1273.38 -6.06425 0.71278 0
M  V30 13343 H 1274.79 -5.03666 2.73848 0
M  V30 13344 H 1273.19 -4.86659 3.51117 0
M  V30 13345 H 1274.26 -3.45743 3.39985 0
M  V30 13346 N 1275.6 -0.99472 -1.22242 0
M  V30 13347 C 1276.84 -0.679831 -1.92763 0
M  V30 13348 C 1277.2 0.774024 -1.75707 0
M  V30 13349 O 1278.41 1.20041 -2.40507 0
M  V30 13350 C 1276.68 -1.07685 -3.40791 0
M  V30 13351 S 1278.24 -0.880607 -4.29873 0
M  V30 13352 H 1275.05 -0.248508 -0.666157 0
M  V30 13353 H 1277.66 -1.27738 -1.47997 0
M  V30 13354 H 1276.36 -2.1313 -3.50719 0
M  V30 13355 H 1275.89 -0.471172 -3.90568 0
M  V30 13356 H 1277.91 0.227887 -4.95676 0
M  V30 13357 N 1277.08 1.37613 -0.768148 0
M  V30 13358 C 1278.32 2.00075 -0.331331 0
M  V30 13359 C 1278.66 1.60839 1.08833 0
M  V30 13360 O 1277.93 0.852849 1.74805 0
M  V30 13361 C 1278.22 3.57009 -0.470789 0
M  V30 13362 C 1278.07 4.06166 -1.9326 0
M  V30 13363 C 1279.39 4.39916 0.127111 0
M  V30 13364 H 1276.51 0.726855 -0.121864 0
M  V30 13365 H 1279.15 1.63343 -0.970518 0
M  V30 13366 H 1277.3 3.88431 0.0733688 0
M  V30 13367 H 1278.97 3.85325 -2.53618 0
M  V30 13368 H 1277.21 3.58492 -2.44266 0
M  V30 13369 H 1277.88 5.15219 -1.98125 0
M  V30 13370 H 1280.36 4.14732 -0.337144 0
M  V30 13371 H 1279.24 5.489 -0.000624226 0
M  V30 13372 H 1279.5 4.25018 1.21704 0
M  V30 13373 N 1278.56 0.518393 1.4883 0
M  V30 13374 C 1279.78 -0.0183131 2.07392 0
M  V30 13375 C 1280.21 -1.28468 1.37396 0
M  V30 13376 O 1279.56 -1.75975 0.436177 0
M  V30 13377 C 1279.61 -0.237211 3.59819 0
M  V30 13378 O 1278.72 -1.30835 3.91096 0
M  V30 13379 H 1278.06 0.0339621 0.663131 0
M  V30 13380 H 1280.59 0.722993 1.914 0
M  V30 13381 H 1280.6 -0.463424 4.0536 0
M  V30 13382 H 1279.27 0.687925 4.10171 0
M  V30 13383 H 1277.85 -1.06571 3.57347 0
M  V30 13384 N 1280.03 -1.55556 0.252993 0
M  V30 13385 C 1281.45 -1.59276 -0.101714 0
M  V30 13386 C 1281.65 -1.27018 -1.56424 0
M  V30 13387 O 1280.71 -1.02042 -2.30963 0
M  V30 13388 C 1282.02 -2.99634 0.252969 0
M  V30 13389 C 1283.57 -3.12375 0.197767 0
M  V30 13390 C 1284.04 -4.54963 0.52657 0
M  V30 13391 N 1285.53 -4.60734 0.477296 0
M  V30 13392 C 1286.27 -5.69052 0.704793 0
M  V30 13393 N 1285.76 -6.85607 0.99574 0
M  V30 13394 N 1287.56 -5.58501 0.635086 0
M  V30 13395 H 1279.71 -1.74793 1.2067 0
M  V30 13396 H 1281.97 -0.813971 0.485958 0
M  V30 13397 H 1281.68 -3.27998 1.26926 0
M  V30 13398 H 1281.55 -3.74888 -0.416984 0
M  V30 13399 H 1283.94 -2.83788 -0.809209 0
M  V30 13400 H 1284.02 -2.39382 0.901659 0
M  V30 13401 H 1283.66 -4.84271 1.53113 0
M  V30 13402 H 1283.59 -5.26224 -0.198869 0
M  V30 13403 H 1286.08 -3.76995 0.261398 0
M  V30 13404 H 1286.4 -7.64096 1.15659 0
M  V30 13405 H 1284.74 -6.87276 1.03328 0
M  V30 13406 H 1287.93 -4.6632 0.407789 0
M  V30 13407 H 1288.11 -6.42845 0.815777 0
M  V30 13408 N 1281.51 0.0200419 -1.57587 0
M  V30 13409 C 1282.44 1.01715 -2.10181 0
M  V30 13410 C 1283.42 1.37136 -1.00636 0
M  V30 13411 O 1284.61 1.45862 -1.2821 0
M  V30 13412 C 1281.74 2.31531 -2.58865 0
M  V30 13413 C 1280.69 2.10327 -3.72755 0
M  V30 13414 C 1280.02 3.45981 -4.07678 0
M  V30 13415 C 1281.32 1.4821 -5.0083 0
M  V30 13416 H 1283.01 0.579307 -2.93742 0
M  V30 13417 H 1280.56 0.277211 -1.41307 0
M  V30 13418 H 1282.51 3.01623 -2.94281 0
M  V30 13419 H 1281.24 2.77392 -1.72399 0
M  V30 13420 H 1279.89 1.42665 -3.37701 0
M  V30 13421 H 1279.54 3.89508 -3.18265 0
M  V30 13422 H 1279.24 3.32616 -4.84397 0
M  V30 13423 H 1280.77 4.17421 -4.45637 0
M  V30 13424 H 1282.18 2.08232 -5.34146 0
M  V30 13425 H 1280.58 1.45393 -5.82221 0
M  V30 13426 H 1281.65 0.448942 -4.82817 0
M  V30 13427 N 1282.99 1.54862 0.292472 0
M  V30 13428 C 1284.41 1.46267 0.638611 0
M  V30 13429 C 1284.61 0.660824 1.90356 0
M  V30 13430 O 1283.66 0.171909 2.51914 0
M  V30 13431 C 1284.98 2.90309 0.783675 0
M  V30 13432 C 1286.52 3.00404 0.879004 0
M  V30 13433 C 1287 4.4566 1.056 0
M  V30 13434 N 1288.49 4.49406 1.122 0
M  V30 13435 C 1289.22 5.5899 1.2774 0
M  V30 13436 N 1288.72 6.78482 1.40123 0
M  V30 13437 N 1290.51 5.46695 1.30696 0
M  V30 13438 H 1282.66 2.0546 -0.538521 0
M  V30 13439 H 1284.93 0.930879 -0.179354 0
M  V30 13440 H 1284.63 3.5162 -0.0750437 0
M  V30 13441 H 1284.51 3.38215 1.67004 0
M  V30 13442 H 1286.89 2.39201 1.7282 0
M  V30 13443 H 1286.98 2.55781 -0.0315624 0
M  V30 13444 H 1286.62 5.07459 0.211535 0
M  V30 13445 H 1286.55 4.87921 1.98092 0
M  V30 13446 H 1289.04 3.63322 1.03948 0
M  V30 13447 H 1289.35 7.57752 1.5176 0
M  V30 13448 H 1287.7 6.81331 1.37163 0
M  V30 13449 H 1290.89 4.52288 1.20638 0
M  V30 13450 H 1291.06 6.32146 1.42463 0
M  V30 13451 N 1284.47 -0.556076 1.47464 0
M  V30 13452 C 1285.7 -1.33664 1.57536 0
M  V30 13453 C 1286.11 -1.87858 0.224977 0
M  V30 13454 O 1285.45 -1.65746 -0.792091 0
M  V30 13455 C 1285.51 -2.54257 2.54152 0
M  V30 13456 C 1285.18 -2.21342 3.99821 0
M  V30 13457 C 1286.17 -1.78568 4.88272 0
M  V30 13458 C 1283.86 -2.32666 4.45165 0
M  V30 13459 C 1285.85 -1.47549 6.20087 0
M  V30 13460 C 1283.54 -2.0126 5.77008 0
M  V30 13461 C 1284.54 -1.58769 6.6429 0
M  V30 13462 O 1284.22 -1.27762 7.93683 0
M  V30 13463 H 1283.96 -0.413721 0.534613 0
M  V30 13464 H 1286.51 -0.680342 1.93805 0
M  V30 13465 H 1284.74 -3.22782 2.12952 0
M  V30 13466 H 1286.43 -3.16332 2.5434 0
M  V30 13467 H 1287.2 -1.69311 4.54487 0
M  V30 13468 H 1283.07 -2.64698 3.77433 0
M  V30 13469 H 1286.62 -1.1431 6.88171 0
M  V30 13470 H 1282.52 -2.10149 6.10334 0
M  V30 13471 H 1283.28 -1.41383 8.06197 0
M  V30 13472 N 1285.95 -1.35615 -0.802897 0
M  V30 13473 C 1286.91 -1.28705 -1.89651 0
M  V30 13474 C 1287.91 -0.197681 -1.5958 0
M  V30 13475 O 1289.1 -0.451618 -1.68244 0
M  V30 13476 C 1286.23 -0.991941 -3.26149 0
M  V30 13477 H 1287.43 -2.25951 -1.97196 0
M  V30 13478 H 1284.98 -1.20192 -0.999179 0
M  V30 13479 H 1285.71 -0.0235051 -3.24291 0
M  V30 13480 H 1285.5 -1.78013 -3.49362 0
M  V30 13481 H 1286.99 -0.969298 -4.06195 0
M  V30 13482 N 1287.43 1.02549 -1.19673 0
M  V30 13483 C 1288.37 2.109 -0.937536 0
M  V30 13484 C 1289.34 1.65599 0.128923 0
M  V30 13485 O 1290.53 1.90795 -0.0139366 0
M  V30 13486 C 1287.67 3.4166 -0.48602 0
M  V30 13487 C 1286.78 4.0049 -1.61963 0
M  V30 13488 C 1285.92 5.19273 -1.11931 0
M  V30 13489 C 1284.95 5.70166 -2.22659 0
M  V30 13490 N 1284.09 6.80221 -1.73909 0
M  V30 13491 H 1288.93 2.32408 -1.86523 0
M  V30 13492 H 1286.47 1.13982 -0.929869 0
M  V30 13493 H 1288.43 4.16693 -0.205614 0
M  V30 13494 H 1287.06 3.20253 0.404678 0
M  V30 13495 H 1286.11 3.22638 -2.01516 0
M  V30 13496 H 1287.42 4.34273 -2.45374 0
M  V30 13497 H 1286.57 6.01478 -0.794336 0
M  V30 13498 H 1285.31 4.87033 -0.254972 0
M  V30 13499 H 1284.32 4.86572 -2.55983 0
M  V30 13500 H 1285.54 6.04444 -3.09554 0
M  V30 13501 H 1283.49 6.49826 -0.897889 0
M  V30 13502 H 1283.41 7.13149 -2.50907 0
M  V30 13503 H 1284.67 7.66011 -1.44386 0
M  V30 13504 N 1288.9 1.00119 1.21713 0
M  V30 13505 C 1290.15 0.681723 1.9068 0
M  V30 13506 C 1290.48 -0.787121 1.77861 0
M  V30 13507 O 1289.73 -1.58573 1.14687 0
M  V30 13508 C 1290.03 1.04376 3.41819 0
M  V30 13509 C 1289.7 2.50624 3.74831 0
M  V30 13510 C 1288.36 2.90587 3.83552 0
M  V30 13511 C 1290.71 3.45377 3.90339 0
M  V30 13512 C 1288.04 4.24276 4.05225 0
M  V30 13513 C 1290.39 4.78734 4.13517 0
M  V30 13514 C 1289.06 5.18427 4.20464 0
M  V30 13515 H 1288.33 0.24946 0.697747 0
M  V30 13516 H 1290.97 1.25892 1.44304 0
M  V30 13517 H 1289.28 0.384756 3.89906 0
M  V30 13518 H 1290.98 0.774488 3.9345 0
M  V30 13519 H 1287.57 2.18651 3.68632 0
M  V30 13520 H 1291.75 3.15669 3.82971 0
M  V30 13521 H 1287.01 4.54605 4.08833 0
M  V30 13522 H 1291.18 5.52094 4.24459 0
M  V30 13523 H 1288.81 6.22034 4.3701 0
M  V30 13524 N 1290.38 -1.37203 0.775435 0
M  V30 13525 C 1291.63 -1.99207 0.340756 0
M  V30 13526 C 1291.95 -1.61861 -1.08747 0
M  V30 13527 O 1291.22 -0.88583 -1.74728 0
M  V30 13528 H 1289.8 -0.736803 0.123004 0
M  V30 13529 H 1292.46 -1.67625 0.994379 0
M  V30 13530 H 1291.56 -3.09243 0.421346 0
M  V30 13531 N 1291.86 -0.526279 -1.48553 0
M  V30 13532 C 1293.11 0.00914839 -2.02098 0
M  V30 13533 C 1293.43 1.35119 -1.40598 0
M  V30 13534 O 1292.7 1.87422 -0.570065 0
M  V30 13535 H 1291.28 0.00636935 -0.746973 0
M  V30 13536 H 1293.94 -0.689269 -1.82305 0
M  V30 13537 H 1293.04 0.120212 -3.11868 0
M  V30 13538 N 1293.34 1.5542 -0.261239 0
M  V30 13539 C 1294.58 1.99579 0.36002 0
M  V30 13540 C 1294.92 1.14933 1.56538 0
M  V30 13541 O 1294.19 0.216082 1.93296 0
M  V30 13542 C 1294.47 3.52078 0.755842 0
M  V30 13543 C 1294.33 4.47484 -0.455896 0
M  V30 13544 C 1295.65 4.10083 1.5975 0
M  V30 13545 H 1292.77 0.725554 0.129385 0
M  V30 13546 H 1295.41 1.86453 -0.365415 0
M  V30 13547 H 1293.56 3.63394 1.37393 0
M  V30 13548 H 1295.23 4.4813 -1.09441 0
M  V30 13549 H 1293.47 4.19714 -1.09646 0
M  V30 13550 H 1294.14 5.51834 -0.13539 0
M  V30 13551 H 1296.62 4.01957 1.07562 0
M  V30 13552 H 1295.5 5.17024 1.84329 0
M  V30 13553 H 1295.76 3.59438 2.57404 0
M  V30 13554 N 1294.82 -0.0116844 1.57596 0
M  V30 13555 C 1295.77 -1.01509 2.04157 0
M  V30 13556 C 1296.75 -1.31011 0.934076 0
M  V30 13557 O 1297.94 -1.30305 1.1979 0
M  V30 13558 C 1295.07 -2.31081 2.53883 0
M  V30 13559 C 1294.16 -2.04594 3.71486 0
M  V30 13560 N 1294.55 -1.48224 4.83594 0
M  V30 13561 C 1292.85 -2.34795 3.79193 0
M  V30 13562 C 1293.55 -1.37941 5.65108 0
M  V30 13563 N 1292.52 -1.861 5.10752 0
M  V30 13564 H 1296.32 -0.573556 2.88249 0
M  V30 13565 H 1293.84 -0.217632 1.60935 0
M  V30 13566 H 1295.84 -3.03793 2.85509 0
M  V30 13567 H 1294.5 -2.75897 1.71204 0
M  V30 13568 H 1295.51 -1.16261 5.04682 0
M  V30 13569 H 1292.18 -2.82566 3.07348 0
M  V30 13570 H 1293.57 -0.946997 6.65193 0
M  V30 13571 N 1296.29 -1.55015 -0.284256 0
M  V30 13572 C 1297.22 -1.90128 -1.3555 0
M  V30 13573 C 1298.2 -0.761914 -1.52082 0
M  V30 13574 O 1299.39 -1.01909 -1.65312 0
M  V30 13575 C 1296.52 -2.16332 -2.71695 0
M  V30 13576 C 1295.47 -3.32166 -2.69907 0
M  V30 13577 C 1294.8 -3.43824 -4.09498 0
M  V30 13578 C 1296.1 -4.6885 -2.30168 0
M  V30 13579 H 1297.79 -2.79852 -1.06411 0
M  V30 13580 H 1295.34 -1.34649 -0.510451 0
M  V30 13581 H 1297.29 -2.39482 -3.46737 0
M  V30 13582 H 1296.02 -1.23395 -3.02392 0
M  V30 13583 H 1294.68 -3.08965 -1.97322 0
M  V30 13584 H 1294.32 -2.48375 -4.374 0
M  V30 13585 H 1294.02 -4.21698 -4.092 0
M  V30 13586 H 1295.55 -3.69254 -4.86296 0
M  V30 13587 H 1296.96 -4.91619 -2.9493 0
M  V30 13588 H 1295.36 -5.49558 -2.41052 0
M  V30 13589 H 1296.43 -4.68433 -1.25294 0
M  V30 13590 N 1297.77 0.548248 -1.47757 0
M  V30 13591 C 1298.73 1.63666 -1.60456 0
M  V30 13592 C 1299.73 1.53499 -0.479028 0
M  V30 13593 O 1300.92 1.57497 -0.744342 0
M  V30 13594 C 1298.06 3.03239 -1.55754 0
M  V30 13595 H 1299.25 1.53752 -2.57488 0
M  V30 13596 H 1296.8 0.768881 -1.36081 0
M  V30 13597 H 1297.54 3.18677 -0.601303 0
M  V30 13598 H 1297.32 3.12027 -2.37448 0
M  V30 13599 H 1298.81 3.82406 -1.67797 0
M  V30 13600 N 1299.25 1.36039 0.795694 0
M  V30 13601 C 1300.18 1.32528 1.92246 0
M  V30 13602 C 1301.16 0.197805 1.68946 0
M  V30 13603 O 1302.35 0.394474 1.90151 0
M  V30 13604 C 1299.48 1.10748 3.29169 0
M  V30 13605 C 1298.43 2.20253 3.66978 0
M  V30 13606 C 1297.76 1.83624 5.02181 0
M  V30 13607 C 1299.06 3.62296 3.76216 0
M  V30 13608 H 1300.75 2.2681 1.95442 0
M  V30 13609 H 1298.3 1.09181 0.938908 0
M  V30 13610 H 1300.25 1.06929 4.07608 0
M  V30 13611 H 1298.97 0.129141 3.26345 0
M  V30 13612 H 1297.63 2.23187 2.90832 0
M  V30 13613 H 1297.28 0.843804 4.95872 0
M  V30 13614 H 1296.98 2.56935 5.28449 0
M  V30 13615 H 1298.5 1.81349 5.83048 0
M  V30 13616 H 1299.92 3.61623 4.44861 0
M  V30 13617 H 1298.31 4.34459 4.13963 0
M  V30 13618 H 1299.38 3.97657 2.77483 0
M  V30 13619 N 1300.73 -1.01913 1.20215 0
M  V30 13620 C 1301.66 -2.12282 0.97256 0
M  V30 13621 C 1302.64 -1.6982 -0.0975709 0
M  V30 13622 O 1303.82 -1.94109 0.0594307 0
M  V30 13623 C 1300.95 -3.43369 0.521085 0
M  V30 13624 C 1299.91 -3.99559 1.53417 0
M  V30 13625 C 1299.23 -5.26383 0.93942 0
M  V30 13626 C 1300.53 -4.33241 2.91718 0
M  V30 13627 H 1302.23 -2.31746 1.89563 0
M  V30 13628 H 1299.77 -1.1137 0.912841 0
M  V30 13629 H 1301.73 -4.19963 0.347713 0
M  V30 13630 H 1300.45 -3.23655 -0.437605 0
M  V30 13631 H 1299.11 -3.25069 1.69486 0
M  V30 13632 H 1298.76 -5.02993 -0.0271236 0
M  V30 13633 H 1298.46 -5.64942 1.616 0
M  V30 13634 H 1299.98 -6.05635 0.777059 0
M  V30 13635 H 1301.4 -5.00734 2.79175 0
M  V30 13636 H 1299.79 -4.82907 3.56259 0
M  V30 13637 H 1300.86 -3.42118 3.43633 0
M  V30 13638 N 1302.21 -1.00763 -1.2118 0
M  V30 13639 C 1303.62 -0.724746 -1.72059 0
M  V30 13640 C 1303.97 0.757413 -1.80991 0
M  V30 13641 O 1303.09 1.59152 -1.46627 0
M  V30 13642 C 1303.69 -1.30893 -3.12494 0
M  V30 13643 C 1302.25 -1.07511 -3.60719 0
M  V30 13644 C 1301.39 -1.42014 -2.38175 0
M  V30 13645 H 1304.35 -1.17821 -1.0632 0
M  V30 13646 H 1304.37 -0.694919 -3.741 0
M  V30 13647 H 1303.88 -2.38767 -3.05961 0
M  V30 13648 H 1301.98 -0.0136518 -3.72597 0
M  V30 13649 H 1302.09 -1.74885 -4.4604 0
M  V30 13650 H 1300.46 -0.838972 -2.40486 0
M  V30 13651 H 1301.24 -2.50924 -2.34291 0
M  V30 13652 N 1303.68 1.3679 -0.7827 0
M  V30 13653 C 1305.1 1.82006 -0.41603 0
M  V30 13654 C 1305.45 1.65151 1.05922 0
M  V30 13655 O 1304.57 1.1687 1.82127 0
M  V30 13656 C 1305.17 3.30432 -0.748353 0
M  V30 13657 C 1303.73 3.73883 -0.4346 0
M  V30 13658 C 1302.87 2.59159 -0.986505 0
M  V30 13659 H 1305.82 1.25107 -0.976423 0
M  V30 13660 H 1305.84 3.80482 -0.036985 0
M  V30 13661 H 1305.36 3.42667 -1.82212 0
M  V30 13662 H 1303.46 3.67211 0.631401 0
M  V30 13663 H 1303.57 4.69577 -0.950511 0
M  V30 13664 H 1301.93 2.51377 -0.410108 0
M  V30 13665 H 1302.72 2.74182 -2.06589 0
M  V30 13666 N 1305.16 0.53415 1.48272 0
M  V30 13667 C 1306.41 0.00156948 2.021 0
M  V30 13668 C 1306.73 -1.34371 1.41313 0
M  V30 13669 O 1306 -1.87117 0.579996 0
M  V30 13670 H 1304.58 -0.00240789 0.746996 0
M  V30 13671 H 1307.24 0.698928 1.81937 0
M  V30 13672 H 1306.34 -0.103671 3.11928 0
M  V30 13673 N 1306.64 -1.55279 0.269478 0
M  V30 13674 C 1307.59 -2.23723 -0.636468 0
M  V30 13675 C 1308.58 -1.23234 -1.16232 0
M  V30 13676 O 1309.79 -1.41181 -1.1166 0
M  V30 13677 H 1306.16 -0.71793 -0.223788 0
M  V30 13678 H 1308.13 -2.98378 -0.0363057 0
M  V30 13679 C 1306.88 -2.96755 -1.81195 0
M  V30 13680 H 1306.21 -3.73865 -1.4165 0
M  V30 13681 H 1307.65 -3.47975 -2.42258 0
M  V30 13682 C 1306.11 -2.01905 -2.69696 0
M  V30 13683 O 1306.64 -1.56662 -3.69892 0
M  V30 13684 N 1304.84 -1.68524 -2.36744 0
M  V30 13685 H 1304.39 -2.05512 -1.55314 0
M  V30 13686 H 1304.35 -1.05331 -2.96231 0
M  V30 13687 N 1308.12 0.00332656 -1.576 0
M  V30 13688 C 1309.35 0.69893 -1.94418 0
M  V30 13689 C 1309.76 1.68021 -0.8698 0
M  V30 13690 O 1309.1 1.83 0.160193 0
M  V30 13691 C 1309.16 1.4892 -3.27205 0
M  V30 13692 C 1308.83 0.669874 -4.52064 0
M  V30 13693 C 1309.82 -0.0410157 -5.19884 0
M  V30 13694 C 1307.51 0.616824 -4.98498 0
M  V30 13695 C 1309.5 -0.793976 -6.32436 0
M  V30 13696 C 1307.19 -0.139864 -6.1094 0
M  V30 13697 C 1308.19 -0.844001 -6.77765 0
M  V30 13698 O 1307.87 -1.58835 -7.88052 0
M  V30 13699 H 1307.61 0.199843 -0.645785 0
M  V30 13700 H 1310.16 -0.0429034 -2.05355 0
M  V30 13701 H 1308.39 2.27544 -3.12667 0
M  V30 13702 H 1310.08 2.06983 -3.4916 0
M  V30 13703 H 1310.85 -0.00916281 -4.84999 0
M  V30 13704 H 1306.72 1.15442 -4.46312 0
M  V30 13705 H 1310.27 -1.34411 -6.84529 0
M  V30 13706 H 1306.17 -0.173549 -6.45267 0
M  V30 13707 H 1306.93 -1.50471 -8.0455 0
M  V30 13708 N 1309.6 1.55164 0.276031 0
M  V30 13709 C 1310.82 1.7998 1.03063 0
M  V30 13710 C 1311.25 0.569769 1.79263 0
M  V30 13711 O 1310.6 -0.48054 1.74816 0
M  V30 13712 C 1310.65 3.02209 1.96728 0
M  V30 13713 O 1309.76 2.77083 3.05449 0
M  V30 13714 H 1309.1 0.594963 0.294814 0
M  V30 13715 H 1311.63 2.02301 0.305861 0
M  V30 13716 H 1311.64 3.3086 2.38738 0
M  V30 13717 H 1310.31 3.91386 1.40677 0
M  V30 13718 H 1308.89 2.5952 2.67776 0
M  V30 13719 N 1311.07 -0.540404 1.48045 0
M  V30 13720 C 1312.04 -1.62813 1.61322 0
M  V30 13721 C 1313.04 -1.53243 0.487161 0
M  V30 13722 O 1314.23 -1.571 0.752684 0
M  V30 13723 C 1311.36 -3.02408 1.5736 0
M  V30 13724 H 1312.55 -1.52385 2.583 0
M  V30 13725 H 1310.11 -0.761654 1.36486 0
M  V30 13726 H 1310.84 -3.18353 0.618195 0
M  V30 13727 H 1310.63 -3.10763 2.39099 0
M  V30 13728 H 1312.12 -3.8151 1.69822 0
M  V30 13729 N 1312.55 -1.36459 -0.788468 0
M  V30 13730 C 1313.97 -1.16893 -1.08666 0
M  V30 13731 C 1314.17 0.00633808 -2.01499 0
M  V30 13732 O 1313.22 0.671417 -2.4341 0
M  V30 13733 C 1314.54 -2.48018 -1.70022 0
M  V30 13734 C 1316.09 -2.5439 -1.82358 0
M  V30 13735 C 1316.56 -3.85605 -2.47129 0
M  V30 13736 N 1318.05 -3.86956 -2.54597 0
M  V30 13737 C 1318.79 -4.85224 -3.05525 0
M  V30 13738 N 1318.28 -5.93885 -3.56753 0
M  V30 13739 N 1320.08 -4.72643 -3.04246 0
M  V30 13740 H 1312.23 -2.11705 -0.171733 0
M  V30 13741 H 1314.49 -0.937784 -0.1388 0
M  V30 13742 H 1314.2 -3.34292 -1.09277 0
M  V30 13743 H 1314.07 -2.63894 -2.69518 0
M  V30 13744 H 1316.46 -1.68534 -2.4224 0
M  V30 13745 H 1316.54 -2.42414 -0.816651 0
M  V30 13746 H 1316.18 -4.71868 -1.87891 0
M  V30 13747 H 1316.11 -3.94878 -3.48395 0
M  V30 13748 H 1318.6 -3.08453 -2.18323 0
M  V30 13749 H 1318.92 -6.64839 -3.93966 0
M  V30 13750 H 1317.26 -5.97553 -3.54902 0
M  V30 13751 H 1320.45 -3.86883 -2.63513 0
M  V30 13752 H 1320.62 -5.49385 -3.43627 0
M  V30 13753 N 1314.03 1.01274 -1.20754 0
M  V30 13754 C 1315.28 1.75191 -1.02156 0
M  V30 13755 C 1315.61 1.89038 0.444791 0
M  V30 13756 O 1314.88 1.41903 1.33018 0
M  V30 13757 C 1315.17 3.16892 -1.71031 0
M  V30 13758 C 1315.02 3.10816 -3.25136 0
M  V30 13759 C 1316.34 4.15648 -1.44654 0
M  V30 13760 H 1313.46 0.635922 -0.372521 0
M  V30 13761 H 1316.1 1.18119 -1.48822 0
M  V30 13762 H 1314.25 3.6562 -1.31357 0
M  V30 13763 H 1315.92 2.69863 -3.74128 0
M  V30 13764 H 1314.17 2.48113 -3.5584 0
M  V30 13765 H 1314.84 4.11001 -3.68487 0
M  V30 13766 H 1317.31 3.75592 -1.7908 0
M  V30 13767 H 1316.19 5.12954 -1.95371 0
M  V30 13768 H 1316.45 4.40507 -0.37494 0
M  V30 13769 N 1315.51 1.01404 1.20644 0
M  V30 13770 C 1316.93 0.728446 1.42006 0
M  V30 13771 C 1317.13 -0.692894 1.89212 0
M  V30 13772 O 1316.18 -1.46101 2.05939 0
M  V30 13773 C 1317.49 1.75198 2.44389 0
M  V30 13774 C 1319.04 1.76983 2.58159 0
M  V30 13775 C 1319.52 2.78256 3.63782 0
M  V30 13776 N 1321.01 2.7698 3.71263 0
M  V30 13777 C 1321.74 3.51999 4.52641 0
M  V30 13778 N 1321.24 4.36687 5.37844 0
M  V30 13779 N 1323.03 3.40608 4.47149 0
M  V30 13780 H 1315.18 1.93168 0.883172 0
M  V30 13781 H 1317.45 0.834287 0.450187 0
M  V30 13782 H 1317.15 2.77013 2.16695 0
M  V30 13783 H 1317.03 1.56203 3.43337 0
M  V30 13784 H 1319.41 0.758551 2.85184 0
M  V30 13785 H 1319.49 2.00051 1.59415 0
M  V30 13786 H 1319.14 3.79546 3.37501 0
M  V30 13787 H 1319.07 2.5245 4.62143 0
M  V30 13788 H 1321.56 2.15546 3.104 0
M  V30 13789 H 1321.87 4.90703 5.97018 0
M  V30 13790 H 1320.22 4.40766 5.37355 0
M  V30 13791 H 1323.41 2.73872 3.79621 0
M  V30 13792 H 1323.58 3.99327 5.10335 0
M  V30 13793 N 1316.99 -1.36373 0.789944 0
M  V30 13794 C 1317.95 -2.28372 0.194639 0
M  V30 13795 C 1318.95 -1.48849 -0.608332 0
M  V30 13796 O 1320.14 -1.68829 -0.42925 0
M  V30 13797 C 1317.27 -3.3298 -0.730553 0
M  V30 13798 H 1318.47 -2.82529 1.00585 0
M  V30 13799 H 1316.02 -1.45946 0.559406 0
M  V30 13800 H 1316.75 -2.8398 -1.56608 0
M  V30 13801 H 1316.54 -3.91787 -0.156706 0
M  V30 13802 H 1318.03 -4.01684 -1.14192 0
M  V30 13803 N 1318.47 -0.542005 -1.47987 0
M  V30 13804 C 1319.69 -0.016717 -2.06893 0
M  V30 13805 C 1320.11 1.27015 -1.39687 0
M  V30 13806 O 1319.47 1.75845 -0.488326 0
M  V30 13807 C 1319.52 0.198437 -3.60955 0
M  V30 13808 O 1319.24 -1.03746 -4.25639 0
M  V30 13809 C 1320.74 0.762741 -4.36689 0
M  V30 13810 H 1317.96 -0.0389497 -0.669869 0
M  V30 13811 H 1320.5 -0.751082 -1.90208 0
M  V30 13812 H 1318.66 0.882884 -3.77205 0
M  V30 13813 H 1319.07 -0.82568 -5.1796 0
M  V30 13814 H 1320.55 0.862649 -5.45218 0
M  V30 13815 H 1321.02 1.77049 -4.01933 0
M  V30 13816 H 1321.63 0.114478 -4.25146 0
M  V30 13817 N 1319.94 1.55134 -0.277709 0
M  V30 13818 C 1321.17 2.04519 0.344472 0
M  V30 13819 C 1321.59 1.15466 1.4849 0
M  V30 13820 O 1320.95 0.153798 1.80646 0
M  V30 13821 C 1321 3.51602 0.800527 0
M  V30 13822 O 1320.1 3.65632 1.90754 0
M  V30 13823 H 1319.44 0.660212 0.0708226 0
M  V30 13824 H 1321.97 2.00393 -0.412764 0
M  V30 13825 H 1321.98 3.93015 1.09559 0
M  V30 13826 H 1320.66 4.15886 -0.033838 0
M  V30 13827 H 1319.24 3.36122 1.61481 0
M  V30 13828 N 1321.42 0.00503138 1.57599 0
M  V30 13829 C 1322.35 -0.983586 2.11773 0
M  V30 13830 C 1323.33 -1.35518 1.02805 0
M  V30 13831 O 1324.52 -1.43804 1.30514 0
M  V30 13832 C 1321.65 -2.27383 2.62515 0
M  V30 13833 C 1320.6 -2.0437 3.76054 0
M  V30 13834 C 1319.93 -3.39451 4.1313 0
M  V30 13835 C 1321.23 -1.40223 5.03125 0
M  V30 13836 H 1322.92 -0.532501 2.94627 0
M  V30 13837 H 1320.47 -0.254696 1.4173 0
M  V30 13838 H 1322.42 -2.96903 2.99043 0
M  V30 13839 H 1321.14 -2.74614 1.7679 0
M  V30 13840 H 1319.8 -1.37275 3.39928 0
M  V30 13841 H 1319.45 -3.84395 3.24422 0
M  V30 13842 H 1319.15 -3.24868 4.89627 0
M  V30 13843 H 1320.68 -4.10279 4.52221 0
M  V30 13844 H 1322.09 -1.99708 5.37392 0
M  V30 13845 H 1320.49 -1.36112 5.8446 0
M  V30 13846 H 1321.56 -0.372073 4.8347 0
M  V30 13847 N 1322.9 -1.55308 -0.267798 0
M  V30 13848 C 1323.86 -1.87765 -1.31442 0
M  V30 13849 C 1324.86 -0.752571 -1.42102 0
M  V30 13850 O 1326.05 -1.02072 -1.41163 0
M  V30 13851 C 1323.18 -2.08754 -2.69508 0
M  V30 13852 H 1324.38 -2.8133 -1.03891 0
M  V30 13853 H 1321.93 -1.47879 -0.506111 0
M  V30 13854 H 1322.67 -1.17588 -3.02231 0
M  V30 13855 H 1322.45 -2.90674 -2.63156 0
M  V30 13856 H 1323.94 -2.3512 -3.4512 0
M  V30 13857 N 1324.38 0.532545 -1.4833 0
M  V30 13858 C 1325.63 1.28597 -1.55908 0
M  V30 13859 C 1325.95 1.93595 -0.233635 0
M  V30 13860 O 1325.22 1.81197 0.744605 0
M  V30 13861 H 1323.8 0.477619 -0.57436 0
M  V30 13862 H 1326.46 0.619922 -1.84778 0
M  V30 13863 H 1325.55 2.0666 -2.33877 0
M  V30 13864 N 1325.86 1.36875 0.78122 0
M  V30 13865 C 1326.8 1.31941 1.91557 0
M  V30 13866 C 1327.8 0.209783 1.68096 0
M  V30 13867 O 1329 0.377266 1.76002 0
M  V30 13868 H 1325.38 0.410955 0.629778 0
M  V30 13869 H 1327.35 2.27721 1.92836 0
M  V30 13870 C 1326.1 1.13379 3.28695 0
M  V30 13871 H 1325.42 1.98013 3.47319 0
M  V30 13872 H 1326.86 1.13976 4.08394 0
M  V30 13873 C 1325.32 -0.161119 3.36515 0
M  V30 13874 O 1325.85 -1.14806 3.84945 0
M  V30 13875 N 1324.06 -0.208594 2.8985 0
M  V30 13876 H 1323.6 0.595187 2.5063 0
M  V30 13877 H 1323.56 -1.07465 2.95463 0
M  V30 13878 N 1327.33 -1.00632 1.21289 0
M  V30 13879 C 1328.58 -1.74044 1.02728 0
M  V30 13880 C 1328.9 -1.89963 -0.440351 0
M  V30 13881 O 1328.17 -1.44958 -1.31772 0
M  V30 13882 H 1326.75 -0.644813 0.377127 0
M  V30 13883 H 1329.41 -1.21272 1.52575 0
M  V30 13884 H 1328.51 -2.74011 1.49413 0
M  V30 13885 N 1328.81 -1.02043 -1.20104 0
M  V30 13886 C 1330.04 -0.731142 -1.94085 0
M  V30 13887 C 1330.46 0.702467 -1.74491 0
M  V30 13888 O 1329.82 1.48387 -1.04168 0
M  V30 13889 C 1329.87 -1.07691 -3.44144 0
M  V30 13890 O 1328.97 -0.190751 -4.11959 0
M  V30 13891 H 1328.31 -0.270917 -0.606218 0
M  V30 13892 H 1330.84 -1.36483 -1.52426 0
M  V30 13893 H 1330.85 -1.03023 -3.94779 0
M  V30 13894 H 1329.53 -2.1214 -3.57728 0
M  V30 13895 H 1328.1 -0.29529 -3.71729 0
M  V30 13896 N 1330.29 1.35952 -0.797165 0
M  V30 13897 C 1331.54 1.99765 -0.382794 0
M  V30 13898 C 1331.89 1.62119 1.0361 0
M  V30 13899 O 1331.18 0.869648 1.70727 0
M  V30 13900 C 1331.38 3.53986 -0.492805 0
M  V30 13901 C 1331.21 4.06612 -1.92085 0
M  V30 13902 C 1329.98 4.36403 -2.54716 0
M  V30 13903 C 1332.18 4.25823 -2.88409 0
M  V30 13904 N 1330.16 4.749 -3.89028 0
M  V30 13905 C 1331.53 4.67211 -4.07571 0
M  V30 13906 C 1333.58 4.0801 -2.85364 0
M  V30 13907 C 1332.29 4.9265 -5.24107 0
M  V30 13908 C 1334.31 4.346 -4.01095 0
M  V30 13909 C 1333.67 4.76252 -5.19003 0
M  V30 13910 H 1329.77 0.759152 -0.18765 0
M  V30 13911 H 1332.36 1.64823 -1.03641 0
M  V30 13912 H 1330.53 3.8818 0.130762 0
M  V30 13913 H 1332.26 4.04664 -0.0539319 0
M  V30 13914 H 1329.02 4.26384 -2.06139 0
M  V30 13915 H 1329.44 4.98422 -4.58154 0
M  V30 13916 H 1334.08 3.74958 -1.95363 0
M  V30 13917 H 1331.8 5.2458 -6.14688 0
M  V30 13918 H 1335.39 4.2238 -4.00108 0
M  V30 13919 H 1334.27 4.96427 -6.07066 0
M  V30 13920 N 1331.77 0.549846 1.47697 0
M  V30 13921 C 1333 0.0276889 2.06881 0
M  V30 13922 C 1333.41 -1.26273 1.40359 0
M  V30 13923 O 1332.77 -1.75584 0.497644 0
M  V30 13924 C 1332.82 -0.179291 3.61055 0
M  V30 13925 O 1332.54 1.06002 4.25083 0
M  V30 13926 C 1334.04 -0.739571 4.37087 0
M  V30 13927 H 1331.26 0.0425016 0.669653 0
M  V30 13928 H 1333.81 0.761158 1.89807 0
M  V30 13929 H 1331.96 -0.862867 3.77668 0
M  V30 13930 H 1332.37 0.853137 5.17515 0
M  V30 13931 H 1333.85 -0.833722 5.45668 0
M  V30 13932 H 1334.33 -1.74915 4.02867 0
M  V30 13933 H 1334.93 -0.0919294 4.25201 0
M  V30 13934 N 1333.25 -1.54984 0.285932 0
M  V30 13935 C 1334.52 -1.91872 -0.380083 0
M  V30 13936 C 1334.9 -1.21146 -1.72878 0
M  V30 13937 O 1334.25 -0.341999 -2.25926 0
M  V30 13938 C 1334.46 -3.45258 -0.509667 0
M  V30 13939 C 1335.81 -4.17232 -0.787549 0
M  V30 13940 O 1336.83 -3.51211 -0.594062 0
M  V30 13941 O 1335.69 -5.34085 -1.15826 0
M  V30 13942 H 1332.79 -0.799931 -0.209856 0
M  V30 13943 H 1335.33 -1.66403 0.332882 0
M  V30 13944 H 1334.1 -3.88829 0.439049 0
M  V30 13945 H 1333.73 -3.76715 -1.27168 0
M  V30 13946 N 1334.72 -0.0133892 -1.57594 0
M  V30 13947 C 1335.95 0.682855 -1.95836 0
M  V30 13948 C 1336.37 1.65763 -0.889049 0
M  V30 13949 O 1335.73 1.80665 0.151585 0
M  V30 13950 C 1335.78 1.37931 -3.33178 0
M  V30 13951 O 1334.88 2.49416 -3.28429 0
M  V30 13952 H 1334.23 0.180629 -0.638959 0
M  V30 13953 H 1336.76 -0.0705644 -2.04478 0
M  V30 13954 H 1336.77 1.73969 -3.69051 0
M  V30 13955 H 1335.44 0.664675 -4.10554 0
M  V30 13956 H 1334.02 2.15606 -3.04251 0
M  V30 13957 N 1336.2 1.55448 0.259558 0
M  V30 13958 C 1337.45 1.76948 0.990816 0
M  V30 13959 C 1337.78 0.576401 1.85449 0
M  V30 13960 O 1337.06 -0.425693 1.89784 0
M  V30 13961 C 1337.34 3.08221 1.86204 0
M  V30 13962 C 1337.19 4.37909 1.0274 0
M  V30 13963 C 1338.51 3.35627 2.84679 0
M  V30 13964 H 1335.63 0.64377 0.358788 0
M  V30 13965 H 1338.27 1.88182 0.262211 0
M  V30 13966 H 1336.42 2.98775 2.48326 0
M  V30 13967 H 1338.09 4.5933 0.425855 0
M  V30 13968 H 1336.34 4.32533 0.331308 0
M  V30 13969 H 1337.01 5.26116 1.6705 0
M  V30 13970 H 1339.48 3.44954 2.32693 0
M  V30 13971 H 1338.36 4.28719 3.42769 0
M  V30 13972 H 1338.62 2.55921 3.60496 0
M  V30 13973 N 1337.68 -0.524672 1.4861 0
M  V30 13974 C 1338.64 -1.61092 1.63039 0
M  V30 13975 C 1339.64 -1.52718 0.503387 0
M  V30 13976 O 1340.83 -1.56293 0.769304 0
M  V30 13977 C 1337.97 -3.00722 1.60558 0
M  V30 13978 H 1339.16 -1.49636 2.59902 0
M  V30 13979 H 1336.71 -0.747135 1.37287 0
M  V30 13980 H 1337.45 -3.1768 0.651926 0
M  V30 13981 H 1337.23 -3.0821 2.42382 0
M  V30 13982 H 1338.72 -3.79688 1.73859 0
M  V30 13983 N 1339.16 -1.37287 -0.77395 0
M  V30 13984 C 1340.41 -1.32374 -1.53243 0
M  V30 13985 C 1340.73 0.0924284 -1.9428 0
M  V30 13986 O 1339.99 1.06517 -1.64173 0
M  V30 13987 C 1340.29 -2.20667 -2.81142 0
M  V30 13988 C 1339.95 -3.68975 -2.59168 0
M  V30 13989 C 1338.62 -4.09394 -2.52884 0
M  V30 13990 C 1340.97 -4.62941 -2.39447 0
M  V30 13991 C 1338.3 -5.41897 -2.24865 0
M  V30 13992 C 1340.65 -5.9568 -2.12952 0
M  V30 13993 C 1339.31 -6.35205 -2.05111 0
M  V30 13994 H 1338.58 -0.48439 -0.560756 0
M  V30 13995 H 1341.23 -1.69475 -0.891663 0
M  V30 13996 H 1339.53 -1.76553 -3.49766 0
M  V30 13997 H 1341.23 -2.1418 -3.3901 0
M  V30 13998 H 1337.82 -3.36919 -2.64922 0
M  V30 13999 H 1342 -4.32576 -2.43293 0
M  V30 14000 H 1337.26 -5.71486 -2.17288 0
M  V30 14001 H 1341.43 -6.68046 -1.9669 0
M  V30 14002 H 1339.06 -7.37804 -1.83163 0
M  V30 14003 N 1340.64 0.999871 -1.21821 0
M  V30 14004 C 1341.87 1.77148 -1.06312 0
M  V30 14005 C 1342.27 1.85142 0.389747 0
M  V30 14006 O 1341.62 1.31562 1.28207 0
M  V30 14007 C 1341.68 3.22367 -1.59122 0
M  V30 14008 C 1341.34 3.37937 -3.07649 0
M  V30 14009 C 1342.34 3.25808 -4.05148 0
M  V30 14010 C 1340.03 3.63213 -3.46961 0
M  V30 14011 C 1342.02 3.38729 -5.39946 0
M  V30 14012 C 1339.71 3.75775 -4.81909 0
M  V30 14013 C 1340.7 3.6354 -5.78211 0
M  V30 14014 O 1340.39 3.75694 -7.1071 0
M  V30 14015 H 1340.12 0.563396 -0.373578 0
M  V30 14016 H 1342.68 1.26627 -1.61724 0
M  V30 14017 H 1340.91 3.74047 -0.98111 0
M  V30 14018 H 1342.6 3.81219 -1.39379 0
M  V30 14019 H 1343.36 3.062 -3.76121 0
M  V30 14020 H 1339.24 3.71816 -2.72533 0
M  V30 14021 H 1342.79 3.29096 -6.15095 0
M  V30 14022 H 1338.68 3.94889 -5.1062 0
M  V30 14023 H 1339.45 3.9261 -7.18192 0
M  V30 14024 N 1342.11 1.02678 1.19562 0
M  V30 14025 C 1343.36 0.717279 1.88515 0
M  V30 14026 C 1343.68 -0.757063 1.80355 0
M  V30 14027 O 1344.88 -1.17953 2.44539 0
M  V30 14028 C 1343.34 1.23265 3.38133 0
M  V30 14029 C 1342.95 2.73462 3.54856 0
M  V30 14030 C 1344.69 0.99904 4.12577 0
M  V30 14031 C 1342.6 3.18428 4.98355 0
M  V30 14032 H 1341.53 0.264608 0.706044 0
M  V30 14033 H 1344.18 1.2408 1.3519 0
M  V30 14034 H 1342.56 0.637052 3.90842 0
M  V30 14035 H 1343.73 3.38659 3.12485 0
M  V30 14036 H 1342.05 2.95079 2.93798 0
M  V30 14037 H 1344.65 1.3103 5.18397 0
M  V30 14038 H 1344.99 -0.064217 4.1625 0
M  V30 14039 H 1345.52 1.55853 3.65998 0
M  V30 14040 H 1342.26 4.24074 4.99842 0
M  V30 14041 H 1341.78 2.57958 5.41496 0
M  V30 14042 H 1343.46 3.11649 5.66996 0
M  V30 14043 N 1343.59 -1.35528 0.804364 0
M  V30 14044 C 1344.52 -2.32388 0.227604 0
M  V30 14045 C 1345.5 -1.57368 -0.645709 0
M  V30 14046 O 1346.69 -1.85448 -0.576441 0
M  V30 14047 C 1343.82 -3.41603 -0.62645 0
M  V30 14048 C 1342.77 -4.27743 0.148187 0
M  V30 14049 C 1342.1 -5.28259 -0.827425 0
M  V30 14050 C 1343.4 -5.04661 1.34591 0
M  V30 14051 H 1345.09 -2.80874 1.03684 0
M  V30 14052 H 1342.64 -1.3504 0.500031 0
M  V30 14053 H 1344.59 -4.08365 -1.03999 0
M  V30 14054 H 1343.32 -2.91721 -1.46855 0
M  V30 14055 H 1341.97 -3.62558 0.542874 0
M  V30 14056 H 1341.62 -4.74645 -1.66496 0
M  V30 14057 H 1341.32 -5.86763 -0.313453 0
M  V30 14058 H 1342.85 -5.97893 -1.23921 0
M  V30 14059 H 1344.26 -5.6438 1.00736 0
M  V30 14060 H 1342.66 -5.7265 1.79422 0
M  V30 14061 H 1343.73 -4.35432 2.1337 0
M  V30 14062 N 1345.07 -0.557671 -1.47404 0
M  V30 14063 C 1346.32 -0.0337216 -2.02072 0
M  V30 14064 C 1346.64 1.32106 -1.43433 0
M  V30 14065 O 1345.91 1.86171 -0.609692 0
M  V30 14066 H 1344.49 -0.00947648 -0.74694 0
M  V30 14067 H 1347.15 -0.727784 -1.80802 0
M  V30 14068 H 1346.25 0.0540331 -3.12053 0
M  V30 14069 N 1346.55 1.54831 -0.294147 0
M  V30 14070 C 1347.96 1.85627 0.199866 0
M  V30 14071 C 1348.31 1.21613 1.53964 0
M  V30 14072 O 1347.44 0.511317 2.10272 0
M  V30 14073 C 1348.03 3.3678 0.369428 0
M  V30 14074 C 1346.59 3.67633 0.807663 0
M  V30 14075 C 1345.74 2.7716 -0.0880078 0
M  V30 14076 H 1348.69 1.50099 -0.515371 0
M  V30 14077 H 1348.71 3.60913 1.20508 0
M  V30 14078 H 1348.22 3.83342 -0.605831 0
M  V30 14079 H 1346.32 3.26583 1.79372 0
M  V30 14080 H 1346.44 4.74916 0.631799 0
M  V30 14081 H 1344.8 2.51017 0.431553 0
M  V30 14082 H 1345.58 3.26542 -1.0595 0
M  V30 14083 N 1348.03 0.0217466 1.57585 0
M  V30 14084 C 1348.94 -0.978407 2.13224 0
M  V30 14085 C 1349.95 -1.36212 1.08269 0
M  V30 14086 O 1351.13 -1.44504 1.40288 0
M  V30 14087 C 1348.19 -2.24462 2.6423 0
M  V30 14088 C 1347.26 -1.92201 3.83871 0
M  V30 14089 C 1346.49 -3.12786 4.32436 0
M  V30 14090 O 1346.71 -4.25201 3.8021 0
M  V30 14091 O 1345.65 -2.95514 5.24362 0
M  V30 14092 H 1349.47 -0.535347 2.98944 0
M  V30 14093 H 1347.06 -0.198414 1.48077 0
M  V30 14094 H 1348.94 -2.98809 2.97138 0
M  V30 14095 H 1347.61 -2.67964 1.81596 0
M  V30 14096 H 1346.52 -1.15262 3.55901 0
M  V30 14097 H 1347.85 -1.53521 4.67645 0
M  V30 14098 N 1349.51 -1.55583 -0.251311 0
M  V30 14099 C 1350.42 -1.93073 -1.33266 0
M  V30 14100 C 1351.43 -0.830612 -1.52895 0
M  V30 14101 O 1352.61 -1.13162 -1.66602 0
M  V30 14102 C 1349.67 -2.21396 -2.66805 0
M  V30 14103 C 1348.73 -3.44815 -2.55737 0
M  V30 14104 C 1347.97 -3.71777 -3.82907 0
M  V30 14105 O 1348.19 -3.00884 -4.84587 0
M  V30 14106 O 1347.12 -4.65305 -3.81805 0
M  V30 14107 H 1350.95 -2.85168 -1.04465 0
M  V30 14108 H 1348.53 -1.42408 -0.451693 0
M  V30 14109 H 1350.42 -2.4094 -3.45725 0
M  V30 14110 H 1349.09 -1.3248 -2.95348 0
M  V30 14111 H 1348 -3.30582 -1.75118 0
M  V30 14112 H 1349.33 -4.34019 -2.32139 0
M  V30 14113 N 1350.98 0.516783 -1.48886 0
M  V30 14114 C 1351.89 1.6467 -1.67095 0
M  V30 14115 C 1352.91 1.64963 -0.553466 0
M  V30 14116 O 1354.09 1.83673 -0.826206 0
M  V30 14117 C 1351.15 3.01095 -1.71879 0
M  V30 14118 C 1350.21 3.11554 -2.95352 0
M  V30 14119 C 1349.44 4.41471 -2.99898 0
M  V30 14120 O 1349.67 5.29348 -2.12477 0
M  V30 14121 O 1348.6 4.56573 -3.92205 0
M  V30 14122 H 1352.43 1.52242 -2.62785 0
M  V30 14123 H 1350.01 0.69134 -1.32442 0
M  V30 14124 H 1351.89 3.82207 -1.77471 0
M  V30 14125 H 1350.57 3.1382 -0.793656 0
M  V30 14126 H 1349.48 2.29689 -2.95286 0
M  V30 14127 H 1350.81 3.03751 -3.87294 0
M  V30 14128 N 1352.46 1.37696 0.766659 0
M  V30 14129 C 1353.74 1.23715 1.51506 0
M  V30 14130 C 1354.12 -0.167091 2.10438 0
M  V30 14131 O 1353.47 -1.17526 1.95959 0
M  V30 14132 C 1353.68 2.33715 2.59188 0
M  V30 14133 C 1355.02 2.71504 3.26451 0
M  V30 14134 O 1356.05 2.32929 2.69486 0
M  V30 14135 O 1354.91 3.37981 4.29454 0
M  V30 14136 H 1352 0.483046 0.671264 0
M  V30 14137 H 1354.55 1.49489 0.803188 0
M  V30 14138 H 1353.32 3.27729 2.13797 0
M  V30 14139 H 1352.94 2.09433 3.3797 0
M  V30 14140 N 1353.94 -0.993397 1.22349 0
M  V30 14141 C 1354.9 -2.065 0.994506 0
M  V30 14142 C 1355.9 -1.60753 -0.0388766 0
M  V30 14143 O 1357.09 -1.73053 0.199578 0
M  V30 14144 C 1354.22 -3.37182 0.502088 0
M  V30 14145 H 1355.42 -2.28248 1.94533 0
M  V30 14146 H 1352.97 -1.16489 1.04211 0
M  V30 14147 H 1353.71 -3.21119 -0.453114 0
M  V30 14148 H 1353.49 -3.71721 1.24763 0
M  V30 14149 H 1354.98 -4.16027 0.362108 0
M  V30 14150 N 1355.42 -1.03311 -1.19015 0
M  V30 14151 C 1356.67 -0.730593 -1.88432 0
M  V30 14152 C 1356.99 0.743392 -1.80274 0
M  V30 14153 O 1356.26 1.5359 -1.21601 0
M  V30 14154 H 1354.84 -0.267253 -0.697556 0
M  V30 14155 H 1357.5 -1.30824 -1.44468 0
M  V30 14156 H 1356.59 -1.02867 -2.9466 0
M  V30 14157 N 1356.9 1.35099 -0.81154 0
M  V30 14158 C 1358.14 1.98233 -0.393453 0
M  V30 14159 C 1358.46 1.64688 1.04417 0
M  V30 14160 O 1357.73 0.931845 1.72318 0
M  V30 14161 H 1356.31 0.733283 -0.142496 0
M  V30 14162 H 1358.98 1.6493 -1.03847 0
M  V30 14163 H 1358.07 3.08017 -0.503188 0
M  V30 14164 N 1358.37 0.56548 1.47106 0
M  V30 14165 C 1359.3 -0.16567 2.32912 0
M  V30 14166 C 1360.28 -0.900678 1.44298 0
M  V30 14167 O 1361.47 -0.879523 1.73142 0
M  V30 14168 C 1358.6 -1.19092 3.26243 0
M  V30 14169 C 1357.55 -0.571849 4.24163 0
M  V30 14170 C 1356.88 -1.70233 5.06878 0
M  V30 14171 C 1358.18 0.479785 5.20092 0
M  V30 14172 H 1359.87 0.550705 2.94292 0
M  V30 14173 H 1357.42 0.266284 1.41517 0
M  V30 14174 H 1359.37 -1.71064 3.85117 0
M  V30 14175 H 1358.1 -1.93734 2.62934 0
M  V30 14176 H 1356.76 -0.073353 3.66527 0
M  V30 14177 H 1356.4 -2.438 4.39967 0
M  V30 14178 H 1356.1 -1.29384 5.73178 0
M  V30 14179 H 1357.63 -2.22515 5.68612 0
M  V30 14180 H 1359.04 0.0458042 5.73282 0
M  V30 14181 H 1357.44 0.807615 5.94641 0
M  V30 14182 H 1358.51 1.37259 4.65068 0
M  V30 14183 N 1359.85 -1.54672 0.302354 0
M  V30 14184 C 1360.8 -2.20281 -0.588245 0
M  V30 14185 C 1361.79 -1.17624 -1.09788 0
M  V30 14186 O 1362.98 -1.43338 -1.03842 0
M  V30 14187 C 1360.11 -2.94812 -1.759 0
M  V30 14188 C 1359.19 -4.04786 -1.26526 0
M  V30 14189 N 1359.58 -5.03425 -0.489625 0
M  V30 14190 C 1357.88 -4.18352 -1.54588 0
M  V30 14191 C 1358.58 -5.81259 -0.226538 0
M  V30 14192 N 1357.56 -5.37581 -0.806723 0
M  V30 14193 H 1361.36 -2.93898 0.0118911 0
M  V30 14194 H 1358.88 -1.62046 0.107181 0
M  V30 14195 H 1360.87 -3.40283 -2.40859 0
M  V30 14196 H 1359.53 -2.22712 -2.36282 0
M  V30 14197 H 1360.54 -5.17726 -0.134401 0
M  V30 14198 H 1357.22 -3.57458 -2.15709 0
M  V30 14199 H 1358.61 -6.70729 0.396499 0
M  V30 14200 N 1361.33 -0.0301034 -1.57571 0
M  V30 14201 C 1362.58 0.649283 -1.92125 0
M  V30 14202 C 1362.91 1.71722 -0.90692 0
M  V30 14203 O 1362.18 1.94373 0.0702019 0
M  V30 14204 C 1362.47 1.26482 -3.37156 0
M  V30 14205 C 1362.32 0.206375 -4.49326 0
M  V30 14206 C 1363.64 2.18256 -3.82168 0
M  V30 14207 H 1360.76 0.234561 -0.698678 0
M  V30 14208 H 1363.4 -0.0875634 -1.89798 0
M  V30 14209 H 1361.55 1.89283 -3.3927 0
M  V30 14210 H 1363.22 -0.424268 -4.59345 0
M  V30 14211 H 1361.47 -0.468035 -4.31268 0
M  V30 14212 H 1362.14 0.676689 -5.47837 0
M  V30 14213 H 1364.61 1.65441 -3.81797 0
M  V30 14214 H 1363.49 2.58277 -4.84339 0
M  V30 14215 H 1363.75 3.07411 -3.17727 0
M  V30 14216 N 1362.81 1.55714 0.243056 0
M  V30 14217 C 1363.74 1.93655 1.30461 0
M  V30 14218 C 1364.72 0.801968 1.50008 0
M  V30 14219 O 1365.9 1.06256 1.62552 0
M  V30 14220 C 1363.03 2.23459 2.65863 0
M  V30 14221 C 1361.99 3.39205 2.61006 0
M  V30 14222 C 1361.31 3.5456 4.00239 0
M  V30 14223 C 1362.61 4.74787 2.17656 0
M  V30 14224 H 1364.31 2.82575 0.98954 0
M  V30 14225 H 1361.85 1.35955 0.474572 0
M  V30 14226 H 1363.81 2.48591 3.40266 0
M  V30 14227 H 1362.53 1.31369 2.99014 0
M  V30 14228 H 1361.19 3.14088 1.89061 0
M  V30 14229 H 1360.84 2.59884 4.30661 0
M  V30 14230 H 1360.54 4.32399 3.97876 0
M  V30 14231 H 1362.06 3.82017 4.76335 0
M  V30 14232 H 1363.48 4.99266 2.81792 0
M  V30 14233 H 1361.87 5.55756 2.26397 0
M  V30 14234 H 1362.94 4.7159 1.12831 0
M  V30 14235 N 1364.29 -0.50888 1.49158 0
M  V30 14236 C 1365.22 -1.62008 1.68154 0
M  V30 14237 C 1366.2 -1.61624 0.53025 0
M  V30 14238 O 1367.38 -1.78489 0.765205 0
M  V30 14239 C 1364.51 -3.00525 1.74075 0
M  V30 14240 C 1363.47 -3.15773 2.88915 0
M  V30 14241 C 1362.79 -4.55562 2.79942 0
M  V30 14242 C 1364.09 -2.96542 4.29953 0
M  V30 14243 H 1365.79 -1.46365 2.61185 0
M  V30 14244 H 1363.33 -0.702705 1.2569 0
M  V30 14245 H 1365.29 -3.78154 1.8595 0
M  V30 14246 H 1364.01 -3.17238 0.776373 0
M  V30 14247 H 1362.67 -2.40567 2.76628 0
M  V30 14248 H 1362.32 -4.6914 1.81429 0
M  V30 14249 H 1362.02 -4.66706 3.57015 0
M  V30 14250 H 1363.54 -5.35262 2.93814 0
M  V30 14251 H 1364.95 -3.63947 4.42963 0
M  V30 14252 H 1363.35 -3.19164 5.08187 0
M  V30 14253 H 1364.42 -1.92745 4.44946 0
M  V30 14254 N 1365.76 -1.381 -0.759346 0
M  V30 14255 C 1366.99 -1.37213 -1.54855 0
M  V30 14256 C 1367.41 0.0395175 -1.88759 0
M  V30 14257 O 1366.76 1.00462 -1.5236 0
M  V30 14258 C 1366.82 -2.22232 -2.85123 0
M  V30 14259 O 1366.54 -3.57897 -2.52668 0
M  V30 14260 C 1368.04 -2.29461 -3.79292 0
M  V30 14261 H 1365.26 -0.469542 -0.479345 0
M  V30 14262 H 1367.8 -1.81604 -0.940216 0
M  V30 14263 H 1365.96 -1.81317 -3.42349 0
M  V30 14264 H 1366.37 -4.02599 -3.36176 0
M  V30 14265 H 1367.84 -2.93246 -4.67665 0
M  V30 14266 H 1368.32 -1.3066 -4.19315 0
M  V30 14267 H 1368.93 -2.70741 -3.27993 0
M  V30 14268 N 1367.24 0.986894 -1.22875 0
M  V30 14269 C 1368.21 2.0597 -1.00544 0
M  V30 14270 C 1369.21 1.60771 0.0303509 0
M  V30 14271 O 1370.4 1.72945 -0.208753 0
M  V30 14272 C 1367.53 3.36911 -0.519962 0
M  V30 14273 H 1368.72 2.27213 -1.9574 0
M  V30 14274 H 1366.27 1.15935 -1.04827 0
M  V30 14275 H 1367.01 3.21355 0.436078 0
M  V30 14276 H 1366.79 3.71054 -1.26732 0
M  V30 14277 H 1368.28 4.15829 -0.384166 0
M  V30 14278 N 1368.72 1.0394 1.18466 0
M  V30 14279 C 1369.95 0.762014 1.92356 0
M  V30 14280 C 1370.36 -0.680652 1.76104 0
M  V30 14281 O 1369.72 -1.46385 1.08985 0
M  V30 14282 C 1369.77 1.11717 3.43805 0
M  V30 14283 O 1369.49 2.50319 3.59544 0
M  V30 14284 C 1370.99 0.864099 4.34797 0
M  V30 14285 H 1368.21 0.277999 0.610702 0
M  V30 14286 H 1370.76 1.38672 1.503 0
M  V30 14287 H 1368.91 0.537445 3.83654 0
M  V30 14288 H 1369.33 2.63875 4.53288 0
M  V30 14289 H 1370.8 1.16247 5.39621 0
M  V30 14290 H 1371.28 -0.20117 4.38739 0
M  V30 14291 H 1371.88 1.42706 4.00643 0
M  V30 14292 N 1370.2 -1.34667 0.818693 0
M  V30 14293 C 1371.61 -1.80839 0.46414 0
M  V30 14294 C 1371.96 -1.67902 -1.01506 0
M  V30 14295 O 1371.09 -1.21658 -1.78964 0
M  V30 14296 C 1371.68 -3.28331 0.835698 0
M  V30 14297 C 1370.24 -3.72599 0.533575 0
M  V30 14298 C 1369.39 -2.56452 1.05487 0
M  V30 14299 H 1372.34 -1.22474 1.00925 0
M  V30 14300 H 1372.36 -3.8025 0.13785 0
M  V30 14301 H 1371.87 -3.37715 1.91233 0
M  V30 14302 H 1369.97 -3.68756 -0.533819 0
M  V30 14303 H 1370.08 -4.66891 1.07468 0
M  V30 14304 H 1368.45 -2.50201 0.476612 0
M  V30 14305 H 1369.23 -2.68608 2.13786 0
M  V30 14306 N 1371.68 -0.573274 -1.46804 0
M  V30 14307 C 1372.92 -0.0553432 -2.02724 0
M  V30 14308 C 1373.26 1.29753 -1.44492 0
M  V30 14309 O 1372.53 1.84804 -0.606455 0
M  V30 14310 C 1372.81 0.0205511 -3.60094 0
M  V30 14311 C 1372.67 -1.36055 -4.2873 0
M  V30 14312 C 1373.99 0.725944 -4.34071 0
M  V30 14313 H 1371.1 -0.0215858 -0.736684 0
M  V30 14314 H 1373.75 -0.738657 -1.75054 0
M  V30 14315 H 1371.9 0.602481 -3.838 0
M  V30 14316 H 1373.57 -1.98692 -4.16316 0
M  V30 14317 H 1371.81 -1.93087 -3.88458 0
M  V30 14318 H 1372.48 -1.26001 -5.37427 0
M  V30 14319 H 1374.96 0.231677 -4.15455 0
M  V30 14320 H 1373.83 0.74805 -5.43779 0
M  V30 14321 H 1374.1 1.78536 -4.04447 0
M  V30 14322 N 1373.15 1.5451 -0.310553 0
M  V30 14323 C 1374.4 1.99931 0.29532 0
M  V30 14324 C 1374.72 1.20042 1.53672 0
M  V30 14325 O 1373.99 0.298841 1.93607 0
M  V30 14326 H 1372.57 0.738539 0.112111 0
M  V30 14327 H 1375.24 1.9023 -0.424092 0
M  V30 14328 H 1374.33 3.07021 0.560749 0
M  V30 14329 N 1374.63 0.0384594 1.57553 0
M  V30 14330 C 1375.56 -0.938444 2.13812 0
M  V30 14331 C 1376.54 -1.33307 1.05657 0
M  V30 14332 O 1377.73 -1.41003 1.33535 0
M  V30 14333 C 1374.86 -2.21764 2.67279 0
M  V30 14334 C 1373.81 -1.96347 3.80305 0
M  V30 14335 C 1373.14 -3.30612 4.20238 0
M  V30 14336 C 1374.44 -1.2952 5.05986 0
M  V30 14337 H 1376.13 -0.469887 2.9569 0
M  V30 14338 H 1373.68 -0.224576 1.42238 0
M  V30 14339 H 1375.63 -2.90493 3.05273 0
M  V30 14340 H 1374.36 -2.70802 1.82576 0
M  V30 14341 H 1373.02 -1.30033 3.42764 0
M  V30 14342 H 1372.66 -3.77427 3.32502 0
M  V30 14343 H 1372.36 -3.14409 4.96408 0
M  V30 14344 H 1373.89 -4.00594 4.60822 0
M  V30 14345 H 1375.3 -1.88264 5.41507 0
M  V30 14346 H 1373.7 -1.23685 5.87216 0
M  V30 14347 H 1374.77 -0.269439 4.84151 0
M  V30 14348 N 1376.11 -1.55841 -0.234795 0
M  V30 14349 C 1377.34 -1.82307 -0.978355 0
M  V30 14350 C 1377.75 -0.615825 -1.78474 0
M  V30 14351 O 1377.11 0.4156 -1.77705 0
M  V30 14352 C 1377.16 -3.07136 -1.90655 0
M  V30 14353 O 1376.88 -4.23202 -1.13278 0
M  V30 14354 C 1378.38 -3.46492 -2.76511 0
M  V30 14355 H 1375.6 -0.606361 -0.287345 0
M  V30 14356 H 1378.15 -2.02916 -0.254023 0
M  V30 14357 H 1376.3 -2.88542 -2.58501 0
M  V30 14358 H 1376.72 -4.94029 -1.76168 0
M  V30 14359 H 1378.19 -4.36908 -3.37366 0
M  V30 14360 H 1378.67 -2.67633 -3.48238 0
M  V30 14361 H 1379.27 -3.6748 -2.14099 0
M  V30 14362 N 1377.59 0.500963 -1.49426 0
M  V30 14363 C 1378.52 1.61114 -1.69011 0
M  V30 14364 C 1379.5 1.61341 -0.538813 0
M  V30 14365 O 1380.69 1.78081 -0.77466 0
M  V30 14366 C 1377.82 2.99598 -1.75666 0
M  V30 14367 C 1376.77 3.14236 -2.90585 0
M  V30 14368 C 1376.1 4.54071 -2.82354 0
M  V30 14369 C 1377.4 2.94258 -4.3152 0
M  V30 14370 H 1379.09 1.44978 -2.61957 0
M  V30 14371 H 1376.64 0.69603 -1.26061 0
M  V30 14372 H 1378.59 3.77163 -1.87953 0
M  V30 14373 H 1377.31 3.16822 -0.793186 0
M  V30 14374 H 1375.97 2.39096 -2.779 0
M  V30 14375 H 1375.62 4.68172 -1.83914 0
M  V30 14376 H 1375.32 4.64806 -3.59485 0
M  V30 14377 H 1376.84 5.33696 -2.96649 0
M  V30 14378 H 1378.26 3.61592 -4.44886 0
M  V30 14379 H 1376.65 3.16464 -5.09873 0
M  V30 14380 H 1377.72 1.90383 -4.45962 0
M  V30 14381 N 1379.07 1.38501 0.752011 0
M  V30 14382 C 1380 1.38577 1.87933 0
M  V30 14383 C 1380.98 0.251454 1.68231 0
M  V30 14384 O 1382.16 0.45477 1.888 0
M  V30 14385 C 1379.29 1.21164 3.25479 0
M  V30 14386 C 1378.25 2.31816 3.59785 0
M  V30 14387 C 1377.57 1.99508 4.96085 0
M  V30 14388 C 1378.87 3.74082 3.645 0
M  V30 14389 H 1380.57 2.32913 1.88127 0
M  V30 14390 H 1378.11 1.12113 0.903698 0
M  V30 14391 H 1380.07 1.19842 4.04 0
M  V30 14392 H 1378.79 0.232899 3.25769 0
M  V30 14393 H 1377.45 2.32327 2.83584 0
M  V30 14394 H 1377.1 1.00114 4.92936 0
M  V30 14395 H 1376.8 2.73617 5.20007 0
M  V30 14396 H 1378.32 1.99807 5.76983 0
M  V30 14397 H 1379.74 3.75593 4.33131 0
M  V30 14398 H 1378.13 4.47409 3.99931 0
M  V30 14399 H 1379.2 4.06284 2.64692 0
M  V30 14400 N 1380.55 -0.980364 1.23396 0
M  V30 14401 C 1381.79 -1.71592 1.06015 0
M  V30 14402 C 1382.11 -1.91401 -0.403103 0
M  V30 14403 O 1383.31 -2.62405 -0.696853 0
M  V30 14404 C 1381.77 -3.08795 1.84861 0
M  V30 14405 C 1381.38 -2.96873 3.35515 0
M  V30 14406 C 1383.12 -3.8631 1.75968 0
M  V30 14407 C 1381.03 -4.29308 4.06753 0
M  V30 14408 H 1379.96 -0.643423 0.393095 0
M  V30 14409 H 1382.61 -1.09345 1.47363 0
M  V30 14410 H 1380.99 -3.71797 1.36318 0
M  V30 14411 H 1382.17 -2.4296 3.91544 0
M  V30 14412 H 1380.48 -2.32833 3.45221 0
M  V30 14413 H 1383.08 -4.84355 2.26504 0
M  V30 14414 H 1383.42 -4.09983 0.722464 0
M  V30 14415 H 1383.95 -3.3001 2.22122 0
M  V30 14416 H 1380.69 -4.10831 5.10782 0
M  V30 14417 H 1380.21 -4.83086 3.55511 0
M  V30 14418 H 1381.89 -4.97995 4.1305 0
M  V30 14419 N 1382.02 -1.04567 -1.17913 0
M  V30 14420 C 1383.27 -0.753137 -1.88297 0
M  V30 14421 C 1383.6 0.717651 -1.80453 0
M  V30 14422 O 1382.88 1.5242 -1.20824 0
M  V30 14423 C 1383.16 -1.22626 -3.38578 0
M  V30 14424 C 1383.01 -2.75952 -3.55205 0
M  V30 14425 C 1384.33 -0.82029 -4.32388 0
M  V30 14426 H 1381.45 -0.275067 -0.683745 0
M  V30 14427 H 1384.09 -1.29856 -1.38699 0
M  V30 14428 H 1382.24 -0.762246 -3.80949 0
M  V30 14429 H 1383.92 -3.30429 -3.21892 0
M  V30 14430 H 1382.16 -3.15534 -2.97693 0
M  V30 14431 H 1382.83 -3.04116 -4.60671 0
M  V30 14432 H 1385.31 -1.21965 -3.97824 0
M  V30 14433 H 1384.18 -1.17902 -5.36088 0
M  V30 14434 H 1384.44 0.276205 -4.41236 0
M  V30 14435 N 1383.5 1.34231 -0.825823 0
M  V30 14436 C 1384.43 2.31997 -0.264546 0
M  V30 14437 C 1385.41 1.58375 0.620592 0
M  V30 14438 O 1386.6 1.86341 0.546865 0
M  V30 14439 C 1383.73 3.42557 0.572025 0
M  V30 14440 C 1382.68 4.27454 -0.216219 0
M  V30 14441 C 1382.01 5.29509 0.743279 0
M  V30 14442 C 1383.31 5.02456 -1.42603 0
M  V30 14443 H 1385 2.79189 -1.08139 0
M  V30 14444 H 1382.55 1.34227 -0.521451 0
M  V30 14445 H 1384.5 4.09968 0.974889 0
M  V30 14446 H 1383.22 2.94021 1.42195 0
M  V30 14447 H 1381.88 3.61649 -0.600485 0
M  V30 14448 H 1381.53 4.77234 1.58924 0
M  V30 14449 H 1381.23 5.87188 0.220064 0
M  V30 14450 H 1382.76 5.99789 1.14394 0
M  V30 14451 H 1384.17 5.62706 -1.09702 0
M  V30 14452 H 1382.57 5.69723 -1.88509 0
M  V30 14453 H 1383.64 4.31983 -2.2027 0
M  V30 14454 N 1384.98 0.581051 1.46498 0
M  V30 14455 C 1385.94 -0.142937 2.28754 0
M  V30 14456 C 1386.94 -0.820383 1.38298 0
M  V30 14457 O 1388.13 -0.672592 1.60692 0
M  V30 14458 C 1385.26 -1.21176 3.18637 0
M  V30 14459 H 1386.46 0.579918 2.9424 0
M  V30 14460 H 1384.01 0.338951 1.52581 0
M  V30 14461 H 1384.75 -1.96624 2.57894 0
M  V30 14462 H 1384.53 -0.730517 3.85235 0
M  V30 14463 H 1386.02 -1.71958 3.80552 0
M  V30 14464 N 1386.46 -1.54343 0.318742 0
M  V30 14465 C 1387.42 -2.22828 -0.536679 0
M  V30 14466 C 1388.42 -1.22013 -1.04735 0
M  V30 14467 O 1389.61 -1.46626 -0.940549 0
M  V30 14468 C 1386.74 -2.92857 -1.74493 0
M  V30 14469 H 1387.94 -2.99836 0.0619325 0
M  V30 14470 H 1385.49 -1.56144 0.0697687 0
M  V30 14471 H 1386.22 -2.19973 -2.3829 0
M  V30 14472 H 1386.01 -3.66779 -1.38621 0
M  V30 14473 H 1387.5 -3.45049 -2.35225 0
M  V30 14474 N 1387.94 -0.0468143 -1.5753 0
M  V30 14475 C 1388.87 0.927092 -2.14306 0
M  V30 14476 C 1389.85 1.32745 -1.06362 0
M  V30 14477 O 1391.03 1.40293 -1.34281 0
M  V30 14478 C 1388.16 2.20343 -2.68452 0
M  V30 14479 C 1387.12 1.94328 -3.81341 0
M  V30 14480 C 1386.44 3.28379 -4.21985 0
M  V30 14481 C 1387.74 1.26835 -5.06666 0
M  V30 14482 H 1389.44 0.454199 -2.95935 0
M  V30 14483 H 1386.98 0.217029 -1.42355 0
M  V30 14484 H 1388.93 2.8887 -3.0681 0
M  V30 14485 H 1387.66 2.6983 -1.84009 0
M  V30 14486 H 1386.32 1.28214 -3.43448 0
M  V30 14487 H 1385.97 3.75658 -3.34499 0
M  V30 14488 H 1385.67 3.11772 -4.98068 0
M  V30 14489 H 1387.19 3.98145 -4.6294 0
M  V30 14490 H 1388.6 1.85389 -5.42498 0
M  V30 14491 H 1387 1.20569 -5.87863 0
M  V30 14492 H 1388.07 0.243759 -4.84287 0
M  V30 14493 N 1389.41 1.55964 0.226527 0
M  V30 14494 C 1390.66 1.78392 0.94977 0
M  V30 14495 C 1390.98 0.614444 1.85066 0
M  V30 14496 O 1390.25 -0.368894 1.92395 0
M  V30 14497 H 1388.83 0.657962 0.353688 0
M  V30 14498 H 1391.5 1.93422 0.239577 0
M  V30 14499 H 1390.59 2.70343 1.55952 0
M  V30 14500 N 1390.89 -0.493031 1.4969 0
M  V30 14501 C 1392.14 -1.24664 1.59578 0
M  V30 14502 C 1392.47 -1.92385 0.286075 0
M  V30 14503 O 1391.72 -1.81712 -0.726586 0
M  V30 14504 C 1392.02 -2.33014 2.70997 0
M  V30 14505 C 1391.69 -1.82697 4.12229 0
M  V30 14506 C 1390.35 -1.68694 4.50662 0
M  V30 14507 C 1392.7 -1.45127 5.00587 0
M  V30 14508 C 1390.03 -1.15512 5.75216 0
M  V30 14509 C 1392.38 -0.933951 6.25668 0
M  V30 14510 C 1391.05 -0.780378 6.62923 0
M  V30 14511 H 1390.32 -0.456178 0.583937 0
M  V30 14512 H 1392.96 -0.546091 1.83549 0
M  V30 14513 H 1391.27 -3.08889 2.41029 0
M  V30 14514 H 1392.96 -2.91041 2.75855 0
M  V30 14515 H 1389.55 -1.94557 3.81897 0
M  V30 14516 H 1393.74 -1.5479 4.71544 0
M  V30 14517 H 1388.99 -1.0234 6.02774 0
M  V30 14518 H 1393.17 -0.634088 6.93507 0
M  V30 14519 H 1390.8 -0.366111 7.59318 0
M  V30 14520 N 1392.37 -1.38898 -0.744656 0
M  V30 14521 C 1393.62 -1.35595 -1.50401 0
M  V30 14522 C 1393.95 0.0511979 -1.94433 0
M  V30 14523 O 1393.2 1.03011 -1.66395 0
M  V30 14524 C 1393.5 -2.2658 -2.76398 0
M  V30 14525 C 1393.17 -3.74389 -2.51283 0
M  V30 14526 C 1391.83 -4.14666 -2.44143 0
M  V30 14527 C 1394.18 -4.67916 -2.29573 0
M  V30 14528 C 1391.51 -5.46545 -2.1332 0
M  V30 14529 C 1393.86 -6.00063 -2.00269 0
M  V30 14530 C 1392.52 -6.39413 -1.91591 0
M  V30 14531 H 1391.79 -0.496176 -0.550355 0
M  V30 14532 H 1394.44 -1.71328 -0.855514 0
M  V30 14533 H 1392.75 -1.83933 -3.45942 0
M  V30 14534 H 1394.44 -2.21323 -3.34391 0
M  V30 14535 H 1391.03 -3.42463 -2.57715 0
M  V30 14536 H 1395.22 -4.37639 -2.34063 0
M  V30 14537 H 1390.47 -5.75966 -2.05117 0
M  V30 14538 H 1394.65 -6.72068 -1.82476 0
M  V30 14539 H 1392.27 -7.41524 -1.67472 0
M  V30 14540 N 1393.85 0.973806 -1.23914 0
M  V30 14541 C 1395.08 1.74853 -1.10046 0
M  V30 14542 C 1395.49 1.85927 0.350388 0
M  V30 14543 O 1394.83 1.34252 1.25388 0
M  V30 14544 C 1394.89 3.18919 -1.65924 0
M  V30 14545 C 1394.56 3.31335 -3.14748 0
M  V30 14546 C 1395.55 3.17141 -4.11968 0
M  V30 14547 C 1393.24 3.55772 -3.54587 0
M  V30 14548 C 1395.23 3.27199 -5.47009 0
M  V30 14549 C 1392.92 3.65468 -4.89771 0
M  V30 14550 C 1393.92 3.51193 -5.85792 0
M  V30 14551 O 1393.6 3.60534 -7.18519 0
M  V30 14552 H 1393.34 0.555345 -0.385445 0
M  V30 14553 H 1395.89 1.23168 -1.64374 0
M  V30 14554 H 1394.12 3.71882 -1.06023 0
M  V30 14555 H 1395.81 3.78177 -1.47434 0
M  V30 14556 H 1396.58 2.98153 -3.82531 0
M  V30 14557 H 1392.45 3.65951 -2.80358 0
M  V30 14558 H 1396 3.15974 -6.21937 0
M  V30 14559 H 1391.9 3.83969 -5.18882 0
M  V30 14560 H 1392.66 3.77288 -7.26358 0
M  V30 14561 N 1395.33 1.05191 1.17357 0
M  V30 14562 C 1396.57 0.760479 1.87246 0
M  V30 14563 C 1396.9 -0.714618 1.81434 0
M  V30 14564 O 1396.17 -1.51636 1.24029 0
M  V30 14565 H 1394.75 0.278317 0.693216 0
M  V30 14566 H 1397.41 1.33106 1.42369 0
M  V30 14567 H 1396.5 1.07542 2.92987 0
M  V30 14568 N 1396.8 -1.33791 0.83293 0
M  V30 14569 C 1397.75 -2.29332 0.25989 0
M  V30 14570 C 1398.72 -1.54056 -0.620965 0
M  V30 14571 O 1399.91 -1.82382 -0.560492 0
M  V30 14572 C 1397.05 -3.40461 -0.563964 0
M  V30 14573 C 1396.16 -4.30658 0.34025 0
M  V30 14574 C 1395.29 -5.28897 -0.494134 0
M  V30 14575 C 1394.33 -6.10733 0.408842 0
M  V30 14576 N 1393.47 -7.01032 -0.38706 0
M  V30 14577 H 1398.31 -2.77743 1.07996 0
M  V30 14578 H 1395.85 -1.3667 0.544043 0
M  V30 14579 H 1397.81 -4.03587 -1.05704 0
M  V30 14580 H 1396.44 -2.93258 -1.34905 0
M  V30 14581 H 1395.49 -3.68305 0.9516 0
M  V30 14582 H 1396.8 -4.87962 1.03415 0
M  V30 14583 H 1395.95 -5.97522 -1.05128 0
M  V30 14584 H 1394.69 -4.72155 -1.2215 0
M  V30 14585 H 1393.7 -5.41031 0.978046 0
M  V30 14586 H 1394.92 -6.69557 1.13448 0
M  V30 14587 H 1392.87 -6.46747 -1.09792 0
M  V30 14588 H 1392.79 -7.55592 0.248249 0
M  V30 14589 H 1394.05 -7.73973 -0.926631 0
M  V30 14590 N 1398.28 -0.588812 -1.46187 0
M  V30 14591 C 1399.23 0.140932 -2.30369 0
M  V30 14592 C 1400.2 0.878216 -1.40984 0
M  V30 14593 O 1401.38 0.867678 -1.69929 0
M  V30 14594 C 1398.52 1.14468 -3.25563 0
M  V30 14595 C 1397.64 0.410215 -4.30048 0
M  V30 14596 C 1396.77 1.40203 -5.12364 0
M  V30 14597 C 1395.81 0.65431 -6.08593 0
M  V30 14598 N 1394.95 1.59448 -6.83755 0
M  V30 14599 H 1399.79 -0.582976 -2.92242 0
M  V30 14600 H 1397.33 -0.299302 -1.44023 0
M  V30 14601 H 1399.28 1.73957 -3.79203 0
M  V30 14602 H 1397.91 1.83623 -2.65485 0
M  V30 14603 H 1396.97 -0.299822 -3.79217 0
M  V30 14604 H 1398.28 -0.174043 -4.98496 0
M  V30 14605 H 1397.43 2.06953 -5.70312 0
M  V30 14606 H 1396.17 2.02022 -4.4389 0
M  V30 14607 H 1395.18 -0.0269371 -5.49793 0
M  V30 14608 H 1396.4 0.0414285 -6.79087 0
M  V30 14609 H 1394.35 2.20066 -6.17986 0
M  V30 14610 H 1394.26 1.06318 -7.48487 0
M  V30 14611 H 1395.53 2.25215 -7.46256 0
M  V30 14612 N 1399.76 1.54172 -0.326923 0
M  V30 14613 C 1401.18 1.59579 0.0256055 0
M  V30 14614 C 1401.38 1.34337 1.50186 0
M  V30 14615 O 1400.43 1.12945 2.25831 0
M  V30 14616 C 1401.75 2.98086 -0.395641 0
M  V30 14617 C 1403.29 3.11075 -0.346579 0
M  V30 14618 C 1403.77 4.51932 -0.743039 0
M  V30 14619 N 1405.26 4.57932 -0.696575 0
M  V30 14620 C 1405.99 5.65041 -0.975493 0
M  V30 14621 N 1405.49 6.80075 -1.32172 0
M  V30 14622 N 1407.28 5.54835 -0.900831 0
M  V30 14623 H 1399.43 1.68836 -1.28872 0
M  V30 14624 H 1401.7 0.789858 -0.52424 0
M  V30 14625 H 1401.4 3.21568 -1.42431 0
M  V30 14626 H 1401.28 3.76451 0.237645 0
M  V30 14627 H 1403.66 2.87326 0.672889 0
M  V30 14628 H 1403.75 2.34807 -1.01484 0
M  V30 14629 H 1403.39 4.76415 -1.76044 0
M  V30 14630 H 1403.32 5.26574 -0.0524263 0
M  V30 14631 H 1405.81 3.75318 -0.440969 0
M  V30 14632 H 1406.12 7.57708 -1.51983 0
M  V30 14633 H 1404.47 6.81563 -1.36001 0
M  V30 14634 H 1407.66 4.63844 -0.629812 0
M  V30 14635 H 1407.83 6.3822 -1.12156 0
M  V30 14636 N 1401.24 0.0551678 1.57503 0
M  V30 14637 C 1402.19 -0.935665 2.12951 0
M  V30 14638 C 1403.18 -1.31954 1.06229 0
M  V30 14639 O 1404.39 -1.29873 1.24632 0
M  V30 14640 H 1400.76 -0.319618 0.680697 0
M  V30 14641 H 1402.73 -0.442937 2.95094 0
M  V30 14642 C 1401.48 -2.19977 2.69268 0
M  V30 14643 H 1400.8 -1.91319 3.51051 0
M  V30 14644 H 1402.24 -2.87456 3.11681 0
M  V30 14645 C 1400.7 -2.94714 1.63233 0
M  V30 14646 O 1401.23 -3.87803 1.04747 0
M  V30 14647 N 1399.44 -2.57518 1.34659 0
M  V30 14648 H 1398.99 -1.81894 1.82407 0
M  V30 14649 H 1398.94 -3.07829 0.639425 0
M  V30 14650 N 1402.72 -1.56081 -0.218252 0
M  V30 14651 C 1404.13 -1.49147 -0.568098 0
M  V30 14652 C 1404.33 -0.750893 -1.86986 0
M  V30 14653 O 1403.39 -0.291904 -2.50807 0
M  V30 14654 C 1404.7 -2.93717 -0.644272 0
M  V30 14655 C 1406.25 -3.04256 -0.734677 0
M  V30 14656 C 1406.72 -4.50191 -0.842167 0
M  V30 14657 N 1408.22 -4.54247 -0.906302 0
M  V30 14658 C 1408.95 -5.64448 -1.00924 0
M  V30 14659 N 1408.45 -6.84394 -1.07592 0
M  V30 14660 N 1410.24 -5.52308 -1.04463 0
M  V30 14661 H 1402.39 -2.02656 0.635935 0
M  V30 14662 H 1404.65 -0.921262 0.223563 0
M  V30 14663 H 1404.36 -3.50861 0.242721 0
M  V30 14664 H 1404.23 -3.45798 -1.50678 0
M  V30 14665 H 1406.62 -2.47174 -1.61211 0
M  V30 14666 H 1406.7 -2.55339 0.153563 0
M  V30 14667 H 1406.35 -5.07891 0.0308214 0
M  V30 14668 H 1406.28 -4.96817 -1.74587 0
M  V30 14669 H 1408.77 -3.67868 -0.864954 0
M  V30 14670 H 1409.08 -7.6413 -1.15433 0
M  V30 14671 H 1407.42 -6.87099 -1.045 0
M  V30 14672 H 1410.62 -4.57528 -0.989218 0
M  V30 14673 H 1410.79 -6.38223 -1.1214 0
M  V30 14674 N 1404.2 0.485086 -1.49949 0
M  V30 14675 C 1405.42 1.26179 -1.63971 0
M  V30 14676 C 1405.84 1.86113 -0.317408 0
M  V30 14677 O 1405.2 1.68581 0.699038 0
M  V30 14678 C 1405.25 2.38062 -2.72046 0
M  V30 14679 O 1404.97 1.80588 -3.99149 0
M  V30 14680 C 1406.47 3.29174 -2.96916 0
M  V30 14681 H 1403.69 0.382122 -0.551565 0
M  V30 14682 H 1406.23 0.580607 -1.96085 0
M  V30 14683 H 1404.39 3.0198 -2.42666 0
M  V30 14684 H 1404.8 2.54159 -4.58807 0
M  V30 14685 H 1406.28 4.03922 -3.76233 0
M  V30 14686 H 1406.75 3.87123 -2.07443 0
M  V30 14687 H 1407.36 2.71006 -3.27774 0
M  V30 14688 N 1405.67 1.39291 0.737279 0
M  V30 14689 C 1406.6 1.40562 1.86452 0
M  V30 14690 C 1407.58 0.269283 1.67955 0
M  V30 14691 O 1408.77 0.474769 1.88307 0
M  V30 14692 C 1405.9 1.2461 3.24175 0
M  V30 14693 C 1404.85 2.35619 3.57306 0
M  V30 14694 C 1404.18 2.04758 4.93941 0
M  V30 14695 C 1405.48 3.77927 3.60512 0
M  V30 14696 H 1407.17 2.34896 1.85646 0
M  V30 14697 H 1404.72 1.13065 0.891756 0
M  V30 14698 H 1406.67 1.2412 4.02706 0
M  V30 14699 H 1405.4 0.267438 3.25503 0
M  V30 14700 H 1404.06 2.35322 2.81104 0
M  V30 14701 H 1403.7 1.05336 4.91847 0
M  V30 14702 H 1403.4 2.79117 5.17076 0
M  V30 14703 H 1404.93 2.05915 5.74832 0
M  V30 14704 H 1406.34 3.80166 4.29123 0
M  V30 14705 H 1404.74 4.51626 3.95164 0
M  V30 14706 H 1405.81 4.09068 2.60368 0
M  V30 14707 N 1407.15 -0.967221 1.24429 0
M  V30 14708 C 1408.38 -1.74267 1.10972 0
M  V30 14709 C 1408.79 -1.8611 -0.340522 0
M  V30 14710 O 1408.13 -1.34915 -1.24674 0
M  V30 14711 C 1408.19 -3.18035 1.67613 0
M  V30 14712 C 1407.86 -3.29661 3.16501 0
M  V30 14713 C 1408.86 -3.14952 4.13644 0
M  V30 14714 C 1406.54 -3.53886 3.56469 0
M  V30 14715 C 1408.53 -3.24294 5.48737 0
M  V30 14716 C 1406.22 -3.62866 4.91703 0
M  V30 14717 C 1407.22 -3.48082 5.87646 0
M  V30 14718 O 1406.91 -3.56719 7.20421 0
M  V30 14719 H 1406.64 -0.553293 0.388384 0
M  V30 14720 H 1409.19 -1.22295 1.65025 0
M  V30 14721 H 1407.42 -3.71314 1.07994 0
M  V30 14722 H 1409.11 -3.7739 1.49438 0
M  V30 14723 H 1409.88 -2.9612 3.84107 0
M  V30 14724 H 1405.76 -3.64459 2.82295 0
M  V30 14725 H 1409.3 -3.12672 6.23604 0
M  V30 14726 H 1405.2 -3.81212 5.20911 0
M  V30 14727 H 1405.97 -3.73431 7.28349 0
M  V30 14728 N 1408.63 -1.05812 -1.16797 0
M  V30 14729 C 1409.59 -0.668766 -2.19226 0
M  V30 14730 C 1410.59 0.28299 -1.5829 0
M  V30 14731 O 1411.78 0.0660233 -1.74075 0
M  V30 14732 C 1408.91 0.0167379 -3.40896 0
M  V30 14733 H 1410.11 -1.57543 -2.55187 0
M  V30 14734 H 1407.66 -0.852753 -1.30988 0
M  V30 14735 H 1408.4 0.936382 -3.10487 0
M  V30 14736 H 1408.18 -0.667576 -3.86375 0
M  V30 14737 H 1409.67 0.275041 -4.16693 0
M  V30 14738 N 1410.11 1.33347 -0.840014 0
M  V30 14739 C 1411.33 2.02485 -0.448856 0
M  V30 14740 C 1411.76 1.62781 0.942543 0
M  V30 14741 O 1411.12 0.82099 1.61646 0
M  V30 14742 C 1411.16 3.55928 -0.578582 0
M  V30 14743 O 1410.27 4.10507 0.394695 0
M  V30 14744 H 1409.61 0.63848 -0.182317 0
M  V30 14745 H 1412.14 1.70221 -1.13516 0
M  V30 14746 H 1412.15 4.05391 -0.460653 0
M  V30 14747 H 1410.82 3.8417 -1.5933 0
M  V30 14748 H 1409.4 3.72164 0.234227 0
M  V30 14749 N 1411.59 0.596556 1.45873 0
M  V30 14750 C 1412.83 0.0875879 2.02611 0
M  V30 14751 C 1413.16 -1.27438 1.46538 0
M  V30 14752 O 1412.44 -1.83815 0.635779 0
M  V30 14753 C 1412.72 0.0367394 3.60081 0
M  V30 14754 C 1412.58 1.42859 4.26511 0
M  V30 14755 C 1413.89 -0.656795 4.35171 0
M  V30 14756 H 1411.01 0.0333031 0.736247 0
M  V30 14757 H 1413.66 0.766413 1.73857 0
M  V30 14758 H 1411.81 -0.541345 3.8471 0
M  V30 14759 H 1413.48 2.0529 4.13102 0
M  V30 14760 H 1411.72 1.99243 3.85337 0
M  V30 14761 H 1412.39 1.34535 5.35354 0
M  V30 14762 H 1414.87 -0.165553 4.15771 0
M  V30 14763 H 1413.74 -0.661445 5.449 0
M  V30 14764 H 1414 -1.72079 4.07236 0
M  V30 14765 N 1413.06 -1.53996 0.335095 0
M  V30 14766 C 1414.01 -2.26221 -0.541007 0
M  V30 14767 C 1415.01 -1.28053 -1.109 0
M  V30 14768 O 1416.21 -1.4579 -1.05571 0
M  V30 14769 H 1412.59 -0.726775 -0.193136 0
M  V30 14770 H 1414.56 -2.98263 0.0902792 0
M  V30 14771 C 1413.31 -3.04173 -1.68445 0
M  V30 14772 H 1412.63 -3.79537 -1.25665 0
M  V30 14773 H 1414.07 -3.57937 -2.27282 0
M  V30 14774 C 1412.53 -2.13162 -2.6089 0
M  V30 14775 O 1413.06 -1.7221 -3.62914 0
M  V30 14776 N 1411.26 -1.78414 -2.29384 0
M  V30 14777 H 1410.81 -2.11914 -1.46458 0
M  V30 14778 H 1410.77 -1.178 -2.91497 0
M  V30 14779 N 1414.54 -0.0635198 -1.57472 0
M  V30 14780 C 1415.95 0.470372 -1.80678 0
M  V30 14781 C 1416.3 1.70158 -0.976771 0
M  V30 14782 O 1415.43 2.15502 -0.196893 0
M  V30 14783 C 1416.02 0.860129 -3.277 0
M  V30 14784 C 1414.58 1.33893 -3.51781 0
M  V30 14785 C 1413.73 0.320078 -2.75447 0
M  V30 14786 H 1416.68 -0.289295 -1.56041 0
M  V30 14787 H 1416.7 1.72216 -3.39296 0
M  V30 14788 H 1416.21 -0.0361525 -3.88083 0
M  V30 14789 H 1414.31 2.25399 -2.96692 0
M  V30 14790 H 1414.43 1.32257 -4.60483 0
M  V30 14791 H 1412.79 0.795601 -2.41955 0
M  V30 14792 H 1413.57 -0.568332 -3.38563 0
M  V30 14793 N 1416.02 1.56195 0.209972 0
M  V30 14794 C 1416.93 1.96539 1.28101 0
M  V30 14795 C 1417.95 0.870858 1.50639 0
M  V30 14796 O 1419.12 1.17539 1.63544 0
M  V30 14797 C 1416.19 2.28392 2.60841 0
M  V30 14798 C 1415.25 3.51474 2.46505 0
M  V30 14799 C 1414.48 3.81798 3.72915 0
M  V30 14800 O 1414.7 3.13627 4.76439 0
M  V30 14801 O 1413.64 4.75264 3.69334 0
M  V30 14802 H 1417.46 2.87838 0.968671 0
M  V30 14803 H 1415.05 1.43556 0.413777 0
M  V30 14804 H 1416.93 2.50022 3.39215 0
M  V30 14805 H 1415.61 1.40264 2.91732 0
M  V30 14806 H 1414.51 3.35109 1.66292 0
M  V30 14807 H 1415.85 4.40021 2.2055 0
M  V30 14808 N 1417.5 -0.477127 1.50204 0
M  V30 14809 C 1418.73 -1.25126 1.64399 0
M  V30 14810 C 1419.14 -1.86401 0.32424 0
M  V30 14811 O 1418.48 -1.69711 -0.703119 0
M  V30 14812 C 1418.54 -2.40428 2.67273 0
M  V30 14813 C 1418.2 -1.99837 4.10992 0
M  V30 14814 C 1419.2 -1.52435 4.97051 0
M  V30 14815 C 1416.89 -2.08742 4.56872 0
M  V30 14816 C 1418.88 -1.14472 6.27037 0
M  V30 14817 C 1416.57 -1.70391 5.86865 0
M  V30 14818 C 1417.57 -1.23333 6.71772 0
M  V30 14819 O 1417.25 -0.855111 7.99339 0
M  V30 14820 H 1416.99 -0.384801 0.555791 0
M  V30 14821 H 1419.54 -0.576654 1.97139 0
M  V30 14822 H 1417.77 -3.1104 2.29763 0
M  V30 14823 H 1419.46 -3.02406 2.7075 0
M  V30 14824 H 1420.22 -1.44981 4.62823 0
M  V30 14825 H 1416.1 -2.44319 3.90934 0
M  V30 14826 H 1419.65 -0.776712 6.93263 0
M  V30 14827 H 1415.54 -1.77501 6.20615 0
M  V30 14828 H 1416.31 -0.984492 8.12558 0
M  V30 14829 N 1418.98 -1.3968 -0.729882 0
M  V30 14830 C 1420.22 -1.37182 -1.48954 0
M  V30 14831 C 1420.55 0.0305728 -1.94476 0
M  V30 14832 O 1419.81 1.0124 -1.67478 0
M  V30 14833 C 1420.11 -2.29499 -2.7398 0
M  V30 14834 C 1419.77 -3.77034 -2.47298 0
M  V30 14835 C 1418.43 -4.17232 -2.39731 0
M  V30 14836 C 1420.79 -4.70325 -2.24597 0
M  V30 14837 C 1418.11 -5.48777 -2.07511 0
M  V30 14838 C 1420.47 -6.02153 -1.93893 0
M  V30 14839 C 1419.13 -6.41409 -1.84798 0
M  V30 14840 H 1418.4 -0.501985 -0.545061 0
M  V30 14841 H 1421.05 -1.72226 -0.837294 0
M  V30 14842 H 1419.35 -1.87592 -3.43972 0
M  V30 14843 H 1421.05 -2.24857 -3.32024 0
M  V30 14844 H 1417.64 -3.45177 -2.54069 0
M  V30 14845 H 1421.82 -4.40097 -2.29408 0
M  V30 14846 H 1417.08 -5.78109 -1.98996 0
M  V30 14847 H 1421.25 -6.73966 -1.75337 0
M  V30 14848 H 1418.88 -7.43258 -1.59598 0
M  V30 14849 N 1420.45 0.960609 -1.2494 0
M  V30 14850 C 1421.68 1.7446 -1.12153 0
M  V30 14851 C 1422.1 1.85335 0.321315 0
M  V30 14852 O 1421.46 1.32944 1.23271 0
M  V30 14853 C 1421.51 3.13945 -1.774 0
M  V30 14854 O 1420.61 3.9882 -1.04958 0
M  V30 14855 H 1419.96 0.536007 -0.391909 0
M  V30 14856 H 1422.49 1.2045 -1.65388 0
M  V30 14857 H 1422.5 3.64434 -1.83444 0
M  V30 14858 H 1421.17 3.05346 -2.82377 0
M  V30 14859 H 1419.75 3.57293 -1.06752 0
M  V30 14860 N 1421.93 1.0643 1.16234 0
M  V30 14861 C 1422.9 0.680383 2.18869 0
M  V30 14862 C 1423.9 -0.274591 1.58438 0
M  V30 14863 O 1425.09 -0.0567907 1.74107 0
M  V30 14864 C 1422.22 0.00134091 3.409 0
M  V30 14865 H 1423.41 1.58894 2.54347 0
M  V30 14866 H 1420.96 0.859688 1.30534 0
M  V30 14867 H 1421.7 -0.919903 3.1098 0
M  V30 14868 H 1421.48 0.688057 3.86016 0
M  V30 14869 H 1422.97 -0.252938 4.16833 0
M  V30 14870 N 1423.41 -1.329 0.847073 0
M  V30 14871 C 1424.64 -2.02244 0.459588 0
M  V30 14872 C 1425.06 -1.63279 -0.933897 0
M  V30 14873 O 1424.42 -0.829551 -1.61208 0
M  V30 14874 C 1424.47 -3.55616 0.59745 0
M  V30 14875 O 1423.57 -4.1071 -0.372919 0
M  V30 14876 H 1422.91 -0.637504 0.1857 0
M  V30 14877 H 1425.44 -1.69617 1.14417 0
M  V30 14878 H 1425.45 -4.05141 0.482145 0
M  V30 14879 H 1424.13 -3.8332 1.61365 0
M  V30 14880 H 1422.7 -3.72283 -0.214487 0
M  V30 14881 N 1424.89 -0.604284 -1.45555 0
M  V30 14882 C 1426.17 -0.0303285 -1.95576 0
M  V30 14883 C 1426.55 1.43661 -1.54676 0
M  V30 14884 O 1425.89 2.13747 -0.807731 0
M  V30 14885 C 1426.1 -0.22497 -3.48274 0
M  V30 14886 C 1427.45 -0.104042 -4.24473 0
M  V30 14887 O 1428.48 -0.154919 -3.55863 0
M  V30 14888 O 1427.33 0.0136297 -5.46498 0
M  V30 14889 H 1424.43 0.0376106 -0.826144 0
M  V30 14890 H 1426.97 -0.674114 -1.55736 0
M  V30 14891 H 1425.75 -1.24391 -3.71002 0
M  V30 14892 H 1425.37 0.454234 -3.94997 0
M  V30 14893 N 1426.37 1.53816 -0.343257 0
M  V30 14894 C 1427.3 2.21306 0.556696 0
M  V30 14895 C 1428.28 1.19697 1.10051 0
M  V30 14896 O 1429.46 1.48515 1.16084 0
M  V30 14897 C 1426.59 2.89026 1.76583 0
M  V30 14898 C 1425.63 4.04521 1.35149 0
M  V30 14899 S 1426.47 5.3421 0.37154 0
M  V30 14900 C 1427.62 6.05433 1.58751 0
M  V30 14901 H 1427.86 2.97295 -0.0165367 0
M  V30 14902 H 1425.39 1.53874 -0.127331 0
M  V30 14903 H 1427.35 3.28662 2.45951 0
M  V30 14904 H 1426.01 2.12803 2.31028 0
M  V30 14905 H 1425.2 4.50839 2.25301 0
M  V30 14906 H 1424.8 3.66661 0.737296 0
M  V30 14907 H 1427.1 6.28808 2.52203 0
M  V30 14908 H 1428.04 6.98432 1.16613 0
M  V30 14909 H 1428.45 5.35588 1.78343 0
M  V30 14910 N 1427.84 0.0718701 1.57436 0
M  V30 14911 C 1429.07 -0.605374 1.97532 0
M  V30 14912 C 1429.48 -1.6368 0.948974 0
M  V30 14913 O 1428.83 -1.83556 -0.0726987 0
M  V30 14914 C 1428.89 -1.33139 3.33937 0
M  V30 14915 C 1428.55 -0.453426 4.54745 0
M  V30 14916 C 1429.55 0.289012 5.19096 0
M  V30 14917 C 1427.23 -0.378282 5.00874 0
M  V30 14918 C 1429.23 1.09482 6.27927 0
M  V30 14919 C 1426.91 0.431192 6.09577 0
M  V30 14920 C 1427.91 1.16641 6.72966 0
M  V30 14921 O 1427.6 1.96253 7.79577 0
M  V30 14922 H 1427.33 -0.168804 0.654585 0
M  V30 14923 H 1429.89 0.140832 2.04917 0
M  V30 14924 H 1428.12 -2.12367 3.23167 0
M  V30 14925 H 1429.81 -1.90089 3.58638 0
M  V30 14926 H 1430.57 0.240552 4.84403 0
M  V30 14927 H 1426.45 -0.940166 4.51311 0
M  V30 14928 H 1429.99 1.66918 6.77336 0
M  V30 14929 H 1425.89 0.481217 6.43704 0
M  V30 14930 H 1426.66 1.88686 7.96455 0
M  V30 14931 N 1429.32 -1.56304 -0.201686 0
M  V30 14932 C 1430.57 -1.80504 -0.92446 0
M  V30 14933 C 1430.9 -0.644832 -1.83182 0
M  V30 14934 O 1430.18 0.354963 -1.91234 0
M  V30 14935 C 1430.46 -3.14919 -1.74636 0
M  V30 14936 C 1430.31 -4.41421 -0.864169 0
M  V30 14937 C 1431.63 -3.45962 -2.72026 0
M  V30 14938 H 1428.75 -0.656643 -0.334648 0
M  V30 14939 H 1431.39 -1.89025 -0.192188 0
M  V30 14940 H 1429.54 -3.07785 -2.37066 0
M  V30 14941 H 1431.21 -4.60594 -0.255084 0
M  V30 14942 H 1429.46 -4.33465 -0.170548 0
M  V30 14943 H 1430.13 -5.31954 -1.47409 0
M  V30 14944 H 1432.6 -3.53353 -2.1973 0
M  V30 14945 H 1431.48 -4.41146 -3.26622 0
M  V30 14946 H 1431.74 -2.69124 -3.50749 0
M  V30 14947 N 1430.8 0.469154 -1.50455 0
M  V30 14948 C 1432.21 1.04997 -1.54378 0
M  V30 14949 C 1432.56 1.93082 -0.348414 0
M  V30 14950 O 1431.69 2.09594 0.538469 0
M  V30 14951 C 1432.28 1.91096 -2.79764 0
M  V30 14952 C 1430.84 2.44283 -2.86361 0
M  V30 14953 C 1429.99 1.22676 -2.48688 0
M  V30 14954 H 1432.94 0.251692 -1.56691 0
M  V30 14955 H 1432.96 2.76186 -2.61728 0
M  V30 14956 H 1432.47 1.26961 -3.66746 0
M  V30 14957 H 1430.57 3.11966 -2.03735 0
M  V30 14958 H 1430.69 2.79258 -3.89297 0
M  V30 14959 H 1429.05 1.56215 -2.01169 0
M  V30 14960 H 1429.83 0.602002 -3.37981 0
M  V30 14961 N 1432.28 1.40065 0.722464 0
M  V30 14962 C 1433.56 1.28473 1.47493 0
M  V30 14963 C 1433.94 -0.100058 2.10863 0
M  V30 14964 O 1433.28 -1.11232 1.99599 0
M  V30 14965 C 1433.49 2.41842 2.51621 0
M  V30 14966 C 1434.84 2.81753 3.17648 0
M  V30 14967 O 1435.87 2.41385 2.61939 0
M  V30 14968 O 1434.72 3.51473 4.18484 0
M  V30 14969 H 1431.82 0.504158 0.655556 0
M  V30 14970 H 1434.36 1.51969 0.755223 0
M  V30 14971 H 1433.14 3.34365 2.03263 0
M  V30 14972 H 1432.76 2.20079 3.31136 0
M  V30 14973 N 1433.76 -0.95397 1.25448 0
M  V30 14974 C 1434.67 -2.08452 1.07634 0
M  V30 14975 C 1435.68 -1.73995 0.013294 0
M  V30 14976 O 1436.86 -2.00256 0.214367 0
M  V30 14977 C 1433.92 -3.39606 0.697756 0
M  V30 14978 C 1432.99 -3.87926 1.83881 0
M  V30 14979 C 1432.22 -5.12821 1.47819 0
M  V30 14980 O 1432.44 -5.69172 0.374143 0
M  V30 14981 O 1431.38 -5.55866 2.3086 0
M  V30 14982 H 1435.2 -2.26382 2.02447 0
M  V30 14983 H 1432.79 -1.06877 1.04392 0
M  V30 14984 H 1434.67 -4.18438 0.498778 0
M  V30 14985 H 1433.34 -3.22944 -0.221108 0
M  V30 14986 H 1432.25 -3.10095 2.09265 0
M  V30 14987 H 1433.58 -4.09087 2.73694 0
M  V30 14988 N 1435.24 -1.07045 -1.15668 0
M  V30 14989 C 1436.48 -0.802736 -1.8689 0
M  V30 14990 C 1436.84 0.663897 -1.80583 0
M  V30 14991 O 1436.13 1.48076 -1.2159 0
M  V30 14992 C 1436.32 -1.24127 -3.35153 0
M  V30 14993 C 1436.15 -2.749 -3.55894 0
M  V30 14994 C 1434.92 -3.42466 -3.71544 0
M  V30 14995 C 1437.12 -3.73102 -3.53977 0
M  V30 14996 N 1435.1 -4.81912 -3.80308 0
M  V30 14997 C 1436.47 -4.98371 -3.68817 0
M  V30 14998 C 1438.53 -3.66304 -3.37233 0
M  V30 14999 C 1437.23 -6.17651 -3.68645 0
M  V30 15000 C 1439.26 -4.85045 -3.38357 0
M  V30 15001 C 1438.62 -6.09146 -3.53725 0
M  V30 15002 H 1434.72 -0.346254 -0.701165 0
M  V30 15003 H 1437.3 -1.36609 -1.3873 0
M  V30 15004 H 1435.47 -0.705653 -3.81936 0
M  V30 15005 H 1437.21 -0.92143 -3.94071 0
M  V30 15006 H 1433.96 -2.92871 -3.72187 0
M  V30 15007 H 1434.38 -5.54475 -3.88441 0
M  V30 15008 H 1439.03 -2.71306 -3.24273 0
M  V30 15009 H 1436.74 -7.12975 -3.80384 0
M  V30 15010 H 1440.33 -4.81458 -3.26634 0
M  V30 15011 H 1439.21 -6.99487 -3.54524 0
M  V30 15012 N 1436.71 1.32449 -0.85411 0
M  V30 15013 C 1437.62 2.32658 -0.301221 0
M  V30 15014 C 1438.64 1.64025 0.580673 0
M  V30 15015 O 1439.82 1.95568 0.481172 0
M  V30 15016 C 1436.88 3.43049 0.501803 0
M  V30 15017 C 1435.94 4.27374 -0.406166 0
M  V30 15018 C 1435.17 5.32494 0.358627 0
M  V30 15019 O 1435.4 5.4783 1.58865 0
M  V30 15020 O 1434.33 6.0127 -0.275291 0
M  V30 15021 H 1438.16 2.81838 -1.13143 0
M  V30 15022 H 1435.74 1.36063 -0.617032 0
M  V30 15023 H 1437.62 4.10375 0.957608 0
M  V30 15024 H 1436.3 2.9606 1.30882 0
M  V30 15025 H 1435.21 3.6286 -0.910136 0
M  V30 15026 H 1436.54 4.77887 -1.17835 0
M  V30 15027 N 1438.19 0.611994 1.45232 0
M  V30 15028 C 1439.44 0.109073 2.02506 0
M  V30 15029 C 1439.77 -1.25876 1.47881 0
M  V30 15030 O 1439.05 -1.83131 0.65524 0
M  V30 15031 C 1439.33 0.0749288 3.60022 0
M  V30 15032 C 1439.18 1.47374 4.24972 0
M  V30 15033 C 1440.5 -0.610602 4.35844 0
M  V30 15034 H 1437.62 0.0411101 0.735853 0
M  V30 15035 H 1440.26 0.78481 1.73034 0
M  V30 15036 H 1438.41 -0.500511 3.85262 0
M  V30 15037 H 1440.08 2.0966 4.10902 0
M  V30 15038 H 1438.33 2.03319 3.83202 0
M  V30 15039 H 1439 1.40206 5.33897 0
M  V30 15040 H 1441.47 -0.121445 4.15923 0
M  V30 15041 H 1440.35 -0.603614 5.45571 0
M  V30 15042 H 1440.61 -1.6775 4.09038 0
M  V30 15043 N 1439.67 -1.53632 0.351409 0
M  V30 15044 C 1441.08 -1.86241 -0.130834 0
M  V30 15045 C 1441.43 -1.27243 -1.49344 0
M  V30 15046 O 1440.56 -0.589006 -2.0823 0
M  V30 15047 C 1441.15 -3.37919 -0.244179 0
M  V30 15048 C 1439.71 -3.70377 -0.670662 0
M  V30 15049 C 1438.86 -2.76643 0.190813 0
M  V30 15050 H 1441.81 -1.48083 0.570724 0
M  V30 15051 H 1441.83 -3.65137 -1.07029 0
M  V30 15052 H 1441.34 -3.8083 0.747688 0
M  V30 15053 H 1439.44 -3.33015 -1.67127 0
M  V30 15054 H 1439.56 -4.76934 -0.455102 0
M  V30 15055 H 1437.92 -2.52446 -0.338092 0
M  V30 15056 H 1438.7 -3.22385 1.17996 0
M  V30 15057 N 1441.15 -0.0802183 -1.57396 0
M  V30 15058 C 1442.56 0.276428 -1.57188 0
M  V30 15059 C 1442.76 1.69456 -1.09027 0
M  V30 15060 O 1441.82 2.40792 -0.75997 0
M  V30 15061 C 1443.13 0.0784079 -3.00598 0
M  V30 15062 C 1444.68 0.1473 -3.12653 0
M  V30 15063 C 1445.16 -0.0225423 -4.57994 0
M  V30 15064 N 1446.65 0.0327854 -4.63188 0
M  V30 15065 C 1447.38 -0.0740922 -5.73352 0
M  V30 15066 N 1446.88 -0.234966 -6.92401 0
M  V30 15067 N 1448.67 -0.0164241 -5.62098 0
M  V30 15068 H 1440.82 -1.00695 -1.87014 0
M  V30 15069 H 1443.08 -0.393402 -0.862519 0
M  V30 15070 H 1442.79 -0.900488 -3.39977 0
M  V30 15071 H 1442.66 0.82713 -3.6802 0
M  V30 15072 H 1445.05 1.11669 -2.73156 0
M  V30 15073 H 1445.13 -0.632666 -2.47853 0
M  V30 15074 H 1444.78 -0.988733 -4.98183 0
M  V30 15075 H 1444.71 0.776933 -5.20837 0
M  V30 15076 H 1447.2 0.15519 -3.77581 0
M  V30 15077 H 1447.51 -0.308435 -7.72184 0
M  V30 15078 H 1445.86 -0.270439 -6.94474 0
M  V30 15079 H 1449.05 0.108019 -4.67975 0
M  V30 15080 H 1449.22 -0.10317 -6.47918 0
M  V30 15081 N 1442.63 1.56409 0.193394 0
M  V30 15082 C 1443.54 1.97886 1.26009 0
M  V30 15083 C 1444.55 0.886786 1.49707 0
M  V30 15084 O 1445.73 1.19267 1.62288 0
M  V30 15085 C 1442.79 2.31145 2.58404 0
M  V30 15086 C 1441.85 3.54069 2.42763 0
M  V30 15087 C 1441.09 3.85732 3.68845 0
M  V30 15088 O 1441.31 3.18662 4.73086 0
M  V30 15089 O 1440.24 4.79155 3.64272 0
M  V30 15090 H 1444.07 2.88849 0.938087 0
M  V30 15091 H 1441.65 1.43987 0.398528 0
M  V30 15092 H 1443.54 2.53606 3.36544 0
M  V30 15093 H 1442.21 1.4335 2.90228 0
M  V30 15094 H 1441.12 3.36854 1.62728 0
M  V30 15095 H 1442.45 4.42335 2.15871 0
M  V30 15096 N 1444.1 -0.461169 1.50702 0
M  V30 15097 C 1445.04 -1.57562 1.66453 0
M  V30 15098 C 1446.05 -1.53381 0.545726 0
M  V30 15099 O 1447.24 -1.58589 0.819254 0
M  V30 15100 C 1444.34 -2.9646 1.64209 0
M  V30 15101 C 1443.51 -3.25405 2.92285 0
M  V30 15102 C 1442.57 -4.43906 2.82549 0
M  V30 15103 O 1441.6 -4.43726 3.56505 0
M  V30 15104 N 1442.8 -5.46131 1.96777 0
M  V30 15105 H 1445.56 -1.44463 2.62584 0
M  V30 15106 H 1443.12 -0.649749 1.4829 0
M  V30 15107 H 1445.12 -3.73719 1.55295 0
M  V30 15108 H 1443.69 -3.03278 0.757718 0
M  V30 15109 H 1442.91 -2.36666 3.1525 0
M  V30 15110 H 1444.19 -3.41559 3.77114 0
M  V30 15111 H 1443.59 -5.49103 1.36023 0
M  V30 15112 H 1442.15 -6.22335 1.9376 0
M  V30 15113 N 1445.58 -1.40446 -0.715026 0
M  V30 15114 C 1446.83 -1.38059 -1.47046 0
M  V30 15115 C 1447.14 0.0139125 -1.95595 0
M  V30 15116 O 1448.35 0.160398 -2.71026 0
M  V30 15117 C 1446.81 -2.42646 -2.65802 0
M  V30 15118 C 1446.41 -3.8791 -2.2412 0
M  V30 15119 C 1448.16 -2.49367 -3.43535 0
M  V30 15120 C 1446.06 -4.84092 -3.39719 0
M  V30 15121 H 1444.99 -0.513341 -0.552265 0
M  V30 15122 H 1447.65 -1.66185 -0.778126 0
M  V30 15123 H 1446.03 -2.07621 -3.37208 0
M  V30 15124 H 1447.2 -4.32082 -1.6013 0
M  V30 15125 H 1445.52 -3.8467 -1.5943 0
M  V30 15126 H 1448.11 -3.18414 -4.29554 0
M  V30 15127 H 1448.46 -1.52436 -3.87388 0
M  V30 15128 H 1448.99 -2.83386 -2.79173 0
M  V30 15129 H 1445.73 -5.82358 -3.00898 0
M  V30 15130 H 1445.25 -4.44584 -4.02623 0
M  V30 15131 H 1446.93 -5.03939 -4.05776 0
M  V30 15132 N 1447.06 0.947303 -1.25952 0
M  V30 15133 C 1448.28 1.73261 -1.13997 0
M  V30 15134 C 1448.71 1.85666 0.301639 0
M  V30 15135 O 1448.07 1.34244 1.21854 0
M  V30 15136 C 1448.12 3.12046 -1.8072 0
M  V30 15137 O 1447.22 3.97684 -1.09182 0
M  V30 15138 H 1446.56 0.53182 -0.397572 0
M  V30 15139 H 1449.09 1.18689 -1.66656 0
M  V30 15140 H 1449.1 3.62468 -1.87299 0
M  V30 15141 H 1447.78 3.02334 -2.856 0
M  V30 15142 H 1446.35 3.56141 -1.10536 0
M  V30 15143 N 1448.54 1.07657 1.15099 0
M  V30 15144 C 1449.79 0.796589 1.85303 0
M  V30 15145 C 1450.1 -0.679887 1.83404 0
M  V30 15146 O 1451.31 -1.07475 2.49322 0
M  V30 15147 C 1449.76 1.37495 3.326 0
M  V30 15148 C 1449.37 2.88267 3.42938 0
M  V30 15149 C 1451.11 1.17313 4.07968 0
M  V30 15150 C 1449.02 3.39278 4.84401 0
M  V30 15151 H 1447.95 0.294316 0.694186 0
M  V30 15152 H 1450.6 1.29702 1.29806 0
M  V30 15153 H 1448.98 0.802248 3.87789 0
M  V30 15154 H 1450.16 3.51608 2.9784 0
M  V30 15155 H 1448.47 3.07275 2.81018 0
M  V30 15156 H 1451.07 1.52899 5.12373 0
M  V30 15157 H 1451.41 0.112387 4.16148 0
M  V30 15158 H 1451.95 1.71236 3.59059 0
M  V30 15159 H 1448.69 4.44892 4.81406 0
M  V30 15160 H 1448.21 2.80692 5.30068 0
M  V30 15161 H 1449.88 3.35416 5.53267 0
M  V30 15162 N 1450.02 -1.31994 0.861122 0
M  V30 15163 C 1451.27 -1.96294 0.463868 0
M  V30 15164 C 1451.58 -1.68869 -0.98704 0
M  V30 15165 O 1452.78 -2.26959 -1.49003 0
M  V30 15166 C 1451.24 -3.51377 0.77858 0
M  V30 15167 C 1450.85 -3.87653 2.24565 0
M  V30 15168 C 1452.59 -4.22115 0.449365 0
M  V30 15169 C 1450.5 -5.35809 2.50324 0
M  V30 15170 H 1449.43 -0.734647 0.169733 0
M  V30 15171 H 1452.08 -1.50294 1.0528 0
M  V30 15172 H 1450.46 -3.95821 0.119005 0
M  V30 15173 H 1451.64 -3.54197 2.94755 0
M  V30 15174 H 1449.95 -3.29957 2.54003 0
M  V30 15175 H 1452.55 -5.31103 0.61916 0
M  V30 15176 H 1452.89 -4.11814 -0.609528 0
M  V30 15177 H 1453.42 -3.83276 1.06511 0
M  V30 15178 H 1450.16 -5.51138 3.54863 0
M  V30 15179 H 1449.68 -5.70648 1.84719 0
M  V30 15180 H 1451.36 -6.02968 2.34602 0
M  V30 15181 N 1451.49 -0.619688 -1.44906 0
M  V30 15182 C 1452.91 -0.284338 -1.57047 0
M  V30 15183 C 1453.11 1.21284 -1.60911 0
M  V30 15184 O 1452.17 1.99642 -1.54594 0
M  V30 15185 C 1453.48 -0.966179 -2.84755 0
M  V30 15186 C 1455.03 -0.943239 -2.98449 0
M  V30 15187 C 1455.5 -1.60532 -4.28945 0
M  V30 15188 N 1456.99 -1.57138 -4.35732 0
M  V30 15189 C 1457.73 -2.05271 -5.35399 0
M  V30 15190 N 1457.22 -2.61543 -6.41535 0
M  V30 15191 N 1459.02 -1.95967 -5.26833 0
M  V30 15192 H 1451.17 -1.59167 -1.40641 0
M  V30 15193 H 1453.43 -0.667458 -0.673204 0
M  V30 15194 H 1453.14 -2.02086 -2.87844 0
M  V30 15195 H 1453.01 -0.49688 -3.73913 0
M  V30 15196 H 1455.4 0.102932 -2.9492 0
M  V30 15197 H 1455.48 -1.45092 -2.1067 0
M  V30 15198 H 1455.12 -2.65088 -4.33233 0
M  V30 15199 H 1455.05 -1.07256 -5.15561 0
M  V30 15200 H 1457.54 -1.16042 -3.59643 0
M  V30 15201 H 1457.86 -2.96033 -7.13852 0
M  V30 15202 H 1456.2 -2.65588 -6.42252 0
M  V30 15203 H 1459.39 -1.51734 -4.42825 0
M  V30 15204 H 1459.57 -2.33791 -6.04356 0
M  V30 15205 N 1452.97 1.53444 -0.359552 0
M  V30 15206 C 1453.88 2.29257 0.497834 0
M  V30 15207 C 1454.9 1.34987 1.09793 0
M  V30 15208 O 1456.07 1.68039 1.11017 0
M  V30 15209 C 1453.14 3.06258 1.62502 0
M  V30 15210 C 1452.2 4.16183 1.05308 0
M  V30 15211 C 1451.43 4.89503 2.12655 0
M  V30 15212 O 1451.66 4.6263 3.33661 0
M  V30 15213 O 1450.59 5.75578 1.76051 0
M  V30 15214 H 1454.42 3.03467 -0.118925 0
M  V30 15215 H 1452 1.48884 -0.124111 0
M  V30 15216 H 1453.88 3.5436 2.2805 0
M  V30 15217 H 1452.56 2.3489 2.22729 0
M  V30 15218 H 1451.47 3.72348 0.361679 0
M  V30 15219 H 1452.8 4.897 0.49545 0
M  V30 15220 N 1454.45 0.0885642 1.57351 0
M  V30 15221 C 1455.38 -0.869946 2.16689 0
M  V30 15222 C 1456.36 -1.29878 1.09844 0
M  V30 15223 O 1457.55 -1.36684 1.37954 0
M  V30 15224 C 1454.68 -2.13148 2.74199 0
M  V30 15225 C 1453.63 -1.84149 3.86359 0
M  V30 15226 C 1452.96 -3.17075 4.30543 0
M  V30 15227 C 1454.26 -1.13357 5.09851 0
M  V30 15228 H 1455.95 -0.375578 2.97035 0
M  V30 15229 H 1453.5 -0.17921 1.42881 0
M  V30 15230 H 1455.45 -2.80634 3.14361 0
M  V30 15231 H 1454.17 -2.64856 1.91098 0
M  V30 15232 H 1452.83 -1.19063 3.46727 0
M  V30 15233 H 1452.48 -3.66658 3.44342 0
M  V30 15234 H 1452.18 -2.98457 5.06159 0
M  V30 15235 H 1453.7 -3.85731 4.73333 0
M  V30 15236 H 1455.12 -1.70941 5.47222 0
M  V30 15237 H 1453.52 -1.0494 5.90853 0
M  V30 15238 H 1454.59 -0.115273 4.84763 0
M  V30 15239 N 1455.93 -1.56509 -0.185096 0
M  V30 15240 C 1457.18 -1.80848 -0.902139 0
M  V30 15241 C 1457.5 -0.663295 -1.83372 0
M  V30 15242 O 1456.77 0.317754 -1.93306 0
M  V30 15243 H 1455.35 -0.667108 -0.336119 0
M  V30 15244 H 1458.01 -1.93989 -0.188211 0
M  V30 15245 H 1457.11 -2.74383 -1.48729 0
M  V30 15246 N 1457.41 0.45317 -1.50944 0
M  V30 15247 C 1458.34 1.56678 -1.67287 0
M  V30 15248 C 1459.35 1.53089 -0.553853 0
M  V30 15249 O 1460.54 1.58152 -0.827653 0
M  V30 15250 C 1457.64 2.95585 -1.65779 0
M  V30 15251 C 1456.81 3.2385 -2.94007 0
M  V30 15252 C 1455.87 4.42401 -2.84899 0
M  V30 15253 O 1454.9 4.4183 -3.58853 0
M  V30 15254 N 1456.1 5.4508 -1.99671 0
M  V30 15255 H 1458.87 1.43069 -2.63347 0
M  V30 15256 H 1456.43 0.641875 -1.48632 0
M  V30 15257 H 1458.42 3.7289 -1.57275 0
M  V30 15258 H 1456.99 3.02872 -0.773791 0
M  V30 15259 H 1456.21 2.34991 -3.16501 0
M  V30 15260 H 1457.5 3.39554 -3.7892 0
M  V30 15261 H 1456.89 5.48374 -1.38933 0
M  V30 15262 H 1455.45 6.21298 -1.97057 0
M  V30 15263 N 1458.88 1.40823 0.707568 0
M  V30 15264 C 1460.13 1.39259 1.46463 0
M  V30 15265 C 1460.45 -0.00157854 1.95 0
M  V30 15266 O 1459.72 -0.957723 1.70893 0
M  V30 15267 H 1458.3 0.512558 0.543409 0
M  V30 15268 H 1460.97 1.75952 0.838269 0
M  V30 15269 H 1460.06 2.07243 2.3336 0
M  V30 15270 N 1460.36 -0.94061 1.26453 0
M  V30 15271 C 1461.59 -1.72654 1.14914 0
M  V30 15272 C 1462.01 -1.85823 -0.291789 0
M  V30 15273 O 1461.37 -1.34888 -1.2114 0
M  V30 15274 C 1461.42 -3.11083 1.82372 0
M  V30 15275 O 1460.52 -3.971 1.1129 0
M  V30 15276 H 1459.86 -0.529704 0.400387 0
M  V30 15277 H 1462.39 -1.17803 1.67283 0
M  V30 15278 H 1462.4 -3.6147 1.89219 0
M  V30 15279 H 1461.08 -3.00815 2.87199 0
M  V30 15280 H 1459.66 -3.5555 1.12423 0
M  V30 15281 N 1461.84 -1.08266 -1.14527 0
M  V30 15282 C 1463.09 -0.811459 -1.85531 0
M  V30 15283 C 1463.42 0.662726 -1.82861 0
M  V30 15284 O 1462.67 1.50296 -1.25338 0
M  V30 15285 C 1462.97 -1.27675 -3.33817 0
M  V30 15286 C 1462.64 -2.7585 -3.56676 0
M  V30 15287 C 1461.3 -3.16319 -3.62623 0
M  V30 15288 C 1463.65 -3.71446 -3.65619 0
M  V30 15289 C 1460.98 -4.51183 -3.75035 0
M  V30 15290 C 1463.33 -5.06083 -3.79556 0
M  V30 15291 C 1461.99 -5.4616 -3.83752 0
M  V30 15292 H 1461.26 -0.296934 -0.678904 0
M  V30 15293 H 1463.91 -1.35533 -1.35288 0
M  V30 15294 H 1462.22 -0.65244 -3.86329 0
M  V30 15295 H 1463.91 -1.04369 -3.8718 0
M  V30 15296 H 1460.5 -2.43526 -3.52694 0
M  V30 15297 H 1464.69 -3.41301 -3.60316 0
M  V30 15298 H 1459.94 -4.81689 -3.76545 0
M  V30 15299 H 1464.12 -5.80022 -3.85418 0
M  V30 15300 H 1461.74 -6.50661 -3.93121 0
M  V30 15301 N 1463.32 1.31536 -0.86811 0
M  V30 15302 C 1464.57 1.96386 -0.477176 0
M  V30 15303 C 1464.89 1.68968 0.973381 0
M  V30 15304 O 1464.16 1.00409 1.68211 0
M  V30 15305 H 1462.74 0.726579 -0.173468 0
M  V30 15306 H 1465.4 1.60377 -1.10749 0
M  V30 15307 H 1464.5 3.05606 -0.633376 0
M  V30 15308 N 1464.8 0.627364 1.44575 0
M  V30 15309 C 1465.73 -0.129056 2.27835 0
M  V30 15310 C 1466.71 -0.854852 1.38315 0
M  V30 15311 O 1467.89 -0.859709 1.67754 0
M  V30 15312 C 1465.02 -1.18866 3.17157 0
M  V30 15313 C 1464.07 -0.563816 4.22757 0
M  V30 15314 S 1464.9 0.643269 5.31622 0
M  V30 15315 C 1466.05 -0.416443 6.24513 0
M  V30 15316 H 1466.29 0.577281 2.91641 0
M  V30 15317 H 1463.82 0.415427 1.48706 0
M  V30 15318 H 1465.78 -1.79508 3.69171 0
M  V30 15319 H 1464.44 -1.86717 2.52578 0
M  V30 15320 H 1463.63 -1.36173 4.85256 0
M  V30 15321 H 1463.23 -0.0321045 3.73986 0
M  V30 15322 H 1465.53 -1.29006 6.65104 0
M  V30 15323 H 1466.47 0.172871 7.07889 0
M  V30 15324 H 1466.88 -0.740651 5.5962 0
M  V30 15325 N 1466.28 -1.53251 0.367684 0
M  V30 15326 C 1467.52 -2.01585 -0.221679 0
M  V30 15327 C 1467.85 -1.25444 -1.48248 0
M  V30 15328 O 1467.13 -0.348726 -1.91348 0
M  V30 15329 C 1467.41 -3.56449 -0.511507 0
M  V30 15330 C 1467.27 -4.4328 0.763075 0
M  V30 15331 C 1468.58 -4.20113 -1.31121 0
M  V30 15332 H 1465.7 -0.732743 -0.0790954 0
M  V30 15333 H 1468.35 -1.83493 0.492991 0
M  V30 15334 H 1466.5 -3.71996 -1.12033 0
M  V30 15335 H 1468.17 -4.39526 1.40052 0
M  V30 15336 H 1466.41 -4.11164 1.38299 0
M  V30 15337 H 1467.08 -5.4959 0.515215 0
M  V30 15338 H 1469.56 -4.08412 -0.796169 0
M  V30 15339 H 1468.43 -5.28494 -1.48274 0
M  V30 15340 H 1468.69 -3.76316 -2.32032 0
M  V30 15341 N 1467.75 -0.0969077 -1.57302 0
M  V30 15342 C 1468.98 0.573872 -1.9847 0
M  V30 15343 C 1469.39 1.62149 -0.974894 0
M  V30 15344 O 1468.73 1.83649 0.0434873 0
M  V30 15345 C 1468.8 1.2781 -3.36013 0
M  V30 15346 C 1468.46 0.381022 -4.55409 0
M  V30 15347 C 1469.46 -0.371559 -5.18571 0
M  V30 15348 C 1467.14 0.29855 -5.01412 0
M  V30 15349 C 1469.14 -1.19457 -6.26106 0
M  V30 15350 C 1466.82 -0.528116 -6.08814 0
M  V30 15351 C 1467.82 -1.27333 -6.71026 0
M  V30 15352 O 1467.51 -2.08631 -7.76356 0
M  V30 15353 H 1467.24 0.158369 -0.657187 0
M  V30 15354 H 1469.8 -0.173415 -2.04667 0
M  V30 15355 H 1468.03 2.07199 -3.26505 0
M  V30 15356 H 1469.71 1.84359 -3.61617 0
M  V30 15357 H 1470.48 -0.317586 -4.83959 0
M  V30 15358 H 1466.36 0.868247 -4.5275 0
M  V30 15359 H 1469.9 -1.77673 -6.74595 0
M  V30 15360 H 1465.8 -0.583563 -6.42857 0
M  V30 15361 H 1466.57 -2.01333 -7.93352 0
M  V30 15362 N 1469.23 1.56605 0.176793 0
M  V30 15363 C 1470.14 1.99211 1.23903 0
M  V30 15364 C 1471.16 0.902614 1.48758 0
M  V30 15365 O 1472.33 1.20982 1.61014 0
M  V30 15366 C 1469.4 2.33873 2.55938 0
M  V30 15367 C 1468.46 3.56624 2.38994 0
M  V30 15368 C 1467.69 3.89623 3.64733 0
M  V30 15369 O 1467.92 3.23662 4.6968 0
M  V30 15370 O 1466.85 4.82992 3.5917 0
M  V30 15371 H 1470.68 2.89827 0.907398 0
M  V30 15372 H 1468.26 1.44401 0.383234 0
M  V30 15373 H 1470.14 2.57161 3.33836 0
M  V30 15374 H 1468.82 1.46421 2.88691 0
M  V30 15375 H 1467.72 3.38561 1.59146 0
M  V30 15376 H 1469.06 4.446 2.11167 0
M  V30 15377 N 1470.71 -0.445159 1.51182 0
M  V30 15378 C 1471.96 -1.19288 1.6314 0
M  V30 15379 C 1472.28 -1.91904 0.346109 0
M  V30 15380 O 1471.55 -1.8523 -0.637695 0
M  V30 15381 H 1470.13 -0.443319 0.601229 0
M  V30 15382 H 1472.79 -0.511136 1.88078 0
M  V30 15383 H 1471.89 -1.92672 2.45528 0
M  V30 15384 N 1472.19 -1.41197 -0.700089 0
M  V30 15385 C 1473.12 -1.45456 -1.8266 0
M  V30 15386 C 1474.1 -0.313719 -1.67182 0
M  V30 15387 O 1475.28 -0.524528 -1.86982 0
M  V30 15388 C 1472.41 -1.33161 -3.20758 0
M  V30 15389 C 1471.37 -2.4501 -3.50933 0
M  V30 15390 C 1470.69 -2.17782 -4.88339 0
M  V30 15391 C 1471.99 -3.87352 -3.50365 0
M  V30 15392 H 1473.69 -2.39735 -1.79353 0
M  V30 15393 H 1471.23 -1.1539 -0.861465 0
M  V30 15394 H 1473.19 -1.34754 -3.99274 0
M  V30 15395 H 1471.91 -0.353646 -3.2468 0
M  V30 15396 H 1470.57 -2.42692 -2.74766 0
M  V30 15397 H 1470.22 -1.1834 -4.88881 0
M  V30 15398 H 1469.92 -2.92728 -5.09494 0
M  V30 15399 H 1471.44 -2.21083 -5.6917 0
M  V30 15400 H 1472.86 -3.9141 -4.18893 0
M  V30 15401 H 1471.25 -4.61944 -3.83051 0
M  V30 15402 H 1472.32 -4.15827 -2.4943 0
M  V30 15403 N 1473.67 0.933891 -1.2695 0
M  V30 15404 C 1474.63 2.0152 -1.0919 0
M  V30 15405 C 1475.63 1.60755 -0.037865 0
M  V30 15406 O 1476.82 1.71904 -0.281917 0
M  V30 15407 C 1473.95 3.34403 -0.66239 0
M  V30 15408 H 1475.14 2.18706 -2.05201 0
M  V30 15409 H 1472.7 1.11385 -1.0965 0
M  V30 15410 H 1473.43 3.22915 0.299388 0
M  V30 15411 H 1473.22 3.65345 -1.42356 0
M  V30 15412 H 1474.71 4.13826 -0.560187 0
M  V30 15413 N 1475.14 1.08871 1.13951 0
M  V30 15414 C 1476.56 0.817282 1.37086 0
M  V30 15415 C 1476.76 -0.571159 1.93236 0
M  V30 15416 O 1475.82 -1.32708 2.14813 0
M  V30 15417 C 1477.13 1.90386 2.32752 0
M  V30 15418 C 1478.68 1.93043 2.46381 0
M  V30 15419 C 1479.15 3.00828 3.4535 0
M  V30 15420 N 1480.64 3.0003 3.52897 0
M  V30 15421 C 1481.38 3.80073 4.29339 0
M  V30 15422 N 1480.87 4.70008 5.08984 0
M  V30 15423 N 1482.67 3.68355 4.24583 0
M  V30 15424 H 1474.82 1.98393 0.758537 0
M  V30 15425 H 1477.08 0.861229 0.396219 0
M  V30 15426 H 1476.79 2.90233 1.9864 0
M  V30 15427 H 1476.66 1.77722 3.32708 0
M  V30 15428 H 1479.05 0.938382 2.79783 0
M  V30 15429 H 1479.13 2.09785 1.4637 0
M  V30 15430 H 1478.77 4.00242 3.1268 0
M  V30 15431 H 1478.7 2.8133 4.45153 0
M  V30 15432 H 1481.19 2.3485 2.96064 0
M  V30 15433 H 1481.51 5.27678 5.64602 0
M  V30 15434 H 1479.85 4.74047 5.08236 0
M  V30 15435 H 1483.04 2.9746 3.61435 0
M  V30 15436 H 1483.22 4.30974 4.83906 0
M  V30 15437 N 1476.62 -1.31073 0.875073 0
M  V30 15438 C 1477.87 -1.9613 0.487584 0
M  V30 15439 C 1478.19 -1.69482 -0.964407 0
M  V30 15440 O 1477.46 -1.013 -1.67676 0
M  V30 15441 H 1476.04 -0.725649 0.177319 0
M  V30 15442 H 1478.7 -1.59787 1.11598 0
M  V30 15443 H 1477.8 -3.05265 0.649574 0
M  V30 15444 N 1478.1 -0.635022 -1.4424 0
M  V30 15445 C 1479.03 0.0543561 -2.33437 0
M  V30 15446 C 1480.01 0.830807 -1.48431 0
M  V30 15447 O 1481.2 0.795913 -1.77141 0
M  V30 15448 C 1478.33 1.03391 -3.31553 0
M  V30 15449 C 1477.28 0.368824 -4.26408 0
M  V30 15450 C 1476.61 1.45855 -5.14422 0
M  V30 15451 C 1477.91 -0.727381 -5.1721 0
M  V30 15452 H 1479.6 -0.690489 -2.91329 0
M  V30 15453 H 1477.15 -0.3335 -1.40085 0
M  V30 15454 H 1479.1 1.52495 -3.9284 0
M  V30 15455 H 1477.82 1.80969 -2.71878 0
M  V30 15456 H 1476.48 -0.101605 -3.66459 0
M  V30 15457 H 1476.13 2.22531 -4.51098 0
M  V30 15458 H 1475.83 1.0189 -5.78699 0
M  V30 15459 H 1477.35 1.95132 -5.78581 0
M  V30 15460 H 1478.77 -0.319272 -5.7241 0
M  V30 15461 H 1477.17 -1.09041 -5.9011 0
M  V30 15462 H 1478.24 -1.59292 -4.57989 0
M  V30 15463 N 1479.58 1.53054 -0.375806 0
M  V30 15464 C 1480.49 2.29772 0.47349 0
M  V30 15465 C 1481.5 1.36144 1.08355 0
M  V30 15466 O 1482.68 1.69208 1.09228 0
M  V30 15467 C 1479.75 3.07964 1.59245 0
M  V30 15468 C 1478.81 4.17277 1.00888 0
M  V30 15469 C 1478.04 4.91731 2.07451 0
M  V30 15470 O 1478.26 4.66143 3.28736 0
M  V30 15471 O 1477.2 5.77413 1.69936 0
M  V30 15472 H 1481.02 3.03324 -0.151105 0
M  V30 15473 H 1478.61 1.48744 -0.139895 0
M  V30 15474 H 1480.49 3.56759 2.24279 0
M  V30 15475 H 1479.16 2.37239 2.20226 0
M  V30 15476 H 1478.07 3.7271 0.322167 0
M  V30 15477 H 1479.4 4.90198 0.443483 0
M  V30 15478 N 1481.06 0.105248 1.57248 0
M  V30 15479 C 1482.02 -0.835589 2.13426 0
M  V30 15480 C 1483.02 -1.20398 1.06587 0
M  V30 15481 O 1484.21 -1.13175 1.32428 0
M  V30 15482 C 1481.34 -2.12806 2.6632 0
M  V30 15483 H 1482.53 -0.347606 2.97879 0
M  V30 15484 H 1480.09 -0.143855 1.55637 0
M  V30 15485 H 1480.82 -2.66066 1.85416 0
M  V30 15486 H 1480.61 -1.87352 3.44444 0
M  V30 15487 H 1482.1 -2.80089 3.09741 0
M  V30 15488 N 1482.53 -1.56697 -0.168486 0
M  V30 15489 C 1483.78 -1.81794 -0.882907 0
M  V30 15490 C 1484.1 -0.682707 -1.82658 0
M  V30 15491 O 1483.37 0.297234 -1.93632 0
M  V30 15492 H 1481.95 -0.670636 -0.329024 0
M  V30 15493 H 1484.62 -1.94178 -0.167625 0
M  V30 15494 H 1483.71 -2.75945 -1.45811 0
M  V30 15495 N 1484.01 0.437135 -1.51416 0
M  V30 15496 C 1484.92 1.55581 -1.75589 0
M  V30 15497 C 1485.94 1.61797 -0.640132 0
M  V30 15498 O 1487.11 1.79035 -0.922406 0
M  V30 15499 C 1484.18 2.91561 -1.87598 0
M  V30 15500 C 1483.24 2.9546 -3.11451 0
M  V30 15501 C 1482.47 4.24954 -3.22878 0
M  V30 15502 O 1482.7 5.17341 -2.40238 0
M  V30 15503 O 1481.63 4.35141 -4.15856 0
M  V30 15504 H 1485.46 1.38098 -2.70486 0
M  V30 15505 H 1483.04 0.620163 -1.3592 0
M  V30 15506 H 1484.92 3.72262 -1.97481 0
M  V30 15507 H 1483.6 3.09171 -0.958889 0
M  V30 15508 H 1482.51 2.13713 -3.07046 0
M  V30 15509 H 1483.84 2.82794 -4.0285 0
M  V30 15510 N 1485.49 1.41566 0.692592 0
M  V30 15511 C 1486.4 1.46014 1.83622 0
M  V30 15512 C 1487.42 0.350453 1.70434 0
M  V30 15513 O 1488.59 0.598634 1.92298 0
M  V30 15514 C 1485.66 1.34308 3.19628 0
M  V30 15515 C 1484.72 2.55617 3.44904 0
M  V30 15516 C 1483.95 2.4446 4.74421 0
M  V30 15517 O 1484.17 1.47078 5.51112 0
M  V30 15518 O 1483.11 3.34272 5.00546 0
M  V30 15519 H 1486.93 2.42504 1.82826 0
M  V30 15520 H 1484.52 1.23136 0.846039 0
M  V30 15521 H 1486.4 1.30075 4.00822 0
M  V30 15522 H 1485.08 0.409343 3.21101 0
M  V30 15523 H 1483.98 2.65426 2.63628 0
M  V30 15524 H 1485.32 3.47829 3.48247 0
M  V30 15525 N 1486.97 -0.927146 1.27443 0
M  V30 15526 C 1488.19 -1.71426 1.16739 0
M  V30 15527 C 1488.62 -1.86122 -0.272063 0
M  V30 15528 O 1487.98 -1.36165 -1.19703 0
M  V30 15529 C 1488.02 -3.09131 1.85661 0
M  V30 15530 O 1487.13 -3.95897 1.15495 0
M  V30 15531 H 1486.47 -0.525428 0.405983 0
M  V30 15532 H 1489 -1.16022 1.68523 0
M  V30 15533 H 1489.01 -3.59442 1.93042 0
M  V30 15534 H 1487.68 -2.97752 2.90373 0
M  V30 15535 H 1486.26 -3.54337 1.16187 0
M  V30 15536 N 1488.45 -1.09474 -1.13372 0
M  V30 15537 C 1489.67 -0.852921 -1.88502 0
M  V30 15538 C 1490.09 0.595855 -1.79151 0
M  V30 15539 O 1489.45 1.41019 -1.15845 0
M  V30 15540 C 1489.5 -1.27993 -3.38083 0
M  V30 15541 O 1489.22 -2.67189 -3.47191 0
M  V30 15542 C 1490.72 -1.07056 -4.30179 0
M  V30 15543 H 1487.94 -0.30682 -0.596743 0
M  V30 15544 H 1490.48 -1.45685 -1.43513 0
M  V30 15545 H 1488.64 -0.719879 -3.80653 0
M  V30 15546 H 1489.05 -2.85202 -4.40182 0
M  V30 15547 H 1490.53 -1.4186 -5.3346 0
M  V30 15548 H 1491 -0.00838732 -4.39199 0
M  V30 15549 H 1491.61 -1.61659 -3.93378 0
M  V30 15550 N 1489.92 1.30607 -0.882012 0
M  V30 15551 C 1491.34 1.78418 -0.549892 0
M  V30 15552 C 1491.69 1.72553 0.933797 0
M  V30 15553 O 1490.81 1.30058 1.72956 0
M  V30 15554 C 1491.41 3.2397 -0.991398 0
M  V30 15555 C 1489.97 3.69629 -0.710739 0
M  V30 15556 C 1489.11 2.51127 -1.17602 0
M  V30 15557 H 1492.06 1.17519 -1.06653 0
M  V30 15558 H 1492.08 3.79159 -0.319115 0
M  V30 15559 H 1491.6 3.28207 -2.07128 0
M  V30 15560 H 1489.7 3.70883 0.357273 0
M  V30 15561 H 1489.81 4.61232 -1.29621 0
M  V30 15562 H 1488.17 2.47642 -0.595444 0
M  V30 15563 H 1488.96 2.58103 -2.26358 0
M  V30 15564 N 1491.4 0.642663 1.43901 0
M  V30 15565 C 1492.65 0.152003 2.0223 0
M  V30 15566 C 1492.98 -1.22711 1.50518 0
M  V30 15567 O 1492.26 -1.817 0.693937 0
M  V30 15568 C 1492.54 0.151278 3.59782 0
M  V30 15569 C 1492.39 1.56356 4.2175 0
M  V30 15570 C 1493.71 -0.518016 4.37041 0
M  V30 15571 H 1490.83 0.0567094 0.734815 0
M  V30 15572 H 1493.47 0.821337 1.7133 0
M  V30 15573 H 1491.62 -0.418679 3.86237 0
M  V30 15574 H 1493.29 2.18329 4.06362 0
M  V30 15575 H 1491.54 2.11401 3.78803 0
M  V30 15576 H 1492.21 1.51499 5.30803 0
M  V30 15577 H 1494.68 -0.0331947 4.16087 0
M  V30 15578 H 1493.56 -0.487754 5.46729 0
M  V30 15579 H 1493.82 -1.59036 4.12504 0
M  V30 15580 N 1492.88 -1.52852 0.383918 0
M  V30 15581 C 1493.84 -2.24904 -0.441687 0
M  V30 15582 C 1494.84 -1.26345 -0.99466 0
M  V30 15583 O 1496.03 -1.50484 -0.877513 0
M  V30 15584 C 1493.17 -2.99994 -1.61915 0
M  V30 15585 H 1494.36 -2.99304 0.189047 0
M  V30 15586 H 1491.91 -1.55708 0.135932 0
M  V30 15587 H 1492.65 -2.29882 -2.28746 0
M  V30 15588 H 1492.43 -3.72328 -1.2294 0
M  V30 15589 H 1493.92 -3.54716 -2.20378 0
M  V30 15590 N 1494.36 -0.113586 -1.5719 0
M  V30 15591 C 1495.29 0.835363 -2.18046 0
M  V30 15592 C 1496.27 1.28114 -1.11897 0
M  V30 15593 O 1497.46 1.34472 -1.40111 0
M  V30 15594 C 1494.59 2.08759 -2.77556 0
M  V30 15595 C 1493.54 1.77979 -3.8924 0
M  V30 15596 C 1492.87 3.10185 -4.35533 0
M  V30 15597 C 1494.17 1.05231 -5.11589 0
M  V30 15598 H 1495.86 0.328275 -2.97595 0
M  V30 15599 H 1493.41 0.156456 -1.43148 0
M  V30 15600 H 1495.36 2.75597 -3.18785 0
M  V30 15601 H 1494.08 2.61783 -1.95288 0
M  V30 15602 H 1492.74 1.13532 -3.48577 0
M  V30 15603 H 1492.39 3.61133 -3.50131 0
M  V30 15604 H 1492.09 2.90367 -5.10843 0
M  V30 15605 H 1493.61 3.78151 -4.7941 0
M  V30 15606 H 1495.03 1.62213 -5.49872 0
M  V30 15607 H 1493.42 0.955269 -5.92448 0
M  V30 15608 H 1494.49 0.038137 -4.84885 0
M  V30 15609 N 1495.84 1.56784 0.160173 0
M  V30 15610 C 1496.78 1.97267 1.1981 0
M  V30 15611 C 1497.75 0.83824 1.43397 0
M  V30 15612 O 1498.94 1.09926 1.55952 0
M  V30 15613 C 1496.08 2.34725 2.52979 0
M  V30 15614 C 1495.19 3.61397 2.36677 0
M  V30 15615 C 1494.33 3.88018 3.62789 0
M  V30 15616 C 1493.37 5.08002 3.41468 0
M  V30 15617 N 1492.5 5.30699 4.59677 0
M  V30 15618 H 1497.34 2.85743 0.845878 0
M  V30 15619 H 1494.88 1.41379 0.406249 0
M  V30 15620 H 1496.84 2.54468 3.30608 0
M  V30 15621 H 1495.47 1.49345 2.86175 0
M  V30 15622 H 1494.52 3.49505 1.50167 0
M  V30 15623 H 1495.83 4.49185 2.16875 0
M  V30 15624 H 1494.99 4.08188 4.48851 0
M  V30 15625 H 1493.73 2.98627 3.85582 0
M  V30 15626 H 1492.73 4.87718 2.53793 0
M  V30 15627 H 1493.96 5.98934 3.20086 0
M  V30 15628 H 1491.9 4.44261 4.82668 0
M  V30 15629 H 1491.82 6.1273 4.42829 0
M  V30 15630 H 1493.09 5.55357 5.46991 0
M  V30 15631 N 1497.32 -0.429099 1.51646 0
M  V30 15632 C 1498.54 -1.20006 1.68541 0
M  V30 15633 C 1498.96 -1.84806 0.386264 0
M  V30 15634 O 1498.32 -1.7106 -0.635988 0
M  V30 15635 C 1498.37 -2.27801 2.80694 0
M  V30 15636 O 1498.09 -1.65649 4.05576 0
M  V30 15637 C 1499.59 -3.17927 3.08929 0
M  V30 15638 H 1496.81 -0.361388 0.565367 0
M  V30 15639 H 1499.35 -0.507432 1.98104 0
M  V30 15640 H 1497.51 -2.92766 2.53706 0
M  V30 15641 H 1497.92 -2.36955 4.67924 0
M  V30 15642 H 1499.4 -3.8968 3.90965 0
M  V30 15643 H 1499.87 -3.79157 2.21668 0
M  V30 15644 H 1500.48 -2.58654 3.37606 0
M  V30 15645 N 1498.79 -1.41931 -0.685074 0
M  V30 15646 C 1500.04 -1.42062 -1.44728 0
M  V30 15647 C 1500.37 -0.0332072 -1.94172 0
M  V30 15648 O 1499.65 0.940835 -1.70231 0
M  V30 15649 C 1499.93 -2.43634 -2.65168 0
M  V30 15650 C 1499.78 -3.91525 -2.21423 0
M  V30 15651 C 1501.1 -2.42325 -3.67378 0
M  V30 15652 H 1498.22 -0.517321 -0.524927 0
M  V30 15653 H 1500.86 -1.73277 -0.779419 0
M  V30 15654 H 1499.01 -2.17146 -3.22149 0
M  V30 15655 H 1500.69 -4.28956 -1.69689 0
M  V30 15656 H 1498.93 -4.05886 -1.53099 0
M  V30 15657 H 1499.6 -4.58158 -3.07889 0
M  V30 15658 H 1502.08 -2.65857 -3.20093 0
M  V30 15659 H 1500.95 -3.15391 -4.49243 0
M  V30 15660 H 1501.21 -1.44555 -4.17799 0
M  V30 15661 N 1500.27 0.920374 -1.27933 0
M  V30 15662 C 1501.22 2.04331 -1.11138 0
M  V30 15663 C 1502.21 1.69369 -0.0324493 0
M  V30 15664 O 1503.42 1.78987 -0.190723 0
M  V30 15665 H 1499.79 0.669381 -0.342685 0
M  V30 15666 H 1501.77 2.15641 -2.06256 0
M  V30 15667 C 1500.51 3.38768 -0.783049 0
M  V30 15668 H 1499.84 3.6616 -1.60521 0
M  V30 15669 H 1501.28 4.1809 -0.705448 0
M  V30 15670 C 1499.74 3.32972 0.512927 0
M  V30 15671 O 1500.27 3.70792 1.54519 0
M  V30 15672 N 1498.47 2.86068 0.511232 0
M  V30 15673 H 1498.02 2.55487 -0.329229 0
M  V30 15674 H 1497.98 2.82573 1.3784 0
M  V30 15675 N 1501.75 1.10074 1.1279 0
M  V30 15676 C 1502.66 0.758458 2.22001 0
M  V30 15677 C 1503.68 -0.242438 1.72303 0
M  V30 15678 O 1504.85 -0.0821223 2.01233 0
M  V30 15679 C 1501.92 0.191326 3.46172 0
M  V30 15680 C 1500.98 1.24902 4.10729 0
M  V30 15681 C 1500.21 0.708857 5.28972 0
M  V30 15682 O 1500.43 -0.465993 5.68493 0
M  V30 15683 O 1499.37 1.46703 5.83748 0
M  V30 15684 H 1503.19 1.66997 2.53665 0
M  V30 15685 H 1500.78 0.875604 1.21052 0
M  V30 15686 H 1502.66 -0.121292 4.21225 0
M  V30 15687 H 1501.34 -0.693094 3.16193 0
M  V30 15688 H 1500.24 1.61444 3.37471 0
M  V30 15689 H 1501.58 2.10632 4.44854 0
M  V30 15690 N 1503.23 -1.30138 0.888926 0
M  V30 15691 C 1504.16 -2.3047 0.374934 0
M  V30 15692 C 1505.14 -1.61156 -0.544322 0
M  V30 15693 O 1506.32 -1.88738 -0.457337 0
M  V30 15694 C 1503.45 -3.44896 -0.407935 0
M  V30 15695 C 1502.41 -4.25935 0.419916 0
M  V30 15696 C 1501.73 -5.32452 -0.489797 0
M  V30 15697 C 1503.03 -4.9508 1.66413 0
M  V30 15698 H 1504.73 -2.73711 1.21337 0
M  V30 15699 H 1502.27 -1.31586 0.584899 0
M  V30 15700 H 1504.23 -4.14153 -0.778177 0
M  V30 15701 H 1502.95 -3.0047 -1.28005 0
M  V30 15702 H 1501.61 -3.58372 0.772348 0
M  V30 15703 H 1501.26 -4.84273 -1.35974 0
M  V30 15704 H 1500.96 -5.87569 0.0603412 0
M  V30 15705 H 1502.48 -6.04563 -0.856468 0
M  V30 15706 H 1503.9 -5.56831 1.36425 0
M  V30 15707 H 1502.29 -5.6008 2.15477 0
M  V30 15708 H 1503.36 -4.20981 2.4063 0
M  V30 15709 N 1504.71 -0.650285 -1.43559 0
M  V30 15710 C 1505.67 0.0336325 -2.29175 0
M  V30 15711 C 1506.67 0.753465 -1.42055 0
M  V30 15712 O 1507.86 0.595158 -1.63718 0
M  V30 15713 C 1504.99 1.05835 -3.24055 0
M  V30 15714 H 1506.18 -0.719643 -2.91138 0
M  V30 15715 H 1503.74 -0.411363 -1.5079 0
M  V30 15716 H 1504.47 1.84096 -2.66982 0
M  V30 15717 H 1504.26 0.545884 -3.88281 0
M  V30 15718 H 1505.75 1.53606 -3.88323 0
M  V30 15719 N 1506.18 1.52647 -0.392018 0
M  V30 15720 C 1507.41 2.06511 0.191815 0
M  V30 15721 C 1507.83 1.26162 1.39516 0
M  V30 15722 O 1507.19 0.287373 1.79008 0
M  V30 15723 C 1507.24 3.56571 0.537512 0
M  V30 15724 O 1506.34 3.78774 1.63106 0
M  V30 15725 H 1505.68 0.663647 0.0216546 0
M  V30 15726 H 1508.21 1.96779 -0.560274 0
M  V30 15727 H 1508.22 4.00059 0.801044 0
M  V30 15728 H 1506.9 4.14489 -0.342239 0
M  V30 15729 H 1505.48 3.47175 1.36103 0
M  V30 15730 N 1507.66 0.121921 1.57128 0
M  V30 15731 C 1509.07 -0.402991 1.82299 0
M  V30 15732 C 1509.42 -1.66415 1.03925 0
M  V30 15733 O 1508.55 -2.14623 0.27674 0
M  V30 15734 C 1509.14 -0.737913 3.30666 0
M  V30 15735 C 1507.7 -1.20745 3.56508 0
M  V30 15736 C 1506.85 -0.217628 2.76445 0
M  V30 15737 H 1509.8 0.347009 1.5486 0
M  V30 15738 H 1509.82 -1.59505 3.45454 0
M  V30 15739 H 1509.33 0.180162 3.87682 0
M  V30 15740 H 1507.44 -2.14232 3.04853 0
M  V30 15741 H 1507.55 -1.15075 4.65075 0
M  V30 15742 H 1505.91 -0.705253 2.44741 0
M  V30 15743 H 1506.7 0.693596 3.3622 0
M  V30 15744 N 1509.14 -1.56867 -0.151857 0
M  V30 15745 C 1510.56 -1.51422 -0.504328 0
M  V30 15746 C 1510.76 -0.829524 -1.83633 0
M  V30 15747 O 1509.81 -0.398018 -2.49343 0
M  V30 15748 C 1511.13 -2.96185 -0.519117 0
M  V30 15749 C 1512.67 -3.07098 -0.60497 0
M  V30 15750 C 1513.15 -4.53357 -0.650468 0
M  V30 15751 N 1514.64 -4.57682 -0.712825 0
M  V30 15752 C 1515.37 -5.68221 -0.768931 0
M  V30 15753 N 1514.87 -6.88342 -0.784678 0
M  V30 15754 N 1516.66 -5.56241 -0.809441 0
M  V30 15755 H 1508.81 -1.99777 0.721316 0
M  V30 15756 H 1511.08 -0.910951 0.262436 0
M  V30 15757 H 1510.78 -3.49516 0.391315 0
M  V30 15758 H 1510.66 -3.51877 -1.35876 0
M  V30 15759 H 1513.04 -2.53789 -1.50582 0
M  V30 15760 H 1513.13 -2.54458 0.261722 0
M  V30 15761 H 1512.77 -5.07303 0.246207 0
M  V30 15762 H 1512.7 -5.03775 -1.53358 0
M  V30 15763 H 1515.19 -3.71206 -0.708151 0
M  V30 15764 H 1515.5 -7.68339 -0.829202 0
M  V30 15765 H 1513.85 -6.90913 -0.752634 0
M  V30 15766 H 1517.04 -4.61312 -0.794274 0
M  V30 15767 H 1517.21 -6.42405 -0.849701 0
M  V30 15768 N 1510.62 0.421051 -1.51871 0
M  V30 15769 C 1511.53 1.5371 -1.7723 0
M  V30 15770 C 1512.54 1.61109 -0.657256 0
M  V30 15771 O 1513.72 1.78047 -0.941343 0
M  V30 15772 C 1510.79 2.89555 -1.9068 0
M  V30 15773 C 1509.85 2.9214 -3.14567 0
M  V30 15774 C 1509.08 4.21505 -3.27367 0
M  V30 15775 O 1509.3 5.14764 -2.45712 0
M  V30 15776 O 1508.24 4.30706 -4.20448 0
M  V30 15777 H 1512.06 1.35221 -2.71935 0
M  V30 15778 H 1509.65 0.605712 -1.3657 0
M  V30 15779 H 1511.53 3.70147 -2.01418 0
M  V30 15780 H 1510.2 3.08137 -0.991627 0
M  V30 15781 H 1509.11 2.10444 -3.09296 0
M  V30 15782 H 1510.44 2.78505 -4.05827 0
M  V30 15783 N 1512.1 1.42293 0.677538 0
M  V30 15784 C 1513.34 1.44099 1.44965 0
M  V30 15785 C 1513.7 0.0545275 1.91923 0
M  V30 15786 O 1514.9 -0.0526718 2.68748 0
M  V30 15787 C 1513.17 2.43462 2.61651 0
M  V30 15788 S 1514.73 2.63947 3.50538 0
M  V30 15789 H 1511.55 0.51024 0.495153 0
M  V30 15790 H 1514.15 1.78874 0.788939 0
M  V30 15791 H 1512.86 3.42971 2.25387 0
M  V30 15792 H 1512.39 2.10102 3.32597 0
M  V30 15793 H 1514.4 1.92042 4.57531 0
M  V30 15794 N 1513.57 -0.913576 1.28419 0
M  V30 15795 C 1514.82 -1.65731 1.14961 0
M  V30 15796 C 1515.14 -1.93269 -0.301079 0
M  V30 15797 O 1516.34 -2.6573 -0.556778 0
M  V30 15798 C 1514.8 -2.98562 2.00969 0
M  V30 15799 C 1514.41 -2.78671 3.5078 0
M  V30 15800 C 1516.15 -3.76439 1.96198 0
M  V30 15801 C 1514.06 -4.07144 4.28938 0
M  V30 15802 H 1512.99 -0.621681 0.426648 0
M  V30 15803 H 1515.64 -1.0138 1.52952 0
M  V30 15804 H 1514.02 -3.64049 1.55835 0
M  V30 15805 H 1515.19 -2.21864 4.03873 0
M  V30 15806 H 1513.51 -2.14206 3.57078 0
M  V30 15807 H 1516.11 -4.71668 2.51861 0
M  V30 15808 H 1516.45 -4.05577 0.938771 0
M  V30 15809 H 1516.98 -3.17772 2.39303 0
M  V30 15810 H 1513.72 -3.83178 5.31841 0
M  V30 15811 H 1513.24 -4.63562 3.80619 0
M  V30 15812 H 1514.92 -4.754 4.38866 0
M  V30 15813 N 1515.05 -1.1067 -1.12204 0
M  V30 15814 C 1515.96 -0.770221 -2.21596 0
M  V30 15815 C 1516.98 0.233297 -1.72429 0
M  V30 15816 O 1518.15 0.0714493 -2.01273 0
M  V30 15817 C 1515.22 -0.209682 -3.46065 0
M  V30 15818 C 1514.28 -1.27079 -4.1006 0
M  V30 15819 C 1513.51 -0.736899 -5.28588 0
M  V30 15820 O 1513.74 0.435838 -5.68732 0
M  V30 15821 O 1512.67 -1.49797 -5.82962 0
M  V30 15822 H 1516.5 -1.6834 -2.52776 0
M  V30 15823 H 1514.08 -0.882012 -1.20586 0
M  V30 15824 H 1515.96 0.0989516 -4.21284 0
M  V30 15825 H 1514.64 0.676316 -3.16556 0
M  V30 15826 H 1513.55 -1.63231 -3.3661 0
M  V30 15827 H 1514.88 -2.12989 -4.4373 0
M  V30 15828 N 1516.53 1.29665 -0.895815 0
M  V30 15829 C 1517.78 1.95716 -0.519752 0
M  V30 15830 C 1518.11 1.7065 0.933212 0
M  V30 15831 O 1517.36 1.01014 1.67615 0
M  V30 15832 C 1517.66 3.49355 -0.754025 0
M  V30 15833 C 1517.33 3.94491 -2.18375 0
M  V30 15834 C 1515.99 4.06526 -2.57468 0
M  V30 15835 C 1518.34 4.17874 -3.11498 0
M  V30 15836 C 1515.67 4.39311 -3.88874 0
M  V30 15837 C 1518.02 4.52132 -4.42447 0
M  V30 15838 C 1516.68 4.62376 -4.81419 0
M  V30 15839 H 1515.95 0.716176 -0.190191 0
M  V30 15840 H 1518.6 1.54333 -1.13373 0
M  V30 15841 H 1516.91 3.91758 -0.0570932 0
M  V30 15842 H 1518.6 3.98551 -0.442493 0
M  V30 15843 H 1515.19 3.85638 -1.87033 0
M  V30 15844 H 1519.38 4.08046 -2.8251 0
M  V30 15845 H 1514.63 4.45444 -4.18795 0
M  V30 15846 H 1518.81 4.69175 -5.14634 0
M  V30 15847 H 1516.43 4.87535 -5.83278 0
M  V30 15848 N 1518.01 0.657889 1.43212 0
M  V30 15849 C 1518.94 -0.0172114 2.33494 0
M  V30 15850 C 1519.92 -0.807087 1.49733 0
M  V30 15851 O 1521.1 -0.767631 1.78385 0
M  V30 15852 C 1518.23 -0.981029 3.33156 0
M  V30 15853 C 1517.19 -0.30094 4.26941 0
M  V30 15854 C 1516.51 -1.37653 5.16678 0
M  V30 15855 C 1517.81 0.809572 5.15988 0
M  V30 15856 H 1519.51 0.736749 2.90194 0
M  V30 15857 H 1517.05 0.355744 1.39537 0
M  V30 15858 H 1519.01 -1.46226 3.95216 0
M  V30 15859 H 1517.73 -1.76621 2.74723 0
M  V30 15860 H 1516.39 0.159893 3.66251 0
M  V30 15861 H 1516.04 -2.15326 4.54581 0
M  V30 15862 H 1515.74 -0.926704 5.80246 0
M  V30 15863 H 1517.26 -1.85903 5.81612 0
M  V30 15864 H 1518.68 0.410297 5.7183 0
M  V30 15865 H 1517.07 1.18415 5.88301 0
M  V30 15866 H 1518.14 1.66558 4.55397 0
M  V30 15867 N 1519.49 -1.52437 0.400108 0
M  V30 15868 C 1520.43 -2.26763 -0.429799 0
M  V30 15869 C 1521.4 -1.28808 -1.0487 0
M  V30 15870 O 1522.59 -1.57655 -1.07468 0
M  V30 15871 C 1519.73 -3.08564 -1.54539 0
M  V30 15872 C 1518.84 -4.21463 -0.948294 0
M  V30 15873 C 1517.98 -4.9064 -2.03584 0
M  V30 15874 C 1517.02 -5.95515 -1.4152 0
M  V30 15875 N 1516.15 -6.58245 -2.4425 0
M  V30 15876 H 1520.99 -2.97256 0.210467 0
M  V30 15877 H 1518.53 -1.46645 0.115627 0
M  V30 15878 H 1520.49 -3.54289 -2.20307 0
M  V30 15879 H 1519.12 -2.40259 -2.15582 0
M  V30 15880 H 1518.17 -3.79974 -0.179918 0
M  V30 15881 H 1519.48 -4.96722 -0.454845 0
M  V30 15882 H 1518.64 -5.39724 -2.77097 0
M  V30 15883 H 1517.37 -4.14929 -2.56291 0
M  V30 15884 H 1516.38 -5.45759 -0.665354 0
M  V30 15885 H 1517.6 -6.73164 -0.89593 0
M  V30 15886 H 1515.55 -5.85369 -2.96107 0
M  V30 15887 H 1515.47 -7.2915 -1.99692 0
M  V30 15888 H 1516.74 -7.1197 -3.17362 0
M  V30 15889 N 1520.96 -0.130252 -1.57061 0
M  V30 15890 C 1521.87 0.829198 -2.19457 0
M  V30 15891 C 1522.89 1.2843 -1.17395 0
M  V30 15892 O 1524.07 1.34496 -1.49909 0
M  V30 15893 C 1521.13 2.05727 -2.79065 0
M  V30 15894 C 1520.19 1.65301 -3.962 0
M  V30 15895 C 1519.43 2.82253 -4.52956 0
M  V30 15896 O 1519.65 3.97999 -4.08598 0
M  V30 15897 O 1518.58 2.5869 -5.43473 0
M  V30 15898 H 1522.41 0.328139 -3.01922 0
M  V30 15899 H 1519.99 0.0959361 -1.49092 0
M  V30 15900 H 1521.88 2.7763 -3.17017 0
M  V30 15901 H 1520.55 2.54817 -1.99624 0
M  V30 15902 H 1519.46 0.904712 -3.62996 0
M  V30 15903 H 1520.79 1.20942 -4.7711 0
M  V30 15904 N 1522.44 1.56945 0.143535 0
M  V30 15905 C 1523.41 1.97616 1.16106 0
M  V30 15906 C 1524.41 0.863113 1.35672 0
M  V30 15907 O 1525.6 1.12966 1.32606 0
M  V30 15908 C 1522.73 2.29511 2.52067 0
M  V30 15909 H 1523.92 2.88696 0.812066 0
M  V30 15910 H 1521.47 1.51433 0.386999 0
M  V30 15911 H 1522.21 1.41233 2.91931 0
M  V30 15912 H 1521.99 3.10667 2.39225 0
M  V30 15913 H 1523.48 2.61802 3.25345 0
M  V30 15914 N 1523.92 -0.412991 1.52093 0
M  V30 15915 C 1525.15 -1.18667 1.70096 0
M  V30 15916 C 1525.57 -1.83622 0.408012 0
M  V30 15917 O 1524.93 -1.69847 -0.634174 0
M  V30 15918 C 1524.98 -2.22837 2.83507 0
M  V30 15919 O 1524.08 -3.2889 2.48807 0
M  V30 15920 H 1523.42 -0.346581 0.566373 0
M  V30 15921 H 1525.95 -0.484642 1.98777 0
M  V30 15922 H 1525.96 -2.67229 3.08306 0
M  V30 15923 H 1524.64 -1.74942 3.77317 0
M  V30 15924 H 1523.21 -2.89804 2.34665 0
M  V30 15925 N 1525.4 -1.4265 -0.669982 0
M  V30 15926 C 1526.65 -1.43589 -1.43213 0
M  V30 15927 C 1526.98 -0.0537998 -1.94125 0
M  V30 15928 O 1526.25 0.922727 -1.71219 0
M  V30 15929 C 1526.54 -2.46433 -2.62569 0
M  V30 15930 C 1526.39 -3.93851 -2.17258 0
M  V30 15931 C 1527.71 -2.46208 -3.64787 0
M  V30 15932 H 1524.83 -0.522859 -0.519411 0
M  V30 15933 H 1527.47 -1.74094 -0.760997 0
M  V30 15934 H 1525.62 -2.20551 -3.19828 0
M  V30 15935 H 1527.29 -4.30732 -1.6513 0
M  V30 15936 H 1525.53 -4.07487 -1.48786 0
M  V30 15937 H 1526.21 -4.61398 -3.03012 0
M  V30 15938 H 1528.68 -2.69237 -3.17255 0
M  V30 15939 H 1527.56 -3.20138 -4.45873 0
M  V30 15940 H 1527.82 -1.48979 -4.16242 0
M  V30 15941 N 1526.88 0.906753 -1.28902 0
M  V30 15942 C 1527.81 2.01159 -1.07752 0
M  V30 15943 C 1528.79 1.62598 0.00851506 0
M  V30 15944 O 1529.97 1.87973 -0.140797 0
M  V30 15945 C 1527.1 3.3262 -0.638877 0
M  V30 15946 C 1526.15 3.90166 -1.72258 0
M  V30 15947 S 1526.98 4.20147 -3.32019 0
M  V30 15948 C 1528.13 5.5466 -2.90006 0
M  V30 15949 H 1528.37 2.18791 -2.01291 0
M  V30 15950 H 1525.9 1.05249 -1.12969 0
M  V30 15951 H 1527.86 4.08619 -0.392507 0
M  V30 15952 H 1526.52 3.12878 0.276792 0
M  V30 15953 H 1525.71 4.85095 -1.36745 0
M  V30 15954 H 1525.31 3.20829 -1.92211 0
M  V30 15955 H 1527.61 6.34839 -2.36612 0
M  V30 15956 H 1528.55 5.95092 -3.83759 0
M  V30 15957 H 1528.96 5.16181 -2.28511 0
M  V30 15958 N 1528.36 1.11264 1.11616 0
M  V30 15959 C 1529.3 0.769295 2.17602 0
M  V30 15960 C 1530.27 -0.258362 1.64078 0
M  V30 15961 O 1531.46 -0.135698 1.90317 0
M  V30 15962 C 1528.6 0.216647 3.44419 0
M  V30 15963 C 1527.71 1.30064 4.11955 0
M  V30 15964 C 1526.85 0.708729 5.26451 0
M  V30 15965 C 1525.88 1.7727 5.85868 0
M  V30 15966 N 1525.02 1.20042 6.91762 0
M  V30 15967 H 1529.86 1.67727 2.46316 0
M  V30 15968 H 1527.4 0.83764 1.20921 0
M  V30 15969 H 1529.36 -0.121724 4.17022 0
M  V30 15970 H 1527.99 -0.654525 3.16095 0
M  V30 15971 H 1527.04 1.756 3.37445 0
M  V30 15972 H 1528.35 2.1057 4.52174 0
M  V30 15973 H 1527.5 0.320307 6.05854 0
M  V30 15974 H 1526.24 -0.127668 4.87533 0
M  V30 15975 H 1525.25 2.17046 5.05145 0
M  V30 15976 H 1526.47 2.6121 6.26854 0
M  V30 15977 H 1524.42 0.385633 6.54866 0
M  V30 15978 H 1524.34 1.94221 7.30626 0
M  V30 15979 H 1525.6 0.838825 7.74974 0
M  V30 15980 N 1529.83 -1.29188 0.902679 0
M  V30 15981 C 1530.8 -2.25901 0.387485 0
M  V30 15982 C 1531.8 -1.53469 -0.479993 0
M  V30 15983 O 1532.99 -1.71859 -0.284623 0
M  V30 15984 C 1530.12 -3.37974 -0.445723 0
M  V30 15985 H 1531.31 -2.72988 1.24167 0
M  V30 15986 H 1528.86 -1.4068 0.681083 0
M  V30 15987 H 1529.6 -2.9623 -1.31977 0
M  V30 15988 H 1529.38 -3.91705 0.175899 0
M  V30 15989 H 1530.87 -4.09917 -0.797384 0
M  V30 15990 N 1531.31 -0.665475 -1.42861 0
M  V30 15991 C 1532.56 -0.183884 -2.01663 0
M  V30 15992 C 1532.89 1.2064 -1.52566 0
M  V30 15993 O 1532.14 1.82191 -0.714479 0
M  V30 15994 C 1532.44 -0.156963 -3.57055 0
M  V30 15995 C 1532.11 -1.49065 -4.25547 0
M  V30 15996 C 1530.77 -1.85584 -4.43973 0
M  V30 15997 C 1533.12 -2.36942 -4.64228 0
M  V30 15998 C 1530.45 -3.09622 -4.98348 0
M  V30 15999 C 1532.8 -3.60284 -5.19979 0
M  V30 16000 C 1531.46 -3.96984 -5.36619 0
M  V30 16001 H 1530.73 -0.0672879 -0.737939 0
M  V30 16002 H 1533.38 -0.858614 -1.71173 0
M  V30 16003 H 1531.69 0.601253 -3.87159 0
M  V30 16004 H 1533.38 0.232721 -4.00324 0
M  V30 16005 H 1529.97 -1.19653 -4.11559 0
M  V30 16006 H 1534.16 -2.10015 -4.49675 0
M  V30 16007 H 1529.41 -3.3809 -5.09417 0
M  V30 16008 H 1533.59 -4.28586 -5.48896 0
M  V30 16009 H 1531.21 -4.93175 -5.78518 0
M  V30 16010 N 1532.79 1.52222 -0.408187 0
M  V30 16011 C 1533.74 2.26988 0.417767 0
M  V30 16012 C 1534.71 1.29362 1.04185 0
M  V30 16013 O 1535.89 1.58223 1.06631 0
M  V30 16014 C 1533.03 3.09379 1.52901 0
M  V30 16015 C 1532.14 4.2196 0.92593 0
M  V30 16016 C 1531.28 4.91712 2.00979 0
M  V30 16017 C 1530.32 5.96258 1.3836 0
M  V30 16018 N 1529.46 6.59531 2.40756 0
M  V30 16019 H 1534.3 2.9714 -0.226228 0
M  V30 16020 H 1531.83 1.46581 -0.123402 0
M  V30 16021 H 1533.79 3.55452 2.18425 0
M  V30 16022 H 1532.42 2.41399 2.14304 0
M  V30 16023 H 1531.47 3.80064 0.159765 0
M  V30 16024 H 1532.78 4.96956 0.428497 0
M  V30 16025 H 1531.94 5.41186 2.74231 0
M  V30 16026 H 1530.68 4.16282 2.54087 0
M  V30 16027 H 1529.68 5.46104 0.636402 0
M  V30 16028 H 1530.91 6.7363 0.860218 0
M  V30 16029 H 1528.85 5.86931 2.92999 0
M  V30 16030 H 1528.77 7.30198 1.95822 0
M  V30 16031 H 1530.04 7.13643 3.13581 0
M  V30 16032 N 1534.27 0.138579 1.5699 0
M  V30 16033 C 1535.51 -0.517479 1.97741 0
M  V30 16034 C 1535.87 -1.62587 1.02125 0
M  V30 16035 O 1537.07 -2.3422 1.31888 0
M  V30 16036 C 1535.34 -1.01841 3.42583 0
M  V30 16037 S 1536.9 -1.68025 4.05355 0
M  V30 16038 H 1533.72 -0.167594 0.690965 0
M  V30 16039 H 1536.32 0.2283 1.94162 0
M  V30 16040 H 1535.03 -0.200832 4.09908 0
M  V30 16041 H 1534.56 -1.79901 3.49856 0
M  V30 16042 H 1536.57 -2.96708 3.97717 0
M  V30 16043 N 1535.75 -1.57019 -0.13521 0
M  V30 16044 C 1536.7 -1.95569 -1.17203 0
M  V30 16045 C 1537.68 -0.828483 -1.37931 0
M  V30 16046 O 1538.87 -1.09205 -1.39295 0
M  V30 16047 C 1536 -2.34984 -2.50275 0
M  V30 16048 C 1535.09 -3.54302 -2.3309 0
M  V30 16049 N 1535.48 -4.70484 -1.85684 0
M  V30 16050 C 1533.78 -3.59617 -2.63802 0
M  V30 16051 C 1534.48 -5.52553 -1.81823 0
M  V30 16052 N 1533.45 -4.94589 -2.25572 0
M  V30 16053 H 1537.25 -2.82865 -0.79779 0
M  V30 16054 H 1534.77 -1.58733 -0.343142 0
M  V30 16055 H 1536.77 -2.60812 -3.25243 0
M  V30 16056 H 1535.43 -1.49045 -2.88471 0
M  V30 16057 H 1536.44 -4.94013 -1.55472 0
M  V30 16058 H 1533.11 -2.84247 -3.05794 0
M  V30 16059 H 1534.5 -6.5572 -1.46562 0
M  V30 16060 N 1537.22 0.404919 -1.52309 0
M  V30 16061 C 1538.17 1.49281 -1.72334 0
M  V30 16062 C 1539.16 1.50188 -0.577267 0
M  V30 16063 O 1540.35 1.56093 -0.834497 0
M  V30 16064 C 1537.48 2.87166 -1.88123 0
M  V30 16065 C 1536.57 2.90891 -3.08615 0
M  V30 16066 N 1536.96 2.64307 -4.31249 0
M  V30 16067 C 1535.25 3.2206 -3.08535 0
M  V30 16068 C 1535.96 2.74708 -5.12748 0
M  V30 16069 N 1534.93 3.07766 -4.48086 0
M  V30 16070 H 1538.73 1.2753 -2.64789 0
M  V30 16071 H 1536.25 0.61268 -1.50399 0
M  V30 16072 H 1538.24 3.65473 -2.00587 0
M  V30 16073 H 1536.9 3.09913 -0.968712 0
M  V30 16074 H 1537.92 2.38624 -4.59651 0
M  V30 16075 H 1534.59 3.50373 -2.27035 0
M  V30 16076 H 1535.98 2.57835 -6.2046 0
M  V30 16077 N 1538.7 1.43003 0.662408 0
M  V30 16078 C 1539.95 1.44346 1.4245 0
M  V30 16079 C 1540.28 0.064094 1.94094 0
M  V30 16080 O 1539.56 -0.913633 1.71706 0
M  V30 16081 C 1539.84 2.47822 2.61259 0
M  V30 16082 C 1539.69 3.94998 2.15166 0
M  V30 16083 C 1541.01 2.48139 3.63476 0
M  V30 16084 H 1538.13 0.525606 0.51663 0
M  V30 16085 H 1540.77 1.74495 0.751754 0
M  V30 16086 H 1538.92 2.22244 3.18653 0
M  V30 16087 H 1540.59 4.31601 1.62843 0
M  V30 16088 H 1538.84 4.0827 1.46622 0
M  V30 16089 H 1539.51 4.62998 3.00561 0
M  V30 16090 H 1541.98 2.70916 3.15823 0
M  V30 16091 H 1540.86 3.22498 4.44169 0
M  V30 16092 H 1541.12 1.51184 4.15447 0
M  V30 16093 N 1540.18 -0.899904 1.29381 0
M  V30 16094 C 1541.43 -1.65282 1.17515 0
M  V30 16095 C 1541.76 -1.92275 -0.272788 0
M  V30 16096 O 1541.03 -1.53303 -1.19701 0
M  V30 16097 C 1541.32 -3.00207 1.98867 0
M  V30 16098 C 1541.17 -2.80281 3.51799 0
M  V30 16099 C 1542.49 -4.00936 1.81489 0
M  V30 16100 H 1539.61 -0.5998 0.428263 0
M  V30 16101 H 1542.25 -1.04241 1.58852 0
M  V30 16102 H 1540.4 -3.52308 1.63741 0
M  V30 16103 H 1542.07 -2.35082 3.96905 0
M  V30 16104 H 1540.32 -2.15068 3.76733 0
M  V30 16105 H 1540.99 -3.76155 4.03994 0
M  V30 16106 H 1543.46 -3.57944 2.12169 0
M  V30 16107 H 1542.34 -4.9328 2.4076 0
M  V30 16108 H 1542.6 -4.35342 0.770021 0
M  V30 16109 N 1541.66 -1.11854 -1.11024 0
M  V30 16110 C 1543.07 -0.853341 -1.34871 0
M  V30 16111 C 1543.27 0.519725 -1.94682 0
M  V30 16112 O 1542.33 1.26966 -2.18256 0
M  V30 16113 C 1543.64 -1.9649 -2.27623 0
M  V30 16114 C 1545.19 -1.99507 -2.41176 0
M  V30 16115 C 1545.67 -3.09879 -3.37253 0
M  V30 16116 N 1547.16 -3.09281 -3.44818 0
M  V30 16117 C 1547.89 -3.91322 -4.19111 0
M  V30 16118 N 1547.39 -4.83337 -4.96344 0
M  V30 16119 N 1549.18 -3.79483 -4.14667 0
M  V30 16120 H 1541.33 -2.00335 -0.70567 0
M  V30 16121 H 1543.6 -0.871431 -0.373245 0
M  V30 16122 H 1543.3 -2.95397 -1.90875 0
M  V30 16123 H 1543.18 -1.86481 -3.27879 0
M  V30 16124 H 1545.56 -1.01223 -2.77196 0
M  V30 16125 H 1545.64 -2.13592 -1.40756 0
M  V30 16126 H 1545.29 -4.08391 -3.01959 0
M  V30 16127 H 1545.22 -2.93033 -4.37537 0
M  V30 16128 H 1547.71 -2.42617 -2.89733 0
M  V30 16129 H 1548.02 -5.42462 -5.50413 0
M  V30 16130 H 1546.37 -4.87356 -4.95489 0
M  V30 16131 H 1549.56 -3.06938 -3.53421 0
M  V30 16132 H 1549.73 -4.43653 -4.72309 0
M  V30 16133 N 1543.14 1.28707 -0.909517 0
M  V30 16134 C 1544.07 2.29845 -0.411552 0
M  V30 16135 C 1545.05 1.62001 0.518615 0
M  V30 16136 O 1546.23 1.89442 0.427252 0
M  V30 16137 C 1543.36 3.45501 0.353013 0
M  V30 16138 C 1542.32 4.25213 -0.487625 0
M  V30 16139 C 1541.64 5.33164 0.405026 0
M  V30 16140 C 1542.94 4.9237 -1.74268 0
M  V30 16141 H 1544.64 2.71746 -1.25676 0
M  V30 16142 H 1542.18 1.30639 -0.605759 0
M  V30 16143 H 1544.14 4.15338 0.712191 0
M  V30 16144 H 1542.86 3.02469 1.23209 0
M  V30 16145 H 1541.52 3.57098 -0.829265 0
M  V30 16146 H 1541.17 4.86375 1.28252 0
M  V30 16147 H 1540.87 5.87399 -0.153811 0
M  V30 16148 H 1542.39 6.0585 0.760179 0
M  V30 16149 H 1543.8 5.5459 -1.45266 0
M  V30 16150 H 1542.2 5.56581 -2.2436 0
M  V30 16151 H 1543.27 4.171 -2.47297 0
M  V30 16152 N 1544.61 0.673042 1.42506 0
M  V30 16153 C 1545.54 0.00755467 2.33499 0
M  V30 16154 C 1546.53 -0.791161 1.50581 0
M  V30 16155 O 1547.71 -0.748668 1.79189 0
M  V30 16156 C 1544.84 -0.945638 3.34178 0
M  V30 16157 C 1543.79 -0.25564 4.27236 0
M  V30 16158 C 1543.12 -1.32165 5.18109 0
M  V30 16159 C 1544.42 0.864254 5.151 0
M  V30 16160 H 1546.11 0.767487 2.89396 0
M  V30 16161 H 1543.66 0.370524 1.39151 0
M  V30 16162 H 1545.61 -1.42026 3.96745 0
M  V30 16163 H 1544.34 -1.73697 2.76581 0
M  V30 16164 H 1543 0.19873 3.66061 0
M  V30 16165 H 1542.64 -2.10492 4.56839 0
M  V30 16166 H 1542.34 -0.865109 5.81197 0
M  V30 16167 H 1543.87 -1.79724 5.83551 0
M  V30 16168 H 1545.28 0.470924 5.71363 0
M  V30 16169 H 1543.68 1.24648 5.87012 0
M  V30 16170 H 1544.75 1.71378 4.53605 0
M  V30 16171 N 1546.09 -1.52004 0.416254 0
M  V30 16172 C 1547.34 -2.0149 -0.15689 0
M  V30 16173 C 1547.66 -1.30343 -1.45037 0
M  V30 16174 O 1546.93 -0.431503 -1.91089 0
M  V30 16175 H 1545.51 -0.744508 -0.0609682 0
M  V30 16176 H 1548.17 -1.86857 0.55413 0
M  V30 16177 H 1547.27 -3.10155 -0.347917 0
M  V30 16178 N 1547.57 -0.146903 -1.56914 0
M  V30 16179 C 1548.82 0.504981 -1.96412 0
M  V30 16180 C 1549.15 1.64522 -1.0318 0
M  V30 16181 O 1548.42 1.94359 -0.0741728 0
M  V30 16182 C 1548.71 1.01125 -3.45609 0
M  V30 16183 C 1548.56 -0.127493 -4.49619 0
M  V30 16184 C 1549.88 1.89306 -3.97305 0
M  V30 16185 H 1547 0.182088 -0.714152 0
M  V30 16186 H 1549.64 -0.22811 -1.88626 0
M  V30 16187 H 1547.79 1.63595 -3.52376 0
M  V30 16188 H 1549.46 -0.763829 -4.54932 0
M  V30 16189 H 1547.71 -0.786649 -4.26608 0
M  V30 16190 H 1548.38 0.268453 -5.51347 0
M  V30 16191 H 1550.85 1.36664 -3.93017 0
M  V30 16192 H 1549.73 2.21638 -5.02163 0
M  V30 16193 H 1549.99 2.82996 -3.39655 0
M  V30 16194 N 1549.05 1.57088 0.126881 0
M  V30 16195 C 1550.29 1.84709 0.837287 0
M  V30 16196 C 1550.63 0.731496 1.79897 0
M  V30 16197 O 1549.9 -0.263319 1.92709 0
M  V30 16198 C 1550.19 3.22893 1.59412 0
M  V30 16199 C 1550.04 4.45041 0.652578 0
M  V30 16200 C 1551.36 3.58547 2.5521 0
M  V30 16201 H 1548.48 0.671862 0.302937 0
M  V30 16202 H 1551.12 1.89727 0.101783 0
M  V30 16203 H 1549.27 3.18746 2.22112 0
M  V30 16204 H 1550.94 4.61287 0.0350382 0
M  V30 16205 H 1549.18 4.33785 -0.0364578 0
M  V30 16206 H 1549.85 5.38381 1.21861 0
M  V30 16207 H 1552.33 3.63434 2.0262 0
M  V30 16208 H 1551.21 4.56227 3.05202 0
M  V30 16209 H 1551.47 2.85552 3.37509 0
M  V30 16210 N 1550.53 -0.396836 1.52522 0
M  V30 16211 C 1551.75 -1.16857 1.71345 0
M  V30 16212 C 1552.18 -1.83178 0.427465 0
M  V30 16213 O 1551.53 -1.7051 -0.616123 0
M  V30 16214 C 1551.58 -2.19817 2.85855 0
M  V30 16215 O 1550.69 -3.26233 2.52281 0
M  V30 16216 H 1550.03 -0.340554 0.570017 0
M  V30 16217 H 1552.56 -0.463532 1.9928 0
M  V30 16218 H 1552.57 -2.63944 3.11123 0
M  V30 16219 H 1551.24 -1.70931 3.79151 0
M  V30 16220 H 1549.82 -2.87299 2.37726 0
M  V30 16221 N 1552.01 -1.43353 -0.654814 0
M  V30 16222 C 1552.94 -1.44353 -1.7803 0
M  V30 16223 C 1553.95 -0.339872 -1.59213 0
M  V30 16224 O 1555.14 -0.604207 -1.67963 0
M  V30 16225 C 1552.24 -1.23913 -3.15434 0
M  V30 16226 C 1551.41 -2.47088 -3.60924 0
M  V30 16227 C 1550.47 -2.21896 -4.77126 0
M  V30 16228 O 1549.5 -2.95236 -4.86646 0
M  V30 16229 N 1550.7 -1.23459 -5.6722 0
M  V30 16230 H 1553.46 -2.41372 -1.77651 0
M  V30 16231 H 1551.03 -1.38488 -0.838603 0
M  V30 16232 H 1553.02 -1.04945 -3.90856 0
M  V30 16233 H 1551.59 -0.35346 -3.10595 0
M  V30 16234 H 1550.81 -2.81492 -2.75964 0
M  V30 16235 H 1552.1 -3.29066 -3.88064 0
M  V30 16236 H 1551.49 -0.6284 -5.62199 0
M  V30 16237 H 1550.05 -1.10474 -6.4237 0
M  V30 16238 N 1553.48 0.89303 -1.29857 0
M  V30 16239 C 1554.73 1.64088 -1.17981 0
M  V30 16240 C 1555.05 1.93156 0.267533 0
M  V30 16241 O 1554.32 1.56233 1.18186 0
M  V30 16242 H 1552.9 0.608241 -0.43365 0
M  V30 16243 H 1555.56 1.07042 -1.62874 0
M  V30 16244 H 1554.66 2.59446 -1.73477 0
M  V30 16245 N 1554.96 1.12442 1.10429 0
M  V30 16246 C 1555.89 0.750131 2.16577 0
M  V30 16247 C 1556.91 -0.223265 1.61262 0
M  V30 16248 O 1558.1 -0.00459454 1.78499 0
M  V30 16249 C 1555.2 0.0895474 3.38782 0
M  V30 16250 C 1554.37 1.09242 4.23539 0
M  V30 16251 C 1553.43 0.45945 5.2419 0
M  V30 16252 O 1552.45 1.11646 5.58143 0
M  V30 16253 N 1553.66 -0.773093 5.75329 0
M  V30 16254 H 1556.42 1.66349 2.49295 0
M  V30 16255 H 1553.98 1.01603 1.26049 0
M  V30 16256 H 1555.97 -0.345895 4.03219 0
M  V30 16257 H 1554.54 -0.726572 3.04039 0
M  V30 16258 H 1553.76 1.70549 3.55396 0
M  V30 16259 H 1555.05 1.77057 4.76999 0
M  V30 16260 H 1554.45 -1.32585 5.49943 0
M  V30 16261 H 1553.01 -1.15135 6.41551 0
M  V30 16262 N 1556.44 -1.28223 0.91633 0
M  V30 16263 C 1557.85 -1.76898 0.597003 0
M  V30 16264 C 1558.2 -1.74969 -0.887719 0
M  V30 16265 O 1557.33 -1.34598 -1.69447 0
M  V30 16266 C 1557.92 -3.21228 1.07694 0
M  V30 16267 C 1556.48 -3.67614 0.80849 0
M  V30 16268 C 1555.63 -2.47921 1.24219 0
M  V30 16269 H 1558.58 -1.1465 1.09732 0
M  V30 16270 H 1558.6 -3.7818 0.419531 0
M  V30 16271 H 1558.11 -3.226 2.15757 0
M  V30 16272 H 1556.21 -3.717 -0.258814 0
M  V30 16273 H 1556.33 -4.57633 1.41804 0
M  V30 16274 H 1554.69 -2.45976 0.660892 0
M  V30 16275 H 1555.47 -2.5201 2.33122 0
M  V30 16276 N 1557.92 -0.68059 -1.42147 0
M  V30 16277 C 1559.15 -0.213839 -2.05792 0
M  V30 16278 C 1559.56 1.13123 -1.51158 0
M  V30 16279 O 1558.92 1.7039 -0.653708 0
M  V30 16280 C 1558.97 -0.146507 -3.61203 0
M  V30 16281 O 1558.69 -1.43843 -4.13813 0
M  V30 16282 C 1560.19 0.343043 -4.41971 0
M  V30 16283 H 1557.41 -0.10262 -0.663106 0
M  V30 16284 H 1559.95 -0.928957 -1.82183 0
M  V30 16285 H 1558.11 0.519335 -3.83903 0
M  V30 16286 H 1558.52 -1.31561 -5.07732 0
M  V30 16287 H 1560 0.339053 -5.50958 0
M  V30 16288 H 1560.47 1.37933 -4.16979 0
M  V30 16289 H 1561.08 -0.291267 -4.24301 0
M  V30 16290 N 1559.4 1.51781 -0.424309 0
M  V30 16291 C 1560.33 2.30313 0.384462 0
M  V30 16292 C 1561.31 1.35166 1.03268 0
M  V30 16293 O 1562.49 1.64081 1.0388 0
M  V30 16294 C 1559.62 3.13566 1.49311 0
M  V30 16295 C 1558.58 4.16884 0.969096 0
M  V30 16296 C 1557.9 4.88576 2.17251 0
M  V30 16297 C 1559.2 5.22298 0.0125613 0
M  V30 16298 H 1560.9 2.98172 -0.270871 0
M  V30 16299 H 1558.44 1.43396 -0.131712 0
M  V30 16300 H 1560.39 3.67279 2.06602 0
M  V30 16301 H 1559.12 2.43504 2.17655 0
M  V30 16302 H 1557.78 3.64203 0.418494 0
M  V30 16303 H 1557.43 4.15029 2.84183 0
M  V30 16304 H 1557.13 5.58432 1.82833 0
M  V30 16305 H 1558.65 5.45107 2.75119 0
M  V30 16306 H 1560.06 5.71161 0.494744 0
M  V30 16307 H 1558.46 5.99606 -0.243544 0
M  V30 16308 H 1559.53 4.75935 -0.92813 0
M  V30 16309 N 1560.87 0.155222 1.56834 0
M  V30 16310 C 1562.12 -0.494557 1.96677 0
M  V30 16311 C 1562.45 -1.63973 1.04051 0
M  V30 16312 O 1561.73 -1.94316 0.0844791 0
M  V30 16313 C 1562.01 -0.992902 3.46141 0
M  V30 16314 C 1561.86 0.151335 4.49545 0
M  V30 16315 C 1563.18 -1.87197 3.98303 0
M  V30 16316 H 1560.3 -0.178298 0.715107 0
M  V30 16317 H 1562.94 0.23811 1.88502 0
M  V30 16318 H 1561.09 -1.61724 3.53239 0
M  V30 16319 H 1562.77 0.787945 4.54521 0
M  V30 16320 H 1561.01 0.809262 4.26185 0
M  V30 16321 H 1561.68 -0.23921 5.51481 0
M  V30 16322 H 1564.16 -1.34578 3.93736 0
M  V30 16323 H 1563.03 -2.18972 5.03331 0
M  V30 16324 H 1563.29 -2.81191 3.41151 0
M  V30 16325 N 1562.35 -1.57153 -0.118549 0
M  V30 16326 C 1563.6 -1.84064 -0.824832 0
M  V30 16327 C 1563.91 -0.740941 -1.81023 0
M  V30 16328 O 1565.12 -0.896464 -2.56273 0
M  V30 16329 C 1563.58 -3.26338 -1.51761 0
M  V30 16330 C 1563.18 -4.44318 -0.573174 0
M  V30 16331 C 1564.93 -3.62496 -2.209 0
M  V30 16332 C 1562.83 -5.7762 -1.2692 0
M  V30 16333 H 1561.76 -0.686521 -0.311777 0
M  V30 16334 H 1564.42 -1.83336 -0.0775833 0
M  V30 16335 H 1562.8 -3.21537 -2.3115 0
M  V30 16336 H 1563.97 -4.60418 0.187529 0
M  V30 16337 H 1562.29 -4.16398 0.0112747 0
M  V30 16338 H 1564.88 -4.5936 -2.73666 0
M  V30 16339 H 1565.23 -2.89952 -2.9872 0
M  V30 16340 H 1565.76 -3.69084 -1.48399 0
M  V30 16341 H 1562.5 -6.53335 -0.532285 0
M  V30 16342 H 1562.02 -5.65406 -2.00191 0
M  V30 16343 H 1563.7 -6.21391 -1.80227 0
M  V30 16344 N 1563.83 0.388742 -1.5273 0
M  V30 16345 C 1564.76 1.49653 -1.72277 0
M  V30 16346 C 1565.74 1.52259 -0.570606 0
M  V30 16347 O 1566.92 1.70661 -0.80044 0
M  V30 16348 C 1564.05 2.88118 -1.78061 0
M  V30 16349 C 1563.1 3.03336 -2.99815 0
M  V30 16350 S 1563.93 2.74509 -4.59788 0
M  V30 16351 C 1565.09 4.15167 -4.68388 0
M  V30 16352 H 1565.32 1.32847 -2.65968 0
M  V30 16353 H 1562.85 0.581632 -1.43026 0
M  V30 16354 H 1564.81 3.6791 -1.82079 0
M  V30 16355 H 1563.47 3.0225 -0.854623 0
M  V30 16356 H 1562.66 4.04689 -3.00404 0
M  V30 16357 H 1562.27 2.31438 -2.9379 0
M  V30 16358 H 1564.56 5.09098 -4.47018 0
M  V30 16359 H 1565.5 4.19593 -5.70392 0
M  V30 16360 H 1565.91 4.01088 -3.97226 0
M  V30 16361 N 1565.31 1.43698 0.647203 0
M  V30 16362 C 1566.22 1.51781 1.78884 0
M  V30 16363 C 1567.23 0.404498 1.69233 0
M  V30 16364 O 1568.41 0.659509 1.90296 0
M  V30 16365 C 1565.47 1.44408 3.15194 0
M  V30 16366 C 1564.54 2.6646 3.36597 0
M  V30 16367 C 1563.77 2.59429 4.66403 0
M  V30 16368 O 1563.99 1.64537 5.46154 0
M  V30 16369 O 1562.93 3.50027 4.89658 0
M  V30 16370 H 1566.75 2.48198 1.75019 0
M  V30 16371 H 1564.34 1.25766 0.806436 0
M  V30 16372 H 1566.22 1.42761 3.96481 0
M  V30 16373 H 1564.89 0.511292 3.19637 0
M  V30 16374 H 1563.8 2.73679 2.5505 0
M  V30 16375 H 1565.13 3.58732 3.37005 0
M  V30 16376 N 1566.79 -0.886131 1.30328 0
M  V30 16377 C 1567.72 -2.00793 1.19183 0
M  V30 16378 C 1568.7 -1.69899 0.08276 0
M  V30 16379 O 1569.88 -1.92389 0.264593 0
M  V30 16380 C 1567.01 -3.35922 0.881669 0
M  V30 16381 C 1565.97 -3.81072 1.94855 0
M  V30 16382 C 1565.29 -5.1348 1.4914 0
M  V30 16383 C 1566.59 -3.99923 3.35944 0
M  V30 16384 H 1568.29 -2.10375 2.13032 0
M  V30 16385 H 1565.83 -1.0108 1.02561 0
M  V30 16386 H 1567.79 -4.13922 0.790359 0
M  V30 16387 H 1566.51 -3.26469 -0.0925037 0
M  V30 16388 H 1565.17 -3.053 2.02947 0
M  V30 16389 H 1564.82 -5.00453 0.50553 0
M  V30 16390 H 1564.52 -5.44659 2.205 0
M  V30 16391 H 1566.04 -5.94005 1.41386 0
M  V30 16392 H 1567.45 -4.68364 3.30617 0
M  V30 16393 H 1565.85 -4.42477 4.05381 0
M  V30 16394 H 1566.92 -3.03816 3.77921 0
M  V30 16395 N 1568.26 -1.13026 -1.09832 0
M  V30 16396 C 1569.2 -0.747512 -2.1561 0
M  V30 16397 C 1570.18 0.2643 -1.60438 0
M  V30 16398 O 1571.36 0.156784 -1.87847 0
M  V30 16399 C 1568.49 -0.107449 -3.3853 0
M  V30 16400 C 1567.53 -1.08709 -4.12413 0
M  V30 16401 S 1568.37 -2.6176 -4.67164 0
M  V30 16402 C 1569.52 -1.99102 -5.93388 0
M  V30 16403 H 1569.75 -1.6435 -2.47743 0
M  V30 16404 H 1567.29 -0.949978 -1.21716 0
M  V30 16405 H 1569.25 0.255456 -4.09704 0
M  V30 16406 H 1567.91 0.765741 -3.04623 0
M  V30 16407 H 1567.1 -0.58698 -5.0057 0
M  V30 16408 H 1566.7 -1.39325 -3.4708 0
M  V30 16409 H 1568.99 -1.33755 -6.64166 0
M  V30 16410 H 1569.94 -2.85323 -6.48071 0
M  V30 16411 H 1570.34 -1.44429 -5.45711 0
M  V30 16412 N 1569.74 1.27735 -0.923117 0
M  V30 16413 C 1570.97 1.98682 -0.577317 0
M  V30 16414 C 1571.39 1.68904 0.843608 0
M  V30 16415 O 1570.74 0.947021 1.56006 0
M  V30 16416 C 1570.79 3.52804 -0.788144 0
M  V30 16417 O 1570.51 3.81537 -2.15316 0
M  V30 16418 C 1572.02 4.41006 -0.450437 0
M  V30 16419 H 1569.24 0.634186 -0.2192 0
M  V30 16420 H 1571.78 1.62702 -1.23888 0
M  V30 16421 H 1569.93 3.87012 -0.173441 0
M  V30 16422 H 1570.35 4.76142 -2.19976 0
M  V30 16423 H 1571.82 5.48175 -0.648674 0
M  V30 16424 H 1572.3 4.3489 0.613806 0
M  V30 16425 H 1572.91 4.1231 -1.04308 0
M  V30 16426 N 1571.22 0.688118 1.41784 0
M  V30 16427 C 1572.64 0.358943 1.55511 0
M  V30 16428 C 1572.84 -1.13469 1.66514 0
M  V30 16429 O 1571.89 -1.92039 1.63943 0
M  V30 16430 C 1573.21 1.10094 2.79821 0
M  V30 16431 C 1574.75 1.08456 2.93609 0
M  V30 16432 C 1575.23 1.80815 4.20797 0
M  V30 16433 N 1576.72 1.77748 4.27738 0
M  V30 16434 C 1577.45 2.30581 5.24995 0
M  V30 16435 N 1576.95 2.91854 6.28326 0
M  V30 16436 N 1578.74 2.2088 5.16884 0
M  V30 16437 H 1570.89 1.65695 1.32886 0
M  V30 16438 H 1573.16 0.698818 0.640592 0
M  V30 16439 H 1572.86 2.15589 2.77874 0
M  V30 16440 H 1572.74 0.674713 3.71117 0
M  V30 16441 H 1575.12 0.0378955 2.95076 0
M  V30 16442 H 1575.21 1.54978 2.03508 0
M  V30 16443 H 1574.85 2.85457 4.20092 0
M  V30 16444 H 1574.78 1.31732 5.09857 0
M  V30 16445 H 1577.27 1.33069 3.53696 0
M  V30 16446 H 1577.58 3.29755 6.98915 0
M  V30 16447 H 1575.93 2.95929 6.28849 0
M  V30 16448 H 1579.12 1.72689 4.35082 0
M  V30 16449 H 1579.29 2.62359 5.92513 0
M  V30 16450 N 1572.7 -1.51554 0.432352 0
M  V30 16451 C 1573.95 -2.01645 -0.135511 0
M  V30 16452 C 1574.27 -1.31874 -1.43647 0
M  V30 16453 O 1573.54 -0.451746 -1.9062 0
M  V30 16454 H 1572.12 -0.745113 -0.0530683 0
M  V30 16455 H 1574.78 -1.86258 0.573917 0
M  V30 16456 H 1573.88 -3.10506 -0.315001 0
M  V30 16457 N 1574.18 -0.163538 -1.56749 0
M  V30 16458 C 1575.45 0.529349 -1.88301 0
M  V30 16459 C 1575.83 1.81844 -1.07219 0
M  V30 16460 O 1575.18 2.27912 -0.16381 0
M  V30 16461 C 1575.39 0.778796 -3.402 0
M  V30 16462 C 1576.74 1.11225 -4.09773 0
M  V30 16463 O 1577.76 0.867598 -3.45472 0
M  V30 16464 O 1576.62 1.57344 -5.2336 0
M  V30 16465 H 1573.72 0.271928 -0.781015 0
M  V30 16466 H 1576.26 -0.20139 -1.68501 0
M  V30 16467 H 1575.03 -0.132839 -3.91074 0
M  V30 16468 H 1574.66 1.56313 -3.65584 0
M  V30 16469 N 1575.65 1.57214 0.110213 0
M  V30 16470 C 1576.58 2.04015 1.13579 0
M  V30 16471 C 1577.57 0.926215 1.42672 0
M  V30 16472 O 1578.75 1.19651 1.52962 0
M  V30 16473 C 1575.88 2.45187 2.45969 0
M  V30 16474 C 1574.83 3.60105 2.31319 0
M  V30 16475 C 1574.16 3.87205 3.68749 0
M  V30 16476 C 1575.46 4.91526 1.76635 0
M  V30 16477 H 1577.15 2.89944 0.746496 0
M  V30 16478 H 1574.7 1.39488 0.357642 0
M  V30 16479 H 1576.65 2.76534 3.17973 0
M  V30 16480 H 1575.38 1.56238 2.86805 0
M  V30 16481 H 1574.04 3.28981 1.61762 0
M  V30 16482 H 1573.68 2.95448 4.07087 0
M  V30 16483 H 1573.38 4.64563 3.59798 0
M  V30 16484 H 1574.91 4.21013 4.42245 0
M  V30 16485 H 1576.32 5.21351 2.38465 0
M  V30 16486 H 1574.72 5.72944 1.78482 0
M  V30 16487 H 1575.79 4.79456 0.724573 0
M  V30 16488 N 1577.13 -0.380637 1.52934 0
M  V30 16489 C 1578.08 -1.46544 1.78307 0
M  V30 16490 C 1579.05 -1.53825 0.626671 0
M  V30 16491 O 1580.23 -1.6995 0.867276 0
M  V30 16492 C 1577.37 -2.83676 1.96525 0
M  V30 16493 C 1576.49 -2.85481 3.24229 0
M  V30 16494 C 1575.62 -4.14092 3.32718 0
M  V30 16495 C 1574.66 -4.09982 4.54512 0
M  V30 16496 N 1573.8 -5.30214 4.60237 0
M  V30 16497 H 1578.64 -1.24209 2.7088 0
M  V30 16498 H 1576.18 -0.60241 1.34199 0
M  V30 16499 H 1578.13 -3.63319 2.05073 0
M  V30 16500 H 1576.76 -3.04443 1.07304 0
M  V30 16501 H 1575.82 -1.98159 3.24711 0
M  V30 16502 H 1577.13 -2.78313 4.13936 0
M  V30 16503 H 1576.28 -5.02144 3.40494 0
M  V30 16504 H 1575.02 -4.23993 2.41 0
M  V30 16505 H 1574.03 -3.20317 4.46852 0
M  V30 16506 H 1575.25 -4.01696 5.47556 0
M  V30 16507 H 1573.2 -5.40729 3.71414 0
M  V30 16508 H 1573.11 -5.25155 5.43827 0
M  V30 16509 H 1574.38 -6.2014 4.72279 0
M  V30 16510 N 1578.61 -1.44039 -0.639573 0
M  V30 16511 C 1579.84 -1.50063 -1.43164 0
M  V30 16512 C 1580.26 -0.123906 -1.87691 0
M  V30 16513 O 1579.62 0.885192 -1.58221 0
M  V30 16514 C 1579.67 -2.46305 -2.63375 0
M  V30 16515 O 1578.77 -1.95874 -3.62915 0
M  V30 16516 H 1578.11 -0.507052 -0.428713 0
M  V30 16517 H 1580.64 -1.8909 -0.781415 0
M  V30 16518 H 1580.65 -2.64062 -3.11023 0
M  V30 16519 H 1579.33 -3.46309 -2.3031 0
M  V30 16520 H 1577.9 -1.87844 -3.22132 0
M  V30 16521 N 1580.09 0.879207 -1.30796 0
M  V30 16522 C 1581.04 1.97297 -1.14272 0
M  V30 16523 C 1582.02 1.60802 -0.0562653 0
M  V30 16524 O 1583.21 1.74768 -0.280204 0
M  V30 16525 C 1580.34 3.32799 -0.842604 0
M  V30 16526 C 1579.43 3.7559 -1.96959 0
M  V30 16527 N 1579.82 3.90426 -3.21561 0
M  V30 16528 C 1578.12 4.05031 -1.86725 0
M  V30 16529 C 1578.82 4.2682 -3.9522 0
M  V30 16530 N 1577.8 4.36999 -3.23316 0
M  V30 16531 H 1581.6 2.06865 -2.08768 0
M  V30 16532 H 1579.11 1.0694 -1.2222 0
M  V30 16533 H 1581.11 4.10892 -0.705224 0
M  V30 16534 H 1579.77 3.24563 0.0942269 0
M  V30 16535 H 1580.78 3.75401 -3.56783 0
M  V30 16536 H 1577.46 4.05236 -1.00447 0
M  V30 16537 H 1578.85 4.45973 -5.02551 0
M  V30 16538 N 1581.57 1.13606 1.09231 0
M  V30 16539 C 1582.5 0.837908 2.17948 0
M  V30 16540 C 1583.48 -0.203575 1.68877 0
M  V30 16541 O 1584.66 -0.0620702 1.94101 0
M  V30 16542 C 1581.79 0.305342 3.45955 0
M  V30 16543 C 1580.75 1.2813 4.08371 0
M  V30 16544 C 1580.07 0.608412 5.31227 0
M  V30 16545 C 1581.37 2.64055 4.50636 0
M  V30 16546 H 1583.07 1.747 2.43147 0
M  V30 16547 H 1580.61 0.84141 1.1686 0
M  V30 16548 H 1582.57 0.0844116 4.21315 0
M  V30 16549 H 1581.29 -0.639144 3.20285 0
M  V30 16550 H 1579.95 1.48826 3.35032 0
M  V30 16551 H 1579.6 -0.341613 5.01839 0
M  V30 16552 H 1579.3 1.25956 5.73942 0
M  V30 16553 H 1580.82 0.396809 6.09309 0
M  V30 16554 H 1582.24 2.47316 5.17212 0
M  V30 16555 H 1580.63 3.25364 5.0424 0
M  V30 16556 H 1581.7 3.21566 3.62937 0
M  V30 16557 N 1583.05 -1.27244 0.929878 0
M  V30 16558 C 1584.46 -1.4662 0.630451 0
M  V30 16559 C 1584.66 -1.84077 -0.819633 0
M  V30 16560 O 1583.72 -1.95555 -1.59733 0
M  V30 16561 C 1585.03 -2.55709 1.58219 0
M  V30 16562 C 1586.58 -2.69569 1.59065 0
M  V30 16563 C 1587.05 -3.81818 2.52941 0
M  V30 16564 N 1588.54 -3.89195 2.51161 0
M  V30 16565 C 1589.28 -4.75474 3.20488 0
M  V30 16566 N 1588.78 -5.66225 3.99201 0
M  V30 16567 N 1590.57 -4.69222 3.09495 0
M  V30 16568 H 1582.72 -1.01216 1.86733 0
M  V30 16569 H 1584.98 -0.505737 0.801832 0
M  V30 16570 H 1584.69 -2.34985 2.61677 0
M  V30 16571 H 1584.56 -3.53141 1.32556 0
M  V30 16572 H 1586.95 -2.89672 0.563375 0
M  V30 16573 H 1587.03 -1.72616 1.88778 0
M  V30 16574 H 1586.67 -3.62467 3.55781 0
M  V30 16575 H 1586.6 -4.78202 2.20524 0
M  V30 16576 H 1589.1 -3.24305 1.93997 0
M  V30 16577 H 1589.41 -6.28925 4.4908 0
M  V30 16578 H 1587.75 -5.66013 4.03304 0
M  V30 16579 H 1590.94 -3.97322 2.47493 0
M  V30 16580 H 1591.12 -5.36244 3.63794 0
M  V30 16581 N 1584.52 -0.695628 -1.41417 0
M  V30 16582 C 1585.75 -0.234163 -2.06074 0
M  V30 16583 C 1586.17 1.10796 -1.52006 0
M  V30 16584 O 1585.53 1.6936 -0.64705 0
M  V30 16585 C 1585.58 -0.202353 -3.60032 0
M  V30 16586 O 1584.68 0.822767 -4.04109 0
M  V30 16587 H 1584.02 -0.114395 -0.654072 0
M  V30 16588 H 1586.55 -0.950503 -1.81181 0
M  V30 16589 H 1586.56 -0.0332321 -4.07986 0
M  V30 16590 H 1585.24 -1.18188 -3.98754 0
M  V30 16591 H 1583.82 0.622995 -3.67659 0
M  V30 16592 N 1586 1.51322 -0.440383 0
M  V30 16593 C 1586.93 2.30708 0.360013 0
M  V30 16594 C 1587.91 1.36254 1.01828 0
M  V30 16595 O 1589.1 1.65174 1.02134 0
M  V30 16596 C 1586.23 3.15132 1.45977 0
M  V30 16597 C 1585.18 4.17889 0.924825 0
M  V30 16598 C 1584.51 4.90853 2.12056 0
M  V30 16599 C 1585.81 5.22282 -0.0428362 0
M  V30 16600 H 1587.5 2.97868 -0.30248 0
M  V30 16601 H 1585.05 1.43249 -0.146914 0
M  V30 16602 H 1587 3.69449 2.02695 0
M  V30 16603 H 1585.72 2.45798 2.1506 0
M  V30 16604 H 1584.38 3.64627 0.379842 0
M  V30 16605 H 1584.03 4.1802 2.79765 0
M  V30 16606 H 1583.73 5.60339 1.769 0
M  V30 16607 H 1585.26 5.47995 2.69322 0
M  V30 16608 H 1586.67 5.71654 0.434137 0
M  V30 16609 H 1585.07 5.99314 -0.307126 0
M  V30 16610 H 1586.14 4.74923 -0.978557 0
M  V30 16611 N 1587.48 0.171848 1.5666 0
M  V30 16612 C 1588.9 -0.184312 1.58532 0
M  V30 16613 C 1589.1 -1.62811 1.18721 0
M  V30 16614 O 1588.15 -2.35951 0.899066 0
M  V30 16615 C 1589.46 0.0969826 3.00544 0
M  V30 16616 C 1591.01 0.0352364 3.1298 0
M  V30 16617 C 1591.49 0.289528 4.57084 0
M  V30 16618 N 1592.98 0.237322 4.62592 0
M  V30 16619 C 1593.71 0.408247 5.71945 0
M  V30 16620 N 1593.21 0.638256 6.89854 0
M  V30 16621 N 1595 0.344115 5.61046 0
M  V30 16622 H 1587.15 1.11427 1.80825 0
M  V30 16623 H 1589.42 0.44302 0.838115 0
M  V30 16624 H 1589.12 1.09717 3.34148 0
M  V30 16625 H 1589 -0.611157 3.72216 0
M  V30 16626 H 1591.38 -0.955531 2.79202 0
M  V30 16627 H 1591.46 0.776095 2.43743 0
M  V30 16628 H 1591.11 1.27751 4.91571 0
M  V30 16629 H 1591.04 -0.471948 5.24481 0
M  V30 16630 H 1593.53 0.0652142 3.77844 0
M  V30 16631 H 1593.84 0.758116 7.69072 0
M  V30 16632 H 1592.19 0.674877 6.91716 0
M  V30 16633 H 1595.38 0.165008 4.67809 0
M  V30 16634 H 1595.55 0.480749 6.46214 0
M  V30 16635 N 1588.96 -1.5727 -0.101874 0
M  V30 16636 C 1590.37 -1.74753 -0.657147 0
M  V30 16637 C 1590.72 -0.793052 -1.79458 0
M  V30 16638 O 1589.84 0.0300559 -2.16379 0
M  V30 16639 C 1590.44 -3.1688 -1.19885 0
M  V30 16640 C 1589 -3.3581 -1.70025 0
M  V30 16641 C 1588.15 -2.70575 -0.607007 0
M  V30 16642 H 1591.1 -1.58214 0.124158 0
M  V30 16643 H 1591.12 -3.19378 -2.06829 0
M  V30 16644 H 1590.63 -3.86325 -0.37079 0
M  V30 16645 H 1588.73 -2.71434 -2.55253 0
M  V30 16646 H 1588.84 -4.44086 -1.79791 0
M  V30 16647 H 1587.21 -2.32284 -1.04481 0
M  V30 16648 H 1587.99 -3.42655 0.21036 0
M  V30 16649 N 1590.44 0.372521 -1.53134 0
M  V30 16650 C 1591.35 1.47994 -1.8203 0
M  V30 16651 C 1592.36 1.58937 -0.708179 0
M  V30 16652 O 1593.54 1.74962 -0.997511 0
M  V30 16653 C 1590.6 2.83342 -1.99796 0
M  V30 16654 C 1589.66 2.81984 -3.23702 0
M  V30 16655 C 1588.9 4.10877 -3.40611 0
M  V30 16656 O 1589.12 5.06686 -2.61964 0
M  V30 16657 O 1588.05 4.17111 -4.33938 0
M  V30 16658 H 1591.88 1.26501 -2.761 0
M  V30 16659 H 1589.46 0.561957 -1.38428 0
M  V30 16660 H 1591.35 3.63551 -2.13092 0
M  V30 16661 H 1590.02 3.04826 -1.08916 0
M  V30 16662 H 1588.93 2.00498 -3.15834 0
M  V30 16663 H 1590.26 2.65453 -4.14482 0
M  V30 16664 N 1591.91 1.44376 0.631925 0
M  V30 16665 C 1592.88 1.50825 1.72582 0
M  V30 16666 C 1593.88 0.390379 1.55989 0
M  V30 16667 O 1595.07 0.65297 1.61499 0
M  V30 16668 C 1592.2 1.38141 3.11657 0
M  V30 16669 H 1593.39 2.48265 1.68239 0
M  V30 16670 H 1590.94 1.31456 0.845514 0
M  V30 16671 H 1591.68 0.417905 3.21596 0
M  V30 16672 H 1591.46 2.19198 3.25107 0
M  V30 16673 H 1592.95 1.45633 3.91383 0
M  V30 16674 N 1593.39 -0.872258 1.31261 0
M  V30 16675 C 1594.3 -2.01185 1.20673 0
M  V30 16676 C 1595.32 -1.73558 0.123921 0
M  V30 16677 O 1596.49 -1.98487 0.341288 0
M  V30 16678 C 1593.56 -3.34481 0.91232 0
M  V30 16679 C 1592.62 -3.75446 2.08179 0
M  V30 16680 C 1591.85 -5.02382 1.80134 0
M  V30 16681 O 1592.08 -5.6564 0.735358 0
M  V30 16682 O 1591.01 -5.40059 2.65744 0
M  V30 16683 H 1594.84 -2.13049 2.16434 0
M  V30 16684 H 1592.42 -1.00021 1.10978 0
M  V30 16685 H 1594.3 -4.14419 0.763879 0
M  V30 16686 H 1592.98 -3.23696 -0.0152802 0
M  V30 16687 H 1591.88 -2.96159 2.28562 0
M  V30 16688 H 1593.22 -3.90853 2.99156 0
M  V30 16689 N 1594.87 -1.14184 -1.08627 0
M  V30 16690 C 1595.82 -0.822297 -2.1758 0
M  V30 16691 C 1596.81 0.198863 -1.68229 0
M  V30 16692 O 1598.02 0.0551869 -1.79915 0
M  V30 16693 H 1594.39 -0.248183 -0.709866 0
M  V30 16694 H 1596.36 -1.74916 -2.41758 0
M  V30 16695 C 1595.11 -0.313671 -3.46282 0
M  V30 16696 H 1594.44 -1.09078 -3.84632 0
M  V30 16697 H 1595.88 -0.128604 -4.23805 0
M  V30 16698 C 1594.33 0.962289 -3.22865 0
M  V30 16699 O 1594.86 2.03649 -3.46251 0
M  V30 16700 N 1593.07 0.896635 -2.76421 0
M  V30 16701 H 1592.62 0.0223186 -2.5759 0
M  V30 16702 H 1592.58 1.75093 -2.61132 0
M  V30 16703 N 1596.35 1.26749 -0.936613 0
M  V30 16704 C 1597.3 2.28528 -0.433328 0
M  V30 16705 C 1598.29 1.62248 0.487012 0
M  V30 16706 O 1599.5 1.76245 0.36573 0
M  V30 16707 H 1595.87 0.742106 -0.121583 0
M  V30 16708 H 1597.84 2.68382 -1.30436 0
M  V30 16709 C 1596.59 3.46485 0.290366 0
M  V30 16710 H 1595.91 3.97706 -0.408649 0
M  V30 16711 H 1597.35 4.19635 0.606807 0
M  V30 16712 C 1595.81 3.01339 1.50654 0
M  V30 16713 O 1596.34 3.05781 2.60501 0
M  V30 16714 N 1594.55 2.56732 1.3615 0
M  V30 16715 H 1594.1 2.53317 0.467788 0
M  V30 16716 H 1594.05 2.26888 2.17645 0
M  V30 16717 N 1597.83 0.703118 1.41046 0
M  V30 16718 C 1599.24 0.311167 1.84089 0
M  V30 16719 C 1599.59 -1.15202 1.58818 0
M  V30 16720 O 1598.71 -1.88518 1.06254 0
M  V30 16721 C 1599.31 0.557986 3.34174 0
M  V30 16722 C 1597.87 0.219875 3.75757 0
M  V30 16723 C 1597.01 0.836543 2.64381 0
M  V30 16724 H 1599.97 0.903211 1.30491 0
M  V30 16725 H 1599.99 -0.180865 3.8007 0
M  V30 16726 H 1599.5 1.62298 3.52535 0
M  V30 16727 H 1597.6 -0.840559 3.62995 0
M  V30 16728 H 1597.71 0.680165 4.74247 0
M  V30 16729 H 1596.08 0.265547 2.53312 0
M  V30 16730 H 1596.86 1.90556 2.85558 0
M  V30 16731 N 1599.3 -1.51086 0.448402 0
M  V30 16732 C 1600.55 -2.01778 -0.114116 0
M  V30 16733 C 1600.87 -1.3339 -1.4224 0
M  V30 16734 O 1600.14 -0.471938 -1.9013 0
M  V30 16735 H 1598.72 -0.745634 -0.0451624 0
M  V30 16736 H 1601.39 -1.85639 0.59364 0
M  V30 16737 H 1600.48 -3.10823 -0.28205 0
M  V30 16738 N 1600.78 -0.180154 -1.56567 0
M  V30 16739 C 1601.71 0.742131 -2.21393 0
M  V30 16740 C 1602.69 1.23253 -1.1723 0
M  V30 16741 O 1603.88 1.28408 -1.45688 0
M  V30 16742 C 1601.01 1.96799 -2.8616 0
M  V30 16743 C 1599.96 1.6131 -3.96438 0
M  V30 16744 C 1599.29 2.91434 -4.48297 0
M  V30 16745 C 1600.59 0.834382 -5.15592 0
M  V30 16746 H 1602.28 0.201759 -2.98719 0
M  V30 16747 H 1599.83 0.0956016 -1.43682 0
M  V30 16748 H 1601.78 2.61828 -3.30188 0
M  V30 16749 H 1600.51 2.53264 -2.06215 0
M  V30 16750 H 1599.16 0.986451 -3.53079 0
M  V30 16751 H 1598.81 3.45958 -3.65133 0
M  V30 16752 H 1598.51 2.68439 -5.22699 0
M  V30 16753 H 1600.04 3.57478 -4.95017 0
M  V30 16754 H 1601.45 1.38745 -5.56258 0
M  V30 16755 H 1599.85 0.703132 -5.95966 0
M  V30 16756 H 1600.92 -0.167554 -4.8461 0
M  V30 16757 N 1602.26 1.57322 0.0935319 0
M  V30 16758 C 1603.67 1.75099 0.64787 0
M  V30 16759 C 1604.02 0.802558 1.79035 0
M  V30 16760 O 1603.15 -0.0185803 2.16392 0
M  V30 16761 C 1603.74 3.17512 1.18203 0
M  V30 16762 C 1602.3 3.36707 1.68242 0
M  V30 16763 C 1601.45 2.70893 0.592649 0
M  V30 16764 H 1604.4 1.58146 -0.132546 0
M  V30 16765 H 1604.42 3.2047 2.05132 0
M  V30 16766 H 1603.93 3.86516 0.350297 0
M  V30 16767 H 1602.03 2.72784 2.5381 0
M  V30 16768 H 1602.15 4.45033 1.77433 0
M  V30 16769 H 1600.51 2.32835 1.03248 0
M  V30 16770 H 1601.29 3.42539 -0.228529 0
M  V30 16771 N 1603.74 -0.364395 1.53329 0
M  V30 16772 C 1604.67 -1.46658 1.76137 0
M  V30 16773 C 1605.68 -1.496 0.642166 0
M  V30 16774 O 1606.87 -1.53058 0.918452 0
M  V30 16775 C 1603.97 -2.85417 1.8273 0
M  V30 16776 C 1603.15 -3.06158 3.12388 0
M  V30 16777 C 1602.2 -4.25038 3.10208 0
M  V30 16778 O 1601.23 -4.20156 3.84002 0
M  V30 16779 N 1602.43 -5.32511 2.31111 0
M  V30 16780 H 1605.2 -1.27471 2.7124 0
M  V30 16781 H 1602.76 -0.554127 1.52122 0
M  V30 16782 H 1604.75 -3.63086 1.78748 0
M  V30 16783 H 1603.32 -2.97845 0.949058 0
M  V30 16784 H 1602.54 -2.16139 3.29663 0
M  V30 16785 H 1603.83 -3.16885 3.98072 0
M  V30 16786 H 1603.23 -5.39341 1.70669 0
M  V30 16787 H 1601.78 -6.08752 2.32946 0
M  V30 16788 N 1605.22 -1.44709 -0.62426 0
M  V30 16789 C 1606.63 -1.42523 -1.20599 0
M  V30 16790 C 1606.98 -0.144129 -1.9567 0
M  V30 16791 O 1606.1 0.755175 -2.02796 0
M  V30 16792 C 1606.7 -2.58194 -2.19365 0
M  V30 16793 C 1605.26 -2.59181 -2.72951 0
M  V30 16794 C 1604.4 -2.34461 -1.48065 0
M  V30 16795 H 1607.36 -1.5319 -0.414532 0
M  V30 16796 H 1607.38 -2.3134 -3.02096 0
M  V30 16797 H 1606.89 -3.5142 -1.64699 0
M  V30 16798 H 1604.99 -1.69916 -3.31601 0
M  V30 16799 H 1605.1 -3.57884 -3.18521 0
M  V30 16800 H 1603.47 -1.83688 -1.76439 0
M  V30 16801 H 1604.25 -3.2981 -0.952918 0
M  V30 16802 N 1606.69 0.865285 -1.31722 0
M  V30 16803 C 1607.66 1.95449 -1.19718 0
M  V30 16804 C 1608.66 1.60329 -0.123025 0
M  V30 16805 O 1609.85 1.70168 -0.372643 0
M  V30 16806 C 1606.98 3.30421 -0.838718 0
M  V30 16807 H 1608.17 2.07522 -2.16506 0
M  V30 16808 H 1605.73 1.05416 -1.154 0
M  V30 16809 H 1606.46 3.24048 0.127797 0
M  V30 16810 H 1606.25 3.57286 -1.61522 0
M  V30 16811 H 1607.74 4.10274 -0.77876 0
M  V30 16812 N 1608.17 1.14759 1.0802 0
M  V30 16813 C 1609.1 0.860977 2.17047 0
M  V30 16814 C 1610.08 -0.185652 1.69084 0
M  V30 16815 O 1611.27 -0.0414797 1.94156 0
M  V30 16816 C 1608.4 0.342018 3.45612 0
M  V30 16817 C 1607.35 1.32455 4.06989 0
M  V30 16818 C 1606.68 0.664721 5.30552 0
M  V30 16819 C 1607.98 2.68819 4.4781 0
M  V30 16820 H 1609.67 1.77269 2.4128 0
M  V30 16821 H 1607.22 0.853757 1.15961 0
M  V30 16822 H 1609.17 0.129093 4.21202 0
M  V30 16823 H 1607.9 -0.605138 3.20945 0
M  V30 16824 H 1606.55 1.52371 3.33435 0
M  V30 16825 H 1606.2 -0.288367 5.02173 0
M  V30 16826 H 1605.9 1.32036 5.72573 0
M  V30 16827 H 1607.43 0.461412 6.08854 0
M  V30 16828 H 1608.84 2.52787 5.14559 0
M  V30 16829 H 1607.24 3.30694 5.00761 0
M  V30 16830 H 1608.31 3.25398 3.59506 0
M  V30 16831 N 1609.65 -1.26251 0.943322 0
M  V30 16832 C 1610.9 -1.9327 0.590863 0
M  V30 16833 C 1611.22 -1.74356 -0.873212 0
M  V30 16834 O 1610.49 -1.10046 -1.6207 0
M  V30 16835 H 1609.07 -0.71523 0.215535 0
M  V30 16836 H 1611.73 -1.53647 1.19911 0
M  V30 16837 H 1610.83 -3.01393 0.810475 0
M  V30 16838 N 1611.13 -0.710588 -1.40671 0
M  V30 16839 C 1612.04 -0.0557164 -2.34534 0
M  V30 16840 C 1613.06 0.749387 -1.57036 0
M  V30 16841 O 1614.23 0.683493 -1.89447 0
M  V30 16842 C 1611.3 0.858583 -3.35901 0
M  V30 16843 C 1610.36 0.043995 -4.29277 0
M  V30 16844 C 1609.59 0.91475 -5.25802 0
M  V30 16845 O 1609.81 2.15407 -5.28163 0
M  V30 16846 O 1608.75 0.356407 -6.00844 0
M  V30 16847 H 1612.57 -0.829807 -2.92144 0
M  V30 16848 H 1610.16 -0.471028 -1.4178 0
M  V30 16849 H 1612.04 1.38244 -3.98079 0
M  V30 16850 H 1610.72 1.61191 -2.80712 0
M  V30 16851 H 1609.62 -0.524815 -3.704 0
M  V30 16852 H 1610.96 -0.670996 -4.87605 0
M  V30 16853 N 1612.61 1.50847 -0.456408 0
M  V30 16854 C 1613.54 2.24825 0.391003 0
M  V30 16855 C 1614.52 1.27531 1.00869 0
M  V30 16856 O 1615.7 1.56717 1.04747 0
M  V30 16857 C 1612.83 3.01329 1.54657 0
M  V30 16858 C 1611.88 4.13431 1.0477 0
M  V30 16859 S 1612.71 5.35494 -0.0257471 0
M  V30 16860 C 1613.86 6.15541 1.13404 0
M  V30 16861 H 1614.1 2.96354 -0.237018 0
M  V30 16862 H 1611.63 1.52506 -0.241121 0
M  V30 16863 H 1613.59 3.46 2.20894 0
M  V30 16864 H 1612.25 2.29354 2.14606 0
M  V30 16865 H 1611.44 4.66309 1.91238 0
M  V30 16866 H 1611.04 3.71119 0.463285 0
M  V30 16867 H 1613.34 6.45784 2.04865 0
M  V30 16868 H 1614.28 7.05158 0.644835 0
M  V30 16869 H 1614.69 5.47341 1.38123 0
M  V30 16870 N 1614.09 0.188454 1.56469 0
M  V30 16871 C 1615.33 -0.452238 1.96565 0
M  V30 16872 C 1615.65 -1.63219 1.07792 0
M  V30 16873 O 1616.85 -2.34024 1.37641 0
M  V30 16874 C 1615.31 -0.855966 3.49573 0
M  V30 16875 C 1614.92 0.299329 4.46999 0
M  V30 16876 C 1616.66 -1.46411 3.98452 0
M  V30 16877 C 1614.57 -0.124987 5.91268 0
M  V30 16878 H 1613.5 -0.172729 0.733949 0
M  V30 16879 H 1616.15 0.279415 1.8136 0
M  V30 16880 H 1614.53 -1.64409 3.60258 0
M  V30 16881 H 1615.71 1.07681 4.48042 0
M  V30 16882 H 1614.02 0.818542 4.08275 0
M  V30 16883 H 1616.62 -1.79392 5.03709 0
M  V30 16884 H 1616.96 -2.36822 3.42376 0
M  V30 16885 H 1617.49 -0.740088 3.90855 0
M  V30 16886 H 1614.23 0.744769 6.51255 0
M  V30 16887 H 1613.75 -0.86747 5.93494 0
M  V30 16888 H 1615.43 -0.563054 6.44545 0
M  V30 16889 N 1615.56 -1.5737 -0.0851874 0
M  V30 16890 C 1616.5 -1.99462 -1.12905 0
M  V30 16891 C 1617.51 -0.898597 -1.35754 0
M  V30 16892 O 1618.7 -1.17662 -1.34231 0
M  V30 16893 C 1615.8 -2.30689 -2.48266 0
M  V30 16894 C 1614.97 -3.61967 -2.45557 0
M  V30 16895 C 1614.03 -3.81017 -3.62922 0
M  V30 16896 O 1613.06 -4.52759 -3.44961 0
M  V30 16897 N 1614.26 -3.22348 -4.82775 0
M  V30 16898 H 1617.02 -2.89621 -0.7707 0
M  V30 16899 H 1614.58 -1.59564 -0.274033 0
M  V30 16900 H 1616.58 -2.40618 -3.254 0
M  V30 16901 H 1615.15 -1.46488 -2.76152 0
M  V30 16902 H 1614.37 -3.62916 -1.539 0
M  V30 16903 H 1615.65 -4.48191 -2.40836 0
M  V30 16904 H 1615.05 -2.64093 -5.00271 0
M  V30 16905 H 1613.61 -3.37747 -5.57468 0
M  V30 16906 N 1617.04 0.356258 -1.53521 0
M  V30 16907 C 1617.97 1.45965 -1.75413 0
M  V30 16908 C 1618.95 1.51015 -0.602774 0
M  V30 16909 O 1620.14 1.68925 -0.836459 0
M  V30 16910 C 1617.26 2.84276 -1.84132 0
M  V30 16911 C 1616.31 2.96909 -3.06182 0
M  V30 16912 S 1617.14 2.64695 -4.65507 0
M  V30 16913 C 1618.3 4.05138 -4.77089 0
M  V30 16914 H 1618.53 1.27176 -2.68726 0
M  V30 16915 H 1616.06 0.551163 -1.44227 0
M  V30 16916 H 1618.02 3.63965 -1.89842 0
M  V30 16917 H 1616.68 3.00369 -0.918542 0
M  V30 16918 H 1615.88 3.98226 -3.08921 0
M  V30 16919 H 1615.48 2.25154 -2.98633 0
M  V30 16920 H 1617.77 4.99502 -4.57717 0
M  V30 16921 H 1618.71 4.074 -5.79164 0
M  V30 16922 H 1619.12 3.92572 -4.05644 0
M  V30 16923 N 1618.52 1.45038 0.616577 0
M  V30 16924 C 1619.48 1.52647 1.70973 0
M  V30 16925 C 1620.48 0.406902 1.55567 0
M  V30 16926 O 1621.67 0.670062 1.60797 0
M  V30 16927 C 1618.8 1.41438 3.10174 0
M  V30 16928 H 1620 2.50036 1.65596 0
M  V30 16929 H 1617.55 1.32346 0.831524 0
M  V30 16930 H 1618.29 0.451991 3.21135 0
M  V30 16931 H 1618.07 2.22634 3.22764 0
M  V30 16932 H 1619.56 1.49776 3.89817 0
M  V30 16933 N 1620 -0.858287 1.32179 0
M  V30 16934 C 1621.25 -1.60902 1.2229 0
M  V30 16935 C 1621.57 -1.93797 -0.216227 0
M  V30 16936 O 1620.84 -1.59312 -1.14002 0
M  V30 16937 H 1619.42 -0.596529 0.449624 0
M  V30 16938 H 1622.08 -1.02686 1.65655 0
M  V30 16939 H 1621.17 -2.54755 1.80295 0
M  V30 16940 N 1621.48 -1.1533 -1.07409 0
M  V30 16941 C 1622.39 -0.863514 -2.1813 0
M  V30 16942 C 1623.4 0.159954 -1.73263 0
M  V30 16943 O 1624.58 -0.0139818 -2.01395 0
M  V30 16944 C 1621.64 -0.356271 -3.44865 0
M  V30 16945 C 1620.7 -1.44356 -4.04302 0
M  V30 16946 C 1619.94 -0.960429 -5.24987 0
M  V30 16947 O 1620.16 0.194227 -5.70069 0
M  V30 16948 O 1619.09 -1.74387 -5.76084 0
M  V30 16949 H 1622.92 -1.78909 -2.45408 0
M  V30 16950 H 1620.5 -0.932362 -1.16736 0
M  V30 16951 H 1622.39 -0.0798183 -4.21324 0
M  V30 16952 H 1621.06 0.541445 -3.1914 0
M  V30 16953 H 1619.97 -1.77361 -3.29384 0
M  V30 16954 H 1621.3 -2.31617 -4.34298 0
M  V30 16955 N 1622.95 1.25748 -0.950004 0
M  V30 16956 C 1624.2 1.92632 -0.597988 0
M  V30 16957 C 1624.52 1.75268 0.868365 0
M  V30 16958 O 1625.72 2.36684 1.33014 0
M  V30 16959 C 1624.18 3.45179 -1.01879 0
M  V30 16960 C 1623.79 3.71262 -2.50736 0
M  V30 16961 C 1625.53 4.18017 -0.739084 0
M  V30 16962 C 1623.44 5.17292 -2.8664 0
M  V30 16963 H 1622.37 0.72121 -0.219938 0
M  V30 16964 H 1625.02 1.42685 -1.15383 0
M  V30 16965 H 1623.4 3.94061 -0.391395 0
M  V30 16966 H 1624.57 3.33051 -3.18455 0
M  V30 16967 H 1622.89 3.11676 -2.76129 0
M  V30 16968 H 1625.49 5.25576 -0.983555 0
M  V30 16969 H 1625.83 4.15034 0.32439 0
M  V30 16970 H 1626.36 3.75028 -1.32661 0
M  V30 16971 H 1623.1 5.25383 -3.91987 0
M  V30 16972 H 1622.62 5.56567 -2.23591 0
M  V30 16973 H 1624.3 5.85375 -2.75582 0
M  V30 16974 N 1624.43 0.718038 1.40292 0
M  V30 16975 C 1625.39 0.0757483 2.29075 0
M  V30 16976 C 1626.39 -0.684831 1.45488 0
M  V30 16977 O 1627.58 -0.516369 1.66371 0
M  V30 16978 C 1624.72 -0.902534 3.28736 0
M  V30 16979 H 1625.91 0.857729 2.87373 0
M  V30 16980 H 1623.46 0.482839 1.48655 0
M  V30 16981 H 1624.2 -1.71148 2.75461 0
M  V30 16982 H 1623.98 -0.360009 3.90444 0
M  V30 16983 H 1625.47 -1.34903 3.9521 0
M  V30 16984 N 1625.91 -1.50602 0.464402 0
M  V30 16985 C 1627.19 -1.94992 -0.154146 0
M  V30 16986 C 1627.57 -1.40447 -1.57601 0
M  V30 16987 O 1626.92 -0.602668 -2.20409 0
M  V30 16988 C 1627.13 -3.48844 -0.104296 0
M  V30 16989 C 1628.47 -4.23563 -0.296506 0
M  V30 16990 O 1629.5 -3.55739 -0.181187 0
M  V30 16991 O 1628.36 -5.43937 -0.528668 0
M  V30 16992 H 1625.45 -0.818921 -0.115311 0
M  V30 16993 H 1628 -1.61397 0.524324 0
M  V30 16994 H 1626.77 -3.81075 0.88869 0
M  V30 16995 H 1626.39 -3.88957 -0.824514 0
M  V30 16996 N 1627.39 -0.19675 -1.56367 0
M  V30 16997 C 1628.64 0.440711 -1.97236 0
M  V30 16998 C 1628.96 1.62037 -1.08485 0
M  V30 16999 O 1628.23 1.95274 -0.156483 0
M  V30 17000 H 1626.81 0.16581 -0.728365 0
M  V30 17001 H 1629.47 -0.283867 -1.92822 0
M  V30 17002 H 1628.57 0.783731 -3.02099 0
M  V30 17003 N 1628.87 1.57413 0.0768405 0
M  V30 17004 C 1629.8 1.98626 1.12352 0
M  V30 17005 C 1630.78 0.862359 1.37848 0
M  V30 17006 O 1631.96 1.12423 1.51305 0
M  V30 17007 C 1629.09 2.31866 2.46893 0
M  V30 17008 C 1628.13 3.54212 2.37563 0
M  V30 17009 S 1628.97 5.05241 1.77459 0
M  V30 17010 C 1630.12 5.41677 3.13588 0
M  V30 17011 H 1630.36 2.87094 0.772273 0
M  V30 17012 H 1627.89 1.51743 0.285191 0
M  V30 17013 H 1629.85 2.51691 3.24287 0
M  V30 17014 H 1628.51 1.43935 2.7918 0
M  V30 17015 H 1627.7 3.7497 3.36769 0
M  V30 17016 H 1627.3 3.33991 1.68304 0
M  V30 17017 H 1629.6 5.39439 4.09893 0
M  V30 17018 H 1630.54 6.42519 2.97614 0
M  V30 17019 H 1630.95 4.69136 3.13961 0
M  V30 17020 N 1630.34 -0.348112 1.53707 0
M  V30 17021 C 1631.31 -1.41018 1.80683 0
M  V30 17022 C 1632.31 -1.4582 0.67774 0
M  V30 17023 O 1633.5 -1.46275 0.94601 0
M  V30 17024 C 1630.63 -2.79988 1.94473 0
M  V30 17025 H 1631.82 -1.18365 2.75554 0
M  V30 17026 H 1629.38 -0.582244 1.4505 0
M  V30 17027 H 1630.11 -3.07931 1.0173 0
M  V30 17028 H 1629.9 -2.77899 2.76612 0
M  V30 17029 H 1631.39 -3.56868 2.16876 0
M  V30 17030 N 1631.82 -1.45363 -0.608876 0
M  V30 17031 C 1633.05 -1.52614 -1.39257 0
M  V30 17032 C 1633.46 -0.157106 -1.88547 0
M  V30 17033 O 1632.8 0.851329 -1.62782 0
M  V30 17034 C 1632.87 -2.44821 -2.63255 0
M  V30 17035 C 1632.53 -3.91582 -2.35612 0
M  V30 17036 C 1633.53 -4.81517 -1.96054 0
M  V30 17037 C 1631.21 -4.36488 -2.48564 0
M  V30 17038 C 1633.21 -6.14365 -1.69808 0
M  V30 17039 C 1630.89 -5.69377 -2.21931 0
M  V30 17040 C 1631.89 -6.58135 -1.82614 0
M  V30 17041 O 1631.58 -7.88561 -1.56292 0
M  V30 17042 H 1631.31 -0.51935 -0.432726 0
M  V30 17043 H 1633.86 -1.91227 -0.749768 0
M  V30 17044 H 1632.09 -2.01177 -3.30249 0
M  V30 17045 H 1633.78 -2.4277 -3.25296 0
M  V30 17046 H 1634.55 -4.48088 -1.85585 0
M  V30 17047 H 1630.43 -3.67646 -2.78133 0
M  V30 17048 H 1633.97 -6.83602 -1.39045 0
M  V30 17049 H 1629.87 -6.02361 -2.32016 0
M  V30 17050 H 1630.64 -8.00576 -1.70355 0
M  V30 17051 N 1633.3 0.851265 -1.32632 0
M  V30 17052 C 1634.23 1.97562 -1.24465 0
M  V30 17053 C 1635.21 1.69619 -0.127777 0
M  V30 17054 O 1636.4 1.9162 -0.315509 0
M  V30 17055 C 1633.53 3.33467 -0.970423 0
M  V30 17056 C 1632.48 3.75772 -2.0489 0
M  V30 17057 C 1631.81 5.09345 -1.62702 0
M  V30 17058 C 1633.11 3.90876 -3.4643 0
M  V30 17059 H 1634.8 2.04653 -2.18535 0
M  V30 17060 H 1632.35 0.983252 -1.05205 0
M  V30 17061 H 1634.3 4.11681 -0.899825 0
M  V30 17062 H 1633.02 3.26599 0.00591373 0
M  V30 17063 H 1631.68 2.99812 -2.1097 0
M  V30 17064 H 1631.33 4.98937 -0.638039 0
M  V30 17065 H 1631.03 5.38621 -2.34864 0
M  V30 17066 H 1632.55 5.90048 -1.57085 0
M  V30 17067 H 1633.97 4.59434 -3.42919 0
M  V30 17068 H 1632.37 4.31574 -4.1697 0
M  V30 17069 H 1633.44 2.93689 -3.85843 0
M  V30 17070 N 1634.78 1.15898 1.06796 0
M  V30 17071 C 1635.74 0.863427 2.12315 0
M  V30 17072 C 1636.74 -0.139326 1.60195 0
M  V30 17073 O 1637.93 0.0909705 1.73962 0
M  V30 17074 C 1635.06 0.290251 3.39662 0
M  V30 17075 H 1636.26 1.79879 2.39966 0
M  V30 17076 H 1633.81 0.967223 1.22778 0
M  V30 17077 H 1634.54 -0.653037 3.17657 0
M  V30 17078 H 1634.33 1.01273 3.78796 0
M  V30 17079 H 1635.82 0.10124 4.17477 0
M  V30 17080 N 1636.26 -1.25243 0.956659 0
M  V30 17081 C 1637.22 -2.24054 0.482949 0
M  V30 17082 C 1638.22 -1.55367 -0.41447 0
M  V30 17083 O 1639.41 -1.72912 -0.211475 0
M  V30 17084 C 1636.54 -3.3956 -0.301975 0
M  V30 17085 H 1637.73 -2.67476 1.35634 0
M  V30 17086 H 1635.29 -1.37665 0.740138 0
M  V30 17087 H 1636.02 -3.01561 -1.19294 0
M  V30 17088 H 1635.81 -3.90607 0.341876 0
M  V30 17089 H 1637.3 -4.1293 -0.622807 0
M  V30 17090 N 1637.73 -0.725468 -1.3991 0
M  V30 17091 C 1638.68 -0.0682776 -2.325 0
M  V30 17092 C 1639.68 0.736285 -1.52562 0
M  V30 17093 O 1640.88 0.638542 -1.68293 0
M  V30 17094 H 1637.26 -0.00327742 -0.751993 0
M  V30 17095 H 1639.23 -0.865735 -2.85565 0
M  V30 17096 C 1637.98 0.832036 -3.37598 0
M  V30 17097 H 1637.3 0.222341 -3.99181 0
M  V30 17098 H 1638.74 1.25965 -4.04856 0
M  V30 17099 C 1637.2 1.96201 -2.73874 0
M  V30 17100 O 1637.73 3.05378 -2.60974 0
M  V30 17101 N 1635.94 1.74857 -2.32106 0
M  V30 17102 H 1635.48 0.860621 -2.42798 0
M  V30 17103 H 1635.44 2.50639 -1.89808 0
M  V30 17104 N 1639.21 1.50354 -0.472382 0
M  V30 17105 C 1640.16 2.28555 0.321118 0
M  V30 17106 C 1641.13 1.33665 0.98605 0
M  V30 17107 O 1642.31 1.62603 0.998239 0
M  V30 17108 C 1639.45 3.15586 1.39641 0
M  V30 17109 C 1638.57 4.25508 0.746129 0
M  V30 17110 C 1637.7 4.99794 1.79943 0
M  V30 17111 C 1636.74 6.01589 1.12946 0
M  V30 17112 N 1635.88 6.69149 2.12567 0
M  V30 17113 H 1640.72 2.95913 -0.352051 0
M  V30 17114 H 1638.26 1.45926 -0.185461 0
M  V30 17115 H 1640.21 3.64397 2.03152 0
M  V30 17116 H 1638.84 2.50271 2.03873 0
M  V30 17117 H 1637.9 3.804 -0.00157718 0
M  V30 17118 H 1639.21 4.98326 0.217335 0
M  V30 17119 H 1638.36 5.5233 2.51031 0
M  V30 17120 H 1637.1 4.26684 2.36203 0
M  V30 17121 H 1636.11 5.48312 0.404207 0
M  V30 17122 H 1637.33 6.76672 0.573735 0
M  V30 17123 H 1635.28 5.9883 2.67841 0
M  V30 17124 H 1635.19 7.37847 1.64676 0
M  V30 17125 H 1636.46 7.26301 2.83031 0
M  V30 17126 N 1640.69 0.205039 1.56261 0
M  V30 17127 C 1641.94 -0.431097 1.97858 0
M  V30 17128 C 1642.27 -1.60937 1.09223 0
M  V30 17129 O 1641.52 -1.95244 0.133495 0
M  V30 17130 C 1641.82 -0.924086 3.45247 0
M  V30 17131 C 1641.49 0.141879 4.50677 0
M  V30 17132 C 1640.15 0.434753 4.79232 0
M  V30 17133 C 1642.5 0.863645 5.13995 0
M  V30 17134 C 1639.83 1.4542 5.68392 0
M  V30 17135 C 1642.18 1.87231 6.04258 0
M  V30 17136 C 1640.84 2.17227 6.31164 0
M  V30 17137 H 1640.11 -0.157749 0.724014 0
M  V30 17138 H 1642.76 0.304094 1.8907 0
M  V30 17139 H 1641.07 -1.73774 3.51155 0
M  V30 17140 H 1642.76 -1.42586 3.74794 0
M  V30 17141 H 1639.35 -0.0965514 4.28491 0
M  V30 17142 H 1643.54 0.650612 4.92017 0
M  V30 17143 H 1638.79 1.69241 5.8751 0
M  V30 17144 H 1642.97 2.43675 6.52377 0
M  V30 17145 H 1640.59 2.96366 7.00051 0
M  V30 17146 N 1642.17 -1.57451 -0.0684915 0
M  V30 17147 C 1643.42 -1.87689 -0.768156 0
M  V30 17148 C 1643.75 -0.79776 -1.77058 0
M  V30 17149 O 1643.02 0.191614 -1.93554 0
M  V30 17150 C 1643.31 -3.28587 -1.47319 0
M  V30 17151 C 1643.16 -4.47156 -0.486954 0
M  V30 17152 C 1644.48 -3.67772 -2.41727 0
M  V30 17153 H 1641.6 -0.682642 -0.277793 0
M  V30 17154 H 1644.24 -1.89974 -0.0312968 0
M  V30 17155 H 1642.39 -3.26769 -2.10129 0
M  V30 17156 H 1644.06 -4.61099 0.136189 0
M  V30 17157 H 1642.3 -4.33351 0.197429 0
M  V30 17158 H 1642.98 -5.42533 -1.01795 0
M  V30 17159 H 1645.45 -3.70704 -1.88992 0
M  V30 17160 H 1644.33 -4.6724 -2.88059 0
M  V30 17161 H 1644.59 -2.97882 -3.26679 0
M  V30 17162 N 1643.65 0.339955 -1.5389 0
M  V30 17163 C 1644.6 1.41838 -1.78511 0
M  V30 17164 C 1645.58 1.47604 -0.640447 0
M  V30 17165 O 1646.77 1.52414 -0.899951 0
M  V30 17166 C 1643.9 2.78929 -2.00134 0
M  V30 17167 C 1642.99 2.7754 -3.20675 0
M  V30 17168 N 1643.38 2.45779 -4.42071 0
M  V30 17169 C 1641.68 3.08684 -3.21917 0
M  V30 17170 C 1642.38 2.52714 -5.23938 0
M  V30 17171 N 1641.35 2.88484 -4.60736 0
M  V30 17172 H 1645.16 1.16185 -2.6996 0
M  V30 17173 H 1642.67 0.548339 -1.52863 0
M  V30 17174 H 1644.67 3.56637 -2.15907 0
M  V30 17175 H 1643.33 3.05525 -1.09929 0
M  V30 17176 H 1644.34 2.18913 -4.69358 0
M  V30 17177 H 1641.02 3.40429 -2.41691 0
M  V30 17178 H 1642.41 2.31287 -6.30838 0
M  V30 17179 N 1645.13 1.45684 0.601159 0
M  V30 17180 C 1646.54 1.30232 0.922598 0
M  V30 17181 C 1646.74 0.260086 1.99814 0
M  V30 17182 O 1645.8 -0.343753 2.50149 0
M  V30 17183 C 1647.11 2.68318 1.35743 0
M  V30 17184 C 1648.66 2.76264 1.47129 0
M  V30 17185 C 1649.13 4.1489 1.93986 0
M  V30 17186 N 1650.62 4.17216 2.01209 0
M  V30 17187 C 1651.36 5.21354 2.387 0
M  V30 17188 N 1650.86 6.35833 2.75114 0
M  V30 17189 N 1652.65 5.08714 2.39095 0
M  V30 17190 H 1644.8 2.12117 -0.109634 0
M  V30 17191 H 1647.06 0.947902 0.0136129 0
M  V30 17192 H 1646.77 3.45804 0.64127 0
M  V30 17193 H 1646.64 2.97206 2.32268 0
M  V30 17194 H 1649.03 1.99077 2.17835 0
M  V30 17195 H 1649.11 2.51082 0.489028 0
M  V30 17196 H 1648.75 4.92565 1.23864 0
M  V30 17197 H 1648.68 4.37468 2.93137 0
M  V30 17198 H 1651.18 3.34607 1.75632 0
M  V30 17199 H 1651.49 7.11084 3.02622 0
M  V30 17200 H 1649.83 6.39224 2.72795 0
M  V30 17201 H 1653.02 4.18322 2.10057 0
M  V30 17202 H 1653.2 5.89989 2.67987 0
M  V30 17203 N 1646.6 -0.84422 1.33082 0
M  V30 17204 C 1647.88 -1.58339 1.1484 0
M  V30 17205 C 1648.26 -2.09136 -0.287273 0
M  V30 17206 O 1647.61 -1.8891 -1.2855 0
M  V30 17207 C 1647.82 -2.72141 2.18496 0
M  V30 17208 C 1649.17 -3.41457 2.52373 0
M  V30 17209 O 1650.19 -2.82377 2.17122 0
M  V30 17210 O 1649.05 -4.48096 3.12845 0
M  V30 17211 H 1646.14 -0.697813 0.443831 0
M  V30 17212 H 1648.69 -0.88744 1.44646 0
M  V30 17213 H 1647.46 -2.32206 3.14954 0
M  V30 17214 H 1647.08 -3.49404 1.89744 0
M  V30 17215 N 1648.08 -1.16463 -1.0618 0
M  V30 17216 C 1649.01 -0.895399 -2.1565 0
M  V30 17217 C 1649.99 0.158729 -1.69358 0
M  V30 17218 O 1651.18 0.010586 -1.94197 0
M  V30 17219 C 1648.31 -0.396959 -3.45024 0
M  V30 17220 C 1647.26 -1.38913 -4.0483 0
M  V30 17221 C 1646.59 -0.749043 -5.29427 0
M  V30 17222 C 1647.89 -2.7591 -4.43476 0
M  V30 17223 H 1649.58 -1.81085 -2.38429 0
M  V30 17224 H 1647.13 -0.872098 -1.14588 0
M  V30 17225 H 1649.08 -0.196086 -4.20944 0
M  V30 17226 H 1647.8 0.554002 -3.21867 0
M  V30 17227 H 1646.46 -1.57657 -3.30968 0
M  V30 17228 H 1646.11 0.208439 -5.02568 0
M  V30 17229 H 1645.81 -1.41128 -5.704 0
M  V30 17230 H 1647.34 -0.558217 -6.08043 0
M  V30 17231 H 1648.75 -2.60942 -5.10473 0
M  V30 17232 H 1647.15 -3.38618 -4.95437 0
M  V30 17233 H 1648.22 -3.31076 -3.54284 0
M  V30 17234 N 1649.56 1.24734 -0.963288 0
M  V30 17235 C 1650.52 2.23795 -0.494824 0
M  V30 17236 C 1651.52 1.55584 0.406225 0
M  V30 17237 O 1652.71 1.73021 0.202302 0
M  V30 17238 C 1649.84 3.39715 0.283963 0
M  V30 17239 H 1651.04 2.66753 -1.37051 0
M  V30 17240 H 1648.59 1.37271 -0.747428 0
M  V30 17241 H 1649.33 3.0219 1.17693 0
M  V30 17242 H 1649.11 3.9042 -0.362586 0
M  V30 17243 H 1650.6 4.13254 0.600899 0
M  V30 17244 N 1651.04 0.732878 1.39523 0
M  V30 17245 C 1652 0.10004 2.28982 0
M  V30 17246 C 1653 -0.669361 1.46206 0
M  V30 17247 O 1654.19 -0.498694 1.66909 0
M  V30 17248 C 1651.32 -0.867616 3.29674 0
M  V30 17249 H 1652.52 0.88816 2.86447 0
M  V30 17250 H 1650.07 0.498578 1.48135 0
M  V30 17251 H 1650.8 -1.68217 2.77261 0
M  V30 17252 H 1650.59 -0.318577 3.90804 0
M  V30 17253 H 1652.08 -1.30704 3.96618 0
M  V30 17254 N 1652.52 -1.50101 0.480349 0
M  V30 17255 C 1653.93 -1.59028 0.135048 0
M  V30 17256 C 1654.13 -1.48763 -1.35911 0
M  V30 17257 O 1653.19 -1.35089 -2.13324 0
M  V30 17258 C 1654.5 -2.92594 0.693483 0
M  V30 17259 C 1656.05 -3.06011 0.657737 0
M  V30 17260 C 1656.52 -4.42166 1.19388 0
M  V30 17261 N 1658.01 -4.48603 1.15368 0
M  V30 17262 C 1658.75 -5.52363 1.53893 0
M  V30 17263 N 1658.25 -6.6333 1.99911 0
M  V30 17264 N 1660.04 -5.42959 1.45438 0
M  V30 17265 H 1652.19 -1.55017 1.45202 0
M  V30 17266 H 1654.45 -0.733118 0.601034 0
M  V30 17267 H 1654.16 -3.0561 1.74056 0
M  V30 17268 H 1654.03 -3.76932 0.142238 0
M  V30 17269 H 1656.42 -2.92637 -0.38045 0
M  V30 17270 H 1656.5 -2.23408 1.24589 0
M  V30 17271 H 1656.14 -4.5629 2.23074 0
M  V30 17272 H 1656.07 -5.23376 0.58185 0
M  V30 17273 H 1658.57 -3.68979 0.816271 0
M  V30 17274 H 1658.88 -7.38576 2.27431 0
M  V30 17275 H 1657.22 -6.64426 2.03871 0
M  V30 17276 H 1660.41 -4.55156 1.09321 0
M  V30 17277 H 1660.59 -6.23701 1.75786 0
M  V30 17278 N 1653.99 -0.213323 -1.5615 0
M  V30 17279 C 1654.94 0.716708 -2.21283 0
M  V30 17280 C 1655.94 1.20599 -1.18963 0
M  V30 17281 O 1657.14 1.16677 -1.37064 0
M  V30 17282 H 1653.52 0.249524 -0.709395 0
M  V30 17283 H 1655.49 0.14385 -2.98053 0
M  V30 17284 C 1654.24 1.91775 -2.9003 0
M  V30 17285 H 1653.56 1.55036 -3.68516 0
M  V30 17286 H 1655 2.54646 -3.39016 0
M  V30 17287 C 1653.46 2.768 -1.92051 0
M  V30 17288 O 1653.99 3.75299 -1.43225 0
M  V30 17289 N 1652.19 2.42666 -1.5988 0
M  V30 17290 H 1651.74 1.62622 -1.99779 0
M  V30 17291 H 1651.7 2.99836 -0.945833 0
M  V30 17292 N 1655.47 1.57485 0.0601405 0
M  V30 17293 C 1656.71 1.89654 0.762278 0
M  V30 17294 C 1657.08 0.808458 1.74149 0
M  V30 17295 O 1658.28 1.01355 2.48959 0
M  V30 17296 C 1656.55 3.27038 1.44156 0
M  V30 17297 S 1658.11 3.8098 2.17715 0
M  V30 17298 H 1654.93 0.664373 0.253239 0
M  V30 17299 H 1657.53 1.95492 0.0179261 0
M  V30 17300 H 1656.23 4.0412 0.715225 0
M  V30 17301 H 1655.76 3.24427 2.2251 0
M  V30 17302 H 1657.78 3.57204 3.44413 0
M  V30 17303 N 1656.95 -0.331789 1.54068 0
M  V30 17304 C 1657.88 -1.43156 1.77713 0
M  V30 17305 C 1658.86 -1.50036 0.626723 0
M  V30 17306 O 1660.05 -1.67573 0.863228 0
M  V30 17307 C 1657.17 -2.81311 1.88632 0
M  V30 17308 C 1656.22 -2.92 3.10867 0
M  V30 17309 S 1657.05 -2.57255 4.69659 0
M  V30 17310 C 1658.21 -3.97497 4.83474 0
M  V30 17311 H 1658.44 -1.22884 2.70715 0
M  V30 17312 H 1655.97 -0.528148 1.45086 0
M  V30 17313 H 1657.93 -3.60898 1.95608 0
M  V30 17314 H 1656.59 -2.9887 0.966212 0
M  V30 17315 H 1655.79 -3.93261 3.15217 0
M  V30 17316 H 1655.39 -2.20374 3.02177 0
M  V30 17317 H 1657.68 -4.92156 4.65605 0
M  V30 17318 H 1658.62 -3.98135 5.85572 0
M  V30 17319 H 1659.03 -3.86069 4.11838 0
M  V30 17320 N 1658.43 -1.46001 -0.593424 0
M  V30 17321 C 1659.67 -1.50978 -1.35401 0
M  V30 17322 C 1660.01 -0.156626 -1.93567 0
M  V30 17323 O 1659.28 0.83067 -1.7587 0
M  V30 17324 C 1659.57 -2.60005 -2.49137 0
M  V30 17325 C 1659.42 -4.04814 -1.96075 0
M  V30 17326 C 1660.74 -2.65199 -3.51223 0
M  V30 17327 H 1657.86 -0.549657 -0.490965 0
M  V30 17328 H 1660.5 -1.77883 -0.667644 0
M  V30 17329 H 1658.65 -2.37194 -3.07687 0
M  V30 17330 H 1660.32 -4.38879 -1.42066 0
M  V30 17331 H 1658.56 -4.148 -1.26976 0
M  V30 17332 H 1659.23 -4.76811 -2.78128 0
M  V30 17333 H 1661.71 -2.85675 -3.02537 0
M  V30 17334 H 1660.59 -3.43323 -4.28276 0
M  V30 17335 H 1660.85 -1.70833 -4.0776 0
M  V30 17336 N 1659.91 0.83715 -1.33527 0
M  V30 17337 C 1661.13 1.62976 -1.28271 0
M  V30 17338 C 1661.56 1.87554 0.143201 0
M  V30 17339 O 1660.91 1.44088 1.10038 0
M  V30 17340 C 1660.96 2.95607 -2.06516 0
M  V30 17341 O 1660.07 3.87 -1.42494 0
M  V30 17342 H 1659.41 0.496212 -0.441214 0
M  V30 17343 H 1661.94 1.04137 -1.76115 0
M  V30 17344 H 1661.95 3.4529 -2.17344 0
M  V30 17345 H 1660.62 2.77041 -3.10195 0
M  V30 17346 H 1659.2 3.45492 -1.40321 0
M  V30 17347 N 1661.38 1.17024 1.05561 0
M  V30 17348 C 1662.32 0.841314 2.13201 0
M  V30 17349 C 1663.33 -0.154667 1.62064 0
M  V30 17350 O 1664.52 0.0711173 1.78358 0
M  V30 17351 C 1661.62 0.233156 3.38097 0
M  V30 17352 C 1660.79 1.27108 4.18524 0
M  V30 17353 C 1659.85 0.681364 5.2177 0
M  V30 17354 O 1658.88 1.35219 5.52906 0
M  V30 17355 N 1660.08 -0.528381 5.7809 0
M  V30 17356 H 1662.84 1.76773 2.42015 0
M  V30 17357 H 1660.4 1.06858 1.21626 0
M  V30 17358 H 1662.4 -0.174565 4.04323 0
M  V30 17359 H 1660.97 -0.596965 3.06847 0
M  V30 17360 H 1660.19 1.85469 3.47843 0
M  V30 17361 H 1661.47 1.97129 4.6906 0
M  V30 17362 H 1660.87 -1.09141 5.55072 0
M  V30 17363 H 1659.43 -0.878214 6.45857 0
M  V30 17364 N 1662.86 -1.24221 0.969889 0
M  V30 17365 C 1664.14 -1.87715 0.549772 0
M  V30 17366 C 1664.52 -1.87333 -0.973114 0
M  V30 17367 O 1663.87 -1.3475 -1.84539 0
M  V30 17368 C 1664.08 -3.29724 1.14381 0
M  V30 17369 C 1665.43 -4.06393 1.23005 0
M  V30 17370 O 1666.45 -3.38904 1.09648 0
M  V30 17371 O 1665.31 -5.27149 1.4414 0
M  V30 17372 H 1662.4 -0.806356 0.183629 0
M  V30 17373 H 1664.95 -1.32177 1.0643 0
M  V30 17374 H 1663.72 -3.24513 2.18649 0
M  V30 17375 H 1663.34 -3.92839 0.613456 0
M  V30 17376 N 1664.34 -0.740267 -1.39132 0
M  V30 17377 C 1665.59 -0.290523 -2.00405 0
M  V30 17378 C 1665.92 1.12383 -1.58746 0
M  V30 17379 O 1665.17 1.78148 -0.81005 0
M  V30 17380 C 1665.47 -0.346009 -3.55721 0
M  V30 17381 C 1665.14 -1.71412 -4.17048 0
M  V30 17382 C 1663.8 -2.08857 -4.33512 0
M  V30 17383 C 1666.15 -2.61216 -4.51016 0
M  V30 17384 C 1663.48 -3.35603 -4.81235 0
M  V30 17385 C 1665.83 -3.8734 -5.0015 0
M  V30 17386 C 1664.49 -4.2487 -5.14822 0
M  V30 17387 H 1663.76 -0.10631 -0.733334 0
M  V30 17388 H 1666.41 -0.948141 -1.66381 0
M  V30 17389 H 1664.72 0.395183 -3.89802 0
M  V30 17390 H 1666.41 0.020191 -4.00995 0
M  V30 17391 H 1663 -1.41301 -4.04638 0
M  V30 17392 H 1667.19 -2.33556 -4.3791 0
M  V30 17393 H 1662.44 -3.64617 -4.90779 0
M  V30 17394 H 1666.62 -4.57079 -5.25406 0
M  V30 17395 H 1664.24 -5.23147 -5.51562 0
M  V30 17396 N 1665.82 1.49844 -0.488302 0
M  V30 17397 C 1667.05 2.06819 0.0578807 0
M  V30 17398 C 1667.46 1.35018 1.31969 0
M  V30 17399 O 1666.82 0.424614 1.77492 0
M  V30 17400 C 1666.87 3.60005 0.328435 0
M  V30 17401 O 1666.59 4.29102 -0.883338 0
M  V30 17402 C 1668.09 4.33655 0.919675 0
M  V30 17403 H 1665.31 0.670837 -0.014775 0
M  V30 17404 H 1667.86 1.92792 -0.682022 0
M  V30 17405 H 1666.01 3.73777 1.0183 0
M  V30 17406 H 1666.42 5.206 -0.638414 0
M  V30 17407 H 1667.9 5.41753 1.05864 0
M  V30 17408 H 1668.38 3.95289 1.91424 0
M  V30 17409 H 1668.98 4.24457 0.267672 0
M  V30 17410 N 1667.3 0.221601 1.56034 0
M  V30 17411 C 1668.54 -0.410695 1.98598 0
M  V30 17412 C 1668.88 -1.59412 1.10912 0
M  V30 17413 O 1668.15 -1.93783 0.166819 0
M  V30 17414 C 1668.43 -0.845199 3.50041 0
M  V30 17415 C 1668.29 0.341866 4.48499 0
M  V30 17416 C 1669.61 -1.70135 4.05884 0
M  V30 17417 H 1666.72 -0.147808 0.722026 0
M  V30 17418 H 1669.37 0.317846 1.87323 0
M  V30 17419 H 1667.52 -1.46597 3.5978 0
M  V30 17420 H 1669.19 0.980014 4.5077 0
M  V30 17421 H 1667.43 0.989294 4.22369 0
M  V30 17422 H 1668.1 -0.00509234 5.52 0
M  V30 17423 H 1670.58 -1.17757 3.9909 0
M  V30 17424 H 1669.45 -1.97427 5.12166 0
M  V30 17425 H 1669.72 -2.66469 3.5277 0
M  V30 17426 N 1668.77 -1.57515 -0.0517878 0
M  V30 17427 C 1669.72 -2.05051 -1.05937 0
M  V30 17428 C 1670.69 -0.935032 -1.37282 0
M  V30 17429 O 1671.88 -1.20408 -1.48009 0
M  V30 17430 C 1669.02 -2.51594 -2.36208 0
M  V30 17431 C 1668.13 -3.76843 -2.11219 0
M  V30 17432 C 1667.26 -4.12088 -3.35197 0
M  V30 17433 C 1666.3 -5.30318 -3.05662 0
M  V30 17434 N 1665.44 -5.61104 -4.22026 0
M  V30 17435 H 1670.28 -2.90891 -0.647027 0
M  V30 17436 H 1667.82 -1.43842 -0.307891 0
M  V30 17437 H 1669.78 -2.76638 -3.12293 0
M  V30 17438 H 1668.41 -1.68704 -2.75207 0
M  V30 17439 H 1667.46 -3.5902 -1.25734 0
M  V30 17440 H 1668.77 -4.63057 -1.85416 0
M  V30 17441 H 1667.92 -4.38139 -4.19666 0
M  V30 17442 H 1666.66 -3.24479 -3.64094 0
M  V30 17443 H 1665.67 -5.04043 -2.19592 0
M  V30 17444 H 1666.89 -6.19561 -2.78067 0
M  V30 17445 H 1664.84 -4.76456 -4.50917 0
M  V30 17446 H 1664.76 -6.4178 -3.99568 0
M  V30 17447 H 1666.02 -5.91719 -5.07434 0
M  V30 17448 N 1670.25 0.323614 -1.54242 0
M  V30 17449 C 1671.5 1.05909 -1.71657 0
M  V30 17450 C 1671.82 1.89177 -0.497151 0
M  V30 17451 O 1673.02 2.65816 -0.552649 0
M  V30 17452 C 1671.48 1.93246 -3.03618 0
M  V30 17453 C 1671.09 1.1509 -4.32965 0
M  V30 17454 C 1672.83 2.6653 -3.30397 0
M  V30 17455 C 1670.74 2.01573 -5.55988 0
M  V30 17456 H 1669.67 0.399114 -0.639706 0
M  V30 17457 H 1672.32 0.317338 -1.80735 0
M  V30 17458 H 1670.7 2.71319 -2.88447 0
M  V30 17459 H 1671.87 0.417877 -4.58901 0
M  V30 17460 H 1670.19 0.534882 -4.1295 0
M  V30 17461 H 1672.79 3.31542 -4.19504 0
M  V30 17462 H 1673.13 3.34164 -2.48274 0
M  V30 17463 H 1673.66 1.95518 -3.46435 0
M  V30 17464 H 1670.4 1.38446 -6.40713 0
M  V30 17465 H 1669.92 2.72609 -5.3427 0
M  V30 17466 H 1671.6 2.60159 -5.9239 0
M  V30 17467 N 1671.73 1.46313 0.585673 0
M  V30 17468 C 1672.98 1.51171 1.34134 0
M  V30 17469 C 1673.3 0.163691 1.94312 0
M  V30 17470 O 1672.57 -0.809444 1.78395 0
M  V30 17471 H 1671.15 0.556768 0.498014 0
M  V30 17472 H 1673.81 1.82423 0.686133 0
M  V30 17473 H 1672.91 2.26274 2.14957 0
M  V30 17474 N 1673.21 -0.830057 1.33969 0
M  V30 17475 C 1674.49 -1.57112 1.16513 0
M  V30 17476 C 1674.87 -2.09429 -0.265075 0
M  V30 17477 O 1674.21 -1.90263 -1.26539 0
M  V30 17478 C 1674.42 -2.69808 2.2137 0
M  V30 17479 C 1675.77 -3.38761 2.55981 0
M  V30 17480 O 1676.8 -2.80058 2.20104 0
M  V30 17481 O 1675.66 -4.44753 3.1758 0
M  V30 17482 H 1672.75 -0.693066 0.451207 0
M  V30 17483 H 1675.3 -0.872048 1.4558 0
M  V30 17484 H 1674.07 -2.28852 3.17399 0
M  V30 17485 H 1673.69 -3.47372 1.93439 0
M  V30 17486 N 1674.69 -1.17582 -1.04939 0
M  V30 17487 C 1675.93 -0.965778 -1.77986 0
M  V30 17488 C 1676.26 0.505366 -1.8782 0
M  V30 17489 O 1675.52 1.39132 -1.37625 0
M  V30 17490 C 1675.82 -1.55507 -3.21796 0
M  V30 17491 C 1675.48 -3.05086 -3.32014 0
M  V30 17492 C 1674.14 -3.45914 -3.3451 0
M  V30 17493 C 1676.5 -4.01096 -3.32824 0
M  V30 17494 C 1673.82 -4.81344 -3.35447 0
M  V30 17495 C 1676.18 -5.3643 -3.353 0
M  V30 17496 C 1674.84 -5.76718 -3.36084 0
M  V30 17497 H 1674.11 -0.353403 -0.651297 0
M  V30 17498 H 1676.76 -1.46512 -1.23315 0
M  V30 17499 H 1675.06 -0.977509 -3.7941 0
M  V30 17500 H 1676.76 -1.36807 -3.76941 0
M  V30 17501 H 1673.35 -2.72541 -3.30786 0
M  V30 17502 H 1677.53 -3.7061 -3.30094 0
M  V30 17503 H 1672.79 -5.11868 -3.34366 0
M  V30 17504 H 1676.96 -6.106 -3.34874 0
M  V30 17505 H 1674.59 -6.81637 -3.36563 0
M  V30 17506 N 1676.17 1.23705 -0.976463 0
M  V30 17507 C 1677.41 1.91635 -0.641897 0
M  V30 17508 C 1677.73 1.7661 0.826678 0
M  V30 17509 O 1677 1.14304 1.59096 0
M  V30 17510 H 1675.58 0.709264 -0.234422 0
M  V30 17511 H 1678.25 1.50414 -1.23943 0
M  V30 17512 H 1677.34 2.99138 -0.890099 0
M  V30 17513 N 1677.64 0.747635 1.38738 0
M  V30 17514 C 1678.58 0.0644992 2.28109 0
M  V30 17515 C 1679.55 -0.734554 1.45062 0
M  V30 17516 O 1680.74 -0.714444 1.74436 0
M  V30 17517 C 1677.87 -0.915595 3.2609 0
M  V30 17518 C 1676.91 -0.203499 4.26014 0
M  V30 17519 S 1677.74 1.09151 5.24258 0
M  V30 17520 C 1678.9 0.114334 6.25796 0
M  V30 17521 H 1679.13 0.822371 2.857 0
M  V30 17522 H 1676.67 0.539962 1.44651 0
M  V30 17523 H 1678.62 -1.47575 3.83056 0
M  V30 17524 H 1677.29 -1.6464 2.67493 0
M  V30 17525 H 1676.48 -0.945572 4.9505 0
M  V30 17526 H 1676.08 0.284966 3.72913 0
M  V30 17527 H 1678.37 -0.721737 6.73645 0
M  V30 17528 H 1679.32 0.772189 7.03877 0
M  V30 17529 H 1679.72 -0.263706 5.63884 0
M  V30 17530 N 1679.12 -1.49583 0.496242 0
M  V30 17531 C 1680.35 -2.06847 -0.0469118 0
M  V30 17532 C 1680.76 -1.35715 -1.31251 0
M  V30 17533 O 1680.12 -0.434021 -1.77264 0
M  V30 17534 C 1680.17 -3.60174 -0.309338 0
M  V30 17535 O 1679.89 -4.28628 0.906082 0
M  V30 17536 C 1681.39 -4.34137 -0.896664 0
M  V30 17537 H 1678.61 -0.67075 0.0183324 0
M  V30 17538 H 1681.16 -1.92427 0.692237 0
M  V30 17539 H 1679.31 -3.74312 -0.998459 0
M  V30 17540 H 1679.73 -5.20254 0.666014 0
M  V30 17541 H 1681.2 -5.42307 -1.0299 0
M  V30 17542 H 1681.68 -3.96299 -1.89325 0
M  V30 17543 H 1682.28 -4.24593 -0.245158 0
M  V30 17544 N 1680.6 -0.229873 -1.55915 0
M  V30 17545 C 1682.02 0.125347 -1.59107 0
M  V30 17546 C 1682.22 1.58293 -1.24682 0
M  V30 17547 O 1681.27 2.32452 -0.986018 0
M  V30 17548 C 1682.58 -0.208461 -2.99977 0
M  V30 17549 C 1684.13 -0.151373 -3.12634 0
M  V30 17550 C 1684.61 -0.458972 -4.55694 0
M  V30 17551 N 1686.1 -0.408847 -4.61392 0
M  V30 17552 C 1686.83 -0.620239 -5.70036 0
M  V30 17553 N 1686.33 -0.893851 -6.8701 0
M  V30 17554 N 1688.12 -0.552107 -5.59382 0
M  V30 17555 H 1680.27 -1.18062 -1.76565 0
M  V30 17556 H 1682.54 -0.473821 -0.821095 0
M  V30 17557 H 1682.24 -1.22043 -3.29846 0
M  V30 17558 H 1682.12 0.472591 -3.74228 0
M  V30 17559 H 1684.5 0.851249 -2.82556 0
M  V30 17560 H 1684.58 -0.866024 -2.40694 0
M  V30 17561 H 1684.23 -1.45907 -4.86491 0
M  V30 17562 H 1684.16 0.276965 -5.25871 0
M  V30 17563 H 1686.65 -0.205404 -3.77341 0
M  V30 17564 H 1686.96 -1.04303 -7.65729 0
M  V30 17565 H 1685.31 -0.931138 -6.88734 0
M  V30 17566 H 1688.5 -0.338518 -4.66874 0
M  V30 17567 H 1688.67 -0.720256 -6.43985 0
M  V30 17568 N 1682.08 1.5754 0.0434337 0
M  V30 17569 C 1683.35 1.79733 0.771713 0
M  V30 17570 C 1683.73 0.82446 1.94334 0
M  V30 17571 O 1683.08 -0.136485 2.28092 0
M  V30 17572 C 1683.29 3.27049 1.2182 0
M  V30 17573 C 1684.64 3.91648 1.64002 0
M  V30 17574 O 1685.66 3.31111 1.31315 0
M  V30 17575 O 1684.52 4.98206 2.24618 0
M  V30 17576 H 1681.62 0.73861 0.372001 0
M  V30 17577 H 1684.16 1.69687 0.0213187 0
M  V30 17578 H 1682.94 3.89439 0.381158 0
M  V30 17579 H 1682.56 3.41929 2.02905 0
M  V30 17580 N 1683.56 -0.31543 1.54411 0
M  V30 17581 C 1684.8 -1.05396 1.73261 0
M  V30 17582 C 1685.13 -1.87406 0.509171 0
M  V30 17583 O 1684.41 -1.88126 -0.493836 0
M  V30 17584 C 1684.69 -1.97195 3.01308 0
M  V30 17585 C 1684.55 -1.18461 4.33921 0
M  V30 17586 C 1685.86 -2.96594 3.25146 0
M  V30 17587 H 1682.98 -0.381763 0.630417 0
M  V30 17588 H 1685.63 -0.329882 1.87114 0
M  V30 17589 H 1683.78 -2.58936 2.89628 0
M  V30 17590 H 1685.45 -0.591171 4.57496 0
M  V30 17591 H 1683.69 -0.487025 4.31057 0
M  V30 17592 H 1684.36 -1.85909 5.19752 0
M  V30 17593 H 1686.84 -2.44977 3.36341 0
M  V30 17594 H 1685.71 -3.58002 4.16084 0
M  V30 17595 H 1685.97 -3.69487 2.42758 0
M  V30 17596 N 1685.03 -1.46622 -0.577906 0
M  V30 17597 C 1686.26 -1.55534 -1.35988 0
M  V30 17598 C 1686.67 -0.197065 -1.88171 0
M  V30 17599 O 1686.02 0.816609 -1.64551 0
M  V30 17600 C 1686.08 -2.5035 -2.58002 0
M  V30 17601 C 1685.74 -3.96491 -2.27253 0
M  V30 17602 C 1686.74 -4.85567 -1.85797 0
M  V30 17603 C 1684.42 -4.41662 -2.39249 0
M  V30 17604 C 1686.42 -6.17828 -1.56738 0
M  V30 17605 C 1684.1 -5.73956 -2.09803 0
M  V30 17606 C 1685.1 -6.6186 -1.68613 0
M  V30 17607 O 1684.79 -7.91698 -1.3953 0
M  V30 17608 H 1684.52 -0.528412 -0.421612 0
M  V30 17609 H 1687.08 -1.92774 -0.709038 0
M  V30 17610 H 1685.31 -2.08137 -3.25908 0
M  V30 17611 H 1687 -2.49616 -3.20073 0
M  V30 17612 H 1687.76 -4.51924 -1.76039 0
M  V30 17613 H 1683.64 -3.73462 -2.70272 0
M  V30 17614 H 1687.18 -6.86398 -1.24514 0
M  V30 17615 H 1683.08 -6.07147 -2.19187 0
M  V30 17616 H 1683.85 -8.04009 -1.53335 0
M  V30 17617 N 1686.51 0.822941 -1.34408 0
M  V30 17618 C 1687.42 1.96567 -1.28056 0
M  V30 17619 C 1688.44 1.72979 -0.188251 0
M  V30 17620 O 1689.61 1.97084 -0.41472 0
M  V30 17621 C 1686.68 3.30865 -1.03583 0
M  V30 17622 C 1685.74 3.67461 -2.2197 0
M  V30 17623 C 1684.97 4.9535 -1.98655 0
M  V30 17624 O 1685.2 5.62521 -0.944785 0
M  V30 17625 O 1684.13 5.29824 -2.85605 0
M  V30 17626 H 1687.96 2.0487 -2.24192 0
M  V30 17627 H 1685.54 0.958334 -1.14614 0
M  V30 17628 H 1687.42 4.11298 -0.917162 0
M  V30 17629 H 1686.1 3.2353 -0.104868 0
M  V30 17630 H 1685.01 2.87472 -2.39396 0
M  V30 17631 H 1686.34 3.79481 -3.13456 0
M  V30 17632 N 1687.99 1.18137 1.04314 0
M  V30 17633 C 1689.22 1.00002 1.81128 0
M  V30 17634 C 1689.63 -0.451609 1.83319 0
M  V30 17635 O 1688.99 -1.31367 1.26685 0
M  V30 17636 C 1689.04 1.54454 3.26843 0
M  V30 17637 O 1688.76 2.93933 3.24861 0
M  V30 17638 C 1690.26 1.40902 4.20311 0
M  V30 17639 H 1687.48 0.35327 0.570475 0
M  V30 17640 H 1690.03 1.56629 1.31482 0
M  V30 17641 H 1688.18 1.02009 3.73728 0
M  V30 17642 H 1688.6 3.19279 4.16127 0
M  V30 17643 H 1690.07 1.83803 5.205 0
M  V30 17644 H 1690.55 0.357371 4.37744 0
M  V30 17645 H 1691.15 1.92407 3.79288 0
M  V30 17646 N 1689.47 -1.23186 0.98301 0
M  V30 17647 C 1690.75 -1.87121 0.569651 0
M  V30 17648 C 1691.13 -1.88355 -0.95319 0
M  V30 17649 O 1690.47 -1.36699 -1.831 0
M  V30 17650 C 1690.68 -3.28493 1.17871 0
M  V30 17651 C 1692.03 -4.05065 1.27308 0
M  V30 17652 O 1693.06 -3.37722 1.13236 0
M  V30 17653 O 1691.91 -5.2559 1.49723 0
M  V30 17654 H 1689.01 -0.804363 0.192171 0
M  V30 17655 H 1691.55 -1.31041 1.07826 0
M  V30 17656 H 1690.33 -3.22175 2.22078 0
M  V30 17657 H 1689.95 -3.92166 0.655087 0
M  V30 17658 N 1690.95 -0.754982 -1.38339 0
M  V30 17659 C 1692.18 -0.322156 -2.04073 0
M  V30 17660 C 1692.58 1.05488 -1.57063 0
M  V30 17661 O 1691.93 1.68154 -0.739597 0
M  V30 17662 C 1691.99 -0.267836 -3.58501 0
M  V30 17663 C 1691.65 -1.58665 -4.28572 0
M  V30 17664 C 1692.65 -2.53609 -4.53849 0
M  V30 17665 C 1690.34 -1.85647 -4.66734 0
M  V30 17666 C 1692.33 -3.73753 -5.16321 0
M  V30 17667 C 1690.02 -3.06065 -5.28931 0
M  V30 17668 C 1691.01 -3.99938 -5.53659 0
M  V30 17669 O 1690.7 -5.18238 -6.14561 0
M  V30 17670 H 1690.43 -0.135341 -0.662313 0
M  V30 17671 H 1692.99 -1.02517 -1.77987 0
M  V30 17672 H 1691.22 0.491434 -3.83565 0
M  V30 17673 H 1692.91 0.135662 -4.05673 0
M  V30 17674 H 1693.67 -2.3404 -4.24794 0
M  V30 17675 H 1689.55 -1.13415 -4.46831 0
M  V30 17676 H 1693.1 -4.47039 -5.35539 0
M  V30 17677 H 1688.99 -3.25526 -5.57408 0
M  V30 17678 H 1689.76 -5.18838 -6.33047 0
M  V30 17679 N 1692.42 1.49318 -0.504168 0
M  V30 17680 C 1693.65 2.06569 0.0358894 0
M  V30 17681 C 1694.06 1.36437 1.31079 0
M  V30 17682 O 1693.41 0.437416 1.78416 0
M  V30 17683 C 1693.47 3.57726 0.356656 0
M  V30 17684 C 1693.13 4.49565 -0.820987 0
M  V30 17685 C 1694.13 4.90892 -1.71235 0
M  V30 17686 C 1691.81 4.9182 -1.02069 0
M  V30 17687 C 1693.81 5.73214 -2.78754 0
M  V30 17688 C 1691.49 5.73919 -2.09905 0
M  V30 17689 C 1692.49 6.14521 -2.98082 0
M  V30 17690 O 1692.18 6.94977 -4.04057 0
M  V30 17691 H 1691.91 0.675742 -0.0186739 0
M  V30 17692 H 1694.47 1.93044 -0.701664 0
M  V30 17693 H 1692.7 3.69271 1.14785 0
M  V30 17694 H 1694.39 3.97204 0.835704 0
M  V30 17695 H 1695.15 4.58889 -1.5699 0
M  V30 17696 H 1691.03 4.59717 -0.343714 0
M  V30 17697 H 1694.57 6.04826 -3.47609 0
M  V30 17698 H 1690.47 6.05334 -2.24144 0
M  V30 17699 H 1691.24 7.13289 -4.01449 0
M  V30 17700 N 1693.9 0.238138 1.5579 0
M  V30 17701 C 1695.32 -0.116908 1.59171 0
M  V30 17702 C 1695.52 -1.57629 1.2552 0
M  V30 17703 O 1694.57 -2.31926 0.998332 0
M  V30 17704 C 1695.89 0.224366 2.99862 0
M  V30 17705 C 1697.44 0.16795 3.12549 0
M  V30 17706 C 1697.91 0.483132 4.55445 0
M  V30 17707 N 1699.4 0.43331 4.61169 0
M  V30 17708 C 1700.14 0.650461 5.69699 0
M  V30 17709 N 1699.63 0.930272 6.86526 0
M  V30 17710 N 1701.43 0.581764 5.59081 0
M  V30 17711 H 1693.58 1.18996 1.75936 0
M  V30 17712 H 1695.84 0.478169 0.818571 0
M  V30 17713 H 1695.55 1.23791 3.29194 0
M  V30 17714 H 1695.42 -0.452738 3.74473 0
M  V30 17715 H 1697.81 -0.836252 2.83003 0
M  V30 17716 H 1697.89 0.878776 2.40231 0
M  V30 17717 H 1697.53 1.48485 4.8571 0
M  V30 17718 H 1697.46 -0.249073 5.26011 0
M  V30 17719 H 1699.95 0.225412 3.77227 0
M  V30 17720 H 1700.27 1.08362 7.65165 0
M  V30 17721 H 1698.61 0.96765 6.88231 0
M  V30 17722 H 1701.8 0.363273 4.66688 0
M  V30 17723 H 1701.97 0.754398 6.43594 0
M  V30 17724 N 1695.38 -1.57561 -0.0350783 0
M  V30 17725 C 1696.33 -2.06163 -1.03756 0
M  V30 17726 C 1697.3 -0.94954 -1.36283 0
M  V30 17727 O 1698.48 -1.21971 -1.46723 0
M  V30 17728 C 1695.62 -2.54086 -2.33526 0
M  V30 17729 C 1694.74 -3.79062 -2.0721 0
M  V30 17730 C 1693.87 -4.1562 -3.30808 0
M  V30 17731 C 1692.91 -5.3353 -3.0002 0
M  V30 17732 N 1692.05 -5.65549 -4.16051 0
M  V30 17733 H 1696.89 -2.91561 -0.616137 0
M  V30 17734 H 1694.42 -1.4416 -0.292617 0
M  V30 17735 H 1696.38 -2.79935 -3.09342 0
M  V30 17736 H 1695.01 -1.71614 -2.73402 0
M  V30 17737 H 1694.06 -3.60333 -1.21919 0
M  V30 17738 H 1695.38 -4.64998 -1.80495 0
M  V30 17739 H 1694.53 -4.42565 -4.14995 0
M  V30 17740 H 1693.27 -3.28323 -3.60632 0
M  V30 17741 H 1692.27 -5.06344 -2.14234 0
M  V30 17742 H 1693.5 -6.22475 -2.7148 0
M  V30 17743 H 1691.44 -4.81211 -4.45838 0
M  V30 17744 H 1691.36 -6.45982 -3.92738 0
M  V30 17745 H 1692.63 -5.97068 -5.01129 0
M  V30 17746 N 1696.86 0.307236 -1.54576 0
M  V30 17747 C 1698.11 1.04115 -1.73218 0
M  V30 17748 C 1698.43 1.88008 -0.517482 0
M  V30 17749 O 1697.7 1.90219 0.468336 0
M  V30 17750 H 1696.28 0.387388 -0.638701 0
M  V30 17751 H 1698.94 0.339727 -1.91916 0
M  V30 17752 H 1698.04 1.69784 -2.61877 0
M  V30 17753 N 1698.34 1.46926 0.570122 0
M  V30 17754 C 1699.58 1.52585 1.32523 0
M  V30 17755 C 1699.91 0.184291 1.94127 0
M  V30 17756 O 1699.18 -0.790478 1.79244 0
M  V30 17757 H 1697.76 0.562019 0.492081 0
M  V30 17758 H 1700.42 1.83141 0.666746 0
M  V30 17759 H 1699.51 2.28541 2.12545 0
M  V30 17760 N 1699.82 -0.815801 1.34842 0
M  V30 17761 C 1700.76 -1.92713 1.27006 0
M  V30 17762 C 1701.73 -1.65476 0.143838 0
M  V30 17763 O 1702.92 -1.87994 0.326007 0
M  V30 17764 C 1700.06 -3.29099 1.03863 0
M  V30 17765 C 1699.17 -3.68583 2.25324 0
M  V30 17766 C 1698.31 -4.93953 1.95407 0
M  V30 17767 C 1697.34 -5.26037 3.12971 0
M  V30 17768 N 1696.48 -6.42586 2.82891 0
M  V30 17769 H 1701.32 -1.98747 2.22044 0
M  V30 17770 H 1698.86 -0.972265 1.10388 0
M  V30 17771 H 1700.82 -4.07709 0.884809 0
M  V30 17772 H 1699.45 -3.22558 0.124911 0
M  V30 17773 H 1698.5 -2.85307 2.51603 0
M  V30 17774 H 1699.81 -3.88259 3.1314 0
M  V30 17775 H 1698.96 -5.80367 1.76801 0
M  V30 17776 H 1697.7 -4.76293 1.04862 0
M  V30 17777 H 1696.71 -4.38117 3.32165 0
M  V30 17778 H 1697.93 -5.45632 4.04305 0
M  V30 17779 H 1695.88 -6.26369 1.9493 0
M  V30 17780 H 1695.8 -6.62469 3.64239 0
M  V30 17781 H 1697.06 -7.32052 2.67805 0
M  V30 17782 N 1701.29 -1.18689 -1.03686 0
M  V30 17783 C 1702.54 -0.982656 -1.76602 0
M  V30 17784 C 1702.86 0.488553 -1.88781 0
M  V30 17785 O 1702.13 1.35419 -1.41558 0
M  V30 17786 H 1700.71 -0.360595 -0.654202 0
M  V30 17787 H 1703.37 -1.49439 -1.25115 0
M  V30 17788 H 1702.47 -1.42392 -2.77725 0
M  V30 17789 N 1702.77 1.22662 -0.989529 0
M  V30 17790 C 1703.7 2.26762 -0.556891 0
M  V30 17791 C 1704.68 1.64971 0.414538 0
M  V30 17792 O 1705.87 1.91775 0.305909 0
M  V30 17793 C 1703 3.47047 0.132573 0
M  V30 17794 C 1701.95 4.21251 -0.757058 0
M  V30 17795 C 1701.28 5.3466 0.065134 0
M  V30 17796 C 1702.58 4.8029 -2.05229 0
M  V30 17797 H 1704.27 2.63204 -1.42703 0
M  V30 17798 H 1701.82 1.26522 -0.687614 0
M  V30 17799 H 1703.77 4.19027 0.446609 0
M  V30 17800 H 1702.49 3.09692 1.03723 0
M  V30 17801 H 1701.15 3.51101 -1.05469 0
M  V30 17802 H 1700.8 4.93547 0.970607 0
M  V30 17803 H 1700.5 5.85231 -0.527063 0
M  V30 17804 H 1702.03 6.09458 0.373342 0
M  V30 17805 H 1703.44 5.44229 -1.80242 0
M  V30 17806 H 1701.84 5.41186 -2.59302 0
M  V30 17807 H 1702.91 4.00529 -2.73322 0
M  V30 17808 N 1704.25 0.762308 1.37937 0
M  V30 17809 C 1705.18 0.156036 2.32978 0
M  V30 17810 C 1706.16 -0.693795 1.55308 0
M  V30 17811 O 1707.35 -0.633195 1.83587 0
M  V30 17812 C 1704.48 -0.731199 3.39515 0
M  V30 17813 C 1703.43 0.0165834 4.27997 0
M  V30 17814 C 1702.76 -0.989476 5.25465 0
M  V30 17815 C 1704.06 1.19009 5.08561 0
M  V30 17816 H 1705.75 0.949978 2.83929 0
M  V30 17817 H 1703.3 0.458269 1.36513 0
M  V30 17818 H 1705.25 -1.16507 4.04974 0
M  V30 17819 H 1703.97 -1.55756 2.87067 0
M  V30 17820 H 1702.63 0.431128 3.64056 0
M  V30 17821 H 1702.28 -1.81013 4.69301 0
M  V30 17822 H 1701.98 -0.493738 5.85522 0
M  V30 17823 H 1703.5 -1.42248 5.93799 0
M  V30 17824 H 1704.92 0.833336 5.67211 0
M  V30 17825 H 1703.31 1.61727 5.77896 0
M  V30 17826 H 1704.38 1.99879 4.41788 0
M  V30 17827 N 1705.73 -1.49049 0.51208 0
M  V30 17828 C 1707.14 -1.86579 0.0670687 0
M  V30 17829 C 1707.49 -1.42339 -1.35034 0
M  V30 17830 O 1706.61 -0.806142 -2.00824 0
M  V30 17831 C 1707.21 -3.38605 0.114936 0
M  V30 17832 C 1705.77 -3.75396 -0.274787 0
M  V30 17833 C 1704.92 -2.73068 0.482613 0
M  V30 17834 H 1707.87 -1.41208 0.724287 0
M  V30 17835 H 1707.89 -3.74416 -0.677722 0
M  V30 17836 H 1707.4 -3.70774 1.14666 0
M  V30 17837 H 1705.5 -3.48837 -1.30933 0
M  V30 17838 H 1705.61 -4.79071 0.0523691 0
M  V30 17839 H 1703.98 -2.54607 -0.0689364 0
M  V30 17840 H 1704.76 -3.08081 1.51463 0
M  V30 17841 N 1707.21 -0.246397 -1.55662 0
M  V30 17842 C 1708.45 0.379047 -1.99226 0
M  V30 17843 C 1708.78 1.57627 -1.13434 0
M  V30 17844 O 1708.06 1.93493 -0.197627 0
M  V30 17845 C 1708.34 0.789403 -3.51341 0
M  V30 17846 C 1708.2 -0.413176 -4.47898 0
M  V30 17847 C 1709.51 1.63656 -4.0854 0
M  V30 17848 H 1706.63 0.136302 -0.724286 0
M  V30 17849 H 1709.28 -0.347607 -1.86793 0
M  V30 17850 H 1707.43 1.40854 -3.62067 0
M  V30 17851 H 1709.1 -1.0516 -4.49154 0
M  V30 17852 H 1707.34 -1.05636 -4.20741 0
M  V30 17853 H 1708.01 -0.0827267 -5.51938 0
M  V30 17854 H 1710.49 1.11393 -4.00912 0
M  V30 17855 H 1709.36 1.89254 -5.15242 0
M  V30 17856 H 1709.62 2.60823 -3.56965 0
M  V30 17857 N 1708.68 1.57577 0.026722 0
M  V30 17858 C 1710.1 1.54951 0.382406 0
M  V30 17859 C 1710.3 0.972826 1.76461 0
M  V30 17860 O 1709.36 0.5949 2.45392 0
M  V30 17861 C 1710.67 2.99374 0.282111 0
M  V30 17862 C 1712.22 3.10934 0.359022 0
M  V30 17863 C 1712.69 4.57093 0.28815 0
M  V30 17864 N 1714.18 4.61899 0.346873 0
M  V30 17865 C 1714.92 5.72534 0.314961 0
M  V30 17866 N 1714.41 6.92401 0.235205 0
M  V30 17867 N 1716.21 5.60915 0.364863 0
M  V30 17868 H 1708.36 1.93413 -0.877788 0
M  V30 17869 H 1710.62 0.887216 -0.333995 0
M  V30 17870 H 1710.33 3.45301 -0.667821 0
M  V30 17871 H 1710.2 3.61562 1.07484 0
M  V30 17872 H 1712.59 2.64953 1.29939 0
M  V30 17873 H 1712.67 2.51573 -0.4631 0
M  V30 17874 H 1712.31 5.03742 -0.648558 0
M  V30 17875 H 1712.24 5.14368 1.12841 0
M  V30 17876 H 1714.73 3.75659 0.410932 0
M  V30 17877 H 1715.05 7.72498 0.216019 0
M  V30 17878 H 1713.39 6.94709 0.201219 0
M  V30 17879 H 1716.58 4.66165 0.42518 0
M  V30 17880 H 1716.76 6.47126 0.336526 0
M  V30 17881 N 1710.16 -0.299034 1.54737 0
M  V30 17882 C 1711.41 -1.03159 1.75299 0
M  V30 17883 C 1711.76 -1.84859 0.533365 0
M  V30 17884 O 1711.06 -1.85639 -0.474219 0
M  V30 17885 C 1711.25 -1.9673 2.98382 0
M  V30 17886 C 1711.08 -1.24234 4.32199 0
M  V30 17887 C 1709.85 -0.96869 4.95928 0
M  V30 17888 C 1712.05 -0.645795 5.10229 0
M  V30 17889 N 1710.03 -0.214208 6.13526 0
M  V30 17890 C 1711.4 -0.0241804 6.19995 0
M  V30 17891 C 1713.45 -0.55104 4.94841 0
M  V30 17892 C 1712.16 0.683023 7.1605 0
M  V30 17893 C 1714.18 0.142513 5.91228 0
M  V30 17894 C 1713.55 0.752971 7.00364 0
M  V30 17895 H 1709.64 -0.360348 0.694027 0
M  V30 17896 H 1712.23 -0.31 1.92216 0
M  V30 17897 H 1710.4 -2.66138 2.82887 0
M  V30 17898 H 1712.13 -2.63152 3.07462 0
M  V30 17899 H 1708.89 -1.26735 4.56328 0
M  V30 17900 H 1709.31 0.149604 6.76835 0
M  V30 17901 H 1713.95 -1.0087 4.10591 0
M  V30 17902 H 1711.67 1.15245 7.9984 0
M  V30 17903 H 1715.26 0.215798 5.814 0
M  V30 17904 H 1714.14 1.2811 7.73665 0
M  V30 17905 N 1711.64 -1.47227 -0.562322 0
M  V30 17906 C 1712.57 -1.53865 -1.68526 0
M  V30 17907 C 1713.55 -0.391166 -1.57825 0
M  V30 17908 O 1714.73 -0.598238 -1.78755 0
M  V30 17909 C 1711.86 -1.43638 -3.06734 0
M  V30 17910 C 1710.91 -2.62824 -3.35895 0
M  V30 17911 S 1711.74 -4.25054 -3.25714 0
M  V30 17912 C 1712.9 -4.17372 -4.66424 0
M  V30 17913 H 1713.13 -2.48869 -1.6264 0
M  V30 17914 H 1710.66 -1.35362 -0.74273 0
M  V30 17915 H 1712.62 -1.38425 -3.86457 0
M  V30 17916 H 1711.28 -0.500271 -3.1009 0
M  V30 17917 H 1710.47 -2.51718 -4.3664 0
M  V30 17918 H 1710.08 -2.65133 -2.63782 0
M  V30 17919 H 1712.37 -3.8531 -5.57263 0
M  V30 17920 H 1713.31 -5.18184 -4.82587 0
M  V30 17921 H 1713.72 -3.48309 -4.44231 0
M  V30 17922 N 1713.12 0.808639 -1.35273 0
M  V30 17923 C 1714.08 1.90195 -1.279 0
M  V30 17924 C 1715.08 1.59663 -0.190915 0
M  V30 17925 O 1716.27 1.68434 -0.444482 0
M  V30 17926 C 1713.4 3.26567 -0.978106 0
M  V30 17927 H 1714.6 1.98152 -2.25113 0
M  V30 17928 H 1712.15 1.00426 -1.19767 0
M  V30 17929 H 1712.88 3.24299 -0.00975789 0
M  V30 17930 H 1712.67 3.50114 -1.7653 0
M  V30 17931 H 1714.16 4.06602 -0.95207 0
M  V30 17932 N 1714.6 1.19237 1.03055 0
M  V30 17933 C 1716.01 0.996569 1.57878 0
M  V30 17934 C 1716.36 -0.450987 1.90946 0
M  V30 17935 O 1715.48 -1.33009 1.70697 0
M  V30 17936 C 1716.08 1.80272 2.86858 0
M  V30 17937 C 1714.64 1.65097 3.3826 0
M  V30 17938 C 1713.78 1.79079 2.11721 0
M  V30 17939 H 1716.74 1.33633 0.856037 0
M  V30 17940 H 1716.76 1.29781 3.57683 0
M  V30 17941 H 1716.27 2.85621 2.62759 0
M  V30 17942 H 1714.37 0.623267 3.6735 0
M  V30 17943 H 1714.48 2.45527 4.11404 0
M  V30 17944 H 1712.85 1.22124 2.23512 0
M  V30 17945 H 1713.63 2.85885 1.90065 0
M  V30 17946 N 1716.07 -1.22136 0.99602 0
M  V30 17947 C 1716.98 -2.27869 0.557927 0
M  V30 17948 C 1718 -1.69462 -0.394781 0
M  V30 17949 O 1719.18 -1.99704 -0.26084 0
M  V30 17950 C 1716.24 -3.46501 -0.117434 0
M  V30 17951 C 1715.3 -4.20213 0.878627 0
M  V30 17952 C 1714.54 -5.33181 0.2354 0
M  V30 17953 O 1714.76 -5.62093 -0.969954 0
M  V30 17954 O 1713.69 -5.94486 0.941828 0
M  V30 17955 H 1717.52 -2.67517 1.43765 0
M  V30 17956 H 1715.1 -1.28362 0.764428 0
M  V30 17957 H 1716.99 -4.18476 -0.49559 0
M  V30 17958 H 1715.66 -3.08772 -0.971674 0
M  V30 17959 H 1714.57 -3.50497 1.30777 0
M  V30 17960 H 1715.9 -4.6183 1.70217 0
M  V30 17961 N 1717.55 -0.769612 -1.37531 0
M  V30 17962 C 1718.78 -0.343069 -2.04543 0
M  V30 17963 C 1719.2 1.02583 -1.57665 0
M  V30 17964 O 1718.56 1.65692 -0.735915 0
M  V30 17965 C 1718.61 -0.392914 -3.58453 0
M  V30 17966 O 1717.71 0.607401 -4.07902 0
M  V30 17967 H 1717.05 -0.148905 -0.647088 0
M  V30 17968 H 1719.58 -1.04521 -1.75888 0
M  V30 17969 H 1719.59 -0.24945 -4.07237 0
M  V30 17970 H 1718.27 -1.39159 -3.91928 0
M  V30 17971 H 1716.85 0.427231 -3.70445 0
M  V30 17972 N 1719.03 1.48775 -0.519977 0
M  V30 17973 C 1719.96 2.32292 0.237213 0
M  V30 17974 C 1720.94 1.4146 0.944625 0
M  V30 17975 O 1722.13 1.70355 0.932349 0
M  V30 17976 C 1719.26 3.22426 1.29068 0
M  V30 17977 C 1718.21 4.22204 0.702011 0
M  V30 17978 C 1717.54 5.01403 1.85739 0
M  V30 17979 C 1718.84 5.21321 -0.319626 0
M  V30 17980 H 1720.53 2.95846 -0.459949 0
M  V30 17981 H 1718.08 1.42268 -0.222641 0
M  V30 17982 H 1720.03 3.79674 1.82826 0
M  V30 17983 H 1718.75 2.56853 2.01728 0
M  V30 17984 H 1717.41 3.66128 0.186027 0
M  V30 17985 H 1717.06 4.32262 2.57214 0
M  V30 17986 H 1716.76 5.68929 1.46949 0
M  V30 17987 H 1718.28 5.615 2.39895 0
M  V30 17988 H 1719.7 5.73151 0.130505 0
M  V30 17989 H 1718.1 5.96843 -0.624377 0
M  V30 17990 H 1719.17 4.69069 -1.22893 0
M  V30 17991 N 1720.51 0.254649 1.55529 0
M  V30 17992 C 1721.46 -0.64162 2.21702 0
M  V30 17993 C 1722.43 -1.16544 1.1835 0
M  V30 17994 O 1723.61 -1.2185 1.46824 0
M  V30 17995 C 1720.75 -1.82935 2.92624 0
M  V30 17996 C 1719.86 -1.34132 4.10649 0
M  V30 17997 C 1719 -2.48922 4.69267 0
M  V30 17998 C 1718.04 -1.9702 5.79525 0
M  V30 17999 N 1717.17 -3.05206 6.32293 0
M  V30 18000 H 1722.01 -0.0706476 2.97916 0
M  V30 18001 H 1719.55 -0.0231077 1.47082 0
M  V30 18002 H 1721.51 -2.52719 3.31947 0
M  V30 18003 H 1720.14 -2.37267 2.1887 0
M  V30 18004 H 1719.19 -0.53726 3.76587 0
M  V30 18005 H 1720.5 -0.921003 4.90223 0
M  V30 18006 H 1719.66 -3.26735 5.11203 0
M  V30 18007 H 1718.4 -2.94259 3.88925 0
M  V30 18008 H 1717.4 -1.17679 5.37058 0
M  V30 18009 H 1718.63 -1.52643 6.61723 0
M  V30 18010 H 1716.57 -3.49963 5.54853 0
M  V30 18011 H 1716.49 -2.67528 7.07082 0
M  V30 18012 H 1717.76 -3.83055 6.78888 0
M  V30 18013 N 1721.99 -1.57589 -0.0183649 0
M  V30 18014 C 1723.26 -1.80938 -0.743021 0
M  V30 18015 C 1723.64 -0.855272 -1.92998 0
M  V30 18016 O 1722.99 0.100181 -2.2828 0
M  V30 18017 C 1723.2 -3.28945 -1.16602 0
M  V30 18018 C 1724.55 -3.94208 -1.5775 0
M  V30 18019 O 1725.57 -3.33159 -1.26031 0
M  V30 18020 O 1724.43 -5.01716 -2.16663 0
M  V30 18021 H 1721.53 -0.744435 -0.360203 0
M  V30 18022 H 1724.07 -1.69699 0.00567963 0
M  V30 18023 H 1722.84 -3.89996 -0.319154 0
M  V30 18024 H 1722.47 -3.45113 -1.9744 0
M  V30 18025 N 1723.46 0.290824 -1.54893 0
M  V30 18026 C 1724.71 1.02272 -1.74312 0
M  V30 18027 C 1725.03 1.87449 -0.537393 0
M  V30 18028 O 1724.3 1.90705 0.448135 0
M  V30 18029 H 1722.88 0.380592 -0.642774 0
M  V30 18030 H 1725.55 0.319353 -1.92266 0
M  V30 18031 H 1724.64 1.66997 -2.63663 0
M  V30 18032 N 1724.94 1.47523 0.554506 0
M  V30 18033 C 1726.19 1.53546 1.30791 0
M  V30 18034 C 1726.5 0.203555 1.94538 0
M  V30 18035 O 1727.71 0.14181 2.71129 0
M  V30 18036 C 1726.17 2.70684 2.37188 0
M  V30 18037 C 1725.77 4.10415 1.7962 0
M  V30 18038 C 1727.52 2.86002 3.13693 0
M  V30 18039 C 1725.43 5.18849 2.83813 0
M  V30 18040 H 1724.36 0.571539 0.491792 0
M  V30 18041 H 1727.01 1.73803 0.58861 0
M  V30 18042 H 1725.39 2.43812 3.12045 0
M  V30 18043 H 1726.56 4.47202 1.11117 0
M  V30 18044 H 1724.88 4.00006 1.15691 0
M  V30 18045 H 1727.47 3.64181 3.91505 0
M  V30 18046 H 1727.82 1.94545 3.68046 0
M  V30 18047 H 1728.35 3.12657 2.45948 0
M  V30 18048 H 1725.09 6.12192 2.34311 0
M  V30 18049 H 1724.61 4.86577 3.50718 0
M  V30 18050 H 1726.29 5.45915 3.47255 0
M  V30 18051 N 1726.42 -0.801453 1.357 0
M  V30 18052 C 1727.67 -1.55879 1.2926 0
M  V30 18053 C 1728 -1.94055 -0.131552 0
M  V30 18054 O 1727.25 -1.61993 -1.09803 0
M  V30 18055 C 1727.55 -2.85531 2.14957 0
M  V30 18056 C 1727.22 -2.6655 3.63679 0
M  V30 18057 C 1725.88 -2.61081 4.04216 0
M  V30 18058 C 1728.23 -2.48725 4.58023 0
M  V30 18059 C 1725.56 -2.35737 5.37257 0
M  V30 18060 C 1727.91 -2.2491 5.91268 0
M  V30 18061 C 1726.57 -2.17867 6.30944 0
M  V30 18062 H 1725.84 -0.570401 0.472994 0
M  V30 18063 H 1728.49 -0.925627 1.67644 0
M  V30 18064 H 1726.8 -3.53252 1.69471 0
M  V30 18065 H 1728.49 -3.43256 2.07307 0
M  V30 18066 H 1725.08 -2.71656 3.31513 0
M  V30 18067 H 1729.27 -2.51959 4.27587 0
M  V30 18068 H 1724.52 -2.28758 5.66992 0
M  V30 18069 H 1728.7 -2.1011 6.63948 0
M  V30 18070 H 1726.32 -1.97991 7.33964 0
M  V30 18071 N 1727.9 -1.19782 -1.02421 0
M  V30 18072 C 1729.13 -1.02871 -1.79514 0
M  V30 18073 C 1729.54 0.422387 -1.84014 0
M  V30 18074 O 1728.9 1.29335 -1.28758 0
M  V30 18075 C 1728.95 -1.59634 -3.24344 0
M  V30 18076 O 1728.67 -2.99064 -3.20144 0
M  V30 18077 C 1730.17 -1.47571 -4.18016 0
M  V30 18078 H 1727.39 -0.362301 -0.564782 0
M  V30 18079 H 1729.94 -1.58701 -1.28974 0
M  V30 18080 H 1728.09 -1.07942 -3.72058 0
M  V30 18081 H 1728.5 -3.25859 -4.10994 0
M  V30 18082 H 1729.98 -1.92061 -5.1751 0
M  V30 18083 H 1730.46 -0.426967 -4.3712 0
M  V30 18084 H 1731.06 -1.98417 -3.76179 0
M  V30 18085 N 1729.38 1.21606 -1.00248 0
M  V30 18086 C 1730.61 1.94609 -0.702502 0
M  V30 18087 C 1731.02 1.73928 0.734483 0
M  V30 18088 O 1730.38 1.04432 1.49667 0
M  V30 18089 C 1730.43 3.47077 -1.01092 0
M  V30 18090 O 1730.15 3.67071 -2.39145 0
M  V30 18091 C 1731.65 4.37248 -0.729988 0
M  V30 18092 H 1728.87 0.618962 -0.259088 0
M  V30 18093 H 1731.41 1.54494 -1.33985 0
M  V30 18094 H 1729.57 3.85125 -0.419215 0
M  V30 18095 H 1729.98 4.61188 -2.49811 0
M  V30 18096 H 1731.46 5.4294 -0.99598 0
M  V30 18097 H 1731.93 4.37913 0.33599 0
M  V30 18098 H 1732.54 4.04842 -1.30318 0
M  V30 18099 N 1730.86 0.776895 1.37121 0
M  V30 18100 C 1731.81 0.140089 2.27569 0
M  V30 18101 C 1732.79 -0.668578 1.46352 0
M  V30 18102 O 1733.98 -0.530707 1.68856 0
M  V30 18103 C 1731.11 -0.734162 3.35358 0
M  V30 18104 C 1730.2 0.0826144 4.2402 0
M  V30 18105 N 1730.59 1.13084 4.92997 0
M  V30 18106 C 1728.89 -0.140551 4.45778 0
M  V30 18107 C 1729.59 1.62701 5.58483 0
M  V30 18108 N 1728.56 0.93832 5.3544 0
M  V30 18109 H 1732.36 0.942573 2.78375 0
M  V30 18110 H 1729.88 0.615144 1.50299 0
M  V30 18111 H 1731.88 -1.20618 3.9907 0
M  V30 18112 H 1730.54 -1.53533 2.86108 0
M  V30 18113 H 1731.55 1.51308 4.95304 0
M  V30 18114 H 1728.22 -0.913223 4.0739 0
M  V30 18115 H 1729.61 2.50145 6.236 0
M  V30 18116 N 1732.33 -1.48497 0.527859 0
M  V30 18117 C 1733.56 -2.07399 -0.00510725 0
M  V30 18118 C 1733.98 -1.38211 -1.2759 0
M  V30 18119 O 1733.34 -0.447373 -1.75694 0
M  V30 18120 C 1733.39 -3.59963 -0.214295 0
M  V30 18121 O 1732.49 -3.91921 -1.28342 0
M  V30 18122 H 1731.83 -0.662901 0.0381838 0
M  V30 18123 H 1734.36 -1.90936 0.735166 0
M  V30 18124 H 1734.37 -4.05646 -0.437604 0
M  V30 18125 H 1733.05 -4.09725 0.714028 0
M  V30 18126 H 1731.63 -3.58019 -1.04293 0
M  V30 18127 N 1733.81 -0.262893 -1.55392 0
M  V30 18128 C 1735.09 0.408525 -1.91286 0
M  V30 18129 C 1735.47 1.74657 -1.18566 0
M  V30 18130 O 1734.82 2.26409 -0.308422 0
M  V30 18131 C 1735.03 0.560865 -3.44464 0
M  V30 18132 C 1736.37 0.849401 -4.16017 0
M  V30 18133 O 1737.4 0.646134 -3.50291 0
M  V30 18134 O 1736.26 1.23741 -5.32307 0
M  V30 18135 H 1733.35 0.221707 -0.796728 0
M  V30 18136 H 1735.9 -0.308143 -1.66879 0
M  V30 18137 H 1734.67 -0.381279 -3.89438 0
M  V30 18138 H 1734.29 1.32747 -3.74785 0
M  V30 18139 N 1735.29 1.57597 0.0100073 0
M  V30 18140 C 1736.54 1.90411 0.697968 0
M  V30 18141 C 1736.87 0.862924 1.73975 0
M  V30 18142 O 1736.14 -0.119646 1.94132 0
M  V30 18143 C 1736.43 3.33828 1.35022 0
M  V30 18144 C 1736.28 4.48656 0.320659 0
M  V30 18145 C 1737.6 3.7649 2.27911 0
M  V30 18146 H 1734.72 0.692482 0.252266 0
M  V30 18147 H 1737.36 1.89959 -0.0392325 0
M  V30 18148 H 1735.51 3.34343 1.97856 0
M  V30 18149 H 1737.18 4.60276 -0.30723 0
M  V30 18150 H 1735.42 4.32319 -0.358128 0
M  V30 18151 H 1736.1 5.45937 0.815891 0
M  V30 18152 H 1738.57 3.77463 1.75104 0
M  V30 18153 H 1737.45 4.77609 2.70519 0
M  V30 18154 H 1737.71 3.09801 3.15398 0
M  V30 18155 N 1736.77 -0.282606 1.55045 0
M  V30 18156 C 1738.01 -1.01294 1.76384 0
M  V30 18157 C 1738.37 -1.84283 0.552942 0
M  V30 18158 O 1737.66 -1.86131 -0.454502 0
M  V30 18159 C 1737.86 -1.93554 3.00452 0
M  V30 18160 C 1737.68 -1.19643 4.33492 0
M  V30 18161 C 1736.45 -0.916036 4.96927 0
M  V30 18162 C 1738.65 -0.591642 5.10886 0
M  V30 18163 N 1736.63 -0.149123 6.13719 0
M  V30 18164 C 1738.01 0.0415798 6.19986 0
M  V30 18165 C 1740.06 -0.498525 4.95398 0
M  V30 18166 C 1738.76 0.758931 7.15285 0
M  V30 18167 C 1740.79 0.205213 5.91044 0
M  V30 18168 C 1740.15 0.827211 6.99526 0
M  V30 18169 H 1736.25 -0.352967 0.69781 0
M  V30 18170 H 1738.83 -0.289596 1.92534 0
M  V30 18171 H 1737.01 -2.63122 2.85694 0
M  V30 18172 H 1738.74 -2.59876 3.10236 0
M  V30 18173 H 1735.49 -1.21888 4.57647 0
M  V30 18174 H 1735.92 0.221383 6.76638 0
M  V30 18175 H 1740.56 -0.965097 4.11638 0
M  V30 18176 H 1738.28 1.23722 7.98573 0
M  V30 18177 H 1741.86 0.277451 5.81138 0
M  V30 18178 H 1740.74 1.36309 7.72263 0
M  V30 18179 N 1738.25 -1.47815 -0.546675 0
M  V30 18180 C 1739.47 -1.58864 -1.33331 0
M  V30 18181 C 1739.9 -0.24302 -1.86524 0
M  V30 18182 O 1739.25 0.782777 -1.63531 0
M  V30 18183 C 1739.3 -2.62556 -2.47177 0
M  V30 18184 O 1738.41 -2.18558 -3.49723 0
M  V30 18185 H 1737.75 -0.53329 -0.395598 0
M  V30 18186 H 1740.28 -1.93677 -0.659579 0
M  V30 18187 H 1740.29 -2.83307 -2.936 0
M  V30 18188 H 1738.96 -3.60255 -2.0782 0
M  V30 18189 H 1737.54 -2.0795 -3.09534 0
M  V30 18190 N 1739.72 0.794246 -1.36123 0
M  V30 18191 C 1740.97 1.55191 -1.30084 0
M  V30 18192 C 1741.3 1.94122 0.121259 0
M  V30 18193 O 1740.55 1.62573 1.08942 0
M  V30 18194 C 1740.85 2.84387 -2.16469 0
M  V30 18195 C 1740.52 2.64617 -3.65087 0
M  V30 18196 C 1739.18 2.58934 -4.05594 0
M  V30 18197 C 1741.53 2.46293 -4.59336 0
M  V30 18198 C 1738.86 2.32885 -5.38499 0
M  V30 18199 C 1741.21 2.21771 -5.92453 0
M  V30 18200 C 1739.88 2.14518 -6.32091 0
M  V30 18201 H 1739.15 0.567885 -0.476013 0
M  V30 18202 H 1741.79 0.916723 -1.68132 0
M  V30 18203 H 1740.1 3.52348 -1.71342 0
M  V30 18204 H 1741.8 3.42152 -2.09124 0
M  V30 18205 H 1738.39 2.69894 -3.32949 0
M  V30 18206 H 1742.57 2.49688 -4.28917 0
M  V30 18207 H 1737.83 2.25748 -5.68197 0
M  V30 18208 H 1742 2.06586 -6.65053 0
M  V30 18209 H 1739.63 1.94096 -7.35004 0
M  V30 18210 N 1741.2 1.20323 1.01785 0
M  V30 18211 C 1742.45 1.01063 1.75016 0
M  V30 18212 C 1742.77 -0.458458 1.89534 0
M  V30 18213 O 1742.04 -1.3315 1.43694 0
M  V30 18214 H 1740.62 0.370957 0.648383 0
M  V30 18215 H 1743.28 1.51411 1.22722 0
M  V30 18216 H 1742.38 1.46792 2.75424 0
M  V30 18217 N 1742.68 -1.21073 1.00892 0
M  V30 18218 C 1743.93 -1.90524 0.694879 0
M  V30 18219 C 1744.26 -1.78161 -0.772802 0
M  V30 18220 O 1743.53 -1.1608 -1.56063 0
M  V30 18221 C 1743.82 -3.42188 1.12156 0
M  V30 18222 C 1743.67 -3.63523 2.64898 0
M  V30 18223 C 1744.99 -4.34706 0.68694 0
M  V30 18224 H 1742.11 -0.69188 0.253912 0
M  V30 18225 H 1744.75 -1.42626 1.2553 0
M  V30 18226 H 1742.9 -3.83113 0.644742 0
M  V30 18227 H 1744.57 -3.31901 3.20374 0
M  V30 18228 H 1742.81 -3.07255 3.0623 0
M  V30 18229 H 1743.49 -4.69805 2.89806 0
M  V30 18230 H 1745.96 -4.01386 1.09674 0
M  V30 18231 H 1744.84 -5.3946 1.01361 0
M  V30 18232 H 1745.1 -4.40178 -0.411757 0
M  V30 18233 N 1744.16 -0.784156 -1.36707 0
M  V30 18234 C 1745.4 -0.354658 -1.99675 0
M  V30 18235 C 1745.74 1.06948 -1.62098 0
M  V30 18236 O 1745.01 1.73798 -0.873192 0
M  V30 18237 C 1745.3 -0.512421 -3.56435 0
M  V30 18238 C 1745.15 -1.97987 -4.03883 0
M  V30 18239 C 1746.47 0.075762 -4.40035 0
M  V30 18240 H 1743.59 -0.130338 -0.725383 0
M  V30 18241 H 1746.23 -0.989515 -1.62199 0
M  V30 18242 H 1744.38 0.0280323 -3.8849 0
M  V30 18243 H 1746.05 -2.58098 -3.82339 0
M  V30 18244 H 1744.29 -2.48433 -3.55617 0
M  V30 18245 H 1744.96 -2.04125 -5.12871 0
M  V30 18246 H 1747.44 -0.385522 -4.1431 0
M  V30 18247 H 1746.32 -0.0646832 -5.48862 0
M  V30 18248 H 1746.58 1.16735 -4.2641 0
M  V30 18249 N 1745.64 1.48215 -0.535727 0
M  V30 18250 C 1746.57 2.3253 0.212562 0
M  V30 18251 C 1747.55 1.42454 0.929568 0
M  V30 18252 O 1748.73 1.71334 0.914228 0
M  V30 18253 C 1745.86 3.23777 1.25641 0
M  V30 18254 C 1744.82 4.22924 0.657191 0
M  V30 18255 C 1744.14 5.03345 1.80411 0
M  V30 18256 C 1745.44 5.20953 -0.374902 0
M  V30 18257 H 1747.14 2.95341 -0.491301 0
M  V30 18258 H 1744.68 1.42024 -0.237718 0
M  V30 18259 H 1746.64 3.81592 1.78789 0
M  V30 18260 H 1745.36 2.58978 1.98993 0
M  V30 18261 H 1744.02 3.66304 0.147184 0
M  V30 18262 H 1743.67 4.34965 2.52615 0
M  V30 18263 H 1743.37 5.70455 1.40906 0
M  V30 18264 H 1744.89 5.64013 2.33926 0
M  V30 18265 H 1746.3 5.73258 0.0697072 0
M  V30 18266 H 1744.7 5.96147 -0.687646 0
M  V30 18267 H 1745.77 4.67739 -1.27861 0
M  V30 18268 N 1747.11 0.27113 1.5525 0
M  V30 18269 C 1748.36 -0.340313 2.00533 0
M  V30 18270 C 1748.72 -1.53782 1.15623 0
M  V30 18271 O 1748.01 -1.90363 0.217368 0
M  V30 18272 C 1748.2 -0.776823 3.48856 0
M  V30 18273 C 1748.03 0.376843 4.48118 0
M  V30 18274 C 1746.8 0.859346 4.97939 0
M  V30 18275 C 1749 1.212 4.99815 0
M  V30 18276 N 1746.98 1.98289 5.80994 0
M  V30 18277 C 1748.35 2.1835 5.80279 0
M  V30 18278 C 1750.41 1.2458 4.82063 0
M  V30 18279 C 1749.11 3.18621 6.44882 0
M  V30 18280 C 1751.14 2.23693 5.47463 0
M  V30 18281 C 1750.5 3.19576 6.27734 0
M  V30 18282 H 1746.6 -0.0898119 0.776825 0
M  V30 18283 H 1749.18 0.394243 1.90667 0
M  V30 18284 H 1747.35 -1.48061 3.59072 0
M  V30 18285 H 1749.08 -1.36526 3.80976 0
M  V30 18286 H 1745.84 0.439328 4.71558 0
M  V30 18287 H 1746.26 2.54816 6.27214 0
M  V30 18288 H 1750.91 0.518302 4.19611 0
M  V30 18289 H 1748.62 3.92306 7.06486 0
M  V30 18290 H 1752.21 2.27044 5.3567 0
M  V30 18291 H 1751.09 3.95016 6.77445 0
M  V30 18292 N 1748.59 -1.576 -0.00164943 0
M  V30 18293 C 1749.5 -2.11748 -1.00995 0
M  V30 18294 C 1750.52 -1.06235 -1.37805 0
M  V30 18295 O 1751.69 -1.38127 -1.4657 0
M  V30 18296 C 1748.76 -2.60869 -2.2836 0
M  V30 18297 C 1747.82 -3.80976 -1.97879 0
M  V30 18298 C 1747.05 -4.27745 -3.19171 0
M  V30 18299 O 1747.28 -3.73856 -4.30799 0
M  V30 18300 O 1746.21 -5.19917 -3.03265 0
M  V30 18301 H 1750.04 -2.98117 -0.579667 0
M  V30 18302 H 1747.62 -1.47766 -0.220375 0
M  V30 18303 H 1749.5 -2.9267 -3.03187 0
M  V30 18304 H 1748.18 -1.77598 -2.7063 0
M  V30 18305 H 1747.09 -3.54151 -1.20533 0
M  V30 18306 H 1748.42 -4.65315 -1.60447 0
M  V30 18307 N 1750.07 0.274379 -1.55193 0
M  V30 18308 C 1751.32 1.00394 -1.7494 0
M  V30 18309 C 1751.63 1.87499 -0.557084 0
M  V30 18310 O 1752.84 2.63923 -0.636936 0
M  V30 18311 C 1751.29 1.83489 -3.09612 0
M  V30 18312 C 1750.9 1.01257 -4.36407 0
M  V30 18313 C 1752.65 2.55883 -3.38709 0
M  V30 18314 C 1750.55 1.83782 -5.62119 0
M  V30 18315 H 1749.48 0.378561 -0.65208 0
M  V30 18316 H 1752.13 0.259678 -1.81653 0
M  V30 18317 H 1750.52 2.62005 -2.96933 0
M  V30 18318 H 1751.69 0.27167 -4.59998 0
M  V30 18319 H 1750.01 0.403235 -4.14443 0
M  V30 18320 H 1752.6 3.18028 -4.2984 0
M  V30 18321 H 1752.95 3.26096 -2.58779 0
M  V30 18322 H 1753.48 1.84398 -3.5248 0
M  V30 18323 H 1750.22 1.17992 -6.44793 0
M  V30 18324 H 1749.74 2.55473 -5.42673 0
M  V30 18325 H 1751.42 2.41181 -6.00367 0
M  V30 18326 N 1751.55 1.48103 0.538828 0
M  V30 18327 C 1752.79 1.559 1.29704 0
M  V30 18328 C 1753.13 0.228359 1.92853 0
M  V30 18329 O 1752.4 -0.764825 1.78831 0
M  V30 18330 C 1752.69 2.69072 2.39316 0
M  V30 18331 C 1752.54 4.11812 1.80916 0
M  V30 18332 C 1753.86 2.78051 3.41138 0
M  V30 18333 H 1750.98 0.5675 0.470226 0
M  V30 18334 H 1753.62 1.80239 0.601163 0
M  V30 18335 H 1751.77 2.4845 2.98672 0
M  V30 18336 H 1753.44 4.4385 1.25679 0
M  V30 18337 H 1751.68 4.19227 1.11494 0
M  V30 18338 H 1752.35 4.86805 2.6024 0
M  V30 18339 H 1754.83 2.96707 2.91726 0
M  V30 18340 H 1753.71 3.58982 4.15239 0
M  V30 18341 H 1753.97 1.85849 4.01139 0
M  V30 18342 N 1753.03 -0.787016 1.36542 0
M  V30 18343 C 1754.25 -1.57588 1.34065 0
M  V30 18344 C 1754.67 -1.88641 -0.0775397 0
M  V30 18345 O 1754.03 -1.50306 -1.03511 0
M  V30 18346 C 1754.08 -2.89543 2.16442 0
M  V30 18347 O 1753.8 -2.59828 3.52734 0
M  V30 18348 C 1755.3 -3.83838 2.21773 0
M  V30 18349 H 1752.52 -0.488708 0.459789 0
M  V30 18350 H 1755.06 -0.976614 1.79673 0
M  V30 18351 H 1753.22 -3.45933 1.74383 0
M  V30 18352 H 1753.63 -3.44219 3.95744 0
M  V30 18353 H 1755.11 -4.73478 2.83765 0
M  V30 18354 H 1755.58 -4.21862 1.22185 0
M  V30 18355 H 1756.19 -3.33381 2.64078 0
M  V30 18356 N 1754.5 -1.20861 -1.01145 0
M  V30 18357 C 1755.43 -0.986058 -2.11658 0
M  V30 18358 C 1756.42 0.0867558 -1.69879 0
M  V30 18359 O 1757.6 -0.0717892 -1.94067 0
M  V30 18360 C 1754.73 -0.542938 -3.4303 0
M  V30 18361 C 1753.68 -1.55958 -3.98574 0
M  V30 18362 C 1753.01 -0.972917 -5.25774 0
M  V30 18363 C 1754.31 -2.94471 -4.31375 0
M  V30 18364 H 1756 -1.91035 -2.30534 0
M  V30 18365 H 1753.55 -0.919914 -1.10786 0
M  V30 18366 H 1755.5 -0.374446 -4.19733 0
M  V30 18367 H 1754.23 0.416988 -3.23927 0
M  V30 18368 H 1752.89 -1.71552 -3.23984 0
M  V30 18369 H 1752.53 -0.00490446 -5.03 0
M  V30 18370 H 1752.23 -1.65194 -5.63901 0
M  V30 18371 H 1753.76 -0.815607 -6.05128 0
M  V30 18372 H 1755.17 -2.82358 -4.98946 0
M  V30 18373 H 1753.57 -3.59327 -4.80629 0
M  V30 18374 H 1754.64 -3.45804 -3.39923 0
M  V30 18375 N 1755.98 1.20536 -1.01532 0
M  V30 18376 C 1756.95 2.21495 -0.589298 0
M  V30 18377 C 1757.95 1.57167 0.339871 0
M  V30 18378 O 1759.14 1.73724 0.128736 0
M  V30 18379 C 1756.27 3.40614 0.139623 0
M  V30 18380 H 1757.46 2.607 -1.48241 0
M  V30 18381 H 1755.01 1.33977 -0.804977 0
M  V30 18382 H 1755.75 3.0691 1.04771 0
M  V30 18383 H 1755.53 3.88531 -0.52785 0
M  V30 18384 H 1757.02 4.15431 0.425083 0
M  V30 18385 N 1757.46 0.791395 1.36289 0
M  V30 18386 C 1758.37 0.192362 2.3381 0
M  V30 18387 C 1759.39 -0.656556 1.61138 0
M  V30 18388 O 1760.56 -0.571877 1.9311 0
M  V30 18389 C 1757.63 -0.661283 3.40335 0
M  V30 18390 C 1756.69 0.206361 4.28804 0
M  V30 18391 C 1755.92 -0.606636 5.30241 0
M  V30 18392 O 1756.14 -1.84247 5.39823 0
M  V30 18393 O 1755.08 -0.00549116 6.019 0
M  V30 18394 H 1758.9 0.998723 2.86809 0
M  V30 18395 H 1756.49 0.552889 1.38793 0
M  V30 18396 H 1758.37 -1.148 4.05461 0
M  V30 18397 H 1757.05 -1.4455 2.89632 0
M  V30 18398 H 1755.95 0.739877 3.66711 0
M  V30 18399 H 1757.29 0.954142 4.82863 0
M  V30 18400 N 1758.94 -1.47929 0.54358 0
M  V30 18401 C 1759.87 -2.27843 -0.249005 0
M  V30 18402 C 1760.88 -1.36189 -0.891987 0
M  V30 18403 O 1762.07 -1.61127 -0.768135 0
M  V30 18404 C 1759.17 -3.10016 -1.36906 0
M  V30 18405 C 1758.35 -4.29541 -0.82545 0
M  V30 18406 C 1757.41 -4.93416 -1.82831 0
M  V30 18407 O 1756.43 -5.52222 -1.37984 0
M  V30 18408 N 1757.63 -4.86881 -3.16113 0
M  V30 18409 H 1760.4 -2.96505 0.436436 0
M  V30 18410 H 1757.96 -1.57407 0.378774 0
M  V30 18411 H 1759.95 -3.49616 -2.0384 0
M  V30 18412 H 1758.52 -2.43686 -1.95796 0
M  V30 18413 H 1757.74 -3.94195 0.0202776 0
M  V30 18414 H 1759.03 -5.06882 -0.441368 0
M  V30 18415 H 1758.43 -4.4028 -3.55205 0
M  V30 18416 H 1756.98 -5.30541 -3.78642 0
M  V30 18417 N 1760.42 -0.27936 -1.55104 0
M  V30 18418 C 1761.83 0.217569 -1.85428 0
M  V30 18419 C 1762.18 1.55117 -1.20138 0
M  V30 18420 O 1761.3 2.10751 -0.491229 0
M  V30 18421 C 1761.9 0.401547 -3.36412 0
M  V30 18422 C 1760.46 0.842706 -3.66845 0
M  V30 18423 C 1759.61 -0.0615565 -2.77232 0
M  V30 18424 H 1762.56 -0.501025 -1.50584 0
M  V30 18425 H 1762.58 1.23946 -3.59747 0
M  V30 18426 H 1762.09 -0.569224 -3.83903 0
M  V30 18427 H 1760.19 1.8248 -3.24857 0
M  V30 18428 H 1760.3 0.677088 -4.74291 0
M  V30 18429 H 1758.67 0.455486 -2.50594 0
M  V30 18430 H 1759.45 -1.02829 -3.27538 0
M  V30 18431 N 1761.9 1.57599 -0.0067085 0
M  V30 18432 C 1763.13 1.9486 0.686536 0
M  V30 18433 C 1763.53 0.880481 1.67464 0
M  V30 18434 O 1762.88 -0.148537 1.83098 0
M  V30 18435 C 1762.94 3.28146 1.46834 0
M  V30 18436 C 1762.6 4.52481 0.641076 0
M  V30 18437 C 1763.6 5.19847 -0.0741179 0
M  V30 18438 C 1761.28 4.98881 0.585071 0
M  V30 18439 C 1763.28 6.31917 -0.83423 0
M  V30 18440 C 1760.97 6.10838 -0.178762 0
M  V30 18441 C 1761.96 6.77214 -0.887139 0
M  V30 18442 O 1761.65 7.87025 -1.6385 0
M  V30 18443 H 1761.38 0.647045 0.195727 0
M  V30 18444 H 1763.94 2.05324 -0.0559783 0
M  V30 18445 H 1762.17 3.14109 2.25549 0
M  V30 18446 H 1763.86 3.50471 2.04756 0
M  V30 18447 H 1764.62 4.84983 -0.0400444 0
M  V30 18448 H 1760.5 4.47038 1.12598 0
M  V30 18449 H 1764.05 6.83659 -1.38767 0
M  V30 18450 H 1759.94 6.45143 -0.214632 0
M  V30 18451 H 1760.71 8.03576 -1.55591 0
M  V30 18452 N 1763.37 -0.266145 1.55336 0
M  V30 18453 C 1764.31 -1.35159 1.85107 0
M  V30 18454 C 1765.32 -1.45213 0.736006 0
M  V30 18455 O 1766.51 -1.46907 1.01393 0
M  V30 18456 C 1763.61 -2.73218 2.00512 0
M  V30 18457 C 1762.78 -2.85671 3.31226 0
M  V30 18458 C 1761.84 -4.0445 3.36611 0
M  V30 18459 O 1760.87 -3.94884 4.09945 0
M  V30 18460 N 1762.07 -5.16735 2.64508 0
M  V30 18461 H 1764.83 -1.09963 2.78798 0
M  V30 18462 H 1762.39 -0.456261 1.55338 0
M  V30 18463 H 1764.39 -3.50983 2.01477 0
M  V30 18464 H 1762.96 -2.91206 1.13655 0
M  V30 18465 H 1762.18 -1.94736 3.42741 0
M  V30 18466 H 1763.46 -2.90927 4.17419 0
M  V30 18467 H 1762.86 -5.27395 2.04624 0
M  V30 18468 H 1761.42 -5.92706 2.71189 0
M  V30 18469 N 1764.85 -1.48386 -0.530967 0
M  V30 18470 C 1766.1 -1.56045 -1.28431 0
M  V30 18471 C 1766.42 -0.235695 -1.9357 0
M  V30 18472 O 1765.69 0.742677 -1.81276 0
M  V30 18473 H 1764.27 -0.574868 -0.477007 0
M  V30 18474 H 1766.93 -1.84844 -0.617955 0
M  V30 18475 H 1766.03 -2.34096 -2.0641 0
M  V30 18476 N 1766.33 0.779763 -1.36958 0
M  V30 18477 C 1767.26 1.90687 -1.34762 0
M  V30 18478 C 1768.24 1.68704 -0.217508 0
M  V30 18479 O 1769.43 1.89678 -0.416639 0
M  V30 18480 C 1766.56 3.27854 -1.14582 0
M  V30 18481 C 1765.51 3.64383 -2.2452 0
M  V30 18482 C 1764.84 5.00004 -1.89473 0
M  V30 18483 C 1766.14 3.71963 -3.66662 0
M  V30 18484 H 1767.83 1.92781 -2.29076 0
M  V30 18485 H 1765.38 0.926102 -1.10269 0
M  V30 18486 H 1767.33 4.06332 -1.11678 0
M  V30 18487 H 1766.05 3.26172 -0.167218 0
M  V30 18488 H 1764.71 2.88207 -2.26566 0
M  V30 18489 H 1764.36 4.94853 -0.901617 0
M  V30 18490 H 1764.06 5.25414 -2.63085 0
M  V30 18491 H 1765.58 5.80892 -1.88141 0
M  V30 18492 H 1767 4.40611 -3.6679 0
M  V30 18493 H 1765.39 4.08864 -4.39261 0
M  V30 18494 H 1766.46 2.72824 -4.00868 0
M  V30 18495 N 1767.81 1.21396 1.00503 0
M  V30 18496 C 1769.03 1.05791 1.7839 0
M  V30 18497 C 1769.46 -0.387921 1.84056 0
M  V30 18498 O 1768.82 -1.27983 1.28413 0
M  V30 18499 C 1768.86 1.65967 3.20137 0
M  V30 18500 O 1767.97 0.905123 4.02345 0
M  V30 18501 H 1767.31 0.372331 0.549787 0
M  V30 18502 H 1769.84 1.60938 1.26334 0
M  V30 18503 H 1769.85 1.70186 3.70811 0
M  V30 18504 H 1768.52 2.71185 3.15327 0
M  V30 18505 H 1767.1 0.938019 3.60909 0
M  V30 18506 N 1769.29 -1.19996 1.0217 0
M  V30 18507 C 1770.23 -2.25 0.589726 0
M  V30 18508 C 1771.23 -1.65218 -0.374086 0
M  V30 18509 O 1772.43 -1.78346 -0.243449 0
M  V30 18510 H 1768.81 -0.731968 0.172416 0
M  V30 18511 H 1770.78 -2.58759 1.48615 0
M  V30 18512 C 1769.53 -3.47663 -0.0509896 0
M  V30 18513 H 1768.85 -3.93946 0.681649 0
M  V30 18514 H 1770.29 -4.22819 -0.316287 0
M  V30 18515 C 1768.75 -3.11001 -1.29538 0
M  V30 18516 O 1769.28 -3.23 -2.38818 0
M  V30 18517 N 1767.49 -2.65502 -1.18141 0
M  V30 18518 H 1767.03 -2.55938 -0.292172 0
M  V30 18519 H 1766.99 -2.41342 -2.01498 0
M  V30 18520 N 1770.76 -0.798611 -1.35867 0
M  V30 18521 C 1771.67 -0.204758 -2.33705 0
M  V30 18522 C 1772.69 0.648001 -1.61484 0
M  V30 18523 O 1773.87 0.561628 -1.93411 0
M  V30 18524 C 1770.93 0.643225 -3.40681 0
M  V30 18525 C 1769.99 -0.229099 -4.28688 0
M  V30 18526 C 1769.22 0.578508 -5.30555 0
M  V30 18527 O 1769.45 1.81382 -5.40793 0
M  V30 18528 O 1768.38 -0.0264291 -6.01894 0
M  V30 18529 H 1772.21 -1.01392 -2.86275 0
M  V30 18530 H 1769.79 -0.560242 -1.38498 0
M  V30 18531 H 1771.67 1.12648 -4.06065 0
M  V30 18532 H 1770.35 1.43012 -2.90395 0
M  V30 18533 H 1769.26 -0.759314 -3.66313 0
M  V30 18534 H 1770.59 -0.979736 -4.82351 0
M  V30 18535 N 1772.24 1.47639 -0.551417 0
M  V30 18536 C 1773.17 2.27972 0.236919 0
M  V30 18537 C 1774.19 1.3666 0.884752 0
M  V30 18538 O 1775.38 1.61532 0.75958 0
M  V30 18539 C 1772.48 3.10738 1.3526 0
M  V30 18540 C 1771.65 4.29972 0.802659 0
M  V30 18541 C 1770.71 4.94379 1.80212 0
M  V30 18542 O 1769.73 5.52946 1.35053 0
M  V30 18543 N 1770.94 4.8855 3.13526 0
M  V30 18544 H 1773.7 2.9627 -0.452154 0
M  V30 18545 H 1771.26 1.57204 -0.387116 0
M  V30 18546 H 1773.25 3.50692 2.01983 0
M  V30 18547 H 1771.82 2.44721 1.945 0
M  V30 18548 H 1771.04 3.94178 -0.0411825 0
M  V30 18549 H 1772.33 5.07109 0.41448 0
M  V30 18550 H 1771.73 4.42157 3.52865 0
M  V30 18551 H 1770.29 5.32541 3.75823 0
M  V30 18552 N 1773.72 0.287581 1.54954 0
M  V30 18553 C 1774.97 -0.326093 2.00161 0
M  V30 18554 C 1775.3 -1.54564 1.17574 0
M  V30 18555 O 1774.57 -1.92901 0.248859 0
M  V30 18556 C 1774.86 -0.695974 3.5331 0
M  V30 18557 C 1774.71 0.531783 4.46645 0
M  V30 18558 C 1776.03 -1.52767 4.12735 0
M  V30 18559 H 1773.15 -0.117051 0.727646 0
M  V30 18560 H 1775.79 0.39701 1.85806 0
M  V30 18561 H 1773.94 -1.31205 3.65674 0
M  V30 18562 H 1775.61 1.17032 4.46208 0
M  V30 18563 H 1773.86 1.16754 4.17793 0
M  V30 18564 H 1774.53 0.229034 5.51525 0
M  V30 18565 H 1777 -1.00724 4.03725 0
M  V30 18566 H 1775.88 -1.75527 5.20078 0
M  V30 18567 H 1776.14 -2.51267 3.63755 0
M  V30 18568 N 1775.2 -1.57593 0.0150662 0
M  V30 18569 C 1776.13 -2.12395 -0.970081 0
M  V30 18570 C 1777.11 -1.03666 -1.34861 0
M  V30 18571 O 1778.29 -1.31427 -1.4297 0
M  V30 18572 C 1775.42 -2.63958 -2.25707 0
M  V30 18573 C 1774.38 -3.77348 -2.01971 0
M  V30 18574 C 1773.7 -4.15284 -3.36814 0
M  V30 18575 C 1775 -5.04008 -1.37017 0
M  V30 18576 H 1776.7 -2.9496 -0.513731 0
M  V30 18577 H 1774.24 -1.41889 -0.245666 0
M  V30 18578 H 1776.2 -3.00927 -2.94993 0
M  V30 18579 H 1774.92 -1.78535 -2.73483 0
M  V30 18580 H 1773.58 -3.40795 -1.35107 0
M  V30 18581 H 1773.23 -3.26863 -3.82321 0
M  V30 18582 H 1772.93 -4.91686 -3.21744 0
M  V30 18583 H 1774.45 -4.54824 -4.07391 0
M  V30 18584 H 1775.87 -5.38652 -1.96282 0
M  V30 18585 H 1774.26 -5.85315 -1.32388 0
M  V30 18586 H 1775.33 -4.83698 -0.341281 0
M  V30 18587 N 1776.68 0.257904 -1.55475 0
M  V30 18588 C 1777.62 1.31912 -1.89388 0
M  V30 18589 C 1778.59 1.48358 -0.746927 0
M  V30 18590 O 1779.78 1.62521 -0.999584 0
M  V30 18591 C 1776.92 2.67162 -2.18446 0
M  V30 18592 C 1776.03 2.58814 -3.45889 0
M  V30 18593 C 1775.17 3.86343 -3.64571 0
M  V30 18594 C 1774.21 3.72567 -4.85654 0
M  V30 18595 N 1773.34 4.91964 -5.00915 0
M  V30 18596 H 1778.18 1.02291 -2.79894 0
M  V30 18597 H 1775.72 0.493864 -1.38562 0
M  V30 18598 H 1777.68 3.45874 -2.33296 0
M  V30 18599 H 1776.31 2.94954 -1.31157 0
M  V30 18600 H 1775.36 1.7173 -3.39431 0
M  V30 18601 H 1776.67 2.4454 -4.34743 0
M  V30 18602 H 1775.83 4.73498 -3.79321 0
M  V30 18603 H 1774.56 4.03501 -2.7393 0
M  V30 18604 H 1773.57 2.83795 -4.70893 0
M  V30 18605 H 1774.79 3.56914 -5.77745 0
M  V30 18606 H 1772.74 5.09505 -4.13208 0
M  V30 18607 H 1772.66 4.80279 -5.83839 0
M  V30 18608 H 1773.93 5.80649 -5.20064 0
M  V30 18609 N 1778.15 1.48666 0.52309 0
M  V30 18610 C 1779.4 1.57034 1.27854 0
M  V30 18611 C 1779.73 0.247256 1.92922 0
M  V30 18612 O 1778.98 -0.763049 1.80211 0
M  V30 18613 C 1779.28 2.66247 2.38426 0
M  V30 18614 C 1778.95 4.08464 1.90965 0
M  V30 18615 C 1777.61 4.47171 1.77739 0
M  V30 18616 C 1779.96 4.97562 1.55184 0
M  V30 18617 C 1777.29 5.72772 1.27077 0
M  V30 18618 C 1779.64 6.23659 1.05982 0
M  V30 18619 C 1778.31 6.61216 0.913782 0
M  V30 18620 H 1777.58 0.574628 0.46785 0
M  V30 18621 H 1780.22 1.82411 0.582961 0
M  V30 18622 H 1778.53 2.34756 3.13682 0
M  V30 18623 H 1780.23 2.69936 2.9654 0
M  V30 18624 H 1776.82 3.779 2.02212 0
M  V30 18625 H 1781 4.6833 1.64259 0
M  V30 18626 H 1776.26 6.0059 1.14464 0
M  V30 18627 H 1780.43 6.92089 0.773684 0
M  V30 18628 H 1778.06 7.58426 0.519021 0
M  V30 18629 N 1779.63 -0.772489 1.37369 0
M  V30 18630 C 1780.88 -1.53329 1.32733 0
M  V30 18631 C 1781.21 -1.93999 -0.0882815 0
M  V30 18632 O 1780.49 -1.64014 -1.04545 0
M  V30 18633 C 1780.77 -2.79885 2.26575 0
M  V30 18634 C 1780.62 -2.45474 3.76912 0
M  V30 18635 C 1781.94 -3.81812 2.18878 0
M  V30 18636 H 1779.06 -0.55625 0.483482 0
M  V30 18637 H 1781.7 -0.886251 1.68064 0
M  V30 18638 H 1779.85 -3.35097 1.96576 0
M  V30 18639 H 1781.52 -1.96182 4.17505 0
M  V30 18640 H 1779.77 -1.78181 3.95517 0
M  V30 18641 H 1780.44 -3.35937 4.38007 0
M  V30 18642 H 1782.91 -3.36091 2.4532 0
M  V30 18643 H 1781.79 -4.68087 2.86681 0
M  V30 18644 H 1782.05 -4.26021 1.18146 0
M  V30 18645 N 1781.11 -1.21927 -0.998575 0
M  V30 18646 C 1782.04 -0.927553 -2.08499 0
M  V30 18647 C 1783.02 0.127378 -1.621 0
M  V30 18648 O 1784.21 -0.00298127 -1.885 0
M  V30 18649 C 1781.33 -0.393968 -3.36401 0
M  V30 18650 C 1780.38 -1.4327 -4.01716 0
M  V30 18651 S 1781.21 -3.0041 -4.43299 0
M  V30 18652 C 1782.37 -2.48675 -5.74379 0
M  V30 18653 H 1782.6 -1.84755 -2.32923 0
M  V30 18654 H 1780.13 -1.04972 -1.13227 0
M  V30 18655 H 1782.09 -0.0926895 -4.10395 0
M  V30 18656 H 1780.75 0.504816 -3.10017 0
M  V30 18657 H 1779.95 -1.0091 -4.93795 0
M  V30 18658 H 1779.55 -1.68239 -3.34024 0
M  V30 18659 H 1781.84 -1.89562 -6.5044 0
M  V30 18660 H 1782.78 -3.39221 -6.21558 0
M  V30 18661 H 1783.19 -1.90158 -5.31507 0
M  V30 18662 N 1782.59 1.19452 -1.02805 0
M  V30 18663 C 1783.87 1.84878 -0.638707 0
M  V30 18664 C 1784.25 1.91763 0.882627 0
M  V30 18665 O 1783.59 1.43401 1.779 0
M  V30 18666 C 1783.8 3.23891 -1.29982 0
M  V30 18667 C 1785.15 4.00061 -1.42254 0
M  V30 18668 O 1786.18 3.33286 -1.25693 0
M  V30 18669 O 1785.03 5.19671 -1.69127 0
M  V30 18670 H 1782.13 0.796676 -0.221892 0
M  V30 18671 H 1784.67 1.26949 -1.12615 0
M  V30 18672 H 1783.45 3.13711 -2.33883 0
M  V30 18673 H 1783.07 3.89465 -0.800186 0
M  V30 18674 N 1784.07 0.805805 1.35442 0
M  V30 18675 C 1785.31 0.385046 1.98398 0
M  V30 18676 C 1785.64 -1.05114 1.64244 0
M  V30 18677 O 1784.91 -1.72711 0.924532 0
M  V30 18678 H 1783.49 0.139386 0.733881 0
M  V30 18679 H 1786.15 1.03147 1.65368 0
M  V30 18680 H 1785.24 0.490126 3.08227 0
M  V30 18681 N 1785.54 -1.47344 0.559239 0
M  V30 18682 C 1786.79 -2.02068 0.035872 0
M  V30 18683 C 1787.11 -1.43573 -1.31953 0
M  V30 18684 O 1786.38 -0.611672 -1.86106 0
M  V30 18685 H 1784.96 -0.746929 0.0102713 0
M  V30 18686 H 1787.63 -1.80724 0.729707 0
M  V30 18687 H 1786.72 -3.12059 -0.0507123 0
M  V30 18688 N 1787.02 -0.295795 -1.54799 0
M  V30 18689 C 1788.27 0.315473 -2.00331 0
M  V30 18690 C 1788.6 1.53939 -1.18392 0
M  V30 18691 O 1787.88 1.92767 -0.259086 0
M  V30 18692 C 1788.16 0.677227 -3.53674 0
M  V30 18693 C 1788.01 -0.555462 -4.46357 0
M  V30 18694 C 1789.33 1.50576 -4.1354 0
M  V30 18695 H 1786.45 0.113191 -0.728256 0
M  V30 18696 H 1789.09 -0.406858 -1.85593 0
M  V30 18697 H 1787.24 1.29264 -3.66365 0
M  V30 18698 H 1788.91 -1.19397 -4.45581 0
M  V30 18699 H 1787.16 -1.18968 -4.17168 0
M  V30 18700 H 1787.83 -0.25828 -5.51395 0
M  V30 18701 H 1790.3 0.985819 -4.04253 0
M  V30 18702 H 1789.18 1.72766 -5.21002 0
M  V30 18703 H 1789.44 2.49334 -3.65082 0
M  V30 18704 N 1788.5 1.57583 -0.0234236 0
M  V30 18705 C 1789.43 2.12907 0.958804 0
M  V30 18706 C 1790.41 1.0438 1.34309 0
M  V30 18707 O 1791.6 1.32184 1.42271 0
M  V30 18708 C 1788.73 2.65151 2.24304 0
M  V30 18709 C 1787.68 3.78414 1.99967 0
M  V30 18710 C 1787.01 4.17064 3.34607 0
M  V30 18711 C 1788.31 5.04727 1.34342 0
M  V30 18712 H 1790 2.95228 0.498081 0
M  V30 18713 H 1787.55 1.42017 0.238138 0
M  V30 18714 H 1789.5 3.02487 2.93393 0
M  V30 18715 H 1788.22 1.79983 2.72532 0
M  V30 18716 H 1786.88 3.41507 1.33298 0
M  V30 18717 H 1786.53 3.28886 3.80583 0
M  V30 18718 H 1786.23 4.93385 3.19132 0
M  V30 18719 H 1787.76 4.56978 4.04973 0
M  V30 18720 H 1789.17 5.39686 1.93422 0
M  V30 18721 H 1787.57 5.86009 1.29282 0
M  V30 18722 H 1788.64 4.83872 0.315625 0
M  V30 18723 N 1789.98 -0.249655 1.5561 0
M  V30 18724 C 1790.89 -1.33061 1.93215 0
M  V30 18725 C 1791.91 -1.52806 0.832239 0
M  V30 18726 O 1793.08 -1.66482 1.13339 0
M  V30 18727 C 1790.15 -2.66569 2.2168 0
M  V30 18728 C 1789.21 -2.5537 3.45087 0
M  V30 18729 C 1788.44 -3.82511 3.72184 0
M  V30 18730 O 1788.66 -4.84267 3.014 0
M  V30 18731 O 1787.6 -3.81309 4.65711 0
M  V30 18732 H 1791.42 -1.04161 2.85279 0
M  V30 18733 H 1789.01 -0.450177 1.42456 0
M  V30 18734 H 1790.89 -3.45468 2.41308 0
M  V30 18735 H 1789.57 -2.95207 1.32794 0
M  V30 18736 H 1788.47 -1.74766 3.30768 0
M  V30 18737 H 1789.81 -2.31677 4.34266 0
M  V30 18738 N 1791.46 -1.48941 -0.515198 0
M  V30 18739 C 1792.37 -1.67271 -1.64492 0
M  V30 18740 C 1793.38 -0.555222 -1.64904 0
M  V30 18741 O 1794.56 -0.828161 -1.83585 0
M  V30 18742 C 1791.62 -1.722 -3.00912 0
M  V30 18743 C 1790.69 -2.95683 -3.11239 0
M  V30 18744 C 1789.92 -3.00368 -4.41152 0
M  V30 18745 O 1790.14 -2.13041 -5.29122 0
M  V30 18746 O 1789.08 -3.92691 -4.56155 0
M  V30 18747 H 1792.9 -2.62947 -1.51962 0
M  V30 18748 H 1790.49 -1.32515 -0.68993 0
M  V30 18749 H 1792.37 -1.77877 -3.82018 0
M  V30 18750 H 1791.04 -0.796995 -3.13735 0
M  V30 18751 H 1789.95 -2.95531 -2.29374 0
M  V30 18752 H 1791.28 -3.87617 -3.03338 0
M  V30 18753 N 1792.94 0.765193 -1.37777 0
M  V30 18754 C 1793.87 1.89247 -1.36777 0
M  V30 18755 C 1794.85 1.68463 -0.235389 0
M  V30 18756 O 1796.03 1.89225 -0.436733 0
M  V30 18757 C 1793.16 3.2662 -1.18053 0
M  V30 18758 C 1792.12 3.61981 -2.28372 0
M  V30 18759 C 1791.44 4.97967 -1.94765 0
M  V30 18760 C 1792.74 3.68053 -3.70587 0
M  V30 18761 H 1794.44 1.90341 -2.31108 0
M  V30 18762 H 1791.98 0.914355 -1.11245 0
M  V30 18763 H 1793.93 4.05125 -1.15982 0
M  V30 18764 H 1792.66 3.25976 -0.201803 0
M  V30 18765 H 1791.32 2.85788 -2.2961 0
M  V30 18766 H 1790.97 4.93869 -0.954052 0
M  V30 18767 H 1790.67 5.22594 -2.68642 0
M  V30 18768 H 1792.19 5.78864 -1.94292 0
M  V30 18769 H 1793.6 4.36696 -3.71443 0
M  V30 18770 H 1792 4.04183 -4.43572 0
M  V30 18771 H 1793.07 2.68556 -4.03739 0
M  V30 18772 N 1794.41 1.22455 0.992094 0
M  V30 18773 C 1795.32 1.01173 2.11663 0
M  V30 18774 C 1796.34 -0.0402168 1.73954 0
M  V30 18775 O 1797.52 0.152685 2.0082 0
M  V30 18776 C 1794.58 0.592995 3.41591 0
M  V30 18777 C 1793.64 1.71865 3.93397 0
M  V30 18778 C 1792.87 1.3198 5.17124 0
M  V30 18779 O 1793.1 0.198943 5.70053 0
M  V30 18780 O 1792.03 2.13658 5.62702 0
M  V30 18781 H 1795.86 1.9539 2.32501 0
M  V30 18782 H 1793.44 1.01056 1.10036 0
M  V30 18783 H 1795.32 0.36987 4.19774 0
M  V30 18784 H 1794 -0.320311 3.22111 0
M  V30 18785 H 1792.91 1.9963 3.16384 0
M  V30 18786 H 1794.24 2.60985 4.1731 0
M  V30 18787 N 1795.89 -1.18905 1.03437 0
M  V30 18788 C 1797.14 -1.88354 0.732598 0
M  V30 18789 C 1797.46 -1.80353 -0.741474 0
M  V30 18790 O 1796.73 -1.21764 -1.53461 0
M  V30 18791 H 1795.31 -0.697272 0.267995 0
M  V30 18792 H 1797.97 -1.44329 1.30978 0
M  V30 18793 H 1797.07 -2.94551 1.03181 0
M  V30 18794 N 1797.37 -0.812977 -1.35013 0
M  V30 18795 C 1798.61 -0.402068 -2.00407 0
M  V30 18796 C 1798.97 1.01337 -1.63079 0
M  V30 18797 O 1800.17 1.52663 -2.21241 0
M  V30 18798 C 1798.45 -0.587029 -3.52546 0
M  V30 18799 S 1800 -0.267491 -4.37984 0
M  V30 18800 H 1796.82 -0.152383 -0.694479 0
M  V30 18801 H 1799.42 -1.05662 -1.64486 0
M  V30 18802 H 1798.13 -1.61704 -3.772 0
M  V30 18803 H 1797.66 0.0826178 -3.93313 0
M  V30 18804 H 1799.67 0.922508 -4.87549 0
M  V30 18805 N 1798.85 1.47045 -0.567045 0
M  V30 18806 C 1800.26 1.86202 -0.13627 0
M  V30 18807 C 1800.61 1.47252 1.29658 0
M  V30 18808 O 1799.73 0.880121 1.97694 0
M  V30 18809 C 1800.33 3.37945 -0.240528 0
M  V30 18810 C 1798.89 3.76157 0.135272 0
M  V30 18811 C 1798.04 2.71089 -0.583628 0
M  V30 18812 H 1800.99 1.38423 -0.776196 0
M  V30 18813 H 1801.01 3.76673 0.538293 0
M  V30 18814 H 1800.52 3.66263 -1.28348 0
M  V30 18815 H 1798.62 3.53456 1.17896 0
M  V30 18816 H 1798.73 4.78547 -0.230137 0
M  V30 18817 H 1797.1 2.54687 -0.0256067 0
M  V30 18818 H 1797.88 3.02247 -1.62792 0
M  V30 18819 N 1800.33 0.304 1.5464 0
M  V30 18820 C 1801.26 -0.563854 2.2659 0
M  V30 18821 C 1802.24 -1.13547 1.26653 0
M  V30 18822 O 1803.42 -1.16425 1.55431 0
M  V30 18823 C 1800.55 -1.73437 3.00894 0
M  V30 18824 C 1799.51 -1.29297 4.08003 0
M  V30 18825 C 1798.83 -2.54888 4.70038 0
M  V30 18826 C 1800.13 -0.422027 5.20592 0
M  V30 18827 H 1801.83 0.0362569 2.99378 0
M  V30 18828 H 1799.37 0.0188781 1.43988 0
M  V30 18829 H 1801.32 -2.34762 3.4995 0
M  V30 18830 H 1800.05 -2.36076 2.25689 0
M  V30 18831 H 1798.71 -0.702757 3.59801 0
M  V30 18832 H 1798.36 -3.15848 3.9147 0
M  V30 18833 H 1798.06 -2.26054 5.42378 0
M  V30 18834 H 1799.58 -3.17011 5.21859 0
M  V30 18835 H 1800.99 -0.941036 5.65524 0
M  V30 18836 H 1799.39 -0.227323 5.99669 0
M  V30 18837 H 1800.46 0.55212 4.81746 0
M  V30 18838 N 1801.8 -1.57568 0.0317802 0
M  V30 18839 C 1802.74 -2.07288 -0.977981 0
M  V30 18840 C 1803.75 -0.99682 -1.28714 0
M  V30 18841 O 1804.94 -1.27295 -1.25133 0
M  V30 18842 C 1802.04 -2.48469 -2.3047 0
M  V30 18843 C 1801.21 -3.79185 -2.18031 0
M  V30 18844 C 1800.27 -4.06888 -3.33659 0
M  V30 18845 O 1799.3 -4.771 -3.10426 0
M  V30 18846 N 1800.5 -3.57271 -4.57534 0
M  V30 18847 H 1803.26 -2.9454 -0.553743 0
M  V30 18848 H 1800.82 -1.61157 -0.154917 0
M  V30 18849 H 1802.82 -2.64092 -3.06655 0
M  V30 18850 H 1801.39 -1.66568 -2.64526 0
M  V30 18851 H 1800.61 -3.73333 -1.26556 0
M  V30 18852 H 1801.89 -4.64821 -2.06926 0
M  V30 18853 H 1801.29 -3.00474 -4.79303 0
M  V30 18854 H 1799.85 -3.78168 -5.30878 0
M  V30 18855 N 1803.28 0.241399 -1.5574 0
M  V30 18856 C 1804.21 1.30255 -1.93793 0
M  V30 18857 C 1805.19 1.49923 -0.803563 0
M  V30 18858 O 1806.38 1.62439 -1.06429 0
M  V30 18859 C 1803.51 2.65625 -2.23742 0
M  V30 18860 C 1802.46 2.60645 -3.39483 0
M  V30 18861 C 1801.79 3.99861 -3.54986 0
M  V30 18862 C 1803.09 2.17151 -4.75019 0
M  V30 18863 H 1804.78 0.986532 -2.8268 0
M  V30 18864 H 1802.33 0.473125 -1.36006 0
M  V30 18865 H 1804.28 3.40001 -2.48953 0
M  V30 18866 H 1803.01 2.98874 -1.31688 0
M  V30 18867 H 1801.66 1.88727 -3.14289 0
M  V30 18868 H 1801.31 4.30385 -2.60342 0
M  V30 18869 H 1801.01 3.97415 -4.32822 0
M  V30 18870 H 1802.54 4.75928 -3.82524 0
M  V30 18871 H 1803.95 2.8126 -4.99565 0
M  V30 18872 H 1802.35 2.25805 -5.55996 0
M  V30 18873 H 1803.42 1.12329 -4.7171 0
M  V30 18874 N 1804.76 1.49212 0.507292 0
M  V30 18875 C 1805.69 1.61529 1.62606 0
M  V30 18876 C 1806.71 0.498303 1.54986 0
M  V30 18877 O 1807.89 0.7701 1.61033 0
M  V30 18878 C 1804.99 1.55015 3.0137 0
M  V30 18879 C 1804.17 2.8214 3.34239 0
M  V30 18880 C 1803.23 2.68765 4.52385 0
M  V30 18881 O 1802.25 3.42691 4.54479 0
M  V30 18882 N 1803.45 1.7989 5.51924 0
M  V30 18883 H 1806.22 2.58018 1.52469 0
M  V30 18884 H 1803.78 1.46222 0.695042 0
M  V30 18885 H 1805.77 1.4373 3.78317 0
M  V30 18886 H 1804.34 0.6641 3.05464 0
M  V30 18887 H 1803.56 3.07823 2.46249 0
M  V30 18888 H 1804.85 3.66432 3.52994 0
M  V30 18889 H 1804.25 1.19074 5.53026 0
M  V30 18890 H 1802.81 1.74531 6.27999 0
M  V30 18891 N 1806.24 -0.757876 1.38181 0
M  V30 18892 C 1807.15 -1.90234 1.37289 0
M  V30 18893 C 1808.16 -1.71883 0.270567 0
M  V30 18894 O 1809.34 -1.94881 0.508279 0
M  V30 18895 C 1806.41 -3.25546 1.19251 0
M  V30 18896 C 1805.47 -3.56452 2.39249 0
M  V30 18897 C 1804.7 -4.85308 2.22063 0
M  V30 18898 O 1804.92 -5.57373 1.2121 0
M  V30 18899 O 1803.86 -5.15594 3.10558 0
M  V30 18900 H 1807.68 -1.9394 2.33711 0
M  V30 18901 H 1805.27 -0.902559 1.19056 0
M  V30 18902 H 1807.15 -4.06454 1.11235 0
M  V30 18903 H 1805.82 -3.22661 0.259109 0
M  V30 18904 H 1804.73 -2.75723 2.52839 0
M  V30 18905 H 1806.06 -3.64094 3.31205 0
M  V30 18906 N 1807.72 -1.22979 -0.985586 0
M  V30 18907 C 1808.65 -1.03073 -2.09519 0
M  V30 18908 C 1809.63 0.0507025 -1.70024 0
M  V30 18909 O 1810.81 -0.112938 -1.93871 0
M  V30 18910 C 1807.94 -0.615578 -3.41801 0
M  V30 18911 C 1806.9 -1.64377 -3.95176 0
M  V30 18912 C 1806.22 -1.08422 -5.23592 0
M  V30 18913 C 1807.52 -3.03555 -4.25032 0
M  V30 18914 H 1809.22 -1.95882 -2.2643 0
M  V30 18915 H 1806.76 -0.943206 -1.0881 0
M  V30 18916 H 1808.72 -0.463394 -4.18844 0
M  V30 18917 H 1807.44 0.348185 -3.24739 0
M  V30 18918 H 1806.1 -1.78386 -3.20272 0
M  V30 18919 H 1805.75 -0.111597 -5.02876 0
M  V30 18920 H 1805.45 -1.77118 -5.6027 0
M  V30 18921 H 1806.97 -0.94378 -6.03262 0
M  V30 18922 H 1808.38 -2.92878 -4.92844 0
M  V30 18923 H 1806.78 -3.69441 -4.72899 0
M  V30 18924 H 1807.85 -3.52937 -3.32511 0
M  V30 18925 N 1809.19 1.18355 -1.04066 0
M  V30 18926 C 1810.13 2.20807 -0.576164 0
M  V30 18927 C 1811.11 1.57871 0.389277 0
M  V30 18928 O 1812.29 1.86039 0.303581 0
M  V30 18929 C 1809.42 3.3833 0.158303 0
M  V30 18930 C 1808.46 4.19667 -0.760391 0
M  V30 18931 S 1809.3 4.86249 -2.24326 0
M  V30 18932 C 1810.45 6.07172 -1.51964 0
M  V30 18933 H 1810.68 2.59866 -1.4442 0
M  V30 18934 H 1808.22 1.2879 -0.851623 0
M  V30 18935 H 1810.18 4.0644 0.575896 0
M  V30 18936 H 1808.84 2.97682 1.00222 0
M  V30 18937 H 1808.03 5.03631 -0.192705 0
M  V30 18938 H 1807.63 3.56935 -1.11683 0
M  V30 18939 H 1809.92 6.72608 -0.812694 0
M  V30 18940 H 1810.87 6.68447 -2.33633 0
M  V30 18941 H 1811.27 5.55355 -1.01198 0
M  V30 18942 N 1810.67 0.820125 1.3458 0
M  V30 18943 C 1811.9 0.418747 2.03129 0
M  V30 18944 C 1812.32 -0.966605 1.61364 0
M  V30 18945 O 1811.68 -1.62847 0.796903 0
M  V30 18946 C 1811.73 0.525681 3.56748 0
M  V30 18947 O 1810.83 -0.455592 4.09876 0
M  V30 18948 H 1810.17 0.172819 0.641116 0
M  V30 18949 H 1812.7 1.10977 1.71888 0
M  V30 18950 H 1812.71 0.400422 4.0603 0
M  V30 18951 H 1811.39 1.53609 3.86493 0
M  V30 18952 H 1809.97 -0.289449 3.71775 0
M  V30 18953 N 1812.15 -1.46743 0.574835 0
M  V30 18954 C 1813.57 -1.57847 0.23591 0
M  V30 18955 C 1813.77 -1.57105 -1.26175 0
M  V30 18956 O 1812.82 -1.48382 -2.04301 0
M  V30 18957 C 1814.14 -2.87591 0.878158 0
M  V30 18958 C 1815.68 -3.01209 0.851018 0
M  V30 18959 C 1816.16 -4.33678 1.47266 0
M  V30 18960 N 1817.65 -4.40358 1.43664 0
M  V30 18961 C 1818.38 -5.41458 1.8871 0
M  V30 18962 N 1817.88 -6.49274 2.41692 0
M  V30 18963 N 1819.67 -5.3261 1.79674 0
M  V30 18964 H 1811.82 -1.45469 1.54766 0
M  V30 18965 H 1814.09 -0.69341 0.646441 0
M  V30 18966 H 1813.79 -2.93922 1.93139 0
M  V30 18967 H 1813.67 -3.75264 0.381665 0
M  V30 18968 H 1816.05 -2.94464 -0.193573 0
M  V30 18969 H 1816.14 -2.15032 1.38545 0
M  V30 18970 H 1815.78 -4.41179 2.51641 0
M  V30 18971 H 1815.71 -5.18616 0.913519 0
M  V30 18972 H 1818.2 -3.63041 1.04928 0
M  V30 18973 H 1818.51 -7.22617 2.73942 0
M  V30 18974 H 1816.86 -6.50115 2.45713 0
M  V30 18975 H 1820.05 -4.47282 1.38045 0
M  V30 18976 H 1820.22 -6.11259 2.15096 0
M  V30 18977 N 1813.63 -0.312197 -1.54477 0
M  V30 18978 C 1814.87 0.294506 -2.02267 0
M  V30 18979 C 1815.23 1.5023 -1.19562 0
M  V30 18980 O 1816.43 2.18111 -1.57102 0
M  V30 18981 C 1814.7 0.631364 -3.51779 0
M  V30 18982 S 1816.26 1.21934 -4.21518 0
M  V30 18983 H 1813.08 0.0897629 -0.705311 0
M  V30 18984 H 1815.68 -0.442675 -1.90422 0
M  V30 18985 H 1814.39 -0.255978 -4.09601 0
M  V30 18986 H 1813.92 1.39904 -3.67682 0
M  V30 18987 H 1815.93 2.50669 -4.28229 0
M  V30 18988 N 1815.11 1.57549 -0.040136 0
M  V30 18989 C 1816.35 1.93359 0.631192 0
M  V30 18990 C 1816.71 0.917795 1.69098 0
M  V30 18991 O 1816 -0.0646219 1.91491 0
M  V30 18992 C 1816.19 3.3366 1.28084 0
M  V30 18993 C 1816.02 4.48793 0.285503 0
M  V30 18994 C 1814.79 5.05161 -0.118582 0
M  V30 18995 C 1816.99 5.12197 -0.464651 0
M  V30 18996 N 1814.97 6.03819 -1.10794 0
M  V30 18997 C 1816.34 6.06058 -1.30742 0
M  V30 18998 C 1818.4 4.95133 -0.524161 0
M  V30 18999 C 1817.1 6.8469 -2.20435 0
M  V30 19000 C 1819.13 5.74383 -1.40847 0
M  V30 19001 C 1818.49 6.67869 -2.23899 0
M  V30 19002 H 1814.59 0.755206 0.202949 0
M  V30 19003 H 1817.17 1.9439 -0.109888 0
M  V30 19004 H 1815.34 3.33427 1.99201 0
M  V30 19005 H 1817.08 3.56788 1.91008 0
M  V30 19006 H 1813.83 4.72896 0.258127 0
M  V30 19007 H 1814.26 6.57841 -1.59918 0
M  V30 19008 H 1818.9 4.22673 0.103704 0
M  V30 19009 H 1816.62 7.56449 -2.84272 0
M  V30 19010 H 1820.2 5.6321 -1.45895 0
M  V30 19011 H 1819.08 7.28122 -2.91218 0
M  V30 19012 N 1816.58 -0.233136 1.55866 0
M  V30 19013 C 1817.52 -1.31202 1.87932 0
M  V30 19014 C 1818.53 -1.43619 0.766642 0
M  V30 19015 O 1819.72 -1.44723 1.04487 0
M  V30 19016 C 1816.82 -2.68904 2.06262 0
M  V30 19017 C 1815.99 -2.78581 3.37211 0
M  V30 19018 C 1815.05 -3.97219 3.45114 0
M  V30 19019 O 1814.08 -3.861 4.18229 0
M  V30 19020 N 1815.28 -5.11009 2.7541 0
M  V30 19021 H 1818.04 -1.04025 2.81067 0
M  V30 19022 H 1815.6 -0.423209 1.56271 0
M  V30 19023 H 1817.6 -3.46631 2.08876 0
M  V30 19024 H 1816.17 -2.8873 1.19807 0
M  V30 19025 H 1815.39 -1.87422 3.46795 0
M  V30 19026 H 1816.67 -2.82008 4.23496 0
M  V30 19027 H 1816.07 -5.22936 2.15764 0
M  V30 19028 H 1814.63 -5.8682 2.837 0
M  V30 19029 N 1818.06 -1.49479 -0.499372 0
M  V30 19030 C 1819.47 -1.52231 -1.08087 0
M  V30 19031 C 1819.83 -0.309442 -1.93744 0
M  V30 19032 O 1818.95 0.580587 -2.08466 0
M  V30 19033 C 1819.55 -2.75857 -1.96694 0
M  V30 19034 C 1818.1 -2.81381 -2.50003 0
M  V30 19035 C 1817.25 -2.46166 -1.27662 0
M  V30 19036 H 1820.2 -1.56153 -0.283211 0
M  V30 19037 H 1820.22 -2.56111 -2.81403 0
M  V30 19038 H 1819.74 -3.64114 -1.34324 0
M  V30 19039 H 1817.84 -1.97408 -3.16008 0
M  V30 19040 H 1817.95 -3.83591 -2.87045 0
M  V30 19041 H 1816.31 -1.97981 -1.60236 0
M  V30 19042 H 1817.1 -3.36699 -0.669974 0
M  V30 19043 N 1819.54 0.750537 -1.38581 0
M  V30 19044 C 1820.49 1.88571 -1.36176 0
M  V30 19045 C 1821.48 1.67587 -0.247175 0
M  V30 19046 O 1822.69 1.75118 -0.416377 0
M  V30 19047 H 1819.06 0.620468 -0.424881 0
M  V30 19048 H 1821.04 1.87716 -2.3196 0
M  V30 19049 C 1819.78 3.26088 -1.20673 0
M  V30 19050 H 1819.11 3.42822 -2.05701 0
M  V30 19051 H 1820.55 4.05754 -1.23044 0
M  V30 19052 C 1819.01 3.3679 0.0861189 0
M  V30 19053 O 1819.54 3.87407 1.06203 0
M  V30 19054 N 1817.74 2.90243 0.143977 0
M  V30 19055 H 1817.29 2.49242 -0.650869 0
M  V30 19056 H 1817.25 2.97784 1.00857 0
M  V30 19057 N 1821.02 1.235 0.979051 0
M  V30 19058 C 1822.43 1.06263 1.53509 0
M  V30 19059 C 1822.78 -0.369594 1.92687 0
M  V30 19060 O 1821.91 -1.25649 1.76185 0
M  V30 19061 C 1822.5 1.92276 2.78954 0
M  V30 19062 C 1821.06 1.79296 3.30953 0
M  V30 19063 C 1820.21 1.87898 2.03935 0
M  V30 19064 H 1823.16 1.37143 0.798588 0
M  V30 19065 H 1823.18 1.44835 3.51857 0
M  V30 19066 H 1822.69 2.96509 2.50408 0
M  V30 19067 H 1820.79 0.778512 3.64376 0
M  V30 19068 H 1820.91 2.62755 4.0062 0
M  V30 19069 H 1819.27 1.31494 2.18131 0
M  V30 19070 H 1820.05 2.93689 1.77769 0
M  V30 19071 N 1822.5 -1.17802 1.04693 0
M  V30 19072 C 1823.91 -1.39944 0.76733 0
M  V30 19073 C 1824.11 -1.91051 -0.640451 0
M  V30 19074 O 1823.17 -2.09889 -1.40366 0
M  V30 19075 C 1824.48 -2.39465 1.81871 0
M  V30 19076 C 1826.03 -2.5318 1.84035 0
M  V30 19077 C 1826.51 -3.55971 2.88182 0
M  V30 19078 N 1828 -3.63484 2.87113 0
M  V30 19079 C 1828.73 -4.42762 3.64348 0
M  V30 19080 N 1828.23 -5.25597 4.51353 0
M  V30 19081 N 1830.02 -4.37586 3.52809 0
M  V30 19082 H 1822.17 -0.829567 1.9553 0
M  V30 19083 H 1824.43 -0.427009 0.846385 0
M  V30 19084 H 1824.14 -2.08974 2.82883 0
M  V30 19085 H 1824.01 -3.38899 1.65612 0
M  V30 19086 H 1826.4 -2.82984 0.836908 0
M  V30 19087 H 1826.48 -1.53837 2.04371 0
M  V30 19088 H 1826.13 -3.26906 3.88709 0
M  V30 19089 H 1826.06 -4.55006 2.65099 0
M  V30 19090 H 1828.55 -3.04338 2.24024 0
M  V30 19091 H 1828.86 -5.83258 5.06981 0
M  V30 19092 H 1827.21 -5.24996 4.55417 0
M  V30 19093 H 1830.4 -3.71924 2.84236 0
M  V30 19094 H 1830.57 -4.99128 4.13249 0
M  V30 19095 N 1823.98 -0.827251 -1.34143 0
M  V30 19096 C 1824.91 -0.267015 -2.31968 0
M  V30 19097 C 1825.89 0.618906 -1.58441 0
M  V30 19098 O 1827.07 0.544882 -1.86399 0
M  V30 19099 C 1824.2 0.568379 -3.42617 0
M  V30 19100 C 1823.16 -0.220767 -4.2743 0
M  V30 19101 C 1822.48 0.737643 -5.29587 0
M  V30 19102 C 1823.78 -1.43137 -5.02304 0
M  V30 19103 H 1825.48 -1.08436 -2.79073 0
M  V30 19104 H 1823.02 -0.522879 -1.34171 0
M  V30 19105 H 1824.97 0.970525 -4.10072 0
M  V30 19106 H 1823.7 1.41882 -2.94172 0
M  V30 19107 H 1822.36 -0.604333 -3.61585 0
M  V30 19108 H 1822.01 1.58416 -4.77403 0
M  V30 19109 H 1821.71 0.213815 -5.87211 0
M  V30 19110 H 1823.23 1.13755 -5.9991 0
M  V30 19111 H 1824.64 -1.10301 -5.62589 0
M  V30 19112 H 1823.04 -1.89115 -5.69522 0
M  V30 19113 H 1824.11 -2.2073 -4.31748 0
M  V30 19114 N 1825.45 1.46436 -0.582609 0
M  V30 19115 C 1826.87 1.5772 -0.244278 0
M  V30 19116 C 1827.07 1.57772 1.2534 0
M  V30 19117 O 1826.13 1.49463 2.03512 0
M  V30 19118 C 1827.44 2.87122 -0.893398 0
M  V30 19119 C 1828.99 3.00753 -0.866979 0
M  V30 19120 C 1829.46 4.32891 -1.49564 0
M  V30 19121 N 1830.95 4.3959 -1.45998 0
M  V30 19122 C 1831.69 5.40449 -1.91578 0
M  V30 19123 N 1831.18 6.47983 -2.45132 0
M  V30 19124 N 1832.98 5.3165 -1.82496 0
M  V30 19125 H 1825.13 1.44646 -1.55536 0
M  V30 19126 H 1827.39 0.689972 -0.650109 0
M  V30 19127 H 1827.1 2.92894 -1.94695 0
M  V30 19128 H 1826.97 3.75056 -0.40156 0
M  V30 19129 H 1829.36 2.94563 0.177954 0
M  V30 19130 H 1829.44 2.14295 -1.39684 0
M  V30 19131 H 1829.08 4.39839 -2.53977 0
M  V30 19132 H 1829.01 5.18124 -0.94101 0
M  V30 19133 H 1831.5 3.62479 -1.06851 0
M  V30 19134 H 1831.82 7.21154 -2.7777 0
M  V30 19135 H 1830.16 6.48803 -2.49157 0
M  V30 19136 H 1833.35 4.46543 -1.40416 0
M  V30 19137 H 1833.53 6.1011 -2.18334 0
M  V30 19138 N 1826.93 0.320385 1.54309 0
M  V30 19139 C 1828.34 -0.16833 1.8594 0
M  V30 19140 C 1828.69 -1.51877 1.24208 0
M  V30 19141 O 1827.82 -2.09374 0.546933 0
M  V30 19142 C 1828.41 -0.312212 3.37358 0
M  V30 19143 C 1826.97 -0.745147 3.68951 0
M  V30 19144 C 1826.12 0.135038 2.76971 0
M  V30 19145 H 1829.07 0.540773 1.49202 0
M  V30 19146 H 1829.09 -1.14364 3.62906 0
M  V30 19147 H 1828.6 0.670809 3.82259 0
M  V30 19148 H 1826.7 -1.73803 3.29581 0
M  V30 19149 H 1826.82 -0.5511 4.7592 0
M  V30 19150 H 1825.18 -0.388886 2.51714 0
M  V30 19151 H 1825.96 1.11477 3.24697 0
M  V30 19152 N 1828.41 -1.57525 0.0484906 0
M  V30 19153 C 1829.63 -1.97309 -0.639062 0
M  V30 19154 C 1830.06 -0.925753 -1.63742 0
M  V30 19155 O 1829.42 0.111304 -1.80958 0
M  V30 19156 C 1829.47 -3.36168 -1.30475 0
M  V30 19157 O 1828.57 -3.33903 -2.42038 0
M  V30 19158 H 1827.91 -0.642824 -0.166351 0
M  V30 19159 H 1830.44 -2.0427 0.116095 0
M  V30 19160 H 1830.45 -3.72835 -1.65705 0
M  V30 19161 H 1829.13 -4.11933 -0.573057 0
M  V30 19162 H 1827.7 -3.08978 -2.08775 0
M  V30 19163 N 1829.89 0.224867 -1.55988 0
M  V30 19164 C 1831.13 0.949747 -1.78846 0
M  V30 19165 C 1831.46 1.84465 -0.616678 0
M  V30 19166 O 1830.72 1.91587 0.399098 0
M  V30 19167 C 1831.02 1.8227 -3.07429 0
M  V30 19168 C 1830.68 1.08131 -4.37743 0
M  V30 19169 C 1829.34 0.876497 -4.7315 0
M  V30 19170 C 1831.7 0.557505 -5.1821 0
M  V30 19171 C 1829.02 0.13593 -5.86543 0
M  V30 19172 C 1831.38 -0.169702 -6.32372 0
M  V30 19173 C 1830.04 -0.385796 -6.66384 0
M  V30 19174 H 1829.31 0.347537 -0.654446 0
M  V30 19175 H 1831.96 0.218162 -1.90253 0
M  V30 19176 H 1830.26 2.62204 -2.91129 0
M  V30 19177 H 1831.96 2.38564 -3.22317 0
M  V30 19178 H 1828.55 1.25091 -4.09939 0
M  V30 19179 H 1832.73 0.703218 -4.91293 0
M  V30 19180 H 1827.99 -0.0417543 -6.11386 0
M  V30 19181 H 1832.16 -0.583104 -6.93955 0
M  V30 19182 H 1829.79 -0.961574 -7.54094 0
M  V30 19183 N 1831.37 1.49742 0.491438 0
M  V30 19184 C 1832.59 1.63435 1.26873 0
M  V30 19185 C 1833.01 0.309516 1.86246 0
M  V30 19186 O 1832.37 -0.706178 1.68284 0
M  V30 19187 C 1832.42 2.71034 2.39213 0
M  V30 19188 O 1832.14 3.98379 1.82278 0
M  V30 19189 C 1833.64 2.95518 3.3043 0
M  V30 19190 H 1830.86 0.54994 0.384457 0
M  V30 19191 H 1833.4 1.95837 0.588914 0
M  V30 19192 H 1831.56 2.41384 3.03006 0
M  V30 19193 H 1831.97 4.57725 2.56101 0
M  V30 19194 H 1833.45 3.74517 4.05513 0
M  V30 19195 H 1833.92 2.058 3.87999 0
M  V30 19196 H 1834.53 3.26622 2.72393 0
M  V30 19197 N 1832.84 -0.743177 1.38977 0
M  V30 19198 C 1833.79 -1.84801 1.33539 0
M  V30 19199 C 1834.78 -1.5942 0.217733 0
M  V30 19200 O 1835.97 -1.71063 0.454585 0
M  V30 19201 C 1833.1 -3.22635 1.1731 0
M  V30 19202 C 1832.19 -3.53872 2.33741 0
M  V30 19203 N 1832.58 -3.56099 3.59204 0
M  V30 19204 C 1830.87 -3.84193 2.26521 0
M  V30 19205 C 1831.58 -3.849 4.3615 0
M  V30 19206 N 1830.55 -4.02259 3.65634 0
M  V30 19207 H 1834.35 -1.84816 2.28518 0
M  V30 19208 H 1831.87 -0.941033 1.32357 0
M  V30 19209 H 1833.86 -4.01714 1.11497 0
M  V30 19210 H 1832.52 -3.23865 0.232735 0
M  V30 19211 H 1833.54 -3.37607 3.92736 0
M  V30 19212 H 1830.21 -3.93077 1.40701 0
M  V30 19213 H 1831.6 -3.93158 5.44863 0
M  V30 19214 N 1834.32 -1.24018 -0.972487 0
M  V30 19215 C 1835.57 -1.07105 -1.70913 0
M  V30 19216 C 1835.88 0.390908 -1.91654 0
M  V30 19217 O 1837.09 0.68013 -2.62843 0
M  V30 19218 C 1835.55 -1.86823 -3.07612 0
M  V30 19219 C 1835.15 -3.37399 -2.94731 0
M  V30 19220 C 1836.9 -1.78425 -3.85182 0
M  V30 19221 C 1834.81 -4.09479 -4.2671 0
M  V30 19222 H 1833.74 -0.397184 -0.640907 0
M  V30 19223 H 1836.39 -1.48056 -1.08405 0
M  V30 19224 H 1834.77 -1.38683 -3.70922 0
M  V30 19225 H 1835.94 -3.93084 -2.40462 0
M  V30 19226 H 1834.26 -3.46697 -2.3063 0
M  V30 19227 H 1836.85 -2.29584 -4.82903 0
M  V30 19228 H 1837.2 -0.748555 -4.09515 0
M  V30 19229 H 1837.73 -2.24219 -3.28589 0
M  V30 19230 H 1834.47 -5.13387 -4.07571 0
M  V30 19231 H 1833.99 -3.5858 -4.80812 0
M  V30 19232 H 1835.67 -4.16212 -4.95355 0
M  V30 19233 N 1835.8 1.17245 -1.05316 0
M  V30 19234 C 1836.73 2.23491 -0.67631 0
M  V30 19235 C 1837.71 1.66937 0.326507 0
M  V30 19236 O 1838.9 1.93127 0.203823 0
M  V30 19237 C 1836.03 3.47262 -0.0515755 0
M  V30 19238 C 1834.98 4.16646 -0.97929 0
M  V30 19239 C 1834.31 5.34254 -0.218369 0
M  V30 19240 C 1835.61 4.68736 -2.30399 0
M  V30 19241 H 1837.3 2.55269 -1.56455 0
M  V30 19242 H 1834.85 1.22699 -0.753714 0
M  V30 19243 H 1836.8 4.20805 0.223865 0
M  V30 19244 H 1835.52 3.14755 0.871614 0
M  V30 19245 H 1834.18 3.45017 -1.23931 0
M  V30 19246 H 1833.83 4.97998 0.707624 0
M  V30 19247 H 1833.53 5.81615 -0.83654 0
M  V30 19248 H 1835.05 6.1058 0.0497574 0
M  V30 19249 H 1836.47 5.3391 -2.08837 0
M  V30 19250 H 1834.87 5.2668 -2.87625 0
M  V30 19251 H 1835.94 3.85477 -2.94169 0
M  V30 19252 N 1837.28 0.834353 1.33702 0
M  V30 19253 C 1838.56 0.350003 1.92443 0
M  V30 19254 C 1838.94 -1.1641 1.76102 0
M  V30 19255 O 1838.28 -1.97646 1.14666 0
M  V30 19256 C 1838.49 0.791928 3.39896 0
M  V30 19257 C 1839.84 0.797338 4.17046 0
M  V30 19258 O 1840.87 0.735242 3.48529 0
M  V30 19259 O 1839.72 0.880963 5.39353 0
M  V30 19260 H 1836.82 0.0981048 0.82116 0
M  V30 19261 H 1839.36 0.919905 1.42604 0
M  V30 19262 H 1838.14 1.83433 3.45641 0
M  V30 19263 H 1837.76 0.198349 3.97105 0
M  V30 19264 N 1838.76 -1.46125 0.590367 0
M  V30 19265 C 1839.98 -2.07234 0.0828625 0
M  V30 19266 C 1840.41 -1.43498 -1.21614 0
M  V30 19267 O 1839.76 -0.521488 -1.73638 0
M  V30 19268 C 1839.81 -3.60548 -0.0614302 0
M  V30 19269 O 1838.92 -3.97012 -1.11603 0
M  V30 19270 H 1838.26 -0.660685 0.0662654 0
M  V30 19271 H 1840.79 -1.87646 0.815486 0
M  V30 19272 H 1840.8 -4.07137 -0.265161 0
M  V30 19273 H 1839.47 -4.06328 0.887164 0
M  V30 19274 H 1838.05 -3.6212 -0.890146 0
M  V30 19275 N 1840.23 -0.328564 -1.54137 0
M  V30 19276 C 1841.48 0.273427 -1.99838 0
M  V30 19277 C 1841.8 1.52851 -1.22049 0
M  V30 19278 O 1843 2.20681 -1.58152 0
M  V30 19279 C 1841.46 0.537757 -3.5586 0
M  V30 19280 C 1841.07 -0.700562 -4.42489 0
M  V30 19281 C 1842.81 1.09943 -4.10016 0
M  V30 19282 C 1840.72 -0.40786 -5.89992 0
M  V30 19283 H 1839.65 0.105947 -0.746519 0
M  V30 19284 H 1842.3 -0.441565 -1.78108 0
M  V30 19285 H 1840.68 1.31307 -3.73597 0
M  V30 19286 H 1841.85 -1.47583 -4.36527 0
M  V30 19287 H 1840.17 -1.1828 -3.99248 0
M  V30 19288 H 1842.77 1.33312 -5.17815 0
M  V30 19289 H 1843.11 2.05035 -3.62307 0
M  V30 19290 H 1843.64 0.385182 -3.95931 0
M  V30 19291 H 1840.38 -1.32809 -6.41905 0
M  V30 19292 H 1839.9 0.329604 -5.98894 0
M  V30 19293 H 1841.58 -0.0195391 -6.46997 0
M  V30 19294 N 1841.71 1.57497 -0.0568439 0
M  V30 19295 C 1842.64 2.08817 0.94488 0
M  V30 19296 C 1843.66 1.01717 1.27112 0
M  V30 19297 O 1844.85 1.2927 1.23092 0
M  V30 19298 C 1841.95 2.52104 2.26488 0
M  V30 19299 C 1841.12 3.82606 2.11971 0
M  V30 19300 C 1840.18 4.12145 3.27144 0
M  V30 19301 O 1839.2 4.81978 3.02797 0
M  V30 19302 N 1840.41 3.64505 4.51792 0
M  V30 19303 H 1843.17 2.95384 0.506814 0
M  V30 19304 H 1840.73 1.61383 0.129259 0
M  V30 19305 H 1842.72 2.68938 3.02415 0
M  V30 19306 H 1841.29 1.70756 2.61842 0
M  V30 19307 H 1840.51 3.75299 1.20601 0
M  V30 19308 H 1841.8 4.68055 1.99505 0
M  V30 19309 H 1841.2 3.08061 4.74462 0
M  V30 19310 H 1839.76 3.86566 5.24795 0
M  V30 19311 N 1843.19 -0.216591 1.56105 0
M  V30 19312 C 1844.1 -1.28933 1.95994 0
M  V30 19313 C 1845.12 -1.51007 0.864464 0
M  V30 19314 O 1846.29 -1.6404 1.16845 0
M  V30 19315 C 1843.36 -2.61807 2.27284 0
M  V30 19316 C 1842.42 -2.47992 3.50426 0
M  V30 19317 C 1841.65 -3.7453 3.80214 0
M  V30 19318 O 1841.87 -4.77765 3.11604 0
M  V30 19319 O 1840.81 -3.71345 4.73694 0
M  V30 19320 H 1844.63 -0.980864 2.87424 0
M  V30 19321 H 1842.22 -0.419859 1.43379 0
M  V30 19322 H 1844.1 -3.40272 2.48582 0
M  V30 19323 H 1842.78 -2.92324 1.39026 0
M  V30 19324 H 1841.68 -1.67711 3.34401 0
M  V30 19325 H 1843.02 -2.22413 4.39082 0
M  V30 19326 N 1844.67 -1.5 -0.48349 0
M  V30 19327 C 1845.58 -1.70722 -1.60907 0
M  V30 19328 C 1846.59 -0.590075 -1.63689 0
M  V30 19329 O 1847.77 -0.866915 -1.81787 0
M  V30 19330 C 1844.84 -1.78544 -2.97192 0
M  V30 19331 C 1843.9 -3.02218 -3.04898 0
M  V30 19332 C 1843.13 -3.09658 -4.34681 0
M  V30 19333 O 1843.35 -2.24216 -5.24484 0
M  V30 19334 O 1842.29 -4.02278 -4.47723 0
M  V30 19335 H 1846.11 -2.66111 -1.4635 0
M  V30 19336 H 1843.7 -1.33949 -0.661666 0
M  V30 19337 H 1845.58 -1.85941 -3.78159 0
M  V30 19338 H 1844.25 -0.863364 -3.11974 0
M  V30 19339 H 1843.16 -3.00329 -2.23054 0
M  V30 19340 H 1844.49 -3.93964 -2.95048 0
M  V30 19341 N 1846.15 0.735796 -1.39369 0
M  V30 19342 C 1847.08 1.86303 -1.4076 0
M  V30 19343 C 1848.06 1.67926 -0.27107 0
M  V30 19344 O 1849.24 1.88257 -0.476773 0
M  V30 19345 C 1846.37 3.24043 -1.24955 0
M  V30 19346 C 1845.33 3.57055 -2.35999 0
M  V30 19347 C 1844.65 4.93723 -2.05284 0
M  V30 19348 C 1845.95 3.60109 -3.7831 0
M  V30 19349 H 1847.65 1.85396 -2.35093 0
M  V30 19350 H 1845.19 0.890552 -1.1316 0
M  V30 19351 H 1847.15 4.02574 -1.24549 0
M  V30 19352 H 1845.87 3.25475 -0.270902 0
M  V30 19353 H 1844.53 2.80853 -2.35621 0
M  V30 19354 H 1844.18 4.91734 -1.05859 0
M  V30 19355 H 1843.88 5.16779 -2.79667 0
M  V30 19356 H 1845.4 5.74612 -2.06527 0
M  V30 19357 H 1846.81 4.28718 -3.80622 0
M  V30 19358 H 1845.21 3.94683 -4.52046 0
M  V30 19359 H 1846.28 2.59932 -4.09345 0
M  V30 19360 N 1847.63 1.24532 0.965897 0
M  V30 19361 C 1849.04 1.0111 1.23486 0
M  V30 19362 C 1849.24 -0.278989 1.99559 0
M  V30 19363 O 1848.3 -0.99467 2.32083 0
M  V30 19364 C 1849.61 2.22726 2.02024 0
M  V30 19365 C 1851.16 2.27369 2.1511 0
M  V30 19366 C 1851.63 3.48611 2.97043 0
M  V30 19367 N 1853.12 3.48938 3.04625 0
M  V30 19368 C 1853.86 4.3941 3.68384 0
M  V30 19369 N 1853.36 5.40138 4.33847 0
M  V30 19370 N 1855.15 4.27117 3.65414 0
M  V30 19371 H 1847.3 2.07433 0.456674 0
M  V30 19372 H 1849.56 0.91037 0.264443 0
M  V30 19373 H 1849.27 3.16427 1.53515 0
M  V30 19374 H 1849.14 2.24989 3.02754 0
M  V30 19375 H 1851.53 1.34198 2.62821 0
M  V30 19376 H 1851.61 2.29131 1.13722 0
M  V30 19377 H 1851.25 4.42097 2.50025 0
M  V30 19378 H 1851.18 3.44093 3.98632 0
M  V30 19379 H 1853.68 2.76067 2.58061 0
M  V30 19380 H 1853.99 6.05402 4.80321 0
M  V30 19381 H 1852.33 5.44022 4.3251 0
M  V30 19382 H 1855.52 3.47659 3.1345 0
M  V30 19383 H 1855.7 4.97824 4.1482 0
M  V30 19384 N 1849.1 -1.16685 1.05936 0
M  V30 19385 C 1850.51 -1.68745 0.798866 0
M  V30 19386 C 1850.87 -1.84113 -0.678008 0
M  V30 19387 O 1849.99 -1.53408 -1.52627 0
M  V30 19388 C 1850.59 -3.06508 1.44356 0
M  V30 19389 C 1849.14 -3.55704 1.23092 0
M  V30 19390 C 1848.29 -2.31776 1.52235 0
M  V30 19391 H 1851.24 -1.01097 1.22332 0
M  V30 19392 H 1851.26 -3.70725 0.856908 0
M  V30 19393 H 1850.78 -2.95291 2.51843 0
M  V30 19394 H 1848.88 -3.72186 0.175632 0
M  V30 19395 H 1848.99 -4.38015 1.94112 0
M  V30 19396 H 1847.35 -2.36611 0.942734 0
M  V30 19397 H 1848.14 -2.2316 2.60873 0
M  V30 19398 N 1850.58 -0.841432 -1.33258 0
M  V30 19399 C 1851.81 -0.45101 -2.02437 0
M  V30 19400 C 1852.23 0.940811 -1.62881 0
M  V30 19401 O 1851.59 1.61559 -0.82271 0
M  V30 19402 C 1851.64 -0.58237 -3.55866 0
M  V30 19403 O 1850.74 0.390326 -4.10549 0
M  V30 19404 H 1850.08 -0.182996 -0.638285 0
M  V30 19405 H 1852.61 -1.13697 -1.701 0
M  V30 19406 H 1852.62 -0.464967 -4.05342 0
M  V30 19407 H 1851.3 -1.59739 -3.84 0
M  V30 19408 H 1849.87 0.230266 -3.72188 0
M  V30 19409 N 1852.06 1.4581 -0.598108 0
M  V30 19410 C 1853.31 2.02302 -0.0896112 0
M  V30 19411 C 1853.63 1.46772 1.27625 0
M  V30 19412 O 1852.89 0.628712 1.85326 0
M  V30 19413 C 1853.19 3.57399 0.00976809 0
M  V30 19414 C 1852.85 4.32038 -1.29051 0
M  V30 19415 C 1851.52 4.52147 -1.64671 0
M  V30 19416 C 1853.87 4.74776 -2.15028 0
M  V30 19417 C 1851.2 5.12249 -2.86038 0
M  V30 19418 C 1853.55 5.3622 -3.35635 0
M  V30 19419 C 1852.21 5.54554 -3.71519 0
M  V30 19420 H 1851.48 0.740274 -0.0327911 0
M  V30 19421 H 1854.13 1.74992 -0.77783 0
M  V30 19422 H 1852.43 3.83933 0.781201 0
M  V30 19423 H 1854.13 3.98803 0.419212 0
M  V30 19424 H 1850.72 4.16693 -1.00324 0
M  V30 19425 H 1854.91 4.58982 -1.8881 0
M  V30 19426 H 1850.16 5.24633 -3.13958 0
M  V30 19427 H 1854.34 5.68292 -4.02514 0
M  V30 19428 H 1851.96 6.00894 -4.65651 0
M  V30 19429 N 1853.54 0.336733 1.53961 0
M  V30 19430 C 1854.95 -0.0154439 1.59593 0
M  V30 19431 C 1855.15 -1.49328 1.35291 0
M  V30 19432 O 1854.21 -2.25107 1.14381 0
M  V30 19433 C 1855.52 0.414613 2.97828 0
M  V30 19434 C 1857.07 0.36638 3.10848 0
M  V30 19435 C 1857.55 0.7718 4.5145 0
M  V30 19436 N 1859.04 0.725719 4.5748 0
M  V30 19437 C 1859.77 1.01145 5.64409 0
M  V30 19438 N 1859.27 1.36499 6.7922 0
M  V30 19439 N 1861.06 0.936141 5.5425 0
M  V30 19440 H 1853.21 1.29944 1.68012 0
M  V30 19441 H 1855.47 0.529259 0.786504 0
M  V30 19442 H 1855.18 1.44476 3.20655 0
M  V30 19443 H 1855.05 -0.21367 3.76594 0
M  V30 19444 H 1857.44 -0.65458 2.87749 0
M  V30 19445 H 1857.52 1.02978 2.34157 0
M  V30 19446 H 1857.17 1.79074 4.75284 0
M  V30 19447 H 1857.1 0.0859543 5.2653 0
M  V30 19448 H 1859.59 0.464858 3.7503 0
M  V30 19449 H 1859.9 1.56805 7.56725 0
M  V30 19450 H 1858.25 1.40338 6.80684 0
M  V30 19451 H 1861.44 0.659334 4.63433 0
M  V30 19452 H 1861.61 1.16217 6.37493 0
M  V30 19453 N 1855.02 -1.57465 0.0651956 0
M  V30 19454 C 1855.95 -2.15374 -0.902018 0
M  V30 19455 C 1856.93 -1.07904 -1.31494 0
M  V30 19456 O 1858.11 -1.35909 -1.38717 0
M  V30 19457 C 1855.24 -2.71005 -2.17195 0
M  V30 19458 C 1854.2 -3.83583 -1.89864 0
M  V30 19459 C 1853.52 -4.25789 -3.23432 0
M  V30 19460 C 1854.82 -5.08112 -1.20913 0
M  V30 19461 H 1856.52 -2.96445 -0.419631 0
M  V30 19462 H 1854.06 -1.42599 -0.200401 0
M  V30 19463 H 1856.01 -3.1016 -2.8527 0
M  V30 19464 H 1854.74 -1.87146 -2.67664 0
M  V30 19465 H 1853.4 -3.44921 -1.24197 0
M  V30 19466 H 1853.05 -3.38861 -3.71729 0
M  V30 19467 H 1852.75 -5.01673 -3.05938 0
M  V30 19468 H 1854.27 -4.67555 -3.92715 0
M  V30 19469 H 1855.68 -5.44624 -1.79046 0
M  V30 19470 H 1854.08 -5.8923 -1.137 0
M  V30 19471 H 1855.15 -4.84538 -0.187224 0
M  V30 19472 N 1856.49 0.20831 -1.56217 0
M  V30 19473 C 1857.42 1.26115 -1.96513 0
M  V30 19474 C 1858.4 1.48185 -0.835183 0
M  V30 19475 O 1859.59 1.60145 -1.09851 0
M  V30 19476 C 1856.72 2.6082 -2.29326 0
M  V30 19477 C 1855.67 2.53385 -3.44935 0
M  V30 19478 C 1855 3.92241 -3.63388 0
M  V30 19479 C 1856.3 2.07026 -4.79518 0
M  V30 19480 H 1857.99 0.92635 -2.84709 0
M  V30 19481 H 1855.54 0.444169 -1.36979 0
M  V30 19482 H 1857.49 3.34644 -2.56109 0
M  V30 19483 H 1856.22 2.96014 -1.37997 0
M  V30 19484 H 1854.88 1.82018 -3.18222 0
M  V30 19485 H 1854.52 4.24766 -2.69413 0
M  V30 19486 H 1854.22 3.88145 -4.41154 0
M  V30 19487 H 1855.75 4.67707 -3.92533 0
M  V30 19488 H 1857.16 2.70601 -5.05419 0
M  V30 19489 H 1855.56 2.13961 -5.60661 0
M  V30 19490 H 1856.63 1.02298 -4.73986 0
M  V30 19491 N 1857.97 1.50255 0.475528 0
M  V30 19492 C 1859.2 1.65044 1.25599 0
M  V30 19493 C 1859.62 0.331736 1.85152 0
M  V30 19494 O 1858.98 -0.703863 1.67079 0
M  V30 19495 C 1859.03 2.7405 2.34369 0
M  V30 19496 O 1858.13 2.34994 3.38897 0
M  V30 19497 H 1857.47 0.551557 0.369704 0
M  V30 19498 H 1860 1.96603 0.566422 0
M  V30 19499 H 1860.01 2.96993 2.79749 0
M  V30 19500 H 1858.69 3.6976 1.90395 0
M  V30 19501 H 1857.26 2.22481 2.9926 0
M  V30 19502 N 1859.45 -0.728395 1.39758 0
M  V30 19503 C 1860.7 -1.48808 1.37341 0
M  V30 19504 C 1861.02 -1.94479 -0.0285032 0
M  V30 19505 O 1860.28 -1.67586 -1.01062 0
M  V30 19506 C 1860.58 -2.73735 2.29791 0
M  V30 19507 C 1860.24 -2.46897 3.77296 0
M  V30 19508 C 1858.91 -2.39287 4.17487 0
M  V30 19509 C 1861.26 -2.24097 4.70564 0
M  V30 19510 C 1858.59 -2.06927 5.48997 0
M  V30 19511 C 1860.94 -1.93252 6.02359 0
M  V30 19512 C 1859.6 -1.84115 6.41606 0
M  V30 19513 H 1858.87 -0.544527 0.502565 0
M  V30 19514 H 1861.52 -0.835461 1.72315 0
M  V30 19515 H 1859.82 -3.43772 1.87957 0
M  V30 19516 H 1861.52 -3.31785 2.2521 0
M  V30 19517 H 1858.11 -2.53701 3.45447 0
M  V30 19518 H 1862.3 -2.28939 4.40341 0
M  V30 19519 H 1857.55 -1.98381 5.78321 0
M  V30 19520 H 1861.73 -1.7462 6.74152 0
M  V30 19521 H 1859.35 -1.58807 7.43427 0
M  V30 19522 N 1860.93 -1.25042 -0.959279 0
M  V30 19523 C 1862.16 -1.12079 -1.73557 0
M  V30 19524 C 1862.57 0.328665 -1.86323 0
M  V30 19525 O 1861.91 1.23812 -1.35706 0
M  V30 19526 C 1861.97 -1.69634 -3.16961 0
M  V30 19527 C 1861.63 -3.18593 -3.27639 0
M  V30 19528 C 1862.63 -4.15641 -3.12312 0
M  V30 19529 C 1860.32 -3.58715 -3.51609 0
M  V30 19530 C 1862.31 -5.50791 -3.20793 0
M  V30 19531 C 1860 -4.94003 -3.59728 0
M  V30 19532 C 1861 -5.89851 -3.44333 0
M  V30 19533 O 1860.68 -7.22678 -3.52124 0
M  V30 19534 H 1860.42 -0.3919 -0.550809 0
M  V30 19535 H 1862.97 -1.658 -1.21242 0
M  V30 19536 H 1861.2 -1.10356 -3.70619 0
M  V30 19537 H 1862.89 -1.51838 -3.76431 0
M  V30 19538 H 1863.65 -3.85985 -2.93668 0
M  V30 19539 H 1859.53 -2.8461 -3.62654 0
M  V30 19540 H 1863.08 -6.25582 -3.08695 0
M  V30 19541 H 1858.97 -5.23327 -3.77887 0
M  V30 19542 H 1859.74 -7.30712 -3.68785 0
M  V30 19543 N 1862.41 1.16121 -1.06553 0
M  V30 19544 C 1863.64 1.90335 -0.803506 0
M  V30 19545 C 1864.04 1.77824 0.646172 0
M  V30 19546 O 1863.39 1.12231 1.4543 0
M  V30 19547 C 1863.45 3.41537 -1.12219 0
M  V30 19548 C 1863.11 3.77833 -2.57082 0
M  V30 19549 C 1864.11 3.79533 -3.55318 0
M  V30 19550 C 1861.8 4.08385 -2.92449 0
M  V30 19551 C 1863.79 4.11277 -4.8696 0
M  V30 19552 C 1861.48 4.39795 -4.24291 0
M  V30 19553 C 1862.47 4.41221 -5.21357 0
M  V30 19554 O 1862.16 4.71883 -6.50831 0
M  V30 19555 H 1861.89 0.610323 -0.290658 0
M  V30 19556 H 1864.45 1.48107 -1.42315 0
M  V30 19557 H 1862.68 3.84125 -0.445483 0
M  V30 19558 H 1864.37 3.97029 -0.843985 0
M  V30 19559 H 1865.13 3.56038 -3.29336 0
M  V30 19560 H 1861.01 4.06439 -2.17551 0
M  V30 19561 H 1864.56 4.12305 -5.62717 0
M  V30 19562 H 1860.45 4.62756 -4.5003 0
M  V30 19563 H 1861.22 4.89683 -6.5586 0
M  V30 19564 N 1863.88 0.848487 1.3281 0
M  V30 19565 C 1865.11 0.46174 2.02195 0
M  V30 19566 C 1865.53 -0.932159 1.63378 0
M  V30 19567 O 1864.89 -1.6112 0.831266 0
M  V30 19568 C 1864.94 0.601234 3.55552 0
M  V30 19569 O 1864.04 -0.368549 4.1075 0
M  V30 19570 H 1863.39 0.186379 0.637306 0
M  V30 19571 H 1865.92 1.14598 1.69495 0
M  V30 19572 H 1865.93 0.486456 4.0509 0
M  V30 19573 H 1864.6 1.61773 3.83148 0
M  V30 19574 H 1863.18 -0.210525 3.72305 0
M  V30 19575 N 1865.36 -1.4549 0.605832 0
M  V30 19576 C 1866.77 -1.85775 0.18559 0
M  V30 19577 C 1867.12 -1.50638 -1.25708 0
M  V30 19578 O 1866.25 -0.932227 -1.95291 0
M  V30 19579 C 1866.84 -3.37189 0.330043 0
M  V30 19580 C 1865.4 -3.76383 -0.0354934 0
M  V30 19581 C 1864.55 -2.69446 0.655297 0
M  V30 19582 H 1867.5 -1.36316 0.812624 0
M  V30 19583 H 1867.52 -3.77968 -0.438236 0
M  V30 19584 H 1867.03 -3.62731 1.38014 0
M  V30 19585 H 1865.14 -3.56458 -1.08483 0
M  V30 19586 H 1865.25 -4.77769 0.356935 0
M  V30 19587 H 1863.61 -2.5453 0.0931235 0
M  V30 19588 H 1864.4 -2.97825 1.70749 0
M  V30 19589 N 1866.84 -0.344893 -1.5378 0
M  V30 19590 C 1867.75 0.519687 -2.28772 0
M  V30 19591 C 1868.77 1.11076 -1.33934 0
M  V30 19592 O 1869.94 1.12615 -1.66972 0
M  V30 19593 C 1867.01 1.65417 -3.04693 0
M  V30 19594 C 1866.07 1.09275 -4.1516 0
M  V30 19595 C 1865.3 2.17316 -4.87452 0
M  V30 19596 O 1865.52 3.38061 -4.59425 0
M  V30 19597 O 1864.46 1.81535 -5.73872 0
M  V30 19598 H 1868.28 -0.0899625 -3.03567 0
M  V30 19599 H 1865.87 -0.109899 -1.48995 0
M  V30 19600 H 1867.75 2.31421 -3.52168 0
M  V30 19601 H 1866.43 2.24961 -2.32754 0
M  V30 19602 H 1865.33 0.397193 -3.71985 0
M  V30 19603 H 1866.67 0.542156 -4.89205 0
M  V30 19604 N 1868.32 1.57428 -0.0735454 0
M  V30 19605 C 1869.56 1.95432 0.598802 0
M  V30 19606 C 1869.92 0.953142 1.66671 0
M  V30 19607 O 1871.12 1.2209 2.39473 0
M  V30 19608 C 1869.39 3.38079 1.1592 0
M  V30 19609 S 1870.95 3.98061 1.84643 0
M  V30 19610 H 1867.77 0.683444 0.196022 0
M  V30 19611 H 1870.37 1.9494 -0.147819 0
M  V30 19612 H 1869.08 4.08727 0.370158 0
M  V30 19613 H 1868.61 3.42118 1.94214 0
M  V30 19614 H 1870.62 3.85108 3.129 0
M  V30 19615 N 1869.8 -0.200022 1.56326 0
M  V30 19616 C 1871.21 -0.550653 1.498 0
M  V30 19617 C 1871.41 -1.86097 0.772664 0
M  V30 19618 O 1870.47 -2.50449 0.321155 0
M  V30 19619 C 1871.78 -0.60995 2.94449 0
M  V30 19620 C 1873.33 -0.699119 3.05092 0
M  V30 19621 C 1873.8 -0.78957 4.51143 0
M  V30 19622 N 1875.3 -0.853228 4.55274 0
M  V30 19623 C 1876.03 -0.943298 5.65588 0
M  V30 19624 N 1875.53 -0.995976 6.85603 0
M  V30 19625 N 1877.32 -0.980106 5.53489 0
M  V30 19626 H 1869.47 0.659543 2.019 0
M  V30 19627 H 1871.73 0.234299 0.91859 0
M  V30 19628 H 1871.44 0.283651 3.50554 0
M  V30 19629 H 1871.31 -1.46632 3.47533 0
M  V30 19630 H 1873.7 -1.58315 2.49039 0
M  V30 19631 H 1873.78 0.183351 2.55142 0
M  V30 19632 H 1873.43 0.0900924 5.0782 0
M  V30 19633 H 1873.36 -1.68777 4.9882 0
M  V30 19634 H 1875.85 -0.821964 3.68853 0
M  V30 19635 H 1876.16 -1.06508 7.65425 0
M  V30 19636 H 1874.5 -0.964738 6.88272 0
M  V30 19637 H 1877.7 -0.935755 4.58652 0
M  V30 19638 H 1877.87 -1.04684 6.39488 0
M  V30 19639 N 1871.27 -1.50505 -0.467553 0
M  V30 19640 C 1872.52 -1.61352 -1.21697 0
M  V30 19641 C 1872.84 -0.317583 -1.92396 0
M  V30 19642 O 1872.11 0.665123 -1.84263 0
M  V30 19643 H 1870.69 -0.594582 -0.452196 0
M  V30 19644 H 1873.36 -1.87299 -0.539 0
M  V30 19645 H 1872.45 -2.4264 -1.96296 0
M  V30 19646 N 1872.75 0.720973 -1.40142 0
M  V30 19647 C 1873.72 1.81676 -1.39737 0
M  V30 19648 C 1874.72 1.58125 -0.292068 0
M  V30 19649 O 1875.91 1.65266 -0.550699 0
M  V30 19650 C 1873.04 3.19685 -1.18381 0
M  V30 19651 H 1874.23 1.83435 -2.37259 0
M  V30 19652 H 1871.78 0.926064 -1.25912 0
M  V30 19653 H 1872.52 3.2358 -0.21598 0
M  V30 19654 H 1872.3 3.38178 -1.98439 0
M  V30 19655 H 1873.79 3.99724 -1.20873 0
M  V30 19656 N 1874.23 1.25549 0.952634 0
M  V30 19657 C 1875.65 1.02414 1.22407 0
M  V30 19658 C 1875.85 -0.257807 1.99844 0
M  V30 19659 O 1874.9 -0.969999 2.33125 0
M  V30 19660 C 1876.22 2.24856 1.9965 0
M  V30 19661 C 1877.76 2.29638 2.12686 0
M  V30 19662 C 1878.24 3.51742 2.93329 0
M  V30 19663 N 1879.73 3.5215 3.00907 0
M  V30 19664 C 1880.46 4.43292 3.63703 0
M  V30 19665 N 1879.96 5.44709 4.28094 0
M  V30 19666 N 1881.75 4.30969 3.60863 0
M  V30 19667 H 1873.9 2.07905 0.434647 0
M  V30 19668 H 1876.17 0.913124 0.254772 0
M  V30 19669 H 1875.87 3.18037 1.5015 0
M  V30 19670 H 1875.75 2.28188 3.0035 0
M  V30 19671 H 1878.13 1.36978 2.61383 0
M  V30 19672 H 1878.22 2.30324 1.11285 0
M  V30 19673 H 1877.86 4.44724 2.45322 0
M  V30 19674 H 1877.79 3.48301 3.9496 0
M  V30 19675 H 1880.28 2.78789 2.55118 0
M  V30 19676 H 1880.59 6.10462 4.73873 0
M  V30 19677 H 1878.94 5.48579 4.26715 0
M  V30 19678 H 1882.13 3.50964 3.09745 0
M  V30 19679 H 1882.3 5.02196 4.09516 0
M  V30 19680 N 1875.71 -1.15554 1.07168 0
M  V30 19681 C 1876.96 -1.85928 0.792151 0
M  V30 19682 C 1877.28 -1.82621 -0.68372 0
M  V30 19683 O 1876.55 -1.26585 -1.49509 0
M  V30 19684 H 1875.13 -0.688393 0.290043 0
M  V30 19685 H 1877.79 -1.40089 1.35503 0
M  V30 19686 H 1876.89 -2.91119 1.125 0
M  V30 19687 N 1877.19 -0.855519 -1.32358 0
M  V30 19688 C 1878.41 -0.472456 -2.01947 0
M  V30 19689 C 1878.84 0.923482 -1.6387 0
M  V30 19690 O 1878.2 1.60677 -0.839799 0
M  V30 19691 C 1878.24 -0.620081 -3.55229 0
M  V30 19692 O 1877.35 0.34676 -4.1094 0
M  V30 19693 H 1876.69 -0.189756 -0.636309 0
M  V30 19694 H 1879.22 -1.15495 -1.68885 0
M  V30 19695 H 1879.23 -0.507933 -4.04826 0
M  V30 19696 H 1877.9 -1.63802 -3.82285 0
M  V30 19697 H 1876.48 0.190778 -3.72412 0
M  V30 19698 N 1878.67 1.45167 -0.61354 0
M  V30 19699 C 1879.6 2.3333 0.089004 0
M  V30 19700 C 1880.58 1.47181 0.85275 0
M  V30 19701 O 1881.76 1.7594 0.822122 0
M  V30 19702 C 1878.89 3.29982 1.08301 0
M  V30 19703 C 1877.85 4.25813 0.432084 0
M  V30 19704 C 1877.17 5.122 1.53476 0
M  V30 19705 C 1878.47 5.18233 -0.65052 0
M  V30 19706 H 1880.17 2.92322 -0.647165 0
M  V30 19707 H 1877.71 1.40565 -0.312667 0
M  V30 19708 H 1879.66 3.90533 1.5831 0
M  V30 19709 H 1878.39 2.69162 1.84985 0
M  V30 19710 H 1877.05 3.6657 -0.0471927 0
M  V30 19711 H 1876.7 4.47744 2.29203 0
M  V30 19712 H 1876.4 5.77122 1.10469 0
M  V30 19713 H 1877.92 5.7562 2.037 0
M  V30 19714 H 1879.33 5.72821 -0.234262 0
M  V30 19715 H 1877.73 5.91664 -1.00268 0
M  V30 19716 H 1878.8 4.60304 -1.52475 0
M  V30 19717 N 1880.14 0.353044 1.53595 0
M  V30 19718 C 1881.55 -0.128852 1.86255 0
M  V30 19719 C 1881.91 -1.49209 1.27402 0
M  V30 19720 O 1881.03 -2.08167 0.591222 0
M  V30 19721 C 1881.63 -0.240583 3.37945 0
M  V30 19722 C 1880.18 -0.66672 3.70448 0
M  V30 19723 C 1879.33 0.193757 2.76622 0
M  V30 19724 H 1882.28 0.5723 1.48022 0
M  V30 19725 H 1882.3 -1.06641 3.65251 0
M  V30 19726 H 1881.82 0.75174 3.8075 0
M  V30 19727 H 1879.92 -1.66773 3.33193 0
M  V30 19728 H 1880.03 -0.450026 4.76982 0
M  V30 19729 H 1878.39 -0.335406 2.52482 0
M  V30 19730 H 1879.18 1.18339 3.22259 0
M  V30 19731 N 1881.62 -1.57387 0.0818932 0
M  V30 19732 C 1882.85 -1.98201 -0.593645 0
M  V30 19733 C 1883.26 -0.960602 -1.62536 0
M  V30 19734 O 1882.62 0.0514903 -1.82427 0
M  V30 19735 C 1882.67 -3.39083 -1.2532 0
M  V30 19736 O 1882.39 -4.37311 -0.262763 0
M  V30 19737 C 1883.89 -3.94827 -2.0156 0
M  V30 19738 H 1881.11 -0.651606 -0.160159 0
M  V30 19739 H 1883.66 -2.03894 0.157281 0
M  V30 19740 H 1881.81 -3.34444 -1.95514 0
M  V30 19741 H 1882.23 -5.19294 -0.737169 0
M  V30 19742 H 1883.7 -4.95594 -2.43086 0
M  V30 19743 H 1884.18 -3.31921 -2.8762 0
M  V30 19744 H 1884.78 -4.02898 -1.36211 0
M  V30 19745 N 1883.1 0.191729 -1.56429 0
M  V30 19746 C 1884.33 0.927708 -1.84936 0
M  V30 19747 C 1884.74 1.76708 -0.664809 0
M  V30 19748 O 1884.1 1.78783 0.366436 0
M  V30 19749 C 1884.15 1.82113 -3.12277 0
M  V30 19750 O 1883.87 1.01564 -4.26165 0
M  V30 19751 C 1885.37 2.6685 -3.53986 0
M  V30 19752 H 1882.59 0.270514 -0.614055 0
M  V30 19753 H 1885.14 0.197968 -2.0354 0
M  V30 19754 H 1883.29 2.50445 -2.9556 0
M  V30 19755 H 1883.71 1.62478 -4.987 0
M  V30 19756 H 1885.18 3.25189 -4.46045 0
M  V30 19757 H 1885.66 3.40725 -2.77134 0
M  V30 19758 H 1886.26 2.03884 -3.73245 0
M  V30 19759 N 1884.58 1.50751 0.459565 0
M  V30 19760 C 1885.85 1.5284 1.22062 0
M  V30 19761 C 1886.23 0.279716 2.09239 0
M  V30 19762 O 1885.58 -0.73634 2.16311 0
M  V30 19763 C 1885.79 2.83046 2.04171 0
M  V30 19764 C 1887.14 3.34151 2.6197 0
M  V30 19765 O 1888.16 2.84446 2.14403 0
M  V30 19766 O 1887.02 4.20824 3.48668 0
M  V30 19767 H 1884.12 0.613549 0.554515 0
M  V30 19768 H 1886.66 1.63049 0.470445 0
M  V30 19769 H 1885.44 3.65397 1.40004 0
M  V30 19770 H 1885.06 2.75896 2.86299 0
M  V30 19771 N 1886.06 -0.713531 1.40522 0
M  V30 19772 C 1887.02 -1.80932 1.40699 0
M  V30 19773 C 1888.02 -1.57968 0.30045 0
M  V30 19774 O 1889.21 -1.64972 0.559456 0
M  V30 19775 C 1886.34 -3.19053 1.20075 0
M  V30 19776 H 1887.53 -1.82174 2.38228 0
M  V30 19777 H 1885.09 -0.919374 1.26401 0
M  V30 19778 H 1885.82 -3.23461 0.233137 0
M  V30 19779 H 1885.61 -3.37121 2.00229 0
M  V30 19780 H 1887.1 -3.99078 1.22991 0
M  V30 19781 N 1887.53 -1.26053 -0.945962 0
M  V30 19782 C 1888.44 -1.08959 -2.07762 0
M  V30 19783 C 1889.46 -0.0243726 -1.73983 0
M  V30 19784 O 1890.64 -0.227113 -2.00115 0
M  V30 19785 C 1887.7 -0.719365 -3.39155 0
M  V30 19786 C 1886.76 -1.86347 -3.86747 0
M  V30 19787 C 1885.99 -1.51082 -5.11869 0
M  V30 19788 O 1886.22 -0.410377 -5.68922 0
M  V30 19789 O 1885.15 -2.34395 -5.54385 0
M  V30 19790 H 1888.98 -2.03884 -2.25089 0
M  V30 19791 H 1886.56 -1.05071 -1.0621 0
M  V30 19792 H 1888.44 -0.525412 -4.18112 0
M  V30 19793 H 1887.12 0.20054 -3.23078 0
M  V30 19794 H 1886.03 -2.11235 -3.08756 0
M  V30 19795 H 1887.36 -2.76293 -4.07336 0
M  V30 19796 N 1889.01 1.14984 -1.07779 0
M  V30 19797 C 1890.42 1.67453 -0.825611 0
M  V30 19798 C 1890.77 1.85168 0.648631 0
M  V30 19799 O 1889.9 1.55817 1.50167 0
M  V30 19800 C 1890.49 3.04172 -1.49214 0
M  V30 19801 C 1889.05 3.53701 -1.28736 0
M  V30 19802 C 1888.2 2.29324 -1.55903 0
M  V30 19803 H 1891.15 0.99138 -1.23925 0
M  V30 19804 H 1891.17 3.69315 -0.915779 0
M  V30 19805 H 1890.68 2.91247 -2.56509 0
M  V30 19806 H 1888.78 3.71859 -0.234821 0
M  V30 19807 H 1888.9 4.34871 -2.01056 0
M  V30 19808 H 1887.26 2.35081 -0.980257 0
M  V30 19809 H 1888.04 2.18982 -2.6439 0
M  V30 19810 N 1890.49 0.862526 1.31902 0
M  V30 19811 C 1891.77 0.390745 1.91657 0
M  V30 19812 C 1892.15 -1.12648 1.78532 0
M  V30 19813 O 1891.49 -1.95169 1.18833 0
M  V30 19814 C 1891.7 0.863847 3.3814 0
M  V30 19815 C 1893.05 0.885621 4.15261 0
M  V30 19816 O 1894.08 0.809005 3.46891 0
M  V30 19817 O 1892.94 0.995169 5.37363 0
M  V30 19818 H 1890.03 0.115501 0.818895 0
M  V30 19819 H 1892.58 0.949947 1.4062 0
M  V30 19820 H 1891.35 1.90723 3.41673 0
M  V30 19821 H 1890.97 0.282536 3.96595 0
M  V30 19822 N 1891.97 -1.4484 0.62123 0
M  V30 19823 C 1893.19 -2.07012 0.126801 0
M  V30 19824 C 1893.62 -1.46046 -1.18542 0
M  V30 19825 O 1892.98 -0.558202 -1.72493 0
M  V30 19826 C 1893.02 -3.60597 0.0150611 0
M  V30 19827 O 1892.13 -3.9929 -1.03157 0
M  V30 19828 H 1891.47 -0.659131 0.0802646 0
M  V30 19829 H 1894 -1.85874 0.855105 0
M  V30 19830 H 1894.01 -4.07608 -0.178742 0
M  V30 19831 H 1892.68 -4.04354 0.973153 0
M  V30 19832 H 1891.26 -3.63927 -0.813135 0
M  V30 19833 N 1893.45 -0.361184 -1.53405 0
M  V30 19834 C 1894.67 0.233383 -2.06083 0
M  V30 19835 C 1895.1 1.42029 -1.23326 0
M  V30 19836 O 1894.45 1.79551 -0.251249 0
M  V30 19837 C 1894.5 0.609243 -3.55416 0
M  V30 19838 O 1893.61 1.70705 -3.75411 0
M  V30 19839 H 1892.95 0.035021 -0.663076 0
M  V30 19840 H 1895.48 -0.520514 -1.97868 0
M  V30 19841 H 1895.49 0.881483 -3.98364 0
M  V30 19842 H 1894.16 -0.25866 -4.15095 0
M  V30 19843 H 1892.74 1.4307 -3.44362 0
M  V30 19844 N 1894.92 1.57341 -0.0902386 0
M  V30 19845 C 1896.34 1.8145 0.439638 0
M  V30 19846 C 1896.69 1.00551 1.68475 0
M  V30 19847 O 1895.81 0.233442 2.15137 0
M  V30 19848 C 1896.41 3.29113 0.804384 0
M  V30 19849 C 1894.97 3.54003 1.27903 0
M  V30 19850 C 1894.11 2.7595 0.27328 0
M  V30 19851 H 1897.06 1.55527 -0.315738 0
M  V30 19852 H 1897.08 3.4217 1.66432 0
M  V30 19853 H 1896.6 3.87966 -0.102017 0
M  V30 19854 H 1894.7 3.00475 2.20331 0
M  V30 19855 H 1894.81 4.62662 1.24422 0
M  V30 19856 H 1893.17 2.43271 0.754419 0
M  V30 19857 H 1893.96 3.3755 -0.625715 0
M  V30 19858 N 1896.4 -0.183431 1.56529 0
M  V30 19859 C 1897.63 -0.917888 1.85425 0
M  V30 19860 C 1898.05 -1.76353 0.674171 0
M  V30 19861 O 1897.4 -1.78975 -0.35695 0
M  V30 19862 C 1897.45 -1.80454 3.13239 0
M  V30 19863 O 1897.17 -0.993028 4.26697 0
M  V30 19864 C 1898.68 -2.64969 3.55396 0
M  V30 19865 H 1895.9 -0.267254 0.61548 0
M  V30 19866 H 1898.44 -0.187171 2.03642 0
M  V30 19867 H 1896.59 -2.48874 2.96884 0
M  V30 19868 H 1897.01 -1.59831 4.99554 0
M  V30 19869 H 1898.48 -3.22819 4.47763 0
M  V30 19870 H 1898.96 -3.3925 2.78937 0
M  V30 19871 H 1899.57 -2.01902 3.74321 0
M  V30 19872 N 1897.88 -1.50992 -0.451564 0
M  V30 19873 C 1899.29 -1.55592 -1.03189 0
M  V30 19874 C 1899.64 -0.370923 -1.92662 0
M  V30 19875 O 1898.77 0.513972 -2.10208 0
M  V30 19876 C 1899.36 -2.81975 -1.87818 0
M  V30 19877 C 1897.92 -2.89192 -2.40925 0
M  V30 19878 C 1897.07 -2.50103 -1.19766 0
M  V30 19879 H 1900.02 -1.56974 -0.233388 0
M  V30 19880 H 1900.04 -2.64934 -2.73112 0
M  V30 19881 H 1899.55 -3.68203 -1.22672 0
M  V30 19882 H 1897.65 -2.07362 -3.09567 0
M  V30 19883 H 1897.77 -3.92529 -2.74696 0
M  V30 19884 H 1896.13 -2.02978 -1.53857 0
M  V30 19885 H 1896.91 -3.3866 -0.562517 0
M  V30 19886 N 1899.36 0.706069 -1.40899 0
M  V30 19887 C 1900.77 1.01535 -1.23137 0
M  V30 19888 C 1900.97 2.01181 -0.113293 0
M  V30 19889 O 1900.03 2.46966 0.525732 0
M  V30 19890 C 1901.34 1.54998 -2.57674 0
M  V30 19891 C 1902.89 1.66935 -2.64767 0
M  V30 19892 C 1903.37 2.23802 -3.99596 0
M  V30 19893 N 1904.86 2.31176 -4.01388 0
M  V30 19894 C 1905.59 2.76181 -5.02506 0
M  V30 19895 N 1905.09 3.20868 -6.14016 0
M  V30 19896 N 1906.88 2.7565 -4.89871 0
M  V30 19897 H 1899.03 0.045751 -2.12351 0
M  V30 19898 H 1901.3 0.0828835 -0.94437 0
M  V30 19899 H 1901 0.892393 -3.4019 0
M  V30 19900 H 1900.88 2.53377 -2.79428 0
M  V30 19901 H 1903.26 2.31808 -1.82617 0
M  V30 19902 H 1903.34 0.671301 -2.46834 0
M  V30 19903 H 1902.99 1.59547 -4.8219 0
M  V30 19904 H 1902.92 3.24339 -4.14864 0
M  V30 19905 H 1905.41 1.99627 -3.2087 0
M  V30 19906 H 1905.72 3.53803 -6.87054 0
M  V30 19907 H 1904.07 3.18803 -6.17568 0
M  V30 19908 H 1907.26 2.40081 -4.01844 0
M  V30 19909 H 1907.43 3.10407 -5.68816 0
M  V30 19910 N 1900.84 1.26553 0.939264 0
M  V30 19911 C 1902.11 1.02956 1.66312 0
M  V30 19912 C 1902.49 -0.439417 2.06476 0
M  V30 19913 O 1901.84 -1.42019 1.79005 0
M  V30 19914 C 1902.05 1.98013 2.87388 0
M  V30 19915 C 1903.4 2.26732 3.58996 0
M  V30 19916 O 1904.42 1.95894 2.97496 0
M  V30 19917 O 1903.28 2.79244 4.69771 0
M  V30 19918 H 1900.38 0.391621 0.728397 0
M  V30 19919 H 1902.92 1.37771 0.990824 0
M  V30 19920 H 1901.69 2.97133 2.54613 0
M  V30 19921 H 1901.32 1.63689 3.62342 0
M  V30 19922 N 1902.31 -1.14411 1.08387 0
M  V30 19923 C 1903.55 -1.87102 0.822937 0
M  V30 19924 C 1903.92 -1.81032 -0.63963 0
M  V30 19925 O 1905.12 -2.48857 -1.01606 0
M  V30 19926 C 1903.39 -3.31723 1.33021 0
M  V30 19927 S 1904.95 -4.22029 1.20154 0
M  V30 19928 H 1901.77 -0.645571 0.297924 0
M  V30 19929 H 1904.37 -1.37967 1.38511 0
M  V30 19930 H 1903.07 -3.33689 2.38913 0
M  V30 19931 H 1902.6 -3.85916 0.763695 0
M  V30 19932 H 1904.62 -4.95986 0.1457 0
M  V30 19933 N 1903.79 -0.869509 -1.31443 0
M  V30 19934 C 1905.02 -0.493849 -2.01435 0
M  V30 19935 C 1905.44 0.906049 -1.6484 0
M  V30 19936 O 1904.8 1.59777 -0.856794 0
M  V30 19937 C 1904.85 -0.657723 -3.54551 0
M  V30 19938 O 1903.95 0.303155 -4.11284 0
M  V30 19939 H 1903.29 -0.196494 -0.63426 0
M  V30 19940 H 1905.82 -1.1728 -1.6765 0
M  V30 19941 H 1905.83 -0.550841 -4.04264 0
M  V30 19942 H 1904.51 -1.67848 -3.80526 0
M  V30 19943 H 1903.09 0.151268 -3.72593 0
M  V30 19944 N 1905.27 1.44508 -0.628902 0
M  V30 19945 C 1906.68 1.85457 -0.215122 0
M  V30 19946 C 1907.03 1.52619 1.23296 0
M  V30 19947 O 1906.16 0.963178 1.93783 0
M  V30 19948 C 1906.75 3.36621 -0.383645 0
M  V30 19949 C 1905.31 3.76392 -0.0243904 0
M  V30 19950 C 1904.46 2.68369 -0.698081 0
M  V30 19951 H 1907.41 1.35006 -0.834208 0
M  V30 19952 H 1907.43 3.78617 0.378049 0
M  V30 19953 H 1906.94 3.6049 -1.43767 0
M  V30 19954 H 1905.04 3.58139 1.02798 0
M  V30 19955 H 1905.16 4.7714 -0.432898 0
M  V30 19956 H 1903.52 2.54349 -0.133605 0
M  V30 19957 H 1904.3 2.95071 -1.75465 0
M  V30 19958 N 1906.75 0.369315 1.53212 0
M  V30 19959 C 1907.68 -0.510161 2.2345 0
M  V30 19960 C 1908.69 -1.04313 1.24991 0
M  V30 19961 O 1909.88 -0.948869 1.51191 0
M  V30 19962 C 1906.98 -1.71753 2.92154 0
M  V30 19963 C 1906.16 -1.31542 4.17152 0
M  V30 19964 C 1905.22 -2.38526 4.69033 0
M  V30 19965 O 1904.24 -2.00761 5.32619 0
M  V30 19966 N 1905.44 -3.70165 4.47167 0
M  V30 19967 H 1908.21 0.0915031 2.9956 0
M  V30 19968 H 1905.77 0.194676 1.60725 0
M  V30 19969 H 1907.76 -2.42808 3.23769 0
M  V30 19970 H 1906.33 -2.22598 2.19474 0
M  V30 19971 H 1905.55 -0.434563 3.91797 0
M  V30 19972 H 1906.84 -1.02311 4.98407 0
M  V30 19973 H 1906.24 -4.0362 3.96368 0
M  V30 19974 H 1904.79 -4.37313 4.83323 0
M  V30 19975 N 1908.23 -1.57291 0.0985816 0
M  V30 19976 C 1909.18 -2.1545 -0.876584 0
M  V30 19977 C 1910.17 -1.09827 -1.28974 0
M  V30 19978 O 1911.38 -1.28166 -1.26386 0
M  V30 19979 H 1907.75 -0.689252 -0.300725 0
M  V30 19980 H 1909.72 -2.96204 -0.36139 0
M  V30 19981 C 1908.47 -2.75232 -2.12468 0
M  V30 19982 H 1907.79 -3.56194 -1.81565 0
M  V30 19983 H 1909.23 -3.19489 -2.78752 0
M  V30 19984 C 1907.69 -1.71298 -2.90101 0
M  V30 19985 O 1908.22 -1.15402 -3.84767 0
M  V30 19986 N 1906.43 -1.41709 -2.53706 0
M  V30 19987 H 1905.98 -1.87354 -1.76794 0
M  V30 19988 H 1905.93 -0.724072 -3.05949 0
M  V30 19989 N 1909.71 0.175127 -1.56624 0
M  V30 19990 C 1910.95 0.890605 -1.81418 0
M  V30 19991 C 1911.27 1.82946 -0.674958 0
M  V30 19992 O 1910.54 1.93504 0.305439 0
M  V30 19993 H 1909.12 0.331864 -0.669235 0
M  V30 19994 H 1911.79 0.175855 -1.94105 0
M  V30 19995 H 1910.88 1.46979 -2.75325 0
M  V30 19996 N 1911.18 1.5123 0.44355 0
M  V30 19997 C 1912.43 1.63267 1.19114 0
M  V30 19998 C 1912.75 0.348151 1.91867 0
M  V30 19999 O 1912.02 -0.635724 1.85298 0
M  V30 20000 H 1910.6 0.601701 0.442679 0
M  V30 20001 H 1913.26 1.88132 0.509134 0
M  V30 20002 H 1912.36 2.45732 1.92411 0
M  V30 20003 N 1912.66 -0.698586 1.41271 0
M  V30 20004 C 1914.07 -1.2784 1.36066 0
M  V30 20005 C 1914.42 -1.96154 0.0422934 0
M  V30 20006 O 1913.55 -1.98599 -0.859498 0
M  V30 20007 C 1914.14 -2.32481 2.46451 0
M  V30 20008 C 1912.7 -2.86046 2.44652 0
M  V30 20009 C 1911.85 -1.60045 2.26453 0
M  V30 20010 H 1914.8 -0.493547 1.5083 0
M  V30 20011 H 1914.82 -3.13705 2.15335 0
M  V30 20012 H 1914.33 -1.82732 3.4239 0
M  V30 20013 H 1912.43 -3.3998 1.52461 0
M  V30 20014 H 1912.55 -3.36682 3.40855 0
M  V30 20015 H 1910.91 -1.85742 1.74275 0
M  V30 20016 H 1911.69 -1.12295 3.24414 0
M  V30 20017 N 1914.14 -1.27049 -0.93254 0
M  V30 20018 C 1915.39 -1.12879 -1.67639 0
M  V30 20019 C 1915.71 0.326803 -1.92242 0
M  V30 20020 O 1914.98 1.22934 -1.52525 0
M  V30 20021 H 1913.56 -0.414741 -0.621288 0
M  V30 20022 H 1916.22 -1.59505 -1.12 0
M  V30 20023 H 1915.32 -1.65417 -2.64658 0
M  V30 20024 N 1915.62 1.13835 -1.08993 0
M  V30 20025 C 1916.57 2.17155 -0.694818 0
M  V30 20026 C 1917.55 1.58291 0.28858 0
M  V30 20027 O 1918.74 1.76719 0.0996503 0
M  V30 20028 C 1915.87 3.43117 -0.112138 0
M  V30 20029 C 1914.96 4.08998 -1.12168 0
M  V30 20030 N 1915.35 4.50111 -2.30724 0
M  V30 20031 C 1913.65 4.35572 -0.958807 0
M  V30 20032 C 1914.35 5.01403 -2.94907 0
M  V30 20033 N 1913.32 4.95984 -2.22487 0
M  V30 20034 H 1917.13 2.46691 -1.59752 0
M  V30 20035 H 1914.64 1.30583 -0.965503 0
M  V30 20036 H 1916.64 4.16472 0.188914 0
M  V30 20037 H 1915.3 3.15056 0.785468 0
M  V30 20038 H 1916.31 4.42959 -2.68343 0
M  V30 20039 H 1912.99 4.1734 -0.11551 0
M  V30 20040 H 1914.38 5.43044 -3.95667 0
M  V30 20041 O 1917.13 1.0098 1.26037 0
M  V30 20042 H 1917.83 0.666861 1.81859 0
M  V30 END ATOM
M  V30 BEGIN BOND
M  V30 END BOND
M  V30 END CTAB
M  END
$$$$
