drugbank_target|P14778 Interleukin-1 receptor type 1 (DB00026; DB05207; DB05303; DB10770)
 OpenBabel12092119343D

  0  0  0     0  0            999 V3000
M  V30 BEGIN CTAB
M  V30 COUNTS 9239 9348 0 0 0
M  V30 BEGIN ATOM
M  V30 1 H -0.908 1.98254 -0.117106 0
M  V30 2 N 0 1.576 0 0
M  V30 3 C 0.933 2.03868 1.02534 0
M  V30 4 C 1.911 0.928543 1.3348 0
M  V30 5 O 3.095 1.19667 1.45644 0
M  V30 6 C 0.222 2.43627 2.35294 0
M  V30 7 C -0.732 3.65373 2.2001 0
M  V30 8 S 0.101 5.13292 1.52614 0
M  V30 9 C 1.257 5.56322 2.86805 0
M  V30 10 H 1.49 2.90518 0.631377 0
M  V30 11 H -0.977 1.52953 0.210867 0
M  V30 12 H 0.981 2.67203 3.11629 0
M  V30 13 H -0.358 1.57376 2.7183 0
M  V30 14 H -1.165 3.90944 3.18086 0
M  V30 15 H -1.563 3.418 1.51819 0
M  V30 16 H 0.729 5.58782 3.83104 0
M  V30 17 H 1.672 6.56266 2.65933 0
M  V30 18 H 2.08 4.83886 2.90714 0
M  V30 19 N 1.4781 -0.272755 1.55222 0
M  V30 20 C 2.4251 -1.33716 1.88119 0
M  V30 21 C 3.3951 -1.49066 0.73271 0
M  V30 22 O 4.5801 -1.63469 0.984002 0
M  V30 23 C 1.7201 -2.69238 2.15882 0
M  V30 24 C 0.8331 -2.62108 3.43399 0
M  V30 25 C -0.0319 -3.89811 3.60861 0
M  V30 26 C -0.9929 -3.77193 4.8207 0
M  V30 27 N -1.8559 -4.9673 4.96189 0
M  V30 28 H 2.9841 -1.04962 2.78903 0
M  V30 29 H 0.5211 -0.507088 1.38083 0
M  V30 30 H 2.4791 -3.48089 2.29978 0
M  V30 31 H 1.1091 -2.96194 1.28331 0
M  V30 32 H 0.1611 -1.74967 3.37773 0
M  V30 33 H 1.4731 -2.48685 4.32386 0
M  V30 34 H 0.6271 -4.77103 3.74777 0
M  V30 35 H -0.6339 -4.06102 2.7006 0
M  V30 36 H -1.6289 -2.88284 4.68159 0
M  V30 37 H -0.4039 -3.62421 5.74307 0
M  V30 38 H -2.4579 -5.13431 4.08319 0
M  V30 39 H -2.5409 -4.85839 5.79221 0
M  V30 40 H -1.2729 -5.85594 5.1449 0
M  V30 41 N 2.9562 -1.48159 -0.537278 0
M  V30 42 C 4.2022 -1.56035 -1.29541 0
M  V30 43 C 4.5352 -0.230377 -1.92829 0
M  V30 44 O 3.8102 0.762952 -1.78911 0
M  V30 45 C 4.0932 -2.69323 -2.39034 0
M  V30 46 C 3.9462 -4.12002 -1.80485 0
M  V30 47 C 5.2652 -2.78408 -3.40847 0
M  V30 48 H 2.3842 -0.567992 -0.469632 0
M  V30 49 H 5.0262 -1.80302 -0.599277 0
M  V30 50 H 3.1762 -2.48763 -2.98412 0
M  V30 51 H 4.8482 -4.43981 -1.25215 0
M  V30 52 H 3.0912 -4.19344 -1.11055 0
M  V30 53 H 3.7622 -4.87077 -2.59731 0
M  V30 54 H 6.2382 -2.97012 -2.91416 0
M  V30 55 H 5.1142 -3.59416 -4.14863 0
M  V30 56 H 5.3752 -1.86269 -4.00944 0
M  V30 57 N 4.4343 0.785586 -1.36625 0
M  V30 58 C 5.3643 1.91259 -1.33949 0
M  V30 59 C 6.3453 1.68795 -0.210325 0
M  V30 60 O 7.5303 1.89854 -0.408561 0
M  V30 61 C 4.6603 3.28339 -1.13186 0
M  V30 62 C 3.6143 3.65335 -2.22967 0
M  V30 63 C 2.9403 5.00806 -1.87342 0
M  V30 64 C 4.2403 3.7352 -3.65075 0
M  V30 65 H 5.9343 1.93755 -2.28253 0
M  V30 66 H 3.4803 0.930788 -1.09874 0
M  V30 67 H 5.4333 4.06804 -1.09948 0
M  V30 68 H 4.1573 3.2624 -0.153332 0
M  V30 69 H 2.8163 2.89169 -2.25337 0
M  V30 70 H 2.4643 4.95233 -0.880545 0
M  V30 71 H 2.1643 5.26529 -2.60846 0
M  V30 72 H 3.6883 5.81687 -1.85667 0
M  V30 73 H 5.1023 4.42168 -3.64911 0
M  V30 74 H 3.4993 4.10731 -4.37516 0
M  V30 75 H 4.5693 2.74527 -3.99703 0
M  V30 76 N 5.9124 1.20967 1.01018 0
M  V30 77 C 6.8424 0.988272 2.11555 0
M  V30 78 C 7.8234 -0.0849778 1.69888 0
M  V30 79 O 9.0084 0.0738202 1.9406 0
M  V30 80 C 6.1384 0.546528 3.42973 0
M  V30 81 C 5.0924 1.56375 3.9841 0
M  V30 82 C 4.4184 0.97842 5.25672 0
M  V30 83 C 5.7184 2.94922 4.31066 0
M  V30 84 H 7.4124 1.91276 2.30334 0
M  V30 85 H 4.9584 0.921073 1.1069 0
M  V30 86 H 6.9114 0.378839 4.19694 0
M  V30 87 H 5.6354 -0.413598 3.23971 0
M  V30 88 H 4.2944 1.71891 3.23804 0
M  V30 89 H 3.9424 0.0101688 5.02999 0
M  V30 90 H 3.6424 1.65784 5.63728 0
M  V30 91 H 5.1664 0.821939 6.05043 0
M  V30 92 H 6.5804 2.8288 4.9865 0
M  V30 93 H 4.9774 3.5983 4.80253 0
M  V30 94 H 6.0474 3.4616 3.39561 0
M  V30 95 N 7.3905 -1.2043 1.01659 0
M  V30 96 C 8.8065 -1.41852 0.731442 0
M  V30 97 C 9.0065 -1.89358 -0.688898 0
M  V30 98 O 8.0625 -2.06247 -1.45666 0
M  V30 99 C 9.3755 -2.44019 1.75714 0
M  V30 100 C 10.9235 -2.57785 1.77527 0
M  V30 101 C 11.3985 -3.63194 2.79023 0
M  V30 102 N 12.8895 -3.70678 2.77763 0
M  V30 103 C 13.6245 -4.51897 3.52954 0
M  V30 104 N 13.1205 -5.36921 4.37821 0
M  V30 105 N 14.9135 -4.4643 3.41551 0
M  V30 106 H 7.0645 -0.879093 1.93354 0
M  V30 107 H 9.3275 -0.448425 0.835236 0
M  V30 108 H 9.0335 -2.1611 2.77469 0
M  V30 109 H 8.9075 -3.43007 1.56927 0
M  V30 110 H 11.2945 -2.85023 0.764569 0
M  V30 111 H 11.3755 -1.58992 2.00387 0
M  V30 112 H 11.0195 -3.36699 3.80258 0
M  V30 113 H 10.9495 -4.61609 2.53425 0
M  V30 114 H 13.4405 -3.09944 2.16201 0
M  V30 115 H 13.7535 -5.95981 4.91962 0
M  V30 116 H 12.0985 -5.36424 4.41899 0
M  V30 117 H 15.2895 -3.79042 2.74672 0
M  V30 118 H 15.4625 -5.09491 4.00404 0
M  V30 119 N 8.8686 -0.792821 -1.36206 0
M  V30 120 C 9.7986 -0.207853 -2.32573 0
M  V30 121 C 10.7796 0.659055 -1.56813 0
M  V30 122 O 11.9646 0.592176 -1.84951 0
M  V30 123 C 9.0946 0.655449 -3.41059 0
M  V30 124 C 8.0486 -0.111842 -4.27854 0
M  V30 125 C 7.3746 0.872274 -5.27537 0
M  V30 126 C 8.6746 -1.30299 -5.05786 0
M  V30 127 H 10.3686 -1.01294 -2.81744 0
M  V30 128 H 7.9146 -0.48854 -1.3546 0
M  V30 129 H 9.8676 1.07464 -4.07467 0
M  V30 130 H 8.5916 1.49328 -2.90463 0
M  V30 131 H 7.2506 -0.512053 -3.63006 0
M  V30 132 H 6.8986 1.70523 -4.73214 0
M  V30 133 H 6.5986 0.363291 -5.86476 0
M  V30 134 H 8.1226 1.28996 -5.96818 0
M  V30 135 H 9.5366 -0.959379 -5.65216 0
M  V30 136 H 7.9336 -1.7455 -5.74154 0
M  V30 137 H 9.0036 -2.09663 -4.37229 0
M  V30 138 N 10.3467 1.47872 -0.545128 0
M  V30 139 C 11.5957 2.01695 -0.0145033 0
M  V30 140 C 11.9087 1.42609 1.33873 0
M  V30 141 O 13.1147 1.88021 1.95858 0
M  V30 142 C 11.5707 3.59892 0.0245068 0
M  V30 143 C 11.1787 4.27966 -1.32475 0
M  V30 144 C 12.9227 4.21507 0.50316 0
M  V30 145 C 10.8297 5.78136 -1.2455 0
M  V30 146 H 9.7597 0.753998 -0.00165172 0
M  V30 147 H 12.4107 1.69985 -0.691175 0
M  V30 148 H 10.7927 3.88509 0.766575 0
M  V30 149 H 11.9667 4.11003 -2.08357 0
M  V30 150 H 10.2817 3.78286 -1.74036 0
M  V30 151 H 12.8787 5.31538 0.580656 0
M  V30 152 H 13.2217 3.87855 1.51243 0
M  V30 153 H 13.7547 3.97376 -0.183681 0
M  V30 154 H 10.4937 6.16388 -2.23039 0
M  V30 155 H 10.0137 5.97469 -0.528282 0
M  V30 156 H 11.6927 6.40099 -0.942488 0
M  V30 157 N 11.8248 0.280983 1.55075 0
M  V30 158 C 13.0648 -0.335234 2.01632 0
M  V30 159 C 13.4288 -1.5261 1.16508 0
M  V30 160 O 14.6298 -2.21235 1.52672 0
M  V30 161 C 12.9008 -0.702172 3.50434 0
M  V30 162 S 14.4598 -1.30409 4.18974 0
M  V30 163 H 11.2778 -0.103967 0.703358 0
M  V30 164 H 13.8798 0.404187 1.91276 0
M  V30 165 H 12.5838 0.17333 4.10034 0
M  V30 166 H 12.1148 -1.4729 3.64786 0
M  V30 167 H 14.1298 -2.59253 4.23087 0
M  V30 168 N 13.3029 -1.57598 0.00835791 0
M  V30 169 C 14.5499 -1.90928 -0.674732 0
M  V30 170 C 14.8779 -0.88277 -1.73313 0
M  V30 171 O 14.1329 0.111294 -1.95383 0
M  V30 172 C 14.4319 -3.3101 -1.34787 0
M  V30 173 C 14.0979 -4.48922 -0.421861 0
M  V30 174 C 12.7599 -4.8091 -0.166927 0
M  V30 175 C 15.1119 -5.20755 0.215211 0
M  V30 176 C 12.4399 -5.821 0.733232 0
M  V30 177 C 14.7919 -6.22905 1.1033 0
M  V30 178 C 13.4559 -6.53346 1.36733 0
M  V30 179 H 12.7259 -0.698656 -0.246902 0
M  V30 180 H 15.3729 -1.91387 0.0656779 0
M  V30 181 H 13.6779 -3.26714 -2.16253 0
M  V30 182 H 15.3749 -3.54061 -1.8826 0
M  V30 183 H 11.9649 -4.23934 -0.630729 0
M  V30 184 H 16.1489 -4.9629 0.0312829 0
M  V30 185 H 11.4049 -6.04042 0.945712 0
M  V30 186 H 15.5789 -6.77694 1.60325 0
M  V30 187 H 13.2059 -7.31573 2.06652 0
M  V30 188 N 14.781 0.264519 -1.55364 0
M  V30 189 C 16.03 0.992812 -1.75574 0
M  V30 190 C 16.343 1.87142 -0.568979 0
M  V30 191 O 17.549 2.63513 -0.653682 0
M  V30 192 C 16.005 1.81519 -3.10771 0
M  V30 193 C 15.613 0.984839 -4.37041 0
M  V30 194 C 17.357 2.53727 -3.40327 0
M  V30 195 C 15.264 1.80209 -5.63275 0
M  V30 196 H 14.194 0.374412 -0.65447 0
M  V30 197 H 16.845 0.248138 -1.81815 0
M  V30 198 H 15.227 2.60115 -2.98591 0
M  V30 199 H 16.401 0.242455 -4.60162 0
M  V30 200 H 14.716 0.37691 -4.14691 0
M  V30 201 H 17.313 3.15292 -4.3185 0
M  V30 202 H 17.656 3.24447 -2.60845 0
M  V30 203 H 18.189 1.82156 -3.53644 0
M  V30 204 H 14.928 1.13896 -6.45529 0
M  V30 205 H 14.448 2.52022 -5.44284 0
M  V30 206 H 16.127 2.37364 -6.01887 0
M  V30 207 N 16.2591 1.48442 0.529413 0
M  V30 208 C 17.2221 1.62524 1.61612 0
M  V30 209 C 18.2221 0.498509 1.52877 0
M  V30 210 O 19.4121 0.76431 1.56537 0
M  V30 211 C 16.5441 1.59597 3.01233 0
M  V30 212 H 17.7371 2.59423 1.50465 0
M  V30 213 H 15.2901 1.37047 0.751514 0
M  V30 214 H 16.0251 0.641781 3.17886 0
M  V30 215 H 15.8101 2.41397 3.08982 0
M  V30 216 H 17.3001 1.72646 3.80241 0
M  V30 217 N 17.7372 -0.778329 1.37039 0
M  V30 218 C 18.6672 -1.90546 1.34962 0
M  V30 219 C 19.6482 -1.68681 0.219274 0
M  V30 220 O 20.8332 -1.89634 0.418624 0
M  V30 221 C 17.9632 -3.27734 1.14925 0
M  V30 222 C 16.9172 -3.64147 2.24902 0
M  V30 223 C 16.2432 -4.99806 1.89996 0
M  V30 224 C 17.5432 -3.71579 3.67051 0
M  V30 225 H 19.2372 -1.92541 2.29277 0
M  V30 226 H 16.7832 -0.924948 1.10366 0
M  V30 227 H 18.7362 -4.06215 1.12104 0
M  V30 228 H 17.4602 -3.26154 0.170631 0
M  V30 229 H 16.1192 -2.8797 2.26868 0
M  V30 230 H 15.7672 -4.94759 0.906796 0
M  V30 231 H 15.4672 -5.25139 2.63634 0
M  V30 232 H 16.9912 -5.80694 1.88749 0
M  V30 233 H 18.4052 -4.40227 3.67251 0
M  V30 234 H 16.8022 -4.08405 4.39688 0
M  V30 235 H 17.8722 -2.72404 4.01154 0
M  V30 236 N 19.2153 -1.21501 -1.00376 0
M  V30 237 C 20.1453 -0.999478 -2.11028 0
M  V30 238 C 21.1263 0.0759671 -1.6993 0
M  V30 239 O 22.3113 -0.0841106 -1.94018 0
M  V30 240 C 19.4413 -0.564709 -3.42678 0
M  V30 241 C 18.3953 -1.58486 -3.97576 0
M  V30 242 C 17.7213 -1.00628 -5.25146 0
M  V30 243 C 19.0213 -2.97204 -4.29496 0
M  V30 244 H 20.7153 -1.92495 -2.29317 0
M  V30 245 H 18.2613 -0.92693 -1.102 0
M  V30 246 H 20.2143 -0.401091 -4.19487 0
M  V30 247 H 18.9383 0.396411 -3.24185 0
M  V30 248 H 17.5973 -1.73606 -3.22888 0
M  V30 249 H 17.2453 -0.0368439 -5.02987 0
M  V30 250 H 16.9453 -1.68771 -5.62841 0
M  V30 251 H 18.4693 -0.854015 -6.04598 0
M  V30 252 H 19.8833 -2.8552 -4.97143 0
M  V30 253 H 18.2803 -3.62372 -4.78338 0
M  V30 254 H 19.3503 -3.47956 -3.3772 0
M  V30 255 N 20.6934 1.19889 -1.02296 0
M  V30 256 C 21.9424 1.88743 -0.711257 0
M  V30 257 C 22.2554 1.80112 0.762817 0
M  V30 258 O 23.4614 2.44161 1.18733 0
M  V30 259 C 21.9174 3.38525 -1.22185 0
M  V30 260 C 21.5254 3.55727 -2.72328 0
M  V30 261 C 23.2694 4.12893 -0.985864 0
M  V30 262 C 21.1764 4.99369 -3.16835 0
M  V30 263 H 20.1064 0.706885 -0.262353 0
M  V30 264 H 22.7574 1.35586 -1.23648 0
M  V30 265 H 21.1394 3.91044 -0.624571 0
M  V30 266 H 22.3134 3.13564 -3.3766 0
M  V30 267 H 20.6284 2.94739 -2.9414 0
M  V30 268 H 23.2254 5.18813 -1.29374 0
M  V30 269 H 23.5684 4.16228 0.0775055 0
M  V30 270 H 24.1014 3.66494 -1.54684 0
M  V30 271 H 20.8404 5.01193 -4.22476 0
M  V30 272 H 20.3604 5.42317 -2.56228 0
M  V30 273 H 22.0394 5.67988 -3.09837 0
M  V30 274 N 22.1715 0.800033 1.35784 0
M  V30 275 C 23.3965 0.388511 2.03729 0
M  V30 276 C 23.8215 -0.990481 1.5991 0
M  V30 277 O 23.1795 -1.64013 0.772612 0
M  V30 278 C 23.2275 0.4726 3.5749 0
M  V30 279 O 22.3315 -0.51646 4.09153 0
M  V30 280 H 21.6725 0.163271 0.643614 0
M  V30 281 H 24.2025 1.0841 1.73518 0
M  V30 282 H 24.2125 0.34003 4.06581 0
M  V30 283 H 22.8875 1.47848 3.88734 0
M  V30 284 H 21.4645 -0.344673 3.71304 0
M  V30 285 N 23.6496 -1.47581 0.552962 0
M  V30 286 C 24.8746 -2.07378 0.0300593 0
M  V30 287 C 25.2996 -1.40355 -1.25229 0
M  V30 288 O 24.6576 -0.477099 -1.7491 0
M  V30 289 C 24.7056 -3.60274 -0.153231 0
M  V30 290 O 23.8096 -3.94041 -1.21678 0
M  V30 291 H 23.1506 -0.662158 0.0494182 0
M  V30 292 H 25.6806 -1.89662 0.767434 0
M  V30 293 H 25.6906 -4.0633 -0.368761 0
M  V30 294 H 24.3656 -4.08455 0.783397 0
M  V30 295 H 22.9426 -3.59735 -0.982079 0
M  V30 296 N 25.1277 -0.289203 -1.54924 0
M  V30 297 C 26.0577 0.58549 -2.2604 0
M  V30 298 C 27.0387 1.14753 -1.25562 0
M  V30 299 O 28.2237 1.17906 -1.54311 0
M  V30 300 C 25.3537 1.76305 -2.99222 0
M  V30 301 C 24.3077 1.33191 -4.06748 0
M  V30 302 C 23.6337 2.5937 -4.6758 0
M  V30 303 C 24.9337 0.471775 -5.20165 0
M  V30 304 H 26.6277 -0.00763532 -2.99399 0
M  V30 305 H 24.1737 -0.00511229 -1.43999 0
M  V30 306 H 26.1267 2.38097 -3.47689 0
M  V30 307 H 24.8507 2.38223 -2.23422 0
M  V30 308 H 23.5097 0.737121 -3.59113 0
M  V30 309 H 23.1577 3.19576 -3.88433 0
M  V30 310 H 22.8577 2.31228 -5.40192 0
M  V30 311 H 24.3817 3.21985 -5.18804 0
M  V30 312 H 25.7957 0.995056 -5.64599 0
M  V30 313 H 24.1927 0.284639 -5.99425 0
M  V30 314 H 25.2627 -0.506041 -4.82252 0
M  V30 315 N 26.6058 1.57591 -0.0167156 0
M  V30 316 C 27.5158 2.1291 0.98521 0
M  V30 317 C 28.5318 1.07834 1.36557 0
M  V30 318 O 29.7078 1.39826 1.44951 0
M  V30 319 C 26.7728 2.63512 2.25305 0
M  V30 320 C 25.8338 3.83256 1.93426 0
M  V30 321 C 25.0668 4.31435 3.14165 0
M  V30 322 O 25.2898 3.78851 4.26413 0
M  V30 323 O 24.2238 5.23416 2.97186 0
M  V30 324 H 28.0498 2.98772 0.544888 0
M  V30 325 H 25.6348 1.48012 0.203141 0
M  V30 326 H 27.5168 2.96183 2.99756 0
M  V30 327 H 26.1918 1.8074 2.68542 0
M  V30 328 H 25.0988 3.55531 1.16398 0
M  V30 329 H 26.4318 4.67153 1.55013 0
M  V30 330 N 28.0839 -0.256276 1.55502 0
M  V30 331 C 29.0469 -1.30047 1.88734 0
M  V30 332 C 30.0469 -1.4154 0.763086 0
M  V30 333 O 31.2369 -1.40403 1.03115 0
M  V30 334 C 28.3689 -2.67953 2.10747 0
M  V30 335 H 29.5619 -1.01802 2.82093 0
M  V30 336 H 27.1149 -0.495134 1.4825 0
M  V30 337 H 27.8499 -3.01351 1.19825 0
M  V30 338 H 27.6349 -2.60993 2.92617 0
M  V30 339 H 29.1249 -3.43368 2.37673 0
M  V30 340 N 29.562 -1.4872 -0.521534 0
M  V30 341 C 30.839 -1.4766 -1.2828 0
M  V30 342 C 31.219 -0.19292 -2.10217 0
M  V30 343 O 30.567 0.825193 -2.13079 0
M  V30 344 C 30.777 -2.74358 -2.15705 0
M  V30 345 C 32.125 -3.23028 -2.75569 0
M  V30 346 O 33.149 -2.75333 -2.25987 0
M  V30 347 O 32.008 -4.0604 -3.65778 0
M  V30 348 H 29.102 -0.590085 -0.579421 0
M  V30 349 H 31.648 -1.60963 -0.537492 0
M  V30 350 H 30.42 -3.59292 -1.54999 0
M  V30 351 H 30.043 -2.63816 -2.97467 0
M  V30 352 N 31.0401 0.771051 -1.3745 0
M  V30 353 C 31.9871 1.88435 -1.3327 0
M  V30 354 C 32.9571 1.64914 -0.198136 0
M  V30 355 O 34.1421 1.86821 -0.387606 0
M  V30 356 C 31.2821 3.25509 -1.14622 0
M  V30 357 C 30.3951 3.60979 -2.37314 0
M  V30 358 C 29.5301 4.87265 -2.11533 0
M  V30 359 C 28.5691 5.15469 -3.30088 0
M  V30 360 N 27.7061 6.32944 -3.03853 0
M  V30 361 H 32.5461 1.91344 -2.28455 0
M  V30 362 H 30.0831 0.935466 -1.13523 0
M  V30 363 H 32.0411 4.04582 -1.01831 0
M  V30 364 H 30.6711 3.21974 -0.230837 0
M  V30 365 H 29.7231 2.76885 -2.60842 0
M  V30 366 H 31.0351 3.77759 -3.25729 0
M  V30 367 H 30.1891 5.74244 -1.95777 0
M  V30 368 H 28.9281 4.7259 -1.20457 0
M  V30 369 H 27.9331 4.26966 -3.46382 0
M  V30 370 H 29.1581 5.32052 -4.22016 0
M  V30 371 H 27.1041 6.19625 -2.15407 0
M  V30 372 H 27.0211 6.50143 -3.85812 0
M  V30 373 H 28.2891 7.22857 -2.91716 0
M  V30 374 N 32.5182 1.22032 0.997298 0
M  V30 375 C 33.7582 1.05375 1.75144 0
M  V30 376 C 34.1222 -0.404696 1.87686 0
M  V30 377 O 35.3232 -0.691998 2.5974 0
M  V30 378 C 33.5942 1.74046 3.12158 0
M  V30 379 S 35.1532 1.72745 4.03366 0
M  V30 380 H 31.9712 0.377449 0.602539 0
M  V30 381 H 34.5732 1.54902 1.19272 0
M  V30 382 H 33.2772 2.79332 3.00669 0
M  V30 383 H 32.8082 1.24731 3.73103 0
M  V30 384 H 34.8232 0.774015 4.90126 0
M  V30 385 N 33.9963 -1.19345 1.0293 0
M  V30 386 C 34.9433 -2.2258 0.610464 0
M  V30 387 C 35.9133 -1.6179 -0.375946 0
M  V30 388 O 37.0983 -1.88844 -0.272511 0
M  V30 389 C 34.2383 -3.45085 -0.0321473 0
M  V30 390 C 33.3513 -4.20258 1.00035 0
M  V30 391 C 32.4863 -5.3019 0.32746 0
M  V30 392 C 31.5253 -5.97121 1.34584 0
M  V30 393 N 30.6623 -6.98615 0.698726 0
M  V30 394 H 35.5023 -2.57764 1.49538 0
M  V30 395 H 33.0393 -1.26644 0.748311 0
M  V30 396 H 34.9973 -4.15061 -0.421966 0
M  V30 397 H 33.6273 -3.10555 -0.88064 0
M  V30 398 H 32.6793 -3.49223 1.50823 0
M  V30 399 H 33.9913 -4.66175 1.77433 0
M  V30 400 H 33.1453 -6.06587 -0.11718 0
M  V30 401 H 31.8843 -4.85345 -0.478713 0
M  V30 402 H 30.8893 -5.19474 1.80074 0
M  V30 403 H 32.1143 -6.4405 2.15352 0
M  V30 404 H 30.0603 -6.55942 -0.0873471 0
M  V30 405 H 29.9773 -7.42724 1.41058 0
M  V30 406 H 31.2453 -7.79004 0.278102 0
M  V30 407 N 35.4744 -0.807222 -1.35358 0
M  V30 408 C 36.3844 -0.219594 -2.3357 0
M  V30 409 C 37.4004 0.637734 -1.61892 0
M  V30 410 O 38.5764 0.549336 -1.93763 0
M  V30 411 C 35.6414 0.62158 -3.41083 0
M  V30 412 C 34.7024 -0.256315 -4.28534 0
M  V30 413 C 33.9354 0.544807 -5.30912 0
M  V30 414 O 34.1584 1.77944 -5.41934 0
M  V30 415 O 33.0924 -0.0646478 -6.01865 0
M  V30 416 H 36.9184 -1.03208 -2.85625 0
M  V30 417 H 34.5034 -0.569025 -1.38139 0
M  V30 418 H 36.3854 1.10067 -4.06772 0
M  V30 419 H 35.0604 1.41165 -2.91297 0
M  V30 420 H 33.9674 -0.782559 -3.65823 0
M  V30 421 H 35.3004 -1.01034 -4.81719 0
M  V30 422 N 36.9525 1.47285 -0.560781 0
M  V30 423 C 38.3685 1.58065 -0.22081 0
M  V30 424 C 38.5685 1.55892 1.27671 0
M  V30 425 O 37.6245 1.46422 2.0571 0
M  V30 426 C 38.9375 2.88418 -0.850625 0
M  V30 427 C 40.4855 3.02009 -0.822184 0
M  V30 428 C 40.9605 4.35066 -1.43113 0
M  V30 429 N 42.4515 4.41711 -1.39448 0
M  V30 430 C 43.1865 5.43237 -1.83525 0
M  V30 431 N 42.6825 6.51555 -2.35474 0
M  V30 432 N 44.4755 5.34304 -1.74574 0
M  V30 433 H 36.6265 1.46941 -1.53369 0
M  V30 434 H 38.8895 0.699558 -0.639783 0
M  V30 435 H 38.5955 2.95755 -1.9032 0
M  V30 436 H 38.4695 3.75612 -0.345773 0
M  V30 437 H 40.8565 2.94266 0.221714 0
M  V30 438 H 40.9375 2.16347 -1.36483 0
M  V30 439 H 40.5815 4.43565 -2.47412 0
M  V30 440 H 40.5115 5.19465 -0.863899 0
M  V30 441 H 43.0025 3.64027 -1.01452 0
M  V30 442 H 43.3155 7.25203 -2.67021 0
M  V30 443 H 41.6605 6.52435 -2.39487 0
M  V30 444 H 44.8515 4.48581 -1.33763 0
M  V30 445 H 45.0245 6.13288 -2.09242 0
M  V30 446 N 38.4306 0.297415 1.54768 0
M  V30 447 C 39.3406 -0.58983 2.27064 0
M  V30 448 C 40.3566 -1.15144 1.30453 0
M  V30 449 O 41.5326 -1.17699 1.63428 0
M  V30 450 C 38.5976 -1.74714 2.9946 0
M  V30 451 C 37.6586 -1.21997 4.11601 0
M  V30 452 C 36.8916 -2.32212 4.80535 0
M  V30 453 O 37.1146 -3.52036 4.48806 0
M  V30 454 O 36.0486 -1.99106 5.68014 0
M  V30 455 H 39.8746 -0.00348199 3.037 0
M  V30 456 H 37.4596 0.0640035 1.49263 0
M  V30 457 H 39.3416 -2.42147 3.44881 0
M  V30 458 H 38.0166 -2.32016 2.25722 0
M  V30 459 H 36.9236 -0.511458 3.70587 0
M  V30 460 H 38.2566 -0.692419 4.87305 0
M  V30 461 N 39.9087 -1.5758 0.0250728 0
M  V30 462 C 40.8187 -2.1343 -0.973905 0
M  V30 463 C 41.8347 -1.08556 -1.35984 0
M  V30 464 O 43.0107 -1.40592 -1.44207 0
M  V30 465 C 40.0757 -2.64703 -2.23904 0
M  V30 466 C 39.1367 -3.84276 -1.91391 0
M  V30 467 C 38.3697 -4.33095 -3.11873 0
M  V30 468 O 38.5927 -3.81107 -4.24398 0
M  V30 469 O 37.5267 -5.24984 -2.94406 0
M  V30 470 H 41.3527 -2.99057 -0.529036 0
M  V30 471 H 38.9377 -1.48118 -0.195288 0
M  V30 472 H 40.8197 -2.97769 -2.98181 0
M  V30 473 H 39.4947 -1.82161 -2.6758 0
M  V30 474 H 38.4017 -3.56143 -1.14511 0
M  V30 475 H 39.7347 -4.67968 -1.52534 0
M  V30 476 N 41.3868 0.248026 -1.55636 0
M  V30 477 C 42.3338 1.30707 -1.90222 0
M  V30 478 C 43.3038 1.47881 -0.756332 0
M  V30 479 O 44.4888 1.61883 -1.00988 0
M  V30 480 C 41.6288 2.65769 -2.20138 0
M  V30 481 C 40.7418 2.56612 -3.47526 0
M  V30 482 C 39.8768 3.8402 -3.67017 0
M  V30 483 C 38.9158 3.69476 -4.8801 0
M  V30 484 N 38.0528 4.88774 -5.04029 0
M  V30 485 H 42.8928 1.00512 -2.80538 0
M  V30 486 H 40.4298 0.485055 -1.38873 0
M  V30 487 H 42.3878 3.44386 -2.35487 0
M  V30 488 H 41.0178 2.94115 -1.33027 0
M  V30 489 H 40.0698 1.69571 -3.40514 0
M  V30 490 H 41.3818 2.41774 -4.36287 0
M  V30 491 H 40.5358 4.7108 -3.8232 0
M  V30 492 H 39.2748 4.01754 -2.76487 0
M  V30 493 H 38.2798 2.80799 -4.72686 0
M  V30 494 H 39.5048 3.53238 -5.8 0
M  V30 495 H 37.4508 5.0687 -4.16435 0
M  V30 496 H 37.3678 4.76562 -5.86877 0
M  V30 497 H 38.6358 5.77335 -5.23741 0
M  V30 498 N 42.8649 1.48995 0.513639 0
M  V30 499 C 44.1139 1.57093 1.2651 0
M  V30 500 C 44.4269 0.257091 1.93903 0
M  V30 501 O 45.6329 0.216478 2.70636 0
M  V30 502 C 44.0889 2.77118 2.29638 0
M  V30 503 C 43.6969 4.15209 1.68241 0
M  V30 504 C 45.4409 2.94538 3.05692 0
M  V30 505 C 43.3479 5.26474 2.69406 0
M  V30 506 H 42.2779 0.584876 0.475854 0
M  V30 507 H 44.9289 1.7536 0.540487 0
M  V30 508 H 43.3109 2.52319 3.05207 0
M  V30 509 H 44.4849 4.50094 0.987505 0
M  V30 510 H 42.7999 4.03042 1.04623 0
M  V30 511 H 45.3969 3.74832 3.8132 0
M  V30 512 H 45.7399 2.04614 3.62545 0
M  V30 513 H 46.2729 3.19316 2.37238 0
M  V30 514 H 43.0119 6.18417 2.17351 0
M  V30 515 H 42.5319 4.96058 3.37175 0
M  V30 516 H 44.2109 5.55277 3.32078 0
M  V30 517 N 44.343 -0.763751 1.37857 0
M  V30 518 C 45.592 -1.51789 1.32827 0
M  V30 519 C 45.905 -1.95426 -0.0823719 0
M  V30 520 O 47.111 -2.70298 -0.255172 0
M  V30 521 C 45.567 -2.74133 2.33193 0
M  V30 522 C 45.175 -2.37562 3.79827 0
M  V30 523 C 46.919 -3.52054 2.37188 0
M  V30 524 C 44.826 -3.56456 4.71904 0
M  V30 525 H 43.756 -0.569896 0.493695 0
M  V30 526 H 46.407 -0.835822 1.63359 0
M  V30 527 H 44.789 -3.4427 1.9569 0
M  V30 528 H 45.963 -1.75157 4.26212 0
M  V30 529 H 44.278 -1.72798 3.78853 0
M  V30 530 H 46.875 -4.40437 3.03182 0
M  V30 531 H 47.218 -3.92486 1.38782 0
M  V30 532 H 47.751 -2.88921 2.7344 0
M  V30 533 H 44.49 -3.21099 5.71468 0
M  V30 534 H 44.01 -4.17938 4.30218 0
M  V30 535 H 45.689 -4.23168 4.89426 0
M  V30 536 N 45.8211 -1.22559 -0.990812 0
M  V30 537 C 46.7511 -1.0218 -2.09956 0
M  V30 538 C 47.7321 0.0579394 -1.70001 0
M  V30 539 O 48.9171 -0.104684 -1.93918 0
M  V30 540 C 46.0471 -0.601023 -3.4206 0
M  V30 541 C 45.0011 -1.62694 -3.95872 0
M  V30 542 C 44.3271 -1.06193 -5.24049 0
M  V30 543 C 45.6271 -3.01743 -4.2632 0
M  V30 544 H 47.3211 -1.94916 -2.27262 0
M  V30 545 H 44.8671 -0.938566 -1.09211 0
M  V30 546 H 46.8201 -0.445561 -4.19038 0
M  V30 547 H 45.5441 0.362005 -3.24588 0
M  V30 548 H 44.2031 -1.77021 -3.21028 0
M  V30 549 H 43.8511 -0.0901903 -5.02919 0
M  V30 550 H 43.5511 -1.74732 -5.61019 0
M  V30 551 H 45.0751 -0.918092 -6.03658 0
M  V30 552 H 46.4891 -2.90777 -4.94087 0
M  V30 553 H 44.8861 -3.67425 -4.74467 0
M  V30 554 H 45.9561 -3.51518 -3.34011 0
M  V30 555 N 47.2992 1.18797 -1.03562 0
M  V30 556 C 48.5452 1.8893 -0.737113 0
M  V30 557 C 48.8782 1.79837 0.732956 0
M  V30 558 O 48.1532 1.19525 1.5344 0
M  V30 559 C 48.4362 3.39607 -1.19745 0
M  V30 560 C 48.2892 3.57537 -2.72924 0
M  V30 561 C 49.6082 4.33069 -0.783526 0
M  V30 562 H 46.7272 0.686057 -0.269249 0
M  V30 563 H 49.3692 1.39797 -1.28673 0
M  V30 564 H 47.5192 3.81583 -0.729855 0
M  V30 565 H 49.1912 3.24688 -3.27682 0
M  V30 566 H 47.4342 3.00363 -3.12993 0
M  V30 567 H 48.1052 4.63238 -3.00191 0
M  V30 568 H 50.5812 3.98846 -1.18581 0
M  V30 569 H 49.4572 5.3707 -1.13343 0
M  V30 570 H 49.7182 4.40986 0.313681 0
M  V30 571 N 48.7773 0.814389 1.34928 0
M  V30 572 C 50.0023 0.410097 2.03305 0
M  V30 573 C 50.4273 -0.973464 1.60951 0
M  V30 574 O 49.7853 -1.63185 0.789964 0
M  V30 575 C 49.8333 0.51049 3.56968 0
M  V30 576 O 48.9373 -0.473035 4.09678 0
M  V30 577 H 48.2783 0.170088 0.641846 0
M  V30 578 H 50.8083 1.10244 1.72358 0
M  V30 579 H 50.8183 0.383135 4.06197 0
M  V30 580 H 49.4933 1.51963 3.87144 0
M  V30 581 H 48.0703 -0.305272 3.71648 0
M  V30 582 N 50.2554 -1.46986 0.568584 0
M  V30 583 C 51.4804 -2.07335 0.0520528 0
M  V30 584 C 51.9054 -1.41675 -1.23733 0
M  V30 585 O 51.2634 -0.495623 -1.74394 0
M  V30 586 C 51.3114 -3.60417 -0.11501 0
M  V30 587 O 50.4154 -3.95309 -1.17492 0
M  V30 588 H 49.7564 -0.661597 0.0564385 0
M  V30 589 H 52.2864 -1.88837 0.787507 0
M  V30 590 H 52.2964 -4.06698 -0.325644 0
M  V30 591 H 50.9714 -4.07601 0.826675 0
M  V30 592 H 49.5484 -3.60757 -0.943869 0
M  V30 593 N 51.7335 -0.305618 -1.54608 0
M  V30 594 C 52.6965 0.555591 -2.22364 0
M  V30 595 C 53.6965 1.05768 -1.21119 0
M  V30 596 O 54.8865 0.952972 -1.45822 0
M  V30 597 C 52.0185 1.76974 -2.91364 0
M  V30 598 H 53.2115 -0.0364572 -2.99878 0
M  V30 599 H 50.7645 -0.0565007 -1.56198 0
M  V30 600 H 51.4995 2.40151 -2.17941 0
M  V30 601 H 51.2845 1.41732 -3.65588 0
M  V30 602 H 52.7745 2.38148 -3.43038 0
M  V30 603 N 53.2116 1.57565 -0.0334293 0
M  V30 604 C 54.1596 2.1164 0.96496 0
M  V30 605 C 55.1536 1.04398 1.33407 0
M  V30 606 O 56.3596 1.22828 1.3158 0
M  V30 607 H 52.7346 0.676222 0.32898 0
M  V30 608 H 54.7056 2.94455 0.483614 0
M  V30 609 C 53.4546 2.66207 2.23672 0
M  V30 610 H 52.7776 3.48378 1.96145 0
M  V30 611 H 54.2176 3.07685 2.9173 0
M  V30 612 C 52.6766 1.59151 2.96939 0
M  V30 613 O 53.2066 0.993858 3.89211 0
M  V30 614 N 51.4126 1.31093 2.59351 0
M  V30 615 H 50.9596 1.7988 1.84393 0
M  V30 616 H 50.9176 0.596889 3.08682 0
M  V30 617 N 54.6897 -0.239769 1.55765 0
M  V30 618 C 55.5997 -1.31831 1.94056 0
M  V30 619 C 56.6157 -1.52275 0.841925 0
M  V30 620 O 57.7917 -1.65759 1.14394 0
M  V30 621 C 54.8567 -2.65156 2.23368 0
M  V30 622 C 53.9177 -2.53173 3.46701 0
M  V30 623 C 53.1507 -3.8014 3.74606 0
M  V30 624 O 53.3737 -4.82343 3.04469 0
M  V30 625 O 52.3077 -3.78344 4.68123 0
M  V30 626 H 56.1337 -1.02347 2.85935 0
M  V30 627 H 53.7187 -0.441123 1.42739 0
M  V30 628 H 55.6007 -3.43929 2.43497 0
M  V30 629 H 54.2757 -2.94358 1.34666 0
M  V30 630 H 53.1827 -1.72662 3.31871 0
M  V30 631 H 54.5157 -2.28915 4.35728 0
M  V30 632 N 56.1678 -1.49265 -0.50573 0
M  V30 633 C 57.4168 -1.57761 -1.25675 0
M  V30 634 C 57.7298 -0.267371 -1.93764 0
M  V30 635 O 58.9358 -0.230827 -2.70517 0
M  V30 636 C 57.3918 -2.78332 -2.28165 0
M  V30 637 C 56.9998 -4.16096 -1.66037 0
M  V30 638 C 58.7438 -2.96155 -3.04125 0
M  V30 639 C 56.6508 -5.27895 -2.6661 0
M  V30 640 H 55.5808 -0.587391 -0.472745 0
M  V30 641 H 58.2318 -1.75644 -0.53118 0
M  V30 642 H 56.6138 -2.53934 -3.03865 0
M  V30 643 H 57.7878 -4.50612 -0.963622 0
M  V30 644 H 56.1028 -4.03591 -1.02484 0
M  V30 645 H 58.6998 -3.76849 -3.79327 0
M  V30 646 H 59.0428 -2.06534 -3.61455 0
M  V30 647 H 59.5758 -3.2057 -2.35541 0
M  V30 648 H 56.3148 -6.1956 -2.14068 0
M  V30 649 H 55.8348 -4.97839 -3.34539 0
M  V30 650 H 57.5138 -5.57031 -3.29129 0
M  V30 651 N 57.6459 0.756429 -1.3826 0
M  V30 652 C 58.9229 1.50584 -1.24835 0
M  V30 653 C 59.3029 2.10556 0.151485 0
M  V30 654 O 58.6509 1.96825 1.1607 0
M  V30 655 C 58.8609 2.57448 -2.3563 0
M  V30 656 C 60.2089 3.24429 -2.73917 0
M  V30 657 O 61.2329 2.67751 -2.34921 0
M  V30 658 O 60.0919 4.26937 -3.41156 0
M  V30 659 H 57.1859 0.667664 -0.48801 0
M  V30 660 H 59.7319 0.792083 -1.5008 0
M  V30 661 H 58.5039 2.11362 -3.29305 0
M  V30 662 H 58.1269 3.36408 -2.11933 0
M  V30 663 N 59.124 1.23083 0.984299 0
M  V30 664 C 60.37 1.06214 1.72761 0
M  V30 665 C 60.703 -0.400584 1.90024 0
M  V30 666 O 59.978 -1.29672 1.44967 0
M  V30 667 C 60.261 1.78375 3.12817 0
M  V30 668 C 60.114 3.32296 3.03149 0
M  V30 669 C 61.433 1.54309 4.12161 0
M  V30 670 H 58.552 0.387251 0.627061 0
M  V30 671 H 61.194 1.51536 1.14616 0
M  V30 672 H 59.344 1.39848 3.62457 0
M  V30 673 H 61.016 3.8032 2.61064 0
M  V30 674 H 59.259 3.6153 2.39747 0
M  V30 675 H 59.93 3.77972 4.02295 0
M  V30 676 H 62.406 1.87791 3.71314 0
M  V30 677 H 61.282 2.07281 5.08258 0
M  V30 678 H 61.543 0.477572 4.39513 0
M  V30 679 N 60.6021 -1.18246 1.0419 0
M  V30 680 C 62.0181 -1.40269 0.761366 0
M  V30 681 C 62.2181 -1.90777 -0.648578 0
M  V30 682 O 61.2741 -2.0929 -1.41258 0
M  V30 683 C 62.5871 -2.40237 1.8085 0
M  V30 684 C 64.1351 -2.53961 1.82955 0
M  V30 685 C 64.6101 -3.57194 2.86664 0
M  V30 686 N 66.1011 -3.64702 2.85563 0
M  V30 687 C 66.8361 -4.44309 3.6246 0
M  V30 688 N 66.3321 -5.27514 4.49111 0
M  V30 689 N 68.1251 -4.39084 3.50944 0
M  V30 690 H 60.2761 -0.837882 1.95175 0
M  V30 691 H 62.5391 -0.430608 0.84456 0
M  V30 692 H 62.2451 -2.10176 2.81991 0
M  V30 693 H 62.1191 -3.39601 1.64168 0
M  V30 694 H 64.5061 -2.83338 0.824855 0
M  V30 695 H 64.5871 -1.54706 2.03715 0
M  V30 696 H 64.2311 -3.28558 3.87314 0
M  V30 697 H 64.1611 -4.5613 2.6316 0
M  V30 698 H 66.6521 -3.05289 2.22727 0
M  V30 699 H 66.9651 -5.85411 5.04493 0
M  V30 700 H 65.3101 -5.2693 4.53178 0
M  V30 701 H 68.5011 -3.7313 2.82651 0
M  V30 702 H 68.6741 -5.00883 4.11121 0
M  V30 703 N 62.0802 -0.821533 -1.34494 0
M  V30 704 C 63.4912 -0.467956 -1.8074 0
M  V30 705 C 63.8422 1.01151 -1.68116 0
M  V30 706 O 62.9672 1.78707 -1.22036 0
M  V30 707 C 63.5622 -0.842627 -3.28154 0
M  V30 708 C 62.1212 -0.541439 -3.72485 0
M  V30 709 C 61.2682 -1.06028 -2.56229 0
M  V30 710 H 64.2192 -1.01183 -1.22261 0
M  V30 711 H 64.2402 -0.145876 -3.8022 0
M  V30 712 H 63.7522 -1.91945 -3.37311 0
M  V30 713 H 61.8532 0.526034 -3.68868 0
M  V30 714 H 61.9662 -1.08453 -4.66663 0
M  V30 715 H 60.3302 -0.481892 -2.501 0
M  V30 716 H 61.1132 -2.14352 -2.68157 0
M  V30 717 N 63.5583 1.46682 -0.576371 0
M  V30 718 C 64.7983 2.04306 -0.0621356 0
M  V30 719 C 65.1623 1.4389 1.2712 0
M  V30 720 O 66.3633 1.92675 1.87429 0
M  V30 721 C 64.6343 3.57399 0.00927922 0
M  V30 722 S 66.1933 4.36309 0.466859 0
M  V30 723 H 63.0113 0.710167 -0.0344016 0
M  V30 724 H 65.6133 1.79807 -0.767437 0
M  V30 725 H 64.3173 3.98889 -0.965178 0
M  V30 726 H 63.8483 3.86424 0.737547 0
M  V30 727 H 65.8633 4.6533 1.72287 0
M  V30 728 N 65.0364 0.313813 1.54444 0
M  V30 729 C 66.4474 -0.176243 1.85866 0
M  V30 730 C 66.7984 -1.52405 1.23561 0
M  V30 731 O 65.9234 -2.09605 0.538016 0
M  V30 732 C 66.5184 -0.32657 3.37222 0
M  V30 733 C 65.0774 -0.760846 3.6863 0
M  V30 734 C 64.2244 0.123247 2.77026 0
M  V30 735 H 67.1754 0.534418 1.49431 0
M  V30 736 H 67.1964 -1.15908 3.62416 0
M  V30 737 H 66.7084 0.654531 3.82541 0
M  V30 738 H 64.8094 -1.75204 3.28838 0
M  V30 739 H 64.9224 -0.571353 4.75681 0
M  V30 740 H 63.2864 -0.399597 2.51546 0
M  V30 741 H 64.0694 1.10094 3.25168 0
M  V30 742 N 66.5145 -1.57545 0.0417849 0
M  V30 743 C 67.4445 -2.14009 -0.933929 0
M  V30 744 C 68.4255 -1.05938 -1.33083 0
M  V30 745 O 69.6105 -1.33833 -1.40721 0
M  V30 746 C 66.7405 -2.67747 -2.21199 0
M  V30 747 C 65.6945 -3.80718 -1.95544 0
M  V30 748 C 65.0205 -4.20935 -3.29724 0
M  V30 749 C 66.3205 -5.06258 -1.28452 0
M  V30 750 H 68.0145 -2.95788 -0.463645 0
M  V30 751 H 65.5605 -1.42285 -0.221573 0
M  V30 752 H 67.5135 -3.05886 -2.89848 0
M  V30 753 H 66.2375 -1.83147 -2.70416 0
M  V30 754 H 64.8965 -3.43037 -1.2931 0
M  V30 755 H 64.5445 -3.33298 -3.76724 0
M  V30 756 H 64.2445 -4.9707 -3.13361 0
M  V30 757 H 65.7685 -4.61666 -3.9962 0
M  V30 758 H 67.1825 -5.41903 -1.8712 0
M  V30 759 H 65.5795 -5.87475 -1.22445 0
M  V30 760 H 66.6495 -4.84207 -0.259219 0
M  V30 761 N 67.9926 0.231505 -1.5589 0
M  V30 762 C 68.9406 1.30649 -1.92441 0
M  V30 763 C 69.9346 1.49037 -0.805254 0
M  V30 764 O 71.1406 1.50329 -0.990007 0
M  V30 765 H 67.5156 0.437812 -0.611412 0
M  V30 766 H 69.4866 0.970973 -2.82161 0
M  V30 767 C 68.2356 2.65179 -2.24889 0
M  V30 768 H 67.5586 2.51835 -3.10514 0
M  V30 769 H 68.9986 3.39234 -2.54355 0
M  V30 770 C 67.4576 3.19439 -1.07054 0
M  V30 771 O 67.9876 4.00371 -0.326499 0
M  V30 772 N 66.1936 2.77675 -0.85703 0
M  V30 773 H 65.7406 2.11969 -1.46379 0
M  V30 774 H 65.6986 3.14321 -0.0703223 0
M  V30 775 N 69.4707 1.49531 0.497807 0
M  V30 776 C 70.8817 1.52344 1.07927 0
M  V30 777 C 71.2327 0.311469 1.93712 0
M  V30 778 O 70.3577 -0.578405 2.08527 0
M  V30 779 C 70.9527 2.76062 1.96405 0
M  V30 780 C 69.5117 2.81643 2.49709 0
M  V30 781 C 68.6587 2.46299 1.27404 0
M  V30 782 H 71.6097 1.56182 0.281576 0
M  V30 783 H 71.6307 2.56405 2.81135 0
M  V30 784 H 71.1427 3.64254 1.33943 0
M  V30 785 H 69.2437 1.97739 3.15801 0
M  V30 786 H 69.3567 3.83891 2.86643 0
M  V30 787 H 67.7207 1.98148 1.60029 0
M  V30 788 H 68.5037 3.36769 0.66645 0
M  V30 789 N 70.9488 -0.749086 1.3866 0
M  V30 790 C 71.8968 -1.88428 1.36373 0
M  V30 791 C 72.8908 -1.67561 0.248929 0
M  V30 792 O 74.0968 -1.75074 0.41821 0
M  V30 793 H 70.4718 -0.620023 0.42553 0
M  V30 794 H 72.4428 -1.87473 2.32156 0
M  V30 795 C 71.1918 -3.25961 1.21014 0
M  V30 796 H 70.5148 -3.42607 2.06059 0
M  V30 797 H 71.9548 -4.05625 1.23469 0
M  V30 798 C 70.4138 -3.36799 -0.0825941 0
M  V30 799 O 70.9438 -3.87517 -1.05797 0
M  V30 800 N 69.1498 -2.90258 -0.140939 0
M  V30 801 H 68.6968 -2.49174 0.653477 0
M  V30 802 H 68.6548 -2.97889 -1.00545 0
M  V30 803 N 72.4269 -1.23603 -0.977757 0
M  V30 804 C 73.3369 -1.03632 -2.1047 0
M  V30 805 C 74.3529 0.0199435 -1.73989 0
M  V30 806 O 75.5289 -0.176076 -2.00629 0
M  V30 807 C 72.5939 -0.63276 -3.40877 0
M  V30 808 C 71.6549 -1.76437 -3.91367 0
M  V30 809 C 70.8879 -1.37997 -5.15551 0
M  V30 810 O 71.1109 -0.265357 -5.69782 0
M  V30 811 O 70.0449 -2.20201 -5.60174 0
M  V30 812 H 73.8709 -1.98086 -2.30208 0
M  V30 813 H 71.4559 -1.02332 -1.08851 0
M  V30 814 H 73.3379 -0.418761 -4.19314 0
M  V30 815 H 72.0129 0.282754 -3.22463 0
M  V30 816 H 70.9199 -2.03304 -3.14036 0
M  V30 817 H 72.2529 -2.6583 -4.14241 0
M  V30 818 N 73.905 1.17692 -1.04816 0
M  V30 819 C 74.855 2.1952 -0.616042 0
M  V30 820 C 75.839 1.57147 0.345485 0
M  V30 821 O 77.031 1.76245 0.163325 0
M  V30 822 C 74.16 3.43298 0.0116917 0
M  V30 823 C 73.246 4.12777 -0.973435 0
M  V30 824 N 73.637 4.5814 -2.14339 0
M  V30 825 C 71.935 4.38747 -0.80108 0
M  V30 826 C 72.636 5.11713 -2.7663 0
M  V30 827 N 71.612 5.03686 -2.04453 0
M  V30 828 H 75.414 2.52293 -1.5075 0
M  V30 829 H 72.928 1.3398 -0.917776 0
M  V30 830 H 74.925 4.15519 0.339006 0
M  V30 831 H 73.585 3.12018 0.898593 0
M  V30 832 H 74.596 4.52349 -2.52191 0
M  V30 833 H 71.273 4.17485 0.0350934 0
M  V30 834 H 72.663 5.56962 -3.75823 0
M  V30 835 N 75.3831 0.828654 1.34056 0
M  V30 836 C 76.3301 0.252567 2.29414 0
M  V30 837 C 77.3001 -0.62588 1.53857 0
M  V30 838 O 78.4851 -0.566312 1.82202 0
M  V30 839 C 75.6251 -0.574831 3.40279 0
M  V30 840 C 74.7381 0.326499 4.30764 0
M  V30 841 C 73.8731 -0.511016 5.28736 0
M  V30 842 C 72.9121 0.389342 6.1086 0
M  V30 843 N 72.0491 -0.409439 7.00905 0
M  V30 844 H 76.8891 1.07108 2.78086 0
M  V30 845 H 74.4261 0.539677 1.36843 0
M  V30 846 H 76.3841 -1.06992 4.03248 0
M  V30 847 H 75.0141 -1.35841 2.92826 0
M  V30 848 H 74.0661 0.939837 3.68607 0
M  V30 849 H 75.3781 1.01857 4.88289 0
M  V30 850 H 74.5321 -1.07035 5.97184 0
M  V30 851 H 73.2711 -1.23657 4.71763 0
M  V30 852 H 72.2761 0.960769 5.4134 0
M  V30 853 H 73.5011 1.1131 6.69916 0
M  V30 854 H 71.4471 -1.11856 6.46393 0
M  V30 855 H 71.3641 0.224126 7.55668 0
M  V30 856 H 72.6321 -0.951336 7.73673 0
M  V30 857 N 76.8612 -1.46375 0.584142 0
M  V30 858 C 78.1092 -2.01978 0.0701287 0
M  V30 859 C 78.4302 -1.4579 -1.295 0
M  V30 860 O 77.7002 -0.64314 -1.85042 0
M  V30 861 H 76.2802 -0.746648 0.0229345 0
M  V30 862 H 78.9422 -1.79461 0.760245 0
M  V30 863 H 78.0382 -3.121 0.0022064 0
M  V30 864 N 78.3393 -0.321999 -1.54275 0
M  V30 865 C 79.5673 0.283052 -2.04955 0
M  V30 866 C 79.9823 1.45904 -1.19823 0
M  V30 867 O 79.3393 1.81063 -0.228545 0
M  V30 868 C 79.3903 0.719028 -3.54277 0
M  V30 869 O 79.1113 -0.410175 -4.36176 0
M  V30 870 C 80.6123 1.38705 -4.21041 0
M  V30 871 H 77.8323 0.0584616 -0.668448 0
M  V30 872 H 80.3763 -0.467734 -1.99079 0
M  V30 873 H 78.5313 1.41979 -3.60445 0
M  V30 874 H 78.9453 -0.0669416 -5.24457 0
M  V30 875 H 80.4193 1.64306 -5.2698 0
M  V30 876 H 80.8963 2.33385 -3.72059 0
M  V30 877 H 81.5023 0.728906 -4.19007 0
M  V30 878 N 79.8174 1.5752 -0.0501392 0
M  V30 879 C 81.0664 1.91827 0.623328 0
M  V30 880 C 81.3794 0.930222 1.72065 0
M  V30 881 O 82.5854 1.1653 2.4522 0
M  V30 882 C 81.0414 3.40692 1.16003 0
M  V30 883 C 80.6494 4.479 0.0948811 0
M  V30 884 C 82.3934 3.84034 1.80881 0
M  V30 885 C 80.3004 5.87879 0.644411 0
M  V30 886 H 79.2304 0.715918 0.236596 0
M  V30 887 H 81.8814 1.83115 -0.118861 0
M  V30 888 H 80.2634 3.44405 1.9545 0
M  V30 889 H 81.4374 4.55775 -0.678675 0
M  V30 890 H 79.7524 4.13892 -0.45637 0
M  V30 891 H 82.3494 4.85984 2.22988 0
M  V30 892 H 82.6924 3.20225 2.6601 0
M  V30 893 H 83.2254 3.82833 1.0809 0
M  V30 894 H 79.9644 6.55282 -0.169229 0
M  V30 895 H 79.4844 5.83567 1.38598 0
M  V30 896 H 81.1634 6.37098 1.12763 0
M  V30 897 N 81.2955 -0.223234 1.56011 0
M  V30 898 C 82.5235 -0.964812 1.83027 0
M  V30 899 C 82.9385 -1.78013 0.62904 0
M  V30 900 O 82.2955 -1.78008 -0.402414 0
M  V30 901 C 82.3465 -1.88373 3.08542 0
M  V30 902 O 82.0675 -1.10137 4.2403 0
M  V30 903 C 83.5685 -2.73934 3.48533 0
M  V30 904 H 80.7885 -0.282842 0.608475 0
M  V30 905 H 83.3325 -0.238971 2.03099 0
M  V30 906 H 81.4875 -2.56354 2.9045 0
M  V30 907 H 81.9015 -1.72501 4.95322 0
M  V30 908 H 83.3755 -3.34117 4.39397 0
M  V30 909 H 83.8525 -3.46244 2.70207 0
M  V30 910 H 84.4585 -2.11369 3.69057 0
M  V30 911 N 82.7736 -1.49793 -0.48987 0
M  V30 912 C 84.0196 -1.61049 -1.24236 0
M  V30 913 C 84.3746 -0.298412 -1.90072 0
M  V30 914 O 83.6676 0.702262 -1.78266 0
M  V30 915 C 83.8616 -2.71488 -2.32441 0
M  V30 916 C 83.6906 -4.13308 -1.77218 0
M  V30 917 C 82.4606 -4.79955 -1.58023 0
M  V30 918 C 84.6586 -4.98176 -1.27772 0
M  V30 919 N 82.6406 -6.06052 -0.978465 0
M  V30 920 C 84.0116 -6.14843 -0.798 0
M  V30 921 C 86.0666 -4.84091 -1.16449 0
M  V30 922 C 84.7696 -7.18975 -0.216245 0
M  V30 923 C 86.7956 -5.88382 -0.596698 0
M  V30 924 C 86.1576 -7.04285 -0.127262 0
M  V30 925 H 82.2566 -0.643611 -0.444172 0
M  V30 926 H 84.8406 -1.86842 -0.54754 0
M  V30 927 H 83.0116 -2.47449 -2.99372 0
M  V30 928 H 84.7436 -2.72205 -2.99477 0
M  V30 929 H 81.4986 -4.36936 -1.82712 0
M  V30 930 H 81.9226 -6.73407 -0.696534 0
M  V30 931 H 86.5646 -3.94786 -1.5134 0
M  V30 932 H 84.2826 -8.0797 0.144903 0
M  V30 933 H 87.8686 -5.79545 -0.511716 0
M  V30 934 H 86.7486 -7.83606 0.30523 0
M  V30 935 N 84.2517 0.741722 -1.39055 0
M  V30 936 C 85.4817 1.52876 -1.3897 0
M  V30 937 C 85.8897 1.8919 0.0193266 0
M  V30 938 O 85.2327 1.54138 0.999356 0
M  V30 939 C 85.2947 2.84929 -2.19216 0
M  V30 940 C 84.9587 2.71086 -3.67915 0
M  V30 941 C 85.9557 2.40084 -4.61146 0
M  V30 942 C 83.6407 2.88168 -4.11418 0
M  V30 943 C 85.6347 2.26335 -5.95862 0
M  V30 944 C 83.3217 2.74037 -5.46211 0
M  V30 945 C 84.3197 2.43166 -6.38247 0
M  V30 946 O 84.0077 2.29115 -7.70559 0
M  V30 947 H 83.7397 0.479252 -0.476753 0
M  V30 948 H 86.2937 0.924751 -1.83405 0
M  V30 949 H 84.5237 3.47564 -1.69518 0
M  V30 950 H 86.2127 3.46509 -2.11392 0
M  V30 951 H 86.9787 2.26545 -4.28838 0
M  V30 952 H 82.8577 3.11191 -3.40119 0
M  V30 953 H 86.4017 2.0216 -6.67665 0
M  V30 954 H 82.2987 2.87153 -5.78112 0
M  V30 955 H 83.0667 2.44237 -7.81211 0
M  V30 956 N 85.7298 1.2412 0.971189 0
M  V30 957 C 86.6768 1.0305 2.06517 0
M  V30 958 C 87.6468 -0.0550666 1.66009 0
M  V30 959 O 88.8318 0.0988688 1.90544 0
M  V30 960 C 85.9718 0.637653 3.39158 0
M  V30 961 C 85.0848 1.79633 3.92882 0
M  V30 962 C 84.2198 1.34939 5.13775 0
M  V30 963 C 83.2588 2.47823 5.59687 0
M  V30 964 N 82.3958 2.04022 6.71803 0
M  V30 965 H 87.2358 1.96685 2.23873 0
M  V30 966 H 84.7728 0.979694 1.09729 0
M  V30 967 H 86.7308 0.390931 4.15364 0
M  V30 968 H 85.3608 -0.261693 3.21737 0
M  V30 969 H 84.4128 2.15681 3.13346 0
M  V30 970 H 85.7248 2.64466 4.22918 0
M  V30 971 H 84.8788 1.06134 5.97345 0
M  V30 972 H 83.6178 0.471557 4.85415 0
M  V30 973 H 82.6228 2.77392 4.74693 0
M  V30 974 H 83.8478 3.36158 5.90063 0
M  V30 975 H 81.7938 1.18632 6.45184 0
M  V30 976 H 81.7108 2.82409 7.01271 0
M  V30 977 H 82.9788 1.78347 7.58823 0
M  V30 978 N 87.2079 -1.17134 1.05439 0
M  V30 979 C 88.4849 -1.83411 0.679699 0
M  V30 980 C 88.8649 -1.9368 -0.839726 0
M  V30 981 O 88.2129 -1.47325 -1.74664 0
M  V30 982 C 88.4229 -3.20918 1.37159 0
M  V30 983 C 89.7709 -3.96796 1.51123 0
M  V30 984 O 90.7949 -3.30406 1.3308 0
M  V30 985 O 89.6539 -5.15778 1.80651 0
M  V30 986 H 86.7479 -0.79154 0.239569 0
M  V30 987 H 89.2939 -1.24411 1.15413 0
M  V30 988 H 88.0659 -3.08428 2.40807 0
M  V30 989 H 87.6889 -3.87587 0.886674 0
M  V30 990 N 88.686 -0.835752 -1.33615 0
M  V30 991 C 89.963 -0.352017 -1.92406 0
M  V30 992 C 90.343 1.16225 -1.76224 0
M  V30 993 O 89.691 1.97526 -1.14873 0
M  V30 994 C 89.901 -0.795485 -3.39813 0
M  V30 995 C 91.249 -0.801703 -4.16963 0
M  V30 996 O 92.273 -0.738889 -3.48452 0
M  V30 997 O 91.132 -0.886607 -5.3926 0
M  V30 998 H 88.226 -0.0989641 -0.821057 0
M  V30 999 H 90.772 -0.921397 -1.42507 0
M  V30 1000 H 89.544 -1.83795 -3.45449 0
M  V30 1001 H 89.167 -0.202505 -3.97084 0
M  V30 1002 N 90.1641 1.46063 -0.591896 0
M  V30 1003 C 91.3891 2.07226 -0.0850314 0
M  V30 1004 C 91.8141 1.43625 1.21463 0
M  V30 1005 O 91.1721 0.523305 1.73583 0
M  V30 1006 C 91.2201 3.60554 0.0576567 0
M  V30 1007 O 90.3241 3.97128 1.11188 0
M  V30 1008 H 89.6651 0.660615 -0.0669568 0
M  V30 1009 H 92.1951 1.8756 -0.81745 0
M  V30 1010 H 92.2051 4.07165 0.2609 0
M  V30 1011 H 90.8801 4.06235 -0.891416 0
M  V30 1012 H 89.4571 3.62213 0.886356 0
M  V30 1013 N 91.6422 0.330177 1.54103 0
M  V30 1014 C 92.5892 -0.532762 2.24567 0
M  V30 1015 C 93.5592 -1.10635 1.23892 0
M  V30 1016 O 94.7442 -1.14546 1.5259 0
M  V30 1017 C 91.8842 -1.6845 3.01195 0
M  V30 1018 C 90.9972 -1.13951 4.167 0
M  V30 1019 C 90.1322 -2.25746 4.80845 0
M  V30 1020 C 89.1712 -1.6853 5.88442 0
M  V30 1021 N 88.3082 -2.74014 6.46421 0
M  V30 1022 H 93.1482 0.0746905 2.97906 0
M  V30 1023 H 90.6852 0.048632 1.4702 0
M  V30 1024 H 92.6432 -2.36234 3.43874 0
M  V30 1025 H 91.2732 -2.26314 2.30178 0
M  V30 1026 H 90.3252 -0.35301 3.78758 0
M  V30 1027 H 91.6372 -0.680892 4.94131 0
M  V30 1028 H 90.7912 -3.01422 5.26526 0
M  V30 1029 H 89.5302 -2.74947 4.0281 0
M  V30 1030 H 88.5352 -0.913543 5.42157 0
M  V30 1031 H 89.7602 -1.20198 6.68378 0
M  V30 1032 H 87.7062 -3.22494 5.71256 0
M  V30 1033 H 87.6232 -2.32735 7.19285 0
M  V30 1034 H 88.8912 -3.49499 6.96757 0
M  V30 1035 N 93.1203 -1.57491 0.0584922 0
M  V30 1036 C 94.3483 -1.97296 -0.623037 0
M  V30 1037 C 94.7633 -0.936338 -1.63946 0
M  V30 1038 O 94.1203 0.0785981 -1.82331 0
M  V30 1039 C 94.1713 -3.37183 -1.30345 0
M  V30 1040 O 93.8923 -4.36872 -0.32773 0
M  V30 1041 C 95.3933 -3.91788 -2.07406 0
M  V30 1042 H 92.6133 -0.649153 -0.169826 0
M  V30 1043 H 95.1573 -2.04106 0.12696 0
M  V30 1044 H 93.3123 -3.31502 -2.00463 0
M  V30 1045 H 93.7263 -5.18141 -0.814269 0
M  V30 1046 H 95.2003 -4.91926 -2.50425 0
M  V30 1047 H 95.6773 -3.27609 -2.92521 0
M  V30 1048 H 96.2833 -4.00829 -1.42184 0
M  V30 1049 N 94.5984 0.214957 -1.56127 0
M  V30 1050 C 96.0094 0.781386 -1.69562 0
M  V30 1051 C 96.3604 1.84707 -0.66165 0
M  V30 1052 O 95.4854 2.156 0.185927 0
M  V30 1053 C 96.0804 1.42411 -3.07416 0
M  V30 1054 C 94.6394 1.93786 -3.22683 0
M  V30 1055 C 93.7864 0.800438 -2.65496 0
M  V30 1056 H 96.7374 -0.00980633 -1.58697 0
M  V30 1057 H 96.7584 2.29309 -3.0364 0
M  V30 1058 H 96.2704 0.64826 -3.82648 0
M  V30 1059 H 94.3714 2.74152 -2.52332 0
M  V30 1060 H 94.4844 2.1133 -4.29973 0
M  V30 1061 H 92.8484 1.2095 -2.2415 0
M  V30 1062 H 93.6314 0.0371471 -3.4328 0
M  V30 1063 N 96.0765 1.50051 0.48192 0
M  V30 1064 C 97.3225 1.60736 1.2366 0
M  V30 1065 C 97.6555 0.301786 1.91841 0
M  V30 1066 O 96.9305 -0.696025 1.8162 0
M  V30 1067 C 97.2135 2.78009 2.28874 0
M  V30 1068 C 97.0665 4.18416 1.65069 0
M  V30 1069 C 98.3855 2.90867 3.30279 0
M  V30 1070 H 95.5045 0.585031 0.448228 0
M  V30 1071 H 98.1465 1.82402 0.531946 0
M  V30 1072 H 96.2965 2.59667 2.88973 0
M  V30 1073 H 97.9685 4.48322 1.0865 0
M  V30 1074 H 96.2115 4.23177 0.954148 0
M  V30 1075 H 96.8825 4.96381 2.41474 0
M  V30 1076 H 99.3585 3.07623 2.80191 0
M  V30 1077 H 98.2345 3.74566 4.01238 0
M  V30 1078 H 98.4955 2.01021 3.93755 0
M  V30 1079 N 97.5546 -0.734337 1.39446 0
M  V30 1080 C 98.7796 -1.52866 1.40167 0
M  V30 1081 C 99.2046 -1.881 -0.00171513 0
M  V30 1082 O 98.5626 -1.51957 -0.988879 0
M  V30 1083 C 98.6106 -2.79235 2.28167 0
M  V30 1084 O 97.7146 -3.75185 1.71201 0
M  V30 1085 H 97.0556 -0.461618 0.477289 0
M  V30 1086 H 99.5856 -0.905949 1.8345 0
M  V30 1087 H 99.5956 -3.27963 2.42702 0
M  V30 1088 H 98.2706 -2.52923 3.30156 0
M  V30 1089 H 96.8476 -3.33958 1.65912 0
M  V30 1090 N 99.0327 -1.24633 -0.964593 0
M  V30 1091 C 100.261 -1.11501 -1.74285 0
M  V30 1092 C 100.676 0.332165 -1.85855 0
M  V30 1093 O 100.033 1.22903 -1.34911 0
M  V30 1094 C 100.084 -1.75258 -3.16175 0
M  V30 1095 O 99.8047 -3.14318 -3.05182 0
M  V30 1096 C 101.306 -1.67776 -4.10324 0
M  V30 1097 H 98.5257 -0.389407 -0.546446 0
M  V30 1098 H 101.07 -1.64801 -1.21083 0
M  V30 1099 H 99.2247 -1.25954 -3.66353 0
M  V30 1100 H 99.6387 -3.4551 -3.94618 0
M  V30 1101 H 101.113 -2.17064 -5.0753 0
M  V30 1102 H 101.59 -0.639584 -4.34518 0
M  V30 1103 H 102.196 -2.16522 -3.66058 0
M  V30 1104 N 100.511 1.16574 -1.06058 0
M  V30 1105 C 101.421 2.2452 -0.680282 0
M  V30 1106 C 102.437 1.71348 0.302604 0
M  V30 1107 O 103.613 2.00822 0.152513 0
M  V30 1108 C 100.678 3.46629 -0.0700315 0
M  V30 1109 C 99.7388 4.14849 -1.10448 0
M  V30 1110 C 98.9718 5.31129 -0.523256 0
M  V30 1111 O 99.1948 5.66514 0.664709 0
M  V30 1112 O 98.1288 5.88526 -1.26179 0
M  V30 1113 H 101.955 2.59355 -1.58015 0
M  V30 1114 H 99.5398 1.24043 -0.832694 0
M  V30 1115 H 101.422 4.20543 0.268667 0
M  V30 1116 H 100.097 3.13573 0.803353 0
M  V30 1117 H 99.0038 3.42916 -1.49532 0
M  V30 1118 H 100.337 4.51954 -1.94931 0
M  V30 1119 N 101.989 0.842826 1.3317 0
M  V30 1120 C 102.921 0.236245 2.27979 0
M  V30 1121 C 103.934 -0.585282 1.51915 0
M  V30 1122 O 105.123 -0.411705 1.73687 0
M  V30 1123 C 102.223 -0.685717 3.3189 0
M  V30 1124 C 101.396 0.0973448 4.37292 0
M  V30 1125 C 100.455 -0.748565 5.20848 0
M  V30 1126 O 99.4809 -0.186339 5.68895 0
M  V30 1127 N 100.683 -2.06527 5.42519 0
M  V30 1128 H 103.448 1.05088 2.80672 0
M  V30 1129 H 101.009 0.701667 1.45905 0
M  V30 1130 H 103.001 -1.25669 3.84694 0
M  V30 1131 H 101.571 -1.40105 2.79445 0
M  V30 1132 H 100.791 0.849706 3.84933 0
M  V30 1133 H 102.079 0.635643 5.04814 0
M  V30 1134 H 101.477 -2.54554 5.05192 0
M  V30 1135 H 100.034 -2.58464 5.98364 0
M  V30 1136 N 103.467 -1.45747 0.599634 0
M  V30 1137 C 104.43 -2.28917 -0.113835 0
M  V30 1138 C 105.43 -1.3933 -0.802729 0
M  V30 1139 O 106.62 -1.61534 -0.652103 0
M  V30 1140 C 103.752 -3.20152 -1.17114 0
M  V30 1141 H 104.945 -2.93478 0.617289 0
M  V30 1142 H 102.498 -1.52137 0.358327 0
M  V30 1143 H 103.233 -2.60374 -1.93329 0
M  V30 1144 H 103.018 -3.86133 -0.681468 0
M  V30 1145 H 104.508 -3.82708 -1.67105 0
M  V30 1146 N 104.945 -0.338344 -1.53925 0
M  V30 1147 C 106.17 0.263987 -2.05713 0
M  V30 1148 C 106.595 1.43847 -1.21201 0
M  V30 1149 O 105.953 1.79904 -0.224535 0
M  V30 1150 C 106.001 0.662 -3.54471 0
M  V30 1151 O 105.105 1.76265 -3.72833 0
M  V30 1152 H 104.446 0.0448722 -0.662482 0
M  V30 1153 H 106.976 -0.491048 -1.9862 0
M  V30 1154 H 106.986 0.940594 -3.9701 0
M  V30 1155 H 105.661 -0.196937 -4.15433 0
M  V30 1156 H 104.238 1.48173 -3.42198 0
M  V30 1157 N 106.423 1.57458 -0.0668435 0
M  V30 1158 C 107.839 1.56947 0.289772 0
M  V30 1159 C 108.039 1.07584 1.70376 0
M  V30 1160 O 107.095 0.739486 2.41429 0
M  V30 1161 C 108.408 3.0052 0.103943 0
M  V30 1162 C 109.956 3.12517 0.173857 0
M  V30 1163 C 110.431 4.57997 0.0163682 0
M  V30 1164 N 111.922 4.63144 0.0721352 0
M  V30 1165 C 112.657 5.73394 -0.0253794 0
M  V30 1166 N 112.153 6.92576 -0.176133 0
M  V30 1167 N 113.946 5.62091 0.0313305 0
M  V30 1168 H 106.097 1.87863 -0.991027 0
M  V30 1169 H 108.36 0.86583 -0.38606 0
M  V30 1170 H 108.066 3.40729 -0.871572 0
M  V30 1171 H 107.94 3.67304 0.858366 0
M  V30 1172 H 110.327 2.72197 1.13985 0
M  V30 1173 H 110.408 2.48381 -0.611586 0
M  V30 1174 H 110.052 4.99005 -0.946374 0
M  V30 1175 H 109.982 5.20158 0.821153 0
M  V30 1176 H 112.473 3.77436 0.187263 0
M  V30 1177 H 112.786 7.72418 -0.242821 0
M  V30 1178 H 111.131 6.94678 -0.211429 0
M  V30 1179 H 114.322 4.67867 0.147773 0
M  V30 1180 H 114.495 6.47982 -0.048121 0
M  V30 1181 N 107.901 -0.206675 1.56239 0
M  V30 1182 C 109.15 -0.926964 1.79138 0
M  V30 1183 C 109.463 -1.84901 0.638043 0
M  V30 1184 O 110.669 -2.60906 0.751033 0
M  V30 1185 C 109.125 -1.6986 3.17294 0
M  V30 1186 C 108.733 -0.821956 4.40395 0
M  V30 1187 C 110.477 -2.40922 3.4951 0
M  V30 1188 C 108.384 -1.59179 5.69575 0
M  V30 1189 H 107.314 -0.349864 0.667915 0
M  V30 1190 H 109.965 -0.180487 1.8261 0
M  V30 1191 H 108.347 -2.48853 3.08039 0
M  V30 1192 H 109.521 -0.0715019 4.60745 0
M  V30 1193 H 107.836 -0.222741 4.15804 0
M  V30 1194 H 110.433 -2.99047 4.43255 0
M  V30 1195 H 110.776 -3.14542 2.72707 0
M  V30 1196 H 111.309 -1.68905 3.60161 0
M  V30 1197 H 108.048 -0.898589 6.49312 0
M  V30 1198 H 107.568 -2.31648 5.53262 0
M  V30 1199 H 109.247 -2.14862 6.10281 0
M  V30 1200 N 109.379 -1.50304 -0.473955 0
M  V30 1201 C 110.329 -1.65347 -1.56985 0
M  V30 1202 C 111.313 -0.508176 -1.52664 0
M  V30 1203 O 112.505 -0.762446 -1.59737 0
M  V30 1204 C 109.634 -1.74832 -2.95447 0
M  V30 1205 C 108.72 -2.95028 -3.04662 0
M  V30 1206 N 109.111 -4.18747 -2.83698 0
M  V30 1207 C 107.409 -2.93527 -3.35795 0
M  V30 1208 C 108.11 -4.99687 -2.97805 0
M  V30 1209 N 107.086 -4.33585 -3.2788 0
M  V30 1210 H 110.888 -2.58698 -1.39472 0
M  V30 1211 H 108.402 -1.47449 -0.680629 0
M  V30 1212 H 110.399 -1.83712 -3.7424 0
M  V30 1213 H 109.059 -0.826376 -3.14008 0
M  V30 1214 H 110.07 -4.48291 -2.59337 0
M  V30 1215 H 106.747 -2.10821 -3.60362 0
M  V30 1216 H 108.137 -6.08057 -2.85861 0
M  V30 1217 N 110.857 0.726932 -1.39834 0
M  V30 1218 C 111.789 1.85147 -1.35104 0
M  V30 1219 C 112.802 1.60736 -0.258392 0
M  V30 1220 O 113.991 1.70821 -0.517931 0
M  V30 1221 C 111.091 3.21332 -1.07697 0
M  V30 1222 C 110.264 3.73033 -2.28396 0
M  V30 1223 C 109.323 4.87802 -1.97322 0
M  V30 1224 O 108.349 5.01043 -2.70083 0
M  V30 1225 N 109.551 5.72768 -0.944273 0
M  V30 1226 H 112.316 1.89706 -2.32017 0
M  V30 1227 H 109.877 0.908006 -1.3404 0
M  V30 1228 H 111.869 3.95691 -0.849144 0
M  V30 1229 H 110.439 3.11992 -0.194909 0
M  V30 1230 H 109.659 2.89934 -2.6708 0
M  V30 1231 H 110.947 4.0431 -3.08887 0
M  V30 1232 H 110.345 5.64669 -0.341427 0
M  V30 1233 H 108.902 6.4716 -0.776346 0
M  V30 1234 N 112.336 1.25143 0.95797 0
M  V30 1235 C 113.286 1.01924 2.0395 0
M  V30 1236 C 114.27 -0.0427175 1.60843 0
M  V30 1237 O 115.462 0.17221 1.7616 0
M  V30 1238 C 112.591 0.636373 3.3735 0
M  V30 1239 C 111.677 1.73492 3.8699 0
M  V30 1240 N 112.068 2.96945 4.0946 0
M  V30 1241 C 110.366 1.61467 4.15746 0
M  V30 1242 C 111.067 3.68228 4.50315 0
M  V30 1243 N 110.043 2.95833 4.56053 0
M  V30 1244 H 113.845 1.95653 2.19311 0
M  V30 1245 H 111.359 1.15413 1.14253 0
M  V30 1246 H 113.356 0.451233 4.14451 0
M  V30 1247 H 112.016 -0.293621 3.2337 0
M  V30 1248 H 113.027 3.33025 3.96629 0
M  V30 1249 H 109.704 0.753394 4.10646 0
M  V30 1250 H 111.094 4.74178 4.76031 0
M  V30 1251 N 113.814 -1.1601 1.06675 0
M  V30 1252 C 114.761 -2.20525 0.680967 0
M  V30 1253 C 115.731 -1.62904 -0.324283 0
M  V30 1254 O 116.916 -1.89615 -0.212294 0
M  V30 1255 C 114.056 -3.45013 0.0776551 0
M  V30 1256 C 113.169 -4.16863 1.13355 0
M  V30 1257 C 112.304 -5.2888 0.49597 0
M  V30 1258 C 111.343 -5.92537 1.53513 0
M  V30 1259 N 110.48 -6.96038 0.920631 0
M  V30 1260 H 115.32 -2.52876 1.57663 0
M  V30 1261 H 112.857 -1.24199 0.788223 0
M  V30 1262 H 114.815 -4.16193 -0.289704 0
M  V30 1263 H 113.445 -3.132 -0.781393 0
M  V30 1264 H 112.497 -3.44248 1.61857 0
M  V30 1265 H 113.809 -4.60294 1.92174 0
M  V30 1266 H 112.963 -6.06653 0.0758604 0
M  V30 1267 H 111.702 -4.86622 -0.324062 0
M  V30 1268 H 110.707 -5.13482 1.9651 0
M  V30 1269 H 111.932 -6.36873 2.35733 0
M  V30 1270 H 109.878 -6.55888 0.12138 0
M  V30 1271 H 109.795 -7.3786 1.64616 0
M  V30 1272 H 111.063 -7.77725 0.525795 0
M  V30 1273 N 115.292 -0.849877 -1.32721 0
M  V30 1274 C 116.202 -0.293791 -2.32753 0
M  V30 1275 C 117.218 0.585906 -1.63839 0
M  V30 1276 O 118.394 0.487413 -1.95413 0
M  V30 1277 C 115.459 0.512752 -3.42887 0
M  V30 1278 C 114.52 -0.39252 -4.27502 0
M  V30 1279 C 113.753 0.375625 -5.32377 0
M  V30 1280 O 113.976 1.60613 -5.4732 0
M  V30 1281 O 112.91 -0.256094 -6.01355 0
M  V30 1282 H 116.736 -1.12242 -2.82197 0
M  V30 1283 H 114.321 -0.612685 -1.36259 0
M  V30 1284 H 116.203 0.970704 -4.10067 0
M  V30 1285 H 114.878 1.31826 -2.95641 0
M  V30 1286 H 113.785 -0.898547 -3.63149 0
M  V30 1287 H 115.118 -1.16309 -4.7826 0
M  V30 1288 N 116.77 1.45427 -0.607355 0
M  V30 1289 C 117.717 2.3053 0.111625 0
M  V30 1290 C 118.687 1.4209 0.860216 0
M  V30 1291 O 119.872 1.71019 0.845998 0
M  V30 1292 C 117.012 3.26992 1.10319 0
M  V30 1293 C 116.125 4.30535 0.355493 0
M  V30 1294 C 115.26 5.14105 1.33676 0
M  V30 1295 C 114.299 6.09376 0.576862 0
M  V30 1296 N 113.436 6.85727 1.5074 0
M  V30 1297 H 118.276 2.91477 -0.620093 0
M  V30 1298 H 115.813 1.43631 -0.317594 0
M  V30 1299 H 117.771 3.81385 1.6912 0
M  V30 1300 H 116.401 2.67799 1.80232 0
M  V30 1301 H 115.453 3.78805 -0.348023 0
M  V30 1302 H 116.765 4.98235 -0.237423 0
M  V30 1303 H 115.919 5.72897 1.99684 0
M  V30 1304 H 114.658 4.46423 1.9636 0
M  V30 1305 H 113.663 5.49715 -0.0968519 0
M  V30 1306 H 114.888 6.79085 -0.0449341 0
M  V30 1307 H 112.834 6.20735 2.12189 0
M  V30 1308 H 112.751 7.49778 0.967913 0
M  V30 1309 H 114.019 7.4906 2.15706 0
M  V30 1310 N 118.248 0.346503 1.53744 0
M  V30 1311 C 119.178 -0.501193 2.28058 0
M  V30 1312 C 120.159 -1.10014 1.29734 0
M  V30 1313 O 121.344 -1.12097 1.58581 0
M  V30 1314 C 118.474 -1.65078 3.05559 0
M  V30 1315 C 117.428 -1.18003 4.11411 0
M  V30 1316 C 116.754 -2.41837 4.76884 0
M  V30 1317 C 118.054 -0.278394 5.21558 0
M  V30 1318 H 119.748 0.11875 2.99164 0
M  V30 1319 H 117.294 0.0585531 1.43881 0
M  V30 1320 H 119.247 -2.25028 3.56287 0
M  V30 1321 H 117.971 -2.29767 2.32109 0
M  V30 1322 H 116.63 -0.603331 3.61601 0
M  V30 1323 H 116.278 -3.0494 4.00026 0
M  V30 1324 H 115.978 -2.1102 5.48402 0
M  V30 1325 H 117.502 -3.02508 5.30397 0
M  V30 1326 H 118.916 -0.784823 5.67903 0
M  V30 1327 H 117.313 -0.0619707 6.00068 0
M  V30 1328 H 118.383 0.684677 4.80042 0
M  V30 1329 N 119.726 -1.57421 0.075193 0
M  V30 1330 C 120.972 -1.94716 -0.587998 0
M  V30 1331 C 121.327 -0.955205 -1.67014 0
M  V30 1332 O 120.62 0.0219842 -1.91587 0
M  V30 1333 C 120.814 -3.36428 -1.20626 0
M  V30 1334 C 120.643 -4.49317 -0.185541 0
M  V30 1335 C 119.413 -5.04772 0.23099 0
M  V30 1336 C 121.611 -5.11036 0.57854 0
M  V30 1337 N 119.593 -6.01204 1.24206 0
M  V30 1338 C 120.964 -6.02998 1.44199 0
M  V30 1339 C 123.019 -4.93844 0.634237 0
M  V30 1340 C 121.722 -6.79614 2.3562 0
M  V30 1341 C 123.748 -5.71106 1.53597 0
M  V30 1342 C 123.11 -6.6272 2.38709 0
M  V30 1343 H 119.209 -0.759536 -0.186089 0
M  V30 1344 H 121.793 -1.94097 0.153128 0
M  V30 1345 H 119.964 -3.37778 -1.9173 0
M  V30 1346 H 121.696 -3.60951 -1.8302 0
M  V30 1347 H 118.451 -4.73353 -0.152807 0
M  V30 1348 H 118.875 -6.54119 1.74521 0
M  V30 1349 H 123.517 -4.22799 -0.00960004 0
M  V30 1350 H 121.235 -7.49934 3.01038 0
M  V30 1351 H 124.821 -5.59824 1.58394 0
M  V30 1352 H 123.701 -7.2146 3.07352 0
M  V30 1353 N 121.204 0.198386 -1.56346 0
M  V30 1354 C 122.451 0.919286 -1.80431 0
M  V30 1355 C 122.779 1.83393 -0.647866 0
M  V30 1356 O 122.034 1.92236 0.366556 0
M  V30 1357 C 122.333 1.77031 -3.10475 0
M  V30 1358 C 121.999 1.00693 -4.39513 0
M  V30 1359 C 120.661 0.796145 -4.74568 0
M  V30 1360 C 123.013 0.469559 -5.19081 0
M  V30 1361 C 120.341 0.0364588 -5.86689 0
M  V30 1362 C 122.693 -0.2769 -6.31994 0
M  V30 1363 C 121.357 -0.49873 -6.65634 0
M  V30 1364 H 120.627 0.336391 -0.660244 0
M  V30 1365 H 123.274 0.185872 -1.90596 0
M  V30 1366 H 121.579 2.5723 -2.95533 0
M  V30 1367 H 123.276 2.33065 -3.26315 0
M  V30 1368 H 119.866 1.18122 -4.12001 0
M  V30 1369 H 124.05 0.619816 -4.92414 0
M  V30 1370 H 119.306 -0.145412 -6.11227 0
M  V30 1371 H 123.48 -0.700684 -6.92866 0
M  V30 1372 H 121.107 -1.0893 -7.52355 0
M  V30 1373 N 122.682 1.50554 0.465978 0
M  V30 1374 C 123.928 1.62038 1.21949 0
M  V30 1375 C 124.261 0.322116 1.9151 0
M  V30 1376 O 123.536 -0.676723 1.82348 0
M  V30 1377 C 123.819 2.80421 2.25912 0
M  V30 1378 C 123.672 4.20144 1.60622 0
M  V30 1379 C 124.991 2.94354 3.27176 0
M  V30 1380 H 122.11 0.589752 0.441998 0
M  V30 1381 H 124.752 1.82956 0.51257 0
M  V30 1382 H 122.902 2.62717 2.86203 0
M  V30 1383 H 124.574 4.49449 1.03889 0
M  V30 1384 H 122.817 4.24165 0.909211 0
M  V30 1385 H 123.488 4.98914 2.36196 0
M  V30 1386 H 125.964 3.10578 2.76913 0
M  V30 1387 H 124.84 3.788 3.97242 0
M  V30 1388 H 125.101 2.05186 3.916 0
M  V30 1389 N 124.16 -0.719506 1.40217 0
M  V30 1390 C 125.571 -1.29848 1.34151 0
M  V30 1391 C 125.922 -1.96196 0.0131349 0
M  V30 1392 O 125.047 -1.973 -0.88892 0
M  V30 1393 C 125.642 -2.36118 2.42968 0
M  V30 1394 C 124.201 -2.8965 2.40374 0
M  V30 1395 C 123.348 -1.63393 2.24049 0
M  V30 1396 H 126.299 -0.51591 1.5008 0
M  V30 1397 H 126.32 -3.16871 2.10649 0
M  V30 1398 H 125.832 -1.878 3.39636 0
M  V30 1399 H 123.933 -3.42208 1.47392 0
M  V30 1400 H 124.046 -3.4171 3.35814 0
M  V30 1401 H 122.41 -1.88312 1.71495 0
M  V30 1402 H 123.193 -1.17104 3.2271 0
M  V30 1403 N 125.638 -1.25649 -0.95132 0
M  V30 1404 C 126.601 -1.06399 -2.03007 0
M  V30 1405 C 127.601 -0.0156794 -1.60792 0
M  V30 1406 O 128.791 -0.25817 -1.72276 0
M  V30 1407 C 125.923 -0.616184 -3.35285 0
M  V30 1408 H 127.116 -2.02164 -2.21517 0
M  V30 1409 H 124.669 -1.08103 -1.12887 0
M  V30 1410 H 125.404 0.343917 -3.22471 0
M  V30 1411 H 125.189 -1.37301 -3.67275 0
M  V30 1412 H 126.679 -0.503032 -4.14559 0
M  V30 1413 N 127.117 1.15442 -1.07289 0
M  V30 1414 C 128.064 2.20161 -0.692653 0
M  V30 1415 C 129.034 1.63073 0.31564 0
M  V30 1416 O 130.219 1.89725 0.202235 0
M  V30 1417 C 127.359 3.44967 -0.0959509 0
M  V30 1418 C 126.472 4.16256 -1.15564 0
M  V30 1419 C 125.607 5.28609 -0.524011 0
M  V30 1420 C 124.646 5.91715 -1.56653 0
M  V30 1421 N 123.783 6.9554 -0.957531 0
M  V30 1422 H 128.623 2.52037 -1.59002 0
M  V30 1423 H 126.16 1.2378 -0.794798 0
M  V30 1424 H 128.118 4.16341 0.267628 0
M  V30 1425 H 126.748 3.1361 0.764772 0
M  V30 1426 H 125.8 3.43385 -1.6368 0
M  V30 1427 H 127.112 4.59268 -1.94613 0
M  V30 1428 H 126.266 6.06604 -0.108032 0
M  V30 1429 H 125.005 4.86787 0.29825 0
M  V30 1430 H 124.01 5.12433 -1.9923 0
M  V30 1431 H 125.235 6.35614 -2.39107 0
M  V30 1432 H 123.181 6.55814 -0.156162 0
M  V30 1433 H 123.098 7.36977 -1.68526 0
M  V30 1434 H 124.366 7.77435 -0.567032 0
M  V30 1435 N 128.595 0.856903 1.32268 0
M  V30 1436 C 129.841 0.462069 1.97466 0
M  V30 1437 C 130.174 -0.980298 1.67642 0
M  V30 1438 O 129.449 -1.68824 0.965858 0
M  V30 1439 C 129.732 0.704336 3.53145 0
M  V30 1440 C 129.585 2.19529 3.9259 0
M  V30 1441 C 130.904 0.1622 4.39801 0
M  V30 1442 H 128.023 0.169357 0.717278 0
M  V30 1443 H 130.665 1.07574 1.56614 0
M  V30 1444 H 128.815 0.181999 3.88073 0
M  V30 1445 H 130.487 2.78387 3.67829 0
M  V30 1446 H 128.73 2.67292 3.41668 0
M  V30 1447 H 129.401 2.31549 5.01088 0
M  V30 1448 H 131.877 0.608905 4.11621 0
M  V30 1449 H 130.753 0.361265 5.4771 0
M  V30 1450 H 131.014 -0.935158 4.32096 0
M  V30 1451 N 130.073 -1.45103 0.615059 0
M  V30 1452 C 130.983 -2.34382 -0.101034 0
M  V30 1453 C 131.999 -1.51681 -0.852585 0
M  V30 1454 O 133.175 -1.8446 -0.808484 0
M  V30 1455 C 130.24 -3.29417 -1.08099 0
M  V30 1456 C 129.301 -4.28025 -0.330577 0
M  V30 1457 C 128.534 -5.1852 -1.26385 0
M  V30 1458 O 128.757 -5.12598 -2.50198 0
M  V30 1459 O 127.691 -5.97122 -0.756866 0
M  V30 1460 H 131.517 -2.97033 0.632855 0
M  V30 1461 H 129.102 -1.4461 0.375293 0
M  V30 1462 H 130.984 -3.87958 -1.6452 0
M  V30 1463 H 129.659 -2.69321 -1.79577 0
M  V30 1464 H 128.566 -3.73078 0.276283 0
M  V30 1465 H 129.899 -4.90997 0.343866 0
M  V30 1466 N 131.551 -0.354651 -1.53558 0
M  V30 1467 C 132.828 0.294281 -1.93374 0
M  V30 1468 C 133.208 1.67313 -1.28723 0
M  V30 1469 O 132.556 2.24179 -0.442247 0
M  V30 1470 C 132.766 0.355445 -3.47185 0
M  V30 1471 C 134.114 0.601007 -4.20325 0
M  V30 1472 O 135.138 0.437106 -3.53508 0
M  V30 1473 O 133.997 0.919322 -5.38712 0
M  V30 1474 H 131.091 0.174033 -0.808481 0
M  V30 1475 H 133.637 -0.406638 -1.64756 0
M  V30 1476 H 132.409 -0.611729 -3.86489 0
M  V30 1477 H 132.032 1.1027 -3.82003 0
M  V30 1478 N 133.029 1.57378 -0.0835403 0
M  V30 1479 C 134.254 1.98682 0.594987 0
M  V30 1480 C 134.679 0.961969 1.61641 0
M  V30 1481 O 134.037 -0.0709989 1.81161 0
M  V30 1482 C 134.085 3.38988 1.2296 0
M  V30 1483 O 133.189 3.39208 2.34546 0
M  V30 1484 H 132.53 0.646368 0.152002 0
M  V30 1485 H 135.06 2.03961 -0.161533 0
M  V30 1486 H 135.07 3.76431 1.57366 0
M  V30 1487 H 133.745 4.13107 0.481228 0
M  V30 1488 H 132.322 3.13548 2.01846 0
M  V30 1489 N 134.507 -0.190092 1.56449 0
M  V30 1490 C 135.755 -0.907908 1.80559 0
M  V30 1491 C 136.076 -1.83583 0.657438 0
M  V30 1492 O 135.346 -1.93203 -0.323924 0
M  V30 1493 H 133.926 -0.338247 0.666032 0
M  V30 1494 H 136.588 -0.194403 1.93928 0
M  V30 1495 H 135.684 -1.49604 2.73907 0
M  V30 1496 N 135.985 -1.50799 -0.457987 0
M  V30 1497 C 136.935 -1.67003 -1.55222 0
M  V30 1498 C 137.919 -0.52434 -1.52117 0
M  V30 1499 O 139.111 -0.779345 -1.58919 0
M  V30 1500 C 136.24 -1.77956 -2.93576 0
M  V30 1501 C 135.326 -2.98243 -3.01516 0
M  V30 1502 N 135.717 -4.21732 -2.79241 0
M  V30 1503 C 134.015 -2.97072 -3.32662 0
M  V30 1504 C 134.716 -5.02817 -2.92489 0
M  V30 1505 N 133.692 -4.37038 -3.23262 0
M  V30 1506 H 137.494 -2.60163 -1.36721 0
M  V30 1507 H 135.008 -1.48163 -0.664952 0
M  V30 1508 H 137.005 -1.87671 -3.72271 0
M  V30 1509 H 135.665 -0.859634 -3.13114 0
M  V30 1510 H 136.676 -4.51016 -2.54567 0
M  V30 1511 H 133.353 -2.14631 -3.58106 0
M  V30 1512 H 134.743 -6.11054 -2.79396 0
M  V30 1513 N 137.463 0.71206 -1.40597 0
M  V30 1514 C 138.693 1.49894 -1.42181 0
M  V30 1515 C 139.101 1.89189 -0.0208078 0
M  V30 1516 O 138.444 1.56223 0.966436 0
M  V30 1517 C 138.506 2.80215 -2.25211 0
M  V30 1518 C 138.17 2.63221 -3.73582 0
M  V30 1519 C 139.167 2.30249 -4.66135 0
M  V30 1520 C 136.852 2.79376 -4.17438 0
M  V30 1521 C 138.846 2.13645 -6.00529 0
M  V30 1522 C 136.533 2.6239 -5.51901 0
M  V30 1523 C 137.531 2.29573 -6.43262 0
M  V30 1524 O 137.219 2.12719 -7.75246 0
M  V30 1525 H 136.951 0.469031 -0.486812 0
M  V30 1526 H 139.505 0.88564 -1.85326 0
M  V30 1527 H 137.735 3.4389 -1.76852 0
M  V30 1528 H 139.424 3.41947 -2.18694 0
M  V30 1529 H 140.19 2.17398 -4.33547 0
M  V30 1530 H 136.069 3.03906 -3.46644 0
M  V30 1531 H 139.613 1.87953 -6.71803 0
M  V30 1532 H 135.51 2.74826 -5.84073 0
M  V30 1533 H 136.278 2.27611 -7.86216 0
M  V30 1534 N 138.941 1.26152 0.944643 0
M  V30 1535 C 140.171 1.14094 1.72239 0
M  V30 1536 C 140.579 -0.306931 1.86694 0
M  V30 1537 O 139.922 -1.22222 1.3714 0
M  V30 1538 C 139.984 1.73316 3.14963 0
M  V30 1539 C 139.648 3.2239 3.23904 0
M  V30 1540 C 140.645 4.19252 3.07447 0
M  V30 1541 C 138.33 3.62788 3.47405 0
M  V30 1542 C 140.324 5.54491 3.14353 0
M  V30 1543 C 138.011 4.98162 3.53947 0
M  V30 1544 C 139.009 5.93823 3.37436 0
M  V30 1545 O 138.697 7.26732 3.43679 0
M  V30 1546 H 138.429 0.398292 0.546205 0
M  V30 1547 H 140.983 1.67201 1.19301 0
M  V30 1548 H 139.213 1.14667 3.69308 0
M  V30 1549 H 140.902 1.56214 3.74636 0
M  V30 1550 H 141.668 3.8938 2.8915 0
M  V30 1551 H 137.547 2.88816 3.59313 0
M  V30 1552 H 141.091 6.29137 3.01384 0
M  V30 1553 H 136.988 5.27695 3.71763 0
M  V30 1554 H 137.756 7.3496 3.60245 0
M  V30 1555 N 140.419 -1.14872 1.07899 0
M  V30 1556 C 141.659 -1.8745 0.814965 0
M  V30 1557 C 142.023 -1.80758 -0.64733 0
M  V30 1558 O 143.224 -2.48422 -1.02664 0
M  V30 1559 C 141.495 -3.32286 1.31607 0
M  V30 1560 S 143.054 -4.22537 1.18357 0
M  V30 1561 H 139.872 -0.646833 0.295174 0
M  V30 1562 H 142.474 -1.38555 1.37923 0
M  V30 1563 H 141.178 -3.34703 2.37491 0
M  V30 1564 H 140.709 -3.86238 0.747261 0
M  V30 1565 H 142.724 -4.96044 0.124586 0
M  V30 1566 N 141.898 -0.863906 -1.31812 0
M  V30 1567 C 143.144 -0.472535 -1.97218 0
M  V30 1568 C 143.477 0.971394 -1.68159 0
M  V30 1569 O 142.752 1.68309 -0.974798 0
M  V30 1570 C 143.035 -0.723054 -3.52766 0
M  V30 1571 C 142.888 -2.21608 -3.91421 0
M  V30 1572 C 144.207 -0.185522 -4.39709 0
M  V30 1573 H 141.326 -0.173158 -0.71637 0
M  V30 1574 H 143.968 -1.08403 -1.56041 0
M  V30 1575 H 142.118 -0.202577 -3.87971 0
M  V30 1576 H 143.79 -2.80334 -3.66347 0
M  V30 1577 H 142.033 -2.691 -3.40246 0
M  V30 1578 H 142.704 -2.34203 -4.99853 0
M  V30 1579 H 145.18 -0.630726 -4.11292 0
M  V30 1580 H 144.056 -0.390306 -5.47511 0
M  V30 1581 H 144.317 0.912229 -4.32586 0
M  V30 1582 N 143.376 1.44774 -0.622745 0
M  V30 1583 C 144.622 2.0242 -0.124083 0
M  V30 1584 C 144.955 1.4881 1.24777 0
M  V30 1585 O 144.23 0.668799 1.8264 0
M  V30 1586 C 144.513 3.59957 -0.101619 0
M  V30 1587 C 144.366 4.23867 -1.50521 0
M  V30 1588 C 145.685 4.36284 0.578272 0
M  V30 1589 H 142.804 0.735528 -0.0465645 0
M  V30 1590 H 145.446 1.72447 -0.797617 0
M  V30 1591 H 143.596 3.85623 0.471934 0
M  V30 1592 H 145.268 4.09336 -2.12701 0
M  V30 1593 H 143.511 3.81684 -2.06154 0
M  V30 1594 H 144.182 5.32843 -1.4416 0
M  V30 1595 H 146.658 4.16001 0.0906057 0
M  V30 1596 H 145.534 5.46004 0.563149 0
M  V30 1597 H 145.795 4.10271 1.64713 0
M  V30 1598 N 144.854 0.36279 1.53368 0
M  V30 1599 C 146.27 0.0116182 1.59596 0
M  V30 1600 C 146.47 -1.47012 1.37803 0
M  V30 1601 O 145.526 -2.23136 1.18181 0
M  V30 1602 C 146.839 0.465052 2.97082 0
M  V30 1603 C 148.387 0.419033 3.10182 0
M  V30 1604 C 148.862 0.848235 4.50077 0
M  V30 1605 N 150.353 0.803183 4.56183 0
M  V30 1606 C 151.088 1.107 5.62613 0
M  V30 1607 N 150.584 1.47996 6.76808 0
M  V30 1608 N 152.377 1.02998 5.52583 0
M  V30 1609 H 144.528 1.32775 1.65785 0
M  V30 1610 H 146.791 0.542518 0.777417 0
M  V30 1611 H 146.497 1.49892 3.18159 0
M  V30 1612 H 146.371 -0.149786 3.76902 0
M  V30 1613 H 148.758 -0.605696 2.88817 0
M  V30 1614 H 148.839 1.06933 2.32377 0
M  V30 1615 H 148.483 1.87107 4.7218 0
M  V30 1616 H 148.413 0.175218 5.26308 0
M  V30 1617 H 150.904 0.52838 3.74188 0
M  V30 1618 H 151.217 1.69613 7.53957 0
M  V30 1619 H 149.562 1.51859 6.78206 0
M  V30 1620 H 152.753 0.737817 4.62249 0
M  V30 1621 H 152.926 1.2701 6.35431 0
M  V30 1622 N 146.332 -1.57332 0.0918853 0
M  V30 1623 C 147.28 -2.15075 -0.885747 0
M  V30 1624 C 148.274 -1.09277 -1.29441 0
M  V30 1625 O 149.48 -1.27627 -1.26931 0
M  V30 1626 H 145.855 -0.687966 -0.303656 0
M  V30 1627 H 147.826 -2.96047 -0.373995 0
M  V30 1628 C 146.575 -2.74325 -2.13638 0
M  V30 1629 H 145.898 -3.55418 -1.8308 0
M  V30 1630 H 147.338 -3.183 -2.80109 0
M  V30 1631 C 145.797 -1.70062 -2.90827 0
M  V30 1632 O 146.327 -1.13763 -3.85254 0
M  V30 1633 N 144.533 -1.40628 -2.54307 0
M  V30 1634 H 144.08 -1.866 -1.7759 0
M  V30 1635 H 144.038 -0.711043 -3.06254 0
M  V30 1636 N 147.81 0.181792 -1.56548 0
M  V30 1637 C 149.035 0.920019 -1.85877 0
M  V30 1638 C 149.46 1.75494 -0.677021 0
M  V30 1639 O 148.818 1.77399 0.374056 0
M  V30 1640 C 148.866 1.78112 -3.13542 0
M  V30 1641 O 147.97 2.88152 -2.95029 0
M  V30 1642 H 147.311 0.258334 -0.611686 0
M  V30 1643 H 149.841 0.183092 -2.03779 0
M  V30 1644 H 149.851 2.18314 -3.44678 0
M  V30 1645 H 148.526 1.16777 -3.99169 0
M  V30 1646 H 147.103 2.51609 -2.75222 0
M  V30 1647 N 149.288 1.51039 0.449983 0
M  V30 1648 C 150.513 1.6715 1.22783 0
M  V30 1649 C 150.938 0.363081 1.84563 0
M  V30 1650 O 150.296 -0.675433 1.68249 0
M  V30 1651 C 150.344 2.77985 2.29689 0
M  V30 1652 O 149.448 2.40707 3.34864 0
M  V30 1653 H 148.789 0.557746 0.360299 0
M  V30 1654 H 151.319 1.97535 0.533005 0
M  V30 1655 H 151.329 3.01693 2.74673 0
M  V30 1656 H 150.004 3.72935 1.84098 0
M  V30 1657 H 148.581 2.27523 2.95445 0
M  V30 1658 N 150.766 -0.704594 1.40972 0
M  V30 1659 C 151.996 -1.49138 1.42974 0
M  V30 1660 C 152.404 -1.89175 0.0308406 0
M  V30 1661 O 151.747 -1.56734 -0.958138 0
M  V30 1662 C 151.809 -2.79016 2.26694 0
M  V30 1663 C 151.473 -2.61236 3.74973 0
M  V30 1664 C 152.47 -2.27773 4.67349 0
M  V30 1665 C 150.155 -2.77158 4.18914 0
M  V30 1666 C 152.149 -2.10457 6.01653 0
M  V30 1667 C 149.836 -2.59459 5.53285 0
M  V30 1668 C 150.834 -2.26158 6.4447 0
M  V30 1669 O 150.522 -2.08605 7.76363 0
M  V30 1670 H 150.254 -0.466443 0.489292 0
M  V30 1671 H 152.808 -0.8758 1.85793 0
M  V30 1672 H 151.038 -3.42947 1.78673 0
M  V30 1673 H 152.727 -3.40782 2.20504 0
M  V30 1674 H 153.493 -2.15095 4.34694 0
M  V30 1675 H 149.372 -3.02064 3.48251 0
M  V30 1676 H 152.916 -1.84387 6.72791 0
M  V30 1677 H 148.813 -2.71725 5.85522 0
M  V30 1678 H 149.581 -2.23439 7.87412 0
M  V30 1679 N 152.244 -1.26651 -0.937939 0
M  V30 1680 C 153.484 -1.13611 -1.69917 0
M  V30 1681 C 153.848 0.314687 -1.89404 0
M  V30 1682 O 155.049 0.567285 -2.62746 0
M  V30 1683 C 153.32 -1.88742 -3.03498 0
M  V30 1684 S 154.879 -1.91794 -3.94665 0
M  V30 1685 H 151.697 -0.405767 -0.583844 0
M  V30 1686 H 154.299 -1.60416 -1.11745 0
M  V30 1687 H 153.003 -2.9336 -2.86999 0
M  V30 1688 H 152.534 -1.42391 -3.66727 0
M  V30 1689 H 154.549 -1.00698 -4.85875 0
M  V30 1690 N 153.722 1.14298 -1.08507 0
M  V30 1691 C 154.652 2.21542 -0.737646 0
M  V30 1692 C 155.633 1.67773 0.280377 0
M  V30 1693 O 156.818 1.93616 0.150521 0
M  V30 1694 C 153.948 3.46988 -0.147259 0
M  V30 1695 C 152.902 4.13789 -1.09374 0
M  V30 1696 C 152.228 5.33449 -0.365524 0
M  V30 1697 C 153.528 4.62208 -2.4323 0
M  V30 1698 H 155.222 2.5086 -1.6343 0
M  V30 1699 H 152.768 1.20576 -0.787243 0
M  V30 1700 H 154.721 4.21262 0.107808 0
M  V30 1701 H 153.445 3.17037 0.784538 0
M  V30 1702 H 152.104 3.4147 -1.33393 0
M  V30 1703 H 151.752 4.99759 0.57011 0
M  V30 1704 H 151.452 5.79088 -0.996512 0
M  V30 1705 H 152.976 6.10485 -0.118534 0
M  V30 1706 H 154.39 5.27952 -2.23472 0
M  V30 1707 H 152.787 5.18553 -3.02031 0
M  V30 1708 H 153.857 3.77224 -3.04681 0
M  V30 1709 N 155.201 0.870884 1.31352 0
M  V30 1710 C 156.617 0.562932 1.49343 0
M  V30 1711 C 156.817 -0.902725 1.80148 0
M  V30 1712 O 155.873 -1.68484 1.88067 0
M  V30 1713 C 157.186 1.46393 2.62659 0
M  V30 1714 C 158.734 1.46607 2.76542 0
M  V30 1715 C 159.209 2.35266 3.92955 0
M  V30 1716 N 160.7 2.33151 4.00243 0
M  V30 1717 C 161.435 2.98471 4.89594 0
M  V30 1718 N 160.931 3.72964 5.8384 0
M  V30 1719 N 162.724 2.87775 4.82848 0
M  V30 1720 H 154.875 1.81923 1.09626 0
M  V30 1721 H 157.138 0.777934 0.541777 0
M  V30 1722 H 156.844 2.50689 2.46674 0
M  V30 1723 H 156.718 1.16314 3.58819 0
M  V30 1724 H 159.105 0.43069 2.9194 0
M  V30 1725 H 159.186 1.8071 1.81046 0
M  V30 1726 H 158.83 3.38881 3.78315 0
M  V30 1727 H 158.76 1.98487 4.87761 0
M  V30 1728 H 161.251 1.79006 3.32814 0
M  V30 1729 H 161.564 4.19932 6.4875 0
M  V30 1730 H 159.909 3.77073 5.83816 0
M  V30 1731 H 163.1 2.29116 4.08195 0
M  V30 1732 H 163.273 3.38961 5.52277 0
M  V30 1733 N 156.679 -1.44442 0.630414 0
M  V30 1734 C 157.928 -2.01267 0.132073 0
M  V30 1735 C 158.241 -1.50172 -1.25331 0
M  V30 1736 O 159.447 -1.9912 -1.84562 0
M  V30 1737 C 157.903 -3.59422 0.185362 0
M  V30 1738 C 157.511 -4.19514 1.57201 0
M  V30 1739 C 159.255 -4.23724 -0.256553 0
M  V30 1740 C 157.162 -5.69891 1.58045 0
M  V30 1741 H 156.092 -0.752619 0.0456092 0
M  V30 1742 H 158.743 -1.65666 0.789106 0
M  V30 1743 H 157.125 -3.92318 -0.538759 0
M  V30 1744 H 158.299 -3.98156 2.31966 0
M  V30 1745 H 156.614 -3.67496 1.95795 0
M  V30 1746 H 159.211 -5.34019 -0.269767 0
M  V30 1747 H 159.554 -3.96013 -1.28372 0
M  V30 1748 H 160.087 -3.95629 0.41505 0
M  V30 1749 H 156.826 -6.02336 2.58597 0
M  V30 1750 H 156.346 -5.93373 0.875725 0
M  V30 1751 H 158.025 -6.33515 1.31408 0
M  V30 1752 N 158.157 -0.370918 -1.53173 0
M  V30 1753 C 159.104 0.473035 -2.259 0
M  V30 1754 C 160.074 1.07311 -1.26781 0
M  V30 1755 O 161.259 1.1046 -1.55574 0
M  V30 1756 C 158.399 1.60405 -3.05556 0
M  V30 1757 C 157.512 1.02863 -4.19575 0
M  V30 1758 C 156.647 2.12918 -4.86661 0
M  V30 1759 C 155.686 1.52869 -5.92704 0
M  V30 1760 N 154.823 2.56779 -6.53459 0
M  V30 1761 H 159.663 -0.153649 -2.97604 0
M  V30 1762 H 157.2 -0.0875946 -1.46839 0
M  V30 1763 H 159.158 2.27034 -3.50016 0
M  V30 1764 H 157.788 2.20131 -2.36097 0
M  V30 1765 H 156.84 0.252465 -3.79561 0
M  V30 1766 H 158.152 0.549642 -4.95762 0
M  V30 1767 H 157.306 2.87356 -5.34333 0
M  V30 1768 H 156.045 2.6417 -4.09958 0
M  V30 1769 H 155.05 0.769479 -5.44389 0
M  V30 1770 H 156.275 1.02435 -6.7133 0
M  V30 1771 H 154.221 3.07235 -5.79606 0
M  V30 1772 H 154.138 2.13583 -7.25202 0
M  V30 1773 H 155.406 3.30903 -7.05779 0
M  V30 1774 N 159.635 1.57281 -0.100228 0
M  V30 1775 C 160.884 1.93713 0.561984 0
M  V30 1776 C 161.197 0.984492 1.69018 0
M  V30 1777 O 162.403 1.24273 2.41389 0
M  V30 1778 C 160.859 3.4421 1.05106 0
M  V30 1779 C 160.467 4.47975 -0.0476628 0
M  V30 1780 C 162.211 3.89595 1.68571 0
M  V30 1781 C 160.118 5.89631 0.457055 0
M  V30 1782 H 159.048 0.723082 0.2137 0
M  V30 1783 H 161.699 1.82644 -0.177057 0
M  V30 1784 H 160.081 3.50449 1.84395 0
M  V30 1785 H 161.255 4.53385 -0.823333 0
M  V30 1786 H 159.57 4.1223 -0.587816 0
M  V30 1787 H 162.167 4.92832 2.07414 0
M  V30 1788 H 162.51 3.28526 2.55688 0
M  V30 1789 H 163.043 3.86078 0.958562 0
M  V30 1790 H 159.782 6.54411 -0.377616 0
M  V30 1791 H 159.302 5.87681 1.19962 0
M  V30 1792 H 160.981 6.40363 0.92437 0
M  V30 1793 N 161.113 -0.173488 1.56642 0
M  V30 1794 C 162.338 -0.910149 1.86363 0
M  V30 1795 C 162.763 -1.75132 0.686318 0
M  V30 1796 O 162.121 -1.77595 -0.364643 0
M  V30 1797 C 162.169 -1.76447 3.14482 0
M  V30 1798 O 161.273 -2.86584 2.96553 0
M  V30 1799 H 160.614 -0.255086 0.613047 0
M  V30 1800 H 163.144 -0.172283 2.03873 0
M  V30 1801 H 163.154 -2.16483 3.45831 0
M  V30 1802 H 161.829 -1.14658 3.99783 0
M  V30 1803 H 160.406 -2.50146 2.76553 0
M  V30 1804 N 162.591 -1.51276 -0.441967 0
M  V30 1805 C 163.554 -1.7167 -1.51862 0
M  V30 1806 C 164.554 -0.586793 -1.49711 0
M  V30 1807 O 165.744 -0.854276 -1.51815 0
M  V30 1808 C 162.876 -1.76889 -2.91416 0
M  V30 1809 H 164.069 -2.67754 -1.35084 0
M  V30 1810 H 161.622 -1.41196 -0.670333 0
M  V30 1811 H 162.357 -0.826026 -3.13604 0
M  V30 1812 H 162.142 -2.59001 -2.94382 0
M  V30 1813 H 163.632 -1.94522 -3.69528 0
M  V30 1814 N 164.069 0.697108 -1.41344 0
M  V30 1815 C 165.016 1.81106 -1.43071 0
M  V30 1816 C 165.986 1.63632 -0.285275 0
M  V30 1817 O 167.171 1.84504 -0.486091 0
M  V30 1818 C 164.311 3.18975 -1.31715 0
M  V30 1819 C 163.424 3.47892 -2.56115 0
M  V30 1820 C 162.559 4.75367 -2.37064 0
M  V30 1821 C 161.598 4.97247 -3.56948 0
M  V30 1822 N 160.735 6.15947 -3.36977 0
M  V30 1823 H 165.575 1.78965 -2.38276 0
M  V30 1824 H 163.112 0.873975 -1.18322 0
M  V30 1825 H 165.07 3.98615 -1.23133 0
M  V30 1826 H 163.7 3.20297 -0.401183 0
M  V30 1827 H 162.752 2.62669 -2.75153 0
M  V30 1828 H 164.064 3.59962 -3.45295 0
M  V30 1829 H 163.218 5.63059 -2.25941 0
M  V30 1830 H 161.957 4.65541 -1.45338 0
M  V30 1831 H 160.962 4.08004 -3.68527 0
M  V30 1832 H 162.187 5.08934 -4.49626 0
M  V30 1833 H 160.133 6.07336 -2.47949 0
M  V30 1834 H 160.05 6.28777 -4.19732 0
M  V30 1835 H 161.318 7.06377 -3.29623 0
M  V30 1836 N 165.547 1.27147 0.931209 0
M  V30 1837 C 166.794 1.13278 1.67852 0
M  V30 1838 C 167.122 -0.32204 1.91815 0
M  V30 1839 O 166.377 -1.25224 1.50391 0
M  V30 1840 C 166.676 1.8579 3.05314 0
M  V30 1841 C 166.342 3.35657 3.01073 0
M  V30 1842 C 165.004 3.76536 2.99623 0
M  V30 1843 C 167.356 4.31299 2.92627 0
M  V30 1844 C 164.684 5.11426 2.87506 0
M  V30 1845 C 167.036 5.66242 2.82051 0
M  V30 1846 C 165.7 6.06418 2.7895 0
M  V30 1847 H 164.97 0.414515 0.614214 0
M  V30 1848 H 167.617 1.57712 1.08624 0
M  V30 1849 H 165.922 1.33854 3.68226 0
M  V30 1850 H 167.619 1.72491 3.62005 0
M  V30 1851 H 164.209 3.03146 3.02986 0
M  V30 1852 H 168.393 4.00692 2.92848 0
M  V30 1853 H 163.649 5.41705 2.83489 0
M  V30 1854 H 167.823 6.40026 2.74481 0
M  V30 1855 H 165.45 7.10895 2.69318 0
M  V30 1856 N 167.025 -1.13721 1.09112 0
M  V30 1857 C 168.271 -1.85198 0.826414 0
M  V30 1858 C 168.604 -1.83129 -0.646319 0
M  V30 1859 O 167.879 -1.2671 -1.47563 0
M  V30 1860 C 168.162 -3.33507 1.35812 0
M  V30 1861 C 168.015 -3.44108 2.89672 0
M  V30 1862 C 169.334 -4.28838 0.989256 0
M  V30 1863 H 166.453 -0.67243 0.301675 0
M  V30 1864 H 169.095 -1.33499 1.35197 0
M  V30 1865 H 167.245 -3.77666 0.911082 0
M  V30 1866 H 168.917 -3.08684 3.428 0
M  V30 1867 H 167.16 -2.85087 3.26967 0
M  V30 1868 H 167.831 -4.48388 3.21951 0
M  V30 1869 H 170.307 -3.92734 1.37475 0
M  V30 1870 H 169.183 -5.31051 1.38838 0
M  V30 1871 H 169.444 -4.4198 -0.102924 0
M  V30 1872 N 168.503 -0.877838 -1.30888 0
M  V30 1873 C 169.413 -0.343096 -2.32078 0
M  V30 1874 C 170.429 0.551022 -1.65045 0
M  V30 1875 O 171.605 0.445854 -1.96403 0
M  V30 1876 C 168.67 0.439905 -3.43898 0
M  V30 1877 C 167.731 -0.483111 -4.26573 0
M  V30 1878 C 166.964 0.262616 -5.33053 0
M  V30 1879 O 167.187 1.48967 -5.50604 0
M  V30 1880 O 166.121 -0.383593 -6.00676 0
M  V30 1881 H 169.947 -1.18203 -2.79753 0
M  V30 1882 H 167.532 -0.64145 -1.34929 0
M  V30 1883 H 169.414 0.883504 -4.12034 0
M  V30 1884 H 168.089 1.25526 -2.98371 0
M  V30 1885 H 166.996 -0.975374 -3.61161 0
M  V30 1886 H 168.329 -1.26427 -4.75686 0
M  V30 1887 N 169.982 1.44106 -0.638065 0
M  V30 1888 C 170.93 2.3248 0.0748149 0
M  V30 1889 C 171.924 1.47746 0.828702 0
M  V30 1890 O 173.13 1.64049 0.740816 0
M  V30 1891 H 169.505 0.750771 0.0429686 0
M  V30 1892 H 171.476 2.90348 -0.688504 0
M  V30 1893 C 170.225 3.31843 1.03805 0
M  V30 1894 H 169.548 3.97059 0.467375 0
M  V30 1895 H 170.988 3.96345 1.50622 0
M  V30 1896 C 169.447 2.61291 2.1267 0
M  V30 1897 O 169.977 2.41702 3.20847 0
M  V30 1898 N 168.183 2.20915 1.88798 0
M  V30 1899 H 167.73 2.37047 1.00829 0
M  V30 1900 H 167.688 1.74038 2.61836 0
M  V30 1901 N 171.46 0.379036 1.52974 0
M  V30 1902 C 172.37 -0.468639 2.29872 0
M  V30 1903 C 173.386 -1.08067 1.36373 0
M  V30 1904 O 174.562 -1.08871 1.69438 0
M  V30 1905 C 171.627 -1.58594 3.083 0
M  V30 1906 C 170.688 -1.00007 4.17489 0
M  V30 1907 C 169.921 -2.06413 4.92168 0
M  V30 1908 O 170.144 -3.27751 4.66835 0
M  V30 1909 O 169.078 -1.68717 5.7777 0
M  V30 1910 H 172.904 0.157508 3.03291 0
M  V30 1911 H 170.489 0.143035 1.48714 0
M  V30 1912 H 172.371 -2.23525 3.57232 0
M  V30 1913 H 171.046 -2.19724 2.37703 0
M  V30 1914 H 169.953 -0.314299 3.72777 0
M  V30 1915 H 171.286 -0.433135 4.90291 0
M  V30 1916 N 172.938 -1.57226 0.108567 0
M  V30 1917 C 174.349 -1.8195 -0.418464 0
M  V30 1918 C 174.7 -1.02508 -1.67292 0
M  V30 1919 O 173.825 -0.258496 -2.14851 0
M  V30 1920 C 174.42 -3.30028 -0.765979 0
M  V30 1921 C 172.979 -3.55469 -1.23769 0
M  V30 1922 C 172.126 -2.7625 -0.241106 0
M  V30 1923 H 175.077 -1.55149 0.33384 0
M  V30 1924 H 175.098 -3.44086 -1.62434 0
M  V30 1925 H 174.61 -3.87821 0.147219 0
M  V30 1926 H 172.711 -3.03022 -2.16814 0
M  V30 1927 H 172.824 -4.6408 -1.19022 0
M  V30 1928 H 171.188 -2.44133 -0.72602 0
M  V30 1929 H 171.971 -3.36797 0.665007 0
M  V30 1930 N 174.416 0.165178 -1.56732 0
M  V30 1931 C 175.364 1.22369 -1.97809 0
M  V30 1932 C 176.358 1.45488 -0.867741 0
M  V30 1933 O 177.564 1.45995 -1.05288 0
M  V30 1934 H 173.939 0.411486 -0.629431 0
M  V30 1935 H 175.91 0.850425 -2.86025 0
M  V30 1936 C 174.659 2.55403 -2.35934 0
M  V30 1937 H 173.982 2.38438 -3.20916 0
M  V30 1938 H 175.422 3.2814 -2.68514 0
M  V30 1939 C 173.881 3.14611 -1.20506 0
M  V30 1940 O 174.411 3.98626 -0.496016 0
M  V30 1941 N 172.617 2.7379 -0.97403 0
M  V30 1942 H 172.164 2.0557 -1.55238 0
M  V30 1943 H 172.122 3.1374 -0.203573 0
M  V30 1944 N 175.894 1.51508 0.433938 0
M  V30 1945 C 176.824 1.76016 1.53429 0
M  V30 1946 C 177.805 0.610112 1.58782 0
M  V30 1947 O 178.99 0.853177 1.74455 0
M  V30 1948 C 176.12 1.88831 2.9148 0
M  V30 1949 C 175.074 3.04288 3.00987 0
M  V30 1950 C 174.4 3.0229 4.4105 0
M  V30 1951 C 175.7 4.44193 2.74754 0
M  V30 1952 H 177.394 2.68152 1.33171 0
M  V30 1953 H 174.94 1.29035 0.639214 0
M  V30 1954 H 176.893 2.04559 3.6842 0
M  V30 1955 H 175.617 0.933455 3.12976 0
M  V30 1956 H 174.276 2.8827 2.26486 0
M  V30 1957 H 173.924 2.04576 4.59519 0
M  V30 1958 H 173.624 3.79822 4.4834 0
M  V30 1959 H 175.148 3.20116 5.1996 0
M  V30 1960 H 176.562 4.60544 3.41426 0
M  V30 1961 H 174.959 5.23457 2.9345 0
M  V30 1962 H 176.029 4.53996 1.70339 0
M  V30 1963 N 177.372 -0.689602 1.41712 0
M  V30 1964 C 178.612 -1.46184 1.42862 0
M  V30 1965 C 178.976 -1.91962 0.0382204 0
M  V30 1966 O 180.177 -2.68694 -0.0755019 0
M  V30 1967 C 178.448 -2.6371 2.4123 0
M  V30 1968 S 180.007 -3.52768 2.6096 0
M  V30 1969 H 176.825 -0.49947 0.506015 0
M  V30 1970 H 179.427 -0.804107 1.78198 0
M  V30 1971 H 178.131 -2.28293 3.41044 0
M  V30 1972 H 177.662 -3.3437 2.07269 0
M  V30 1973 H 179.677 -4.59146 1.88148 0
M  V30 1974 N 178.85 -1.27639 -0.924453 0
M  V30 1975 C 180.08 -1.16819 -1.70402 0
M  V30 1976 C 180.488 0.277191 -1.87158 0
M  V30 1977 O 179.831 1.20025 -1.39067 0
M  V30 1978 C 179.893 -1.78305 -3.12166 0
M  V30 1979 C 179.557 -3.27502 -3.18734 0
M  V30 1980 C 180.554 -4.2409 -3.00738 0
M  V30 1981 C 178.239 -3.68269 -3.4159 0
M  V30 1982 C 180.233 -5.59422 -3.05492 0
M  V30 1983 C 177.92 -5.0373 -3.45977 0
M  V30 1984 C 178.918 -5.99116 -3.27946 0
M  V30 1985 O 178.606 -7.32108 -3.32074 0
M  V30 1986 H 178.338 -0.406931 -0.539799 0
M  V30 1987 H 180.892 -1.69078 -1.16626 0
M  V30 1988 H 179.122 -1.20528 -3.67437 0
M  V30 1989 H 180.811 -1.62154 -3.72103 0
M  V30 1990 H 181.577 -3.93931 -2.82919 0
M  V30 1991 H 177.456 -2.94496 -3.54673 0
M  V30 1992 H 181 -6.33852 -2.91337 0
M  V30 1993 H 176.897 -5.33543 -3.63321 0
M  V30 1994 H 177.665 -7.40598 -3.48507 0
M  V30 1995 N 180.328 1.1314 -1.09713 0
M  V30 1996 C 181.276 2.20717 -0.733934 0
M  V30 1997 C 182.27 1.6729 0.266506 0
M  V30 1998 O 183.476 1.79547 0.127656 0
M  V30 1999 H 179.851 0.719292 -0.21937 0
M  V30 2000 H 181.822 2.48611 -1.6503 0
M  V30 2001 C 180.571 3.47265 -0.173849 0
M  V30 2002 H 179.894 3.88716 -0.934873 0
M  V30 2003 H 181.334 4.23979 0.0423126 0
M  V30 2004 C 179.793 3.18724 1.09164 0
M  V30 2005 O 180.323 3.37762 2.17439 0
M  V30 2006 N 178.529 2.72583 1.00732 0
M  V30 2007 H 178.076 2.57291 0.126121 0
M  V30 2008 H 178.034 2.53862 1.85476 0
M  V30 2009 N 181.806 0.884767 1.30421 0
M  V30 2010 C 182.769 0.356277 2.26414 0
M  V30 2011 C 183.769 -0.501124 1.52792 0
M  V30 2012 O 184.959 -0.30831 1.7145 0
M  V30 2013 C 182.091 -0.492316 3.37326 0
M  V30 2014 H 183.284 1.20389 2.74675 0
M  V30 2015 H 180.837 0.661607 1.41607 0
M  V30 2016 H 181.572 -1.36052 2.94381 0
M  V30 2017 H 181.357 0.121832 3.91911 0
M  V30 2018 H 182.847 -0.853871 4.08777 0
M  V30 2019 N 183.284 -1.43765 0.645699 0
M  V30 2020 C 184.216 -2.29027 -0.0890605 0
M  V30 2021 C 185.229 -1.42093 -0.794563 0
M  V30 2022 O 186.418 -1.66104 -0.653575 0
M  V30 2023 C 183.518 -3.18831 -1.14891 0
M  V30 2024 C 182.691 -4.34261 -0.523043 0
M  V30 2025 C 181.75 -5.04994 -1.47878 0
M  V30 2026 O 180.776 -5.6052 -0.990277 0
M  V30 2027 N 181.978 -5.07795 -2.81291 0
M  V30 2028 H 184.743 -2.92727 0.64272 0
M  V30 2029 H 182.304 -1.54373 0.487924 0
M  V30 2030 H 184.296 -3.63015 -1.78892 0
M  V30 2031 H 182.866 -2.56782 -1.78275 0
M  V30 2032 H 182.086 -3.93088 0.295896 0
M  V30 2033 H 183.374 -5.08728 -0.0858147 0
M  V30 2034 H 182.772 -4.64042 -3.23546 0
M  V30 2035 H 181.329 -5.55721 -3.40614 0
M  V30 2036 N 184.763 -0.387143 -1.52771 0
M  V30 2037 C 185.726 0.436939 -2.24997 0
M  V30 2038 C 186.726 0.991991 -1.26555 0
M  V30 2039 O 187.916 0.874335 -1.50669 0
M  V30 2040 C 185.048 1.61281 -3.00335 0
M  V30 2041 H 186.241 -0.195365 -2.99263 0
M  V30 2042 H 183.794 -0.139218 -1.55679 0
M  V30 2043 H 184.529 2.2826 -2.30364 0
M  V30 2044 H 184.314 1.22154 -3.72587 0
M  V30 2045 H 185.804 2.19629 -3.5518 0
M  V30 2046 N 186.241 1.57166 -0.116904 0
M  V30 2047 C 187.49 1.94298 0.541407 0
M  V30 2048 C 187.803 1.00236 1.67964 0
M  V30 2049 O 189.009 1.26826 2.40057 0
M  V30 2050 C 187.465 3.45306 1.01449 0
M  V30 2051 C 187.073 4.47899 -0.0951738 0
M  V30 2052 C 188.817 3.91361 1.6443 0
M  V30 2053 C 186.724 5.90083 0.394491 0
M  V30 2054 H 185.654 0.725308 0.206019 0
M  V30 2055 H 188.305 1.82446 -0.196419 0
M  V30 2056 H 186.687 3.52385 1.80667 0
M  V30 2057 H 187.861 4.52486 -0.871374 0
M  V30 2058 H 186.176 4.11583 -0.631505 0
M  V30 2059 H 188.773 4.95004 2.02176 0
M  V30 2060 H 189.116 3.3122 2.52189 0
M  V30 2061 H 189.649 3.87073 0.917559 0
M  V30 2062 H 186.388 6.53974 -0.447004 0
M  V30 2063 H 185.908 5.88921 1.13722 0
M  V30 2064 H 187.587 6.41307 0.856399 0
M  V30 2065 N 187.719 -0.156864 1.56817 0
M  V30 2066 C 188.966 -0.871125 1.82805 0
M  V30 2067 C 189.294 -1.81611 0.696262 0
M  V30 2068 O 188.549 -1.93141 -0.315459 0
M  V30 2069 C 188.848 -1.68737 3.1506 0
M  V30 2070 C 188.514 -0.890045 4.42028 0
M  V30 2071 C 187.176 -0.670042 4.76512 0
M  V30 2072 C 189.528 -0.331769 5.20143 0
M  V30 2073 C 186.856 0.119104 5.86579 0
M  V30 2074 C 189.208 0.444365 6.31037 0
M  V30 2075 C 187.872 0.675035 6.64078 0
M  V30 2076 H 187.142 -0.318767 0.668931 0
M  V30 2077 H 189.789 -0.135274 1.91022 0
M  V30 2078 H 188.094 -2.49304 3.0225 0
M  V30 2079 H 189.791 -2.24331 3.3238 0
M  V30 2080 H 186.381 -1.07157 4.14988 0
M  V30 2081 H 190.565 -0.489043 4.93885 0
M  V30 2082 H 185.821 0.307417 6.10627 0
M  V30 2083 H 189.995 0.884139 6.90765 0
M  V30 2084 H 187.622 1.28839 7.49203 0
M  V30 2085 N 189.197 -1.51736 -0.425897 0
M  V30 2086 C 190.144 -1.73875 -1.51776 0
M  V30 2087 C 191.114 -0.580702 -1.55618 0
M  V30 2088 O 192.299 -0.81641 -1.72451 0
M  V30 2089 C 189.439 -1.88012 -2.89388 0
M  V30 2090 C 188.552 -3.15606 -2.94986 0
M  V30 2091 C 187.687 -3.20271 -4.23793 0
M  V30 2092 C 186.726 -4.42134 -4.23302 0
M  V30 2093 N 185.863 -4.44284 -5.43651 0
M  V30 2094 H 190.703 -2.67071 -1.32201 0
M  V30 2095 H 188.24 -1.32351 -0.642008 0
M  V30 2096 H 190.198 -1.9419 -3.69251 0
M  V30 2097 H 188.828 -0.98213 -3.07496 0
M  V30 2098 H 187.88 -3.18681 -2.07717 0
M  V30 2099 H 189.192 -4.05486 -2.90486 0
M  V30 2100 H 188.346 -3.25428 -5.12036 0
M  V30 2101 H 187.085 -2.28299 -4.30965 0
M  V30 2102 H 186.09 -4.3714 -3.3345 0
M  V30 2103 H 187.315 -5.35382 -4.17783 0
M  V30 2104 H 185.261 -3.55188 -5.51523 0
M  V30 2105 H 185.178 -5.27988 -5.41078 0
M  V30 2106 H 186.446 -4.53649 -6.33895 0
M  V30 2107 N 190.675 0.682077 -1.42076 0
M  V30 2108 C 191.607 1.80755 -1.40926 0
M  V30 2109 C 192.62 1.59833 -0.309398 0
M  V30 2110 O 193.809 1.69087 -0.572014 0
M  V30 2111 C 190.909 3.17744 -1.17865 0
M  V30 2112 C 190.082 3.65578 -2.40149 0
M  V30 2113 C 189.141 4.81277 -2.12742 0
M  V30 2114 O 188.167 4.92197 -2.85887 0
M  V30 2115 N 189.369 5.69474 -1.12602 0
M  V30 2116 H 192.134 1.82229 -2.37935 0
M  V30 2117 H 189.695 0.864903 -1.36861 0
M  V30 2118 H 191.687 3.9279 -0.9746 0
M  V30 2119 H 190.257 3.11214 -0.294068 0
M  V30 2120 H 189.477 2.81291 -2.76169 0
M  V30 2121 H 190.765 3.94278 -3.21593 0
M  V30 2122 H 190.163 5.63297 -0.520899 0
M  V30 2123 H 188.72 6.44363 -0.981842 0
M  V30 2124 N 192.153 1.28127 0.917671 0
M  V30 2125 C 193.1 1.11717 2.0196 0
M  V30 2126 C 194.07 0.0153929 1.66093 0
M  V30 2127 O 195.255 0.179596 1.89953 0
M  V30 2128 C 192.395 0.780927 3.36148 0
M  V30 2129 C 191.508 1.96135 3.84909 0
M  V30 2130 C 190.643 1.56609 5.0759 0
M  V30 2131 C 189.682 2.71339 5.48673 0
M  V30 2132 N 188.819 2.32332 6.62545 0
M  V30 2133 H 193.659 2.06003 2.15329 0
M  V30 2134 H 191.196 1.02535 1.05475 0
M  V30 2135 H 193.154 0.56675 4.13333 0
M  V30 2136 H 191.784 -0.124998 3.22558 0
M  V30 2137 H 190.836 2.28777 3.03916 0
M  V30 2138 H 192.148 2.82165 4.1132 0
M  V30 2139 H 191.302 1.31374 5.92305 0
M  V30 2140 H 190.041 0.677014 4.82978 0
M  V30 2141 H 189.046 2.97276 4.62501 0
M  V30 2142 H 190.271 3.60882 5.75274 0
M  V30 2143 H 188.217 1.45889 6.39572 0
M  V30 2144 H 188.134 3.11899 6.88662 0
M  V30 2145 H 189.402 2.10371 7.50576 0
M  V30 2146 N 193.631 -1.12557 1.10312 0
M  V30 2147 C 194.561 -2.20341 0.772798 0
M  V30 2148 C 195.542 -1.68198 -0.25365 0
M  V30 2149 O 196.727 -1.93831 -0.119699 0
M  V30 2150 C 193.857 -3.46709 0.202443 0
M  V30 2151 C 192.811 -4.11996 1.15943 0
M  V30 2152 C 192.137 -5.328 0.450345 0
M  V30 2153 C 193.437 -4.5828 2.50552 0
M  V30 2154 H 195.131 -2.48229 1.674 0
M  V30 2155 H 192.677 -1.19308 0.806326 0
M  V30 2156 H 194.63 -4.2138 -0.0407752 0
M  V30 2157 H 193.354 -3.18245 -0.734001 0
M  V30 2158 H 192.013 -3.39305 1.38808 0
M  V30 2159 H 191.661 -5.00602 -0.490531 0
M  V30 2160 H 191.361 -5.7743 1.08851 0
M  V30 2161 H 192.885 -6.10219 0.215642 0
M  V30 2162 H 194.299 -5.2433 2.31843 0
M  V30 2163 H 192.696 -5.13683 3.10242 0
M  V30 2164 H 193.766 -3.72329 3.10643 0
M  V30 2165 N 195.109 -0.891671 -1.2995 0
M  V30 2166 C 196.52 -0.563104 -1.78006 0
M  V30 2167 C 196.871 0.920978 -1.73241 0
M  V30 2168 O 195.996 1.71987 -1.31337 0
M  V30 2169 C 196.591 -1.01539 -3.23226 0
M  V30 2170 C 195.15 -0.738124 -3.69092 0
M  V30 2171 C 194.297 -1.19461 -2.50249 0
M  V30 2172 H 197.248 -1.07522 -1.16725 0
M  V30 2173 H 197.269 -0.347217 -3.78912 0
M  V30 2174 H 196.781 -2.09555 -3.26662 0
M  V30 2175 H 194.882 0.329766 -3.71138 0
M  V30 2176 H 194.995 -1.33037 -4.60259 0
M  V30 2177 H 193.359 -0.613787 -2.47194 0
M  V30 2178 H 194.142 -2.28265 -2.56417 0
M  V30 2179 N 196.587 1.43421 -0.653314 0
M  V30 2180 C 197.833 2.02111 -0.166992 0
M  V30 2181 C 198.166 1.51423 1.21592 0
M  V30 2182 O 197.441 0.707389 1.8118 0
M  V30 2183 C 197.724 3.5966 -0.177948 0
M  V30 2184 C 197.577 4.20579 -1.59478 0
M  V30 2185 C 198.896 4.37413 0.4856 0
M  V30 2186 H 196.015 0.734374 -0.0621557 0
M  V30 2187 H 198.657 1.70717 -0.834016 0
M  V30 2188 H 196.807 3.86537 0.390032 0
M  V30 2189 H 198.479 4.04732 -2.21336 0
M  V30 2190 H 196.722 3.77226 -2.14204 0
M  V30 2191 H 197.393 5.29665 -1.5543 0
M  V30 2192 H 199.869 4.161 0.00234528 0
M  V30 2193 H 198.745 5.47075 0.447207 0
M  V30 2194 H 199.006 4.13672 1.55974 0
M  V30 2195 N 198.065 0.39524 1.52563 0
M  V30 2196 C 199.028 -0.425001 2.25225 0
M  V30 2197 C 200.028 -0.985266 1.27079 0
M  V30 2198 O 201.218 -0.866332 1.5113 0
M  V30 2199 C 198.35 -1.59686 3.01186 0
M  V30 2200 H 199.543 0.211233 2.99155 0
M  V30 2201 H 197.096 0.147472 1.55603 0
M  V30 2202 H 197.831 -2.27035 2.31572 0
M  V30 2203 H 197.616 -1.20176 3.73229 0
M  V30 2204 H 199.106 -2.17743 3.5634 0
M  V30 2205 N 199.544 -1.57102 0.125237 0
M  V30 2206 C 200.792 -1.95021 -0.530198 0
M  V30 2207 C 201.113 -1.00982 -1.66816 0
M  V30 2208 O 200.383 -0.0672693 -1.95784 0
M  V30 2209 H 198.963 -0.720046 -0.198853 0
M  V30 2210 H 201.625 -1.93916 0.19564 0
M  V30 2211 H 200.721 -2.98211 -0.920681 0
M  V30 2212 N 201.022 0.148545 -1.56898 0
M  V30 2213 C 202.299 0.890019 -1.74178 0
M  V30 2214 C 202.679 1.99407 -0.692839 0
M  V30 2215 O 202.027 2.26671 0.288505 0
M  V30 2216 C 202.237 1.43389 -3.18183 0
M  V30 2217 C 203.585 1.89791 -3.79822 0
M  V30 2218 O 204.609 1.53134 -3.21603 0
M  V30 2219 O 203.468 2.57387 -4.82093 0
M  V30 2220 H 200.562 0.420496 -0.712118 0
M  V30 2221 H 203.108 0.134591 -1.69165 0
M  V30 2222 H 201.88 0.640383 -3.86024 0
M  V30 2223 H 201.503 2.25287 -3.27615 0
M  V30 2224 N 202.5 1.5196 0.417844 0
M  V30 2225 C 203.748 1.65263 1.16329 0
M  V30 2226 C 204.069 0.380634 1.91249 0
M  V30 2227 O 203.339 -0.604214 1.86349 0
M  V30 2228 H 201.919 0.60912 0.432414 0
M  V30 2229 H 204.581 1.88969 0.477162 0
M  V30 2230 H 203.677 2.4896 1.88217 0
M  V30 2231 N 203.978 -0.674533 1.42435 0
M  V30 2232 C 205.226 -1.43175 1.42637 0
M  V30 2233 C 205.547 -1.94951 0.0438992 0
M  V30 2234 O 204.817 -1.7308 -0.917607 0
M  V30 2235 H 203.397 -0.531307 0.525092 0
M  V30 2236 H 206.059 -0.797006 1.77859 0
M  V30 2237 H 205.155 -2.28463 2.12629 0
M  V30 2238 N 205.456 -1.28612 -0.910864 0
M  V30 2239 C 206.386 -1.15326 -2.03032 0
M  V30 2240 C 207.367 -0.0502924 -1.70026 0
M  V30 2241 O 208.552 -0.227797 -1.92859 0
M  V30 2242 C 205.682 -0.817343 -3.37545 0
M  V30 2243 C 204.636 -1.8754 -3.84724 0
M  V30 2244 C 203.962 -1.39305 -5.16235 0
M  V30 2245 C 205.262 -3.28244 -4.06267 0
M  V30 2246 H 206.956 -2.08975 -2.14406 0
M  V30 2247 H 204.502 -1.00612 -1.03021 0
M  V30 2248 H 206.455 -0.711151 -4.15356 0
M  V30 2249 H 205.179 0.154846 -3.26233 0
M  V30 2250 H 203.838 -1.97079 -3.09121 0
M  V30 2251 H 203.486 -0.409846 -5.01328 0
M  V30 2252 H 203.186 -2.10057 -5.48771 0
M  V30 2253 H 204.71 -1.30014 -5.96598 0
M  V30 2254 H 206.124 -3.21611 -4.74594 0
M  V30 2255 H 204.521 -3.96855 -4.5014 0
M  V30 2256 H 205.591 -3.72048 -3.10979 0
M  V30 2257 N 206.934 1.1197 -1.10907 0
M  V30 2258 C 208.18 1.8386 -0.855773 0
M  V30 2259 C 208.513 1.84134 0.617103 0
M  V30 2260 O 207.788 1.29041 1.45529 0
M  V30 2261 C 208.071 3.31305 -1.411 0
M  V30 2262 C 207.924 3.39456 -2.9511 0
M  V30 2263 C 209.243 4.2721 -1.05736 0
M  V30 2264 H 206.362 0.667545 -0.312334 0
M  V30 2265 H 209.004 1.31331 -1.37303 0
M  V30 2266 H 207.154 3.76169 -0.97105 0
M  V30 2267 H 208.826 3.03191 -3.47668 0
M  V30 2268 H 207.069 2.79849 -3.31462 0
M  V30 2269 H 207.74 4.43209 -3.29044 0
M  V30 2270 H 210.216 3.90497 -1.43706 0
M  V30 2271 H 209.092 5.28775 -1.47269 0
M  V30 2272 H 209.353 4.42088 0.0325958 0
M  V30 2273 N 208.412 0.89855 1.29475 0
M  V30 2274 C 209.652 0.530771 1.97388 0
M  V30 2275 C 210.016 -0.905832 1.69289 0
M  V30 2276 O 211.217 -1.38042 2.30646 0
M  V30 2277 C 209.488 0.81369 3.48014 0
M  V30 2278 S 211.047 0.550048 4.35339 0
M  V30 2279 H 207.865 0.196956 0.683176 0
M  V30 2280 H 210.467 1.16074 1.57312 0
M  V30 2281 H 209.171 1.85749 3.65958 0
M  V30 2282 H 208.702 0.171795 3.93025 0
M  V30 2283 H 210.717 -0.605423 4.92493 0
M  V30 2284 N 209.89 -1.43072 0.660911 0
M  V30 2285 C 211.301 -1.84932 0.256348 0
M  V30 2286 C 211.652 -1.55325 -1.19868 0
M  V30 2287 O 210.777 -1.00607 -1.91591 0
M  V30 2288 C 211.372 -3.35684 0.458475 0
M  V30 2289 C 209.931 -3.76245 0.108161 0
M  V30 2290 C 209.078 -2.66749 0.757641 0
M  V30 2291 H 212.029 -1.33116 0.864051 0
M  V30 2292 H 212.05 -3.79365 -0.293683 0
M  V30 2293 H 211.562 -3.572 1.51755 0
M  V30 2294 H 209.663 -3.60338 -0.948014 0
M  V30 2295 H 209.776 -4.76058 0.538992 0
M  V30 2296 H 208.14 -2.53989 0.190185 0
M  V30 2297 H 208.923 -2.91092 1.81989 0
M  V30 2298 N 211.368 -0.403325 -1.52352 0
M  V30 2299 C 212.598 0.17376 -2.05868 0
M  V30 2300 C 213.006 1.39898 -1.27378 0
M  V30 2301 O 212.349 1.80939 -0.31729 0
M  V30 2302 C 212.411 0.594756 -3.54546 0
M  V30 2303 C 212.075 -0.518926 -4.54044 0
M  V30 2304 C 213.072 -1.3807 -5.01231 0
M  V30 2305 C 210.757 -0.689961 -4.97539 0
M  V30 2306 C 212.751 -2.39852 -5.90551 0
M  V30 2307 C 210.438 -1.71109 -5.86656 0
M  V30 2308 C 211.436 -2.56378 -6.33056 0
M  V30 2309 O 211.124 -3.56743 -7.20409 0
M  V30 2310 H 210.856 0.0264951 -0.675481 0
M  V30 2311 H 213.41 -0.571179 -1.97299 0
M  V30 2312 H 211.64 1.39189 -3.60782 0
M  V30 2313 H 213.329 1.0991 -3.90736 0
M  V30 2314 H 214.095 -1.25994 -4.68349 0
M  V30 2315 H 209.974 -0.035939 -4.60986 0
M  V30 2316 H 213.518 -3.06441 -6.26689 0
M  V30 2317 H 209.415 -1.83218 -6.18952 0
M  V30 2318 H 210.183 -3.52918 -7.38506 0
M  V30 2319 N 212.846 1.57033 -0.133567 0
M  V30 2320 C 213.779 2.11824 0.848872 0
M  V30 2321 C 214.757 1.03833 1.2513 0
M  V30 2322 O 215.941 1.31579 1.34978 0
M  V30 2323 C 213.068 2.62692 2.138 0
M  V30 2324 C 212.114 3.82705 1.88253 0
M  V30 2325 S 212.947 5.2438 1.08563 0
M  V30 2326 C 214.103 5.78627 2.38624 0
M  V30 2327 H 214.336 2.94824 0.38289 0
M  V30 2328 H 211.869 1.5419 0.0804796 0
M  V30 2329 H 213.827 2.92652 2.87863 0
M  V30 2330 H 212.488 1.79847 2.57515 0
M  V30 2331 H 211.681 4.16496 2.83809 0
M  V30 2332 H 211.283 3.53437 1.22305 0
M  V30 2333 H 213.575 5.8924 3.34369 0
M  V30 2334 H 214.518 6.76443 2.09358 0
M  V30 2335 H 214.926 5.06783 2.48658 0
M  V30 2336 N 214.325 -0.140222 1.56975 0
M  V30 2337 C 215.235 -1.19223 2.02047 0
M  V30 2338 C 216.251 -1.46612 0.937062 0
M  V30 2339 O 217.427 -1.58148 1.24704 0
M  V30 2340 C 214.492 -2.50414 2.39778 0
M  V30 2341 C 213.553 -2.30612 3.621 0
M  V30 2342 C 212.786 -3.55547 3.98023 0
M  V30 2343 O 213.009 -4.62004 3.34528 0
M  V30 2344 O 211.943 -3.47808 4.91237 0
M  V30 2345 H 215.769 -0.839559 2.91865 0
M  V30 2346 H 213.354 -0.349453 1.45256 0
M  V30 2347 H 215.236 -3.27747 2.64877 0
M  V30 2348 H 213.911 -2.85198 1.53114 0
M  V30 2349 H 212.818 -1.51207 3.4218 0
M  V30 2350 H 214.151 -2.00741 4.49404 0
M  V30 2351 N 215.803 -1.52179 -0.40978 0
M  V30 2352 C 217.05 -1.66206 -1.15679 0
M  V30 2353 C 217.378 -0.391674 -1.90516 0
M  V30 2354 O 216.633 0.62533 -1.8544 0
M  V30 2355 C 216.932 -2.83428 -2.17723 0
M  V30 2356 C 216.598 -4.21672 -1.59699 0
M  V30 2357 C 215.26 -4.59274 -1.43599 0
M  V30 2358 C 217.612 -5.07825 -1.17317 0
M  V30 2359 C 214.94 -5.80709 -0.836328 0
M  V30 2360 C 217.292 -6.29864 -0.587691 0
M  V30 2361 C 215.956 -6.66216 -0.413818 0
M  V30 2362 H 215.226 -0.608192 -0.423301 0
M  V30 2363 H 217.873 -1.86279 -0.444097 0
M  V30 2364 H 216.178 -2.57687 -2.95135 0
M  V30 2365 H 217.875 -2.91477 -2.75394 0
M  V30 2366 H 214.465 -3.9204 -1.73213 0
M  V30 2367 H 218.649 -4.79359 -1.28565 0
M  V30 2368 H 213.905 -6.07498 -0.689626 0
M  V30 2369 H 218.079 -6.95948 -0.250894 0
M  V30 2370 H 215.706 -7.60182 0.0529471 0
M  V30 2371 N 217.281 0.66697 -1.42791 0
M  V30 2372 C 218.528 1.42699 -1.43678 0
M  V30 2373 C 218.856 1.94419 -0.0560425 0
M  V30 2374 O 218.111 1.7182 0.936831 0
M  V30 2375 C 218.41 2.6349 -2.4147 0
M  V30 2376 C 218.076 2.30267 -3.8767 0
M  V30 2377 C 216.738 2.20918 -4.27491 0
M  V30 2378 C 219.09 2.03435 -4.79858 0
M  V30 2379 C 216.418 1.82873 -5.57471 0
M  V30 2380 C 218.77 1.66892 -6.10188 0
M  V30 2381 C 217.434 1.56058 -6.49001 0
M  V30 2382 H 216.704 0.522171 -0.525755 0
M  V30 2383 H 219.351 0.759785 -1.75783 0
M  V30 2384 H 217.656 3.35279 -2.0272 0
M  V30 2385 H 219.353 3.21684 -2.39417 0
M  V30 2386 H 215.943 2.38449 -3.56146 0
M  V30 2387 H 220.127 2.09586 -4.49875 0
M  V30 2388 H 215.383 1.7306 -5.86396 0
M  V30 2389 H 219.557 1.45157 -6.81104 0
M  V30 2390 H 217.184 1.26348 -7.49627 0
M  V30 2391 N 218.759 1.29093 0.90403 0
M  V30 2392 C 219.706 1.13853 2.00764 0
M  V30 2393 C 220.676 0.0330084 1.66067 0
M  V30 2394 O 221.861 0.199733 1.89752 0
M  V30 2395 C 219.001 0.816537 3.35301 0
M  V30 2396 C 218.114 2.00206 3.82807 0
M  V30 2397 C 217.249 1.61983 5.059 0
M  V30 2398 C 216.288 2.77143 5.45764 0
M  V30 2399 N 215.425 2.39346 6.60044 0
M  V30 2400 H 220.265 2.08276 2.13132 0
M  V30 2401 H 217.802 1.03648 1.04381 0
M  V30 2402 H 219.76 0.610557 4.12708 0
M  V30 2403 H 218.39 -0.090779 3.22672 0
M  V30 2404 H 217.442 2.31988 3.01473 0
M  V30 2405 H 218.754 2.86512 4.08304 0
M  V30 2406 H 217.908 1.37649 5.90879 0
M  V30 2407 H 216.647 0.728202 4.82233 0
M  V30 2408 H 215.652 3.02165 4.59322 0
M  V30 2409 H 216.877 3.66964 5.71414 0
M  V30 2410 H 214.823 1.52665 6.37989 0
M  V30 2411 H 214.74 3.19185 6.85315 0
M  V30 2412 H 216.008 2.1832 7.48303 0
M  V30 2413 N 220.237 -1.11381 1.11499 0
M  V30 2414 C 221.185 -2.19522 0.768956 0
M  V30 2415 C 222.179 -1.67693 -0.239857 0
M  V30 2416 O 223.385 -1.79727 -0.0990755 0
M  V30 2417 H 219.76 -0.715711 0.230786 0
M  V30 2418 H 221.731 -2.45954 1.68964 0
M  V30 2419 C 220.48 -3.46945 0.229073 0
M  V30 2420 H 219.803 -3.8718 0.996596 0
M  V30 2421 H 221.243 -4.23993 0.0251441 0
M  V30 2422 C 219.702 -3.2042 -1.04079 0
M  V30 2423 O 220.232 -3.41178 -2.12038 0
M  V30 2424 N 218.438 -2.74151 -0.963823 0
M  V30 2425 H 217.985 -2.57459 -0.0851722 0
M  V30 2426 H 217.943 -2.56781 -1.81414 0
M  V30 2427 N 221.715 -0.905404 -1.28997 0
M  V30 2428 C 222.625 -0.392246 -2.31298 0
M  V30 2429 C 223.641 0.515889 -1.66176 0
M  V30 2430 O 224.817 0.404093 -1.97304 0
M  V30 2431 C 221.882 0.36686 -3.44754 0
M  V30 2432 C 220.943 -0.573485 -4.25452 0
M  V30 2433 C 220.176 0.149488 -5.33491 0
M  V30 2434 O 220.399 1.37255 -5.5364 0
M  V30 2435 O 219.333 -0.510919 -5.99728 0
M  V30 2436 H 223.159 -1.2411 -2.77183 0
M  V30 2437 H 220.744 -0.669926 -1.33538 0
M  V30 2438 H 222.626 0.795907 -4.13816 0
M  V30 2439 H 221.301 1.19169 -3.00966 0
M  V30 2440 H 220.208 -1.05176 -3.59011 0
M  V30 2441 H 221.541 -1.36489 -4.72897 0
M  V30 2442 N 223.193 1.4272 -0.668489 0
M  V30 2443 C 224.141 2.32586 0.0254857 0
M  V30 2444 C 225.135 1.49471 0.797176 0
M  V30 2445 O 226.341 1.65583 0.705853 0
M  V30 2446 H 222.716 0.751514 0.0270339 0
M  V30 2447 H 224.687 2.88823 -0.749936 0
M  V30 2448 C 223.436 3.3397 0.967427 0
M  V30 2449 H 222.759 3.97961 0.383048 0
M  V30 2450 H 224.199 3.9945 1.42181 0
M  V30 2451 C 222.658 2.65744 2.0708 0
M  V30 2452 O 223.188 2.48454 3.15648 0
M  V30 2453 N 221.394 2.2487 1.8407 0
M  V30 2454 H 220.941 2.39132 0.95778 0
M  V30 2455 H 220.899 1.79552 2.58086 0
M  V30 2456 N 224.671 0.411399 1.52136 0
M  V30 2457 C 225.619 -0.427633 2.28635 0
M  V30 2458 C 226.613 -1.04383 1.33419 0
M  V30 2459 O 227.819 -0.981772 1.50868 0
M  V30 2460 H 224.194 -0.156689 0.735495 0
M  V30 2461 H 226.165 0.238761 2.97443 0
M  V30 2462 C 224.914 -1.53082 3.12188 0
M  V30 2463 H 224.237 -1.06601 3.85326 0
M  V30 2464 H 225.677 -2.09167 3.68816 0
M  V30 2465 C 224.136 -2.49946 2.25895 0
M  V30 2466 O 224.666 -3.53884 1.90076 0
M  V30 2467 N 222.872 -2.2021 1.8962 0
M  V30 2468 H 222.419 -1.35719 2.18948 0
M  V30 2469 H 222.377 -2.85266 1.32176 0
M  V30 2470 N 226.149 -1.5696 0.141893 0
M  V30 2471 C 227.059 -2.20066 -0.812905 0
M  V30 2472 C 228.075 -1.18344 -1.27557 0
M  V30 2473 O 229.251 -1.50902 -1.33381 0
M  V30 2474 C 226.316 -2.80583 -2.03652 0
M  V30 2475 C 225.377 -3.97414 -1.62359 0
M  V30 2476 C 224.61 -4.55036 -2.78887 0
M  V30 2477 O 224.833 -4.11538 -3.94959 0
M  V30 2478 O 223.767 -5.45376 -2.54653 0
M  V30 2479 H 227.593 -3.02157 -0.305746 0
M  V30 2480 H 225.178 -1.49159 -0.0848799 0
M  V30 2481 H 227.06 -3.19067 -2.75272 0
M  V30 2482 H 225.735 -2.01508 -2.5333 0
M  V30 2483 H 224.642 -3.63656 -0.877775 0
M  V30 2484 H 225.975 -4.77994 -1.17401 0
M  V30 2485 N 227.627 0.131896 -1.57047 0
M  V30 2486 C 228.557 1.16384 -2.02428 0
M  V30 2487 C 229.538 1.43936 -0.90644 0
M  V30 2488 O 230.723 1.54599 -1.17528 0
M  V30 2489 C 227.853 2.49328 -2.4177 0
M  V30 2490 C 226.807 2.36266 -3.56879 0
M  V30 2491 C 226.133 3.74057 -3.8208 0
M  V30 2492 C 227.433 1.834 -4.89042 0
M  V30 2493 H 229.127 0.786433 -2.88887 0
M  V30 2494 H 226.673 0.376855 -1.38981 0
M  V30 2495 H 228.626 3.21759 -2.7212 0
M  V30 2496 H 227.35 2.88934 -1.52266 0
M  V30 2497 H 226.009 1.66286 -3.26718 0
M  V30 2498 H 225.657 4.11125 -2.89803 0
M  V30 2499 H 225.357 3.66174 -4.59554 0
M  V30 2500 H 226.881 4.48012 -4.1487 0
M  V30 2501 H 228.295 2.45636 -5.18011 0
M  V30 2502 H 226.692 1.8637 -5.70426 0
M  V30 2503 H 227.762 0.790662 -4.7841 0
M  V30 2504 N 229.106 1.52395 0.401703 0
M  V30 2505 C 230.517 1.58899 0.980202 0
M  V30 2506 C 230.868 0.434032 1.91339 0
M  V30 2507 O 229.993 -0.444619 2.11783 0
M  V30 2508 C 230.588 2.87994 1.78451 0
M  V30 2509 C 229.147 2.96953 2.31292 0
M  V30 2510 C 228.294 2.53903 1.11483 0
M  V30 2511 H 231.245 1.57657 0.18168 0
M  V30 2512 H 231.266 2.73765 2.64259 0
M  V30 2513 H 230.778 3.72035 1.10506 0
M  V30 2514 H 228.879 2.17422 3.02586 0
M  V30 2515 H 228.992 4.01344 2.61649 0
M  V30 2516 H 227.356 2.07925 1.47104 0
M  V30 2517 H 228.139 3.40326 0.450928 0
M  V30 2518 N 230.584 -0.659388 1.43143 0
M  V30 2519 C 231.531 -1.77249 1.47822 0
M  V30 2520 C 232.501 -1.62818 0.328558 0
M  V30 2521 O 233.686 -1.83151 0.534838 0
M  V30 2522 C 230.826 -3.15371 1.40126 0
M  V30 2523 C 229.939 -3.4098 2.65249 0
M  V30 2524 C 229.074 -4.68915 2.49584 0
M  V30 2525 C 228.113 -4.87608 3.70006 0
M  V30 2526 N 227.25 -6.06796 3.53189 0
M  V30 2527 H 232.09 -1.72584 2.42938 0
M  V30 2528 H 229.627 -0.842297 1.20598 0
M  V30 2529 H 231.585 -3.9521 1.33659 0
M  V30 2530 H 230.215 -3.19121 0.485964 0
M  V30 2531 H 229.267 -2.55282 2.8202 0
M  V30 2532 H 230.579 -3.50681 3.54717 0
M  V30 2533 H 229.733 -5.56871 2.4079 0
M  V30 2534 H 228.472 -4.61524 1.5763 0
M  V30 2535 H 227.477 -3.9809 3.79215 0
M  V30 2536 H 228.702 -4.96834 4.62961 0
M  V30 2537 H 226.648 -6.00549 2.63965 0
M  V30 2538 H 226.565 -6.17428 4.36255 0
M  V30 2539 H 227.833 -6.9739 3.48236 0
M  V30 2540 N 232.062 -1.29571 -0.897171 0
M  V30 2541 C 232.992 -1.17473 -2.01798 0
M  V30 2542 C 233.973 -0.068323 -1.69963 0
M  V30 2543 O 235.158 -0.248239 -1.92607 0
M  V30 2544 C 232.288 -0.853099 -3.36659 0
M  V30 2545 C 231.242 -1.9161 -3.82713 0
M  V30 2546 C 230.568 -1.44773 -5.14728 0
M  V30 2547 C 231.868 -3.32535 -4.02763 0
M  V30 2548 H 233.562 -2.11237 -2.12177 0
M  V30 2549 H 231.108 -1.01699 -1.01948 0
M  V30 2550 H 233.061 -0.755165 -4.14578 0
M  V30 2551 H 231.785 0.120236 -3.26379 0
M  V30 2552 H 230.444 -2.00346 -3.07013 0
M  V30 2553 H 230.092 -0.462995 -5.00865 0
M  V30 2554 H 229.792 -2.15865 -5.46513 0
M  V30 2555 H 231.316 -1.36334 -5.95185 0
M  V30 2556 H 232.73 -3.26626 -4.71156 0
M  V30 2557 H 231.127 -4.01607 -4.45905 0
M  V30 2558 H 232.197 -3.75326 -3.07016 0
M  V30 2559 N 233.54 1.10788 -1.12088 0
M  V30 2560 C 234.472 2.16816 -0.743213 0
M  V30 2561 C 235.485 1.6119 0.228412 0
M  V30 2562 O 236.674 1.78497 0.0102931 0
M  V30 2563 C 233.774 3.38809 -0.0787313 0
M  V30 2564 C 232.947 4.23885 -1.0789 0
M  V30 2565 C 232.006 5.24334 -0.442713 0
M  V30 2566 O 231.032 5.58497 -1.09864 0
M  V30 2567 N 232.234 5.75079 0.791457 0
M  V30 2568 H 234.999 2.49825 -1.65552 0
M  V30 2569 H 232.56 1.26373 -1.012 0
M  V30 2570 H 234.552 4.03107 0.358766 0
M  V30 2571 H 233.122 3.03805 0.736275 0
M  V30 2572 H 232.342 3.55939 -1.69414 0
M  V30 2573 H 233.63 4.77562 -1.75533 0
M  V30 2574 H 233.028 5.49517 1.3434 0
M  V30 2575 H 231.585 6.4118 1.17183 0
M  V30 2576 N 235.018 0.912232 1.28515 0
M  V30 2577 C 236.264 0.554851 1.95686 0
M  V30 2578 C 236.619 -0.89138 1.70506 0
M  V30 2579 O 235.912 -1.62529 1.01464 0
M  V30 2580 C 236.106 0.798392 3.48368 0
M  V30 2581 C 235.935 2.26674 3.88393 0
M  V30 2582 C 234.705 2.91657 4.12631 0
M  V30 2583 C 236.903 3.24303 3.99164 0
M  V30 2584 N 234.885 4.28805 4.39317 0
M  V30 2585 C 236.256 4.4661 4.30046 0
M  V30 2586 C 238.311 3.19723 3.81683 0
M  V30 2587 C 237.014 5.64915 4.45268 0
M  V30 2588 C 239.04 4.37325 3.98121 0
M  V30 2589 C 238.402 5.58406 4.29375 0
M  V30 2590 H 234.501 0.252876 0.739985 0
M  V30 2591 H 237.085 1.17565 1.55199 0
M  V30 2592 H 235.256 0.20688 3.87849 0
M  V30 2593 H 236.988 0.405193 4.02666 0
M  V30 2594 H 233.743 2.42393 4.06869 0
M  V30 2595 H 234.167 4.99712 4.56746 0
M  V30 2596 H 238.809 2.27191 3.56573 0
M  V30 2597 H 236.527 6.57927 4.6921 0
M  V30 2598 H 240.113 4.35282 3.86033 0
M  V30 2599 H 238.993 6.47889 4.41825 0
M  V30 2600 N 236.496 -1.42363 0.676048 0
M  V30 2601 C 237.726 -2.05561 0.206967 0
M  V30 2602 C 238.134 -1.50887 -1.14148 0
M  V30 2603 O 237.477 -0.643933 -1.72044 0
M  V30 2604 C 237.539 -3.5944 0.0659508 0
M  V30 2605 C 237.203 -4.36812 1.34331 0
M  V30 2606 C 238.2 -4.67383 2.27704 0
M  V30 2607 C 235.885 -4.76429 1.59125 0
M  V30 2608 C 237.879 -5.36509 3.44147 0
M  V30 2609 C 235.566 -5.45294 2.75857 0
M  V30 2610 C 236.564 -5.75259 3.68193 0
M  V30 2611 O 236.252 -6.42712 4.82883 0
M  V30 2612 H 235.984 -0.668872 0.0979084 0
M  V30 2613 H 238.538 -1.83467 0.923531 0
M  V30 2614 H 236.768 -3.80197 -0.706204 0
M  V30 2615 H 238.457 -4.0427 -0.363418 0
M  V30 2616 H 239.223 -4.37275 2.09799 0
M  V30 2617 H 235.102 -4.52498 0.881258 0
M  V30 2618 H 238.646 -5.59814 4.16238 0
M  V30 2619 H 234.543 -5.7482 2.93688 0
M  V30 2620 H 235.311 -6.61204 4.82444 0
M  V30 2621 N 237.974 -0.419461 -1.51915 0
M  V30 2622 C 238.921 0.400927 -2.27291 0
M  V30 2623 C 239.891 1.03224 -1.30131 0
M  V30 2624 O 241.076 1.05455 -1.59009 0
M  V30 2625 C 238.216 1.50603 -3.10504 0
M  V30 2626 C 237.329 0.89462 -4.22635 0
M  V30 2627 C 236.464 1.97328 -4.93189 0
M  V30 2628 C 235.503 1.33935 -5.97267 0
M  V30 2629 N 234.64 2.3586 -6.61298 0
M  V30 2630 H 239.48 -0.248251 -2.96964 0
M  V30 2631 H 237.017 -0.134266 -1.46486 0
M  V30 2632 H 238.975 2.15783 -3.57062 0
M  V30 2633 H 237.605 2.12509 -2.42981 0
M  V30 2634 H 236.657 0.131583 -3.80172 0
M  V30 2635 H 237.969 0.391641 -4.9726 0
M  V30 2636 H 237.123 2.70211 -5.43204 0
M  V30 2637 H 235.862 2.50994 -4.18155 0
M  V30 2638 H 234.867 0.595896 -5.46561 0
M  V30 2639 H 236.092 0.810252 -6.74249 0
M  V30 2640 H 234.038 2.88639 -5.89087 0
M  V30 2641 H 233.955 1.90403 -7.3163 0
M  V30 2642 H 235.223 3.08282 -7.15949 0
M  V30 2643 N 239.452 1.56882 -0.150215 0
M  V30 2644 C 240.729 1.87844 0.545327 0
M  V30 2645 C 241.109 1.0567 1.82749 0
M  V30 2646 O 240.457 0.144442 2.28043 0
M  V30 2647 C 240.667 3.39526 0.80767 0
M  V30 2648 C 242.015 4.08814 1.14703 0
M  V30 2649 O 243.039 3.44723 0.896917 0
M  V30 2650 O 241.898 5.22004 1.61784 0
M  V30 2651 H 238.992 0.778677 0.278553 0
M  V30 2652 H 241.538 1.68666 -0.187068 0
M  V30 2653 H 240.31 3.91173 -0.0996096 0
M  V30 2654 H 239.933 3.64243 1.59413 0
M  V30 2655 N 240.93 -0.123565 1.57115 0
M  V30 2656 C 242.17 -0.838097 1.86428 0
M  V30 2657 C 242.534 -1.77266 0.737611 0
M  V30 2658 O 243.735 -2.52842 0.912389 0
M  V30 2659 C 242.006 -1.57219 3.20962 0
M  V30 2660 S 243.565 -2.32893 3.71896 0
M  V30 2661 H 240.383 -0.279811 0.653626 0
M  V30 2662 H 242.985 -0.0967034 1.95261 0
M  V30 2663 H 241.689 -0.877522 4.00909 0
M  V30 2664 H 241.22 -2.35405 3.15195 0
M  V30 2665 H 243.235 -3.5853 3.43032 0
M  V30 2666 N 242.408 -1.52605 -0.393616 0
M  V30 2667 C 243.355 -1.77055 -1.48054 0
M  V30 2668 C 244.325 -0.61358 -1.54352 0
M  V30 2669 O 245.51 -0.852806 -1.70681 0
M  V30 2670 C 242.65 -1.94108 -2.85335 0
M  V30 2671 C 241.763 -3.21792 -2.88226 0
M  V30 2672 C 240.898 -3.29188 -4.16904 0
M  V30 2673 C 239.937 -4.51013 -4.13828 0
M  V30 2674 N 239.074 -4.55716 -5.34105 0
M  V30 2675 H 243.914 -2.69815 -1.26506 0
M  V30 2676 H 241.451 -1.33683 -0.61379 0
M  V30 2677 H 243.409 -2.01979 -3.65049 0
M  V30 2678 H 242.039 -1.04713 -3.05344 0
M  V30 2679 H 241.091 -3.23015 -2.00911 0
M  V30 2680 H 242.403 -4.11557 -2.8182 0
M  V30 2681 H 241.557 -3.36216 -5.05018 0
M  V30 2682 H 240.296 -2.37389 -4.26026 0
M  V30 2683 H 239.301 -4.44115 -3.24102 0
M  V30 2684 H 240.526 -5.44123 -4.06333 0
M  V30 2685 H 238.472 -3.66807 -5.43865 0
M  V30 2686 H 238.389 -5.39346 -5.29756 0
M  V30 2687 H 239.657 -4.66993 -6.2413 0
M  V30 2688 N 243.887 0.651787 -1.4349 0
M  V30 2689 C 245.298 1.233 -1.40193 0
M  V30 2690 C 245.649 1.9591 -0.106727 0
M  V30 2691 O 244.774 2.01316 0.793773 0
M  V30 2692 C 245.369 2.24257 -2.53957 0
M  V30 2693 C 243.928 2.77852 -2.5392 0
M  V30 2694 C 243.075 1.52517 -2.3159 0
M  V30 2695 H 246.026 0.443717 -1.52371 0
M  V30 2696 H 246.047 3.0646 -2.25528 0
M  V30 2697 H 245.559 1.71382 -3.4821 0
M  V30 2698 H 243.66 3.34786 -1.63551 0
M  V30 2699 H 243.773 3.25299 -3.51735 0
M  V30 2700 H 242.137 1.79915 -1.80285 0
M  V30 2701 H 242.92 1.01574 -3.27929 0
M  V30 2702 N 245.365 1.30045 0.890287 0
M  V30 2703 C 246.295 1.18541 2.01172 0
M  V30 2704 C 247.276 0.0773356 1.69924 0
M  V30 2705 O 248.461 0.25845 1.92473 0
M  V30 2706 C 245.591 0.870941 3.36202 0
M  V30 2707 C 244.545 1.93637 3.81692 0
M  V30 2708 C 243.871 1.475 5.13953 0
M  V30 2709 C 245.171 3.34666 4.00994 0
M  V30 2710 H 246.865 2.12359 2.11054 0
M  V30 2711 H 244.411 1.02238 1.01407 0
M  V30 2712 H 246.364 0.777141 4.14172 0
M  V30 2713 H 245.088 -0.102926 3.26438 0
M  V30 2714 H 243.747 2.01972 3.05946 0
M  V30 2715 H 243.395 0.489551 5.00612 0
M  V30 2716 H 243.095 2.1876 5.4536 0
M  V30 2717 H 244.619 1.39489 5.94454 0
M  V30 2718 H 246.033 3.2912 4.69417 0
M  V30 2719 H 244.43 4.03966 4.43769 0
M  V30 2720 H 245.5 3.76949 3.05021 0
M  V30 2721 N 246.843 -1.10192 1.12674 0
M  V30 2722 C 247.773 -2.18652 0.819362 0
M  V30 2723 C 248.754 -1.68698 -0.217915 0
M  V30 2724 O 249.939 -1.94041 -0.0785581 0
M  V30 2725 C 247.069 -3.46202 0.27594 0
M  V30 2726 C 246.023 -4.09444 1.24656 0
M  V30 2727 C 245.349 -5.31725 0.563258 0
M  V30 2728 C 246.649 -4.52863 2.60217 0
M  V30 2729 H 248.343 -2.44622 1.72628 0
M  V30 2730 H 245.889 -1.17571 0.831451 0
M  V30 2731 H 247.842 -4.21372 0.0486149 0
M  V30 2732 H 246.566 -3.1973 -0.666331 0
M  V30 2733 H 245.225 -3.36284 1.45974 0
M  V30 2734 H 244.873 -5.0153 -0.384235 0
M  V30 2735 H 244.573 -5.74991 1.21075 0
M  V30 2736 H 246.097 -6.09624 0.34503 0
M  V30 2737 H 247.511 -5.19294 2.42913 0
M  V30 2738 H 245.908 -5.06986 3.21068 0
M  V30 2739 H 246.978 -3.65656 3.18471 0
M  V30 2740 N 248.321 -0.919034 -1.28029 0
M  V30 2741 C 249.251 -0.428581 -2.29533 0
M  V30 2742 C 250.232 0.50659 -1.62381 0
M  V30 2743 O 251.417 0.413195 -1.89753 0
M  V30 2744 C 248.547 0.327388 -3.45753 0
M  V30 2745 C 247.501 -0.519137 -4.2484 0
M  V30 2746 C 246.827 0.365486 -5.33449 0
M  V30 2747 C 248.127 -1.77914 -4.91064 0
M  V30 2748 H 249.821 -1.27687 -2.70807 0
M  V30 2749 H 247.367 -0.615428 -1.30186 0
M  V30 2750 H 249.32 0.681378 -4.15855 0
M  V30 2751 H 248.044 1.20963 -3.03374 0
M  V30 2752 H 246.703 -0.855717 -3.56473 0
M  V30 2753 H 246.351 1.24642 -4.87312 0
M  V30 2754 H 246.051 -0.197356 -5.87268 0
M  V30 2755 H 247.575 0.715241 -6.06396 0
M  V30 2756 H 248.989 -1.49374 -5.53498 0
M  V30 2757 H 247.386 -2.2848 -5.54903 0
M  V30 2758 H 248.456 -2.50382 -4.15255 0
M  V30 2759 N 249.799 1.42003 -0.683588 0
M  V30 2760 C 251.076 1.95112 -0.138075 0
M  V30 2761 C 251.456 1.62359 1.34918 0
M  V30 2762 O 250.804 0.924311 2.08971 0
M  V30 2763 C 251.014 3.46505 -0.416581 0
M  V30 2764 C 252.362 4.23254 -0.337834 0
M  V30 2765 O 253.386 3.54468 -0.35082 0
M  V30 2766 O 252.245 5.45743 -0.287596 0
M  V30 2767 H 249.339 0.826961 -0.00797996 0
M  V30 2768 H 251.885 1.51784 -0.758924 0
M  V30 2769 H 250.657 3.63582 -1.4465 0
M  V30 2770 H 250.28 3.969 0.235839 0
M  V30 2771 N 251.277 0.427512 1.51691 0
M  V30 2772 C 252.225 -0.403359 2.29076 0
M  V30 2773 C 253.219 -1.02962 1.34518 0
M  V30 2774 O 254.425 -0.965715 1.51901 0
M  V30 2775 H 250.8 -0.148879 0.737115 0
M  V30 2776 H 252.771 0.270295 2.97173 0
M  V30 2777 C 251.52 -1.49763 3.13794 0
M  V30 2778 H 250.843 -1.02508 3.86435 0
M  V30 2779 H 252.283 -2.05244 3.71014 0
M  V30 2780 C 250.742 -2.47536 2.28533 0
M  V30 2781 O 251.272 -3.51848 1.93819 0
M  V30 2782 N 249.478 -2.18187 1.91945 0
M  V30 2783 H 249.025 -1.33389 2.20375 0
M  V30 2784 H 248.983 -2.83848 1.35195 0
M  V30 2785 N 252.755 -1.56801 0.158532 0
M  V30 2786 C 254.004 -1.95665 -0.489702 0
M  V30 2787 C 254.317 -1.04654 -1.65248 0
M  V30 2788 O 255.523 -1.33146 -2.3661 0
M  V30 2789 C 253.979 -3.47874 -0.922582 0
M  V30 2790 C 253.587 -4.47489 0.213893 0
M  V30 2791 C 255.331 -3.95583 -1.53996 0
M  V30 2792 C 253.238 -5.90921 -0.237903 0
M  V30 2793 H 252.168 -0.730516 -0.186716 0
M  V30 2794 H 254.819 -1.81861 0.244722 0
M  V30 2795 H 253.201 -3.57051 -1.71261 0
M  V30 2796 H 254.375 -4.50017 0.991036 0
M  V30 2797 H 252.69 -4.09764 0.740407 0
M  V30 2798 H 255.287 -5.0019 -1.8898 0
M  V30 2799 H 255.63 -3.37789 -2.43319 0
M  V30 2800 H 256.163 -3.8937 -0.814611 0
M  V30 2801 H 252.902 -6.52559 0.620236 0
M  V30 2802 H 252.422 -5.91729 -0.980676 0
M  V30 2803 H 254.101 -6.43352 -0.686067 0
M  V30 2804 N 254.233 0.115231 -1.57178 0
M  V30 2805 C 255.183 1.14707 -1.97044 0
M  V30 2806 C 256.167 1.36866 -0.845957 0
M  V30 2807 O 257.359 1.37895 -1.10968 0
M  V30 2808 C 254.488 2.47266 -2.38148 0
M  V30 2809 C 253.574 2.28566 -3.57237 0
M  V30 2810 N 253.965 1.79685 -4.72807 0
M  V30 2811 C 252.263 2.59208 -3.62943 0
M  V30 2812 C 252.964 1.74781 -5.54821 0
M  V30 2813 N 251.94 2.19264 -4.97417 0
M  V30 2814 H 255.742 0.761754 -2.83857 0
M  V30 2815 H 253.256 0.322928 -1.59157 0
M  V30 2816 H 255.253 3.219 -2.64927 0
M  V30 2817 H 253.913 2.86552 -1.52702 0
M  V30 2818 H 254.924 1.49177 -4.9595 0
M  V30 2819 H 251.601 3.02154 -2.88113 0
M  V30 2820 H 252.991 1.38212 -6.57531 0
M  V30 2821 N 255.711 1.52812 0.385517 0
M  V30 2822 C 256.958 1.68026 1.1302 0
M  V30 2823 C 257.286 0.421934 1.89868 0
M  V30 2824 O 256.541 -0.595749 1.86412 0
M  V30 2825 C 256.84 2.86856 2.13187 0
M  V30 2826 C 256.506 4.24159 1.5297 0
M  V30 2827 C 255.168 4.61501 1.36274 0
M  V30 2828 C 257.52 5.09627 1.09223 0
M  V30 2829 C 254.848 5.81966 0.743837 0
M  V30 2830 C 257.2 6.30719 0.487411 0
M  V30 2831 C 255.864 6.6679 0.307777 0
M  V30 2832 H 255.134 0.614849 0.413571 0
M  V30 2833 H 257.781 1.86962 0.414405 0
M  V30 2834 H 256.086 2.6235 2.90998 0
M  V30 2835 H 257.783 2.95821 2.70722 0
M  V30 2836 H 254.373 3.94746 1.66954 0
M  V30 2837 H 258.557 4.81343 1.20922 0
M  V30 2838 H 253.813 6.08519 0.592891 0
M  V30 2839 H 257.987 6.96259 0.140143 0
M  V30 2840 H 255.614 7.60001 -0.173879 0
M  V30 2841 N 257.189 -0.644168 1.43834 0
M  V30 2842 C 258.414 -1.43642 1.49605 0
M  V30 2843 C 258.839 -1.8773 0.117913 0
M  V30 2844 O 258.197 -1.57938 -0.890239 0
M  V30 2845 C 258.245 -2.6416 2.45463 0
M  V30 2846 O 257.349 -3.63538 1.94714 0
M  V30 2847 H 256.69 -0.430329 0.50568 0
M  V30 2848 H 259.22 -0.787448 1.8884 0
M  V30 2849 H 259.23 -3.11864 2.63068 0
M  V30 2850 H 257.905 -2.31414 3.45572 0
M  V30 2851 H 256.482 -3.2273 1.86814 0
M  V30 2852 N 258.668 -1.30515 -0.883378 0
M  V30 2853 C 259.916 -1.19194 -1.63209 0
M  V30 2854 C 260.237 0.253205 -1.93349 0
M  V30 2855 O 259.507 1.17025 -1.57105 0
M  V30 2856 H 258.087 -0.438148 -0.605009 0
M  V30 2857 H 260.749 -1.63663 -1.05832 0
M  V30 2858 H 259.845 -1.75396 -2.58153 0
M  V30 2859 N 260.146 1.09593 -1.13257 0
M  V30 2860 C 261.392 1.82003 -0.89458 0
M  V30 2861 C 261.725 1.85402 0.577906 0
M  V30 2862 O 261 1.32099 1.42759 0
M  V30 2863 C 261.283 3.28237 -1.48096 0
M  V30 2864 C 261.136 3.3312 -3.02244 0
M  V30 2865 C 262.455 4.24871 -1.14774 0
M  V30 2866 H 259.574 0.66077 -0.326424 0
M  V30 2867 H 262.216 1.28389 -1.40058 0
M  V30 2868 H 260.366 3.74024 -1.05062 0
M  V30 2869 H 262.038 2.95748 -3.54021 0
M  V30 2870 H 260.281 2.72756 -3.37323 0
M  V30 2871 H 260.952 4.3613 -3.38371 0
M  V30 2872 H 263.428 3.87361 -1.51957 0
M  V30 2873 H 262.304 5.25532 -1.58452 0
M  V30 2874 H 262.565 4.42058 -0.0611849 0
M  V30 2875 N 261.624 0.925811 1.2754 0
M  V30 2876 C 262.571 0.422045 2.26908 0
M  V30 2877 C 263.541 -0.510029 1.58076 0
M  V30 2878 O 264.726 -0.429599 1.85901 0
M  V30 2879 C 261.866 -0.320837 3.43605 0
M  V30 2880 C 260.979 0.64513 4.27156 0
M  V30 2881 C 260.114 -0.117405 5.3107 0
M  V30 2882 C 259.153 0.841391 6.0629 0
M  V30 2883 N 258.29 0.111604 7.02011 0
M  V30 2884 H 263.13 1.27441 2.69375 0
M  V30 2885 H 260.667 0.639697 1.32462 0
M  V30 2886 H 262.625 -0.76785 4.10073 0
M  V30 2887 H 261.255 -1.13745 3.02096 0
M  V30 2888 H 260.307 1.21067 3.6062 0
M  V30 2889 H 261.619 1.37797 4.79389 0
M  V30 2890 H 260.773 -0.624422 6.03478 0
M  V30 2891 H 259.512 -0.883219 4.79636 0
M  V30 2892 H 258.517 1.35967 5.32722 0
M  V30 2893 H 259.742 1.60696 6.59813 0
M  V30 2894 H 257.688 -0.635999 6.5291 0
M  V30 2895 H 257.605 0.784044 7.51923 0
M  V30 2896 H 258.873 -0.374823 7.78598 0
M  V30 2897 N 263.102 -1.41638 0.69111 0
M  V30 2898 C 264.379 -1.95036 0.148421 0
M  V30 2899 C 264.759 -1.63072 -1.34055 0
M  V30 2900 O 264.107 -0.93538 -2.08478 0
M  V30 2901 C 264.317 -3.46279 0.434951 0
M  V30 2902 C 265.665 -4.23069 0.360275 0
M  V30 2903 O 266.689 -3.54277 0.369613 0
M  V30 2904 O 265.548 -5.45583 0.316534 0
M  V30 2905 H 262.642 -0.826908 0.0123654 0
M  V30 2906 H 265.188 -1.5138 0.766963 0
M  V30 2907 H 263.96 -3.6281 1.46576 0
M  V30 2908 H 263.583 -3.97019 -0.214787 0
M  V30 2909 N 264.58 -0.43555 -1.51462 0
M  V30 2910 C 265.996 -0.0877501 -1.59359 0
M  V30 2911 C 266.196 1.4027 -1.4466 0
M  V30 2912 O 265.252 2.17243 -1.28693 0
M  V30 2913 C 266.565 -0.606264 -2.94525 0
M  V30 2914 C 268.113 -0.566548 -3.0783 0
M  V30 2915 C 268.588 -1.06201 -4.45517 0
M  V30 2916 N 270.079 -1.01992 -4.51832 0
M  V30 2917 C 270.814 -1.37417 -5.5669 0
M  V30 2918 N 270.31 -1.80119 -6.68976 0
M  V30 2919 N 272.103 -1.29245 -5.47039 0
M  V30 2920 H 264.254 -1.40533 -1.59261 0
M  V30 2921 H 266.517 -0.578992 -0.750648 0
M  V30 2922 H 266.223 -1.64901 -3.10645 0
M  V30 2923 H 266.097 -0.0302097 -3.77188 0
M  V30 2924 H 268.484 0.467208 -2.91378 0
M  V30 2925 H 268.565 -1.17898 -2.2701 0
M  V30 2926 H 268.209 -2.09422 -4.62715 0
M  V30 2927 H 268.139 -0.426127 -5.24873 0
M  V30 2928 H 270.63 -0.706308 -3.71241 0
M  V30 2929 H 270.943 -2.05392 -7.45006 0
M  V30 2930 H 269.288 -1.84044 -6.70189 0
M  V30 2931 H 272.479 -0.957522 -4.58202 0
M  V30 2932 H 272.652 -1.57182 -6.28648 0
M  V30 2933 N 266.058 1.56714 -0.166846 0
M  V30 2934 C 266.988 2.20754 0.760913 0
M  V30 2935 C 267.969 1.16178 1.24244 0
M  V30 2936 O 269.154 1.44592 1.29641 0
M  V30 2937 C 266.284 2.84478 1.99223 0
M  V30 2938 C 265.238 3.95053 1.64672 0
M  V30 2939 C 264.564 4.45805 2.95232 0
M  V30 2940 C 265.864 5.14865 0.878155 0
M  V30 2941 H 267.558 2.98537 0.22713 0
M  V30 2942 H 265.104 1.43596 0.107805 0
M  V30 2943 H 267.057 3.27951 2.64624 0
M  V30 2944 H 265.781 2.04056 2.55007 0
M  V30 2945 H 264.44 3.52228 1.01641 0
M  V30 2946 H 264.088 3.62181 3.49047 0
M  V30 2947 H 263.788 5.204 2.7287 0
M  V30 2948 H 265.312 4.91962 3.6167 0
M  V30 2949 H 266.726 5.55059 1.43466 0
M  V30 2950 H 265.123 5.95348 0.753738 0
M  V30 2951 H 266.193 4.84735 -0.126377 0
M  V30 2952 N 267.536 -0.106894 1.57237 0
M  V30 2953 C 268.785 -0.811163 1.8467 0
M  V30 2954 C 269.098 -1.80469 0.754342 0
M  V30 2955 O 270.304 -2.55601 0.915439 0
M  V30 2956 C 268.76 -1.49337 3.27454 0
M  V30 2957 C 268.368 -0.540217 4.44731 0
M  V30 2958 C 270.112 -2.18206 3.64124 0
M  V30 2959 C 268.019 -1.22634 5.78545 0
M  V30 2960 H 266.949 -0.306679 0.688813 0
M  V30 2961 H 269.6 -0.0639887 1.83388 0
M  V30 2962 H 267.982 -2.2876 3.23241 0
M  V30 2963 H 269.156 0.221659 4.60267 0
M  V30 2964 H 267.471 0.042146 4.16379 0
M  V30 2965 H 270.068 -2.70253 4.61376 0
M  V30 2966 H 270.411 -2.96562 2.92158 0
M  V30 2967 H 270.944 -1.45658 3.70174 0
M  V30 2968 H 267.683 -0.483832 6.53712 0
M  V30 2969 H 267.203 -1.95993 5.66874 0
M  V30 2970 H 268.882 -1.75615 6.2271 0
M  V30 2971 N 269.014 -1.53014 -0.377408 0
M  V30 2972 C 270.26 -1.68872 -1.12294 0
M  V30 2973 C 270.593 -0.433224 -1.89306 0
M  V30 2974 O 269.868 0.569258 -1.85983 0
M  V30 2975 C 270.151 -2.93115 -2.09179 0
M  V30 2976 C 270.004 -4.28794 -1.35853 0
M  V30 2977 C 271.323 -3.12928 -3.09458 0
M  V30 2978 H 268.442 -0.614518 -0.406862 0
M  V30 2979 H 271.084 -1.85633 -0.40503 0
M  V30 2980 H 269.234 -2.78956 -2.70399 0
M  V30 2981 H 270.906 -4.54742 -0.775082 0
M  V30 2982 H 269.149 -4.28744 -0.660364 0
M  V30 2983 H 269.82 -5.11837 -2.06706 0
M  V30 2984 H 272.296 -3.26194 -2.58334 0
M  V30 2985 H 271.172 -4.01316 -3.74482 0
M  V30 2986 H 271.433 -2.27669 -3.78971 0
M  V30 2987 N 270.492 0.636531 -1.44174 0
M  V30 2988 C 271.425 1.76139 -1.45087 0
M  V30 2989 C 272.403 1.59611 -0.310326 0
M  V30 2990 O 273.587 1.81568 -0.506477 0
M  V30 2991 C 270.714 3.13648 -1.27839 0
M  V30 2992 C 269.76 3.48838 -2.45386 0
M  V30 2993 S 270.593 3.46927 -4.07924 0
M  V30 2994 C 271.749 4.87064 -3.9309 0
M  V30 2995 H 271.982 1.75096 -2.40268 0
M  V30 2996 H 269.515 0.810666 -1.31406 0
M  V30 2997 H 271.473 3.93002 -1.18575 0
M  V30 2998 H 270.134 3.12235 -0.341787 0
M  V30 2999 H 269.327 4.48886 -2.29167 0
M  V30 3000 H 268.929 2.76935 -2.51362 0
M  V30 3001 H 271.221 5.76153 -3.56446 0
M  V30 3002 H 272.164 5.08337 -4.92949 0
M  V30 3003 H 272.572 4.61384 -3.25246 0
M  V30 3004 N 271.97 1.30982 0.876444 0
M  V30 3005 C 272.918 1.18006 2.00443 0
M  V30 3006 C 273.912 0.0898871 1.69161 0
M  V30 3007 O 275.118 0.251333 1.78237 0
M  V30 3008 H 271.493 0.365196 0.65737 0
M  V30 3009 H 273.464 2.13453 2.0852 0
M  V30 3010 C 272.213 0.897521 3.35916 0
M  V30 3011 H 271.536 1.7285 3.60504 0
M  V30 3012 H 272.976 0.846874 4.15456 0
M  V30 3013 C 271.435 -0.399674 3.34521 0
M  V30 3014 O 271.965 -1.41852 3.7582 0
M  V30 3015 N 270.171 -0.413893 2.87637 0
M  V30 3016 H 269.718 0.41571 2.54224 0
M  V30 3017 H 269.676 -1.28175 2.87086 0
M  V30 3018 N 273.449 -1.08991 1.13837 0
M  V30 3019 C 274.695 -1.81526 0.90422 0
M  V30 3020 C 275.028 -1.85706 -0.568066 0
M  V30 3021 O 274.303 -1.32855 -1.42056 0
M  V30 3022 C 274.586 -3.27447 1.49835 0
M  V30 3023 C 274.439 -3.31512 3.04006 0
M  V30 3024 C 275.758 -4.24256 1.17025 0
M  V30 3025 H 272.877 -0.659029 0.329923 0
M  V30 3026 H 275.519 -1.27644 1.40737 0
M  V30 3027 H 273.669 -3.73462 1.07044 0
M  V30 3028 H 275.341 -2.93867 3.55584 0
M  V30 3029 H 273.584 -2.70963 3.38765 0
M  V30 3030 H 274.255 -4.34329 3.40679 0
M  V30 3031 H 276.731 -3.86549 1.54009 0
M  V30 3032 H 275.607 -5.24684 1.61237 0
M  V30 3033 H 275.868 -4.42019 0.0846274 0
M  V30 3034 N 274.927 -0.932562 -1.27047 0
M  V30 3035 C 275.89 -0.440064 -2.24936 0
M  V30 3036 C 276.89 0.444071 -1.54547 0
M  V30 3037 O 278.08 0.244465 -1.72476 0
M  V30 3038 C 275.212 0.36678 -3.38921 0
M  V30 3039 H 276.405 -1.305 -2.70018 0
M  V30 3040 H 273.958 -0.713707 -1.39054 0
M  V30 3041 H 274.693 1.25033 -2.99228 0
M  V30 3042 H 274.478 -0.267204 -3.91188 0
M  V30 3043 H 275.968 0.701567 -4.11665 0
M  V30 3044 N 276.405 1.4127 -0.698611 0
M  V30 3045 C 277.315 2.34573 -0.0357891 0
M  V30 3046 C 278.331 1.56393 0.762701 0
M  V30 3047 O 279.507 1.8886 0.699564 0
M  V30 3048 C 276.572 3.35159 0.887089 0
M  V30 3049 C 275.633 4.29225 0.0804634 0
M  V30 3050 C 274.866 5.25006 0.959387 0
M  V30 3051 O 275.089 5.26314 2.19886 0
M  V30 3052 O 274.023 6.00519 0.407439 0
M  V30 3053 H 277.849 2.92838 -0.804957 0
M  V30 3054 H 275.434 1.42175 -0.458966 0
M  V30 3055 H 277.316 3.9689 1.41621 0
M  V30 3056 H 275.991 2.79333 1.6357 0
M  V30 3057 H 274.898 3.70833 -0.493328 0
M  V30 3058 H 276.231 4.88157 -0.629547 0
M  V30 3059 N 277.883 0.443576 1.51229 0
M  V30 3060 C 278.83 -0.364716 2.279 0
M  V30 3061 C 279.8 -1.0114 1.31757 0
M  V30 3062 O 280.985 -1.02912 1.60667 0
M  V30 3063 C 278.125 -1.45644 3.12861 0
M  V30 3064 C 277.238 -0.827269 4.24005 0
M  V30 3065 C 276.373 -1.89456 4.96266 0
M  V30 3066 C 275.412 -1.24416 5.99322 0
M  V30 3067 N 274.549 -2.25309 6.64966 0
M  V30 3068 H 279.389 0.295464 2.96532 0
M  V30 3069 H 276.926 0.157554 1.46254 0
M  V30 3070 H 278.884 -2.10076 3.6045 0
M  V30 3071 H 277.514 -2.08616 2.46331 0
M  V30 3072 H 276.566 -0.0710839 3.80334 0
M  V30 3073 H 277.878 -0.312481 4.9782 0
M  V30 3074 H 277.032 -2.61535 5.47434 0
M  V30 3075 H 275.771 -2.4431 4.22095 0
M  V30 3076 H 274.776 -0.508868 5.4744 0
M  V30 3077 H 276.001 -0.702882 6.75453 0
M  V30 3078 H 273.947 -2.79231 5.93604 0
M  V30 3079 H 273.864 -1.78739 7.34567 0
M  V30 3080 H 275.132 -2.96853 7.20763 0
M  V30 3081 N 279.361 -1.56624 0.175154 0
M  V30 3082 C 280.311 -2.14747 -0.766004 0
M  V30 3083 C 281.295 -1.08275 -1.19018 0
M  V30 3084 O 282.487 -1.34388 -1.15191 0
M  V30 3085 C 279.616 -2.79478 -1.99366 0
M  V30 3086 C 278.702 -3.93114 -1.5913 0
M  V30 3087 N 279.093 -4.97752 -0.89872 0
M  V30 3088 C 277.391 -4.04345 -1.88204 0
M  V30 3089 C 278.092 -5.77473 -0.700012 0
M  V30 3090 N 277.068 -5.29207 -1.24263 0
M  V30 3091 H 280.87 -2.93015 -0.22793 0
M  V30 3092 H 278.384 -1.6238 -0.0253843 0
M  V30 3093 H 280.381 -3.19498 -2.67818 0
M  V30 3094 H 279.041 -2.02692 -2.53665 0
M  V30 3095 H 280.052 -5.14903 -0.556347 0
M  V30 3096 H 276.729 -3.38667 -2.44153 0
M  V30 3097 H 278.119 -6.71728 -0.152047 0
M  V30 3098 N 280.839 0.0985539 -1.57292 0
M  V30 3099 C 282.255 0.45267 -1.53046 0
M  V30 3100 C 282.455 1.80713 -0.891342 0
M  V30 3101 O 281.511 2.4785 -0.482375 0
M  V30 3102 C 282.824 0.418341 -2.97776 0
M  V30 3103 C 284.372 0.500443 -3.08973 0
M  V30 3104 C 284.847 0.496297 -4.55303 0
M  V30 3105 N 286.338 0.557151 -4.59837 0
M  V30 3106 C 287.073 0.575726 -5.70502 0
M  V30 3107 N 286.569 0.550714 -6.90608 0
M  V30 3108 N 288.362 0.620277 -5.58667 0
M  V30 3109 H 280.513 -0.788673 -1.97215 0
M  V30 3110 H 282.776 -0.293188 -0.901524 0
M  V30 3111 H 282.482 -0.509659 -3.47988 0
M  V30 3112 H 282.356 1.2386 -3.56284 0
M  V30 3113 H 284.743 1.41886 -2.58751 0
M  V30 3114 H 284.824 -0.347894 -2.53423 0
M  V30 3115 H 284.468 -0.418162 -5.06176 0
M  V30 3116 H 284.398 1.3618 -5.08687 0
M  V30 3117 H 286.889 0.581816 -3.73394 0
M  V30 3118 H 287.202 0.568075 -7.70709 0
M  V30 3119 H 285.547 0.517816 -6.93068 0
M  V30 3120 H 288.738 0.637322 -4.63741 0
M  V30 3121 H 288.911 0.631283 -6.44918 0
M  V30 3122 N 282.317 1.53212 0.369288 0
M  V30 3123 C 283.565 1.68881 1.11012 0
M  V30 3124 C 283.886 0.441285 1.89941 0
M  V30 3125 O 283.156 -0.544623 1.88177 0
M  V30 3126 H 281.736 0.622569 0.412816 0
M  V30 3127 H 284.398 1.90391 0.416802 0
M  V30 3128 H 283.494 2.54822 1.80201 0
M  V30 3129 N 283.795 -0.628877 1.44509 0
M  V30 3130 C 284.743 -1.76193 1.51852 0
M  V30 3131 C 285.737 -1.64849 0.390042 0
M  V30 3132 O 286.943 -1.709 0.565082 0
M  V30 3133 H 283.318 -0.581728 0.476547 0
M  V30 3134 H 285.289 -1.67123 2.47209 0
M  V30 3135 C 284.038 -3.14533 1.48204 0
M  V30 3136 H 283.361 -3.23911 2.34354 0
M  V30 3137 H 284.801 -3.93701 1.57402 0
M  V30 3138 C 283.26 -3.36287 0.203142 0
M  V30 3139 O 283.79 -3.9509 -0.725745 0
M  V30 3140 N 281.996 -2.90408 0.105563 0
M  V30 3141 H 281.543 -2.42739 0.862301 0
M  V30 3142 H 281.501 -3.05339 -0.749371 0
M  V30 3143 N 285.273 -1.31445 -0.869486 0
M  V30 3144 C 286.503 -1.23942 -1.65294 0
M  V30 3145 C 286.911 0.197561 -1.88166 0
M  V30 3146 O 286.254 1.14019 -1.44033 0
M  V30 3147 C 286.316 -1.91385 -3.04322 0
M  V30 3148 C 285.98 -3.40726 -3.04557 0
M  V30 3149 C 286.977 -4.36464 -2.82481 0
M  V30 3150 C 284.662 -3.82425 -3.25663 0
M  V30 3151 C 286.656 -5.71876 -2.8149 0
M  V30 3152 C 284.343 -5.1795 -3.243 0
M  V30 3153 C 285.341 -6.12486 -3.02241 0
M  V30 3154 O 285.029 -7.45534 -3.00724 0
M  V30 3155 H 284.761 -0.429459 -0.522054 0
M  V30 3156 H 287.315 -1.73873 -1.0935 0
M  V30 3157 H 285.545 -1.36004 -3.61994 0
M  V30 3158 H 287.234 -1.77791 -3.64891 0
M  V30 3159 H 288 -4.05576 -2.65956 0
M  V30 3160 H 283.879 -3.09274 -3.41863 0
M  V30 3161 H 287.423 -6.45638 -2.64191 0
M  V30 3162 H 283.32 -5.48473 -3.40365 0
M  V30 3163 H 284.088 -7.54713 -3.16782 0
M  V30 3164 N 286.751 1.08385 -1.14413 0
M  V30 3165 C 287.979 1.84517 -0.936001 0
M  V30 3166 C 288.394 1.81626 0.515503 0
M  V30 3167 O 287.751 1.22008 1.35721 0
M  V30 3168 C 287.802 3.32049 -1.42918 0
M  V30 3169 O 287.523 3.34951 -2.82381 0
M  V30 3170 C 289.024 4.24986 -1.26103 0
M  V30 3171 H 286.244 0.582491 -0.333084 0
M  V30 3172 H 288.788 1.36885 -1.5193 0
M  V30 3173 H 286.943 3.7707 -0.888641 0
M  V30 3174 H 287.357 4.27048 -3.04517 0
M  V30 3175 H 288.831 5.26615 -1.6547 0
M  V30 3176 H 289.308 4.38726 -0.20392 0
M  V30 3177 H 289.914 3.85791 -1.79012 0
M  V30 3178 N 288.23 0.939286 1.26551 0
M  V30 3179 C 289.47 0.5933 1.956 0
M  V30 3180 C 289.834 -0.851515 1.72085 0
M  V30 3181 O 291.035 -1.30634 2.34921 0
M  V30 3182 C 289.306 0.923996 3.45249 0
M  V30 3183 S 290.865 0.688269 4.33369 0
M  V30 3184 H 287.683 0.218591 0.676564 0
M  V30 3185 H 290.285 1.2102 1.5354 0
M  V30 3186 H 288.989 1.97297 3.59864 0
M  V30 3187 H 288.52 0.296746 3.92279 0
M  V30 3188 H 290.535 -0.448434 4.9417 0
M  V30 3189 N 289.708 -1.40897 0.706093 0
M  V30 3190 C 290.658 -2.27987 0.0240746 0
M  V30 3191 C 291.642 -1.42759 -0.742204 0
M  V30 3192 O 292.834 -1.65936 -0.615966 0
M  V30 3193 C 289.963 -3.31186 -0.903907 0
M  V30 3194 C 289.049 -4.2389 -0.133318 0
M  V30 3195 N 289.44 -4.98113 0.878444 0
M  V30 3196 C 287.738 -4.44485 -0.367269 0
M  V30 3197 C 288.439 -5.6604 1.34064 0
M  V30 3198 N 287.415 -5.39522 0.664565 0
M  V30 3199 H 291.217 -2.82812 0.799658 0
M  V30 3200 H 288.731 -1.53235 0.537845 0
M  V30 3201 H 290.728 -3.92413 -1.40775 0
M  V30 3202 H 289.388 -2.77922 -1.67897 0
M  V30 3203 H 290.399 -5.02364 1.25901 0
M  V30 3204 H 287.076 -4.02213 -1.1194 0
M  V30 3205 H 288.466 -6.35524 2.1808 0
M  V30 3206 N 291.186 -0.45159 -1.50991 0
M  V30 3207 C 292.149 0.341117 -2.26647 0
M  V30 3208 C 293.149 0.937422 -1.30649 0
M  V30 3209 O 294.339 0.809644 -1.54241 0
M  V30 3210 C 291.471 1.48398 -3.06905 0
M  V30 3211 H 292.664 -0.322117 -2.98165 0
M  V30 3212 H 290.217 -0.205122 -1.54948 0
M  V30 3213 H 290.952 2.18284 -2.39838 0
M  V30 3214 H 290.737 1.06241 -3.77432 0
M  V30 3215 H 292.227 2.04367 -3.64176 0
M  V30 3216 N 292.664 1.56529 -0.183458 0
M  V30 3217 C 293.889 2.02064 0.467428 0
M  V30 3218 C 294.314 1.06282 1.55196 0
M  V30 3219 O 293.672 0.0443565 1.81246 0
M  V30 3220 C 293.72 3.46122 1.01153 0
M  V30 3221 O 292.824 3.53437 2.12499 0
M  V30 3222 H 292.165 0.654726 0.110588 0
M  V30 3223 H 294.695 2.02521 -0.290917 0
M  V30 3224 H 294.705 3.85676 1.33108 0
M  V30 3225 H 293.38 4.15331 0.217533 0
M  V30 3226 H 291.957 3.2575 1.81497 0
M  V30 3227 N 294.142 -0.090211 1.57342 0
M  V30 3228 C 295.372 -0.805055 1.90269 0
M  V30 3229 C 295.78 -1.72561 0.775842 0
M  V30 3230 O 295.123 -1.81839 -0.260843 0
M  V30 3231 C 295.185 -1.66734 3.18497 0
M  V30 3232 C 294.849 -0.918092 4.47683 0
M  V30 3233 C 295.846 -0.245674 5.19319 0
M  V30 3234 C 293.531 -0.890724 4.94339 0
M  V30 3235 C 295.525 0.444088 6.35851 0
M  V30 3236 C 293.212 -0.197179 6.10782 0
M  V30 3237 C 294.21 0.469044 6.81388 0
M  V30 3238 O 293.898 1.15146 7.95611 0
M  V30 3239 H 293.63 -0.235143 0.633785 0
M  V30 3240 H 296.184 -0.0703805 2.05279 0
M  V30 3241 H 294.414 -2.44437 2.99646 0
M  V30 3242 H 296.103 -2.25919 3.37217 0
M  V30 3243 H 296.869 -0.258246 4.84312 0
M  V30 3244 H 292.748 -1.39873 4.39268 0
M  V30 3245 H 296.292 0.964667 6.90898 0
M  V30 3246 H 292.189 -0.18247 6.45242 0
M  V30 3247 H 292.957 1.05885 8.11622 0
M  V30 3248 N 295.62 -1.53406 -0.361157 0
M  V30 3249 C 296.848 -1.73717 -1.12383 0
M  V30 3250 C 297.263 -0.468161 -1.82904 0
M  V30 3251 O 296.62 0.559198 -1.73722 0
M  V30 3252 C 296.671 -2.90558 -2.15078 0
M  V30 3253 O 296.392 -4.12549 -1.47428 0
M  V30 3254 C 297.893 -3.22777 -3.03858 0
M  V30 3255 H 295.113 -0.580896 -0.335858 0
M  V30 3256 H 297.657 -2.00167 -0.418728 0
M  V30 3257 H 295.812 -2.66489 -2.8118 0
M  V30 3258 H 296.226 -4.78009 -2.15887 0
M  V30 3259 H 297.7 -4.07927 -3.71887 0
M  V30 3260 H 298.177 -2.38329 -3.68912 0
M  V30 3261 H 298.783 -3.48787 -2.43367 0
M  V30 3262 N 297.098 0.621204 -1.44841 0
M  V30 3263 C 298.328 1.40548 -1.51426 0
M  V30 3264 C 298.736 1.88673 -0.141083 0
M  V30 3265 O 298.079 1.62053 0.865128 0
M  V30 3266 C 298.141 2.65325 -2.42576 0
M  V30 3267 C 297.805 2.3893 -3.89566 0
M  V30 3268 C 298.802 2.00138 -4.79834 0
M  V30 3269 C 296.487 2.52263 -4.3436 0
M  V30 3270 C 298.481 1.75021 -6.129 0
M  V30 3271 C 296.168 2.2676 -5.67471 0
M  V30 3272 C 297.166 1.88199 -6.56559 0
M  V30 3273 O 296.854 1.62986 -7.87204 0
M  V30 3274 H 296.586 0.437122 -0.515655 0
M  V30 3275 H 299.14 0.765987 -1.90583 0
M  V30 3276 H 297.37 3.31947 -1.98364 0
M  V30 3277 H 299.059 3.27347 -2.39998 0
M  V30 3278 H 299.825 1.89386 -4.46495 0
M  V30 3279 H 295.704 2.81246 -3.65269 0
M  V30 3280 H 299.248 1.44848 -6.82396 0
M  V30 3281 H 295.145 2.37125 -6.00368 0
M  V30 3282 H 295.913 1.7715 -7.991 0
M  V30 3283 N 298.576 1.31904 0.862503 0
M  V30 3284 C 299.506 1.22782 1.98612 0
M  V30 3285 C 300.487 0.113362 1.69722 0
M  V30 3286 O 301.672 0.299218 1.91881 0
M  V30 3287 C 298.802 0.942058 3.34279 0
M  V30 3288 C 297.756 2.0169 3.77499 0
M  V30 3289 C 297.082 1.58369 5.10709 0
M  V30 3290 C 298.382 3.43096 3.93805 0
M  V30 3291 H 300.076 2.16788 2.06502 0
M  V30 3292 H 297.622 1.04366 0.992154 0
M  V30 3293 H 299.575 0.864818 4.1243 0
M  V30 3294 H 298.299 -0.0336603 3.26583 0
M  V30 3295 H 296.958 2.08416 3.01593 0
M  V30 3296 H 296.606 0.595628 4.99461 0
M  V30 3297 H 296.306 2.30279 5.40597 0
M  V30 3298 H 297.83 1.52067 5.91361 0
M  V30 3299 H 299.244 3.39003 4.62331 0
M  V30 3300 H 297.641 4.13288 4.35101 0
M  V30 3301 H 298.711 3.83334 2.96957 0
M  V30 3302 N 300.054 -1.07777 1.14986 0
M  V30 3303 C 301.302 -1.79934 0.920235 0
M  V30 3304 C 301.623 -1.86955 -0.554336 0
M  V30 3305 O 300.893 -1.36731 -1.40291 0
M  V30 3306 H 299.473 -0.666424 0.337473 0
M  V30 3307 H 302.135 -1.3027 1.44968 0
M  V30 3308 H 301.231 -2.82539 1.32583 0
M  V30 3309 N 301.532 -0.945985 -1.26051 0
M  V30 3310 C 302.479 -0.45809 -2.26208 0
M  V30 3311 C 303.449 0.484816 -1.58867 0
M  V30 3312 O 304.634 0.399969 -1.86561 0
M  V30 3313 C 301.774 0.266131 -3.44072 0
M  V30 3314 C 300.887 -0.713005 -4.26075 0
M  V30 3315 C 300.022 0.0329013 -5.3119 0
M  V30 3316 C 299.061 -0.93774 -6.04874 0
M  V30 3317 N 298.198 -0.223274 -7.01745 0
M  V30 3318 H 303.038 -1.3171 -2.67313 0
M  V30 3319 H 300.575 -0.66069 -1.31428 0
M  V30 3320 H 302.533 0.702514 -4.11243 0
M  V30 3321 H 301.163 1.08925 -3.03867 0
M  V30 3322 H 300.215 -1.26789 -3.58648 0
M  V30 3323 H 301.527 -1.45406 -4.77136 0
M  V30 3324 H 300.681 0.528335 -6.04395 0
M  V30 3325 H 299.42 0.806801 -4.8098 0
M  V30 3326 H 298.425 -1.44425 -5.30492 0
M  V30 3327 H 299.65 -1.71172 -6.57173 0
M  V30 3328 H 297.596 0.532046 -6.53839 0
M  V30 3329 H 297.513 -0.90357 -7.50581 0
M  V30 3330 H 298.781 0.250907 -7.79096 0
M  V30 3331 N 303.011 1.40521 -0.713556 0
M  V30 3332 C 303.943 2.29191 -0.0203126 0
M  V30 3333 C 304.956 1.45723 0.725864 0
M  V30 3334 O 306.145 1.69033 0.573581 0
M  V30 3335 C 303.245 3.2395 0.995486 0
M  V30 3336 C 302.418 4.36262 0.315256 0
M  V30 3337 C 301.477 5.11474 1.23616 0
M  V30 3338 O 300.503 5.64606 0.721719 0
M  V30 3339 N 301.705 5.20638 2.56743 0
M  V30 3340 H 304.47 2.89327 -0.781652 0
M  V30 3341 H 302.031 1.51869 -0.561022 0
M  V30 3342 H 304.023 3.71137 1.61368 0
M  V30 3343 H 302.593 2.64995 1.6582 0
M  V30 3344 H 301.813 3.91228 -0.483106 0
M  V30 3345 H 303.101 5.08558 -0.157004 0
M  V30 3346 H 302.499 4.7895 3.01037 0
M  V30 3347 H 301.056 5.71339 3.13712 0
M  V30 3348 N 304.489 0.459591 1.5075 0
M  V30 3349 C 305.719 -0.0972338 2.06371 0
M  V30 3350 C 306.127 -1.35074 1.32483 0
M  V30 3351 O 305.47 -1.79637 0.384226 0
M  V30 3352 C 305.532 -0.462759 3.56509 0
M  V30 3353 C 305.196 0.687084 4.51805 0
M  V30 3354 C 306.193 1.56578 4.95761 0
M  V30 3355 C 303.878 0.874144 4.94635 0
M  V30 3356 C 305.872 2.61604 5.81242 0
M  V30 3357 C 303.559 1.92765 5.79901 0
M  V30 3358 C 304.557 2.79697 6.23104 0
M  V30 3359 O 304.245 3.83235 7.06673 0
M  V30 3360 H 303.977 -0.00140687 0.675999 0
M  V30 3361 H 306.531 0.644011 1.95043 0
M  V30 3362 H 304.761 -1.25703 3.65699 0
M  V30 3363 H 306.45 -0.953323 3.94546 0
M  V30 3364 H 307.216 1.4329 4.6335 0
M  V30 3365 H 303.095 0.207006 4.60535 0
M  V30 3366 H 306.639 3.29489 6.14884 0
M  V30 3367 H 302.536 2.06064 6.11725 0
M  V30 3368 H 303.304 3.80084 7.24899 0
M  V30 3369 N 305.967 -1.56429 0.191757 0
M  V30 3370 C 307.378 -1.83912 -0.321428 0
M  V30 3371 C 307.729 -1.11231 -1.61623 0
M  V30 3372 O 306.854 -0.37202 -2.13178 0
M  V30 3373 C 307.449 -3.33624 -0.589961 0
M  V30 3374 C 306.008 -3.6153 -1.04753 0
M  V30 3375 C 305.155 -2.7714 -0.0943327 0
M  V30 3376 H 308.106 -1.53161 0.415612 0
M  V30 3377 H 308.127 -3.52213 -1.43966 0
M  V30 3378 H 307.639 -3.86495 0.352588 0
M  V30 3379 H 305.74 -3.14089 -2.00447 0
M  V30 3380 H 305.853 -4.69737 -0.942549 0
M  V30 3381 H 304.217 -2.47638 -0.595589 0
M  V30 3382 H 305 -3.32799 0.842601 0
M  V30 3383 N 307.445 0.0818655 -1.57387 0
M  V30 3384 C 308.694 0.781681 -1.85937 0
M  V30 3385 C 309.007 1.79246 -0.782957 0
M  V30 3386 O 310.213 2.54112 -0.955987 0
M  V30 3387 C 308.669 1.44109 -3.29789 0
M  V30 3388 C 308.277 0.469396 -4.45534 0
M  V30 3389 C 310.021 2.12386 -3.67549 0
M  V30 3390 C 307.928 1.13415 -5.80423 0
M  V30 3391 H 306.858 0.295682 -0.693605 0
M  V30 3392 H 309.509 0.0348051 -1.83467 0
M  V30 3393 H 307.891 2.23588 -3.2684 0
M  V30 3394 H 309.065 -0.294856 -4.59856 0
M  V30 3395 H 307.38 -0.108383 -4.16259 0
M  V30 3396 H 309.977 2.62878 -4.65617 0
M  V30 3397 H 310.32 2.91877 -2.96839 0
M  V30 3398 H 310.853 1.39751 -3.72444 0
M  V30 3399 H 307.592 0.379771 -6.54399 0
M  V30 3400 H 307.112 1.8695 -5.69921 0
M  V30 3401 H 308.791 1.65686 -6.25426 0
M  V30 3402 N 308.923 1.53595 0.353017 0
M  V30 3403 C 310.151 1.74311 1.1146 0
M  V30 3404 C 310.566 0.477854 1.82653 0
M  V30 3405 O 309.923 -0.549977 1.74016 0
M  V30 3406 C 309.974 2.91694 2.13534 0
M  V30 3407 O 309.695 4.13325 1.45238 0
M  V30 3408 C 311.196 3.24384 3.02142 0
M  V30 3409 H 308.416 0.582669 0.332773 0
M  V30 3410 H 310.96 2.00386 0.408107 0
M  V30 3411 H 309.115 2.67977 2.79763 0
M  V30 3412 H 309.529 4.79148 2.13349 0
M  V30 3413 H 311.003 4.09893 3.69718 0
M  V30 3414 H 311.48 2.40282 3.67643 0
M  V30 3415 H 312.086 3.50073 2.41514 0
M  V30 3416 N 310.401 -0.613514 1.45168 0
M  V30 3417 C 311.817 -0.933629 1.29443 0
M  V30 3418 C 312.017 -2.00028 0.243101 0
M  V30 3419 O 311.073 -2.49848 -0.364992 0
M  V30 3420 C 312.386 -1.38018 2.67155 0
M  V30 3421 C 313.934 -1.49471 2.75004 0
M  V30 3422 C 314.409 -1.97503 4.13227 0
M  V30 3423 N 315.9 -2.04746 4.15491 0
M  V30 3424 C 316.635 -2.43121 5.19307 0
M  V30 3425 N 316.131 -2.80506 6.33473 0
M  V30 3426 N 317.924 -2.43408 5.06664 0
M  V30 3427 H 310.075 0.0916097 2.12202 0
M  V30 3428 H 312.338 -0.0216655 0.947752 0
M  V30 3429 H 312.044 -0.670625 3.45247 0
M  V30 3430 H 311.918 -2.34784 2.95222 0
M  V30 3431 H 314.305 -2.19519 1.9722 0
M  V30 3432 H 314.386 -0.510342 2.50657 0
M  V30 3433 H 314.03 -1.28045 4.91495 0
M  V30 3434 H 313.96 -2.96843 4.34962 0
M  V30 3435 H 316.451 -1.78468 3.33103 0
M  V30 3436 H 316.764 -3.08652 7.08487 0
M  V30 3437 H 315.109 -2.78216 6.36884 0
M  V30 3438 H 318.3 -2.13604 4.16523 0
M  V30 3439 H 318.473 -2.72989 5.87691 0
M  V30 3440 N 311.879 -1.3236 -0.855495 0
M  V30 3441 C 313.125 -1.23054 -1.612 0
M  V30 3442 C 313.458 0.207404 -1.93089 0
M  V30 3443 O 312.733 1.14432 -1.57275 0
M  V30 3444 C 313.016 -2.08937 -2.93287 0
M  V30 3445 C 312.869 -3.61105 -2.68185 0
M  V30 3446 C 314.188 -1.94986 -3.94549 0
M  V30 3447 H 311.307 -0.448364 -0.584926 0
M  V30 3448 H 313.949 -1.62297 -0.987917 0
M  V30 3449 H 312.099 -1.75599 -3.46551 0
M  V30 3450 H 313.771 -4.04652 -2.21483 0
M  V30 3451 H 312.014 -3.83813 -2.02164 0
M  V30 3452 H 312.685 -4.16522 -3.62234 0
M  V30 3453 H 315.161 -2.24189 -3.5054 0
M  V30 3454 H 314.037 -2.57356 -4.84829 0
M  V30 3455 H 314.298 -0.917263 -4.3248 0
M  V30 3456 N 313.357 1.07166 -1.15556 0
M  V30 3457 C 314.606 1.79181 -0.926132 0
M  V30 3458 C 314.919 1.87768 0.547967 0
M  V30 3459 O 316.125 2.56323 0.895036 0
M  V30 3460 C 314.581 3.22 -1.60761 0
M  V30 3461 C 314.189 3.21607 -3.11886 0
M  V30 3462 C 315.933 3.9861 -1.4598 0
M  V30 3463 C 313.84 4.59092 -3.72812 0
M  V30 3464 H 312.77 0.67154 -0.342856 0
M  V30 3465 H 315.421 1.2027 -1.3859 0
M  V30 3466 H 313.803 3.81115 -1.07553 0
M  V30 3467 H 314.977 2.72127 -3.71865 0
M  V30 3468 H 313.292 2.58495 -3.2645 0
M  V30 3469 H 315.889 5.00225 -1.88888 0
M  V30 3470 H 316.232 4.143 -0.407541 0
M  V30 3471 H 316.765 3.45996 -1.96295 0
M  V30 3472 H 313.504 4.48606 -4.77946 0
M  V30 3473 H 313.024 5.08803 -3.17616 0
M  V30 3474 H 314.703 5.28059 -3.73848 0
M  V30 3475 N 314.835 0.952656 1.25548 0
M  V30 3476 C 315.745 0.47782 2.29682 0
M  V30 3477 C 316.761 -0.453859 1.67977 0
M  V30 3478 O 317.937 -0.330587 1.98668 0
M  V30 3479 C 315.002 -0.238655 3.45878 0
M  V30 3480 C 314.063 0.730994 4.23031 0
M  V30 3481 C 313.296 0.0486165 5.33678 0
M  V30 3482 O 313.519 -1.16612 5.58353 0
M  V30 3483 O 312.453 0.733152 5.97418 0
M  V30 3484 H 316.279 1.34312 2.72386 0
M  V30 3485 H 313.864 0.719026 1.30959 0
M  V30 3486 H 315.746 -0.641774 4.16484 0
M  V30 3487 H 314.421 -1.07916 3.05181 0
M  V30 3488 H 313.328 1.18428 3.5486 0
M  V30 3489 H 314.661 1.53946 4.67506 0
M  V30 3490 N 316.313 -1.40141 0.720998 0
M  V30 3491 C 317.56 -2.00787 0.262842 0
M  V30 3492 C 317.888 -1.5718 -1.14563 0
M  V30 3493 O 317.143 -0.785391 -1.79249 0
M  V30 3494 C 317.442 -3.56165 0.296892 0
M  V30 3495 C 317.108 -4.19373 1.65641 0
M  V30 3496 C 315.77 -4.36352 2.02855 0
M  V30 3497 C 318.122 -4.54578 2.54968 0
M  V30 3498 C 315.45 -4.8582 3.28931 0
M  V30 3499 C 317.802 -5.05447 3.80402 0
M  V30 3500 C 316.466 -5.20635 4.17726 0
M  V30 3501 H 315.736 -0.734731 0.0961807 0
M  V30 3502 H 318.383 -1.67673 0.925093 0
M  V30 3503 H 316.688 -3.8922 -0.448932 0
M  V30 3504 H 318.385 -4.00929 -0.0755208 0
M  V30 3505 H 314.975 -4.06549 1.35704 0
M  V30 3506 H 319.159 -4.41091 2.27491 0
M  V30 3507 H 314.415 -4.95764 3.57811 0
M  V30 3508 H 318.589 -5.31663 4.49786 0
M  V30 3509 H 316.216 -5.58728 5.15487 0
M  V30 3510 N 317.792 -0.46758 -1.50504 0
M  V30 3511 C 319.041 0.0902868 -2.01498 0
M  V30 3512 C 319.354 1.411 -1.35463 0
M  V30 3513 O 320.56 2.0536 -1.77594 0
M  V30 3514 C 319.016 0.21142 -3.59278 0
M  V30 3515 C 318.624 -1.10065 -4.34269 0
M  V30 3516 C 320.368 0.721433 -4.18325 0
M  V30 3517 C 318.275 -0.943505 -5.83825 0
M  V30 3518 H 317.205 0.037517 -0.753066 0
M  V30 3519 H 319.856 -0.601943 -1.73346 0
M  V30 3520 H 318.238 0.967352 -3.84003 0
M  V30 3521 H 319.412 -1.86726 -4.21272 0
M  V30 3522 H 317.727 -1.5415 -3.86816 0
M  V30 3523 H 320.324 0.85598 -5.27804 0
M  V30 3524 H 320.667 1.71186 -3.79475 0
M  V30 3525 H 321.2 0.0229843 -3.97793 0
M  V30 3526 H 317.939 -1.90719 -6.27141 0
M  V30 3527 H 317.459 -0.217213 -5.99407 0
M  V30 3528 H 319.138 -0.608715 -6.4413 0
M  V30 3529 N 319.27 1.56325 -0.20005 0
M  V30 3530 C 320.498 2.02105 0.442874 0
M  V30 3531 C 320.913 1.08014 1.5485 0
M  V30 3532 O 320.27 0.0858797 1.82298 0
M  V30 3533 C 320.321 3.47549 0.994583 0
M  V30 3534 O 320.042 4.38049 -0.0669322 0
M  V30 3535 C 321.543 4.0887 1.7129 0
M  V30 3536 H 318.763 0.661807 0.110691 0
M  V30 3537 H 321.307 2.02134 -0.310207 0
M  V30 3538 H 319.462 3.48204 1.69803 0
M  V30 3539 H 319.876 5.23368 0.344462 0
M  V30 3540 H 321.35 5.12475 2.05118 0
M  V30 3541 H 321.827 3.52615 2.61838 0
M  V30 3542 H 322.433 4.12002 1.05518 0
M  V30 3543 N 320.748 -0.0735177 1.57428 0
M  V30 3544 C 321.678 -1.0879 2.06608 0
M  V30 3545 C 322.659 -1.40473 0.959237 0
M  V30 3546 O 323.844 -1.5013 1.23185 0
M  V30 3547 C 320.974 -2.40183 2.50857 0
M  V30 3548 C 319.928 -2.22858 3.65402 0
M  V30 3549 C 319.254 -3.59619 3.957 0
M  V30 3550 C 320.554 -1.65123 4.95511 0
M  V30 3551 H 322.248 -0.678673 2.91607 0
M  V30 3552 H 319.794 -0.325013 1.40284 0
M  V30 3553 H 321.747 -3.11437 2.83874 0
M  V30 3554 H 320.471 -2.83083 1.62885 0
M  V30 3555 H 319.13 -1.54045 3.32664 0
M  V30 3556 H 318.778 -4.00086 3.04861 0
M  V30 3557 H 318.478 -3.48866 4.72828 0
M  V30 3558 H 320.002 -4.32306 4.31212 0
M  V30 3559 H 321.416 -2.26241 5.26771 0
M  V30 3560 H 319.813 -1.65071 5.7695 0
M  V30 3561 H 320.883 -0.612559 4.81015 0
M  V30 3562 N 322.226 -1.5378 -0.344866 0
M  V30 3563 C 323.136 -1.84667 -1.4469 0
M  V30 3564 C 324.152 -0.736704 -1.57635 0
M  V30 3565 O 325.328 -1.02888 -1.73136 0
M  V30 3566 C 322.393 -2.04869 -2.79696 0
M  V30 3567 C 321.454 -3.28731 -2.76106 0
M  V30 3568 C 320.687 -3.4796 -4.04673 0
M  V30 3569 O 320.91 -2.71052 -5.01883 0
M  V30 3570 O 319.844 -4.41383 -4.09224 0
M  V30 3571 H 323.67 -2.78334 -1.21506 0
M  V30 3572 H 321.255 -1.39418 -0.536921 0
M  V30 3573 H 323.137 -2.19609 -3.59652 0
M  V30 3574 H 321.812 -1.14391 -3.02814 0
M  V30 3575 H 320.719 -3.19396 -1.94774 0
M  V30 3576 H 322.052 -4.19198 -2.57941 0
M  V30 3577 N 323.704 0.605807 -1.45491 0
M  V30 3578 C 324.614 1.74466 -1.56839 0
M  V30 3579 C 325.63 1.68006 -0.452772 0
M  V30 3580 O 326.806 1.8833 -0.713708 0
M  V30 3581 C 323.871 3.10931 -1.53371 0
M  V30 3582 C 322.932 3.28832 -2.75986 0
M  V30 3583 C 322.165 4.58787 -2.72673 0
M  V30 3584 O 322.388 5.4122 -1.80102 0
M  V30 3585 O 321.322 4.79438 -3.63899 0
M  V30 3586 H 325.148 1.67843 -2.53106 0
M  V30 3587 H 322.733 0.770108 -1.28022 0
M  V30 3588 H 324.615 3.92233 -1.54051 0
M  V30 3589 H 323.29 3.18042 -0.602572 0
M  V30 3590 H 322.197 2.47112 -2.80867 0
M  V30 3591 H 323.53 3.26599 -3.68231 0
M  V30 3592 N 325.182 1.32811 0.848464 0
M  V30 3593 C 326.13 1.22231 1.97895 0
M  V30 3594 C 327.124 0.125749 1.68933 0
M  V30 3595 O 328.33 0.289083 1.77663 0
M  V30 3596 H 324.705 0.379058 0.649476 0
M  V30 3597 H 326.676 2.17828 2.03945 0
M  V30 3598 C 325.425 0.968572 3.33937 0
M  V30 3599 H 324.748 1.80458 3.56756 0
M  V30 3600 H 326.188 0.934808 4.13567 0
M  V30 3601 C 324.647 -0.328628 3.35293 0
M  V30 3602 O 325.177 -1.33848 3.78745 0
M  V30 3603 N 323.383 -0.352788 2.88451 0
M  V30 3604 H 322.93 0.469541 2.53285 0
M  V30 3605 H 322.888 -1.22057 2.89741 0
M  V30 3606 N 326.66 -1.06551 1.16123 0
M  V30 3607 C 327.607 -2.13961 0.865414 0
M  V30 3608 C 328.577 -1.65066 -0.185055 0
M  V30 3609 O 329.762 -1.90732 -0.05083 0
M  V30 3610 C 326.902 -3.43113 0.369776 0
M  V30 3611 C 326.015 -4.05756 1.48276 0
M  V30 3612 C 325.15 -5.22773 0.942414 0
M  V30 3613 C 324.189 -5.77395 2.03179 0
M  V30 3614 N 323.326 -6.85731 1.50721 0
M  V30 3615 H 328.166 -2.38605 1.78527 0
M  V30 3616 H 325.703 -1.17072 0.890646 0
M  V30 3617 H 327.661 -4.17151 0.0640643 0
M  V30 3618 H 326.291 -3.18695 -0.513143 0
M  V30 3619 H 325.343 -3.29292 1.9045 0
M  V30 3620 H 326.655 -4.42351 2.30493 0
M  V30 3621 H 325.809 -6.03827 0.589729 0
M  V30 3622 H 324.548 -4.87618 0.0895191 0
M  V30 3623 H 323.553 -4.94981 2.3932 0
M  V30 3624 H 324.778 -6.14603 2.8886 0
M  V30 3625 H 322.724 -6.52499 0.676811 0
M  V30 3626 H 322.641 -7.21254 2.26557 0
M  V30 3627 H 323.909 -7.7047 1.18303 0
M  V30 3628 N 328.138 -0.959301 -1.25041 0
M  V30 3629 C 329.549 -0.65667 -1.74771 0
M  V30 3630 C 329.9 0.827852 -1.77879 0
M  V30 3631 O 329.025 1.64783 -1.40269 0
M  V30 3632 C 329.62 -1.1853 -3.1739 0
M  V30 3633 C 328.179 -0.932734 -3.6466 0
M  V30 3634 C 327.326 -1.32558 -2.43564 0
M  V30 3635 H 330.277 -1.13558 -1.10862 0
M  V30 3636 H 330.298 -0.547582 -3.76539 0
M  V30 3637 H 329.81 -2.26576 -3.15095 0
M  V30 3638 H 327.911 0.13257 -3.72364 0
M  V30 3639 H 328.024 -1.57248 -4.52559 0
M  V30 3640 H 326.388 -0.743956 -2.43593 0
M  V30 3641 H 327.171 -2.41537 -2.43957 0
M  V30 3642 N 329.616 1.39756 -0.72842 0
M  V30 3643 C 330.844 2.04948 -0.283528 0
M  V30 3644 C 331.259 1.54908 1.0793 0
M  V30 3645 O 330.616 0.711135 1.68075 0
M  V30 3646 C 330.667 3.60498 -0.268957 0
M  V30 3647 O 330.388 4.08695 -1.57798 0
M  V30 3648 C 331.889 4.4288 0.192912 0
M  V30 3649 H 329.109 0.659243 -0.125056 0
M  V30 3650 H 331.653 1.78927 -0.990226 0
M  V30 3651 H 329.808 3.85444 0.388801 0
M  V30 3652 H 330.222 5.02977 -1.48709 0
M  V30 3653 H 331.696 5.51791 0.151952 0
M  V30 3654 H 332.173 4.21418 1.23708 0
M  V30 3655 H 332.779 4.23069 -0.435039 0
M  V30 3656 N 331.094 0.475555 1.50254 0
M  V30 3657 C 332.51 0.12997 1.5907 0
M  V30 3658 C 332.71 -1.36385 1.48328 0
M  V30 3659 O 331.766 -2.13754 1.34407 0
M  V30 3660 C 333.079 0.684139 2.92814 0
M  V30 3661 C 334.627 0.647965 3.0622 0
M  V30 3662 C 335.102 1.17975 4.42545 0
M  V30 3663 N 336.593 1.13936 4.48969 0
M  V30 3664 C 337.328 1.52129 5.52851 0
M  V30 3665 N 336.824 1.97793 6.63965 0
M  V30 3666 N 338.617 1.43704 5.4342 0
M  V30 3667 H 330.768 1.44706 1.55479 0
M  V30 3668 H 333.031 0.598691 0.735033 0
M  V30 3669 H 332.737 1.73079 3.06164 0
M  V30 3670 H 332.611 0.130204 3.76975 0
M  V30 3671 H 334.998 -0.38979 2.92514 0
M  V30 3672 H 335.079 1.23876 2.23805 0
M  V30 3673 H 334.723 2.21616 4.57 0
M  V30 3674 H 334.653 0.565138 5.23559 0
M  V30 3675 H 337.144 0.804488 3.69238 0
M  V30 3676 H 337.457 2.25072 7.39299 0
M  V30 3677 H 335.802 2.01749 6.65073 0
M  V30 3678 H 338.993 1.07867 4.55502 0
M  V30 3679 H 339.166 1.73794 6.24259 0
M  V30 3680 N 332.573 -1.56217 0.208337 0
M  V30 3681 C 333.984 -1.84243 -0.301904 0
M  V30 3682 C 334.335 -1.12939 -1.60434 0
M  V30 3683 O 333.46 -0.39461 -2.12772 0
M  V30 3684 C 334.055 -3.34231 -0.554543 0
M  V30 3685 C 332.614 -3.62621 -1.00912 0
M  V30 3686 C 331.761 -2.77224 -0.064933 0
M  V30 3687 H 334.712 -1.52712 0.431833 0
M  V30 3688 H 334.733 -3.5372 -1.40223 0
M  V30 3689 H 334.245 -3.86099 0.393561 0
M  V30 3690 H 332.346 -3.16197 -1.97104 0
M  V30 3691 H 332.459 -4.7071 -0.892674 0
M  V30 3692 H 330.823 -2.48256 -0.56929 0
M  V30 3693 H 331.606 -3.31887 0.877851 0
M  V30 3694 N 334.051 0.0651679 -1.57465 0
M  V30 3695 C 335.297 0.764193 -1.87851 0
M  V30 3696 C 335.63 1.76889 -0.801495 0
M  V30 3697 O 334.905 1.93594 0.187528 0
M  V30 3698 C 335.188 1.46625 -3.28897 0
M  V30 3699 C 335.041 0.477515 -4.47258 0
M  V30 3700 C 336.36 2.4095 -3.68281 0
M  V30 3701 H 333.479 0.276351 -0.683227 0
M  V30 3702 H 336.121 0.0272868 -1.8998 0
M  V30 3703 H 334.271 2.09438 -3.27212 0
M  V30 3704 H 335.943 -0.145922 -4.61069 0
M  V30 3705 H 334.186 -0.206576 -4.33308 0
M  V30 3706 H 334.857 1.0065 -5.42746 0
M  V30 3707 H 337.333 1.88209 -3.71102 0
M  V30 3708 H 336.209 2.87072 -4.67847 0
M  V30 3709 H 336.47 3.26049 -2.98571 0
M  V30 3710 N 335.529 1.53961 0.336706 0
M  V30 3711 C 336.778 1.70751 1.07363 0
M  V30 3712 C 337.091 0.481061 1.89592 0
M  V30 3713 O 338.297 0.530046 2.66276 0
M  V30 3714 C 336.753 3.01965 1.95818 0
M  V30 3715 C 336.361 4.31971 1.18764 0
M  V30 3716 C 338.105 3.28121 2.69327 0
M  V30 3717 C 336.012 5.54255 2.06289 0
M  V30 3718 H 334.942 0.636292 0.404535 0
M  V30 3719 H 337.593 1.80459 0.332681 0
M  V30 3720 H 335.975 2.86132 2.7376 0
M  V30 3721 H 337.149 4.5853 0.456849 0
M  V30 3722 H 335.464 4.12481 0.569946 0
M  V30 3723 H 338.061 4.16673 3.35094 0
M  V30 3724 H 338.404 2.45426 3.36261 0
M  V30 3725 H 338.937 3.44762 1.98454 0
M  V30 3726 H 335.676 6.39513 1.43885 0
M  V30 3727 H 335.196 5.31935 2.77138 0
M  V30 3728 H 336.875 5.90159 2.65182 0
M  V30 3729 N 337.007 -0.598083 1.45811 0
M  V30 3730 C 338.253 -1.35882 1.50545 0
M  V30 3731 C 338.586 -1.93616 0.150445 0
M  V30 3732 O 337.861 -1.75604 -0.83628 0
M  V30 3733 C 338.144 -2.49966 2.59208 0
M  V30 3734 C 337.997 -1.97367 4.04186 0
M  V30 3735 C 339.316 -3.52068 2.64076 0
M  V30 3736 H 336.435 -0.492717 0.548087 0
M  V30 3737 H 339.077 -0.673319 1.77669 0
M  V30 3738 H 337.227 -3.08443 2.3621 0
M  V30 3739 H 338.899 -1.43466 4.38423 0
M  V30 3740 H 337.142 -1.283 4.14393 0
M  V30 3741 H 337.813 -2.79649 4.75921 0
M  V30 3742 H 340.289 -3.03448 2.84708 0
M  V30 3743 H 339.165 -4.2937 3.41954 0
M  V30 3744 H 339.426 -4.08304 1.69531 0
M  V30 3745 N 338.485 -1.33259 -0.841409 0
M  V30 3746 C 339.71 -1.2775 -1.63385 0
M  V30 3747 C 340.135 0.149188 -1.87507 0
M  V30 3748 O 339.493 1.10498 -1.43736 0
M  V30 3749 C 339.541 -2.05571 -2.96265 0
M  V30 3750 O 338.645 -1.41257 -3.87453 0
M  V30 3751 H 337.986 -0.439627 -0.497618 0
M  V30 3752 H 340.516 -1.75782 -1.04699 0
M  V30 3753 H 340.526 -2.16241 -3.45982 0
M  V30 3754 H 339.201 -3.09309 -2.7803 0
M  V30 3755 H 337.778 -1.39217 -3.45938 0
M  V30 3756 N 339.963 1.05934 -1.16686 0
M  V30 3757 C 341.374 1.60263 -0.957745 0
M  V30 3758 C 341.725 1.89789 0.49745 0
M  V30 3759 O 340.85 1.67401 1.37135 0
M  V30 3760 C 341.445 2.91172 -1.73218 0
M  V30 3761 C 340.004 3.42188 -1.56794 0
M  V30 3762 C 339.151 2.16028 -1.73859 0
M  V30 3763 H 342.102 0.888392 -1.31504 0
M  V30 3764 H 342.123 3.60744 -1.21014 0
M  V30 3765 H 341.635 2.6965 -2.79124 0
M  V30 3766 H 339.736 3.68762 -0.533437 0
M  V30 3767 H 339.849 4.17273 -2.35414 0
M  V30 3768 H 338.213 2.26426 -1.16633 0
M  V30 3769 H 338.996 1.96985 -2.81161 0
M  V30 3770 N 341.441 0.965919 1.2453 0
M  V30 3771 C 342.404 0.499547 2.2369 0
M  V30 3772 C 343.404 -0.40294 1.5567 0
M  V30 3773 O 344.594 -0.19865 1.73064 0
M  V30 3774 C 341.726 -0.276792 3.39774 0
M  V30 3775 H 342.919 1.37613 2.66463 0
M  V30 3776 H 340.472 0.750324 1.37112 0
M  V30 3777 H 341.207 -1.17055 3.02438 0
M  V30 3778 H 340.992 0.370826 3.90343 0
M  V30 3779 H 342.482 -0.592175 4.1338 0
M  V30 3780 N 342.919 -1.39368 0.735821 0
M  V30 3781 C 343.867 -2.32443 0.0855131 0
M  V30 3782 C 344.861 -1.53104 -0.724954 0
M  V30 3783 O 346.067 -1.68762 -0.626047 0
M  V30 3784 H 342.442 -0.751948 0.00885257 0
M  V30 3785 H 344.413 -2.84916 0.886883 0
M  V30 3786 C 343.162 -3.38206 -0.806983 0
M  V30 3787 H 342.485 -3.99335 -0.19274 0
M  V30 3788 H 343.925 -4.05779 -1.2296 0
M  V30 3789 C 342.384 -2.75321 -1.94165 0
M  V30 3790 O 342.914 -2.63231 -3.03435 0
M  V30 3791 N 341.12 -2.33396 -1.73132 0
M  V30 3792 H 340.667 -2.4343 -0.842596 0
M  V30 3793 H 340.625 -1.91661 -2.49225 0
M  V30 3794 N 344.397 -0.483516 -1.5 0
M  V30 3795 C 345.307 0.309172 -2.32554 0
M  V30 3796 C 346.323 0.984159 -1.43493 0
M  V30 3797 O 347.499 0.969399 -1.76535 0
M  V30 3798 C 344.564 1.36979 -3.18493 0
M  V30 3799 C 343.625 0.710095 -4.23387 0
M  V30 3800 C 342.858 1.72018 -5.05218 0
M  V30 3801 O 343.081 2.94813 -4.88305 0
M  V30 3802 O 342.015 1.28515 -5.8802 0
M  V30 3803 H 345.841 -0.366064 -3.01486 0
M  V30 3804 H 343.426 -0.24514 -1.47375 0
M  V30 3805 H 345.308 1.98385 -3.71781 0
M  V30 3806 H 343.983 2.02828 -2.52275 0
M  V30 3807 H 342.89 0.0567539 -3.74057 0
M  V30 3808 H 344.223 0.0943557 -4.9211 0
M  V30 3809 N 345.875 1.56104 -0.216619 0
M  V30 3810 C 347.103 2.02563 0.421413 0
M  V30 3811 C 347.518 1.0965 1.53695 0
M  V30 3812 O 346.875 0.10521 1.82196 0
M  V30 3813 C 346.926 3.48584 0.957665 0
M  V30 3814 O 346.647 4.37953 -0.113389 0
M  V30 3815 C 348.148 4.10664 1.66943 0
M  V30 3816 H 345.368 0.662944 0.103665 0
M  V30 3817 H 347.912 2.01793 -0.331629 0
M  V30 3818 H 346.067 3.49985 1.661 0
M  V30 3819 H 346.481 5.23704 0.288932 0
M  V30 3820 H 347.955 5.14622 1.99671 0
M  V30 3821 H 348.432 3.55373 2.58083 0
M  V30 3822 H 349.038 4.13098 1.01142 0
M  V30 3823 N 347.353 -0.0568162 1.57498 0
M  V30 3824 C 348.286 -1.09817 2.00039 0
M  V30 3825 C 349.264 -1.3674 0.879819 0
M  V30 3826 O 350.448 -1.49863 1.14338 0
M  V30 3827 C 347.575 -2.43924 2.34986 0
M  V30 3828 C 346.621 -2.33039 3.57204 0
M  V30 3829 S 347.454 -1.7102 5.07457 0
M  V30 3830 C 348.61 -3.06674 5.45621 0
M  V30 3831 H 348.843 -0.735701 2.88053 0
M  V30 3832 H 346.376 -0.265871 1.52094 0
M  V30 3833 H 348.334 -3.2106 2.55795 0
M  V30 3834 H 346.995 -2.77327 1.47474 0
M  V30 3835 H 346.188 -3.31973 3.79223 0
M  V30 3836 H 345.79 -1.64043 3.36104 0
M  V30 3837 H 348.082 -4.03 5.44608 0
M  V30 3838 H 349.025 -2.8942 6.46252 0
M  V30 3839 H 349.433 -3.07969 4.73091 0
M  V30 3840 N 348.832 -1.54138 -0.328536 0
M  V30 3841 C 349.742 -1.86192 -1.42723 0
M  V30 3842 C 350.758 -0.753382 -1.56844 0
M  V30 3843 O 351.934 -1.04718 -1.72035 0
M  V30 3844 C 348.999 -2.07824 -2.77507 0
M  V30 3845 C 348.06 -3.31641 -2.72603 0
M  V30 3846 C 347.293 -3.52232 -4.00959 0
M  V30 3847 O 347.516 -2.7636 -4.9898 0
M  V30 3848 O 346.45 -4.45699 -4.0452 0
M  V30 3849 H 350.276 -2.79608 -1.18547 0
M  V30 3850 H 347.861 -1.3998 -0.522104 0
M  V30 3851 H 349.743 -2.23411 -3.57303 0
M  V30 3852 H 348.418 -1.17596 -3.01584 0
M  V30 3853 H 347.325 -3.21444 -1.91376 0
M  V30 3854 H 348.658 -4.2191 -2.53481 0
M  V30 3855 N 350.31 0.590341 -1.46126 0
M  V30 3856 C 351.556 1.35082 -1.51264 0
M  V30 3857 C 351.889 1.93534 -0.160711 0
M  V30 3858 O 351.164 1.76045 0.826956 0
M  V30 3859 C 351.447 2.48588 -2.6053 0
M  V30 3860 C 351.3 1.95221 -4.05227 0
M  V30 3861 C 352.619 3.50662 -2.6594 0
M  V30 3862 H 349.738 0.489803 -0.550692 0
M  V30 3863 H 352.38 0.663887 -1.78024 0
M  V30 3864 H 350.53 3.07186 -2.37843 0
M  V30 3865 H 352.202 1.41139 -4.39178 0
M  V30 3866 H 350.445 1.26101 -4.15068 0
M  V30 3867 H 351.116 2.77121 -4.77397 0
M  V30 3868 H 353.592 3.01934 -2.86313 0
M  V30 3869 H 352.468 4.27551 -3.44226 0
M  V30 3870 H 352.729 4.07399 -1.71694 0
M  V30 3871 N 351.788 1.33704 0.83433 0
M  V30 3872 C 353.065 1.16011 1.57483 0
M  V30 3873 C 353.445 -0.27176 2.09343 0
M  V30 3874 O 352.793 -1.27146 1.89858 0
M  V30 3875 C 353.003 2.20507 2.70514 0
M  V30 3876 C 354.351 2.54898 3.39577 0
M  V30 3877 O 355.375 2.19209 2.80759 0
M  V30 3878 O 354.234 3.16158 4.45765 0
M  V30 3879 H 351.328 0.448992 0.694503 0
M  V30 3880 H 353.874 1.453 0.876691 0
M  V30 3881 H 352.646 3.16667 2.29865 0
M  V30 3882 H 352.269 1.92329 3.47987 0
M  V30 3883 N 353.266 -1.05314 1.17247 0
M  V30 3884 C 354.196 -2.1498 0.911362 0
M  V30 3885 C 355.177 -1.69471 -0.146169 0
M  V30 3886 O 356.362 -1.942 0.003812 0
M  V30 3887 C 353.492 -3.4472 0.422528 0
M  V30 3888 C 352.446 -4.03789 1.4191 0
M  V30 3889 C 351.772 -5.28858 0.788274 0
M  V30 3890 C 353.072 -4.41418 2.7919 0
M  V30 3891 H 354.766 -2.3708 1.82848 0
M  V30 3892 H 352.312 -1.13938 0.880569 0
M  V30 3893 H 354.265 -4.20787 0.227289 0
M  V30 3894 H 352.989 -3.22269 -0.530123 0
M  V30 3895 H 351.648 -3.2979 1.60106 0
M  V30 3896 H 351.296 -5.02709 -0.171173 0
M  V30 3897 H 350.996 -5.69338 1.45353 0
M  V30 3898 H 352.52 -6.07612 0.603282 0
M  V30 3899 H 353.934 -5.08524 2.64719 0
M  V30 3900 H 352.331 -4.92913 3.42282 0
M  V30 3901 H 353.401 -3.51819 3.33693 0
M  V30 3902 N 354.744 -0.972509 -1.24016 0
M  V30 3903 C 355.992 -0.635776 -1.91839 0
M  V30 3904 C 356.313 0.832312 -1.76345 0
M  V30 3905 O 355.583 1.5946 -1.13795 0
M  V30 3906 H 354.163 -0.232157 -0.710009 0
M  V30 3907 H 356.825 -1.23462 -1.50809 0
M  V30 3908 H 355.921 -0.880545 -2.99421 0
M  V30 3909 N 356.222 1.38976 -0.743202 0
M  V30 3910 C 357.447 2.05161 -0.303936 0
M  V30 3911 C 357.872 1.55677 1.05576 0
M  V30 3912 O 357.23 0.704131 1.67068 0
M  V30 3913 C 357.278 3.59138 -0.324373 0
M  V30 3914 O 356.382 4.06668 0.685204 0
M  V30 3915 H 355.723 0.649815 -0.136518 0
M  V30 3916 H 358.253 1.77852 -1.01142 0
M  V30 3917 H 358.263 4.07639 -0.171618 0
M  V30 3918 H 356.938 3.94515 -1.31647 0
M  V30 3919 H 355.515 3.69561 0.497913 0
M  V30 3920 N 357.7 0.491464 1.49741 0
M  V30 3921 C 358.632 -0.328609 2.26832 0
M  V30 3922 C 359.645 -0.939113 1.32983 0
M  V30 3923 O 360.834 -0.824067 1.58339 0
M  V30 3924 C 357.934 -1.47675 3.05033 0
M  V30 3925 C 357.107 -0.975305 4.26388 0
M  V30 3926 C 356.166 -1.99991 4.86714 0
M  V30 3927 O 355.192 -1.57229 5.47054 0
M  V30 3928 N 356.394 -3.32962 4.75517 0
M  V30 3929 H 359.159 0.332377 2.97851 0
M  V30 3930 H 356.72 0.323441 1.58636 0
M  V30 3931 H 358.712 -2.15954 3.42266 0
M  V30 3932 H 357.282 -2.04206 2.36683 0
M  V30 3933 H 356.502 -0.117723 3.94024 0
M  V30 3934 H 357.79 -0.618531 5.05026 0
M  V30 3935 H 357.188 -3.70399 4.27576 0
M  V30 3936 H 355.745 -3.96982 5.16961 0
M  V30 3937 N 359.178 -1.55987 0.224894 0
M  V30 3938 C 360.427 -1.97566 -0.406273 0
M  V30 3939 C 360.74 -1.11569 -1.6066 0
M  V30 3940 O 361.946 -1.43062 -2.3075 0
M  V30 3941 C 360.402 -3.51474 -0.774207 0
M  V30 3942 C 360.01 -4.46179 0.403496 0
M  V30 3943 C 361.754 -4.01758 -1.37079 0
M  V30 3944 C 359.661 -5.91399 0.0129412 0
M  V30 3945 H 358.591 -0.737777 -0.155565 0
M  V30 3946 H 361.242 -1.80659 0.321635 0
M  V30 3947 H 359.624 -3.63994 -1.55963 0
M  V30 3948 H 360.798 -4.45409 1.18101 0
M  V30 3949 H 359.113 -4.06255 0.913536 0
M  V30 3950 H 361.71 -5.07756 -1.67596 0
M  V30 3951 H 362.053 -3.47805 -2.28773 0
M  V30 3952 H 362.586 -3.92475 -0.648733 0
M  V30 3953 H 359.325 -6.49341 0.896451 0
M  V30 3954 H 358.845 -5.95356 -0.728821 0
M  V30 3955 H 360.524 -6.45683 -0.412582 0
M  V30 3956 N 360.656 0.0484629 -1.57525 0
M  V30 3957 C 361.588 1.08222 -2.02041 0
M  V30 3958 C 362.601 1.33621 -0.930012 0
M  V30 3959 O 363.79 1.3145 -1.20761 0
M  V30 3960 C 360.89 2.42818 -2.36416 0
M  V30 3961 C 360.063 2.37049 -3.67596 0
M  V30 3962 C 359.122 3.53937 -3.89378 0
M  V30 3963 O 358.148 3.34308 -4.60681 0
M  V30 3964 N 359.35 4.75126 -3.3352 0
M  V30 3965 H 362.115 0.702946 -2.9134 0
M  V30 3966 H 359.676 0.236745 -1.6016 0
M  V30 3967 H 361.668 3.197 -2.48141 0
M  V30 3968 H 360.238 2.72661 -1.52888 0
M  V30 3969 H 359.458 1.45395 -3.66407 0
M  V30 3970 H 360.746 2.30318 -4.53686 0
M  V30 3971 H 360.144 4.93976 -2.75688 0
M  V30 3972 H 358.701 5.49439 -3.50656 0
M  V30 3973 N 362.134 1.5431 0.320358 0
M  V30 3974 C 363.064 1.86912 1.3995 0
M  V30 3975 C 364.045 0.726211 1.53819 0
M  V30 3976 O 365.23 0.980233 1.67646 0
M  V30 3977 C 362.36 2.09932 2.7667 0
M  V30 3978 C 361.314 3.25776 2.77586 0
M  V30 3979 C 360.64 3.34173 4.17412 0
M  V30 3980 C 361.94 4.6335 2.41048 0
M  V30 3981 H 363.634 2.77292 1.12914 0
M  V30 3982 H 361.18 1.33421 0.541738 0
M  V30 3983 H 363.133 2.31324 3.52232 0
M  V30 3984 H 361.857 1.16304 3.0519 0
M  V30 3985 H 360.516 3.04276 2.04479 0
M  V30 3986 H 360.164 2.38098 4.43078 0
M  V30 3987 H 359.864 4.12033 4.18931 0
M  V30 3988 H 361.388 3.57803 4.94782 0
M  V30 3989 H 362.802 4.84602 3.06324 0
M  V30 3990 H 361.199 5.43782 2.53813 0
M  V30 3991 H 362.269 4.65381 1.36193 0
M  V30 3992 N 363.613 -0.582584 1.46437 0
M  V30 3993 C 364.862 -1.337 1.5102 0
M  V30 3994 C 365.175 -1.94891 0.166359 0
M  V30 3995 O 366.381 -2.71351 0.0899954 0
M  V30 3996 C 364.837 -2.42315 2.66104 0
M  V30 3997 C 364.445 -1.87427 4.06909 0
M  V30 3998 C 366.189 -3.19099 2.79958 0
M  V30 3999 C 364.096 -2.93672 5.13333 0
M  V30 4000 H 363.026 -0.502619 0.562041 0
M  V30 4001 H 365.677 -0.621701 1.72647 0
M  V30 4002 H 364.059 -3.16645 2.37807 0
M  V30 4003 H 365.233 -1.19639 4.44998 0
M  V30 4004 H 363.548 -1.2331 3.97723 0
M  V30 4005 H 366.145 -3.9839 3.56636 0
M  V30 4006 H 366.488 -3.71695 1.87479 0
M  V30 4007 H 367.021 -2.51875 3.07902 0
M  V30 4008 H 363.76 -2.45962 6.07604 0
M  V30 4009 H 363.28 -3.59948 4.79789 0
M  V30 4010 H 364.959 -3.5762 5.39182 0
M  V30 4011 N 365.091 -1.34144 -0.827227 0
M  V30 4012 C 366.331 -1.27603 -1.59677 0
M  V30 4013 C 366.695 0.153035 -1.91389 0
M  V30 4014 O 367.896 0.342566 -2.66608 0
M  V30 4015 C 366.167 -2.13784 -2.86411 0
M  V30 4016 S 367.726 -2.24552 -3.76991 0
M  V30 4017 H 364.544 -0.453789 -0.547354 0
M  V30 4018 H 367.146 -1.69309 -0.977479 0
M  V30 4019 H 365.85 -3.16627 -2.61104 0
M  V30 4020 H 365.381 -1.72959 -3.5334 0
M  V30 4021 H 367.396 -1.41514 -4.75593 0
M  V30 4022 N 366.569 1.04691 -1.17803 0
M  V30 4023 C 367.517 2.14665 -0.895635 0
M  V30 4024 C 368.511 1.68806 0.141679 0
M  V30 4025 O 369.717 1.79999 -0.00587914 0
M  V30 4026 H 366.092 0.701038 -0.272121 0
M  V30 4027 H 368.063 2.35685 -1.83017 0
M  V30 4028 C 366.812 3.45019 -0.430962 0
M  V30 4029 H 366.135 3.8071 -1.22064 0
M  V30 4030 H 367.575 4.23125 -0.272301 0
M  V30 4031 C 366.034 3.25943 0.852207 0
M  V30 4032 O 366.564 3.5296 1.91786 0
M  V30 4033 N 364.77 2.79304 0.802346 0
M  V30 4034 H 364.317 2.57518 -0.0650788 0
M  V30 4035 H 364.275 2.66921 1.66134 0
M  V30 4036 N 368.047 0.979072 1.23499 0
M  V30 4037 C 369.293 0.648178 1.92163 0
M  V30 4038 C 369.626 -0.816049 1.76222 0
M  V30 4039 O 368.901 -1.58849 1.12237 0
M  V30 4040 C 369.184 1.03773 3.44824 0
M  V30 4041 C 369.037 2.55948 3.69879 0
M  V30 4042 C 370.356 0.580653 4.36253 0
M  V30 4043 H 367.475 0.236952 0.69787 0
M  V30 4044 H 370.117 1.22012 1.45647 0
M  V30 4045 H 368.267 0.551058 3.84572 0
M  V30 4046 H 369.939 3.12179 3.3962 0
M  V30 4047 H 368.182 2.98641 3.14636 0
M  V30 4048 H 368.853 2.78255 4.76737 0
M  V30 4049 H 371.329 0.998465 4.03943 0
M  V30 4050 H 370.205 0.881663 5.41773 0
M  V30 4051 H 370.466 -0.519052 4.39042 0
M  V30 4052 N 369.525 -1.3858 0.750561 0
M  V30 4053 C 370.753 -2.04471 0.316098 0
M  V30 4054 C 371.168 -1.56606 -1.05452 0
M  V30 4055 O 370.525 -0.737784 -1.66922 0
M  V30 4056 C 370.576 -3.60025 0.326275 0
M  V30 4057 O 370.297 -4.06133 1.6428 0
M  V30 4058 C 371.798 -4.43131 -0.122429 0
M  V30 4059 H 369.018 -0.65717 0.135528 0
M  V30 4060 H 371.562 -1.77329 1.01857 0
M  V30 4061 H 369.717 -3.86014 -0.327431 0
M  V30 4062 H 370.131 -5.00547 1.56693 0
M  V30 4063 H 371.605 -5.51963 -0.0641473 0
M  V30 4064 H 372.082 -4.23333 -1.16988 0
M  V30 4065 H 372.688 -4.22323 0.50229 0
M  V30 4066 N 371.003 -0.499398 -1.49478 0
M  V30 4067 C 372.251 0.0455996 -2.02049 0
M  V30 4068 C 372.572 1.37633 -1.38138 0
M  V30 4069 O 371.842 1.8842 -0.536166 0
M  V30 4070 H 370.422 0.0198416 -0.746736 0
M  V30 4071 H 373.084 -0.656274 -1.83519 0
M  V30 4072 H 372.18 0.176445 -3.11601 0
M  V30 4073 N 372.481 1.55866 -0.233164 0
M  V30 4074 C 373.413 2.18099 0.704668 0
M  V30 4075 C 374.426 1.15334 1.14899 0
M  V30 4076 O 375.615 1.42262 1.07814 0
M  V30 4077 C 372.715 2.7592 1.96777 0
M  V30 4078 C 371.888 4.03969 1.67713 0
M  V30 4079 C 370.947 4.46242 2.78845 0
M  V30 4080 O 369.973 5.12903 2.46818 0
M  V30 4081 N 371.175 4.12886 4.08051 0
M  V30 4082 H 373.94 2.99205 0.172258 0
M  V30 4083 H 371.501 1.61815 -0.0525945 0
M  V30 4084 H 373.493 3.01165 2.70337 0
M  V30 4085 H 372.063 1.99051 2.41034 0
M  V30 4086 H 371.283 3.86459 0.777391 0
M  V30 4087 H 372.571 4.8748 1.4574 0
M  V30 4088 H 371.969 3.59342 4.3691 0
M  V30 4089 H 370.526 4.42997 4.78118 0
M  V30 4090 N 373.959 -0.0401083 1.57549 0
M  V30 4091 C 374.889 -1.04384 2.08869 0
M  V30 4092 C 375.87 -1.38407 0.988817 0
M  V30 4093 O 377.055 -1.47483 1.26342 0
M  V30 4094 C 374.185 -2.34808 2.55895 0
M  V30 4095 C 373.139 -2.15057 3.70047 0
M  V30 4096 C 372.465 -3.51145 4.03239 0
M  V30 4097 C 373.765 -1.54576 4.98902 0
M  V30 4098 H 375.459 -0.616666 2.92981 0
M  V30 4099 H 373.005 -0.295184 1.40942 0
M  V30 4100 H 374.958 -3.05346 2.90417 0
M  V30 4101 H 373.682 -2.79565 1.68853 0
M  V30 4102 H 372.341 -1.46954 3.35857 0
M  V30 4103 H 371.989 -3.93529 3.13279 0
M  V30 4104 H 371.689 -3.38758 4.80122 0
M  V30 4105 H 373.213 -4.23062 4.40285 0
M  V30 4106 H 374.627 -2.15017 5.31451 0
M  V30 4107 H 373.024 -1.52796 5.80322 0
M  V30 4108 H 374.094 -0.51039 4.82206 0
M  V30 4109 N 375.437 -1.54477 -0.31217 0
M  V30 4110 C 376.662 -1.77526 -1.07235 0
M  V30 4111 C 377.087 -0.527775 -1.80544 0
M  V30 4112 O 376.445 0.52121 -1.73646 0
M  V30 4113 C 376.493 -2.97535 -2.03728 0
M  V30 4114 O 375.597 -2.69878 -3.11833 0
M  V30 4115 H 374.938 -0.58792 -0.30862 0
M  V30 4116 H 377.468 -2.01532 -0.352993 0
M  V30 4117 H 377.478 -3.25198 -2.46395 0
M  V30 4118 H 376.153 -3.87996 -1.49774 0
M  V30 4119 H 374.73 -2.53199 -2.7376 0
M  V30 4120 N 376.915 0.57481 -1.46744 0
M  V30 4121 C 378.192 1.3352 -1.4294 0
M  V30 4122 C 378.572 2.10775 -0.117009 0
M  V30 4123 O 377.92 2.09966 0.901474 0
M  V30 4124 C 378.13 2.25456 -2.66403 0
M  V30 4125 C 379.478 2.87035 -3.12883 0
M  V30 4126 O 380.502 2.35766 -2.67007 0
M  V30 4127 O 379.361 3.80179 -3.92589 0
M  V30 4128 H 376.455 0.600318 -0.568812 0
M  V30 4129 H 379.001 0.595171 -1.58921 0
M  V30 4130 H 377.773 1.67851 -3.53471 0
M  V30 4131 H 377.396 3.06785 -2.52921 0
M  V30 4132 N 378.394 1.34581 0.820102 0
M  V30 4133 C 379.643 1.26437 1.57151 0
M  V30 4134 C 379.956 -0.163111 1.94919 0
M  V30 4135 O 381.162 -0.366722 2.69012 0
M  V30 4136 C 379.618 2.21658 2.83541 0
M  V30 4137 C 379.226 3.69679 2.53065 0
M  V30 4138 C 380.97 2.22428 3.61561 0
M  V30 4139 C 378.877 4.56761 3.75664 0
M  V30 4140 H 377.807 0.469707 0.589823 0
M  V30 4141 H 380.458 1.59763 0.902656 0
M  V30 4142 H 378.84 1.81287 3.52067 0
M  V30 4143 H 380.014 4.18605 1.92631 0
M  V30 4144 H 378.329 3.71384 1.88316 0
M  V30 4145 H 380.926 2.8471 4.52597 0
M  V30 4146 H 381.269 1.22434 3.97889 0
M  V30 4147 H 381.802 2.61259 2.99981 0
M  V30 4148 H 378.541 5.57702 3.44454 0
M  V30 4149 H 378.061 4.12568 4.35371 0
M  V30 4150 H 379.74 4.71509 4.43044 0
M  V30 4151 N 379.872 -1.04064 1.18357 0
M  V30 4152 C 380.835 -2.10243 0.912707 0
M  V30 4153 C 381.835 -1.60477 -0.101928 0
M  V30 4154 O 383.025 -1.73703 0.131517 0
M  V30 4155 C 380.157 -3.38893 0.369387 0
M  V30 4156 H 381.35 -2.35706 1.85426 0
M  V30 4157 H 378.903 -1.20489 0.995594 0
M  V30 4158 H 379.638 -3.19094 -0.578776 0
M  V30 4159 H 379.423 -3.76331 1.1008 0
M  V30 4160 H 380.913 -4.17128 0.198575 0
M  V30 4161 N 381.35 -0.985608 -1.22978 0
M  V30 4162 C 382.58 -0.674603 -1.95276 0
M  V30 4163 C 382.988 0.763483 -1.73111 0
M  V30 4164 O 382.331 1.52601 -1.02268 0
M  V30 4165 C 382.393 -0.891597 -3.48268 0
M  V30 4166 C 382.057 -2.31275 -3.94158 0
M  V30 4167 C 383.054 -3.29179 -4.02415 0
M  V30 4168 C 380.739 -2.64524 -4.27004 0
M  V30 4169 C 382.733 -4.58407 -4.42879 0
M  V30 4170 C 380.42 -3.93974 -4.67149 0
M  V30 4171 C 381.418 -4.90727 -4.75053 0
M  V30 4172 O 381.106 -6.17865 -5.14294 0
M  V30 4173 H 380.838 -0.249251 -0.628371 0
M  V30 4174 H 383.392 -1.32106 -1.5728 0
M  V30 4175 H 381.622 -0.187962 -3.86243 0
M  V30 4176 H 383.311 -0.576957 -4.01779 0
M  V30 4177 H 384.077 -3.04823 -3.77237 0
M  V30 4178 H 379.956 -1.89923 -4.2006 0
M  V30 4179 H 383.5 -5.33926 -4.48964 0
M  V30 4180 H 379.397 -4.18122 -4.91777 0
M  V30 4181 H 380.165 -6.21694 -5.32389 0
M  V30 4182 N 382.828 1.3818 -0.7579 0
M  V30 4183 C 384.074 2.0078 -0.325423 0
M  V30 4184 C 384.429 1.59085 1.08211 0
M  V30 4185 O 383.722 0.820394 1.73148 0
M  V30 4186 C 383.916 3.55252 -0.391218 0
M  V30 4187 C 383.745 4.11947 -1.8036 0
M  V30 4188 C 382.515 4.43519 -2.42113 0
M  V30 4189 C 384.713 4.33908 -2.76095 0
M  V30 4190 N 382.695 4.85847 -3.75267 0
M  V30 4191 C 384.066 4.78692 -3.94023 0
M  V30 4192 C 386.121 4.16015 -2.73561 0
M  V30 4193 C 384.824 5.07459 -5.09782 0
M  V30 4194 C 386.85 4.45909 -3.88483 0
M  V30 4195 C 386.212 4.90921 -5.0515 0
M  V30 4196 H 382.311 0.764215 -0.165831 0
M  V30 4197 H 384.895 1.67724 -0.988776 0
M  V30 4198 H 383.066 3.87646 0.241886 0
M  V30 4199 H 384.798 4.04653 0.061989 0
M  V30 4200 H 381.553 4.32113 -1.93842 0
M  V30 4201 H 381.977 5.11339 -4.4369 0
M  V30 4202 H 386.619 3.80399 -1.84544 0
M  V30 4203 H 384.337 5.4197 -5.99412 0
M  V30 4204 H 387.923 4.33666 -3.87847 0
M  V30 4205 H 386.803 5.1361 -5.92599 0
M  V30 4206 N 384.306 0.507319 1.49211 0
M  V30 4207 C 385.253 -0.267728 2.29242 0
M  V30 4208 C 386.223 -0.954609 1.35928 0
M  V30 4209 O 387.408 -0.960046 1.64887 0
M  V30 4210 C 384.548 -1.32243 3.18756 0
M  V30 4211 C 383.661 -0.64669 4.27132 0
M  V30 4212 C 382.796 -1.68238 5.03855 0
M  V30 4213 C 381.835 -0.98885 6.0406 0
M  V30 4214 N 380.972 -1.96903 6.73924 0
M  V30 4215 H 385.812 0.420968 2.95012 0
M  V30 4216 H 383.349 0.219443 1.45454 0
M  V30 4217 H 385.307 -1.94599 3.69036 0
M  V30 4218 H 383.937 -1.97981 2.54958 0
M  V30 4219 H 382.989 0.0902926 3.80293 0
M  V30 4220 H 384.301 -0.101058 4.98698 0
M  V30 4221 H 383.455 -2.38081 5.58034 0
M  V30 4222 H 382.194 -2.26187 4.32077 0
M  V30 4223 H 381.199 -0.276222 5.49106 0
M  V30 4224 H 382.424 -0.415767 6.77826 0
M  V30 4225 H 380.37 -2.53803 6.04913 0
M  V30 4226 H 380.287 -1.47423 7.41487 0
M  V30 4227 H 381.555 -2.66015 7.32705 0
M  V30 4228 N 385.784 -1.5574 0.241426 0
M  V30 4229 C 387.03 -1.99846 -0.378555 0
M  V30 4230 C 387.385 -1.12665 -1.55963 0
M  V30 4231 O 386.678 -0.180966 -1.90743 0
M  V30 4232 C 386.872 -3.47308 -0.843317 0
M  V30 4233 C 386.701 -4.48756 0.291178 0
M  V30 4234 C 385.471 -4.9949 0.764077 0
M  V30 4235 C 387.669 -5.02039 1.11631 0
M  V30 4236 N 385.651 -5.84676 1.87156 0
M  V30 4237 C 387.022 -5.84343 2.07226 0
M  V30 4238 C 389.077 -4.84354 1.15349 0
M  V30 4239 C 387.78 -6.50851 3.06245 0
M  V30 4240 C 389.806 -5.51636 2.13195 0
M  V30 4241 C 389.168 -6.33724 3.07528 0
M  V30 4242 H 385.267 -0.774968 -0.104634 0
M  V30 4243 H 387.851 -1.91385 0.357751 0
M  V30 4244 H 386.022 -3.56178 -1.54893 0
M  V30 4245 H 387.754 -3.78299 -1.43779 0
M  V30 4246 H 384.509 -4.72311 0.349175 0
M  V30 4247 H 384.933 -6.31967 2.42789 0
M  V30 4248 H 389.575 -4.20525 0.438057 0
M  V30 4249 H 387.293 -7.1385 3.78739 0
M  V30 4250 H 390.879 -5.39909 2.16771 0
M  V30 4251 H 389.759 -6.84867 3.82003 0
M  V30 4252 N 387.262 0.0317525 -1.57568 0
M  V30 4253 C 388.21 1.05165 -2.07468 0
M  V30 4254 C 389.204 1.3761 -0.98792 0
M  V30 4255 O 390.41 1.36546 -1.17282 0
M  V30 4256 H 386.785 0.35666 -0.66204 0
M  V30 4257 H 388.756 0.604958 -2.92203 0
M  V30 4258 C 387.505 2.34488 -2.56731 0
M  V30 4259 H 386.828 2.10383 -3.39969 0
M  V30 4260 H 388.268 3.04203 -2.95358 0
M  V30 4261 C 386.727 3.03266 -1.46736 0
M  V30 4262 O 387.257 3.92988 -0.832069 0
M  V30 4263 N 385.463 2.6455 -1.20256 0
M  V30 4264 H 385.01 1.91674 -1.72102 0
M  V30 4265 H 384.968 3.10886 -0.468737 0
M  V30 4266 N 388.74 1.54641 0.303973 0
M  V30 4267 C 389.988 1.73437 1.0375 0
M  V30 4268 C 390.309 0.521449 1.87899 0
M  V30 4269 O 389.579 -0.46432 1.90318 0
M  V30 4270 H 388.159 0.639518 0.386039 0
M  V30 4271 H 390.821 1.91988 0.335675 0
M  V30 4272 H 389.917 2.62235 1.69231 0
M  V30 4273 N 390.218 -0.567019 1.47046 0
M  V30 4274 C 391.443 -1.3551 1.57009 0
M  V30 4275 C 391.868 -1.86841 0.217259 0
M  V30 4276 O 391.226 -1.62435 -0.805268 0
M  V30 4277 C 391.274 -2.50777 2.5912 0
M  V30 4278 O 390.378 -3.52706 2.13711 0
M  V30 4279 H 389.719 -0.402919 0.52778 0
M  V30 4280 H 392.249 -0.686241 1.92748 0
M  V30 4281 H 392.259 -2.97481 2.79229 0
M  V30 4282 H 390.934 -2.12771 3.57353 0
M  V30 4283 H 389.511 -3.12374 2.03659 0
M  V30 4284 N 391.696 -1.35014 -0.812953 0
M  V30 4285 C 392.942 -1.2812 -1.57204 0
M  V30 4286 C 393.275 0.145869 -1.93651 0
M  V30 4287 O 392.55 1.0937 -1.60836 0
M  V30 4288 C 392.833 -2.18162 -2.86492 0
M  V30 4289 C 392.686 -3.69454 -2.56561 0
M  V30 4290 C 394.005 -2.07439 -3.88145 0
M  V30 4291 H 391.124 -0.466746 -0.570366 0
M  V30 4292 H 393.766 -1.65357 -0.935783 0
M  V30 4293 H 391.916 -1.86535 -3.40789 0
M  V30 4294 H 393.588 -4.11493 -2.08497 0
M  V30 4295 H 391.831 -3.9005 -1.89851 0
M  V30 4296 H 392.502 -4.27835 -3.48799 0
M  V30 4297 H 394.978 -2.35228 -3.4323 0
M  V30 4298 H 393.854 -2.7265 -4.76396 0
M  V30 4299 H 394.115 -1.05439 -4.29343 0
M  V30 4300 N 393.175 1.03435 -1.18907 0
M  V30 4301 C 394.424 1.76143 -0.982669 0
M  V30 4302 C 394.737 1.89416 0.487953 0
M  V30 4303 O 395.943 2.59041 0.813036 0
M  V30 4304 C 394.399 3.16722 -1.70924 0
M  V30 4305 C 394.007 3.11522 -3.21959 0
M  V30 4306 C 395.751 3.93764 -1.58588 0
M  V30 4307 C 393.658 4.46999 -3.87228 0
M  V30 4308 H 392.588 0.660292 -0.364047 0
M  V30 4309 H 395.239 1.158 -1.42347 0
M  V30 4310 H 393.621 3.775 -1.19623 0
M  V30 4311 H 394.795 2.60158 -3.80335 0
M  V30 4312 H 393.11 2.47978 -3.34508 0
M  V30 4313 H 395.707 4.93963 -2.04707 0
M  V30 4314 H 396.05 4.12794 -0.539142 0
M  V30 4315 H 396.583 3.39576 -2.07203 0
M  V30 4316 H 393.322 4.33174 -4.91976 0
M  V30 4317 H 392.842 4.98441 -3.33642 0
M  V30 4318 H 394.521 5.15898 -3.90459 0
M  V30 4319 N 394.653 0.992116 1.22453 0
M  V30 4320 C 395.93 0.583508 1.86694 0
M  V30 4321 C 396.31 -0.9392 1.89056 0
M  V30 4322 O 395.658 -1.82081 1.38053 0
M  V30 4323 C 395.868 1.20304 3.2761 0
M  V30 4324 C 397.216 1.30308 4.0411 0
M  V30 4325 O 398.24 1.15737 3.36873 0
M  V30 4326 O 397.099 1.53615 5.24466 0
M  V30 4327 H 394.193 0.198129 0.802916 0
M  V30 4328 H 396.739 1.08794 1.30238 0
M  V30 4329 H 395.511 2.24461 3.2052 0
M  V30 4330 H 395.134 0.684144 3.9167 0
M  V30 4331 N 396.131 -1.37776 0.765217 0
M  V30 4332 C 397.041 -2.34135 0.147666 0
M  V30 4333 C 398.057 -1.59854 -0.687215 0
M  V30 4334 O 399.233 -1.91983 -0.608659 0
M  V30 4335 C 396.298 -3.3901 -0.72617 0
M  V30 4336 C 395.359 -4.2912 0.124417 0
M  V30 4337 C 394.592 -5.28986 -0.707807 0
M  V30 4338 O 394.815 -5.36205 -1.94525 0
M  V30 4339 O 393.749 -6.01779 -0.12046 0
M  V30 4340 H 397.575 -2.88664 0.943758 0
M  V30 4341 H 395.16 -1.39824 0.526277 0
M  V30 4342 H 397.042 -4.03195 -1.22524 0
M  V30 4343 H 395.717 -2.86819 -1.50056 0
M  V30 4344 H 394.624 -3.68057 0.669696 0
M  V30 4345 H 395.957 -4.84598 0.861736 0
M  V30 4346 N 397.609 -0.515225 -1.4894 0
M  V30 4347 C 398.886 0.0879088 -1.95402 0
M  V30 4348 C 399.266 1.52745 -1.45712 0
M  V30 4349 O 398.614 2.18238 -0.677093 0
M  V30 4350 C 398.824 -0.0141055 -3.48997 0
M  V30 4351 C 400.172 0.152646 -4.24326 0
M  V30 4352 O 401.196 0.0604025 -3.56149 0
M  V30 4353 O 400.055 0.34384 -5.45417 0
M  V30 4354 H 397.149 0.0874636 -0.822362 0
M  V30 4355 H 399.695 -0.578775 -1.59525 0
M  V30 4356 H 398.467 -1.01745 -3.77841 0
M  V30 4357 H 398.09 0.692091 -3.9153 0
M  V30 4358 N 399.087 1.5561 -0.249682 0
M  V30 4359 C 400.364 1.90932 0.424761 0
M  V30 4360 C 400.744 1.17078 1.75658 0
M  V30 4361 O 400.092 0.289176 2.26663 0
M  V30 4362 C 400.302 3.43975 0.590109 0
M  V30 4363 C 401.65 4.15281 0.884714 0
M  V30 4364 O 402.674 3.49729 0.67587 0
M  V30 4365 O 401.533 5.31236 1.28259 0
M  V30 4366 H 398.627 0.794815 0.228468 0
M  V30 4367 H 401.173 1.67135 -0.293954 0
M  V30 4368 H 399.945 3.89748 -0.34818 0
M  V30 4369 H 399.568 3.73644 1.35926 0
M  V30 4370 N 400.565 -0.0233959 1.57583 0
M  V30 4371 C 401.976 -0.56927 1.77809 0
M  V30 4372 C 402.327 -1.75284 0.881472 0
M  V30 4373 O 401.452 -2.1626 0.0777805 0
M  V30 4374 C 402.047 -1.03949 3.22459 0
M  V30 4375 C 400.606 -1.53084 3.43864 0
M  V30 4376 C 399.753 -0.471454 2.73263 0
M  V30 4377 H 402.704 0.202825 1.57399 0
M  V30 4378 H 402.725 -1.90661 3.29285 0
M  V30 4379 H 402.237 -0.177865 3.87692 0
M  V30 4380 H 400.338 -2.41414 2.83814 0
M  V30 4381 H 400.451 -1.57443 4.52491 0
M  V30 4382 H 398.815 -0.927788 2.37201 0
M  V30 4383 H 399.598 0.380808 3.41181 0
M  V30 4384 N 402.043 -1.548 -0.295768 0
M  V30 4385 C 403.289 -1.74588 -1.03184 0
M  V30 4386 C 403.622 -0.532962 -1.86744 0
M  V30 4387 O 402.897 0.469872 -1.88739 0
M  V30 4388 C 403.18 -3.03791 -1.93347 0
M  V30 4389 C 403.033 -4.35392 -1.12933 0
M  V30 4390 C 404.352 -3.28892 -2.92435 0
M  V30 4391 H 401.471 -0.635221 -0.373715 0
M  V30 4392 H 404.113 -1.87519 -0.30606 0
M  V30 4393 H 402.263 -2.92898 -2.55232 0
M  V30 4394 H 403.935 -4.58211 -0.532943 0
M  V30 4395 H 402.178 -4.31642 -0.432168 0
M  V30 4396 H 402.849 -5.22074 -1.79284 0
M  V30 4397 H 405.325 -3.39429 -2.4068 0
M  V30 4398 H 404.201 -4.20603 -3.52682 0
M  V30 4399 H 404.462 -2.47437 -3.6637 0
M  V30 4400 N 403.521 0.559213 -1.47345 0
M  V30 4401 C 404.451 1.67622 -1.62558 0
M  V30 4402 C 405.432 1.63331 -0.475087 0
M  V30 4403 O 406.617 1.80983 -0.704182 0
M  V30 4404 C 403.747 3.0626 -1.63774 0
M  V30 4405 C 402.701 3.25397 -2.7803 0
M  V30 4406 C 402.027 4.64801 -2.64318 0
M  V30 4407 C 403.327 3.10965 -4.19641 0
M  V30 4408 H 405.021 1.55146 -2.56067 0
M  V30 4409 H 402.567 0.744961 -1.23233 0
M  V30 4410 H 404.52 3.84247 -1.73008 0
M  V30 4411 H 403.244 3.1969 -0.66825 0
M  V30 4412 H 401.903 2.49817 -2.68304 0
M  V30 4413 H 401.551 4.75028 -1.65401 0
M  V30 4414 H 401.251 4.78555 -3.40968 0
M  V30 4415 H 402.775 5.44926 -2.75478 0
M  V30 4416 H 404.189 3.78772 -4.30354 0
M  V30 4417 H 402.586 3.36229 -4.97062 0
M  V30 4418 H 403.656 2.07736 -4.38148 0
M  V30 4419 N 404.999 1.35443 0.805782 0
M  V30 4420 C 406.247 1.28507 1.55982 0
M  V30 4421 C 406.568 -0.140046 1.94496 0
M  V30 4422 O 405.838 -1.07666 1.63661 0
M  V30 4423 H 404.418 0.472676 0.578434 0
M  V30 4424 H 407.08 1.69555 0.961098 0
M  V30 4425 H 406.176 1.90148 2.47488 0
M  V30 4426 N 406.477 -1.02803 1.19454 0
M  V30 4427 C 407.387 -2.14575 0.948408 0
M  V30 4428 C 408.403 -1.73757 -0.091871 0
M  V30 4429 O 409.579 -2.01185 0.0929654 0
M  V30 4430 C 406.644 -3.43202 0.491265 0
M  V30 4431 C 405.705 -3.98328 1.60103 0
M  V30 4432 C 404.938 -5.20816 1.16561 0
M  V30 4433 O 405.161 -5.70392 0.0295238 0
M  V30 4434 O 404.095 -5.68801 1.96849 0
M  V30 4435 H 407.921 -2.38202 1.88397 0
M  V30 4436 H 405.506 -1.12989 0.977433 0
M  V30 4437 H 407.388 -4.20687 0.245015 0
M  V30 4438 H 406.063 -3.21018 -0.415851 0
M  V30 4439 H 404.97 -3.22174 1.90144 0
M  V30 4440 H 406.303 -4.24879 2.48473 0
M  V30 4441 N 407.956 -0.998596 -1.21925 0
M  V30 4442 C 409.233 -0.593401 -1.86382 0
M  V30 4443 C 409.613 0.92916 -1.89552 0
M  V30 4444 O 408.961 1.81347 -1.39017 0
M  V30 4445 C 409.171 -1.22039 -3.26967 0
M  V30 4446 C 410.519 -1.32449 -4.03413 0
M  V30 4447 O 411.543 -1.17522 -3.36254 0
M  V30 4448 O 410.402 -1.56395 -5.23644 0
M  V30 4449 H 407.496 -0.202385 -0.801854 0
M  V30 4450 H 410.042 -1.09484 -1.29659 0
M  V30 4451 H 408.814 -2.26158 -3.19325 0
M  V30 4452 H 408.437 -0.704906 -3.91301 0
M  V30 4453 N 409.434 1.37368 -0.772513 0
M  V30 4454 C 410.664 2.03647 -0.348082 0
M  V30 4455 C 411.072 1.58392 1.03482 0
M  V30 4456 O 410.415 0.760921 1.672 0
M  V30 4457 C 410.477 3.58131 -0.313404 0
M  V30 4458 C 410.141 4.2652 -1.64102 0
M  V30 4459 C 411.138 4.50587 -2.5936 0
M  V30 4460 C 408.823 4.64335 -1.91567 0
M  V30 4461 C 410.817 5.11526 -3.80289 0
M  V30 4462 C 408.504 5.24996 -3.12766 0
M  V30 4463 C 409.502 5.48529 -4.06946 0
M  V30 4464 O 409.19 6.07921 -5.26011 0
M  V30 4465 H 408.922 0.660538 -0.143753 0
M  V30 4466 H 411.476 1.76669 -1.04772 0
M  V30 4467 H 409.706 3.84159 0.442617 0
M  V30 4468 H 411.395 4.05813 0.0840613 0
M  V30 4469 H 412.161 4.21784 -2.39423 0
M  V30 4470 H 408.04 4.45353 -1.19088 0
M  V30 4471 H 411.584 5.29811 -4.53813 0
M  V30 4472 H 407.481 5.53223 -3.32588 0
M  V30 4473 H 408.249 6.26398 -5.26847 0
M  V30 4474 N 410.912 0.523116 1.48665 0
M  V30 4475 C 412.142 -0.00961724 2.06598 0
M  V30 4476 C 412.55 -1.29333 1.38093 0
M  V30 4477 O 411.893 -1.77846 0.46007 0
M  V30 4478 C 411.955 -0.311135 3.58151 0
M  V30 4479 C 411.619 0.878092 4.48485 0
M  V30 4480 C 412.616 1.77464 4.88674 0
M  V30 4481 C 410.301 1.08315 4.90483 0
M  V30 4482 C 412.295 2.86021 5.69623 0
M  V30 4483 C 409.982 2.17187 5.71203 0
M  V30 4484 C 410.98 3.05873 6.10681 0
M  V30 4485 O 410.668 4.12862 6.89783 0
M  V30 4486 H 410.4 0.0272658 0.67545 0
M  V30 4487 H 412.954 0.726156 1.92136 0
M  V30 4488 H 411.184 -1.10079 3.70701 0
M  V30 4489 H 412.873 -0.785125 3.98234 0
M  V30 4490 H 413.639 1.62813 4.56855 0
M  V30 4491 H 409.518 0.402149 4.59243 0
M  V30 4492 H 413.062 3.55272 6.00356 0
M  V30 4493 H 408.959 2.31824 6.02435 0
M  V30 4494 H 409.727 4.10487 7.08126 0
M  V30 4495 N 412.39 -1.55475 0.257931 0
M  V30 4496 C 413.615 -2.04064 -0.370488 0
M  V30 4497 C 414.04 -1.13565 -1.49948 0
M  V30 4498 O 413.398 -0.130781 -1.80828 0
M  V30 4499 C 413.446 -3.50554 -0.845237 0
M  V30 4500 O 412.55 -3.63173 -1.95394 0
M  V30 4501 H 411.891 -0.659257 -0.0792243 0
M  V30 4502 H 414.421 -2.00903 0.387212 0
M  V30 4503 H 414.431 -3.91588 -1.14555 0
M  V30 4504 H 413.106 -4.15896 -0.0191259 0
M  V30 4505 H 411.683 -3.34039 -1.65748 0
M  V30 4506 N 413.868 0.0150385 -1.57593 0
M  V30 4507 C 415.114 0.704043 -1.90187 0
M  V30 4508 C 415.447 1.74249 -0.857366 0
M  V30 4509 O 414.722 1.94092 0.125843 0
M  V30 4510 C 415.005 1.36087 -3.33395 0
M  V30 4511 C 414.858 0.334981 -4.48551 0
M  V30 4512 C 416.177 2.29112 -3.7576 0
M  V30 4513 H 413.296 0.254475 -0.691673 0
M  V30 4514 H 415.938 -0.0331678 -1.89971 0
M  V30 4515 H 414.088 1.98922 -3.3371 0
M  V30 4516 H 415.76 -0.292534 -4.60372 0
M  V30 4517 H 414.003 -0.344325 -4.32431 0
M  V30 4518 H 414.674 0.833316 -5.45674 0
M  V30 4519 H 417.15 1.76308 -3.76902 0
M  V30 4520 H 416.026 2.72043 -4.76743 0
M  V30 4521 H 416.287 3.16385 -3.08793 0
M  V30 4522 N 415.346 1.54954 0.287554 0
M  V30 4523 C 416.256 1.8991 1.37736 0
M  V30 4524 C 417.272 0.794701 1.54792 0
M  V30 4525 O 418.448 1.09243 1.69198 0
M  V30 4526 C 415.513 2.15108 2.71899 0
M  V30 4527 C 414.574 3.38752 2.63715 0
M  V30 4528 C 413.807 3.62739 3.91479 0
M  V30 4529 O 414.03 2.89492 4.91478 0
M  V30 4530 O 412.964 4.56267 3.92561 0
M  V30 4531 H 416.79 2.82652 1.11092 0
M  V30 4532 H 414.375 1.41315 0.484807 0
M  V30 4533 H 416.257 2.32806 3.51254 0
M  V30 4534 H 414.932 1.25551 2.9836 0
M  V30 4535 H 413.839 3.26405 1.82786 0
M  V30 4536 H 415.172 4.28483 2.42205 0
M  V30 4537 N 416.824 -0.551391 1.4764 0
M  V30 4538 C 417.772 -1.67896 1.60978 0
M  V30 4539 C 418.766 -1.62549 0.476877 0
M  V30 4540 O 419.972 -1.67664 0.654878 0
M  V30 4541 H 416.347 -0.555649 0.506713 0
M  V30 4542 H 418.318 -1.53784 2.55721 0
M  V30 4543 C 417.067 -3.06234 1.64669 0
M  V30 4544 H 416.39 -3.11033 2.51194 0
M  V30 4545 H 417.83 -3.84804 1.7805 0
M  V30 4546 C 416.289 -3.34737 0.381115 0
M  V30 4547 O 416.819 -3.98381 -0.515297 0
M  V30 4548 N 415.025 -2.8944 0.259354 0
M  V30 4549 H 414.572 -2.37827 0.98976 0
M  V30 4550 H 414.53 -3.08882 -0.586464 0
M  V30 4551 N 418.302 -1.35869 -0.798587 0
M  V30 4552 C 419.713 -1.26498 -1.37314 0
M  V30 4553 C 420.064 0.0991899 -1.95949 0
M  V30 4554 O 419.189 1.0004 -1.91888 0
M  V30 4555 C 419.784 -2.29054 -2.49639 0
M  V30 4556 C 418.343 -2.234 -3.02935 0
M  V30 4557 C 417.49 -2.14329 -1.75949 0
M  V30 4558 H 420.441 -1.46881 -0.600971 0
M  V30 4559 H 420.462 -1.92166 -3.28409 0
M  V30 4560 H 419.974 -3.2833 -2.06933 0
M  V30 4561 H 418.075 -1.27562 -3.50084 0
M  V30 4562 H 418.188 -3.15703 -3.60372 0
M  V30 4563 H 416.552 -1.60435 -1.9782 0
M  V30 4564 H 417.335 -3.15477 -1.35384 0
M  V30 4565 N 419.78 1.02168 -1.19998 0
M  V30 4566 C 420.743 2.08765 -0.94604 0
M  V30 4567 C 421.743 1.60618 0.0763846 0
M  V30 4568 O 422.933 1.73472 -0.159135 0
M  V30 4569 C 420.065 3.38262 -0.423255 0
M  V30 4570 H 421.258 2.32726 -1.89153 0
M  V30 4571 H 418.811 1.1889 -1.01464 0
M  V30 4572 H 419.546 3.19974 0.527938 0
M  V30 4573 H 419.331 3.74532 -1.16053 0
M  V30 4574 H 420.821 4.16759 -0.264911 0
M  V30 4575 N 421.258 1.00505 1.21394 0
M  V30 4576 C 422.206 0.558623 2.25792 0
M  V30 4577 C 423.2 -0.396848 1.64686 0
M  V30 4578 O 424.406 -0.268035 1.77993 0
M  V30 4579 H 420.781 0.1623 0.734277 0
M  V30 4580 H 422.752 1.4503 2.60785 0
M  V30 4581 C 421.501 -0.0989574 3.47559 0
M  V30 4582 H 420.824 0.627225 3.94849 0
M  V30 4583 H 422.264 -0.3746 4.22342 0
M  V30 4584 C 420.723 -1.33817 3.09184 0
M  V30 4585 O 421.253 -2.43252 3.19674 0
M  V30 4586 N 419.459 -1.21793 2.63846 0
M  V30 4587 H 419.006 -0.32746 2.5551 0
M  V30 4588 H 418.964 -2.04809 2.38539 0
M  V30 4589 N 422.737 -1.36956 0.779787 0
M  V30 4590 C 423.684 -2.30175 0.169697 0
M  V30 4591 C 424.654 -1.51501 -0.68094 0
M  V30 4592 O 425.839 -1.80042 -0.631629 0
M  V30 4593 C 422.979 -3.37985 -0.697131 0
M  V30 4594 C 422.092 -4.31661 0.170992 0
M  V30 4595 C 421.227 -5.2655 -0.701298 0
M  V30 4596 C 420.266 -6.11867 0.168869 0
M  V30 4597 N 419.403 -6.98973 -0.661855 0
M  V30 4598 H 424.243 -2.81767 0.970135 0
M  V30 4599 H 421.78 -1.38699 0.489994 0
M  V30 4600 H 423.738 -3.99128 -1.2146 0
M  V30 4601 H 422.368 -2.87739 -1.46309 0
M  V30 4602 H 421.42 -3.71756 0.80634 0
M  V30 4603 H 422.732 -4.91644 0.841875 0
M  V30 4604 H 421.886 -5.92937 -1.28494 0
M  V30 4605 H 420.625 -4.66998 -1.40584 0
M  V30 4606 H 419.63 -5.44452 0.764986 0
M  V30 4607 H 420.855 -6.73493 0.870863 0
M  V30 4608 H 418.801 -6.41941 -1.35086 0
M  V30 4609 H 418.718 -7.55984 -0.0484447 0
M  V30 4610 H 419.986 -7.6974 -1.22963 0
M  V30 4611 N 424.215 -0.530993 -1.48385 0
M  V30 4612 C 425.631 -0.188919 -1.58478 0
M  V30 4613 C 425.831 1.30786 -1.53288 0
M  V30 4614 O 424.887 2.08619 -1.42248 0
M  V30 4615 C 426.2 -0.792343 -2.90073 0
M  V30 4616 C 427.748 -0.76117 -3.03604 0
M  V30 4617 C 428.223 -1.34319 -4.37861 0
M  V30 4618 N 429.714 -1.3052 -4.44431 0
M  V30 4619 C 430.449 -1.72543 -5.46824 0
M  V30 4620 N 429.945 -2.22299 -6.56167 0
M  V30 4621 N 431.738 -1.63773 -5.37712 0
M  V30 4622 H 423.889 -1.50377 -1.50002 0
M  V30 4623 H 426.152 -0.625559 -0.712306 0
M  V30 4624 H 425.858 -1.84323 -2.99529 0
M  V30 4625 H 425.732 -0.270026 -3.76232 0
M  V30 4626 H 428.119 0.280957 -2.93759 0
M  V30 4627 H 428.2 -1.32097 -2.19053 0
M  V30 4628 H 427.844 -2.38425 -4.4846 0
M  V30 4629 H 427.774 -0.759064 -5.21101 0
M  V30 4630 H 430.265 -0.940973 -3.65997 0
M  V30 4631 H 430.578 -2.52356 -7.30436 0
M  V30 4632 H 428.923 -2.26293 -6.57127 0
M  V30 4633 H 432.114 -1.24698 -4.51185 0
M  V30 4634 H 432.287 -1.96844 -6.17379 0
M  V30 4635 N 425.693 1.55336 -0.266172 0
M  V30 4636 C 427.109 1.59356 0.0882065 0
M  V30 4637 C 427.309 1.2834 1.55342 0
M  V30 4638 O 426.365 1.03996 2.30089 0
M  V30 4639 C 427.678 2.99409 -0.278364 0
M  V30 4640 C 429.226 3.12196 -0.224243 0
M  V30 4641 C 429.701 4.545 -0.565123 0
M  V30 4642 N 431.192 4.60313 -0.51634 0
M  V30 4643 C 431.927 5.68434 -0.753013 0
M  V30 4644 N 431.423 6.84738 -1.05383 0
M  V30 4645 N 433.216 5.57942 -0.682414 0
M  V30 4646 H 425.367 1.73764 -1.22147 0
M  V30 4647 H 427.63 0.809822 -0.492841 0
M  V30 4648 H 427.336 3.2691 -1.29703 0
M  V30 4649 H 427.21 3.75228 0.385186 0
M  V30 4650 H 429.597 2.84464 0.78512 0
M  V30 4651 H 429.678 2.38609 -0.921922 0
M  V30 4652 H 429.322 4.82956 -1.57213 0
M  V30 4653 H 429.252 5.26374 0.154248 0
M  V30 4654 H 431.743 3.7676 -0.29335 0
M  V30 4655 H 432.056 7.63088 -1.22133 0
M  V30 4656 H 430.401 6.86375 -1.09151 0
M  V30 4657 H 433.592 4.65958 -0.44731 0
M  V30 4658 H 433.765 6.4213 -0.870248 0
M  V30 4659 N 427.171 -0.0066808 1.57599 0
M  V30 4660 C 428.396 -0.707738 1.94951 0
M  V30 4661 C 428.821 -1.66882 0.867868 0
M  V30 4662 O 428.179 -1.80457 -0.17458 0
M  V30 4663 C 428.227 -1.42162 3.31394 0
M  V30 4664 O 427.331 -2.53578 3.25226 0
M  V30 4665 H 426.672 -0.188752 0.636607 0
M  V30 4666 H 429.202 0.0445193 2.04552 0
M  V30 4667 H 429.212 -1.78655 3.66806 0
M  V30 4668 H 427.887 -0.716903 4.09675 0
M  V30 4669 H 426.464 -2.19463 3.01481 0
M  V30 4670 N 428.649 -1.55105 -0.279332 0
M  V30 4671 C 429.877 -1.7943 -1.03017 0
M  V30 4672 C 430.292 -0.564456 -1.80165 0
M  V30 4673 O 429.649 0.466326 -1.76442 0
M  V30 4674 C 429.7 -3.0155 -1.99374 0
M  V30 4675 O 429.421 -4.19784 -1.25352 0
M  V30 4676 C 430.922 -3.3843 -2.86321 0
M  V30 4677 H 428.142 -0.597882 -0.304594 0
M  V30 4678 H 430.686 -2.02105 -0.312035 0
M  V30 4679 H 428.841 -2.81019 -2.66659 0
M  V30 4680 H 429.255 -4.88781 -1.90246 0
M  V30 4681 H 430.729 -4.27066 -3.49741 0
M  V30 4682 H 431.206 -2.57549 -3.5576 0
M  V30 4683 H 431.812 -3.61197 -2.24536 0
M  V30 4684 N 430.127 0.543554 -1.4793 0
M  V30 4685 C 431.057 1.65888 -1.64327 0
M  V30 4686 C 432.038 1.62818 -0.492383 0
M  V30 4687 O 433.223 1.80226 -0.723338 0
M  V30 4688 C 430.353 3.04506 -1.67013 0
M  V30 4689 C 429.307 3.2243 -2.81466 0
M  V30 4690 C 428.633 4.61972 -2.69233 0
M  V30 4691 C 429.933 3.06496 -4.22915 0
M  V30 4692 H 431.627 1.52421 -2.57698 0
M  V30 4693 H 429.173 0.731849 -1.24016 0
M  V30 4694 H 431.126 3.82391 -1.77074 0
M  V30 4695 H 429.85 3.18964 -0.70212 0
M  V30 4696 H 428.509 2.46957 -2.70938 0
M  V30 4697 H 428.157 4.73247 -1.7043 0
M  V30 4698 H 427.857 4.74911 -3.46025 0
M  V30 4699 H 429.381 5.41974 -2.81242 0
M  V30 4700 H 430.795 3.74186 -4.34348 0
M  V30 4701 H 429.192 3.30938 -5.006 0
M  V30 4702 H 430.262 2.03077 -4.40327 0
M  V30 4703 N 431.605 1.3629 0.791371 0
M  V30 4704 C 432.854 1.29742 1.54434 0
M  V30 4705 C 433.167 -0.121729 1.95221 0
M  V30 4706 O 434.373 -0.309579 2.69729 0
M  V30 4707 C 432.829 2.27623 2.78776 0
M  V30 4708 C 432.437 3.74963 2.45166 0
M  V30 4709 C 434.181 2.30047 3.56761 0
M  V30 4710 C 432.088 4.64626 3.65891 0
M  V30 4711 H 431.018 0.482113 0.579727 0
M  V30 4712 H 433.669 1.61642 0.868565 0
M  V30 4713 H 432.051 1.88714 3.48142 0
M  V30 4714 H 433.225 4.22596 1.83709 0
M  V30 4715 H 431.54 3.75295 1.80396 0
M  V30 4716 H 434.137 2.94247 4.46456 0
M  V30 4717 H 434.48 1.30846 3.95203 0
M  V30 4718 H 435.013 2.67563 2.94372 0
M  V30 4719 H 431.752 5.64883 3.32547 0
M  V30 4720 H 431.272 4.2171 4.26521 0
M  V30 4721 H 432.951 4.80801 4.32943 0
M  V30 4722 N 433.083 -1.0153 1.20538 0
M  V30 4723 C 434.311 -1.78746 1.04199 0
M  V30 4724 C 434.726 -1.84323 -0.408733 0
M  V30 4725 O 434.083 -1.29714 -1.28377 0
M  V30 4726 C 434.134 -3.23152 1.62035 0
M  V30 4727 O 433.855 -3.17918 3.0143 0
M  V30 4728 C 435.356 -4.16911 1.50666 0
M  V30 4729 H 432.576 -0.56208 0.366479 0
M  V30 4730 H 435.12 -1.27794 1.59653 0
M  V30 4731 H 433.275 -3.71248 1.10697 0
M  V30 4732 H 433.689 -4.08567 3.28897 0
M  V30 4733 H 435.163 -5.16072 1.95892 0
M  V30 4734 H 435.64 -4.36791 0.459363 0
M  V30 4735 H 436.246 -3.74698 2.01201 0
M  V30 4736 N 434.561 -1.01147 -1.20859 0
M  V30 4737 C 435.807 -0.698899 -1.90377 0
M  V30 4738 C 436.14 0.76904 -1.78324 0
M  V30 4739 O 435.415 1.55817 -1.16409 0
M  V30 4740 C 435.698 -1.12878 -3.41951 0
M  V30 4741 C 435.551 -2.65665 -3.62963 0
M  V30 4742 C 436.87 -0.696114 -4.3456 0
M  V30 4743 H 433.989 -0.255372 -0.691342 0
M  V30 4744 H 436.631 -1.25831 -1.42361 0
M  V30 4745 H 434.781 -0.652827 -3.82976 0
M  V30 4746 H 436.453 -3.21074 -3.31224 0
M  V30 4747 H 434.696 -3.06878 -3.06608 0
M  V30 4748 H 435.367 -2.90797 -4.69192 0
M  V30 4749 H 437.843 -1.10521 -4.01154 0
M  V30 4750 H 436.719 -1.025 -5.39245 0
M  V30 4751 H 436.98 0.402465 -4.40264 0
M  V30 4752 N 436.039 1.36541 -0.78704 0
M  V30 4753 C 436.969 2.32659 -0.197992 0
M  V30 4754 C 437.95 1.56533 0.665697 0
M  V30 4755 O 439.135 1.84698 0.60001 0
M  V30 4756 C 436.265 3.40778 0.669901 0
M  V30 4757 C 435.219 4.27897 -0.0937039 0
M  V30 4758 C 434.545 5.27163 0.894629 0
M  V30 4759 C 435.845 5.06334 -1.28154 0
M  V30 4760 H 437.539 2.82171 -1.00099 0
M  V30 4761 H 435.085 1.35665 -0.482793 0
M  V30 4762 H 437.038 4.07008 1.09191 0
M  V30 4763 H 435.762 2.89827 1.50558 0
M  V30 4764 H 434.421 3.6322 -0.49666 0
M  V30 4765 H 434.069 4.72486 1.72527 0
M  V30 4766 H 433.769 5.86317 0.388149 0
M  V30 4767 H 435.293 5.96266 1.31525 0
M  V30 4768 H 436.707 5.65617 -0.93541 0
M  V30 4769 H 435.104 5.74888 -1.72115 0
M  V30 4770 H 436.174 4.38114 -2.07807 0
M  V30 4771 N 437.518 0.538854 1.48102 0
M  V30 4772 C 438.466 -0.232325 2.31437 0
M  V30 4773 C 439.46 -0.927004 1.41785 0
M  V30 4774 O 440.666 -0.850378 1.58646 0
M  V30 4775 H 437.041 -0.0937916 0.746128 0
M  V30 4776 H 439.012 0.489986 2.9435 0
M  V30 4777 C 437.761 -1.26074 3.24038 0
M  V30 4778 H 437.084 -0.735609 3.92974 0
M  V30 4779 H 438.524 -1.77157 3.85216 0
M  V30 4780 C 436.983 -2.29902 2.46265 0
M  V30 4781 O 437.513 -3.36502 2.19384 0
M  V30 4782 N 435.719 -2.03348 2.07601 0
M  V30 4783 H 435.266 -1.16675 2.29662 0
M  V30 4784 H 435.224 -2.73038 1.55877 0
M  V30 4785 N 438.996 -1.55193 0.274407 0
M  V30 4786 C 440.245 -1.98758 -0.343213 0
M  V30 4787 C 440.558 -1.16624 -1.5703 0
M  V30 4788 O 441.764 -1.5033 -2.26082 0
M  V30 4789 C 440.22 -3.53759 -0.661996 0
M  V30 4790 C 439.828 -4.4467 0.54524 0
M  V30 4791 C 441.572 -4.05916 -1.24228 0
M  V30 4792 C 439.479 -5.91058 0.201084 0
M  V30 4793 H 438.409 -0.742353 -0.132014 0
M  V30 4794 H 441.06 -1.79545 0.378948 0
M  V30 4795 H 439.442 -3.68772 -1.44304 0
M  V30 4796 H 440.616 -4.41426 1.32212 0
M  V30 4797 H 438.931 -4.03143 1.04232 0
M  V30 4798 H 441.528 -5.12831 -1.51357 0
M  V30 4799 H 441.871 -3.54908 -2.17592 0
M  V30 4800 H 442.404 -3.9434 -0.523542 0
M  V30 4801 H 439.143 -6.46161 1.10258 0
M  V30 4802 H 438.663 -5.97373 -0.539045 0
M  V30 4803 H 440.342 -6.46669 -0.206954 0
M  V30 4804 N 440.474 -0.00167713 -1.576 0
M  V30 4805 C 441.699 0.69739 -1.95323 0
M  V30 4806 C 442.124 1.6642 -0.876706 0
M  V30 4807 O 441.482 1.80548 0.165007 0
M  V30 4808 C 441.53 1.40403 -3.32144 0
M  V30 4809 O 440.634 2.5185 -3.26566 0
M  V30 4810 H 439.975 0.185373 -0.637599 0
M  V30 4811 H 442.505 -0.0553665 -2.04525 0
M  V30 4812 H 442.515 1.76707 -3.67748 0
M  V30 4813 H 441.19 0.695167 -4.10049 0
M  V30 4814 H 439.767 2.17861 -3.0264 0
M  V30 4815 N 441.952 1.55251 0.271103 0
M  V30 4816 C 442.862 1.9136 1.35714 0
M  V30 4817 C 443.878 0.811075 1.5394 0
M  V30 4818 O 445.054 1.11031 1.6803 0
M  V30 4819 C 442.119 2.1798 2.69603 0
M  V30 4820 C 441.18 3.4153 2.60107 0
M  V30 4821 C 440.413 3.66871 3.8761 0
M  V30 4822 O 440.636 2.94689 4.8838 0
M  V30 4823 O 439.57 4.60405 3.87699 0
M  V30 4824 H 443.396 2.83815 1.08088 0
M  V30 4825 H 440.981 1.41821 0.469792 0
M  V30 4826 H 442.863 2.36518 3.48765 0
M  V30 4827 H 441.538 1.28708 2.97012 0
M  V30 4828 H 440.445 3.28325 1.79314 0
M  V30 4829 H 441.778 4.31027 2.37647 0
M  V30 4830 N 443.43 -0.535701 1.48216 0
M  V30 4831 C 444.679 -1.28828 1.55197 0
M  V30 4832 C 444.992 -1.94263 0.228278 0
M  V30 4833 O 446.198 -2.70927 0.176278 0
M  V30 4834 C 444.654 -2.33727 2.73678 0
M  V30 4835 C 444.262 -1.74386 4.12666 0
M  V30 4836 C 446.006 -3.1003 2.89968 0
M  V30 4837 C 443.913 -2.77192 5.22416 0
M  V30 4838 H 442.843 -0.484484 0.577747 0
M  V30 4839 H 445.494 -0.56646 1.74538 0
M  V30 4840 H 443.876 -3.08919 2.4776 0
M  V30 4841 H 445.05 -1.05421 4.48579 0
M  V30 4842 H 443.365 -1.10595 4.01445 0
M  V30 4843 H 445.962 -3.86842 3.6913 0
M  V30 4844 H 446.305 -3.65542 1.9921 0
M  V30 4845 H 446.838 -2.41952 3.15759 0
M  V30 4846 H 443.577 -2.26507 6.15122 0
M  V30 4847 H 443.097 -3.44502 4.90998 0
M  V30 4848 H 444.776 -3.40285 5.50286 0
M  V30 4849 N 444.908 -1.36708 -0.784132 0
M  V30 4850 C 445.818 -1.3363 -1.92822 0
M  V30 4851 C 446.834 -0.237686 -1.72369 0
M  V30 4852 O 448.01 -0.470962 -1.95816 0
M  V30 4853 C 445.075 -1.13011 -3.27764 0
M  V30 4854 C 444.136 -2.32397 -3.60957 0
M  V30 4855 C 443.369 -2.12752 -4.89461 0
M  V30 4856 O 443.592 -1.10541 -5.59586 0
M  V30 4857 O 442.526 -3.00653 -5.21432 0
M  V30 4858 H 446.352 -2.29964 -1.98369 0
M  V30 4859 H 443.937 -1.1731 -0.925136 0
M  V30 4860 H 445.819 -1.03451 -4.08504 0
M  V30 4861 H 444.494 -0.19743 -3.23097 0
M  V30 4862 H 443.401 -2.47527 -2.80502 0
M  V30 4863 H 444.734 -3.2419 -3.70354 0
M  V30 4864 N 446.386 1.0089 -1.21074 0
M  V30 4865 C 447.611 1.78727 -1.05221 0
M  V30 4866 C 448.036 1.83932 0.393795 0
M  V30 4867 O 447.394 1.28004 1.28393 0
M  V30 4868 C 447.442 3.20665 -1.64944 0
M  V30 4869 O 446.546 4.02632 -0.892273 0
M  V30 4870 H 445.887 0.550973 -0.370574 0
M  V30 4871 H 448.417 1.26847 -1.60534 0
M  V30 4872 H 448.427 3.71352 -1.69002 0
M  V30 4873 H 447.102 3.16191 -2.70177 0
M  V30 4874 H 445.679 3.61207 -0.926492 0
M  V30 4875 N 447.864 1.01787 1.20321 0
M  V30 4876 C 449.28 0.732951 1.41774 0
M  V30 4877 C 449.48 -0.686883 1.89431 0
M  V30 4878 O 448.536 -1.45446 2.06402 0
M  V30 4879 C 449.849 1.75973 2.43832 0
M  V30 4880 C 451.397 1.77802 2.57596 0
M  V30 4881 C 451.872 2.7941 3.62897 0
M  V30 4882 N 453.363 2.78157 3.70382 0
M  V30 4883 C 454.098 3.53434 4.51521 0
M  V30 4884 N 453.594 4.38392 5.36455 0
M  V30 4885 N 455.387 3.42026 4.46066 0
M  V30 4886 H 447.538 1.93447 0.877035 0
M  V30 4887 H 449.801 0.835712 0.447536 0
M  V30 4888 H 449.507 2.77699 2.15815 0
M  V30 4889 H 449.381 1.57292 3.4284 0
M  V30 4890 H 451.768 0.767602 2.84942 0
M  V30 4891 H 451.849 2.00557 1.58779 0
M  V30 4892 H 451.493 3.80616 3.36295 0
M  V30 4893 H 451.423 2.53916 4.61339 0
M  V30 4894 H 453.914 2.16531 3.09714 0
M  V30 4895 H 454.227 4.92596 5.95457 0
M  V30 4896 H 452.572 4.4247 5.35953 0
M  V30 4897 H 455.763 2.75075 3.78749 0
M  V30 4898 H 455.936 4.00946 5.09064 0
M  V30 4899 N 449.342 -1.36122 0.79427 0
M  V30 4900 C 450.589 -1.99111 0.368905 0
M  V30 4901 C 450.917 -1.63032 -1.0607 0
M  V30 4902 O 450.172 -0.879303 -1.74833 0
M  V30 4903 C 450.471 -3.5409 0.48527 0
M  V30 4904 C 450.137 -4.10003 1.87638 0
M  V30 4905 C 448.799 -4.24986 2.257 0
M  V30 4906 C 451.151 -4.40423 2.78706 0
M  V30 4907 C 448.479 -4.67701 3.54221 0
M  V30 4908 C 450.831 -4.84573 4.0666 0
M  V30 4909 C 449.495 -4.97761 4.44737 0
M  V30 4910 H 448.765 -0.7286 0.134992 0
M  V30 4911 H 451.412 -1.62534 1.01267 0
M  V30 4912 H 449.717 -3.91052 -0.241984 0
M  V30 4913 H 451.414 -4.00766 0.137109 0
M  V30 4914 H 448.004 -3.98784 1.57064 0
M  V30 4915 H 452.188 -4.28412 2.50553 0
M  V30 4916 H 447.444 -4.761 3.83587 0
M  V30 4917 H 451.618 -5.07074 4.77336 0
M  V30 4918 H 449.245 -5.30618 5.44379 0
M  V30 4919 N 450.82 -0.546701 -1.47814 0
M  V30 4920 C 452.05 -0.0232519 -2.06587 0
M  V30 4921 C 452.458 1.2712 -1.40133 0
M  V30 4922 O 451.801 1.77091 -0.488305 0
M  V30 4923 C 451.863 0.254117 -3.58601 0
M  V30 4924 C 451.527 -0.949331 -4.47031 0
M  V30 4925 C 452.524 -1.85216 -4.85789 0
M  V30 4926 C 450.209 -1.16104 -4.88697 0
M  V30 4927 C 452.203 -2.95047 -5.65001 0
M  V30 4928 C 449.89 -2.26247 -5.67676 0
M  V30 4929 C 450.888 -3.1555 -6.05737 0
M  V30 4930 O 450.576 -4.23784 -6.83127 0
M  V30 4931 H 450.308 -0.0380082 -0.674931 0
M  V30 4932 H 452.862 -0.756631 -1.90956 0
M  V30 4933 H 451.092 1.04168 -3.72406 0
M  V30 4934 H 452.781 0.72167 -3.99433 0
M  V30 4935 H 453.547 -1.70061 -4.54207 0
M  V30 4936 H 449.426 -0.475159 -4.58545 0
M  V30 4937 H 452.97 -3.64778 -5.94628 0
M  V30 4938 H 448.867 -2.41379 -5.98671 0
M  V30 4939 H 449.635 -4.21701 -7.01506 0
M  V30 4940 N 452.299 1.55045 -0.282633 0
M  V30 4941 C 453.246 2.22822 0.601566 0
M  V30 4942 C 454.216 1.20431 1.14392 0
M  V30 4943 O 455.401 1.48996 1.19184 0
M  V30 4944 C 452.541 2.95873 1.77632 0
M  V30 4945 C 451.654 4.12999 1.26711 0
M  V30 4946 C 450.789 4.73676 2.40426 0
M  V30 4947 C 449.828 5.82981 1.86545 0
M  V30 4948 N 448.965 6.3769 2.93762 0
M  V30 4949 H 453.805 2.97995 0.0169528 0
M  V30 4950 H 451.342 1.471 -0.00339964 0
M  V30 4951 H 453.3 3.36447 2.46697 0
M  V30 4952 H 451.93 2.2311 2.33285 0
M  V30 4953 H 450.982 3.77494 0.469314 0
M  V30 4954 H 452.294 4.91803 0.832518 0
M  V30 4955 H 451.448 5.17008 3.17471 0
M  V30 4956 H 450.187 3.94164 2.87203 0
M  V30 4957 H 449.192 5.39092 1.07983 0
M  V30 4958 H 450.417 6.64366 1.40694 0
M  V30 4959 H 448.363 5.61069 3.39908 0
M  V30 4960 H 448.28 7.11788 2.54744 0
M  V30 4961 H 449.548 6.8568 3.7076 0
M  V30 4962 N 453.777 0.010035 1.57597 0
M  V30 4963 C 454.727 -0.986858 2.05536 0
M  V30 4964 C 455.711 -1.29711 0.952042 0
M  V30 4965 O 456.903 -1.28641 1.21575 0
M  V30 4966 C 454.032 -2.2756 2.57043 0
M  V30 4967 C 453.118 -1.99455 3.74271 0
M  V30 4968 N 453.509 -1.41546 4.85591 0
M  V30 4969 C 451.807 -2.29547 3.82393 0
M  V30 4970 C 452.508 -1.3014 5.66956 0
M  V30 4971 N 451.484 -1.79044 5.13268 0
M  V30 4972 H 455.286 -0.533778 2.89012 0
M  V30 4973 H 452.8 -0.195432 1.6122 0
M  V30 4974 H 454.797 -2.99829 2.89669 0
M  V30 4975 H 453.457 -2.73512 1.7499 0
M  V30 4976 H 454.468 -1.09294 5.06236 0
M  V30 4977 H 451.145 -2.78304 3.11213 0
M  V30 4978 H 452.535 -0.855237 6.66435 0
M  V30 4979 N 455.255 -1.55392 -0.262866 0
M  V30 4980 C 456.666 -1.67079 -0.833158 0
M  V30 4981 C 457.017 -0.604539 -1.86654 0
M  V30 4982 O 456.142 0.252138 -2.14926 0
M  V30 4983 C 456.737 -3.02891 -1.51797 0
M  V30 4984 C 455.296 -3.16571 -2.03617 0
M  V30 4985 C 454.443 -2.62909 -0.881701 0
M  V30 4986 H 457.394 -1.58652 -0.0389986 0
M  V30 4987 H 457.415 -2.96445 -2.38538 0
M  V30 4988 H 456.927 -3.80473 -0.765619 0
M  V30 4989 H 455.028 -2.43782 -2.81782 0
M  V30 4990 H 455.141 -4.23271 -2.24452 0
M  V30 4991 H 453.505 -2.20324 -1.27786 0
M  V30 4992 H 454.288 -3.43003 -0.14269 0
M  V30 4993 N 456.733 0.527833 -1.48498 0
M  V30 4994 C 457.98 1.28354 -1.56625 0
M  V30 4995 C 458.308 1.93 -0.241096 0
M  V30 4996 O 457.563 1.79967 0.768798 0
M  V30 4997 C 457.862 2.39275 -2.65485 0
M  V30 4998 C 457.528 1.92268 -4.07853 0
M  V30 4999 C 456.19 1.79166 -4.46602 0
M  V30 5000 C 458.542 1.56771 -4.97064 0
M  V30 5001 C 455.87 1.28905 -5.72364 0
M  V30 5002 C 458.222 1.07972 -6.23318 0
M  V30 5003 C 456.886 0.934887 -6.60921 0
M  V30 5004 H 456.156 0.469682 -0.573131 0
M  V30 5005 H 458.803 0.588781 -1.82224 0
M  V30 5006 H 457.108 3.1443 -2.33754 0
M  V30 5007 H 458.805 2.974 -2.68988 0
M  V30 5008 H 455.395 2.03417 -3.77252 0
M  V30 5009 H 459.579 1.65753 -4.67803 0
M  V30 5010 H 454.835 1.16381 -6.00221 0
M  V30 5011 H 459.009 0.795775 -6.91838 0
M  V30 5012 H 456.636 0.543231 -7.58257 0
M  V30 5013 N 458.211 1.37122 0.776871 0
M  V30 5014 C 459.439 1.3523 1.5659 0
M  V30 5015 C 459.854 -0.0635518 1.88693 0
M  V30 5016 O 459.211 -1.02394 1.51069 0
M  V30 5017 C 459.262 2.18583 2.8793 0
M  V30 5018 O 458.983 3.5465 2.57206 0
M  V30 5019 C 460.484 2.24612 3.82183 0
M  V30 5020 H 457.704 0.4634 0.485285 0
M  V30 5021 H 460.248 1.80392 0.963266 0
M  V30 5022 H 458.403 1.76943 3.4463 0
M  V30 5023 H 458.817 3.98286 3.41275 0
M  V30 5024 H 460.291 2.87267 4.71361 0
M  V30 5025 H 460.768 1.25309 4.20944 0
M  V30 5026 H 461.374 2.66543 3.31414 0
M  V30 5027 N 459.689 -1.00246 1.21608 0
M  V30 5028 C 460.929 -1.75589 1.04631 0
M  V30 5029 C 461.293 -1.87513 -0.412648 0
M  V30 5030 O 462.494 -2.59444 -0.703003 0
M  V30 5031 C 460.765 -3.12893 1.72722 0
M  V30 5032 S 462.324 -4.04095 1.71034 0
M  V30 5033 H 459.142 -0.604133 0.374892 0
M  V30 5034 H 461.744 -1.19927 1.54395 0
M  V30 5035 H 460.448 -3.0185 2.78055 0
M  V30 5036 H 459.979 -3.73628 1.23149 0
M  V30 5037 H 461.994 -4.9045 0.753231 0
M  V30 5038 N 461.167 -1.02423 -1.1978 0
M  V30 5039 C 462.414 -0.717988 -1.89344 0
M  V30 5040 C 462.742 0.753036 -1.79331 0
M  V30 5041 O 461.997 1.56355 -1.17692 0
M  V30 5042 C 462.296 -1.1088 -3.39765 0
M  V30 5043 C 461.962 -2.57731 -3.6998 0
M  V30 5044 C 460.624 -2.97854 -3.77937 0
M  V30 5045 C 462.976 -3.52763 -3.83677 0
M  V30 5046 C 460.304 -4.31931 -3.97054 0
M  V30 5047 C 462.656 -4.86538 -4.04306 0
M  V30 5048 C 461.32 -5.26356 -4.10494 0
M  V30 5049 H 460.59 -0.26273 -0.692859 0
M  V30 5050 H 463.237 -1.28623 -1.41875 0
M  V30 5051 H 461.542 -0.459094 -3.89101 0
M  V30 5052 H 463.239 -0.849432 -3.919 0
M  V30 5053 H 459.829 -2.25646 -3.64393 0
M  V30 5054 H 464.013 -3.2292 -3.76877 0
M  V30 5055 H 459.269 -4.62324 -4.00083 0
M  V30 5056 H 463.443 -5.60093 -4.13846 0
M  V30 5057 H 461.07 -6.3026 -4.2506 0
M  V30 5058 N 462.645 1.35699 -0.801477 0
M  V30 5059 C 463.608 2.28199 -0.213994 0
M  V30 5060 C 464.608 1.49359 0.595691 0
M  V30 5061 O 465.798 1.69186 0.414921 0
M  V30 5062 C 462.93 3.33587 0.702297 0
M  V30 5063 H 464.123 2.81666 -1.02976 0
M  V30 5064 H 461.676 1.45467 -0.571759 0
M  V30 5065 H 462.411 2.85297 1.54195 0
M  V30 5066 H 462.196 3.91906 0.123484 0
M  V30 5067 H 463.686 4.02638 1.10783 0
M  V30 5068 N 464.123 0.554532 1.47522 0
M  V30 5069 C 465.07 -0.19466 2.29978 0
M  V30 5070 C 466.04 -0.910882 1.38896 0
M  V30 5071 O 467.225 -0.907102 1.67858 0
M  V30 5072 C 464.365 -1.22035 3.22802 0
M  V30 5073 C 463.478 -0.510474 4.28973 0
M  V30 5074 C 462.613 -1.52123 5.08952 0
M  V30 5075 C 461.652 -0.796173 6.069 0
M  V30 5076 N 460.789 -1.75363 6.79847 0
M  V30 5077 H 465.629 0.51461 2.93523 0
M  V30 5078 H 463.166 0.265607 1.44682 0
M  V30 5079 H 465.124 -1.8276 3.7504 0
M  V30 5080 H 463.754 -1.89769 2.61127 0
M  V30 5081 H 462.806 0.211234 3.79813 0
M  V30 5082 H 464.118 0.0576503 4.98767 0
M  V30 5083 H 463.272 -2.20207 5.65326 0
M  V30 5084 H 462.011 -2.12327 4.39054 0
M  V30 5085 H 461.016 -0.101388 5.49707 0
M  V30 5086 H 462.241 -0.199911 6.78806 0
M  V30 5087 H 460.187 -2.3443 6.12682 0
M  V30 5088 H 460.104 -1.23759 7.45801 0
M  V30 5089 H 461.372 -2.4257 7.40797 0
M  V30 5090 N 465.601 -1.54893 0.290851 0
M  V30 5091 C 466.549 -2.24579 -0.605576 0
M  V30 5092 C 467.543 -1.24824 -1.14522 0
M  V30 5093 O 468.749 -1.42706 -1.09704 0
M  V30 5094 H 465.124 -0.720946 -0.213872 0
M  V30 5095 H 467.095 -2.984 0.0048173 0
M  V30 5096 C 465.844 -2.99224 -1.77088 0
M  V30 5097 H 465.167 -3.75782 -1.36484 0
M  V30 5098 H 466.607 -3.51281 -2.3744 0
M  V30 5099 C 465.066 -2.05602 -2.66888 0
M  V30 5100 O 465.596 -1.61745 -3.67698 0
M  V30 5101 N 463.802 -1.71771 -2.34399 0
M  V30 5102 H 463.349 -2.07633 -1.52468 0
M  V30 5103 H 463.307 -1.09403 -2.94751 0
M  V30 5104 N 467.08 -0.0183926 -1.57589 0
M  V30 5105 C 468.308 0.673046 -1.95647 0
M  V30 5106 C 468.723 1.66275 -0.894312 0
M  V30 5107 O 468.08 1.82072 0.124975 0
M  V30 5108 C 468.131 1.38884 -3.33756 0
M  V30 5109 O 467.852 0.438806 -4.35897 0
M  V30 5110 C 469.353 2.1731 -3.86383 0
M  V30 5111 H 466.573 0.186292 -0.644621 0
M  V30 5112 H 469.117 -0.0749748 -2.04363 0
M  V30 5113 H 467.272 2.08835 -3.26293 0
M  V30 5114 H 467.686 0.945869 -5.15901 0
M  V30 5115 H 469.16 2.62863 -4.85394 0
M  V30 5116 H 469.637 3.00764 -3.20059 0
M  V30 5117 H 470.243 1.52339 -3.97081 0
M  V30 5118 N 468.558 1.5553 0.254621 0
M  V30 5119 C 469.508 1.86057 1.31783 0
M  V30 5120 C 470.492 0.720827 1.4385 0
M  V30 5121 O 471.684 0.982586 1.47222 0
M  V30 5122 C 468.813 2.15203 2.67475 0
M  V30 5123 C 467.899 3.35484 2.59444 0
M  V30 5124 N 468.29 4.54945 2.2104 0
M  V30 5125 C 466.588 3.38441 2.90472 0
M  V30 5126 C 467.289 5.3707 2.23453 0
M  V30 5127 N 466.265 4.75936 2.62652 0
M  V30 5128 H 470.067 2.75953 1.01129 0
M  V30 5129 H 467.581 1.55653 0.463255 0
M  V30 5130 H 469.578 2.35235 3.44195 0
M  V30 5131 H 468.238 1.26601 2.99002 0
M  V30 5132 H 469.249 4.8071 1.92712 0
M  V30 5133 H 465.926 2.60087 3.2659 0
M  V30 5134 H 467.316 6.42626 1.96166 0
M  V30 5135 N 470.036 -0.519951 1.48776 0
M  V30 5136 C 471.284 -1.2727 1.56993 0
M  V30 5137 C 471.605 -1.9339 0.25004 0
M  V30 5138 O 470.875 -1.81822 -0.729216 0
M  V30 5139 H 469.455 -0.472732 0.578389 0
M  V30 5140 H 472.117 -0.604234 1.85297 0
M  V30 5141 H 471.213 -2.04669 2.3562 0
M  V30 5142 N 471.514 -1.37532 -0.769588 0
M  V30 5143 C 472.763 -1.32183 -1.5235 0
M  V30 5144 C 473.076 0.0906555 -1.9539 0
M  V30 5145 O 474.282 0.266628 -2.70188 0
M  V30 5146 C 472.738 -2.32029 -2.75119 0
M  V30 5147 C 472.346 -3.78816 -2.3917 0
M  V30 5148 C 474.09 -2.35694 -3.53056 0
M  V30 5149 C 471.997 -4.70388 -3.58453 0
M  V30 5150 H 470.927 -0.491275 -0.571984 0
M  V30 5151 H 473.578 -1.63004 -0.842739 0
M  V30 5152 H 471.96 -1.94229 -3.45096 0
M  V30 5153 H 473.134 -4.25466 -1.76962 0
M  V30 5154 H 471.449 -3.78117 -1.74402 0
M  V30 5155 H 474.046 -3.01312 -4.41718 0
M  V30 5156 H 474.389 -1.37117 -3.93071 0
M  V30 5157 H 474.922 -2.72212 -2.90078 0
M  V30 5158 H 471.661 -5.70102 -3.23518 0
M  V30 5159 H 471.181 -4.28442 -4.19758 0
M  V30 5160 H 472.86 -4.87628 -4.25239 0
M  V30 5161 N 472.992 0.995999 -1.22138 0
M  V30 5162 C 474.269 1.70834 -0.952642 0
M  V30 5163 C 474.649 2.04257 0.533119 0
M  V30 5164 O 473.997 1.72343 1.50034 0
M  V30 5165 C 474.207 2.96119 -1.84701 0
M  V30 5166 C 475.555 3.68962 -2.10124 0
M  V30 5167 O 476.579 3.0612 -1.82124 0
M  V30 5168 O 475.438 4.82017 -2.57531 0
M  V30 5169 H 472.532 0.745498 -0.357997 0
M  V30 5170 H 475.078 1.05262 -1.33109 0
M  V30 5171 H 473.85 2.67898 -2.85213 0
M  V30 5172 H 473.473 3.6943 -1.46995 0
M  V30 5173 N 474.47 1.03057 1.19235 0
M  V30 5174 C 475.433 0.617418 2.20727 0
M  V30 5175 C 476.433 -0.319856 1.57587 0
M  V30 5176 O 477.623 -0.106633 1.73873 0
M  V30 5177 C 474.755 -0.096296 3.40764 0
M  V30 5178 H 475.948 1.51544 2.58794 0
M  V30 5179 H 473.501 0.821949 1.32942 0
M  V30 5180 H 474.236 -1.00859 3.08217 0
M  V30 5181 H 474.021 0.577217 3.87828 0
M  V30 5182 H 475.511 -0.372219 4.15938 0
M  V30 5183 N 475.948 -1.35272 0.808662 0
M  V30 5184 C 476.911 -2.28082 0.226093 0
M  V30 5185 C 477.911 -1.49673 -0.587762 0
M  V30 5186 O 479.101 -1.69404 -0.405943 0
M  V30 5187 C 476.233 -3.33955 -0.684596 0
M  V30 5188 H 477.426 -2.81116 1.04469 0
M  V30 5189 H 474.979 -1.45162 0.579466 0
M  V30 5190 H 475.714 -2.86111 -1.5268 0
M  V30 5191 H 475.499 -3.91965 -0.102699 0
M  V30 5192 H 476.989 -4.03219 -1.08646 0
M  V30 5193 N 477.426 -0.562348 -1.47226 0
M  V30 5194 C 478.656 -0.0451619 -2.06551 0
M  V30 5195 C 479.064 1.25626 -1.41473 0
M  V30 5196 O 478.407 1.76563 -0.507061 0
M  V30 5197 C 478.469 0.216068 -3.5885 0
M  V30 5198 C 478.133 -0.996691 -4.45999 0
M  V30 5199 C 479.13 -1.90358 -4.83797 0
M  V30 5200 C 476.815 -1.21281 -4.87438 0
M  V30 5201 C 478.809 -3.01023 -5.6184 0
M  V30 5202 C 476.496 -2.32255 -5.65244 0
M  V30 5203 C 477.494 -3.21956 -6.02356 0
M  V30 5204 O 477.182 -4.31005 -6.78594 0
M  V30 5205 H 476.914 -0.0451646 -0.67449 0
M  V30 5206 H 479.468 -0.776842 -1.90143 0
M  V30 5207 H 477.698 1.00212 -3.7349 0
M  V30 5208 H 479.387 0.679264 -4.00176 0
M  V30 5209 H 480.153 -1.74868 -4.52378 0
M  V30 5210 H 476.032 -0.523767 -4.58015 0
M  V30 5211 H 479.576 -3.71064 -5.90726 0
M  V30 5212 H 475.473 -2.47715 -5.96077 0
M  V30 5213 H 476.241 -4.29118 -6.96994 0
M  V30 5214 N 478.904 1.54736 -0.299062 0
M  V30 5215 C 480.153 1.99279 0.311549 0
M  V30 5216 C 480.466 1.19107 1.55154 0
M  V30 5217 O 481.672 1.53908 2.23662 0
M  V30 5218 C 480.128 3.54768 0.605632 0
M  V30 5219 C 479.736 4.43746 -0.615914 0
M  V30 5220 C 481.48 4.07841 1.17754 0
M  V30 5221 C 479.387 5.90663 -0.29509 0
M  V30 5222 H 478.317 0.744359 0.120187 0
M  V30 5223 H 480.968 1.78919 -0.407464 0
M  V30 5224 H 479.35 3.71021 1.38419 0
M  V30 5225 H 480.524 4.39267 -1.39218 0
M  V30 5226 H 478.839 4.01434 -1.10633 0
M  V30 5227 H 481.436 5.15174 1.43179 0
M  V30 5228 H 481.779 3.58324 2.11918 0
M  V30 5229 H 482.312 3.95123 0.460739 0
M  V30 5230 H 479.051 6.44325 -1.20524 0
M  V30 5231 H 478.571 5.98155 0.44394 0
M  V30 5232 H 480.25 6.46916 0.104048 0
M  V30 5233 N 480.382 0.0267497 1.57577 0
M  V30 5234 C 481.314 -0.984594 2.06974 0
M  V30 5235 C 482.327 -1.29032 0.992705 0
M  V30 5236 O 483.516 -1.25539 1.26895 0
M  V30 5237 C 480.616 -2.31262 2.47732 0
M  V30 5238 C 479.789 -2.1924 3.78487 0
M  V30 5239 C 478.848 -3.34956 4.05821 0
M  V30 5240 O 477.874 -3.11948 4.76106 0
M  V30 5241 N 479.076 -4.58672 3.55809 0
M  V30 5242 H 481.841 -0.563143 2.94362 0
M  V30 5243 H 479.402 -0.160061 1.61107 0
M  V30 5244 H 481.394 -3.07496 2.63112 0
M  V30 5245 H 479.964 -2.65056 1.65723 0
M  V30 5246 H 479.184 -1.27747 3.72927 0
M  V30 5247 H 480.472 -2.08409 4.64158 0
M  V30 5248 H 479.87 -4.8026 2.98942 0
M  V30 5249 H 478.427 -5.32083 3.76472 0
M  V30 5250 N 481.861 -1.55662 -0.24637 0
M  V30 5251 C 482.791 -1.93377 -1.30873 0
M  V30 5252 C 483.772 -0.798773 -1.50179 0
M  V30 5253 O 484.957 -1.0591 -1.62778 0
M  V30 5254 C 482.087 -2.22893 -2.66338 0
M  V30 5255 C 481.041 -3.38649 -2.61727 0
M  V30 5256 C 480.367 -3.53708 -4.00992 0
M  V30 5257 C 481.667 -4.74323 -2.18666 0
M  V30 5258 H 483.361 -2.82363 -0.995552 0
M  V30 5259 H 480.907 -1.35854 -0.477464 0
M  V30 5260 H 482.86 -2.47866 -3.40794 0
M  V30 5261 H 481.584 -1.30733 -2.99293 0
M  V30 5262 H 480.243 -3.13685 -1.89729 0
M  V30 5263 H 479.891 -2.58967 -4.31214 0
M  V30 5264 H 479.591 -4.31551 -3.98795 0
M  V30 5265 H 481.115 -3.81003 -4.77147 0
M  V30 5266 H 482.529 -4.98665 -2.82854 0
M  V30 5267 H 480.926 -5.55273 -2.27579 0
M  V30 5268 H 481.996 -4.71349 -1.13834 0
M  V30 5269 N 483.339 0.512053 -1.4905 0
M  V30 5270 C 484.588 1.26343 -1.57227 0
M  V30 5271 C 484.901 1.93876 -0.259155 0
M  V30 5272 O 486.107 2.70612 -0.219358 0
M  V30 5273 C 484.563 2.29343 -2.77362 0
M  V30 5274 C 484.171 1.67799 -4.15388 0
M  V30 5275 C 485.915 3.05378 -2.94864 0
M  V30 5276 C 483.822 2.68845 -5.2676 0
M  V30 5277 H 482.752 0.475231 -0.585382 0
M  V30 5278 H 485.403 0.53862 -1.75417 0
M  V30 5279 H 483.785 3.04938 -2.52643 0
M  V30 5280 H 484.959 0.982715 -4.50199 0
M  V30 5281 H 483.274 1.04194 -4.03153 0
M  V30 5282 H 485.871 3.80921 -3.75238 0
M  V30 5283 H 486.214 3.62327 -2.05 0
M  V30 5284 H 486.747 2.36898 -3.19569 0
M  V30 5285 H 483.486 2.16692 -6.18647 0
M  V30 5286 H 483.006 3.36647 -4.96416 0
M  V30 5287 H 484.685 3.31487 -5.5563 0
M  V30 5288 N 484.817 1.37938 0.762283 0
M  V30 5289 C 486.047 1.36685 1.54922 0
M  V30 5290 C 486.455 -0.0474099 1.89141 0
M  V30 5291 O 485.798 -1.02213 1.52638 0
M  V30 5292 C 485.86 2.14963 2.88152 0
M  V30 5293 C 485.524 3.6385 2.76518 0
M  V30 5294 C 486.521 4.57531 2.46904 0
M  V30 5295 C 484.206 4.07095 2.94243 0
M  V30 5296 C 486.2 5.92436 2.35156 0
M  V30 5297 C 483.887 5.42083 2.82116 0
M  V30 5298 C 484.885 6.34567 2.52614 0
M  V30 5299 O 484.573 7.67073 2.40529 0
M  V30 5300 H 484.305 0.469586 0.486276 0
M  V30 5301 H 486.859 1.82012 0.951876 0
M  V30 5302 H 485.089 1.6434 3.50042 0
M  V30 5303 H 486.778 2.06224 3.49609 0
M  V30 5304 H 487.544 4.25428 2.32886 0
M  V30 5305 H 483.423 3.35462 3.16206 0
M  V30 5306 H 486.967 6.64591 2.12049 0
M  V30 5307 H 482.864 5.73785 2.95704 0
M  V30 5308 H 483.632 7.77499 2.55807 0
M  V30 5309 N 486.295 -0.989507 1.22664 0
M  V30 5310 C 487.706 -1.54406 1.04955 0
M  V30 5311 C 488.057 -1.92366 -0.385951 0
M  V30 5312 O 487.182 -1.75111 -1.27142 0
M  V30 5313 C 487.777 -2.80578 1.89899 0
M  V30 5314 C 486.336 -3.32464 1.76478 0
M  V30 5315 C 485.483 -2.05524 1.86159 0
M  V30 5316 H 488.434 -0.810211 1.3646 0
M  V30 5317 H 488.455 -3.53075 1.4184 0
M  V30 5318 H 487.967 -2.52918 2.94371 0
M  V30 5319 H 486.068 -3.65024 0.747528 0
M  V30 5320 H 486.181 -4.02838 2.59342 0
M  V30 5321 H 484.545 -2.19241 1.29636 0
M  V30 5322 H 485.328 -1.80258 2.92168 0
M  V30 5323 N 487.773 -1.03688 -1.18687 0
M  V30 5324 C 489.019 -0.739123 -1.88851 0
M  V30 5325 C 489.352 0.731042 -1.79915 0
M  V30 5326 O 488.627 1.53313 -1.19688 0
M  V30 5327 C 488.91 -1.20106 -3.3948 0
M  V30 5328 C 488.763 -2.73304 -3.57246 0
M  V30 5329 C 490.082 -0.788134 -4.32986 0
M  V30 5330 H 487.201 -0.269978 -0.68577 0
M  V30 5331 H 489.843 -1.28822 -1.3966 0
M  V30 5332 H 487.993 -0.733915 -3.81505 0
M  V30 5333 H 489.665 -3.28027 -3.24339 0
M  V30 5334 H 487.908 -3.13313 -3.00029 0
M  V30 5335 H 488.579 -3.00684 -4.62918 0
M  V30 5336 H 491.055 -1.19005 -3.98719 0
M  V30 5337 H 489.931 -1.13915 -5.36949 0
M  V30 5338 H 490.192 0.308988 -4.41019 0
M  V30 5339 N 489.251 1.34841 -0.815825 0
M  V30 5340 C 490.479 2.0273 -0.413294 0
M  V30 5341 C 490.894 1.61459 0.978599 0
M  V30 5342 O 490.251 0.816584 1.63212 0
M  V30 5343 C 490.302 3.58058 -0.497676 0
M  V30 5344 O 490.023 3.97832 -1.8347 0
M  V30 5345 C 491.524 4.4321 -0.0891339 0
M  V30 5346 H 488.744 0.649956 -0.166728 0
M  V30 5347 H 491.288 1.72267 -1.10201 0
M  V30 5348 H 489.443 3.87136 0.142886 0
M  V30 5349 H 489.857 4.92501 -1.80396 0
M  V30 5350 H 491.331 5.5164 -0.199274 0
M  V30 5351 H 491.808 4.28432 0.966571 0
M  V30 5352 H 492.414 4.19446 -0.703214 0
M  V30 5353 N 490.729 0.570148 1.46925 0
M  V30 5354 C 491.677 -0.183181 2.31878 0
M  V30 5355 C 492.671 -0.896721 1.43719 0
M  V30 5356 O 493.877 -0.816536 1.60414 0
M  V30 5357 H 490.252 -0.077944 0.74795 0
M  V30 5358 H 492.223 0.552312 2.93244 0
M  V30 5359 C 490.972 -1.19172 3.2664 0
M  V30 5360 H 490.295 -0.652088 3.94446 0
M  V30 5361 H 491.735 -1.68946 3.88887 0
M  V30 5362 C 490.194 -2.24627 2.51086 0
M  V30 5363 O 490.724 -3.31773 2.26472 0
M  V30 5364 N 488.93 -1.98898 2.11867 0
M  V30 5365 H 488.477 -1.11777 2.32086 0
M  V30 5366 H 488.435 -2.6967 1.61634 0
M  V30 5367 N 492.207 -1.54576 0.307264 0
M  V30 5368 C 493.454 -2.00263 -0.300167 0
M  V30 5369 C 493.782 -1.19561 -1.53413 0
M  V30 5370 O 493.037 -0.261487 -1.93945 0
M  V30 5371 C 493.336 -3.50572 -0.695253 0
M  V30 5372 C 493.002 -4.48771 0.437679 0
M  V30 5373 C 491.664 -4.7534 0.748681 0
M  V30 5374 C 494.016 -5.0721 1.19949 0
M  V30 5375 C 491.344 -5.5761 1.8245 0
M  V30 5376 C 493.696 -5.90651 2.26527 0
M  V30 5377 C 492.36 -6.15528 2.58227 0
M  V30 5378 H 491.63 -0.732814 -0.109839 0
M  V30 5379 H 494.277 -1.86664 0.427661 0
M  V30 5380 H 492.582 -3.61814 -1.50326 0
M  V30 5381 H 494.279 -3.83352 -1.17653 0
M  V30 5382 H 490.869 -4.282 0.185187 0
M  V30 5383 H 495.053 -4.86679 0.972474 0
M  V30 5384 H 490.309 -5.75121 2.07476 0
M  V30 5385 H 494.483 -6.34957 2.86011 0
M  V30 5386 H 492.11 -6.79066 3.4172 0
M  V30 5387 N 493.685 -0.035106 -1.57561 0
M  V30 5388 C 494.617 0.973604 -2.07494 0
M  V30 5389 C 495.63 1.28504 -0.999534 0
M  V30 5390 O 496.819 1.24864 -1.27559 0
M  V30 5391 C 493.919 2.29945 -2.48955 0
M  V30 5392 C 493.092 2.1723 -3.79644 0
M  V30 5393 C 492.151 3.328 -4.07592 0
M  V30 5394 O 491.177 3.09418 -4.77754 0
M  V30 5395 N 492.379 4.56779 -3.58236 0
M  V30 5396 H 495.144 0.547525 -2.94656 0
M  V30 5397 H 492.705 0.151515 -1.61189 0
M  V30 5398 H 494.697 3.06097 -2.64739 0
M  V30 5399 H 493.267 2.64173 -1.67126 0
M  V30 5400 H 492.487 1.25768 -3.73599 0
M  V30 5401 H 493.775 2.05945 -4.65257 0
M  V30 5402 H 493.173 4.78668 -3.01485 0
M  V30 5403 H 491.73 5.30079 -3.79288 0
M  V30 5404 N 495.163 1.55791 0.238111 0
M  V30 5405 C 496.11 1.9105 1.29493 0
M  V30 5406 C 497.08 0.765733 1.47397 0
M  V30 5407 O 498.265 1.02017 1.61236 0
M  V30 5408 C 495.405 2.21826 2.64362 0
M  V30 5409 C 494.518 3.49153 2.54394 0
M  V30 5410 C 493.653 3.69455 3.81676 0
M  V30 5411 C 492.692 4.90353 3.66361 0
M  V30 5412 N 491.829 5.07131 4.85554 0
M  V30 5413 H 496.669 2.81172 0.987233 0
M  V30 5414 H 494.206 1.39179 0.476203 0
M  V30 5415 H 496.164 2.37675 3.4288 0
M  V30 5416 H 494.794 1.34897 2.93262 0
M  V30 5417 H 493.846 3.41587 1.67399 0
M  V30 5418 H 495.158 4.37818 2.38991 0
M  V30 5419 H 494.312 3.85311 4.68636 0
M  V30 5420 H 493.051 2.7904 3.99985 0
M  V30 5421 H 492.056 4.74464 2.77784 0
M  V30 5422 H 493.281 5.82237 3.49538 0
M  V30 5423 H 491.227 4.19654 5.04209 0
M  V30 5424 H 491.144 5.89899 4.72816 0
M  V30 5425 H 492.412 5.27407 5.73988 0
M  V30 5426 N 496.642 -0.504142 1.49319 0
M  V30 5427 C 497.592 -1.60284 1.62151 0
M  V30 5428 C 498.576 -1.53657 0.477315 0
M  V30 5429 O 499.768 -1.6124 0.730108 0
M  V30 5430 C 496.897 -2.98909 1.68844 0
M  V30 5431 C 495.983 -3.10544 2.8883 0
M  V30 5432 N 496.374 -2.92078 4.12946 0
M  V30 5433 C 494.672 -3.4164 2.86702 0
M  V30 5434 C 495.373 -3.07812 4.93585 0
M  V30 5435 N 494.349 -3.36549 4.26891 0
M  V30 5436 H 498.151 -1.44656 2.55835 0
M  V30 5437 H 495.665 -0.710198 1.46048 0
M  V30 5438 H 497.662 -3.77865 1.76134 0
M  V30 5439 H 496.322 -3.15609 0.762943 0
M  V30 5440 H 497.333 -2.68316 4.42975 0
M  V30 5441 H 494.01 -3.64537 2.03517 0
M  V30 5442 H 495.4 -2.98054 6.02174 0
M  V30 5443 N 498.12 -1.38341 -0.754957 0
M  V30 5444 C 499.053 -1.29837 -1.87663 0
M  V30 5445 C 500.031 -0.175659 -1.61648 0
M  V30 5446 O 501.215 -0.352745 -1.8517 0
M  V30 5447 C 498.342 -1.01141 -3.23246 0
M  V30 5448 C 497.388 -2.15331 -3.6815 0
M  V30 5449 S 498.221 -3.77459 -3.79849 0
M  V30 5450 C 499.377 -3.50948 -5.18253 0
M  V30 5451 H 499.61 -2.24771 -1.9459 0
M  V30 5452 H 497.143 -1.24161 -0.917796 0
M  V30 5453 H 499.101 -0.852687 -4.01546 0
M  V30 5454 H 497.762 -0.0792784 -3.14 0
M  V30 5455 H 496.955 -1.90795 -4.6649 0
M  V30 5456 H 496.557 -2.27304 -2.97 0
M  V30 5457 H 498.849 -3.06977 -6.03963 0
M  V30 5458 H 499.792 -4.48677 -5.47809 0
M  V30 5459 H 500.2 -2.85492 -4.86985 0
M  V30 5460 N 499.598 0.982988 -1.23187 0
M  V30 5461 C 500.847 1.71817 -1.05649 0
M  V30 5462 C 501.16 1.91315 0.407176 0
M  V30 5463 O 502.366 2.62256 0.702436 0
M  V30 5464 C 500.822 3.09188 -1.84203 0
M  V30 5465 C 500.43 2.97586 -3.34882 0
M  V30 5466 C 502.174 3.86684 -1.75146 0
M  V30 5467 C 500.081 4.30173 -4.05839 0
M  V30 5468 H 499.011 0.644258 -0.391724 0
M  V30 5469 H 501.662 1.09659 -1.4713 0
M  V30 5470 H 500.044 3.72087 -1.35527 0
M  V30 5471 H 501.218 2.43793 -3.91026 0
M  V30 5472 H 499.533 2.33567 -3.44725 0
M  V30 5473 H 502.13 4.84836 -2.25473 0
M  V30 5474 H 502.473 4.10136 -0.713737 0
M  V30 5475 H 503.006 3.30482 -2.21419 0
M  V30 5476 H 499.745 4.11918 -5.09906 0
M  V30 5477 H 499.265 4.83841 -3.54482 0
M  V30 5478 H 500.944 4.98873 -4.11989 0
M  V30 5479 N 501.076 1.04316 1.18135 0
M  V30 5480 C 502.324 0.746542 1.87806 0
M  V30 5481 C 502.645 -0.728082 1.80898 0
M  V30 5482 O 501.915 -1.52554 1.22899 0
M  V30 5483 H 500.495 0.273157 0.695265 0
M  V30 5484 H 503.157 1.32044 1.43354 0
M  V30 5485 H 502.253 1.05362 2.93778 0
M  V30 5486 N 502.554 -1.34406 0.822964 0
M  V30 5487 C 503.803 -1.97542 0.407458 0
M  V30 5488 C 504.116 -1.65973 -1.035 0
M  V30 5489 O 505.322 -2.22598 -1.55442 0
M  V30 5490 C 503.778 -3.53463 0.677623 0
M  V30 5491 C 503.386 -3.93925 2.1337 0
M  V30 5492 C 505.13 -4.23229 0.328284 0
M  V30 5493 C 503.037 -5.42759 2.34876 0
M  V30 5494 H 501.967 -0.739207 0.148623 0
M  V30 5495 H 504.618 -1.53248 1.00932 0
M  V30 5496 H 503 -3.96 0.00558965 0
M  V30 5497 H 504.174 -3.62494 2.8449 0
M  V30 5498 H 502.489 -3.37097 2.44448 0
M  V30 5499 H 505.086 -5.32659 0.466794 0
M  V30 5500 H 505.429 -4.09899 -0.727224 0
M  V30 5501 H 505.962 -3.86169 0.954896 0
M  V30 5502 H 502.701 -5.61075 3.38932 0
M  V30 5503 H 502.221 -5.75704 1.68299 0
M  V30 5504 H 503.9 -6.0944 2.17236 0
M  V30 5505 N 504.032 -0.577932 -1.46621 0
M  V30 5506 C 505.272 -0.0643097 -2.04299 0
M  V30 5507 C 505.636 1.26967 -1.44026 0
M  V30 5508 O 506.837 1.87224 -1.92875 0
M  V30 5509 C 505.108 0.00547588 -3.574 0
M  V30 5510 S 506.667 0.462216 -4.36359 0
M  V30 5511 H 503.485 -0.0351573 -0.71013 0
M  V30 5512 H 506.087 -0.76935 -1.79725 0
M  V30 5513 H 504.791 -0.969423 -3.98786 0
M  V30 5514 H 504.322 0.733435 -3.86503 0
M  V30 5515 H 506.337 1.71791 -4.65513 0
M  V30 5516 N 505.51 1.54411 -0.315457 0
M  V30 5517 C 506.756 2.00716 0.289972 0
M  V30 5518 C 507.089 1.2034 1.5242 0
M  V30 5519 O 506.364 0.283579 1.92422 0
M  V30 5520 C 506.647 3.54507 0.632196 0
M  V30 5521 C 506.5 4.45615 -0.61218 0
M  V30 5522 C 507.819 4.15421 1.45305 0
M  V30 5523 H 504.938 0.729637 0.10392 0
M  V30 5524 H 507.58 1.8506 -0.430427 0
M  V30 5525 H 505.73 3.67979 1.24595 0
M  V30 5526 H 507.402 4.44026 -1.25053 0
M  V30 5527 H 505.645 4.15621 -1.24264 0
M  V30 5528 H 506.316 5.51022 -0.328379 0
M  V30 5529 H 508.792 4.05474 0.934331 0
M  V30 5530 H 507.668 5.23157 1.66127 0
M  V30 5531 H 507.929 3.68223 2.44671 0
M  V30 5532 N 506.988 0.0434614 1.5754 0
M  V30 5533 C 508.216 -0.641835 1.96693 0
M  V30 5534 C 508.631 -1.64832 0.920652 0
M  V30 5535 O 507.988 -1.82247 -0.095993 0
M  V30 5536 C 508.039 -1.33557 3.35924 0
M  V30 5537 O 507.76 -0.369403 4.3654 0
M  V30 5538 C 509.261 -2.11135 3.89791 0
M  V30 5539 H 506.481 -0.176013 0.647503 0
M  V30 5540 H 509.025 0.107478 2.04217 0
M  V30 5541 H 507.18 -2.03617 3.29574 0
M  V30 5542 H 507.594 -0.863674 5.1734 0
M  V30 5543 H 509.068 -2.55107 4.89514 0
M  V30 5544 H 509.545 -2.95634 3.24803 0
M  V30 5545 H 510.151 -1.46002 3.99454 0
M  V30 5546 N 508.466 -1.55915 -0.229846 0
M  V30 5547 C 509.396 -1.94754 -1.28815 0
M  V30 5548 C 510.377 -0.814657 -1.49323 0
M  V30 5549 O 511.562 -1.07631 -1.61645 0
M  V30 5550 C 508.692 -2.25705 -2.63959 0
M  V30 5551 C 507.646 -3.41406 -2.5812 0
M  V30 5552 C 506.972 -3.57941 -3.97218 0
M  V30 5553 C 508.272 -4.76616 -2.13623 0
M  V30 5554 H 509.966 -2.83404 -0.965547 0
M  V30 5555 H 507.512 -1.36353 -0.463028 0
M  V30 5556 H 509.465 -2.51467 -3.38146 0
M  V30 5557 H 508.189 -1.339 -2.9789 0
M  V30 5558 H 506.848 -3.1568 -1.86391 0
M  V30 5559 H 506.496 -2.63526 -4.28443 0
M  V30 5560 H 506.196 -4.35757 -3.94195 0
M  V30 5561 H 507.72 -3.86042 -4.73079 0
M  V30 5562 H 509.134 -5.01637 -2.77549 0
M  V30 5563 H 507.531 -5.57655 -2.21677 0
M  V30 5564 H 508.601 -4.7253 -1.08829 0
M  V30 5565 N 509.944 0.496216 -1.49584 0
M  V30 5566 C 511.172 1.27394 -1.63029 0
M  V30 5567 C 511.587 1.86344 -0.303569 0
M  V30 5568 O 510.944 1.68057 0.711547 0
M  V30 5569 C 510.995 2.40077 -2.70269 0
M  V30 5570 O 510.716 1.83549 -3.97796 0
M  V30 5571 C 512.217 3.31372 -2.94462 0
M  V30 5572 H 509.437 0.386211 -0.54871 0
M  V30 5573 H 511.981 0.595163 -1.95648 0
M  V30 5574 H 510.136 3.03775 -2.40415 0
M  V30 5575 H 510.55 2.57561 -4.56905 0
M  V30 5576 H 512.024 4.06707 -3.73221 0
M  V30 5577 H 512.501 3.88654 -2.0456 0
M  V30 5578 H 513.107 2.73435 -3.25751 0
M  V30 5579 N 511.423 1.38739 0.74761 0
M  V30 5580 C 512.669 1.35475 1.50912 0
M  V30 5581 C 513.002 -0.0533093 1.94127 0
M  V30 5582 O 512.277 -1.01572 1.65871 0
M  V30 5583 C 512.56 2.31582 2.75757 0
M  V30 5584 C 512.413 3.81274 2.38642 0
M  V30 5585 C 513.732 2.25722 3.77806 0
M  V30 5586 H 510.851 0.493427 0.547447 0
M  V30 5587 H 513.493 1.69634 0.855823 0
M  V30 5588 H 511.643 2.02582 3.31501 0
M  V30 5589 H 513.315 4.20972 1.88626 0
M  V30 5590 H 511.558 3.98664 1.71025 0
M  V30 5591 H 512.229 4.4399 3.27989 0
M  V30 5592 H 514.705 2.51336 3.31616 0
M  V30 5593 H 513.581 2.95069 4.62845 0
M  V30 5594 H 513.842 1.25803 4.23823 0
M  V30 5595 N 512.901 -0.976442 1.23707 0
M  V30 5596 C 514.15 -1.71254 1.06559 0
M  V30 5597 C 514.463 -1.91528 -0.397024 0
M  V30 5598 O 515.669 -2.62625 -0.688518 0
M  V30 5599 C 514.125 -3.08207 1.8584 0
M  V30 5600 C 513.733 -2.95806 3.36456 0
M  V30 5601 C 515.477 -3.85749 1.77194 0
M  V30 5602 C 513.384 -4.28015 4.08114 0
M  V30 5603 H 512.314 -0.642171 0.395136 0
M  V30 5604 H 514.965 -1.08877 1.4771 0
M  V30 5605 H 513.347 -3.71363 1.37498 0
M  V30 5606 H 514.521 -2.41716 3.92314 0
M  V30 5607 H 512.836 -2.31736 3.45959 0
M  V30 5608 H 515.433 -4.83633 2.28041 0
M  V30 5609 H 515.776 -4.09752 0.735477 0
M  V30 5610 H 516.309 -3.29303 2.23169 0
M  V30 5611 H 513.048 -4.09208 5.12083 0
M  V30 5612 H 512.568 -4.81955 3.57043 0
M  V30 5613 H 514.247 -4.96681 4.14629 0
M  V30 5614 N 514.379 -1.04941 -1.1758 0
M  V30 5615 C 515.628 -0.753124 -1.87112 0
M  V30 5616 C 515.941 0.722507 -1.81767 0
M  V30 5617 O 517.147 1.13265 -2.46746 0
M  V30 5618 C 515.603 -1.29695 -3.35719 0
M  V30 5619 C 515.211 -2.80184 -3.49572 0
M  V30 5620 C 516.955 -1.07759 -4.10595 0
M  V30 5621 C 514.862 -3.2788 -4.92187 0
M  V30 5622 H 513.792 -0.278034 -0.700866 0
M  V30 5623 H 516.443 -1.26637 -1.32798 0
M  V30 5624 H 514.825 -0.711522 -3.89555 0
M  V30 5625 H 515.999 -3.44561 -3.05965 0
M  V30 5626 H 514.314 -3.00632 -2.88113 0
M  V30 5627 H 516.911 -1.40899 -5.15802 0
M  V30 5628 H 517.254 -0.0152302 -4.16297 0
M  V30 5629 H 517.787 -1.62809 -3.62957 0
M  V30 5630 H 514.526 -4.33535 -4.91658 0
M  V30 5631 H 514.046 -2.68245 -5.36475 0
M  V30 5632 H 515.725 -3.22412 -5.60945 0
M  V30 5633 N 515.857 1.33968 -0.830081 0
M  V30 5634 C 517.103 1.98357 -0.422191 0
M  V30 5635 C 517.436 1.65633 1.01387 0
M  V30 5636 O 516.711 0.931648 1.70735 0
M  V30 5637 C 516.994 3.54492 -0.633043 0
M  V30 5638 C 516.847 3.96934 -2.11574 0
M  V30 5639 C 518.166 4.40039 -0.0735584 0
M  V30 5640 H 515.285 0.720544 -0.154871 0
M  V30 5641 H 517.927 1.58749 -1.04397 0
M  V30 5642 H 516.077 3.88361 -0.103775 0
M  V30 5643 H 517.749 3.73363 -2.7092 0
M  V30 5644 H 515.992 3.46984 -2.60354 0
M  V30 5645 H 516.663 5.05651 -2.21406 0
M  V30 5646 H 519.139 4.12764 -0.52585 0
M  V30 5647 H 518.015 5.48327 -0.250841 0
M  V30 5648 H 518.276 4.30124 1.02202 0
M  V30 5649 N 517.335 0.585699 1.46312 0
M  V30 5650 C 518.575 0.0751432 2.04262 0
M  V30 5651 C 518.939 -1.26201 1.44697 0
M  V30 5652 O 520.14 -1.86198 1.93865 0
M  V30 5653 C 518.411 0.013478 3.57397 0
M  V30 5654 S 519.97 -0.439068 4.36598 0
M  V30 5655 H 516.788 0.0389228 0.709934 0
M  V30 5656 H 519.39 0.778871 1.79315 0
M  V30 5657 H 518.094 0.990558 3.98266 0
M  V30 5658 H 517.625 -0.712927 3.86886 0
M  V30 5659 H 519.64 -1.6932 4.66417 0
M  V30 5660 N 518.813 -1.54241 0.323641 0
M  V30 5661 C 520.038 -2.05452 -0.283605 0
M  V30 5662 C 520.463 -1.19823 -1.44997 0
M  V30 5663 O 519.821 -0.207358 -1.8011 0
M  V30 5664 C 519.869 -3.53823 -0.695795 0
M  V30 5665 O 518.973 -3.71134 -1.79815 0
M  V30 5666 H 518.314 -0.662024 -0.0511917 0
M  V30 5667 H 520.844 -1.99079 0.472073 0
M  V30 5668 H 520.854 -3.96094 -0.978434 0
M  V30 5669 H 519.529 -4.15602 0.157287 0
M  V30 5670 H 518.106 -3.40768 -1.51431 0
M  V30 5671 N 520.291 -0.0518155 -1.57515 0
M  V30 5672 C 521.537 0.622745 -1.93002 0
M  V30 5673 C 521.87 1.70456 -0.930499 0
M  V30 5674 O 521.145 1.94452 0.0434086 0
M  V30 5675 C 521.428 1.21824 -3.38867 0
M  V30 5676 C 521.281 0.144434 -4.49568 0
M  V30 5677 C 522.6 2.12968 -3.8514 0
M  V30 5678 H 519.719 0.22491 -0.701844 0
M  V30 5679 H 522.361 -0.113711 -1.89659 0
M  V30 5680 H 520.511 1.8459 -3.41846 0
M  V30 5681 H 522.183 -0.48753 -4.58717 0
M  V30 5682 H 520.426 -0.527424 -4.30582 0
M  V30 5683 H 521.097 0.601127 -5.48717 0
M  V30 5684 H 523.573 1.60163 -3.8404 0
M  V30 5685 H 522.449 2.51578 -4.87852 0
M  V30 5686 H 522.71 3.03004 -3.21934 0
M  V30 5687 N 521.769 1.56035 0.221574 0
M  V30 5688 C 523.016 1.79047 0.94597 0
M  V30 5689 C 523.344 0.62057 1.84334 0
M  V30 5690 O 522.599 -0.395053 1.91671 0
M  V30 5691 C 522.898 3.07813 1.8162 0
M  V30 5692 C 522.564 4.3797 1.07206 0
M  V30 5693 C 521.226 4.73334 0.866508 0
M  V30 5694 C 523.578 5.18326 0.546565 0
M  V30 5695 C 520.906 5.8657 0.123549 0
M  V30 5696 C 523.258 6.32335 -0.18305 0
M  V30 5697 C 521.922 6.66301 -0.399861 0
M  V30 5698 H 521.192 0.655178 0.346155 0
M  V30 5699 H 523.839 1.90299 0.214146 0
M  V30 5700 H 522.144 2.91682 2.61589 0
M  V30 5701 H 523.841 3.2282 2.37884 0
M  V30 5702 H 520.431 4.10202 1.24226 0
M  V30 5703 H 524.615 4.9144 0.692847 0
M  V30 5704 H 519.871 6.11376 -0.0546591 0
M  V30 5705 H 524.045 6.9383 -0.59775 0
M  V30 5706 H 521.672 7.53889 -0.977489 0
M  V30 5707 N 523.247 -0.488276 1.49845 0
M  V30 5708 C 524.496 -1.23826 1.59217 0
M  V30 5709 C 524.809 -1.93439 0.289966 0
M  V30 5710 O 526.015 -2.70229 0.262382 0
M  V30 5711 C 524.471 -2.24902 2.80976 0
M  V30 5712 C 524.079 -1.6117 4.18005 0
M  V30 5713 C 525.823 -3.00648 2.99685 0
M  V30 5714 C 523.73 -2.60431 5.3097 0
M  V30 5715 H 522.66 -0.465858 0.592868 0
M  V30 5716 H 525.311 -0.510645 1.76252 0
M  V30 5717 H 523.693 -3.0088 2.57463 0
M  V30 5718 H 524.867 -0.910968 4.51706 0
M  V30 5719 H 523.182 -0.97767 4.0476 0
M  V30 5720 H 525.779 -3.74903 3.81251 0
M  V30 5721 H 526.122 -3.5902 2.10738 0
M  V30 5722 H 526.655 -2.31784 3.23297 0
M  V30 5723 H 523.394 -2.06823 6.22017 0
M  V30 5724 H 522.914 -3.28707 5.01709 0
M  V30 5725 H 524.593 -3.22606 5.60834 0
M  V30 5726 N 524.725 -1.39134 -0.740242 0
M  V30 5727 C 525.955 -1.39132 -1.52728 0
M  V30 5728 C 526.363 0.0173133 -1.89192 0
M  V30 5729 O 525.706 0.997715 -1.54244 0
M  V30 5730 C 525.768 -2.1952 -2.84695 0
M  V30 5731 C 525.432 -3.68203 -2.70695 0
M  V30 5732 C 526.429 -4.61401 -2.39593 0
M  V30 5733 C 524.114 -4.11724 -2.8773 0
M  V30 5734 C 526.108 -5.96102 -2.25701 0
M  V30 5735 C 523.795 -5.46503 -2.73456 0
M  V30 5736 C 524.793 -6.38506 -2.42486 0
M  V30 5737 O 524.481 -7.70803 -2.28295 0
M  V30 5738 H 524.213 -0.477263 -0.478744 0
M  V30 5739 H 526.767 -1.83504 -0.922799 0
M  V30 5740 H 524.997 -1.69888 -3.47383 0
M  V30 5741 H 526.686 -2.1176 -3.46284 0
M  V30 5742 H 527.452 -4.29079 -2.26088 0
M  V30 5743 H 523.331 -3.4045 -3.10829 0
M  V30 5744 H 526.875 -6.6788 -2.0145 0
M  V30 5745 H 522.772 -5.78417 -2.86538 0
M  V30 5746 H 523.54 -7.8147 -2.43405 0
M  V30 5747 N 526.204 0.969867 -1.24223 0
M  V30 5748 C 527.151 2.06407 -1.0327 0
M  V30 5749 C 528.121 1.66014 0.0533 0
M  V30 5750 O 529.306 1.90533 -0.100896 0
M  V30 5751 C 526.446 3.3909 -0.641262 0
M  V30 5752 C 525.559 3.9269 -1.80051 0
M  V30 5753 C 524.694 5.13631 -1.35486 0
M  V30 5754 C 523.733 5.59423 -2.48419 0
M  V30 5755 N 522.87 6.71586 -2.04737 0
M  V30 5756 H 527.71 2.23663 -1.96923 0
M  V30 5757 H 525.247 1.09624 -0.980862 0
M  V30 5758 H 527.205 4.15323 -0.395351 0
M  V30 5759 H 525.835 3.21765 0.258269 0
M  V30 5760 H 524.887 3.13116 -2.16014 0
M  V30 5761 H 526.199 4.22636 -2.64916 0
M  V30 5762 H 525.353 5.97231 -1.0677 0
M  V30 5763 H 524.092 4.85364 -0.476722 0
M  V30 5764 H 523.097 4.74398 -2.77897 0
M  V30 5765 H 524.322 5.89705 -3.36786 0
M  V30 5766 H 522.268 6.45058 -1.19318 0
M  V30 5767 H 522.185 7.0097 -2.83156 0
M  V30 5768 H 523.453 7.58633 -1.79154 0
M  V30 5769 N 527.682 1.05563 1.17022 0
M  V30 5770 C 528.931 0.763036 1.8671 0
M  V30 5771 C 529.244 -0.712857 1.82147 0
M  V30 5772 O 530.45 -1.11955 2.47343 0
M  V30 5773 C 528.906 1.31474 3.35026 0
M  V30 5774 C 528.514 2.82034 3.48081 0
M  V30 5775 C 530.258 1.09935 4.10018 0
M  V30 5776 C 528.165 3.30486 4.90442 0
M  V30 5777 H 527.095 0.281747 0.699382 0
M  V30 5778 H 529.746 1.2734 1.32124 0
M  V30 5779 H 528.128 0.732171 3.89173 0
M  V30 5780 H 529.302 3.46178 3.04133 0
M  V30 5781 H 527.617 3.02156 2.86515 0
M  V30 5782 H 530.214 1.43632 5.15048 0
M  V30 5783 H 530.557 0.0373072 4.16283 0
M  V30 5784 H 531.09 1.64732 3.62089 0
M  V30 5785 H 527.829 4.36137 4.89352 0
M  V30 5786 H 527.349 2.71086 5.35044 0
M  V30 5787 H 529.028 3.25382 5.59227 0
M  V30 5788 N 529.16 -1.33526 0.837174 0
M  V30 5789 C 530.407 -1.97837 0.432064 0
M  V30 5790 C 530.735 -1.66324 -1.00829 0
M  V30 5791 O 529.99 -0.93448 -1.71948 0
M  V30 5792 C 530.289 -3.52367 0.597675 0
M  V30 5793 C 529.955 -4.03826 2.00587 0
M  V30 5794 C 528.617 -4.1759 2.39106 0
M  V30 5795 C 530.969 -4.31333 2.92576 0
M  V30 5796 C 528.297 -4.56195 3.68921 0
M  V30 5797 C 530.649 -4.7139 4.2187 0
M  V30 5798 C 529.313 -4.8336 4.60347 0
M  V30 5799 H 528.583 -0.723937 0.158104 0
M  V30 5800 H 531.23 -1.5923 1.06387 0
M  V30 5801 H 529.535 -3.91624 -0.117452 0
M  V30 5802 H 531.232 -4.00126 0.26454 0
M  V30 5803 H 527.822 -3.93586 1.69671 0
M  V30 5804 H 532.006 -4.20224 2.64056 0
M  V30 5805 H 527.262 -4.63655 3.9854 0
M  V30 5806 H 531.436 -4.91631 4.93226 0
M  V30 5807 H 529.063 -5.1303 5.60985 0
M  V30 5808 N 530.638 -0.59345 -1.46 0
M  V30 5809 C 531.585 0.133618 -2.30413 0
M  V30 5810 C 532.555 0.873736 -1.41262 0
M  V30 5811 O 533.74 0.862279 -1.70204 0
M  V30 5812 C 530.88 1.13434 -3.25924 0
M  V30 5813 C 529.993 0.39656 -4.30176 0
M  V30 5814 C 529.128 1.38575 -5.12806 0
M  V30 5815 C 528.167 0.634984 -6.08797 0
M  V30 5816 N 527.304 1.57276 -6.84258 0
M  V30 5817 H 532.144 -0.592252 -2.92055 0
M  V30 5818 H 529.681 -0.303874 -1.43927 0
M  V30 5819 H 531.639 1.72752 -3.79753 0
M  V30 5820 H 530.269 1.82779 -2.66067 0
M  V30 5821 H 529.321 -0.311861 -3.79119 0
M  V30 5822 H 530.633 -0.189869 -4.98438 0
M  V30 5823 H 529.787 2.05141 -5.70966 0
M  V30 5824 H 528.526 2.00611 -4.44529 0
M  V30 5825 H 527.531 -0.0443925 -5.49782 0
M  V30 5826 H 528.756 0.0198678 -6.79097 0
M  V30 5827 H 526.702 2.18103 -6.18682 0
M  V30 5828 H 526.619 1.03941 -7.48821 0
M  V30 5829 H 527.887 2.22844 -7.46968 0
M  V30 5830 N 532.116 1.54067 -0.331816 0
M  V30 5831 C 533.365 1.99895 0.269209 0
M  V30 5832 C 533.678 1.22371 1.52593 0
M  V30 5833 O 534.884 1.58618 2.20347 0
M  V30 5834 C 533.34 3.55972 0.530244 0
M  V30 5835 C 532.948 4.4234 -0.709901 0
M  V30 5836 C 534.692 4.10247 1.09077 0
M  V30 5837 C 532.599 5.89905 -0.420312 0
M  V30 5838 H 531.529 0.746741 0.104371 0
M  V30 5839 H 534.18 1.78014 -0.445324 0
M  V30 5840 H 532.562 3.73873 1.30518 0
M  V30 5841 H 533.736 4.36215 -1.48504 0
M  V30 5842 H 532.051 3.98997 -1.19123 0
M  V30 5843 H 534.648 5.18095 1.32219 0
M  V30 5844 H 534.991 3.62739 2.0427 0
M  V30 5845 H 535.524 3.96011 0.376824 0
M  V30 5846 H 532.263 6.41623 -1.34164 0
M  V30 5847 H 531.783 5.98962 0.316962 0
M  V30 5848 H 533.462 6.46991 -0.0331956 0
M  V30 5849 N 533.594 0.0601682 1.57485 0
M  V30 5850 C 534.871 -0.651956 1.84415 0
M  V30 5851 C 535.251 -1.88498 0.950361 0
M  V30 5852 O 534.599 -2.28496 0.0136719 0
M  V30 5853 C 534.809 -1.00069 3.34346 0
M  V30 5854 C 536.157 -1.37915 4.01578 0
M  V30 5855 O 537.181 -1.09277 3.39024 0
M  V30 5856 O 536.04 -1.91399 5.11887 0
M  V30 5857 H 533.134 -0.322668 0.761455 0
M  V30 5858 H 535.68 0.0902159 1.6946 0
M  V30 5859 H 534.452 -0.124463 3.91102 0
M  V30 5860 H 534.075 -1.80001 3.54521 0
M  V30 5861 N 535.072 -1.5615 -0.213296 0
M  V30 5862 C 536.321 -1.78743 -0.93455 0
M  V30 5863 C 536.634 -0.630199 -1.8517 0
M  V30 5864 O 537.84 -0.739966 -2.61222 0
M  V30 5865 C 536.296 -3.16571 -1.71203 0
M  V30 5866 C 535.904 -4.40043 -0.840617 0
M  V30 5867 C 537.648 -3.48485 -2.42401 0
M  V30 5868 C 535.555 -5.68895 -1.61592 0
M  V30 5869 H 534.485 -0.666426 -0.352692 0
M  V30 5870 H 537.136 -1.82532 -0.188227 0
M  V30 5871 H 535.518 -3.06981 -2.50157 0
M  V30 5872 H 536.692 -4.6071 -0.0910326 0
M  V30 5873 H 535.007 -4.15706 -0.240365 0
M  V30 5874 H 537.604 -4.41983 -3.00924 0
M  V30 5875 H 537.947 -2.71371 -3.15695 0
M  V30 5876 H 538.48 -3.59442 -1.7043 0
M  V30 5877 H 535.219 -6.48925 -0.926106 0
M  V30 5878 H 534.739 -5.52275 -2.33991 0
M  V30 5879 H 536.418 -6.09365 -2.17447 0
M  V30 5880 N 536.55 0.480323 -1.50102 0
M  V30 5881 C 537.796 1.23489 -1.60867 0
M  V30 5882 C 538.129 1.91809 -0.303827 0
M  V30 5883 O 537.404 1.81694 0.694092 0
M  V30 5884 C 537.687 2.28578 -2.78252 0
M  V30 5885 C 537.54 1.64624 -4.18592 0
M  V30 5886 C 538.859 3.2997 -2.91218 0
M  V30 5887 H 535.978 0.447605 -0.585507 0
M  V30 5888 H 538.62 0.530005 -1.82458 0
M  V30 5889 H 536.77 2.88697 -2.59974 0
M  V30 5890 H 538.442 1.08173 -4.48438 0
M  V30 5891 H 536.685 0.949645 -4.23278 0
M  V30 5892 H 537.356 2.40946 -4.96638 0
M  V30 5893 H 539.832 2.79864 -3.07921 0
M  V30 5894 H 538.708 4.00839 -3.74993 0
M  V30 5895 H 538.969 3.93541 -2.0144 0
M  V30 5896 N 538.028 1.39524 0.732853 0
M  V30 5897 C 538.958 1.41153 1.86005 0
M  V30 5898 C 539.939 0.274614 1.67869 0
M  V30 5899 O 541.124 0.480745 1.88155 0
M  V30 5900 C 538.254 1.25638 3.23778 0
M  V30 5901 C 537.208 2.36752 3.56556 0
M  V30 5902 C 536.534 2.06326 4.93289 0
M  V30 5903 C 537.834 3.79069 3.5931 0
M  V30 5904 H 539.528 2.35484 1.84899 0
M  V30 5905 H 537.074 1.13348 0.888162 0
M  V30 5906 H 539.027 1.25398 4.0231 0
M  V30 5907 H 537.751 0.277772 3.25417 0
M  V30 5908 H 536.41 2.36213 2.80355 0
M  V30 5909 H 536.058 1.06897 4.9151 0
M  V30 5910 H 535.758 2.80757 5.16187 0
M  V30 5911 H 537.282 2.07739 5.74175 0
M  V30 5912 H 538.696 3.81526 4.27914 0
M  V30 5913 H 537.093 4.52878 3.93728 0
M  V30 5914 H 538.163 4.09893 2.59068 0
M  V30 5915 N 539.506 -0.963266 1.24736 0
M  V30 5916 C 540.752 -1.71 1.10139 0
M  V30 5917 C 541.107 -1.89089 -0.35541 0
M  V30 5918 O 540.4 -1.44451 -1.25875 0
M  V30 5919 C 540.594 -3.09944 1.7796 0
M  V30 5920 C 540.423 -3.05408 3.30085 0
M  V30 5921 C 539.193 -3.09643 3.99311 0
M  V30 5922 C 541.391 -2.87241 4.26611 0
M  V30 5923 N 539.373 -2.95174 5.3828 0
M  V30 5924 C 540.744 -2.81114 5.52607 0
M  V30 5925 C 542.799 -2.71856 4.17132 0
M  V30 5926 C 541.502 -2.61174 6.70209 0
M  V30 5927 C 543.528 -2.53284 5.34417 0
M  V30 5928 C 542.89 -2.4787 6.59348 0
M  V30 5929 H 538.989 -0.634078 0.457678 0
M  V30 5930 H 541.573 -1.14169 1.57713 0
M  V30 5931 H 539.744 -3.64958 1.32893 0
M  V30 5932 H 541.476 -3.73348 1.56183 0
M  V30 5933 H 538.231 -3.18498 3.50508 0
M  V30 5934 H 538.655 -2.91168 6.11188 0
M  V30 5935 H 543.297 -2.74821 3.21299 0
M  V30 5936 H 541.015 -2.56952 7.6616 0
M  V30 5937 H 544.601 -2.42317 5.28936 0
M  V30 5938 H 543.481 -2.33685 7.48573 0
M  V30 5939 N 540.985 -1.06182 -1.16461 0
M  V30 5940 C 542.215 -0.797425 -1.9059 0
M  V30 5941 C 542.623 0.651845 -1.77616 0
M  V30 5942 O 541.966 1.45788 -1.11766 0
M  V30 5943 C 542.028 -1.11128 -3.41893 0
M  V30 5944 C 541.692 -2.55874 -3.78652 0
M  V30 5945 C 542.689 -3.54104 -3.80665 0
M  V30 5946 C 540.374 -2.91144 -4.09317 0
M  V30 5947 C 542.368 -4.85645 -4.12829 0
M  V30 5948 C 540.055 -4.22885 -4.41148 0
M  V30 5949 C 541.053 -5.19945 -4.42883 0
M  V30 5950 O 540.741 -6.49322 -4.73959 0
M  V30 5951 H 540.473 -0.288709 -0.611247 0
M  V30 5952 H 543.027 -1.41841 -1.4856 0
M  V30 5953 H 541.257 -0.433217 -3.84266 0
M  V30 5954 H 542.946 -0.831306 -3.97296 0
M  V30 5955 H 543.712 -3.28197 -3.57088 0
M  V30 5956 H 539.591 -2.16252 -4.07131 0
M  V30 5957 H 543.135 -5.61398 -4.14099 0
M  V30 5958 H 539.032 -4.48551 -4.6419 0
M  V30 5959 H 539.8 -6.54294 -4.91774 0
M  V30 5960 N 542.463 1.3308 -0.844243 0
M  V30 5961 C 543.879 1.50447 -0.532729 0
M  V30 5962 C 544.079 1.78292 0.938837 0
M  V30 5963 O 543.135 1.84635 1.72239 0
M  V30 5964 C 544.448 2.65555 -1.41072 0
M  V30 5965 C 545.996 2.7944 -1.41005 0
M  V30 5966 C 546.471 3.97616 -2.27301 0
M  V30 5967 N 547.962 4.0486 -2.2504 0
M  V30 5968 C 548.697 4.95508 -2.88547 0
M  V30 5969 N 548.193 5.91236 -3.61126 0
M  V30 5970 N 549.986 4.88548 -2.77989 0
M  V30 5971 H 542.137 1.13269 -1.79677 0
M  V30 5972 H 544.4 0.55734 -0.766861 0
M  V30 5973 H 544.106 2.51675 -2.45668 0
M  V30 5974 H 543.98 3.61089 -1.09061 0
M  V30 5975 H 546.367 2.92749 -0.371784 0
M  V30 5976 H 546.448 1.8465 -1.77026 0
M  V30 5977 H 546.092 3.85066 -3.3119 0
M  V30 5978 H 546.022 4.91661 -1.88619 0
M  V30 5979 H 548.513 3.36353 -1.72264 0
M  V30 5980 H 548.826 6.57079 -4.06776 0
M  V30 5981 H 547.171 5.91295 -3.65234 0
M  V30 5982 H 550.362 4.12729 -2.20846 0
M  V30 5983 H 550.535 5.58994 -3.27765 0
M  V30 5984 N 543.941 0.601185 1.45683 0
M  V30 5985 C 545.218 0.0261659 1.95582 0
M  V30 5986 C 545.598 -1.4399 1.5437 0
M  V30 5987 O 544.946 -2.13919 0.80318 0
M  V30 5988 C 545.156 0.217557 3.48321 0
M  V30 5989 C 546.504 0.0950076 4.24494 0
M  V30 5990 O 547.528 0.147345 3.55895 0
M  V30 5991 O 546.387 -0.025261 5.46494 0
M  V30 5992 H 543.481 -0.0393688 0.826062 0
M  V30 5993 H 546.027 0.670798 1.55879 0
M  V30 5994 H 544.799 1.23601 3.71266 0
M  V30 5995 H 544.422 -0.46264 3.94899 0
M  V30 5996 N 545.419 -1.53889 0.339982 0
M  V30 5997 C 546.644 -2.05741 -0.261798 0
M  V30 5998 C 547.069 -1.21354 -1.43718 0
M  V30 5999 O 546.427 -0.22645 -1.7988 0
M  V30 6000 C 546.475 -3.54542 -0.658228 0
M  V30 6001 O 545.579 -3.7302 -1.75869 0
M  V30 6002 H 544.92 -0.662529 -0.0441672 0
M  V30 6003 H 547.45 -1.98568 0.493161 0
M  V30 6004 H 547.46 -3.9711 -0.936368 0
M  V30 6005 H 546.135 -4.15412 0.201358 0
M  V30 6006 H 544.712 -3.42355 -1.47809 0
M  V30 6007 N 546.897 -0.0685191 -1.57451 0
M  V30 6008 C 548.137 0.605038 -1.9524 0
M  V30 6009 C 548.501 1.66974 -0.947816 0
M  V30 6010 O 549.702 2.39862 -1.21325 0
M  V30 6011 C 547.973 1.16999 -3.37707 0
M  V30 6012 S 549.532 1.85913 -3.97469 0
M  V30 6013 H 546.35 0.198203 -0.682815 0
M  V30 6014 H 548.952 -0.141594 -1.94987 0
M  V30 6015 H 547.656 0.383205 -4.08607 0
M  V30 6016 H 547.187 1.95305 -3.41496 0
M  V30 6017 H 549.202 3.14128 -3.84107 0
M  V30 6018 N 548.375 1.56261 0.205012 0
M  V30 6019 C 549.605 1.83874 0.942018 0
M  V30 6020 C 550.013 0.647595 1.77772 0
M  V30 6021 O 549.356 -0.393098 1.79445 0
M  V30 6022 C 549.418 3.05453 1.89575 0
M  V30 6023 C 549.082 4.39772 1.24296 0
M  V30 6024 C 550.079 5.16133 0.624724 0
M  V30 6025 C 547.764 4.86504 1.24978 0
M  V30 6026 C 549.758 6.37396 0.0220117 0
M  V30 6027 C 547.445 6.07705 0.643232 0
M  V30 6028 C 548.443 6.82993 0.0304164 0
M  V30 6029 O 548.131 8.019 -0.566654 0
M  V30 6030 H 547.863 0.614896 0.280854 0
M  V30 6031 H 550.417 2.04215 0.220285 0
M  V30 6032 H 548.647 2.80972 2.65691 0
M  V30 6033 H 550.336 3.19797 2.4997 0
M  V30 6034 H 551.102 4.81127 0.611666 0
M  V30 6035 H 546.981 4.27865 1.71616 0
M  V30 6036 H 550.525 6.96102 -0.456926 0
M  V30 6037 H 546.422 6.42181 0.653759 0
M  V30 6038 H 547.19 8.17192 -0.462588 0
M  V30 6039 N 549.853 -0.472356 1.50355 0
M  V30 6040 C 551.13 -1.23356 1.51798 0
M  V30 6041 C 551.51 -2.09469 0.26193 0
M  V30 6042 O 550.858 -2.15677 -0.754691 0
M  V30 6043 C 551.068 -2.06568 2.81302 0
M  V30 6044 C 552.416 -2.648 3.31913 0
M  V30 6045 O 553.44 -2.16812 2.82614 0
M  V30 6046 O 552.299 -3.52231 4.17846 0
M  V30 6047 H 549.393 -0.559707 0.608816 0
M  V30 6048 H 551.939 -0.48428 1.62643 0
M  V30 6049 H 550.711 -1.43103 3.64194 0
M  V30 6050 H 550.334 -2.88633 2.73454 0
M  V30 6051 N 551.331 -1.39911 -0.725443 0
M  V30 6052 C 552.578 -1.37654 -1.48518 0
M  V30 6053 C 552.906 0.0243982 -1.94485 0
M  V30 6054 O 552.161 1.00708 -1.67799 0
M  V30 6055 C 552.46 -2.30368 -2.7325 0
M  V30 6056 C 552.126 -3.77817 -2.461 0
M  V30 6057 C 550.788 -4.17991 -2.38405 0
M  V30 6058 C 553.14 -4.71036 -2.23103 0
M  V30 6059 C 550.468 -5.49433 -2.05768 0
M  V30 6060 C 552.82 -6.02766 -1.9198 0
M  V30 6061 C 551.484 -6.41993 -1.82761 0
M  V30 6062 H 550.754 -0.503713 -0.543465 0
M  V30 6063 H 553.401 -1.7249 -0.831822 0
M  V30 6064 H 551.706 -1.88683 -3.43375 0
M  V30 6065 H 553.403 -2.2591 -3.31309 0
M  V30 6066 H 549.993 -3.45982 -2.52972 0
M  V30 6067 H 554.177 -4.40823 -2.2801 0
M  V30 6068 H 549.433 -5.78738 -1.9716 0
M  V30 6069 H 553.607 -6.74519 -1.73197 0
M  V30 6070 H 551.234 -7.43761 -1.57237 0
M  V30 6071 N 552.809 0.956637 -1.25245 0
M  V30 6072 C 553.739 2.07058 -1.07931 0
M  V30 6073 C 554.72 1.70096 0.0110361 0
M  V30 6074 O 555.905 1.93555 -0.158121 0
M  V30 6075 C 553.035 3.40272 -0.695124 0
M  V30 6076 C 551.989 3.91235 -1.73549 0
M  V30 6077 C 551.315 5.20921 -1.20604 0
M  V30 6078 C 552.615 4.17837 -3.13385 0
M  V30 6079 H 554.309 2.218 -2.01109 0
M  V30 6080 H 551.855 1.06581 -0.968326 0
M  V30 6081 H 553.808 4.1765 -0.560949 0
M  V30 6082 H 552.532 3.25462 0.272355 0
M  V30 6083 H 551.191 3.16025 -1.85807 0
M  V30 6084 H 550.839 5.02479 -0.228846 0
M  V30 6085 H 550.539 5.55987 -1.90136 0
M  V30 6086 H 552.063 6.00897 -1.08421 0
M  V30 6087 H 553.477 4.8588 -3.04292 0
M  V30 6088 H 551.874 4.64154 -3.80369 0
M  V30 6089 H 552.944 3.2419 -3.60595 0
M  V30 6090 N 554.287 1.06798 1.15896 0
M  V30 6091 C 555.698 0.811355 1.68149 0
M  V30 6092 C 556.049 -0.664339 1.8461 0
M  V30 6093 O 555.174 -1.51485 1.54535 0
M  V30 6094 C 555.769 1.46624 3.05429 0
M  V30 6095 C 554.328 1.25726 3.54781 0
M  V30 6096 C 553.475 1.53949 2.3064 0
M  V30 6097 H 556.426 1.23078 1.00187 0
M  V30 6098 H 556.447 0.88437 3.7008 0
M  V30 6099 H 555.959 2.54025 2.93416 0
M  V30 6100 H 554.06 0.20322 3.72045 0
M  V30 6101 H 554.173 1.97354 4.36564 0
M  V30 6102 H 552.537 0.96025 2.35905 0
M  V30 6103 H 553.32 2.6252 2.2122 0
M  V30 6104 N 555.766 -1.3263 0.851289 0
M  V30 6105 C 557.015 -1.96633 0.449267 0
M  V30 6106 C 557.328 -1.68131 -0.999562 0
M  V30 6107 O 558.534 -2.25845 -1.50685 0
M  V30 6108 C 556.99 -3.51946 0.752446 0
M  V30 6109 C 556.598 -3.89311 2.21678 0
M  V30 6110 C 558.342 -4.22437 0.417983 0
M  V30 6111 C 556.249 -5.37655 2.46336 0
M  V30 6112 H 555.179 -0.735888 0.164269 0
M  V30 6113 H 557.83 -1.51073 1.0416 0
M  V30 6114 H 556.212 -3.95899 0.0895858 0
M  V30 6115 H 557.386 -3.56378 2.92115 0
M  V30 6116 H 555.701 -3.31836 2.51543 0
M  V30 6117 H 558.298 -5.31549 0.579674 0
M  V30 6118 H 558.641 -4.11349 -0.640115 0
M  V30 6119 H 559.174 -3.84057 1.03659 0
M  V30 6120 H 555.913 -5.5376 3.50757 0
M  V30 6121 H 555.433 -5.72005 1.80473 0
M  V30 6122 H 557.112 -6.04695 2.30115 0
M  V30 6123 N 557.244 -0.608902 -1.45362 0
M  V30 6124 C 558.191 0.109172 -2.30542 0
M  V30 6125 C 559.161 0.858704 -1.42181 0
M  V30 6126 O 560.346 0.844178 -1.71109 0
M  V30 6127 C 557.486 1.09971 -3.27109 0
M  V30 6128 C 556.599 0.350911 -4.30572 0
M  V30 6129 C 555.734 1.33129 -5.14247 0
M  V30 6130 C 554.773 0.570377 -6.09437 0
M  V30 6131 N 553.91 1.5001 -6.85887 0
M  V30 6132 H 558.75 -0.623195 -2.91411 0
M  V30 6133 H 556.287 -0.319122 -1.43597 0
M  V30 6134 H 558.245 1.68714 -3.81564 0
M  V30 6135 H 556.875 1.79947 -2.67991 0
M  V30 6136 H 555.927 -0.352054 -3.78767 0
M  V30 6137 H 557.239 -0.242725 -4.98209 0
M  V30 6138 H 556.393 1.99074 -5.73109 0
M  V30 6139 H 555.132 1.95885 -4.46632 0
M  V30 6140 H 554.137 -0.102702 -5.49704 0
M  V30 6141 H 555.362 -0.0521607 -6.7908 0
M  V30 6142 H 553.308 2.11529 -6.2096 0
M  V30 6143 H 553.225 0.959934 -7.49881 0
M  V30 6144 H 554.493 2.14909 -7.49289 0
M  V30 6145 N 558.722 1.53707 -0.348139 0
M  V30 6146 C 559.685 2.23812 0.494058 0
M  V30 6147 C 560.685 1.23989 1.02388 0
M  V30 6148 O 561.875 1.48395 0.912396 0
M  V30 6149 C 559.007 2.96133 1.68872 0
M  V30 6150 H 560.2 2.99663 -0.119141 0
M  V30 6151 H 557.753 1.55983 -0.0995539 0
M  V30 6152 H 558.488 2.24481 2.34049 0
M  V30 6153 H 558.273 3.69357 1.31596 0
M  V30 6154 H 559.763 3.49475 2.28597 0
M  V30 6155 N 560.2 0.0768682 1.57412 0
M  V30 6156 C 561.425 -0.603404 1.98428 0
M  V30 6157 C 561.85 -1.62047 0.955108 0
M  V30 6158 O 561.208 -1.81129 -0.0786778 0
M  V30 6159 C 561.256 -1.24396 3.38464 0
M  V30 6160 O 560.36 -2.35982 3.3821 0
M  V30 6161 H 559.701 -0.154741 0.645718 0
M  V30 6162 H 562.231 0.152885 2.04028 0
M  V30 6163 H 562.241 -1.5896 3.7576 0
M  V30 6164 H 560.916 -0.498735 4.12899 0
M  V30 6165 H 559.493 -2.03173 3.1269 0
M  V30 6166 N 561.678 -1.56367 -0.196722 0
M  V30 6167 C 562.955 -1.71359 -0.943159 0
M  V30 6168 C 563.335 -0.631192 -2.01443 0
M  V30 6169 O 562.683 0.358071 -2.25677 0
M  V30 6170 C 562.893 -3.13623 -1.53106 0
M  V30 6171 C 564.241 -3.73806 -2.01381 0
M  V30 6172 O 565.265 -3.16742 -1.62951 0
M  V30 6173 O 564.124 -4.73951 -2.7209 0
M  V30 6174 H 561.218 -0.698851 -0.442195 0
M  V30 6175 H 563.764 -1.68672 -0.186547 0
M  V30 6176 H 562.536 -3.83873 -0.758785 0
M  V30 6177 H 562.159 -3.20532 -2.35255 0
M  V30 6178 N 563.156 0.464375 -1.50603 0
M  V30 6179 C 564.404 1.21356 -1.61608 0
M  V30 6180 C 564.725 1.92329 -0.321643 0
M  V30 6181 O 563.995 1.84403 0.661232 0
M  V30 6182 H 562.575 0.45094 -0.595535 0
M  V30 6183 H 565.237 0.535046 -1.87412 0
M  V30 6184 H 564.333 1.95783 -2.43054 0
M  V30 6185 N 564.634 1.40294 0.718013 0
M  V30 6186 C 565.581 1.40367 1.8321 0
M  V30 6187 C 566.551 0.260952 1.64037 0
M  V30 6188 O 567.736 0.458648 1.85205 0
M  V30 6189 C 564.876 1.26965 3.20895 0
M  V30 6190 C 563.989 2.50922 3.51656 0
M  V30 6191 C 563.124 2.29981 4.78834 0
M  V30 6192 C 562.163 3.49527 5.02491 0
M  V30 6193 N 561.3 3.27796 6.20882 0
M  V30 6194 H 566.14 2.35593 1.82482 0
M  V30 6195 H 563.677 1.17012 0.891444 0
M  V30 6196 H 565.635 1.17202 4.00399 0
M  V30 6197 H 564.265 0.353591 3.20858 0
M  V30 6198 H 563.317 2.71223 2.66725 0
M  V30 6199 H 564.629 3.39913 3.65048 0
M  V30 6200 H 563.783 2.17558 5.66351 0
M  V30 6201 H 562.522 1.38411 4.67647 0
M  V30 6202 H 561.527 3.6243 4.1343 0
M  V30 6203 H 562.752 4.42021 5.15553 0
M  V30 6204 H 560.698 2.38906 6.1095 0
M  V30 6205 H 560.615 4.10351 6.34939 0
M  V30 6206 H 561.883 3.19101 7.11193 0
M  V30 6207 N 566.112 -0.949982 1.2575 0
M  V30 6208 C 567.34 -1.72972 1.13527 0
M  V30 6209 C 567.755 -1.8623 -0.310453 0
M  V30 6210 O 567.112 -1.36336 -1.2132 0
M  V30 6211 C 567.163 -3.14108 1.78936 0
M  V30 6212 O 566.884 -3.01493 3.17858 0
M  V30 6213 C 568.385 -4.08338 1.72554 0
M  V30 6214 H 565.605 -0.541864 0.395758 0
M  V30 6215 H 568.149 -1.19151 1.66202 0
M  V30 6216 H 566.304 -3.64858 1.30221 0
M  V30 6217 H 566.718 -3.90559 3.50092 0
M  V30 6218 H 568.192 -5.04963 2.22973 0
M  V30 6219 H 568.669 -4.33742 0.690251 0
M  V30 6220 H 569.275 -3.63506 2.2078 0
M  V30 6221 N 567.59 -1.07411 -1.15328 0
M  V30 6222 C 568.82 -0.817595 -1.89734 0
M  V30 6223 C 569.228 0.63297 -1.78298 0
M  V30 6224 O 568.571 1.44594 -1.13306 0
M  V30 6225 C 568.633 -1.14748 -3.40695 0
M  V30 6226 C 568.297 -2.59876 -3.75917 0
M  V30 6227 C 569.294 -3.58122 -3.76888 0
M  V30 6228 C 566.979 -2.95469 -4.06206 0
M  V30 6229 C 568.973 -4.89996 -4.07655 0
M  V30 6230 C 566.66 -4.2754 -4.36638 0
M  V30 6231 C 567.658 -5.24614 -4.37344 0
M  V30 6232 O 567.346 -6.54312 -4.67045 0
M  V30 6233 H 567.078 -0.295175 -0.608151 0
M  V30 6234 H 569.632 -1.43409 -1.47048 0
M  V30 6235 H 567.862 -0.47395 -3.83785 0
M  V30 6236 H 569.551 -0.873397 -3.96392 0
M  V30 6237 H 570.317 -3.31966 -3.53587 0
M  V30 6238 H 566.196 -2.20558 -4.04815 0
M  V30 6239 H 569.74 -5.65759 -4.08121 0
M  V30 6240 H 565.637 -4.53449 -4.59407 0
M  V30 6241 H 566.405 -6.59473 -4.84807 0
M  V30 6242 N 569.068 1.32177 -0.85831 0
M  V30 6243 C 570.345 1.91781 -0.384624 0
M  V30 6244 C 570.725 1.78171 1.13217 0
M  V30 6245 O 570.073 1.18209 1.95548 0
M  V30 6246 C 570.283 3.38414 -0.853047 0
M  V30 6247 C 571.631 4.15542 -0.872359 0
M  V30 6248 O 572.655 3.47148 -0.797926 0
M  V30 6249 O 571.514 5.37678 -0.978009 0
M  V30 6250 H 568.608 0.819259 -0.112886 0
M  V30 6251 H 571.154 1.40923 -0.945453 0
M  V30 6252 H 569.926 3.4228 -1.89632 0
M  V30 6253 H 569.549 3.96683 -0.269874 0
M  V30 6254 N 570.547 0.616602 1.45037 0
M  V30 6255 C 571.51 -0.0871112 2.29034 0
M  V30 6256 C 572.51 -0.786414 1.40258 0
M  V30 6257 O 573.7 -0.633207 1.62284 0
M  V30 6258 C 570.832 -1.13369 3.21497 0
M  V30 6259 H 572.025 0.651497 2.92738 0
M  V30 6260 H 569.578 0.376058 1.51709 0
M  V30 6261 H 570.313 -1.90277 2.62612 0
M  V30 6262 H 570.098 -0.636358 3.86902 0
M  V30 6263 H 571.588 -1.62627 3.84633 0
M  V30 6264 N 572.025 -1.5352 0.356285 0
M  V30 6265 C 573.255 -2.05236 -0.236983 0
M  V30 6266 C 573.663 -1.23016 -1.43749 0
M  V30 6267 O 573.006 -0.2615 -1.81829 0
M  V30 6268 C 573.068 -3.52549 -0.7035 0
M  V30 6269 C 572.732 -4.55425 0.379059 0
M  V30 6270 C 573.729 -5.0524 1.22592 0
M  V30 6271 C 571.414 -4.99425 0.536638 0
M  V30 6272 C 573.408 -5.97647 2.21578 0
M  V30 6273 C 571.095 -5.9164 1.52988 0
M  V30 6274 C 572.093 -6.4064 2.3679 0
M  V30 6275 O 571.781 -7.31039 3.34421 0
M  V30 6276 H 571.513 -0.674346 -0.047254 0
M  V30 6277 H 574.067 -1.98962 0.510238 0
M  V30 6278 H 572.297 -3.56331 -1.50217 0
M  V30 6279 H 573.986 -3.87171 -1.21873 0
M  V30 6280 H 574.752 -4.72002 1.11532 0
M  V30 6281 H 570.631 -4.60879 -0.105834 0
M  V30 6282 H 574.175 -6.35816 2.87025 0
M  V30 6283 H 570.072 -6.24293 1.64099 0
M  V30 6284 H 570.84 -7.49009 3.30041 0
M  V30 6285 N 573.503 -0.0852151 -1.57369 0
M  V30 6286 C 574.752 0.580443 -1.93168 0
M  V30 6287 C 575.065 1.6995 -0.968319 0
M  V30 6288 O 576.271 2.42564 -1.21963 0
M  V30 6289 C 574.727 1.08386 -3.43192 0
M  V30 6290 C 574.335 -0.00491388 -4.48 0
M  V30 6291 C 576.079 1.72281 -3.87968 0
M  V30 6292 C 573.986 0.513299 -5.89168 0
M  V30 6293 H 572.916 0.22059 -0.72101 0
M  V30 6294 H 575.567 -0.159621 -1.82804 0
M  V30 6295 H 573.949 1.8773 -3.48674 0
M  V30 6296 H 575.123 -0.780032 -4.5415 0
M  V30 6297 H 573.438 -0.548453 -4.12772 0
M  V30 6298 H 576.035 2.12108 -4.9083 0
M  V30 6299 H 576.378 2.58811 -3.26071 0
M  V30 6300 H 576.911 0.995359 -3.85146 0
M  V30 6301 H 573.65 -0.315153 -6.54742 0
M  V30 6302 H 573.17 1.25564 -5.8651 0
M  V30 6303 H 574.849 0.985433 -6.39451 0
M  V30 6304 N 574.981 1.5647 0.188427 0
M  V30 6305 C 575.911 1.98101 1.23606 0
M  V30 6306 C 576.892 0.853961 1.47111 0
M  V30 6307 O 578.077 1.11879 1.58735 0
M  V30 6308 C 575.207 2.32624 2.57882 0
M  V30 6309 C 574.161 3.48129 2.48978 0
M  V30 6310 C 573.487 3.68347 3.87588 0
M  V30 6311 C 574.787 4.82112 2.00911 0
M  V30 6312 H 576.481 2.85864 0.890068 0
M  V30 6313 H 574.027 1.37532 0.426714 0
M  V30 6314 H 575.98 2.60343 3.3136 0
M  V30 6315 H 574.704 1.41751 2.94235 0
M  V30 6316 H 573.363 3.20511 1.77956 0
M  V30 6317 H 573.011 2.74793 4.21305 0
M  V30 6318 H 572.711 4.46055 3.82503 0
M  V30 6319 H 574.235 3.98449 4.62678 0
M  V30 6320 H 575.649 5.08819 2.64151 0
M  V30 6321 H 574.046 5.63337 2.06814 0
M  V30 6322 H 575.116 4.75249 0.96262 0
M  V30 6323 N 576.459 -0.456382 1.50847 0
M  V30 6324 C 577.689 -1.22848 1.66108 0
M  V30 6325 C 578.097 -1.85936 0.349897 0
M  V30 6326 O 577.44 -1.70664 -0.679665 0
M  V30 6327 C 577.502 -2.36722 2.70561 0
M  V30 6328 C 577.166 -1.94154 4.13707 0
M  V30 6329 C 578.163 -1.4557 4.99105 0
M  V30 6330 C 575.848 -2.02426 4.59705 0
M  V30 6331 C 577.842 -1.0582 6.28555 0
M  V30 6332 C 575.529 -1.62287 5.89157 0
M  V30 6333 C 576.527 -1.14064 6.73408 0
M  V30 6334 O 576.215 -0.744873 8.00442 0
M  V30 6335 H 575.947 -0.377105 0.561042 0
M  V30 6336 H 578.501 -0.549431 1.97915 0
M  V30 6337 H 576.731 -3.07844 2.34027 0
M  V30 6338 H 578.42 -2.98646 2.74892 0
M  V30 6339 H 579.186 -1.38589 4.64777 0
M  V30 6340 H 575.065 -2.38908 3.94264 0
M  V30 6341 H 578.609 -0.6811 6.94267 0
M  V30 6342 H 574.506 -1.68932 6.23003 0
M  V30 6343 H 575.274 -0.87242 8.13837 0
M  V30 6344 N 577.937 -1.40673 -0.710563 0
M  V30 6345 C 579.348 -1.34975 -1.28991 0
M  V30 6346 C 579.699 -0.0256272 -1.96183 0
M  V30 6347 O 578.824 0.876339 -1.97862 0
M  V30 6348 C 579.419 -2.44467 -2.34567 0
M  V30 6349 C 577.978 -2.42213 -2.88114 0
M  V30 6350 C 577.125 -2.25085 -1.61963 0
M  V30 6351 H 580.076 -1.50406 -0.506343 0
M  V30 6352 H 580.097 -2.12663 -3.15523 0
M  V30 6353 H 579.609 -3.40825 -1.85634 0
M  V30 6354 H 577.71 -1.49568 -3.41263 0
M  V30 6355 H 577.823 -3.37983 -3.39565 0
M  V30 6356 H 576.187 -1.72691 -1.87216 0
M  V30 6357 H 576.97 -3.23449 -1.15047 0
M  V30 6358 N 579.415 0.9433 -1.26252 0
M  V30 6359 C 580.362 2.0417 -1.07625 0
M  V30 6360 C 581.332 1.6609 0.0180738 0
M  V30 6361 O 582.517 1.90276 -0.141289 0
M  V30 6362 C 579.657 3.37653 -0.713043 0
M  V30 6363 C 578.77 3.88783 -1.8834 0
M  V30 6364 C 577.905 5.10642 -1.4635 0
M  V30 6365 C 576.944 5.54028 -2.60229 0
M  V30 6366 N 576.081 6.67092 -2.18936 0
M  V30 6367 H 580.921 2.19436 -2.01623 0
M  V30 6368 H 578.458 1.07519 -1.00389 0
M  V30 6369 H 580.416 4.14391 -0.483358 0
M  V30 6370 H 579.046 3.22241 0.18996 0
M  V30 6371 H 578.098 3.08464 -2.22608 0
M  V30 6372 H 579.41 4.16922 -2.73821 0
M  V30 6373 H 578.564 5.94832 -1.19414 0
M  V30 6374 H 577.303 4.84244 -0.579568 0
M  V30 6375 H 576.308 4.68396 -2.87898 0
M  V30 6376 H 577.533 5.82429 -3.49219 0
M  V30 6377 H 575.479 6.42381 -1.32974 0
M  V30 6378 H 575.396 6.94806 -2.97961 0
M  V30 6379 H 576.664 7.54662 -1.95206 0
M  V30 6380 N 580.893 1.08022 1.14757 0
M  V30 6381 C 582.121 0.828847 1.89572 0
M  V30 6382 C 582.536 -0.618621 1.78377 0
M  V30 6383 O 581.893 -1.42482 1.1404 0
M  V30 6384 C 581.944 1.23677 3.39685 0
M  V30 6385 O 581.665 2.62746 3.50566 0
M  V30 6386 C 583.166 1.01569 4.31507 0
M  V30 6387 H 580.386 0.299196 0.600602 0
M  V30 6388 H 582.93 1.43846 1.45357 0
M  V30 6389 H 581.085 0.671347 3.81539 0
M  V30 6390 H 581.499 2.79573 4.43778 0
M  V30 6391 H 582.973 1.35055 5.35223 0
M  V30 6392 H 583.45 -0.0475433 4.39174 0
M  V30 6393 H 584.056 1.56636 3.95405 0
M  V30 6394 N 582.371 -1.3172 0.865308 0
M  V30 6395 C 583.617 -1.97168 0.474633 0
M  V30 6396 C 583.95 -1.68263 -0.969604 0
M  V30 6397 O 583.225 -0.976588 -1.68205 0
M  V30 6398 C 583.508 -3.52689 0.726808 0
M  V30 6399 C 583.361 -3.91185 2.22024 0
M  V30 6400 C 584.68 -4.39689 0.190201 0
M  V30 6401 H 581.799 -0.716185 0.17392 0
M  V30 6402 H 584.441 -1.55925 1.08569 0
M  V30 6403 H 582.591 -3.8795 0.206705 0
M  V30 6404 H 584.263 -3.66049 2.80724 0
M  V30 6405 H 582.506 -3.3996 2.69462 0
M  V30 6406 H 583.177 -4.99604 2.34735 0
M  V30 6407 H 585.653 -4.11225 0.635103 0
M  V30 6408 H 584.529 -5.47469 0.396132 0
M  V30 6409 H 584.79 -4.32683 -0.907625 0
M  V30 6410 N 583.85 -0.624285 -1.44708 0
M  V30 6411 C 585.098 -0.125802 -2.01708 0
M  V30 6412 C 585.418 1.2543 -1.49306 0
M  V30 6413 O 584.689 1.83198 -0.693924 0
M  V30 6414 H 583.269 -0.0435161 -0.745731 0
M  V30 6415 H 585.931 -0.809446 -1.77296 0
M  V30 6416 H 585.027 -0.0882734 -3.11975 0
M  V30 6417 N 585.328 1.53329 -0.364422 0
M  V30 6418 C 586.238 2.29414 0.490552 0
M  V30 6419 C 587.254 1.35335 1.09363 0
M  V30 6420 O 588.43 1.68391 1.10483 0
M  V30 6421 C 585.495 3.06772 1.61529 0
M  V30 6422 C 584.556 4.16516 1.03986 0
M  V30 6423 C 583.789 4.90176 2.111 0
M  V30 6424 O 584.012 4.63687 3.32191 0
M  V30 6425 O 582.946 5.76134 1.74222 0
M  V30 6426 H 586.772 3.03428 -0.12856 0
M  V30 6427 H 584.357 1.48843 -0.128837 0
M  V30 6428 H 586.239 3.55082 2.26924 0
M  V30 6429 H 584.914 2.35596 2.21983 0
M  V30 6430 H 583.821 3.7246 0.349856 0
M  V30 6431 H 585.154 4.89855 0.4799 0
M  V30 6432 N 586.806 0.0935595 1.57322 0
M  V30 6433 C 588.054 -0.569383 1.93913 0
M  V30 6434 C 588.375 -1.68817 0.976009 0
M  V30 6435 O 587.645 -1.9588 0.0278099 0
M  V30 6436 H 586.225 -0.21332 0.715894 0
M  V30 6437 H 588.887 0.156531 1.9427 0
M  V30 6438 H 587.983 -0.980577 2.96296 0
M  V30 6439 N 588.284 -1.56567 -0.180126 0
M  V30 6440 C 589.509 -1.85975 -0.918041 0
M  V30 6441 C 589.934 -0.678888 -1.75422 0
M  V30 6442 O 589.292 0.372168 -1.77439 0
M  V30 6443 C 589.34 -3.13731 -1.77779 0
M  V30 6444 O 588.444 -2.95335 -2.87838 0
M  V30 6445 H 587.785 -0.61196 -0.257683 0
M  V30 6446 H 590.315 -2.03798 -0.180923 0
M  V30 6447 H 590.325 -3.4491 -2.17948 0
M  V30 6448 H 589 -3.99293 -1.16352 0
M  V30 6449 H 587.577 -2.7549 -2.51316 0
M  V30 6450 N 589.762 0.448376 -1.51087 0
M  V30 6451 C 590.99 1.22143 -1.66999 0
M  V30 6452 C 591.405 1.85283 -0.362699 0
M  V30 6453 O 590.762 1.70236 0.65772 0
M  V30 6454 C 590.813 2.31357 -2.7777 0
M  V30 6455 O 590.534 1.70801 -4.03434 0
M  V30 6456 C 592.035 3.21836 -3.04855 0
M  V30 6457 H 589.255 0.368558 -0.560719 0
M  V30 6458 H 591.799 0.532618 -1.97442 0
M  V30 6459 H 589.954 2.95973 -2.49958 0
M  V30 6460 H 590.368 2.42895 -4.64868 0
M  V30 6461 H 591.842 3.94627 -3.85971 0
M  V30 6462 H 592.319 3.81949 -2.16821 0
M  V30 6463 H 592.925 2.62933 -3.34285 0
M  V30 6464 N 591.24 1.41047 0.703093 0
M  V30 6465 C 592.465 1.43537 1.49706 0
M  V30 6466 C 592.89 0.0401853 1.88057 0
M  V30 6467 O 592.248 -0.954785 1.54122 0
M  V30 6468 C 592.296 2.3433 2.74084 0
M  V30 6469 O 591.4 1.79515 3.71279 0
M  V30 6470 H 590.741 0.487454 0.450871 0
M  V30 6471 H 593.271 1.85422 0.86486 0
M  V30 6472 H 593.281 2.49947 3.22476 0
M  V30 6473 H 591.956 3.35708 2.45506 0
M  V30 6474 H 590.533 1.7331 3.30179 0
M  V30 6475 N 592.718 -0.936591 1.26751 0
M  V30 6476 C 593.995 -1.66094 1.03306 0
M  V30 6477 C 594.375 -2.06568 -0.435058 0
M  V30 6478 O 593.723 -1.79305 -1.41641 0
M  V30 6479 C 593.933 -2.86969 1.98619 0
M  V30 6480 C 595.281 -3.58516 2.27489 0
M  V30 6481 O 596.305 -2.97082 1.96522 0
M  V30 6482 O 595.164 -4.69181 2.80235 0
M  V30 6483 H 592.258 -0.727568 0.393158 0
M  V30 6484 H 594.804 -0.987914 1.3798 0
M  V30 6485 H 593.576 -2.53985 2.9767 0
M  V30 6486 H 593.199 -3.61996 1.64454 0
M  V30 6487 N 594.196 -1.08629 -1.14182 0
M  V30 6488 C 595.436 -0.826884 -1.86928 0
M  V30 6489 C 595.8 0.635808 -1.81167 0
M  V30 6490 O 597.001 1.0108 -2.49071 0
M  V30 6491 C 595.272 -1.33721 -3.31442 0
M  V30 6492 S 596.831 -1.21045 -4.21774 0
M  V30 6493 H 593.649 -0.299286 -0.644941 0
M  V30 6494 H 596.251 -1.38802 -1.37674 0
M  V30 6495 H 594.955 -2.39617 -3.33184 0
M  V30 6496 H 594.486 -0.771839 -3.85754 0
M  V30 6497 H 596.501 -0.156168 -4.95954 0
M  V30 6498 N 595.674 1.31259 -0.872281 0
M  V30 6499 C 596.951 1.91362 -0.404943 0
M  V30 6500 C 597.331 1.79362 1.11321 0
M  V30 6501 O 596.679 1.20277 1.94283 0
M  V30 6502 C 596.889 3.3749 -0.888893 0
M  V30 6503 C 598.237 4.14593 -0.916384 0
M  V30 6504 O 599.261 3.46282 -0.834701 0
M  V30 6505 O 598.12 5.3661 -1.03498 0
M  V30 6506 H 595.214 0.818016 -0.121569 0
M  V30 6507 H 597.76 1.39912 -0.960346 0
M  V30 6508 H 596.532 3.40249 -1.93251 0
M  V30 6509 H 596.155 3.96375 -0.311932 0
M  V30 6510 N 597.152 0.631951 1.44375 0
M  V30 6511 C 598.401 0.134214 2.01253 0
M  V30 6512 C 598.714 -1.25171 1.50305 0
M  V30 6513 O 599.92 -1.8435 1.99317 0
M  V30 6514 C 598.376 0.189187 3.59402 0
M  V30 6515 C 597.984 1.57647 4.19346 0
M  V30 6516 C 599.728 -0.252044 4.23751 0
M  V30 6517 C 597.635 1.58651 5.69722 0
M  V30 6518 H 596.565 0.0464101 0.75257 0
M  V30 6519 H 599.216 0.790868 1.65582 0
M  V30 6520 H 597.598 -0.534584 3.92375 0
M  V30 6521 H 598.772 2.32389 3.97909 0
M  V30 6522 H 597.087 1.96186 3.67288 0
M  V30 6523 H 599.684 -0.264084 5.34047 0
M  V30 6524 H 600.027 -1.27951 3.96149 0
M  V30 6525 H 600.56 0.41926 3.95584 0
M  V30 6526 H 597.299 2.59237 6.0206 0
M  V30 6527 H 596.819 0.882039 5.93279 0
M  V30 6528 H 598.498 1.32082 6.33375 0
M  V30 6529 N 598.631 -1.53133 0.372548 0
M  V30 6530 C 599.878 -2.01356 -0.214959 0
M  V30 6531 C 600.206 -1.2596 -1.48204 0
M  V30 6532 O 599.461 -0.343511 -1.92662 0
M  V30 6533 C 599.76 -3.53206 -0.545938 0
M  V30 6534 C 599.426 -4.46511 0.627624 0
M  V30 6535 C 598.088 -4.71737 0.949615 0
M  V30 6536 C 600.44 -5.01666 1.41353 0
M  V30 6537 C 597.768 -5.4937 2.05936 0
M  V30 6538 C 600.12 -5.80511 2.51375 0
M  V30 6539 C 598.784 -6.04022 2.84101 0
M  V30 6540 H 598.054 -0.736813 -0.078659 0
M  V30 6541 H 600.701 -1.84682 0.506447 0
M  V30 6542 H 599.006 -3.67864 -1.34845 0
M  V30 6543 H 600.703 -3.87997 -1.01287 0
M  V30 6544 H 597.293 -4.27029 0.366635 0
M  V30 6545 H 601.477 -4.82117 1.17802 0
M  V30 6546 H 596.733 -5.65803 2.31682 0
M  V30 6547 H 600.907 -6.22255 3.12684 0
M  V30 6548 H 598.534 -6.63962 3.70214 0
M  V30 6549 N 600.109 -0.101901 -1.5727 0
M  V30 6550 C 601.355 0.561027 -1.94885 0
M  V30 6551 C 601.688 1.6741 -0.984258 0
M  V30 6552 O 600.963 1.94491 -0.0184767 0
M  V30 6553 C 601.246 1.10982 -3.42571 0
M  V30 6554 C 601.099 0.00133418 -4.498 0
M  V30 6555 C 602.418 2.00608 -3.9172 0
M  V30 6556 H 599.537 0.202467 -0.708644 0
M  V30 6557 H 602.179 -0.173992 -1.89202 0
M  V30 6558 H 600.329 1.73621 -3.47546 0
M  V30 6559 H 602.001 -0.63322 -4.56933 0
M  V30 6560 H 600.244 -0.664143 -4.28686 0
M  V30 6561 H 600.915 0.426253 -5.50352 0
M  V30 6562 H 603.391 1.47864 -3.88941 0
M  V30 6563 H 602.267 2.3593 -4.95609 0
M  V30 6564 H 602.528 2.92608 -3.3141 0
M  V30 6565 N 601.587 1.56661 0.17182 0
M  V30 6566 C 602.834 1.81965 0.888529 0
M  V30 6567 C 603.162 0.6789 1.82267 0
M  V30 6568 O 602.417 -0.333875 1.92831 0
M  V30 6569 C 602.716 3.13435 1.71736 0
M  V30 6570 C 602.382 4.41159 0.932184 0
M  V30 6571 C 601.044 4.75851 0.715481 0
M  V30 6572 C 603.396 5.19803 0.381387 0
M  V30 6573 C 600.724 5.86666 -0.063126 0
M  V30 6574 C 603.076 6.31433 -0.384129 0
M  V30 6575 C 601.74 6.64692 -0.611637 0
M  V30 6576 H 601.01 0.665859 0.325136 0
M  V30 6577 H 603.657 1.90884 0.153495 0
M  V30 6578 H 601.962 2.99857 2.52177 0
M  V30 6579 H 603.659 3.30224 2.27493 0
M  V30 6580 H 600.249 4.13947 1.11112 0
M  V30 6581 H 604.433 4.93396 0.536148 0
M  V30 6582 H 599.689 6.10892 -0.249136 0
M  V30 6583 H 603.863 6.91577 -0.818185 0
M  V30 6584 H 601.49 7.50398 -1.21684 0
M  V30 6585 N 603.065 -0.440357 1.51323 0
M  V30 6586 C 604.012 -1.53429 1.72419 0
M  V30 6587 C 604.982 -1.56165 0.565826 0
M  V30 6588 O 606.167 -1.73222 0.799917 0
M  V30 6589 C 603.307 -2.91169 1.85242 0
M  V30 6590 C 602.42 -2.97985 3.12777 0
M  V30 6591 C 601.555 -4.26829 3.16212 0
M  V30 6592 C 600.594 -4.27501 4.38074 0
M  V30 6593 N 599.731 -5.47866 4.39076 0
M  V30 6594 H 604.571 -1.34743 2.65797 0
M  V30 6595 H 602.108 -0.654608 1.31732 0
M  V30 6596 H 604.066 -3.71087 1.90658 0
M  V30 6597 H 602.696 -3.0842 0.952744 0
M  V30 6598 H 601.748 -2.10749 3.16685 0
M  V30 6599 H 603.06 -2.94342 4.02696 0
M  V30 6600 H 602.214 -5.15118 3.20527 0
M  V30 6601 H 600.953 -4.33124 2.24176 0
M  V30 6602 H 599.958 -3.37606 4.33938 0
M  V30 6603 H 601.183 -4.22873 5.31371 0
M  V30 6604 H 599.129 -5.54887 3.49909 0
M  V30 6605 H 599.046 -5.46091 5.22801 0
M  V30 6606 H 600.314 -6.38195 4.4758 0
M  V30 6607 N 604.543 -1.41418 -0.695603 0
M  V30 6608 C 605.789 -1.40982 -1.4578 0
M  V30 6609 C 606.122 -0.0187763 -1.94191 0
M  V30 6610 O 605.397 0.95346 -1.69527 0
M  V30 6611 C 605.68 -2.41657 -2.66972 0
M  V30 6612 C 605.533 -3.89869 -2.24327 0
M  V30 6613 C 606.852 -2.39589 -3.69168 0
M  V30 6614 H 603.971 -0.513405 -0.528757 0
M  V30 6615 H 606.613 -1.72693 -0.792275 0
M  V30 6616 H 604.763 -2.14746 -3.23754 0
M  V30 6617 H 606.435 -4.27683 -1.72872 0
M  V30 6618 H 604.678 -4.04737 -1.56111 0
M  V30 6619 H 605.349 -4.55857 -3.11285 0
M  V30 6620 H 607.825 -2.63471 -3.2206 0
M  V30 6621 H 606.701 -3.12044 -4.51575 0
M  V30 6622 H 606.962 -1.41447 -4.18862 0
M  V30 6623 N 606.021 0.929856 -1.27246 0
M  V30 6624 C 606.951 2.04722 -1.12299 0
M  V30 6625 C 607.932 1.70082 -0.0250464 0
M  V30 6626 O 609.117 1.93176 -0.199141 0
M  V30 6627 C 606.247 3.38721 -0.767145 0
M  V30 6628 C 605.201 3.87466 -1.81808 0
M  V30 6629 C 604.527 5.18246 -1.31626 0
M  V30 6630 C 605.827 4.11095 -3.22177 0
M  V30 6631 H 607.521 2.17485 -2.05769 0
M  V30 6632 H 605.067 1.04503 -0.990715 0
M  V30 6633 H 607.02 4.16366 -0.649413 0
M  V30 6634 H 605.744 3.25967 0.203259 0
M  V30 6635 H 604.403 3.12012 -1.92468 0
M  V30 6636 H 604.051 5.01881 -0.335378 0
M  V30 6637 H 603.751 5.51829 -2.01887 0
M  V30 6638 H 605.275 5.98462 -1.21143 0
M  V30 6639 H 606.689 4.79316 -3.1453 0
M  V30 6640 H 605.086 4.55982 -3.90129 0
M  V30 6641 H 606.156 3.16468 -3.67391 0
M  V30 6642 N 607.499 1.09233 1.13605 0
M  V30 6643 C 608.91 0.846839 1.6639 0
M  V30 6644 C 609.261 -0.625031 1.85978 0
M  V30 6645 O 608.386 -1.48173 1.57714 0
M  V30 6646 C 608.981 1.5307 3.0225 0
M  V30 6647 C 607.54 1.33223 3.52035 0
M  V30 6648 C 606.687 1.58806 2.27323 0
M  V30 6649 H 609.638 1.25175 0.975541 0
M  V30 6650 H 609.659 0.96267 3.68121 0
M  V30 6651 H 609.171 2.60192 2.87961 0
M  V30 6652 H 607.272 0.282091 3.71531 0
M  V30 6653 H 607.385 2.0657 4.32279 0
M  V30 6654 H 605.749 1.01007 2.33815 0
M  V30 6655 H 606.532 2.67153 2.15602 0
M  V30 6656 N 608.977 -1.30795 0.87923 0
M  V30 6657 C 609.887 -2.32041 0.345565 0
M  V30 6658 C 610.903 -1.65103 -0.549265 0
M  V30 6659 O 612.079 -1.9645 -0.443763 0
M  V30 6660 C 609.144 -3.43944 -0.436245 0
M  V30 6661 C 608.205 -4.26521 0.48765 0
M  V30 6662 C 607.438 -5.33081 -0.256943 0
M  V30 6663 O 607.661 -5.50762 -1.48381 0
M  V30 6664 O 606.595 -6.00635 0.389985 0
M  V30 6665 H 610.421 -2.79627 1.18501 0
M  V30 6666 H 608.006 -1.3486 0.642885 0
M  V30 6667 H 609.888 -4.12128 -0.879119 0
M  V30 6668 H 608.563 -2.98504 -1.25208 0
M  V30 6669 H 607.47 -3.61057 0.979216 0
M  V30 6670 H 608.803 -4.75551 1.26933 0
M  V30 6671 N 610.455 -0.639598 -1.44038 0
M  V30 6672 C 611.701 -0.147698 -2.02261 0
M  V30 6673 C 612.034 1.23031 -1.50256 0
M  V30 6674 O 611.309 1.81847 -0.690068 0
M  V30 6675 C 611.592 -0.14362 -3.59813 0
M  V30 6676 C 611.445 -1.55458 -4.22082 0
M  V30 6677 C 612.764 0.527317 -4.36929 0
M  V30 6678 H 609.883 -0.0551453 -0.734934 0
M  V30 6679 H 612.525 -0.817688 -1.71505 0
M  V30 6680 H 610.675 0.426898 -3.86147 0
M  V30 6681 H 612.347 -2.17464 -4.06826 0
M  V30 6682 H 610.59 -2.10594 -3.79253 0
M  V30 6683 H 611.261 -1.50369 -5.31124 0
M  V30 6684 H 613.737 0.0420504 -4.16079 0
M  V30 6685 H 612.613 0.499389 -5.46624 0
M  V30 6686 H 612.874 1.59914 -4.12165 0
M  V30 6687 N 611.933 1.52934 -0.380664 0
M  V30 6688 C 612.863 2.29118 0.450268 0
M  V30 6689 C 613.844 1.32153 1.07096 0
M  V30 6690 O 615.029 1.61038 1.08537 0
M  V30 6691 C 612.159 3.09161 1.58231 0
M  V30 6692 C 611.113 4.13938 1.0881 0
M  V30 6693 C 610.439 4.82153 2.31155 0
M  V30 6694 C 611.739 5.22048 0.162146 0
M  V30 6695 H 613.433 2.98826 -0.185361 0
M  V30 6696 H 610.979 1.43715 -0.0905886 0
M  V30 6697 H 612.932 3.61211 2.17036 0
M  V30 6698 H 611.656 2.3717 2.2454 0
M  V30 6699 H 610.315 3.62855 0.522633 0
M  V30 6700 H 609.963 4.06719 2.95953 0
M  V30 6701 H 609.663 5.52966 1.98752 0
M  V30 6702 H 611.187 5.37004 2.90618 0
M  V30 6703 H 612.601 5.6951 0.658126 0
M  V30 6704 H 610.998 6.00057 -0.0717122 0
M  V30 6705 H 612.068 4.78398 -0.791438 0
M  V30 6706 N 613.412 0.11024 1.57214 0
M  V30 6707 C 614.322 -0.857077 2.18383 0
M  V30 6708 C 615.338 -1.29915 1.1575 0
M  V30 6709 O 616.514 -1.36394 1.48184 0
M  V30 6710 C 613.579 -2.09264 2.76423 0
M  V30 6711 C 612.64 -1.70333 3.94063 0
M  V30 6712 C 611.873 -2.87999 4.49324 0
M  V30 6713 O 612.096 -4.0317 4.03497 0
M  V30 6714 O 611.03 -2.6559 5.40135 0
M  V30 6715 H 614.856 -0.366561 3.0148 0
M  V30 6716 H 612.441 -0.114914 1.48957 0
M  V30 6717 H 614.323 -2.81644 3.13456 0
M  V30 6718 H 612.998 -2.57339 1.96363 0
M  V30 6719 H 611.905 -0.950864 3.61814 0
M  V30 6720 H 613.238 -1.27007 4.75531 0
M  V30 6721 N 614.89 -1.56749 -0.16351 0
M  V30 6722 C 615.837 -1.97011 -1.2023 0
M  V30 6723 C 616.807 -0.835186 -1.43575 0
M  V30 6724 O 617.992 -1.09594 -1.56185 0
M  V30 6725 C 615.132 -2.34186 -2.53478 0
M  V30 6726 C 614.245 -3.60893 -2.37446 0
M  V30 6727 C 613.38 -3.87245 -3.63614 0
M  V30 6728 C 612.419 -5.07274 -3.42548 0
M  V30 6729 N 611.556 -5.29719 -4.60806 0
M  V30 6730 H 616.396 -2.85562 -0.851958 0
M  V30 6731 H 613.933 -1.41292 -0.409257 0
M  V30 6732 H 615.891 -2.53764 -3.31149 0
M  V30 6733 H 614.521 -1.48736 -2.86492 0
M  V30 6734 H 613.573 -3.49185 -1.50911 0
M  V30 6735 H 614.885 -4.48722 -2.1783 0
M  V30 6736 H 614.039 -4.07232 -4.49719 0
M  V30 6737 H 612.778 -2.97806 -3.86216 0
M  V30 6738 H 611.783 -4.87177 -2.5483 0
M  V30 6739 H 613.008 -5.98251 -3.2136 0
M  V30 6740 H 610.954 -4.43233 -4.83612 0
M  V30 6741 H 610.871 -6.11786 -4.44132 0
M  V30 6742 H 612.139 -5.54192 -5.48171 0
M  V30 6743 N 616.368 0.432326 -1.51554 0
M  V30 6744 C 617.3 1.54357 -1.6943 0
M  V30 6745 C 618.313 1.52311 -0.574897 0
M  V30 6746 O 619.502 1.56997 -0.849369 0
M  V30 6747 C 616.602 2.93273 -1.69836 0
M  V30 6748 C 615.775 3.19768 -2.98442 0
M  V30 6749 C 614.834 4.38433 -2.90969 0
M  V30 6750 O 613.86 4.36842 -3.64908 0
M  V30 6751 N 615.062 5.42276 -2.07163 0
M  V30 6752 H 617.827 1.39426 -2.65293 0
M  V30 6753 H 615.388 0.621331 -1.49503 0
M  V30 6754 H 617.38 3.70687 -1.62399 0
M  V30 6755 H 615.95 3.01777 -0.815456 0
M  V30 6756 H 615.17 2.30607 -3.19709 0
M  V30 6757 H 616.458 3.343 -3.83563 0
M  V30 6758 H 615.856 5.46407 -1.46477 0
M  V30 6759 H 614.413 6.18524 -2.05601 0
M  V30 6760 N 617.846 1.41785 0.688094 0
M  V30 6761 C 619.086 1.43018 1.46032 0
M  V30 6762 C 619.45 0.0402632 1.91958 0
M  V30 6763 O 620.651 -0.0726425 2.68702 0
M  V30 6764 C 618.922 2.4151 2.63453 0
M  V30 6765 S 620.481 2.61335 3.5249 0
M  V30 6766 H 617.299 0.506546 0.498931 0
M  V30 6767 H 619.901 1.78283 0.80221 0
M  V30 6768 H 618.605 3.41286 2.27929 0
M  V30 6769 H 618.136 2.07624 3.34149 0
M  V30 6770 H 620.151 1.88637 4.58945 0
M  V30 6771 N 619.324 -0.923095 1.27737 0
M  V30 6772 C 620.572 -1.66797 1.14119 0
M  V30 6773 C 620.893 -1.92479 -0.312541 0
M  V30 6774 O 620.163 -1.53432 -1.218 0
M  V30 6775 H 618.743 -0.618196 0.419336 0
M  V30 6776 H 621.405 -1.10815 1.60331 0
M  V30 6777 H 620.501 -2.63424 1.67374 0
M  V30 6778 N 620.802 -1.09834 -1.13024 0
M  V30 6779 C 622.032 -0.857657 -1.87957 0
M  V30 6780 C 622.44 0.595008 -1.796 0
M  V30 6781 O 621.783 1.42158 -1.16347 0
M  V30 6782 C 621.845 -1.21949 -3.38185 0
M  V30 6783 C 621.509 -2.67791 -3.7032 0
M  V30 6784 C 622.506 -3.66036 -3.69207 0
M  V30 6785 C 620.191 -3.04019 -3.99847 0
M  V30 6786 C 622.185 -4.98533 -3.9717 0
M  V30 6787 C 619.872 -4.36706 -4.27471 0
M  V30 6788 C 620.87 -5.33772 -4.26118 0
M  V30 6789 O 620.558 -6.64072 -4.53061 0
M  V30 6790 H 620.29 -0.308009 -0.601753 0
M  V30 6791 H 622.844 -1.46496 -1.43973 0
M  V30 6792 H 621.074 -0.555249 -3.82693 0
M  V30 6793 H 622.763 -0.957281 -3.9445 0
M  V30 6794 H 623.529 -3.39392 -3.46465 0
M  V30 6795 H 619.408 -2.29096 -4.00045 0
M  V30 6796 H 622.952 -5.74288 -3.96029 0
M  V30 6797 H 618.849 -4.63091 -4.49685 0
M  V30 6798 H 619.617 -6.69608 -4.7071 0
M  V30 6799 N 622.28 1.30327 -0.886154 0
M  V30 6800 C 623.227 2.28099 -0.352069 0
M  V30 6801 C 624.197 1.56433 0.558397 0
M  V30 6802 O 625.382 1.84492 0.486561 0
M  V30 6803 C 622.522 3.42456 0.426346 0
M  V30 6804 C 621.635 4.28938 -0.513472 0
M  V30 6805 C 620.77 5.30458 0.280657 0
M  V30 6806 C 619.809 6.0859 -0.654556 0
M  V30 6807 N 618.946 7.02022 0.104322 0
M  V30 6808 H 623.786 2.73166 -1.19097 0
M  V30 6809 H 621.323 1.34367 -0.598662 0
M  V30 6810 H 623.281 4.07518 0.893587 0
M  V30 6811 H 621.911 2.98455 1.22981 0
M  V30 6812 H 620.963 3.64173 -1.09921 0
M  V30 6813 H 622.275 4.83399 -1.2299 0
M  V30 6814 H 621.429 6.01273 0.8097 0
M  V30 6815 H 620.168 4.76693 1.03029 0
M  V30 6816 H 619.173 5.36651 -1.19522 0
M  V30 6817 H 620.398 6.64443 -1.4033 0
M  V30 6818 H 618.344 6.50645 0.836472 0
M  V30 6819 H 618.261 7.53979 -0.552453 0
M  V30 6820 H 619.529 7.77077 0.614069 0
M  V30 6821 N 623.758 0.647228 1.43697 0
M  V30 6822 C 624.688 -0.0345631 2.33474 0
M  V30 6823 C 625.669 -0.818193 1.4913 0
M  V30 6824 O 626.854 -0.780867 1.77809 0
M  V30 6825 C 623.984 -1.00576 3.32418 0
M  V30 6826 C 622.938 -0.33266 4.26705 0
M  V30 6827 C 622.264 -1.41489 5.1564 0
M  V30 6828 C 623.564 0.771204 5.16575 0
M  V30 6829 H 625.258 0.715163 2.90733 0
M  V30 6830 H 622.804 0.345364 1.39797 0
M  V30 6831 H 624.757 -1.49159 3.94119 0
M  V30 6832 H 623.481 -1.78657 2.73403 0
M  V30 6833 H 622.14 0.13267 3.6636 0
M  V30 6834 H 621.788 -2.18698 4.52968 0
M  V30 6835 H 621.488 -0.969799 5.79542 0
M  V30 6836 H 623.012 -1.9022 5.80214 0
M  V30 6837 H 624.426 0.36779 5.72119 0
M  V30 6838 H 622.823 1.1404 5.89165 0
M  V30 6839 H 623.893 1.63169 4.56622 0
M  V30 6840 N 625.236 -1.5273 0.388769 0
M  V30 6841 C 626.483 -2.01573 -0.19359 0
M  V30 6842 C 626.811 -1.27525 -1.46859 0
M  V30 6843 O 626.066 -0.363926 -1.92286 0
M  V30 6844 C 626.365 -3.53765 -0.508445 0
M  V30 6845 C 626.031 -4.4582 0.674947 0
M  V30 6846 C 624.693 -4.70703 0.999596 0
M  V30 6847 C 627.045 -5.00138 1.46666 0
M  V30 6848 C 624.373 -5.47155 2.11751 0
M  V30 6849 C 626.725 -5.77812 2.57518 0
M  V30 6850 C 625.389 -6.00975 2.90492 0
M  V30 6851 H 624.659 -0.737606 -0.0708397 0
M  V30 6852 H 627.306 -1.84134 0.526006 0
M  V30 6853 H 625.611 -3.69274 -1.30936 0
M  V30 6854 H 627.308 -3.8905 -0.971664 0
M  V30 6855 H 623.898 -4.26616 0.411906 0
M  V30 6856 H 628.082 -4.8084 1.22909 0
M  V30 6857 H 623.338 -5.63314 2.3767 0
M  V30 6858 H 627.512 -6.18904 3.19267 0
M  V30 6859 H 625.139 -6.59998 3.77236 0
M  V30 6860 N 626.714 -0.118576 -1.57153 0
M  V30 6861 C 627.963 0.539339 -1.94355 0
M  V30 6862 C 628.276 1.67858 -1.00415 0
M  V30 6863 O 629.482 2.39922 -1.27081 0
M  V30 6864 C 627.938 1.01082 -3.45414 0
M  V30 6865 C 627.546 -0.0999402 -4.47889 0
M  V30 6866 C 629.29 1.64013 -3.91535 0
M  V30 6867 C 627.197 0.388212 -5.90124 0
M  V30 6868 H 626.127 0.205247 -0.725527 0
M  V30 6869 H 628.778 -0.19836 -1.82425 0
M  V30 6870 H 627.16 1.80292 -3.52577 0
M  V30 6871 H 628.334 -0.876189 -4.52393 0
M  V30 6872 H 626.649 -0.635885 -4.11516 0
M  V30 6873 H 629.246 2.01649 -4.95219 0
M  V30 6874 H 629.589 2.51836 -3.31488 0
M  V30 6875 H 630.122 0.913439 -3.87171 0
M  V30 6876 H 626.861 -0.453963 -6.53926 0
M  V30 6877 H 626.381 1.13095 -5.89041 0
M  V30 6878 H 628.06 0.849574 -6.41398 0
M  V30 6879 N 628.193 1.56834 0.155195 0
M  V30 6880 C 629.423 1.86778 0.883044 0
M  V30 6881 C 629.831 0.703824 1.75622 0
M  V30 6882 O 629.174 -0.33581 1.80605 0
M  V30 6883 C 629.236 3.1133 1.79761 0
M  V30 6884 C 628.9 4.43504 1.10242 0
M  V30 6885 C 629.897 5.17859 0.460204 0
M  V30 6886 C 627.582 4.90233 1.09437 0
M  V30 6887 C 629.576 6.37144 -0.180782 0
M  V30 6888 C 627.263 6.09444 0.449569 0
M  V30 6889 C 628.261 6.82744 -0.186888 0
M  V30 6890 O 627.949 7.99692 -0.821486 0
M  V30 6891 H 627.681 0.62352 0.261149 0
M  V30 6892 H 630.235 2.04813 0.155204 0
M  V30 6893 H 628.465 2.89282 2.56618 0
M  V30 6894 H 630.154 3.27587 2.39669 0
M  V30 6895 H 630.92 4.8283 0.458289 0
M  V30 6896 H 626.799 4.33109 1.57917 0
M  V30 6897 H 630.343 6.94296 -0.678154 0
M  V30 6898 H 626.24 6.43936 0.449123 0
M  V30 6899 H 627.008 8.15306 -0.722337 0
M  V30 6900 N 629.671 -0.424282 1.51781 0
M  V30 6901 C 630.919 -1.17028 1.64769 0
M  V30 6902 C 631.24 -1.91409 0.372523 0
M  V30 6903 O 630.51 -1.86091 -0.612108 0
M  V30 6904 H 629.09 -0.434992 0.607282 0
M  V30 6905 H 631.752 -0.485169 1.88765 0
M  V30 6906 H 630.848 -1.8927 2.4816 0
M  V30 6907 N 631.149 -1.42148 -0.680565 0
M  V30 6908 C 632.565 -1.24947 -0.992995 0
M  V30 6909 C 632.765 -0.149527 -2.00944 0
M  V30 6910 O 631.821 0.481145 -2.47873 0
M  V30 6911 C 633.134 -2.60426 -1.5033 0
M  V30 6912 C 634.682 -2.67733 -1.62137 0
M  V30 6913 C 635.157 -4.03564 -2.16565 0
M  V30 6914 N 636.648 -4.05488 -2.23905 0
M  V30 6915 C 637.383 -5.07401 -2.67081 0
M  V30 6916 N 636.879 -6.19698 -3.09751 0
M  V30 6917 N 638.672 -4.94758 -2.66778 0
M  V30 6918 H 630.823 -2.12399 -0.0074788 0
M  V30 6919 H 633.086 -0.94571 -0.0658529 0
M  V30 6920 H 632.792 -3.41743 -0.830947 0
M  V30 6921 H 632.666 -2.83949 -2.483 0
M  V30 6922 H 635.053 -1.86765 -2.2848 0
M  V30 6923 H 635.134 -2.48004 -0.626713 0
M  V30 6924 H 634.778 -4.84987 -1.50833 0
M  V30 6925 H 634.708 -4.20641 -3.1681 0
M  V30 6926 H 637.199 -3.24415 -1.93812 0
M  V30 6927 H 637.512 -6.93318 -3.41365 0
M  V30 6928 H 635.857 -6.23212 -3.07623 0
M  V30 6929 H 639.048 -4.06105 -2.32801 0
M  V30 6930 H 639.221 -5.74317 -3.00107 0
M  V30 6931 N 632.627 0.916307 -1.28225 0
M  V30 6932 C 633.904 1.64429 -1.05936 0
M  V30 6933 C 634.284 2.07234 0.402139 0
M  V30 6934 O 633.632 1.81535 1.3877 0
M  V30 6935 C 633.842 2.83773 -2.03159 0
M  V30 6936 C 635.19 3.54852 -2.33164 0
M  V30 6937 O 636.214 2.93918 -2.01223 0
M  V30 6938 O 635.073 4.64663 -2.87664 0
M  V30 6939 H 632.167 0.721221 -0.404683 0
M  V30 6940 H 634.713 0.965838 -1.39534 0
M  V30 6941 H 633.485 2.49217 -3.01673 0
M  V30 6942 H 633.108 3.59333 -1.70192 0
M  V30 6943 N 634.105 1.10431 1.1244 0
M  V30 6944 C 635.382 0.758797 1.80282 0
M  V30 6945 C 635.762 -0.754727 1.97147 0
M  V30 6946 O 635.11 -1.68094 1.54779 0
M  V30 6947 C 635.32 1.50982 3.14651 0
M  V30 6948 C 636.668 1.68232 3.8985 0
M  V30 6949 O 637.692 1.47319 3.24308 0
M  V30 6950 O 636.551 2.02905 5.07437 0
M  V30 6951 H 633.645 0.273756 0.780376 0
M  V30 6952 H 636.191 1.20713 1.19275 0
M  V30 6953 H 634.963 2.53989 2.97666 0
M  V30 6954 H 634.586 1.05435 3.83366 0
M  V30 6955 N 635.583 -1.29855 0.893053 0
M  V30 6956 C 636.813 -1.99686 0.530019 0
M  V30 6957 C 637.221 -1.67066 -0.888012 0
M  V30 6958 O 636.564 -0.908366 -1.5967 0
M  V30 6959 C 636.626 -3.53855 0.63457 0
M  V30 6960 C 636.29 -4.10013 2.01837 0
M  V30 6961 C 637.287 -4.25406 2.98874 0
M  V30 6962 C 634.972 -4.45202 2.32595 0
M  V30 6963 C 636.966 -4.7521 4.24799 0
M  V30 6964 C 634.653 -4.94704 3.58763 0
M  V30 6965 C 635.651 -5.09662 4.5468 0
M  V30 6966 O 635.339 -5.58093 5.78608 0
M  V30 6967 H 635.071 -0.644913 0.20264 0
M  V30 6968 H 637.625 -1.66518 1.20253 0
M  V30 6969 H 635.855 -3.86583 -0.0949477 0
M  V30 6970 H 637.544 -4.04922 0.281648 0
M  V30 6971 H 638.31 -3.98515 2.76425 0
M  V30 6972 H 634.189 -4.32822 1.58701 0
M  V30 6973 H 637.733 -4.86801 4.99671 0
M  V30 6974 H 633.63 -5.21032 3.81046 0
M  V30 6975 H 634.398 -5.7642 5.81104 0
M  V30 6976 N 637.061 -0.65484 -1.43351 0
M  V30 6977 C 638.307 -0.169142 -2.02093 0
M  V30 6978 C 638.64 1.21431 -1.51553 0
M  V30 6979 O 637.915 1.81105 -0.709317 0
M  V30 6980 C 638.198 -0.181775 -3.59641 0
M  V30 6981 C 638.051 -1.59926 -4.20409 0
M  V30 6982 C 639.37 0.480945 -4.37464 0
M  V30 6983 H 636.489 -0.0629371 -0.734308 0
M  V30 6984 H 639.131 -0.835833 -1.70628 0
M  V30 6985 H 637.281 0.385918 -3.86578 0
M  V30 6986 H 638.953 -2.21766 -4.04497 0
M  V30 6987 H 637.196 -2.14605 -3.76998 0
M  V30 6988 H 637.867 -1.55994 -5.295 0
M  V30 6989 H 640.343 -0.00208273 -4.161 0
M  V30 6990 H 639.219 0.441384 -5.47122 0
M  V30 6991 H 639.48 1.55533 -4.13838 0
M  V30 6992 N 638.539 1.52521 -0.396863 0
M  V30 6993 C 639.787 2.01274 0.182536 0
M  V30 6994 C 640.108 1.28485 1.46685 0
M  V30 6995 O 639.378 0.407134 1.91623 0
M  V30 6996 H 637.958 0.743671 0.0704442 0
M  V30 6997 H 640.62 1.87547 -0.530289 0
M  V30 6998 H 639.716 3.09687 0.387385 0
M  V30 6999 N 640.017 0.126909 1.57088 0
M  V30 7000 C 640.927 -0.833867 2.1928 0
M  V30 7001 C 641.943 -1.2868 1.17122 0
M  V30 7002 O 643.119 -1.34815 1.49622 0
M  V30 7003 C 640.184 -2.0632 2.78627 0
M  V30 7004 C 639.245 -1.66143 3.95847 0
M  V30 7005 C 638.478 -2.83217 4.52354 0
M  V30 7006 O 638.701 -3.98868 4.0775 0
M  V30 7007 O 637.635 -2.59846 5.42922 0
M  V30 7008 H 641.461 -0.334564 3.01852 0
M  V30 7009 H 639.046 -0.0991091 1.49071 0
M  V30 7010 H 640.928 -2.78304 3.16425 0
M  V30 7011 H 639.603 -2.55242 1.99082 0
M  V30 7012 H 638.51 -0.912435 3.62802 0
M  V30 7013 H 639.843 -1.21957 4.76852 0
M  V30 7014 N 641.495 -1.56914 -0.146875 0
M  V30 7015 C 642.772 -1.74273 -0.888165 0
M  V30 7016 C 643.152 -0.69496 -1.99333 0
M  V30 7017 O 642.5 0.286093 -2.26702 0
M  V30 7018 C 642.71 -3.18336 -1.43051 0
M  V30 7019 C 644.058 -3.80024 -1.89387 0
M  V30 7020 O 645.082 -3.21765 -1.52792 0
M  V30 7021 O 643.941 -4.82367 -2.56874 0
M  V30 7022 H 641.035 -0.712565 -0.419738 0
M  V30 7023 H 643.581 -1.6918 -0.132791 0
M  V30 7024 H 642.353 -3.86092 -0.636274 0
M  V30 7025 H 641.976 -3.27854 -2.24938 0
M  V30 7026 N 642.974 0.416227 -1.52004 0
M  V30 7027 C 644.223 1.16088 -1.64944 0
M  V30 7028 C 644.536 1.91835 -0.381928 0
M  V30 7029 O 645.742 2.6867 -0.391013 0
M  V30 7030 C 644.198 2.1124 -2.91386 0
M  V30 7031 C 643.806 1.41042 -4.25219 0
M  V30 7032 C 645.55 2.86008 -3.13688 0
M  V30 7033 C 643.457 2.34801 -5.42791 0
M  V30 7034 H 642.387 0.437041 -0.61442 0
M  V30 7035 H 645.038 0.425971 -1.78487 0
M  V30 7036 H 643.42 2.88254 -2.71525 0
M  V30 7037 H 644.594 0.694416 -4.55538 0
M  V30 7038 H 642.909 0.78344 -4.08964 0
M  V30 7039 H 645.506 3.56286 -3.98703 0
M  V30 7040 H 645.849 3.48556 -2.27628 0
M  V30 7041 H 646.382 2.16095 -3.33988 0
M  V30 7042 H 643.121 1.7691 -6.31176 0
M  V30 7043 H 642.641 3.04395 -5.16821 0
M  V30 7044 H 644.32 2.9548 -5.75587 0
M  V30 7045 N 644.452 1.42507 0.673017 0
M  V30 7046 C 645.698 1.43284 1.43519 0
M  V30 7047 C 646.031 0.049668 1.94136 0
M  V30 7048 O 645.306 -0.926369 1.71022 0
M  V30 7049 C 645.589 2.45874 2.63093 0
M  V30 7050 C 645.442 3.93388 2.18096 0
M  V30 7051 C 646.761 2.45431 3.6531 0
M  V30 7052 H 643.88 0.521752 0.520522 0
M  V30 7053 H 646.522 1.73932 0.764701 0
M  V30 7054 H 644.672 2.19869 3.20296 0
M  V30 7055 H 646.344 4.30379 1.66046 0
M  V30 7056 H 644.587 4.07169 1.49652 0
M  V30 7057 H 645.258 4.60752 3.03993 0
M  V30 7058 H 647.734 2.68561 3.17827 0
M  V30 7059 H 646.61 3.19189 4.46553 0
M  V30 7060 H 646.871 1.48092 4.16559 0
M  V30 7061 N 645.93 -0.909495 1.28709 0
M  V30 7062 C 646.84 -2.04558 1.14861 0
M  V30 7063 C 647.856 -1.73842 0.0741621 0
M  V30 7064 O 649.032 -1.99383 0.2843 0
M  V30 7065 C 646.097 -3.36957 0.816148 0
M  V30 7066 C 645.158 -3.81255 1.97341 0
M  V30 7067 C 644.391 -5.07335 1.65671 0
M  V30 7068 O 644.614 -5.67514 0.573053 0
M  V30 7069 O 643.548 -5.47449 2.50167 0
M  V30 7070 H 647.374 -2.19161 2.10243 0
M  V30 7071 H 644.959 -1.03159 1.08068 0
M  V30 7072 H 646.841 -4.16436 0.644873 0
M  V30 7073 H 645.516 -3.2352 -0.107983 0
M  V30 7074 H 644.423 -3.02584 2.19986 0
M  V30 7075 H 645.756 -3.99261 2.87839 0
M  V30 7076 N 647.408 -1.11026 -1.11852 0
M  V30 7077 C 648.654 -0.857729 -1.83768 0
M  V30 7078 C 648.987 0.615143 -1.842 0
M  V30 7079 O 648.262 1.45391 -1.29196 0
M  V30 7080 C 648.545 -1.41453 -3.31154 0
M  V30 7081 C 648.398 -2.95471 -3.39142 0
M  V30 7082 C 649.717 -1.0619 -4.27097 0
M  V30 7083 H 646.836 -0.313044 -0.667212 0
M  V30 7084 H 649.478 -1.37443 -1.31185 0
M  V30 7085 H 647.628 -0.975052 -3.76065 0
M  V30 7086 H 649.3 -3.4799 -3.02821 0
M  V30 7087 H 647.543 -3.31759 -2.79497 0
M  V30 7088 H 648.214 -3.29515 -4.42859 0
M  V30 7089 H 650.69 -1.44122 -3.90344 0
M  V30 7090 H 649.566 -1.47832 -5.28618 0
M  V30 7091 H 649.827 0.0278912 -4.42091 0
M  V30 7092 N 648.886 1.2938 -0.899927 0
M  V30 7093 C 650.135 1.9483 -0.521937 0
M  V30 7094 C 650.448 1.71725 0.936473 0
M  V30 7095 O 651.654 2.31282 1.42199 0
M  V30 7096 C 650.11 3.48911 -0.88255 0
M  V30 7097 C 649.718 3.80815 -2.35974 0
M  V30 7098 C 651.462 4.20595 -0.57448 0
M  V30 7099 C 649.369 5.28142 -2.66121 0
M  V30 7100 H 648.299 0.729285 -0.191468 0
M  V30 7101 H 650.95 1.47103 -1.09695 0
M  V30 7102 H 649.332 3.95293 -0.236459 0
M  V30 7103 H 650.506 3.45291 -3.05141 0
M  V30 7104 H 648.821 3.22271 -2.63686 0
M  V30 7105 H 651.418 5.29031 -0.776556 0
M  V30 7106 H 651.761 4.13442 0.487005 0
M  V30 7107 H 652.294 3.79945 -1.17842 0
M  V30 7108 H 649.033 5.4036 -3.71068 0
M  V30 7109 H 648.553 5.64913 -2.01578 0
M  V30 7110 H 650.232 5.95738 -2.52399 0
M  V30 7111 N 650.364 0.662433 1.43002 0
M  V30 7112 C 651.312 -0.035345 2.32573 0
M  V30 7113 C 652.306 -0.803505 1.49131 0
M  V30 7114 O 653.512 -0.712865 1.65282 0
M  V30 7115 H 649.887 -0.0302194 0.751393 0
M  V30 7116 H 651.858 0.737686 2.89138 0
M  V30 7117 C 650.607 -0.981575 3.33557 0
M  V30 7118 H 649.93 -0.399914 3.97795 0
M  V30 7119 H 651.37 -1.43873 3.98844 0
M  V30 7120 C 649.829 -2.08204 2.64863 0
M  V30 7121 O 650.359 -3.16698 2.47113 0
M  V30 7122 N 648.565 -1.85022 2.24088 0
M  V30 7123 H 648.112 -0.967909 2.38724 0
M  V30 7124 H 648.07 -2.58845 1.78457 0
M  V30 7125 N 651.842 -1.52309 0.404946 0
M  V30 7126 C 652.752 -2.30634 -0.429555 0
M  V30 7127 C 653.768 -1.38187 -1.05737 0
M  V30 7128 O 654.944 -1.71261 -1.05979 0
M  V30 7129 C 652.009 -3.10947 -1.53339 0
M  V30 7130 C 651.07 -4.19126 -0.929065 0
M  V30 7131 C 650.303 -4.95601 -1.9803 0
M  V30 7132 O 650.526 -4.72331 -3.1978 0
M  V30 7133 O 649.46 -5.80551 -1.58886 0
M  V30 7134 H 653.286 -3.0298 0.208963 0
M  V30 7135 H 650.871 -1.4845 0.168255 0
M  V30 7136 H 652.753 -3.60974 -2.1743 0
M  V30 7137 H 651.428 -2.41399 -2.15658 0
M  V30 7138 H 650.335 -3.73257 -0.250982 0
M  V30 7139 H 651.668 -4.90955 -0.349855 0
M  V30 7140 N 653.32 -0.135238 -1.57019 0
M  V30 7141 C 654.268 0.826099 -2.17436 0
M  V30 7142 C 655.262 1.26378 -1.12805 0
M  V30 7143 O 656.468 1.23363 -1.31079 0
M  V30 7144 H 652.843 0.284568 -0.696078 0
M  V30 7145 H 654.814 0.292212 -2.96966 0
M  V30 7146 C 653.563 2.05991 -2.80112 0
M  V30 7147 H 652.886 1.73209 -3.60331 0
M  V30 7148 H 654.326 2.71225 -3.25903 0
M  V30 7149 C 652.785 2.86027 -1.78017 0
M  V30 7150 O 653.315 3.81971 -1.24344 0
M  V30 7151 N 651.521 2.50332 -1.47588 0
M  V30 7152 H 651.068 1.72377 -1.91426 0
M  V30 7153 H 651.026 3.04177 -0.795228 0
M  V30 7154 N 654.798 1.5699 0.138552 0
M  V30 7155 C 656.044 1.84081 0.85099 0
M  V30 7156 C 656.377 0.718107 1.80435 0
M  V30 7157 O 655.652 -0.277633 1.92508 0
M  V30 7158 C 655.935 3.21699 1.61808 0
M  V30 7159 C 655.788 4.44544 0.685633 0
M  V30 7160 C 657.107 3.5664 2.57868 0
M  V30 7161 H 654.226 0.669592 0.307922 0
M  V30 7162 H 656.868 1.89646 0.11588 0
M  V30 7163 H 655.018 3.17086 2.24474 0
M  V30 7164 H 656.69 4.61248 0.0693179 0
M  V30 7165 H 654.933 4.338 -0.00421993 0
M  V30 7166 H 655.604 5.3746 1.25858 0
M  V30 7167 H 658.08 3.61918 2.05316 0
M  V30 7168 H 656.956 4.53946 3.08584 0
M  V30 7169 H 657.217 2.83036 3.39622 0
M  V30 7170 N 656.276 -0.40816 1.52223 0
M  V30 7171 C 657.223 -1.49737 1.75635 0
M  V30 7172 C 658.193 -1.5493 0.598824 0
M  V30 7173 O 659.378 -1.71487 0.83648 0
M  V30 7174 C 656.518 -2.87174 1.91376 0
M  V30 7175 C 655.631 -2.91283 3.19027 0
M  V30 7176 C 654.766 -4.20026 3.25195 0
M  V30 7177 C 653.805 -4.18113 4.47044 0
M  V30 7178 N 652.942 -5.38429 4.50598 0
M  V30 7179 H 657.782 -1.29075 2.68596 0
M  V30 7180 H 655.319 -0.626518 1.33091 0
M  V30 7181 H 657.277 -3.66959 1.98486 0
M  V30 7182 H 655.907 -3.06329 1.01795 0
M  V30 7183 H 654.959 -2.03984 3.21084 0
M  V30 7184 H 656.271 -2.85734 4.08849 0
M  V30 7185 H 655.425 -5.08204 3.31382 0
M  V30 7186 H 654.164 -4.28271 2.33313 0
M  V30 7187 H 653.169 -3.28325 4.41002 0
M  V30 7188 H 654.394 -4.11507 5.40221 0
M  V30 7189 H 652.34 -5.4734 3.616 0
M  V30 7190 H 652.257 -5.34879 5.34266 0
M  V30 7191 H 653.525 -6.28557 4.61016 0
M  V30 7192 N 657.755 -1.42862 -0.66545 0
M  V30 7193 C 658.702 -1.4707 -1.77874 0
M  V30 7194 C 659.672 -0.321654 -1.62956 0
M  V30 7195 O 660.857 -0.52707 -1.83376 0
M  V30 7196 C 657.997 -1.38788 -3.15962 0
M  V30 7197 C 657.11 -2.63801 -3.42101 0
M  V30 7198 C 656.245 -2.47594 -4.69969 0
M  V30 7199 C 655.284 -3.67936 -4.89172 0
M  V30 7200 N 654.421 -3.50614 -6.08288 0
M  V30 7201 H 659.261 -2.42204 -1.73613 0
M  V30 7202 H 656.798 -1.20239 -0.847401 0
M  V30 7203 H 658.756 -1.31982 -3.95773 0
M  V30 7204 H 657.386 -0.472431 -3.19324 0
M  V30 7205 H 656.438 -2.80935 -2.56475 0
M  V30 7206 H 657.75 -3.53228 -3.52181 0
M  V30 7207 H 656.904 -2.38427 -5.57886 0
M  V30 7208 H 655.643 -1.55672 -4.62188 0
M  V30 7209 H 654.648 -3.77525 -3.99694 0
M  V30 7210 H 655.873 -4.60851 -4.98792 0
M  V30 7211 H 653.819 -2.61417 -6.01662 0
M  V30 7212 H 653.736 -4.33634 -6.19272 0
M  V30 7213 H 655.004 -3.45276 -6.98859 0
M  V30 7214 N 659.233 0.902656 -1.29189 0
M  V30 7215 C 660.458 1.69167 -1.19989 0
M  V30 7216 C 660.883 1.86607 0.236495 0
M  V30 7217 O 660.241 1.38425 1.17082 0
M  V30 7218 C 660.289 3.05532 -1.91527 0
M  V30 7219 O 659.393 3.93621 -1.2303 0
M  V30 7220 H 658.734 0.517584 -0.415936 0
M  V30 7221 H 661.264 1.12785 -1.70706 0
M  V30 7222 H 661.274 3.55693 -1.99866 0
M  V30 7223 H 659.949 2.92156 -2.96003 0
M  V30 7224 H 658.526 3.52055 -1.22928 0
M  V30 7225 N 660.711 1.11618 1.11262 0
M  V30 7226 C 662.127 0.850468 1.35053 0
M  V30 7227 C 662.327 -0.523868 1.94571 0
M  V30 7228 O 661.383 -1.2743 2.17986 0
M  V30 7229 C 662.696 1.96005 2.28041 0
M  V30 7230 C 664.244 1.98993 2.416 0
M  V30 7231 C 664.719 3.0916 3.37911 0
M  V30 7232 N 666.21 3.08547 3.45475 0
M  V30 7233 C 666.945 3.9043 4.19943 0
M  V30 7234 N 666.441 4.8228 4.97371 0
M  V30 7235 N 668.234 3.786 4.15474 0
M  V30 7236 H 660.385 2.00184 0.709932 0
M  V30 7237 H 662.648 0.870635 0.375099 0
M  V30 7238 H 662.354 2.9499 1.91503 0
M  V30 7239 H 662.228 1.85782 3.28275 0
M  V30 7240 H 664.615 1.00633 2.77411 0
M  V30 7241 H 664.696 2.13292 1.4121 0
M  V30 7242 H 664.34 4.07748 3.02827 0
M  V30 7243 H 664.27 2.92102 4.3816 0
M  V30 7244 H 666.761 2.42 2.90249 0
M  V30 7245 H 667.074 5.41289 5.51567 0
M  V30 7246 H 665.419 4.863 4.96525 0
M  V30 7247 H 668.61 3.06185 3.54074 0
M  V30 7248 H 668.783 4.42647 4.73253 0
M  V30 7249 N 662.189 -1.289 0.906776 0
M  V30 7250 C 663.605 -1.47733 0.603902 0
M  V30 7251 C 663.805 -1.82568 -0.852702 0
M  V30 7252 O 662.861 -1.92642 -1.63234 0
M  V30 7253 C 664.174 -2.58522 1.53581 0
M  V30 7254 C 665.722 -2.72394 1.54177 0
M  V30 7255 C 666.197 -3.86318 2.46013 0
M  V30 7256 N 667.688 -3.93661 2.441 0
M  V30 7257 C 668.423 -4.81177 3.11859 0
M  V30 7258 N 667.919 -5.73333 3.88923 0
M  V30 7259 N 669.712 -4.74728 3.00981 0
M  V30 7260 H 661.863 -1.04567 1.84877 0
M  V30 7261 H 664.126 -0.520118 0.792579 0
M  V30 7262 H 663.832 -2.39667 2.57396 0
M  V30 7263 H 663.706 -3.55475 1.26165 0
M  V30 7264 H 666.093 -2.90641 0.511034 0
M  V30 7265 H 666.174 -1.75993 1.85634 0
M  V30 7266 H 665.818 -3.68826 3.49185 0
M  V30 7267 H 665.748 -4.82102 2.11862 0
M  V30 7268 H 668.239 -3.27751 1.88115 0
M  V30 7269 H 668.552 -6.36923 4.37663 0
M  V30 7270 H 666.897 -5.73196 3.93029 0
M  V30 7271 H 670.088 -4.01722 2.40286 0
M  V30 7272 H 670.261 -5.42719 3.54062 0
M  V30 7273 N 663.667 -0.670007 -1.42649 0
M  V30 7274 C 664.597 -0.00258501 -2.335 0
M  V30 7275 C 665.578 0.794364 -1.50412 0
M  V30 7276 O 666.763 0.75248 -1.79029 0
M  V30 7277 C 663.893 0.952748 -3.33976 0
M  V30 7278 C 662.847 0.264733 -4.2718 0
M  V30 7279 C 662.173 1.33267 -5.17826 0
M  V30 7280 C 663.473 -0.853289 -5.15283 0
M  V30 7281 H 665.167 -0.761326 -2.89559 0
M  V30 7282 H 662.713 -0.367561 -1.3923 0
M  V30 7283 H 664.666 1.4287 -3.96442 0
M  V30 7284 H 663.39 1.74285 -2.7621 0
M  V30 7285 H 662.049 -0.190938 -3.66102 0
M  V30 7286 H 661.697 2.11464 -4.5639 0
M  V30 7287 H 661.397 0.877476 -5.81011 0
M  V30 7288 H 662.921 1.80965 -5.83167 0
M  V30 7289 H 664.335 -0.458763 -5.71462 0
M  V30 7290 H 662.732 -1.23398 -5.87276 0
M  V30 7291 H 663.802 -1.70412 -4.53969 0
M  V30 7292 N 665.145 1.52092 -0.413018 0
M  V30 7293 C 666.394 2.01041 0.16287 0
M  V30 7294 C 666.707 1.30288 1.45892 0
M  V30 7295 O 667.913 1.70075 2.11629 0
M  V30 7296 C 666.369 3.58283 0.340806 0
M  V30 7297 C 665.977 4.37955 -0.943377 0
M  V30 7298 C 667.721 4.15452 0.871774 0
M  V30 7299 C 665.628 5.86847 -0.732417 0
M  V30 7300 H 664.558 0.751224 0.0646414 0
M  V30 7301 H 667.209 1.75404 -0.539059 0
M  V30 7302 H 665.591 3.80266 1.10516 0
M  V30 7303 H 666.765 4.2773 -1.71418 0
M  V30 7304 H 665.08 3.92122 -1.40105 0
M  V30 7305 H 667.677 5.24375 1.0457 0
M  V30 7306 H 668.02 3.73057 1.84755 0
M  V30 7307 H 668.553 3.97452 0.166377 0
M  V30 7308 H 665.292 6.33609 -1.67986 0
M  V30 7309 H 664.812 5.998 -0.000980058 0
M  V30 7310 H 666.491 6.45906 -0.376105 0
M  V30 7311 N 666.623 0.143563 1.56945 0
M  V30 7312 C 667.872 -0.50835 1.95189 0
M  V30 7313 C 668.185 -1.66239 1.03073 0
M  V30 7314 O 669.391 -2.3787 1.30882 0
M  V30 7315 C 667.847 -0.955735 3.46978 0
M  V30 7316 C 667.455 0.171183 4.47673 0
M  V30 7317 C 669.199 -1.57763 3.94095 0
M  V30 7318 C 667.106 -0.294279 5.90667 0
M  V30 7319 H 666.036 -0.193679 0.728701 0
M  V30 7320 H 668.687 0.227357 1.82086 0
M  V30 7321 H 667.069 -1.7466 3.55401 0
M  V30 7322 H 668.243 0.948049 4.50942 0
M  V30 7323 H 666.558 0.701273 4.10452 0
M  V30 7324 H 669.155 -1.93745 4.98364 0
M  V30 7325 H 669.498 -2.46531 3.35452 0
M  V30 7326 H 670.031 -0.851728 3.88575 0
M  V30 7327 H 666.77 0.557939 6.53121 0
M  V30 7328 H 666.29 -1.0371 5.90766 0
M  V30 7329 H 667.969 -0.747426 6.42668 0
M  V30 7330 N 668.101 -1.57061 -0.130224 0
M  V30 7331 C 669.35 -1.83446 -0.838488 0
M  V30 7332 C 669.663 -0.727468 -1.81569 0
M  V30 7333 O 670.869 -0.877394 -2.56932 0
M  V30 7334 C 669.325 -3.25201 -1.54182 0
M  V30 7335 C 668.933 -4.4388 -0.606178 0
M  V30 7336 C 670.677 -3.60844 -2.23588 0
M  V30 7337 C 668.584 -5.76661 -1.31209 0
M  V30 7338 H 667.514 -0.684185 -0.316871 0
M  V30 7339 H 670.165 -1.83273 -0.0912059 0
M  V30 7340 H 668.547 -3.1981 -2.33533 0
M  V30 7341 H 669.721 -4.60545 0.153308 0
M  V30 7342 H 668.036 -4.16395 -0.0196705 0
M  V30 7343 H 670.633 -4.57313 -2.77072 0
M  V30 7344 H 670.976 -2.87724 -3.00867 0
M  V30 7345 H 671.509 -3.67971 -1.51137 0
M  V30 7346 H 668.248 -6.52922 -0.580823 0
M  V30 7347 H 667.768 -5.63902 -2.04387 0
M  V30 7348 H 669.447 -6.20035 -1.8484 0
M  V30 7349 N 669.579 0.400081 -1.52437 0
M  V30 7350 C 670.509 1.4947 -1.7939 0
M  V30 7351 C 671.49 1.57383 -0.645329 0
M  V30 7352 O 672.675 1.72511 -0.891826 0
M  V30 7353 C 669.805 2.87201 -1.95276 0
M  V30 7354 C 668.759 2.94134 -3.10917 0
M  V30 7355 C 668.085 4.34207 -3.1204 0
M  V30 7356 C 669.385 2.64791 -4.50203 0
M  V30 7357 H 671.079 1.27165 -2.71052 0
M  V30 7358 H 668.625 0.610312 -1.30427 0
M  V30 7359 H 670.578 3.63772 -2.12715 0
M  V30 7360 H 669.302 3.10819 -1.00294 0
M  V30 7361 H 667.961 2.20009 -2.93243 0
M  V30 7362 H 667.609 4.54848 -2.14761 0
M  V30 7363 H 667.309 4.39768 -3.89715 0
M  V30 7364 H 668.833 5.127 -3.31619 0
M  V30 7365 H 670.247 3.31083 -4.68035 0
M  V30 7366 H 668.644 2.81717 -5.29864 0
M  V30 7367 H 669.714 1.60184 -4.57678 0
M  V30 7368 N 671.057 1.43213 0.657864 0
M  V30 7369 C 672.303 1.44798 1.41991 0
M  V30 7370 C 672.636 0.070256 1.94073 0
M  V30 7371 O 671.911 -0.908177 1.71995 0
M  V30 7372 C 672.194 2.4865 2.60471 0
M  V30 7373 C 672.047 3.95679 2.13911 0
M  V30 7374 C 673.366 2.49292 3.62686 0
M  V30 7375 H 670.485 0.527244 0.514959 0
M  V30 7376 H 673.127 1.74733 0.74621 0
M  V30 7377 H 671.277 2.23254 3.17946 0
M  V30 7378 H 672.949 4.32116 1.61472 0
M  V30 7379 H 671.192 4.08733 1.45325 0
M  V30 7380 H 671.863 4.6395 2.99089 0
M  V30 7381 H 674.339 2.71917 3.14961 0
M  V30 7382 H 673.215 3.23907 4.43143 0
M  V30 7383 H 673.476 1.52502 4.14964 0
M  V30 7384 N 672.536 -0.895792 1.29666 0
M  V30 7385 C 673.952 -1.17726 1.07763 0
M  V30 7386 C 674.152 -2.00794 -0.168576 0
M  V30 7387 O 673.208 -2.37213 -0.865244 0
M  V30 7388 C 674.521 -1.89441 2.33522 0
M  V30 7389 C 676.069 -2.02251 2.3888 0
M  V30 7390 C 676.544 -2.77378 3.64452 0
M  V30 7391 N 678.035 -2.8493 3.65198 0
M  V30 7392 C 678.77 -3.43606 4.59045 0
M  V30 7393 N 678.266 -4.03417 5.63228 0
M  V30 7394 N 680.059 -3.41317 4.46608 0
M  V30 7395 H 672.21 -0.341652 2.09634 0
M  V30 7396 H 674.473 -0.213865 0.923561 0
M  V30 7397 H 674.179 -1.35842 3.24407 0
M  V30 7398 H 674.053 -2.89893 2.41334 0
M  V30 7399 H 676.44 -2.55025 1.4848 0
M  V30 7400 H 676.521 -1.0092 2.3505 0
M  V30 7401 H 676.165 -2.25279 4.55205 0
M  V30 7402 H 676.095 -3.79062 3.65541 0
M  V30 7403 H 678.586 -2.42453 2.89871 0
M  V30 7404 H 678.899 -4.46224 6.30955 0
M  V30 7405 H 677.244 -4.01868 5.67033 0
M  V30 7406 H 680.435 -2.93812 3.64407 0
M  V30 7407 H 680.608 -3.86751 5.1993 0
M  V30 7408 N 674.014 -1.12206 -1.10668 0
M  V30 7409 C 674.924 -0.800686 -2.20513 0
M  V30 7410 C 675.94 0.209512 -1.72734 0
M  V30 7411 O 677.116 0.043705 -2.01353 0
M  V30 7412 C 674.181 -0.257353 -3.45744 0
M  V30 7413 C 673.242 -1.32718 -4.0827 0
M  V30 7414 C 672.475 -0.809674 -5.27522 0
M  V30 7415 O 672.698 0.35742 -5.69279 0
M  V30 7416 O 671.632 -1.57816 -5.80842 0
M  V30 7417 H 675.458 -1.71807 -2.50432 0
M  V30 7418 H 673.043 -0.898546 -1.19359 0
M  V30 7419 H 674.925 0.0408849 -4.2138 0
M  V30 7420 H 673.6 0.632627 -3.17458 0
M  V30 7421 H 672.507 -1.67855 -3.34329 0
M  V30 7422 H 673.84 -2.19083 -4.40753 0
M  V30 7423 N 675.492 1.28418 -0.913599 0
M  V30 7424 C 676.72 1.99106 -0.562536 0
M  V30 7425 C 677.135 1.68273 0.856137 0
M  V30 7426 O 676.492 0.935401 1.56705 0
M  V30 7427 C 676.543 3.5338 -0.761903 0
M  V30 7428 O 676.264 3.83127 -2.12475 0
M  V30 7429 C 677.765 4.41328 -0.417651 0
M  V30 7430 H 674.985 0.635798 -0.214481 0
M  V30 7431 H 677.529 1.63618 -1.22676 0
M  V30 7432 H 675.684 3.8713 -0.144676 0
M  V30 7433 H 676.098 4.77763 -2.16431 0
M  V30 7434 H 677.572 5.48642 -0.607919 0
M  V30 7435 H 678.049 4.34422 0.646108 0
M  V30 7436 H 678.655 4.13074 -1.01241 0
M  V30 7437 N 676.97 0.677563 1.42291 0
M  V30 7438 C 678.195 0.207901 2.06355 0
M  V30 7439 C 678.62 -1.12723 1.50583 0
M  V30 7440 O 677.978 -1.70171 0.62543 0
M  V30 7441 C 678.026 0.156489 3.6026 0
M  V30 7442 O 677.13 -0.874162 4.03029 0
M  V30 7443 H 676.471 0.106056 0.655475 0
M  V30 7444 H 679.001 0.927354 1.82377 0
M  V30 7445 H 679.011 -0.0187258 4.07996 0
M  V30 7446 H 677.686 1.13101 4.00226 0
M  V30 7447 H 676.263 -0.669764 3.66836 0
M  V30 7448 N 678.448 -1.51871 0.421078 0
M  V30 7449 C 679.696 -2.01539 -0.150492 0
M  V30 7450 C 680.017 -1.30803 -1.44623 0
M  V30 7451 O 679.287 -0.437568 -1.90951 0
M  V30 7452 H 677.867 -0.744698 -0.0586041 0
M  V30 7453 H 680.529 -1.8668 0.560059 0
M  V30 7454 H 679.625 -3.10264 -0.338068 0
M  V30 7455 N 679.926 -0.151884 -1.56866 0
M  V30 7456 C 681.173 0.498004 -1.96281 0
M  V30 7457 C 681.501 1.64551 -1.03698 0
M  V30 7458 O 680.756 1.95585 -0.0671497 0
M  V30 7459 C 681.055 1.04074 -3.41911 0
M  V30 7460 C 680.721 0.0111688 -4.50899 0
M  V30 7461 C 679.383 -0.271844 -4.80432 0
M  V30 7462 C 681.735 -0.68869 -5.1663 0
M  V30 7463 C 679.063 -1.26044 -5.73001 0
M  V30 7464 C 681.415 -1.66613 -6.10264 0
M  V30 7465 C 680.079 -1.9568 -6.38174 0
M  V30 7466 H 679.349 0.182233 -0.718242 0
M  V30 7467 H 681.996 -0.239746 -1.89993 0
M  V30 7468 H 680.301 1.85592 -3.45055 0
M  V30 7469 H 681.998 1.55224 -3.69738 0
M  V30 7470 H 678.588 0.241932 -4.27917 0
M  V30 7471 H 682.772 -0.48324 -4.93942 0
M  V30 7472 H 678.028 -1.49202 -5.92915 0
M  V30 7473 H 682.202 -2.21392 -6.60272 0
M  V30 7474 H 679.829 -2.72434 -7.09707 0
M  V30 7475 N 681.404 1.57128 0.121893 0
M  V30 7476 C 682.629 1.89254 0.848385 0
M  V30 7477 C 683.054 0.743527 1.72781 0
M  V30 7478 O 682.412 -0.306056 1.78698 0
M  V30 7479 C 682.46 3.20113 1.66012 0
M  V30 7480 O 681.564 3.05815 2.76679 0
M  V30 7481 H 680.905 0.621103 0.234793 0
M  V30 7482 H 683.435 2.0433 0.10516 0
M  V30 7483 H 683.445 3.52761 2.04996 0
M  V30 7484 H 682.12 4.03336 1.01452 0
M  V30 7485 H 680.697 2.84627 2.40918 0
M  V30 7486 N 682.882 -0.391992 1.52647 0
M  V30 7487 C 684.128 -1.13563 1.68745 0
M  V30 7488 C 684.483 -1.87745 0.420685 0
M  V30 7489 O 683.776 -1.82434 -0.585529 0
M  V30 7490 C 683.97 -2.14401 2.85949 0
M  V30 7491 C 683.799 -1.50124 4.23902 0
M  V30 7492 C 682.569 -1.2666 4.89168 0
M  V30 7493 C 684.767 -0.952933 5.05395 0
M  V30 7494 N 682.749 -0.584555 6.11111 0
M  V30 7495 C 684.12 -0.398784 6.18716 0
M  V30 7496 C 686.175 -0.849053 4.90607 0
M  V30 7497 C 684.878 0.249084 7.18869 0
M  V30 7498 C 686.904 -0.215011 5.91009 0
M  V30 7499 C 686.266 0.328382 7.03634 0
M  V30 7500 H 682.365 -0.401628 0.670984 0
M  V30 7501 H 684.949 -0.425585 1.89992 0
M  V30 7502 H 683.12 -2.82746 2.66288 0
M  V30 7503 H 684.852 -2.8125 2.90999 0
M  V30 7504 H 681.607 -1.54078 4.47836 0
M  V30 7505 H 682.031 -0.259663 6.76502 0
M  V30 7506 H 686.673 -1.25497 4.03745 0
M  V30 7507 H 684.391 0.667019 8.05342 0
M  V30 7508 H 687.977 -0.135921 5.81641 0
M  V30 7509 H 686.857 0.811257 7.79992 0
M  V30 7510 N 684.36 -1.4356 -0.65026 0
M  V30 7511 C 685.29 -1.51758 -1.77459 0
M  V30 7512 C 686.271 -0.372019 -1.65982 0
M  V30 7513 O 687.456 -0.589627 -1.85033 0
M  V30 7514 C 684.586 -1.44302 -3.15902 0
M  V30 7515 C 683.54 -2.57138 -3.42146 0
M  V30 7516 C 682.866 -2.34735 -4.8042 0
M  V30 7517 C 684.166 -3.99373 -3.36598 0
M  V30 7518 H 685.86 -2.45863 -1.70855 0
M  V30 7519 H 683.406 -1.18333 -0.820566 0
M  V30 7520 H 685.359 -1.48641 -3.94314 0
M  V30 7521 H 684.083 -0.467026 -3.23244 0
M  V30 7522 H 682.742 -2.52157 -2.66106 0
M  V30 7523 H 682.39 -1.35372 -4.84441 0
M  V30 7524 H 682.09 -3.10375 -4.9894 0
M  V30 7525 H 683.614 -2.40862 -5.61086 0
M  V30 7526 H 685.028 -4.05826 -4.04942 0
M  V30 7527 H 683.425 -4.75063 -3.66654 0
M  V30 7528 H 684.495 -4.243 -2.34729 0
M  V30 7529 N 685.838 0.888903 -1.30139 0
M  V30 7530 C 687.086 1.63713 -1.18501 0
M  V30 7531 C 687.407 1.9324 0.261399 0
M  V30 7532 O 686.677 1.56608 1.17689 0
M  V30 7533 H 685.257 0.606861 -0.435579 0
M  V30 7534 H 687.919 1.06525 -1.63213 0
M  V30 7535 H 687.015 2.58894 -1.743 0
M  V30 7536 N 687.317 1.12792 1.10072 0
M  V30 7537 C 688.565 0.883796 1.81751 0
M  V30 7538 C 688.886 -0.591891 1.858 0
M  V30 7539 O 688.156 -1.43017 1.33876 0
M  V30 7540 H 686.736 0.323978 0.673088 0
M  V30 7541 H 689.398 1.42314 1.33164 0
M  V30 7542 H 688.494 1.26863 2.85153 0
M  V30 7543 N 688.795 -1.27931 0.920396 0
M  V30 7544 C 690.02 -1.99343 0.572478 0
M  V30 7545 C 690.445 -1.68267 -0.840696 0
M  V30 7546 O 689.803 -0.918805 -1.56294 0
M  V30 7547 C 689.851 -3.51698 0.796284 0
M  V30 7548 O 688.955 -4.12157 -0.141602 0
M  V30 7549 H 688.296 -0.626065 0.221221 0
M  V30 7550 H 690.826 -1.62921 1.23765 0
M  V30 7551 H 690.836 -4.01793 0.708984 0
M  V30 7552 H 689.511 -3.73649 1.82644 0
M  V30 7553 H 688.088 -3.729 -0.005007 0
M  V30 7554 N 690.273 -0.685099 -1.4193 0
M  V30 7555 C 691.498 -0.218842 -2.06242 0
M  V30 7556 C 691.923 1.11923 -1.51178 0
M  V30 7557 O 691.281 1.69837 -0.634446 0
M  V30 7558 C 691.329 -0.175592 -3.60172 0
M  V30 7559 O 690.433 0.852776 -4.03487 0
M  V30 7560 H 689.774 -0.109531 -0.654904 0
M  V30 7561 H 692.304 -0.937013 -1.81882 0
M  V30 7562 H 692.314 -0.00291151 -4.08 0
M  V30 7563 H 690.989 -1.15222 -3.99621 0
M  V30 7564 H 689.566 0.650301 -3.67186 0
M  V30 7565 N 691.751 1.51645 -0.429126 0
M  V30 7566 C 692.661 2.31288 0.392809 0
M  V30 7567 C 693.677 1.39852 1.03525 0
M  V30 7568 O 694.853 1.72926 1.03241 0
M  V30 7569 C 691.918 3.13347 1.48372 0
M  V30 7570 C 690.979 4.20551 0.862268 0
M  V30 7571 C 690.212 4.98688 1.9012 0
M  V30 7572 O 690.435 4.77359 3.12225 0
M  V30 7573 O 689.369 5.83005 1.4963 0
M  V30 7574 H 693.195 3.02609 -0.257138 0
M  V30 7575 H 690.78 1.48163 -0.191851 0
M  V30 7576 H 692.662 3.64387 2.1166 0
M  V30 7577 H 691.337 2.44799 2.1179 0
M  V30 7578 H 690.244 3.73609 0.191568 0
M  V30 7579 H 691.577 4.91449 0.271704 0
M  V30 7580 N 693.229 0.160201 1.56784 0
M  V30 7581 C 694.139 -0.787167 2.21 0
M  V30 7582 C 695.155 -1.26167 1.19825 0
M  V30 7583 O 696.331 -1.31611 1.52448 0
M  V30 7584 C 693.396 -2.00364 2.8294 0
M  V30 7585 C 692.457 -1.5771 3.99282 0
M  V30 7586 C 691.69 -2.73558 4.58259 0
M  V30 7587 O 691.913 -3.90129 4.16119 0
M  V30 7588 O 690.847 -2.48271 5.48311 0
M  V30 7589 H 694.673 -0.270462 3.02493 0
M  V30 7590 H 692.258 -0.0674666 1.49248 0
M  V30 7591 H 694.14 -2.71529 3.22257 0
M  V30 7592 H 692.815 -2.50961 2.04451 0
M  V30 7593 H 691.722 -0.835274 3.64656 0
M  V30 7594 H 693.055 -1.11815 4.79331 0
M  V30 7595 N 694.707 -1.5719 -0.113559 0
M  V30 7596 C 695.639 -1.97393 -1.16484 0
M  V30 7597 C 696.652 -0.873964 -1.37352 0
M  V30 7598 O 697.841 -1.15222 -1.36331 0
M  V30 7599 C 694.941 -2.26174 -2.52386 0
M  V30 7600 C 694.114 -3.57479 -2.52046 0
M  V30 7601 C 693.173 -3.74409 -3.69735 0
M  V30 7602 O 692.199 -4.46463 -3.53071 0
M  V30 7603 N 693.401 -3.13588 -4.88511 0
M  V30 7604 H 696.166 -2.88184 -0.822814 0
M  V30 7605 H 693.727 -1.59044 -0.302769 0
M  V30 7606 H 695.719 -2.3471 -3.29687 0
M  V30 7607 H 694.289 -1.41483 -2.7875 0
M  V30 7608 H 693.509 -3.60081 -1.60421 0
M  V30 7609 H 694.797 -4.43775 -2.48881 0
M  V30 7610 H 694.195 -2.55026 -5.04953 0
M  V30 7611 H 692.752 -3.27637 -5.63469 0
M  V30 7612 N 696.185 0.383891 -1.52853 0
M  V30 7613 C 697.434 1.12563 -1.67369 0
M  V30 7614 C 697.747 1.90982 -0.422533 0
M  V30 7615 O 698.953 2.6778 -0.447914 0
M  V30 7616 C 697.409 2.05011 -2.95801 0
M  V30 7617 C 697.017 1.31991 -4.28115 0
M  V30 7618 C 698.761 2.79289 -3.19684 0
M  V30 7619 C 696.668 2.23235 -5.4765 0
M  V30 7620 H 695.598 0.42391 -0.623552 0
M  V30 7621 H 698.249 0.388016 -1.79351 0
M  V30 7622 H 696.631 2.82429 -2.77578 0
M  V30 7623 H 697.805 0.597633 -4.56908 0
M  V30 7624 H 696.12 0.696517 -4.10533 0
M  V30 7625 H 698.717 3.47749 -4.06171 0
M  V30 7626 H 699.06 3.43649 -2.3497 0
M  V30 7627 H 699.593 2.08962 -3.38496 0
M  V30 7628 H 696.332 1.63482 -6.34786 0
M  V30 7629 H 695.852 2.93364 -5.23161 0
M  V30 7630 H 697.531 2.83205 -5.81725 0
M  V30 7631 N 697.663 1.43903 0.642637 0
M  V30 7632 C 698.626 1.49538 1.73698 0
M  V30 7633 C 699.626 0.378776 1.56275 0
M  V30 7634 O 700.816 0.64095 1.6198 0
M  V30 7635 C 697.948 1.35821 3.12675 0
M  V30 7636 H 699.141 2.47008 1.70079 0
M  V30 7637 H 696.694 1.30824 0.85526 0
M  V30 7638 H 697.429 0.393994 3.21898 0
M  V30 7639 H 697.214 2.16776 3.26727 0
M  V30 7640 H 698.704 1.4272 3.92455 0
M  V30 7641 N 699.141 -0.881989 1.30609 0
M  V30 7642 C 700.074 -1.99066 1.11571 0
M  V30 7643 C 701.052 -1.62584 0.022516 0
M  V30 7644 O 702.236 -1.87671 0.176644 0
M  V30 7645 C 699.363 -3.3134 0.702237 0
M  V30 7646 C 698.409 -3.86807 1.79673 0
M  V30 7647 S 699.242 -4.13735 3.39976 0
M  V30 7648 C 700.398 -5.49024 3.00538 0
M  V30 7649 H 700.631 -2.1491 2.05429 0
M  V30 7650 H 698.164 -1.03074 1.14957 0
M  V30 7651 H 700.122 -4.07796 0.470415 0
M  V30 7652 H 698.783 -3.13349 -0.217034 0
M  V30 7653 H 697.976 -4.82397 1.45977 0
M  V30 7654 H 697.578 -3.17102 1.98298 0
M  V30 7655 H 699.87 -6.30208 2.48684 0
M  V30 7656 H 700.813 -5.8766 3.95046 0
M  V30 7657 H 701.221 -5.11726 2.3832 0
M  V30 7658 N 700.619 -1.13374 -1.09472 0
M  V30 7659 C 701.849 -0.917019 -1.85133 0
M  V30 7660 C 702.257 0.537568 -1.81402 0
M  V30 7661 O 701.6 1.38385 -1.20811 0
M  V30 7662 C 701.662 -1.32646 -3.34134 0
M  V30 7663 C 701.326 -2.79437 -3.61613 0
M  V30 7664 C 702.323 -3.77596 -3.57375 0
M  V30 7665 C 700.008 -3.16586 -3.89973 0
M  V30 7666 C 702.002 -5.10916 -3.81108 0
M  V30 7667 C 699.689 -4.50085 -4.13361 0
M  V30 7668 C 700.687 -5.47059 -4.0892 0
M  V30 7669 O 700.375 -6.78149 -4.31705 0
M  V30 7670 H 700.107 -0.326997 -0.591649 0
M  V30 7671 H 702.661 -1.51002 -1.39239 0
M  V30 7672 H 700.891 -0.676719 -3.80733 0
M  V30 7673 H 702.58 -1.08229 -3.91205 0
M  V30 7674 H 703.346 -3.50242 -3.35493 0
M  V30 7675 H 699.225 -2.41707 -3.92554 0
M  V30 7676 H 702.769 -5.86597 -3.77558 0
M  V30 7677 H 698.666 -4.77163 -4.34724 0
M  V30 7678 H 699.434 -6.84244 -4.49168 0
M  V30 7679 N 702.098 1.27442 -0.927168 0
M  V30 7680 C 703.046 2.28844 -0.416333 0
M  V30 7681 C 704.04 1.61882 0.499057 0
M  V30 7682 O 705.246 1.75969 0.378817 0
M  V30 7683 H 701.621 0.742989 -0.116065 0
M  V30 7684 H 703.592 2.69344 -1.28438 0
M  V30 7685 C 702.341 3.4626 0.316107 0
M  V30 7686 H 701.664 3.97999 -0.379082 0
M  V30 7687 H 703.104 4.19173 0.637975 0
M  V30 7688 C 701.563 3.00211 1.5289 0
M  V30 7689 O 702.093 3.03837 2.62766 0
M  V30 7690 N 700.299 2.55713 1.38054 0
M  V30 7691 H 699.846 2.52962 0.4866 0
M  V30 7692 H 699.804 2.25264 2.19325 0
M  V30 7693 N 703.576 0.692616 1.41565 0
M  V30 7694 C 704.539 0.0344174 2.29174 0
M  V30 7695 C 705.539 -0.710961 1.44229 0
M  V30 7696 O 706.729 -0.546293 1.65412 0
M  V30 7697 C 703.861 -0.961682 3.27054 0
M  V30 7698 H 705.054 0.805755 2.88873 0
M  V30 7699 H 702.607 0.455947 1.49502 0
M  V30 7700 H 703.342 -1.76089 2.72329 0
M  V30 7701 H 703.127 -0.430375 3.89731 0
M  V30 7702 H 704.617 -1.4201 3.92712 0
M  V30 7703 N 705.054 -1.51416 0.437162 0
M  V30 7704 C 705.984 -2.30631 -0.364922 0
M  V30 7705 C 706.965 -1.36037 -1.02118 0
M  V30 7706 O 708.15 -1.64956 -1.02485 0
M  V30 7707 C 705.28 -3.1482 -1.46648 0
M  V30 7708 C 704.234 -4.17691 -0.933717 0
M  V30 7709 C 703.56 -4.904 -2.13101 0
M  V30 7710 C 704.86 -5.2229 0.0317201 0
M  V30 7711 H 706.554 -2.97932 0.29614 0
M  V30 7712 H 704.1 -1.4328 0.143865 0
M  V30 7713 H 706.053 -3.69017 -2.03481 0
M  V30 7714 H 704.777 -2.4534 -2.15583 0
M  V30 7715 H 703.436 -3.64545 -0.387602 0
M  V30 7716 H 703.084 -4.17423 -2.80654 0
M  V30 7717 H 702.784 -5.59962 -1.78092 0
M  V30 7718 H 704.308 -5.4742 -2.70487 0
M  V30 7719 H 705.722 -5.7156 -0.446302 0
M  V30 7720 H 704.119 -5.99378 0.29437 0
M  V30 7721 H 705.189 -4.75131 0.968447 0
M  V30 7722 N 706.532 -0.168513 -1.56696 0
M  V30 7723 C 707.778 0.477865 -1.9709 0
M  V30 7724 C 708.111 1.63084 -1.05438 0
M  V30 7725 O 707.386 1.94238 -0.10095 0
M  V30 7726 C 707.669 0.963521 -3.4697 0
M  V30 7727 C 707.522 -0.189443 -4.49401 0
M  V30 7728 C 708.841 1.83813 -3.99876 0
M  V30 7729 H 705.96 0.172229 -0.716593 0
M  V30 7730 H 708.602 -0.254083 -1.88293 0
M  V30 7731 H 706.752 1.58724 -3.54597 0
M  V30 7732 H 708.424 -0.826451 -4.53836 0
M  V30 7733 H 706.667 -0.845366 -4.25483 0
M  V30 7734 H 707.338 0.192446 -5.51664 0
M  V30 7735 H 709.814 1.31235 -3.94863 0
M  V30 7736 H 708.69 2.14697 -5.0517 0
M  V30 7737 H 708.951 2.78289 -3.43523 0
M  V30 7738 N 708.01 1.57248 0.105221 0
M  V30 7739 C 708.942 1.98008 1.15436 0
M  V30 7740 C 709.955 0.881236 1.36887 0
M  V30 7741 O 711.144 1.15943 1.35718 0
M  V30 7742 C 708.244 2.27509 2.51183 0
M  V30 7743 C 707.417 3.58811 2.50147 0
M  V30 7744 C 706.476 3.76365 3.67745 0
M  V30 7745 O 705.502 4.48329 3.50699 0
M  V30 7746 N 706.704 3.16174 4.86841 0
M  V30 7747 H 709.469 2.88616 0.807519 0
M  V30 7748 H 707.03 1.59202 0.29433 0
M  V30 7749 H 709.022 2.36455 3.28438 0
M  V30 7750 H 707.592 1.42959 2.77995 0
M  V30 7751 H 706.812 3.60927 1.5851 0
M  V30 7752 H 708.1 4.45088 2.46524 0
M  V30 7753 H 707.498 2.57701 5.03594 0
M  V30 7754 H 706.055 3.30621 5.61723 0
M  V30 7755 N 709.488 -0.375779 1.53054 0
M  V30 7756 C 710.765 -1.13453 1.59336 0
M  V30 7757 C 711.145 -2.07379 0.394614 0
M  V30 7758 O 710.493 -2.2004 -0.616 0
M  V30 7759 C 710.703 -1.8826 2.93869 0
M  V30 7760 C 712.051 -2.43155 3.48081 0
M  V30 7761 O 713.075 -1.984 2.95831 0
M  V30 7762 O 711.934 -3.24944 4.39401 0
M  V30 7763 H 709.028 -0.519856 0.643179 0
M  V30 7764 H 711.574 -0.379865 1.65394 0
M  V30 7765 H 710.346 -1.19652 3.72558 0
M  V30 7766 H 709.969 -2.70658 2.91256 0
M  V30 7767 N 710.966 -1.44241 -0.634997 0
M  V30 7768 C 712.214 -1.46531 -1.39187 0
M  V30 7769 C 712.535 -0.0976441 -1.94755 0
M  V30 7770 O 711.805 0.869528 -1.75545 0
M  V30 7771 H 710.385 -0.539544 -0.516625 0
M  V30 7772 H 713.047 -1.79989 -0.747655 0
M  V30 7773 H 712.143 -2.18848 -2.22513 0
M  V30 7774 N 712.444 0.87505 -1.31075 0
M  V30 7775 C 713.693 1.62245 -1.19831 0
M  V30 7776 C 714.006 1.94078 0.24357 0
M  V30 7777 O 715.212 2.67265 0.477646 0
M  V30 7778 C 713.668 2.92464 -2.09744 0
M  V30 7779 C 713.276 2.68134 -3.58898 0
M  V30 7780 C 715.02 3.70449 -2.07287 0
M  V30 7781 C 712.927 3.9423 -4.40836 0
M  V30 7782 H 711.857 0.608741 -0.444916 0
M  V30 7783 H 714.508 0.967947 -1.55894 0
M  V30 7784 H 712.89 3.59262 -1.66574 0
M  V30 7785 H 714.064 2.09776 -4.10281 0
M  V30 7786 H 712.379 2.03511 -3.6328 0
M  V30 7787 H 714.976 4.63983 -2.65752 0
M  V30 7788 H 715.319 4.02611 -1.05876 0
M  V30 7789 H 715.852 3.10528 -2.48631 0
M  V30 7790 H 712.591 3.67221 -5.42982 0
M  V30 7791 H 712.111 4.52058 -3.94213 0
M  V30 7792 H 713.79 4.62162 -4.52786 0
M  V30 7793 N 713.922 1.13953 1.08869 0
M  V30 7794 C 714.869 0.82213 2.15661 0
M  V30 7795 C 715.839 -0.218274 1.6466 0
M  V30 7796 O 717.024 -0.0892475 1.90591 0
M  V30 7797 C 714.164 0.300572 3.43789 0
M  V30 7798 C 713.277 1.40071 4.08661 0
M  V30 7799 C 712.412 0.836897 5.24566 0
M  V30 7800 C 711.451 1.91504 5.81371 0
M  V30 7801 N 710.588 1.36875 6.88629 0
M  V30 7802 H 715.428 1.73683 2.42153 0
M  V30 7803 H 712.965 0.866879 1.18843 0
M  V30 7804 H 714.923 -0.0199943 4.17195 0
M  V30 7805 H 713.553 -0.577248 3.17597 0
M  V30 7806 H 712.605 1.83776 3.33062 0
M  V30 7807 H 713.917 2.21534 4.46905 0
M  V30 7808 H 713.071 0.467953 6.04893 0
M  V30 7809 H 711.81 -0.00874207 4.87699 0
M  V30 7810 H 710.815 2.29299 4.99702 0
M  V30 7811 H 712.04 2.76419 6.20298 0
M  V30 7812 H 709.986 0.545211 6.5373 0
M  V30 7813 H 709.903 2.1198 7.25672 0
M  V30 7814 H 711.171 1.02756 7.72698 0
M  V30 7815 N 715.4 -1.26948 0.933913 0
M  V30 7816 C 716.646 -1.94374 0.57848 0
M  V30 7817 C 716.979 -1.73166 -0.879048 0
M  V30 7818 O 716.254 -1.06438 -1.62792 0
M  V30 7819 C 716.537 -3.4834 0.912739 0
M  V30 7820 C 716.39 -3.78866 2.42448 0
M  V30 7821 C 717.709 -4.38062 0.423003 0
M  V30 7822 H 714.828 -0.705959 0.211639 0
M  V30 7823 H 717.47 -1.49951 1.16682 0
M  V30 7824 H 715.62 -3.86309 0.412058 0
M  V30 7825 H 717.292 -3.50654 2.99733 0
M  V30 7826 H 715.535 -3.25198 2.87104 0
M  V30 7827 H 716.206 -4.86458 2.60887 0
M  V30 7828 H 718.682 -4.0728 0.852191 0
M  V30 7829 H 717.558 -5.44599 0.685776 0
M  V30 7830 H 717.819 -4.36886 -0.676994 0
M  V30 7831 N 716.879 -0.700114 -1.41195 0
M  V30 7832 C 718.125 -0.233351 -2.01453 0
M  V30 7833 C 718.458 1.16548 -1.55339 0
M  V30 7834 O 717.733 1.78756 -0.766575 0
M  V30 7835 C 718.016 -0.2961 -3.58881 0
M  V30 7836 C 717.869 -1.7322 -4.15108 0
M  V30 7837 C 719.188 0.341525 -4.38773 0
M  V30 7838 H 716.307 -0.0862667 -0.731934 0
M  V30 7839 H 718.949 -0.889693 -1.67882 0
M  V30 7840 H 717.099 0.262736 -3.87611 0
M  V30 7841 H 718.771 -2.34523 -3.97236 0
M  V30 7842 H 717.014 -2.2649 -3.69979 0
M  V30 7843 H 717.685 -1.7276 -5.24269 0
M  V30 7844 H 720.161 -0.134461 -4.15883 0
M  V30 7845 H 719.037 0.267098 -5.4825 0
M  V30 7846 H 719.298 1.42289 -4.18577 0
M  V30 7847 N 718.357 1.51182 -0.445186 0
M  V30 7848 C 719.287 2.30821 0.352686 0
M  V30 7849 C 720.268 1.36576 1.01395 0
M  V30 7850 O 721.453 1.65497 1.01609 0
M  V30 7851 C 718.583 3.15593 1.44976 0
M  V30 7852 C 717.537 4.1818 0.911553 0
M  V30 7853 C 716.863 4.91523 2.10497 0
M  V30 7854 C 718.163 5.22266 -0.059418 0
M  V30 7855 H 719.857 2.97771 -0.311936 0
M  V30 7856 H 717.403 1.43201 -0.151461 0
M  V30 7857 H 719.356 3.70091 2.01521 0
M  V30 7858 H 718.08 2.4648 2.14278 0
M  V30 7859 H 716.739 3.64746 0.368264 0
M  V30 7860 H 716.387 4.18906 2.78437 0
M  V30 7861 H 716.087 5.60898 1.7512 0
M  V30 7862 H 717.611 5.48847 2.6758 0
M  V30 7863 H 719.025 5.71789 0.415985 0
M  V30 7864 H 717.422 5.99213 -0.326152 0
M  V30 7865 H 718.492 4.7461 -0.993631 0
M  V30 7866 N 719.835 0.176821 1.56605 0
M  V30 7867 C 720.765 -0.746841 2.21234 0
M  V30 7868 C 721.746 -1.23502 1.16967 0
M  V30 7869 O 722.931 -1.28718 1.45414 0
M  V30 7870 C 720.061 -1.97407 2.8574 0
M  V30 7871 C 719.015 -1.62153 3.96094 0
M  V30 7872 C 718.341 -2.92387 4.47676 0
M  V30 7873 C 719.641 -0.845353 5.15413 0
M  V30 7874 H 721.335 -0.208116 2.98676 0
M  V30 7875 H 718.881 -0.0986594 1.43662 0
M  V30 7876 H 720.834 -2.62531 3.2963 0
M  V30 7877 H 719.558 -2.53703 2.05676 0
M  V30 7878 H 718.217 -0.993964 3.52868 0
M  V30 7879 H 717.865 -3.46734 3.64396 0
M  V30 7880 H 717.565 -2.69551 5.22127 0
M  V30 7881 H 719.089 -3.5853 4.94255 0
M  V30 7882 H 720.503 -1.39929 5.55961 0
M  V30 7883 H 718.9 -0.715814 5.95815 0
M  V30 7884 H 719.97 0.157239 4.84645 0
M  V30 7885 N 721.313 -1.57302 -0.09688 0
M  V30 7886 C 722.223 -2.05258 -1.13606 0
M  V30 7887 C 723.239 -0.977137 -1.43972 0
M  V30 7888 O 724.415 -1.29018 -1.54649 0
M  V30 7889 C 721.48 -2.46593 -2.43706 0
M  V30 7890 C 720.541 -3.68322 -2.20538 0
M  V30 7891 C 719.774 -4.07676 -3.44435 0
M  V30 7892 O 719.997 -3.47141 -4.52603 0
M  V30 7893 O 718.931 -5.00641 -3.34129 0
M  V30 7894 H 722.757 -2.94069 -0.758752 0
M  V30 7895 H 720.342 -1.46164 -0.309263 0
M  V30 7896 H 722.224 -2.73814 -3.20318 0
M  V30 7897 H 720.899 -1.6092 -2.80867 0
M  V30 7898 H 719.806 -3.4622 -1.41713 0
M  V30 7899 H 721.139 -4.54769 -1.88271 0
M  V30 7900 N 722.791 0.367657 -1.53252 0
M  V30 7901 C 723.721 1.45632 -1.8252 0
M  V30 7902 C 724.702 1.55979 -0.678568 0
M  V30 7903 O 725.887 1.70581 -0.928217 0
M  V30 7904 C 723.017 2.82994 -2.01325 0
M  V30 7905 C 721.971 2.87473 -3.17086 0
M  V30 7906 C 721.297 4.2749 -3.21179 0
M  V30 7907 C 722.597 2.55182 -4.55719 0
M  V30 7908 H 724.291 1.21387 -2.73689 0
M  V30 7909 H 721.837 0.58251 -1.31692 0
M  V30 7910 H 723.79 3.59179 -2.20383 0
M  V30 7911 H 722.514 3.08622 -1.06864 0
M  V30 7912 H 721.173 2.13739 -2.97844 0
M  V30 7913 H 720.821 4.5019 -2.24361 0
M  V30 7914 H 720.521 4.31403 -3.98955 0
M  V30 7915 H 722.045 5.0555 -3.42419 0
M  V30 7916 H 723.459 3.21081 -4.74953 0
M  V30 7917 H 721.856 2.70414 -5.3572 0
M  V30 7918 H 722.926 1.5044 -4.60973 0
M  V30 7919 N 724.269 1.44576 0.627338 0
M  V30 7920 C 725.179 1.54232 1.76776 0
M  V30 7921 C 726.195 0.427782 1.6866 0
M  V30 7922 O 727.371 0.685671 1.89369 0
M  V30 7923 C 724.436 1.48738 3.13174 0
M  V30 7924 C 723.497 2.71074 3.32893 0
M  V30 7925 C 722.73 2.65832 4.62784 0
M  V30 7926 O 722.953 1.72048 5.43834 0
M  V30 7927 O 721.887 3.56742 4.84787 0
M  V30 7928 H 725.713 2.50586 1.71582 0
M  V30 7929 H 723.298 1.26865 0.789028 0
M  V30 7930 H 725.18 1.48211 3.94476 0
M  V30 7931 H 723.855 0.555292 3.18902 0
M  V30 7932 H 722.762 2.77168 2.51254 0
M  V30 7933 H 724.095 3.63342 3.32029 0
M  V30 7934 N 725.747 -0.868086 1.31537 0
M  V30 7935 C 726.694 -1.97548 1.19346 0
M  V30 7936 C 727.664 -1.65913 0.0787922 0
M  V30 7937 O 728.849 -1.89129 0.251985 0
M  V30 7938 C 725.989 -3.32922 0.908692 0
M  V30 7939 C 725.102 -3.77141 2.10687 0
M  V30 7940 C 724.237 -5.01241 1.75873 0
M  V30 7941 C 723.276 -5.37914 2.92088 0
M  V30 7942 N 722.413 -6.53192 2.57457 0
M  V30 7943 H 727.253 -2.07307 2.14074 0
M  V30 7944 H 724.79 -1.01483 1.06487 0
M  V30 7945 H 726.748 -4.10867 0.724138 0
M  V30 7946 H 725.378 -3.228 -0.0017611 0
M  V30 7947 H 724.43 -2.94961 2.40213 0
M  V30 7948 H 725.742 -4.00248 2.97663 0
M  V30 7949 H 724.896 -5.86858 1.53891 0
M  V30 7950 H 723.635 -4.80041 0.86091 0
M  V30 7951 H 722.64 -4.50814 3.14717 0
M  V30 7952 H 723.865 -5.61077 3.82582 0
M  V30 7953 H 721.811 -6.33536 1.702 0
M  V30 7954 H 721.728 -6.76252 3.37963 0
M  V30 7955 H 722.996 -7.41997 2.38873 0
M  V30 7956 N 727.225 -1.14528 -1.08264 0
M  V30 7957 C 728.474 -0.908992 -1.80056 0
M  V30 7958 C 728.787 0.565859 -1.87236 0
M  V30 7959 O 729.993 0.919454 -2.55457 0
M  V30 7960 C 728.449 -1.57681 -3.23519 0
M  V30 7961 C 728.057 -3.08803 -3.24569 0
M  V30 7962 C 729.801 -1.4217 -3.99985 0
M  V30 7963 C 727.708 -3.68414 -4.62629 0
M  V30 7964 H 726.638 -0.336432 -0.674781 0
M  V30 7965 H 729.289 -1.37437 -1.21587 0
M  V30 7966 H 727.671 -1.03911 -3.82124 0
M  V30 7967 H 728.845 -3.69252 -2.75663 0
M  V30 7968 H 727.16 -3.23968 -2.61598 0
M  V30 7969 H 729.757 -1.84106 -5.02005 0
M  V30 7970 H 730.1 -0.367989 -4.1467 0
M  V30 7971 H 730.633 -1.92984 -3.47853 0
M  V30 7972 H 727.372 -4.73644 -4.53147 0
M  V30 7973 H 726.892 -3.12746 -5.11811 0
M  V30 7974 H 728.571 -3.68793 -5.31602 0
M  V30 7975 N 728.703 1.26451 -0.940633 0
M  V30 7976 C 729.635 2.25556 -0.407104 0
M  V30 7977 C 730.648 1.55888 0.469324 0
M  V30 7978 O 731.837 1.76292 0.279858 0
M  V30 7979 C 728.937 3.36109 0.434064 0
M  V30 7980 C 728.11 4.3532 -0.426082 0
M  V30 7981 C 727.169 5.25004 0.354563 0
M  V30 7982 O 726.195 5.68684 -0.242219 0
M  V30 7983 N 727.397 5.5652 1.65123 0
M  V30 7984 H 730.162 2.7197 -1.25907 0
M  V30 7985 H 727.723 1.40212 -0.809456 0
M  V30 7986 H 729.715 3.93059 0.963684 0
M  V30 7987 H 728.285 2.89194 1.18683 0
M  V30 7988 H 727.505 3.77449 -1.13692 0
M  V30 7989 H 728.793 4.986 -1.01366 0
M  V30 7990 H 728.191 5.22912 2.15822 0
M  V30 7991 H 726.748 6.16115 2.12711 0
M  V30 7992 N 730.181 0.707592 1.40822 0
M  V30 7993 C 731.458 0.171172 1.9485 0
M  V30 7994 C 731.838 -1.32143 1.64625 0
M  V30 7995 O 731.186 -2.07372 0.959647 0
M  V30 7996 C 731.396 0.475334 3.45748 0
M  V30 7997 C 732.744 0.409625 4.22619 0
M  V30 7998 O 733.768 0.410934 3.53822 0
M  V30 7999 O 732.627 0.380185 5.45176 0
M  V30 8000 H 729.721 0.022015 0.826707 0
M  V30 8001 H 732.267 0.784577 1.50474 0
M  V30 8002 H 731.039 1.50801 3.61075 0
M  V30 8003 H 730.662 -0.168439 3.97243 0
M  V30 8004 N 731.66 -1.50943 0.453197 0
M  V30 8005 C 732.89 -2.06328 -0.105981 0
M  V30 8006 C 733.298 -1.31909 -1.35634 0
M  V30 8007 O 732.641 -0.376607 -1.79798 0
M  V30 8008 C 732.703 -3.5631 -0.477868 0
M  V30 8009 C 732.367 -4.52093 0.667925 0
M  V30 8010 C 733.364 -4.96421 1.54475 0
M  V30 8011 C 731.049 -4.95001 0.853168 0
M  V30 8012 C 733.043 -5.82346 2.59138 0
M  V30 8013 C 730.73 -5.80713 1.90305 0
M  V30 8014 C 731.728 -6.24284 2.77053 0
M  V30 8015 O 731.416 -7.08291 3.80236 0
M  V30 8016 H 731.148 -0.675986 -0.00427247 0
M  V30 8017 H 733.702 -1.95314 0.635738 0
M  V30 8018 H 731.932 -3.65163 -1.27252 0
M  V30 8019 H 733.621 -3.94138 -0.970039 0
M  V30 8020 H 734.387 -4.63953 1.41324 0
M  V30 8021 H 730.266 -4.60619 0.187482 0
M  V30 8022 H 733.81 -6.16276 3.2688 0
M  V30 8023 H 729.707 -6.12593 2.03469 0
M  V30 8024 H 730.475 -7.26504 3.77007 0
M  V30 8025 N 733.138 -0.185124 -1.56509 0
M  V30 8026 C 734.048 0.751908 -2.22224 0
M  V30 8027 C 735.064 1.24244 -1.21817 0
M  V30 8028 O 736.24 1.29169 -1.54523 0
M  V30 8029 C 733.305 1.95837 -2.86092 0
M  V30 8030 C 732.366 1.51337 -4.01741 0
M  V30 8031 C 731.599 2.66233 -4.62554 0
M  V30 8032 O 731.822 3.8346 -4.22273 0
M  V30 8033 O 730.756 2.39517 -5.52191 0
M  V30 8034 H 734.582 0.222304 -3.02885 0
M  V30 8035 H 732.167 0.0437141 -1.49336 0
M  V30 8036 H 734.049 2.66368 -3.26536 0
M  V30 8037 H 732.724 2.47677 -2.08417 0
M  V30 8038 H 731.631 0.777155 -3.65939 0
M  V30 8039 H 732.964 1.04175 -4.81049 0
M  V30 8040 N 734.616 1.57351 0.0885366 0
M  V30 8041 C 735.563 2.02523 1.10693 0
M  V30 8042 C 736.533 0.902736 1.39427 0
M  V30 8043 O 737.718 1.16921 1.50779 0
M  V30 8044 C 734.858 2.46013 2.42016 0
M  V30 8045 C 733.971 3.7181 2.19957 0
M  V30 8046 C 733.106 4.04152 3.44724 0
M  V30 8047 C 732.145 5.2304 3.17956 0
M  V30 8048 N 731.282 5.51102 4.35007 0
M  V30 8049 H 736.122 2.89302 0.714742 0
M  V30 8050 H 733.659 1.43084 0.341378 0
M  V30 8051 H 735.617 2.69274 3.18665 0
M  V30 8052 H 734.247 1.62235 2.79069 0
M  V30 8053 H 733.299 3.55987 1.34079 0
M  V30 8054 H 734.611 4.58604 1.96173 0
M  V30 8055 H 733.765 4.28225 4.29777 0
M  V30 8056 H 732.504 3.15893 3.71568 0
M  V30 8057 H 731.509 4.98781 2.31296 0
M  V30 8058 H 732.734 6.12902 2.92451 0
M  V30 8059 H 730.68 4.65802 4.61914 0
M  V30 8060 H 730.597 6.3228 4.14437 0
M  V30 8061 H 731.865 5.79714 5.21106 0
M  V30 8062 N 736.094 -0.359525 1.53444 0
M  V30 8063 C 737.027 -1.46338 1.75101 0
M  V30 8064 C 738.005 -1.51142 0.599559 0
M  V30 8065 O 739.189 -1.69102 0.832862 0
M  V30 8066 C 736.316 -2.84667 1.83527 0
M  V30 8067 C 735.362 -2.9756 3.05549 0
M  V30 8068 S 736.195 -2.65685 4.64943 0
M  V30 8069 C 737.351 -4.06153 4.76225 0
M  V30 8070 H 737.584 -1.27747 2.68455 0
M  V30 8071 H 735.117 -0.554231 1.4411 0
M  V30 8072 H 737.075 -3.64368 1.89067 0
M  V30 8073 H 735.736 -3.00564 0.912147 0
M  V30 8074 H 734.929 -3.98883 3.08072 0
M  V30 8075 H 734.531 -2.25789 2.98153 0
M  V30 8076 H 736.823 -5.00475 4.56652 0
M  V30 8077 H 737.766 -4.08632 5.78295 0
M  V30 8078 H 738.174 -3.93435 4.04808 0
M  V30 8079 N 737.572 -1.44907 -0.619662 0
M  V30 8080 C 738.983 -1.42905 -1.20146 0
M  V30 8081 C 739.334 -0.150341 -1.95623 0
M  V30 8082 O 738.459 0.748732 -2.03034 0
M  V30 8083 C 739.054 -2.58889 -2.18545 0
M  V30 8084 C 737.613 -2.60046 -2.72127 0
M  V30 8085 C 736.76 -2.3493 -1.4732 0
M  V30 8086 H 739.711 -1.53321 -0.409666 0
M  V30 8087 H 739.732 -2.32298 -3.0136 0
M  V30 8088 H 739.244 -3.51941 -1.63583 0
M  V30 8089 H 737.345 -1.70968 -3.3106 0
M  V30 8090 H 737.458 -3.58893 -3.17384 0
M  V30 8091 H 735.822 -1.84248 -1.75855 0
M  V30 8092 H 736.605 -3.3011 -0.942442 0
M  V30 8093 N 739.05 0.861098 -1.31996 0
M  V30 8094 C 739.96 2.00154 -1.22374 0
M  V30 8095 C 740.976 1.73447 -0.138631 0
M  V30 8096 O 742.152 1.98191 -0.358104 0
M  V30 8097 C 739.217 3.33696 -0.940645 0
M  V30 8098 C 738.278 3.73668 -2.11355 0
M  V30 8099 C 737.511 5.00837 -1.84386 0
M  V30 8100 O 737.734 5.64996 -0.783287 0
M  V30 8101 O 736.668 5.37787 -2.70313 0
M  V30 8102 H 740.494 2.11207 -2.18233 0
M  V30 8103 H 738.079 0.990768 -1.11822 0
M  V30 8104 H 739.961 4.13756 -0.798987 0
M  V30 8105 H 738.636 3.23698 -0.0121636 0
M  V30 8106 H 737.543 2.94211 -2.31065 0
M  V30 8107 H 738.876 3.88303 -3.02459 0
M  V30 8108 N 740.528 1.15101 1.07655 0
M  V30 8109 C 741.753 0.948177 1.84457 0
M  V30 8110 C 742.178 -0.498432 1.81376 0
M  V30 8111 O 741.536 -1.35509 1.20445 0
M  V30 8112 C 741.584 1.46318 3.29581 0
M  V30 8113 O 740.688 0.660342 4.07079 0
M  V30 8114 H 740.029 0.338428 0.571281 0
M  V30 8115 H 742.559 1.5301 1.35828 0
M  V30 8116 H 742.569 1.47468 3.80417 0
M  V30 8117 H 741.244 2.51635 3.31138 0
M  V30 8118 H 739.821 0.718216 3.65918 0
M  V30 8119 N 742.006 -1.2595 0.947325 0
M  V30 8120 C 743.255 -1.92759 0.593887 0
M  V30 8121 C 743.568 -1.75083 -0.872093 0
M  V30 8122 O 744.774 -2.36401 -1.33518 0
M  V30 8123 C 743.23 -3.45395 1.01144 0
M  V30 8124 C 742.838 -3.71795 2.49946 0
M  V30 8125 C 744.582 -4.18173 0.730185 0
M  V30 8126 C 742.489 -5.17901 2.85539 0
M  V30 8127 H 741.419 -0.721676 0.218403 0
M  V30 8128 H 744.07 -1.4293 1.15079 0
M  V30 8129 H 742.452 -3.94143 0.383007 0
M  V30 8130 H 743.626 -3.33728 3.17746 0
M  V30 8131 H 741.941 -3.12263 2.75465 0
M  V30 8132 H 744.538 -5.25784 0.972367 0
M  V30 8133 H 744.881 -4.14964 -0.333223 0
M  V30 8134 H 745.414 -3.75309 1.31862 0
M  V30 8135 H 742.153 -5.26216 3.90867 0
M  V30 8136 H 741.673 -5.57042 2.22406 0
M  V30 8137 H 743.352 -5.8596 2.74336 0
M  V30 8138 N 743.484 -0.715051 -1.40445 0
M  V30 8139 C 744.431 -0.0621393 -2.30716 0
M  V30 8140 C 745.401 0.750871 -1.48159 0
M  V30 8141 O 746.586 0.714928 -1.76899 0
M  V30 8142 C 743.726 0.854036 -3.34365 0
M  V30 8143 C 742.839 0.0305565 -4.31989 0
M  V30 8144 C 741.974 0.946162 -5.22706 0
M  V30 8145 C 741.013 0.116741 -6.11989 0
M  V30 8146 N 740.15 0.987194 -6.95125 0
M  V30 8147 H 744.99 -0.83764 -2.85985 0
M  V30 8148 H 742.527 -0.424759 -1.40834 0
M  V30 8149 H 744.485 1.39946 -3.93028 0
M  V30 8150 H 743.115 1.59572 -2.806 0
M  V30 8151 H 742.167 -0.632044 -3.75112 0
M  V30 8152 H 743.479 -0.611615 -4.95036 0
M  V30 8153 H 742.633 1.56014 -5.86297 0
M  V30 8154 H 741.372 1.62216 -4.59932 0
M  V30 8155 H 740.377 -0.510176 -5.47428 0
M  V30 8156 H 741.602 -0.555742 -6.76822 0
M  V30 8157 H 739.548 1.64885 -6.3494 0
M  V30 8158 H 739.465 0.401046 -7.54936 0
M  V30 8159 H 740.733 1.58737 -7.63166 0
M  V30 8160 N 744.962 1.50701 -0.461195 0
M  V30 8161 C 746.209 2.02267 0.0971971 0
M  V30 8162 C 746.537 1.34387 1.40608 0
M  V30 8163 O 745.792 0.455254 1.90331 0
M  V30 8164 C 746.091 3.55788 0.33908 0
M  V30 8165 C 745.757 4.42092 -0.886885 0
M  V30 8166 C 744.419 4.65398 -1.22304 0
M  V30 8167 C 746.771 4.92571 -1.70361 0
M  V30 8168 C 744.099 5.36429 -2.37616 0
M  V30 8169 C 746.451 5.64868 -2.84793 0
M  V30 8170 C 745.115 5.86431 -3.18834 0
M  V30 8171 H 744.385 0.740146 0.0355669 0
M  V30 8172 H 747.032 1.81415 -0.61326 0
M  V30 8173 H 745.337 3.751 1.13168 0
M  V30 8174 H 747.034 3.93243 0.784937 0
M  V30 8175 H 743.624 4.24165 -0.614981 0
M  V30 8176 H 747.808 4.74428 -1.4571 0
M  V30 8177 H 743.064 5.51333 -2.64276 0
M  V30 8178 H 747.238 6.02966 -3.48432 0
M  V30 8179 H 744.865 6.41248 -4.08296 0
M  V30 8180 N 746.441 0.193421 1.56409 0
M  V30 8181 C 747.69 -0.445995 1.96707 0
M  V30 8182 C 748.003 -1.62876 1.08309 0
M  V30 8183 O 749.209 -2.33586 1.38383 0
M  V30 8184 C 747.665 -0.844863 3.49843 0
M  V30 8185 C 747.273 0.31352 4.46902 0
M  V30 8186 C 749.017 -1.45146 3.98915 0
M  V30 8187 C 746.924 -0.106214 5.91305 0
M  V30 8188 H 745.854 -0.170398 0.734493 0
M  V30 8189 H 748.505 0.285172 1.81271 0
M  V30 8190 H 746.887 -1.63265 3.60778 0
M  V30 8191 H 748.061 1.09103 4.47698 0
M  V30 8192 H 746.376 0.8315 4.08014 0
M  V30 8193 H 748.973 -1.77792 5.04276 0
M  V30 8194 H 749.316 -2.35734 3.43126 0
M  V30 8195 H 749.849 -0.727675 3.91088 0
M  V30 8196 H 746.588 0.765442 6.51016 0
M  V30 8197 H 746.108 -0.848623 5.93766 0
M  V30 8198 H 747.787 -0.542588 6.44721 0
M  V30 8199 N 747.919 -1.57396 -0.0801906 0
M  V30 8200 C 748.866 -2.03107 -1.09618 0
M  V30 8201 C 749.836 -0.910118 -1.38946 0
M  V30 8202 O 751.021 -1.17719 -1.50156 0
M  V30 8203 C 748.161 -2.47293 -2.40708 0
M  V30 8204 C 747.274 -3.72972 -2.17982 0
M  V30 8205 C 746.409 -4.05975 -3.42576 0
M  V30 8206 C 745.448 -5.24719 -3.15177 0
M  V30 8207 N 744.585 -5.53401 -4.32078 0
M  V30 8208 H 749.425 -2.89677 -0.69939 0
M  V30 8209 H 746.962 -1.43263 -0.333785 0
M  V30 8210 H 748.92 -2.7096 -3.17232 0
M  V30 8211 H 747.55 -1.63713 -2.78205 0
M  V30 8212 H 746.602 -3.56693 -1.32189 0
M  V30 8213 H 747.914 -4.59638 -1.93738 0
M  V30 8214 H 747.068 -4.30498 -4.275 0
M  V30 8215 H 745.807 -3.17859 -3.69887 0
M  V30 8216 H 744.812 -5 -2.28648 0
M  V30 8217 H 746.037 -6.14445 -2.89197 0
M  V30 8218 H 743.983 -4.68245 -4.59437 0
M  V30 8219 H 743.9 -6.34469 -4.11078 0
M  V30 8220 H 745.168 -5.8247 -5.18024 0
M  V30 8221 N 749.397 0.351382 -1.53633 0
M  V30 8222 C 750.329 1.45159 -1.77374 0
M  V30 8223 C 751.342 1.4905 -0.654826 0
M  V30 8224 O 752.531 1.52274 -0.931396 0
M  V30 8225 C 749.631 2.83858 -1.85143 0
M  V30 8226 C 748.804 3.03498 -3.14972 0
M  V30 8227 C 747.863 4.22393 -3.138 0
M  V30 8228 O 746.889 4.16885 -3.87551 0
M  V30 8229 N 748.091 5.30533 -2.35617 0
M  V30 8230 H 750.856 1.25167 -2.72311 0
M  V30 8231 H 748.417 0.54121 -1.52586 0
M  V30 8232 H 750.409 3.61557 -1.8182 0
M  V30 8233 H 748.979 2.9703 -0.974275 0
M  V30 8234 H 748.199 2.13336 -3.31484 0
M  V30 8235 H 749.487 3.13498 -4.00745 0
M  V30 8236 H 748.885 5.37875 -1.75235 0
M  V30 8237 H 747.442 6.06756 -2.38098 0
M  V30 8238 N 750.875 1.45233 0.611969 0
M  V30 8239 C 751.822 1.5357 1.72293 0
M  V30 8240 C 752.792 0.381912 1.6165 0
M  V30 8241 O 753.977 0.594765 1.81293 0
M  V30 8242 C 751.117 1.50419 3.10593 0
M  V30 8243 C 750.23 2.76316 3.32074 0
M  V30 8244 C 749.365 2.64866 4.60456 0
M  V30 8245 C 748.404 3.85838 4.7518 0
M  V30 8246 N 747.541 3.72949 5.94856 0
M  V30 8247 H 752.381 2.4848 1.64504 0
M  V30 8248 H 749.918 1.23302 0.802191 0
M  V30 8249 H 751.876 1.4658 3.90602 0
M  V30 8250 H 750.506 0.590621 3.17351 0
M  V30 8251 H 749.558 2.90261 2.45872 0
M  V30 8252 H 750.87 3.66055 3.38829 0
M  V30 8253 H 750.024 2.58969 5.48653 0
M  V30 8254 H 748.763 1.72719 4.56092 0
M  V30 8255 H 747.768 3.92099 3.85407 0
M  V30 8256 H 748.993 4.79045 4.81344 0
M  V30 8257 H 746.939 2.83567 5.91545 0
M  V30 8258 H 746.856 4.56319 6.02751 0
M  V30 8259 H 748.124 3.70976 6.85563 0
M  V30 8260 N 752.353 -0.854086 1.3245 0
M  V30 8261 C 753.303 -1.9508 1.18016 0
M  V30 8262 C 754.287 -1.60665 0.0869417 0
M  V30 8263 O 755.479 -1.74201 0.313505 0
M  V30 8264 C 752.608 -3.3113 0.905961 0
M  V30 8265 C 751.694 -3.71763 2.04091 0
M  V30 8266 N 752.085 -3.84218 3.28953 0
M  V30 8267 C 750.383 -4.01393 1.94421 0
M  V30 8268 C 751.084 -4.192 4.03294 0
M  V30 8269 N 750.06 -4.30749 3.31596 0
M  V30 8270 H 753.862 -2.02843 2.12678 0
M  V30 8271 H 751.376 -1.04588 1.24238 0
M  V30 8272 H 753.373 -4.09471 0.783508 0
M  V30 8273 H 752.033 -3.24684 -0.0322715 0
M  V30 8274 H 753.044 -3.68524 3.63883 0
M  V30 8275 H 749.721 -4.03246 1.08162 0
M  V30 8276 H 751.111 -4.36301 5.1097 0
M  V30 8277 N 753.831 -1.1567 -1.07043 0
M  V30 8278 C 755.079 -0.931673 -1.79344 0
M  V30 8279 C 755.4 0.542421 -1.87304 0
M  V30 8280 O 754.67 1.39418 -1.37621 0
M  V30 8281 H 753.25 -0.34171 -0.664262 0
M  V30 8282 H 755.912 -1.45795 -1.29344 0
M  V30 8283 H 755.008 -1.34379 -2.81689 0
M  V30 8284 N 755.309 1.25446 -0.953992 0
M  V30 8285 C 756.272 2.24156 -0.478179 0
M  V30 8286 C 757.272 1.55278 0.417776 0
M  V30 8287 O 758.462 1.72866 0.215155 0
M  V30 8288 C 755.594 3.39495 0.309202 0
M  V30 8289 H 756.787 2.67764 -1.35064 0
M  V30 8290 H 754.34 1.37822 -0.737206 0
M  V30 8291 H 755.075 3.01307 1.19936 0
M  V30 8292 H 754.86 3.90679 -0.333562 0
M  V30 8293 H 756.35 4.12796 0.631594 0
M  V30 8294 N 756.787 0.722489 1.40064 0
M  V30 8295 C 758.036 0.261932 1.99992 0
M  V30 8296 C 758.349 -1.15358 1.57961 0
M  V30 8297 O 759.555 -1.71301 2.10637 0
M  V30 8298 C 758.011 0.41737 3.57472 0
M  V30 8299 C 757.619 1.83997 4.08472 0
M  V30 8300 C 759.363 0.0179561 4.24496 0
M  V30 8301 C 757.27 1.94563 5.5848 0
M  V30 8302 H 756.2 0.0941768 0.748095 0
M  V30 8303 H 758.851 0.894572 1.60218 0
M  V30 8304 H 757.233 -0.283965 3.94981 0
M  V30 8305 H 758.407 2.57224 3.82325 0
M  V30 8306 H 756.722 2.19147 3.54067 0
M  V30 8307 H 759.319 0.076085 5.34646 0
M  V30 8308 H 759.662 -1.02498 4.03485 0
M  V30 8309 H 760.195 0.669988 3.92117 0
M  V30 8310 H 756.934 2.97001 5.84355 0
M  V30 8311 H 756.454 1.25756 5.86469 0
M  V30 8312 H 758.133 1.72095 6.23692 0
M  V30 8313 N 758.265 -1.50454 0.469181 0
M  V30 8314 C 759.681 -1.59124 0.123226 0
M  V30 8315 C 759.881 -1.47749 -1.37013 0
M  V30 8316 O 758.937 -1.335 -2.14322 0
M  V30 8317 C 760.25 -2.93101 0.67172 0
M  V30 8318 C 761.798 -3.06491 0.634978 0
M  V30 8319 C 762.273 -4.43041 1.16098 0
M  V30 8320 N 763.764 -4.49448 1.12031 0
M  V30 8321 C 764.499 -5.53491 1.49784 0
M  V30 8322 N 763.995 -6.64798 1.94976 0
M  V30 8323 N 765.788 -5.44025 1.41399 0
M  V30 8324 H 757.939 -1.56091 1.44046 0
M  V30 8325 H 760.202 -0.737564 0.59557 0
M  V30 8326 H 759.908 -3.06895 1.7178 0
M  V30 8327 H 759.782 -3.77027 0.114222 0
M  V30 8328 H 762.169 -2.92346 -0.402187 0
M  V30 8329 H 762.25 -2.24328 1.22926 0
M  V30 8330 H 761.894 -4.57935 2.19677 0
M  V30 8331 H 761.824 -5.23794 0.542939 0
M  V30 8332 H 764.315 -3.69575 0.788828 0
M  V30 8333 H 764.628 -7.40246 2.21936 0
M  V30 8334 H 762.973 -6.65923 1.98927 0
M  V30 8335 H 766.164 -4.55955 1.05935 0
M  V30 8336 H 766.337 -6.2499 1.71147 0
M  V30 8337 N 759.743 -0.201713 -1.56304 0
M  V30 8338 C 760.989 0.429292 -1.98818 0
M  V30 8339 C 761.344 1.58779 -1.08659 0
M  V30 8340 O 760.637 1.91142 -0.132365 0
M  V30 8341 C 760.831 0.931432 -3.45049 0
M  V30 8342 C 760.66 -0.176878 -4.49352 0
M  V30 8343 C 759.43 -0.636712 -5.01272 0
M  V30 8344 C 761.628 -0.988177 -5.04717 0
M  V30 8345 N 759.61 -1.72215 -5.8925 0
M  V30 8346 C 760.981 -1.92288 -5.89428 0
M  V30 8347 C 763.036 -1.02985 -4.87133 0
M  V30 8348 C 761.739 -2.89582 -6.58434 0
M  V30 8349 C 763.765 -1.99087 -5.56883 0
M  V30 8350 C 763.127 -2.913 -6.41345 0
M  V30 8351 H 759.226 0.124322 -0.772054 0
M  V30 8352 H 761.81 -0.308929 -1.92234 0
M  V30 8353 H 759.981 1.63907 -3.52121 0
M  V30 8354 H 761.713 1.5336 -3.74517 0
M  V30 8355 H 758.468 -0.228861 -4.73047 0
M  V30 8356 H 758.892 -2.26627 -6.37941 0
M  V30 8357 H 763.534 -0.330894 -4.21503 0
M  V30 8358 H 761.252 -3.6045 -7.23258 0
M  V30 8359 H 764.838 -2.0296 -5.45251 0
M  V30 8360 H 763.718 -3.6445 -6.94367 0
M  V30 8361 N 761.222 1.57436 0.0718424 0
M  V30 8362 C 762.447 1.91858 0.787745 0
M  V30 8363 C 762.872 0.798119 1.70328 0
M  V30 8364 O 762.23 -0.24905 1.79581 0
M  V30 8365 C 762.278 3.25232 1.55744 0
M  V30 8366 O 761.382 3.14462 2.6681 0
M  V30 8367 H 760.723 0.628258 0.214914 0
M  V30 8368 H 763.253 2.04561 0.0401012 0
M  V30 8369 H 763.263 3.59105 1.9367 0
M  V30 8370 H 761.938 4.0636 0.885691 0
M  V30 8371 H 760.515 2.92148 2.31741 0
M  V30 8372 N 762.7 -0.34323 1.53817 0
M  V30 8373 C 763.948 -1.0813 1.70741 0
M  V30 8374 C 764.269 -1.89165 0.473461 0
M  V30 8375 O 763.539 -1.89075 -0.512605 0
M  V30 8376 H 762.119 -0.40219 0.629486 0
M  V30 8377 H 764.781 -0.384426 1.91071 0
M  V30 8378 H 763.877 -1.7585 2.57843 0
M  V30 8379 N 764.178 -1.45556 -0.604258 0
M  V30 8380 C 765.455 -1.40221 -1.36373 0
M  V30 8381 C 765.835 -0.0745195 -2.10968 0
M  V30 8382 O 765.183 0.943594 -2.08107 0
M  V30 8383 C 765.393 -2.61807 -2.30777 0
M  V30 8384 C 766.741 -3.07037 -2.93281 0
M  V30 8385 O 767.765 -2.62203 -2.41097 0
M  V30 8386 O 766.624 -3.8485 -3.88011 0
M  V30 8387 H 763.718 -0.556602 -0.611656 0
M  V30 8388 H 766.264 -1.57689 -0.627069 0
M  V30 8389 H 765.036 -3.50017 -1.74939 0
M  V30 8390 H 764.659 -2.46688 -3.11818 0
M  V30 8391 N 765.656 0.84705 -1.32902 0
M  V30 8392 C 766.903 1.60176 -1.23894 0
M  V30 8393 C 767.231 1.93496 0.197341 0
M  V30 8394 O 766.486 1.58173 1.15238 0
M  V30 8395 C 766.785 2.92663 -2.05142 0
M  V30 8396 C 766.451 2.7874 -3.54422 0
M  V30 8397 C 765.113 2.7465 -3.95121 0
M  V30 8398 C 767.465 2.64128 -4.49317 0
M  V30 8399 C 764.793 2.53837 -5.28946 0
M  V30 8400 C 767.145 2.44849 -5.83294 0
M  V30 8401 C 765.809 2.39156 -6.23186 0
M  V30 8402 H 765.079 0.586127 -0.453361 0
M  V30 8403 H 767.726 0.981994 -1.64405 0
M  V30 8404 H 766.031 3.588 -1.57383 0
M  V30 8405 H 767.728 3.50095 -1.95537 0
M  V30 8406 H 764.318 2.82751 -3.22102 0
M  V30 8407 H 768.502 2.66327 -4.18788 0
M  V30 8408 H 763.758 2.4787 -5.58901 0
M  V30 8409 H 767.932 2.32524 -6.56434 0
M  V30 8410 H 765.559 2.22789 -7.26821 0
M  V30 8411 N 767.134 1.16236 1.06428 0
M  V30 8412 C 768.362 0.967184 1.82902 0
M  V30 8413 C 768.777 -0.484601 1.82475 0
M  V30 8414 O 768.134 -1.33631 1.24294 0
M  V30 8415 C 768.185 1.48534 3.29576 0
M  V30 8416 O 767.906 2.88026 3.3011 0
M  V30 8417 C 769.407 1.33298 4.22784 0
M  V30 8418 H 766.627 0.342923 0.576754 0
M  V30 8419 H 769.171 1.54232 1.34286 0
M  V30 8420 H 767.326 0.952513 3.75508 0
M  V30 8421 H 767.74 3.11721 4.21818 0
M  V30 8422 H 769.214 1.74385 5.23731 0
M  V30 8423 H 769.691 0.278356 4.38317 0
M  V30 8424 H 770.297 1.85535 3.82697 0
M  V30 8425 N 768.612 -1.24939 0.960631 0
M  V30 8426 C 769.544 -2.24879 0.442937 0
M  V30 8427 C 770.557 -1.56615 -0.444464 0
M  V30 8428 O 771.746 -1.76715 -0.251776 0
M  V30 8429 C 768.846 -3.36757 -0.380537 0
M  V30 8430 C 768.019 -4.34587 0.495283 0
M  V30 8431 C 767.078 -5.25502 -0.270995 0
M  V30 8432 O 766.104 -5.68227 0.332661 0
M  V30 8433 N 767.306 -5.59077 -1.56249 0
M  V30 8434 H 770.071 -2.69932 1.30218 0
M  V30 8435 H 767.632 -1.38907 0.83166 0
M  V30 8436 H 769.624 -3.94542 -0.90103 0
M  V30 8437 H 768.194 -2.91045 -1.14067 0
M  V30 8438 H 767.414 -3.75593 1.19682 0
M  V30 8439 H 768.702 -4.96925 1.09285 0
M  V30 8440 H 768.1 -5.2628 -2.07476 0
M  V30 8441 H 766.657 -6.19421 -2.02882 0
M  V30 8442 N 770.09 -0.729906 -1.39679 0
M  V30 8443 C 771.338 -0.275077 -2.00219 0
M  V30 8444 C 771.659 1.1401 -1.58199 0
M  V30 8445 O 770.929 1.77546 -0.827904 0
M  V30 8446 H 769.509 -0.0987127 -0.740449 0
M  V30 8447 H 772.171 -0.93873 -1.70804 0
M  V30 8448 H 771.267 -0.319446 -3.10461 0
M  V30 8449 N 771.568 1.50203 -0.477153 0
M  V30 8450 C 772.979 1.86685 -0.0235041 0
M  V30 8451 C 773.33 1.39148 1.38319 0
M  V30 8452 O 772.455 0.759051 2.02651 0
M  V30 8453 C 773.05 3.38781 -0.0358767 0
M  V30 8454 C 771.609 3.74652 0.362327 0
M  V30 8455 C 770.756 2.7412 -0.41875 0
M  V30 8456 H 773.707 1.4286 -0.691133 0
M  V30 8457 H 773.728 3.72732 0.764924 0
M  V30 8458 H 773.24 3.73349 -1.05981 0
M  V30 8459 H 771.341 3.45686 1.39039 0
M  V30 8460 H 771.454 4.79063 0.059457 0
M  V30 8461 H 769.818 2.54376 0.128341 0
M  V30 8462 H 770.601 3.11532 -1.44231 0
M  V30 8463 N 773.046 0.209999 1.56195 0
M  V30 8464 C 773.978 -0.736967 2.17029 0
M  V30 8465 C 774.991 -1.16599 1.13616 0
M  V30 8466 O 776.18 -1.09914 1.40646 0
M  V30 8467 C 773.28 -2.00852 2.72969 0
M  V30 8468 C 772.453 -1.73691 4.01435 0
M  V30 8469 C 771.512 -2.85439 4.42053 0
M  V30 8470 O 770.538 -2.54405 5.09183 0
M  V30 8471 N 771.74 -4.14135 4.06783 0
M  V30 8472 H 774.505 -0.216656 2.98916 0
M  V30 8473 H 772.066 0.0285672 1.61875 0
M  V30 8474 H 774.058 -2.74778 2.97118 0
M  V30 8475 H 772.628 -2.43963 1.95451 0
M  V30 8476 H 771.848 -0.834676 3.85262 0
M  V30 8477 H 773.136 -1.52961 4.85263 0
M  V30 8478 H 772.534 -4.42196 3.52816 0
M  V30 8479 H 771.091 -4.84642 4.35851 0
M  V30 8480 N 774.524 -1.57472 -0.0634922 0
M  V30 8481 C 775.749 -1.92273 -0.77756 0
M  V30 8482 C 776.174 -0.807141 -1.69902 0
M  V30 8483 O 775.532 0.239523 -1.79711 0
M  V30 8484 C 775.58 -3.26054 -1.54017 0
M  V30 8485 O 774.684 -3.15873 -2.65138 0
M  V30 8486 H 774.025 -0.629389 -0.211579 0
M  V30 8487 H 776.555 -2.04579 -0.0292523 0
M  V30 8488 H 776.565 -3.60127 -1.91763 0
M  V30 8489 H 775.24 -4.06824 -0.864128 0
M  V30 8490 H 773.817 -2.93373 -2.30189 0
M  V30 8491 N 776.003 0.335068 -1.53997 0
M  V30 8492 C 776.966 1.39481 -1.81872 0
M  V30 8493 C 777.966 1.4524 -0.690078 0
M  V30 8494 O 779.156 1.45467 -0.958377 0
M  V30 8495 C 776.288 2.78329 -1.9684 0
M  V30 8496 H 777.481 1.16024 -2.76547 0
M  V30 8497 H 775.034 0.569926 -1.45539 0
M  V30 8498 H 775.769 3.07058 -1.04337 0
M  V30 8499 H 775.554 2.75544 -2.78958 0
M  V30 8500 H 777.044 3.55016 -2.19894 0
M  V30 8501 N 777.481 1.45874 0.596531 0
M  V30 8502 C 778.428 1.55389 1.70655 0
M  V30 8503 C 779.398 0.399036 1.61236 0
M  V30 8504 O 780.583 0.61396 1.80652 0
M  V30 8505 C 777.723 1.53705 3.0898 0
M  V30 8506 C 776.836 2.79823 3.29125 0
M  V30 8507 C 775.971 2.69735 4.5762 0
M  V30 8508 C 775.01 3.90856 4.71061 0
M  V30 8509 N 774.147 3.79237 5.90867 0
M  V30 8510 H 778.987 2.50211 1.61859 0
M  V30 8511 H 776.524 1.24146 0.789069 0
M  V30 8512 H 778.482 1.50715 3.89026 0
M  V30 8513 H 777.112 0.624247 3.16706 0
M  V30 8514 H 776.164 2.92852 2.42779 0
M  V30 8515 H 777.476 3.69628 3.34927 0
M  V30 8516 H 776.63 2.64773 5.45875 0
M  V30 8517 H 775.369 1.77547 4.54234 0
M  V30 8518 H 774.374 3.96164 3.81227 0
M  V30 8519 H 775.599 4.84124 4.76236 0
M  V30 8520 H 773.545 2.89825 5.88504 0
M  V30 8521 H 773.462 4.62686 5.97877 0
M  V30 8522 H 774.73 3.78227 6.8159 0
M  V30 8523 N 778.959 -0.83999 1.33349 0
M  V30 8524 C 780.187 -1.62728 1.27778 0
M  V30 8525 C 780.602 -1.88191 -0.151505 0
M  V30 8526 O 779.959 -1.46128 -1.09329 0
M  V30 8527 C 780.01 -2.97813 2.04913 0
M  V30 8528 O 779.731 -2.73469 3.42266 0
M  V30 8529 C 781.232 -3.92245 2.0654 0
M  V30 8530 H 778.452 -0.506374 0.440257 0
M  V30 8531 H 780.996 -1.04637 1.75703 0
M  V30 8532 H 779.151 -3.52509 1.60674 0
M  V30 8533 H 779.565 -3.59483 3.81932 0
M  V30 8534 H 781.039 -4.84249 2.64966 0
M  V30 8535 H 781.516 -4.26332 1.05537 0
M  V30 8536 H 782.122 -3.43487 2.50793 0
M  V30 8537 N 780.437 -1.16799 -1.0581 0
M  V30 8538 C 781.853 -0.913935 -1.30841 0
M  V30 8539 C 782.053 0.430439 -1.96849 0
M  V30 8540 O 781.109 1.16885 -2.23817 0
M  V30 8541 C 782.422 -2.06662 -2.18429 0
M  V30 8542 C 783.97 -2.10294 -2.31831 0
M  V30 8543 C 784.445 -3.2493 -3.22776 0
M  V30 8544 N 785.936 -3.24678 -3.30361 0
M  V30 8545 C 786.671 -4.10021 -4.00837 0
M  V30 8546 N 786.167 -5.05461 -4.73795 0
M  V30 8547 N 787.96 -3.97991 -3.96937 0
M  V30 8548 H 780.111 -2.03343 -0.613613 0
M  V30 8549 H 782.374 -0.88754 -0.333133 0
M  V30 8550 H 782.08 -3.03791 -1.77211 0
M  V30 8551 H 781.954 -2.01233 -3.19038 0
M  V30 8552 H 784.341 -1.13754 -2.72294 0
M  V30 8553 H 784.422 -2.19786 -1.30873 0
M  V30 8554 H 784.066 -4.21731 -2.83028 0
M  V30 8555 H 783.996 -3.12674 -4.23725 0
M  V30 8556 H 786.487 -2.55573 -2.78372 0
M  V30 8557 H 786.8 -5.66989 -5.25113 0
M  V30 8558 H 785.145 -5.09436 -4.72758 0
M  V30 8559 H 788.336 -3.2273 -3.39062 0
M  V30 8560 H 788.509 -4.64722 -4.51594 0
M  V30 8561 N 781.915 1.24427 -0.967243 0
M  V30 8562 C 783.162 1.92487 -0.62888 0
M  V30 8563 C 783.49 1.75623 0.835871 0
M  V30 8564 O 782.745 1.1027 1.61675 0
M  V30 8565 C 783.044 3.44568 -0.949096 0
M  V30 8566 C 782.71 3.816 -2.40192 0
M  V30 8567 C 781.372 3.9142 -2.799 0
M  V30 8568 C 783.724 3.99715 -3.34481 0
M  V30 8569 C 781.052 4.16771 -4.12939 0
M  V30 8570 C 783.404 4.26562 -4.67148 0
M  V30 8571 C 782.068 4.34601 -5.06634 0
M  V30 8572 H 781.338 0.704361 -0.230124 0
M  V30 8573 H 783.985 1.4772 -1.21864 0
M  V30 8574 H 782.29 3.90819 -0.277085 0
M  V30 8575 H 783.987 3.95436 -0.665692 0
M  V30 8576 H 780.577 3.74522 -2.08402 0
M  V30 8577 H 784.761 3.91531 -3.04987 0
M  V30 8578 H 780.017 4.21214 -4.43158 0
M  V30 8579 H 784.191 4.39523 -5.40178 0
M  V30 8580 H 781.818 4.53998 -6.09746 0
M  V30 8581 N 783.393 0.737304 1.3929 0
M  V30 8582 C 784.639 0.295581 2.01241 0
M  V30 8583 C 784.994 -1.10561 1.57461 0
M  V30 8584 O 784.287 -1.74346 0.7946 0
M  V30 8585 C 784.481 0.338438 3.55794 0
M  V30 8586 C 784.31 1.74225 4.14579 0
M  V30 8587 C 783.08 2.35502 4.47065 0
M  V30 8588 C 785.278 2.69623 4.37959 0
M  V30 8589 N 783.26 3.68014 4.91365 0
M  V30 8590 C 784.631 3.86873 4.84489 0
M  V30 8591 C 786.686 2.67355 4.2003 0
M  V30 8592 C 785.389 5.02193 5.14971 0
M  V30 8593 C 787.415 3.8182 4.51627 0
M  V30 8594 C 786.777 4.97806 4.98366 0
M  V30 8595 H 782.876 0.154468 0.766592 0
M  V30 8596 H 785.46 0.963768 1.69173 0
M  V30 8597 H 783.631 -0.299406 3.87244 0
M  V30 8598 H 785.363 -0.122053 4.04516 0
M  V30 8599 H 782.118 1.87406 4.34943 0
M  V30 8600 H 782.542 4.36051 5.17869 0
M  V30 8601 H 787.184 1.78876 3.83097 0
M  V30 8602 H 784.902 5.913 5.50809 0
M  V30 8603 H 788.488 3.81366 4.39376 0
M  V30 8604 H 787.368 5.84909 5.22351 0
M  V30 8605 N 784.871 -1.49948 0.485112 0
M  V30 8606 C 785.818 -2.28819 -0.301729 0
M  V30 8607 C 786.788 -1.34496 -0.974683 0
M  V30 8608 O 787.973 -1.63444 -0.984418 0
M  V30 8609 C 785.113 -3.16758 -1.36961 0
M  V30 8610 C 784.226 -4.26125 -0.710027 0
M  V30 8611 C 783.361 -5.01302 -1.75699 0
M  V30 8612 C 782.4 -6.02525 -1.07841 0
M  V30 8613 N 781.537 -6.70927 -2.06886 0
M  V30 8614 H 786.377 -2.95604 0.377127 0
M  V30 8615 H 783.914 -1.45764 0.197826 0
M  V30 8616 H 785.872 -3.66106 -2.00056 0
M  V30 8617 H 784.502 -2.51991 -2.01744 0
M  V30 8618 H 783.554 -3.80385 0.0338278 0
M  V30 8619 H 784.866 -4.98493 -0.175079 0
M  V30 8620 H 784.02 -5.54438 -2.46339 0
M  V30 8621 H 782.759 -4.28672 -2.32577 0
M  V30 8622 H 781.764 -5.48635 -0.357706 0
M  V30 8623 H 782.989 -6.77134 -0.516345 0
M  V30 8624 H 780.935 -6.01079 -2.62755 0
M  V30 8625 H 780.852 -7.39216 -1.58414 0
M  V30 8626 H 782.12 -7.28675 -2.76863 0
M  V30 8627 N 786.349 -0.21828 -1.56081 0
M  V30 8628 C 787.297 0.709679 -2.21509 0
M  V30 8629 C 788.291 1.20221 -1.19346 0
M  V30 8630 O 789.497 1.16241 -1.37433 0
M  V30 8631 H 785.872 0.247271 -0.710184 0
M  V30 8632 H 787.843 0.134386 -2.98097 0
M  V30 8633 C 786.592 1.90853 -2.90638 0
M  V30 8634 H 785.915 1.53865 -3.69006 0
M  V30 8635 H 787.355 2.53568 -3.39822 0
M  V30 8636 C 785.814 2.76189 -1.92929 0
M  V30 8637 O 786.344 3.74842 -1.44416 0
M  V30 8638 N 784.55 2.42157 -1.6065 0
M  V30 8639 H 784.097 1.61987 -2.00294 0
M  V30 8640 H 784.055 2.99534 -0.955347 0
M  V30 8641 N 787.827 1.57504 0.0551401 0
M  V30 8642 C 789.073 1.88334 0.752216 0
M  V30 8643 C 789.406 0.812742 1.76375 0
M  V30 8644 O 788.681 -0.175198 1.93709 0
M  V30 8645 C 788.964 3.29824 1.44528 0
M  V30 8646 C 788.817 4.47553 0.449026 0
M  V30 8647 C 790.136 3.69808 2.38601 0
M  V30 8648 H 787.255 0.684973 0.271995 0
M  V30 8649 H 789.897 1.89994 0.0151895 0
M  V30 8650 H 788.047 3.28539 2.07351 0
M  V30 8651 H 789.719 4.60967 -0.175277 0
M  V30 8652 H 787.962 4.33168 -0.234162 0
M  V30 8653 H 788.633 5.43376 0.971917 0
M  V30 8654 H 791.109 3.72293 1.85842 0
M  V30 8655 H 789.985 4.69665 2.84088 0
M  V30 8656 H 790.246 3.00641 3.24141 0
M  V30 8657 N 789.305 -0.326896 1.54172 0
M  V30 8658 C 790.721 -0.671034 1.44808 0
M  V30 8659 C 790.921 -1.91781 0.618258 0
M  V30 8660 O 789.977 -2.52235 0.115751 0
M  V30 8661 C 791.29 -0.848147 2.88491 0
M  V30 8662 C 792.838 -0.945702 2.98371 0
M  V30 8663 C 793.313 -1.15501 4.43197 0
M  V30 8664 N 794.804 -1.22183 4.46795 0
M  V30 8665 C 795.539 -1.4016 5.56006 0
M  V30 8666 N 795.035 -1.55202 6.75192 0
M  V30 8667 N 796.828 -1.42841 5.43648 0
M  V30 8668 H 788.979 0.49262 2.06608 0
M  V30 8669 H 791.242 0.158574 0.934643 0
M  V30 8670 H 790.948 -0.00329969 3.517 0
M  V30 8671 H 790.822 -1.74497 3.34411 0
M  V30 8672 H 793.209 -1.78106 2.35292 0
M  V30 8673 H 793.29 -0.0254215 2.55787 0
M  V30 8674 H 792.934 -0.324521 5.06862 0
M  V30 8675 H 792.864 -2.08911 4.83388 0
M  V30 8676 H 795.355 -1.12016 3.60917 0
M  V30 8677 H 795.668 -1.68601 7.54184 0
M  V30 8678 H 794.013 -1.52306 6.78106 0
M  V30 8679 H 797.204 -1.30683 4.49488 0
M  V30 8680 H 797.377 -1.56509 6.28816 0
M  V30 8681 N 790.784 -1.46188 -0.588786 0
M  V30 8682 C 792.014 -1.54519 -1.3714 0
M  V30 8683 C 792.422 -0.183075 -1.88312 0
M  V30 8684 O 791.765 0.828815 -1.6394 0
M  V30 8685 C 791.827 -2.48426 -2.59856 0
M  V30 8686 C 791.491 -3.94791 -2.30193 0
M  V30 8687 C 792.488 -4.84173 -1.894 0
M  V30 8688 C 790.173 -4.39872 -2.42525 0
M  V30 8689 C 792.167 -6.16647 -1.61325 0
M  V30 8690 C 789.854 -5.72381 -2.14063 0
M  V30 8691 C 790.852 -6.60589 -1.73527 0
M  V30 8692 O 790.54 -7.9064 -1.4541 0
M  V30 8693 H 790.272 -0.525264 -0.425527 0
M  V30 8694 H 792.826 -1.92242 -0.723344 0
M  V30 8695 H 791.056 -2.05709 -3.27446 0
M  V30 8696 H 792.745 -2.4723 -3.21919 0
M  V30 8697 H 793.511 -4.50603 -1.79393 0
M  V30 8698 H 789.39 -3.71444 -2.7304 0
M  V30 8699 H 792.934 -6.85454 -1.29611 0
M  V30 8700 H 788.831 -6.05501 -2.23693 0
M  V30 8701 H 789.599 -8.02847 -1.59306 0
M  V30 8702 N 792.262 0.832906 -1.33792 0
M  V30 8703 C 793.212 1.93178 -1.21105 0
M  V30 8704 C 794.196 1.60506 -0.112491 0
M  V30 8705 O 795.388 1.73681 -0.341179 0
M  V30 8706 C 792.517 3.29647 -0.958526 0
M  V30 8707 C 791.603 3.68469 -2.0998 0
M  V30 8708 N 791.994 3.78936 -3.35024 0
M  V30 8709 C 790.292 3.98249 -2.00782 0
M  V30 8710 C 790.993 4.12731 -4.09912 0
M  V30 8711 N 789.969 4.25419 -3.38407 0
M  V30 8712 H 793.771 1.99434 -2.15878 0
M  V30 8713 H 791.285 1.02598 -1.25886 0
M  V30 8714 H 793.282 4.08173 -0.848552 0
M  V30 8715 H 791.942 3.24694 -0.019387 0
M  V30 8716 H 792.953 3.62688 -3.69699 0
M  V30 8717 H 789.63 4.01474 -1.14564 0
M  V30 8718 H 791.02 4.28117 -5.17847 0
M  V30 8719 N 793.74 1.17359 1.05189 0
M  V30 8720 C 794.673 0.833768 2.12423 0
M  V30 8721 C 795.651 -0.19945 1.61372 0
M  V30 8722 O 796.835 -0.080979 1.88326 0
M  V30 8723 C 793.962 0.243745 3.37822 0
M  V30 8724 C 793.008 1.25235 4.07699 0
M  V30 8725 S 793.841 2.80368 4.56239 0
M  V30 8726 C 794.997 2.22846 5.84885 0
M  V30 8727 H 795.23 1.74197 2.40921 0
M  V30 8728 H 792.763 0.998242 1.1779 0
M  V30 8729 H 794.721 -0.0901915 4.10401 0
M  V30 8730 H 793.382 -0.642396 3.07461 0
M  V30 8731 H 792.575 0.788168 4.97799 0
M  V30 8732 H 792.177 1.53194 3.41185 0
M  V30 8733 H 794.469 1.60403 6.58238 0
M  V30 8734 H 795.412 3.112 6.3605 0
M  V30 8735 H 795.82 1.66296 5.39449 0
M  V30 8736 N 795.218 -1.23913 0.973828 0
M  V30 8737 C 796.629 -1.73992 0.677021 0
M  V30 8738 C 796.98 -1.78833 -0.807036 0
M  V30 8739 O 796.105 -1.42183 -1.63135 0
M  V30 8740 C 796.7 -3.15985 1.22226 0
M  V30 8741 C 795.259 -3.63547 0.975228 0
M  V30 8742 C 794.406 -2.42001 1.35392 0
M  V30 8743 H 797.357 -1.09529 1.14844 0
M  V30 8744 H 797.378 -3.75875 0.591489 0
M  V30 8745 H 796.89 -3.12429 2.30238 0
M  V30 8746 H 794.991 -3.72493 -0.0891047 0
M  V30 8747 H 795.104 -4.50693 1.62518 0
M  V30 8748 H 793.468 -2.42708 0.772334 0
M  V30 8749 H 794.251 -2.41122 2.44367 0
M  V30 8750 N 796.696 -0.74468 -1.38897 0
M  V30 8751 C 797.942 -0.297324 -2.00609 0
M  V30 8752 C 798.275 1.11547 -1.58968 0
M  V30 8753 O 797.55 1.76227 -0.823057 0
M  V30 8754 C 797.833 -0.410125 -3.57757 0
M  V30 8755 C 797.686 -1.86338 -4.09387 0
M  V30 8756 C 799.005 0.20176 -4.39637 0
M  V30 8757 H 796.124 -0.109509 -0.728819 0
M  V30 8758 H 798.766 -0.942653 -1.64967 0
M  V30 8759 H 796.916 0.139287 -3.8825 0
M  V30 8760 H 798.588 -2.47042 -3.89574 0
M  V30 8761 H 796.831 -2.38146 -3.62586 0
M  V30 8762 H 797.502 -1.89352 -5.18507 0
M  V30 8763 H 799.978 -0.266703 -4.15244 0
M  V30 8764 H 798.854 0.0925415 -5.48822 0
M  V30 8765 H 799.115 1.289 -4.22891 0
M  V30 8766 N 798.174 1.49689 -0.493057 0
M  V30 8767 C 799.106 2.26867 0.326195 0
M  V30 8768 C 800.119 1.33083 0.937697 0
M  V30 8769 O 801.308 1.58427 0.822382 0
M  V30 8770 C 798.408 3.0519 1.4735 0
M  V30 8771 C 797.581 4.26491 0.970767 0
M  V30 8772 C 796.64 4.86926 1.99473 0
M  V30 8773 O 795.666 5.47221 1.56647 0
M  V30 8774 N 796.868 4.75871 3.32456 0
M  V30 8775 H 799.633 2.97816 -0.335547 0
M  V30 8776 H 797.194 1.58602 -0.325129 0
M  V30 8777 H 799.186 3.42496 2.15589 0
M  V30 8778 H 797.756 2.369 2.03954 0
M  V30 8779 H 796.976 3.94036 0.113529 0
M  V30 8780 H 798.264 5.05092 0.613156 0
M  V30 8781 H 797.662 4.2797 3.69944 0
M  V30 8782 H 796.219 5.17383 3.96431 0
M  V30 8783 N 799.652 0.226554 1.55963 0
M  V30 8784 C 801.068 -0.128733 1.5908 0
M  V30 8785 C 801.268 -1.58558 1.24345 0
M  V30 8786 O 800.324 -2.32661 0.981069 0
M  V30 8787 C 801.637 0.202076 3.0002 0
M  V30 8788 C 803.185 0.144718 3.12665 0
M  V30 8789 C 803.66 0.449272 4.55791 0
M  V30 8790 N 805.151 0.399026 4.61478 0
M  V30 8791 C 805.886 0.608106 5.70166 0
M  V30 8792 N 805.382 0.879227 6.87198 0
M  V30 8793 N 807.175 0.5402 5.59498 0
M  V30 8794 H 799.326 1.17686 1.76816 0
M  V30 8795 H 801.589 0.472072 0.822102 0
M  V30 8796 H 801.295 1.21341 3.30105 0
M  V30 8797 H 801.169 -0.480554 3.74126 0
M  V30 8798 H 803.556 -0.857261 2.82374 0
M  V30 8799 H 803.637 0.860899 2.40878 0
M  V30 8800 H 803.281 1.44871 4.86801 0
M  V30 8801 H 803.211 -0.288157 5.25811 0
M  V30 8802 H 805.702 0.197372 3.77384 0
M  V30 8803 H 806.015 1.02673 7.65949 0
M  V30 8804 H 804.36 0.916477 6.88931 0
M  V30 8805 H 807.551 0.328581 4.66945 0
M  V30 8806 H 807.724 0.706548 6.44137 0
M  V30 8807 N 801.13 -1.57531 -0.0467866 0
M  V30 8808 C 802.546 -1.54451 -0.402107 0
M  V30 8809 C 802.746 -0.950275 -1.77685 0
M  V30 8810 O 801.802 -0.563602 -2.4613 0
M  V30 8811 C 803.115 -2.9899 -0.320212 0
M  V30 8812 C 804.663 -3.10452 -0.398588 0
M  V30 8813 C 805.138 -4.56689 -0.346335 0
M  V30 8814 N 806.629 -4.6142 -0.405666 0
M  V30 8815 C 807.364 -5.72087 -0.387845 0
M  V30 8816 N 806.86 -6.92045 -0.32336 0
M  V30 8817 N 808.653 -5.60404 -0.436263 0
M  V30 8818 H 800.804 -1.94515 0.853087 0
M  V30 8819 H 803.067 -0.891397 0.322669 0
M  V30 8820 H 802.773 -3.46124 0.623794 0
M  V30 8821 H 802.647 -3.60164 -1.1208 0
M  V30 8822 H 805.034 -2.63276 -1.33302 0
M  V30 8823 H 805.115 -2.52142 0.431026 0
M  V30 8824 H 804.759 -5.04527 0.584356 0
M  V30 8825 H 804.689 -5.12889 -1.19382 0
M  V30 8826 H 807.18 -3.75105 -0.458737 0
M  V30 8827 H 807.493 -7.7216 -0.314375 0
M  V30 8828 H 805.838 -6.94396 -0.28967 0
M  V30 8829 H 809.029 -4.65586 -0.48451 0
M  V30 8830 H 809.202 -6.46645 -0.418907 0
M  V30 8831 N 802.608 0.318715 -1.54344 0
M  V30 8832 C 803.833 1.07987 -1.77069 0
M  V30 8833 C 804.258 1.80766 -0.520117 0
M  V30 8834 O 803.616 1.73424 0.528566 0
M  V30 8835 C 803.664 2.04987 -2.96669 0
M  V30 8836 O 802.768 3.12974 -2.68554 0
M  V30 8837 H 802.109 0.311109 -0.586606 0
M  V30 8838 H 804.639 0.361533 -2.0138 0
M  V30 8839 H 804.649 2.47771 -3.2415 0
M  V30 8840 H 803.324 1.51417 -3.87357 0
M  V30 8841 H 801.901 2.74831 -2.52037 0
M  V30 8842 N 804.086 1.46499 0.581025 0
M  V30 8843 C 805.497 1.4604 1.16315 0
M  V30 8844 C 805.848 0.202154 1.95156 0
M  V30 8845 O 804.973 -0.694638 2.04948 0
M  V30 8846 C 805.568 2.64593 2.11604 0
M  V30 8847 C 804.127 2.6717 2.65136 0
M  V30 8848 C 803.274 2.38753 1.4104 0
M  V30 8849 H 806.225 1.54354 0.368871 0
M  V30 8850 H 806.246 2.40207 2.95095 0
M  V30 8851 H 805.758 3.56154 1.54194 0
M  V30 8852 H 803.859 1.79685 3.26411 0
M  V30 8853 H 803.972 3.67182 3.07757 0
M  V30 8854 H 802.336 1.88845 1.70908 0
M  V30 8855 H 803.119 3.32493 0.854588 0
M  V30 8856 N 805.565 -0.825799 1.34232 0
M  V30 8857 C 806.79 -1.61883 1.29648 0
M  V30 8858 C 807.215 -1.87669 -0.127295 0
M  V30 8859 O 806.573 -1.45016 -1.08813 0
M  V30 8860 C 806.621 -2.93846 2.09014 0
M  V30 8861 O 805.725 -3.85778 1.4577 0
M  V30 8862 H 805.066 -0.492454 0.445405 0
M  V30 8863 H 807.596 -1.02641 1.76992 0
M  V30 8864 H 807.606 -3.43435 2.20264 0
M  V30 8865 H 806.281 -2.74401 3.12533 0
M  V30 8866 H 804.858 -3.4429 1.43245 0
M  V30 8867 N 807.043 -1.17915 -1.04565 0
M  V30 8868 C 808.268 -0.996749 -1.81878 0
M  V30 8869 C 808.693 0.450169 -1.82634 0
M  V30 8870 O 808.051 1.32268 -1.23995 0
M  V30 8871 C 808.099 -1.55005 -3.25585 0
M  V30 8872 O 807.203 -0.76804 -4.05185 0
M  V30 8873 H 806.544 -0.353456 -0.562108 0
M  V30 8874 H 809.074 -1.56557 -1.31723 0
M  V30 8875 H 809.084 -1.57503 -3.76373 0
M  V30 8876 H 807.759 -2.60327 -3.2435 0
M  V30 8877 H 806.336 -0.81498 -3.63885 0
M  V30 8878 N 808.521 1.23394 -0.980386 0
M  V30 8879 C 809.468 2.24859 -0.520298 0
M  V30 8880 C 810.438 1.60144 0.440821 0
M  V30 8881 O 811.623 1.87593 0.348369 0
M  V30 8882 C 808.763 3.44675 0.171145 0
M  V30 8883 C 807.876 4.23947 -0.830233 0
M  V30 8884 C 807.011 5.31079 -0.113597 0
M  V30 8885 C 806.05 6.02058 -1.10419 0
M  V30 8886 N 805.187 7.00862 -0.416709 0
M  V30 8887 H 810.027 2.63579 -1.39032 0
M  V30 8888 H 807.564 1.29556 -0.696682 0
M  V30 8889 H 809.522 4.13024 0.588838 0
M  V30 8890 H 808.152 3.06755 1.00504 0
M  V30 8891 H 807.204 3.55016 -1.36631 0
M  V30 8892 H 808.516 4.72945 -1.58508 0
M  V30 8893 H 807.67 6.05622 0.36146 0
M  V30 8894 H 806.409 4.83022 0.673854 0
M  V30 8895 H 805.414 5.26307 -1.59 0
M  V30 8896 H 806.639 6.52203 -1.8923 0
M  V30 8897 H 804.585 6.55057 0.351535 0
M  V30 8898 H 804.502 7.47804 -1.11021 0
M  V30 8899 H 805.77 7.79492 0.0359606 0
M  V30 8900 N 809.999 0.752036 1.385 0
M  V30 8901 C 810.949 0.0990189 2.27785 0
M  V30 8902 C 811.933 -0.694867 1.45122 0
M  V30 8903 O 813.125 -0.561077 1.67872 0
M  V30 8904 C 810.254 -0.794531 3.33979 0
M  V30 8905 C 809.34 0.00611984 4.241 0
M  V30 8906 N 809.731 1.04174 4.94956 0
M  V30 8907 C 808.029 -0.220934 4.45452 0
M  V30 8908 C 808.73 1.52601 5.61327 0
M  V30 8909 N 807.706 0.84159 5.37046 0
M  V30 8910 H 811.508 0.892208 2.8003 0
M  V30 8911 H 809.022 0.587934 1.51384 0
M  V30 8912 H 811.019 -1.27797 3.96829 0
M  V30 8913 H 809.679 -1.58669 2.83292 0
M  V30 8914 H 810.69 1.42349 4.97953 0
M  V30 8915 H 807.367 -0.986556 4.05676 0
M  V30 8916 H 808.757 2.38857 6.2801 0
M  V30 8917 N 811.477 -1.49425 0.500989 0
M  V30 8918 C 812.409 -2.27037 -0.314159 0
M  V30 8919 C 813.422 -1.33578 -0.930626 0
M  V30 8920 O 814.611 -1.58861 -0.813968 0
M  V30 8921 C 811.711 -3.05968 -1.45729 0
M  V30 8922 C 810.884 -4.27 -0.948135 0
M  V30 8923 C 809.943 -4.87977 -1.96888 0
M  V30 8924 O 808.969 -5.48044 -1.53743 0
M  V30 8925 N 810.171 -4.77627 -3.29928 0
M  V30 8926 H 812.936 -2.97634 0.351336 0
M  V30 8927 H 810.497 -1.58427 0.333536 0
M  V30 8928 H 812.489 -3.43634 -2.1377 0
M  V30 8929 H 811.059 -2.37978 -2.02695 0
M  V30 8930 H 810.279 -3.94091 -0.0926311 0
M  V30 8931 H 811.567 -5.0541 -0.586362 0
M  V30 8932 H 810.965 -4.29926 -3.67669 0
M  V30 8933 H 809.522 -5.19478 -3.93682 0
M  V30 8934 N 812.955 -0.234822 -1.55841 0
M  V30 8935 C 813.885 0.664217 -2.23854 0
M  V30 8936 C 814.866 1.19076 -1.2147 0
M  V30 8937 O 816.051 1.23232 -1.50091 0
M  V30 8938 C 813.181 1.86666 -2.9287 0
M  V30 8939 C 812.135 1.47341 -4.01839 0
M  V30 8940 C 811.461 2.75571 -4.58219 0
M  V30 8941 C 812.761 0.653479 -5.18196 0
M  V30 8942 H 814.455 0.0971213 -2.99242 0
M  V30 8943 H 812.001 0.0452724 -1.43929 0
M  V30 8944 H 813.954 2.50116 -3.39146 0
M  V30 8945 H 812.678 2.45894 -2.1495 0
M  V30 8946 H 811.337 0.862314 -3.56314 0
M  V30 8947 H 810.985 3.32971 -3.77014 0
M  V30 8948 H 810.685 2.49987 -5.31771 0
M  V30 8949 H 812.209 3.39939 -5.07221 0
M  V30 8950 H 813.623 1.19198 -5.60771 0
M  V30 8951 H 812.02 0.494188 -5.98062 0
M  V30 8952 H 813.09 -0.337004 -4.83728 0
M  V30 8953 N 814.433 1.57553 0.0384317 0
M  V30 8954 C 815.363 2.0898 1.04161 0
M  V30 8955 C 816.344 0.99029 1.38301 0
M  V30 8956 O 817.529 1.26499 1.47349 0
M  V30 8957 C 814.659 2.56145 2.34536 0
M  V30 8958 C 813.613 3.70275 2.14663 0
M  V30 8959 C 812.939 4.03612 3.50715 0
M  V30 8960 C 814.239 4.99067 1.54045 0
M  V30 8961 H 815.933 2.93046 0.613548 0
M  V30 8962 H 813.479 1.40973 0.293684 0
M  V30 8963 H 815.432 2.90741 3.05037 0
M  V30 8964 H 814.156 1.6915 2.79385 0
M  V30 8965 H 812.815 3.36013 1.46597 0
M  V30 8966 H 812.463 3.13698 3.93195 0
M  V30 8967 H 812.163 4.80482 3.38247 0
M  V30 8968 H 813.687 4.40735 4.22593 0
M  V30 8969 H 815.101 5.3168 2.14451 0
M  V30 8970 H 813.498 5.80484 1.52178 0
M  V30 8971 H 814.568 4.8226 0.505259 0
M  V30 8972 N 815.911 -0.310526 1.54511 0
M  V30 8973 C 817.136 -1.07046 1.7764 0
M  V30 8974 C 817.561 -1.80488 0.529696 0
M  V30 8975 O 816.919 -1.73702 -0.519361 0
M  V30 8976 C 816.967 -2.03411 2.97752 0
M  V30 8977 O 816.071 -3.11545 2.7021 0
M  V30 8978 H 815.412 -0.307994 0.588248 0
M  V30 8979 H 817.942 -0.350848 2.01569 0
M  V30 8980 H 817.952 -2.46048 3.2546 0
M  V30 8981 H 816.627 -1.49361 3.88155 0
M  V30 8982 H 815.204 -2.7349 2.53491 0
M  V30 8983 N 817.389 -1.46805 -0.573248 0
M  V30 8984 C 818.8 -1.46655 -1.15539 0
M  V30 8985 C 819.151 -0.2125 -1.95046 0
M  V30 8986 O 818.276 0.683759 -2.05314 0
M  V30 8987 C 818.871 -2.65711 -2.10198 0
M  V30 8988 C 817.43 -2.68572 -2.63716 0
M  V30 8989 C 816.577 -2.39498 -1.39772 0
M  V30 8990 H 819.528 -1.54547 -0.36068 0
M  V30 8991 H 819.549 -2.41768 -2.93817 0
M  V30 8992 H 819.061 -3.56967 -1.52303 0
M  V30 8993 H 817.162 -1.81414 -3.25453 0
M  V30 8994 H 817.275 -3.68809 -3.05805 0
M  V30 8995 H 815.639 -1.89749 -1.69904 0
M  V30 8996 H 816.422 -3.32942 -0.836943 0
M  V30 8997 N 818.867 0.818669 -1.34668 0
M  V30 8998 C 819.83 1.9114 -1.26483 0
M  V30 8999 C 820.83 1.598 -0.179044 0
M  V30 9000 O 822.02 1.6876 -0.431952 0
M  V30 9001 C 819.152 3.27285 -0.95381 0
M  V30 9002 H 820.345 1.9982 -2.23634 0
M  V30 9003 H 817.898 1.01314 -1.19018 0
M  V30 9004 H 818.633 3.24297 0.0143428 0
M  V30 9005 H 818.418 3.51416 -1.73924 0
M  V30 9006 H 819.908 4.07299 -0.921827 0
M  V30 9007 N 820.346 1.18468 1.03938 0
M  V30 9008 C 821.574 1.00576 1.80809 0
M  V30 9009 C 821.989 -0.445786 1.83462 0
M  V30 9010 O 821.346 -1.30964 1.27101 0
M  V30 9011 C 821.397 1.55491 3.26351 0
M  V30 9012 O 821.118 2.94963 3.23926 0
M  V30 9013 C 822.619 1.42236 4.19862 0
M  V30 9014 H 819.839 0.35508 0.56935 0
M  V30 9015 H 822.383 1.57046 1.30984 0
M  V30 9016 H 820.538 1.03195 3.73403 0
M  V30 9017 H 820.952 3.20598 4.15111 0
M  V30 9018 H 822.426 1.85455 5.19914 0
M  V30 9019 H 822.903 0.371267 4.37628 0
M  V30 9020 H 823.509 1.9361 3.78675 0
M  V30 9021 N 821.824 -1.22873 0.986916 0
M  V30 9022 C 822.771 -2.2458 0.532215 0
M  V30 9023 C 823.741 -1.60375 -0.432322 0
M  V30 9024 O 824.926 -1.87775 -0.338416 0
M  V30 9025 C 822.066 -3.44761 -0.152864 0
M  V30 9026 C 821.179 -4.23501 0.852704 0
M  V30 9027 C 820.314 -5.31011 0.14176 0
M  V30 9028 C 819.353 -6.01464 1.1361 0
M  V30 9029 N 818.49 -7.00631 0.453871 0
M  V30 9030 H 823.33 -2.62838 1.40428 0
M  V30 9031 H 820.867 -1.29185 0.703543 0
M  V30 9032 H 822.825 -4.1333 -0.566926 0
M  V30 9033 H 821.455 -3.07284 -0.988756 0
M  V30 9034 H 820.507 -3.54286 1.38512 0
M  V30 9035 H 821.819 -4.72097 1.61014 0
M  V30 9036 H 820.973 -6.05805 -0.329337 0
M  V30 9037 H 819.712 -4.83373 -0.648229 0
M  V30 9038 H 818.717 -5.25456 1.61789 0
M  V30 9039 H 819.942 -6.5119 1.92686 0
M  V30 9040 H 817.888 -6.55235 -0.316791 0
M  V30 9041 H 817.805 -7.47204 1.14986 0
M  V30 9042 H 819.073 -7.795 0.00537823 0
M  V30 9043 N 823.302 -0.75937 -1.38099 0
M  V30 9044 C 824.212 -0.13774 -2.34195 0
M  V30 9045 C 825.228 0.693985 -1.59561 0
M  V30 9046 O 826.404 0.616792 -1.91723 0
M  V30 9047 C 823.469 0.740535 -3.38699 0
M  V30 9048 C 822.53 -0.106225 -4.29169 0
M  V30 9049 C 821.763 0.730225 -5.28681 0
M  V30 9050 O 821.986 1.96796 -5.35376 0
M  V30 9051 O 820.92 0.145969 -6.01723 0
M  V30 9052 H 824.746 -0.931512 -2.89061 0
M  V30 9053 H 822.331 -0.520345 -1.40046 0
M  V30 9054 H 824.213 1.24232 -4.02672 0
M  V30 9055 H 822.888 1.51271 -2.8618 0
M  V30 9056 H 821.795 -0.654088 -3.68337 0
M  V30 9057 H 823.128 -0.841186 -4.84959 0
M  V30 9058 N 824.78 1.49157 -0.508906 0
M  V30 9059 C 825.727 2.2927 0.265288 0
M  V30 9060 C 826.697 1.3603 0.953162 0
M  V30 9061 O 827.882 1.64989 0.958291 0
M  V30 9062 C 825.022 3.18897 1.31904 0
M  V30 9063 C 824.135 4.27201 0.642144 0
M  V30 9064 C 823.27 5.04033 1.67701 0
M  V30 9065 C 822.309 6.04165 0.982422 0
M  V30 9066 N 821.446 6.74133 1.96186 0
M  V30 9067 H 826.286 2.94967 -0.424107 0
M  V30 9068 H 823.823 1.45431 -0.220991 0
M  V30 9069 H 825.781 3.69242 1.94206 0
M  V30 9070 H 824.411 2.55168 1.97709 0
M  V30 9071 H 823.463 3.80283 -0.0943395 0
M  V30 9072 H 824.775 4.98708 0.0957507 0
M  V30 9073 H 823.929 5.58287 2.37487 0
M  V30 9074 H 822.668 4.32317 2.25728 0
M  V30 9075 H 821.673 5.49135 0.270378 0
M  V30 9076 H 822.898 6.7787 0.408554 0
M  V30 9077 H 820.844 6.05183 2.53159 0
M  V30 9078 H 820.761 7.41643 1.46634 0
M  V30 9079 H 822.029 7.32987 2.65236 0
M  V30 9080 N 826.258 0.243083 1.55714 0
M  V30 9081 C 827.188 -0.652336 2.24203 0
M  V30 9082 C 828.169 -1.1843 1.221 0
M  V30 9083 O 829.354 -1.22435 1.50743 0
M  V30 9084 C 826.484 -1.85111 2.93856 0
M  V30 9085 C 825.438 -1.45208 4.02615 0
M  V30 9086 C 824.764 -2.73137 4.59674 0
M  V30 9087 C 826.064 -0.625988 5.18535 0
M  V30 9088 H 827.758 -0.0812504 2.9929 0
M  V30 9089 H 825.304 -0.0376388 1.43951 0
M  V30 9090 H 827.257 -2.48314 3.40468 0
M  V30 9091 H 825.981 -2.44751 2.16251 0
M  V30 9092 H 824.64 -0.843406 3.56766 0
M  V30 9093 H 824.288 -3.30967 3.78774 0
M  V30 9094 H 823.988 -2.47163 5.33089 0
M  V30 9095 H 825.512 -3.37245 5.09017 0
M  V30 9096 H 826.926 -1.16223 5.61396 0
M  V30 9097 H 825.323 -0.462465 5.98315 0
M  V30 9098 H 826.393 0.362652 4.83542 0
M  V30 9099 N 827.736 -1.57571 -0.0300757 0
M  V30 9100 C 828.668 -2.0329 -1.05857 0
M  V30 9101 C 829.681 -0.945543 -1.32527 0
M  V30 9102 O 830.87 -1.22287 -1.30032 0
M  V30 9103 C 827.97 -2.39234 -2.40042 0
M  V30 9104 C 827.143 -3.70337 -2.32743 0
M  V30 9105 C 826.202 -3.93482 -3.49369 0
M  V30 9106 O 825.228 -4.64551 -3.28909 0
M  V30 9107 N 826.43 -3.39042 -4.71201 0
M  V30 9108 H 829.195 -2.9214 -0.668897 0
M  V30 9109 H 826.756 -1.60425 -0.218038 0
M  V30 9110 H 828.748 -2.51856 -3.16782 0
M  V30 9111 H 827.318 -1.5606 -2.70858 0
M  V30 9112 H 826.538 -3.68079 -1.41109 0
M  V30 9113 H 827.826 -4.56343 -2.25007 0
M  V30 9114 H 827.224 -2.81434 -4.90725 0
M  V30 9115 H 825.781 -3.57045 -5.45309 0
M  V30 9116 N 829.214 0.302327 -1.54673 0
M  V30 9117 C 830.63 0.647911 -1.45857 0
M  V30 9118 C 830.83 1.90773 -0.64869 0
M  V30 9119 O 829.886 2.52018 -0.155865 0
M  V30 9120 C 831.199 0.802144 -2.89804 0
M  V30 9121 C 832.747 0.898114 -2.99838 0
M  V30 9122 C 833.222 1.08436 -4.44978 0
M  V30 9123 N 834.713 1.15059 -4.48682 0
M  V30 9124 C 835.448 1.31296 -5.58166 0
M  V30 9125 N 834.944 1.4444 -6.77576 0
M  V30 9126 N 836.737 1.34174 -5.45851 0
M  V30 9127 H 828.888 -0.525428 -2.05798 0
M  V30 9128 H 831.151 -0.173423 -0.932002 0
M  V30 9129 H 830.857 -0.0526531 -3.51661 0
M  V30 9130 H 830.731 1.69155 -3.37145 0
M  V30 9131 H 833.118 1.7434 -2.38096 0
M  V30 9132 H 833.199 -0.0152752 -2.55795 0
M  V30 9133 H 832.843 0.243843 -5.07314 0
M  V30 9134 H 832.773 2.01195 -4.8665 0
M  V30 9135 H 835.264 1.0626 -3.62653 0
M  V30 9136 H 835.577 1.56582 -7.56771 0
M  V30 9137 H 833.922 1.41499 -6.80443 0
M  V30 9138 H 837.113 1.23516 -4.5151 0
M  V30 9139 H 837.286 1.46485 -6.31226 0
M  V30 9140 N 830.692 1.47107 0.565454 0
M  V30 9141 C 831.602 1.61591 1.70075 0
M  V30 9142 C 832.618 0.498931 1.66693 0
M  V30 9143 O 833.794 0.765372 1.8629 0
M  V30 9144 C 830.859 1.61887 3.06583 0
M  V30 9145 C 829.92 2.84949 3.21096 0
M  V30 9146 C 829.153 2.85221 4.51093 0
M  V30 9147 O 829.376 1.94959 5.36048 0
M  V30 9148 O 828.31 3.76982 4.69221 0
M  V30 9149 H 832.136 2.57638 1.60799 0
M  V30 9150 H 829.721 1.30097 0.73451 0
M  V30 9151 H 831.603 1.64809 3.87835 0
M  V30 9152 H 830.278 0.69005 3.16259 0
M  V30 9153 H 829.185 2.87575 2.39273 0
M  V30 9154 H 830.518 3.77098 3.1632 0
M  V30 9155 N 832.17 -0.811516 1.35101 0
M  V30 9156 C 833.133 -1.90467 1.27495 0
M  V30 9157 C 834.133 -1.59703 0.187516 0
M  V30 9158 O 835.323 -1.68528 0.440896 0
M  V30 9159 C 832.455 -3.26774 0.971154 0
M  V30 9160 H 833.648 -1.98631 2.2469 0
M  V30 9161 H 831.201 -1.00681 1.19553 0
M  V30 9162 H 831.936 -3.243 0.0028557 0
M  V30 9163 H 831.721 -3.50488 1.75785 0
M  V30 9164 H 833.211 -4.06804 0.943414 0
M  V30 9165 N 833.648 -1.19017 -1.03309 0
M  V30 9166 C 834.598 -0.89194 -2.0983 0
M  V30 9167 C 835.582 0.14151 -1.60277 0
M  V30 9168 O 836.774 -0.0635946 -1.76886 0
M  V30 9169 C 833.903 -0.427793 -3.40624 0
M  V30 9170 C 832.989 -1.49374 -3.96923 0
M  V30 9171 N 833.38 -2.71213 -4.26939 0
M  V30 9172 C 831.678 -1.35605 -4.24885 0
M  V30 9173 C 832.379 -3.39849 -4.72099 0
M  V30 9174 N 831.355 -2.67239 -4.73375 0
M  V30 9175 H 835.157 -1.81801 -2.30923 0
M  V30 9176 H 832.671 -1.08171 -1.21131 0
M  V30 9177 H 834.668 -0.195608 -4.16441 0
M  V30 9178 H 833.328 0.491848 -3.20953 0
M  V30 9179 H 834.339 -3.08014 -4.16351 0
M  V30 9180 H 831.016 -0.499537 -4.14501 0
M  V30 9181 H 832.406 -4.44018 -5.04279 0
M  V30 9182 N 835.127 1.22348 -0.993418 0
M  V30 9183 C 836.373 1.91393 -0.67056 0
M  V30 9184 C 836.706 1.77163 0.795428 0
M  V30 9185 O 835.981 1.14084 1.57528 0
M  V30 9186 C 836.264 3.43589 -1.0779 0
M  V30 9187 C 836.117 3.66867 -2.60248 0
M  V30 9188 C 837.436 4.35545 -0.631527 0
M  V30 9189 H 834.555 0.695057 -0.24508 0
M  V30 9190 H 837.197 1.44213 -1.23703 0
M  V30 9191 H 835.347 3.83903 -0.595902 0
M  V30 9192 H 837.019 3.35954 -3.16121 0
M  V30 9193 H 835.262 3.1113 -3.02293 0
M  V30 9194 H 835.933 4.73457 -2.838 0
M  V30 9195 H 838.409 4.0275 -1.04554 0
M  V30 9196 H 837.285 5.40707 -0.944831 0
M  V30 9197 H 837.546 4.39618 0.467779 0
M  V30 9198 N 836.605 0.766683 1.37694 0
M  V30 9199 C 838.016 0.394761 1.82479 0
M  V30 9200 C 838.367 -1.07842 1.63904 0
M  V30 9201 O 837.492 -1.83479 1.14737 0
M  V30 9202 C 838.087 0.70974 3.31283 0
M  V30 9203 C 836.646 0.390936 3.74364 0
M  V30 9204 C 835.793 0.956192 2.60293 0
M  V30 9205 H 838.744 0.961756 1.26238 0
M  V30 9206 H 838.765 -0.00742144 3.80499 0
M  V30 9207 H 838.277 1.782 3.4477 0
M  V30 9208 H 836.378 -0.674213 3.66449 0
M  V30 9209 H 836.491 0.895645 4.70654 0
M  V30 9210 H 834.855 0.380744 2.51838 0
M  V30 9211 H 835.638 2.03375 2.76575 0
M  V30 9212 N 838.083 -1.48885 0.516809 0
M  V30 9213 C 839.013 -2.32241 -0.242157 0
M  V30 9214 C 839.994 -1.41258 -0.947633 0
M  V30 9215 O 841.179 -1.70156 -0.935973 0
M  V30 9216 C 838.309 -3.22151 -1.29754 0
M  V30 9217 C 837.263 -4.22053 -0.710995 0
M  V30 9218 C 836.589 -5.01007 -1.86806 0
M  V30 9219 C 837.889 -5.21388 0.30853 0
M  V30 9220 H 839.583 -2.95943 0.453651 0
M  V30 9221 H 837.129 -1.42316 0.219612 0
M  V30 9222 H 839.082 -3.79284 -1.83634 0
M  V30 9223 H 837.806 -2.56423 -2.02274 0
M  V30 9224 H 836.465 -3.66087 -0.193819 0
M  V30 9225 H 836.113 -4.31713 -2.58133 0
M  V30 9226 H 835.813 -5.68615 -1.48159 0
M  V30 9227 H 837.337 -5.60989 -2.4109 0
M  V30 9228 H 838.751 -5.73122 -0.142703 0
M  V30 9229 H 837.148 -5.96975 0.611673 0
M  V30 9230 H 838.218 -4.69329 1.21894 0
M  V30 9231 N 839.561 -0.251338 -1.55583 0
M  V30 9232 C 840.809 0.371434 -1.98657 0
M  V30 9233 C 841.13 1.58143 -1.14087 0
M  V30 9234 O 840.4 1.94607 -0.224708 0
M  V30 9235 H 838.98 0.140225 -0.733721 0
M  V30 9236 H 841.642 -0.351157 -1.9171 0
M  V30 9237 H 840.738 0.677554 -3.04657 0
M  V30 9238 O 841.078 1.61082 -0.116113 0
M  V30 9239 H 841.769 1.8758 0.483052 0
M  V30 END ATOM
M  V30 BEGIN BOND
M  V30 END BOND
M  V30 END CTAB
M  END
$$$$
