drugbank_target|P14770 Platelet glycoprotein IX (DB00468)
 OpenBabel12092119423D

  0  0  0     0  0            999 V3000
M  V30 BEGIN CTAB
M  V30 COUNTS 2674 2711 0 0 0
M  V30 BEGIN ATOM
M  V30 1 H -0.908 1.98254 -0.117106 0
M  V30 2 N 0 1.576 0 0
M  V30 3 C 0.933 2.03868 1.02534 0
M  V30 4 C 1.911 0.928543 1.3348 0
M  V30 5 O 3.095 1.19667 1.45644 0
M  V30 6 C 0.222 2.43627 2.35294 0
M  V30 7 C -0.732 3.65373 2.2001 0
M  V30 8 S 0.101 5.13292 1.52614 0
M  V30 9 C 1.257 5.56322 2.86805 0
M  V30 10 H 1.49 2.90518 0.631377 0
M  V30 11 H -0.977 1.52953 0.210867 0
M  V30 12 H 0.981 2.67203 3.11629 0
M  V30 13 H -0.358 1.57376 2.7183 0
M  V30 14 H -1.165 3.90944 3.18086 0
M  V30 15 H -1.563 3.418 1.51819 0
M  V30 16 H 0.729 5.58782 3.83104 0
M  V30 17 H 1.672 6.56266 2.65933 0
M  V30 18 H 2.08 4.83886 2.90714 0
M  V30 19 N 1.4781 -0.272755 1.55222 0
M  V30 20 C 2.8891 -0.84378 1.66545 0
M  V30 21 C 3.2401 -1.87035 0.592641 0
M  V30 22 O 2.3651 -2.14761 -0.265818 0
M  V30 23 C 2.9601 -1.53723 3.01918 0
M  V30 24 C 1.5191 -2.05628 3.15268 0
M  V30 25 C 0.6661 -0.898424 2.62343 0
M  V30 26 H 3.6171 -0.0490998 1.58624 0
M  V30 27 H 3.6381 -2.40421 2.94921 0
M  V30 28 H 3.1501 -0.78983 3.79978 0
M  V30 29 H 1.2511 -2.83329 2.41983 0
M  V30 30 H 1.3641 -2.27142 4.21833 0
M  V30 31 H -0.2719 -1.29186 2.19506 0
M  V30 32 H 0.5111 -0.164528 3.42906 0
M  V30 33 N 2.9562 -1.48159 -0.537278 0
M  V30 34 C 3.9192 -1.61665 -1.62472 0
M  V30 35 C 4.9192 -0.490395 -1.5314 0
M  V30 36 O 6.1092 -0.755998 -1.5694 0
M  V30 37 C 3.2412 -1.57997 -3.02076 0
M  V30 38 H 4.4342 -2.58621 -1.51839 0
M  V30 39 H 1.9872 -1.36647 -0.758771 0
M  V30 40 H 2.7222 -0.624913 -3.18222 0
M  V30 41 H 2.5072 -2.39755 -3.10258 0
M  V30 42 H 3.9972 -1.70627 -3.81151 0
M  V30 43 N 4.4343 0.785586 -1.36625 0
M  V30 44 C 5.6803 1.5452 -1.32269 0
M  V30 45 C 6.0353 1.92159 0.0962266 0
M  V30 46 O 5.3283 1.60158 1.05167 0
M  V30 47 C 5.5223 2.83007 -2.1827 0
M  V30 48 C 5.3513 2.57925 -3.68382 0
M  V30 49 C 4.1213 2.52752 -4.37544 0
M  V30 50 C 6.3193 2.26861 -4.61561 0
M  V30 51 N 4.3013 2.19608 -5.73276 0
M  V30 52 C 5.6723 2.03738 -5.85569 0
M  V30 53 C 7.7273 2.129 -4.50087 0
M  V30 54 C 6.4303 1.68065 -6.9939 0
M  V30 55 C 8.4563 1.78626 -5.63779 0
M  V30 56 C 7.8183 1.56353 -6.86828 0
M  V30 57 H 3.9173 0.566301 -0.539283 0
M  V30 58 H 6.5013 0.917736 -1.71714 0
M  V30 59 H 4.6723 3.43614 -1.81063 0
M  V30 60 H 6.4043 3.48775 -2.05275 0
M  V30 61 H 3.1593 2.6813 -3.90389 0
M  V30 62 H 3.5833 2.05771 -6.44971 0
M  V30 63 H 8.2253 2.28808 -3.55537 0
M  V30 64 H 5.9433 1.50895 -7.93887 0
M  V30 65 H 9.5293 1.68502 -5.56865 0
M  V30 66 H 8.4093 1.30223 -7.73312 0
M  V30 67 N 5.9124 1.20967 1.01018 0
M  V30 68 C 7.1604 1.02172 1.74371 0
M  V30 69 C 7.4814 -0.446414 1.89821 0
M  V30 70 O 6.7514 -1.32234 1.44537 0
M  V30 71 H 5.3314 0.375066 0.646014 0
M  V30 72 H 7.9934 1.52187 1.21758 0
M  V30 73 H 7.0894 1.48538 2.74487 0
M  V30 74 N 7.3905 -1.2043 1.01659 0
M  V30 75 C 8.3535 -2.21433 0.591616 0
M  V30 76 C 9.3535 -1.57203 -0.338226 0
M  V30 77 O 10.5435 -1.73737 -0.126918 0
M  V30 78 C 7.6755 -3.40628 -0.136058 0
M  V30 79 H 8.8685 -2.60545 1.48514 0
M  V30 80 H 6.4215 -1.33893 0.806379 0
M  V30 81 H 7.1565 -3.07019 -1.04449 0
M  V30 82 H 6.9415 -3.88475 0.531917 0
M  V30 83 H 8.4315 -4.15475 -0.420735 0
M  V30 84 N 8.8686 -0.792821 -1.36206 0
M  V30 85 C 9.7986 -0.207853 -2.32573 0
M  V30 86 C 10.7796 0.659055 -1.56813 0
M  V30 87 O 11.9646 0.592176 -1.84951 0
M  V30 88 C 9.0946 0.655449 -3.41059 0
M  V30 89 C 8.0486 -0.111842 -4.27854 0
M  V30 90 C 7.3746 0.872274 -5.27537 0
M  V30 91 C 8.6746 -1.30299 -5.05786 0
M  V30 92 H 10.3686 -1.01294 -2.81744 0
M  V30 93 H 7.9146 -0.48854 -1.3546 0
M  V30 94 H 9.8676 1.07464 -4.07467 0
M  V30 95 H 8.5916 1.49328 -2.90463 0
M  V30 96 H 7.2506 -0.512053 -3.63006 0
M  V30 97 H 6.8986 1.70523 -4.73214 0
M  V30 98 H 6.5986 0.363291 -5.86476 0
M  V30 99 H 8.1226 1.28996 -5.96818 0
M  V30 100 H 9.5366 -0.959379 -5.65216 0
M  V30 101 H 7.9336 -1.7455 -5.74154 0
M  V30 102 H 9.0036 -2.09663 -4.37229 0
M  V30 103 N 10.3467 1.47872 -0.545128 0
M  V30 104 C 11.5937 2.02493 -0.0165858 0
M  V30 105 C 11.9217 1.42073 1.32836 0
M  V30 106 O 11.1767 0.561459 1.87473 0
M  V30 107 C 11.4757 3.57131 0.13867 0
M  V30 108 C 11.1417 4.36411 -1.13384 0
M  V30 109 C 9.8037 4.57792 -1.48256 0
M  V30 110 C 12.1557 4.82223 -1.97764 0
M  V30 111 C 9.4837 5.22233 -2.67376 0
M  V30 112 C 11.8357 5.47977 -3.16076 0
M  V30 113 C 10.4997 5.67593 -3.51275 0
M  V30 114 H 9.7697 0.740975 -0.00606918 0
M  V30 115 H 12.4167 1.77683 -0.714207 0
M  V30 116 H 10.7217 3.80865 0.919172 0
M  V30 117 H 12.4187 3.97031 0.562782 0
M  V30 118 H 9.0087 4.2004 -0.852297 0
M  V30 119 H 13.1927 4.65493 -1.72132 0
M  V30 120 H 8.4487 5.35616 -2.94831 0
M  V30 121 H 12.6227 5.8244 -3.81755 0
M  V30 122 H 10.2497 6.17298 -4.43675 0
M  V30 123 N 11.8248 0.280983 1.55075 0
M  V30 124 C 12.7548 -0.597469 2.25727 0
M  V30 125 C 13.7358 -1.15417 1.24952 0
M  V30 126 O 14.9208 -1.18722 1.53684 0
M  V30 127 C 12.0508 -1.7789 2.98283 0
M  V30 128 C 11.0048 -1.35347 4.06036 0
M  V30 129 C 10.3308 -2.61846 4.66198 0
M  V30 130 C 11.6308 -0.499354 5.19907 0
M  V30 131 H 13.3248 -0.00824265 2.99399 0
M  V30 132 H 10.8708 -0.0025244 1.44 0
M  V30 133 H 12.8238 -2.39937 3.46422 0
M  V30 134 H 11.5478 -2.39405 2.22155 0
M  V30 135 H 10.2068 -0.756156 3.58717 0
M  V30 136 H 9.8548 -3.21632 3.86732 0
M  V30 137 H 9.5548 -2.3409 5.38958 0
M  V30 138 H 11.0788 -3.24732 5.1709 0
M  V30 139 H 12.4928 -1.02498 5.64063 0
M  V30 140 H 10.8898 -0.316424 5.99265 0
M  V30 141 H 11.9598 0.480459 4.82514 0
M  V30 142 N 13.3029 -1.57598 0.00835791 0
M  V30 143 C 14.2329 -2.1198 -0.979113 0
M  V30 144 C 15.2139 -1.03091 -1.35301 0
M  V30 145 O 16.3989 -1.30818 -1.43528 0
M  V30 146 C 13.5289 -2.62995 -2.26828 0
M  V30 147 C 12.4829 -3.76485 -2.03576 0
M  V30 148 C 11.8089 -4.13846 -3.38579 0
M  V30 149 C 13.1089 -5.0342 -1.39161 0
M  V30 150 H 14.8029 -2.94738 -0.526281 0
M  V30 151 H 12.3489 -1.41783 -0.251704 0
M  V30 152 H 14.3019 -2.99669 -2.96271 0
M  V30 153 H 13.0259 -1.7737 -2.7424 0
M  V30 154 H 11.6849 -3.40217 -1.36557 0
M  V30 155 H 11.3329 -3.25232 -3.83709 0
M  V30 156 H 11.0329 -4.90312 -3.23834 0
M  V30 157 H 12.5569 -4.53086 -4.09323 0
M  V30 158 H 13.9709 -5.37812 -1.98573 0
M  V30 159 H 12.3679 -5.84746 -1.34878 0
M  V30 160 H 13.4379 -4.83548 -0.361868 0
M  V30 161 N 14.781 0.264519 -1.55364 0
M  V30 162 C 16.027 0.992314 -1.77552 0
M  V30 163 C 16.382 1.83626 -0.574379 0
M  V30 164 O 15.675 1.86648 0.432782 0
M  V30 165 C 15.869 1.9004 -3.02687 0
M  V30 166 C 15.698 1.14583 -4.34857 0
M  V30 167 C 14.468 0.858068 -4.97961 0
M  V30 168 C 16.666 0.532069 -5.1154 0
M  V30 169 N 14.648 0.0775974 -6.13851 0
M  V30 170 C 16.019 -0.113823 -6.19896 0
M  V30 171 C 18.074 0.440763 -4.95945 0
M  V30 172 C 16.777 -0.842231 -7.14352 0
M  V30 173 C 18.803 -0.274072 -5.90765 0
M  V30 174 C 18.165 -0.90867 -6.98515 0
M  V30 175 H 14.264 0.344811 -0.701875 0
M  V30 176 H 16.848 0.267141 -1.92859 0
M  V30 177 H 15.019 2.59775 -2.88741 0
M  V30 178 H 16.751 2.56243 -3.13243 0
M  V30 179 H 13.506 1.16547 -4.59036 0
M  V30 180 H 13.93 -0.300216 -6.76334 0
M  V30 181 H 18.572 0.917064 -4.12735 0
M  V30 182 H 16.29 -1.33019 -7.97077 0
M  V30 183 H 19.876 -0.345151 -5.80775 0
M  V30 184 H 18.756 -1.45299 -7.70622 0
M  V30 185 N 16.2591 1.48442 0.529413 0
M  V30 186 C 17.2221 1.62524 1.61612 0
M  V30 187 C 18.2221 0.498509 1.52877 0
M  V30 188 O 19.4121 0.76431 1.56537 0
M  V30 189 C 16.5441 1.59597 3.01233 0
M  V30 190 H 17.7371 2.59423 1.50465 0
M  V30 191 H 15.2901 1.37047 0.751514 0
M  V30 192 H 16.0251 0.641781 3.17886 0
M  V30 193 H 15.8101 2.41397 3.08982 0
M  V30 194 H 17.3001 1.72646 3.80241 0
M  V30 195 N 17.7372 -0.778329 1.37039 0
M  V30 196 C 18.9652 -1.56734 1.35063 0
M  V30 197 C 19.3802 -1.88686 -0.0655597 0
M  V30 198 O 18.7372 -1.5096 -1.02554 0
M  V30 199 C 18.7882 -2.88163 2.18276 0
M  V30 200 O 18.5092 -2.57583 3.54376 0
M  V30 201 C 20.0102 -3.82422 2.24206 0
M  V30 202 H 17.2302 -0.485778 0.462883 0
M  V30 203 H 19.7742 -0.965185 1.8029 0
M  V30 204 H 17.9292 -3.44818 1.76576 0
M  V30 205 H 18.3432 -3.41699 3.97922 0
M  V30 206 H 19.8172 -4.71667 2.86765 0
M  V30 207 H 20.2942 -4.21078 1.24861 0
M  V30 208 H 20.9002 -3.31697 2.6619 0
M  V30 209 N 19.2153 -1.21501 -1.00376 0
M  V30 210 C 20.1783 -0.976927 -2.07337 0
M  V30 211 C 21.1783 0.0525322 -1.60714 0
M  V30 212 O 22.3683 -0.184869 -1.73216 0
M  V30 213 C 19.5003 -0.473423 -3.37597 0
M  V30 214 H 20.6933 -1.92587 -2.29892 0
M  V30 215 H 18.2463 -1.03217 -1.17371 0
M  V30 216 H 18.9813 0.480379 -3.20722 0
M  V30 217 H 18.7663 -1.216 -3.72768 0
M  V30 218 H 20.2563 -0.32675 -4.1632 0
M  V30 219 N 20.6934 1.19889 -1.02296 0
M  V30 220 C 21.6034 2.26571 -0.608508 0
M  V30 221 C 22.6194 1.70299 0.356964 0
M  V30 222 O 23.7954 2.00235 0.216326 0
M  V30 223 C 20.8604 3.46677 0.0402814 0
M  V30 224 C 19.9214 4.18153 -0.97194 0
M  V30 225 C 19.1544 5.32525 -0.354016 0
M  V30 226 O 19.3774 5.64112 0.844604 0
M  V30 227 O 18.3114 5.92242 -1.07391 0
M  V30 228 H 22.1374 2.64251 -1.49684 0
M  V30 229 H 19.7224 1.26629 -0.792809 0
M  V30 230 H 21.6044 4.19475 0.402324 0
M  V30 231 H 20.2794 3.10858 0.902707 0
M  V30 232 H 19.1864 3.47499 -1.38546 0
M  V30 233 H 20.5194 4.57927 -1.80454 0
M  V30 234 N 22.1715 0.800033 1.35784 0
M  V30 235 C 23.1345 0.211565 2.28221 0
M  V30 236 C 24.1345 -0.59728 1.49296 0
M  V30 237 O 25.3245 -0.416721 1.69142 0
M  V30 238 C 22.4565 -0.705846 3.33513 0
M  V30 239 H 23.6495 1.02677 2.81776 0
M  V30 240 H 21.2025 0.570211 1.45528 0
M  V30 241 H 21.9375 -1.54498 2.85133 0
M  V30 242 H 21.7225 -0.127655 3.91892 0
M  V30 243 H 23.2125 -1.11211 4.02519 0
M  V30 244 N 23.6496 -1.47581 0.552962 0
M  V30 245 C 24.8776 -2.06875 0.0320556 0
M  V30 246 C 25.2926 -1.40625 -1.25976 0
M  V30 247 O 24.6496 -0.501349 -1.75479 0
M  V30 248 C 24.7006 -3.61092 -0.17167 0
M  V30 249 O 24.4216 -4.24858 1.06899 0
M  V30 250 C 25.9226 -4.37242 -0.730344 0
M  V30 251 H 23.1426 -0.669561 0.043915 0
M  V30 252 H 25.6866 -1.89646 0.765163 0
M  V30 253 H 23.8416 -3.7785 -0.854894 0
M  V30 254 H 24.2556 -5.17334 0.864059 0
M  V30 255 H 25.7296 -5.45842 -0.822203 0
M  V30 256 H 26.2066 -4.03235 -1.74064 0
M  V30 257 H 26.8126 -4.25219 -0.0829543 0
M  V30 258 N 25.1277 -0.289203 -1.54924 0
M  V30 259 C 26.0747 0.592115 -2.23075 0
M  V30 260 C 27.0447 1.13881 -1.20915 0
M  V30 261 O 28.2297 1.18551 -1.495 0
M  V30 262 C 25.3697 1.76376 -2.96623 0
M  V30 263 C 24.4827 1.24959 -4.13533 0
M  V30 264 C 23.6177 2.38416 -4.74691 0
M  V30 265 C 22.6567 1.84072 -5.83767 0
M  V30 266 N 21.7937 2.91057 -6.38929 0
M  V30 267 H 26.6337 0.00432038 -2.98 0
M  V30 268 H 24.1707 -0.00963529 -1.47097 0
M  V30 269 H 26.1287 2.45268 -3.3749 0
M  V30 270 H 24.7587 2.32337 -2.24097 0
M  V30 271 H 23.8107 0.453307 -3.77689 0
M  V30 272 H 25.1227 0.811662 -4.92152 0
M  V30 273 H 24.2767 3.15276 -5.18349 0
M  V30 274 H 23.0157 2.8553 -3.95378 0
M  V30 275 H 22.0207 1.05697 -5.39545 0
M  V30 276 H 23.2457 1.37877 -6.64956 0
M  V30 277 H 21.1917 3.37526 -5.62505 0
M  V30 278 H 21.1087 2.51724 -7.12861 0
M  V30 279 H 22.3767 3.6785 -6.87246 0
M  V30 280 N 26.6058 1.57591 -0.0167156 0
M  V30 281 C 27.8828 1.82547 0.702564 0
M  V30 282 C 28.2628 0.898018 1.91047 0
M  V30 283 O 27.6108 -0.0493456 2.28447 0
M  V30 284 C 27.8208 3.31459 1.09251 0
M  V30 285 C 29.1688 3.97622 1.48937 0
M  V30 286 O 30.1928 3.35881 1.18584 0
M  V30 287 O 29.0518 5.06415 2.05442 0
M  V30 288 H 26.1458 0.752268 0.343544 0
M  V30 289 H 28.6918 1.69644 -0.0434495 0
M  V30 290 H 27.4638 3.9061 0.23227 0
M  V30 291 H 27.0868 3.49422 1.89709 0
M  V30 292 N 28.0839 -0.256276 1.55502 0
M  V30 293 C 29.3239 -0.993081 1.78654 0
M  V30 294 C 29.6879 -1.8288 0.584724 0
M  V30 295 O 30.8889 -2.59665 0.694822 0
M  V30 296 C 29.1599 -1.83856 3.06483 0
M  V30 297 S 30.7189 -2.63573 3.5082 0
M  V30 298 H 27.5369 -0.334199 0.62756 0
M  V30 299 H 30.1389 -0.26184 1.93739 0
M  V30 300 H 28.8429 -1.21414 3.92029 0
M  V30 301 H 28.3739 -2.61271 2.94111 0
M  V30 302 H 30.3889 -3.86312 3.11412 0
M  V30 303 N 29.562 -1.4872 -0.521534 0
M  V30 304 C 30.973 -1.50607 -1.10337 0
M  V30 305 C 31.324 -0.280612 -1.94183 0
M  V30 306 O 30.449 0.611507 -2.0758 0
M  V30 307 C 31.044 -2.72903 -2.00772 0
M  V30 308 C 29.603 -2.77634 -2.54158 0
M  V30 309 C 28.75 -2.44241 -1.31307 0
M  V30 310 H 31.701 -1.55714 -0.306388 0
M  V30 311 H 31.722 -2.519 -2.85178 0
M  V30 312 H 31.234 -3.62077 -1.39721 0
M  V30 313 H 29.335 -1.92689 -3.18907 0
M  V30 314 H 29.448 -3.79283 -2.92714 0
M  V30 315 H 27.812 -1.95577 -1.63161 0
M  V30 316 H 28.595 -3.35666 -0.719943 0
M  V30 317 N 31.0401 0.771051 -1.3745 0
M  V30 318 C 32.2651 1.56529 -1.36065 0
M  V30 319 C 32.6901 1.88029 0.0515859 0
M  V30 320 O 32.0481 1.49282 1.02882 0
M  V30 321 C 32.0961 2.85187 -2.20683 0
M  V30 322 O 31.2001 3.79593 -1.61193 0
M  V30 323 H 30.5411 0.47411 -0.464883 0
M  V30 324 H 33.0711 0.954269 -1.80983 0
M  V30 325 H 33.0811 3.34283 -2.33921 0
M  V30 326 H 31.7561 2.61588 -3.23334 0
M  V30 327 H 30.3331 3.38239 -1.56999 0
M  V30 328 N 32.5182 1.22032 0.997298 0
M  V30 329 C 33.9292 1.0397 1.55071 0
M  V30 330 C 34.2802 -0.398192 1.92117 0
M  V30 331 O 33.4052 -1.28254 1.74298 0
M  V30 332 C 34.0002 1.88109 2.81781 0
M  V30 333 C 32.5592 1.74357 3.33581 0
M  V30 334 C 31.7062 1.84846 2.06706 0
M  V30 335 H 34.6572 1.35941 0.818883 0
M  V30 336 H 34.6782 1.39589 3.53971 0
M  V30 337 H 34.1902 2.92754 2.54787 0
M  V30 338 H 32.2912 0.72427 3.65493 0
M  V30 339 H 32.4042 2.56772 4.04481 0
M  V30 340 H 30.7682 1.28238 2.20062 0
M  V30 341 H 31.5512 2.91014 1.82114 0
M  V30 342 N 33.9963 -1.19345 1.0293 0
M  V30 343 C 35.2363 -1.90738 0.734727 0
M  V30 344 C 35.6003 -1.7785 -0.723414 0
M  V30 345 O 36.8013 -2.43844 -1.13108 0
M  V30 346 C 35.0723 -3.37569 1.17396 0
M  V30 347 S 36.6313 -4.27176 1.00329 0
M  V30 348 H 33.4493 -0.658771 0.267474 0
M  V30 349 H 36.0513 -1.4428 1.31922 0
M  V30 350 H 34.7553 -3.44475 2.23081 0
M  V30 351 H 34.2863 -3.8906 0.582772 0
M  V30 352 H 36.3013 -4.96126 -0.0859152 0
M  V30 353 N 35.4744 -0.807222 -1.35358 0
M  V30 354 C 36.7024 -0.400377 -2.02989 0
M  V30 355 C 37.1174 0.988859 -1.60832 0
M  V30 356 O 36.4744 1.63729 -0.806175 0
M  V30 357 C 36.5254 -0.474867 -3.58368 0
M  V30 358 O 36.2464 -1.80933 -3.98992 0
M  V30 359 C 37.7474 -0.0609112 -4.43258 0
M  V30 360 H 34.9674 -0.162587 -0.651004 0
M  V30 361 H 37.5114 -1.09102 -1.72965 0
M  V30 362 H 35.6664 0.167534 -3.87038 0
M  V30 363 H 36.0804 -1.77256 -4.9364 0
M  V30 364 H 37.5544 -0.164145 -5.51756 0
M  V30 365 H 38.0314 0.993831 -4.27808 0
M  V30 366 H 38.6374 -0.676492 -4.19885 0
M  V30 367 N 36.9525 1.47285 -0.560781 0
M  V30 368 C 38.1925 2.0436 -0.0404627 0
M  V30 369 C 38.5565 1.42534 1.28639 0
M  V30 370 O 39.7575 1.90677 1.89462 0
M  V30 371 C 38.0285 3.57369 0.0471856 0
M  V30 372 S 39.5875 4.3579 0.513109 0
M  V30 373 H 36.4055 0.710492 -0.0268674 0
M  V30 374 H 39.0075 1.80611 -0.748323 0
M  V30 375 H 37.7115 3.9989 -0.922817 0
M  V30 376 H 37.2425 3.8562 0.778491 0
M  V30 377 H 39.2575 4.63476 1.77212 0
M  V30 378 N 38.4306 0.297415 1.54768 0
M  V30 379 C 39.8466 -0.0560823 1.59501 0
M  V30 380 C 40.0466 -1.52725 1.31444 0
M  V30 381 O 39.1026 -2.27947 1.08611 0
M  V30 382 C 40.4156 0.338631 2.98787 0
M  V30 383 C 41.9636 0.287097 3.11681 0
M  V30 384 C 42.4386 0.656579 4.53269 0
M  V30 385 N 43.9296 0.608977 4.59179 0
M  V30 386 C 44.6646 0.867385 5.66802 0
M  V30 387 N 44.1606 1.19157 6.82476 0
M  V30 388 N 45.9536 0.794687 5.56454 0
M  V30 389 H 38.1046 1.25624 1.71267 0
M  V30 390 H 40.3676 0.509057 0.799728 0
M  V30 391 H 40.0736 1.36263 3.2423 0
M  V30 392 H 39.9476 -0.309508 3.75928 0
M  V30 393 H 42.3346 -0.727649 2.85988 0
M  V30 394 H 42.4156 0.969809 2.36703 0
M  V30 395 H 42.0596 1.66912 4.7969 0
M  V30 396 H 41.9896 -0.0481649 5.26578 0
M  V30 397 H 44.4806 0.369198 3.76092 0
M  V30 398 H 44.7936 1.37482 7.60473 0
M  V30 399 H 43.1386 1.22958 6.84037 0
M  V30 400 H 46.3296 0.541098 4.64962 0
M  V30 401 H 46.5026 0.999445 6.40246 0
M  V30 402 N 39.9087 -1.5758 0.0250728 0
M  V30 403 C 40.8717 -2.08896 -0.943139 0
M  V30 404 C 41.8717 -1.00321 -1.25668 0
M  V30 405 O 43.0617 -1.26495 -1.19769 0
M  V30 406 C 40.1937 -2.55143 -2.26086 0
M  V30 407 H 41.3867 -2.95723 -0.498775 0
M  V30 408 H 38.9397 -1.54703 -0.222888 0
M  V30 409 H 39.6747 -1.71633 -2.75159 0
M  V30 410 H 39.4597 -3.34461 -2.04641 0
M  V30 411 H 40.9497 -2.95083 -2.95492 0
M  V30 412 N 41.3868 0.248026 -1.55636 0
M  V30 413 C 42.3168 1.31079 -1.93237 0
M  V30 414 C 43.2978 1.50264 -0.797174 0
M  V30 415 O 44.4828 1.62891 -1.05737 0
M  V30 416 C 41.6128 2.66575 -2.22609 0
M  V30 417 C 40.5668 2.62087 -3.3837 0
M  V30 418 C 39.8928 4.01369 -3.53281 0
M  V30 419 C 41.1928 2.19171 -4.7409 0
M  V30 420 H 42.8868 0.998556 -2.82257 0
M  V30 421 H 40.4328 0.47891 -1.35803 0
M  V30 422 H 42.3858 3.41057 -2.47503 0
M  V30 423 H 41.1098 2.99432 -1.30414 0
M  V30 424 H 39.7688 1.90063 -3.13483 0
M  V30 425 H 39.4168 4.31489 -2.58508 0
M  V30 426 H 39.1168 3.99254 -4.31127 0
M  V30 427 H 40.6408 4.77552 -3.80495 0
M  V30 428 H 42.0548 2.83384 -4.98363 0
M  V30 429 H 40.4518 2.2817 -5.5503 0
M  V30 430 H 41.5218 1.14336 -4.71227 0
M  V30 431 N 42.8649 1.48995 0.513639 0
M  V30 432 C 43.7749 1.67443 1.64317 0
M  V30 433 C 44.7909 0.556947 1.64846 0
M  V30 434 O 45.9669 0.830082 1.83498 0
M  V30 435 C 43.0319 1.72515 3.00732 0
M  V30 436 C 42.0929 2.96009 3.1093 0
M  V30 437 C 41.3259 3.00829 4.40837 0
M  V30 438 O 41.5489 2.13594 5.28898 0
M  V30 439 O 40.4829 3.93168 4.55744 0
M  V30 440 H 44.3089 2.63106 1.51687 0
M  V30 441 H 41.8939 1.32588 0.688543 0
M  V30 442 H 43.7759 1.78277 3.81831 0
M  V30 443 H 42.4509 0.800278 3.13651 0
M  V30 444 H 41.3579 2.9577 2.29065 0
M  V30 445 H 42.6909 3.87934 3.02933 0
M  V30 446 N 44.343 -0.763751 1.37857 0
M  V30 447 C 45.571 -1.55293 1.36718 0
M  V30 448 C 45.986 -1.88745 -0.0455434 0
M  V30 449 O 45.343 -1.52039 -1.00947 0
M  V30 450 C 45.394 -2.85831 2.2132 0
M  V30 451 O 45.115 -2.5381 3.57089 0
M  V30 452 C 46.616 -3.80023 2.28249 0
M  V30 453 H 43.836 -0.480841 0.468009 0
M  V30 454 H 46.38 -0.946009 1.81303 0
M  V30 455 H 44.535 -3.42926 1.80223 0
M  V30 456 H 44.949 -3.37459 4.01524 0
M  V30 457 H 46.423 -4.68599 2.91752 0
M  V30 458 H 46.9 -4.1973 1.2932 0
M  V30 459 H 47.506 -3.28855 2.69693 0
M  V30 460 N 45.8211 -1.22559 -0.990812 0
M  V30 461 C 46.7541 -0.940773 -2.07905 0
M  V30 462 C 47.7321 0.117082 -1.62178 0
M  V30 463 O 48.9161 -0.0149506 -1.88494 0
M  V30 464 C 46.0431 -0.415321 -3.36144 0
M  V30 465 C 45.0891 -1.45818 -4.00799 0
M  V30 466 S 45.9221 -3.03219 -4.41382 0
M  V30 467 C 47.0781 -2.52317 -5.72789 0
M  V30 468 H 47.3111 -1.8623 -2.31745 0
M  V30 469 H 44.8441 -1.05688 -1.12558 0
M  V30 470 H 46.8021 -0.118747 -4.10328 0
M  V30 471 H 45.4631 0.485121 -3.10331 0
M  V30 472 H 44.6561 -1.04044 -4.93144 0
M  V30 473 H 44.2581 -1.70356 -3.32949 0
M  V30 474 H 46.5501 -1.93688 -6.49224 0
M  V30 475 H 47.4931 -3.43161 -6.19392 0
M  V30 476 H 47.9011 -1.93529 -5.30289 0
M  V30 477 N 47.2992 1.18797 -1.03562 0
M  V30 478 C 48.5472 1.88278 -0.734569 0
M  V30 479 C 48.8682 1.8043 0.739586 0
M  V30 480 O 48.1382 1.21925 1.53333 0
M  V30 481 H 46.7182 0.696991 -0.268725 0
M  V30 482 H 49.3802 1.44192 -1.31129 0
M  V30 483 H 48.4762 2.94443 -1.03489 0
M  V30 484 N 48.7773 0.814389 1.34928 0
M  V30 485 C 49.7073 0.244827 2.32213 0
M  V30 486 C 50.6883 -0.634024 1.57842 0
M  V30 487 O 51.8733 -0.562676 1.8587 0
M  V30 488 C 49.0033 -0.601106 3.42058 0
M  V30 489 C 47.9573 0.179896 4.27622 0
M  V30 490 C 47.2833 -0.788237 5.28858 0
M  V30 491 C 48.5833 1.38329 5.03649 0
M  V30 492 H 50.2773 1.05763 2.80097 0
M  V30 493 H 47.8233 0.510029 1.34665 0
M  V30 494 H 49.7763 -1.00968 4.09125 0
M  V30 495 H 48.5003 -1.44688 2.92802 0
M  V30 496 H 47.1593 0.569739 3.62146 0
M  V30 497 H 46.8073 -1.62973 4.75866 0
M  V30 498 H 46.5073 -0.269942 5.8698 0
M  V30 499 H 48.0313 -1.19485 5.98795 0
M  V30 500 H 49.4453 1.04918 5.63618 0
M  V30 501 H 47.8423 1.83662 5.71304 0
M  V30 502 H 48.9123 2.16592 4.33839 0
M  V30 503 N 50.2554 -1.46986 0.568584 0
M  V30 504 C 51.5014 -2.0332 0.0571487 0
M  V30 505 C 51.8564 -1.43384 -1.28291 0
M  V30 506 O 51.1494 -0.584304 -1.82473 0
M  V30 507 C 51.3434 -3.57306 -0.081836 0
M  V30 508 C 51.1724 -4.32174 1.24321 0
M  V30 509 C 49.9424 -4.71633 1.81358 0
M  V30 510 C 52.1404 -4.66598 2.16312 0
M  V30 511 N 50.1224 -5.31191 3.07748 0
M  V30 512 C 51.4934 -5.26578 3.27285 0
M  V30 513 C 53.5484 -4.48527 2.16166 0
M  V30 514 C 52.2514 -5.70395 4.38226 0
M  V30 515 C 54.2774 -4.93351 3.26127 0
M  V30 516 C 53.6394 -5.5339 4.3582 0
M  V30 517 H 49.7384 -0.77943 0.063351 0
M  V30 518 H 52.3224 -1.79323 0.758378 0
M  V30 519 H 50.4934 -3.81046 -0.752207 0
M  V30 520 H 52.2254 -4.00282 -0.59637 0
M  V30 521 H 48.9804 -4.53946 1.35019 0
M  V30 522 H 49.4044 -5.65505 3.72201 0
M  V30 523 H 54.0464 -4.01456 1.32638 0
M  V30 524 H 51.7644 -6.16452 5.22506 0
M  V30 525 H 55.3504 -4.81131 3.27115 0
M  V30 526 H 54.2304 -5.87441 5.19503 0
M  V30 527 N 51.7335 -0.305618 -1.54608 0
M  V30 528 C 52.9795 0.302746 -2.00528 0
M  V30 529 C 53.3125 1.53184 -1.19367 0
M  V30 530 O 52.5875 1.92598 -0.271321 0
M  V30 531 C 52.8705 0.654756 -3.54097 0
M  V30 532 C 52.7235 -0.583793 -4.45995 0
M  V30 533 C 54.0425 1.47947 -4.14487 0
M  V30 534 H 51.1615 0.108564 -0.72896 0
M  V30 535 H 53.8035 -0.418634 -1.85331 0
M  V30 536 H 51.9535 1.26935 -3.67178 0
M  V30 537 H 53.6255 -1.22224 -4.44814 0
M  V30 538 H 51.8685 -1.21615 -4.16404 0
M  V30 539 H 52.5395 -0.293287 -5.5122 0
M  V30 540 H 55.0155 0.96013 -4.04871 0
M  V30 541 H 53.8915 1.69454 -5.22088 0
M  V30 542 H 54.1525 2.47011 -3.66658 0
M  V30 543 N 53.2116 1.57565 -0.0334293 0
M  V30 544 C 54.4886 1.83282 0.683163 0
M  V30 545 C 54.8686 0.91823 1.90084 0
M  V30 546 O 54.2166 -0.025113 2.28486 0
M  V30 547 C 54.4266 3.32599 1.0573 0
M  V30 548 C 55.7746 3.99179 1.44711 0
M  V30 549 O 56.7986 3.3712 1.15015 0
M  V30 550 O 55.6576 5.08565 2.0006 0
M  V30 551 H 52.7516 0.755869 0.335546 0
M  V30 552 H 55.2976 1.69589 -0.0614402 0
M  V30 553 H 54.0696 3.90834 0.190828 0
M  V30 554 H 53.6926 3.51415 1.85993 0
M  V30 555 N 54.6897 -0.239769 1.55765 0
M  V30 556 C 55.9297 -0.974076 1.79697 0
M  V30 557 C 56.2937 -1.82249 0.604088 0
M  V30 558 O 57.4947 -2.58913 0.722324 0
M  V30 559 C 55.7657 -1.80595 3.08416 0
M  V30 560 S 57.3247 -2.59838 3.53596 0
M  V30 561 H 54.1427 -0.327524 0.63107 0
M  V30 562 H 56.7447 -0.241277 1.94005 0
M  V30 563 H 55.4487 -1.17249 3.93295 0
M  V30 564 H 54.9797 -2.58137 2.96865 0
M  V30 565 H 56.9947 -3.82987 3.15492 0
M  V30 566 N 56.1678 -1.49265 -0.50573 0
M  V30 567 C 57.5838 -1.35923 -0.836486 0
M  V30 568 C 57.7838 -0.388704 -1.97715 0
M  V30 569 O 56.8398 0.181336 -2.51848 0
M  V30 570 C 58.1528 -2.76531 -1.18115 0
M  V30 571 C 59.7008 -2.85197 -1.28964 0
M  V30 572 C 60.1758 -4.26561 -1.66761 0
M  V30 573 N 61.6668 -4.2935 -1.73819 0
M  V30 574 C 62.4018 -5.35693 -2.045 0
M  V30 575 N 61.8978 -6.52287 -2.33438 0
M  V30 576 N 63.6908 -5.23105 -2.05711 0
M  V30 577 H 55.8418 -2.10965 0.246519 0
M  V30 578 H 58.1048 -0.9468 0.0476887 0
M  V30 579 H 57.8108 -3.49226 -0.416398 0
M  V30 580 H 57.6848 -3.11599 -2.1257 0
M  V30 581 H 60.0718 -2.12742 -2.04511 0
M  V30 582 H 60.1528 -2.53718 -0.325704 0
M  V30 583 H 59.7968 -4.99541 -0.917656 0
M  V30 584 H 59.7268 -4.55502 -2.64246 0
M  V30 585 H 62.2178 -3.4526 -1.53635 0
M  V30 586 H 62.5308 -7.29158 -2.56024 0
M  V30 587 H 60.8758 -6.55521 -2.30905 0
M  V30 588 H 64.0668 -4.31026 -1.82577 0
M  V30 589 H 64.2398 -6.06078 -2.29289 0
M  V30 590 N 57.6459 0.756429 -1.3826 0
M  V30 591 C 58.8939 1.51248 -1.34047 0
M  V30 592 C 59.2149 1.94875 0.0698372 0
M  V30 593 O 58.4849 1.67436 1.01696 0
M  V30 594 H 57.0649 0.561018 -0.493222 0
M  V30 595 H 59.7269 0.899347 -1.7291 0
M  V30 596 H 58.8229 2.40472 -1.98947 0
M  V30 597 N 59.124 1.23083 0.984299 0
M  V30 598 C 60.074 0.975749 2.06066 0
M  V30 599 C 61.058 -0.0768251 1.60716 0
M  V30 600 O 62.25 0.134805 1.76486 0
M  V30 601 C 59.379 0.564673 3.38624 0
M  V30 602 C 58.465 1.65244 3.90583 0
M  V30 603 N 58.856 2.88193 4.15666 0
M  V30 604 C 57.154 1.52612 4.19077 0
M  V30 605 C 57.855 3.58593 4.58024 0
M  V30 606 N 56.831 2.86093 4.62225 0
M  V30 607 H 60.633 1.90957 2.23411 0
M  V30 608 H 58.147 1.12963 1.16675 0
M  V30 609 H 60.144 0.36322 4.15315 0
M  V30 610 H 58.804 -0.362147 3.22674 0
M  V30 611 H 59.815 3.24537 4.03604 0
M  V30 612 H 56.492 0.666121 4.12152 0
M  V30 613 H 57.882 4.63974 4.85982 0
M  V30 614 N 60.6021 -1.18246 1.0419 0
M  V30 615 C 61.8501 -1.87886 0.744543 0
M  V30 616 C 62.1711 -1.8082 -0.730006 0
M  V30 617 O 61.4411 -1.22736 -1.52685 0
M  V30 618 H 60.0211 -0.695556 0.272417 0
M  V30 619 H 62.6831 -1.43494 1.31892 0
M  V30 620 H 61.7791 -2.9389 1.05049 0
M  V30 621 N 62.0802 -0.821533 -1.34494 0
M  V30 622 C 63.0102 -0.257138 -2.3208 0
M  V30 623 C 63.9912 0.625645 -1.58176 0
M  V30 624 O 65.1762 0.552811 -1.86166 0
M  V30 625 C 62.3062 0.582958 -3.42372 0
M  V30 626 C 61.2602 -0.202571 -4.2752 0
M  V30 627 C 60.5862 0.760179 -5.29269 0
M  V30 628 C 61.8862 -1.40998 -5.02908 0
M  V30 629 H 63.5802 -1.07247 -2.79532 0
M  V30 630 H 61.1262 -0.517163 -1.34393 0
M  V30 631 H 63.0792 0.987972 -4.09655 0
M  V30 632 H 61.8032 1.43133 -2.93565 0
M  V30 633 H 60.4622 -0.588936 -3.61838 0
M  V30 634 H 60.1102 1.60447 -4.76724 0
M  V30 635 H 59.8102 0.238809 -5.87115 0
M  V30 636 H 61.3342 1.16308 -5.9942 0
M  V30 637 H 62.7482 -1.07905 -5.63054 0
M  V30 638 H 61.1452 -1.86689 -5.70322 0
M  V30 639 H 62.2152 -2.1889 -4.32684 0
M  V30 640 N 63.5583 1.46682 -0.576371 0
M  V30 641 C 64.7863 2.06798 -0.0649635 0
M  V30 642 C 65.2013 1.42612 1.23723 0
M  V30 643 O 64.5583 0.529203 1.74659 0
M  V30 644 C 64.6093 3.6132 0.114202 0
M  V30 645 O 64.3303 4.23104 -1.13644 0
M  V30 646 C 65.8313 4.38349 0.66069 0
M  V30 647 H 63.0513 0.668778 -0.0545616 0
M  V30 648 H 65.5953 1.88404 -0.795237 0
M  V30 649 H 63.7503 3.79162 0.794673 0
M  V30 650 H 64.1643 5.15894 -0.946253 0
M  V30 651 H 65.6383 5.47081 0.73526 0
M  V30 652 H 66.1153 4.05953 1.67627 0
M  V30 653 H 66.7213 4.25297 0.0152951 0
M  V30 654 N 65.0364 0.313813 1.54444 0
M  V30 655 C 65.9994 -0.54379 2.22656 0
M  V30 656 C 66.9994 -1.05124 1.21678 0
M  V30 657 O 68.1894 -0.945225 1.46325 0
M  V30 658 C 65.3214 -1.75427 2.92298 0
M  V30 659 H 66.5144 0.0523599 2.99854 0
M  V30 660 H 64.0674 0.0647834 1.56166 0
M  V30 661 H 64.8024 -2.38991 2.19211 0
M  V30 662 H 64.5874 -1.39791 3.66334 0
M  V30 663 H 66.0774 -2.36325 3.44297 0
M  V30 664 N 66.5145 -1.57545 0.0417849 0
M  V30 665 C 67.4445 -2.14009 -0.933929 0
M  V30 666 C 68.4255 -1.05938 -1.33083 0
M  V30 667 O 69.6105 -1.33833 -1.40721 0
M  V30 668 C 66.7405 -2.67747 -2.21199 0
M  V30 669 C 65.6945 -3.80718 -1.95544 0
M  V30 670 C 65.0205 -4.20935 -3.29724 0
M  V30 671 C 66.3205 -5.06258 -1.28452 0
M  V30 672 H 68.0145 -2.95788 -0.463645 0
M  V30 673 H 65.5605 -1.42285 -0.221573 0
M  V30 674 H 67.5135 -3.05886 -2.89848 0
M  V30 675 H 66.2375 -1.83147 -2.70416 0
M  V30 676 H 64.8965 -3.43037 -1.2931 0
M  V30 677 H 64.5445 -3.33298 -3.76724 0
M  V30 678 H 64.2445 -4.9707 -3.13361 0
M  V30 679 H 65.7685 -4.61666 -3.9962 0
M  V30 680 H 67.1825 -5.41903 -1.8712 0
M  V30 681 H 65.5795 -5.87475 -1.22445 0
M  V30 682 H 66.6495 -4.84207 -0.259219 0
M  V30 683 N 67.9926 0.231505 -1.5589 0
M  V30 684 C 69.4036 0.799327 -1.68724 0
M  V30 685 C 69.7546 1.85398 -0.642022 0
M  V30 686 O 68.8796 2.1539 0.208784 0
M  V30 687 C 69.4746 1.45664 -3.05888 0
M  V30 688 C 68.0336 1.97197 -3.20609 0
M  V30 689 C 67.1806 0.828552 -2.64632 0
M  V30 690 H 70.1316 0.00702616 -1.58698 0
M  V30 691 H 70.1526 2.32517 -3.01191 0
M  V30 692 H 69.6646 0.688808 -3.81939 0
M  V30 693 H 67.7656 2.76813 -2.4941 0
M  V30 694 H 67.8786 2.15878 -4.27707 0
M  V30 695 H 66.2426 1.23321 -2.22854 0
M  V30 696 H 67.0256 0.0735544 -3.43221 0
M  V30 697 N 69.4707 1.49531 0.497807 0
M  V30 698 C 70.4337 1.65916 1.58128 0
M  V30 699 C 71.4337 0.530825 1.51786 0
M  V30 700 O 72.6237 0.797342 1.54881 0
M  V30 701 C 69.7557 1.65951 2.9778 0
M  V30 702 H 70.9487 2.62556 1.44929 0
M  V30 703 H 68.5017 1.38611 0.722275 0
M  V30 704 H 69.2367 0.709065 3.16453 0
M  V30 705 H 69.0217 2.47897 3.03792 0
M  V30 706 H 70.5117 1.80673 3.76493 0
M  V30 707 N 70.9488 -0.749086 1.3866 0
M  V30 708 C 71.8788 -1.8764 1.38973 0
M  V30 709 C 72.8598 -1.68178 0.255004 0
M  V30 710 O 74.0448 -1.88704 0.458754 0
M  V30 711 C 71.1748 -3.25222 1.21851 0
M  V30 712 C 70.1288 -3.59295 2.32575 0
M  V30 713 C 69.4548 -4.95663 2.00555 0
M  V30 714 C 70.7548 -3.63709 3.7485 0
M  V30 715 H 72.4488 -1.87635 2.3331 0
M  V30 716 H 69.9948 -0.901329 1.12303 0
M  V30 717 H 71.9478 -4.03746 1.20695 0
M  V30 718 H 70.6718 -3.25719 0.239775 0
M  V30 719 H 69.3308 -2.83093 2.32925 0
M  V30 720 H 68.9788 -4.92724 1.01154 0
M  V30 721 H 68.6788 -5.19429 2.74714 0
M  V30 722 H 70.2028 -5.7656 2.01024 0
M  V30 723 H 71.6168 -4.32338 3.76506 0
M  V30 724 H 70.0138 -3.98986 4.48252 0
M  V30 725 H 71.0838 -2.63834 4.06841 0
M  V30 726 N 72.4269 -1.23603 -0.977757 0
M  V30 727 C 73.8379 -1.06424 -1.53398 0
M  V30 728 C 74.1889 0.367578 -1.92726 0
M  V30 729 O 73.3139 1.25465 -1.76316 0
M  V30 730 C 73.9089 -1.92568 -2.78753 0
M  V30 731 C 72.4679 -1.79642 -3.30765 0
M  V30 732 C 71.6149 -1.88111 -2.03739 0
M  V30 733 H 74.5659 -1.37227 -0.797152 0
M  V30 734 H 74.5869 -1.45203 -3.51705 0
M  V30 735 H 74.0989 -2.96771 -2.50098 0
M  V30 736 H 72.1999 -0.782325 -3.64294 0
M  V30 737 H 72.3129 -2.63174 -4.00345 0
M  V30 738 H 70.6769 -1.31723 -2.17994 0
M  V30 739 H 71.4599 -2.93875 -1.77461 0
M  V30 740 N 73.905 1.17692 -1.04816 0
M  V30 741 C 74.868 2.19787 -0.650117 0
M  V30 742 C 75.868 1.58044 0.296427 0
M  V30 743 O 77.058 1.74012 0.0808097 0
M  V30 744 C 74.19 3.40869 0.0456987 0
M  V30 745 H 75.383 2.56516 -1.5537 0
M  V30 746 H 72.936 1.31708 -0.841594 0
M  V30 747 H 73.671 3.09681 0.962726 0
M  V30 748 H 73.456 3.86928 -0.634727 0
M  V30 749 H 74.946 4.16445 0.310432 0
M  V30 750 N 75.3831 0.828654 1.34056 0
M  V30 751 C 76.7991 0.515135 1.51058 0
M  V30 752 C 76.9991 -0.959581 1.77184 0
M  V30 753 O 76.0551 -1.74382 1.82612 0
M  V30 754 C 77.3681 1.37963 2.67183 0
M  V30 755 C 78.9161 1.37735 2.81066 0
M  V30 756 C 79.3911 2.22645 4.00241 0
M  V30 757 N 80.8821 2.203 4.07458 0
M  V30 758 C 81.6171 2.82744 4.98842 0
M  V30 759 N 81.1131 3.54201 5.9541 0
M  V30 760 N 82.9061 2.72268 4.91759 0
M  V30 761 H 75.0571 1.78343 1.15358 0
M  V30 762 H 77.3201 0.760304 0.566252 0
M  V30 763 H 77.0261 2.42714 2.54525 0
M  V30 764 H 76.9001 1.0484 3.62338 0
M  V30 765 H 79.2871 0.337593 2.93163 0
M  V30 766 H 79.3681 1.74859 1.86703 0
M  V30 767 H 79.0121 3.26674 3.88905 0
M  V30 768 H 78.9421 1.82869 4.93829 0
M  V30 769 H 81.4331 1.68327 3.38341 0
M  V30 770 H 81.7461 3.9908 6.61782 0
M  V30 771 H 80.0911 3.58308 5.95517 0
M  V30 772 H 83.2821 2.16014 4.15278 0
M  V30 773 H 83.4551 3.21219 5.62781 0
M  V30 774 N 76.8612 -1.46375 0.584142 0
M  V30 775 C 78.0892 -2.06761 0.0759296 0
M  V30 776 C 78.5042 -1.43266 -1.22965 0
M  V30 777 O 77.8612 -0.538458 -1.74376 0
M  V30 778 C 77.9122 -3.61375 -0.0950384 0
M  V30 779 O 77.6332 -4.22495 1.15887 0
M  V30 780 C 79.1342 -4.38693 -0.637434 0
M  V30 781 H 76.3542 -0.668479 0.0581075 0
M  V30 782 H 78.8982 -1.8798 0.805218 0
M  V30 783 H 77.0532 -3.79578 -0.774554 0
M  V30 784 H 77.4672 -5.15385 0.973598 0
M  V30 785 H 78.9412 -5.47464 -0.706237 0
M  V30 786 H 79.4182 -4.06836 -1.65472 0
M  V30 787 H 80.0242 -4.25299 0.00725967 0
M  V30 788 N 78.3393 -0.321999 -1.54275 0
M  V30 789 C 79.7553 0.0306999 -1.5957 0
M  V30 790 C 79.9553 1.50614 -1.33857 0
M  V30 791 O 79.0113 2.2619 -1.12223 0
M  V30 792 C 80.3243 -0.386122 -2.98211 0
M  V30 793 C 81.8723 -0.336647 -3.11184 0
M  V30 794 C 82.3473 -0.728607 -4.52167 0
M  V30 795 N 83.8383 -0.681952 -4.58152 0
M  V30 796 C 84.5733 -0.957449 -5.6535 0
M  V30 797 N 84.0693 -1.3 -6.80494 0
M  V30 798 N 85.8623 -0.883113 -5.55119 0
M  V30 799 H 78.0133 -1.28332 -1.69247 0
M  V30 800 H 80.2763 -0.521716 -0.791528 0
M  V30 801 H 79.9823 -1.41404 -3.22022 0
M  V30 802 H 79.8563 0.249662 -3.76373 0
M  V30 803 H 82.2433 0.682058 -2.8711 0
M  V30 804 H 82.3243 -1.00734 -2.3513 0
M  V30 805 H 81.9683 -1.74522 -4.76974 0
M  V30 806 H 81.8983 -0.0356152 -5.26588 0
M  V30 807 H 84.3893 -0.428985 -3.75457 0
M  V30 808 H 84.7023 -1.49563 -7.58189 0
M  V30 809 H 83.0473 -1.33824 -6.81994 0
M  V30 810 H 86.2383 -0.615001 -4.64042 0
M  V30 811 H 86.4113 -1.10118 -6.38575 0
M  V30 812 N 79.8174 1.5752 -0.0501392 0
M  V30 813 C 80.7674 2.07981 0.934231 0
M  V30 814 C 81.7514 0.984745 1.27246 0
M  V30 815 O 82.9434 1.24809 1.25506 0
M  V30 816 C 80.0724 2.62751 2.20945 0
M  V30 817 C 79.1584 3.79225 1.89865 0
M  V30 818 N 79.5494 4.89036 1.29142 0
M  V30 819 C 77.8474 3.88111 2.19741 0
M  V30 820 C 78.5484 5.70084 1.15669 0
M  V30 821 N 77.5244 5.17659 1.65923 0
M  V30 822 H 81.3264 2.90277 0.460053 0
M  V30 823 H 78.8404 1.61665 0.15434 0
M  V30 824 H 80.8374 2.97205 2.9236 0
M  V30 825 H 79.4974 1.81894 2.6897 0
M  V30 826 H 80.5084 5.08854 0.963756 0
M  V30 827 H 77.1854 3.18194 2.70293 0
M  V30 828 H 78.5754 6.68395 0.685356 0
M  V30 829 N 81.2955 -0.223234 1.56011 0
M  V30 830 C 82.2255 -1.27988 1.95298 0
M  V30 831 C 83.2065 -1.48976 0.820979 0
M  V30 832 O 84.3915 -1.61188 1.08315 0
M  V30 833 C 81.5215 -2.63 2.26822 0
M  V30 834 C 80.4755 -2.56671 3.42497 0
M  V30 835 C 79.8015 -3.95697 3.59622 0
M  V30 836 C 81.1015 -2.11601 4.77517 0
M  V30 837 H 82.7955 -0.953525 2.8381 0
M  V30 838 H 80.3415 -0.457244 1.36548 0
M  V30 839 H 82.2945 -3.37077 2.52898 0
M  V30 840 H 81.0185 -2.9732 1.35161 0
M  V30 841 H 79.6775 -1.85051 3.16467 0
M  V30 842 H 79.3255 -4.27322 2.6534 0
M  V30 843 H 79.0255 -3.92345 4.37424 0
M  V30 844 H 80.5495 -4.71438 3.88044 0
M  V30 845 H 81.9635 -2.7542 5.02809 0
M  V30 846 H 80.3605 -2.19311 5.5859 0
M  V30 847 H 81.4305 -1.06824 4.72987 0
M  V30 848 N 82.7736 -1.49793 -0.48987 0
M  V30 849 C 83.7036 -1.70201 -1.59856 0
M  V30 850 C 84.6846 -0.55076 -1.60937 0
M  V30 851 O 85.8696 -0.787841 -1.77501 0
M  V30 852 C 82.9996 -1.77882 -2.98287 0
M  V30 853 C 81.9536 -2.92907 -3.12073 0
M  V30 854 C 81.2796 -2.85712 -4.51965 0
M  V30 855 C 82.5796 -4.3369 -2.91051 0
M  V30 856 H 84.2736 -2.63025 -1.43032 0
M  V30 857 H 81.8196 -1.26574 -0.686664 0
M  V30 858 H 83.7726 -1.90744 -3.75759 0
M  V30 859 H 82.4966 -0.816653 -3.16225 0
M  V30 860 H 81.1556 -2.79665 -2.37029 0
M  V30 861 H 80.8036 -1.8738 -4.66795 0
M  V30 862 H 80.5036 -3.62921 -4.62128 0
M  V30 863 H 82.0276 -3.00598 -5.31482 0
M  V30 864 H 83.4416 -4.47555 -3.58284 0
M  V30 865 H 81.8386 -5.12205 -3.12675 0
M  V30 866 H 82.9086 -4.47362 -1.87071 0
M  V30 867 N 84.2517 0.741722 -1.39055 0
M  V30 868 C 85.1817 1.869 -1.39966 0
M  V30 869 C 86.1627 1.6804 -0.26392 0
M  V30 870 O 87.3477 1.88458 -0.468755 0
M  V30 871 C 84.4777 3.24572 -1.23574 0
M  V30 872 C 83.4317 3.58056 -2.34477 0
M  V30 873 C 82.7577 4.94593 -2.0318 0
M  V30 874 C 84.0577 3.61716 -3.76774 0
M  V30 875 H 85.7517 1.86395 -2.34302 0
M  V30 876 H 83.2977 0.895361 -1.1278 0
M  V30 877 H 85.2507 4.031 -1.22834 0
M  V30 878 H 83.9747 3.25587 -0.257045 0
M  V30 879 H 82.6337 2.81854 -2.34423 0
M  V30 880 H 82.2817 4.92181 -1.03765 0
M  V30 881 H 81.9817 5.17964 -2.77465 0
M  V30 882 H 83.5057 5.75486 -2.04079 0
M  V30 883 H 84.9197 4.30335 -3.78794 0
M  V30 884 H 83.3167 3.96603 -4.50362 0
M  V30 885 H 84.3867 2.61672 -4.08235 0
M  V30 886 N 85.7298 1.2412 0.971189 0
M  V30 887 C 86.6928 1.03156 2.04674 0
M  V30 888 C 87.6928 -0.00990322 1.60797 0
M  V30 889 O 88.8828 0.230729 1.72665 0
M  V30 890 C 86.0148 0.562765 3.36223 0
M  V30 891 H 87.2078 1.98614 2.24705 0
M  V30 892 H 84.7608 1.06293 1.14593 0
M  V30 893 H 85.4958 -0.395176 3.21883 0
M  V30 894 H 85.2808 1.31441 3.69413 0
M  V30 895 H 86.7708 0.437015 4.15307 0
M  V30 896 N 87.2079 -1.17134 1.05439 0
M  V30 897 C 88.1559 -2.23289 0.651511 0
M  V30 898 C 89.1499 -1.66186 -0.328411 0
M  V30 899 O 90.3559 -1.78949 -0.194206 0
M  V30 900 H 86.7309 -0.726938 0.192523 0
M  V30 901 H 88.7019 -2.54565 1.55689 0
M  V30 902 C 87.4509 -3.47671 0.0448436 0
M  V30 903 H 86.7739 -3.91918 0.78996 0
M  V30 904 H 88.2139 -4.2353 -0.19964 0
M  V30 905 C 86.6729 -3.14453 -1.20918 0
M  V30 906 O 87.2029 -3.29459 -2.29825 0
M  V30 907 N 85.4089 -2.68657 -1.10779 0
M  V30 908 H 84.9559 -2.56646 -0.221526 0
M  V30 909 H 84.9139 -2.46804 -1.9477 0
M  V30 910 N 88.686 -0.835752 -1.33615 0
M  V30 911 C 89.634 -0.255238 -2.31195 0
M  V30 912 C 90.628 0.61107 -1.57995 0
M  V30 913 O 91.834 0.500979 -1.72888 0
M  V30 914 H 88.209 -0.0638085 -0.749288 0
M  V30 915 H 90.18 -1.09283 -2.77669 0
M  V30 916 C 88.929 0.55754 -3.43201 0
M  V30 917 H 88.252 -0.0997553 -3.99676 0
M  V30 918 H 89.692 0.929622 -4.13683 0
M  V30 919 C 88.151 1.73515 -2.88781 0
M  V30 920 O 88.681 2.83376 -2.84712 0
M  V30 921 N 86.887 1.55603 -2.4543 0
M  V30 922 H 86.434 0.662354 -2.48939 0
M  V30 923 H 86.392 2.34545 -2.09371 0
M  V30 924 N 90.1641 1.46063 -0.591896 0
M  V30 925 C 91.3891 2.07226 -0.0850314 0
M  V30 926 C 91.8141 1.43625 1.21463 0
M  V30 927 O 91.1721 0.523305 1.73583 0
M  V30 928 C 91.2201 3.60554 0.0576567 0
M  V30 929 O 90.3241 3.97128 1.11188 0
M  V30 930 H 89.6651 0.660615 -0.0669568 0
M  V30 931 H 92.1951 1.8756 -0.81745 0
M  V30 932 H 92.2051 4.07165 0.2609 0
M  V30 933 H 90.8801 4.06235 -0.891416 0
M  V30 934 H 89.4571 3.62213 0.886356 0
M  V30 935 N 91.6422 0.330177 1.54103 0
M  V30 936 C 92.5722 -0.525353 2.27513 0
M  V30 937 C 93.5532 -1.11383 1.2856 0
M  V30 938 O 94.7382 -1.13773 1.57383 0
M  V30 939 C 91.8682 -1.6831 3.03791 0
M  V30 940 C 90.8222 -1.2236 4.10137 0
M  V30 941 C 90.1482 -2.46882 4.74293 0
M  V30 942 C 91.4482 -0.333697 5.21233 0
M  V30 943 H 93.1422 0.087013 2.99274 0
M  V30 944 H 90.6882 0.0432893 1.43935 0
M  V30 945 H 92.6412 -2.28795 3.5388 0
M  V30 946 H 91.3652 -2.32216 2.29659 0
M  V30 947 H 90.0242 -0.64165 3.60941 0
M  V30 948 H 89.6722 -3.09165 3.96769 0
M  V30 949 H 89.3722 -2.16825 5.46133 0
M  V30 950 H 90.8962 -3.08117 5.27159 0
M  V30 951 H 92.3102 -0.845013 5.67038 0
M  V30 952 H 90.7072 -0.125612 5.99969 0
M  V30 953 H 91.7772 0.633724 4.80741 0
M  V30 954 N 93.1203 -1.57491 0.0584922 0
M  V30 955 C 94.0523 -2.08916 -0.942694 0
M  V30 956 C 95.0653 -1.0185 -1.27006 0
M  V30 957 O 96.2543 -1.29398 -1.22957 0
M  V30 958 C 93.3543 -2.52341 -2.26224 0
M  V30 959 C 92.5273 -3.82827 -2.1157 0
M  V30 960 C 91.5863 -4.12487 -3.26712 0
M  V30 961 O 90.6123 -4.82295 -3.02292 0
M  V30 962 N 91.8143 -3.64978 -4.5141 0
M  V30 963 H 94.5793 -2.95437 -0.503722 0
M  V30 964 H 92.1403 -1.61397 -0.12757 0
M  V30 965 H 94.1323 -2.69254 -3.02133 0
M  V30 966 H 92.7023 -1.7103 -2.61663 0
M  V30 967 H 91.9223 -3.75425 -1.20208 0
M  V30 968 H 93.2103 -4.68263 -1.99015 0
M  V30 969 H 92.6083 -3.08558 -4.7414 0
M  V30 970 H 91.1653 -3.87115 -5.2439 0
M  V30 971 N 94.5984 0.214957 -1.56127 0
M  V30 972 C 95.8234 0.95924 -1.83884 0
M  V30 973 C 96.2484 1.7689 -0.639644 0
M  V30 974 O 95.6064 1.76566 0.411601 0
M  V30 975 C 95.6544 1.84723 -3.09693 0
M  V30 976 O 94.7584 2.94346 -2.8885 0
M  V30 977 H 94.0994 0.27125 -0.606069 0
M  V30 978 H 96.6294 0.226276 -2.03345 0
M  V30 979 H 96.6394 2.25576 -3.39969 0
M  V30 980 H 95.3144 1.25218 -3.96602 0
M  V30 981 H 93.8914 2.57391 -2.69823 0
M  V30 982 N 96.0765 1.50051 0.48192 0
M  V30 983 C 97.3225 1.60736 1.2366 0
M  V30 984 C 97.6555 0.301786 1.91841 0
M  V30 985 O 96.9305 -0.696025 1.8162 0
M  V30 986 C 97.2135 2.78009 2.28874 0
M  V30 987 C 97.0665 4.18416 1.65069 0
M  V30 988 C 98.3855 2.90867 3.30279 0
M  V30 989 H 95.5045 0.585031 0.448228 0
M  V30 990 H 98.1465 1.82402 0.531946 0
M  V30 991 H 96.2965 2.59667 2.88973 0
M  V30 992 H 97.9685 4.48322 1.0865 0
M  V30 993 H 96.2115 4.23177 0.954148 0
M  V30 994 H 96.8825 4.96381 2.41474 0
M  V30 995 H 99.3585 3.07623 2.80191 0
M  V30 996 H 98.2345 3.74566 4.01238 0
M  V30 997 H 98.4955 2.01021 3.93755 0
M  V30 998 N 97.5546 -0.734337 1.39446 0
M  V30 999 C 98.9656 -1.31264 1.32766 0
M  V30 1000 C 99.3166 -1.96198 -0.00767497 0
M  V30 1001 O 98.4416 -1.96346 -0.909796 0
M  V30 1002 C 99.0366 -2.38682 2.4045 0
M  V30 1003 C 97.5956 -2.92184 2.37288 0
M  V30 1004 C 96.7426 -1.6576 2.22304 0
M  V30 1005 H 99.6936 -0.531799 1.49525 0
M  V30 1006 H 99.7146 -3.19087 2.07276 0
M  V30 1007 H 99.2266 -1.91392 3.37625 0
M  V30 1008 H 97.3276 -3.43752 1.43754 0
M  V30 1009 H 97.4406 -3.45253 3.3217 0
M  V30 1010 H 95.8046 -1.9012 1.69489 0
M  V30 1011 H 96.5876 -1.20521 3.21449 0
M  V30 1012 N 99.0327 -1.24633 -0.964593 0
M  V30 1013 C 100.444 -1.08045 -1.5226 0
M  V30 1014 C 100.795 0.347116 -1.93105 0
M  V30 1015 O 99.9197 1.23588 -1.77637 0
M  V30 1016 C 100.515 -1.95514 -2.76695 0
M  V30 1017 C 99.0737 -1.8314 -3.28841 0
M  V30 1018 C 98.2207 -1.90262 -2.01732 0
M  V30 1019 H 101.172 -1.38064 -0.782553 0
M  V30 1020 H 101.193 -1.48925 -3.50145 0
M  V30 1021 H 100.705 -2.99407 -2.46936 0
M  V30 1022 H 98.8057 -0.82092 -3.63444 0
M  V30 1023 H 98.9187 -2.67406 -3.97531 0
M  V30 1024 H 97.2827 -1.34027 -2.16584 0
M  V30 1025 H 98.0657 -2.9574 -1.74334 0
M  V30 1026 N 100.511 1.16574 -1.06058 0
M  V30 1027 C 101.759 1.86677 -0.77434 0
M  V30 1028 C 102.08 1.81959 0.701147 0
M  V30 1029 O 101.35 1.2515 1.50713 0
M  V30 1030 H 99.9298 0.691134 -0.283449 0
M  V30 1031 H 102.592 1.41378 -1.34158 0
M  V30 1032 H 101.688 2.92181 -1.09711 0
M  V30 1033 N 101.989 0.842826 1.3317 0
M  V30 1034 C 102.952 0.284065 2.27433 0
M  V30 1035 C 103.952 -0.54948 1.5112 0
M  V30 1036 O 105.142 -0.362699 1.70382 0
M  V30 1037 C 102.274 -0.599384 3.35589 0
M  V30 1038 H 103.467 1.11589 2.78366 0
M  V30 1039 H 101.02 0.616221 1.4364 0
M  V30 1040 H 101.755 -1.45349 2.89904 0
M  V30 1041 H 101.54 -0.00291266 3.921 0
M  V30 1042 H 103.03 -0.983488 4.05854 0
M  V30 1043 N 103.467 -1.45747 0.599634 0
M  V30 1044 C 104.714 -2.02292 0.0917284 0
M  V30 1045 C 105.042 -1.46906 -1.27472 0
M  V30 1046 O 104.297 -0.630652 -1.8526 0
M  V30 1047 C 104.596 -3.57399 -0.00602758 0
M  V30 1048 C 104.262 -4.31902 1.29503 0
M  V30 1049 C 102.924 -4.51974 1.65144 0
M  V30 1050 C 105.276 -4.74551 2.15525 0
M  V30 1051 C 102.604 -5.11949 2.86574 0
M  V30 1052 C 104.956 -5.35868 3.36196 0
M  V30 1053 C 103.62 -5.54165 3.72099 0
M  V30 1054 H 102.89 -0.740239 0.0335658 0
M  V30 1055 H 105.537 -1.7491 0.779661 0
M  V30 1056 H 103.842 -3.84014 -0.777183 0
M  V30 1057 H 105.539 -3.98846 -0.415038 0
M  V30 1058 H 102.129 -4.16588 1.00761 0
M  V30 1059 H 106.313 -4.58784 1.8929 0
M  V30 1060 H 101.569 -5.24305 3.14507 0
M  V30 1061 H 105.743 -5.6787 4.03109 0
M  V30 1062 H 103.37 -6.00406 4.6628 0
M  V30 1063 N 104.945 -0.338344 -1.53925 0
M  V30 1064 C 106.222 0.314774 -1.93051 0
M  V30 1065 C 106.602 1.68669 -1.26941 0
M  V30 1066 O 105.95 2.24636 -0.418445 0
M  V30 1067 C 106.16 0.392249 -3.46789 0
M  V30 1068 C 107.508 0.645554 -4.19664 0
M  V30 1069 O 108.532 0.474575 -3.53024 0
M  V30 1070 O 107.391 0.976408 -5.37707 0
M  V30 1071 H 104.485 0.182598 -0.80659 0
M  V30 1072 H 107.031 -0.389141 -1.65178 0
M  V30 1073 H 105.803 -0.570702 -3.87116 0
M  V30 1074 H 105.426 1.14316 -3.80812 0
M  V30 1075 N 106.423 1.57458 -0.0668435 0
M  V30 1076 C 107.373 2.0896 0.912119 0
M  V30 1077 C 108.357 0.998186 1.26195 0
M  V30 1078 O 109.549 1.26133 1.24175 0
M  V30 1079 C 106.678 2.6508 2.18145 0
M  V30 1080 C 105.764 3.81218 1.85832 0
M  V30 1081 N 106.155 4.90378 1.23948 0
M  V30 1082 C 104.453 3.9042 2.15612 0
M  V30 1083 C 105.154 5.71279 1.09616 0
M  V30 1084 N 104.13 5.19389 1.60423 0
M  V30 1085 H 107.932 2.90749 0.42924 0
M  V30 1086 H 105.446 1.6182 0.137184 0
M  V30 1087 H 107.443 3.0029 2.89192 0
M  V30 1088 H 106.103 1.84736 2.67025 0
M  V30 1089 H 107.114 5.09847 0.909731 0
M  V30 1090 H 103.791 3.21043 2.66903 0
M  V30 1091 H 105.181 6.69085 0.614425 0
M  V30 1092 N 107.901 -0.206675 1.56239 0
M  V30 1093 C 108.831 -1.25909 1.96645 0
M  V30 1094 C 109.812 -1.48097 0.836734 0
M  V30 1095 O 110.997 -1.6003 1.10019 0
M  V30 1096 C 108.127 -2.6058 2.29599 0
M  V30 1097 C 107.081 -2.53024 3.452 0
M  V30 1098 C 106.407 -3.91861 3.63798 0
M  V30 1099 C 107.707 -2.06524 4.79734 0
M  V30 1100 H 109.401 -0.923369 2.84806 0
M  V30 1101 H 106.947 -0.442735 1.37025 0
M  V30 1102 H 108.9 -3.34375 2.56459 0
M  V30 1103 H 107.624 -2.95869 1.38307 0
M  V30 1104 H 106.283 -1.81684 3.18412 0
M  V30 1105 H 105.931 -4.24483 2.69857 0
M  V30 1106 H 105.631 -3.87683 4.4156 0
M  V30 1107 H 107.155 -4.67296 3.93022 0
M  V30 1108 H 108.569 -2.70072 5.05702 0
M  V30 1109 H 106.966 -2.13374 5.60885 0
M  V30 1110 H 108.036 -1.01802 4.74093 0
M  V30 1111 N 109.379 -1.50304 -0.473955 0
M  V30 1112 C 110.79 -1.54042 -1.0549 0
M  V30 1113 C 111.141 -0.342248 -1.93192 0
M  V30 1114 O 110.266 0.545157 -2.09421 0
M  V30 1115 C 110.861 -2.79152 -1.91989 0
M  V30 1116 C 109.42 -2.8558 -2.45196 0
M  V30 1117 C 108.567 -2.48295 -1.2347 0
M  V30 1118 H 111.518 -1.5661 -0.256693 0
M  V30 1119 H 111.539 -2.60845 -2.7702 0
M  V30 1120 H 111.051 -3.66339 -1.28131 0
M  V30 1121 H 109.152 -2.02738 -3.12615 0
M  V30 1122 H 109.265 -3.88403 -2.80499 0
M  V30 1123 H 107.629 -2.00669 -1.56856 0
M  V30 1124 H 108.412 -3.37787 -0.612789 0
M  V30 1125 N 110.857 0.726932 -1.39834 0
M  V30 1126 C 111.789 1.85147 -1.35104 0
M  V30 1127 C 112.802 1.60736 -0.258392 0
M  V30 1128 O 113.991 1.70821 -0.517931 0
M  V30 1129 C 111.091 3.21332 -1.07697 0
M  V30 1130 C 110.264 3.73033 -2.28396 0
M  V30 1131 C 109.323 4.87802 -1.97322 0
M  V30 1132 O 108.349 5.01043 -2.70083 0
M  V30 1133 N 109.551 5.72768 -0.944273 0
M  V30 1134 H 112.316 1.89706 -2.32017 0
M  V30 1135 H 109.877 0.908006 -1.3404 0
M  V30 1136 H 111.869 3.95691 -0.849144 0
M  V30 1137 H 110.439 3.11992 -0.194909 0
M  V30 1138 H 109.659 2.89934 -2.6708 0
M  V30 1139 H 110.947 4.0431 -3.08887 0
M  V30 1140 H 110.345 5.64669 -0.341427 0
M  V30 1141 H 108.902 6.4716 -0.776346 0
M  V30 1142 N 112.336 1.25143 0.95797 0
M  V30 1143 C 113.266 1.07711 2.07173 0
M  V30 1144 C 114.247 -0.0128462 1.70095 0
M  V30 1145 O 115.432 0.156061 1.93572 0
M  V30 1146 C 112.562 0.691503 3.40346 0
M  V30 1147 C 111.516 1.73132 3.9142 0
M  V30 1148 C 110.842 1.20049 5.21049 0
M  V30 1149 C 112.142 3.1294 4.1817 0
M  V30 1150 H 113.836 2.00873 2.22014 0
M  V30 1151 H 111.382 0.967191 1.06684 0
M  V30 1152 H 113.335 0.556505 4.17709 0
M  V30 1153 H 112.059 -0.275819 3.25433 0
M  V30 1154 H 110.718 1.8547 3.16222 0
M  V30 1155 H 110.366 0.223499 5.02503 0
M  V30 1156 H 110.066 1.89545 5.56189 0
M  V30 1157 H 111.59 1.07782 6.01012 0
M  V30 1158 H 113.004 3.03775 4.86203 0
M  V30 1159 H 111.401 3.79875 4.64559 0
M  V30 1160 H 112.471 3.6025 3.24573 0
M  V30 1161 N 113.814 -1.1601 1.06675 0
M  V30 1162 C 114.746 -2.20115 0.638921 0
M  V30 1163 C 115.759 -1.59916 -0.305057 0
M  V30 1164 O 116.948 -1.78245 -0.0954446 0
M  V30 1165 C 114.048 -3.38798 -0.0830083 0
M  V30 1166 C 113.221 -4.2855 0.875426 0
M  V30 1167 C 112.28 -5.25849 0.192042 0
M  V30 1168 O 111.306 -5.63102 0.830921 0
M  V30 1169 N 112.508 -5.70648 -1.06493 0
M  V30 1170 H 115.273 -2.57439 1.53444 0
M  V30 1171 H 112.834 -1.31057 0.950557 0
M  V30 1172 H 114.826 -4.00936 -0.550685 0
M  V30 1173 H 113.396 -2.99947 -0.880386 0
M  V30 1174 H 112.616 -3.63617 1.52238 0
M  V30 1175 H 113.904 -4.85393 1.52548 0
M  V30 1176 H 113.302 -5.42482 -1.60405 0
M  V30 1177 H 111.859 -6.34859 -1.47641 0
M  V30 1178 N 115.292 -0.849877 -1.32721 0
M  V30 1179 C 116.52 -0.464754 -2.01613 0
M  V30 1180 C 116.935 0.937191 -1.63897 0
M  V30 1181 O 116.292 1.61081 -0.857856 0
M  V30 1182 C 116.343 -0.588638 -3.56675 0
M  V30 1183 O 116.064 -1.93535 -3.93034 0
M  V30 1184 C 117.565 -0.2019 -4.4284 0
M  V30 1185 H 114.785 -0.183215 -0.645502 0
M  V30 1186 H 117.329 -1.1455 -1.69407 0
M  V30 1187 H 115.484 0.0443159 -3.87375 0
M  V30 1188 H 115.898 -1.92871 -4.87751 0
M  V30 1189 H 117.372 -0.339599 -5.50954 0
M  V30 1190 H 117.849 0.857224 -4.30753 0
M  V30 1191 H 118.455 -0.809733 -4.17521 0
M  V30 1192 N 116.77 1.45427 -0.607355 0
M  V30 1193 C 117.7 2.3329 0.0989352 0
M  V30 1194 C 118.681 1.46816 0.859007 0
M  V30 1195 O 119.866 1.75588 0.829604 0
M  V30 1196 C 116.996 3.29518 1.09705 0
M  V30 1197 C 115.95 4.25626 0.450206 0
M  V30 1198 C 115.276 5.11542 1.55655 0
M  V30 1199 C 116.576 5.18505 -0.628455 0
M  V30 1200 H 118.27 2.92595 -0.634716 0
M  V30 1201 H 115.816 1.40696 -0.306681 0
M  V30 1202 H 117.769 3.89855 1.59971 0
M  V30 1203 H 116.493 2.68372 1.86129 0
M  V30 1204 H 115.152 3.66586 -0.0315886 0
M  V30 1205 H 114.8 4.46765 2.31107 0
M  V30 1206 H 114.5 5.76647 1.12925 0
M  V30 1207 H 116.024 5.74748 2.06148 0
M  V30 1208 H 117.438 5.72916 -0.209877 0
M  V30 1209 H 115.835 5.92085 -0.977489 0
M  V30 1210 H 116.905 4.60948 -1.50514 0
M  V30 1211 N 118.248 0.346503 1.53744 0
M  V30 1212 C 119.525 -0.304532 1.93215 0
M  V30 1213 C 119.905 -1.67993 1.27834 0
M  V30 1214 O 119.253 -2.24411 0.430352 0
M  V30 1215 C 119.463 -0.373852 3.46992 0
M  V30 1216 C 120.811 -0.62329 4.2 0
M  V30 1217 O 121.835 -0.455847 3.53271 0
M  V30 1218 O 120.694 -0.947879 5.38217 0
M  V30 1219 H 117.788 -0.178318 0.807547 0
M  V30 1220 H 120.334 0.397895 1.64969 0
M  V30 1221 H 119.106 0.591224 3.86808 0
M  V30 1222 H 118.729 -1.12294 3.81413 0
M  V30 1223 N 119.726 -1.57421 0.075193 0
M  V30 1224 C 120.972 -1.93905 -0.594025 0
M  V30 1225 C 121.305 -0.955701 -1.69056 0
M  V30 1226 O 120.58 0.0145373 -1.94495 0
M  V30 1227 C 120.863 -3.40638 -1.1678 0
M  V30 1228 C 120.716 -4.49733 -0.0776792 0
M  V30 1229 C 122.035 -3.88259 -2.07228 0
M  V30 1230 H 119.154 -0.705105 -0.214466 0
M  V30 1231 H 121.796 -1.8947 0.141854 0
M  V30 1232 H 119.946 -3.44549 -1.79494 0
M  V30 1233 H 121.618 -4.57942 0.555573 0
M  V30 1234 H 119.861 -4.29751 0.591286 0
M  V30 1235 H 120.532 -5.49549 -0.519603 0
M  V30 1236 H 123.008 -3.86376 -1.54445 0
M  V30 1237 H 121.884 -4.91533 -2.44308 0
M  V30 1238 H 122.145 -3.26396 -2.98191 0
M  V30 1239 N 121.204 0.198386 -1.56346 0
M  V30 1240 C 122.432 0.935572 -1.84539 0
M  V30 1241 C 122.847 1.76989 -0.657281 0
M  V30 1242 O 122.204 1.78626 0.374043 0
M  V30 1243 C 122.255 1.8344 -3.11499 0
M  V30 1244 O 121.976 1.03377 -4.25728 0
M  V30 1245 C 123.477 2.68355 -3.52846 0
M  V30 1246 H 120.697 0.273126 -0.612897 0
M  V30 1247 H 123.241 0.20663 -2.03453 0
M  V30 1248 H 121.396 2.51701 -2.94492 0
M  V30 1249 H 121.81 1.64599 -4.98003 0
M  V30 1250 H 123.284 3.27085 -4.44657 0
M  V30 1251 H 123.761 3.41901 -2.75681 0
M  V30 1252 H 124.367 2.05471 -3.72373 0
M  V30 1253 N 122.682 1.50554 0.465978 0
M  V30 1254 C 123.614 1.65949 1.58093 0
M  V30 1255 C 124.627 0.540827 1.53554 0
M  V30 1256 O 125.816 0.814187 1.5885 0
M  V30 1257 C 122.916 1.63261 2.96983 0
M  V30 1258 C 122.089 2.91245 3.26336 0
M  V30 1259 C 121.148 2.8113 4.44806 0
M  V30 1260 O 120.174 3.55086 4.44862 0
M  V30 1261 N 121.376 1.95032 5.46756 0
M  V30 1262 H 124.141 2.62122 1.45301 0
M  V30 1263 H 121.702 1.48082 0.65448 0
M  V30 1264 H 123.694 1.54101 3.74212 0
M  V30 1265 H 122.264 0.748032 3.03518 0
M  V30 1266 H 121.484 3.14493 2.37672 0
M  V30 1267 H 122.772 3.76022 3.42761 0
M  V30 1268 H 122.17 1.3427 5.49534 0
M  V30 1269 H 120.727 1.91772 6.2295 0
M  V30 1270 N 124.16 -0.719506 1.40217 0
M  V30 1271 C 125.108 -1.85493 1.40339 0
M  V30 1272 C 126.102 -1.66995 0.284415 0
M  V30 1273 O 127.308 -1.74148 0.455252 0
M  V30 1274 H 123.683 -0.610857 0.438586 0
M  V30 1275 H 125.654 -1.82506 2.36081 0
M  V30 1276 C 124.403 -3.23321 1.27901 0
M  V30 1277 H 123.726 -3.38159 2.1328 0
M  V30 1278 H 125.166 -4.02914 1.32045 0
M  V30 1279 C 123.625 -3.36898 -0.0111355 0
M  V30 1280 O 124.155 -3.89674 -0.975538 0
M  V30 1281 N 122.361 -2.90492 -0.0793393 0
M  V30 1282 H 121.908 -2.47731 0.706183 0
M  V30 1283 H 121.866 -2.99955 -0.942038 0
M  V30 1284 N 125.638 -1.25649 -0.95132 0
M  V30 1285 C 127.049 -1.09654 -1.51106 0
M  V30 1286 C 127.4 0.326615 -1.93462 0
M  V30 1287 O 126.525 1.21697 -1.78938 0
M  V30 1288 C 127.12 -1.98437 -2.74605 0
M  V30 1289 C 125.679 -1.86618 -3.2688 0
M  V30 1290 C 124.826 -1.9239 -1.99703 0
M  V30 1291 H 127.777 -1.38887 -0.767865 0
M  V30 1292 H 127.798 -1.5263 -3.48546 0
M  V30 1293 H 127.31 -3.02009 -2.43746 0
M  V30 1294 H 125.411 -0.859421 -3.62553 0
M  V30 1295 H 125.524 -2.71607 -3.94673 0
M  V30 1296 H 123.888 -1.36317 -2.15151 0
M  V30 1297 H 124.671 -2.97573 -1.71188 0
M  V30 1298 N 127.117 1.15442 -1.07289 0
M  V30 1299 C 128.363 1.8672 -0.806679 0
M  V30 1300 C 128.718 1.80723 0.660084 0
M  V30 1301 O 128.011 1.21902 1.47819 0
M  V30 1302 C 128.205 3.3489 -1.24834 0
M  V30 1303 C 128.034 3.55313 -2.7565 0
M  V30 1304 C 126.804 3.7082 -3.4325 0
M  V30 1305 C 129.002 3.53188 -3.73848 0
M  V30 1306 N 126.984 3.7929 -4.82713 0
M  V30 1307 C 128.355 3.67765 -4.99149 0
M  V30 1308 C 130.41 3.36459 -3.67015 0
M  V30 1309 C 129.113 3.6734 -6.18428 0
M  V30 1310 C 131.139 3.37333 -4.85758 0
M  V30 1311 C 130.501 3.52438 -6.09891 0
M  V30 1312 H 126.6 0.700433 -0.347733 0
M  V30 1313 H 129.184 1.38441 -1.36902 0
M  V30 1314 H 127.355 3.81786 -0.713713 0
M  V30 1315 H 129.087 3.93875 -0.929745 0
M  V30 1316 H 125.842 3.71568 -2.93656 0
M  V30 1317 H 126.266 3.8727 -5.55294 0
M  V30 1318 H 130.908 3.237 -2.71989 0
M  V30 1319 H 128.626 3.78878 -7.13777 0
M  V30 1320 H 132.212 3.25617 -4.82146 0
M  V30 1321 H 131.092 3.53047 -7.00234 0
M  V30 1322 N 128.595 0.856903 1.32268 0
M  V30 1323 C 129.545 0.274899 2.26337 0
M  V30 1324 C 130.529 -0.580543 1.50062 0
M  V30 1325 O 131.721 -0.429559 1.71708 0
M  V30 1326 C 128.85 -0.533841 3.39124 0
M  V30 1327 C 127.936 0.334114 4.22782 0
M  V30 1328 N 128.327 1.42143 4.85416 0
M  V30 1329 C 126.625 0.124256 4.45827 0
M  V30 1330 C 127.326 1.95559 5.47843 0
M  V30 1331 N 126.302 1.25444 5.28928 0
M  V30 1332 H 130.104 1.10612 2.72291 0
M  V30 1333 H 127.618 0.703258 1.46383 0
M  V30 1334 H 129.615 -0.96722 4.05525 0
M  V30 1335 H 128.275 -1.36283 2.94715 0
M  V30 1336 H 129.286 1.80436 4.85451 0
M  V30 1337 H 125.963 -0.669837 4.12092 0
M  V30 1338 H 127.353 2.86714 6.07655 0
M  V30 1339 N 130.073 -1.45103 0.615059 0
M  V30 1340 C 131.313 -2.04069 0.116282 0
M  V30 1341 C 131.677 -1.4721 -1.2326 0
M  V30 1342 O 132.878 -1.97577 -1.82255 0
M  V30 1343 C 131.149 -3.57298 0.085482 0
M  V30 1344 S 132.708 -4.37394 -0.351015 0
M  V30 1345 H 129.526 -0.709006 0.0532183 0
M  V30 1346 H 132.128 -1.77709 0.81484 0
M  V30 1347 H 130.832 -3.9619 1.0706 0
M  V30 1348 H 130.363 -3.88244 -0.634835 0
M  V30 1349 H 132.378 -4.69734 -1.59889 0
M  V30 1350 N 131.551 -0.354651 -1.53558 0
M  V30 1351 C 132.828 0.294281 -1.93374 0
M  V30 1352 C 133.208 1.67313 -1.28723 0
M  V30 1353 O 132.556 2.24179 -0.442247 0
M  V30 1354 C 132.766 0.355445 -3.47185 0
M  V30 1355 C 134.114 0.601007 -4.20325 0
M  V30 1356 O 135.138 0.437106 -3.53508 0
M  V30 1357 O 133.997 0.919322 -5.38712 0
M  V30 1358 H 131.091 0.174033 -0.808481 0
M  V30 1359 H 133.637 -0.406638 -1.64756 0
M  V30 1360 H 132.409 -0.611729 -3.86489 0
M  V30 1361 H 132.032 1.1027 -3.82003 0
M  V30 1362 N 133.029 1.57378 -0.0835403 0
M  V30 1363 C 134.269 1.95808 0.586381 0
M  V30 1364 C 134.633 0.963706 1.66062 0
M  V30 1365 O 135.834 1.23608 2.38693 0
M  V30 1366 C 134.105 3.38808 1.13771 0
M  V30 1367 S 135.664 3.99225 1.82112 0
M  V30 1368 H 132.482 0.684675 0.191679 0
M  V30 1369 H 135.084 1.94843 -0.160194 0
M  V30 1370 H 133.788 4.08954 0.344197 0
M  V30 1371 H 133.319 3.43344 1.92038 0
M  V30 1372 H 135.334 3.87087 3.10449 0
M  V30 1373 N 134.507 -0.190092 1.56449 0
M  V30 1374 C 135.732 -0.929864 1.85387 0
M  V30 1375 C 136.157 -1.7585 0.667704 0
M  V30 1376 O 135.515 -1.77198 -0.383459 0
M  V30 1377 C 135.563 -1.79773 3.12593 0
M  V30 1378 O 134.667 -2.89713 2.93496 0
M  V30 1379 H 134.008 -0.261574 0.610307 0
M  V30 1380 H 136.538 -0.193896 2.03679 0
M  V30 1381 H 136.548 -2.20139 3.43515 0
M  V30 1382 H 135.223 -1.18892 3.98544 0
M  V30 1383 H 133.8 -2.53065 2.73884 0
M  V30 1384 N 135.985 -1.50799 -0.457987 0
M  V30 1385 C 136.915 -1.73553 -1.5621 0
M  V30 1386 C 137.896 -0.584774 -1.59732 0
M  V30 1387 O 139.081 -0.825314 -1.7579 0
M  V30 1388 C 136.211 -1.84169 -2.94447 0
M  V30 1389 C 135.165 -2.99461 -3.0579 0
M  V30 1390 C 134.491 -2.95235 -4.45803 0
M  V30 1391 C 135.791 -4.39766 -2.81786 0
M  V30 1392 H 137.485 -2.66 -1.37421 0
M  V30 1393 H 135.031 -1.28002 -0.659662 0
M  V30 1394 H 136.984 -1.98672 -3.71628 0
M  V30 1395 H 135.708 -0.883545 -3.14422 0
M  V30 1396 H 134.367 -2.8463 -2.31044 0
M  V30 1397 H 134.015 -1.97239 -4.62715 0
M  V30 1398 H 133.715 -3.72642 -4.54326 0
M  V30 1399 H 135.239 -3.11803 -5.24987 0
M  V30 1400 H 136.653 -4.55054 -3.4871 0
M  V30 1401 H 135.05 -5.18722 -3.0174 0
M  V30 1402 H 136.12 -4.51229 -1.7754 0
M  V30 1403 N 137.463 0.71206 -1.40597 0
M  V30 1404 C 138.691 1.50111 -1.42388 0
M  V30 1405 C 139.106 1.88784 -0.0245395 0
M  V30 1406 O 138.463 1.55681 0.952351 0
M  V30 1407 C 138.514 2.7742 -2.31776 0
M  V30 1408 O 138.235 2.40382 -3.66262 0
M  V30 1409 C 139.736 3.7129 -2.42196 0
M  V30 1410 H 136.956 0.46314 -0.485533 0
M  V30 1411 H 139.5 0.878068 -1.8469 0
M  V30 1412 H 137.655 3.36001 -1.92827 0
M  V30 1413 H 138.069 3.22324 -4.13772 0
M  V30 1414 H 139.543 4.57448 -3.08943 0
M  V30 1415 H 140.02 4.14641 -1.44809 0
M  V30 1416 H 140.626 3.18619 -2.81712 0
M  V30 1417 N 138.941 1.26152 0.944643 0
M  V30 1418 C 140.171 1.14094 1.72239 0
M  V30 1419 C 140.579 -0.306931 1.86694 0
M  V30 1420 O 139.922 -1.22222 1.3714 0
M  V30 1421 C 139.984 1.73316 3.14963 0
M  V30 1422 C 139.648 3.2239 3.23904 0
M  V30 1423 C 140.645 4.19252 3.07447 0
M  V30 1424 C 138.33 3.62788 3.47405 0
M  V30 1425 C 140.324 5.54491 3.14353 0
M  V30 1426 C 138.011 4.98162 3.53947 0
M  V30 1427 C 139.009 5.93823 3.37436 0
M  V30 1428 O 138.697 7.26732 3.43679 0
M  V30 1429 H 138.429 0.398292 0.546205 0
M  V30 1430 H 140.983 1.67201 1.19301 0
M  V30 1431 H 139.213 1.14667 3.69308 0
M  V30 1432 H 140.902 1.56214 3.74636 0
M  V30 1433 H 141.668 3.8938 2.8915 0
M  V30 1434 H 137.547 2.88816 3.59313 0
M  V30 1435 H 141.091 6.29137 3.01384 0
M  V30 1436 H 136.988 5.27695 3.71763 0
M  V30 1437 H 137.756 7.3496 3.60245 0
M  V30 1438 N 140.419 -1.14872 1.07899 0
M  V30 1439 C 141.349 -2.2193 0.725887 0
M  V30 1440 C 142.33 -1.67622 -0.28927 0
M  V30 1441 O 143.515 -1.93533 -0.160787 0
M  V30 1442 C 140.645 -3.47061 0.128856 0
M  V30 1443 C 139.599 -4.14363 1.07178 0
M  V30 1444 C 138.925 -5.33636 0.337229 0
M  V30 1445 C 140.225 -4.63492 2.40775 0
M  V30 1446 H 141.919 -2.51724 1.62097 0
M  V30 1447 H 139.465 -1.20991 0.780838 0
M  V30 1448 H 141.418 -4.21199 -0.130147 0
M  V30 1449 H 140.142 -3.16617 -0.80134 0
M  V30 1450 H 138.801 -3.42173 1.3158 0
M  V30 1451 H 138.449 -4.99449 -0.596606 0
M  V30 1452 H 138.149 -5.79609 0.965788 0
M  V30 1453 H 139.673 -6.10539 0.0861567 0
M  V30 1454 H 141.087 -5.2913 2.20669 0
M  V30 1455 H 139.484 -5.20148 2.99276 0
M  V30 1456 H 140.554 -3.78834 3.02676 0
M  V30 1457 N 141.898 -0.863906 -1.31812 0
M  V30 1458 C 143.314 -0.555004 -1.49639 0
M  V30 1459 C 143.514 0.912266 -1.79666 0
M  V30 1460 O 142.57 1.69479 -1.87171 0
M  V30 1461 C 143.883 -1.44998 -2.63431 0
M  V30 1462 C 145.431 -1.45138 -2.77316 0
M  V30 1463 C 145.906 -2.33179 -3.94197 0
M  V30 1464 N 147.397 -2.31025 -4.01474 0
M  V30 1465 C 148.132 -2.95871 -4.9117 0
M  V30 1466 N 147.628 -3.69863 -5.8581 0
M  V30 1467 N 149.421 -2.85211 -4.84367 0
M  V30 1468 H 141.572 -1.81339 -1.10589 0
M  V30 1469 H 143.835 -0.77505 -0.545895 0
M  V30 1470 H 143.541 -2.49377 -2.48 0
M  V30 1471 H 143.415 -1.14409 -3.59431 0
M  V30 1472 H 145.802 -0.415201 -2.92164 0
M  V30 1473 H 145.883 -1.79747 -1.82001 0
M  V30 1474 H 145.527 -3.3687 -3.80107 0
M  V30 1475 H 145.457 -1.95897 -4.88807 0
M  V30 1476 H 147.948 -1.77238 -3.33759 0
M  V30 1477 H 148.261 -4.16486 -6.50968 0
M  V30 1478 H 146.606 -3.73971 -5.85808 0
M  V30 1479 H 149.797 -2.26948 -4.09405 0
M  V30 1480 H 149.97 -3.36027 -5.54066 0
M  V30 1481 N 143.376 1.44774 -0.622745 0
M  V30 1482 C 144.306 2.33382 0.0741861 0
M  V30 1483 C 145.287 1.47719 0.843387 0
M  V30 1484 O 146.472 1.76458 0.810934 0
M  V30 1485 C 143.602 3.30663 1.06204 0
M  V30 1486 C 142.556 4.26079 0.405037 0
M  V30 1487 C 141.882 5.13165 1.5022 0
M  V30 1488 C 143.182 5.1781 -0.683414 0
M  V30 1489 H 144.876 2.91905 -0.665713 0
M  V30 1490 H 142.422 1.40363 -0.321587 0
M  V30 1491 H 144.375 3.9153 1.55827 0
M  V30 1492 H 143.099 2.70331 1.83272 0
M  V30 1493 H 141.758 3.66532 -0.0704683 0
M  V30 1494 H 141.406 4.49191 2.26355 0
M  V30 1495 H 141.106 5.77812 1.06803 0
M  V30 1496 H 142.63 5.76902 2.00041 0
M  V30 1497 H 144.044 5.72661 -0.270631 0
M  V30 1498 H 142.441 5.91015 -1.04023 0
M  V30 1499 H 143.511 4.59326 -1.55395 0
M  V30 1500 N 144.854 0.36279 1.53368 0
M  V30 1501 C 146.1 -0.220702 2.02199 0
M  V30 1502 C 146.455 -1.46649 1.24546 0
M  V30 1503 O 145.748 -1.88737 0.32996 0
M  V30 1504 C 145.942 -0.568417 3.52851 0
M  V30 1505 C 145.771 0.642126 4.45092 0
M  V30 1506 C 144.541 1.15335 4.91961 0
M  V30 1507 C 146.739 1.50649 4.91741 0
M  V30 1508 N 144.721 2.3242 5.68202 0
M  V30 1509 C 146.092 2.52404 5.66297 0
M  V30 1510 C 148.147 1.52969 4.73819 0
M  V30 1511 C 146.85 3.56331 6.24836 0
M  V30 1512 C 148.876 2.55789 5.33222 0
M  V30 1513 C 148.238 3.56268 6.07662 0
M  V30 1514 H 144.337 -0.0435508 0.780786 0
M  V30 1515 H 146.921 0.506704 1.87991 0
M  V30 1516 H 145.092 -1.2649 3.67226 0
M  V30 1517 H 146.824 -1.13676 3.88407 0
M  V30 1518 H 143.579 0.718412 4.68119 0
M  V30 1519 H 144.003 2.91591 6.10986 0
M  V30 1520 H 148.645 0.766418 4.15795 0
M  V30 1521 H 146.363 4.33543 6.81958 0
M  V30 1522 H 149.949 2.58435 5.21251 0
M  V30 1523 H 148.829 4.34524 6.52808 0
M  V30 1524 N 146.332 -1.57332 0.0918853 0
M  V30 1525 C 147.262 -2.16872 -0.865371 0
M  V30 1526 C 148.243 -1.10118 -1.29646 0
M  V30 1527 O 149.428 -1.38242 -1.36392 0
M  V30 1528 C 146.558 -2.74649 -2.12569 0
M  V30 1529 C 145.512 -3.86747 -1.83333 0
M  V30 1530 C 144.838 -4.31212 -3.16166 0
M  V30 1531 C 146.138 -5.10089 -1.1228 0
M  V30 1532 H 147.832 -2.97114 -0.369307 0
M  V30 1533 H 145.378 -1.42918 -0.176194 0
M  V30 1534 H 147.331 -3.14952 -2.7997 0
M  V30 1535 H 146.055 -1.91657 -2.64452 0
M  V30 1536 H 144.714 -3.46978 -1.18331 0
M  V30 1537 H 144.362 -3.45115 -3.6593 0
M  V30 1538 H 144.062 -5.06788 -2.97388 0
M  V30 1539 H 145.586 -4.74146 -3.84731 0
M  V30 1540 H 147 -5.47582 -1.69785 0
M  V30 1541 H 145.397 -5.91073 -1.03693 0
M  V30 1542 H 146.467 -4.84786 -0.105041 0
M  V30 1543 N 147.81 0.181792 -1.56548 0
M  V30 1544 C 148.72 1.24538 -1.98815 0
M  V30 1545 C 149.736 1.49045 -0.897861 0
M  V30 1546 O 150.912 1.61399 -1.20467 0
M  V30 1547 C 147.977 2.56683 -2.33055 0
M  V30 1548 C 147.038 2.40131 -3.55859 0
M  V30 1549 C 146.271 3.65975 -3.88456 0
M  V30 1550 O 146.494 4.70711 -3.22161 0
M  V30 1551 O 145.428 3.6071 -4.81842 0
M  V30 1552 H 149.254 0.916647 -2.89536 0
M  V30 1553 H 146.839 0.387842 -1.44278 0
M  V30 1554 H 148.721 3.34655 -2.56094 0
M  V30 1555 H 147.396 2.89157 -1.45498 0
M  V30 1556 H 146.303 1.60226 -3.38051 0
M  V30 1557 H 147.636 2.12585 -4.43924 0
M  V30 1558 N 149.288 1.51039 0.449983 0
M  V30 1559 C 150.565 1.53612 1.21089 0
M  V30 1560 C 150.945 0.292997 2.09057 0
M  V30 1561 O 150.293 -0.72259 2.16774 0
M  V30 1562 C 150.503 2.84337 2.0237 0
M  V30 1563 C 151.851 3.35807 2.59843 0
M  V30 1564 O 152.875 2.85802 2.12593 0
M  V30 1565 O 151.734 4.23029 3.45989 0
M  V30 1566 H 148.828 0.617057 0.550608 0
M  V30 1567 H 151.374 1.63344 0.460082 0
M  V30 1568 H 150.146 3.66278 1.37681 0
M  V30 1569 H 149.769 2.77708 2.84542 0
M  V30 1570 N 150.766 -0.704594 1.40972 0
M  V30 1571 C 152.182 -1.01406 1.23244 0
M  V30 1572 C 152.382 -2.01169 0.115399 0
M  V30 1573 O 151.438 -2.47021 -0.523147 0
M  V30 1574 C 152.751 -1.54728 2.57836 0
M  V30 1575 C 154.299 -1.66658 2.64942 0
M  V30 1576 C 154.774 -2.23383 3.9983 0
M  V30 1577 N 156.265 -2.30756 4.01629 0
M  V30 1578 C 157 -2.75655 5.02794 0
M  V30 1579 N 156.496 -3.20225 6.14352 0
M  V30 1580 N 158.289 -2.75138 4.90159 0
M  V30 1581 H 150.44 -0.0435285 2.12355 0
M  V30 1582 H 152.703 -0.0818951 0.944456 0
M  V30 1583 H 152.409 -0.888832 3.40283 0
M  V30 1584 H 152.283 -2.53084 2.79693 0
M  V30 1585 H 154.67 -2.31617 1.8286 0
M  V30 1586 H 154.751 -0.668717 2.46904 0
M  V30 1587 H 154.395 -1.59043 4.82357 0
M  V30 1588 H 154.325 -3.23904 4.15203 0
M  V30 1589 H 156.816 -1.99291 3.21079 0
M  V30 1590 H 157.129 -3.53084 6.87424 0
M  V30 1591 H 155.474 -3.18156 6.17901 0
M  V30 1592 H 158.665 -2.39661 4.02095 0
M  V30 1593 H 158.838 -3.09812 5.6914 0
M  V30 1594 N 152.244 -1.26651 -0.937939 0
M  V30 1595 C 153.472 -1.15173 -1.7188 0
M  V30 1596 C 153.887 0.292668 -1.86518 0
M  V30 1597 O 153.244 1.20014 -1.37488 0
M  V30 1598 C 153.295 -1.81925 -3.12387 0
M  V30 1599 O 153.016 -3.2072 -2.98446 0
M  V30 1600 C 154.517 -1.76442 -4.06673 0
M  V30 1601 H 151.737 -0.400911 -0.538063 0
M  V30 1602 H 154.281 -1.67332 -1.1756 0
M  V30 1603 H 152.436 -1.33696 -3.63599 0
M  V30 1604 H 152.85 -3.53802 -3.872 0
M  V30 1605 H 154.324 -2.27781 -5.02812 0
M  V30 1606 H 154.801 -0.731608 -4.33064 0
M  V30 1607 H 155.407 -2.24238 -3.61382 0
M  V30 1608 N 153.722 1.14298 -1.08507 0
M  V30 1609 C 155.133 1.66926 -0.836227 0
M  V30 1610 C 155.484 1.85576 0.63686 0
M  V30 1611 O 154.609 1.56767 1.49175 0
M  V30 1612 C 155.204 3.03219 -1.51142 0
M  V30 1613 C 153.763 3.52876 -1.30979 0
M  V30 1614 C 152.91 2.2833 -1.57356 0
M  V30 1615 H 155.861 0.983491 -1.24552 0
M  V30 1616 H 155.882 3.68726 -0.939211 0
M  V30 1617 H 155.394 2.89612 -2.58353 0
M  V30 1618 H 153.495 3.71703 -0.258429 0
M  V30 1619 H 153.608 4.33586 -2.03814 0
M  V30 1620 H 151.972 2.34454 -0.995164 0
M  V30 1621 H 152.755 2.17298 -2.65775 0
M  V30 1622 N 155.201 0.870884 1.31352 0
M  V30 1623 C 156.111 0.330783 2.32256 0
M  V30 1624 C 157.127 -0.559767 1.6475 0
M  V30 1625 O 158.303 -0.456263 1.96164 0
M  V30 1626 C 155.368 -0.458137 3.4366 0
M  V30 1627 C 154.429 0.460482 4.26823 0
M  V30 1628 C 153.662 -0.290881 5.32907 0
M  V30 1629 O 153.885 -1.51885 5.49806 0
M  V30 1630 O 152.819 0.351732 6.00871 0
M  V30 1631 H 156.645 1.16718 2.80376 0
M  V30 1632 H 154.23 0.634285 1.35267 0
M  V30 1633 H 156.112 -0.905343 4.1156 0
M  V30 1634 H 154.787 -1.27106 2.97701 0
M  V30 1635 H 153.694 0.956207 3.61673 0
M  V30 1636 H 155.027 1.23903 4.7635 0
M  V30 1637 N 156.679 -1.44442 0.630414 0
M  V30 1638 C 157.642 -2.29107 -0.0652523 0
M  V30 1639 C 158.642 -1.41002 -0.772995 0
M  V30 1640 O 159.832 -1.62881 -0.617692 0
M  V30 1641 C 156.964 -3.22564 -1.10296 0
M  V30 1642 H 158.157 -2.92103 0.679401 0
M  V30 1643 H 155.71 -1.51343 0.390517 0
M  V30 1644 H 156.445 -2.64416 -1.87762 0
M  V30 1645 H 156.23 -3.87491 -0.59941 0
M  V30 1646 H 157.72 -3.86167 -1.5895 0
M  V30 1647 N 158.157 -0.370918 -1.53173 0
M  V30 1648 C 159.087 0.464847 -2.28826 0
M  V30 1649 C 160.068 1.07936 -1.31468 0
M  V30 1650 O 161.253 1.0956 -1.60344 0
M  V30 1651 C 158.383 1.60196 -3.08147 0
M  V30 1652 C 157.337 1.11443 -4.13237 0
M  V30 1653 C 156.663 2.3422 -4.80672 0
M  V30 1654 C 157.963 0.195384 -5.21934 0
M  V30 1655 H 159.657 -0.166329 -2.98938 0
M  V30 1656 H 157.203 -0.0814359 -1.4377 0
M  V30 1657 H 159.156 2.19332 -3.59822 0
M  V30 1658 H 157.88 2.26045 -2.35735 0
M  V30 1659 H 156.539 0.545727 -3.62515 0
M  V30 1660 H 156.187 2.98537 -4.04827 0
M  V30 1661 H 155.887 2.02269 -5.51689 0
M  V30 1662 H 157.411 2.94032 -5.35143 0
M  V30 1663 H 158.825 0.694375 -5.69079 0
M  V30 1664 H 157.222 -0.0335027 -6.00091 0
M  V30 1665 H 158.292 -0.760961 -4.78892 0
M  V30 1666 N 159.635 1.57281 -0.100228 0
M  V30 1667 C 160.565 2.17328 0.853857 0
M  V30 1668 C 161.546 1.10804 1.2906 0
M  V30 1669 O 162.731 1.38963 1.35657 0
M  V30 1670 C 159.861 2.75772 2.11109 0
M  V30 1671 C 158.815 3.87713 1.81279 0
M  V30 1672 C 158.141 4.32882 3.13874 0
M  V30 1673 C 159.441 5.10677 1.09574 0
M  V30 1674 H 161.135 2.97305 0.353545 0
M  V30 1675 H 158.681 1.43009 0.168612 0
M  V30 1676 H 160.634 3.16433 2.78296 0
M  V30 1677 H 159.358 1.93057 2.63432 0
M  V30 1678 H 158.017 3.476 1.16489 0
M  V30 1679 H 157.665 3.47051 3.64095 0
M  V30 1680 H 157.365 5.08358 2.94696 0
M  V30 1681 H 158.889 4.7618 3.82211 0
M  V30 1682 H 160.303 5.48474 1.66879 0
M  V30 1683 H 158.7 5.91615 1.00557 0
M  V30 1684 H 159.77 4.84835 0.0793299 0
M  V30 1685 N 161.113 -0.173488 1.56642 0
M  V30 1686 C 162.045 -1.23935 1.92802 0
M  V30 1687 C 163.058 -1.40589 0.820889 0
M  V30 1688 O 164.247 -1.40631 1.09933 0
M  V30 1689 C 161.347 -2.60837 2.16373 0
M  V30 1690 C 160.52 -2.6551 3.47596 0
M  V30 1691 C 159.579 -3.8376 3.60021 0
M  V30 1692 O 158.605 -3.69859 4.32658 0
M  V30 1693 N 159.807 -5.00127 2.94709 0
M  V30 1694 H 162.572 -0.932236 2.84832 0
M  V30 1695 H 160.133 -0.363268 1.57772 0
M  V30 1696 H 162.125 -3.38407 2.21952 0
M  V30 1697 H 160.695 -2.83948 1.30738 0
M  V30 1698 H 159.915 -1.74052 3.53694 0
M  V30 1699 H 161.203 -2.65641 4.33949 0
M  V30 1700 H 160.601 -5.14322 2.35563 0
M  V30 1701 H 159.158 -5.75567 3.05886 0
M  V30 1702 N 162.591 -1.51276 -0.441967 0
M  V30 1703 C 163.837 -1.63958 -1.19355 0
M  V30 1704 C 164.17 -0.352543 -1.90973 0
M  V30 1705 O 163.445 0.647627 -1.83401 0
M  V30 1706 C 163.728 -2.83979 -2.21422 0
M  V30 1707 C 163.581 -4.22646 -1.53918 0
M  V30 1708 C 164.9 -2.99521 -3.22451 0
M  V30 1709 H 162.019 -0.596709 -0.432559 0
M  V30 1710 H 164.661 -1.83748 -0.483398 0
M  V30 1711 H 162.811 -2.67237 -2.81987 0
M  V30 1712 H 164.483 -4.51045 -0.967256 0
M  V30 1713 H 162.726 -4.25558 -0.841615 0
M  V30 1714 H 163.397 -5.02609 -2.28229 0
M  V30 1715 H 165.873 -3.14944 -2.71937 0
M  V30 1716 H 164.749 -3.85072 -3.91166 0
M  V30 1717 H 165.01 -2.11391 -3.88287 0
M  V30 1718 N 164.069 0.697108 -1.41344 0
M  V30 1719 C 165.485 1.00751 -1.2378 0
M  V30 1720 C 165.685 2.01105 -0.126066 0
M  V30 1721 O 164.741 2.47295 0.51004 0
M  V30 1722 C 166.054 1.53359 -2.58653 0
M  V30 1723 C 167.602 1.6525 -2.65822 0
M  V30 1724 C 168.077 2.2126 -4.01009 0
M  V30 1725 N 169.568 2.28622 -4.02847 0
M  V30 1726 C 170.303 2.72984 -5.04249 0
M  V30 1727 N 169.799 3.16962 -6.16041 0
M  V30 1728 N 171.592 2.72534 -4.91611 0
M  V30 1729 H 163.743 0.0322662 -2.12375 0
M  V30 1730 H 166.006 0.0768853 -0.944877 0
M  V30 1731 H 165.712 0.870773 -3.4075 0
M  V30 1732 H 165.586 2.51597 -2.81032 0
M  V30 1733 H 167.973 2.30644 -1.84086 0
M  V30 1734 H 168.054 0.655614 -2.47256 0
M  V30 1735 H 167.698 1.56482 -4.83193 0
M  V30 1736 H 167.628 3.21698 -4.16915 0
M  V30 1737 H 170.119 1.97585 -3.22131 0
M  V30 1738 H 170.432 3.49434 -6.89287 0
M  V30 1739 H 168.777 3.14875 -6.1958 0
M  V30 1740 H 171.968 2.37525 -4.0336 0
M  V30 1741 H 172.141 3.06789 -5.70775 0
M  V30 1742 N 165.547 1.27147 0.931209 0
M  V30 1743 C 166.787 1.14511 1.69312 0
M  V30 1744 C 167.151 -0.304638 1.89568 0
M  V30 1745 O 168.352 -0.553343 2.63043 0
M  V30 1746 C 166.623 1.90349 3.02493 0
M  V30 1747 S 168.182 1.93884 3.93642 0
M  V30 1748 H 165 0.408858 0.581684 0
M  V30 1749 H 167.602 1.61006 1.10893 0
M  V30 1750 H 166.306 2.94877 2.85439 0
M  V30 1751 H 165.837 1.44333 3.65966 0
M  V30 1752 H 167.852 1.03273 4.85334 0
M  V30 1753 N 167.025 -1.13721 1.09112 0
M  V30 1754 C 167.988 -2.17222 0.731241 0
M  V30 1755 C 168.988 -1.59035 -0.237566 0
M  V30 1756 O 170.178 -1.74192 -0.0161704 0
M  V30 1757 C 167.31 -3.40804 0.0808443 0
M  V30 1758 H 168.503 -2.50573 1.64783 0
M  V30 1759 H 166.056 -1.28493 0.889897 0
M  V30 1760 H 166.791 -3.1304 -0.847127 0
M  V30 1761 H 166.576 -3.84306 0.777896 0
M  V30 1762 H 168.066 -4.1731 -0.155657 0
M  V30 1763 N 168.503 -0.877838 -1.30888 0
M  V30 1764 C 169.728 -0.506629 -2.01117 0
M  V30 1765 C 170.153 0.895564 -1.65412 0
M  V30 1766 O 169.511 1.5923 -0.866922 0
M  V30 1767 C 169.559 -0.680223 -3.54126 0
M  V30 1768 O 168.663 0.277033 -4.11468 0
M  V30 1769 H 168.004 -0.200518 -0.633 0
M  V30 1770 H 170.534 -1.18342 -1.66902 0
M  V30 1771 H 170.544 -0.5765 -4.03907 0
M  V30 1772 H 169.219 -1.70261 -3.79452 0
M  V30 1773 H 167.796 0.127606 -3.72682 0
M  V30 1774 N 169.982 1.44106 -0.638065 0
M  V30 1775 C 171.393 1.85316 -0.226894 0
M  V30 1776 C 171.744 1.53399 1.22324 0
M  V30 1777 O 170.869 0.975463 1.93167 0
M  V30 1778 C 171.464 3.3637 -0.405013 0
M  V30 1779 C 170.023 3.76369 -0.0482902 0
M  V30 1780 C 169.17 2.67921 -0.715108 0
M  V30 1781 H 172.121 1.34474 -0.842764 0
M  V30 1782 H 172.142 3.7885 0.354 0
M  V30 1783 H 171.654 3.59569 -1.46053 0
M  V30 1784 H 169.755 3.58784 1.00522 0
M  V30 1785 H 169.868 4.76856 -0.463187 0
M  V30 1786 H 168.232 2.54259 -0.149753 0
M  V30 1787 H 169.015 2.93951 -1.77335 0
M  V30 1788 N 171.46 0.379036 1.52974 0
M  V30 1789 C 172.685 -0.209353 2.06341 0
M  V30 1790 C 173.11 -1.40583 1.24972 0
M  V30 1791 O 172.468 -1.79246 0.272155 0
M  V30 1792 C 172.516 -0.567786 3.56102 0
M  V30 1793 O 171.62 -1.66318 3.77375 0
M  V30 1794 H 170.961 -0.0272919 0.663439 0
M  V30 1795 H 173.491 0.543536 1.97248 0
M  V30 1796 H 173.501 -0.835003 3.99364 0
M  V30 1797 H 172.176 0.307013 4.14765 0
M  V30 1798 H 170.753 -1.39048 3.46006 0
M  V30 1799 N 172.938 -1.57226 0.108567 0
M  V30 1800 C 173.868 -2.17778 -0.84232 0
M  V30 1801 C 174.849 -1.11487 -1.2847 0
M  V30 1802 O 176.034 -1.39681 -1.34918 0
M  V30 1803 C 173.164 -2.76888 -2.09644 0
M  V30 1804 C 172.118 -3.88669 -1.79221 0
M  V30 1805 C 171.444 -4.34541 -3.11574 0
M  V30 1806 C 172.744 -5.11251 -1.06864 0
M  V30 1807 H 174.438 -2.97489 -0.337774 0
M  V30 1808 H 171.984 -1.43097 -0.161025 0
M  V30 1809 H 173.937 -3.17904 -2.76614 0
M  V30 1810 H 172.661 -1.94451 -2.62405 0
M  V30 1811 H 171.32 -3.48213 -1.14644 0
M  V30 1812 H 170.968 -3.48977 -3.62249 0
M  V30 1813 H 170.668 -5.09914 -2.91996 0
M  V30 1814 H 172.192 -4.782 -3.7968 0
M  V30 1815 H 173.606 -5.49352 -1.63968 0
M  V30 1816 H 172.003 -5.9214 -0.974178 0
M  V30 1817 H 173.073 -4.8487 -0.0536168 0
M  V30 1818 N 174.416 0.165178 -1.56732 0
M  V30 1819 C 175.379 1.18822 -1.95995 0
M  V30 1820 C 176.379 1.3685 -0.84431 0
M  V30 1821 O 177.569 1.34152 -1.11126 0
M  V30 1822 C 174.701 2.5521 -2.26011 0
M  V30 1823 H 175.894 0.851825 -2.87548 0
M  V30 1824 H 173.447 0.407857 -1.50885 0
M  V30 1825 H 174.182 2.93852 -1.37191 0
M  V30 1826 H 173.967 2.43489 -3.07336 0
M  V30 1827 H 175.457 3.28927 -2.57288 0
M  V30 1828 N 175.894 1.51508 0.433938 0
M  V30 1829 C 176.857 1.72473 1.50949 0
M  V30 1830 C 177.857 0.594725 1.49398 0
M  V30 1831 O 179.047 0.862315 1.5136 0
M  V30 1832 C 176.179 1.78431 2.90474 0
M  V30 1833 H 177.372 2.68467 1.33662 0
M  V30 1834 H 174.925 1.41549 0.662836 0
M  V30 1835 H 175.66 0.842645 3.13161 0
M  V30 1836 H 175.445 2.60558 2.93005 0
M  V30 1837 H 176.935 1.96479 3.68491 0
M  V30 1838 N 177.372 -0.689602 1.41712 0
M  V30 1839 C 178.322 -1.79571 1.40493 0
M  V30 1840 C 179.306 -1.58473 0.278409 0
M  V30 1841 O 180.498 -1.69204 0.519532 0
M  V30 1842 C 177.627 -3.17923 1.29536 0
M  V30 1843 C 176.713 -3.44695 2.47075 0
M  V30 1844 N 177.104 -3.42132 3.72531 0
M  V30 1845 C 175.402 -3.75269 2.41017 0
M  V30 1846 C 176.103 -3.67976 4.50521 0
M  V30 1847 N 175.079 -3.88014 3.80718 0
M  V30 1848 H 178.881 -1.75961 2.35404 0
M  V30 1849 H 176.395 -0.889839 1.35851 0
M  V30 1850 H 178.392 -3.97167 1.26745 0
M  V30 1851 H 177.052 -3.22741 0.356153 0
M  V30 1852 H 178.063 -3.22375 4.05333 0
M  V30 1853 H 174.74 -3.87421 1.55599 0
M  V30 1854 H 176.13 -3.7208 5.59469 0
M  V30 1855 N 178.85 -1.27639 -0.924453 0
M  V30 1856 C 180.098 -1.13941 -1.66918 0
M  V30 1857 C 180.419 0.314589 -1.92446 0
M  V30 1858 O 179.689 1.21964 -1.53303 0
M  V30 1859 H 178.269 -0.418678 -0.618642 0
M  V30 1860 H 180.931 -1.60213 -1.10985 0
M  V30 1861 H 180.027 -1.67094 -2.63602 0
M  V30 1862 N 180.328 1.1314 -1.09713 0
M  V30 1863 C 181.739 1.66029 -0.853885 0
M  V30 1864 C 182.09 1.86241 0.617142 0
M  V30 1865 O 181.215 1.5834 1.47503 0
M  V30 1866 C 181.81 3.01599 -1.5435 0
M  V30 1867 C 180.369 3.51467 -1.34714 0
M  V30 1868 C 179.516 2.26648 -1.59769 0
M  V30 1869 H 182.467 0.970226 -1.25588 0
M  V30 1870 H 182.488 3.67709 -0.978267 0
M  V30 1871 H 182 2.86856 -2.6141 0
M  V30 1872 H 180.101 3.71408 -0.297838 0
M  V30 1873 H 180.214 4.314 -2.08401 0
M  V30 1874 H 178.578 2.33385 -1.01998 0
M  V30 1875 H 179.361 2.14467 -2.68065 0
M  V30 1876 N 181.806 0.884767 1.30421 0
M  V30 1877 C 182.736 0.367574 2.30589 0
M  V30 1878 C 183.717 -0.549464 1.60981 0
M  V30 1879 O 184.902 -0.46336 1.88591 0
M  V30 1880 C 182.032 -0.418944 3.44764 0
M  V30 1881 C 180.986 0.406316 4.26067 0
M  V30 1882 C 180.312 -0.506793 5.32293 0
M  V30 1883 C 181.612 1.64832 4.95608 0
M  V30 1884 H 183.306 1.20462 2.74097 0
M  V30 1885 H 180.852 0.580695 1.31772 0
M  V30 1886 H 182.805 -0.791395 4.13902 0
M  V30 1887 H 181.529 -1.28964 3.0006 0
M  V30 1888 H 180.188 0.760903 3.58617 0
M  V30 1889 H 179.836 -1.37519 4.83836 0
M  V30 1890 H 179.536 0.0415828 5.87585 0
M  V30 1891 H 181.06 -0.875764 6.04287 0
M  V30 1892 H 182.474 1.34646 5.57264 0
M  V30 1893 H 180.871 2.13688 5.60765 0
M  V30 1894 H 181.941 2.39284 4.21748 0
M  V30 1895 N 183.284 -1.43765 0.645699 0
M  V30 1896 C 184.532 -2.01499 0.155731 0
M  V30 1897 C 184.853 -1.51151 -1.232 0
M  V30 1898 O 184.123 -0.721044 -1.82148 0
M  V30 1899 H 182.703 -0.745003 0.0545817 0
M  V30 1900 H 185.365 -1.76075 0.835677 0
M  V30 1901 H 184.461 -3.1181 0.134577 0
M  V30 1902 N 184.763 -0.387143 -1.52771 0
M  V30 1903 C 186.179 -0.037007 -1.59557 0
M  V30 1904 C 186.379 1.44801 -1.40124 0
M  V30 1905 O 185.435 2.21227 -1.21716 0
M  V30 1906 C 186.748 -0.512256 -2.96305 0
M  V30 1907 C 188.296 -0.468328 -3.09476 0
M  V30 1908 C 188.771 -0.919731 -4.4867 0
M  V30 1909 N 190.262 -0.875656 -4.54848 0
M  V30 1910 C 190.997 -1.19637 -5.6078 0
M  V30 1911 N 190.493 -1.58745 -6.74368 0
M  V30 1912 N 192.286 -1.11776 -5.50874 0
M  V30 1913 H 184.437 -1.35395 -1.63652 0
M  V30 1914 H 186.7 -0.554818 -0.768688 0
M  V30 1915 H 186.406 -1.54935 -3.15734 0
M  V30 1916 H 186.28 0.089805 -3.77093 0
M  V30 1917 H 188.667 0.559671 -2.89744 0
M  V30 1918 H 188.748 -1.10616 -2.30646 0
M  V30 1919 H 188.392 -1.94595 -4.69143 0
M  V30 1920 H 188.322 -0.258927 -5.25963 0
M  V30 1921 H 190.813 -0.587843 -3.733 0
M  V30 1922 H 191.126 -1.81586 -7.51163 0
M  V30 1923 H 189.471 -1.6263 -6.75705 0
M  V30 1924 H 192.662 -0.811264 -4.61016 0
M  V30 1925 H 192.835 -1.37103 -6.3333 0
M  V30 1926 N 186.241 1.57166 -0.116904 0
M  V30 1927 C 187.171 2.18222 0.830759 0
M  V30 1928 C 188.152 1.12167 1.27877 0
M  V30 1929 O 189.337 1.40394 1.34176 0
M  V30 1930 C 186.467 2.77996 2.08172 0
M  V30 1931 C 185.421 3.89614 1.77157 0
M  V30 1932 C 184.747 4.36187 3.09265 0
M  V30 1933 C 186.047 5.1181 1.04151 0
M  V30 1934 H 187.741 2.97664 0.321992 0
M  V30 1935 H 185.287 1.4318 0.153434 0
M  V30 1936 H 187.24 3.19366 2.74924 0
M  V30 1937 H 185.964 1.9584 2.6137 0
M  V30 1938 H 184.623 3.48816 1.12796 0
M  V30 1939 H 184.271 3.50893 3.60393 0
M  V30 1940 H 183.971 5.11455 2.89288 0
M  V30 1941 H 185.495 4.80207 3.77139 0
M  V30 1942 H 186.909 5.50214 1.61052 0
M  V30 1943 H 185.306 5.92648 0.942762 0
M  V30 1944 H 186.376 4.84892 0.0279022 0
M  V30 1945 N 187.719 -0.156864 1.56817 0
M  V30 1946 C 188.947 -0.886316 1.86955 0
M  V30 1947 C 189.362 -1.75185 0.703975 0
M  V30 1948 O 188.719 -1.79555 -0.326552 0
M  V30 1949 C 188.77 -1.75117 3.16253 0
M  V30 1950 O 188.491 -0.920537 4.2832 0
M  V30 1951 C 189.992 -2.58905 3.59837 0
M  V30 1952 H 187.212 -0.25678 0.619923 0
M  V30 1953 H 189.756 -0.152615 2.0393 0
M  V30 1954 H 187.911 -2.43805 3.01062 0
M  V30 1955 H 188.325 -1.51337 5.02192 0
M  V30 1956 H 189.799 -3.1518 4.53172 0
M  V30 1957 H 190.276 -3.34472 2.84649 0
M  V30 1958 H 190.882 -1.95526 3.7769 0
M  V30 1959 N 189.197 -1.51736 -0.425897 0
M  V30 1960 C 190.445 -1.64644 -1.17204 0
M  V30 1961 C 190.766 -0.370486 -1.91448 0
M  V30 1962 O 190.036 0.614088 -1.86026 0
M  V30 1963 H 188.616 -0.606819 -0.435638 0
M  V30 1964 H 191.278 -1.88713 -0.487177 0
M  V30 1965 H 190.374 -2.47958 -1.89534 0
M  V30 1966 N 190.675 0.682077 -1.42076 0
M  V30 1967 C 191.905 1.46844 -1.45329 0
M  V30 1968 C 192.313 1.89102 -0.0609328 0
M  V30 1969 O 191.656 1.58238 0.933082 0
M  V30 1970 C 191.718 2.75375 -2.31104 0
M  V30 1971 C 191.382 2.55238 -3.79081 0
M  V30 1972 C 192.379 2.20309 -4.70914 0
M  V30 1973 C 190.064 2.70459 -4.2327 0
M  V30 1974 C 192.058 2.00859 -6.04925 0
M  V30 1975 C 189.745 2.50624 -5.57343 0
M  V30 1976 C 190.743 2.15876 -6.47986 0
M  V30 1977 O 190.431 1.96227 -7.79583 0
M  V30 1978 H 190.163 0.4586 -0.496651 0
M  V30 1979 H 192.717 0.846131 -1.87162 0
M  V30 1980 H 190.947 3.40061 -1.84107 0
M  V30 1981 H 192.636 3.37231 -2.25898 0
M  V30 1982 H 193.402 2.08153 -4.38061 0
M  V30 1983 H 189.281 2.96485 -3.53012 0
M  V30 1984 H 192.825 1.7366 -6.75639 0
M  V30 1985 H 188.722 2.62375 -5.89771 0
M  V30 1986 H 189.49 2.10883 -7.90867 0
M  V30 1987 N 192.153 1.28127 0.917671 0
M  V30 1988 C 193.085 1.07517 2.02417 0
M  V30 1989 C 194.098 0.0281099 1.62776 0
M  V30 1990 O 195.287 0.270748 1.76435 0
M  V30 1991 C 192.387 0.610957 3.33347 0
M  V30 1992 C 191.56 1.73255 4.01624 0
M  V30 1993 C 190.619 1.26238 5.10833 0
M  V30 1994 O 189.645 1.96389 5.34247 0
M  V30 1995 N 190.847 0.123448 5.80369 0
M  V30 1996 H 193.612 2.02806 2.20658 0
M  V30 1997 H 191.173 1.19827 1.08871 0
M  V30 1998 H 193.165 0.280101 4.0373 0
M  V30 1999 H 191.735 -0.24898 3.11607 0
M  V30 2000 H 190.955 2.23319 3.24842 0
M  V30 2001 H 192.243 2.48503 4.43986 0
M  V30 2002 H 191.641 -0.461847 5.63812 0
M  V30 2003 H 190.198 -0.148158 6.51632 0
M  V30 2004 N 193.631 -1.12557 1.10312 0
M  V30 2005 C 194.561 -2.20341 0.772798 0
M  V30 2006 C 195.542 -1.68198 -0.25365 0
M  V30 2007 O 196.727 -1.93831 -0.119699 0
M  V30 2008 C 193.857 -3.46709 0.202443 0
M  V30 2009 C 192.811 -4.11996 1.15943 0
M  V30 2010 C 192.137 -5.328 0.450345 0
M  V30 2011 C 193.437 -4.5828 2.50552 0
M  V30 2012 H 195.131 -2.48229 1.674 0
M  V30 2013 H 192.677 -1.19308 0.806326 0
M  V30 2014 H 194.63 -4.2138 -0.0407752 0
M  V30 2015 H 193.354 -3.18245 -0.734001 0
M  V30 2016 H 192.013 -3.39305 1.38808 0
M  V30 2017 H 191.661 -5.00602 -0.490531 0
M  V30 2018 H 191.361 -5.7743 1.08851 0
M  V30 2019 H 192.885 -6.10219 0.215642 0
M  V30 2020 H 194.299 -5.2433 2.31843 0
M  V30 2021 H 192.696 -5.13683 3.10242 0
M  V30 2022 H 193.766 -3.72329 3.10643 0
M  V30 2023 N 195.109 -0.891671 -1.2995 0
M  V30 2024 C 196.357 -0.512486 -1.95494 0
M  V30 2025 C 196.678 0.942776 -1.70695 0
M  V30 2026 O 195.948 1.66374 -1.03424 0
M  V30 2027 H 194.528 -0.186533 -0.723336 0
M  V30 2028 H 197.19 -1.13621 -1.58355 0
M  V30 2029 H 196.286 -0.688342 -3.04415 0
M  V30 2030 N 196.587 1.43421 -0.653314 0
M  V30 2031 C 197.812 2.06678 -0.172846 0
M  V30 2032 C 198.237 1.48648 1.15262 0
M  V30 2033 O 197.595 0.596457 1.71208 0
M  V30 2034 C 197.643 3.60474 -0.0953184 0
M  V30 2035 O 196.747 4.01487 0.942442 0
M  V30 2036 H 196.088 0.657181 -0.0949155 0
M  V30 2037 H 198.618 1.83925 -0.896265 0
M  V30 2038 H 198.628 4.07905 0.0879728 0
M  V30 2039 H 197.303 4.02088 -1.06291 0
M  V30 2040 H 195.88 3.65646 0.731932 0
M  V30 2041 N 198.065 0.39524 1.52563 0
M  V30 2042 C 199.305 -0.184744 2.03563 0
M  V30 2043 C 199.669 -1.43548 1.27507 0
M  V30 2044 O 200.87 -2.093 1.68662 0
M  V30 2045 C 199.141 -0.440294 3.54678 0
M  V30 2046 S 200.7 -0.989712 4.27493 0
M  V30 2047 H 197.518 -0.0515075 0.709132 0
M  V30 2048 H 200.12 0.544957 1.87751 0
M  V30 2049 H 198.824 0.477005 4.07618 0
M  V30 2050 H 198.355 -1.19825 3.74707 0
M  V30 2051 H 200.37 -2.27155 4.41152 0
M  V30 2052 N 199.544 -1.57102 0.125237 0
M  V30 2053 C 200.792 -1.95021 -0.530198 0
M  V30 2054 C 201.113 -1.00982 -1.66816 0
M  V30 2055 O 200.383 -0.0672693 -1.95784 0
M  V30 2056 H 198.963 -0.720046 -0.198853 0
M  V30 2057 H 201.625 -1.93916 0.19564 0
M  V30 2058 H 200.721 -2.98211 -0.920681 0
M  V30 2059 N 201.022 0.148545 -1.56898 0
M  V30 2060 C 202.268 0.857877 -1.84424 0
M  V30 2061 C 202.623 1.7886 -0.709006 0
M  V30 2062 O 201.916 1.89344 0.293139 0
M  V30 2063 C 202.11 1.67064 -3.1595 0
M  V30 2064 C 201.939 0.82011 -4.42159 0
M  V30 2065 C 200.709 0.486328 -5.02954 0
M  V30 2066 C 202.907 0.151155 -5.14078 0
M  V30 2067 N 200.889 -0.377956 -6.12735 0
M  V30 2068 C 202.26 -0.573333 -6.17343 0
M  V30 2069 C 204.315 0.0716685 -4.97848 0
M  V30 2070 C 203.018 -1.3698 -7.06137 0
M  V30 2071 C 205.044 -0.711532 -5.87104 0
M  V30 2072 C 204.406 -1.42431 -6.8985 0
M  V30 2073 H 200.505 0.291798 -0.725519 0
M  V30 2074 H 203.089 0.123347 -1.94309 0
M  V30 2075 H 201.26 2.37642 -3.07215 0
M  V30 2076 H 202.992 2.32302 -3.31388 0
M  V30 2077 H 199.747 0.821753 -4.66416 0
M  V30 2078 H 200.171 -0.801077 -6.72244 0
M  V30 2079 H 204.813 0.608381 -4.184 0
M  V30 2080 H 202.531 -1.91778 -7.85014 0
M  V30 2081 H 206.117 -0.775005 -5.76615 0
M  V30 2082 H 204.997 -2.02061 -7.57721 0
M  V30 2083 N 202.5 1.5196 0.417844 0
M  V30 2084 C 203.432 1.70895 1.52733 0
M  V30 2085 C 204.445 0.589405 1.51756 0
M  V30 2086 O 205.634 0.864312 1.56179 0
M  V30 2087 C 202.734 1.72627 2.91639 0
M  V30 2088 C 201.907 3.01479 3.16905 0
M  V30 2089 C 200.966 2.95139 4.35637 0
M  V30 2090 O 199.992 3.69059 4.3334 0
M  V30 2091 N 201.194 2.12328 5.40275 0
M  V30 2092 H 203.959 2.66612 1.36888 0
M  V30 2093 H 201.52 1.50089 0.607037 0
M  V30 2094 H 203.512 1.65928 3.6912 0
M  V30 2095 H 202.082 0.844216 3.00985 0
M  V30 2096 H 201.302 3.21895 2.27546 0
M  V30 2097 H 202.59 3.86736 3.30625 0
M  V30 2098 H 201.988 1.51685 5.44985 0
M  V30 2099 H 200.545 2.11494 6.16534 0
M  V30 2100 N 203.978 -0.674533 1.42435 0
M  V30 2101 C 204.908 -1.80009 1.48724 0
M  V30 2102 C 205.889 -1.6659 0.343793 0
M  V30 2103 O 207.074 -1.86007 0.558137 0
M  V30 2104 C 204.204 -3.18306 1.38919 0
M  V30 2105 C 203.158 -3.46461 2.51294 0
M  V30 2106 C 202.484 -4.84335 2.26547 0
M  V30 2107 C 203.784 -3.43328 3.93603 0
M  V30 2108 H 205.478 -1.75004 2.42928 0
M  V30 2109 H 203.024 -0.840533 1.16923 0
M  V30 2110 H 204.977 -3.9678 1.41927 0
M  V30 2111 H 203.701 -3.2399 0.412094 0
M  V30 2112 H 202.36 -2.70348 2.47604 0
M  V30 2113 H 202.008 -4.86669 1.2713 0
M  V30 2114 H 201.708 -5.04136 3.01861 0
M  V30 2115 H 203.232 -5.65094 2.31304 0
M  V30 2116 H 204.646 -4.11772 3.98894 0
M  V30 2117 H 203.043 -3.74664 4.68771 0
M  V30 2118 H 204.113 -2.41897 4.20255 0
M  V30 2119 N 205.456 -1.28612 -0.910864 0
M  V30 2120 C 206.388 -1.08589 -2.01844 0
M  V30 2121 C 207.401 -0.0367419 -1.62759 0
M  V30 2122 O 208.59 -0.280101 -1.76289 0
M  V30 2123 C 205.69 -0.628626 -3.33019 0
M  V30 2124 C 204.863 -1.75382 -4.00699 0
M  V30 2125 C 203.922 -1.28945 -5.10156 0
M  V30 2126 O 202.948 -1.9922 -5.33198 0
M  V30 2127 N 204.15 -0.154224 -5.80295 0
M  V30 2128 H 206.915 -2.03973 -2.19579 0
M  V30 2129 H 204.476 -1.20403 -1.08234 0
M  V30 2130 H 206.468 -0.301508 -4.03575 0
M  V30 2131 H 205.038 0.232451 -3.11735 0
M  V30 2132 H 204.258 -2.25039 -3.23653 0
M  V30 2133 H 205.546 -2.50854 -4.42662 0
M  V30 2134 H 204.944 0.43194 -5.64049 0
M  V30 2135 H 203.501 0.113599 -6.51701 0
M  V30 2136 N 206.934 1.1197 -1.10907 0
M  V30 2137 C 207.897 2.16031 -0.765707 0
M  V30 2138 C 208.897 1.59393 0.212235 0
M  V30 2139 O 210.087 1.74196 -0.0115441 0
M  V30 2140 C 207.219 3.40632 -0.135053 0
M  V30 2141 H 208.412 2.47919 -1.68748 0
M  V30 2142 H 205.965 1.27061 -0.910226 0
M  V30 2143 H 206.7 3.14348 0.797218 0
M  V30 2144 H 206.485 3.8302 -0.838937 0
M  V30 2145 H 207.975 4.17505 0.0892469 0
M  V30 2146 N 208.412 0.89855 1.29475 0
M  V30 2147 C 209.637 0.538561 2.00285 0
M  V30 2148 C 210.062 -0.869135 1.66816 0
M  V30 2149 O 209.42 -1.57831 0.892145 0
M  V30 2150 C 209.468 0.736475 3.52999 0
M  V30 2151 O 208.572 -0.211537 4.11857 0
M  V30 2152 H 207.913 0.210563 0.62973 0
M  V30 2153 H 210.443 1.20982 1.64998 0
M  V30 2154 H 210.453 0.640685 4.02938 0
M  V30 2155 H 209.128 1.76276 3.76696 0
M  V30 2156 H 207.705 -0.0682991 3.72837 0
M  V30 2157 N 209.89 -1.43072 0.660911 0
M  V30 2158 C 211.136 -2.02545 0.186337 0
M  V30 2159 C 211.491 -1.51253 -1.18913 0
M  V30 2160 O 210.784 -0.699167 -1.78388 0
M  V30 2161 C 210.978 -3.57103 0.145563 0
M  V30 2162 C 210.807 -4.23393 1.51554 0
M  V30 2163 C 209.577 -4.59144 2.10984 0
M  V30 2164 C 211.775 -4.51897 2.45548 0
M  V30 2165 N 209.757 -5.10545 3.40907 0
M  V30 2166 C 211.128 -5.04698 3.6011 0
M  V30 2167 C 213.183 -4.33872 2.44253 0
M  V30 2168 C 211.886 -5.41371 4.73613 0
M  V30 2169 C 213.912 -4.71612 3.56842 0
M  V30 2170 C 213.274 -5.24553 4.70131 0
M  V30 2171 H 209.373 -0.773823 0.112792 0
M  V30 2172 H 211.957 -1.74137 0.870885 0
M  V30 2173 H 210.128 -3.85059 -0.508353 0
M  V30 2174 H 211.86 -4.03264 -0.340598 0
M  V30 2175 H 208.615 -4.4444 1.63615 0
M  V30 2176 H 209.039 -5.40689 4.07411 0
M  V30 2177 H 213.681 -3.92208 1.579 0
M  V30 2178 H 211.399 -5.81975 5.60652 0
M  V30 2179 H 214.985 -4.59354 3.57051 0
M  V30 2180 H 213.865 -5.53213 5.5581 0
M  V30 2181 N 211.368 -0.403325 -1.52352 0
M  V30 2182 C 212.614 0.174605 -2.02047 0
M  V30 2183 C 212.947 1.45282 -1.28867 0
M  V30 2184 O 212.222 1.90483 -0.393257 0
M  V30 2185 C 212.505 0.428238 -3.57545 0
M  V30 2186 C 212.358 -0.866248 -4.4138 0
M  V30 2187 C 213.677 1.21287 -4.23057 0
M  V30 2188 H 210.796 0.0619851 -0.734389 0
M  V30 2189 H 213.438 -0.53565 -1.82293 0
M  V30 2190 H 211.588 1.03327 -3.74507 0
M  V30 2191 H 213.26 -1.50265 -4.3614 0
M  V30 2192 H 211.503 -1.47851 -4.07827 0
M  V30 2193 H 212.174 -0.643249 -5.48239 0
M  V30 2194 H 214.65 0.700703 -4.10158 0
M  V30 2195 H 213.526 1.35909 -5.31808 0
M  V30 2196 H 213.787 2.23193 -3.81625 0
M  V30 2197 N 212.846 1.57033 -0.133567 0
M  V30 2198 C 214.262 1.58035 0.222944 0
M  V30 2199 C 214.462 1.14713 1.6566 0
M  V30 2200 O 213.518 0.841218 2.38075 0
M  V30 2201 C 214.831 3.00691 -0.0236116 0
M  V30 2202 C 216.379 3.12973 0.0411512 0
M  V30 2203 C 216.854 4.57654 -0.177899 0
M  V30 2204 N 218.345 4.63033 -0.124365 0
M  V30 2205 C 219.08 5.72771 -0.268553 0
M  V30 2206 N 218.576 6.91206 -0.46972 0
M  V30 2207 N 220.369 5.61718 -0.2071 0
M  V30 2208 H 212.52 1.8349 -1.06981 0
M  V30 2209 H 214.783 0.848677 -0.422436 0
M  V30 2210 H 214.489 3.36726 -1.0153 0
M  V30 2211 H 214.363 3.70614 0.701808 0
M  V30 2212 H 216.75 2.76787 1.02338 0
M  V30 2213 H 216.831 2.45564 -0.716383 0
M  V30 2214 H 216.475 4.94542 -1.15717 0
M  V30 2215 H 216.405 5.23173 0.599797 0
M  V30 2216 H 218.896 3.7789 0.027011 0
M  V30 2217 H 219.209 7.70693 -0.570212 0
M  V30 2218 H 217.554 6.93156 -0.505876 0
M  V30 2219 H 220.745 4.68072 -0.0507986 0
M  V30 2220 H 220.918 6.47195 -0.322909 0
M  V30 2221 N 214.325 -0.140222 1.56975 0
M  V30 2222 C 215.736 -0.699596 1.73097 0
M  V30 2223 C 216.087 -1.8134 0.749022 0
M  V30 2224 O 215.212 -2.16241 -0.0828503 0
M  V30 2225 C 215.807 -1.27582 3.1386 0
M  V30 2226 C 214.366 -1.78169 3.31561 0
M  V30 2227 C 213.513 -0.672855 2.69013 0
M  V30 2228 H 216.464 0.0855115 1.58469 0
M  V30 2229 H 216.485 -2.14561 3.14235 0
M  V30 2230 H 215.997 -0.464955 3.85305 0
M  V30 2231 H 214.098 -2.61801 2.65124 0
M  V30 2232 H 214.211 -1.90574 4.39566 0
M  V30 2233 H 212.575 -1.10118 2.29665 0
M  V30 2234 H 213.358 0.126679 3.43066 0
M  V30 2235 N 215.803 -1.52179 -0.40978 0
M  V30 2236 C 217.051 -1.65878 -1.15451 0
M  V30 2237 C 217.372 -0.390771 -1.91044 0
M  V30 2238 O 216.642 0.594323 -1.86667 0
M  V30 2239 H 215.222 -0.611405 -0.429177 0
M  V30 2240 H 217.884 -1.89219 -0.467134 0
M  V30 2241 H 216.98 -2.49954 -1.86894 0
M  V30 2242 N 217.281 0.66697 -1.42791 0
M  V30 2243 C 218.527 1.4291 -1.43891 0
M  V30 2244 C 218.86 1.94114 -0.0578972 0
M  V30 2245 O 218.135 1.71414 0.91911 0
M  V30 2246 C 218.418 2.62049 -2.46987 0
M  V30 2247 C 218.271 2.16426 -3.94309 0
M  V30 2248 C 219.59 3.64266 -2.46978 0
M  V30 2249 H 216.709 0.518306 -0.523954 0
M  V30 2250 H 219.351 0.757321 -1.74255 0
M  V30 2251 H 217.501 3.19361 -2.21225 0
M  V30 2252 H 219.173 1.64221 -4.31079 0
M  V30 2253 H 217.416 1.47925 -4.078 0
M  V30 2254 H 218.087 3.02038 -4.62036 0
M  V30 2255 H 220.563 3.16686 -2.69906 0
M  V30 2256 H 219.439 4.45196 -3.21079 0
M  V30 2257 H 219.7 4.15927 -1.49857 0
M  V30 2258 N 218.759 1.29093 0.90403 0
M  V30 2259 C 219.689 1.16401 2.02418 0
M  V30 2260 C 220.67 0.0593085 1.69997 0
M  V30 2261 O 221.855 0.238021 1.92736 0
M  V30 2262 C 218.985 0.835233 3.37107 0
M  V30 2263 C 217.939 1.89578 3.83724 0
M  V30 2264 C 217.265 1.42041 5.15489 0
M  V30 2265 C 218.565 3.30394 4.04521 0
M  V30 2266 H 220.259 2.10109 2.13295 0
M  V30 2267 H 217.805 1.01157 1.02486 0
M  V30 2268 H 219.758 0.733169 4.14973 0
M  V30 2269 H 218.482 -0.137543 3.2631 0
M  V30 2270 H 217.141 1.98715 3.08071 0
M  V30 2271 H 216.789 0.436426 5.01103 0
M  V30 2272 H 216.489 2.12964 5.4765 0
M  V30 2273 H 218.013 1.33176 5.959 0
M  V30 2274 H 219.427 3.24123 4.72882 0
M  V30 2275 H 217.824 3.99237 4.48029 0
M  V30 2276 H 218.894 3.73692 3.09002 0
M  V30 2277 N 220.237 -1.11381 1.11499 0
M  V30 2278 C 221.483 -1.83597 0.875423 0
M  V30 2279 C 221.838 -1.83048 -0.592555 0
M  V30 2280 O 221.131 -1.27304 -1.43193 0
M  V30 2281 C 221.325 -3.30026 1.37177 0
M  V30 2282 C 221.154 -3.44837 2.88647 0
M  V30 2283 C 219.924 -3.57825 3.56776 0
M  V30 2284 C 222.122 -3.3907 3.86699 0
M  V30 2285 N 220.104 -3.61113 4.96458 0
M  V30 2286 C 221.475 -3.48986 5.12454 0
M  V30 2287 C 223.53 -3.22605 3.7925 0
M  V30 2288 C 222.233 -3.44135 6.31636 0
M  V30 2289 C 224.259 -3.19072 4.97943 0
M  V30 2290 C 223.621 -3.29559 6.22551 0
M  V30 2291 H 219.72 -0.687044 0.37349 0
M  V30 2292 H 222.304 -1.33265 1.41946 0
M  V30 2293 H 220.475 -3.78874 0.854919 0
M  V30 2294 H 222.207 -3.90153 1.07529 0
M  V30 2295 H 218.962 -3.60414 3.07244 0
M  V30 2296 H 219.386 -3.66394 5.69284 0
M  V30 2297 H 224.028 -3.13382 2.83816 0
M  V30 2298 H 221.746 -3.52126 7.27347 0
M  V30 2299 H 225.332 -3.07498 4.93899 0
M  V30 2300 H 224.212 -3.26815 7.12855 0
M  V30 2301 N 221.715 -0.905404 -1.28997 0
M  V30 2302 C 222.992 -0.453513 -1.9027 0
M  V30 2303 C 223.372 1.06721 -1.82137 0
M  V30 2304 O 222.72 1.91159 -1.25182 0
M  V30 2305 C 222.93 -0.974494 -3.35119 0
M  V30 2306 C 224.278 -1.0216 -4.12127 0
M  V30 2307 O 225.302 -0.922557 -3.44046 0
M  V30 2308 O 224.161 -1.17121 -5.33802 0
M  V30 2309 H 221.255 -0.142347 -0.814657 0
M  V30 2310 H 223.801 -0.995642 -1.37423 0
M  V30 2311 H 222.573 -2.01848 -3.35221 0
M  V30 2312 H 222.196 -0.412706 -3.95452 0
M  V30 2313 N 223.193 1.4272 -0.668489 0
M  V30 2314 C 224.439 2.01923 -0.188419 0
M  V30 2315 C 224.772 1.52704 1.19979 0
M  V30 2316 O 224.047 0.726566 1.8042 0
M  V30 2317 C 224.33 3.59451 -0.216085 0
M  V30 2318 C 224.183 4.18864 -1.6393 0
M  V30 2319 C 225.502 4.37903 0.439179 0
M  V30 2320 H 222.621 0.733674 -0.0699412 0
M  V30 2321 H 225.263 1.69822 -0.852076 0
M  V30 2322 H 223.413 3.86929 0.349012 0
M  V30 2323 H 225.085 4.02362 -2.25616 0
M  V30 2324 H 223.328 3.74933 -2.18193 0
M  V30 2325 H 223.999 5.27987 -1.61039 0
M  V30 2326 H 226.475 4.16079 -0.0417878 0
M  V30 2327 H 225.351 5.47519 0.389157 0
M  V30 2328 H 225.612 4.15303 1.51577 0
M  V30 2329 N 224.671 0.411399 1.52136 0
M  V30 2330 C 225.634 -0.401089 2.25663 0
M  V30 2331 C 226.634 -0.971732 1.28117 0
M  V30 2332 O 227.824 -0.850254 1.52041 0
M  V30 2333 C 224.956 -1.56483 3.02863 0
M  V30 2334 H 226.149 0.24295 2.98914 0
M  V30 2335 H 223.702 0.163968 1.55438 0
M  V30 2336 H 224.437 -2.24567 2.33967 0
M  V30 2337 H 224.222 -1.16211 3.74483 0
M  V30 2338 H 225.712 -2.13951 3.58629 0
M  V30 2339 N 226.149 -1.5696 0.141893 0
M  V30 2340 C 227.079 -2.19516 -0.795936 0
M  V30 2341 C 228.06 -1.14187 -1.26077 0
M  V30 2342 O 229.245 -1.42511 -1.31925 0
M  V30 2343 C 226.375 -2.81272 -2.03723 0
M  V30 2344 C 225.329 -3.92384 -1.70936 0
M  V30 2345 C 224.655 -4.41052 -3.02287 0
M  V30 2346 C 225.955 -5.13403 -0.959954 0
M  V30 2347 H 227.649 -2.98138 -0.274596 0
M  V30 2348 H 225.195 -1.43406 -0.130636 0
M  V30 2349 H 227.148 -3.237 -2.69808 0
M  V30 2350 H 225.872 -1.99973 -2.58221 0
M  V30 2351 H 224.531 -3.50566 -1.07232 0
M  V30 2352 H 224.179 -3.56582 -3.54765 0
M  V30 2353 H 223.879 -5.15993 -2.81114 0
M  V30 2354 H 225.403 -4.86146 -3.69451 0
M  V30 2355 H 226.817 -5.52706 -1.52279 0
M  V30 2356 H 225.214 -5.94073 -0.848357 0
M  V30 2357 H 226.284 -4.84875 0.0492434 0
M  V30 2358 N 227.627 0.131896 -1.57047 0
M  V30 2359 C 228.873 0.843179 -1.84441 0
M  V30 2360 C 229.206 1.80129 -0.725749 0
M  V30 2361 O 228.481 1.92624 0.269469 0
M  V30 2362 C 228.764 1.60442 -3.22382 0
M  V30 2363 C 228.617 0.666782 -4.4483 0
M  V30 2364 C 229.936 2.56354 -3.5773 0
M  V30 2365 H 227.055 0.305081 -0.670891 0
M  V30 2366 H 229.697 0.107839 -1.89694 0
M  V30 2367 H 227.847 2.23128 -3.18035 0
M  V30 2368 H 229.519 0.0497646 -4.61273 0
M  V30 2369 H 227.762 -0.022609 -4.33794 0
M  V30 2370 H 228.433 1.23579 -5.37989 0
M  V30 2371 H 230.909 2.0378 -3.62785 0
M  V30 2372 H 229.785 3.06657 -4.5525 0
M  V30 2373 H 230.046 3.38419 -2.84473 0
M  V30 2374 N 229.106 1.52395 0.401703 0
M  V30 2375 C 230.069 1.75636 1.47257 0
M  V30 2376 C 231.069 0.62628 1.48103 0
M  V30 2377 O 232.259 0.894227 1.49497 0
M  V30 2378 C 229.391 1.84553 2.86624 0
M  V30 2379 H 230.584 2.71241 1.27938 0
M  V30 2380 H 228.137 1.42923 0.632662 0
M  V30 2381 H 228.872 0.908882 3.11303 0
M  V30 2382 H 228.657 2.66715 2.87412 0
M  V30 2383 H 230.147 2.04251 3.64241 0
M  V30 2384 N 230.584 -0.659388 1.43143 0
M  V30 2385 C 231.83 -1.42145 1.44647 0
M  V30 2386 C 232.163 -1.9408 0.0681907 0
M  V30 2387 O 231.438 -1.71899 -0.910007 0
M  V30 2388 C 231.721 -2.60735 2.48373 0
M  V30 2389 C 231.574 -2.14332 3.95451 0
M  V30 2390 C 232.893 -3.62951 2.48906 0
M  V30 2391 H 230.012 -0.51552 0.526696 0
M  V30 2392 H 232.654 -0.748069 1.74654 0
M  V30 2393 H 230.804 -3.18184 2.22916 0
M  V30 2394 H 232.476 -1.61932 4.31944 0
M  V30 2395 H 230.719 -1.4576 4.08578 0
M  V30 2396 H 231.39 -2.99583 4.63631 0
M  V30 2397 H 233.866 -3.1525 2.71582 0
M  V30 2398 H 232.742 -4.43487 3.23435 0
M  V30 2399 H 233.003 -4.15126 1.52061 0
M  V30 2400 N 232.062 -1.29571 -0.897171 0
M  V30 2401 C 233.025 -1.14913 -1.98312 0
M  V30 2402 C 234.025 -0.0838629 -1.60581 0
M  V30 2403 O 235.215 -0.331006 -1.71026 0
M  V30 2404 C 232.347 -0.757835 -3.3237 0
M  V30 2405 H 233.54 -2.11377 -2.12743 0
M  V30 2406 H 231.093 -1.12793 -1.08201 0
M  V30 2407 H 231.828 0.206837 -3.2364 0
M  V30 2408 H 231.613 -1.52755 -3.61121 0
M  V30 2409 H 233.103 -0.678408 -4.12053 0
M  V30 2410 N 233.54 1.10788 -1.12088 0
M  V30 2411 C 234.503 2.15207 -0.788577 0
M  V30 2412 C 235.503 1.59609 0.195317 0
M  V30 2413 O 236.693 1.74174 -0.0300193 0
M  V30 2414 C 233.825 3.4047 -0.171174 0
M  V30 2415 H 235.018 2.46116 -1.71368 0
M  V30 2416 H 232.571 1.26089 -0.923652 0
M  V30 2417 H 233.306 3.15176 0.763832 0
M  V30 2418 H 233.091 3.82109 -0.879514 0
M  V30 2419 H 234.581 4.17576 0.04496 0
M  V30 2420 N 235.018 0.912232 1.28515 0
M  V30 2421 C 235.948 0.416403 2.29757 0
M  V30 2422 C 236.929 -0.515194 1.6211 0
M  V30 2423 O 238.114 -0.423253 1.89532 0
M  V30 2424 C 235.244 -0.34572 3.45575 0
M  V30 2425 C 234.198 0.496599 4.25109 0
M  V30 2426 C 233.524 -0.393771 5.33248 0
M  V30 2427 C 234.824 1.75307 4.92001 0
M  V30 2428 H 236.518 1.26249 2.7148 0
M  V30 2429 H 234.064 0.608515 1.30511 0
M  V30 2430 H 236.017 -0.703422 4.15488 0
M  V30 2431 H 234.741 -1.2257 3.02728 0
M  V30 2432 H 233.4 0.8368 3.56922 0
M  V30 2433 H 233.048 -1.27225 4.86644 0
M  V30 2434 H 232.748 0.166209 5.87365 0
M  V30 2435 H 234.272 -0.747389 6.06009 0
M  V30 2436 H 235.686 1.46437 5.54283 0
M  V30 2437 H 234.083 2.25534 5.56106 0
M  V30 2438 H 235.153 2.48176 4.16577 0
M  V30 2439 N 236.496 -1.42363 0.676048 0
M  V30 2440 C 237.744 -2.01123 0.198437 0
M  V30 2441 C 238.065 -1.53731 -1.19966 0
M  V30 2442 O 237.335 -0.759518 -1.80577 0
M  V30 2443 H 235.915 -0.743678 0.0703721 0
M  V30 2444 H 238.577 -1.74263 0.872837 0
M  V30 2445 H 237.673 -3.11454 0.200686 0
M  V30 2446 N 237.974 -0.419461 -1.51915 0
M  V30 2447 C 238.904 0.391813 -2.30189 0
M  V30 2448 C 239.885 1.03699 -1.34836 0
M  V30 2449 O 241.07 1.04403 -1.63748 0
M  V30 2450 C 238.2 1.50312 -3.13087 0
M  V30 2451 C 237.154 0.9824 -4.16573 0
M  V30 2452 C 236.48 2.18809 -4.8788 0
M  V30 2453 C 237.78 0.0292356 -5.22292 0
M  V30 2454 H 239.474 -0.26135 -2.98257 0
M  V30 2455 H 237.02 -0.127134 -1.43438 0
M  V30 2456 H 238.973 2.07773 -3.66617 0
M  V30 2457 H 237.697 2.18431 -2.42807 0
M  V30 2458 H 236.356 0.430119 -3.64068 0
M  V30 2459 H 236.004 2.85507 -4.14119 0
M  V30 2460 H 235.704 1.84615 -5.57845 0
M  V30 2461 H 237.228 2.76858 -5.44226 0
M  V30 2462 H 238.642 0.512976 -5.71 0
M  V30 2463 H 237.039 -0.2244 -5.9968 0
M  V30 2464 H 238.109 -0.912931 -4.76228 0
M  V30 2465 N 239.452 1.56882 -0.150215 0
M  V30 2466 C 240.415 2.1573 0.774157 0
M  V30 2467 C 241.415 1.0999 1.17298 0
M  V30 2468 O 242.605 1.35613 1.09338 0
M  V30 2469 C 239.737 2.72302 2.05096 0
M  V30 2470 H 240.93 2.98752 0.262201 0
M  V30 2471 H 238.483 1.55985 0.099248 0
M  V30 2472 H 239.218 1.92956 2.6065 0
M  V30 2473 H 239.003 3.49665 1.77416 0
M  V30 2474 H 240.493 3.17632 2.71109 0
M  V30 2475 N 240.93 -0.123565 1.57115 0
M  V30 2476 C 241.86 -1.15309 2.03042 0
M  V30 2477 C 242.841 -1.43454 0.914061 0
M  V30 2478 O 244.026 -1.53973 1.18347 0
M  V30 2479 C 241.156 -2.48043 2.43089 0
M  V30 2480 C 240.11 -2.3437 3.58127 0
M  V30 2481 C 239.436 -3.72026 3.84059 0
M  V30 2482 C 240.736 -1.80804 4.90007 0
M  V30 2483 H 242.43 -0.771102 2.893 0
M  V30 2484 H 239.976 -0.369479 1.39179 0
M  V30 2485 H 241.929 -3.20311 2.73823 0
M  V30 2486 H 240.653 -2.88122 1.53796 0
M  V30 2487 H 239.312 -1.64551 3.27595 0
M  V30 2488 H 238.96 -4.09582 2.91979 0
M  V30 2489 H 238.66 -3.63732 4.6149 0
M  V30 2490 H 240.184 -4.45806 4.1724 0
M  V30 2491 H 241.598 -2.42886 5.19307 0
M  V30 2492 H 239.995 -1.83343 5.71407 0
M  V30 2493 H 241.065 -0.76528 4.78823 0
M  V30 2494 N 242.408 -1.52605 -0.393616 0
M  V30 2495 C 243.338 -1.80022 -1.48709 0
M  V30 2496 C 244.319 -0.651995 -1.57108 0
M  V30 2497 O 245.504 -0.89913 -1.72132 0
M  V30 2498 C 242.634 -1.96492 -2.86371 0
M  V30 2499 C 241.588 -3.12161 -2.92813 0
M  V30 2500 C 240.914 -3.13877 -4.3288 0
M  V30 2501 C 242.214 -4.51322 -2.6288 0
M  V30 2502 H 243.908 -2.71589 -1.26015 0
M  V30 2503 H 241.454 -1.30684 -0.604778 0
M  V30 2504 H 243.407 -2.14255 -3.62867 0
M  V30 2505 H 242.131 -1.01611 -3.10391 0
M  V30 2506 H 240.79 -2.94173 -2.18764 0
M  V30 2507 H 240.438 -2.16687 -4.53933 0
M  V30 2508 H 240.138 -3.91576 -4.38112 0
M  V30 2509 H 241.662 -3.33789 -5.1129 0
M  V30 2510 H 243.076 -4.69435 -3.29096 0
M  V30 2511 H 241.473 -5.31053 -2.79468 0
M  V30 2512 H 242.543 -4.58353 -1.58242 0
M  V30 2513 N 243.887 0.651787 -1.4349 0
M  V30 2514 C 244.85 1.74647 -1.48429 0
M  V30 2515 C 245.85 1.56513 -0.368817 0
M  V30 2516 O 247.04 1.62385 -0.630623 0
M  V30 2517 C 244.172 3.13533 -1.33827 0
M  V30 2518 H 245.365 1.71649 -2.4592 0
M  V30 2519 H 242.918 0.863573 -1.30277 0
M  V30 2520 H 243.653 3.22142 -0.37349 0
M  V30 2521 H 243.438 3.28101 -2.14691 0
M  V30 2522 H 244.928 3.93356 -1.40218 0
M  V30 2523 N 245.365 1.30045 0.890287 0
M  V30 2524 C 246.613 1.18327 1.63839 0
M  V30 2525 C 246.934 -0.263455 1.93212 0
M  V30 2526 O 246.204 -1.17856 1.56482 0
M  V30 2527 H 244.784 0.434933 0.607324 0
M  V30 2528 H 247.446 1.631 1.06698 0
M  V30 2529 H 246.542 1.74024 2.59079 0
M  V30 2530 N 246.843 -1.10192 1.12674 0
M  V30 2531 C 247.773 -2.18652 0.819362 0
M  V30 2532 C 248.754 -1.68698 -0.217915 0
M  V30 2533 O 249.939 -1.94041 -0.0785581 0
M  V30 2534 C 247.069 -3.46202 0.27594 0
M  V30 2535 C 246.023 -4.09444 1.24656 0
M  V30 2536 C 245.349 -5.31725 0.563258 0
M  V30 2537 C 246.649 -4.52863 2.60217 0
M  V30 2538 H 248.343 -2.44622 1.72628 0
M  V30 2539 H 245.889 -1.17571 0.831451 0
M  V30 2540 H 247.842 -4.21372 0.0486149 0
M  V30 2541 H 246.566 -3.1973 -0.666331 0
M  V30 2542 H 245.225 -3.36284 1.45974 0
M  V30 2543 H 244.873 -5.0153 -0.384235 0
M  V30 2544 H 244.573 -5.74991 1.21075 0
M  V30 2545 H 246.097 -6.09624 0.34503 0
M  V30 2546 H 247.511 -5.19294 2.42913 0
M  V30 2547 H 245.908 -5.06986 3.21068 0
M  V30 2548 H 246.978 -3.65656 3.18471 0
M  V30 2549 N 248.321 -0.919034 -1.28029 0
M  V30 2550 C 249.251 -0.428581 -2.29533 0
M  V30 2551 C 250.232 0.50659 -1.62381 0
M  V30 2552 O 251.417 0.413195 -1.89753 0
M  V30 2553 C 248.547 0.327388 -3.45753 0
M  V30 2554 C 247.501 -0.519137 -4.2484 0
M  V30 2555 C 246.827 0.365486 -5.33449 0
M  V30 2556 C 248.127 -1.77914 -4.91064 0
M  V30 2557 H 249.821 -1.27687 -2.70807 0
M  V30 2558 H 247.367 -0.615428 -1.30186 0
M  V30 2559 H 249.32 0.681378 -4.15855 0
M  V30 2560 H 248.044 1.20963 -3.03374 0
M  V30 2561 H 246.703 -0.855717 -3.56473 0
M  V30 2562 H 246.351 1.24642 -4.87312 0
M  V30 2563 H 246.051 -0.197356 -5.87268 0
M  V30 2564 H 247.575 0.715241 -6.06396 0
M  V30 2565 H 248.989 -1.49374 -5.53498 0
M  V30 2566 H 247.386 -2.2848 -5.54903 0
M  V30 2567 H 248.456 -2.50382 -4.15255 0
M  V30 2568 N 249.799 1.42003 -0.683588 0
M  V30 2569 C 251.039 2.03282 -0.213513 0
M  V30 2570 C 251.403 1.52924 1.16097 0
M  V30 2571 O 252.604 2.06048 1.7262 0
M  V30 2572 C 250.875 3.56483 -0.255856 0
M  V30 2573 S 252.434 4.3857 0.14193 0
M  V30 2574 H 249.252 0.705659 -0.0869853 0
M  V30 2575 H 251.854 1.73619 -0.8987 0
M  V30 2576 H 250.558 3.90631 -1.25841 0
M  V30 2577 H 250.089 3.90831 0.448875 0
M  V30 2578 H 252.104 4.76828 1.37295 0
M  V30 2579 N 251.277 0.427512 1.51691 0
M  V30 2580 C 252.24 -0.377132 2.26076 0
M  V30 2581 C 253.24 -0.958089 1.29141 0
M  V30 2582 O 254.43 -0.83408 1.52934 0
M  V30 2583 C 251.562 -1.53262 3.04506 0
M  V30 2584 H 252.755 0.27464 2.9864 0
M  V30 2585 H 250.308 0.180445 1.55255 0
M  V30 2586 H 251.043 -2.22072 2.36335 0
M  V30 2587 H 250.828 -1.12232 3.75694 0
M  V30 2588 H 252.318 -2.10135 3.60878 0
M  V30 2589 N 252.755 -1.56801 0.158532 0
M  V30 2590 C 253.983 -2.00859 -0.496303 0
M  V30 2591 C 254.398 -1.03871 -1.57659 0
M  V30 2592 O 253.755 -0.0375165 -1.82461 0
M  V30 2593 C 253.806 -3.4479 -1.08638 0
M  V30 2594 O 253.527 -4.38072 -0.0492322 0
M  V30 2595 C 255.028 -4.04185 -1.8207 0
M  V30 2596 H 252.248 -0.65864 -0.128199 0
M  V30 2597 H 254.792 -2.02885 0.256506 0
M  V30 2598 H 252.947 -3.43579 -1.78975 0
M  V30 2599 H 253.361 -5.2227 -0.483102 0
M  V30 2600 H 254.835 -5.06857 -2.18633 0
M  V30 2601 H 255.312 -3.45549 -2.71095 0
M  V30 2602 H 255.918 -4.0906 -1.16405 0
M  V30 2603 N 254.233 0.115231 -1.57178 0
M  V30 2604 C 255.461 0.836437 -1.89239 0
M  V30 2605 C 255.876 1.73256 -0.750175 0
M  V30 2606 O 255.233 1.80357 0.278832 0
M  V30 2607 C 255.284 1.66671 -3.20785 0
M  V30 2608 O 255.005 0.806652 -4.3061 0
M  V30 2609 C 256.506 2.49274 -3.66575 0
M  V30 2610 H 253.726 0.240253 -0.626514 0
M  V30 2611 H 256.27 0.0984932 -2.04263 0
M  V30 2612 H 254.425 2.35737 -3.0742 0
M  V30 2613 H 254.839 1.37969 -5.06028 0
M  V30 2614 H 256.313 3.03055 -4.6137 0
M  V30 2615 H 256.79 3.26807 -2.93417 0
M  V30 2616 H 257.396 1.85443 -3.82741 0
M  V30 2617 N 255.711 1.52812 0.385517 0
M  V30 2618 C 256.621 1.80766 1.49535 0
M  V30 2619 C 257.637 0.694651 1.59532 0
M  V30 2620 O 258.813 0.982611 1.75803 0
M  V30 2621 C 255.878 1.97381 2.85029 0
M  V30 2622 C 254.939 3.21295 2.84724 0
M  V30 2623 C 254.172 3.37108 4.13756 0
M  V30 2624 O 254.395 2.5765 5.08893 0
M  V30 2625 O 253.329 4.30378 4.20783 0
M  V30 2626 H 257.155 2.75015 1.28842 0
M  V30 2627 H 254.74 1.37946 0.573697 0
M  V30 2628 H 256.622 2.09996 3.65349 0
M  V30 2629 H 255.297 1.06322 3.05741 0
M  V30 2630 H 254.204 3.1412 2.03174 0
M  V30 2631 H 255.537 4.12212 2.68965 0
M  V30 2632 N 257.189 -0.644168 1.43834 0
M  V30 2633 C 258.152 -1.73857 1.49353 0
M  V30 2634 C 259.152 -1.56315 0.377112 0
M  V30 2635 O 260.342 -1.62048 0.639226 0
M  V30 2636 C 257.474 -3.12819 1.35488 0
M  V30 2637 H 258.667 -1.70342 2.46827 0
M  V30 2638 H 256.22 -0.856652 1.30733 0
M  V30 2639 H 256.955 -3.2194 0.390569 0
M  V30 2640 H 256.74 -3.26958 2.16428 0
M  V30 2641 H 258.23 -3.92606 1.42302 0
M  V30 2642 N 258.668 -1.30515 -0.883378 0
M  V30 2643 C 259.598 -1.19607 -2.00541 0
M  V30 2644 C 260.579 -0.086346 -1.69881 0
M  V30 2645 O 261.764 -0.268654 -1.92333 0
M  V30 2646 C 258.894 -0.888758 -3.35736 0
M  V30 2647 C 257.848 -1.95659 -3.8066 0
M  V30 2648 C 257.174 -1.50224 -5.13164 0
M  V30 2649 C 258.474 -3.36788 -3.99213 0
M  V30 2650 H 260.168 -2.13476 -2.09925 0
M  V30 2651 H 257.714 -1.02775 -1.00863 0
M  V30 2652 H 259.667 -0.799094 -4.13754 0
M  V30 2653 H 258.391 0.0856125 -3.26488 0
M  V30 2654 H 257.05 -2.03591 -3.04871 0
M  V30 2655 H 256.698 -0.516092 -5.00345 0
M  V30 2656 H 256.398 -2.2165 -5.44192 0
M  V30 2657 H 257.922 -1.42639 -5.93706 0
M  V30 2658 H 259.336 -3.31605 -4.67665 0
M  V30 2659 H 257.733 -4.06314 -4.41621 0
M  V30 2660 H 258.803 -3.78561 -3.03017 0
M  V30 2661 N 260.146 1.09593 -1.13257 0
M  V30 2662 C 261.423 1.78293 -0.804432 0
M  V30 2663 C 261.803 1.99004 0.70431 0
M  V30 2664 O 261.151 1.59007 1.641 0
M  V30 2665 C 261.361 3.10707 -1.5894 0
M  V30 2666 C 262.709 3.85443 -1.78099 0
M  V30 2667 O 263.733 3.20454 -1.55525 0
M  V30 2668 O 262.592 5.02108 -2.15753 0
M  V30 2669 H 259.686 0.773156 -0.293528 0
M  V30 2670 H 262.232 1.16164 -1.23709 0
M  V30 2671 H 261.004 2.91106 -2.61482 0
M  V30 2672 H 260.627 3.80558 -1.15157 0
M  V30 2673 O 261.663 1.05716 1.22092 0
M  V30 2674 H 262.354 0.735773 1.79182 0
M  V30 END ATOM
M  V30 BEGIN BOND
M  V30 END BOND
M  V30 END CTAB
M  END
$$$$
