drugbank_target|P14784 Interleukin-2 receptor subunit beta (DB00004; DB00041; DB00074; DB00111)
 OpenBabel12092119363D

  0  0  0     0  0            999 V3000
M  V30 BEGIN CTAB
M  V30 COUNTS 8506 8643 0 0 0
M  V30 BEGIN ATOM
M  V30 1 H -0.908 1.98254 -0.117106 0
M  V30 2 N 0 1.576 0 0
M  V30 3 C 0.933 2.03868 1.02534 0
M  V30 4 C 1.911 0.928543 1.3348 0
M  V30 5 O 3.095 1.19667 1.45644 0
M  V30 6 C 0.222 2.43627 2.35294 0
M  V30 7 C -0.732 3.65373 2.2001 0
M  V30 8 S 0.101 5.13292 1.52614 0
M  V30 9 C 1.257 5.56322 2.86805 0
M  V30 10 H 1.49 2.90518 0.631377 0
M  V30 11 H -0.977 1.52953 0.210867 0
M  V30 12 H 0.981 2.67203 3.11629 0
M  V30 13 H -0.358 1.57376 2.7183 0
M  V30 14 H -1.165 3.90944 3.18086 0
M  V30 15 H -1.563 3.418 1.51819 0
M  V30 16 H 0.729 5.58782 3.83104 0
M  V30 17 H 1.672 6.56266 2.65933 0
M  V30 18 H 2.08 4.83886 2.90714 0
M  V30 19 N 1.4781 -0.272755 1.55222 0
M  V30 20 C 2.4411 -1.32041 1.87344 0
M  V30 21 C 3.4411 -1.42342 0.74803 0
M  V30 22 O 4.6311 -1.41488 1.0162 0
M  V30 23 C 1.7631 -2.70173 2.07893 0
M  V30 24 H 2.9561 -1.04789 2.80997 0
M  V30 25 H 0.5091 -0.51083 1.47717 0
M  V30 26 H 1.2441 -3.02605 1.16622 0
M  V30 27 H 1.0291 -2.64082 2.89833 0
M  V30 28 H 2.5191 -3.45869 2.34017 0
M  V30 29 N 2.9562 -1.48159 -0.537278 0
M  V30 30 C 3.9192 -1.61665 -1.62472 0
M  V30 31 C 4.9192 -0.490395 -1.5314 0
M  V30 32 O 6.1092 -0.755998 -1.5694 0
M  V30 33 C 3.2412 -1.57997 -3.02076 0
M  V30 34 H 4.4342 -2.58621 -1.51839 0
M  V30 35 H 1.9872 -1.36647 -0.758771 0
M  V30 36 H 2.7222 -0.624913 -3.18222 0
M  V30 37 H 2.5072 -2.39755 -3.10258 0
M  V30 38 H 3.9972 -1.70627 -3.81151 0
M  V30 39 N 4.4343 0.785586 -1.36625 0
M  V30 40 C 5.8453 1.36101 -1.27803 0
M  V30 41 C 6.1963 1.96035 0.0804875 0
M  V30 42 O 5.3213 1.92834 0.982042 0
M  V30 43 C 5.9163 2.47442 -2.31426 0
M  V30 44 C 4.4753 3.00789 -2.26281 0
M  V30 45 C 3.6223 1.73896 -2.15999 0
M  V30 46 H 6.5733 0.586928 -1.47448 0
M  V30 47 H 6.5943 3.2656 -1.95291 0
M  V30 48 H 6.1063 2.03791 -3.30289 0
M  V30 49 H 4.2073 3.48851 -1.30896 0
M  V30 50 H 4.3203 3.57343 -3.19128 0
M  V30 51 H 2.6843 1.9628 -1.62316 0
M  V30 52 H 3.4673 1.32368 -3.16755 0
M  V30 53 N 5.9124 1.20967 1.01018 0
M  V30 54 C 6.8754 0.965918 2.07853 0
M  V30 55 C 7.8754 -0.0610545 1.60684 0
M  V30 56 O 9.0654 0.175681 1.73312 0
M  V30 57 C 6.1974 0.455513 3.37843 0
M  V30 58 H 7.3904 1.91365 2.3091 0
M  V30 59 H 4.9434 1.02594 1.17916 0
M  V30 60 H 5.6784 -0.497381 3.20463 0
M  V30 61 H 5.4634 1.19622 3.73407 0
M  V30 62 H 6.9534 0.304667 4.16487 0
M  V30 63 N 7.3905 -1.2043 1.01659 0
M  V30 64 C 8.3205 -2.25466 0.607226 0
M  V30 65 C 9.3015 -1.65853 -0.377716 0
M  V30 66 O 10.4865 -1.92409 -0.263149 0
M  V30 67 C 7.6165 -3.47256 -0.0552949 0
M  V30 68 C 6.5705 -4.19462 0.850632 0
M  V30 69 C 5.8965 -5.34673 0.0538859 0
M  V30 70 C 7.1965 -4.75603 2.15868 0
M  V30 71 H 8.8905 -2.59962 1.48526 0
M  V30 72 H 6.4365 -1.2496 0.715605 0
M  V30 73 H 8.3895 -4.19917 -0.353233 0
M  V30 74 H 7.1135 -3.11924 -0.968045 0
M  V30 75 H 5.7725 -3.48667 1.13257 0
M  V30 76 H 5.4205 -4.95585 -0.860514 0
M  V30 77 H 5.1205 -5.83913 0.657192 0
M  V30 78 H 6.6445 -6.10138 -0.237598 0
M  V30 79 H 8.0585 -5.40083 1.92311 0
M  V30 80 H 6.4555 -5.3528 2.71284 0
M  V30 81 H 7.5255 -3.94346 2.82169 0
M  V30 82 N 8.8686 -0.792821 -1.36206 0
M  V30 83 C 10.0936 -0.377701 -2.03932 0
M  V30 84 C 10.5186 0.998947 -1.59382 0
M  V30 85 O 9.8766 1.64421 -0.763903 0
M  V30 86 C 9.9246 -0.453635 -3.57735 0
M  V30 87 O 9.0286 0.538151 -4.08874 0
M  V30 88 H 8.3696 -0.159855 -0.644471 0
M  V30 89 H 10.8996 -1.07488 -1.7409 0
M  V30 90 H 10.9096 -0.318464 -4.06755 0
M  V30 91 H 9.5846 -1.45784 -3.89512 0
M  V30 92 H 8.1616 0.364359 -3.71116 0
M  V30 93 N 10.3467 1.47872 -0.545128 0
M  V30 94 C 11.5927 2.03385 -0.0247951 0
M  V30 95 C 11.9477 1.41325 1.30556 0
M  V30 96 O 11.2407 0.5552 1.8338 0
M  V30 97 C 11.4347 3.57131 0.13867 0
M  V30 98 C 11.2637 4.34097 -1.17429 0
M  V30 99 C 10.0337 4.74458 -1.73831 0
M  V30 100 C 12.2317 4.6998 -2.08861 0
M  V30 101 N 10.2137 5.3602 -2.99258 0
M  V30 102 C 11.5847 5.31719 -3.18866 0
M  V30 103 C 13.6397 4.5191 -2.09003 0
M  V30 104 C 12.3427 5.77295 -4.29096 0
M  V30 105 C 14.3687 4.98477 -3.18237 0
M  V30 106 C 13.7307 5.60253 -4.26961 0
M  V30 107 H 9.8297 0.780339 -0.050943 0
M  V30 108 H 12.4137 1.80507 -0.729753 0
M  V30 109 H 10.5847 3.79802 0.812733 0
M  V30 110 H 12.3167 3.99282 0.659976 0
M  V30 111 H 9.0717 4.56037 -1.2778 0
M  V30 112 H 9.4957 5.71355 -3.63157 0
M  V30 113 H 14.1377 4.03516 -1.26234 0
M  V30 114 H 11.8557 6.24687 -5.12633 0
M  V30 115 H 15.4417 4.86274 -3.1942 0
M  V30 116 H 14.3217 5.95631 -5.10091 0
M  V30 117 N 11.8248 0.280983 1.55075 0
M  V30 118 C 13.2408 -0.0729964 1.59433 0
M  V30 119 C 13.4408 -1.5411 1.29817 0
M  V30 120 O 12.4968 -2.29086 1.06187 0
M  V30 121 C 13.8098 0.306921 2.9913 0
M  V30 122 C 15.3578 0.254023 3.11968 0
M  V30 123 C 15.8328 0.608467 4.5394 0
M  V30 124 N 17.3238 0.560241 4.59799 0
M  V30 125 C 18.0588 0.80722 5.6769 0
M  V30 126 N 17.5548 1.11912 6.83701 0
M  V30 127 N 19.3478 0.735623 5.57266 0
M  V30 128 H 11.4988 1.238 1.7259 0
M  V30 129 H 13.7618 0.500547 0.805082 0
M  V30 130 H 13.4678 1.32816 3.25657 0
M  V30 131 H 13.3418 -0.349363 3.75579 0
M  V30 132 H 15.7288 -0.75794 2.852 0
M  V30 133 H 15.8098 0.944649 2.37718 0
M  V30 134 H 15.4538 1.61814 4.81434 0
M  V30 135 H 15.3838 -0.104013 5.26497 0
M  V30 136 H 17.8748 0.329288 3.76463 0
M  V30 137 H 18.1878 1.29409 7.61888 0
M  V30 138 H 16.5328 1.15695 6.85303 0
M  V30 139 H 19.7238 0.491752 4.6551 0
M  V30 140 H 19.8968 0.931482 6.4127 0
M  V30 141 N 13.3029 -1.57598 0.00835791 0
M  V30 142 C 14.2329 -2.1198 -0.979113 0
M  V30 143 C 15.2139 -1.03091 -1.35301 0
M  V30 144 O 16.3989 -1.30818 -1.43528 0
M  V30 145 C 13.5289 -2.62995 -2.26828 0
M  V30 146 C 12.4829 -3.76485 -2.03576 0
M  V30 147 C 11.8089 -4.13846 -3.38579 0
M  V30 148 C 13.1089 -5.0342 -1.39161 0
M  V30 149 H 14.8029 -2.94738 -0.526281 0
M  V30 150 H 12.3489 -1.41783 -0.251704 0
M  V30 151 H 14.3019 -2.99669 -2.96271 0
M  V30 152 H 13.0259 -1.7737 -2.7424 0
M  V30 153 H 11.6849 -3.40217 -1.36557 0
M  V30 154 H 11.3329 -3.25232 -3.83709 0
M  V30 155 H 11.0329 -4.90312 -3.23834 0
M  V30 156 H 12.5569 -4.53086 -4.09323 0
M  V30 157 H 13.9709 -5.37812 -1.98573 0
M  V30 158 H 12.3679 -5.84746 -1.34878 0
M  V30 159 H 13.4379 -4.83548 -0.361868 0
M  V30 160 N 14.781 0.264519 -1.55364 0
M  V30 161 C 16.192 0.834936 -1.6699 0
M  V30 162 C 16.543 1.86718 -0.602552 0
M  V30 163 O 15.668 2.14899 0.254425 0
M  V30 164 C 16.263 1.5212 -3.02729 0
M  V30 165 C 14.822 2.03954 -3.16354 0
M  V30 166 C 13.969 0.884498 -2.62815 0
M  V30 167 H 16.92 0.0406869 -1.58648 0
M  V30 168 H 16.941 2.38853 -2.96191 0
M  V30 169 H 16.453 0.769668 -3.80392 0
M  V30 170 H 14.554 2.82041 -2.43482 0
M  V30 171 H 14.667 2.24902 -4.23032 0
M  V30 172 H 13.031 1.2802 -2.20188 0
M  V30 173 H 13.814 0.14634 -3.42988 0
M  V30 174 N 16.2591 1.48442 0.529413 0
M  V30 175 C 17.1891 1.65902 1.64313 0
M  V30 176 C 18.1701 0.507897 1.6234 0
M  V30 177 O 19.3551 0.740503 1.79528 0
M  V30 178 C 16.4851 1.69911 3.02898 0
M  V30 179 C 15.4391 2.8453 3.19729 0
M  V30 180 C 14.7651 2.73629 4.59381 0
M  V30 181 C 16.0651 4.25821 3.02447 0
M  V30 182 H 17.7591 2.5914 1.49955 0
M  V30 183 H 15.3051 1.24709 0.719982 0
M  V30 184 H 17.2581 1.80715 3.80684 0
M  V30 185 H 15.9821 0.732524 3.18279 0
M  V30 186 H 14.6411 2.73283 2.44361 0
M  V30 187 H 14.2891 1.74938 4.71599 0
M  V30 188 H 13.9891 3.50541 4.71588 0
M  V30 189 H 15.5131 2.86401 5.39265 0
M  V30 190 H 16.9271 4.37898 3.70024 0
M  V30 191 H 15.3241 5.03735 3.26146 0
M  V30 192 H 16.3941 4.42244 1.98867 0
M  V30 193 N 17.7372 -0.778329 1.37039 0
M  V30 194 C 18.6672 -1.90546 1.34962 0
M  V30 195 C 19.6482 -1.68681 0.219274 0
M  V30 196 O 20.8332 -1.89634 0.418624 0
M  V30 197 C 17.9632 -3.27734 1.14925 0
M  V30 198 C 16.9172 -3.64147 2.24902 0
M  V30 199 C 16.2432 -4.99806 1.89996 0
M  V30 200 C 17.5432 -3.71579 3.67051 0
M  V30 201 H 19.2372 -1.92541 2.29277 0
M  V30 202 H 16.7832 -0.924948 1.10366 0
M  V30 203 H 18.7362 -4.06215 1.12104 0
M  V30 204 H 17.4602 -3.26154 0.170631 0
M  V30 205 H 16.1192 -2.8797 2.26868 0
M  V30 206 H 15.7672 -4.94759 0.906796 0
M  V30 207 H 15.4672 -5.25139 2.63634 0
M  V30 208 H 16.9912 -5.80694 1.88749 0
M  V30 209 H 18.4052 -4.40227 3.67251 0
M  V30 210 H 16.8022 -4.08405 4.39688 0
M  V30 211 H 17.8722 -2.72404 4.01154 0
M  V30 212 N 19.2153 -1.21501 -1.00376 0
M  V30 213 C 20.4643 -1.02718 -1.73586 0
M  V30 214 C 20.7773 0.439589 -1.90596 0
M  V30 215 O 21.9833 0.746848 -2.61026 0
M  V30 216 C 20.4393 -1.78929 -3.1227 0
M  V30 217 C 20.0473 -3.29783 -3.03228 0
M  V30 218 C 21.7913 -1.68557 -3.89601 0
M  V30 219 C 19.6983 -3.98479 -4.36999 0
M  V30 220 H 18.6283 -0.380733 -0.650814 0
M  V30 221 H 21.2793 -1.45248 -1.1214 0
M  V30 222 H 19.6613 -1.29192 -3.74333 0
M  V30 223 H 20.8353 -3.86832 -2.50395 0
M  V30 224 H 19.1503 -3.40711 -2.39385 0
M  V30 225 H 21.7473 -2.17211 -4.88593 0
M  V30 226 H 22.0903 -0.644021 -4.11288 0
M  V30 227 H 22.6233 -2.15778 -3.34193 0
M  V30 228 H 19.3623 -5.02841 -4.20513 0
M  V30 229 H 18.8823 -3.46219 -4.89788 0
M  V30 230 H 20.5613 -4.03462 -5.05794 0
M  V30 231 N 20.6934 1.19889 -1.02296 0
M  V30 232 C 21.6234 2.25141 -0.619174 0
M  V30 233 C 22.6044 1.66051 0.368915 0
M  V30 234 O 23.7894 1.92546 0.252941 0
M  V30 235 C 20.9194 3.4728 0.0368783 0
M  V30 236 C 19.8734 4.19005 -0.872865 0
M  V30 237 C 19.1994 5.34637 -0.0822402 0
M  V30 238 C 20.4994 4.74452 -2.18387 0
M  V30 239 H 22.1934 2.59171 -1.49903 0
M  V30 240 H 19.7394 1.24579 -0.722222 0
M  V30 241 H 21.6924 4.20098 0.330958 0
M  V30 242 H 20.4164 3.12433 0.95149 0
M  V30 243 H 19.0754 3.48061 -1.15105 0
M  V30 244 H 18.7234 4.96034 0.83422 0
M  V30 245 H 18.4234 5.83557 -0.688149 0
M  V30 246 H 19.9474 6.10255 0.205238 0
M  V30 247 H 21.3614 5.39055 -1.95172 0
M  V30 248 H 19.7584 5.33834 -2.74119 0
M  V30 249 H 20.8284 3.92844 -2.84257 0
M  V30 250 N 22.1715 0.800033 1.35784 0
M  V30 251 C 23.1015 0.220184 2.3246 0
M  V30 252 C 24.0825 -0.65073 1.57161 0
M  V30 253 O 25.2675 -0.582359 1.85263 0
M  V30 254 C 22.3975 -0.637353 3.41402 0
M  V30 255 C 21.3515 0.134531 4.27789 0
M  V30 256 C 20.6775 -0.844285 5.27992 0
M  V30 257 C 21.9775 1.32979 5.05088 0
M  V30 258 H 23.6715 1.02787 2.81203 0
M  V30 259 H 21.2175 0.495717 1.35199 0
M  V30 260 H 23.1705 -1.05302 4.08031 0
M  V30 261 H 21.8945 -1.47785 2.91251 0
M  V30 262 H 20.5535 0.531296 3.6273 0
M  V30 263 H 20.2015 -1.68011 4.74111 0
M  V30 264 H 19.9015 -0.332184 5.8666 0
M  V30 265 H 21.4255 -1.2583 5.97494 0
M  V30 266 H 22.8395 0.98934 5.64699 0
M  V30 267 H 21.2365 1.77593 5.7322 0
M  V30 268 H 22.3065 2.11978 4.36111 0
M  V30 269 N 23.6496 -1.47581 0.552962 0
M  V30 270 C 24.5796 -2.32762 -0.185451 0
M  V30 271 C 25.5606 -1.43527 -0.912905 0
M  V30 272 O 26.7456 -1.72388 -0.894201 0
M  V30 273 C 23.8756 -3.25219 -1.21859 0
M  V30 274 C 22.8296 -4.23661 -0.607864 0
M  V30 275 C 22.1556 -5.05413 -1.74533 0
M  V30 276 C 23.4556 -5.20481 0.435582 0
M  V30 277 H 25.1496 -2.94749 0.525684 0
M  V30 278 H 22.6956 -1.41738 0.254251 0
M  V30 279 H 24.6486 -3.8365 -1.7433 0
M  V30 280 H 23.3726 -2.61279 -1.95961 0
M  V30 281 H 22.0316 -3.66451 -0.104489 0
M  V30 282 H 21.6796 -4.3788 -2.47529 0
M  V30 283 H 21.3796 -5.72059 -1.34249 0
M  V30 284 H 22.9036 -5.66701 -2.27338 0
M  V30 285 H 24.3176 -5.733 -0.00290157 0
M  V30 286 H 22.7146 -5.95305 0.757067 0
M  V30 287 H 23.7846 -4.66217 1.33303 0
M  V30 288 N 25.1277 -0.289203 -1.54924 0
M  V30 289 C 26.5387 0.205791 -1.85562 0
M  V30 290 C 26.8897 1.54351 -1.2112 0
M  V30 291 O 26.0147 2.10435 -0.504601 0
M  V30 292 C 26.6097 0.380177 -3.3666 0
M  V30 293 C 25.1687 0.819395 -3.67373 0
M  V30 294 C 24.3157 -0.079159 -2.77187 0
M  V30 295 H 27.2667 -0.510577 -1.50262 0
M  V30 296 H 27.2877 1.21659 -3.60526 0
M  V30 297 H 26.7997 -0.593589 -3.83534 0
M  V30 298 H 24.9007 1.80413 -3.26009 0
M  V30 299 H 25.0137 0.646957 -4.74712 0
M  V30 300 H 23.3777 0.439565 -2.50878 0
M  V30 301 H 24.1607 -1.04906 -3.26878 0
M  V30 302 N 26.6058 1.57591 -0.0167156 0
M  V30 303 C 27.5358 2.12496 0.967858 0
M  V30 304 C 28.5168 1.03807 1.34752 0
M  V30 305 O 29.7018 1.31577 1.42833 0
M  V30 306 C 26.8318 2.64194 2.25431 0
M  V30 307 C 25.7858 3.77559 2.01576 0
M  V30 308 C 25.1118 4.15636 3.36379 0
M  V30 309 C 26.4118 5.04151 1.36489 0
M  V30 310 H 28.1058 2.95013 0.510643 0
M  V30 311 H 25.6518 1.41915 0.244181 0
M  V30 312 H 27.6048 3.01236 2.94678 0
M  V30 313 H 26.3288 1.78821 2.73296 0
M  V30 314 H 24.9878 3.40937 1.34751 0
M  V30 315 H 24.6358 3.27263 3.81979 0
M  V30 316 H 24.3358 4.92022 3.21229 0
M  V30 317 H 25.8598 4.5525 4.06915 0
M  V30 318 H 27.2738 5.38857 1.95718 0
M  V30 319 H 25.6708 5.85453 1.31776 0
M  V30 320 H 26.7408 4.83733 0.336219 0
M  V30 321 N 28.0839 -0.256276 1.55502 0
M  V30 322 C 29.0469 -1.30047 1.88734 0
M  V30 323 C 30.0469 -1.4154 0.763086 0
M  V30 324 O 31.2369 -1.40403 1.03115 0
M  V30 325 C 28.3689 -2.67953 2.10747 0
M  V30 326 H 29.5619 -1.01802 2.82093 0
M  V30 327 H 27.1149 -0.495134 1.4825 0
M  V30 328 H 27.8499 -3.01351 1.19825 0
M  V30 329 H 27.6349 -2.60993 2.92617 0
M  V30 330 H 29.1249 -3.43368 2.37673 0
M  V30 331 N 29.562 -1.4872 -0.521534 0
M  V30 332 C 30.79 -1.60843 -1.30142 0
M  V30 333 C 31.205 -0.271897 -1.86832 0
M  V30 334 O 30.562 0.739969 -1.66825 0
M  V30 335 C 30.613 -2.66155 -2.4463 0
M  V30 336 O 30.334 -3.94623 -1.90275 0
M  V30 337 C 31.835 -2.88795 -3.36322 0
M  V30 338 H 29.055 -0.542075 -0.395468 0
M  V30 339 H 31.599 -1.94609 -0.628285 0
M  V30 340 H 29.754 -2.35224 -3.07812 0
M  V30 341 H 30.168 -4.52468 -2.65279 0
M  V30 342 H 31.642 -3.66264 -4.12983 0
M  V30 343 H 32.119 -1.97934 -3.9207 0
M  V30 344 H 32.725 -3.21063 -2.78924 0
M  V30 345 N 31.0401 0.771051 -1.3745 0
M  V30 346 C 32.2651 1.56529 -1.36065 0
M  V30 347 C 32.6901 1.88029 0.0515859 0
M  V30 348 O 32.0481 1.49282 1.02882 0
M  V30 349 C 32.0961 2.85187 -2.20683 0
M  V30 350 O 31.2001 3.79593 -1.61193 0
M  V30 351 H 30.5411 0.47411 -0.464883 0
M  V30 352 H 33.0711 0.954269 -1.80983 0
M  V30 353 H 33.0811 3.34283 -2.33921 0
M  V30 354 H 31.7561 2.61588 -3.23334 0
M  V30 355 H 30.3331 3.38239 -1.56999 0
M  V30 356 N 32.5182 1.22032 0.997298 0
M  V30 357 C 33.7642 1.05382 1.73972 0
M  V30 358 C 34.1192 -0.407419 1.88037 0
M  V30 359 O 33.4122 -1.29811 1.40924 0
M  V30 360 C 33.6062 1.69345 3.14733 0
M  V30 361 C 33.4352 3.21537 3.14395 0
M  V30 362 C 32.2052 3.9062 3.20537 0
M  V30 363 C 34.4032 4.18527 2.98897 0
M  V30 364 N 32.3852 5.29935 3.09906 0
M  V30 365 C 33.7562 5.44645 2.96247 0
M  V30 366 C 35.8112 4.09476 2.83255 0
M  V30 367 C 34.5142 6.62752 2.79557 0
M  V30 368 C 36.5402 5.27228 2.67926 0
M  V30 369 C 35.9022 6.52262 2.65959 0
M  V30 370 H 32.0012 0.440018 0.646458 0
M  V30 371 H 34.5852 1.54505 1.18475 0
M  V30 372 H 32.7562 1.22778 3.68484 0
M  V30 373 H 34.4882 1.45828 3.77513 0
M  V30 374 H 31.2432 3.41592 3.28043 0
M  V30 375 H 31.6672 6.02926 3.07912 0
M  V30 376 H 36.3092 3.13598 2.83577 0
M  V30 377 H 34.0272 7.58783 2.77982 0
M  V30 378 H 37.6132 5.22053 2.56812 0
M  V30 379 H 36.4932 7.41844 2.54239 0
M  V30 380 N 33.9963 -1.19345 1.0293 0
M  V30 381 C 34.9593 -2.20793 0.615069 0
M  V30 382 C 35.9593 -1.57553 -0.321533 0
M  V30 383 O 37.1493 -1.73862 -0.108483 0
M  V30 384 C 34.2813 -3.40754 -0.0999222 0
M  V30 385 H 35.4743 -2.58955 1.51269 0
M  V30 386 H 33.0273 -1.3303 0.820534 0
M  V30 387 H 33.7623 -3.0811 -1.01187 0
M  V30 388 H 33.5473 -3.87889 0.57309 0
M  V30 389 H 35.0373 -4.15898 -0.376645 0
M  V30 390 N 35.4744 -0.807222 -1.35358 0
M  V30 391 C 36.6994 -0.399309 -2.0352 0
M  V30 392 C 37.1244 0.981986 -1.60433 0
M  V30 393 O 36.4824 1.63601 -0.781299 0
M  V30 394 C 36.5304 -0.491552 -3.57234 0
M  V30 395 O 35.6344 0.494754 -4.09421 0
M  V30 396 H 34.9754 -0.166682 -0.642739 0
M  V30 397 H 37.5054 -1.09328 -1.72941 0
M  V30 398 H 37.5154 -0.361588 -4.06395 0
M  V30 399 H 36.1904 -1.49907 -3.87944 0
M  V30 400 H 34.7674 0.324977 -3.71481 0
M  V30 401 N 36.9525 1.47285 -0.560781 0
M  V30 402 C 37.9155 2.28535 0.174488 0
M  V30 403 C 38.9155 1.37153 0.839388 0
M  V30 404 O 40.1055 1.59748 0.694702 0
M  V30 405 C 37.2375 3.16934 1.25561 0
M  V30 406 H 38.4305 2.95012 -0.539262 0
M  V30 407 H 35.9835 1.53034 -0.317865 0
M  V30 408 H 36.7185 2.55157 2.00164 0
M  V30 409 H 36.5035 3.8419 0.783604 0
M  V30 410 H 37.9935 3.78143 1.77193 0
M  V30 411 N 38.4306 0.297415 1.54768 0
M  V30 412 C 39.3936 -0.567375 2.22066 0
M  V30 413 C 40.3936 -1.06409 1.20556 0
M  V30 414 O 41.5836 -0.960691 1.45315 0
M  V30 415 C 38.7156 -1.78517 2.90421 0
M  V30 416 H 39.9086 0.0205534 2.99893 0
M  V30 417 H 37.4616 0.0482163 1.56226 0
M  V30 418 H 38.1966 -2.41303 2.16664 0
M  V30 419 H 37.9816 -1.43669 3.64831 0
M  V30 420 H 39.4716 -2.39964 3.41771 0
M  V30 421 N 39.9087 -1.5758 0.0250728 0
M  V30 422 C 41.1547 -1.91917 -0.655413 0
M  V30 423 C 41.4877 -0.901433 -1.72011 0
M  V30 424 O 40.7627 0.0764069 -1.9435 0
M  V30 425 C 41.0457 -3.36751 -1.27558 0
M  V30 426 C 40.8987 -4.49258 -0.220719 0
M  V30 427 C 42.2177 -3.81469 -2.19475 0
M  V30 428 H 39.3367 -0.697925 -0.23679 0
M  V30 429 H 41.9787 -1.89825 0.0815036 0
M  V30 430 H 40.1287 -3.38664 -1.90365 0
M  V30 431 H 41.8007 -4.59478 0.409601 0
M  V30 432 H 40.0437 -4.31415 0.454264 0
M  V30 433 H 40.7147 -5.47618 -0.694175 0
M  V30 434 H 43.1907 -3.81266 -1.66659 0
M  V30 435 H 42.0667 -4.83512 -2.59822 0
M  V30 436 H 42.3277 -3.16744 -3.08424 0
M  V30 437 N 41.3868 0.248026 -1.55636 0
M  V30 438 C 42.3348 1.32683 -1.91045 0
M  V30 439 C 43.3288 1.49883 -0.789401 0
M  V30 440 O 44.5348 1.51371 -0.974007 0
M  V30 441 H 40.9098 0.444272 -0.606734 0
M  V30 442 H 42.8808 1.00085 -2.81115 0
M  V30 443 C 41.6298 2.6755 -2.22064 0
M  V30 444 H 40.9528 2.55114 -3.07826 0
M  V30 445 H 42.3928 3.41912 -2.50743 0
M  V30 446 C 40.8518 3.20556 -1.0366 0
M  V30 447 O 41.3818 4.00695 -0.284016 0
M  V30 448 N 39.5878 2.78568 -0.82753 0
M  V30 449 H 39.1348 2.1351 -1.44123 0
M  V30 450 H 39.0928 3.14378 -0.0369803 0
M  V30 451 N 42.8649 1.48995 0.513639 0
M  V30 452 C 44.1129 1.57531 1.26604 0
M  V30 453 C 44.4339 0.258236 1.93283 0
M  V30 454 O 43.7039 -0.721502 1.8213 0
M  V30 455 H 42.2839 0.580387 0.470276 0
M  V30 456 H 44.9459 1.85552 0.596373 0
M  V30 457 H 44.0419 2.36486 2.03669 0
M  V30 458 N 44.343 -0.763751 1.37857 0
M  V30 459 C 45.571 -1.55293 1.36718 0
M  V30 460 C 45.986 -1.88745 -0.0455434 0
M  V30 461 O 45.343 -1.52039 -1.00947 0
M  V30 462 C 45.394 -2.85831 2.2132 0
M  V30 463 O 45.115 -2.5381 3.57089 0
M  V30 464 C 46.616 -3.80023 2.28249 0
M  V30 465 H 43.836 -0.480841 0.468009 0
M  V30 466 H 46.38 -0.946009 1.81303 0
M  V30 467 H 44.535 -3.42926 1.80223 0
M  V30 468 H 44.949 -3.37459 4.01524 0
M  V30 469 H 46.423 -4.68599 2.91752 0
M  V30 470 H 46.9 -4.1973 1.2932 0
M  V30 471 H 47.506 -3.28855 2.69693 0
M  V30 472 N 45.8211 -1.22559 -0.990812 0
M  V30 473 C 47.0461 -1.07862 -1.77145 0
M  V30 474 C 47.4711 0.366447 -1.84496 0
M  V30 475 O 46.8291 1.26478 -1.29896 0
M  V30 476 C 46.8771 -1.69686 -3.18181 0
M  V30 477 O 45.9811 -0.951946 -4.01263 0
M  V30 478 H 45.3221 -0.378712 -0.545411 0
M  V30 479 H 47.8521 -1.62399 -1.2445 0
M  V30 480 H 47.8621 -1.74496 -3.68802 0
M  V30 481 H 46.5371 -2.74841 -3.12146 0
M  V30 482 H 45.1141 -0.980011 -3.59792 0
M  V30 483 N 47.2992 1.18797 -1.03562 0
M  V30 484 C 48.2312 2.21731 -0.580337 0
M  V30 485 C 49.2442 1.59051 0.347349 0
M  V30 486 O 50.4332 1.77929 0.142669 0
M  V30 487 C 47.5332 3.38459 0.172805 0
M  V30 488 C 46.7062 4.3072 -0.761496 0
M  V30 489 C 45.7652 5.26174 -0.0525547 0
M  V30 490 O 44.7912 5.65108 -0.681333 0
M  V30 491 N 45.9932 5.67624 1.21586 0
M  V30 492 H 48.7582 2.61417 -1.46565 0
M  V30 493 H 46.3192 1.33531 -0.915476 0
M  V30 494 H 48.3112 3.99335 0.656793 0
M  V30 495 H 46.8812 2.97507 0.959602 0
M  V30 496 H 46.1012 3.67525 -1.42544 0
M  V30 497 H 47.3892 4.89267 -1.39626 0
M  V30 498 H 46.7872 5.38038 1.74732 0
M  V30 499 H 45.3442 6.30721 1.64421 0
M  V30 500 N 48.7773 0.814389 1.34928 0
M  V30 501 C 50.0243 0.398423 1.98542 0
M  V30 502 C 50.3523 -1.03638 1.64589 0
M  V30 503 O 49.6073 -1.73509 0.90516 0
M  V30 504 C 49.9063 0.537781 3.53331 0
M  V30 505 C 49.5723 1.93704 4.07172 0
M  V30 506 C 48.2343 2.31984 4.21589 0
M  V30 507 C 50.5863 2.85213 4.36237 0
M  V30 508 C 47.9143 3.61125 4.62391 0
M  V30 509 C 50.2663 4.13809 4.78482 0
M  V30 510 C 48.9303 4.52077 4.91104 0
M  V30 511 H 48.2003 0.145793 0.726516 0
M  V30 512 H 50.8473 1.03669 1.61012 0
M  V30 513 H 49.1523 -0.183906 3.91368 0
M  V30 514 H 50.8493 0.196588 4.00518 0
M  V30 515 H 47.4393 1.62966 3.96409 0
M  V30 516 H 51.6233 2.56885 4.24645 0
M  V30 517 H 46.8793 3.90612 4.70353 0
M  V30 518 H 51.0533 4.84811 4.99932 0
M  V30 519 H 48.6803 5.52196 5.22478 0
M  V30 520 N 50.2554 -1.46986 0.568584 0
M  V30 521 C 51.4834 -2.0683 0.0539956 0
M  V30 522 C 51.8984 -1.41953 -1.24478 0
M  V30 523 O 51.2554 -0.519933 -1.74937 0
M  V30 524 C 51.3064 -3.61254 -0.133362 0
M  V30 525 O 51.0274 -4.237 1.11399 0
M  V30 526 C 52.5284 -4.37992 -0.683927 0
M  V30 527 H 49.7484 -0.669058 0.0510141 0
M  V30 528 H 52.2924 -1.88824 0.785234 0
M  V30 529 H 50.4474 -3.78735 -0.81477 0
M  V30 530 H 50.8614 -5.16388 0.91888 0
M  V30 531 H 52.3354 -5.46684 -0.764263 0
M  V30 532 H 52.8124 -4.05058 -1.69778 0
M  V30 533 H 53.4184 -4.25283 -0.0378494 0
M  V30 534 N 51.7335 -0.305618 -1.54608 0
M  V30 535 C 52.9735 0.303114 -2.0214 0
M  V30 536 C 53.3375 1.50737 -1.18921 0
M  V30 537 O 54.5385 2.18778 -1.56172 0
M  V30 538 C 52.8095 0.646332 -3.51507 0
M  V30 539 S 54.3685 1.23727 -4.20995 0
M  V30 540 H 51.1865 0.0927643 -0.704923 0
M  V30 541 H 53.7885 -0.434566 -1.90609 0
M  V30 542 H 52.4925 -0.238541 -4.09706 0
M  V30 543 H 52.0235 1.41468 -3.67084 0
M  V30 544 H 54.0385 2.52489 -4.27158 0
M  V30 545 N 53.2116 1.57565 -0.0334293 0
M  V30 546 C 54.4586 1.91978 0.644272 0
M  V30 547 C 54.7866 0.910231 1.71887 0
M  V30 548 O 54.0416 -0.0801961 1.95536 0
M  V30 549 C 54.3406 3.33112 1.29504 0
M  V30 550 C 54.0066 4.49537 0.350388 0
M  V30 551 C 52.6686 4.81115 0.0903974 0
M  V30 552 C 55.0206 5.20347 -0.298032 0
M  V30 553 C 52.3486 5.8086 -0.825746 0
M  V30 554 C 54.7006 6.2107 -1.20226 0
M  V30 555 C 53.3646 6.51088 -1.4711 0
M  V30 556 H 52.6346 0.702496 0.235756 0
M  V30 557 H 55.2816 1.91259 -0.0961176 0
M  V30 558 H 53.5866 3.30113 2.11028 0
M  V30 559 H 55.2836 3.57011 1.82603 0
M  V30 560 H 51.8736 4.24883 0.563205 0
M  V30 561 H 56.0576 4.96178 -0.110234 0
M  V30 562 H 51.3136 6.02461 -1.04169 0
M  V30 563 H 55.4876 6.75057 -1.71086 0
M  V30 564 H 53.1146 7.28193 -2.18264 0
M  V30 565 N 54.6897 -0.239769 1.55765 0
M  V30 566 C 55.9197 -0.982743 1.8173 0
M  V30 567 C 56.3277 -1.7917 0.607835 0
M  V30 568 O 55.6707 -1.78525 -0.432973 0
M  V30 569 C 55.7327 -1.96332 3.01155 0
M  V30 570 C 55.3967 -1.34062 4.36894 0
M  V30 571 C 56.3937 -0.739539 5.14613 0
M  V30 572 C 54.0787 -1.35784 4.83599 0
M  V30 573 C 56.0727 -0.163989 6.37189 0
M  V30 574 C 53.7597 -0.778441 6.06122 0
M  V30 575 C 54.7577 -0.182548 6.82756 0
M  V30 576 O 54.4457 0.387887 8.02964 0
M  V30 577 H 54.1777 -0.294481 0.608487 0
M  V30 578 H 56.7317 -0.26572 2.03674 0
M  V30 579 H 54.9617 -2.71884 2.74984 0
M  V30 580 H 56.6507 -2.57032 3.14149 0
M  V30 581 H 57.4167 -0.718687 4.79646 0
M  V30 582 H 53.2957 -1.81105 4.23936 0
M  V30 583 H 56.8397 0.301753 6.96947 0
M  V30 584 H 52.7367 -0.796645 6.40565 0
M  V30 585 H 53.5047 0.28044 8.18019 0
M  V30 586 N 56.1678 -1.49265 -0.50573 0
M  V30 587 C 57.1158 -1.66065 -1.62866 0
M  V30 588 C 58.1098 -0.526636 -1.61006 0
M  V30 589 O 59.3158 -0.706126 -1.65571 0
M  V30 590 H 55.6908 -0.52356 -0.539805 0
M  V30 591 H 57.6618 -2.60329 -1.45848 0
M  V30 592 C 56.4108 -1.74008 -3.01026 0
M  V30 593 H 55.7338 -2.6064 -3.03161 0
M  V30 594 H 57.1738 -1.89798 -3.79147 0
M  V30 595 C 55.6328 -0.483868 -3.33407 0
M  V30 596 O 56.1628 0.392548 -3.99777 0
M  V30 597 N 54.3688 -0.348236 -2.88506 0
M  V30 598 H 53.9158 -1.06242 -2.34671 0
M  V30 599 H 53.8738 0.491204 -3.10539 0
M  V30 600 N 57.6459 0.756429 -1.3826 0
M  V30 601 C 58.8709 1.55077 -1.37717 0
M  V30 602 C 59.2959 1.88073 0.03164 0
M  V30 603 O 58.6539 1.50364 1.01293 0
M  V30 604 C 58.7019 2.8283 -2.23695 0
M  V30 605 O 57.8059 3.77862 -1.6521 0
M  V30 606 H 57.1469 0.469152 -0.469885 0
M  V30 607 H 59.6769 0.935019 -1.81985 0
M  V30 608 H 59.6869 3.31783 -2.37453 0
M  V30 609 H 58.3619 2.58144 -3.2609 0
M  V30 610 H 56.9389 3.36555 -1.60578 0
M  V30 611 N 59.124 1.23083 0.984299 0
M  V30 612 C 60.54 0.992637 1.24975 0
M  V30 613 C 60.74 -0.308618 1.99123 0
M  V30 614 O 59.796 -1.02905 2.30579 0
M  V30 615 C 61.109 2.19698 2.05312 0
M  V30 616 C 62.657 2.24147 2.18465 0
M  V30 617 C 63.132 3.44157 3.02192 0
M  V30 618 N 64.623 3.44372 3.09777 0
M  V30 619 C 65.358 4.33886 3.74874 0
M  V30 620 N 64.854 5.3363 4.41827 0
M  V30 621 N 66.647 4.21639 3.71721 0
M  V30 622 H 58.798 2.06731 0.487453 0
M  V30 623 H 61.061 0.906339 0.277944 0
M  V30 624 H 60.767 3.1411 1.58201 0
M  V30 625 H 60.641 2.20465 3.06064 0
M  V30 626 H 63.028 1.30277 2.64786 0
M  V30 627 H 63.109 2.27415 1.17115 0
M  V30 628 H 62.753 4.38332 2.56568 0
M  V30 629 H 62.683 3.3813 4.03702 0
M  V30 630 H 65.174 2.72201 2.62135 0
M  V30 631 H 65.487 5.98196 4.89266 0
M  V30 632 H 63.832 5.37534 4.40548 0
M  V30 633 H 67.023 3.42962 3.18582 0
M  V30 634 H 67.196 4.91604 4.22173 0
M  V30 635 N 60.6021 -1.18246 1.0419 0
M  V30 636 C 61.5651 -2.20128 0.638452 0
M  V30 637 C 62.5651 -1.57885 -0.304805 0
M  V30 638 O 63.7551 -1.73967 -0.0900369 0
M  V30 639 C 60.8871 -3.4084 -0.0637751 0
M  V30 640 H 62.0801 -2.57336 1.54007 0
M  V30 641 H 59.6331 -1.32152 0.834598 0
M  V30 642 H 60.3681 -3.09166 -0.979136 0
M  V30 643 H 60.1531 -3.8726 0.614198 0
M  V30 644 H 61.6431 -4.16274 -0.332512 0
M  V30 645 N 62.0802 -0.821533 -1.34494 0
M  V30 646 C 63.0282 -0.230702 -2.31453 0
M  V30 647 C 64.0222 0.627793 -1.57338 0
M  V30 648 O 65.2282 0.519288 -1.72347 0
M  V30 649 H 61.6032 -0.0558577 -0.749923 0
M  V30 650 H 63.5742 -1.06332 -2.78812 0
M  V30 651 C 62.3232 0.59391 -3.4259 0
M  V30 652 H 61.6462 -0.0573588 -3.99759 0
M  V30 653 H 63.0862 0.973446 -4.12674 0
M  V30 654 C 61.5452 1.76568 -2.86924 0
M  V30 655 O 62.0752 2.8638 -2.81691 0
M  V30 656 N 60.2812 1.58198 -2.43766 0
M  V30 657 H 59.8282 0.68872 -2.48222 0
M  V30 658 H 59.7862 2.36752 -2.06871 0
M  V30 659 N 63.5583 1.46682 -0.576371 0
M  V30 660 C 64.8073 2.01619 -0.0572825 0
M  V30 661 C 65.1203 1.45417 1.30818 0
M  V30 662 O 66.3263 1.92133 1.91825 0
M  V30 663 C 64.7823 3.59863 -0.0518371 0
M  V30 664 C 64.3903 4.25059 -1.41523 0
M  V30 665 C 66.1343 4.2248 0.413639 0
M  V30 666 C 64.0413 5.75364 -1.36785 0
M  V30 667 H 62.9713 0.753794 -0.0176448 0
M  V30 668 H 65.6223 1.68481 -0.727076 0
M  V30 669 H 64.0043 3.90048 0.683994 0
M  V30 670 H 65.1783 4.06491 -2.17029 0
M  V30 671 H 63.4933 3.7451 -1.8202 0
M  V30 672 H 66.0903 5.3265 0.467779 0
M  V30 673 H 66.4333 3.90976 1.42982 0
M  V30 674 H 66.9663 3.96897 -0.267929 0
M  V30 675 H 63.7053 6.11518 -2.36063 0
M  V30 676 H 63.2253 5.96214 -0.654895 0
M  V30 677 H 64.9043 6.37955 -1.07805 0
M  V30 678 N 65.0364 0.313813 1.54444 0
M  V30 679 C 66.2614 -0.296681 2.05267 0
M  V30 680 C 66.6864 -1.45757 1.18897 0
M  V30 681 O 66.0444 -1.80239 0.195886 0
M  V30 682 C 66.0924 -0.71831 3.53373 0
M  V30 683 O 65.1964 -1.82175 3.69981 0
M  V30 684 H 64.5374 -0.0554061 0.661684 0
M  V30 685 H 67.0674 0.459387 1.99376 0
M  V30 686 H 67.0774 -1.00364 3.95463 0
M  V30 687 H 65.7524 0.130821 4.15694 0
M  V30 688 H 64.3294 -1.53598 3.39797 0
M  V30 689 N 66.5145 -1.57545 0.0417849 0
M  V30 690 C 67.7545 -1.94185 -0.63809 0
M  V30 691 C 68.1185 -0.919339 -1.68559 0
M  V30 692 O 69.3195 -1.17236 -2.41886 0
M  V30 693 C 67.5905 -3.35672 -1.22714 0
M  V30 694 S 69.1495 -3.94256 -1.92633 0
M  V30 695 H 65.9675 -0.679353 -0.209764 0
M  V30 696 H 68.5695 -1.95199 0.108479 0
M  V30 697 H 67.2735 -4.07898 -0.452503 0
M  V30 698 H 66.8045 -3.38132 -2.01073 0
M  V30 699 H 68.8195 -3.7872 -3.20602 0
M  V30 700 N 67.9926 0.231505 -1.5589 0
M  V30 701 C 69.2386 0.95877 -1.78705 0
M  V30 702 C 69.5716 1.8438 -0.609725 0
M  V30 703 O 68.8466 1.90521 0.391426 0
M  V30 704 C 69.1296 1.8062 -3.11526 0
M  V30 705 C 68.9826 0.948328 -4.39689 0
M  V30 706 C 70.3016 2.78585 -3.40703 0
M  V30 707 H 67.4206 0.347129 -0.650131 0
M  V30 708 H 70.0626 0.228259 -1.88624 0
M  V30 709 H 68.2126 2.42902 -3.03201 0
M  V30 710 H 69.8846 0.343016 -4.60023 0
M  V30 711 H 68.1276 0.253314 -4.3306 0
M  V30 712 H 68.7986 1.57543 -5.29041 0
M  V30 713 H 71.2746 2.26439 -3.49091 0
M  V30 714 H 70.1506 3.34988 -4.34826 0
M  V30 715 H 70.4116 3.55825 -2.62375 0
M  V30 716 N 69.4707 1.49531 0.497807 0
M  V30 717 C 70.7167 1.60388 1.25089 0
M  V30 718 C 71.0717 0.288328 1.90227 0
M  V30 719 O 70.3647 -0.711706 1.77891 0
M  V30 720 C 70.5587 2.70252 2.33878 0
M  V30 721 C 70.3877 4.12363 1.79408 0
M  V30 722 C 69.1577 4.7911 1.60566 0
M  V30 723 C 71.3557 4.97491 1.30412 0
M  V30 724 N 69.3377 6.05525 1.01059 0
M  V30 725 C 70.7087 6.14411 0.830595 0
M  V30 726 C 72.7637 4.83466 1.19015 0
M  V30 727 C 71.4667 7.1885 0.254371 0
M  V30 728 C 73.4927 5.88057 0.627892 0
M  V30 729 C 72.8547 7.04208 0.16461 0
M  V30 730 H 68.9537 0.641246 0.447579 0
M  V30 731 H 71.5377 1.86549 0.557441 0
M  V30 732 H 69.7087 2.45858 3.0068 0
M  V30 733 H 71.4407 2.70613 3.00917 0
M  V30 734 H 68.1957 4.35961 1.85026 0
M  V30 735 H 68.6197 6.73028 0.732236 0
M  V30 736 H 73.2617 3.93978 1.53431 0
M  V30 737 H 70.9797 8.08036 -0.102052 0
M  V30 738 H 74.5657 5.79266 0.542444 0
M  V30 739 H 73.4457 7.83757 -0.263669 0
M  V30 740 N 70.9488 -0.749086 1.3866 0
M  V30 741 C 72.1738 -1.54344 1.38538 0
M  V30 742 C 72.5988 -1.88088 -0.0216655 0
M  V30 743 O 71.9568 -1.50899 -1.00494 0
M  V30 744 C 72.0048 -2.8164 2.25192 0
M  V30 745 O 71.1088 -3.7698 1.67212 0
M  V30 746 H 70.4498 -0.466654 0.472367 0
M  V30 747 H 72.9798 -0.925355 1.82478 0
M  V30 748 H 72.9898 -3.30519 2.3921 0
M  V30 749 H 71.6648 -2.56411 3.27454 0
M  V30 750 H 70.2418 -3.35699 1.6236 0
M  V30 751 N 72.4269 -1.23603 -0.977757 0
M  V30 752 C 73.3589 -0.977369 -2.07317 0
M  V30 753 C 74.3719 0.0495845 -1.62724 0
M  V30 754 O 75.5609 -0.186261 -1.77526 0
M  V30 755 C 72.6609 -0.451216 -3.35883 0
M  V30 756 C 71.8339 -1.53896 -4.09432 0
M  V30 757 C 70.8929 -1.01721 -5.16274 0
M  V30 758 O 69.9189 -1.70676 -5.43009 0
M  V30 759 N 71.1209 0.153594 -5.80297 0
M  V30 760 H 73.8859 -1.92047 -2.30082 0
M  V30 761 H 71.4469 -1.14497 -1.14465 0
M  V30 762 H 73.4389 -0.0871574 -4.04606 0
M  V30 763 H 72.0089 0.397368 -3.10064 0
M  V30 764 H 71.2289 -2.07566 -3.35127 0
M  V30 765 H 72.5169 -2.27037 -4.55337 0
M  V30 766 H 71.9149 0.730323 -5.60966 0
M  V30 767 H 70.4719 0.458892 -6.50183 0
M  V30 768 N 73.905 1.17692 -1.04816 0
M  V30 769 C 75.182 1.83768 -0.669963 0
M  V30 770 C 75.562 1.93232 0.849986 0
M  V30 771 O 74.91 1.46397 1.75443 0
M  V30 772 C 75.12 3.21641 -1.35455 0
M  V30 773 C 76.468 3.97592 -1.49017 0
M  V30 774 O 77.492 3.31107 -1.31326 0
M  V30 775 O 76.351 5.16729 -1.77914 0
M  V30 776 H 73.445 0.792799 -0.235368 0
M  V30 777 H 75.991 1.25021 -1.14751 0
M  V30 778 H 74.763 3.097 -2.39168 0
M  V30 779 H 74.386 3.88052 -0.866107 0
M  V30 780 N 75.3831 0.828654 1.34056 0
M  V30 781 C 76.6311 0.41863 1.97717 0
M  V30 782 C 76.9521 -1.02314 1.66002 0
M  V30 783 O 76.2221 -1.71119 0.953683 0
M  V30 784 H 74.8021 0.151809 0.731412 0
M  V30 785 H 77.4641 1.05936 1.63596 0
M  V30 786 H 76.5601 0.542318 3.07352 0
M  V30 787 N 76.8612 -1.46375 0.584142 0
M  V30 788 C 77.8242 -2.28784 -0.138108 0
M  V30 789 C 78.8242 -1.38471 -0.817462 0
M  V30 790 O 80.0142 -1.60833 -0.669199 0
M  V30 791 C 77.1462 -3.18892 -1.20503 0
M  V30 792 H 78.3392 -2.94117 0.586127 0
M  V30 793 H 75.8922 -1.52509 0.342171 0
M  V30 794 H 76.6272 -2.58309 -1.96079 0
M  V30 795 H 76.4122 -3.85388 -0.722384 0
M  V30 796 H 77.9022 -3.80914 -1.71155 0
M  V30 797 N 78.3393 -0.321999 -1.54275 0
M  V30 798 C 79.2693 0.537411 -2.27231 0
M  V30 799 C 80.2503 1.12064 -1.27968 0
M  V30 800 O 81.4353 1.14606 -1.56777 0
M  V30 801 C 78.5653 1.69919 -3.02894 0
M  V30 802 C 77.5193 1.24534 -4.09482 0
M  V30 803 C 76.8453 2.49394 -4.72977 0
M  V30 804 C 78.1453 0.361335 -5.21049 0
M  V30 805 H 79.8393 -0.0711406 -2.99315 0
M  V30 806 H 77.3853 -0.0356555 -1.43956 0
M  V30 807 H 79.3383 2.30668 -3.52662 0
M  V30 808 H 78.0623 2.33431 -2.28424 0
M  V30 809 H 76.7213 0.660782 -3.60596 0
M  V30 810 H 76.3693 3.11265 -3.95124 0
M  V30 811 H 76.0693 2.19718 -5.44975 0
M  V30 812 H 77.5933 3.10908 -5.25517 0
M  V30 813 H 79.0073 0.875072 -5.66582 0
M  V30 814 H 77.4043 0.157428 -5.99893 0
M  V30 815 H 78.4743 -0.60822 -4.8107 0
M  V30 816 N 79.8174 1.5752 -0.0501392 0
M  V30 817 C 80.7494 2.08413 0.95376 0
M  V30 818 C 81.7624 1.01175 1.27544 0
M  V30 819 O 82.9514 1.28744 1.23641 0
M  V30 820 C 80.0514 2.51138 2.27559 0
M  V30 821 C 79.2244 3.817 2.13598 0
M  V30 822 C 78.2834 4.10749 3.28895 0
M  V30 823 O 77.3094 4.80685 3.04845 0
M  V30 824 N 78.5114 3.62579 4.5334 0
M  V30 825 H 81.2764 2.95165 0.519383 0
M  V30 826 H 78.8374 1.61327 0.136127 0
M  V30 827 H 80.8294 2.67648 3.03557 0
M  V30 828 H 79.3994 1.6964 2.62567 0
M  V30 829 H 78.6194 3.74782 1.22197 0
M  V30 830 H 79.9074 4.67201 2.01496 0
M  V30 831 H 79.3054 3.06039 4.75769 0
M  V30 832 H 77.8624 3.84329 5.26436 0
M  V30 833 N 81.2955 -0.223234 1.56011 0
M  V30 834 C 82.5725 -0.972108 1.69733 0
M  V30 835 C 82.9525 -2.02485 0.59691 0
M  V30 836 O 82.3005 -2.25037 -0.396324 0
M  V30 837 C 82.5105 -1.58407 3.10979 0
M  V30 838 C 83.8585 -2.07696 3.70334 0
M  V30 839 O 84.8825 -1.68304 3.1393 0
M  V30 840 O 83.7415 -2.80096 4.69264 0
M  V30 841 H 80.8355 -0.453993 0.691245 0
M  V30 842 H 83.3815 -0.215149 1.68331 0
M  V30 843 H 82.1535 -0.823831 3.82529 0
M  V30 844 H 81.7765 -2.40661 3.16493 0
M  V30 845 N 82.7736 -1.49793 -0.48987 0
M  V30 846 C 84.0016 -1.63568 -1.26701 0
M  V30 847 C 84.4166 -0.311465 -1.86213 0
M  V30 848 O 83.7736 0.704416 -1.68357 0
M  V30 849 C 83.8246 -2.71284 -2.38929 0
M  V30 850 O 83.5456 -3.9857 -1.81861 0
M  V30 851 C 85.0466 -2.95864 -3.3012 0
M  V30 852 H 82.2666 -0.550342 -0.383881 0
M  V30 853 H 84.8106 -1.95898 -0.586864 0
M  V30 854 H 82.9656 -2.417 -3.02753 0
M  V30 855 H 83.3796 -4.57993 -2.55622 0
M  V30 856 H 84.8536 -3.74941 -4.05121 0
M  V30 857 H 85.3306 -2.06206 -3.87783 0
M  V30 858 H 85.9366 -3.26907 -2.72051 0
M  V30 859 N 84.2517 0.741722 -1.39055 0
M  V30 860 C 85.4767 1.53607 -1.39354 0
M  V30 861 C 85.9017 1.88096 0.0116905 0
M  V30 862 O 85.2597 1.5143 0.996924 0
M  V30 863 C 85.3077 2.80441 -2.26682 0
M  V30 864 O 84.4117 3.76088 -1.69208 0
M  V30 865 H 83.7527 0.464142 -0.474835 0
M  V30 866 H 86.2827 0.915665 -1.82967 0
M  V30 867 H 86.2927 3.29246 -2.40959 0
M  V30 868 H 84.9677 2.5467 -3.2881 0
M  V30 869 H 83.5447 3.34833 -1.64138 0
M  V30 870 N 85.7298 1.2412 0.971189 0
M  V30 871 C 86.9698 1.09066 1.7287 0
M  V30 872 C 87.3338 -0.364794 1.88503 0
M  V30 873 O 88.5348 -0.636748 2.61149 0
M  V30 874 C 86.8058 1.80629 3.08396 0
M  V30 875 S 88.3648 1.81263 3.99611 0
M  V30 876 H 85.1828 0.390145 0.594397 0
M  V30 877 H 87.7848 1.57397 1.15959 0
M  V30 878 H 86.4888 2.85647 2.94676 0
M  V30 879 H 86.0198 1.32617 3.70373 0
M  V30 880 H 88.0348 0.877804 4.88374 0
M  V30 881 N 87.2079 -1.17134 1.05439 0
M  V30 882 C 88.1399 -2.2078 0.615539 0
M  V30 883 C 89.1529 -1.59584 -0.322001 0
M  V30 884 O 90.3419 -1.78133 -0.114344 0
M  V30 885 C 87.4419 -3.38691 -0.118938 0
M  V30 886 C 86.6149 -4.29454 0.829924 0
M  V30 887 C 85.6739 -5.26024 0.136258 0
M  V30 888 O 84.6999 -5.63952 0.77115 0
M  V30 889 N 85.9019 -5.69487 -1.1254 0
M  V30 890 H 88.6669 -2.59052 1.50705 0
M  V30 891 H 86.2279 -1.32058 0.936603 0
M  V30 892 H 88.2199 -4.00329 -0.593179 0
M  V30 893 H 86.7899 -2.98996 -0.91215 0
M  V30 894 H 86.0099 -3.65211 1.48373 0
M  V30 895 H 87.2979 -4.86984 1.47392 0
M  V30 896 H 86.6959 -5.4075 -1.6615 0
M  V30 897 H 85.2529 -6.33257 -1.54366 0
M  V30 898 N 88.686 -0.835752 -1.33615 0
M  V30 899 C 89.932 -0.430596 -1.98176 0
M  V30 900 C 90.265 1.00684 -1.66061 0
M  V30 901 O 89.54 1.70339 -0.938877 0
M  V30 902 C 89.823 -0.648065 -3.5422 0
M  V30 903 C 89.676 -2.13255 -3.96033 0
M  V30 904 C 90.995 -0.0922113 -4.40003 0
M  V30 905 H 88.114 -0.157924 -0.719881 0
M  V30 906 H 90.756 -1.05069 -1.58305 0
M  V30 907 H 88.906 -0.120237 -3.88314 0
M  V30 908 H 90.578 -2.725 -3.72211 0
M  V30 909 H 88.821 -2.61823 -3.45878 0
M  V30 910 H 89.492 -2.23547 -5.04708 0
M  V30 911 H 91.968 -0.543343 -4.12537 0
M  V30 912 H 90.844 -0.274083 -5.48215 0
M  V30 913 H 91.105 1.00378 -4.30554 0
M  V30 914 N 90.1641 1.46063 -0.591896 0
M  V30 915 C 91.1141 2.27458 0.157172 0
M  V30 916 C 92.0981 1.3641 0.853301 0
M  V30 917 O 93.2901 1.60517 0.74588 0
M  V30 918 C 90.4191 3.22956 1.16423 0
M  V30 919 C 89.5051 4.2149 0.469742 0
M  V30 920 N 89.8961 5.03519 -0.479839 0
M  V30 921 C 88.1941 4.40161 0.719319 0
M  V30 922 C 88.8951 5.74904 -0.886591 0
M  V30 923 N 87.8711 5.43097 -0.233731 0
M  V30 924 H 91.6731 2.88272 -0.572392 0
M  V30 925 H 89.1871 1.57024 -0.414375 0
M  V30 926 H 91.1841 3.79986 1.71513 0
M  V30 927 H 89.8441 2.63701 1.89451 0
M  V30 928 H 90.8551 5.1078 -0.855823 0
M  V30 929 H 87.5321 3.92046 1.43548 0
M  V30 930 H 88.9221 6.50844 -1.66888 0
M  V30 931 N 91.6422 0.330177 1.54103 0
M  V30 932 C 92.6052 -0.520144 2.2322 0
M  V30 933 C 93.6052 -1.03828 1.22786 0
M  V30 934 O 94.7952 -0.929652 1.4732 0
M  V30 935 C 91.9272 -1.72317 2.94142 0
M  V30 936 H 93.1202 0.0841605 2.99782 0
M  V30 937 H 90.6732 0.0813433 1.56088 0
M  V30 938 H 91.4082 -2.36653 2.21734 0
M  V30 939 H 91.1932 -1.35898 3.67796 0
M  V30 940 H 92.6832 -2.3266 3.46784 0
M  V30 941 N 93.1203 -1.57491 0.0584922 0
M  V30 942 C 94.3663 -1.94081 -0.608617 0
M  V30 943 C 94.7213 -0.937438 -1.68017 0
M  V30 944 O 94.0143 0.0423034 -1.91553 0
M  V30 945 C 94.2083 -3.3513 -1.24188 0
M  V30 946 C 94.0373 -4.49095 -0.233187 0
M  V30 947 C 92.8073 -5.04988 0.177439 0
M  V30 948 C 95.0053 -5.1162 0.524306 0
M  V30 949 N 92.9873 -6.02487 1.17823 0
M  V30 950 C 94.3583 -6.04493 1.37796 0
M  V30 951 C 96.4133 -4.94489 0.581822 0
M  V30 952 C 95.1163 -6.82075 2.28399 0
M  V30 953 C 97.1423 -5.72703 1.47531 0
M  V30 954 C 96.5043 -6.65214 2.31667 0
M  V30 955 H 92.6033 -0.75752 -0.194134 0
M  V30 956 H 95.1873 -1.94248 0.132533 0
M  V30 957 H 93.3583 -3.35726 -1.95302 0
M  V30 958 H 95.0903 -3.5899 -1.86838 0
M  V30 959 H 91.8453 -4.73165 -0.203004 0
M  V30 960 H 92.2693 -6.55933 1.67573 0
M  V30 961 H 96.9113 -4.22765 -0.054443 0
M  V30 962 H 94.6293 -7.53085 2.93067 0
M  V30 963 H 98.2153 -5.61472 1.52448 0
M  V30 964 H 97.0953 -7.24679 2.99683 0
M  V30 965 N 94.5984 0.214957 -1.56127 0
M  V30 966 C 96.0094 0.781386 -1.69562 0
M  V30 967 C 96.3604 1.84707 -0.66165 0
M  V30 968 O 95.4854 2.156 0.185927 0
M  V30 969 C 96.0804 1.42411 -3.07416 0
M  V30 970 C 94.6394 1.93786 -3.22683 0
M  V30 971 C 93.7864 0.800438 -2.65496 0
M  V30 972 H 96.7374 -0.00980633 -1.58697 0
M  V30 973 H 96.7584 2.29309 -3.0364 0
M  V30 974 H 96.2704 0.64826 -3.82648 0
M  V30 975 H 94.3714 2.74152 -2.52332 0
M  V30 976 H 94.4844 2.1133 -4.29973 0
M  V30 977 H 92.8484 1.2095 -2.2415 0
M  V30 978 H 93.6314 0.0371471 -3.4328 0
M  V30 979 N 96.0765 1.50051 0.48192 0
M  V30 980 C 97.3535 1.51009 1.2432 0
M  V30 981 C 97.7335 0.248587 2.09631 0
M  V30 982 O 97.0815 -0.768409 2.15192 0
M  V30 983 C 97.2915 2.79981 2.08355 0
M  V30 984 C 98.6395 3.3022 2.66908 0
M  V30 985 O 99.6635 2.81228 2.18607 0
M  V30 986 O 98.5225 4.15595 3.54884 0
M  V30 987 H 95.6165 0.605239 0.563573 0
M  V30 988 H 98.1625 1.62332 0.494627 0
M  V30 989 H 96.9345 3.63275 1.45419 0
M  V30 990 H 96.5575 2.7161 2.90368 0
M  V30 991 N 97.5546 -0.734337 1.39446 0
M  V30 992 C 98.9706 -1.03997 1.21065 0
M  V30 993 C 99.1706 -2.01369 0.0727019 0
M  V30 994 O 98.2266 -2.45856 -0.575426 0
M  V30 995 C 99.5396 -1.60163 2.54496 0
M  V30 996 C 101.088 -1.7224 2.61347 0
M  V30 997 C 101.563 -2.31814 3.95002 0
M  V30 998 N 103.054 -2.39223 3.96644 0
M  V30 999 C 103.789 -2.86258 4.96834 0
M  V30 1000 N 103.285 -3.33184 6.07421 0
M  V30 1001 N 105.078 -2.85473 4.84213 0
M  V30 1002 H 97.2286 -0.0885624 2.12215 0
M  V30 1003 H 99.4916 -0.10191 0.942506 0
M  V30 1004 H 99.1976 -0.960811 3.38321 0
M  V30 1005 H 99.0716 -2.5896 2.74262 0
M  V30 1006 H 101.459 -2.35443 1.77906 0
M  V30 1007 H 101.54 -0.720939 2.4543 0
M  V30 1008 H 101.184 -1.69238 4.78875 0
M  V30 1009 H 101.114 -3.32638 4.08239 0
M  V30 1010 H 103.605 -2.06057 3.16779 0
M  V30 1011 H 103.918 -3.67586 6.7978 0
M  V30 1012 H 102.263 -3.31191 6.11013 0
M  V30 1013 H 105.454 -2.48136 3.96921 0
M  V30 1014 H 105.627 -3.21814 5.62441 0
M  V30 1015 N 99.0327 -1.24633 -0.964593 0
M  V30 1016 C 100.449 -1.01239 -1.2338 0
M  V30 1017 C 100.649 0.2769 -1.99588 0
M  V30 1018 O 99.7047 0.992241 -2.32187 0
M  V30 1019 C 101.018 -2.22937 -2.01791 0
M  V30 1020 C 102.566 -2.27594 -2.14872 0
M  V30 1021 C 103.041 -3.48921 -2.96678 0
M  V30 1022 N 104.532 -3.49257 -3.04259 0
M  V30 1023 C 105.267 -4.39795 -3.67924 0
M  V30 1024 N 104.763 -5.40591 -4.33281 0
M  V30 1025 N 106.556 -4.275 -3.64966 0
M  V30 1026 H 98.7067 -2.0748 -0.454502 0
M  V30 1027 H 100.97 -0.910647 -0.26349 0
M  V30 1028 H 100.676 -3.16587 -1.53184 0
M  V30 1029 H 100.55 -2.25306 -3.02518 0
M  V30 1030 H 102.937 -1.34473 -2.6268 0
M  V30 1031 H 103.018 -2.2925 -1.13482 0
M  V30 1032 H 102.662 -4.42359 -2.49562 0
M  V30 1033 H 102.592 -3.4451 -3.98272 0
M  V30 1034 H 105.083 -2.76337 -2.57771 0
M  V30 1035 H 105.396 -6.05904 -4.79687 0
M  V30 1036 H 103.741 -5.44475 -4.3194 0
M  V30 1037 H 106.932 -3.47987 -3.13086 0
M  V30 1038 H 107.105 -4.98258 -4.14298 0
M  V30 1039 N 100.511 1.16574 -1.06058 0
M  V30 1040 C 101.927 1.3904 -0.783585 0
M  V30 1041 C 102.127 1.91784 0.618145 0
M  V30 1042 O 101.183 2.11511 1.37911 0
M  V30 1043 C 102.496 2.37329 -1.84649 0
M  V30 1044 C 104.044 2.51018 -1.86973 0
M  V30 1045 C 104.519 3.52588 -2.92311 0
M  V30 1046 N 106.01 3.60113 -2.91329 0
M  V30 1047 C 106.745 4.38486 -3.69482 0
M  V30 1048 N 106.241 5.20302 -4.57447 0
M  V30 1049 N 108.034 4.33446 -3.57885 0
M  V30 1050 H 100.185 0.806725 -1.96483 0
M  V30 1051 H 102.448 0.417117 -0.851303 0
M  V30 1052 H 102.154 2.05663 -2.85299 0
M  V30 1053 H 102.028 3.36946 -1.6955 0
M  V30 1054 H 104.415 2.81989 -0.869827 0
M  V30 1055 H 104.496 1.51445 -2.0615 0
M  V30 1056 H 104.14 3.22354 -3.92492 0
M  V30 1057 H 104.07 4.51886 -2.70383 0
M  V30 1058 H 106.561 3.01707 -2.27555 0
M  V30 1059 H 106.874 5.77311 -5.13743 0
M  V30 1060 H 105.219 5.19653 -4.61503 0
M  V30 1061 H 108.41 3.68586 -2.88551 0
M  V30 1062 H 108.583 4.94279 -4.19037 0
M  V30 1063 N 101.989 0.842826 1.3317 0
M  V30 1064 C 103.235 0.450342 1.98352 0
M  V30 1065 C 103.59 -0.980508 1.65541 0
M  V30 1066 O 102.883 -1.67678 0.927065 0
M  V30 1067 C 103.077 0.612607 3.52111 0
M  V30 1068 C 102.906 2.05768 3.99862 0
M  V30 1069 C 101.676 2.69374 4.27511 0
M  V30 1070 C 103.874 3.02688 4.15794 0
M  V30 1071 N 101.856 4.04915 4.61429 0
M  V30 1072 C 103.227 4.23186 4.53115 0
M  V30 1073 C 105.282 2.99041 3.98094 0
M  V30 1074 C 103.985 5.40518 4.74587 0
M  V30 1075 C 106.011 4.15607 4.20743 0
M  V30 1076 C 105.373 5.3486 4.58371 0
M  V30 1077 H 101.472 0.213296 0.752349 0
M  V30 1078 H 104.056 1.09173 1.61212 0
M  V30 1079 H 102.227 0.000998822 3.884 0
M  V30 1080 H 103.959 0.191179 4.04248 0
M  V30 1081 H 100.714 2.20485 4.19146 0
M  V30 1082 H 101.138 4.74798 4.82593 0
M  V30 1083 H 105.78 2.0797 3.68114 0
M  V30 1084 H 103.498 6.3213 5.03425 0
M  V30 1085 H 107.084 4.14207 4.08563 0
M  V30 1086 H 105.964 6.23558 4.75547 0
M  V30 1087 N 103.467 -1.45747 0.599634 0
M  V30 1088 C 104.415 -2.322 -0.136426 0
M  V30 1089 C 105.409 -1.45497 -0.867583 0
M  V30 1090 O 106.615 -1.62027 -0.78405 0
M  V30 1091 H 102.99 -0.749368 -0.0628588 0
M  V30 1092 H 104.961 -2.92072 0.611281 0
M  V30 1093 C 103.71 -3.28974 -1.12567 0
M  V30 1094 H 103.033 -3.9568 -0.572484 0
M  V30 1095 H 104.473 -3.92212 -1.61077 0
M  V30 1096 C 102.932 -2.55561 -2.19523 0
M  V30 1097 O 103.462 -2.33111 -3.27143 0
M  V30 1098 N 101.668 -2.15832 -1.94589 0
M  V30 1099 H 101.215 -2.3429 -1.07078 0
M  V30 1100 H 101.173 -1.67034 -2.66359 0
M  V30 1101 N 104.945 -0.338344 -1.53925 0
M  V30 1102 C 105.877 0.555117 -2.22376 0
M  V30 1103 C 106.89 1.06812 -1.22862 0
M  V30 1104 O 108.079 0.979163 -1.49247 0
M  V30 1105 C 105.179 1.77609 -2.88631 0
M  V30 1106 C 104.352 1.39927 -4.14414 0
M  V30 1107 C 103.411 2.47936 -4.64127 0
M  V30 1108 O 102.437 2.11461 -5.28463 0
M  V30 1109 N 103.639 3.79107 -4.39612 0
M  V30 1110 H 106.404 -0.0310778 -2.99684 0
M  V30 1111 H 103.965 -0.162226 -1.61085 0
M  V30 1112 H 105.957 2.49287 -3.18807 0
M  V30 1113 H 104.527 2.26978 -2.14941 0
M  V30 1114 H 103.747 0.513481 -3.90841 0
M  V30 1115 H 105.035 1.12341 -4.96243 0
M  V30 1116 H 104.433 4.11531 -3.88148 0
M  V30 1117 H 102.99 4.4697 -4.74406 0
M  V30 1118 N 106.423 1.57458 -0.0668435 0
M  V30 1119 C 107.651 1.97624 0.612565 0
M  V30 1120 C 108.066 0.94502 1.63447 0
M  V30 1121 O 107.423 -0.0689276 1.8237 0
M  V30 1122 C 107.474 3.37869 1.28555 0
M  V30 1123 O 107.195 4.3704 0.304557 0
M  V30 1124 C 108.696 3.92882 2.05325 0
M  V30 1125 H 105.916 0.650045 0.166381 0
M  V30 1126 H 108.46 2.04035 -0.137782 0
M  V30 1127 H 106.615 3.3256 1.98702 0
M  V30 1128 H 107.029 5.18565 0.786779 0
M  V30 1129 H 108.503 4.93247 2.47812 0
M  V30 1130 H 108.98 3.29156 2.9078 0
M  V30 1131 H 109.586 4.01577 1.40056 0
M  V30 1132 N 107.901 -0.206675 1.56239 0
M  V30 1133 C 109.141 -0.93574 1.81723 0
M  V30 1134 C 109.505 -1.80927 0.642609 0
M  V30 1135 O 110.706 -2.57323 0.777081 0
M  V30 1136 C 108.977 -1.74012 3.12177 0
M  V30 1137 S 110.536 -2.52279 3.59028 0
M  V30 1138 H 107.354 -0.314065 0.637875 0
M  V30 1139 H 109.956 -0.200071 1.94474 0
M  V30 1140 H 108.66 -1.0888 3.95693 0
M  V30 1141 H 108.191 -2.51782 3.02274 0
M  V30 1142 H 110.206 -3.76209 3.23545 0
M  V30 1143 N 109.379 -1.50304 -0.473955 0
M  V30 1144 C 110.289 -1.7174 -1.5982 0
M  V30 1145 C 111.305 -0.600457 -1.63311 0
M  V30 1146 O 112.481 -0.878441 -1.81233 0
M  V30 1147 C 109.546 -1.80427 -2.96052 0
M  V30 1148 C 108.607 -3.04148 -3.02972 0
M  V30 1149 C 107.84 -3.12411 -4.32706 0
M  V30 1150 O 108.063 -2.27542 -5.23049 0
M  V30 1151 O 106.997 -4.05113 -4.45159 0
M  V30 1152 H 110.823 -2.67035 -1.44657 0
M  V30 1153 H 108.408 -1.34366 -0.653148 0
M  V30 1154 H 110.29 -1.88338 -3.7697 0
M  V30 1155 H 108.965 -0.883156 -3.11419 0
M  V30 1156 H 107.872 -3.0174 -2.21142 0
M  V30 1157 H 109.205 -3.95829 -2.92541 0
M  V30 1158 N 110.857 0.726932 -1.39834 0
M  V30 1159 C 111.787 1.85405 -1.41941 0
M  V30 1160 C 112.768 1.67751 -0.281728 0
M  V30 1161 O 113.953 1.8795 -0.488717 0
M  V30 1162 C 111.083 3.23243 -1.2701 0
M  V30 1163 C 110.037 3.55549 -2.38262 0
M  V30 1164 C 109.363 4.9241 -2.08415 0
M  V30 1165 C 110.663 3.577 -3.80589 0
M  V30 1166 H 112.357 1.83899 -2.36266 0
M  V30 1167 H 109.903 0.883349 -1.13723 0
M  V30 1168 H 111.856 4.01775 -1.27103 0
M  V30 1169 H 110.58 3.25296 -0.291564 0
M  V30 1170 H 109.239 2.79351 -2.37399 0
M  V30 1171 H 108.887 4.91052 -1.0898 0
M  V30 1172 H 108.587 5.14992 -2.82943 0
M  V30 1173 H 110.111 5.73289 -2.10171 0
M  V30 1174 H 111.525 4.26293 -3.83337 0
M  V30 1175 H 109.922 3.91804 -4.54543 0
M  V30 1176 H 110.992 2.57328 -4.10987 0
M  V30 1177 N 112.336 1.25143 0.95797 0
M  V30 1178 C 113.266 1.07711 2.07173 0
M  V30 1179 C 114.247 -0.0128462 1.70095 0
M  V30 1180 O 115.432 0.156061 1.93572 0
M  V30 1181 C 112.562 0.691503 3.40346 0
M  V30 1182 C 111.516 1.73132 3.9142 0
M  V30 1183 C 110.842 1.20049 5.21049 0
M  V30 1184 C 112.142 3.1294 4.1817 0
M  V30 1185 H 113.836 2.00873 2.22014 0
M  V30 1186 H 111.382 0.967191 1.06684 0
M  V30 1187 H 113.335 0.556505 4.17709 0
M  V30 1188 H 112.059 -0.275819 3.25433 0
M  V30 1189 H 110.718 1.8547 3.16222 0
M  V30 1190 H 110.366 0.223499 5.02503 0
M  V30 1191 H 110.066 1.89545 5.56189 0
M  V30 1192 H 111.59 1.07782 6.01012 0
M  V30 1193 H 113.004 3.03775 4.86203 0
M  V30 1194 H 111.401 3.79875 4.64559 0
M  V30 1195 H 112.471 3.6025 3.24573 0
M  V30 1196 N 113.814 -1.1601 1.06675 0
M  V30 1197 C 115.225 -1.68235 0.809565 0
M  V30 1198 C 115.576 -1.8454 -0.666303 0
M  V30 1199 O 114.701 -1.54374 -1.5165 0
M  V30 1200 C 115.296 -3.05585 1.46299 0
M  V30 1201 C 113.855 -3.54915 1.25349 0
M  V30 1202 C 113.002 -2.30804 1.53703 0
M  V30 1203 H 115.953 -1.00318 1.22971 0
M  V30 1204 H 115.974 -3.70174 0.880431 0
M  V30 1205 H 115.486 -2.93686 2.53713 0
M  V30 1206 H 113.587 -3.72067 0.199261 0
M  V30 1207 H 113.7 -4.36774 1.9689 0
M  V30 1208 H 112.064 -2.36007 0.957739 0
M  V30 1209 H 112.847 -2.21499 2.62284 0
M  V30 1210 N 115.292 -0.849877 -1.32721 0
M  V30 1211 C 116.538 -0.451591 -1.97708 0
M  V30 1212 C 116.871 0.989175 -1.6712 0
M  V30 1213 O 116.146 1.69334 -0.956891 0
M  V30 1214 C 116.429 -0.685598 -3.53513 0
M  V30 1215 C 116.282 -2.17444 -3.93749 0
M  V30 1216 C 117.601 -0.138874 -4.39881 0
M  V30 1217 H 114.72 -0.16555 -0.718166 0
M  V30 1218 H 117.362 -1.06742 -1.57182 0
M  V30 1219 H 115.512 -0.161416 -3.88165 0
M  V30 1220 H 117.184 -2.76433 -3.693 0
M  V30 1221 H 115.427 -2.65476 -3.43081 0
M  V30 1222 H 116.098 -2.28888 -5.02309 0
M  V30 1223 H 118.574 -0.587068 -4.11938 0
M  V30 1224 H 117.45 -0.332213 -5.47894 0
M  V30 1225 H 117.711 0.95806 -4.31594 0
M  V30 1226 N 116.77 1.45427 -0.607355 0
M  V30 1227 C 117.995 2.07124 -0.107006 0
M  V30 1228 C 118.42 1.44906 1.19933 0
M  V30 1229 O 117.778 0.541687 1.73019 0
M  V30 1230 C 117.826 3.60595 0.0194119 0
M  V30 1231 O 116.93 3.98285 1.0697 0
M  V30 1232 H 116.271 0.659868 -0.0739597 0
M  V30 1233 H 118.801 1.86683 -0.837297 0
M  V30 1234 H 118.811 4.07419 0.2177 0
M  V30 1235 H 117.486 4.05266 -0.934453 0
M  V30 1236 H 116.063 3.63133 0.847889 0
M  V30 1237 N 118.248 0.346503 1.53744 0
M  V30 1238 C 119.18 -0.543316 2.22667 0
M  V30 1239 C 120.193 -1.06159 1.23427 0
M  V30 1240 O 121.382 -0.971235 1.49764 0
M  V30 1241 C 118.482 -1.76076 2.89569 0
M  V30 1242 C 117.655 -1.37727 4.15151 0
M  V30 1243 C 116.714 -2.45471 4.65436 0
M  V30 1244 O 115.74 -2.08655 5.29577 0
M  V30 1245 N 116.942 -3.7677 4.41616 0
M  V30 1246 H 119.707 0.0469703 2.99663 0
M  V30 1247 H 117.268 0.170766 1.60997 0
M  V30 1248 H 119.26 -2.47593 3.20125 0
M  V30 1249 H 117.83 -2.25835 2.16142 0
M  V30 1250 H 117.05 -0.492746 3.91108 0
M  V30 1251 H 118.338 -1.09708 4.96832 0
M  V30 1252 H 117.736 -4.09467 3.90325 0
M  V30 1253 H 116.293 -4.44448 4.7677 0
M  V30 1254 N 119.726 -1.57421 0.075193 0
M  V30 1255 C 120.689 -2.11791 -0.876203 0
M  V30 1256 C 121.689 -1.04268 -1.22412 0
M  V30 1257 O 122.879 -1.30242 -1.15684 0
M  V30 1258 C 120.011 -2.62207 -2.17854 0
M  V30 1259 H 121.204 -2.9716 -0.40444 0
M  V30 1260 H 118.757 -1.55333 -0.173557 0
M  V30 1261 H 119.492 -1.803 -2.6956 0
M  V30 1262 H 119.277 -3.40802 -1.93897 0
M  V30 1263 H 120.767 -3.04335 -2.85955 0
M  V30 1264 N 121.204 0.198386 -1.56346 0
M  V30 1265 C 122.429 0.939682 -1.84891 0
M  V30 1266 C 122.854 1.76202 -0.658369 0
M  V30 1267 O 122.212 1.76993 0.392851 0
M  V30 1268 C 122.26 1.81428 -3.11635 0
M  V30 1269 O 121.364 2.91265 -2.91956 0
M  V30 1270 H 120.705 0.264807 -0.608912 0
M  V30 1271 H 123.235 0.204695 -2.03573 0
M  V30 1272 H 123.245 2.21958 -3.42343 0
M  V30 1273 H 121.92 1.21004 -3.97908 0
M  V30 1274 H 120.497 2.54514 -2.72538 0
M  V30 1275 N 122.682 1.50554 0.465978 0
M  V30 1276 C 123.928 1.63006 1.21658 0
M  V30 1277 C 124.283 0.328613 1.89573 0
M  V30 1278 O 123.576 -0.673813 1.79361 0
M  V30 1279 C 123.77 2.75152 2.28093 0
M  V30 1280 C 123.599 4.16075 1.7062 0
M  V30 1281 C 122.369 4.82408 1.50368 0
M  V30 1282 C 124.567 5.00145 1.1983 0
M  V30 1283 N 122.549 6.07532 0.881924 0
M  V30 1284 C 123.92 6.16035 0.700083 0
M  V30 1285 C 125.975 4.85882 1.08733 0
M  V30 1286 C 124.678 7.19228 0.101835 0
M  V30 1287 C 126.704 5.89257 0.503016 0
M  V30 1288 C 126.066 7.04398 0.0152005 0
M  V30 1289 H 122.165 0.650596 0.433877 0
M  V30 1290 H 124.749 1.8769 0.517746 0
M  V30 1291 H 122.92 2.52181 2.95397 0
M  V30 1292 H 124.652 2.76935 2.95109 0
M  V30 1293 H 121.407 4.39788 1.75737 0
M  V30 1294 H 121.831 6.7443 0.589312 0
M  V30 1295 H 126.473 3.97144 1.4504 0
M  V30 1296 H 124.191 8.07637 -0.273426 0
M  V30 1297 H 127.777 5.80286 0.419451 0
M  V30 1298 H 126.657 7.83021 -0.429856 0
M  V30 1299 N 124.16 -0.719506 1.40217 0
M  V30 1300 C 125.123 -1.8153 1.39927 0
M  V30 1301 C 126.123 -1.58095 0.293723 0
M  V30 1302 O 127.313 -1.65209 0.552429 0
M  V30 1303 C 124.445 -3.19561 1.18716 0
M  V30 1304 H 125.638 -1.83186 2.37451 0
M  V30 1305 H 123.191 -0.924746 1.26008 0
M  V30 1306 H 123.926 -3.23557 0.219366 0
M  V30 1307 H 123.711 -3.3797 1.98793 0
M  V30 1308 H 125.201 -3.99598 1.21291 0
M  V30 1309 N 125.638 -1.25649 -0.95132 0
M  V30 1310 C 126.878 -1.11802 -1.71113 0
M  V30 1311 C 127.242 0.334758 -1.89059 0
M  V30 1312 O 128.443 0.595121 -2.62129 0
M  V30 1313 C 126.714 -1.85512 -3.05483 0
M  V30 1314 S 128.273 -1.87597 -3.96677 0
M  V30 1315 H 125.091 -0.399552 -0.588115 0
M  V30 1316 H 127.693 -1.59222 -1.1344 0
M  V30 1317 H 126.397 -2.90299 -2.90094 0
M  V30 1318 H 125.928 -1.38493 -3.68216 0
M  V30 1319 H 127.943 -0.955389 -4.86916 0
M  V30 1320 N 127.117 1.15442 -1.07289 0
M  V30 1321 C 128.065 2.22225 -0.686952 0
M  V30 1322 C 129.059 1.66688 0.30193 0
M  V30 1323 O 130.265 1.79236 0.165712 0
M  V30 1324 H 126.64 0.723783 -0.204064 0
M  V30 1325 H 128.611 2.52056 -1.5972 0
M  V30 1326 C 127.36 3.47556 -0.100149 0
M  V30 1327 H 126.683 3.90612 -0.852211 0
M  V30 1328 H 128.123 4.23794 0.132235 0
M  V30 1329 C 126.582 3.16337 1.159 0
M  V30 1330 O 127.112 3.33074 2.24555 0
M  V30 1331 N 125.318 2.70385 1.06491 0
M  V30 1332 H 124.865 2.56966 0.180668 0
M  V30 1333 H 124.823 2.49871 1.90819 0
M  V30 1334 N 128.595 0.856903 1.32268 0
M  V30 1335 C 129.525 0.31858 2.31316 0
M  V30 1336 C 130.506 -0.583487 1.59779 0
M  V30 1337 O 131.691 -0.503259 1.87566 0
M  V30 1338 C 128.821 -0.491979 3.43798 0
M  V30 1339 C 127.775 0.315849 4.26833 0
M  V30 1340 C 127.101 -0.619586 5.31098 0
M  V30 1341 C 128.401 1.54282 4.98993 0
M  V30 1342 H 130.095 1.14621 2.76591 0
M  V30 1343 H 127.641 0.552613 1.32974 0
M  V30 1344 H 129.594 -0.879012 4.1213 0
M  V30 1345 H 128.318 -1.35299 2.97257 0
M  V30 1346 H 126.977 0.684664 3.6015 0
M  V30 1347 H 126.625 -1.47751 4.8081 0
M  V30 1348 H 126.325 -0.0830621 5.87541 0
M  V30 1349 H 127.849 -1.00375 6.02293 0
M  V30 1350 H 129.263 1.22796 5.59995 0
M  V30 1351 H 127.66 2.01745 5.65172 0
M  V30 1352 H 128.73 2.30285 4.26728 0
M  V30 1353 N 130.073 -1.45103 0.615059 0
M  V30 1354 C 131.322 -2.01396 0.110718 0
M  V30 1355 C 131.635 -1.48834 -1.26916 0
M  V30 1356 O 132.841 -1.97152 -1.86664 0
M  V30 1357 C 131.297 -3.59599 0.14723 0
M  V30 1358 C 130.905 -4.21158 1.52743 0
M  V30 1359 C 132.649 -4.23428 -0.30148 0
M  V30 1360 C 130.556 -5.71535 1.51992 0
M  V30 1361 H 129.486 -0.753061 0.0376241 0
M  V30 1362 H 132.137 -1.66494 0.77149 0
M  V30 1363 H 130.519 -3.91724 -0.580339 0
M  V30 1364 H 131.693 -4.00594 2.2773 0
M  V30 1365 H 130.008 -3.69552 1.91886 0
M  V30 1366 H 132.605 -5.33703 -0.326392 0
M  V30 1367 H 132.948 -3.94629 -1.32565 0
M  V30 1368 H 133.481 -3.96047 0.373065 0
M  V30 1369 H 130.22 -6.05044 2.52193 0
M  V30 1370 H 129.74 -5.94268 0.81274 0
M  V30 1371 H 131.419 -6.34873 1.24681 0
M  V30 1372 N 131.551 -0.354651 -1.53558 0
M  V30 1373 C 132.481 0.489091 -2.2832 0
M  V30 1374 C 133.462 1.09324 -1.30316 0
M  V30 1375 O 134.647 1.11255 -1.59173 0
M  V30 1376 C 131.777 1.63456 -3.0643 0
M  V30 1377 C 130.731 1.1582 -4.12031 0
M  V30 1378 C 130.057 2.39305 -4.7816 0
M  V30 1379 C 131.357 0.250731 -5.21698 0
M  V30 1380 H 133.051 -0.134614 -2.99097 0
M  V30 1381 H 130.597 -0.0661826 -1.43848 0
M  V30 1382 H 132.55 2.23136 -3.57475 0
M  V30 1383 H 131.274 2.28533 -2.33325 0
M  V30 1384 H 129.933 0.584146 -3.61916 0
M  V30 1385 H 129.581 3.02814 -4.01637 0
M  V30 1386 H 129.281 2.08109 -5.49513 0
M  V30 1387 H 130.805 2.99691 -5.31994 0
M  V30 1388 H 132.219 0.754695 -5.68311 0
M  V30 1389 H 130.616 0.0301468 -6.00092 0
M  V30 1390 H 131.686 -0.710125 -4.79672 0
M  V30 1391 N 133.029 1.57378 -0.0835403 0
M  V30 1392 C 134.277 1.93547 0.581718 0
M  V30 1393 C 134.598 0.96524 1.69435 0
M  V30 1394 O 133.868 0.0153369 1.95894 0
M  V30 1395 H 132.448 0.714521 0.217874 0
M  V30 1396 H 135.11 1.94366 -0.144158 0
M  V30 1397 H 134.206 2.95665 0.999423 0
M  V30 1398 N 134.507 -0.190092 1.56449 0
M  V30 1399 C 135.47 -1.21925 1.9408 0
M  V30 1400 C 136.47 -1.38176 0.822431 0
M  V30 1401 O 137.66 -1.35903 1.08977 0
M  V30 1402 C 134.792 -2.58773 2.21922 0
M  V30 1403 H 135.985 -0.897464 2.86157 0
M  V30 1404 H 133.538 -0.43181 1.50217 0
M  V30 1405 H 134.273 -2.95998 1.32499 0
M  V30 1406 H 134.058 -2.48348 3.03424 0
M  V30 1407 H 135.548 -3.32978 2.52022 0
M  V30 1408 N 135.985 -1.50799 -0.457987 0
M  V30 1409 C 137.396 -1.55152 -1.0385 0
M  V30 1410 C 137.747 -0.362719 -1.92818 0
M  V30 1411 O 136.872 0.522915 -2.09987 0
M  V30 1412 C 137.467 -2.81173 -1.89017 0
M  V30 1413 C 136.026 -2.88164 -2.42154 0
M  V30 1414 C 135.173 -2.49591 -1.20829 0
M  V30 1415 H 138.124 -1.56874 -0.240068 0
M  V30 1416 H 138.145 -2.63769 -2.74238 0
M  V30 1417 H 137.657 -3.67677 -1.24238 0
M  V30 1418 H 135.758 -2.06042 -3.10447 0
M  V30 1419 H 135.871 -3.91356 -2.76364 0
M  V30 1420 H 134.235 -2.02322 -1.54719 0
M  V30 1421 H 135.018 -3.38418 -0.576927 0
M  V30 1422 N 137.463 0.71206 -1.40597 0
M  V30 1423 C 138.74 1.46536 -1.29563 0
M  V30 1424 C 139.12 2.10931 0.0844217 0
M  V30 1425 O 138.468 2.00418 1.0975 0
M  V30 1426 C 138.678 2.49821 -2.43701 0
M  V30 1427 C 140.026 3.15551 -2.841 0
M  V30 1428 O 141.05 2.60142 -2.4332 0
M  V30 1429 O 139.909 4.15867 -3.54566 0
M  V30 1430 H 137.003 0.651801 -0.509004 0
M  V30 1431 H 139.549 0.743935 -1.52524 0
M  V30 1432 H 138.321 2.00778 -3.35863 0
M  V30 1433 H 137.944 3.29495 -2.22528 0
M  V30 1434 N 138.941 1.26152 0.944643 0
M  V30 1435 C 140.166 1.14363 1.7302 0
M  V30 1436 C 140.591 -0.29772 1.85729 0
M  V30 1437 O 139.949 -1.2157 1.34501 0
M  V30 1438 C 139.997 1.81378 3.11664 0
M  V30 1439 O 139.101 1.10022 3.97453 0
M  V30 1440 H 138.442 0.398694 0.53098 0
M  V30 1441 H 140.972 1.66906 1.18337 0
M  V30 1442 H 140.982 1.88064 3.62072 0
M  V30 1443 H 139.657 2.86237 3.0173 0
M  V30 1444 H 138.234 1.11287 3.55907 0
M  V30 1445 N 140.419 -1.14872 1.07899 0
M  V30 1446 C 141.351 -2.19425 0.662231 0
M  V30 1447 C 142.364 -1.60231 -0.288079 0
M  V30 1448 O 143.553 -1.78336 -0.076534 0
M  V30 1449 C 140.653 -3.38867 -0.0470695 0
M  V30 1450 C 139.826 -4.27597 0.920831 0
M  V30 1451 C 138.885 -5.25616 0.247805 0
M  V30 1452 O 137.911 -5.62189 0.890599 0
M  V30 1453 N 139.113 -5.71746 -1.00435 0
M  V30 1454 H 141.878 -2.55797 1.56166 0
M  V30 1455 H 139.439 -1.30042 0.964404 0
M  V30 1456 H 141.431 -4.01497 -0.50813 0
M  V30 1457 H 140.001 -3.00864 -0.848523 0
M  V30 1458 H 139.221 -3.61982 1.56087 0
M  V30 1459 H 140.509 -4.83748 1.57688 0
M  V30 1460 H 139.907 -5.44153 -1.54642 0
M  V30 1461 H 138.464 -6.36389 -1.40899 0
M  V30 1462 N 141.898 -0.863906 -1.31812 0
M  V30 1463 C 142.845 -0.313303 -2.28664 0
M  V30 1464 C 143.815 0.584868 -1.55462 0
M  V30 1465 O 145 0.517805 -1.83639 0
M  V30 1466 C 142.14 0.48441 -3.41683 0
M  V30 1467 C 141.253 -0.440594 -4.29747 0
M  V30 1468 C 140.388 0.370652 -5.29905 0
M  V30 1469 C 139.427 -0.551164 -6.09613 0
M  V30 1470 N 138.564 0.223462 -7.01744 0
M  V30 1471 H 143.404 -1.14444 -2.75148 0
M  V30 1472 H 140.941 -0.575769 -1.35364 0
M  V30 1473 H 142.899 0.962627 -4.05943 0
M  V30 1474 H 141.529 1.28029 -2.96325 0
M  V30 1475 H 140.581 -1.03724 -3.65986 0
M  V30 1476 H 141.893 -1.14767 -4.85417 0
M  V30 1477 H 141.047 0.911638 -5.99812 0
M  V30 1478 H 139.786 1.11105 -4.74876 0
M  V30 1479 H 138.791 -1.10396 -5.38603 0
M  V30 1480 H 140.016 -1.29032 -6.66729 0
M  V30 1481 H 137.962 0.946787 -6.49132 0
M  V30 1482 H 137.879 -0.424399 -7.54808 0
M  V30 1483 H 139.147 0.745876 -7.75923 0
M  V30 1484 N 143.376 1.44774 -0.622745 0
M  V30 1485 C 144.306 2.33382 0.0741861 0
M  V30 1486 C 145.287 1.47719 0.843387 0
M  V30 1487 O 146.472 1.76458 0.810934 0
M  V30 1488 C 143.602 3.30663 1.06204 0
M  V30 1489 C 142.556 4.26079 0.405037 0
M  V30 1490 C 141.882 5.13165 1.5022 0
M  V30 1491 C 143.182 5.1781 -0.683414 0
M  V30 1492 H 144.876 2.91905 -0.665713 0
M  V30 1493 H 142.422 1.40363 -0.321587 0
M  V30 1494 H 144.375 3.9153 1.55827 0
M  V30 1495 H 143.099 2.70331 1.83272 0
M  V30 1496 H 141.758 3.66532 -0.0704683 0
M  V30 1497 H 141.406 4.49191 2.26355 0
M  V30 1498 H 141.106 5.77812 1.06803 0
M  V30 1499 H 142.63 5.76902 2.00041 0
M  V30 1500 H 144.044 5.72661 -0.270631 0
M  V30 1501 H 142.441 5.91015 -1.04023 0
M  V30 1502 H 143.511 4.59326 -1.55395 0
M  V30 1503 N 144.854 0.36279 1.53368 0
M  V30 1504 C 146.082 -0.228613 2.05633 0
M  V30 1505 C 146.497 -1.42676 1.23649 0
M  V30 1506 O 145.854 -1.80394 0.27647 0
M  V30 1507 C 145.905 -0.624845 3.56059 0
M  V30 1508 O 145.626 0.525675 4.34935 0
M  V30 1509 C 147.127 -1.27493 4.24571 0
M  V30 1510 H 144.347 -0.0407183 0.669763 0
M  V30 1511 H 146.891 0.520352 1.97769 0
M  V30 1512 H 145.046 -1.32373 3.64083 0
M  V30 1513 H 145.46 0.205969 5.24095 0
M  V30 1514 H 146.934 -1.50277 5.31151 0
M  V30 1515 H 147.411 -2.23439 3.78116 0
M  V30 1516 H 148.017 -0.617558 4.20792 0
M  V30 1517 N 146.332 -1.57332 0.0918853 0
M  V30 1518 C 147.56 -1.98574 -0.581048 0
M  V30 1519 C 147.975 -0.970903 -1.61923 0
M  V30 1520 O 147.332 0.0399054 -1.82456 0
M  V30 1521 C 147.383 -3.39872 -1.23164 0
M  V30 1522 O 147.104 -4.37469 -0.234989 0
M  V30 1523 C 148.605 -3.96099 -1.99049 0
M  V30 1524 H 145.825 -0.65261 -0.156018 0
M  V30 1525 H 148.369 -2.0379 0.170225 0
M  V30 1526 H 146.524 -3.35679 -1.93386 0
M  V30 1527 H 146.938 -5.19751 -0.70418 0
M  V30 1528 H 148.412 -4.97127 -2.39934 0
M  V30 1529 H 148.889 -3.3374 -2.85507 0
M  V30 1530 H 149.495 -4.03755 -1.3365 0
M  V30 1531 N 147.81 0.181792 -1.56548 0
M  V30 1532 C 149.056 0.901431 -1.81665 0
M  V30 1533 C 149.389 1.82347 -0.668075 0
M  V30 1534 O 148.664 1.91669 0.330615 0
M  V30 1535 C 148.947 1.70618 -3.17115 0
M  V30 1536 C 148.8 0.807964 -4.42484 0
M  V30 1537 C 150.119 2.67605 -3.49393 0
M  V30 1538 H 147.238 0.32627 -0.660846 0
M  V30 1539 H 149.88 0.168134 -1.89255 0
M  V30 1540 H 148.03 2.33133 -3.10775 0
M  V30 1541 H 149.702 0.19649 -4.60881 0
M  V30 1542 H 147.945 0.115411 -4.33646 0
M  V30 1543 H 148.616 1.40632 -5.33785 0
M  V30 1544 H 151.092 2.15218 -3.56118 0
M  V30 1545 H 149.968 3.20985 -4.45264 0
M  V30 1546 H 150.229 3.47298 -2.73563 0
M  V30 1547 N 149.288 1.51039 0.449983 0
M  V30 1548 C 150.565 1.53612 1.21089 0
M  V30 1549 C 150.945 0.292997 2.09057 0
M  V30 1550 O 150.293 -0.72259 2.16774 0
M  V30 1551 C 150.503 2.84337 2.0237 0
M  V30 1552 C 151.851 3.35807 2.59843 0
M  V30 1553 O 152.875 2.85802 2.12593 0
M  V30 1554 O 151.734 4.23029 3.45989 0
M  V30 1555 H 148.828 0.617057 0.550608 0
M  V30 1556 H 151.374 1.63344 0.460082 0
M  V30 1557 H 150.146 3.66278 1.37681 0
M  V30 1558 H 149.769 2.77708 2.84542 0
M  V30 1559 N 150.766 -0.704594 1.40972 0
M  V30 1560 C 152.015 -1.46018 1.39146 0
M  V30 1561 C 152.328 -1.956 0.000589254 0
M  V30 1562 O 153.534 -2.71137 -0.1403 0
M  V30 1563 C 151.99 -2.63996 2.4461 0
M  V30 1564 C 151.598 -2.21238 3.89561 0
M  V30 1565 C 153.342 -3.41677 2.51907 0
M  V30 1566 C 151.249 -3.3612 4.86598 0
M  V30 1567 H 150.179 -0.548444 0.517422 0
M  V30 1568 H 152.83 -0.765784 1.66757 0
M  V30 1569 H 151.212 -3.3566 2.10115 0
M  V30 1570 H 152.386 -1.56923 4.33257 0
M  V30 1571 H 150.701 -1.56574 3.85841 0
M  V30 1572 H 153.298 -4.27182 3.2159 0
M  V30 1573 H 153.641 -3.86247 1.55303 0
M  V30 1574 H 154.174 -2.77064 2.85448 0
M  V30 1575 H 150.913 -2.96572 5.84573 0
M  V30 1576 H 150.433 -3.99315 4.47557 0
M  V30 1577 H 152.112 -4.02029 5.06934 0
M  V30 1578 N 152.244 -1.26651 -0.937939 0
M  V30 1579 C 153.49 -1.12553 -1.687 0
M  V30 1580 C 153.823 0.329782 -1.91379 0
M  V30 1581 O 153.098 1.24202 -1.4968 0
M  V30 1582 C 153.381 -1.89862 -3.05981 0
M  V30 1583 C 153.234 -3.43318 -2.90607 0
M  V30 1584 C 154.553 -1.69499 -4.0615 0
M  V30 1585 H 151.672 -0.410257 -0.612257 0
M  V30 1586 H 154.314 -1.55685 -1.08913 0
M  V30 1587 H 152.464 -1.53204 -3.57017 0
M  V30 1588 H 154.136 -3.89747 -2.46769 0
M  V30 1589 H 152.379 -3.70179 -2.26164 0
M  V30 1590 H 153.05 -3.92642 -3.8799 0
M  V30 1591 H 155.526 -2.01442 -3.64088 0
M  V30 1592 H 154.402 -2.26002 -5.00214 0
M  V30 1593 H 154.663 -0.640365 -4.37438 0
M  V30 1594 N 153.722 1.14298 -1.08507 0
M  V30 1595 C 154.95 1.89219 -0.836876 0
M  V30 1596 C 155.365 1.78638 0.611054 0
M  V30 1597 O 154.722 1.14643 1.41998 0
M  V30 1598 C 154.773 3.39158 -1.25116 0
M  V30 1599 O 154.494 3.49449 -2.64229 0
M  V30 1600 C 155.995 4.31073 -1.03398 0
M  V30 1601 H 153.215 0.599328 -0.301739 0
M  V30 1602 H 155.759 1.44746 -1.44461 0
M  V30 1603 H 153.914 3.81251 -0.687514 0
M  V30 1604 H 154.328 4.42589 -2.81452 0
M  V30 1605 H 155.802 5.34646 -1.37323 0
M  V30 1606 H 156.279 4.3919 0.0289259 0
M  V30 1607 H 156.885 3.94738 -1.58311 0
M  V30 1608 N 155.201 0.870884 1.31352 0
M  V30 1609 C 156.131 0.343096 2.30966 0
M  V30 1610 C 157.112 -0.566507 1.60389 0
M  V30 1611 O 158.297 -0.483336 1.88089 0
M  V30 1612 C 155.427 -0.455487 3.443 0
M  V30 1613 C 154.381 0.361103 4.26474 0
M  V30 1614 C 153.707 -0.563221 5.31725 0
M  V30 1615 C 155.007 1.59566 4.97329 0
M  V30 1616 H 156.701 1.17548 2.75359 0
M  V30 1617 H 154.247 0.566686 1.32381 0
M  V30 1618 H 156.2 -0.83525 4.13039 0
M  V30 1619 H 154.924 -1.32139 2.98675 0
M  V30 1620 H 153.583 0.722825 3.59403 0
M  V30 1621 H 153.231 -1.42643 4.82351 0
M  V30 1622 H 152.931 -0.0207409 5.87596 0
M  V30 1623 H 154.455 -0.939808 6.03324 0
M  V30 1624 H 155.869 1.28728 5.58661 0
M  V30 1625 H 154.266 2.07728 5.63 0
M  V30 1626 H 155.336 2.34798 4.24262 0
M  V30 1627 N 156.679 -1.44442 0.630414 0
M  V30 1628 C 158.095 -1.56832 0.295973 0
M  V30 1629 C 158.295 -1.61806 -1.20088 0
M  V30 1630 O 157.351 -1.5607 -1.9849 0
M  V30 1631 C 158.664 -2.84031 0.987264 0
M  V30 1632 C 160.212 -2.97742 0.96534 0
M  V30 1633 C 160.687 -4.27743 1.63708 0
M  V30 1634 N 162.178 -4.34555 1.60364 0
M  V30 1635 C 162.913 -5.33862 2.09234 0
M  V30 1636 N 162.409 -6.39578 2.66292 0
M  V30 1637 N 164.202 -5.25366 1.99867 0
M  V30 1638 H 156.353 -1.39457 1.60205 0
M  V30 1639 H 158.616 -0.668237 0.672431 0
M  V30 1640 H 158.322 -2.86338 2.04215 0
M  V30 1641 H 158.196 -3.73534 0.524588 0
M  V30 1642 H 160.583 -2.94989 -0.0810639 0
M  V30 1643 H 160.664 -2.09589 1.4665 0
M  V30 1644 H 160.308 -4.31255 2.68293 0
M  V30 1645 H 160.238 -5.14752 1.11076 0
M  V30 1646 H 162.729 -3.58772 1.18705 0
M  V30 1647 H 163.042 -7.11637 3.01317 0
M  V30 1648 H 161.387 -6.40265 2.70343 0
M  V30 1649 H 164.578 -4.41688 1.55013 0
M  V30 1650 H 164.751 -6.02606 2.38265 0
M  V30 1651 N 158.157 -0.370918 -1.53173 0
M  V30 1652 C 159.403 0.217423 -2.01631 0
M  V30 1653 C 159.736 1.47983 -1.25756 0
M  V30 1654 O 159.011 1.91274 -0.352764 0
M  V30 1655 C 159.294 0.503982 -3.56556 0
M  V30 1656 C 159.147 -0.77243 -4.43118 0
M  V30 1657 C 160.466 1.30234 -4.20389 0
M  V30 1658 H 157.585 0.0775486 -0.732909 0
M  V30 1659 H 160.227 -0.496863 -1.83388 0
M  V30 1660 H 158.377 1.11248 -3.72231 0
M  V30 1661 H 160.049 -1.4098 -4.39229 0
M  V30 1662 H 158.292 -1.39167 -4.10871 0
M  V30 1663 H 158.963 -0.526815 -5.4948 0
M  V30 1664 H 161.439 0.787546 -4.08579 0
M  V30 1665 H 160.315 1.47158 -5.28806 0
M  V30 1666 H 160.576 2.31237 -3.76805 0
M  V30 1667 N 159.635 1.57281 -0.100228 0
M  V30 1668 C 160.565 2.17328 0.853857 0
M  V30 1669 C 161.546 1.10804 1.2906 0
M  V30 1670 O 162.731 1.38963 1.35657 0
M  V30 1671 C 159.861 2.75772 2.11109 0
M  V30 1672 C 158.815 3.87713 1.81279 0
M  V30 1673 C 158.141 4.32882 3.13874 0
M  V30 1674 C 159.441 5.10677 1.09574 0
M  V30 1675 H 161.135 2.97305 0.353545 0
M  V30 1676 H 158.681 1.43009 0.168612 0
M  V30 1677 H 160.634 3.16433 2.78296 0
M  V30 1678 H 159.358 1.93057 2.63432 0
M  V30 1679 H 158.017 3.476 1.16489 0
M  V30 1680 H 157.665 3.47051 3.64095 0
M  V30 1681 H 157.365 5.08358 2.94696 0
M  V30 1682 H 158.889 4.7618 3.82211 0
M  V30 1683 H 160.303 5.48474 1.66879 0
M  V30 1684 H 158.7 5.91615 1.00557 0
M  V30 1685 H 159.77 4.84835 0.0793299 0
M  V30 1686 N 161.113 -0.173488 1.56642 0
M  V30 1687 C 162.353 -0.896984 1.83667 0
M  V30 1688 C 162.717 -1.79523 0.680842 0
M  V30 1689 O 163.918 -2.55616 0.831488 0
M  V30 1690 C 162.189 -1.67351 3.15798 0
M  V30 1691 S 163.748 -2.44607 3.64298 0
M  V30 1692 H 160.566 -0.300464 0.644393 0
M  V30 1693 H 163.168 -0.158775 1.94854 0
M  V30 1694 H 161.872 -1.00462 3.97914 0
M  V30 1695 H 161.403 -2.45313 3.07546 0
M  V30 1696 H 163.418 -3.69261 3.31452 0
M  V30 1697 N 162.591 -1.51276 -0.441967 0
M  V30 1698 C 164.007 -1.39349 -0.778083 0
M  V30 1699 C 164.207 -0.472212 -1.95889 0
M  V30 1700 O 163.263 0.0743551 -2.5239 0
M  V30 1701 C 164.576 -2.81292 -1.0628 0
M  V30 1702 C 166.124 -2.9041 -1.16751 0
M  V30 1703 C 166.599 -4.33251 -1.48519 0
M  V30 1704 N 168.09 -4.36336 -1.55453 0
M  V30 1705 C 168.825 -5.43885 -1.81596 0
M  V30 1706 N 168.321 -6.61601 -2.05562 0
M  V30 1707 N 170.114 -5.3136 -1.8334 0
M  V30 1708 H 162.265 -2.09729 0.335774 0
M  V30 1709 H 164.528 -0.943925 0.0878028 0
M  V30 1710 H 164.234 -3.50678 -0.267905 0
M  V30 1711 H 164.108 -3.20334 -1.99163 0
M  V30 1712 H 166.495 -2.21225 -1.95304 0
M  V30 1713 H 166.576 -2.54871 -0.217801 0
M  V30 1714 H 166.22 -5.02984 -0.704958 0
M  V30 1715 H 166.15 -4.66299 -2.44689 0
M  V30 1716 H 168.641 -3.51466 -1.38853 0
M  V30 1717 H 168.954 -7.39361 -2.24867 0
M  V30 1718 H 167.299 -6.64725 -2.02894 0
M  V30 1719 H 170.49 -4.38382 -1.64132 0
M  V30 1720 H 170.663 -6.15258 -2.03377 0
M  V30 1721 N 164.069 0.697108 -1.41344 0
M  V30 1722 C 164.979 1.84088 -1.45427 0
M  V30 1723 C 165.995 1.70545 -0.34501 0
M  V30 1724 O 167.171 1.92488 -0.592492 0
M  V30 1725 C 164.236 3.20056 -1.33286 0
M  V30 1726 C 163.297 3.45718 -2.54514 0
M  V30 1727 C 162.53 4.75199 -2.42944 0
M  V30 1728 O 162.753 5.51579 -1.45318 0
M  V30 1729 O 161.687 5.0161 -3.32672 0
M  V30 1730 H 165.513 1.836 -2.41919 0
M  V30 1731 H 163.098 0.849966 -1.22866 0
M  V30 1732 H 164.98 4.01236 -1.28794 0
M  V30 1733 H 163.655 3.2123 -0.39909 0
M  V30 1734 H 162.562 2.64474 -2.64583 0
M  V30 1735 H 163.895 3.49356 -3.46715 0
M  V30 1736 N 165.547 1.27147 0.931209 0
M  V30 1737 C 166.795 1.13055 1.6752 0
M  V30 1738 C 167.116 -0.324791 1.92276 0
M  V30 1739 O 166.386 -1.22775 1.52654 0
M  V30 1740 H 164.966 0.415391 0.620854 0
M  V30 1741 H 167.628 1.59623 1.11833 0
M  V30 1742 H 166.724 1.65694 2.64485 0
M  V30 1743 N 167.025 -1.13721 1.09112 0
M  V30 1744 C 168.271 -1.85198 0.826414 0
M  V30 1745 C 168.604 -1.83129 -0.646319 0
M  V30 1746 O 167.879 -1.2671 -1.47563 0
M  V30 1747 C 168.162 -3.33507 1.35812 0
M  V30 1748 C 168.015 -3.44108 2.89672 0
M  V30 1749 C 169.334 -4.28838 0.989256 0
M  V30 1750 H 166.453 -0.67243 0.301675 0
M  V30 1751 H 169.095 -1.33499 1.35197 0
M  V30 1752 H 167.245 -3.77666 0.911082 0
M  V30 1753 H 168.917 -3.08684 3.428 0
M  V30 1754 H 167.16 -2.85087 3.26967 0
M  V30 1755 H 167.831 -4.48388 3.21951 0
M  V30 1756 H 170.307 -3.92734 1.37475 0
M  V30 1757 H 169.183 -5.31051 1.38838 0
M  V30 1758 H 169.444 -4.4198 -0.102924 0
M  V30 1759 N 168.503 -0.877838 -1.30888 0
M  V30 1760 C 169.919 -0.570844 -1.49042 0
M  V30 1761 C 170.119 0.893159 -1.80624 0
M  V30 1762 O 169.175 1.67485 -1.88958 0
M  V30 1763 C 170.488 -1.47784 -2.61878 0
M  V30 1764 C 172.036 -1.48071 -2.75761 0
M  V30 1765 C 172.511 -2.37347 -3.91702 0
M  V30 1766 N 174.002 -2.35271 -3.99001 0
M  V30 1767 C 174.737 -3.01063 -4.88004 0
M  V30 1768 N 174.233 -3.76055 -5.81854 0
M  V30 1769 N 176.026 -2.90332 -4.81315 0
M  V30 1770 H 168.177 -1.82502 -1.0866 0
M  V30 1771 H 170.44 -0.780797 -0.537644 0
M  V30 1772 H 170.146 -2.51993 -2.45341 0
M  V30 1773 H 170.02 -1.18215 -3.58197 0
M  V30 1774 H 172.407 -0.446166 -2.91708 0
M  V30 1775 H 172.488 -1.81668 -1.80085 0
M  V30 1776 H 172.132 -3.40883 -3.76512 0
M  V30 1777 H 172.062 -2.01071 -4.86701 0
M  V30 1778 H 174.553 -1.80768 -3.3186 0
M  V30 1779 H 174.866 -4.23366 -6.46514 0
M  V30 1780 H 173.211 -3.80163 -5.81808 0
M  V30 1781 H 176.402 -2.31278 -4.06974 0
M  V30 1782 H 176.575 -3.41885 -5.50471 0
M  V30 1783 N 169.982 1.44106 -0.638065 0
M  V30 1784 C 171.228 2.02815 -0.15409 0
M  V30 1785 C 171.583 1.49342 1.21304 0
M  V30 1786 O 170.876 0.670699 1.79478 0
M  V30 1787 C 171.07 3.5729 -0.0887327 0
M  V30 1788 C 170.899 4.2575 -1.44799 0
M  V30 1789 C 169.669 4.62443 -2.03653 0
M  V30 1790 C 171.867 4.55746 -2.38327 0
M  V30 1791 N 169.849 5.15903 -3.32741 0
M  V30 1792 C 171.22 5.10364 -3.52036 0
M  V30 1793 C 173.275 4.37703 -2.3732 0
M  V30 1794 C 171.978 5.48837 -4.64941 0
M  V30 1795 C 174.004 4.77229 -3.49294 0
M  V30 1796 C 173.366 5.31966 -4.61726 0
M  V30 1797 H 169.465 0.775519 -0.100466 0
M  V30 1798 H 172.049 1.755 -0.843071 0
M  V30 1799 H 170.22 3.84201 0.569548 0
M  V30 1800 H 171.952 4.02671 0.404711 0
M  V30 1801 H 168.707 4.46987 -1.56523 0
M  V30 1802 H 169.131 5.47102 -3.98758 0
M  V30 1803 H 173.773 3.94671 -1.51641 0
M  V30 1804 H 171.491 5.9082 -5.51323 0
M  V30 1805 H 175.077 4.64976 -3.49698 0
M  V30 1806 H 173.957 5.61986 -5.46939 0
M  V30 1807 N 171.46 0.379036 1.52974 0
M  V30 1808 C 172.876 0.0285448 1.59574 0
M  V30 1809 C 173.076 -1.45542 1.39355 0
M  V30 1810 O 172.132 -2.2187 1.20541 0
M  V30 1811 C 173.445 0.496535 2.96572 0
M  V30 1812 C 174.993 0.451909 3.0972 0
M  V30 1813 C 175.468 0.895924 4.49152 0
M  V30 1814 N 176.959 0.851522 4.55306 0
M  V30 1815 C 177.694 1.16661 5.61407 0
M  V30 1816 N 177.19 1.55166 6.752 0
M  V30 1817 N 178.983 1.08853 5.51459 0
M  V30 1818 H 171.134 1.34525 1.64367 0
M  V30 1819 H 173.397 0.550733 0.771619 0
M  V30 1820 H 173.103 1.53258 3.16552 0
M  V30 1821 H 172.977 -0.109802 3.7704 0
M  V30 1822 H 175.364 -0.575029 2.89443 0
M  V30 1823 H 175.445 1.09392 2.3123 0
M  V30 1824 H 175.089 1.92104 4.70168 0
M  V30 1825 H 175.019 0.23103 5.26093 0
M  V30 1826 H 177.51 0.568038 3.73606 0
M  V30 1827 H 177.823 1.776 7.52116 0
M  V30 1828 H 176.168 1.59044 6.76557 0
M  V30 1829 H 179.359 0.786803 4.6144 0
M  V30 1830 H 179.532 1.33742 6.34048 0
M  V30 1831 N 172.938 -1.57226 0.108567 0
M  V30 1832 C 174.184 -1.95121 -0.552761 0
M  V30 1833 C 174.517 -0.991345 -1.66991 0
M  V30 1834 O 173.792 -0.0267211 -1.94482 0
M  V30 1835 C 174.075 -3.43039 -1.09528 0
M  V30 1836 C 173.928 -4.49797 0.0177332 0
M  V30 1837 C 175.247 -3.92567 -1.98945 0
M  V30 1838 H 172.366 -0.709496 -0.199461 0
M  V30 1839 H 175.008 -1.89126 0.182011 0
M  V30 1840 H 173.158 -3.48279 -1.72146 0
M  V30 1841 H 174.83 -4.56661 0.652584 0
M  V30 1842 H 173.073 -4.284 0.682309 0
M  V30 1843 H 173.744 -5.50528 -0.402919 0
M  V30 1844 H 176.22 -3.89565 -1.46214 0
M  V30 1845 H 175.096 -4.96605 -2.33827 0
M  V30 1846 H 175.357 -3.32648 -2.91201 0
M  V30 1847 N 174.416 0.165178 -1.56732 0
M  V30 1848 C 175.349 1.23336 -1.91998 0
M  V30 1849 C 176.327 1.42476 -0.783531 0
M  V30 1850 O 177.511 1.57384 -1.03743 0
M  V30 1851 C 174.638 2.59533 -2.17625 0
M  V30 1852 C 173.684 2.57093 -3.40302 0
M  V30 1853 S 174.517 2.05571 -4.9447 0
M  V30 1854 C 175.673 3.43532 -5.23198 0
M  V30 1855 H 175.906 0.932387 -2.82301 0
M  V30 1856 H 173.439 0.370013 -1.49901 0
M  V30 1857 H 175.397 3.37918 -2.3307 0
M  V30 1858 H 174.058 2.86827 -1.28019 0
M  V30 1859 H 173.251 3.57308 -3.55453 0
M  V30 1860 H 172.853 1.86806 -3.24005 0
M  V30 1861 H 175.145 4.39559 -5.15552 0
M  V30 1862 H 176.088 3.33251 -6.2478 0
M  V30 1863 H 176.496 3.39828 -4.50752 0
M  V30 1864 N 175.894 1.51508 0.433938 0
M  V30 1865 C 176.857 1.72473 1.50949 0
M  V30 1866 C 177.857 0.594725 1.49398 0
M  V30 1867 O 179.047 0.862315 1.5136 0
M  V30 1868 C 176.179 1.78431 2.90474 0
M  V30 1869 H 177.372 2.68467 1.33662 0
M  V30 1870 H 174.925 1.41549 0.662836 0
M  V30 1871 H 175.66 0.842645 3.13161 0
M  V30 1872 H 175.445 2.60558 2.93005 0
M  V30 1873 H 176.935 1.96479 3.68491 0
M  V30 1874 N 177.372 -0.689602 1.41712 0
M  V30 1875 C 178.621 -1.44534 1.40686 0
M  V30 1876 C 178.934 -1.95588 0.0213352 0
M  V30 1877 O 180.14 -2.71271 -0.111534 0
M  V30 1878 C 178.596 -2.61387 2.47396 0
M  V30 1879 C 178.204 -2.17094 3.91885 0
M  V30 1880 C 179.948 -3.38986 2.55517 0
M  V30 1881 C 177.855 -3.3094 4.90135 0
M  V30 1882 H 176.785 -0.542925 0.52321 0
M  V30 1883 H 179.436 -0.748054 1.6756 0
M  V30 1884 H 177.818 -3.33412 2.13664 0
M  V30 1885 H 178.992 -1.52318 4.34897 0
M  V30 1886 H 177.307 -1.52473 3.8748 0
M  V30 1887 H 179.904 -4.23747 3.26102 0
M  V30 1888 H 180.247 -3.84578 1.59391 0
M  V30 1889 H 180.78 -2.74021 2.8837 0
M  V30 1890 H 177.519 -2.90355 5.87685 0
M  V30 1891 H 177.039 -3.94546 4.51767 0
M  V30 1892 H 178.718 -3.9663 5.11169 0
M  V30 1893 N 178.85 -1.27639 -0.924453 0
M  V30 1894 C 179.782 -1.06442 -2.02985 0
M  V30 1895 C 180.795 -0.0194771 -1.62788 0
M  V30 1896 O 181.984 -0.261388 -1.76576 0
M  V30 1897 C 179.084 -0.59327 -3.33667 0
M  V30 1898 C 178.257 -1.71123 -4.02537 0
M  V30 1899 C 177.316 -1.23527 -5.11495 0
M  V30 1900 O 176.342 -1.93553 -5.35281 0
M  V30 1901 N 177.544 -0.0926678 -5.80426 0
M  V30 1902 H 180.309 -2.01633 -2.2173 0
M  V30 1903 H 177.87 -1.19248 -1.09505 0
M  V30 1904 H 179.862 -0.258686 -4.03872 0
M  V30 1905 H 178.432 0.265502 -3.1147 0
M  V30 1906 H 177.652 -2.21593 -3.26022 0
M  V30 1907 H 178.94 -2.46145 -4.45298 0
M  V30 1908 H 178.338 0.491741 -5.63559 0
M  V30 1909 H 176.895 0.182714 -6.51544 0
M  V30 1910 N 180.328 1.1314 -1.09713 0
M  V30 1911 C 181.605 1.80762 -0.747302 0
M  V30 1912 C 181.985 1.96663 0.767265 0
M  V30 1913 O 181.333 1.53706 1.69076 0
M  V30 1914 C 181.543 3.15606 -1.48975 0
M  V30 1915 C 182.891 3.90914 -1.65746 0
M  V30 1916 O 183.915 3.25239 -1.45251 0
M  V30 1917 O 182.774 5.08718 -1.9967 0
M  V30 1918 H 179.868 0.782103 -0.268782 0
M  V30 1919 H 182.414 1.20041 -1.19951 0
M  V30 1920 H 181.186 2.99278 -2.52088 0
M  V30 1921 H 180.809 3.84029 -1.02991 0
M  V30 1922 N 181.806 0.884767 1.30421 0
M  V30 1923 C 183.053 0.503105 1.96151 0
M  V30 1924 C 183.381 -0.947676 1.69851 0
M  V30 1925 O 182.636 -1.68467 0.995861 0
M  V30 1926 C 182.935 0.724318 3.49983 0
M  V30 1927 C 182.601 2.15015 3.96332 0
M  V30 1928 C 181.263 2.54005 4.08699 0
M  V30 1929 C 183.615 3.07936 4.20505 0
M  V30 1930 C 180.943 3.85128 4.42599 0
M  V30 1931 C 183.295 4.3859 4.55874 0
M  V30 1932 C 181.959 4.77474 4.66449 0
M  V30 1933 H 181.229 0.184099 0.717766 0
M  V30 1934 H 183.876 1.12058 1.55291 0
M  V30 1935 H 182.181 0.0238086 3.91793 0
M  V30 1936 H 183.878 0.408617 3.98913 0
M  V30 1937 H 180.468 1.8375 3.87213 0
M  V30 1938 H 184.652 2.79033 4.10431 0
M  V30 1939 H 179.908 4.14996 4.48986 0
M  V30 1940 H 184.082 5.10629 4.7353 0
M  V30 1941 H 181.709 5.79115 4.92473 0
M  V30 1942 N 183.284 -1.43765 0.645699 0
M  V30 1943 C 184.231 -2.30745 -0.0504648 0
M  V30 1944 C 185.201 -1.4432 -0.822241 0
M  V30 1945 O 186.386 -1.73202 -0.800358 0
M  V30 1946 C 183.526 -3.29802 -1.0161 0
M  V30 1947 C 182.639 -4.31326 -0.241219 0
M  V30 1948 C 181.774 -5.17469 -1.19998 0
M  V30 1949 C 180.813 -6.10691 -0.415094 0
M  V30 1950 N 179.95 -6.89483 -1.32506 0
M  V30 1951 H 184.79 -2.8973 0.697155 0
M  V30 1952 H 182.327 -1.42738 0.355563 0
M  V30 1953 H 184.285 -3.85734 -1.58949 0
M  V30 1954 H 182.915 -2.72483 -1.73069 0
M  V30 1955 H 181.967 -3.77749 0.448334 0
M  V30 1956 H 183.279 -4.9743 0.369437 0
M  V30 1957 H 182.433 -5.7799 -1.84424 0
M  V30 1958 H 181.172 -4.51473 -1.84455 0
M  V30 1959 H 180.177 -5.49265 0.242565 0
M  V30 1960 H 181.402 -6.78727 0.224966 0
M  V30 1961 H 179.348 -6.26142 -1.95657 0
M  V30 1962 H 179.265 -7.52081 -0.768783 0
M  V30 1963 H 180.533 -7.54516 -1.9577 0
M  V30 1964 N 184.763 -0.387143 -1.52771 0
M  V30 1965 C 186.174 0.0873634 -1.86495 0
M  V30 1966 C 186.525 1.46336 -1.30691 0
M  V30 1967 O 185.65 2.068 -0.637409 0
M  V30 1968 C 186.245 0.165305 -3.38396 0
M  V30 1969 C 184.804 0.584101 -3.7184 0
M  V30 1970 C 183.951 -0.255279 -2.76122 0
M  V30 1971 H 186.902 -0.605104 -1.46711 0
M  V30 1972 H 186.923 0.984848 -3.67534 0
M  V30 1973 H 186.435 -0.836301 -3.78982 0
M  V30 1974 H 184.536 1.59315 -3.36823 0
M  V30 1975 H 184.649 0.343749 -4.77865 0
M  V30 1976 H 183.013 0.279126 -2.53166 0
M  V30 1977 H 183.796 -1.25482 -3.19545 0
M  V30 1978 N 186.241 1.57166 -0.116904 0
M  V30 1979 C 187.488 1.95123 0.541603 0
M  V30 1980 C 187.816 1.00006 1.6682 0
M  V30 1981 O 187.071 0.0235658 1.95686 0
M  V30 1982 C 187.37 3.39508 1.11664 0
M  V30 1983 C 187.036 4.50762 0.111606 0
M  V30 1984 C 185.698 4.80918 -0.164758 0
M  V30 1985 C 188.05 5.18036 -0.573438 0
M  V30 1986 C 185.378 5.75666 -1.13249 0
M  V30 1987 C 187.73 6.13824 -1.52978 0
M  V30 1988 C 186.394 6.42374 -1.81415 0
M  V30 1989 H 185.664 0.714005 0.198187 0
M  V30 1990 H 188.311 1.9048 -0.197365 0
M  V30 1991 H 186.616 3.40835 1.93232 0
M  V30 1992 H 188.313 3.66189 1.63422 0
M  V30 1993 H 184.903 4.27272 0.337192 0
M  V30 1994 H 189.087 4.94896 -0.373092 0
M  V30 1995 H 184.343 5.96092 -1.35958 0
M  V30 1996 H 188.517 6.65039 -2.06629 0
M  V30 1997 H 186.144 7.15599 -2.56557 0
M  V30 1998 N 187.719 -0.156864 1.56817 0
M  V30 1999 C 188.629 -1.2136 2.00771 0
M  V30 2000 C 189.645 -1.47598 0.921459 0
M  V30 2001 O 190.821 -1.59462 1.2302 0
M  V30 2002 C 187.886 -2.52943 2.37109 0
M  V30 2003 C 186.947 -2.34439 3.59634 0
M  V30 2004 C 186.18 -3.59748 3.94229 0
M  V30 2005 O 186.403 -4.65526 3.29609 0
M  V30 2006 O 185.337 -3.52998 4.8752 0
M  V30 2007 H 189.163 -0.870468 2.90958 0
M  V30 2008 H 186.748 -0.36484 1.44877 0
M  V30 2009 H 188.63 -3.30538 2.61386 0
M  V30 2010 H 187.305 -2.86806 1.5008 0
M  V30 2011 H 186.212 -1.54828 3.40557 0
M  V30 2012 H 187.545 -2.05496 4.4725 0
M  V30 2013 N 189.197 -1.51736 -0.425897 0
M  V30 2014 C 190.145 -1.74464 -1.53834 0
M  V30 2015 C 191.139 -0.611241 -1.57988 0
M  V30 2016 O 192.345 -0.792899 -1.61596 0
M  V30 2017 H 188.72 -0.551437 -0.511293 0
M  V30 2018 H 190.691 -2.67694 -1.31843 0
M  V30 2019 C 189.44 -1.8972 -2.91379 0
M  V30 2020 H 188.763 -2.76344 -2.88919 0
M  V30 2021 H 190.203 -2.09629 -3.68553 0
M  V30 2022 C 188.662 -0.65992 -3.30374 0
M  V30 2023 O 189.192 0.180083 -4.01296 0
M  V30 2024 N 187.398 -0.500677 -2.86254 0
M  V30 2025 H 186.945 -1.18532 -2.28709 0
M  V30 2026 H 186.903 0.325903 -3.12706 0
M  V30 2027 N 190.675 0.682077 -1.42076 0
M  V30 2028 C 191.605 1.80796 -1.47767 0
M  V30 2029 C 192.586 1.6677 -0.334954 0
M  V30 2030 O 193.771 1.863 -0.548264 0
M  V30 2031 C 190.901 3.19038 -1.37229 0
M  V30 2032 C 189.855 3.47789 -2.49453 0
M  V30 2033 C 189.181 4.8553 -2.23975 0
M  V30 2034 C 190.481 3.45411 -3.91776 0
M  V30 2035 H 192.175 1.7629 -2.41997 0
M  V30 2036 H 189.721 0.846721 -1.16476 0
M  V30 2037 H 191.674 3.97528 -1.39821 0
M  V30 2038 H 190.398 3.24204 -0.394907 0
M  V30 2039 H 189.057 2.71657 -2.46166 0
M  V30 2040 H 188.705 4.87337 -1.24547 0
M  V30 2041 H 188.405 5.0573 -2.99184 0
M  V30 2042 H 189.929 5.66312 -2.28304 0
M  V30 2043 H 191.343 4.13882 -3.96705 0
M  V30 2044 H 189.74 3.77145 -4.66778 0
M  V30 2045 H 190.81 2.44122 -4.18966 0
M  V30 2046 N 192.153 1.28127 0.917671 0
M  V30 2047 C 193.569 1.05749 1.19538 0
M  V30 2048 C 193.769 -0.202633 2.00479 0
M  V30 2049 O 192.825 -0.905382 2.3571 0
M  V30 2050 C 194.138 2.30273 1.93378 0
M  V30 2051 C 195.686 2.35412 2.06277 0
M  V30 2052 C 196.161 3.59692 2.83524 0
M  V30 2053 N 197.652 3.60309 2.91087 0
M  V30 2054 C 198.387 4.53147 3.51348 0
M  V30 2055 N 197.883 5.563 4.12919 0
M  V30 2056 N 199.676 4.40751 3.48849 0
M  V30 2057 H 191.827 2.09024 0.377184 0
M  V30 2058 H 194.09 0.919798 0.22951 0
M  V30 2059 H 193.796 3.22055 1.41328 0
M  V30 2060 H 193.67 2.36378 2.93947 0
M  V30 2061 H 196.057 1.4413 2.57508 0
M  V30 2062 H 196.138 2.33304 1.04895 0
M  V30 2063 H 195.782 4.51316 2.32973 0
M  V30 2064 H 195.712 3.59054 3.85211 0
M  V30 2065 H 198.203 2.85714 2.47338 0
M  V30 2066 H 198.516 6.2329 4.56869 0
M  V30 2067 H 196.861 5.60131 4.11435 0
M  V30 2068 H 200.052 3.59367 2.99955 0
M  V30 2069 H 200.225 5.13291 3.9552 0
M  V30 2070 N 193.631 -1.12557 1.10312 0
M  V30 2071 C 194.561 -2.20341 0.772798 0
M  V30 2072 C 195.542 -1.68198 -0.25365 0
M  V30 2073 O 196.727 -1.93831 -0.119699 0
M  V30 2074 C 193.857 -3.46709 0.202443 0
M  V30 2075 C 192.811 -4.11996 1.15943 0
M  V30 2076 C 192.137 -5.328 0.450345 0
M  V30 2077 C 193.437 -4.5828 2.50552 0
M  V30 2078 H 195.131 -2.48229 1.674 0
M  V30 2079 H 192.677 -1.19308 0.806326 0
M  V30 2080 H 194.63 -4.2138 -0.0407752 0
M  V30 2081 H 193.354 -3.18245 -0.734001 0
M  V30 2082 H 192.013 -3.39305 1.38808 0
M  V30 2083 H 191.661 -5.00602 -0.490531 0
M  V30 2084 H 191.361 -5.7743 1.08851 0
M  V30 2085 H 192.885 -6.10219 0.215642 0
M  V30 2086 H 194.299 -5.2433 2.31843 0
M  V30 2087 H 192.696 -5.13683 3.10242 0
M  V30 2088 H 193.766 -3.72329 3.10643 0
M  V30 2089 N 195.109 -0.891671 -1.2995 0
M  V30 2090 C 196.042 -0.307994 -2.26112 0
M  V30 2091 C 197.02 0.575262 -1.52084 0
M  V30 2092 O 198.204 0.523864 -1.81074 0
M  V30 2093 C 195.331 0.561734 -3.34009 0
M  V30 2094 C 194.377 -0.253107 -4.25748 0
M  V30 2095 S 195.21 -1.64572 -5.09584 0
M  V30 2096 C 196.366 -0.782699 -6.20987 0
M  V30 2097 H 196.599 -1.12309 -2.75271 0
M  V30 2098 H 194.132 -0.691509 -1.38049 0
M  V30 2099 H 196.09 1.05777 -3.96638 0
M  V30 2100 H 194.751 1.35099 -2.83561 0
M  V30 2101 H 193.944 0.410908 -5.02322 0
M  V30 2102 H 193.546 -0.682004 -3.67729 0
M  V30 2103 H 195.838 -0.00257476 -6.775 0
M  V30 2104 H 196.781 -1.52026 -6.91588 0
M  V30 2105 H 197.189 -0.340638 -5.63471 0
M  V30 2106 N 196.587 1.43421 -0.653314 0
M  V30 2107 C 197.55 2.29182 0.0287951 0
M  V30 2108 C 198.55 1.42213 0.750465 0
M  V30 2109 O 199.74 1.63843 0.591701 0
M  V30 2110 C 196.872 3.24278 1.05151 0
M  V30 2111 H 198.065 2.90985 -0.725786 0
M  V30 2112 H 195.618 1.50702 -0.414545 0
M  V30 2113 H 196.353 2.6737 1.83532 0
M  V30 2114 H 196.138 3.88396 0.537687 0
M  V30 2115 H 197.628 3.88647 1.52786 0
M  V30 2116 N 198.065 0.39524 1.52563 0
M  V30 2117 C 199.476 -0.0774719 1.86539 0
M  V30 2118 C 199.827 -1.45641 1.31466 0
M  V30 2119 O 198.952 -2.06459 0.648367 0
M  V30 2120 C 199.547 -0.147356 3.38479 0
M  V30 2121 C 198.106 -0.564373 3.72145 0
M  V30 2122 C 197.253 0.269919 2.75983 0
M  V30 2123 H 200.204 0.612876 1.46388 0
M  V30 2124 H 200.225 -0.965343 3.68051 0
M  V30 2125 H 199.737 0.856387 3.78534 0
M  V30 2126 H 197.838 -1.57527 3.37663 0
M  V30 2127 H 197.951 -0.318402 4.78041 0
M  V30 2128 H 196.315 -0.265696 2.5331 0
M  V30 2129 H 197.098 1.27175 3.18875 0
M  V30 2130 N 199.544 -1.57102 0.125237 0
M  V30 2131 C 200.793 -1.94582 -0.531095 0
M  V30 2132 C 201.106 -1.01126 -1.6743 0
M  V30 2133 O 202.312 -1.28097 -2.39381 0
M  V30 2134 C 200.768 -3.45839 -0.996164 0
M  V30 2135 C 200.376 -4.47842 0.118926 0
M  V30 2136 C 202.12 -3.92227 -1.62352 0
M  V30 2137 C 200.027 -5.90284 -0.363192 0
M  V30 2138 H 198.957 -0.726391 -0.20217 0
M  V30 2139 H 201.608 -1.82339 0.206092 0
M  V30 2140 H 199.99 -3.53338 -1.78796 0
M  V30 2141 H 201.164 -4.52018 0.895358 0
M  V30 2142 H 199.479 -4.11243 0.653324 0
M  V30 2143 H 202.076 -4.96069 -1.99548 0
M  V30 2144 H 202.419 -3.32552 -2.50429 0
M  V30 2145 H 202.952 -3.87554 -0.897019 0
M  V30 2146 H 199.691 -6.53728 0.481679 0
M  V30 2147 H 199.211 -5.89515 -1.10597 0
M  V30 2148 H 200.89 -6.41752 -0.822377 0
M  V30 2149 N 201.022 0.148545 -1.56898 0
M  V30 2150 C 202.247 0.880385 -1.87787 0
M  V30 2151 C 202.672 1.74018 -0.714093 0
M  V30 2152 O 202.03 1.78153 0.336343 0
M  V30 2153 C 202.078 1.71422 -3.17249 0
M  V30 2154 O 201.182 2.8183 -3.01074 0
M  V30 2155 H 200.523 0.245301 -0.617028 0
M  V30 2156 H 203.053 0.139826 -2.04122 0
M  V30 2157 H 203.063 2.10954 -3.49231 0
M  V30 2158 H 201.738 1.08284 -4.01556 0
M  V30 2159 H 200.315 2.45715 -2.80497 0
M  V30 2160 N 202.5 1.5196 0.417844 0
M  V30 2161 C 203.43 1.77634 1.51554 0
M  V30 2162 C 204.411 0.626918 1.58126 0
M  V30 2163 O 205.596 0.871632 1.7354 0
M  V30 2164 C 202.726 1.91911 2.8946 0
M  V30 2165 C 201.68 3.07463 2.97743 0
M  V30 2166 C 201.006 3.06951 4.37819 0
M  V30 2167 C 202.306 4.47082 2.70027 0
M  V30 2168 H 204 2.6955 1.3032 0
M  V30 2169 H 201.546 1.29706 0.625492 0
M  V30 2170 H 203.499 2.08455 3.6623 0
M  V30 2171 H 202.223 0.966598 3.11969 0
M  V30 2172 H 200.882 2.90656 2.23416 0
M  V30 2173 H 200.53 2.09438 4.57323 0
M  V30 2174 H 200.23 3.84556 4.44286 0
M  V30 2175 H 201.754 3.25613 5.16535 0
M  V30 2176 H 203.168 4.6414 3.36522 0
M  V30 2177 H 201.565 5.2654 2.87881 0
M  V30 2178 H 202.635 4.55777 1.65514 0
M  V30 2179 N 203.978 -0.674533 1.42435 0
M  V30 2180 C 204.91 -1.80005 1.41883 0
M  V30 2181 C 205.923 -1.59667 0.31787 0
M  V30 2182 O 207.112 -1.68781 0.580973 0
M  V30 2183 C 204.212 -3.17114 1.19549 0
M  V30 2184 C 203.385 -3.64299 2.42084 0
M  V30 2185 C 202.444 -4.80142 2.15291 0
M  V30 2186 O 201.47 -4.90673 2.88493 0
M  V30 2187 N 202.672 -5.68869 1.1562 0
M  V30 2188 H 205.437 -1.80964 2.38898 0
M  V30 2189 H 202.998 -0.857633 1.37318 0
M  V30 2190 H 204.99 -3.92267 0.995417 0
M  V30 2191 H 203.56 -3.11053 0.310569 0
M  V30 2192 H 202.78 -2.79822 2.77657 0
M  V30 2193 H 204.068 -3.92567 3.23679 0
M  V30 2194 H 203.466 -5.63012 0.550765 0
M  V30 2195 H 202.023 -6.43833 1.016 0
M  V30 2196 N 205.456 -1.28612 -0.910864 0
M  V30 2197 C 206.702 -1.16106 -1.66274 0
M  V30 2198 C 207.035 0.289113 -1.92036 0
M  V30 2199 O 206.31 1.21 -1.52281 0
M  V30 2200 C 206.593 -1.96309 -3.01885 0
M  V30 2201 C 206.446 -3.49405 -2.8326 0
M  V30 2202 C 207.765 -1.78076 -4.02463 0
M  V30 2203 H 204.884 -0.423152 -0.603417 0
M  V30 2204 H 207.526 -1.57961 -1.05586 0
M  V30 2205 H 205.676 -1.60742 -3.53687 0
M  V30 2206 H 207.348 -3.94894 -2.38446 0
M  V30 2207 H 205.591 -3.74893 -2.18261 0
M  V30 2208 H 206.262 -4.00784 -3.79574 0
M  V30 2209 H 208.738 -2.0912 -3.59733 0
M  V30 2210 H 207.614 -2.36561 -4.95308 0
M  V30 2211 H 207.875 -0.733008 -4.35981 0
M  V30 2212 N 206.934 1.1197 -1.10907 0
M  V30 2213 C 208.18 1.8386 -0.855773 0
M  V30 2214 C 208.513 1.84134 0.617103 0
M  V30 2215 O 207.788 1.29041 1.45529 0
M  V30 2216 C 208.071 3.31305 -1.411 0
M  V30 2217 C 207.924 3.39456 -2.9511 0
M  V30 2218 C 209.243 4.2721 -1.05736 0
M  V30 2219 H 206.362 0.667545 -0.312334 0
M  V30 2220 H 209.004 1.31331 -1.37303 0
M  V30 2221 H 207.154 3.76169 -0.97105 0
M  V30 2222 H 208.826 3.03191 -3.47668 0
M  V30 2223 H 207.069 2.79849 -3.31462 0
M  V30 2224 H 207.74 4.43209 -3.29044 0
M  V30 2225 H 210.216 3.90497 -1.43706 0
M  V30 2226 H 209.092 5.28775 -1.47269 0
M  V30 2227 H 209.353 4.42088 0.0325958 0
M  V30 2228 N 208.412 0.89855 1.29475 0
M  V30 2229 C 209.362 0.346767 2.25348 0
M  V30 2230 C 210.346 -0.532509 1.51833 0
M  V30 2231 O 211.538 -0.374714 1.72988 0
M  V30 2232 C 208.667 -0.425681 3.40651 0
M  V30 2233 C 207.753 0.46845 4.21505 0
M  V30 2234 N 208.144 1.57514 4.80648 0
M  V30 2235 C 206.442 0.26603 4.45206 0
M  V30 2236 C 207.143 2.12889 5.41344 0
M  V30 2237 N 206.119 1.42208 5.24669 0
M  V30 2238 H 209.921 1.19219 2.68634 0
M  V30 2239 H 207.435 0.749473 1.44072 0
M  V30 2240 H 209.432 -0.837716 4.08397 0
M  V30 2241 H 208.092 -1.26838 2.98902 0
M  V30 2242 H 209.103 1.95789 4.79465 0
M  V30 2243 H 205.78 -0.538394 4.14014 0
M  V30 2244 H 207.17 3.05901 5.98226 0
M  V30 2245 N 209.89 -1.43072 0.660911 0
M  V30 2246 C 211.136 -2.0202 0.177708 0
M  V30 2247 C 211.469 -1.52066 -1.20787 0
M  V30 2248 O 210.744 -0.716987 -1.80802 0
M  V30 2249 C 211.027 -3.59561 0.197019 0
M  V30 2250 C 210.88 -4.19727 1.61706 0
M  V30 2251 C 212.199 -4.37664 -0.462396 0
M  V30 2252 H 209.318 -0.734034 0.0660494 0
M  V30 2253 H 211.96 -1.70272 0.843058 0
M  V30 2254 H 210.11 -3.86739 -0.369527 0
M  V30 2255 H 211.782 -4.03553 2.23479 0
M  V30 2256 H 210.025 -3.76084 2.16201 0
M  V30 2257 H 210.696 -5.28834 1.58237 0
M  V30 2258 H 213.172 -4.16095 0.0197215 0
M  V30 2259 H 212.048 -5.47305 -0.418188 0
M  V30 2260 H 212.309 -4.14493 -1.53778 0
M  V30 2261 N 211.368 -0.403325 -1.52352 0
M  V30 2262 C 212.278 0.432009 -2.30588 0
M  V30 2263 C 213.294 1.05884 -1.38075 0
M  V30 2264 O 214.47 1.06161 -1.71148 0
M  V30 2265 C 211.535 1.53669 -3.10784 0
M  V30 2266 C 210.596 0.933525 -4.19027 0
M  V30 2267 C 209.829 1.98557 -4.9539 0
M  V30 2268 O 210.052 3.20283 -4.71991 0
M  V30 2269 O 208.986 1.59504 -5.80381 0
M  V30 2270 H 212.812 -0.205739 -3.03002 0
M  V30 2271 H 210.397 -0.166675 -1.48467 0
M  V30 2272 H 212.279 2.17814 -3.60742 0
M  V30 2273 H 210.954 2.15915 -2.41169 0
M  V30 2274 H 209.861 0.254954 -3.7323 0
M  V30 2275 H 211.194 0.35508 -4.90918 0
M  V30 2276 N 212.846 1.57033 -0.133567 0
M  V30 2277 C 214.074 2.00044 0.528195 0
M  V30 2278 C 214.489 1.01349 1.59291 0
M  V30 2279 O 213.846 0.00848369 1.82498 0
M  V30 2280 C 213.897 3.43018 1.1411 0
M  V30 2281 O 213.618 4.37939 0.11892 0
M  V30 2282 C 215.119 4.01237 1.88477 0
M  V30 2283 H 212.339 0.656517 0.138661 0
M  V30 2284 H 214.883 2.03267 -0.224196 0
M  V30 2285 H 213.038 3.40688 1.84418 0
M  V30 2286 H 213.452 5.21436 0.56613 0
M  V30 2287 H 214.926 5.03314 2.26669 0
M  V30 2288 H 215.403 3.41193 2.76558 0
M  V30 2289 H 216.009 4.07156 1.22898 0
M  V30 2290 N 214.325 -0.140222 1.56975 0
M  V30 2291 C 215.275 -1.17827 1.95194 0
M  V30 2292 C 216.259 -1.38195 0.824075 0
M  V30 2293 O 217.451 -1.39643 1.0876 0
M  V30 2294 C 214.58 -2.51024 2.34184 0
M  V30 2295 C 213.666 -2.3422 3.53556 0
M  V30 2296 N 214.057 -1.87185 4.69889 0
M  V30 2297 C 212.355 -2.64949 3.58773 0
M  V30 2298 C 213.056 -1.83586 5.5197 0
M  V30 2299 N 212.032 -2.2715 4.93866 0
M  V30 2300 H 215.834 -0.806817 2.82609 0
M  V30 2301 H 213.348 -0.348208 1.58623 0
M  V30 2302 H 215.345 -3.26074 2.59772 0
M  V30 2303 H 214.005 -2.88945 1.48124 0
M  V30 2304 H 215.016 -1.57048 4.93514 0
M  V30 2305 H 211.693 -3.067 2.8327 0
M  V30 2306 H 213.083 -1.48655 6.55249 0
M  V30 2307 N 215.803 -1.52179 -0.40978 0
M  V30 2308 C 217.219 -1.40968 -0.74835 0
M  V30 2309 C 217.419 -0.513657 -1.94843 0
M  V30 2310 O 216.475 0.0208026 -2.52491 0
M  V30 2311 C 217.788 -2.83483 -1.0029 0
M  V30 2312 C 219.336 -2.92821 -1.10565 0
M  V30 2313 C 219.811 -4.36303 -1.39296 0
M  V30 2314 N 221.302 -4.39535 -1.46162 0
M  V30 2315 C 222.037 -5.47614 -1.70018 0
M  V30 2316 N 221.533 -6.65812 -1.91483 0
M  V30 2317 N 223.326 -5.35129 -1.72027 0
M  V30 2318 H 215.477 -2.0897 0.380186 0
M  V30 2319 H 217.74 -0.94185 0.107805 0
M  V30 2320 H 217.446 -3.51168 -0.193461 0
M  V30 2321 H 217.32 -3.24487 -1.92323 0
M  V30 2322 H 219.707 -2.25318 -1.90568 0
M  V30 2323 H 219.788 -2.55276 -0.16369 0
M  V30 2324 H 219.432 -5.04366 -0.598109 0
M  V30 2325 H 219.362 -4.71385 -2.34743 0
M  V30 2326 H 221.853 -3.54332 -1.31367 0
M  V30 2327 H 222.166 -7.43964 -2.09134 0
M  V30 2328 H 220.511 -6.68879 -1.88749 0
M  V30 2329 H 223.702 -4.41764 -1.54796 0
M  V30 2330 H 223.875 -6.19433 -1.9028 0
M  V30 2331 N 217.281 0.66697 -1.42791 0
M  V30 2332 C 218.521 1.43892 -1.4517 0
M  V30 2333 C 218.885 1.91877 -0.0687551 0
M  V30 2334 O 220.086 2.6878 0.0327455 0
M  V30 2335 C 218.357 2.59839 -2.45395 0
M  V30 2336 S 219.916 3.48572 -2.66539 0
M  V30 2337 H 216.734 0.491356 -0.513897 0
M  V30 2338 H 219.336 0.775656 -1.79454 0
M  V30 2339 H 218.04 2.22838 -3.44632 0
M  V30 2340 H 217.571 3.3103 -2.12562 0
M  V30 2341 H 219.586 4.56094 -1.95429 0
M  V30 2342 N 218.759 1.29093 0.90403 0
M  V30 2343 C 219.707 1.13727 2.02901 0
M  V30 2344 C 220.701 0.0539853 1.69314 0
M  V30 2345 O 221.907 0.213469 1.7873 0
M  V30 2346 H 218.282 0.35117 0.664969 0
M  V30 2347 H 220.253 2.08982 2.13001 0
M  V30 2348 C 219.002 0.826066 3.37745 0
M  V30 2349 H 218.325 1.65164 3.64089 0
M  V30 2350 H 219.765 0.758559 4.17159 0
M  V30 2351 C 218.224 -0.470541 3.33598 0
M  V30 2352 O 218.754 -1.49792 3.72727 0
M  V30 2353 N 216.96 -0.474812 2.86695 0
M  V30 2354 H 216.507 0.361692 2.55048 0
M  V30 2355 H 216.465 -1.34236 2.84303 0
M  V30 2356 N 220.237 -1.11381 1.11499 0
M  V30 2357 C 221.486 -1.82494 0.858993 0
M  V30 2358 C 221.799 -1.85605 -0.617278 0
M  V30 2359 O 223.005 -2.52824 -0.989552 0
M  V30 2360 C 221.461 -3.27745 1.48699 0
M  V30 2361 C 221.069 -3.32961 2.99735 0
M  V30 2362 C 222.813 -4.03754 1.31085 0
M  V30 2363 C 220.72 -4.72612 3.55516 0
M  V30 2364 H 219.65 -0.683802 0.317696 0
M  V30 2365 H 222.301 -1.25331 1.34031 0
M  V30 2366 H 220.683 -3.84844 0.933339 0
M  V30 2367 H 221.857 -2.85741 3.61509 0
M  V30 2368 H 220.172 -2.70433 3.16631 0
M  V30 2369 H 222.769 -5.06891 1.70192 0
M  V30 2370 H 223.112 -4.15527 0.253496 0
M  V30 2371 H 223.645 -3.53043 1.83318 0
M  V30 2372 H 220.384 -4.66036 4.60967 0
M  V30 2373 H 219.904 -5.2024 2.98513 0
M  V30 2374 H 221.583 -5.4157 3.53992 0
M  V30 2375 N 221.715 -0.905404 -1.28997 0
M  V30 2376 C 222.94 -0.549175 -1.99997 0
M  V30 2377 C 223.365 0.860276 -1.67275 0
M  V30 2378 O 222.723 1.57355 -0.900502 0
M  V30 2379 C 222.771 -0.755185 -3.52604 0
M  V30 2380 O 221.875 0.189692 -4.11964 0
M  V30 2381 H 221.216 -0.213899 -0.628604 0
M  V30 2382 H 223.746 -1.21856 -1.64354 0
M  V30 2383 H 223.756 -0.662045 -4.02593 0
M  V30 2384 H 222.431 -1.78271 -3.75755 0
M  V30 2385 H 221.008 0.0485257 -3.72868 0
M  V30 2386 N 223.193 1.4272 -0.668489 0
M  V30 2387 C 224.439 2.02443 -0.197076 0
M  V30 2388 C 224.794 1.51882 1.18109 0
M  V30 2389 O 224.087 0.708618 1.78015 0
M  V30 2390 C 224.281 3.57021 -0.164499 0
M  V30 2391 C 224.11 4.22583 -1.53797 0
M  V30 2392 C 222.88 4.58019 -2.13416 0
M  V30 2393 C 225.078 4.50588 -2.47941 0
M  V30 2394 N 223.06 5.08729 -3.4361 0
M  V30 2395 C 224.431 5.02782 -3.62782 0
M  V30 2396 C 226.486 4.32571 -2.46551 0
M  V30 2397 C 225.189 5.38852 -4.76478 0
M  V30 2398 C 227.215 4.69713 -3.59338 0
M  V30 2399 C 226.577 5.22053 -4.72906 0
M  V30 2400 H 222.676 0.773214 -0.116894 0
M  V30 2401 H 225.26 1.73673 -0.880108 0
M  V30 2402 H 223.431 3.85323 0.487925 0
M  V30 2403 H 225.163 4.03439 0.319207 0
M  V30 2404 H 221.918 4.43566 -1.65969 0
M  V30 2405 H 222.342 5.38521 -4.10273 0
M  V30 2406 H 226.984 3.91365 -1.59978 0
M  V30 2407 H 224.702 5.78993 -5.63731 0
M  V30 2408 H 228.288 4.57454 -3.59482 0
M  V30 2409 H 227.168 5.50258 -5.58736 0
M  V30 2410 N 224.671 0.411399 1.52136 0
M  V30 2411 C 225.581 -0.419774 2.30814 0
M  V30 2412 C 226.597 -1.0515 1.38634 0
M  V30 2413 O 227.773 -1.05252 1.71709 0
M  V30 2414 C 224.838 -1.52019 3.11594 0
M  V30 2415 C 223.899 -0.91129 4.19516 0
M  V30 2416 C 223.132 -1.95927 4.96436 0
M  V30 2417 O 223.355 -3.17775 4.73683 0
M  V30 2418 O 222.289 -1.56423 5.81219 0
M  V30 2419 H 226.115 0.221805 3.02889 0
M  V30 2420 H 223.7 0.174547 1.48377 0
M  V30 2421 H 225.582 -2.15898 3.61892 0
M  V30 2422 H 224.257 -2.14633 2.42311 0
M  V30 2423 H 223.164 -0.235157 3.7336 0
M  V30 2424 H 224.497 -0.32904 4.91099 0
M  V30 2425 N 226.149 -1.5696 0.141893 0
M  V30 2426 C 227.398 -1.95135 -0.510427 0
M  V30 2427 C 227.711 -1.02896 -1.66348 0
M  V30 2428 O 228.917 -1.30629 -2.38009 0
M  V30 2429 C 227.373 -3.46876 -0.959427 0
M  V30 2430 C 226.981 -4.47691 0.166419 0
M  V30 2431 C 228.725 -3.93927 -1.58183 0
M  V30 2432 C 226.632 -5.90636 -0.300565 0
M  V30 2433 H 225.562 -0.728494 -0.194454 0
M  V30 2434 H 228.213 -1.8211 0.22542 0
M  V30 2435 H 226.595 -3.55215 -1.75038 0
M  V30 2436 H 227.769 -4.51043 0.94325 0
M  V30 2437 H 226.084 -4.10527 0.696905 0
M  V30 2438 H 228.681 -4.98158 -1.94275 0
M  V30 2439 H 229.024 -3.3519 -2.46888 0
M  V30 2440 H 229.557 -3.88484 -0.855863 0
M  V30 2441 H 226.296 -6.5318 0.550989 0
M  V30 2442 H 225.816 -5.90655 -1.04338 0
M  V30 2443 H 227.495 -6.42588 -0.754265 0
M  V30 2444 N 227.627 0.131896 -1.57047 0
M  V30 2445 C 228.852 0.860418 -1.8871 0
M  V30 2446 C 229.277 1.73251 -0.73251 0
M  V30 2447 O 228.635 1.785 0.317429 0
M  V30 2448 C 228.683 1.68047 -3.19049 0
M  V30 2449 O 227.787 2.7862 -3.04047 0
M  V30 2450 H 227.128 0.238743 -0.619595 0
M  V30 2451 H 229.658 0.118169 -2.04258 0
M  V30 2452 H 229.668 2.07238 -3.51449 0
M  V30 2453 H 228.343 1.04018 -4.02682 0
M  V30 2454 H 226.92 2.42726 -2.83088 0
M  V30 2455 N 229.106 1.52395 0.401703 0
M  V30 2456 C 230.038 1.72505 1.50912 0
M  V30 2457 C 231.051 0.605468 1.51122 0
M  V30 2458 O 232.24 0.880828 1.55254 0
M  V30 2459 C 229.34 1.75711 2.89791 0
M  V30 2460 C 228.513 3.04824 3.1369 0
M  V30 2461 C 227.572 2.99743 4.32482 0
M  V30 2462 O 226.598 3.73635 4.29402 0
M  V30 2463 N 227.8 2.18047 5.37992 0
M  V30 2464 H 230.565 2.68049 1.34052 0
M  V30 2465 H 228.126 1.50724 0.591084 0
M  V30 2466 H 230.118 1.69834 3.6734 0
M  V30 2467 H 228.688 0.876092 3.00072 0
M  V30 2468 H 227.908 3.2429 2.24119 0
M  V30 2469 H 229.196 3.90221 3.26504 0
M  V30 2470 H 228.594 1.57456 5.43345 0
M  V30 2471 H 227.151 2.18021 6.14256 0
M  V30 2472 N 230.584 -0.659388 1.43143 0
M  V30 2473 C 231.547 -1.75432 1.47501 0
M  V30 2474 C 232.547 -1.56707 0.360512 0
M  V30 2475 O 233.737 -1.62717 0.622002 0
M  V30 2476 C 230.869 -3.14239 1.32162 0
M  V30 2477 H 232.062 -1.7295 2.45006 0
M  V30 2478 H 229.615 -0.870469 1.29817 0
M  V30 2479 H 230.35 -3.22336 0.356401 0
M  V30 2480 H 230.135 -3.29235 2.12948 0
M  V30 2481 H 231.625 -3.94094 1.3813 0
M  V30 2482 N 232.062 -1.29571 -0.897171 0
M  V30 2483 C 233.287 -1.20705 -1.68656 0
M  V30 2484 C 233.712 0.228582 -1.86706 0
M  V30 2485 O 233.07 1.16494 -1.3892 0
M  V30 2486 C 233.118 -1.9282 -3.04717 0
M  V30 2487 O 232.222 -1.24697 -3.93096 0
M  V30 2488 H 231.563 -0.418126 -0.515816 0
M  V30 2489 H 234.093 -1.71183 -1.12061 0
M  V30 2490 H 234.103 -2.01372 -3.54843 0
M  V30 2491 H 232.778 -2.97239 -2.90899 0
M  V30 2492 H 231.355 -1.2442 -3.51531 0
M  V30 2493 N 233.54 1.10788 -1.12088 0
M  V30 2494 C 234.49 2.15158 -0.754401 0
M  V30 2495 C 235.474 1.59026 0.244846 0
M  V30 2496 O 236.666 1.76927 0.0509097 0
M  V30 2497 C 233.795 3.42677 -0.206657 0
M  V30 2498 C 232.881 4.05751 -1.23398 0
M  V30 2499 N 233.272 4.43582 -2.43041 0
M  V30 2500 C 231.57 4.32764 -1.07848 0
M  V30 2501 C 232.271 4.93085 -3.08613 0
M  V30 2502 N 231.247 4.89664 -2.36072 0
M  V30 2503 H 235.049 2.42195 -1.6649 0
M  V30 2504 H 232.563 1.27872 -1.00112 0
M  V30 2505 H 234.56 4.16834 0.0740646 0
M  V30 2506 H 233.22 3.17101 0.698342 0
M  V30 2507 H 234.231 4.35395 -2.80449 0
M  V30 2508 H 230.908 4.16863 -0.230483 0
M  V30 2509 H 232.298 5.31933 -4.10483 0
M  V30 2510 N 235.018 0.912232 1.28515 0
M  V30 2511 C 236.248 0.559604 1.98877 0
M  V30 2512 C 236.656 -0.863113 1.68366 0
M  V30 2513 O 235.999 -1.58304 0.931969 0
M  V30 2514 C 236.061 0.68703 3.52874 0
M  V30 2515 C 235.725 2.07901 4.06972 0
M  V30 2516 C 236.722 3.05157 4.20922 0
M  V30 2517 C 234.407 2.39178 4.417 0
M  V30 2518 C 236.401 4.31806 4.68852 0
M  V30 2519 C 234.088 3.66068 4.89324 0
M  V30 2520 C 235.086 4.62195 5.02856 0
M  V30 2521 O 234.774 5.86829 5.49442 0
M  V30 2522 H 234.506 0.212191 0.641834 0
M  V30 2523 H 237.06 1.22712 1.64715 0
M  V30 2524 H 235.29 -0.0375486 3.86682 0
M  V30 2525 H 236.979 0.341727 4.04459 0
M  V30 2526 H 237.745 2.82311 3.94367 0
M  V30 2527 H 233.624 1.65109 4.30418 0
M  V30 2528 H 237.168 5.06842 4.79329 0
M  V30 2529 H 233.065 3.88739 5.15318 0
M  V30 2530 H 233.833 5.89597 5.6773 0
M  V30 2531 N 236.496 -1.42363 0.676048 0
M  V30 2532 C 237.743 -2.01522 0.19883 0
M  V30 2533 C 238.071 -1.53456 -1.19505 0
M  V30 2534 O 237.326 -0.727967 -1.81657 0
M  V30 2535 C 237.625 -3.56929 0.183431 0
M  V30 2536 C 237.291 -4.24431 1.52215 0
M  V30 2537 C 235.953 -4.42585 1.8887 0
M  V30 2538 C 238.305 -4.62459 2.40377 0
M  V30 2539 C 235.633 -4.96039 3.13309 0
M  V30 2540 C 237.985 -5.17294 3.64129 0
M  V30 2541 C 236.649 -5.33661 4.00951 0
M  V30 2542 H 235.919 -0.737419 0.0727571 0
M  V30 2543 H 238.566 -1.70531 0.871281 0
M  V30 2544 H 236.871 -3.87594 -0.572532 0
M  V30 2545 H 238.568 -4.00486 -0.203035 0
M  V30 2546 H 235.158 -4.10661 1.22701 0
M  V30 2547 H 239.342 -4.48105 2.13343 0
M  V30 2548 H 234.598 -5.06896 3.41857 0
M  V30 2549 H 238.772 -5.45704 4.32644 0
M  V30 2550 H 236.399 -5.74845 4.9745 0
M  V30 2551 N 237.974 -0.419461 -1.51915 0
M  V30 2552 C 238.884 0.407528 -2.31033 0
M  V30 2553 C 239.9 1.04413 -1.3919 0
M  V30 2554 O 241.076 1.0434 -1.72265 0
M  V30 2555 C 238.141 1.50365 -3.12396 0
M  V30 2556 C 237.202 0.889029 -4.19994 0
M  V30 2557 C 236.435 1.93291 -4.97468 0
M  V30 2558 O 236.658 3.15259 -4.75361 0
M  V30 2559 O 235.592 1.53339 -5.8204 0
M  V30 2560 H 239.418 -0.237865 -3.02767 0
M  V30 2561 H 237.003 -0.182413 -1.48282 0
M  V30 2562 H 238.885 2.13975 -3.63032 0
M  V30 2563 H 237.56 2.13345 -2.43445 0
M  V30 2564 H 236.467 0.215353 -3.7348 0
M  V30 2565 H 237.8 0.302991 -4.91267 0
M  V30 2566 N 239.452 1.56882 -0.150215 0
M  V30 2567 C 240.868 1.58263 0.20617 0
M  V30 2568 C 241.068 1.16464 1.64434 0
M  V30 2569 O 240.124 0.866422 2.3717 0
M  V30 2570 C 241.437 3.00649 -0.0555025 0
M  V30 2571 C 242.985 3.12999 0.00795388 0
M  V30 2572 C 243.46 4.5744 -0.226429 0
M  V30 2573 N 244.951 4.62875 -0.173469 0
M  V30 2574 C 245.686 5.72454 -0.329288 0
M  V30 2575 N 245.182 6.90669 -0.543005 0
M  V30 2576 N 246.975 5.61467 -0.266666 0
M  V30 2577 H 239.126 1.82345 -1.08922 0
M  V30 2578 H 241.389 0.844149 -0.431413 0
M  V30 2579 H 241.095 3.3563 -1.05096 0
M  V30 2580 H 240.969 3.71337 0.66246 0
M  V30 2581 H 243.356 2.77857 0.993966 0
M  V30 2582 H 243.437 2.4479 -0.742388 0
M  V30 2583 H 243.081 4.93287 -1.20956 0
M  V30 2584 H 243.011 5.2378 0.544274 0
M  V30 2585 H 245.502 3.77898 -0.0130709 0
M  V30 2586 H 245.815 7.70045 -0.651922 0
M  V30 2587 H 244.16 6.92581 -0.579366 0
M  V30 2588 H 247.351 4.67992 -0.100441 0
M  V30 2589 H 247.524 6.46816 -0.391535 0
M  V30 2590 N 240.93 -0.123565 1.57115 0
M  V30 2591 C 241.88 -1.1575 1.96433 0
M  V30 2592 C 242.864 -1.37313 0.838686 0
M  V30 2593 O 244.056 -1.38482 1.10235 0
M  V30 2594 C 241.185 -2.48526 2.36833 0
M  V30 2595 C 240.271 -2.30457 3.5602 0
M  V30 2596 N 240.662 -1.8219 4.71848 0
M  V30 2597 C 238.96 -2.61129 3.61563 0
M  V30 2598 C 239.661 -1.77721 5.53886 0
M  V30 2599 N 238.637 -2.21899 4.96248 0
M  V30 2600 H 242.439 -0.776797 2.83449 0
M  V30 2601 H 239.953 -0.331364 1.58983 0
M  V30 2602 H 241.95 -3.233 2.63216 0
M  V30 2603 H 240.61 -2.87358 1.5118 0
M  V30 2604 H 241.621 -1.51805 4.95152 0
M  V30 2605 H 238.298 -3.03678 2.86507 0
M  V30 2606 H 239.688 -1.41697 6.56789 0
M  V30 2607 N 242.408 -1.52605 -0.393616 0
M  V30 2608 C 243.338 -1.80022 -1.48709 0
M  V30 2609 C 244.319 -0.651995 -1.57108 0
M  V30 2610 O 245.504 -0.89913 -1.72132 0
M  V30 2611 C 242.634 -1.96492 -2.86371 0
M  V30 2612 C 241.588 -3.12161 -2.92813 0
M  V30 2613 C 240.914 -3.13877 -4.3288 0
M  V30 2614 C 242.214 -4.51322 -2.6288 0
M  V30 2615 H 243.908 -2.71589 -1.26015 0
M  V30 2616 H 241.454 -1.30684 -0.604778 0
M  V30 2617 H 243.407 -2.14255 -3.62867 0
M  V30 2618 H 242.131 -1.01611 -3.10391 0
M  V30 2619 H 240.79 -2.94173 -2.18764 0
M  V30 2620 H 240.438 -2.16687 -4.53933 0
M  V30 2621 H 240.138 -3.91576 -4.38112 0
M  V30 2622 H 241.662 -3.33789 -5.1129 0
M  V30 2623 H 243.076 -4.69435 -3.29096 0
M  V30 2624 H 241.473 -5.31053 -2.79468 0
M  V30 2625 H 242.543 -4.58353 -1.58242 0
M  V30 2626 N 243.887 0.651787 -1.4349 0
M  V30 2627 C 244.797 1.79368 -1.5121 0
M  V30 2628 C 245.813 1.69361 -0.399093 0
M  V30 2629 O 246.989 1.90505 -0.653431 0
M  V30 2630 C 244.054 3.15653 -1.43401 0
M  V30 2631 C 243.115 3.37446 -2.65384 0
M  V30 2632 C 242.348 4.67229 -2.57939 0
M  V30 2633 O 242.571 5.46676 -1.62792 0
M  V30 2634 O 241.505 4.90773 -3.48462 0
M  V30 2635 H 245.331 1.7581 -2.47638 0
M  V30 2636 H 242.916 0.810447 -1.25507 0
M  V30 2637 H 244.798 3.96935 -1.41494 0
M  V30 2638 H 243.473 3.19798 -0.501085 0
M  V30 2639 H 242.38 2.55923 -2.72863 0
M  V30 2640 H 243.713 3.38148 -3.57654 0
M  V30 2641 N 245.365 1.30045 0.890287 0
M  V30 2642 C 246.612 1.18561 1.64163 0
M  V30 2643 C 246.94 -0.260852 1.92743 0
M  V30 2644 O 246.195 -1.20376 1.54299 0
M  V30 2645 C 246.494 1.95409 2.99249 0
M  V30 2646 C 246.16 3.45066 2.90242 0
M  V30 2647 C 244.822 3.85878 2.87492 0
M  V30 2648 C 247.174 4.4039 2.78758 0
M  V30 2649 C 244.502 5.20314 2.7109 0
M  V30 2650 C 246.854 5.74928 2.63894 0
M  V30 2651 C 245.518 6.14986 2.59516 0
M  V30 2652 H 244.788 0.433846 0.600715 0
M  V30 2653 H 247.435 1.61088 1.03552 0
M  V30 2654 H 245.74 1.45501 3.63781 0
M  V30 2655 H 247.437 1.8392 3.56334 0
M  V30 2656 H 244.027 3.12631 2.93189 0
M  V30 2657 H 248.211 4.09806 2.79952 0
M  V30 2658 H 243.467 5.50449 2.66112 0
M  V30 2659 H 247.641 6.48434 2.53981 0
M  V30 2660 H 245.268 7.19104 2.46565 0
M  V30 2661 N 246.843 -1.10192 1.12674 0
M  V30 2662 C 247.753 -2.20172 0.810026 0
M  V30 2663 C 248.769 -1.72821 -0.202188 0
M  V30 2664 O 249.945 -2.01369 -0.0351691 0
M  V30 2665 C 247.01 -3.45631 0.272007 0
M  V30 2666 C 246.071 -4.07704 1.34447 0
M  V30 2667 C 245.304 -5.27175 0.832029 0
M  V30 2668 O 245.527 -5.69425 -0.333284 0
M  V30 2669 O 244.461 -5.80168 1.60277 0
M  V30 2670 H 248.287 -2.49701 1.72867 0
M  V30 2671 H 245.872 -1.18977 0.903597 0
M  V30 2672 H 247.754 -4.21394 -0.0230219 0
M  V30 2673 H 246.429 -3.17723 -0.619164 0
M  V30 2674 H 245.336 -3.33614 1.6927 0
M  V30 2675 H 246.669 -4.3982 2.2095 0
M  V30 2676 N 248.321 -0.919034 -1.28029 0
M  V30 2677 C 249.284 -0.416182 -2.2539 0
M  V30 2678 C 250.284 0.460438 -1.54067 0
M  V30 2679 O 251.474 0.262744 -1.72207 0
M  V30 2680 C 248.606 0.402707 -3.38513 0
M  V30 2681 H 249.799 -1.27629 -2.71387 0
M  V30 2682 H 247.352 -0.698919 -1.39803 0
M  V30 2683 H 248.087 1.282 -2.97885 0
M  V30 2684 H 247.872 -0.225698 -3.9145 0
M  V30 2685 H 249.362 0.745191 -4.10897 0
M  V30 2686 N 249.799 1.42003 -0.683588 0
M  V30 2687 C 251.215 1.55625 -0.353976 0
M  V30 2688 C 251.415 1.66151 1.14 0
M  V30 2689 O 250.471 1.63329 1.92561 0
M  V30 2690 C 251.784 2.80171 -1.092 0
M  V30 2691 C 253.332 2.93954 -1.07518 0
M  V30 2692 C 253.807 4.21372 -1.79471 0
M  V30 2693 N 255.298 4.28303 -1.76381 0
M  V30 2694 C 256.033 5.25729 -2.28904 0
M  V30 2695 N 255.529 6.29254 -2.89846 0
M  V30 2696 N 257.322 5.17586 -2.19228 0
M  V30 2697 H 249.473 1.33415 -1.6527 0
M  V30 2698 H 251.736 0.64282 -0.696769 0
M  V30 2699 H 251.442 2.78561 -2.14701 0
M  V30 2700 H 251.316 3.7133 -0.662862 0
M  V30 2701 H 253.703 2.95086 -0.028475 0
M  V30 2702 H 253.784 2.04002 -1.54328 0
M  V30 2703 H 253.428 4.21001 -2.84114 0
M  V30 2704 H 253.358 5.10275 -1.30104 0
M  V30 2705 H 255.849 3.54119 -1.31939 0
M  V30 2706 H 256.162 6.99964 -3.27522 0
M  V30 2707 H 254.507 6.29791 -2.93919 0
M  V30 2708 H 257.698 4.35631 -1.71299 0
M  V30 2709 H 257.871 5.93348 -2.60466 0
M  V30 2710 N 251.277 0.427512 1.51691 0
M  V30 2711 C 252.505 -0.141191 2.06418 0
M  V30 2712 C 252.92 -1.37303 1.29589 0
M  V30 2713 O 252.277 -1.79059 0.352732 0
M  V30 2714 C 252.328 -0.473266 3.58389 0
M  V30 2715 O 252.049 0.709673 4.32314 0
M  V30 2716 C 253.55 -1.09371 4.29596 0
M  V30 2717 H 250.77 -0.0122747 0.670888 0
M  V30 2718 H 253.314 0.603764 1.95384 0
M  V30 2719 H 251.469 -1.16812 3.69369 0
M  V30 2720 H 251.883 0.42807 5.2275 0
M  V30 2721 H 253.357 -1.27613 5.37046 0
M  V30 2722 H 253.834 -2.072 3.87253 0
M  V30 2723 H 254.44 -0.43853 4.23033 0
M  V30 2724 N 252.755 -1.56801 0.158532 0
M  V30 2725 C 253.685 -2.20347 -0.772609 0
M  V30 2726 C 254.666 -1.15518 -1.24859 0
M  V30 2727 O 255.851 -1.43902 -1.30406 0
M  V30 2728 C 252.981 -2.83417 -2.00729 0
M  V30 2729 C 251.935 -3.94174 -1.66765 0
M  V30 2730 C 251.261 -4.44233 -2.97592 0
M  V30 2731 C 252.561 -5.14392 -0.905447 0
M  V30 2732 H 254.255 -2.98413 -0.242959 0
M  V30 2733 H 251.801 -1.43537 -0.115419 0
M  V30 2734 H 253.754 -3.26543 -2.6636 0
M  V30 2735 H 252.478 -2.02701 -2.56086 0
M  V30 2736 H 251.137 -3.51684 -1.03508 0
M  V30 2737 H 250.785 -3.60325 -3.50963 0
M  V30 2738 H 250.485 -5.18945 -2.75626 0
M  V30 2739 H 252.009 -4.90037 -3.64274 0
M  V30 2740 H 253.423 -5.5429 -1.46408 0
M  V30 2741 H 251.82 -5.9494 -0.7853 0
M  V30 2742 H 252.89 -4.84795 0.100668 0
M  V30 2743 N 254.233 0.115231 -1.57178 0
M  V30 2744 C 255.458 0.840354 -1.89612 0
M  V30 2745 C 255.883 1.72464 -0.750845 0
M  V30 2746 O 255.241 1.78826 0.298478 0
M  V30 2747 C 255.289 1.64654 -3.20814 0
M  V30 2748 O 254.393 2.7538 -3.06985 0
M  V30 2749 H 253.734 0.232158 -0.622092 0
M  V30 2750 H 256.264 0.0964977 -2.04372 0
M  V30 2751 H 256.274 2.03499 -3.53627 0
M  V30 2752 H 254.949 0.997416 -4.03763 0
M  V30 2753 H 253.526 2.3971 -2.85646 0
M  V30 2754 N 255.711 1.52812 0.385517 0
M  V30 2755 C 257.122 1.5993 0.963293 0
M  V30 2756 C 257.473 0.454302 1.90868 0
M  V30 2757 O 256.598 -0.422132 2.12243 0
M  V30 2758 C 257.193 2.89871 1.75387 0
M  V30 2759 C 255.752 2.99389 2.28129 0
M  V30 2760 C 254.899 2.55071 1.08783 0
M  V30 2761 H 257.85 1.5784 0.164948 0
M  V30 2762 H 257.871 2.76553 2.61341 0
M  V30 2763 H 257.383 3.73186 1.06554 0
M  V30 2764 H 255.484 2.20619 3.00263 0
M  V30 2765 H 255.597 4.04096 2.57377 0
M  V30 2766 H 253.961 2.09473 1.4489 0
M  V30 2767 H 254.744 3.40785 0.414807 0
M  V30 2768 N 257.189 -0.644168 1.43834 0
M  V30 2769 C 258.437 -1.40117 1.45642 0
M  V30 2770 C 258.758 -1.94814 0.0852413 0
M  V30 2771 O 258.028 -1.74988 -0.880688 0
M  V30 2772 H 256.608 -0.52005 0.536243 0
M  V30 2773 H 259.27 -0.7591 1.7951 0
M  V30 2774 H 258.366 -2.23902 2.17427 0
M  V30 2775 N 258.668 -1.30515 -0.883378 0
M  V30 2776 C 259.618 -1.13641 -1.9766 0
M  V30 2777 C 260.602 -0.0511314 -1.60819 0
M  V30 2778 O 261.794 -0.274623 -1.74857 0
M  V30 2779 C 258.923 -0.831976 -3.33066 0
M  V30 2780 C 258.009 -1.95759 -3.76217 0
M  V30 2781 N 258.4 -3.20313 -3.9145 0
M  V30 2782 C 256.698 -1.85431 -4.05625 0
M  V30 2783 C 257.399 -3.93856 -4.2808 0
M  V30 2784 N 256.375 -3.21919 -4.38029 0
M  V30 2785 H 260.177 -2.08106 -2.07531 0
M  V30 2786 H 257.691 -1.21877 -1.0733 0
M  V30 2787 H 259.688 -0.692102 -4.11115 0
M  V30 2788 H 258.348 0.104588 -3.24532 0
M  V30 2789 H 259.359 -3.55583 -3.76538 0
M  V30 2790 H 256.036 -0.991531 -4.05555 0
M  V30 2791 H 257.426 -5.01125 -4.47575 0
M  V30 2792 N 260.146 1.09593 -1.13257 0
M  V30 2793 C 261.374 1.855 -0.916378 0
M  V30 2794 C 261.789 1.81069 0.534738 0
M  V30 2795 O 261.146 1.20562 1.37007 0
M  V30 2796 C 261.197 3.33546 -1.39388 0
M  V30 2797 O 260.918 3.37927 -2.78813 0
M  V30 2798 C 262.419 4.26299 -1.21588 0
M  V30 2799 H 259.639 0.585991 -0.326887 0
M  V30 2800 H 262.183 1.38488 -1.5047 0
M  V30 2801 H 260.338 3.77992 -0.848597 0
M  V30 2802 H 260.752 4.30254 -2.9997 0
M  V30 2803 H 262.226 5.28341 -1.59876 0
M  V30 2804 H 262.703 4.38918 -0.157376 0
M  V30 2805 H 263.309 3.87668 -1.7491 0
M  V30 2806 N 261.624 0.925811 1.2754 0
M  V30 2807 C 262.87 0.575575 1.95086 0
M  V30 2808 C 263.225 -0.873246 1.71441 0
M  V30 2809 O 262.518 -1.61443 1.03183 0
M  V30 2810 C 262.712 0.835296 3.47502 0
M  V30 2811 C 262.541 2.30781 3.85967 0
M  V30 2812 C 261.311 2.96017 4.09514 0
M  V30 2813 C 263.509 3.28519 3.95702 0
M  V30 2814 N 261.491 4.3344 4.34744 0
M  V30 2815 C 262.862 4.51146 4.25285 0
M  V30 2816 C 264.917 3.23753 3.7827 0
M  V30 2817 C 263.62 5.69606 4.39251 0
M  V30 2818 C 265.646 4.41523 3.9346 0
M  V30 2819 C 265.008 5.62928 4.23428 0
M  V30 2820 H 261.107 0.260711 0.737261 0
M  V30 2821 H 263.691 1.19204 1.53943 0
M  V30 2822 H 261.862 0.248005 3.87607 0
M  V30 2823 H 263.594 0.447878 4.02214 0
M  V30 2824 H 260.349 2.46695 4.04275 0
M  V30 2825 H 260.773 5.04528 4.5142 0
M  V30 2826 H 265.415 2.3096 3.54143 0
M  V30 2827 H 263.133 6.62866 4.62205 0
M  V30 2828 H 266.719 4.39351 3.81394 0
M  V30 2829 H 265.599 6.52538 4.34929 0
M  V30 2830 N 263.102 -1.41638 0.69111 0
M  V30 2831 C 264.012 -2.34588 0.0233487 0
M  V30 2832 C 265.028 -1.55987 -0.770984 0
M  V30 2833 O 266.204 -1.88486 -0.709569 0
M  V30 2834 C 263.269 -3.34684 -0.904851 0
M  V30 2835 C 262.33 -4.29176 -0.103225 0
M  V30 2836 C 261.563 -5.2449 -0.987216 0
M  V30 2837 O 261.786 -5.2514 -2.22674 0
M  V30 2838 O 260.72 -6.00295 -0.439281 0
M  V30 2839 H 264.546 -2.93261 0.789416 0
M  V30 2840 H 262.131 -1.42417 0.45142 0
M  V30 2841 H 264.013 -3.96133 -1.43724 0
M  V30 2842 H 262.688 -2.78461 -1.65049 0
M  V30 2843 H 261.595 -3.71089 0.473655 0
M  V30 2844 H 262.928 -4.88484 0.60365 0
M  V30 2845 N 264.58 -0.43555 -1.51462 0
M  V30 2846 C 265.49 0.383001 -2.31453 0
M  V30 2847 C 266.506 1.02931 -1.4029 0
M  V30 2848 O 267.682 1.02507 -1.73362 0
M  V30 2849 C 264.747 1.47043 -3.13973 0
M  V30 2850 C 263.808 0.844433 -4.20913 0
M  V30 2851 C 263.041 1.88004 -4.9949 0
M  V30 2852 O 263.264 3.10199 -4.78678 0
M  V30 2853 O 262.198 1.47157 -5.83634 0
M  V30 2854 H 266.024 -0.269964 -3.02498 0
M  V30 2855 H 263.609 -0.19813 -1.4808 0
M  V30 2856 H 265.491 2.10113 -3.65281 0
M  V30 2857 H 264.166 2.10751 -2.45695 0
M  V30 2858 H 263.073 0.175729 -3.73687 0
M  V30 2859 H 264.406 0.250869 -4.9156 0
M  V30 2860 N 266.058 1.56714 -0.166846 0
M  V30 2861 C 267.021 2.16539 0.751232 0
M  V30 2862 C 268.021 1.11228 1.16125 0
M  V30 2863 O 269.211 1.36765 1.07894 0
M  V30 2864 C 266.343 2.74462 2.02196 0
M  V30 2865 H 267.536 2.99013 0.230499 0
M  V30 2866 H 265.089 1.56081 0.0826982 0
M  V30 2867 H 265.824 1.95709 2.58589 0
M  V30 2868 H 265.609 3.51527 1.73698 0
M  V30 2869 H 267.099 3.20489 2.67725 0
M  V30 2870 N 267.536 -0.106894 1.57237 0
M  V30 2871 C 268.947 -0.662723 1.74542 0
M  V30 2872 C 269.298 -1.7971 0.787319 0
M  V30 2873 O 268.423 -2.16368 -0.0369636 0
M  V30 2874 C 269.018 -1.20896 3.16496 0
M  V30 2875 C 267.577 -1.71096 3.35266 0
M  V30 2876 C 266.724 -0.615642 2.7038 0
M  V30 2877 H 269.675 0.119106 1.58252 0
M  V30 2878 H 269.696 -2.07847 3.18716 0
M  V30 2879 H 269.208 -0.383122 3.86204 0
M  V30 2880 H 267.309 -2.56119 2.70618 0
M  V30 2881 H 267.422 -1.81208 4.43509 0
M  V30 2882 H 265.786 -1.05222 2.31949 0
M  V30 2883 H 266.569 0.199419 3.4272 0
M  V30 2884 N 269.014 -1.53014 -0.377408 0
M  V30 2885 C 269.944 -1.81589 -1.46791 0
M  V30 2886 C 270.925 -0.668622 -1.56408 0
M  V30 2887 O 272.11 -0.917337 -1.71168 0
M  V30 2888 C 269.24 -1.99519 -2.8427 0
M  V30 2889 C 268.194 -3.15249 -2.89486 0
M  V30 2890 C 267.52 -3.18451 -4.29527 0
M  V30 2891 C 268.82 -4.54084 -2.58079 0
M  V30 2892 H 270.514 -2.7291 -1.23127 0
M  V30 2893 H 268.06 -1.31319 -0.590883 0
M  V30 2894 H 270.013 -2.18092 -3.60575 0
M  V30 2895 H 268.737 -1.04897 -3.09296 0
M  V30 2896 H 267.396 -2.96477 -2.15631 0
M  V30 2897 H 267.044 -2.2149 -4.5161 0
M  V30 2898 H 266.744 -3.962 -4.33934 0
M  V30 2899 H 268.268 -3.39193 -5.07721 0
M  V30 2900 H 269.682 -4.72899 -3.24098 0
M  V30 2901 H 268.079 -5.33987 -2.7382 0
M  V30 2902 H 269.149 -4.60006 -1.53372 0
M  V30 2903 N 270.492 0.636531 -1.44174 0
M  V30 2904 C 271.422 1.76003 -1.53444 0
M  V30 2905 C 272.403 1.65619 -0.387841 0
M  V30 2906 O 273.588 1.84461 -0.607257 0
M  V30 2907 C 270.718 3.14511 -1.4731 0
M  V30 2908 C 269.672 3.39677 -2.60391 0
M  V30 2909 C 268.998 4.78159 -2.39308 0
M  V30 2910 C 270.298 3.32772 -4.02567 0
M  V30 2911 H 271.992 1.68501 -2.47483 0
M  V30 2912 H 269.538 0.809237 -1.19111 0
M  V30 2913 H 271.491 3.92878 -1.52397 0
M  V30 2914 H 270.215 3.22783 -0.49785 0
M  V30 2915 H 268.874 2.63688 -2.54684 0
M  V30 2916 H 268.522 4.83128 -1.39988 0
M  V30 2917 H 268.222 4.95956 -3.15122 0
M  V30 2918 H 269.746 5.58762 -2.46205 0
M  V30 2919 H 271.16 4.01051 -4.09672 0
M  V30 2920 H 269.557 3.62104 -4.7854 0
M  V30 2921 H 270.627 2.30669 -4.2652 0
M  V30 2922 N 271.97 1.30982 0.876444 0
M  V30 2923 C 273.198 1.23242 1.6619 0
M  V30 2924 C 273.613 -0.203345 1.87702 0
M  V30 2925 O 272.97 -1.13317 1.43057 0
M  V30 2926 C 273.021 1.96623 3.03351 0
M  V30 2927 O 272.742 3.34594 2.82804 0
M  V30 2928 C 274.243 1.95644 3.97792 0
M  V30 2929 H 271.463 0.426126 0.518322 0
M  V30 2930 H 274.007 1.7275 1.09442 0
M  V30 2931 H 272.162 1.50892 3.56806 0
M  V30 2932 H 272.576 3.71873 3.69879 0
M  V30 2933 H 274.05 2.51511 4.91372 0
M  V30 2934 H 274.527 0.937395 4.2908 0
M  V30 2935 H 275.133 2.41225 3.50272 0
M  V30 2936 N 273.449 -1.08991 1.13837 0
M  V30 2937 C 274.379 -2.17771 0.842507 0
M  V30 2938 C 275.36 -1.6892 -0.20001 0
M  V30 2939 O 276.545 -1.94113 -0.0579731 0
M  V30 2940 C 273.675 -3.4589 0.312644 0
M  V30 2941 C 272.629 -4.08099 1.28992 0
M  V30 2942 C 271.955 -5.31098 0.619623 0
M  V30 2943 C 273.255 -4.50077 2.65005 0
M  V30 2944 H 274.949 -2.42777 1.75213 0
M  V30 2945 H 272.495 -1.16682 0.843875 0
M  V30 2946 H 274.448 -4.21297 0.0933043 0
M  V30 2947 H 273.172 -3.20419 -0.632382 0
M  V30 2948 H 271.831 -3.34717 1.49533 0
M  V30 2949 H 271.479 -5.0191 -0.33102 0
M  V30 2950 H 271.179 -5.73674 1.27167 0
M  V30 2951 H 272.703 -6.09224 0.409669 0
M  V30 2952 H 274.117 -5.16688 2.48407 0
M  V30 2953 H 272.514 -5.03553 3.26427 0
M  V30 2954 H 273.584 -3.62257 3.22332 0
M  V30 2955 N 274.927 -0.932562 -1.27047 0
M  V30 2956 C 275.874 -0.434072 -2.26681 0
M  V30 2957 C 276.844 0.501639 -1.58344 0
M  V30 2958 O 278.029 0.419734 -1.86126 0
M  V30 2959 C 275.169 0.30261 -3.43771 0
M  V30 2960 C 274.282 -0.667774 -4.26808 0
M  V30 2961 C 273.417 0.0892393 -5.31125 0
M  V30 2962 C 272.456 -0.873532 -6.05835 0
M  V30 2963 N 271.593 -0.148832 -7.01942 0
M  V30 2964 H 276.433 -1.28868 -2.68695 0
M  V30 2965 H 273.97 -0.646713 -1.32121 0
M  V30 2966 H 275.928 0.746092 -4.10474 0
M  V30 2967 H 274.558 1.12142 -3.02695 0
M  V30 2968 H 273.61 -1.22978 -3.59973 0
M  V30 2969 H 274.922 -1.40337 -4.78651 0
M  V30 2970 H 274.076 0.592409 -6.03801 0
M  V30 2971 H 272.815 0.85777 -4.80097 0
M  V30 2972 H 271.82 -1.38791 -5.31994 0
M  V30 2973 H 273.045 -1.64193 -6.58952 0
M  V30 2974 H 270.991 0.601365 -6.53238 0
M  V30 2975 H 270.908 -0.82391 -7.51497 0
M  V30 2976 H 272.176 0.333527 -7.78786 0
M  V30 2977 N 276.405 1.4127 -0.698611 0
M  V30 2978 C 277.337 2.292 0.00399731 0
M  V30 2979 C 278.35 1.44944 0.741279 0
M  V30 2980 O 279.539 1.68416 0.591477 0
M  V30 2981 C 276.639 3.22875 1.02979 0
M  V30 2982 C 275.812 4.35904 0.36151 0
M  V30 2983 C 274.871 5.10134 1.29033 0
M  V30 2984 O 273.897 5.63809 0.781562 0
M  V30 2985 N 275.099 5.17885 2.6225 0
M  V30 2986 H 277.864 2.9014 -0.750921 0
M  V30 2987 H 275.425 1.52455 -0.544882 0
M  V30 2988 H 277.417 3.69404 1.65296 0
M  V30 2989 H 275.987 2.63221 1.68622 0
M  V30 2990 H 275.207 3.91719 -0.441584 0
M  V30 2991 H 276.495 5.08696 -0.103055 0
M  V30 2992 H 275.893 4.7573 3.061 0
M  V30 2993 H 274.45 5.6798 3.19754 0
M  V30 2994 N 277.883 0.443576 1.51229 0
M  V30 2995 C 278.83 -0.364716 2.279 0
M  V30 2996 C 279.8 -1.0114 1.31757 0
M  V30 2997 O 280.985 -1.02912 1.60667 0
M  V30 2998 C 278.125 -1.45644 3.12861 0
M  V30 2999 C 277.238 -0.827269 4.24005 0
M  V30 3000 C 276.373 -1.89456 4.96266 0
M  V30 3001 C 275.412 -1.24416 5.99322 0
M  V30 3002 N 274.549 -2.25309 6.64966 0
M  V30 3003 H 279.389 0.295464 2.96532 0
M  V30 3004 H 276.926 0.157554 1.46254 0
M  V30 3005 H 278.884 -2.10076 3.6045 0
M  V30 3006 H 277.514 -2.08616 2.46331 0
M  V30 3007 H 276.566 -0.0710839 3.80334 0
M  V30 3008 H 277.878 -0.312481 4.9782 0
M  V30 3009 H 277.032 -2.61535 5.47434 0
M  V30 3010 H 275.771 -2.4431 4.22095 0
M  V30 3011 H 274.776 -0.508868 5.4744 0
M  V30 3012 H 276.001 -0.702882 6.75453 0
M  V30 3013 H 273.947 -2.79231 5.93604 0
M  V30 3014 H 273.864 -1.78739 7.34567 0
M  V30 3015 H 275.132 -2.96853 7.20763 0
M  V30 3016 N 279.361 -1.56624 0.175154 0
M  V30 3017 C 280.293 -2.15333 -0.785128 0
M  V30 3018 C 281.306 -1.1099 -1.19101 0
M  V30 3019 O 282.495 -1.38162 -1.13019 0
M  V30 3020 C 279.595 -2.68427 -2.06882 0
M  V30 3021 C 278.768 -3.97466 -1.8259 0
M  V30 3022 C 277.827 -4.35585 -2.95215 0
M  V30 3023 O 276.853 -5.03389 -2.65684 0
M  V30 3024 N 278.055 -3.97457 -4.23094 0
M  V30 3025 H 280.82 -2.98359 -0.283187 0
M  V30 3026 H 278.381 -1.61898 -0.00749817 0
M  V30 3027 H 280.373 -2.90924 -2.81328 0
M  V30 3028 H 278.943 -1.89968 -2.48256 0
M  V30 3029 H 278.163 -3.83307 -0.920287 0
M  V30 3030 H 279.451 -4.81736 -1.63733 0
M  V30 3031 H 278.849 -3.42878 -4.49945 0
M  V30 3032 H 277.406 -4.24947 -4.9423 0
M  V30 3033 N 280.839 0.0985539 -1.57292 0
M  V30 3034 C 281.749 1.13824 -2.05137 0
M  V30 3035 C 282.765 1.44076 -0.975604 0
M  V30 3036 O 283.941 1.54786 -1.28853 0
M  V30 3037 C 281.006 2.43969 -2.46333 0
M  V30 3038 C 280.067 2.2093 -3.68087 0
M  V30 3039 C 279.3 3.44869 -4.0731 0
M  V30 3040 O 279.523 4.52972 -3.46659 0
M  V30 3041 O 278.457 3.34661 -5.00285 0
M  V30 3042 H 282.283 0.761881 -2.93988 0
M  V30 3043 H 279.868 0.310818 -1.46131 0
M  V30 3044 H 281.75 3.20609 -2.73473 0
M  V30 3045 H 280.425 2.81038 -1.60621 0
M  V30 3046 H 279.332 1.42081 -3.46069 0
M  V30 3047 H 280.665 1.88755 -4.54568 0
M  V30 3048 N 282.317 1.53212 0.369288 0
M  V30 3049 C 283.563 1.70413 1.11046 0
M  V30 3050 C 283.918 0.448509 1.87099 0
M  V30 3051 O 283.211 -0.558382 1.83283 0
M  V30 3052 C 283.405 2.89101 2.10132 0
M  V30 3053 C 283.234 4.26084 1.43814 0
M  V30 3054 C 282.004 4.90994 1.19384 0
M  V30 3055 C 284.202 5.06754 0.877802 0
M  V30 3056 N 282.184 6.11911 0.49377 0
M  V30 3057 C 283.555 6.1924 0.306891 0
M  V30 3058 C 285.61 4.91814 0.776129 0
M  V30 3059 C 284.313 7.1842 -0.355774 0
M  V30 3060 C 286.339 5.91263 0.127252 0
M  V30 3061 C 285.701 7.03069 -0.432801 0
M  V30 3062 H 281.8 0.676872 0.391623 0
M  V30 3063 H 284.384 1.90603 0.397334 0
M  V30 3064 H 282.555 2.70456 2.78761 0
M  V30 3065 H 284.287 2.95142 2.76899 0
M  V30 3066 H 281.042 4.50074 1.47413 0
M  V30 3067 H 281.466 6.76813 0.159207 0
M  V30 3068 H 286.108 4.05564 1.19489 0
M  V30 3069 H 283.826 8.04264 -0.786499 0
M  V30 3070 H 287.412 5.81779 0.0495613 0
M  V30 3071 H 286.292 7.78702 -0.926958 0
M  V30 3072 N 283.795 -0.628877 1.44509 0
M  V30 3073 C 285.044 -1.38437 1.4669 0
M  V30 3074 C 285.357 -1.95322 0.104272 0
M  V30 3075 O 286.563 -2.715 0.00362163 0
M  V30 3076 C 285.019 -2.50659 2.5826 0
M  V30 3077 C 284.627 -2.00277 4.0074 0
M  V30 3078 C 286.371 -3.27844 2.69664 0
M  V30 3079 C 284.278 -3.09854 5.0373 0
M  V30 3080 H 283.208 -0.520245 0.545766 0
M  V30 3081 H 285.859 -0.676313 1.70582 0
M  V30 3082 H 284.241 -3.2405 2.27612 0
M  V30 3083 H 285.415 -1.33736 4.40966 0
M  V30 3084 H 283.73 -1.35901 3.93599 0
M  V30 3085 H 286.327 -4.09534 3.43781 0
M  V30 3086 H 286.67 -3.77471 1.75559 0
M  V30 3087 H 287.203 -2.61543 2.99733 0
M  V30 3088 H 283.942 -2.65168 5.99472 0
M  V30 3089 H 283.462 -3.7503 4.68095 0
M  V30 3090 H 285.141 -3.74592 5.27532 0
M  V30 3091 N 285.273 -1.31445 -0.869486 0
M  V30 3092 C 286.513 -1.22458 -1.63656 0
M  V30 3093 C 286.877 0.213846 -1.90805 0
M  V30 3094 O 288.078 0.427212 -2.65383 0
M  V30 3095 C 286.349 -2.04564 -2.93067 0
M  V30 3096 S 287.908 -2.12445 -3.83944 0
M  V30 3097 H 284.726 -0.436145 -0.561514 0
M  V30 3098 H 287.328 -1.66114 -1.03085 0
M  V30 3099 H 286.032 -3.0816 -2.71045 0
M  V30 3100 H 285.563 -1.6163 -3.58663 0
M  V30 3101 H 287.578 -1.26312 -4.79854 0
M  V30 3102 N 286.751 1.08385 -1.14413 0
M  V30 3103 C 287.681 2.17321 -0.854044 0
M  V30 3104 C 288.662 1.69024 0.191049 0
M  V30 3105 O 289.847 1.94141 0.0476779 0
M  V30 3106 C 286.977 3.45719 -0.330983 0
M  V30 3107 C 285.931 4.07409 -1.31155 0
M  V30 3108 C 285.257 5.30762 -0.64778 0
M  V30 3109 C 286.557 4.48665 -2.67388 0
M  V30 3110 H 288.251 2.41845 -1.76498 0
M  V30 3111 H 285.797 1.16233 -0.850051 0
M  V30 3112 H 287.75 4.21241 -0.115645 0
M  V30 3113 H 286.474 3.2075 0.615381 0
M  V30 3114 H 285.133 3.33919 -1.51306 0
M  V30 3115 H 284.781 5.02078 0.304398 0
M  V30 3116 H 284.481 5.72992 -1.30207 0
M  V30 3117 H 286.005 6.08998 -0.441972 0
M  V30 3118 H 287.419 5.15364 -2.51143 0
M  V30 3119 H 285.816 5.01814 -3.29093 0
M  V30 3120 H 286.886 3.60543 -3.24248 0
M  V30 3121 N 288.23 0.939286 1.26551 0
M  V30 3122 C 289.14 0.453432 2.30176 0
M  V30 3123 C 290.156 -0.471649 1.67486 0
M  V30 3124 O 291.332 -0.35164 1.98306 0
M  V30 3125 C 288.397 -0.275326 3.45605 0
M  V30 3126 C 287.458 0.686084 4.23782 0
M  V30 3127 C 286.691 -0.00798994 5.33699 0
M  V30 3128 O 286.914 -1.22528 5.57085 0
M  V30 3129 O 285.848 0.669746 5.98162 0
M  V30 3130 H 289.674 1.31416 2.73795 0
M  V30 3131 H 287.259 0.705095 1.31715 0
M  V30 3132 H 289.141 -0.685911 4.1578 0
M  V30 3133 H 287.816 -1.11147 3.0402 0
M  V30 3134 H 286.723 1.14658 3.56096 0
M  V30 3135 H 288.056 1.48979 4.69112 0
M  V30 3136 N 289.708 -1.40897 0.706093 0
M  V30 3137 C 290.936 -2.05373 0.250887 0
M  V30 3138 C 291.351 -1.53172 -1.10381 0
M  V30 3139 O 290.708 -0.684305 -1.69185 0
M  V30 3140 C 290.759 -3.6088 0.211571 0
M  V30 3141 O 290.48 -4.11153 1.51276 0
M  V30 3142 C 291.981 -4.42517 -0.263346 0
M  V30 3143 H 289.201 -0.66115 0.114552 0
M  V30 3144 H 291.745 -1.80479 0.961635 0
M  V30 3145 H 289.9 -3.84777 -0.450073 0
M  V30 3146 H 290.314 -5.05279 1.40689 0
M  V30 3147 H 291.788 -5.51479 -0.239718 0
M  V30 3148 H 292.265 -4.19396 -1.30397 0
M  V30 3149 H 292.871 -4.23708 0.367677 0
M  V30 3150 N 291.186 -0.45159 -1.50991 0
M  V30 3151 C 292.116 0.342898 -2.30969 0
M  V30 3152 C 293.097 1.00815 -1.37005 0
M  V30 3153 O 294.282 1.00907 -1.65926 0
M  V30 3154 C 291.412 1.43637 -3.16205 0
M  V30 3155 C 290.366 0.893818 -4.18563 0
M  V30 3156 C 289.692 2.08411 -4.92411 0
M  V30 3157 C 290.992 -0.0815568 -5.22236 0
M  V30 3158 H 292.686 -0.324556 -2.97636 0
M  V30 3159 H 290.232 -0.157531 -1.43136 0
M  V30 3160 H 292.185 1.9995 -3.70942 0
M  V30 3161 H 290.909 2.13232 -2.47386 0
M  V30 3162 H 289.568 0.352798 -3.64898 0
M  V30 3163 H 289.216 2.76658 -4.20082 0
M  V30 3164 H 288.916 1.72741 -5.61636 0
M  V30 3165 H 290.44 2.65251 -5.49976 0
M  V30 3166 H 291.854 0.391742 -5.7196 0
M  V30 3167 H 290.251 -0.351551 -5.99069 0
M  V30 3168 H 291.321 -1.01374 -4.74185 0
M  V30 3169 N 292.664 1.56529 -0.183458 0
M  V30 3170 C 293.892 2.01623 0.464285 0
M  V30 3171 C 294.307 1.06366 1.55986 0
M  V30 3172 O 293.664 0.0665398 1.82379 0
M  V30 3173 C 293.715 3.46475 1.03139 0
M  V30 3174 O 293.436 4.38095 -0.0204675 0
M  V30 3175 C 294.937 4.0703 1.75617 0
M  V30 3176 H 292.157 0.660596 0.117704 0
M  V30 3177 H 294.701 2.02451 -0.288751 0
M  V30 3178 H 292.856 3.46383 1.73486 0
M  V30 3179 H 293.27 5.22973 0.399952 0
M  V30 3180 H 294.744 5.10271 2.10542 0
M  V30 3181 H 295.221 3.49819 2.65563 0
M  V30 3182 H 295.827 4.1086 1.09882 0
M  V30 3183 N 294.142 -0.090211 1.57342 0
M  V30 3184 C 295.553 -0.644173 1.75235 0
M  V30 3185 C 295.904 -1.78865 0.806335 0
M  V30 3186 O 295.029 -2.16395 -0.0140128 0
M  V30 3187 C 295.624 -1.17532 3.1776 0
M  V30 3188 C 294.183 -1.67531 3.37061 0
M  V30 3189 C 293.33 -0.58693 2.71017 0
M  V30 3190 H 296.281 0.135884 1.58117 0
M  V30 3191 H 296.302 -2.04455 3.20902 0
M  V30 3192 H 295.814 -0.342138 3.86589 0
M  V30 3193 H 293.915 -2.53234 2.73319 0
M  V30 3194 H 294.028 -1.76493 4.45406 0
M  V30 3195 H 292.392 -1.02756 2.33052 0
M  V30 3196 H 293.175 0.235758 3.4249 0
M  V30 3197 N 295.62 -1.53406 -0.361157 0
M  V30 3198 C 296.897 -1.60411 -1.11927 0
M  V30 3199 C 297.277 -0.414385 -2.06993 0
M  V30 3200 O 296.625 0.594976 -2.20618 0
M  V30 3201 C 296.835 -2.95652 -1.85448 0
M  V30 3202 C 298.183 -3.50386 -2.39823 0
M  V30 3203 O 299.207 -2.97711 -1.95568 0
M  V30 3204 O 298.066 -4.42482 -3.20737 0
M  V30 3205 H 295.16 -0.64811 -0.513695 0
M  V30 3206 H 297.706 -1.65749 -0.364065 0
M  V30 3207 H 296.478 -3.73682 -1.16091 0
M  V30 3208 H 296.101 -2.93825 -2.67866 0
M  V30 3209 N 297.098 0.621204 -1.44841 0
M  V30 3210 C 298.326 1.40752 -1.51646 0
M  V30 3211 C 298.741 1.88246 -0.144549 0
M  V30 3212 O 298.098 1.61422 0.851416 0
M  V30 3213 C 298.149 2.62119 -2.4895 0
M  V30 3214 O 297.87 2.16602 -3.80808 0
M  V30 3215 C 299.371 3.55135 -2.65319 0
M  V30 3216 H 296.591 0.431325 -0.514004 0
M  V30 3217 H 299.135 0.758835 -1.899 0
M  V30 3218 H 297.29 3.23058 -2.13805 0
M  V30 3219 H 297.704 2.95358 -4.33433 0
M  V30 3220 H 299.178 4.36874 -3.37409 0
M  V30 3221 H 299.655 4.04592 -1.70886 0
M  V30 3222 H 300.261 3.00058 -3.01405 0
M  V30 3223 N 298.576 1.31904 0.862503 0
M  V30 3224 C 299.508 1.16005 1.97675 0
M  V30 3225 C 300.521 0.0971234 1.6251 0
M  V30 3226 O 301.71 0.345337 1.75128 0
M  V30 3227 C 298.81 0.751791 3.30456 0
M  V30 3228 C 297.983 1.90133 3.93914 0
M  V30 3229 C 297.042 1.4779 5.05019 0
M  V30 3230 O 296.068 2.18872 5.25437 0
M  V30 3231 N 297.27 0.369491 5.79323 0
M  V30 3232 H 300.035 2.11982 2.11857 0
M  V30 3233 H 297.596 1.24337 1.03691 0
M  V30 3234 H 299.588 0.451084 4.02178 0
M  V30 3235 H 298.158 -0.116593 3.12382 0
M  V30 3236 H 297.378 2.36896 3.15078 0
M  V30 3237 H 298.666 2.67111 4.33047 0
M  V30 3238 H 298.064 -0.222299 5.65263 0
M  V30 3239 H 296.621 0.128354 6.51674 0
M  V30 3240 N 300.054 -1.07777 1.14986 0
M  V30 3241 C 301.284 -1.83752 0.944402 0
M  V30 3242 C 301.692 -1.8218 -0.51058 0
M  V30 3243 O 301.035 -1.22852 -1.36576 0
M  V30 3244 C 301.097 -3.32128 1.37592 0
M  V30 3245 C 300.761 -3.57425 2.84775 0
M  V30 3246 C 301.758 -3.5173 3.8286 0
M  V30 3247 C 299.443 -3.8523 3.2234 0
M  V30 3248 C 301.437 -3.73482 5.16517 0
M  V30 3249 C 299.124 -4.06634 4.56171 0
M  V30 3250 C 300.122 -4.00754 5.53069 0
M  V30 3251 O 299.81 -4.2159 6.84483 0
M  V30 3252 H 299.542 -0.58673 0.335744 0
M  V30 3253 H 302.096 -1.36982 1.53052 0
M  V30 3254 H 300.326 -3.79686 0.733165 0
M  V30 3255 H 302.015 -3.89555 1.14024 0
M  V30 3256 H 302.781 -3.30256 3.55184 0
M  V30 3257 H 298.66 -3.88923 2.47508 0
M  V30 3258 H 302.204 -3.68808 5.92137 0
M  V30 3259 H 298.101 -4.27593 4.83564 0
M  V30 3260 H 298.869 -4.38961 6.90837 0
M  V30 3261 N 301.532 -0.945985 -1.26051 0
M  V30 3262 C 302.442 -0.465633 -2.29933 0
M  V30 3263 C 303.458 0.462761 -1.67733 0
M  V30 3264 O 304.634 0.341118 -1.9849 0
M  V30 3265 C 301.699 0.256994 -3.45746 0
M  V30 3266 C 300.76 -0.708549 -4.23412 0
M  V30 3267 C 299.993 -0.0203135 -5.33696 0
M  V30 3268 O 300.216 1.19571 -5.57726 0
M  V30 3269 O 299.15 -0.701459 -5.97799 0
M  V30 3270 H 302.976 -1.32866 -2.73094 0
M  V30 3271 H 300.561 -0.712071 -1.31339 0
M  V30 3272 H 302.443 0.663852 -4.16138 0
M  V30 3273 H 301.118 1.09533 -3.04605 0
M  V30 3274 H 300.025 -1.16545 -3.55483 0
M  V30 3275 H 301.358 -1.51465 -4.68315 0
M  V30 3276 N 303.011 1.40521 -0.713556 0
M  V30 3277 C 304.258 2.00923 -0.25219 0
M  V30 3278 C 304.586 1.56571 1.15395 0
M  V30 3279 O 303.841 0.775874 1.79663 0
M  V30 3280 C 304.14 3.56317 -0.278 0
M  V30 3281 C 303.806 4.20246 -1.63415 0
M  V30 3282 C 302.468 4.37422 -2.00538 0
M  V30 3283 C 304.82 4.55923 -2.52554 0
M  V30 3284 C 302.148 4.87558 -3.2635 0
M  V30 3285 C 304.5 5.07458 -3.77716 0
M  V30 3286 C 303.164 5.22843 -4.14959 0
M  V30 3287 H 302.434 0.735231 -0.0922829 0
M  V30 3288 H 305.081 1.68161 -0.916188 0
M  V30 3289 H 303.386 3.88976 0.469567 0
M  V30 3290 H 305.083 4.00883 0.0967819 0
M  V30 3291 H 301.673 4.07263 -1.33546 0
M  V30 3292 H 305.857 4.42291 -2.25149 0
M  V30 3293 H 301.113 4.97654 -3.55176 0
M  V30 3294 H 305.287 5.34041 -4.4696 0
M  V30 3295 H 302.914 5.61454 -5.12516 0
M  V30 3296 N 304.489 0.459591 1.5075 0
M  V30 3297 C 305.421 -0.37665 2.26084 0
M  V30 3298 C 306.434 -0.967109 1.30961 0
M  V30 3299 O 307.623 -0.857468 1.56556 0
M  V30 3300 C 304.723 -1.54112 3.01832 0
M  V30 3301 C 303.896 -1.06553 4.24223 0
M  V30 3302 C 302.955 -2.1027 4.82362 0
M  V30 3303 O 301.981 -1.68798 5.43595 0
M  V30 3304 N 303.183 -3.42974 4.68347 0
M  V30 3305 H 305.948 0.269124 2.98489 0
M  V30 3306 H 303.509 0.28972 1.59287 0
M  V30 3307 H 305.501 -2.23165 3.37608 0
M  V30 3308 H 304.071 -2.0918 2.32298 0
M  V30 3309 H 303.291 -0.201274 3.93686 0
M  V30 3310 H 304.579 -0.725516 5.03601 0
M  V30 3311 H 303.977 -3.79385 4.19623 0
M  V30 3312 H 302.534 -4.07858 5.08424 0
M  V30 3313 N 305.967 -1.56429 0.191757 0
M  V30 3314 C 307.213 -1.97777 -0.448554 0
M  V30 3315 C 307.546 -1.07847 -1.61501 0
M  V30 3316 O 306.821 -0.129774 -1.94067 0
M  V30 3317 C 307.104 -3.48362 -0.911906 0
M  V30 3318 C 306.957 -4.4907 0.256136 0
M  V30 3319 C 308.276 -4.02561 -1.77857 0
M  V30 3320 H 305.395 -0.719071 -0.161572 0
M  V30 3321 H 308.037 -1.87896 0.282007 0
M  V30 3322 H 306.187 -3.56914 -1.53442 0
M  V30 3323 H 307.859 -4.5256 0.893733 0
M  V30 3324 H 306.102 -4.24181 0.908436 0
M  V30 3325 H 306.773 -5.51889 -0.11053 0
M  V30 3326 H 309.249 -3.96767 -1.25359 0
M  V30 3327 H 308.125 -5.08301 -2.07174 0
M  V30 3328 H 308.386 -3.47616 -2.73158 0
M  V30 3329 N 307.445 0.0818655 -1.57387 0
M  V30 3330 C 308.861 0.436412 -1.53517 0
M  V30 3331 C 309.061 1.79758 -0.910459 0
M  V30 3332 O 308.117 2.47324 -0.508636 0
M  V30 3333 C 309.43 0.386734 -2.98203 0
M  V30 3334 C 310.978 0.467644 -3.09487 0
M  V30 3335 C 311.453 0.447978 -4.55804 0
M  V30 3336 N 312.944 0.508348 -4.60402 0
M  V30 3337 C 313.679 0.515184 -5.71081 0
M  V30 3338 N 313.175 0.477435 -6.91153 0
M  V30 3339 N 314.968 0.560988 -5.59294 0
M  V30 3340 H 307.119 -0.809546 -1.96367 0
M  V30 3341 H 309.382 -0.302733 -0.898363 0
M  V30 3342 H 309.088 -0.546539 -3.47427 0
M  V30 3343 H 308.962 1.20075 -3.57578 0
M  V30 3344 H 311.349 1.39134 -2.60242 0
M  V30 3345 H 311.43 -0.374753 -2.5304 0
M  V30 3346 H 311.074 -0.471826 -5.05704 0
M  V30 3347 H 311.004 1.30777 -5.10103 0
M  V30 3348 H 313.495 0.54218 -3.7399 0
M  V30 3349 H 313.808 0.486299 -7.71268 0
M  V30 3350 H 312.153 0.444278 -6.93579 0
M  V30 3351 H 315.344 0.5881 -4.64391 0
M  V30 3352 H 315.517 0.562846 -6.45551 0
M  V30 3353 N 308.923 1.53595 0.353017 0
M  V30 3354 C 310.169 1.70638 1.09593 0
M  V30 3355 C 310.502 0.463286 1.88593 0
M  V30 3356 O 309.777 -0.539597 1.86865 0
M  V30 3357 C 310.06 2.96406 2.04489 0
M  V30 3358 C 309.913 4.30901 1.29014 0
M  V30 3359 C 311.232 3.17812 3.0444 0
M  V30 3360 H 308.351 0.620913 0.397034 0
M  V30 3361 H 310.993 1.86254 0.375446 0
M  V30 3362 H 309.143 2.83223 2.65927 0
M  V30 3363 H 310.815 4.55917 0.702638 0
M  V30 3364 H 309.058 4.29741 0.592071 0
M  V30 3365 H 309.729 5.1506 1.98537 0
M  V30 3366 H 312.205 3.30263 2.53112 0
M  V30 3367 H 311.081 4.07223 3.6805 0
M  V30 3368 H 311.342 2.33669 3.75301 0
M  V30 3369 N 310.401 -0.613514 1.45168 0
M  V30 3370 C 311.348 -1.72456 1.53387 0
M  V30 3371 C 312.318 -1.6169 0.380191 0
M  V30 3372 O 313.503 -1.81356 0.592836 0
M  V30 3373 C 310.643 -3.10753 1.50088 0
M  V30 3374 C 309.756 -3.32368 2.75963 0
M  V30 3375 C 308.891 -4.60737 2.64376 0
M  V30 3376 C 307.93 -4.7559 3.85332 0
M  V30 3377 N 307.067 -5.95253 3.72315 0
M  V30 3378 H 311.907 -1.64768 2.48305 0
M  V30 3379 H 309.444 -0.803503 1.23216 0
M  V30 3380 H 311.402 -3.90758 1.46164 0
M  V30 3381 H 310.032 -3.17413 0.587243 0
M  V30 3382 H 309.084 -2.4618 2.89999 0
M  V30 3383 H 310.396 -3.39218 3.65695 0
M  V30 3384 H 309.55 -5.48928 2.58385 0
M  V30 3385 H 308.289 -4.56275 1.72233 0
M  V30 3386 H 307.294 -3.85824 3.91688 0
M  V30 3387 H 308.519 -4.81854 4.78533 0
M  V30 3388 H 306.465 -5.91847 2.82937 0
M  V30 3389 H 306.382 -6.03236 4.55677 0
M  V30 3390 H 307.65 -6.85958 3.70246 0
M  V30 3391 N 311.879 -1.3236 -0.855495 0
M  V30 3392 C 313.29 -1.2056 -1.42556 0
M  V30 3393 C 313.641 0.182209 -1.95352 0
M  V30 3394 O 312.766 1.08088 -1.87472 0
M  V30 3395 C 313.361 -2.1826 -2.59129 0
M  V30 3396 C 311.92 -2.10351 -3.12137 0
M  V30 3397 C 311.067 -2.06674 -1.84882 0
M  V30 3398 H 314.018 -1.442 -0.662727 0
M  V30 3399 H 314.039 -1.78064 -3.36264 0
M  V30 3400 H 313.551 -3.19257 -2.20673 0
M  V30 3401 H 311.652 -1.12599 -3.55179 0
M  V30 3402 H 311.765 -3.00135 -3.73438 0
M  V30 3403 H 310.129 -1.51901 -2.04446 0
M  V30 3404 H 310.912 -3.09451 -1.48643 0
M  V30 3405 N 313.357 1.07166 -1.15556 0
M  V30 3406 C 314.287 2.16403 -0.877046 0
M  V30 3407 C 315.268 1.69217 0.173111 0
M  V30 3408 O 316.453 1.94181 0.027084 0
M  V30 3409 C 313.583 3.45349 -0.367632 0
M  V30 3410 C 312.537 4.05995 -1.35468 0
M  V30 3411 C 311.863 5.30045 -0.704038 0
M  V30 3412 C 313.163 4.45804 -2.72132 0
M  V30 3413 H 314.857 2.39959 -1.79053 0
M  V30 3414 H 312.403 1.15325 -0.862331 0
M  V30 3415 H 314.356 4.21095 -0.160317 0
M  V30 3416 H 313.08 3.21385 0.581326 0
M  V30 3417 H 311.739 3.32296 -1.54839 0
M  V30 3418 H 311.387 5.02373 0.251128 0
M  V30 3419 H 311.087 5.71579 -1.36277 0
M  V30 3420 H 312.611 6.08495 -0.50654 0
M  V30 3421 H 314.025 5.12671 -2.56595 0
M  V30 3422 H 312.422 4.98296 -3.34397 0
M  V30 3423 H 313.492 3.57083 -3.28054 0
M  V30 3424 N 314.835 0.952656 1.25548 0
M  V30 3425 C 315.767 0.428609 2.25157 0
M  V30 3426 C 316.78 -0.454428 1.56329 0
M  V30 3427 O 317.969 -0.263023 1.76552 0
M  V30 3428 C 315.069 -0.401972 3.36508 0
M  V30 3429 C 314.242 0.467601 4.34893 0
M  V30 3430 C 313.301 -0.30445 5.25319 0
M  V30 3431 O 312.327 0.296473 5.68427 0
M  V30 3432 N 313.529 -1.59805 5.5807 0
M  V30 3433 H 316.294 1.28497 2.70756 0
M  V30 3434 H 313.855 0.822798 1.39433 0
M  V30 3435 H 315.847 -0.926134 3.9396 0
M  V30 3436 H 314.417 -1.15918 2.90313 0
M  V30 3437 H 313.637 1.17288 3.76347 0
M  V30 3438 H 314.925 1.06119 4.97611 0
M  V30 3439 H 314.323 -2.10823 5.24948 0
M  V30 3440 H 312.88 -2.06822 6.18116 0
M  V30 3441 N 316.313 -1.40141 0.720998 0
M  V30 3442 C 317.561 -2.0039 0.262323 0
M  V30 3443 C 317.882 -1.57469 -1.15015 0
M  V30 3444 O 317.152 -0.816582 -1.78069 0
M  V30 3445 H 315.732 -0.741063 0.093996 0
M  V30 3446 H 318.394 -1.71398 0.927835 0
M  V30 3447 H 317.49 -3.10658 0.299671 0
M  V30 3448 N 317.792 -0.46758 -1.50504 0
M  V30 3449 C 318.702 0.33382 -2.32213 0
M  V30 3450 C 319.718 0.999323 -1.42441 0
M  V30 3451 O 320.894 0.988068 -1.75497 0
M  V30 3452 C 317.959 1.4035 -3.17022 0
M  V30 3453 C 317.02 0.754961 -4.2261 0
M  V30 3454 C 316.253 1.77367 -5.03365 0
M  V30 3455 O 316.476 2.99976 -4.8515 0
M  V30 3456 O 315.41 1.34744 -5.86624 0
M  V30 3457 H 319.236 -0.334067 -3.01857 0
M  V30 3458 H 316.821 -0.229496 -1.47627 0
M  V30 3459 H 318.703 2.02318 -3.69656 0
M  V30 3460 H 317.378 2.05492 -2.5011 0
M  V30 3461 H 316.285 0.0964244 -3.73976 0
M  V30 3462 H 317.618 0.146545 -4.91982 0
M  V30 3463 N 319.27 1.56325 -0.20005 0
M  V30 3464 C 320.517 1.97719 0.437411 0
M  V30 3465 C 320.845 1.08709 1.61284 0
M  V30 3466 O 320.1 0.127261 1.95286 0
M  V30 3467 C 320.399 3.4495 0.935103 0
M  V30 3468 C 320.065 4.5072 -0.12749 0
M  V30 3469 C 318.727 4.79368 -0.419451 0
M  V30 3470 C 321.079 5.14268 -0.847231 0
M  V30 3471 C 318.407 5.68854 -1.43604 0
M  V30 3472 C 320.759 6.04852 -1.85301 0
M  V30 3473 C 319.423 6.31855 -2.15211 0
M  V30 3474 H 318.693 0.723507 0.16006 0
M  V30 3475 H 321.34 1.89166 -0.298056 0
M  V30 3476 H 319.645 3.50599 1.74894 0
M  V30 3477 H 321.342 3.74337 1.43781 0
M  V30 3478 H 317.932 4.28458 0.11023 0
M  V30 3479 H 322.116 4.92222 -0.634901 0
M  V30 3480 H 317.372 5.88047 -1.67364 0
M  V30 3481 H 321.546 6.53152 -2.41591 0
M  V30 3482 H 319.173 7.00994 -2.94129 0
M  V30 3483 N 320.748 -0.0735177 1.57428 0
M  V30 3484 C 321.976 -0.785969 1.9139 0
M  V30 3485 C 322.391 -1.71207 0.795847 0
M  V30 3486 O 321.748 -1.81033 -0.230915 0
M  V30 3487 C 321.799 -1.58107 3.25091 0
M  V30 3488 O 321.52 -0.6922 4.32597 0
M  V30 3489 C 323.021 -2.39467 3.73055 0
M  V30 3490 H 320.241 -0.223558 0.632663 0
M  V30 3491 H 322.785 -0.044302 2.04452 0
M  V30 3492 H 320.94 -2.27503 3.13562 0
M  V30 3493 H 321.354 -1.24504 5.09508 0
M  V30 3494 H 322.828 -2.90716 4.69242 0
M  V30 3495 H 323.305 -3.18913 3.01979 0
M  V30 3496 H 323.911 -1.7523 3.87523 0
M  V30 3497 N 322.226 -1.5378 -0.344866 0
M  V30 3498 C 323.454 -1.74899 -1.10534 0
M  V30 3499 C 323.869 -0.487534 -1.82397 0
M  V30 3500 O 323.226 0.540741 -1.74305 0
M  V30 3501 C 323.277 -2.92822 -2.11984 0
M  V30 3502 O 322.998 -4.14089 -1.43044 0
M  V30 3503 C 324.499 -3.25982 -3.00417 0
M  V30 3504 H 321.719 -0.584426 -0.329678 0
M  V30 3505 H 324.263 -2.006 -0.397474 0
M  V30 3506 H 322.418 -2.69457 -2.78338 0
M  V30 3507 H 322.832 -4.80272 -2.10805 0
M  V30 3508 H 324.306 -4.11848 -3.67539 0
M  V30 3509 H 324.783 -2.42228 -3.66363 0
M  V30 3510 H 325.389 -3.51349 -2.39654 0
M  V30 3511 N 323.704 0.605807 -1.45491 0
M  V30 3512 C 324.95 1.36481 -1.50813 0
M  V30 3513 C 325.305 1.91826 -0.148469 0
M  V30 3514 O 324.598 1.72211 0.839869 0
M  V30 3515 C 324.792 2.53012 -2.52428 0
M  V30 3516 C 324.621 2.09078 -3.98141 0
M  V30 3517 C 323.391 1.95167 -4.66088 0
M  V30 3518 C 325.589 1.66438 -4.86624 0
M  V30 3519 N 323.571 1.45062 -5.96515 0
M  V30 3520 C 324.942 1.27761 -6.06694 0
M  V30 3521 C 326.997 1.54046 -4.7347 0
M  V30 3522 C 325.7 0.779286 -7.15066 0
M  V30 3523 C 327.726 1.05618 -5.81892 0
M  V30 3524 C 327.088 0.67906 -7.01119 0
M  V30 3525 H 323.187 0.493267 -0.606805 0
M  V30 3526 H 325.771 0.692347 -1.81974 0
M  V30 3527 H 323.942 3.17851 -2.23215 0
M  V30 3528 H 325.674 3.19897 -2.47887 0
M  V30 3529 H 322.429 2.16407 -4.21266 0
M  V30 3530 H 322.853 1.22237 -6.65873 0
M  V30 3531 H 327.495 1.81827 -3.81705 0
M  V30 3532 H 325.213 0.489026 -8.06619 0
M  V30 3533 H 328.799 0.964529 -5.73749 0
M  V30 3534 H 327.679 0.310091 -7.83587 0
M  V30 3535 N 325.182 1.32811 0.848464 0
M  V30 3536 C 326.407 1.26882 1.6406 0
M  V30 3537 C 326.832 -0.15913 1.87426 0
M  V30 3538 O 326.19 -1.11258 1.43148 0
M  V30 3539 C 326.238 2.03997 2.97351 0
M  V30 3540 O 325.342 1.39201 3.88197 0
M  V30 3541 H 324.683 0.436982 0.499943 0
M  V30 3542 H 327.213 1.75224 1.0563 0
M  V30 3543 H 327.223 2.14403 3.47124 0
M  V30 3544 H 325.898 3.0783 2.79666 0
M  V30 3545 H 324.475 1.37381 3.46671 0
M  V30 3546 N 326.66 -1.06551 1.16123 0
M  V30 3547 C 328.071 -1.60768 0.949232 0
M  V30 3548 C 328.422 -1.89523 -0.507508 0
M  V30 3549 O 327.547 -1.66671 -1.38021 0
M  V30 3550 C 328.142 -2.92086 1.71671 0
M  V30 3551 C 326.701 -3.43015 1.54977 0
M  V30 3552 C 325.848 -2.16947 1.72711 0
M  V30 3553 H 328.799 -0.895354 1.31031 0
M  V30 3554 H 328.82 -3.6138 1.19099 0
M  V30 3555 H 328.332 -2.71127 2.7769 0
M  V30 3556 H 326.433 -3.69039 0.513873 0
M  V30 3557 H 326.546 -4.18516 2.33198 0
M  V30 3558 H 324.91 -2.27041 1.15431 0
M  V30 3559 H 325.693 -1.98473 2.80113 0
M  V30 3560 N 328.138 -0.959301 -1.25041 0
M  V30 3561 C 329.384 -0.627096 -1.93492 0
M  V30 3562 C 329.739 0.827484 -1.73696 0
M  V30 3563 O 329.032 1.58651 -1.07427 0
M  V30 3564 C 329.226 -0.927136 -3.45165 0
M  V30 3565 C 329.055 -2.40933 -3.79712 0
M  V30 3566 C 327.825 -3.0677 -4.01522 0
M  V30 3567 C 330.023 -3.38894 -3.86853 0
M  V30 3568 N 328.005 -4.44815 -4.231 0
M  V30 3569 C 329.376 -4.62263 -4.13174 0
M  V30 3570 C 331.431 -3.33668 -3.69554 0
M  V30 3571 C 330.134 -5.81052 -4.23995 0
M  V30 3572 C 332.16 -4.518 -3.81616 0
M  V30 3573 C 331.522 -5.73957 -4.08354 0
M  V30 3574 H 327.621 -0.280166 -0.73009 0
M  V30 3575 H 330.205 -1.23244 -1.50729 0
M  V30 3576 H 328.376 -0.350685 -3.86814 0
M  V30 3577 H 330.108 -0.554361 -4.00885 0
M  V30 3578 H 326.863 -2.57327 -3.97593 0
M  V30 3579 H 327.287 -5.16319 -4.37885 0
M  V30 3580 H 331.929 -2.40268 -3.47895 0
M  V30 3581 H 329.647 -6.74888 -4.44468 0
M  V30 3582 H 333.233 -4.49309 -3.69612 0
M  V30 3583 H 332.113 -6.6384 -4.17475 0
M  V30 3584 N 329.616 1.39756 -0.72842 0
M  V30 3585 C 330.841 2.05472 -0.282159 0
M  V30 3586 C 331.266 1.54549 1.07221 0
M  V30 3587 O 330.624 0.686372 1.67805 0
M  V30 3588 C 330.672 3.59462 -0.286264 0
M  V30 3589 O 329.776 4.05918 0.728298 0
M  V30 3590 H 329.117 0.651226 -0.129618 0
M  V30 3591 H 331.647 1.78915 -0.992499 0
M  V30 3592 H 331.657 4.07798 -0.128373 0
M  V30 3593 H 330.332 3.95889 -1.27456 0
M  V30 3594 H 328.909 3.69012 0.537081 0
M  V30 3595 N 331.094 0.475555 1.50254 0
M  V30 3596 C 332.026 -0.352649 2.26471 0
M  V30 3597 C 333.039 -0.953165 1.3198 0
M  V30 3598 O 334.228 -0.840815 1.57457 0
M  V30 3599 C 331.328 -1.50902 3.0345 0
M  V30 3600 C 330.501 -1.02047 4.25329 0
M  V30 3601 C 329.56 -2.05142 4.84565 0
M  V30 3602 O 328.586 -1.63023 5.45355 0
M  V30 3603 N 329.788 -3.37987 4.71959 0
M  V30 3604 H 332.553 0.300767 2.98187 0
M  V30 3605 H 330.114 0.306598 1.5897 0
M  V30 3606 H 332.106 -2.19572 3.39956 0
M  V30 3607 H 330.676 -2.06705 2.34504 0
M  V30 3608 H 329.896 -0.159507 3.93877 0
M  V30 3609 H 331.184 -0.672061 5.04342 0
M  V30 3610 H 330.582 -3.74913 4.23623 0
M  V30 3611 H 329.139 -4.02443 5.12721 0
M  V30 3612 N 332.573 -1.56217 0.208337 0
M  V30 3613 C 333.984 -1.84243 -0.301904 0
M  V30 3614 C 334.335 -1.12939 -1.60434 0
M  V30 3615 O 333.46 -0.39461 -2.12772 0
M  V30 3616 C 334.055 -3.34231 -0.554543 0
M  V30 3617 C 332.614 -3.62621 -1.00912 0
M  V30 3618 C 331.761 -2.77224 -0.064933 0
M  V30 3619 H 334.712 -1.52712 0.431833 0
M  V30 3620 H 334.733 -3.5372 -1.40223 0
M  V30 3621 H 334.245 -3.86099 0.393561 0
M  V30 3622 H 332.346 -3.16197 -1.97104 0
M  V30 3623 H 332.459 -4.7071 -0.892674 0
M  V30 3624 H 330.823 -2.48256 -0.56929 0
M  V30 3625 H 331.606 -3.31887 0.877851 0
M  V30 3626 N 334.051 0.0651679 -1.57465 0
M  V30 3627 C 334.981 1.07693 -2.07182 0
M  V30 3628 C 335.962 1.39962 -0.966673 0
M  V30 3629 O 337.147 1.49475 -1.2398 0
M  V30 3630 C 334.277 2.3885 -2.52127 0
M  V30 3631 C 333.231 2.20917 -3.66579 0
M  V30 3632 C 332.557 3.57515 -3.97601 0
M  V30 3633 C 333.857 1.62493 -4.9638 0
M  V30 3634 H 335.551 0.663199 -2.91962 0
M  V30 3635 H 333.097 0.317569 -1.40455 0
M  V30 3636 H 335.05 3.09928 -2.85522 0
M  V30 3637 H 333.774 2.82215 -1.64384 0
M  V30 3638 H 332.433 1.52279 -3.33477 0
M  V30 3639 H 332.081 3.98463 -3.06979 0
M  V30 3640 H 331.781 3.46353 -4.74672 0
M  V30 3641 H 333.305 4.30013 -4.33499 0
M  V30 3642 H 334.719 2.23445 -5.27963 0
M  V30 3643 H 333.116 1.62009 -5.77818 0
M  V30 3644 H 334.186 0.587041 -4.81333 0
M  V30 3645 N 335.529 1.53961 0.336706 0
M  V30 3646 C 336.492 1.81724 1.39675 0
M  V30 3647 C 337.492 0.688532 1.45313 0
M  V30 3648 O 338.682 0.956829 1.45569 0
M  V30 3649 C 335.814 1.96543 2.78538 0
M  V30 3650 H 337.007 2.76424 1.16318 0
M  V30 3651 H 334.56 1.45478 0.571474 0
M  V30 3652 H 335.295 1.0401 3.07168 0
M  V30 3653 H 335.08 2.78665 2.75841 0
M  V30 3654 H 336.57 2.19516 3.5525 0
M  V30 3655 N 337.007 -0.598083 1.45811 0
M  V30 3656 C 338.254 -1.35681 1.50323 0
M  V30 3657 C 338.582 -1.9393 0.148739 0
M  V30 3658 O 337.837 -1.76094 -0.853787 0
M  V30 3659 C 338.136 -2.51669 2.53766 0
M  V30 3660 C 337.802 -2.11508 3.98215 0
M  V30 3661 C 336.464 -2.0027 4.37545 0
M  V30 3662 C 338.816 -1.80308 4.89018 0
M  V30 3663 C 336.144 -1.56067 5.65562 0
M  V30 3664 C 338.496 -1.37589 6.17456 0
M  V30 3665 C 337.16 -1.24916 6.55708 0
M  V30 3666 H 336.43 -0.496492 0.550069 0
M  V30 3667 H 339.077 -0.675052 1.79207 0
M  V30 3668 H 337.382 -3.25225 2.18486 0
M  V30 3669 H 339.079 -3.09895 2.54492 0
M  V30 3670 H 335.669 -2.21185 3.67117 0
M  V30 3671 H 339.853 -1.87884 4.59362 0
M  V30 3672 H 335.109 -1.44886 5.93985 0
M  V30 3673 H 339.283 -1.12495 6.87254 0
M  V30 3674 H 336.91 -0.904386 7.54801 0
M  V30 3675 N 338.485 -1.33259 -0.841409 0
M  V30 3676 C 339.901 -1.12538 -1.13169 0
M  V30 3677 C 340.101 0.0854037 -2.01319 0
M  V30 3678 O 339.157 0.766417 -2.40587 0
M  V30 3679 C 340.47 -2.41156 -1.79623 0
M  V30 3680 C 342.018 -2.47038 -1.922 0
M  V30 3681 C 342.493 -3.7561 -2.6207 0
M  V30 3682 N 343.984 -3.76667 -2.69585 0
M  V30 3683 C 344.719 -4.72861 -3.2433 0
M  V30 3684 N 344.215 -5.79428 -3.79783 0
M  V30 3685 N 346.008 -4.6034 -3.22558 0
M  V30 3686 H 338.159 -2.10868 -0.254676 0
M  V30 3687 H 340.422 -0.931615 -0.175493 0
M  V30 3688 H 340.128 -3.29747 -1.22311 0
M  V30 3689 H 340.002 -2.53114 -2.79666 0
M  V30 3690 H 342.389 -1.58898 -2.48667 0
M  V30 3691 H 342.47 -2.39022 -0.911148 0
M  V30 3692 H 342.114 -4.64131 -2.06263 0
M  V30 3693 H 342.044 -3.80902 -3.63622 0
M  V30 3694 H 344.535 -2.99648 -2.30259 0
M  V30 3695 H 344.848 -6.48867 -4.19752 0
M  V30 3696 H 343.193 -5.83166 -3.78078 0
M  V30 3697 H 346.384 -3.76244 -2.78492 0
M  V30 3698 H 346.557 -5.35478 -3.64921 0
M  V30 3699 N 339.963 1.05934 -1.16686 0
M  V30 3700 C 341.191 1.8249 -0.974929 0
M  V30 3701 C 341.606 1.82679 0.476861 0
M  V30 3702 O 340.963 1.2486 1.33103 0
M  V30 3703 C 341.014 3.28943 -1.49929 0
M  V30 3704 O 340.735 3.28886 -2.89423 0
M  V30 3705 C 342.236 4.22215 -1.35089 0
M  V30 3706 H 339.456 0.575295 -0.345365 0
M  V30 3707 H 342 1.33631 -1.548 0
M  V30 3708 H 340.155 3.751 -0.968423 0
M  V30 3709 H 340.569 4.20493 -3.13506 0
M  V30 3710 H 342.043 5.22987 -1.76603 0
M  V30 3711 H 342.52 4.38195 -0.296935 0
M  V30 3712 H 343.126 3.81907 -1.87155 0
M  V30 3713 N 341.441 0.965919 1.2453 0
M  V30 3714 C 342.388 0.49402 2.25451 0
M  V30 3715 C 343.358 -0.45948 1.59618 0
M  V30 3716 O 344.543 -0.370238 1.87173 0
M  V30 3717 C 341.683 -0.211359 3.44452 0
M  V30 3718 C 340.796 0.7807 4.24887 0
M  V30 3719 C 339.931 0.0516105 5.31175 0
M  V30 3720 C 338.97 1.03385 6.03306 0
M  V30 3721 N 338.107 0.334887 7.01301 0
M  V30 3722 H 342.947 1.35946 2.65184 0
M  V30 3723 H 340.484 0.681515 1.3036 0
M  V30 3724 H 342.442 -0.637 4.12308 0
M  V30 3725 H 341.072 -1.04077 3.05562 0
M  V30 3726 H 340.124 1.32479 3.56586 0
M  V30 3727 H 341.436 1.52978 4.74762 0
M  V30 3728 H 340.59 -0.432114 6.05159 0
M  V30 3729 H 339.329 -0.730179 4.82203 0
M  V30 3730 H 338.334 1.52847 5.28127 0
M  V30 3731 H 339.559 1.81606 6.54367 0
M  V30 3732 H 337.505 -0.427959 6.54603 0
M  V30 3733 H 337.422 1.02287 7.49048 0
M  V30 3734 H 338.69 -0.126928 7.79397 0
M  V30 3735 N 342.919 -1.39368 0.735821 0
M  V30 3736 C 344.33 -1.83313 0.354015 0
M  V30 3737 C 344.681 -1.61461 -1.11466 0
M  V30 3738 O 343.806 -1.10621 -1.85989 0
M  V30 3739 C 344.401 -3.32781 0.635769 0
M  V30 3740 C 342.96 -3.75142 0.307448 0
M  V30 3741 C 342.107 -2.62358 0.897974 0
M  V30 3742 H 345.058 -1.28349 0.933398 0
M  V30 3743 H 345.079 -3.80388 -0.0921773 0
M  V30 3744 H 344.591 -3.48654 1.70476 0
M  V30 3745 H 342.692 -3.64857 -0.755674 0
M  V30 3746 H 342.805 -4.72532 0.790583 0
M  V30 3747 H 341.169 -2.52624 0.324551 0
M  V30 3748 H 341.952 -2.81036 1.97164 0
M  V30 3749 N 344.397 -0.483516 -1.5 0
M  V30 3750 C 345.36 0.292965 -2.2732 0
M  V30 3751 C 346.36 0.909499 -1.32608 0
M  V30 3752 O 347.55 0.776745 -1.55924 0
M  V30 3753 C 344.682 1.41854 -3.09984 0
M  V30 3754 H 345.875 -0.385289 -2.97415 0
M  V30 3755 H 343.428 -0.237942 -1.54478 0
M  V30 3756 H 344.163 2.13148 -2.44414 0
M  V30 3757 H 343.948 0.982114 -3.79601 0
M  V30 3758 H 345.438 1.96597 -3.68429 0
M  V30 3759 N 345.875 1.56104 -0.216619 0
M  V30 3760 C 346.838 2.18819 0.681962 0
M  V30 3761 C 347.838 1.14866 1.12528 0
M  V30 3762 O 349.028 1.40128 1.03488 0
M  V30 3763 C 346.16 2.80756 1.93362 0
M  V30 3764 H 347.353 2.99595 0.135254 0
M  V30 3765 H 344.906 1.56265 0.0330003 0
M  V30 3766 H 345.641 2.03837 2.52232 0
M  V30 3767 H 345.426 3.56876 1.62426 0
M  V30 3768 H 346.916 3.28844 2.57393 0
M  V30 3769 N 347.353 -0.0568162 1.57498 0
M  V30 3770 C 348.283 -1.06593 2.0775 0
M  V30 3771 C 349.264 -1.39448 0.974082 0
M  V30 3772 O 350.449 -1.48815 1.24771 0
M  V30 3773 C 347.579 -2.37509 2.5339 0
M  V30 3774 C 346.533 -2.1897 3.67745 0
M  V30 3775 C 345.859 -3.55402 3.99492 0
M  V30 3776 C 347.159 -1.59859 4.97235 0
M  V30 3777 H 348.853 -0.647706 2.9231 0
M  V30 3778 H 346.399 -0.310116 1.40621 0
M  V30 3779 H 348.352 -3.08409 2.87162 0
M  V30 3780 H 347.076 -2.8134 1.65878 0
M  V30 3781 H 345.735 -1.50508 3.3428 0
M  V30 3782 H 345.383 -3.9683 3.09088 0
M  V30 3783 H 345.083 -3.43831 4.76502 0
M  V30 3784 H 346.607 -4.27708 4.35773 0
M  V30 3785 H 348.021 -2.20642 5.29141 0
M  V30 3786 H 346.418 -1.58942 5.78669 0
M  V30 3787 H 347.488 -0.561506 4.81638 0
M  V30 3788 N 348.832 -1.54138 -0.328536 0
M  V30 3789 C 350.08 -1.71765 -1.06496 0
M  V30 3790 C 350.401 -0.49149 -1.88704 0
M  V30 3791 O 349.671 0.494539 -1.89555 0
M  V30 3792 H 348.251 -0.633295 -0.396164 0
M  V30 3793 H 350.913 -1.91429 -0.366176 0
M  V30 3794 H 350.009 -2.5951 -1.73381 0
M  V30 3795 N 350.31 0.590341 -1.46126 0
M  V30 3796 C 351.257 1.69994 -1.56111 0
M  V30 3797 C 352.227 1.61065 -0.405867 0
M  V30 3798 O 353.412 1.8039 -0.621613 0
M  V30 3799 C 350.552 3.08326 -1.55013 0
M  V30 3800 C 349.665 3.27936 -2.81215 0
M  V30 3801 C 348.8 4.56473 -2.71673 0
M  V30 3802 C 347.839 4.694 -3.92849 0
M  V30 3803 N 346.976 5.89254 -3.81738 0
M  V30 3804 H 351.816 1.60797 -2.50895 0
M  V30 3805 H 349.353 0.783799 -1.24479 0
M  V30 3806 H 351.311 3.88383 -1.52362 0
M  V30 3807 H 349.941 3.16439 -0.637667 0
M  V30 3808 H 348.993 2.41536 -2.93879 0
M  V30 3809 H 350.305 3.33357 -3.71045 0
M  V30 3810 H 349.459 5.44748 -2.67085 0
M  V30 3811 H 348.198 4.53477 -1.7947 0
M  V30 3812 H 347.203 3.79544 -3.97777 0
M  V30 3813 H 348.428 4.7418 -4.86138 0
M  V30 3814 H 346.374 5.87271 -2.92317 0
M  V30 3815 H 346.291 5.95911 -4.65217 0
M  V30 3816 H 347.559 6.79981 -3.81112 0
M  V30 3817 N 351.788 1.33704 0.83433 0
M  V30 3818 C 353.065 1.16011 1.57483 0
M  V30 3819 C 353.445 -0.27176 2.09343 0
M  V30 3820 O 352.793 -1.27146 1.89858 0
M  V30 3821 C 353.003 2.20507 2.70514 0
M  V30 3822 C 354.351 2.54898 3.39577 0
M  V30 3823 O 355.375 2.19209 2.80759 0
M  V30 3824 O 354.234 3.16158 4.45765 0
M  V30 3825 H 351.328 0.448992 0.694503 0
M  V30 3826 H 353.874 1.453 0.876691 0
M  V30 3827 H 352.646 3.16667 2.29865 0
M  V30 3828 H 352.269 1.92329 3.47987 0
M  V30 3829 N 353.266 -1.05314 1.17247 0
M  V30 3830 C 354.494 -1.81971 0.984593 0
M  V30 3831 C 354.909 -1.82929 -0.467166 0
M  V30 3832 O 354.266 -1.25564 -1.32438 0
M  V30 3833 C 354.317 -3.28143 1.51672 0
M  V30 3834 O 354.038 -3.27347 2.91163 0
M  V30 3835 C 355.539 -4.21493 1.37326 0
M  V30 3836 H 352.759 -0.573455 0.348411 0
M  V30 3837 H 355.303 -1.32808 1.55506 0
M  V30 3838 H 353.458 -3.74582 0.988302 0
M  V30 3839 H 353.872 -4.18824 3.15732 0
M  V30 3840 H 355.346 -5.22043 1.79375 0
M  V30 3841 H 355.823 -4.38031 0.320169 0
M  V30 3842 H 356.429 -3.80909 1.89178 0
M  V30 3843 N 354.744 -0.972509 -1.24016 0
M  V30 3844 C 355.993 -0.632603 -1.91523 0
M  V30 3845 C 356.306 0.836641 -1.76804 0
M  V30 3846 O 357.512 1.28728 -2.39043 0
M  V30 3847 C 355.968 -1.08082 -3.43287 0
M  V30 3848 C 355.576 -2.57386 -3.66683 0
M  V30 3849 C 357.32 -0.814288 -4.16617 0
M  V30 3850 C 355.227 -2.95915 -5.12043 0
M  V30 3851 H 354.157 -0.232898 -0.717129 0
M  V30 3852 H 356.808 -1.17936 -1.40582 0
M  V30 3853 H 355.19 -0.462339 -3.93292 0
M  V30 3854 H 356.364 -3.24405 -3.27258 0
M  V30 3855 H 354.679 -2.81701 -3.06649 0
M  V30 3856 H 357.276 -1.0781 -5.23718 0
M  V30 3857 H 357.619 0.24955 -4.15551 0
M  V30 3858 H 358.152 -1.39397 -3.72577 0
M  V30 3859 H 354.891 -4.0139 -5.18234 0
M  V30 3860 H 354.411 -2.33584 -5.52448 0
M  V30 3861 H 356.09 -2.86086 -5.80314 0
M  V30 3862 N 356.222 1.38976 -0.743202 0
M  V30 3863 C 357.633 1.83123 -0.363732 0
M  V30 3864 C 357.984 1.6205 1.10609 0
M  V30 3865 O 357.109 1.11606 1.854 0
M  V30 3866 C 357.704 3.32439 -0.653408 0
M  V30 3867 C 356.263 3.74974 -0.327338 0
M  V30 3868 C 355.41 2.61878 -0.911875 0
M  V30 3869 H 358.361 1.27852 -0.940191 0
M  V30 3870 H 358.382 3.80432 0.0720031 0
M  V30 3871 H 357.894 3.47745 -1.72323 0
M  V30 3872 H 355.995 3.65252 0.736314 0
M  V30 3873 H 356.108 4.72106 -0.815631 0
M  V30 3874 H 354.472 2.52448 -0.337944 0
M  V30 3875 H 355.255 2.79987 -1.98651 0
M  V30 3876 N 357.7 0.491464 1.49741 0
M  V30 3877 C 358.946 -0.0485431 2.03342 0
M  V30 3878 C 359.301 -1.35566 1.36527 0
M  V30 3879 O 358.594 -1.85262 0.488729 0
M  V30 3880 C 358.788 -0.267329 3.56399 0
M  V30 3881 C 358.617 1.01703 4.38049 0
M  V30 3882 C 357.387 1.56614 4.80417 0
M  V30 3883 C 359.585 1.91782 4.77204 0
M  V30 3884 N 357.567 2.7974 5.4646 0
M  V30 3885 C 358.938 2.99489 5.42868 0
M  V30 3886 C 360.993 1.92575 4.5915 0
M  V30 3887 C 359.696 4.08005 5.92389 0
M  V30 3888 C 361.722 3.0006 5.09626 0
M  V30 3889 C 361.084 4.06485 5.75282 0
M  V30 3890 H 357.183 0.0227779 0.781668 0
M  V30 3891 H 359.767 0.664204 1.8302 0
M  V30 3892 H 357.938 -0.949126 3.76625 0
M  V30 3893 H 359.67 -0.803492 3.96644 0
M  V30 3894 H 356.425 1.11256 4.60347 0
M  V30 3895 H 356.849 3.42323 5.84075 0
M  V30 3896 H 361.491 1.11605 4.07804 0
M  V30 3897 H 359.209 4.89779 6.42761 0
M  V30 3898 H 362.795 3.01681 4.97473 0
M  V30 3899 H 361.675 4.88287 6.13633 0
M  V30 3900 N 359.178 -1.55987 0.224894 0
M  V30 3901 C 360.108 -2.23426 -0.678457 0
M  V30 3902 C 361.089 -1.20709 -1.19847 0
M  V30 3903 O 362.274 -1.49304 -1.24186 0
M  V30 3904 C 359.404 -2.91676 -1.88527 0
M  V30 3905 C 358.358 -4.00893 -1.49896 0
M  V30 3906 C 357.684 -4.56455 -2.78483 0
M  V30 3907 C 358.984 -5.17769 -0.686461 0
M  V30 3908 H 360.678 -2.99175 -0.116173 0
M  V30 3909 H 358.224 -1.43897 -0.054436 0
M  V30 3910 H 360.177 -3.37547 -2.5227 0
M  V30 3911 H 358.901 -2.1338 -2.47258 0
M  V30 3912 H 357.56 -3.55758 -0.884985 0
M  V30 3913 H 357.208 -3.74886 -3.35365 0
M  V30 3914 H 356.908 -5.30169 -2.53368 0
M  V30 3915 H 358.432 -5.05047 -3.43162 0
M  V30 3916 H 359.846 -5.60001 -1.22767 0
M  V30 3917 H 358.243 -5.97735 -0.532259 0
M  V30 3918 H 359.313 -4.83932 0.306196 0
M  V30 3919 N 360.656 0.0484629 -1.57525 0
M  V30 3920 C 361.904 0.741657 -1.88 0
M  V30 3921 C 362.225 1.76918 -0.820054 0
M  V30 3922 O 361.495 1.95335 0.148661 0
M  V30 3923 H 360.075 0.276908 -0.69378 0
M  V30 3924 H 362.737 0.019013 -1.94891 0
M  V30 3925 H 361.833 1.24336 -2.86264 0
M  V30 3926 N 362.134 1.5431 0.320358 0
M  V30 3927 C 363.084 1.803 1.39556 0
M  V30 3928 C 364.068 0.659166 1.46778 0
M  V30 3929 O 365.26 0.91926 1.51257 0
M  V30 3930 C 362.389 2.03665 2.76361 0
M  V30 3931 C 361.475 3.24178 2.73439 0
M  V30 3932 N 361.866 4.4516 2.40137 0
M  V30 3933 C 360.164 3.25816 3.04565 0
M  V30 3934 C 360.865 5.27109 2.4603 0
M  V30 3935 N 359.841 4.64368 2.82601 0
M  V30 3936 H 363.643 2.71416 1.12742 0
M  V30 3937 H 361.157 1.53548 0.528856 0
M  V30 3938 H 363.154 2.20425 3.53862 0
M  V30 3939 H 361.814 1.13805 3.04103 0
M  V30 3940 H 362.825 4.72104 2.12927 0
M  V30 3941 H 359.502 2.46001 3.37328 0
M  V30 3942 H 360.892 6.33728 2.23246 0
M  V30 3943 N 363.613 -0.582584 1.46437 0
M  V30 3944 C 364.543 -1.70187 1.59871 0
M  V30 3945 C 365.524 -1.64066 0.449042 0
M  V30 3946 O 366.709 -1.82081 0.6753 0
M  V30 3947 C 363.839 -3.08827 1.58881 0
M  V30 3948 C 362.793 -3.29779 2.72819 0
M  V30 3949 C 362.119 -4.68947 2.5689 0
M  V30 3950 C 363.419 -3.17601 4.1464 0
M  V30 3951 H 365.113 -1.592 2.53566 0
M  V30 3952 H 362.659 -0.764472 1.22032 0
M  V30 3953 H 364.612 -3.86951 1.66873 0
M  V30 3954 H 363.336 -3.20713 0.617306 0
M  V30 3955 H 361.995 -2.54054 2.64296 0
M  V30 3956 H 361.643 -4.77599 1.57823 0
M  V30 3957 H 361.343 -4.83919 3.33312 0
M  V30 3958 H 362.867 -5.4924 2.66773 0
M  V30 3959 H 364.281 -3.8557 4.24274 0
M  V30 3960 H 362.678 -3.44094 4.9165 0
M  V30 3961 H 363.748 -2.14681 4.34788 0
M  V30 3962 N 365.091 -1.34144 -0.827227 0
M  V30 3963 C 366.021 -1.28005 -1.95287 0
M  V30 3964 C 367.002 -0.158321 -1.69362 0
M  V30 3965 O 368.187 -0.349987 -1.9102 0
M  V30 3966 C 365.317 -1.03036 -3.31664 0
M  V30 3967 C 364.271 -2.11628 -3.72019 0
M  V30 3968 C 363.597 -1.71854 -5.0633 0
M  V30 3969 C 364.897 -3.53417 -3.8457 0
M  V30 3970 H 366.591 -2.22187 -2.00682 0
M  V30 3971 H 364.137 -1.0696 -0.964135 0
M  V30 3972 H 366.09 -0.973863 -4.09993 0
M  V30 3973 H 364.814 -0.0529391 -3.26557 0
M  V30 3974 H 363.473 -2.16339 -2.95961 0
M  V30 3975 H 363.121 -0.727841 -4.97706 0
M  V30 3976 H 362.821 -2.44531 -5.34302 0
M  V30 3977 H 364.345 -1.67692 -5.87122 0
M  V30 3978 H 365.759 -3.51142 -4.5318 0
M  V30 3979 H 364.156 -4.24679 -4.2399 0
M  V30 3980 H 365.226 -3.91072 -2.86689 0
M  V30 3981 N 366.569 1.04691 -1.17803 0
M  V30 3982 C 367.815 1.78045 -0.970969 0
M  V30 3983 C 368.148 1.87686 0.498751 0
M  V30 3984 O 367.423 1.38035 1.37027 0
M  V30 3985 C 367.706 3.2166 -1.61884 0
M  V30 3986 C 367.559 3.20001 -3.161 0
M  V30 3987 C 368.878 4.1962 -1.3269 0
M  V30 3988 H 365.997 0.64633 -0.354155 0
M  V30 3989 H 368.639 1.22333 -1.45378 0
M  V30 3990 H 366.789 3.69232 -1.20831 0
M  V30 3991 H 368.461 2.80467 -3.66246 0
M  V30 3992 H 366.704 2.58203 -3.48588 0
M  V30 3993 H 367.375 4.21386 -3.56564 0
M  V30 3994 H 369.851 3.80567 -1.68249 0
M  V30 3995 H 368.727 5.18339 -1.80599 0
M  V30 3996 H 368.988 4.414 -0.248622 0
M  V30 3997 N 368.047 0.979072 1.23499 0
M  V30 3998 C 369.295 0.645941 1.91499 0
M  V30 3999 C 369.616 -0.822948 1.76784 0
M  V30 4000 O 368.886 -1.58854 1.14639 0
M  V30 4001 H 367.466 0.235919 0.708767 0
M  V30 4002 H 370.128 1.2426 1.50152 0
M  V30 4003 H 369.224 0.896411 2.9895 0
M  V30 4004 N 369.525 -1.3858 0.750561 0
M  V30 4005 C 370.455 -2.33102 0.136237 0
M  V30 4006 C 371.436 -1.54713 -0.706965 0
M  V30 4007 O 372.621 -1.83043 -0.648769 0
M  V30 4008 C 369.751 -3.38882 -0.760017 0
M  V30 4009 C 368.705 -4.27995 -0.0197785 0
M  V30 4010 C 368.031 -5.24605 -1.03408 0
M  V30 4011 C 369.331 -5.09554 1.14684 0
M  V30 4012 H 371.025 -2.84726 0.925822 0
M  V30 4013 H 368.571 -1.36898 0.446654 0
M  V30 4014 H 370.524 -4.0397 -1.19943 0
M  V30 4015 H 369.248 -2.85734 -1.58189 0
M  V30 4016 H 367.907 -3.64409 0.400184 0
M  V30 4017 H 367.555 -4.67746 -1.84994 0
M  V30 4018 H 367.255 -5.85081 -0.543464 0
M  V30 4019 H 368.779 -5.9257 -1.47288 0
M  V30 4020 H 370.193 -5.67899 0.785118 0
M  V30 4021 H 368.59 -5.7925 1.56812 0
M  V30 4022 H 369.66 -4.4347 1.96118 0
M  V30 4023 N 371.003 -0.499398 -1.49478 0
M  V30 4024 C 372.228 0.044722 -2.07352 0
M  V30 4025 C 372.653 1.30207 -1.35749 0
M  V30 4026 O 372.011 1.76516 -0.413732 0
M  V30 4027 C 372.059 0.283013 -3.59488 0
M  V30 4028 O 371.163 1.35804 -3.89398 0
M  V30 4029 H 370.504 -0.0255147 -0.66351 0
M  V30 4030 H 373.034 -0.698561 -1.92305 0
M  V30 4031 H 373.044 0.515007 -4.04737 0
M  V30 4032 H 371.719 -0.635636 -4.11014 0
M  V30 4033 H 370.296 1.11113 -3.55961 0
M  V30 4034 N 372.481 1.55866 -0.233164 0
M  V30 4035 C 373.729 1.9821 0.394593 0
M  V30 4036 C 374.05 1.12234 1.59463 0
M  V30 4037 O 373.32 0.201981 1.94856 0
M  V30 4038 H 371.9 0.732034 0.148778 0
M  V30 4039 H 374.562 1.92107 -0.32876 0
M  V30 4040 H 373.658 3.03845 0.713063 0
M  V30 4041 N 373.959 -0.0401083 1.57549 0
M  V30 4042 C 374.922 -1.02871 2.04817 0
M  V30 4043 C 375.922 -1.29708 0.950388 0
M  V30 4044 O 377.112 -1.24897 1.21435 0
M  V30 4045 C 374.244 -2.36443 2.45576 0
M  V30 4046 H 375.437 -0.620631 2.93408 0
M  V30 4047 H 372.99 -0.286667 1.53649 0
M  V30 4048 H 373.725 -2.82021 1.60108 0
M  V30 4049 H 373.51 -2.18296 3.25713 0
M  V30 4050 H 375 -3.07441 2.82612 0
M  V30 4051 N 375.437 -1.54477 -0.31217 0
M  V30 4052 C 376.684 -1.73227 -1.04875 0
M  V30 4053 C 377.012 -0.512042 -1.87639 0
M  V30 4054 O 376.267 0.506131 -1.89042 0
M  V30 4055 C 376.566 -2.967 -1.99258 0
M  V30 4056 C 376.232 -4.30974 -1.32559 0
M  V30 4057 C 374.894 -4.67477 -1.141 0
M  V30 4058 C 377.246 -5.14258 -0.847835 0
M  V30 4059 C 374.574 -5.84852 -0.465326 0
M  V30 4060 C 376.926 -6.32327 -0.185931 0
M  V30 4061 C 375.59 -6.67499 0.0107077 0
M  V30 4062 H 374.86 -0.633881 -0.383765 0
M  V30 4063 H 377.507 -1.88727 -0.324731 0
M  V30 4064 H 375.812 -2.75935 -2.7815 0
M  V30 4065 H 377.509 -3.08401 -2.563 0
M  V30 4066 H 374.099 -4.02262 -1.4793 0
M  V30 4067 H 378.283 -4.86565 -0.978192 0
M  V30 4068 H 373.539 -6.10654 -0.301883 0
M  V30 4069 H 377.713 -6.96135 0.192211 0
M  V30 4070 H 375.34 -7.58306 0.536287 0
M  V30 4071 N 376.915 0.57481 -1.46744 0
M  V30 4072 C 378.163 1.33009 -1.52161 0
M  V30 4073 C 378.484 1.94185 -0.178092 0
M  V30 4074 O 377.754 1.7899 0.796196 0
M  V30 4075 H 376.334 0.493873 -0.560445 0
M  V30 4076 H 378.996 0.672589 -1.82927 0
M  V30 4077 H 378.092 2.13273 -2.27862 0
M  V30 4078 N 378.394 1.34581 0.820102 0
M  V30 4079 C 379.641 1.27096 1.57648 0
M  V30 4080 C 379.969 -0.158317 1.93855 0
M  V30 4081 O 379.224 -1.12028 1.60463 0
M  V30 4082 C 379.523 2.10997 2.8847 0
M  V30 4083 C 379.189 3.59966 2.71543 0
M  V30 4084 C 377.851 4.00575 2.66634 0
M  V30 4085 C 380.203 4.54548 2.55021 0
M  V30 4086 C 377.531 5.33953 2.43128 0
M  V30 4087 C 379.883 5.88109 2.33047 0
M  V30 4088 C 378.547 6.27878 2.26552 0
M  V30 4089 H 377.817 0.465078 0.576874 0
M  V30 4090 H 380.464 1.6635 0.948671 0
M  V30 4091 H 378.769 1.6458 3.55557 0
M  V30 4092 H 380.466 2.0255 3.46084 0
M  V30 4093 H 377.056 3.27733 2.76205 0
M  V30 4094 H 381.24 4.24069 2.57835 0
M  V30 4095 H 376.496 5.63781 2.3656 0
M  V30 4096 H 380.67 6.60985 2.19251 0
M  V30 4097 H 378.297 7.31162 2.081 0
M  V30 4098 N 379.872 -1.04064 1.18357 0
M  V30 4099 C 381.121 -1.76662 0.973313 0
M  V30 4100 C 381.434 -1.89154 -0.497991 0
M  V30 4101 O 382.64 -2.58606 -0.826762 0
M  V30 4102 C 381.096 -3.17624 1.69242 0
M  V30 4103 C 380.704 -3.13225 3.20303 0
M  V30 4104 C 382.448 -3.946 1.56497 0
M  V30 4105 C 380.355 -4.49046 3.84853 0
M  V30 4106 H 379.285 -0.662214 0.36054 0
M  V30 4107 H 381.936 -1.16553 1.41731 0
M  V30 4108 H 380.318 -3.78129 1.1762 0
M  V30 4109 H 381.492 -2.62172 3.78949 0
M  V30 4110 H 379.807 -2.49749 3.33189 0
M  V30 4111 H 382.404 -4.95042 2.02084 0
M  V30 4112 H 382.747 -4.13074 0.517243 0
M  V30 4113 H 383.28 -3.4067 2.05399 0
M  V30 4114 H 380.019 -4.35777 4.89672 0
M  V30 4115 H 379.539 -5.00203 3.30994 0
M  V30 4116 H 381.218 -5.17961 3.87718 0
M  V30 4117 N 381.35 -0.985608 -1.22978 0
M  V30 4118 C 382.599 -0.652881 -1.90841 0
M  V30 4119 C 382.912 0.817842 -1.77681 0
M  V30 4120 O 384.118 1.26185 -2.40395 0
M  V30 4121 C 382.574 -1.11717 -3.42122 0
M  V30 4122 C 382.182 -2.6126 -3.63933 0
M  V30 4123 C 383.926 -0.85843 -4.1573 0
M  V30 4124 C 381.833 -3.0133 -5.08876 0
M  V30 4125 H 380.763 -0.240491 -0.714619 0
M  V30 4126 H 383.414 -1.1942 -1.39324 0
M  V30 4127 H 381.796 -0.504027 -3.92779 0
M  V30 4128 H 382.97 -3.27858 -3.23799 0
M  V30 4129 H 381.285 -2.84937 -3.03644 0
M  V30 4130 H 383.882 -1.13359 -5.22546 0
M  V30 4131 H 384.225 0.205461 -4.15793 0
M  V30 4132 H 384.758 -1.43341 -3.71077 0
M  V30 4133 H 381.497 -4.06864 -5.13947 0
M  V30 4134 H 381.017 -2.3943 -5.49939 0
M  V30 4135 H 382.696 -2.92224 -5.77247 0
M  V30 4136 N 382.828 1.3818 -0.7579 0
M  V30 4137 C 383.758 2.33027 -0.148597 0
M  V30 4138 C 384.739 1.55085 0.69875 0
M  V30 4139 O 385.924 1.83384 0.639053 0
M  V30 4140 C 383.054 3.3928 0.742034 0
M  V30 4141 C 382.008 4.28 -0.00291946 0
M  V30 4142 C 381.334 5.25146 1.00625 0
M  V30 4143 C 382.634 5.08938 -1.17385 0
M  V30 4144 H 384.328 2.84231 -0.940909 0
M  V30 4145 H 381.874 1.36659 -0.453908 0
M  V30 4146 H 383.827 4.046 1.17799 0
M  V30 4147 H 382.551 2.86569 1.56671 0
M  V30 4148 H 381.21 3.64192 -0.419504 0
M  V30 4149 H 380.858 4.68721 1.8251 0
M  V30 4150 H 380.558 5.85361 0.512428 0
M  V30 4151 H 382.082 5.93342 1.44143 0
M  V30 4152 H 383.496 5.67474 -0.815224 0
M  V30 4153 H 381.893 5.7841 -1.59882 0
M  V30 4154 H 382.963 4.42424 -1.98468 0
M  V30 4155 N 384.306 0.507319 1.49211 0
M  V30 4156 C 385.552 -0.0350047 2.0277 0
M  V30 4157 C 385.885 -1.3606 1.38569 0
M  V30 4158 O 385.16 -1.87321 0.523542 0
M  V30 4159 C 385.443 -0.180916 3.59645 0
M  V30 4160 C 385.296 1.16825 4.34364 0
M  V30 4161 C 386.615 -0.918558 4.30407 0
M  V30 4162 H 383.734 -0.0112473 0.736914 0
M  V30 4163 H 386.376 0.659956 1.7817 0
M  V30 4164 H 384.526 -0.772826 3.80736 0
M  V30 4165 H 386.198 1.79952 4.24753 0
M  V30 4166 H 384.441 1.75594 3.96673 0
M  V30 4167 H 385.112 1.01939 5.42506 0
M  V30 4168 H 387.588 -0.41649 4.1401 0
M  V30 4169 H 386.464 -0.989505 5.39907 0
M  V30 4170 H 386.725 -1.96373 3.96093 0
M  V30 4171 N 385.784 -1.5574 0.241426 0
M  V30 4172 C 387.014 -2.02913 -0.38857 0
M  V30 4173 C 387.422 -1.12014 -1.52478 0
M  V30 4174 O 386.765 -0.125903 -1.83268 0
M  V30 4175 C 386.827 -3.4636 -0.963075 0
M  V30 4176 C 386.491 -4.56982 0.0401916 0
M  V30 4177 C 387.488 -5.12941 0.847766 0
M  V30 4178 C 385.173 -5.0203 0.164699 0
M  V30 4179 C 387.167 -6.12437 1.76636 0
M  V30 4180 C 384.854 -6.01358 1.0868 0
M  V30 4181 C 385.852 -6.5644 1.88616 0
M  V30 4182 O 385.54 -7.53831 2.79273 0
M  V30 4183 H 385.272 -0.668983 -0.0971452 0
M  V30 4184 H 387.826 -2.02198 0.361248 0
M  V30 4185 H 386.056 -3.44206 -1.76235 0
M  V30 4186 H 387.745 -3.77065 -1.50257 0
M  V30 4187 H 388.511 -4.78974 0.762133 0
M  V30 4188 H 384.39 -4.58824 -0.447411 0
M  V30 4189 H 387.934 -6.55355 2.39071 0
M  V30 4190 H 383.831 -6.34746 1.17338 0
M  V30 4191 H 384.599 -7.71428 2.73572 0
M  V30 4192 N 387.262 0.0317525 -1.57568 0
M  V30 4193 C 388.192 1.03274 -2.0942 0
M  V30 4194 C 389.173 1.3788 -0.996143 0
M  V30 4195 O 390.358 1.46811 -1.27122 0
M  V30 4196 C 387.488 2.33448 -2.57137 0
M  V30 4197 C 386.442 2.13091 -3.71182 0
M  V30 4198 C 385.768 3.49001 -4.05095 0
M  V30 4199 C 387.068 1.51928 -4.99715 0
M  V30 4200 H 388.762 0.60112 -2.93303 0
M  V30 4201 H 386.308 0.287705 -1.41097 0
M  V30 4202 H 388.261 3.03802 -2.92032 0
M  V30 4203 H 386.985 2.78665 -1.70333 0
M  V30 4204 H 385.644 1.45171 -3.36632 0
M  V30 4205 H 385.292 3.91862 -3.15362 0
M  V30 4206 H 384.992 3.36207 -4.81911 0
M  V30 4207 H 386.516 4.20721 -4.42522 0
M  V30 4208 H 387.93 2.12196 -5.32584 0
M  V30 4209 H 386.327 1.49716 -5.81124 0
M  V30 4210 H 387.397 0.484811 -4.8247 0
M  V30 4211 N 388.74 1.54641 0.303973 0
M  V30 4212 C 389.67 1.88386 1.3796 0
M  V30 4213 C 390.651 0.742485 1.5304 0
M  V30 4214 O 391.836 0.997959 1.66597 0
M  V30 4215 C 388.966 2.12854 2.74427 0
M  V30 4216 C 387.92 3.28702 2.74115 0
M  V30 4217 C 387.246 3.38582 4.13844 0
M  V30 4218 C 388.546 4.65881 2.3612 0
M  V30 4219 H 390.24 2.78474 1.09966 0
M  V30 4220 H 387.786 1.33988 0.527556 0
M  V30 4221 H 389.739 2.35047 3.49758 0
M  V30 4222 H 388.463 1.19535 3.03939 0
M  V30 4223 H 387.122 3.06428 2.0124 0
M  V30 4224 H 386.77 2.42784 4.40528 0
M  V30 4225 H 386.47 4.16453 4.14537 0
M  V30 4226 H 387.994 3.63031 4.90959 0
M  V30 4227 H 389.408 4.87823 3.01167 0
M  V30 4228 H 387.805 5.46444 2.48031 0
M  V30 4229 H 388.875 4.66799 1.3125 0
M  V30 4230 N 390.218 -0.567019 1.47046 0
M  V30 4231 C 391.467 -1.32091 1.5243 0
M  V30 4232 C 391.78 -1.94704 0.187021 0
M  V30 4233 O 392.986 -2.7124 0.118771 0
M  V30 4234 C 391.442 -2.39479 2.68659 0
M  V30 4235 C 391.05 -1.831 4.08874 0
M  V30 4236 C 392.794 -3.16111 2.83327 0
M  V30 4237 C 390.701 -2.8821 5.16419 0
M  V30 4238 H 389.631 -0.496629 0.56734 0
M  V30 4239 H 392.282 -0.603354 1.73297 0
M  V30 4240 H 390.664 -3.14105 2.41152 0
M  V30 4241 H 391.838 -1.14913 4.46242 0
M  V30 4242 H 390.153 -1.19085 3.99008 0
M  V30 4243 H 392.75 -3.94585 3.60842 0
M  V30 4244 H 393.093 -3.69686 1.91411 0
M  V30 4245 H 393.626 -2.48595 3.10556 0
M  V30 4246 H 390.365 -2.39504 6.10179 0
M  V30 4247 H 389.885 -3.54839 4.8358 0
M  V30 4248 H 391.564 -3.51881 5.42945 0
M  V30 4249 N 391.696 -1.35014 -0.812953 0
M  V30 4250 C 392.644 -1.27435 -1.94585 0
M  V30 4251 C 393.638 -0.170494 -1.6854 0
M  V30 4252 O 394.844 -0.336085 -1.76835 0
M  V30 4253 H 391.219 -0.396144 -0.639198 0
M  V30 4254 H 393.19 -2.23158 -1.98098 0
M  V30 4255 C 391.939 -1.05677 -3.31252 0
M  V30 4256 H 391.262 -1.89853 -3.51846 0
M  V30 4257 H 392.702 -1.04413 -4.10943 0
M  V30 4258 C 391.161 0.239615 -3.36047 0
M  V30 4259 O 391.691 1.23759 -3.8216 0
M  V30 4260 N 389.897 0.276186 -2.89285 0
M  V30 4261 H 389.444 -0.53653 -2.51951 0
M  V30 4262 H 389.402 1.14332 -2.92875 0
M  V30 4263 N 393.175 1.03435 -1.18907 0
M  V30 4264 C 394.415 1.78302 -0.999391 0
M  V30 4265 C 394.779 1.86353 0.462219 0
M  V30 4266 O 395.98 2.57489 0.771543 0
M  V30 4267 C 394.251 3.17362 -1.64365 0
M  V30 4268 S 395.81 4.08488 -1.6026 0
M  V30 4269 H 392.628 0.613861 -0.358742 0
M  V30 4270 H 395.23 1.23979 -1.51161 0
M  V30 4271 H 393.934 3.09116 -2.69955 0
M  V30 4272 H 393.465 3.76762 -1.13199 0
M  V30 4273 H 395.48 4.92274 -0.622932 0
M  V30 4274 N 394.653 0.992116 1.22453 0
M  V30 4275 C 396.069 0.702713 1.43297 0
M  V30 4276 C 396.269 -0.726909 1.87932 0
M  V30 4277 O 395.325 -1.49792 2.0327 0
M  V30 4278 C 396.638 1.70762 2.47509 0
M  V30 4279 C 398.186 1.72298 2.61309 0
M  V30 4280 C 398.661 2.71649 3.68742 0
M  V30 4281 N 400.152 2.70239 3.76199 0
M  V30 4282 C 400.887 3.43778 4.58917 0
M  V30 4283 N 400.383 4.26914 5.45633 0
M  V30 4284 N 402.176 3.32487 4.5322 0
M  V30 4285 H 394.327 1.91543 0.917871 0
M  V30 4286 H 396.59 0.826031 0.465162 0
M  V30 4287 H 396.296 2.73059 2.21657 0
M  V30 4288 H 396.17 1.49985 3.46099 0
M  V30 4289 H 398.557 0.706989 2.86506 0
M  V30 4290 H 398.638 1.97143 1.62997 0
M  V30 4291 H 398.282 3.73397 3.44292 0
M  V30 4292 H 398.212 2.44074 4.66622 0
M  V30 4293 H 400.703 2.09912 3.14237 0
M  V30 4294 H 401.016 4.79855 6.05771 0
M  V30 4295 H 399.361 4.31002 5.45218 0
M  V30 4296 H 402.552 2.6698 3.84499 0
M  V30 4297 H 402.725 3.90058 5.17454 0
M  V30 4298 N 396.131 -1.37776 0.765217 0
M  V30 4299 C 397.079 -2.32209 0.134798 0
M  V30 4300 C 398.073 -1.54607 -0.692315 0
M  V30 4301 O 399.279 -1.70052 -0.590109 0
M  V30 4302 H 395.654 -0.751591 0.0248005 0
M  V30 4303 H 397.625 -2.8297 0.947119 0
M  V30 4304 C 396.374 -3.39841 -0.735063 0
M  V30 4305 H 395.697 -3.99654 -0.107991 0
M  V30 4306 H 397.137 -4.08296 -1.14326 0
M  V30 4307 C 395.596 -2.79378 -1.88281 0
M  V30 4308 O 396.126 -2.69608 -2.97783 0
M  V30 4309 N 394.332 -2.37016 -1.68142 0
M  V30 4310 H 393.879 -2.45162 -0.790772 0
M  V30 4311 H 393.837 -1.96905 -2.45104 0
M  V30 4312 N 397.609 -0.515225 -1.4894 0
M  V30 4313 C 398.837 0.0206034 -2.0689 0
M  V30 4314 C 399.252 1.29514 -1.37374 0
M  V30 4315 O 398.609 1.76698 -0.456529 0
M  V30 4316 C 398.66 0.26351 -3.60538 0
M  V30 4317 O 398.381 -0.960517 -4.27441 0
M  V30 4318 C 399.882 0.841383 -4.35242 0
M  V30 4319 H 397.102 -0.0268608 -0.670462 0
M  V30 4320 H 399.646 -0.716651 -1.91532 0
M  V30 4321 H 397.801 0.950777 -3.75552 0
M  V30 4322 H 398.215 -0.73212 -5.19365 0
M  V30 4323 H 399.689 0.96085 -5.43573 0
M  V30 4324 H 400.166 1.8427 -3.98674 0
M  V30 4325 H 400.772 0.191143 -4.2487 0
M  V30 4326 N 399.087 1.5561 -0.249682 0
M  V30 4327 C 400.335 1.98618 0.373548 0
M  V30 4328 C 400.656 1.13919 1.58264 0
M  V30 4329 O 399.926 0.222637 1.94631 0
M  V30 4330 H 398.506 0.733571 0.141006 0
M  V30 4331 H 401.168 1.91748 -0.349117 0
M  V30 4332 H 400.264 3.04584 0.680796 0
M  V30 4333 N 400.565 -0.0233959 1.57583 0
M  V30 4334 C 401.976 -0.56927 1.77809 0
M  V30 4335 C 402.327 -1.75284 0.881472 0
M  V30 4336 O 401.452 -2.1626 0.0777805 0
M  V30 4337 C 402.047 -1.03949 3.22459 0
M  V30 4338 C 400.606 -1.53084 3.43864 0
M  V30 4339 C 399.753 -0.471454 2.73263 0
M  V30 4340 H 402.704 0.202825 1.57399 0
M  V30 4341 H 402.725 -1.90661 3.29285 0
M  V30 4342 H 402.237 -0.177865 3.87692 0
M  V30 4343 H 400.338 -2.41414 2.83814 0
M  V30 4344 H 400.451 -1.57443 4.52491 0
M  V30 4345 H 398.815 -0.927788 2.37201 0
M  V30 4346 H 399.598 0.380808 3.41181 0
M  V30 4347 N 402.043 -1.548 -0.295768 0
M  V30 4348 C 403.289 -1.75517 -1.02789 0
M  V30 4349 C 403.644 -0.537266 -1.84746 0
M  V30 4350 O 402.937 0.470299 -1.85738 0
M  V30 4351 C 403.131 -2.98797 -1.961 0
M  V30 4352 C 402.96 -4.3246 -1.23321 0
M  V30 4353 C 401.73 -4.96131 -0.95822 0
M  V30 4354 C 403.928 -5.10365 -0.635024 0
M  V30 4355 N 401.91 -6.1357 -0.201257 0
M  V30 4356 C 403.281 -6.19999 -0.0110937 0
M  V30 4357 C 405.336 -4.94957 -0.540594 0
M  V30 4358 C 404.039 -7.15904 0.698136 0
M  V30 4359 C 406.065 -5.91197 0.154992 0
M  V30 4360 C 405.427 -7.00203 0.767752 0
M  V30 4361 H 401.526 -0.694786 -0.358882 0
M  V30 4362 H 404.11 -1.92281 -0.305943 0
M  V30 4363 H 402.281 -2.83448 -2.6554 0
M  V30 4364 H 404.013 -3.08017 -2.62502 0
M  V30 4365 H 400.768 -4.56595 -1.25771 0
M  V30 4366 H 401.192 -6.76802 0.16389 0
M  V30 4367 H 405.834 -4.10803 -1.00003 0
M  V30 4368 H 403.552 -7.99595 1.16933 0
M  V30 4369 H 407.138 -5.81353 0.228069 0
M  V30 4370 H 406.018 -7.73393 1.29743 0
M  V30 4371 N 403.521 0.559213 -1.47345 0
M  V30 4372 C 404.451 1.67622 -1.62558 0
M  V30 4373 C 405.432 1.63331 -0.475087 0
M  V30 4374 O 406.617 1.80983 -0.704182 0
M  V30 4375 C 403.747 3.0626 -1.63774 0
M  V30 4376 C 402.701 3.25397 -2.7803 0
M  V30 4377 C 402.027 4.64801 -2.64318 0
M  V30 4378 C 403.327 3.10965 -4.19641 0
M  V30 4379 H 405.021 1.55146 -2.56067 0
M  V30 4380 H 402.567 0.744961 -1.23233 0
M  V30 4381 H 404.52 3.84247 -1.73008 0
M  V30 4382 H 403.244 3.1969 -0.66825 0
M  V30 4383 H 401.903 2.49817 -2.68304 0
M  V30 4384 H 401.551 4.75028 -1.65401 0
M  V30 4385 H 401.251 4.78555 -3.40968 0
M  V30 4386 H 402.775 5.44926 -2.75478 0
M  V30 4387 H 404.189 3.78772 -4.30354 0
M  V30 4388 H 402.586 3.36229 -4.97062 0
M  V30 4389 H 403.656 2.07736 -4.38148 0
M  V30 4390 N 404.999 1.35443 0.805782 0
M  V30 4391 C 405.946 1.28431 1.91766 0
M  V30 4392 C 406.916 0.156102 1.65365 0
M  V30 4393 O 408.101 0.339936 1.87747 0
M  V30 4394 C 405.241 1.06301 3.2832 0
M  V30 4395 C 404.354 2.2805 3.66902 0
M  V30 4396 C 403.489 1.99064 4.92491 0
M  V30 4397 C 402.528 3.16863 5.23703 0
M  V30 4398 N 401.665 2.87647 6.40471 0
M  V30 4399 H 406.505 2.23511 1.97096 0
M  V30 4400 H 404.042 1.11105 0.964054 0
M  V30 4401 H 406 0.915012 4.07042 0
M  V30 4402 H 404.63 0.148822 3.22457 0
M  V30 4403 H 403.682 2.53711 2.83434 0
M  V30 4404 H 404.994 3.1601 3.85927 0
M  V30 4405 H 404.148 1.81099 5.7904 0
M  V30 4406 H 402.887 1.0839 4.75503 0
M  V30 4407 H 401.892 3.35404 4.35642 0
M  V30 4408 H 403.117 4.08339 5.4262 0
M  V30 4409 H 401.063 1.99568 6.24907 0
M  V30 4410 H 400.98 3.69141 6.59751 0
M  V30 4411 H 402.248 2.73226 7.30047 0
M  V30 4412 N 406.477 -1.02803 1.19454 0
M  V30 4413 C 407.424 -2.11099 0.933046 0
M  V30 4414 C 408.394 -1.65571 -0.132447 0
M  V30 4415 O 409.579 -1.90797 0.00987576 0
M  V30 4416 C 406.719 -3.41763 0.478747 0
M  V30 4417 C 405.832 -4.00833 1.6111 0
M  V30 4418 C 404.967 -5.19511 1.10825 0
M  V30 4419 C 404.006 -5.70639 2.21445 0
M  V30 4420 N 403.143 -6.80589 1.72461 0
M  V30 4421 H 407.983 -2.32804 1.86028 0
M  V30 4422 H 405.52 -1.14179 0.927441 0
M  V30 4423 H 407.478 -4.16736 0.196745 0
M  V30 4424 H 406.108 -3.20166 -0.411493 0
M  V30 4425 H 405.16 -3.23066 2.00829 0
M  V30 4426 H 406.472 -4.34794 2.4445 0
M  V30 4427 H 405.626 -6.01645 0.781533 0
M  V30 4428 H 404.365 -4.87086 0.244606 0
M  V30 4429 H 403.37 -4.87116 2.54947 0
M  V30 4430 H 404.595 -6.05102 3.08267 0
M  V30 4431 H 402.541 -6.50016 0.884056 0
M  V30 4432 H 402.458 -7.13681 2.49389 0
M  V30 4433 H 403.726 -7.66317 1.42755 0
M  V30 4434 N 407.956 -0.998596 -1.21925 0
M  V30 4435 C 409.202 -0.678667 -1.91107 0
M  V30 4436 C 409.535 0.78791 -1.77498 0
M  V30 4437 O 408.81 1.57043 -1.1475 0
M  V30 4438 C 409.093 -1.09245 -3.43129 0
M  V30 4439 C 408.946 -2.61801 -3.6576 0
M  V30 4440 C 410.265 -0.649984 -4.35274 0
M  V30 4441 H 407.384 -0.248025 -0.694012 0
M  V30 4442 H 410.026 -1.24314 -1.43688 0
M  V30 4443 H 408.176 -0.612171 -3.83647 0
M  V30 4444 H 409.848 -3.17543 -3.34611 0
M  V30 4445 H 408.091 -3.03609 -3.09845 0
M  V30 4446 H 408.762 -2.85804 -4.7225 0
M  V30 4447 H 411.238 -1.0626 -4.02303 0
M  V30 4448 H 410.114 -0.967743 -5.40302 0
M  V30 4449 H 410.375 0.449139 -4.39813 0
M  V30 4450 N 409.434 1.37368 -0.772513 0
M  V30 4451 C 410.364 2.32856 -0.173304 0
M  V30 4452 C 411.345 1.55818 0.682262 0
M  V30 4453 O 412.53 1.84052 0.619566 0
M  V30 4454 C 409.66 3.40048 0.706007 0
M  V30 4455 C 408.614 4.27973 -0.0483144 0
M  V30 4456 C 407.94 5.26184 0.950491 0
M  V30 4457 C 409.24 5.07665 -1.22776 0
M  V30 4458 H 410.934 2.83217 -0.971002 0
M  V30 4459 H 408.48 1.3617 -0.468377 0
M  V30 4460 H 410.433 4.05827 1.13501 0
M  V30 4461 H 409.157 2.88214 1.53623 0
M  V30 4462 H 407.816 3.63726 -0.458107 0
M  V30 4463 H 407.464 4.7063 1.77529 0
M  V30 4464 H 407.164 5.85872 0.450314 0
M  V30 4465 H 408.688 5.94838 1.37842 0
M  V30 4466 H 410.102 5.66578 -0.875366 0
M  V30 4467 H 408.499 5.76681 -1.66007 0
M  V30 4468 H 409.569 4.40294 -2.03149 0
M  V30 4469 N 410.912 0.523116 1.48665 0
M  V30 4470 C 411.859 -0.243398 2.29513 0
M  V30 4471 C 412.829 -0.940139 1.36933 0
M  V30 4472 O 414.014 -0.942503 1.65896 0
M  V30 4473 C 411.154 -1.28855 3.20141 0
M  V30 4474 C 410.267 -0.60135 4.27794 0
M  V30 4475 C 409.402 -1.62884 5.05611 0
M  V30 4476 C 408.441 -0.924726 6.05075 0
M  V30 4477 N 407.578 -1.89744 6.75975 0
M  V30 4478 H 412.418 0.452234 2.94549 0
M  V30 4479 H 409.955 0.234858 1.45213 0
M  V30 4480 H 411.913 -1.90674 3.71079 0
M  V30 4481 H 410.543 -1.95266 2.57043 0
M  V30 4482 H 409.595 0.130623 3.80176 0
M  V30 4483 H 410.907 -0.0481585 4.98777 0
M  V30 4484 H 410.061 -2.32149 5.60528 0
M  V30 4485 H 408.8 -2.21592 4.34452 0
M  V30 4486 H 407.805 -0.217966 5.49368 0
M  V30 4487 H 409.03 -0.343851 6.78229 0
M  V30 4488 H 406.976 -2.47373 6.07571 0
M  V30 4489 H 406.893 -1.3955 7.43009 0
M  V30 4490 H 408.161 -2.58229 7.35485 0
M  V30 4491 N 412.39 -1.55475 0.257931 0
M  V30 4492 C 413.63 -2.01112 -0.365129 0
M  V30 4493 C 413.994 -1.1423 -1.54323 0
M  V30 4494 O 415.195 -1.49371 -2.23477 0
M  V30 4495 C 413.466 -3.49353 -0.754117 0
M  V30 4496 S 415.025 -4.16992 -1.36614 0
M  V30 4497 H 411.843 -0.701737 -0.114397 0
M  V30 4498 H 414.445 -1.91855 0.375747 0
M  V30 4499 H 413.149 -4.10246 0.112441 0
M  V30 4500 H 412.68 -3.6256 -1.52689 0
M  V30 4501 H 414.695 -4.19191 -2.65505 0
M  V30 4502 N 413.868 0.0150385 -1.57593 0
M  V30 4503 C 414.816 1.02958 -2.08572 0
M  V30 4504 C 415.81 1.36554 -1.00246 0
M  V30 4505 O 417.016 1.35295 -1.18724 0
M  V30 4506 H 413.391 0.349619 -0.665786 0
M  V30 4507 H 415.362 0.573932 -2.92829 0
M  V30 4508 C 414.111 2.31752 -2.59203 0
M  V30 4509 H 413.434 2.06765 -3.42182 0
M  V30 4510 H 414.874 3.01053 -2.98568 0
M  V30 4511 C 413.333 3.01692 -1.49945 0
M  V30 4512 O 413.863 3.92083 -0.873704 0
M  V30 4513 N 412.069 2.6326 -1.23056 0
M  V30 4514 H 411.616 1.89838 -1.74125 0
M  V30 4515 H 411.574 3.10372 -0.501685 0
M  V30 4516 N 415.346 1.54954 0.287554 0
M  V30 4517 C 416.574 1.78881 1.03967 0
M  V30 4518 C 416.989 0.554894 1.80462 0
M  V30 4519 O 416.346 -0.475676 1.76192 0
M  V30 4520 C 416.397 3.00488 2.0097 0
M  V30 4521 O 416.118 4.19113 1.27577 0
M  V30 4522 C 417.619 3.36907 2.88112 0
M  V30 4523 H 414.839 0.596259 0.307761 0
M  V30 4524 H 417.383 2.01937 0.322749 0
M  V30 4525 H 415.538 2.79601 2.68145 0
M  V30 4526 H 415.952 4.87765 1.92835 0
M  V30 4527 H 417.426 4.25205 3.52001 0
M  V30 4528 H 417.903 2.55659 3.57121 0
M  V30 4529 H 418.509 3.60001 2.26449 0
M  V30 4530 N 416.824 -0.551391 1.4764 0
M  V30 4531 C 418.235 -1.13349 1.48354 0
M  V30 4532 C 418.586 -1.94709 0.241432 0
M  V30 4533 O 417.711 -2.06306 -0.653205 0
M  V30 4534 C 418.306 -2.0623 2.68802 0
M  V30 4535 C 416.865 -2.597 2.72457 0
M  V30 4536 C 416.012 -1.36201 2.41546 0
M  V30 4537 H 418.963 -0.337698 1.55065 0
M  V30 4538 H 418.984 -2.90196 2.46103 0
M  V30 4539 H 418.496 -1.46987 3.59188 0
M  V30 4540 H 416.597 -3.22724 1.86225 0
M  V30 4541 H 416.71 -3.00296 3.73308 0
M  V30 4542 H 415.074 -1.67068 1.9225 0
M  V30 4543 H 415.857 -0.787425 3.34147 0
M  V30 4544 N 418.302 -1.35869 -0.798587 0
M  V30 4545 C 419.579 -1.20145 -1.54352 0
M  V30 4546 C 419.959 0.216161 -2.0999 0
M  V30 4547 O 419.307 1.22068 -1.93162 0
M  V30 4548 C 419.517 -2.27602 -2.64572 0
M  V30 4549 C 420.865 -2.63811 -3.32699 0
M  V30 4550 O 421.889 -2.26576 -2.74849 0
M  V30 4551 O 420.748 -3.27866 -4.37226 0
M  V30 4552 H 417.842 -0.467248 -0.682355 0
M  V30 4553 H 420.388 -1.47574 -0.837859 0
M  V30 4554 H 419.16 -3.2265 -2.21388 0
M  V30 4555 H 418.783 -2.01488 -3.42766 0
M  V30 4556 N 419.78 1.02168 -1.19998 0
M  V30 4557 C 421.191 1.57135 -1.00825 0
M  V30 4558 C 421.542 1.91276 0.436818 0
M  V30 4559 O 420.667 1.71679 1.3174 0
M  V30 4560 C 421.262 2.85514 -1.82393 0
M  V30 4561 C 419.821 3.37027 -1.67601 0
M  V30 4562 C 418.968 2.10388 -1.80644 0
M  V30 4563 H 421.919 0.846106 -1.34264 0
M  V30 4564 H 421.94 3.56711 -1.32429 0
M  V30 4565 H 421.452 2.60634 -2.87561 0
M  V30 4566 H 419.553 3.66878 -0.650485 0
M  V30 4567 H 419.666 4.09572 -2.4857 0
M  V30 4568 H 418.03 2.22601 -1.23778 0
M  V30 4569 H 418.813 1.8794 -2.87286 0
M  V30 4570 N 421.258 1.00505 1.21394 0
M  V30 4571 C 422.483 0.706367 1.95001 0
M  V30 4572 C 422.908 -0.72463 1.73582 0
M  V30 4573 O 422.266 -1.49702 1.0227 0
M  V30 4574 C 422.314 1.03299 3.45487 0
M  V30 4575 O 421.418 0.138275 4.12168 0
M  V30 4576 H 420.759 0.263175 0.609619 0
M  V30 4577 H 423.289 1.34531 1.54151 0
M  V30 4578 H 423.299 0.979872 3.96059 0
M  V30 4579 H 421.974 2.07567 3.60401 0
M  V30 4580 H 420.551 0.247928 3.72075 0
M  V30 4581 N 422.737 -1.36956 0.779787 0
M  V30 4582 C 423.684 -2.30175 0.169697 0
M  V30 4583 C 424.654 -1.51501 -0.68094 0
M  V30 4584 O 425.839 -1.80042 -0.631629 0
M  V30 4585 C 422.979 -3.37985 -0.697131 0
M  V30 4586 C 422.092 -4.31661 0.170992 0
M  V30 4587 C 421.227 -5.2655 -0.701298 0
M  V30 4588 C 420.266 -6.11867 0.168869 0
M  V30 4589 N 419.403 -6.98973 -0.661855 0
M  V30 4590 H 424.243 -2.81767 0.970135 0
M  V30 4591 H 421.78 -1.38699 0.489994 0
M  V30 4592 H 423.738 -3.99128 -1.2146 0
M  V30 4593 H 422.368 -2.87739 -1.46309 0
M  V30 4594 H 421.42 -3.71756 0.80634 0
M  V30 4595 H 422.732 -4.91644 0.841875 0
M  V30 4596 H 421.886 -5.92937 -1.28494 0
M  V30 4597 H 420.625 -4.66998 -1.40584 0
M  V30 4598 H 419.63 -5.44452 0.764986 0
M  V30 4599 H 420.855 -6.73493 0.870863 0
M  V30 4600 H 418.801 -6.41941 -1.35086 0
M  V30 4601 H 418.718 -7.55984 -0.0484447 0
M  V30 4602 H 419.986 -7.6974 -1.22963 0
M  V30 4603 N 424.215 -0.530993 -1.48385 0
M  V30 4604 C 425.462 0.0027373 -2.025 0
M  V30 4605 C 425.79 1.34186 -1.40799 0
M  V30 4606 O 425.045 1.88 -0.543544 0
M  V30 4607 C 425.344 0.172742 -3.56982 0
M  V30 4608 C 425.01 -1.09215 -4.37473 0
M  V30 4609 C 423.672 -1.43881 -4.59186 0
M  V30 4610 C 426.024 -1.93153 -4.84088 0
M  V30 4611 C 423.352 -2.62381 -5.2476 0
M  V30 4612 C 425.704 -3.10833 -5.50968 0
M  V30 4613 C 424.368 -3.45843 -5.70919 0
M  V30 4614 H 423.638 0.00100165 -0.740999 0
M  V30 4615 H 426.285 -0.697219 -1.78357 0
M  V30 4616 H 424.59 0.955473 -3.79971 0
M  V30 4617 H 426.287 0.600642 -3.96476 0
M  V30 4618 H 422.877 -0.812177 -4.20834 0
M  V30 4619 H 427.061 -1.67683 -4.67115 0
M  V30 4620 H 422.317 -2.89707 -5.38405 0
M  V30 4621 H 426.491 -3.7618 -5.86056 0
M  V30 4622 H 424.118 -4.37764 -6.21503 0
M  V30 4623 N 425.693 1.55336 -0.266172 0
M  V30 4624 C 426.94 1.99397 0.353158 0
M  V30 4625 C 427.268 1.15451 1.56529 0
M  V30 4626 O 426.523 0.209974 1.9457 0
M  V30 4627 C 426.822 3.48606 0.787957 0
M  V30 4628 C 426.488 4.49773 -0.318541 0
M  V30 4629 C 425.15 4.77158 -0.62239 0
M  V30 4630 C 427.502 5.10212 -1.06459 0
M  V30 4631 C 424.83 5.62251 -1.67602 0
M  V30 4632 C 427.182 5.96449 -2.10788 0
M  V30 4633 C 425.846 6.22158 -2.41817 0
M  V30 4634 H 425.116 0.729644 0.12923 0
M  V30 4635 H 427.763 1.87732 -0.37802 0
M  V30 4636 H 426.068 3.57701 1.59866 0
M  V30 4637 H 427.765 3.80098 1.27775 0
M  V30 4638 H 424.355 4.2854 -0.0715925 0
M  V30 4639 H 428.539 4.89086 -0.843098 0
M  V30 4640 H 423.795 5.80419 -1.92155 0
M  V30 4641 H 427.969 6.42317 -2.69076 0
M  V30 4642 H 425.596 6.87888 -3.23596 0
M  V30 4643 N 427.171 -0.0066808 1.57599 0
M  V30 4644 C 428.396 -0.707738 1.94951 0
M  V30 4645 C 428.821 -1.66882 0.867868 0
M  V30 4646 O 428.179 -1.80457 -0.17458 0
M  V30 4647 C 428.227 -1.42162 3.31394 0
M  V30 4648 O 427.331 -2.53578 3.25226 0
M  V30 4649 H 426.672 -0.188752 0.636607 0
M  V30 4650 H 429.202 0.0445193 2.04552 0
M  V30 4651 H 429.212 -1.78655 3.66806 0
M  V30 4652 H 427.887 -0.716903 4.09675 0
M  V30 4653 H 426.464 -2.19463 3.01481 0
M  V30 4654 N 428.649 -1.55105 -0.279332 0
M  V30 4655 C 429.581 -1.83952 -1.36727 0
M  V30 4656 C 430.594 -0.723642 -1.45833 0
M  V30 4657 O 431.783 -1.00141 -1.47763 0
M  V30 4658 C 428.883 -1.98183 -2.74912 0
M  V30 4659 C 428.056 -3.28787 -2.88475 0
M  V30 4660 C 427.115 -3.33162 -4.07295 0
M  V30 4661 O 426.141 -4.06576 -3.98353 0
M  V30 4662 N 427.343 -2.60109 -5.18964 0
M  V30 4663 H 430.108 -2.77853 -1.12328 0
M  V30 4664 H 427.669 -1.54945 -0.469442 0
M  V30 4665 H 429.661 -1.98488 -3.52682 0
M  V30 4666 H 428.231 -1.11177 -2.92162 0
M  V30 4667 H 427.451 -3.41075 -1.97641 0
M  V30 4668 H 428.739 -4.14933 -2.94463 0
M  V30 4669 H 428.137 -2.00136 -5.29115 0
M  V30 4670 H 426.694 -2.66143 -5.94988 0
M  V30 4671 N 430.127 0.543554 -1.4793 0
M  V30 4672 C 431.057 1.65888 -1.64327 0
M  V30 4673 C 432.038 1.62818 -0.492383 0
M  V30 4674 O 433.223 1.80226 -0.723338 0
M  V30 4675 C 430.353 3.04506 -1.67013 0
M  V30 4676 C 429.307 3.2243 -2.81466 0
M  V30 4677 C 428.633 4.61972 -2.69233 0
M  V30 4678 C 429.933 3.06496 -4.22915 0
M  V30 4679 H 431.627 1.52421 -2.57698 0
M  V30 4680 H 429.173 0.731849 -1.24016 0
M  V30 4681 H 431.126 3.82391 -1.77074 0
M  V30 4682 H 429.85 3.18964 -0.70212 0
M  V30 4683 H 428.509 2.46957 -2.70938 0
M  V30 4684 H 428.157 4.73247 -1.7043 0
M  V30 4685 H 427.857 4.74911 -3.46025 0
M  V30 4686 H 429.381 5.41974 -2.81242 0
M  V30 4687 H 430.795 3.74186 -4.34348 0
M  V30 4688 H 429.192 3.30938 -5.006 0
M  V30 4689 H 430.262 2.03077 -4.40327 0
M  V30 4690 N 431.605 1.3629 0.791371 0
M  V30 4691 C 432.83 1.33726 1.58531 0
M  V30 4692 C 433.255 -0.0794933 1.87932 0
M  V30 4693 O 432.613 -1.05087 1.47738 0
M  V30 4694 C 432.661 2.16425 2.88431 0
M  V30 4695 O 431.765 1.5554 3.81944 0
M  V30 4696 H 431.106 0.457793 0.480959 0
M  V30 4697 H 433.636 1.79547 0.981031 0
M  V30 4698 H 433.646 2.28933 3.37718 0
M  V30 4699 H 432.321 3.19415 2.66359 0
M  V30 4700 H 430.898 1.51961 3.40532 0
M  V30 4701 N 433.083 -1.0153 1.20538 0
M  V30 4702 C 434.308 -1.79283 1.04271 0
M  V30 4703 C 434.733 -1.8372 -0.403544 0
M  V30 4704 O 434.091 -1.27321 -1.2907 0
M  V30 4705 C 434.139 -3.21535 1.63241 0
M  V30 4706 O 433.243 -4.03099 0.870908 0
M  V30 4707 H 432.584 -0.55293 0.367647 0
M  V30 4708 H 435.114 -1.27696 1.59859 0
M  V30 4709 H 435.124 -3.72243 1.6703 0
M  V30 4710 H 433.799 -3.1762 2.68497 0
M  V30 4711 H 432.376 -3.61693 0.907323 0
M  V30 4712 N 434.561 -1.01147 -1.20859 0
M  V30 4713 C 435.471 -0.58686 -2.27141 0
M  V30 4714 C 436.487 0.373198 -1.69951 0
M  V30 4715 O 437.663 0.235423 -2.00019 0
M  V30 4716 C 434.728 0.0733602 -3.46622 0
M  V30 4717 C 433.789 -0.931995 -4.19061 0
M  V30 4718 C 433.022 -0.303186 -5.32838 0
M  V30 4719 O 433.245 0.898395 -5.63281 0
M  V30 4720 O 432.179 -1.01735 -5.9324 0
M  V30 4721 H 436.005 -1.47155 -2.65667 0
M  V30 4722 H 433.59 -0.780689 -1.2738 0
M  V30 4723 H 435.472 0.442333 -4.19072 0
M  V30 4724 H 434.147 0.932329 -3.09983 0
M  V30 4725 H 433.054 -1.35224 -3.48805 0
M  V30 4726 H 434.387 -1.76076 -4.59628 0
M  V30 4727 N 436.039 1.36541 -0.78704 0
M  V30 4728 C 436.989 2.27459 -0.156957 0
M  V30 4729 C 437.973 1.46843 0.657709 0
M  V30 4730 O 439.165 1.69245 0.518173 0
M  V30 4731 C 436.294 3.35893 0.709278 0
M  V30 4732 C 435.38 4.23947 -0.114049 0
M  V30 4733 N 435.771 4.92145 -1.16736 0
M  V30 4734 C 434.069 4.4587 0.107497 0
M  V30 4735 C 434.77 5.57261 -1.66837 0
M  V30 4736 N 433.746 5.3473 -0.977992 0
M  V30 4737 H 437.548 2.77669 -0.963185 0
M  V30 4738 H 435.062 1.49839 -0.62627 0
M  V30 4739 H 437.059 3.99953 1.17656 0
M  V30 4740 H 435.719 2.87238 1.51408 0
M  V30 4741 H 436.73 4.94169 -1.54976 0
M  V30 4742 H 433.407 4.08056 0.882994 0
M  V30 4743 H 434.797 6.21728 -2.54762 0
M  V30 4744 N 437.518 0.538854 1.48102 0
M  V30 4745 C 438.766 0.00798599 2.02098 0
M  V30 4746 C 439.087 -1.33922 1.41739 0
M  V30 4747 O 438.357 -1.86932 0.585934 0
M  V30 4748 H 436.937 -3.62179e-05 0.747 0
M  V30 4749 H 439.599 0.7047 1.81714 0
M  V30 4750 H 438.695 -0.0937672 3.11959 0
M  V30 4751 N 438.996 -1.55193 0.274407 0
M  V30 4752 C 440.244 -1.99187 -0.341902 0
M  V30 4753 C 440.565 -1.16422 -1.56431 0
M  V30 4754 O 439.835 -0.253573 -1.94252 0
M  V30 4755 H 438.415 -0.735721 -0.129317 0
M  V30 4756 H 441.077 -1.91168 0.379578 0
M  V30 4757 H 440.173 -3.05629 -0.632253 0
M  V30 4758 N 440.474 -0.00167713 -1.576 0
M  V30 4759 C 441.751 0.719951 -1.81868 0
M  V30 4760 C 442.131 1.91895 -0.879747 0
M  V30 4761 O 441.479 2.28389 0.0711423 0
M  V30 4762 C 441.689 1.12409 -3.30402 0
M  V30 4763 C 443.037 1.52724 -3.96182 0
M  V30 4764 O 444.061 1.21784 -3.34734 0
M  V30 4765 O 442.92 2.10265 -5.04431 0
M  V30 4766 H 440.014 0.350707 -0.748955 0
M  V30 4767 H 442.56 -0.0272597 -1.69678 0
M  V30 4768 H 441.332 0.269532 -3.90371 0
M  V30 4769 H 440.955 1.93035 -3.47596 0
M  V30 4770 N 441.952 1.55251 0.271103 0
M  V30 4771 C 443.198 1.76207 1.00394 0
M  V30 4772 C 443.531 0.562604 1.85872 0
M  V30 4773 O 442.806 -0.439785 1.89463 0
M  V30 4774 C 443.089 3.06828 1.8849 0
M  V30 4775 C 442.942 4.37134 1.05992 0
M  V30 4776 C 444.261 3.33503 2.87165 0
M  V30 4777 H 441.38 0.641086 0.363562 0
M  V30 4778 H 444.022 1.87982 0.276189 0
M  V30 4779 H 442.172 2.96921 2.5054 0
M  V30 4780 H 443.844 4.59001 0.459978 0
M  V30 4781 H 442.087 4.32275 0.363443 0
M  V30 4782 H 442.758 5.2486 1.70955 0
M  V30 4783 H 445.234 3.43215 2.3525 0
M  V30 4784 H 444.11 4.2616 3.45946 0
M  V30 4785 H 444.371 2.53235 3.62387 0
M  V30 4786 N 443.43 -0.535701 1.48216 0
M  V30 4787 C 444.362 -1.65662 1.58394 0
M  V30 4788 C 445.375 -1.5591 0.468607 0
M  V30 4789 O 446.564 -1.62475 0.7392 0
M  V30 4790 C 443.664 -3.04276 1.4923 0
M  V30 4791 C 442.837 -3.39567 2.75705 0
M  V30 4792 C 441.896 -4.57436 2.60075 0
M  V30 4793 O 440.922 -4.60942 3.33948 0
M  V30 4794 N 442.124 -5.55259 1.69315 0
M  V30 4795 H 444.889 -1.5737 2.55058 0
M  V30 4796 H 442.45 -0.722845 1.44867 0
M  V30 4797 H 444.442 -3.80994 1.36477 0
M  V30 4798 H 443.012 -3.06677 0.605632 0
M  V30 4799 H 442.232 -2.52083 3.03064 0
M  V30 4800 H 443.52 -3.59929 3.59623 0
M  V30 4801 H 442.918 -5.552 1.08489 0
M  V30 4802 H 441.475 -6.31218 1.62504 0
M  V30 4803 N 444.908 -1.36708 -0.784132 0
M  V30 4804 C 445.855 -1.31466 -1.89698 0
M  V30 4805 C 446.825 -0.18239 -1.65096 0
M  V30 4806 O 448.01 -0.369762 -1.87183 0
M  V30 4807 C 445.15 -1.1151 -3.26588 0
M  V30 4808 C 444.263 -2.33859 -3.63227 0
M  V30 4809 C 443.398 -2.06873 -4.89262 0
M  V30 4810 C 442.437 -3.25154 -5.18595 0
M  V30 4811 N 441.574 -2.978 -6.35814 0
M  V30 4812 H 446.414 -2.26619 -1.93515 0
M  V30 4813 H 443.951 -1.12625 -0.946256 0
M  V30 4814 H 445.909 -0.979653 -4.05535 0
M  V30 4815 H 444.539 -0.200103 -3.22179 0
M  V30 4816 H 443.591 -2.58188 -2.79362 0
M  V30 4817 H 444.903 -3.22109 -3.8085 0
M  V30 4818 H 444.057 -1.90289 -5.76086 0
M  V30 4819 H 442.796 -1.15942 -4.73718 0
M  V30 4820 H 441.801 -3.42292 -4.30251 0
M  V30 4821 H 443.026 -4.1692 -5.36055 0
M  V30 4822 H 440.972 -2.09485 -6.21653 0
M  V30 4823 H 440.889 -3.7959 -6.53794 0
M  V30 4824 H 442.157 -2.84805 -7.25607 0
M  V30 4825 N 446.386 1.0089 -1.21074 0
M  V30 4826 C 447.632 1.7497 -1.03717 0
M  V30 4827 C 447.987 1.8764 0.425344 0
M  V30 4828 O 447.28 1.39679 1.3115 0
M  V30 4829 C 447.474 3.16335 -1.66334 0
M  V30 4830 C 447.303 3.17449 -3.18522 0
M  V30 4831 C 446.073 3.2425 -3.87543 0
M  V30 4832 C 448.271 3.02877 -4.15656 0
M  V30 4833 N 446.253 3.14949 -5.26954 0
M  V30 4834 C 447.624 3.0143 -5.41793 0
M  V30 4835 C 449.679 2.8715 -4.06755 0
M  V30 4836 C 448.382 2.85869 -6.60054 0
M  V30 4837 C 450.408 2.72944 -5.24648 0
M  V30 4838 C 449.77 2.72171 -6.49694 0
M  V30 4839 H 445.869 0.650627 -0.43383 0
M  V30 4840 H 448.453 1.19944 -1.53367 0
M  V30 4841 H 446.624 3.69638 -1.19256 0
M  V30 4842 H 448.356 3.78888 -1.42219 0
M  V30 4843 H 445.111 3.31288 -3.38446 0
M  V30 4844 H 445.535 3.13651 -5.9996 0
M  V30 4845 H 450.177 2.86557 -3.10878 0
M  V30 4846 H 447.895 2.8521 -7.56096 0
M  V30 4847 H 451.481 2.61782 -5.19578 0
M  V30 4848 H 450.361 2.61307 -7.39384 0
M  V30 4849 N 447.864 1.01787 1.20321 0
M  V30 4850 C 448.794 0.609625 2.25401 0
M  V30 4851 C 449.775 -0.375951 1.65893 0
M  V30 4852 O 450.96 -0.261101 1.92437 0
M  V30 4853 C 448.09 -0.0515995 3.47262 0
M  V30 4854 C 447.044 0.855095 4.19371 0
M  V30 4855 C 446.37 0.0595757 5.34667 0
M  V30 4856 C 447.67 2.16374 4.75373 0
M  V30 4857 H 449.364 1.48803 2.59804 0
M  V30 4858 H 446.91 0.716934 1.24884 0
M  V30 4859 H 448.863 -0.348764 4.19954 0
M  V30 4860 H 447.587 -0.964726 3.12027 0
M  V30 4861 H 446.246 1.13628 3.48546 0
M  V30 4862 H 445.894 -0.85524 4.95676 0
M  V30 4863 H 445.594 0.663406 5.83843 0
M  V30 4864 H 447.118 -0.231105 6.10162 0
M  V30 4865 H 448.532 1.92885 5.39878 0
M  V30 4866 H 446.929 2.71853 5.34991 0
M  V30 4867 H 447.999 2.82589 3.94045 0
M  V30 4868 N 449.342 -1.36122 0.79427 0
M  V30 4869 C 450.567 -2.03891 0.379871 0
M  V30 4870 C 450.992 -1.59488 -0.997251 0
M  V30 4871 O 450.35 -0.765652 -1.64339 0
M  V30 4872 C 450.398 -3.57687 0.457442 0
M  V30 4873 O 449.502 -4.08931 -0.5338 0
M  V30 4874 H 448.843 -0.6443 0.160541 0
M  V30 4875 H 451.373 -1.73976 1.07673 0
M  V30 4876 H 451.383 -4.06721 0.322792 0
M  V30 4877 H 450.058 -3.89357 1.46199 0
M  V30 4878 H 448.635 -3.71154 -0.360409 0
M  V30 4879 N 450.82 -0.546701 -1.47814 0
M  V30 4880 C 452.045 -0.021268 -2.07389 0
M  V30 4881 C 452.47 1.25822 -1.39822 0
M  V30 4882 O 451.828 1.75111 -0.46968 0
M  V30 4883 C 451.876 0.168502 -3.60206 0
M  V30 4884 O 450.98 1.23347 -3.93522 0
M  V30 4885 H 450.321 -0.0466108 -0.662362 0
M  V30 4886 H 452.851 -0.759387 -1.89985 0
M  V30 4887 H 452.861 0.385982 -4.0617 0
M  V30 4888 H 451.536 -0.766075 -4.08784 0
M  V30 4889 H 450.113 0.997319 -3.59316 0
M  V30 4890 N 452.299 1.55045 -0.282633 0
M  V30 4891 C 453.71 1.85473 0.213655 0
M  V30 4892 C 454.061 1.20465 1.54863 0
M  V30 4893 O 453.186 0.495676 2.10647 0
M  V30 4894 C 453.781 3.36496 0.394445 0
M  V30 4895 C 452.34 3.67022 0.834961 0
M  V30 4896 C 451.487 2.77218 -0.0674081 0
M  V30 4897 H 454.438 1.50478 -0.504202 0
M  V30 4898 H 454.459 3.60007 1.23186 0
M  V30 4899 H 453.971 3.83782 -0.577326 0
M  V30 4900 H 452.072 3.25241 1.81794 0
M  V30 4901 H 452.185 4.74433 0.667075 0
M  V30 4902 H 450.549 2.5069 0.450196 0
M  V30 4903 H 451.332 3.2732 -1.0352 0
M  V30 4904 N 453.777 0.010035 1.57597 0
M  V30 4905 C 455.024 -0.6727 1.91 0
M  V30 4906 C 455.352 -1.73219 0.884614 0
M  V30 4907 O 454.607 -1.95395 -0.109215 0
M  V30 4908 C 454.906 -1.34434 3.31153 0
M  V30 4909 C 454.572 -0.417083 4.48967 0
M  V30 4910 C 453.234 -0.161809 4.80928 0
M  V30 4911 C 455.586 0.220753 5.20732 0
M  V30 4912 C 452.914 0.739426 5.82022 0
M  V30 4913 C 455.266 1.10993 6.22787 0
M  V30 4914 C 453.93 1.37428 6.532 0
M  V30 4915 H 453.2 -0.246158 0.698918 0
M  V30 4916 H 455.847 0.0677145 1.9138 0
M  V30 4917 H 454.152 -2.15905 3.26944 0
M  V30 4918 H 455.849 -1.87883 3.54261 0
M  V30 4919 H 452.439 -0.626217 4.24001 0
M  V30 4920 H 456.623 0.0365643 4.96287 0
M  V30 4921 H 451.879 0.952139 6.03941 0
M  V30 4922 H 456.053 1.61046 6.77523 0
M  V30 4923 H 453.68 2.0743 7.31353 0
M  V30 4924 N 455.255 -1.55392 -0.262866 0
M  V30 4925 C 456.666 -1.67079 -0.833158 0
M  V30 4926 C 457.017 -0.604539 -1.86654 0
M  V30 4927 O 456.142 0.252138 -2.14926 0
M  V30 4928 C 456.737 -3.02891 -1.51797 0
M  V30 4929 C 455.296 -3.16571 -2.03617 0
M  V30 4930 C 454.443 -2.62909 -0.881701 0
M  V30 4931 H 457.394 -1.58652 -0.0389986 0
M  V30 4932 H 457.415 -2.96445 -2.38538 0
M  V30 4933 H 456.927 -3.80473 -0.765619 0
M  V30 4934 H 455.028 -2.43782 -2.81782 0
M  V30 4935 H 455.141 -4.23271 -2.24452 0
M  V30 4936 H 453.505 -2.20324 -1.27786 0
M  V30 4937 H 454.288 -3.43003 -0.14269 0
M  V30 4938 N 456.733 0.527833 -1.48498 0
M  V30 4939 C 457.958 1.313 -1.60546 0
M  V30 4940 C 458.383 1.86199 -0.26672 0
M  V30 4941 O 457.741 1.64513 0.761918 0
M  V30 4942 C 457.789 2.43818 -2.65678 0
M  V30 4943 O 456.893 3.46916 -2.22987 0
M  V30 4944 H 456.234 0.388784 -0.538277 0
M  V30 4945 H 458.764 0.634896 -1.945 0
M  V30 4946 H 458.774 2.89973 -2.87018 0
M  V30 4947 H 457.449 2.03222 -3.62869 0
M  V30 4948 H 456.026 3.06864 -2.11869 0
M  V30 4949 N 458.211 1.37122 0.776871 0
M  V30 4950 C 459.436 1.354 1.57104 0
M  V30 4951 C 459.861 -0.0595562 1.88006 0
M  V30 4952 O 459.219 -1.03514 1.48844 0
M  V30 4953 C 459.267 2.19472 2.8612 0
M  V30 4954 O 458.371 1.59582 3.80273 0
M  V30 4955 H 457.712 0.462869 0.476076 0
M  V30 4956 H 460.242 1.80577 0.961932 0
M  V30 4957 H 460.252 2.32502 3.35271 0
M  V30 4958 H 458.927 3.22222 2.62956 0
M  V30 4959 H 457.504 1.55564 3.38902 0
M  V30 4960 N 459.689 -1.00246 1.21608 0
M  V30 4961 C 460.914 -1.78167 1.06167 0
M  V30 4962 C 461.339 -1.84138 -0.384035 0
M  V30 4963 O 460.697 -1.28683 -1.27712 0
M  V30 4964 C 460.745 -3.19786 1.66642 0
M  V30 4965 O 459.849 -4.02153 0.913613 0
M  V30 4966 H 459.19 -0.549 0.37349 0
M  V30 4967 H 461.72 -1.25994 1.61204 0
M  V30 4968 H 461.73 -3.70451 1.70969 0
M  V30 4969 H 460.405 -3.14754 2.7185 0
M  V30 4970 H 458.982 -3.60711 0.945635 0
M  V30 4971 N 461.167 -1.02423 -1.1978 0
M  V30 4972 C 462.414 -0.717988 -1.89344 0
M  V30 4973 C 462.742 0.753036 -1.79331 0
M  V30 4974 O 461.997 1.56355 -1.17692 0
M  V30 4975 C 462.296 -1.1088 -3.39765 0
M  V30 4976 C 461.962 -2.57731 -3.6998 0
M  V30 4977 C 460.624 -2.97854 -3.77937 0
M  V30 4978 C 462.976 -3.52763 -3.83677 0
M  V30 4979 C 460.304 -4.31931 -3.97054 0
M  V30 4980 C 462.656 -4.86538 -4.04306 0
M  V30 4981 C 461.32 -5.26356 -4.10494 0
M  V30 4982 H 460.59 -0.26273 -0.692859 0
M  V30 4983 H 463.237 -1.28623 -1.41875 0
M  V30 4984 H 461.542 -0.459094 -3.89101 0
M  V30 4985 H 463.239 -0.849432 -3.919 0
M  V30 4986 H 459.829 -2.25646 -3.64393 0
M  V30 4987 H 464.013 -3.2292 -3.76877 0
M  V30 4988 H 459.269 -4.62324 -4.00083 0
M  V30 4989 H 463.443 -5.60093 -4.13846 0
M  V30 4990 H 461.07 -6.3026 -4.2506 0
M  V30 4991 N 462.645 1.35699 -0.801477 0
M  V30 4992 C 463.87 2.03687 -0.390678 0
M  V30 4993 C 464.295 1.60015 0.988778 0
M  V30 4994 O 463.653 0.774357 1.63931 0
M  V30 4995 C 463.701 3.57439 -0.476404 0
M  V30 4996 O 462.805 4.09208 0.512106 0
M  V30 4997 H 462.146 0.64344 -0.163956 0
M  V30 4998 H 464.676 1.73403 -1.08594 0
M  V30 4999 H 464.686 4.06544 -0.344357 0
M  V30 5000 H 463.361 3.88576 -1.48262 0
M  V30 5001 H 461.938 3.7134 0.340721 0
M  V30 5002 N 464.123 0.554532 1.47522 0
M  V30 5003 C 465.534 0.120446 1.86311 0
M  V30 5004 C 465.885 -1.30904 1.46145 0
M  V30 5005 O 465.01 -1.98434 0.863294 0
M  V30 5006 C 465.605 0.211808 3.38137 0
M  V30 5007 C 464.164 -0.167224 3.76028 0
M  V30 5008 C 463.311 0.560576 2.71575 0
M  V30 5009 H 466.262 0.764408 1.39077 0
M  V30 5010 H 466.283 -0.570275 3.76202 0
M  V30 5011 H 465.795 1.25232 3.6734 0
M  V30 5012 H 463.896 -1.20894 3.52442 0
M  V30 5013 H 464.009 0.189473 4.78725 0
M  V30 5014 H 462.373 0.00396836 2.547 0
M  V30 5015 H 463.156 1.60219 3.0362 0
M  V30 5016 N 465.601 -1.54893 0.290851 0
M  V30 5017 C 466.849 -1.99538 -0.320756 0
M  V30 5018 C 467.17 -1.18075 -1.55188 0
M  V30 5019 O 466.44 -0.274162 -1.93972 0
M  V30 5020 H 465.02 -0.737052 -0.121507 0
M  V30 5021 H 467.682 -1.90755 0.399832 0
M  V30 5022 H 466.778 -3.06282 -0.599802 0
M  V30 5023 N 467.08 -0.0183926 -1.57589 0
M  V30 5024 C 468.328 0.661253 -1.90976 0
M  V30 5025 C 468.649 1.73281 -0.894353 0
M  V30 5026 O 467.919 1.9579 0.0656788 0
M  V30 5027 H 466.499 0.247233 -0.704901 0
M  V30 5028 H 469.161 -0.0636639 -1.94796 0
M  V30 5029 H 468.257 1.12083 -2.9128 0
M  V30 5030 N 468.558 1.5553 0.254621 0
M  V30 5031 C 469.488 1.9268 1.31897 0
M  V30 5032 C 470.469 0.790797 1.506 0
M  V30 5033 O 471.654 1.05045 1.63337 0
M  V30 5034 C 468.784 2.21477 2.67517 0
M  V30 5035 C 467.738 3.37256 2.63519 0
M  V30 5036 C 467.064 3.51576 4.02862 0
M  V30 5037 C 468.364 4.73157 2.21179 0
M  V30 5038 H 470.058 2.81832 1.01051 0
M  V30 5039 H 467.604 1.35599 0.484662 0
M  V30 5040 H 469.557 2.46055 3.42104 0
M  V30 5041 H 468.281 1.29144 2.99982 0
M  V30 5042 H 466.94 3.12675 1.9139 0
M  V30 5043 H 466.588 2.56676 4.32581 0
M  V30 5044 H 466.288 4.2943 4.01078 0
M  V30 5045 H 467.812 3.78467 4.79161 0
M  V30 5046 H 469.226 4.97158 2.85494 0
M  V30 5047 H 467.623 5.54058 2.30521 0
M  V30 5048 H 468.693 4.70739 1.16332 0
M  V30 5049 N 470.036 -0.519951 1.48776 0
M  V30 5050 C 470.999 -1.60574 1.6355 0
M  V30 5051 C 471.999 -1.52557 0.508234 0
M  V30 5052 O 473.189 -1.56047 0.774262 0
M  V30 5053 C 470.321 -3.00211 1.61512 0
M  V30 5054 H 471.514 -1.4881 2.60376 0
M  V30 5055 H 469.067 -0.742772 1.37523 0
M  V30 5056 H 469.802 -3.17471 0.662009 0
M  V30 5057 H 469.587 -3.07439 2.43359 0
M  V30 5058 H 471.077 -3.79134 1.75064 0
M  V30 5059 N 471.514 -1.37532 -0.769588 0
M  V30 5060 C 472.925 -1.29382 -1.346 0
M  V30 5061 C 473.276 0.0576039 -1.96115 0
M  V30 5062 O 472.401 0.95947 -1.93967 0
M  V30 5063 C 472.996 -2.34298 -2.44724 0
M  V30 5064 C 471.555 -2.29776 -2.98128 0
M  V30 5065 C 470.702 -2.18013 -1.71364 0
M  V30 5066 H 473.653 -1.48123 -0.56968 0
M  V30 5067 H 473.674 -1.99089 -3.24259 0
M  V30 5068 H 473.186 -3.32645 -1.99922 0
M  V30 5069 H 471.287 -1.34959 -3.47299 0
M  V30 5070 H 471.4 -3.23276 -3.53595 0
M  V30 5071 H 469.764 -1.64595 -1.94372 0
M  V30 5072 H 470.547 -3.18278 -1.28662 0
M  V30 5073 N 472.992 0.995999 -1.22138 0
M  V30 5074 C 473.902 2.11985 -1.00496 0
M  V30 5075 C 474.918 1.7394 0.0457701 0
M  V30 5076 O 476.094 2.00868 -0.146273 0
M  V30 5077 C 473.159 3.41779 -0.582086 0
M  V30 5078 C 472.22 3.93943 -1.70608 0
M  V30 5079 C 471.453 5.17542 -1.30328 0
M  V30 5080 O 471.676 5.70114 -0.180743 0
M  V30 5081 O 470.61 5.63382 -2.11861 0
M  V30 5082 H 474.436 2.33123 -1.94647 0
M  V30 5083 H 472.021 1.10358 -1.00705 0
M  V30 5084 H 473.903 4.1989 -0.356467 0
M  V30 5085 H 472.578 3.22007 0.330592 0
M  V30 5086 H 471.485 3.17019 -1.98619 0
M  V30 5087 H 472.818 4.18141 -2.59651 0
M  V30 5088 N 474.47 1.03057 1.19235 0
M  V30 5089 C 475.719 0.72326 1.88287 0
M  V30 5090 C 476.032 -0.751333 1.80594 0
M  V30 5091 O 477.238 -1.17176 2.44912 0
M  V30 5092 C 475.694 1.24338 3.3774 0
M  V30 5093 C 475.302 2.74587 3.53986 0
M  V30 5094 C 477.046 1.01213 4.12257 0
M  V30 5095 C 474.953 3.20009 4.97341 0
M  V30 5096 H 473.883 0.266848 0.705201 0
M  V30 5097 H 476.534 1.24509 1.34795 0
M  V30 5098 H 474.916 0.649457 3.90638 0
M  V30 5099 H 476.09 3.39649 3.11408 0
M  V30 5100 H 474.405 2.9601 2.9286 0
M  V30 5101 H 477.002 1.32675 5.17978 0
M  V30 5102 H 477.345 -0.051001 4.16269 0
M  V30 5103 H 477.878 1.57014 3.65501 0
M  V30 5104 H 474.617 4.25659 4.98493 0
M  V30 5105 H 474.137 2.59676 5.40674 0
M  V30 5106 H 475.816 3.13447 5.66003 0
M  V30 5107 N 475.948 -1.35272 0.808662 0
M  V30 5108 C 477.173 -2.03477 0.401475 0
M  V30 5109 C 477.598 -1.60537 -0.980279 0
M  V30 5110 O 476.956 -0.78304 -1.63518 0
M  V30 5111 C 477.004 -3.57181 0.495354 0
M  V30 5112 O 476.108 -4.09474 -0.490397 0
M  V30 5113 H 475.449 -0.642561 0.167366 0
M  V30 5114 H 477.979 -1.72824 1.09512 0
M  V30 5115 H 477.989 -4.06356 0.365912 0
M  V30 5116 H 476.664 -3.87784 1.5032 0
M  V30 5117 H 475.241 -3.71516 -0.321023 0
M  V30 5118 N 477.426 -0.562348 -1.47226 0
M  V30 5119 C 478.837 -0.130325 -1.86245 0
M  V30 5120 C 479.188 1.30128 -1.46838 0
M  V30 5121 O 478.313 1.97974 -0.873805 0
M  V30 5122 C 478.908 -0.229738 -3.3802 0
M  V30 5123 C 477.467 0.14728 -3.76112 0
M  V30 5124 C 476.614 -0.574971 -2.71274 0
M  V30 5125 H 479.565 -0.771773 -1.3867 0
M  V30 5126 H 479.586 0.550316 -3.76499 0
M  V30 5127 H 479.098 -1.27178 -3.66671 0
M  V30 5128 H 477.199 1.19023 -3.53078 0
M  V30 5129 H 477.312 -0.214858 -4.78618 0
M  V30 5130 H 475.676 -0.0174756 -2.54694 0
M  V30 5131 H 476.459 -1.61827 -3.02766 0
M  V30 5132 N 478.904 1.54736 -0.299062 0
M  V30 5133 C 479.834 2.26409 0.571085 0
M  V30 5134 C 480.815 1.2629 1.13951 0
M  V30 5135 O 482 1.55059 1.16921 0
M  V30 5136 C 479.13 3.00338 1.74396 0
M  V30 5137 C 478.084 4.07588 1.30599 0
M  V30 5138 C 477.41 4.69222 2.56387 0
M  V30 5139 C 478.71 5.20455 0.438645 0
M  V30 5140 H 480.404 2.99388 -0.0266991 0
M  V30 5141 H 477.95 1.43993 -0.0142812 0
M  V30 5142 H 479.903 3.49198 2.35878 0
M  V30 5143 H 478.627 2.24934 2.36796 0
M  V30 5144 H 477.286 3.59575 0.71424 0
M  V30 5145 H 476.934 3.9046 3.17097 0
M  V30 5146 H 476.634 5.41653 2.27784 0
M  V30 5147 H 478.158 5.20844 3.18675 0
M  V30 5148 H 479.572 5.65221 0.959085 0
M  V30 5149 H 477.969 5.99594 0.246466 0
M  V30 5150 H 479.039 4.8192 -0.536738 0
M  V30 5151 N 480.382 0.0267497 1.57577 0
M  V30 5152 C 481.292 -0.971633 2.13533 0
M  V30 5153 C 482.308 -1.35868 1.08701 0
M  V30 5154 O 483.484 -1.44058 1.40746 0
M  V30 5155 C 480.549 -2.23622 2.64941 0
M  V30 5156 C 479.61 -1.90982 3.8448 0
M  V30 5157 C 478.843 -3.11411 4.33427 0
M  V30 5158 O 479.066 -4.23992 3.81558 0
M  V30 5159 O 478 -2.93848 5.25297 0
M  V30 5160 H 481.826 -0.525853 2.99113 0
M  V30 5161 H 479.411 -0.193712 1.48139 0
M  V30 5162 H 481.293 -2.97864 2.98086 0
M  V30 5163 H 479.968 -2.67386 1.82446 0
M  V30 5164 H 478.875 -1.14132 3.56265 0
M  V30 5165 H 480.208 -1.52036 4.6813 0
M  V30 5166 N 481.861 -1.55662 -0.24637 0
M  V30 5167 C 483.107 -1.77782 -0.975779 0
M  V30 5168 C 483.44 -0.592103 -1.84953 0
M  V30 5169 O 482.715 0.409588 -1.90138 0
M  V30 5170 C 482.998 -3.09788 -1.83584 0
M  V30 5171 C 482.851 -4.38764 -0.990241 0
M  V30 5172 C 484.17 -3.38029 -2.81823 0
M  V30 5173 H 481.289 -0.646789 -0.353317 0
M  V30 5174 H 483.931 -1.88398 -0.246248 0
M  V30 5175 H 482.081 -3.00869 -2.45784 0
M  V30 5176 H 483.753 -4.59675 -0.386897 0
M  V30 5177 H 481.996 -4.32798 -0.294626 0
M  V30 5178 H 482.667 -5.27514 -1.62584 0
M  V30 5179 H 485.143 -3.46915 -2.2976 0
M  V30 5180 H 484.019 -4.3161 -3.39122 0
M  V30 5181 H 484.28 -2.58968 -3.58313 0
M  V30 5182 N 483.339 0.512053 -1.4905 0
M  V30 5183 C 484.269 1.62365 -1.67809 0
M  V30 5184 C 485.25 1.61737 -0.526809 0
M  V30 5185 O 486.435 1.78651 -0.761404 0
M  V30 5186 C 483.565 3.00895 -1.73435 0
M  V30 5187 C 482.519 3.16387 -2.88242 0
M  V30 5188 C 481.845 4.56157 -2.78971 0
M  V30 5189 C 483.145 2.97457 -4.29321 0
M  V30 5190 H 484.839 1.46921 -2.60873 0
M  V30 5191 H 482.385 0.705379 -1.2554 0
M  V30 5192 H 484.338 3.78549 -1.85145 0
M  V30 5193 H 483.062 3.17403 -0.769619 0
M  V30 5194 H 481.721 2.41155 -2.76116 0
M  V30 5195 H 481.369 4.69525 -1.8043 0
M  V30 5196 H 481.069 4.67465 -3.5602 0
M  V30 5197 H 482.593 5.35886 -2.92675 0
M  V30 5198 H 484.007 3.64888 -4.42187 0
M  V30 5199 H 482.404 3.20245 -5.07507 0
M  V30 5200 H 483.474 1.93692 -4.44535 0
M  V30 5201 N 484.817 1.37938 0.762283 0
M  V30 5202 C 485.727 1.36681 1.90671 0
M  V30 5203 C 486.743 0.265078 1.71969 0
M  V30 5204 O 487.919 0.502055 1.95042 0
M  V30 5205 C 484.984 1.18211 3.25925 0
M  V30 5206 C 484.045 2.3811 3.57214 0
M  V30 5207 C 483.278 2.20512 4.86014 0
M  V30 5208 O 483.501 1.19429 5.57757 0
M  V30 5209 O 482.435 3.08911 5.16583 0
M  V30 5210 H 486.261 2.33091 1.94685 0
M  V30 5211 H 483.846 1.18767 0.906356 0
M  V30 5212 H 485.728 1.09937 4.06807 0
M  V30 5213 H 484.403 0.248807 3.22742 0
M  V30 5214 H 483.31 2.51958 2.76529 0
M  V30 5215 H 484.643 3.30041 3.65149 0
M  V30 5216 N 486.295 -0.989507 1.22664 0
M  V30 5217 C 487.711 -1.25395 0.987331 0
M  V30 5218 C 487.911 -1.9899 -0.317056 0
M  V30 5219 O 486.967 -2.30141 -1.03882 0
M  V30 5220 C 488.28 -2.06242 2.18826 0
M  V30 5221 C 489.828 -2.19413 2.23219 0
M  V30 5222 C 490.303 -3.03648 3.42873 0
M  V30 5223 N 491.794 -3.11234 3.43056 0
M  V30 5224 C 492.529 -3.7671 4.32293 0
M  V30 5225 N 492.025 -4.44085 5.31752 0
M  V30 5226 N 493.818 -3.73505 4.2006 0
M  V30 5227 H 485.969 -0.496212 2.06522 0
M  V30 5228 H 488.232 -0.281784 0.905153 0
M  V30 5229 H 487.938 -1.59531 3.13437 0
M  V30 5230 H 487.812 -3.06996 2.19165 0
M  V30 5231 H 490.199 -2.65336 1.29154 0
M  V30 5232 H 490.28 -1.18078 2.26917 0
M  V30 5233 H 489.924 -2.58424 4.37241 0
M  V30 5234 H 489.854 -4.05132 3.36416 0
M  V30 5235 H 492.345 -2.63287 2.71088 0
M  V30 5236 H 492.658 -4.91797 5.96117 0
M  V30 5237 H 491.003 -4.42822 5.35662 0
M  V30 5238 H 494.194 -3.20033 3.41609 0
M  V30 5239 H 494.367 -4.24253 4.8981 0
M  V30 5240 N 487.773 -1.03688 -1.18687 0
M  V30 5241 C 489.05 -0.652397 -1.84399 0
M  V30 5242 C 489.43 0.868386 -1.92412 0
M  V30 5243 O 488.778 1.76832 -1.44716 0
M  V30 5244 C 488.988 -1.3238 -3.22919 0
M  V30 5245 C 490.336 -1.45216 -3.98996 0
M  V30 5246 O 491.36 -1.2816 -3.32345 0
M  V30 5247 O 490.219 -1.72975 -5.18403 0
M  V30 5248 H 487.313 -0.227793 -0.795009 0
M  V30 5249 H 489.859 -1.13553 -1.2611 0
M  V30 5250 H 488.631 -2.36202 -3.11968 0
M  V30 5251 H 488.254 -0.829039 -3.88861 0
M  V30 5252 N 489.251 1.34841 -0.815825 0
M  V30 5253 C 490.198 2.29644 -0.230664 0
M  V30 5254 C 491.168 1.53253 0.640533 0
M  V30 5255 O 492.353 1.81653 0.583672 0
M  V30 5256 C 489.493 3.39715 0.607275 0
M  V30 5257 C 488.606 4.31056 -0.28538 0
M  V30 5258 C 487.741 5.28225 0.561446 0
M  V30 5259 C 486.78 6.11204 -0.331035 0
M  V30 5260 N 485.917 7.00483 0.476302 0
M  V30 5261 H 490.757 2.79095 -1.0445 0
M  V30 5262 H 488.294 1.37351 -0.526595 0
M  V30 5263 H 490.252 4.02208 1.10835 0
M  V30 5264 H 488.882 2.91517 1.38629 0
M  V30 5265 H 487.934 3.69487 -0.904621 0
M  V30 5266 H 489.246 4.89239 -0.97193 0
M  V30 5267 H 488.4 5.96135 1.12728 0
M  V30 5268 H 487.139 4.70562 1.28153 0
M  V30 5269 H 486.144 5.42232 -0.909069 0
M  V30 5270 H 487.369 6.70947 -1.04912 0
M  V30 5271 H 485.315 6.45296 1.18019 0
M  V30 5272 H 485.232 7.55847 -0.152008 0
M  V30 5273 H 486.5 7.7273 1.02512 0
M  V30 5274 N 490.729 0.570148 1.46925 0
M  V30 5275 C 491.975 0.0510284 2.02736 0
M  V30 5276 C 492.308 -1.3006 1.44215 0
M  V30 5277 O 491.583 -1.84932 0.602521 0
M  V30 5278 C 491.866 -0.028215 3.60089 0
M  V30 5279 C 491.719 1.35142 4.29018 0
M  V30 5280 C 493.038 -0.735181 4.33916 0
M  V30 5281 H 490.157 0.0200178 0.736728 0
M  V30 5282 H 492.799 0.73493 1.75211 0
M  V30 5283 H 490.949 -0.610648 3.83671 0
M  V30 5284 H 492.621 1.97806 4.16738 0
M  V30 5285 H 490.864 1.9226 3.88868 0
M  V30 5286 H 491.535 1.24857 5.37694 0
M  V30 5287 H 494.011 -0.240519 4.15404 0
M  V30 5288 H 492.887 -0.759622 5.43618 0
M  V30 5289 H 493.148 -1.79397 4.04066 0
M  V30 5290 N 492.207 -1.54576 0.307264 0
M  V30 5291 C 493.435 -2.04675 -0.302597 0
M  V30 5292 C 493.85 -1.18425 -1.47041 0
M  V30 5293 O 493.207 -0.211257 -1.81273 0
M  V30 5294 C 493.258 -3.53575 -0.752801 0
M  V30 5295 O 492.979 -4.36547 0.368536 0
M  V30 5296 C 494.48 -4.19699 -1.42717 0
M  V30 5297 H 491.7 -0.66786 -0.0648374 0
M  V30 5298 H 494.244 -1.99516 0.448716 0
M  V30 5299 H 492.399 -3.59074 -1.45412 0
M  V30 5300 H 492.813 -5.24497 0.0168937 0
M  V30 5301 H 494.287 -5.25388 -1.69327 0
M  V30 5302 H 494.764 -3.69815 -2.36925 0
M  V30 5303 H 495.37 -4.18293 -0.768856 0
M  V30 5304 N 493.685 -0.035106 -1.57561 0
M  V30 5305 C 494.617 0.973604 -2.07494 0
M  V30 5306 C 495.63 1.28504 -0.999534 0
M  V30 5307 O 496.819 1.24864 -1.27559 0
M  V30 5308 C 493.919 2.29945 -2.48955 0
M  V30 5309 C 493.092 2.1723 -3.79644 0
M  V30 5310 C 492.151 3.328 -4.07592 0
M  V30 5311 O 491.177 3.09418 -4.77754 0
M  V30 5312 N 492.379 4.56779 -3.58236 0
M  V30 5313 H 495.144 0.547525 -2.94656 0
M  V30 5314 H 492.705 0.151515 -1.61189 0
M  V30 5315 H 494.697 3.06097 -2.64739 0
M  V30 5316 H 493.267 2.64173 -1.67126 0
M  V30 5317 H 492.487 1.25768 -3.73599 0
M  V30 5318 H 493.775 2.05945 -4.65257 0
M  V30 5319 H 493.173 4.78668 -3.01485 0
M  V30 5320 H 491.73 5.30079 -3.79288 0
M  V30 5321 N 495.163 1.55791 0.238111 0
M  V30 5322 C 496.093 1.94068 1.29846 0
M  V30 5323 C 497.074 0.806726 1.49753 0
M  V30 5324 O 498.259 1.06772 1.62214 0
M  V30 5325 C 495.389 2.24302 2.65153 0
M  V30 5326 C 494.343 3.40032 2.59927 0
M  V30 5327 C 493.669 3.55829 3.99111 0
M  V30 5328 C 494.969 4.75476 2.16148 0
M  V30 5329 H 496.663 2.82887 0.980563 0
M  V30 5330 H 494.209 1.36105 0.470253 0
M  V30 5331 H 496.162 2.4967 3.39475 0
M  V30 5332 H 494.886 1.32318 2.98596 0
M  V30 5333 H 493.545 3.14687 1.88063 0
M  V30 5334 H 493.193 2.6125 4.29834 0
M  V30 5335 H 492.893 4.3366 3.96501 0
M  V30 5336 H 494.417 3.83528 4.7512 0
M  V30 5337 H 495.831 5.00158 2.80205 0
M  V30 5338 H 494.228 5.56472 2.24631 0
M  V30 5339 H 495.298 4.71946 1.11333 0
M  V30 5340 N 496.642 -0.504142 1.49319 0
M  V30 5341 C 497.572 -1.61473 1.68667 0
M  V30 5342 C 498.553 -1.61455 0.535378 0
M  V30 5343 O 499.738 -1.78245 0.770868 0
M  V30 5344 C 496.868 -2.99971 1.75028 0
M  V30 5345 C 495.822 -3.14854 2.89916 0
M  V30 5346 C 495.148 -4.54671 2.81387 0
M  V30 5347 C 496.448 -2.95176 4.30893 0
M  V30 5348 H 498.142 -1.45535 2.61648 0
M  V30 5349 H 495.688 -0.698711 1.25913 0
M  V30 5350 H 497.641 -3.77562 1.8715 0
M  V30 5351 H 496.365 -3.1699 0.786441 0
M  V30 5352 H 495.024 -2.39687 2.77391 0
M  V30 5353 H 494.672 -4.68562 1.82917 0
M  V30 5354 H 494.372 -4.6557 3.58494 0
M  V30 5355 H 495.896 -5.34327 2.95512 0
M  V30 5356 H 497.31 -3.62538 4.44116 0
M  V30 5357 H 495.707 -3.17549 5.09198 0
M  V30 5358 H 496.777 -1.91332 4.45556 0
M  V30 5359 N 498.12 -1.38341 -0.754957 0
M  V30 5360 C 499.05 -1.38176 -1.88227 0
M  V30 5361 C 500.031 -0.247873 -1.68284 0
M  V30 5362 O 501.216 -0.45075 -1.88896 0
M  V30 5363 C 498.346 -1.20471 -3.25736 0
M  V30 5364 C 497.3 -2.3105 -3.60278 0
M  V30 5365 C 496.626 -1.98452 -4.96509 0
M  V30 5366 C 497.926 -3.73305 -3.65295 0
M  V30 5367 H 499.62 -2.32512 -1.88622 0
M  V30 5368 H 497.166 -1.1192 -0.906082 0
M  V30 5369 H 499.119 -1.18982 -4.04254 0
M  V30 5370 H 497.843 -0.225965 -3.25817 0
M  V30 5371 H 496.502 -2.31723 -2.84078 0
M  V30 5372 H 496.15 -0.990641 -4.93148 0
M  V30 5373 H 495.85 -2.7251 -5.20588 0
M  V30 5374 H 497.374 -1.98578 -5.77407 0
M  V30 5375 H 498.788 -3.7467 -4.3393 0
M  V30 5376 H 497.185 -4.46557 -4.00883 0
M  V30 5377 H 498.255 -4.05719 -2.65556 0
M  V30 5378 N 499.598 0.982988 -1.23187 0
M  V30 5379 C 500.53 2.07729 -0.968572 0
M  V30 5380 C 501.543 1.62702 0.0564821 0
M  V30 5381 O 502.732 1.77603 -0.178733 0
M  V30 5382 C 499.832 3.36071 -0.436974 0
M  V30 5383 C 499.005 4.10081 -1.52159 0
M  V30 5384 C 498.064 5.16701 -0.99532 0
M  V30 5385 O 497.09 5.43727 -1.68373 0
M  V30 5386 N 498.292 5.80226 0.178192 0
M  V30 5387 H 501.057 2.30894 -1.9107 0
M  V30 5388 H 498.618 1.14949 -1.1401 0
M  V30 5389 H 500.61 4.04639 -0.0700051 0
M  V30 5390 H 499.18 3.09893 0.410509 0
M  V30 5391 H 498.4 3.36004 -2.06144 0
M  V30 5392 H 499.688 4.56295 -2.25105 0
M  V30 5393 H 499.086 5.60651 0.754096 0
M  V30 5394 H 497.643 6.49982 0.486449 0
M  V30 5395 N 501.076 1.04316 1.18135 0
M  V30 5396 C 502.008 0.594444 2.21357 0
M  V30 5397 C 503.021 -0.337215 1.59269 0
M  V30 5398 O 504.21 -0.131337 1.78016 0
M  V30 5399 C 501.31 -0.151251 3.38562 0
M  V30 5400 C 500.483 0.788907 4.30227 0
M  V30 5401 C 499.542 0.0860572 5.2613 0
M  V30 5402 O 498.568 0.717302 5.64662 0
M  V30 5403 N 499.77 -1.17969 5.68387 0
M  V30 5404 H 502.535 1.48227 2.60478 0
M  V30 5405 H 500.096 0.92396 1.32946 0
M  V30 5406 H 502.088 -0.631352 3.99745 0
M  V30 5407 H 500.658 -0.940639 2.98112 0
M  V30 5408 H 499.878 1.44882 3.6661 0
M  V30 5409 H 501.166 1.42738 4.88368 0
M  V30 5410 H 500.564 -1.71302 5.3914 0
M  V30 5411 H 499.121 -1.60402 6.31755 0
M  V30 5412 N 502.554 -1.34406 0.822964 0
M  V30 5413 C 503.831 -1.92733 0.333641 0
M  V30 5414 C 504.211 -1.75107 -1.17901 0
M  V30 5415 O 503.559 -1.12983 -1.98613 0
M  V30 5416 C 503.769 -3.40557 0.763023 0
M  V30 5417 C 505.117 -4.17709 0.761879 0
M  V30 5418 O 506.141 -3.49141 0.705606 0
M  V30 5419 O 505 -5.40082 0.835109 0
M  V30 5420 H 502.094 -0.821964 0.0911249 0
M  V30 5421 H 504.64 -1.4338 0.907757 0
M  V30 5422 H 503.412 -3.47187 1.8049 0
M  V30 5423 H 503.035 -3.97259 0.164605 0
M  V30 5424 N 504.032 -0.577932 -1.46621 0
M  V30 5425 C 504.979 0.158048 -2.30258 0
M  V30 5426 C 505.949 0.888669 -1.40328 0
M  V30 5427 O 507.134 0.880283 -1.6928 0
M  V30 5428 C 504.274 1.16884 -3.24703 0
M  V30 5429 C 503.387 0.442163 -4.29731 0
M  V30 5430 C 502.522 1.44007 -5.11308 0
M  V30 5431 C 501.561 0.69952 -6.0809 0
M  V30 5432 N 500.698 1.64525 -6.82551 0
M  V30 5433 H 505.538 -0.561242 -2.92667 0
M  V30 5434 H 503.075 -0.288591 -1.44241 0
M  V30 5435 H 505.033 1.7677 -3.779 0
M  V30 5436 H 503.663 1.85591 -2.64113 0
M  V30 5437 H 502.715 -0.271632 -3.79429 0
M  V30 5438 H 504.027 -0.136992 -4.98612 0
M  V30 5439 H 503.181 2.11186 -5.68758 0
M  V30 5440 H 501.92 2.05315 -4.42377 0
M  V30 5441 H 500.925 0.0139217 -5.49798 0
M  V30 5442 H 502.15 0.091894 -6.79038 0
M  V30 5443 H 500.096 2.24653 -6.16334 0
M  V30 5444 H 500.013 1.11878 -7.47676 0
M  V30 5445 H 501.281 2.30754 -7.44562 0
M  V30 5446 N 505.51 1.54411 -0.315457 0
M  V30 5447 C 506.756 2.00716 0.289972 0
M  V30 5448 C 507.089 1.2034 1.5242 0
M  V30 5449 O 506.364 0.283579 1.92422 0
M  V30 5450 C 506.647 3.54507 0.632196 0
M  V30 5451 C 506.5 4.45615 -0.61218 0
M  V30 5452 C 507.819 4.15421 1.45305 0
M  V30 5453 H 504.938 0.729637 0.10392 0
M  V30 5454 H 507.58 1.8506 -0.430427 0
M  V30 5455 H 505.73 3.67979 1.24595 0
M  V30 5456 H 507.402 4.44026 -1.25053 0
M  V30 5457 H 505.645 4.15621 -1.24264 0
M  V30 5458 H 506.316 5.51022 -0.328379 0
M  V30 5459 H 508.792 4.05474 0.934331 0
M  V30 5460 H 507.668 5.23157 1.66127 0
M  V30 5461 H 507.929 3.68223 2.44671 0
M  V30 5462 N 506.988 0.0434614 1.5754 0
M  V30 5463 C 508.399 -0.493343 1.80064 0
M  V30 5464 C 508.75 -1.71388 0.955023 0
M  V30 5465 O 507.875 -2.15736 0.169434 0
M  V30 5466 C 508.47 -0.90179 3.26578 0
M  V30 5467 C 507.029 -1.38362 3.50047 0
M  V30 5468 C 506.176 -0.355129 2.75017 0
M  V30 5469 H 509.127 0.2694 1.56397 0
M  V30 5470 H 509.148 -1.76523 3.37075 0
M  V30 5471 H 508.66 -0.013271 3.88098 0
M  V30 5472 H 506.761 -2.29159 2.93798 0
M  V30 5473 H 506.874 -1.3811 4.58762 0
M  V30 5474 H 505.238 -0.826348 2.40922 0
M  V30 5475 H 506.021 0.525172 3.39259 0
M  V30 5476 N 508.466 -1.55915 -0.229846 0
M  V30 5477 C 509.376 -1.94891 -1.30593 0
M  V30 5478 C 510.392 -0.851604 -1.51736 0
M  V30 5479 O 511.568 -1.15447 -1.65027 0
M  V30 5480 C 508.633 -2.25052 -2.63728 0
M  V30 5481 C 507.694 -3.48306 -2.5096 0
M  V30 5482 C 506.927 -3.77019 -3.77747 0
M  V30 5483 O 507.15 -3.07534 -4.80395 0
M  V30 5484 O 506.084 -4.70523 -3.75356 0
M  V30 5485 H 509.91 -2.86581 -1.00525 0
M  V30 5486 H 507.495 -1.43017 -0.432025 0
M  V30 5487 H 509.377 -2.45682 -3.42372 0
M  V30 5488 H 508.052 -1.36538 -2.93495 0
M  V30 5489 H 506.959 -3.32964 -1.70546 0
M  V30 5490 H 508.292 -4.37177 -2.26136 0
M  V30 5491 N 509.944 0.496216 -1.49584 0
M  V30 5492 C 511.355 1.07765 -1.52459 0
M  V30 5493 C 511.706 1.93679 -0.31353 0
M  V30 5494 O 510.831 2.08588 0.576186 0
M  V30 5495 C 511.426 1.96111 -2.76271 0
M  V30 5496 C 509.985 2.49409 -2.81908 0
M  V30 5497 C 509.132 1.27142 -2.46435 0
M  V30 5498 H 512.083 0.279914 -1.56212 0
M  V30 5499 H 512.104 2.80862 -2.56704 0
M  V30 5500 H 511.616 1.33555 -3.64396 0
M  V30 5501 H 509.717 3.1559 -1.98074 0
M  V30 5502 H 509.83 2.86234 -3.84196 0
M  V30 5503 H 508.194 1.59818 -1.98319 0
M  V30 5504 H 508.977 0.662866 -3.3684 0
M  V30 5505 N 511.423 1.38739 0.74761 0
M  V30 5506 C 512.386 1.36241 1.84312 0
M  V30 5507 C 513.386 0.261811 1.58654 0
M  V30 5508 O 514.576 0.519031 1.66288 0
M  V30 5509 C 511.708 1.12253 3.21888 0
M  V30 5510 H 512.901 2.33712 1.87933 0
M  V30 5511 H 510.454 1.2412 0.949946 0
M  V30 5512 H 511.189 0.154133 3.23934 0
M  V30 5513 H 510.974 1.91943 3.41907 0
M  V30 5514 H 512.464 1.13215 4.0196 0
M  V30 5515 N 512.901 -0.976442 1.23707 0
M  V30 5516 C 514.126 -1.75875 1.09922 0
M  V30 5517 C 514.551 -1.84911 -0.34489 0
M  V30 5518 O 513.909 -1.31363 -1.24954 0
M  V30 5519 C 513.957 -3.16179 1.73388 0
M  V30 5520 O 513.061 -4.00124 0.99871 0
M  V30 5521 H 512.402 -0.540954 0.385052 0
M  V30 5522 H 514.932 -1.22546 1.6384 0
M  V30 5523 H 514.942 -3.66741 1.78788 0
M  V30 5524 H 513.617 -3.08917 2.78466 0
M  V30 5525 H 512.194 -3.58624 1.02193 0
M  V30 5526 N 514.379 -1.04941 -1.1758 0
M  V30 5527 C 515.309 -0.669172 -2.23706 0
M  V30 5528 C 516.29 0.331835 -1.66832 0
M  V30 5529 O 517.475 0.209988 -1.93061 0
M  V30 5530 C 514.605 -0.0404889 -3.47276 0
M  V30 5531 C 513.559 -0.965983 -4.16957 0
M  V30 5532 C 512.885 -0.201312 -5.34321 0
M  V30 5533 C 514.185 -2.28902 -4.69469 0
M  V30 5534 H 515.879 -1.55639 -2.55767 0
M  V30 5535 H 513.425 -0.749793 -1.22939 0
M  V30 5536 H 515.378 0.237298 -4.20731 0
M  V30 5537 H 514.102 0.881658 -3.14475 0
M  V30 5538 H 512.761 -1.22829 -3.45411 0
M  V30 5539 H 512.409 0.723519 -4.97769 0
M  V30 5540 H 512.109 -0.817968 -5.81879 0
M  V30 5541 H 513.633 0.0692499 -6.10561 0
M  V30 5542 H 515.047 -2.07132 -5.34574 0
M  V30 5543 H 513.444 -2.85942 -5.27596 0
M  V30 5544 H 514.514 -2.92937 -3.86414 0
M  V30 5545 N 515.857 1.33968 -0.830081 0
M  V30 5546 C 517.082 2.02813 -0.433796 0
M  V30 5547 C 517.507 1.62076 0.954614 0
M  V30 5548 O 516.865 0.808955 1.62252 0
M  V30 5549 C 516.913 3.56348 -0.552115 0
M  V30 5550 O 516.017 4.10202 0.425191 0
M  V30 5551 H 515.358 0.639817 -0.177567 0
M  V30 5552 H 517.888 1.7106 -1.12248 0
M  V30 5553 H 517.898 4.05722 -0.430513 0
M  V30 5554 H 516.573 3.85344 -1.56471 0
M  V30 5555 H 515.15 3.71979 0.261878 0
M  V30 5556 N 517.335 0.585699 1.46312 0
M  V30 5557 C 518.56 0.0762461 2.0726 0
M  V30 5558 C 518.985 -1.22071 1.43109 0
M  V30 5559 O 518.343 -1.73804 0.515942 0
M  V30 5560 C 518.391 -0.0729404 3.60526 0
M  V30 5561 O 517.495 -1.1287 3.96654 0
M  V30 5562 H 516.836 0.0641558 0.660893 0
M  V30 5563 H 519.366 0.809492 1.87905 0
M  V30 5564 H 519.376 -0.278158 4.07051 0
M  V30 5565 H 518.051 0.874188 4.06609 0
M  V30 5566 H 516.628 -0.901703 3.61834 0
M  V30 5567 N 518.813 -1.54241 0.323641 0
M  V30 5568 C 519.761 -2.25813 -0.557804 0
M  V30 5569 C 520.755 -1.27225 -1.11849 0
M  V30 5570 O 521.961 -1.45001 -1.06652 0
M  V30 5571 H 518.336 -0.72532 -0.198532 0
M  V30 5572 H 520.307 -2.98322 0.0681112 0
M  V30 5573 C 519.056 -3.02913 -1.70701 0
M  V30 5574 H 518.379 -3.78593 -1.28482 0
M  V30 5575 H 519.819 -3.56238 -2.29935 0
M  V30 5576 C 518.278 -2.11217 -2.62467 0
M  V30 5577 O 518.808 -1.69508 -3.64184 0
M  V30 5578 N 517.014 -1.76704 -2.30703 0
M  V30 5579 H 516.561 -2.1082 -1.48029 0
M  V30 5580 H 516.519 -1.15631 -2.92364 0
M  V30 5581 N 520.291 -0.0518155 -1.57515 0
M  V30 5582 C 521.241 0.932017 -2.0808 0
M  V30 5583 C 522.225 1.27141 -0.986098 0
M  V30 5584 O 523.417 1.25373 -1.24943 0
M  V30 5585 C 520.546 2.20665 -2.62986 0
M  V30 5586 C 519.632 1.89462 -3.79427 0
M  V30 5587 N 520.023 1.28621 -4.89173 0
M  V30 5588 C 518.321 2.19327 -3.88345 0
M  V30 5589 C 519.022 1.15062 -5.70207 0
M  V30 5590 N 517.998 1.65372 -5.17835 0
M  V30 5591 H 521.8 0.456964 -2.90326 0
M  V30 5592 H 519.314 0.152619 -1.61681 0
M  V30 5593 H 521.311 2.92044 -2.97516 0
M  V30 5594 H 519.971 2.68776 -1.8218 0
M  V30 5595 H 520.982 0.958341 -5.08956 0
M  V30 5596 H 517.659 2.69955 -3.18482 0
M  V30 5597 H 519.049 0.678243 -6.68468 0
M  V30 5598 N 521.769 1.56035 0.221574 0
M  V30 5599 C 522.994 1.83476 0.967026 0
M  V30 5600 C 523.419 0.632139 1.7716 0
M  V30 5601 O 522.777 -0.419082 1.7639 0
M  V30 5602 C 522.825 3.08907 1.86034 0
M  V30 5603 O 521.929 2.876 2.95567 0
M  V30 5604 H 521.27 0.604913 0.273817 0
M  V30 5605 H 523.8 2.03247 0.234893 0
M  V30 5606 H 523.81 3.3901 2.27016 0
M  V30 5607 H 522.485 3.96068 1.26898 0
M  V30 5608 H 521.062 2.6873 2.58532 0
M  V30 5609 N 523.247 -0.488276 1.49845 0
M  V30 5610 C 524.177 -1.59675 1.70371 0
M  V30 5611 C 525.158 -1.60878 0.552473 0
M  V30 5612 O 526.343 -1.77417 0.78973 0
M  V30 5613 C 523.473 -2.98098 1.782 0
M  V30 5614 C 522.427 -3.11761 2.93239 0
M  V30 5615 C 521.753 -4.51661 2.86193 0
M  V30 5616 C 523.053 -2.90589 4.33999 0
M  V30 5617 H 524.747 -1.42752 2.63177 0
M  V30 5618 H 522.293 -0.685317 1.26647 0
M  V30 5619 H 524.246 -3.75555 1.91144 0
M  V30 5620 H 522.97 -3.16138 0.820018 0
M  V30 5621 H 521.629 -2.36732 2.79917 0
M  V30 5622 H 521.277 -4.66595 1.87877 0
M  V30 5623 H 520.977 -4.61742 3.63412 0
M  V30 5624 H 522.501 -5.31162 3.01163 0
M  V30 5625 H 523.915 -3.57807 4.47936 0
M  V30 5626 H 522.312 -3.1213 5.12538 0
M  V30 5627 H 523.382 -1.86595 4.4756 0
M  V30 5628 N 524.725 -1.39134 -0.740242 0
M  V30 5629 C 525.953 -1.39334 -1.5295 0
M  V30 5630 C 526.368 0.0135008 -1.88795 0
M  V30 5631 O 525.725 0.983524 -1.5373 0
M  V30 5632 C 525.776 -2.2614 -2.82034 0
M  V30 5633 O 525.497 -3.61345 -2.47712 0
M  V30 5634 C 526.998 -2.34666 -3.76094 0
M  V30 5635 H 524.218 -0.476103 -0.472828 0
M  V30 5636 H 526.762 -1.82883 -0.9151 0
M  V30 5637 H 524.917 -1.86018 -3.39818 0
M  V30 5638 H 525.331 -4.07194 -3.30595 0
M  V30 5639 H 526.805 -2.99663 -4.63579 0
M  V30 5640 H 527.282 -1.36426 -4.17474 0
M  V30 5641 H 527.888 -2.75236 -3.2423 0
M  V30 5642 N 526.204 0.969867 -1.24223 0
M  V30 5643 C 527.429 1.75289 -1.10853 0
M  V30 5644 C 527.854 1.85091 0.335079 0
M  V30 5645 O 527.212 1.32024 1.24255 0
M  V30 5646 C 527.26 3.15255 -1.75062 0
M  V30 5647 O 526.364 3.99589 -1.01992 0
M  V30 5648 H 525.705 0.538904 -0.387915 0
M  V30 5649 H 528.235 1.21675 -1.64488 0
M  V30 5650 H 528.245 3.65787 -1.80731 0
M  V30 5651 H 526.92 3.07436 -2.801 0
M  V30 5652 H 525.497 3.58077 -1.04094 0
M  V30 5653 N 527.682 1.05563 1.17022 0
M  V30 5654 C 528.922 0.777033 1.89054 0
M  V30 5655 C 529.286 -0.683617 1.79418 0
M  V30 5656 O 530.487 -1.07648 2.46303 0
M  V30 5657 C 528.758 1.24886 3.34871 0
M  V30 5658 S 530.317 1.0982 4.24835 0
M  V30 5659 H 527.135 0.282082 0.652649 0
M  V30 5660 H 529.737 1.35103 1.41306 0
M  V30 5661 H 528.441 2.30699 3.3942 0
M  V30 5662 H 527.972 0.669292 3.87665 0
M  V30 5663 H 529.987 0.02462 4.96194 0
M  V30 5664 N 529.16 -1.33526 0.837174 0
M  V30 5665 C 530.407 -1.97837 0.432064 0
M  V30 5666 C 530.735 -1.66324 -1.00829 0
M  V30 5667 O 529.99 -0.93448 -1.71948 0
M  V30 5668 C 530.289 -3.52367 0.597675 0
M  V30 5669 C 529.955 -4.03826 2.00587 0
M  V30 5670 C 528.617 -4.1759 2.39106 0
M  V30 5671 C 530.969 -4.31333 2.92576 0
M  V30 5672 C 528.297 -4.56195 3.68921 0
M  V30 5673 C 530.649 -4.7139 4.2187 0
M  V30 5674 C 529.313 -4.8336 4.60347 0
M  V30 5675 H 528.583 -0.723937 0.158104 0
M  V30 5676 H 531.23 -1.5923 1.06387 0
M  V30 5677 H 529.535 -3.91624 -0.117452 0
M  V30 5678 H 531.232 -4.00126 0.26454 0
M  V30 5679 H 527.822 -3.93586 1.69671 0
M  V30 5680 H 532.006 -4.20224 2.64056 0
M  V30 5681 H 527.262 -4.63655 3.9854 0
M  V30 5682 H 531.436 -4.91631 4.93226 0
M  V30 5683 H 529.063 -5.1303 5.60985 0
M  V30 5684 N 530.638 -0.59345 -1.46 0
M  V30 5685 C 531.866 -0.0890934 -2.06708 0
M  V30 5686 C 532.281 1.2205 -1.44046 0
M  V30 5687 O 531.638 1.74029 -0.549551 0
M  V30 5688 C 531.689 0.0720263 -3.61428 0
M  V30 5689 O 531.41 -1.18574 -4.21748 0
M  V30 5690 C 532.911 0.609487 -4.3909 0
M  V30 5691 H 530.131 -0.0623628 -0.668096 0
M  V30 5692 H 532.675 -0.817171 -1.87464 0
M  V30 5693 H 530.83 0.750369 -3.80063 0
M  V30 5694 H 531.244 -1.0064 -5.14754 0
M  V30 5695 H 532.718 0.671363 -5.47902 0
M  V30 5696 H 533.195 1.62878 -4.07882 0
M  V30 5697 H 533.801 -0.03434 -4.25286 0
M  V30 5698 N 532.116 1.54067 -0.331816 0
M  V30 5699 C 533.064 2.26105 0.54582 0
M  V30 5700 C 534.058 1.27816 1.11173 0
M  V30 5701 O 535.264 1.45565 1.05882 0
M  V30 5702 H 531.639 0.726363 0.194683 0
M  V30 5703 H 533.61 2.98282 -0.083931 0
M  V30 5704 C 532.359 3.03814 1.69092 0
M  V30 5705 H 531.682 3.79269 1.26473 0
M  V30 5706 H 533.122 3.57453 2.28043 0
M  V30 5707 C 531.581 2.12606 2.61343 0
M  V30 5708 O 532.111 1.71437 3.6328 0
M  V30 5709 N 530.317 1.77925 2.29763 0
M  V30 5710 H 529.864 2.11602 1.46909 0
M  V30 5711 H 529.822 1.1718 2.91747 0
M  V30 5712 N 533.594 0.0601682 1.57485 0
M  V30 5713 C 534.526 -0.94047 2.09016 0
M  V30 5714 C 535.539 -1.26897 1.01985 0
M  V30 5715 O 536.728 -1.22819 1.29529 0
M  V30 5716 C 533.828 -2.25955 2.52582 0
M  V30 5717 C 533.001 -2.11163 3.83052 0
M  V30 5718 C 532.06 -3.26273 4.12835 0
M  V30 5719 O 531.086 -3.01779 4.82616 0
M  V30 5720 N 532.288 -4.51022 3.65458 0
M  V30 5721 H 535.053 -0.500578 2.9549 0
M  V30 5722 H 532.614 -0.125852 1.6141 0
M  V30 5723 H 534.606 -3.01846 2.69575 0
M  V30 5724 H 533.176 -2.61481 1.71308 0
M  V30 5725 H 532.396 -1.19808 3.75552 0
M  V30 5726 H 533.684 -1.98517 4.68475 0
M  V30 5727 H 533.082 -4.73811 3.09062 0
M  V30 5728 H 531.639 -5.23978 3.87673 0
M  V30 5729 N 535.072 -1.5615 -0.213296 0
M  V30 5730 C 536.32 -1.79191 -0.934612 0
M  V30 5731 C 536.641 -0.630112 -1.84539 0
M  V30 5732 O 535.911 0.35257 -1.92701 0
M  V30 5733 H 534.491 -0.660937 -0.348097 0
M  V30 5734 H 537.153 -1.93618 -0.22317 0
M  V30 5735 H 536.249 -2.71656 -1.53654 0
M  V30 5736 N 536.55 0.480323 -1.50102 0
M  V30 5737 C 537.78 1.25475 -1.64133 0
M  V30 5738 C 538.188 1.8647 -0.320272 0
M  V30 5739 O 537.531 1.69561 0.70673 0
M  V30 5740 C 537.593 2.40996 -2.6676 0
M  V30 5741 C 537.257 2.00711 -4.10565 0
M  V30 5742 C 538.254 1.53492 -4.96725 0
M  V30 5743 C 535.939 2.09714 -4.56427 0
M  V30 5744 C 537.933 1.15806 -6.26792 0
M  V30 5745 C 535.62 1.7164 -5.86501 0
M  V30 5746 C 536.618 1.24763 -6.71508 0
M  V30 5747 O 536.306 0.872122 -7.99155 0
M  V30 5748 H 536.038 0.385983 -0.554971 0
M  V30 5749 H 538.592 0.580848 -1.97016 0
M  V30 5750 H 536.822 3.11528 -2.291 0
M  V30 5751 H 538.511 3.02981 -2.70106 0
M  V30 5752 H 539.277 1.45966 -4.62514 0
M  V30 5753 H 535.156 2.4515 -3.90413 0
M  V30 5754 H 538.7 0.791465 -6.93096 0
M  V30 5755 H 534.597 1.78822 -6.20236 0
M  V30 5756 H 535.365 1.00178 -8.12346 0
M  V30 5757 N 538.028 1.39524 0.732853 0
M  V30 5758 C 539.275 1.36865 1.49246 0
M  V30 5759 C 539.603 -0.0347118 1.94469 0
M  V30 5760 O 538.858 -1.01596 1.67262 0
M  V30 5761 C 539.157 2.28916 2.74468 0
M  V30 5762 C 538.823 3.76506 2.481 0
M  V30 5763 C 537.485 4.16721 2.40619 0
M  V30 5764 C 539.837 4.69846 2.25598 0
M  V30 5765 C 537.165 5.48334 2.08679 0
M  V30 5766 C 539.517 6.01739 1.95174 0
M  V30 5767 C 538.181 6.41015 1.86163 0
M  V30 5768 H 537.451 0.500824 0.546129 0
M  V30 5769 H 540.098 1.72047 0.840958 0
M  V30 5770 H 538.403 1.86859 3.4437 0
M  V30 5771 H 540.1 2.2415 3.32502 0
M  V30 5772 H 536.69 3.44635 2.54803 0
M  V30 5773 H 540.874 4.39608 2.30344 0
M  V30 5774 H 536.13 5.77685 2.00226 0
M  V30 5775 H 540.304 6.73591 1.76771 0
M  V30 5776 H 537.931 7.42917 1.61179 0
M  V30 5777 N 539.506 -0.963266 1.24736 0
M  V30 5778 C 540.753 -1.7068 1.0897 0
M  V30 5779 C 541.081 -1.90934 -0.370751 0
M  V30 5780 O 540.336 -1.47155 -1.29011 0
M  V30 5781 C 540.635 -3.09944 1.7796 0
M  V30 5782 C 540.301 -3.09518 3.27887 0
M  V30 5783 C 538.963 -3.09109 3.68789 0
M  V30 5784 C 541.315 -3.03509 4.23712 0
M  V30 5785 C 538.643 -3.00429 5.03944 0
M  V30 5786 C 540.995 -2.96371 5.5888 0
M  V30 5787 C 539.659 -2.94293 5.99123 0
M  V30 5788 H 538.929 -0.624564 0.398749 0
M  V30 5789 H 541.576 -1.12603 1.54896 0
M  V30 5790 H 539.881 -3.71513 1.2444 0
M  V30 5791 H 541.578 -3.66278 1.63222 0
M  V30 5792 H 538.168 -3.10603 2.95337 0
M  V30 5793 H 542.352 -3.0295 3.93109 0
M  V30 5794 H 537.608 -2.97183 5.34314 0
M  V30 5795 H 541.782 -2.90681 6.32833 0
M  V30 5796 H 539.409 -2.87322 7.03811 0
M  V30 5797 N 540.985 -1.06182 -1.16461 0
M  V30 5798 C 542.232 -0.777863 -1.86964 0
M  V30 5799 C 542.56 0.695602 -1.81636 0
M  V30 5800 O 541.815 1.52532 -1.22607 0
M  V30 5801 C 542.114 -1.21633 -3.36066 0
M  V30 5802 C 541.78 -2.69371 -3.61594 0
M  V30 5803 C 540.442 -3.09727 -3.6827 0
M  V30 5804 C 542.794 -3.64791 -3.7226 0
M  V30 5805 C 540.122 -4.44345 -3.83112 0
M  V30 5806 C 542.474 -4.99155 -3.88623 0
M  V30 5807 C 541.138 -5.39149 -3.93541 0
M  V30 5808 H 540.408 -0.28464 -0.68415 0
M  V30 5809 H 543.055 -1.33071 -1.37711 0
M  V30 5810 H 541.36 -0.582651 -3.87443 0
M  V30 5811 H 543.057 -0.973682 -3.88999 0
M  V30 5812 H 539.647 -2.37124 -3.57029 0
M  V30 5813 H 543.831 -3.34746 -3.66413 0
M  V30 5814 H 539.087 -4.74819 -3.85172 0
M  V30 5815 H 543.261 -5.72976 -3.95817 0
M  V30 5816 H 540.888 -6.43464 -4.04794 0
M  V30 5817 N 542.463 1.3308 -0.844243 0
M  V30 5818 C 543.413 2.26589 -0.253289 0
M  V30 5819 C 544.397 1.49501 0.594836 0
M  V30 5820 O 545.589 1.71291 0.445924 0
M  V30 5821 C 542.718 3.38599 0.566176 0
M  V30 5822 C 541.804 4.23081 -0.293756 0
M  V30 5823 N 542.195 4.86751 -1.37505 0
M  V30 5824 C 540.493 4.45925 -0.0817086 0
M  V30 5825 C 541.194 5.49684 -1.90323 0
M  V30 5826 N 540.17 5.30101 -1.20391 0
M  V30 5827 H 543.972 2.73334 -1.08009 0
M  V30 5828 H 541.486 1.47048 -0.689258 0
M  V30 5829 H 543.483 4.04584 1.00587 0
M  V30 5830 H 542.143 2.93401 1.39089 0
M  V30 5831 H 543.154 4.87151 -1.75796 0
M  V30 5832 H 539.831 4.11434 0.709129 0
M  V30 5833 H 541.221 6.10363 -2.80902 0
M  V30 5834 N 543.941 0.601185 1.45683 0
M  V30 5835 C 544.871 -0.108824 2.33246 0
M  V30 5836 C 545.852 -0.865223 1.46451 0
M  V30 5837 O 547.037 -0.83704 1.75235 0
M  V30 5838 C 544.167 -1.11101 3.2905 0
M  V30 5839 C 543.121 -0.468244 4.25431 0
M  V30 5840 C 542.447 -1.57822 5.10878 0
M  V30 5841 C 543.747 0.606469 5.18767 0
M  V30 5842 H 545.441 0.622306 2.92861 0
M  V30 5843 H 542.987 0.300714 1.40825 0
M  V30 5844 H 544.94 -1.61622 3.89174 0
M  V30 5845 H 543.664 -1.87265 2.67581 0
M  V30 5846 H 542.323 0.0160484 3.66596 0
M  V30 5847 H 541.971 -2.32998 4.45781 0
M  V30 5848 H 541.671 -1.15369 5.76163 0
M  V30 5849 H 543.195 -2.08583 5.73869 0
M  V30 5850 H 544.609 0.185589 5.73 0
M  V30 5851 H 543.006 0.952381 5.92494 0
M  V30 5852 H 544.076 1.48559 4.61582 0
M  V30 5853 N 545.419 -1.53889 0.339982 0
M  V30 5854 C 546.83 -1.86139 -0.144671 0
M  V30 5855 C 547.181 -1.2613 -1.50285 0
M  V30 5856 O 546.306 -0.573515 -2.08662 0
M  V30 5857 C 546.901 -3.37728 -0.269285 0
M  V30 5858 C 545.46 -3.69868 -0.698168 0
M  V30 5859 C 544.607 -2.76777 0.170249 0
M  V30 5860 H 547.558 -1.48503 0.559704 0
M  V30 5861 H 547.579 -3.64331 -1.0974 0
M  V30 5862 H 547.091 -3.81375 0.719366 0
M  V30 5863 H 545.192 -3.31764 -1.69597 0
M  V30 5864 H 545.305 -4.76582 -0.490533 0
M  V30 5865 H 543.669 -2.52188 -0.356844 0
M  V30 5866 H 544.452 -3.23253 1.15597 0
M  V30 5867 N 546.897 -0.0685191 -1.57451 0
M  V30 5868 C 548.174 0.642167 -1.84758 0
M  V30 5869 C 548.554 1.87991 -0.960344 0
M  V30 5870 O 547.902 2.28485 -0.0257894 0
M  V30 5871 C 548.112 0.982946 -3.34872 0
M  V30 5872 C 549.46 1.35784 -4.02303 0
M  V30 5873 O 550.484 1.07477 -3.39598 0
M  V30 5874 O 549.343 1.88681 -5.12895 0
M  V30 5875 H 546.437 0.318625 -0.763156 0
M  V30 5876 H 548.983 -0.0992015 -1.6941 0
M  V30 5877 H 547.755 0.10372 -3.91163 0
M  V30 5878 H 547.378 1.78119 -3.55471 0
M  V30 5879 N 548.375 1.56261 0.205012 0
M  V30 5880 C 549.338 1.92908 1.23771 0
M  V30 5881 C 550.338 0.809208 1.38955 0
M  V30 5882 O 551.528 1.07676 1.36936 0
M  V30 5883 C 548.66 2.19442 2.60879 0
M  V30 5884 H 549.853 2.85287 0.924728 0
M  V30 5885 H 547.406 1.49798 0.446125 0
M  V30 5886 H 548.141 1.29668 2.97248 0
M  V30 5887 H 547.926 3.0104 2.51232 0
M  V30 5888 H 549.416 2.48833 3.35368 0
M  V30 5889 N 549.853 -0.472356 1.50355 0
M  V30 5890 C 550.783 -1.57859 1.72055 0
M  V30 5891 C 551.764 -1.60283 0.569505 0
M  V30 5892 O 552.949 -1.7657 0.808503 0
M  V30 5893 C 550.079 -2.96191 1.81351 0
M  V30 5894 C 549.033 -3.08633 2.96529 0
M  V30 5895 C 548.359 -4.486 2.90968 0
M  V30 5896 C 549.659 -2.85969 4.37057 0
M  V30 5897 H 551.353 -1.39953 2.64676 0
M  V30 5898 H 548.899 -0.671846 1.27367 0
M  V30 5899 H 550.852 -3.73507 1.95117 0
M  V30 5900 H 549.576 -3.15251 0.853502 0
M  V30 5901 H 548.235 -2.33749 2.82413 0
M  V30 5902 H 547.883 -4.64577 1.92815 0
M  V30 5903 H 547.583 -4.57861 3.68289 0
M  V30 5904 H 549.107 -5.27938 3.0678 0
M  V30 5905 H 550.521 -3.53036 4.51706 0
M  V30 5906 H 548.918 -3.06677 5.15819 0
M  V30 5907 H 549.988 -1.81838 4.49514 0
M  V30 5908 N 551.331 -1.39911 -0.725443 0
M  V30 5909 C 552.241 -1.41688 -1.8698 0
M  V30 5910 C 553.257 -0.310579 -1.71206 0
M  V30 5911 O 554.433 -0.55359 -1.93642 0
M  V30 5912 C 551.498 -1.26811 -3.22676 0
M  V30 5913 C 550.559 -2.47497 -3.50776 0
M  V30 5914 C 549.792 -2.3332 -4.79997 0
M  V30 5915 O 550.015 -1.34175 -5.54394 0
M  V30 5916 O 548.949 -3.22498 -5.08211 0
M  V30 5917 H 552.775 -2.38171 -1.88436 0
M  V30 5918 H 550.36 -1.21128 -0.874548 0
M  V30 5919 H 552.242 -1.20684 -4.03749 0
M  V30 5920 H 550.917 -0.334289 -3.21969 0
M  V30 5921 H 549.824 -2.59201 -2.69751 0
M  V30 5922 H 551.157 -3.39606 -3.5627 0
M  V30 5923 N 552.809 0.956637 -1.25245 0
M  V30 5924 C 554.058 1.69537 -1.0927 0
M  V30 5925 C 554.371 1.92136 0.366503 0
M  V30 5926 O 555.577 2.63687 0.64665 0
M  V30 5927 C 554.033 3.05211 -1.9072 0
M  V30 5928 C 553.641 2.90416 -3.41119 0
M  V30 5929 C 555.385 3.82882 -1.83308 0
M  V30 5930 C 553.292 4.21468 -4.14872 0
M  V30 5931 H 552.222 0.635804 -0.405302 0
M  V30 5932 H 554.873 1.06513 -1.49423 0
M  V30 5933 H 553.255 3.69128 -1.43389 0
M  V30 5934 H 554.429 2.35444 -3.9611 0
M  V30 5935 H 552.744 2.26203 -3.49602 0
M  V30 5936 H 555.341 4.79944 -2.35706 0
M  V30 5937 H 555.684 4.0853 -0.800572 0
M  V30 5938 H 556.217 3.25711 -2.28379 0
M  V30 5939 H 552.956 4.01009 -5.18529 0
M  V30 5940 H 552.476 4.76213 -3.64665 0
M  V30 5941 H 554.155 4.90022 -4.22478 0
M  V30 5942 N 554.287 1.06798 1.15896 0
M  V30 5943 C 555.197 0.694564 2.24083 0
M  V30 5944 C 556.213 -0.291687 1.71538 0
M  V30 5945 O 557.389 -0.139723 2.00915 0
M  V30 5946 C 554.454 0.0921014 3.46578 0
M  V30 5947 C 553.515 1.13087 4.14137 0
M  V30 5948 C 552.748 0.557064 5.30785 0
M  V30 5949 O 552.971 -0.628623 5.66925 0
M  V30 5950 O 551.905 1.29924 5.8771 0
M  V30 5951 H 555.731 1.59663 2.58344 0
M  V30 5952 H 553.316 0.840575 1.2351 0
M  V30 5953 H 555.198 -0.241884 4.20705 0
M  V30 5954 H 553.873 -0.78337 3.14078 0
M  V30 5955 H 552.78 1.51712 3.41957 0
M  V30 5956 H 554.113 1.97805 4.50704 0
M  V30 5957 N 555.766 -1.3263 0.851289 0
M  V30 5958 C 556.729 -2.27247 0.298541 0
M  V30 5959 C 557.729 -1.51467 -0.539847 0
M  V30 5960 O 558.919 -1.7061 -0.351843 0
M  V30 5961 C 556.051 -3.35964 -0.578004 0
M  V30 5962 H 557.244 -2.7765 1.13359 0
M  V30 5963 H 554.797 -1.43245 0.625354 0
M  V30 5964 H 555.532 -2.90823 -1.435 0
M  V30 5965 H 555.317 -3.92094 0.0220539 0
M  V30 5966 H 556.807 -4.06472 -0.957626 0
M  V30 5967 N 557.244 -0.608902 -1.45362 0
M  V30 5968 C 558.484 -0.10763 -2.04116 0
M  V30 5969 C 558.848 1.23883 -1.46686 0
M  V30 5970 O 560.049 1.83091 -1.96803 0
M  V30 5971 C 558.32 -0.0703351 -3.57331 0
M  V30 5972 S 559.879 0.369554 -4.37241 0
M  V30 5973 H 556.697 -0.0502123 -0.709225 0
M  V30 5974 H 559.299 -0.8073 -1.78053 0
M  V30 5975 H 558.003 -1.05379 -3.9664 0
M  V30 5976 H 557.534 0.651287 -3.87971 0
M  V30 5977 H 559.549 1.61878 -4.69052 0
M  V30 5978 N 558.722 1.53707 -0.348139 0
M  V30 5979 C 559.654 2.22725 0.540946 0
M  V30 5980 C 560.667 1.2354 1.06027 0
M  V30 5981 O 561.856 1.49867 0.96964 0
M  V30 5982 C 558.956 2.89756 1.75768 0
M  V30 5983 C 558.129 4.15297 1.37285 0
M  V30 5984 C 557.188 4.65697 2.44976 0
M  V30 5985 O 556.214 5.29798 2.08092 0
M  V30 5986 N 557.416 4.42017 3.763 0
M  V30 5987 H 560.181 2.99658 -0.0501592 0
M  V30 5988 H 557.742 1.60979 -0.17248 0
M  V30 5989 H 559.734 3.20388 2.47252 0
M  V30 5990 H 558.304 2.16382 2.25605 0
M  V30 5991 H 557.524 3.9116 0.488584 0
M  V30 5992 H 558.812 4.96948 1.09179 0
M  V30 5993 H 558.21 3.9076 4.09051 0
M  V30 5994 H 556.767 4.77242 4.4394 0
M  V30 5995 N 560.2 0.0768682 1.57412 0
M  V30 5996 C 561.446 -0.591961 1.93968 0
M  V30 5997 C 561.779 -1.68954 0.9575 0
M  V30 5998 O 561.054 -1.94496 -0.0124675 0
M  V30 5999 C 561.337 -1.16418 3.40762 0
M  V30 6000 C 561.19 -0.0728933 4.49741 0
M  V30 6001 C 562.509 -2.06814 3.88479 0
M  V30 6002 H 559.628 -0.213716 0.705333 0
M  V30 6003 H 562.27 0.14387 1.89455 0
M  V30 6004 H 560.42 -1.79128 3.4474 0
M  V30 6005 H 562.092 0.560446 4.57883 0
M  V30 6006 H 560.335 0.595859 4.29688 0
M  V30 6007 H 561.006 -0.513755 5.49604 0
M  V30 6008 H 563.482 -1.54033 3.8654 0
M  V30 6009 H 562.358 -2.43785 4.91793 0
M  V30 6010 H 562.619 -2.97844 3.26713 0
M  V30 6011 N 561.678 -1.56367 -0.196722 0
M  V30 6012 C 562.908 -1.84371 -0.932254 0
M  V30 6013 C 563.316 -0.657013 -1.77426 0
M  V30 6014 O 562.659 0.383576 -1.79651 0
M  V30 6015 C 562.721 -3.06454 -1.87952 0
M  V30 6016 C 562.385 -4.40425 -1.21962 0
M  V30 6017 C 563.382 -5.16457 -0.597343 0
M  V30 6018 C 561.067 -4.8716 -1.22396 0
M  V30 6019 C 563.061 -6.37399 0.0117913 0
M  V30 6020 C 560.748 -6.08038 -0.610995 0
M  V30 6021 C 561.746 -6.83 0.00580487 0
M  V30 6022 O 561.434 -8.01589 0.609173 0
M  V30 6023 H 561.166 -0.616377 -0.277589 0
M  V30 6024 H 563.72 -2.04329 -0.209452 0
M  V30 6025 H 561.95 -2.82377 -2.64197 0
M  V30 6026 H 563.639 -3.21118 -2.48271 0
M  V30 6027 H 564.405 -4.81445 -0.586142 0
M  V30 6028 H 560.284 -4.2877 -1.69345 0
M  V30 6029 H 563.828 -6.9585 0.493836 0
M  V30 6030 H 559.725 -6.42519 -0.619693 0
M  V30 6031 H 560.493 -8.16935 0.505919 0
M  V30 6032 N 563.156 0.464375 -1.50603 0
M  V30 6033 C 564.403 1.21596 -1.61928 0
M  V30 6034 C 564.731 1.91804 -0.322737 0
M  V30 6035 O 563.986 1.83065 0.691776 0
M  V30 6036 C 564.285 2.278 -2.75394 0
M  V30 6037 C 563.951 1.74797 -4.1564 0
M  V30 6038 C 562.613 1.60063 -4.53799 0
M  V30 6039 C 564.965 1.35548 -5.03266 0
M  V30 6040 C 562.293 1.04514 -5.77316 0
M  V30 6041 C 564.645 0.814381 -6.27336 0
M  V30 6042 C 563.309 0.653726 -6.64291 0
M  V30 6043 H 562.579 0.444951 -0.592536 0
M  V30 6044 H 565.226 0.510964 -1.84557 0
M  V30 6045 H 563.531 3.04233 -2.46879 0
M  V30 6046 H 565.228 2.85723 -2.81359 0
M  V30 6047 H 561.818 1.87234 -3.8554 0
M  V30 6048 H 566.002 1.45763 -4.74412 0
M  V30 6049 H 561.258 0.908186 -6.04617 0
M  V30 6050 H 565.432 0.501626 -6.94591 0
M  V30 6051 H 563.059 0.22114 -7.59878 0
M  V30 6052 N 564.634 1.40294 0.718013 0
M  V30 6053 C 565.862 1.4175 1.50714 0
M  V30 6054 C 566.277 0.0165366 1.88793 0
M  V30 6055 O 565.634 -0.958942 1.55276 0
M  V30 6056 C 565.685 2.30598 2.784 0
M  V30 6057 O 565.406 3.6524 2.41932 0
M  V30 6058 C 566.907 2.4062 3.72313 0
M  V30 6059 H 564.127 0.483565 0.465194 0
M  V30 6060 H 566.671 1.84316 0.885889 0
M  V30 6061 H 564.826 1.91401 3.36815 0
M  V30 6062 H 565.24 4.12402 3.24076 0
M  V30 6063 H 566.714 3.07001 4.58753 0
M  V30 6064 H 567.191 1.4305 4.15251 0
M  V30 6065 H 567.797 2.80359 3.19811 0
M  V30 6066 N 566.112 -0.949982 1.2575 0
M  V30 6067 C 567.342 -1.72721 1.13363 0
M  V30 6068 C 567.75 -1.86562 -0.314842 0
M  V30 6069 O 567.093 -1.36621 -1.22803 0
M  V30 6070 C 567.155 -3.15695 1.7198 0
M  V30 6071 C 566.819 -3.25268 3.21014 0
M  V30 6072 C 567.816 -3.09222 4.17945 0
M  V30 6073 C 565.501 -3.4894 3.61312 0
M  V30 6074 C 567.495 -3.16701 5.53154 0
M  V30 6075 C 565.182 -3.56055 4.96657 0
M  V30 6076 C 566.18 -3.3995 5.92387 0
M  V30 6077 O 565.868 -3.46757 7.25269 0
M  V30 6078 H 565.6 -0.547888 0.395973 0
M  V30 6079 H 568.154 -1.20009 1.66694 0
M  V30 6080 H 566.384 -3.69791 1.13101 0
M  V30 6081 H 568.073 -3.75295 1.54624 0
M  V30 6082 H 568.839 -2.90798 3.88151 0
M  V30 6083 H 564.718 -3.60534 2.87291 0
M  V30 6084 H 568.262 -3.04048 6.27854 0
M  V30 6085 H 564.159 -3.73997 5.26115 0
M  V30 6086 H 564.927 -3.63358 7.33426 0
M  V30 6087 N 567.59 -1.07411 -1.15328 0
M  V30 6088 C 568.867 -0.710732 -1.82231 0
M  V30 6089 C 569.247 0.806732 -1.95077 0
M  V30 6090 O 568.595 1.72139 -1.50268 0
M  V30 6091 C 568.805 -1.42586 -3.18544 0
M  V30 6092 C 570.153 -1.57836 -3.94174 0
M  V30 6093 O 571.177 -1.38669 -3.281 0
M  V30 6094 O 570.036 -1.8938 -5.12638 0
M  V30 6095 H 567.13 -0.25297 -0.78736 0
M  V30 6096 H 569.676 -1.17508 -1.22434 0
M  V30 6097 H 568.448 -2.46008 -3.04296 0
M  V30 6098 H 568.071 -0.952332 -3.86026 0
M  V30 6099 N 569.068 1.32177 -0.85831 0
M  V30 6100 C 570.479 1.79381 -0.517621 0
M  V30 6101 C 570.83 1.70841 0.964769 0
M  V30 6102 O 569.955 1.26917 1.75274 0
M  V30 6103 C 570.55 3.25706 -0.932801 0
M  V30 6104 C 569.109 3.70851 -0.643953 0
M  V30 6105 C 568.256 2.53208 -1.13054 0
M  V30 6106 H 571.207 1.19424 -1.04516 0
M  V30 6107 H 571.228 3.79673 -0.250674 0
M  V30 6108 H 570.74 3.31889 -2.01174 0
M  V30 6109 H 568.841 3.70178 0.424112 0
M  V30 6110 H 568.954 4.63495 -1.21281 0
M  V30 6111 H 567.318 2.48676 -0.550679 0
M  V30 6112 H 568.101 2.62143 -2.21666 0
M  V30 6113 N 570.547 0.616602 1.45037 0
M  V30 6114 C 571.777 0.121791 2.06241 0
M  V30 6115 C 572.185 -1.20289 1.46038 0
M  V30 6116 O 571.528 -1.7456 0.572242 0
M  V30 6117 C 571.59 -0.0827345 3.59405 0
M  V30 6118 C 571.254 1.16153 4.41993 0
M  V30 6119 C 572.251 2.08183 4.76399 0
M  V30 6120 C 569.936 1.39288 4.82601 0
M  V30 6121 C 571.93 3.21668 5.5028 0
M  V30 6122 C 569.617 2.53073 5.56235 0
M  V30 6123 C 570.615 3.44091 5.89992 0
M  V30 6124 O 570.303 4.55894 6.6213 0
M  V30 6125 H 570.035 0.0701667 0.672349 0
M  V30 6126 H 572.589 0.846877 1.87129 0
M  V30 6127 H 570.819 -0.862812 3.76952 0
M  V30 6128 H 572.508 -0.530273 4.02421 0
M  V30 6129 H 573.274 1.91538 4.45576 0
M  V30 6130 H 569.153 0.693396 4.55755 0
M  V30 6131 H 572.697 3.92733 5.76547 0
M  V30 6132 H 568.594 2.69667 5.86472 0
M  V30 6133 H 569.362 4.5469 6.80587 0
M  V30 6134 N 572.025 -1.5352 0.356285 0
M  V30 6135 C 573.25 -2.06007 -0.239961 0
M  V30 6136 C 573.675 -1.22872 -1.42422 0
M  V30 6137 O 573.033 -0.245516 -1.7963 0
M  V30 6138 C 573.081 -3.5522 -0.620587 0
M  V30 6139 O 572.185 -3.74864 -1.71902 0
M  V30 6140 H 571.526 -0.662961 -0.0371377 0
M  V30 6141 H 574.056 -1.98033 0.514194 0
M  V30 6142 H 574.066 -3.98081 -0.894197 0
M  V30 6143 H 572.741 -4.15175 0.245407 0
M  V30 6144 H 571.318 -3.43904 -1.44169 0
M  V30 6145 N 573.503 -0.0852151 -1.57369 0
M  V30 6146 C 574.413 0.891712 -2.16992 0
M  V30 6147 C 575.429 1.3174 -1.13669 0
M  V30 6148 O 576.605 1.38735 -1.45995 0
M  V30 6149 C 573.67 2.13635 -2.73059 0
M  V30 6150 C 572.731 1.7658 -3.91303 0
M  V30 6151 C 571.964 2.95111 -4.44686 0
M  V30 6152 O 572.187 4.09539 -3.97032 0
M  V30 6153 O 571.121 2.74149 -5.35841 0
M  V30 6154 H 574.947 0.414477 -3.00858 0
M  V30 6155 H 572.532 0.138598 -1.48756 0
M  V30 6156 H 574.414 2.86595 -3.08935 0
M  V30 6157 H 573.089 2.6043 -1.92244 0
M  V30 6158 H 571.996 1.00831 -3.60255 0
M  V30 6159 H 573.329 1.34557 -4.7345 0
M  V30 6160 N 574.981 1.5647 0.188427 0
M  V30 6161 C 575.891 1.98285 1.2538 0
M  V30 6162 C 576.907 0.891535 1.49424 0
M  V30 6163 O 578.083 1.19782 1.61908 0
M  V30 6164 C 575.148 2.31965 2.57669 0
M  V30 6165 C 574.209 3.54838 2.41638 0
M  V30 6166 C 573.442 3.86901 3.67618 0
M  V30 6167 O 573.665 3.20163 4.72072 0
M  V30 6168 O 572.599 4.80309 3.62749 0
M  V30 6169 H 576.425 2.89145 0.928912 0
M  V30 6170 H 574.01 1.44112 0.393955 0
M  V30 6171 H 575.892 2.54673 3.35737 0
M  V30 6172 H 574.567 1.44271 2.89771 0
M  V30 6173 H 573.474 3.37369 1.61658 0
M  V30 6174 H 574.807 4.43019 2.14465 0
M  V30 6175 N 576.459 -0.456382 1.50847 0
M  V30 6176 C 577.736 -1.21739 1.53098 0
M  V30 6177 C 578.116 -2.09179 0.284132 0
M  V30 6178 O 577.464 -2.16466 -0.731773 0
M  V30 6179 C 577.674 -2.03573 2.83477 0
M  V30 6180 C 579.022 -2.61264 3.34703 0
M  V30 6181 O 580.046 -2.13802 2.84898 0
M  V30 6182 O 578.905 -3.47779 4.21559 0
M  V30 6183 H 575.999 -0.553219 0.614718 0
M  V30 6184 H 578.545 -0.467003 1.63148 0
M  V30 6185 H 577.317 -1.39232 3.65691 0
M  V30 6186 H 576.94 -2.85716 2.76499 0
M  V30 6187 N 577.937 -1.40673 -0.710563 0
M  V30 6188 C 579.348 -1.34975 -1.28991 0
M  V30 6189 C 579.699 -0.0256272 -1.96183 0
M  V30 6190 O 578.824 0.876339 -1.97862 0
M  V30 6191 C 579.419 -2.44467 -2.34567 0
M  V30 6192 C 577.978 -2.42213 -2.88114 0
M  V30 6193 C 577.125 -2.25085 -1.61963 0
M  V30 6194 H 580.076 -1.50406 -0.506343 0
M  V30 6195 H 580.097 -2.12663 -3.15523 0
M  V30 6196 H 579.609 -3.40825 -1.85634 0
M  V30 6197 H 577.71 -1.49568 -3.41263 0
M  V30 6198 H 577.823 -3.37983 -3.39565 0
M  V30 6199 H 576.187 -1.72691 -1.87216 0
M  V30 6200 H 576.97 -3.23449 -1.15047 0
M  V30 6201 N 579.415 0.9433 -1.26252 0
M  V30 6202 C 580.692 1.66639 -1.02424 0
M  V30 6203 C 581.072 2.06335 0.446006 0
M  V30 6204 O 580.42 1.78551 1.42589 0
M  V30 6205 C 580.63 2.88019 -1.97094 0
M  V30 6206 C 581.978 3.59718 -2.25584 0
M  V30 6207 O 583.002 2.9812 -1.94943 0
M  V30 6208 O 581.861 4.7066 -2.77743 0
M  V30 6209 H 578.955 0.729643 -0.389294 0
M  V30 6210 H 581.501 0.995218 -1.37454 0
M  V30 6211 H 580.273 2.5556 -2.96319 0
M  V30 6212 H 579.896 3.62863 -1.62532 0
M  V30 6213 N 580.893 1.08022 1.14757 0
M  V30 6214 C 581.803 0.718292 2.23333 0
M  V30 6215 C 582.819 -0.273477 1.71837 0
M  V30 6216 O 583.995 -0.118406 2.01052 0
M  V30 6217 C 581.06 0.128855 3.4646 0
M  V30 6218 C 580.121 1.17473 4.12915 0
M  V30 6219 C 579.354 0.61333 5.30164 0
M  V30 6220 O 579.577 -0.568458 5.6756 0
M  V30 6221 O 578.511 1.3615 5.86299 0
M  V30 6222 H 582.337 1.62394 2.56636 0
M  V30 6223 H 579.922 0.853628 1.22611 0
M  V30 6224 H 581.804 -0.197249 4.20938 0
M  V30 6225 H 580.479 -0.750014 3.14891 0
M  V30 6226 H 579.386 1.5533 3.40328 0
M  V30 6227 H 580.719 2.02574 4.48581 0
M  V30 6228 N 582.371 -1.3172 0.865308 0
M  V30 6229 C 583.619 -1.96487 0.472995 0
M  V30 6230 C 583.94 -1.68761 -0.976975 0
M  V30 6231 O 583.21 -1.00051 -1.68424 0
M  V30 6232 H 581.79 -0.726947 0.171922 0
M  V30 6233 H 584.452 -1.60612 1.10407 0
M  V30 6234 H 583.548 -3.0574 0.62687 0
M  V30 6235 N 583.85 -0.624285 -1.44708 0
M  V30 6236 C 585.096 -0.126237 -2.02407 0
M  V30 6237 C 585.428 1.24618 -1.48943 0
M  V30 6238 O 584.704 1.82569 -0.670742 0
M  V30 6239 C 584.986 -0.105449 -3.59946 0
M  V30 6240 C 584.84 -1.50972 -4.23707 0
M  V30 6241 C 586.159 0.573629 -4.36346 0
M  V30 6242 H 583.278 -0.0473472 -0.735478 0
M  V30 6243 H 585.92 -0.799452 -1.72362 0
M  V30 6244 H 584.07 0.46783 -3.85673 0
M  V30 6245 H 585.742 -2.13136 -4.0911 0
M  V30 6246 H 583.985 -2.0656 -3.81465 0
M  V30 6247 H 584.656 -1.44727 -5.32689 0
M  V30 6248 H 587.132 0.0861787 -4.16011 0
M  V30 6249 H 586.008 0.557338 -5.46063 0
M  V30 6250 H 586.269 1.64276 -4.10446 0
M  V30 6251 N 585.328 1.53329 -0.364422 0
M  V30 6252 C 586.291 2.24323 0.470292 0
M  V30 6253 C 587.291 1.25068 1.01067 0
M  V30 6254 O 588.481 1.49354 0.896605 0
M  V30 6255 C 585.613 2.97908 1.65722 0
M  V30 6256 H 586.806 2.9952 -0.150917 0
M  V30 6257 H 584.359 1.55868 -0.116092 0
M  V30 6258 H 585.094 2.2695 2.31655 0
M  V30 6259 H 584.879 3.70732 1.27671 0
M  V30 6260 H 586.369 3.5188 2.24878 0
M  V30 6261 N 586.806 0.0935595 1.57322 0
M  V30 6262 C 588.054 -0.569383 1.93913 0
M  V30 6263 C 588.375 -1.68817 0.976009 0
M  V30 6264 O 587.645 -1.9588 0.0278099 0
M  V30 6265 H 586.225 -0.21332 0.715894 0
M  V30 6266 H 588.887 0.156531 1.9427 0
M  V30 6267 H 587.983 -0.980577 2.96296 0
M  V30 6268 N 588.284 -1.56567 -0.180126 0
M  V30 6269 C 589.247 -1.94852 -1.20686 0
M  V30 6270 C 590.247 -0.831212 -1.3765 0
M  V30 6271 O 591.437 -1.09841 -1.35206 0
M  V30 6272 C 588.569 -2.23565 -2.57355 0
M  V30 6273 H 589.762 -2.86722 -0.879225 0
M  V30 6274 H 587.315 -1.50489 -0.422237 0
M  V30 6275 H 588.05 -1.34381 -2.95148 0
M  V30 6276 H 587.835 -3.04999 -2.46411 0
M  V30 6277 H 589.325 -2.54137 -3.31367 0
M  V30 6278 N 589.762 0.448376 -1.51087 0
M  V30 6279 C 591.173 1.0286 -1.5581 0
M  V30 6280 C 591.524 1.92583 -0.374989 0
M  V30 6281 O 590.649 2.10316 0.509533 0
M  V30 6282 C 591.244 1.87223 -2.8237 0
M  V30 6283 C 589.803 2.40314 -2.897 0
M  V30 6284 C 588.95 1.19238 -2.50355 0
M  V30 6285 H 591.901 0.230075 -1.57023 0
M  V30 6286 H 591.922 2.72553 -2.6551 0
M  V30 6287 H 591.434 1.21894 -3.68461 0
M  V30 6288 H 589.535 3.09129 -2.08014 0
M  V30 6289 H 589.648 2.73866 -3.93108 0
M  V30 6290 H 588.012 1.53428 -2.03303 0
M  V30 6291 H 588.795 0.555367 -3.38778 0
M  V30 6292 N 591.24 1.41047 0.703093 0
M  V30 6293 C 592.468 1.4334 1.49202 0
M  V30 6294 C 592.883 0.0365596 1.88765 0
M  V30 6295 O 592.24 -0.942419 1.56284 0
M  V30 6296 C 592.291 2.33538 2.75939 0
M  V30 6297 O 592.012 3.67786 2.38045 0
M  V30 6298 C 593.513 2.44555 3.6974 0
M  V30 6299 H 590.733 0.488472 0.460039 0
M  V30 6300 H 593.277 1.85245 0.86629 0
M  V30 6301 H 591.432 1.94962 3.34766 0
M  V30 6302 H 591.846 4.15816 3.19683 0
M  V30 6303 H 593.32 3.11849 4.55471 0
M  V30 6304 H 593.797 1.47447 4.1371 0
M  V30 6305 H 594.403 2.83735 3.16819 0
M  V30 6306 N 592.718 -0.936591 1.26751 0
M  V30 6307 C 593.966 -1.67998 1.12343 0
M  V30 6308 C 594.287 -1.92137 -0.332938 0
M  V30 6309 O 593.557 -1.52132 -1.23421 0
M  V30 6310 H 592.137 -0.622609 0.412756 0
M  V30 6311 H 594.799 -1.12509 1.59147 0
M  V30 6312 H 593.895 -2.65185 1.64571 0
M  V30 6313 N 594.196 -1.08629 -1.14182 0
M  V30 6314 C 595.421 -0.83902 -1.89671 0
M  V30 6315 C 595.846 0.603332 -1.78161 0
M  V30 6316 O 595.204 1.42301 -1.12339 0
M  V30 6317 C 595.252 -1.26854 -3.37551 0
M  V30 6318 O 594.356 -0.42188 -4.10236 0
M  V30 6319 H 593.697 -0.304545 -0.590041 0
M  V30 6320 H 596.227 -1.4483 -1.44518 0
M  V30 6321 H 596.237 -1.25038 -3.88368 0
M  V30 6322 H 594.912 -2.31901 -3.45246 0
M  V30 6323 H 593.489 -0.503654 -3.69483 0
M  V30 6324 N 595.674 1.31259 -0.872281 0
M  V30 6325 C 596.899 2.0133 -0.498099 0
M  V30 6326 C 597.324 1.65031 0.902568 0
M  V30 6327 O 596.682 0.860164 1.59596 0
M  V30 6328 C 596.73 3.54411 -0.665205 0
M  V30 6329 O 595.834 4.11347 0.294473 0
M  V30 6330 H 595.175 0.633844 -0.197832 0
M  V30 6331 H 597.705 1.67402 -1.17633 0
M  V30 6332 H 597.715 4.04147 -0.559373 0
M  V30 6333 H 596.39 3.80171 -1.68651 0
M  V30 6334 H 594.967 3.72624 0.143403 0
M  V30 6335 N 597.152 0.631951 1.44375 0
M  V30 6336 C 598.563 0.219036 1.85411 0
M  V30 6337 C 598.914 -1.22974 1.52879 0
M  V30 6338 O 598.039 -1.93579 0.967266 0
M  V30 6339 C 598.634 0.39075 3.36539 0
M  V30 6340 C 597.193 0.0323351 3.76386 0
M  V30 6341 C 596.34 0.703744 2.68221 0
M  V30 6342 H 599.291 0.837056 1.3483 0
M  V30 6343 H 599.312 -0.370056 3.78696 0
M  V30 6344 H 598.824 1.44527 3.60185 0
M  V30 6345 H 596.925 -1.02042 3.58355 0
M  V30 6346 H 597.038 0.442969 4.77048 0
M  V30 6347 H 595.402 0.138974 2.54321 0
M  V30 6348 H 596.185 1.76088 2.947 0
M  V30 6349 N 598.631 -1.53133 0.372548 0
M  V30 6350 C 599.563 -2.23557 -0.505444 0
M  V30 6351 C 600.576 -1.25211 -1.04049 0
M  V30 6352 O 601.765 -1.51391 -0.945675 0
M  V30 6353 C 598.865 -2.92516 -1.71136 0
M  V30 6354 C 598.038 -4.17428 -1.30661 0
M  V30 6355 C 597.097 -4.69535 -2.37536 0
M  V30 6356 O 596.123 -5.33042 -1.99637 0
M  V30 6357 N 597.325 -4.47947 -3.6922 0
M  V30 6358 H 600.09 -2.9954 0.0978259 0
M  V30 6359 H 597.651 -1.60684 0.198068 0
M  V30 6360 H 599.643 -3.24281 -2.42124 0
M  V30 6361 H 598.213 -2.19944 -2.22134 0
M  V30 6362 H 597.433 -3.91888 -0.426292 0
M  V30 6363 H 598.721 -4.98622 -1.01259 0
M  V30 6364 H 598.119 -3.97219 -4.02783 0
M  V30 6365 H 596.676 -4.84245 -4.36292 0
M  V30 6366 N 600.109 -0.101901 -1.5727 0
M  V30 6367 C 601.52 0.426173 -1.81771 0
M  V30 6368 C 601.871 1.67725 -1.01797 0
M  V30 6369 O 600.996 2.14958 -0.249386 0
M  V30 6370 C 601.591 0.779962 -3.297 0
M  V30 6371 C 600.15 1.25275 -3.54941 0
M  V30 6372 C 599.297 0.252814 -2.76145 0
M  V30 6373 H 602.248 -0.32726 -1.55289 0
M  V30 6374 H 602.269 1.63891 -3.43395 0
M  V30 6375 H 601.781 -0.130778 -3.8788 0
M  V30 6376 H 599.882 2.18097 -3.021 0
M  V30 6377 H 599.995 1.20988 -4.63572 0
M  V30 6378 H 598.359 0.736362 -2.43823 0
M  V30 6379 H 599.142 -0.650724 -3.37076 0
M  V30 6380 N 601.587 1.56661 0.17182 0
M  V30 6381 C 602.517 1.99401 1.21498 0
M  V30 6382 C 603.498 0.869516 1.46197 0
M  V30 6383 O 604.683 1.13556 1.57539 0
M  V30 6384 C 601.813 2.35346 2.55401 0
M  V30 6385 C 600.767 3.5075 2.45272 0
M  V30 6386 C 600.093 3.72437 3.8366 0
M  V30 6387 C 601.393 4.84216 1.95787 0
M  V30 6388 H 603.087 2.86792 0.859699 0
M  V30 6389 H 600.633 1.37977 0.412103 0
M  V30 6390 H 602.586 2.63843 3.2858 0
M  V30 6391 H 601.31 1.44864 2.92715 0
M  V30 6392 H 599.969 3.2238 1.74547 0
M  V30 6393 H 599.617 2.79246 4.18367 0
M  V30 6394 H 599.317 4.50087 3.77751 0
M  V30 6395 H 600.841 4.03334 4.58426 0
M  V30 6396 H 602.255 5.11592 2.5874 0
M  V30 6397 H 600.652 5.65498 2.00827 0
M  V30 6398 H 601.722 4.76243 0.912159 0
M  V30 6399 N 603.065 -0.440357 1.51323 0
M  V30 6400 C 603.997 -1.55254 1.68609 0
M  V30 6401 C 605.01 -1.52614 0.566812 0
M  V30 6402 O 606.199 -1.57445 0.841032 0
M  V30 6403 C 603.299 -2.94169 1.68279 0
M  V30 6404 C 602.472 -3.21346 2.96742 0
M  V30 6405 C 601.531 -4.3997 2.8864 0
M  V30 6406 O 600.557 -4.38771 3.62586 0
M  V30 6407 N 601.759 -5.43367 2.04285 0
M  V30 6408 H 604.524 -1.40831 2.6455 0
M  V30 6409 H 602.085 -0.629251 1.49171 0
M  V30 6410 H 604.077 -3.71543 1.60431 0
M  V30 6411 H 602.647 -3.02205 0.799441 0
M  V30 6412 H 601.867 -2.32299 3.18482 0
M  V30 6413 H 603.155 -3.3633 3.81785 0
M  V30 6414 H 602.553 -5.47176 1.43578 0
M  V30 6415 H 601.11 -6.19605 2.02318 0
M  V30 6416 N 604.543 -1.41418 -0.695603 0
M  V30 6417 C 605.954 -1.36335 -1.27552 0
M  V30 6418 C 606.305 -0.0464336 -1.96145 0
M  V30 6419 O 605.43 0.855304 -1.9878 0
M  V30 6420 C 606.025 -2.46941 -2.3196 0
M  V30 6421 C 604.584 -2.45256 -2.85529 0
M  V30 6422 C 603.731 -2.2679 -1.59566 0
M  V30 6423 H 606.682 -1.50934 -0.490362 0
M  V30 6424 H 606.703 -2.15997 -3.1325 0
M  V30 6425 H 606.215 -3.42775 -1.82008 0
M  V30 6426 H 604.316 -1.53179 -3.39657 0
M  V30 6427 H 604.429 -3.41565 -3.35961 0
M  V30 6428 H 602.793 -1.74667 -1.85374 0
M  V30 6429 H 603.576 -3.24651 -1.1161 0
M  V30 6430 N 606.021 0.929856 -1.27246 0
M  V30 6431 C 606.951 2.04722 -1.12299 0
M  V30 6432 C 607.932 1.70082 -0.0250464 0
M  V30 6433 O 609.117 1.93176 -0.199141 0
M  V30 6434 C 606.247 3.38721 -0.767145 0
M  V30 6435 C 605.201 3.87466 -1.81808 0
M  V30 6436 C 604.527 5.18246 -1.31626 0
M  V30 6437 C 605.827 4.11095 -3.22177 0
M  V30 6438 H 607.521 2.17485 -2.05769 0
M  V30 6439 H 605.067 1.04503 -0.990715 0
M  V30 6440 H 607.02 4.16366 -0.649413 0
M  V30 6441 H 605.744 3.25967 0.203259 0
M  V30 6442 H 604.403 3.12012 -1.92468 0
M  V30 6443 H 604.051 5.01881 -0.335378 0
M  V30 6444 H 603.751 5.51829 -2.01887 0
M  V30 6445 H 605.275 5.98462 -1.21143 0
M  V30 6446 H 606.689 4.79316 -3.1453 0
M  V30 6447 H 605.086 4.55982 -3.90129 0
M  V30 6448 H 606.156 3.16468 -3.67391 0
M  V30 6449 N 607.499 1.09233 1.13605 0
M  V30 6450 C 608.724 0.849067 1.89224 0
M  V30 6451 C 609.149 -0.593875 1.78479 0
M  V30 6452 O 608.507 -1.41703 1.13092 0
M  V30 6453 C 608.555 1.28642 3.36873 0
M  V30 6454 O 607.659 0.44363 4.10007 0
M  V30 6455 H 607 0.30767 0.588417 0
M  V30 6456 H 609.53 1.45595 1.43748 0
M  V30 6457 H 609.54 1.27096 3.87699 0
M  V30 6458 H 608.215 2.33729 3.44011 0
M  V30 6459 H 606.792 0.523241 3.69211 0
M  V30 6460 N 608.977 -1.30795 0.87923 0
M  V30 6461 C 610.225 -1.95974 0.493809 0
M  V30 6462 C 610.546 -1.69787 -0.959021 0
M  V30 6463 O 609.816 -1.01832 -1.67353 0
M  V30 6464 H 608.396 -0.725083 0.179622 0
M  V30 6465 H 611.058 -1.59432 1.12105 0
M  V30 6466 H 610.154 -3.05058 0.659263 0
M  V30 6467 N 610.455 -0.639598 -1.44038 0
M  V30 6468 C 611.365 0.0612377 -2.3452 0
M  V30 6469 C 612.381 0.826717 -1.53106 0
M  V30 6470 O 613.557 0.777059 -1.85806 0
M  V30 6471 C 610.622 1.02492 -3.31204 0
M  V30 6472 C 609.683 0.25788 -4.28525 0
M  V30 6473 C 608.916 1.17566 -5.2059 0
M  V30 6474 O 609.139 2.41461 -5.16771 0
M  V30 6475 O 608.073 0.655407 -5.98321 0
M  V30 6476 H 611.899 -0.68318 -2.95916 0
M  V30 6477 H 609.484 -0.399784 -1.43952 0
M  V30 6478 H 611.366 1.57911 -3.90694 0
M  V30 6479 H 610.041 1.7498 -2.7233 0
M  V30 6480 H 608.948 -0.339566 -3.72556 0
M  V30 6481 H 610.281 -0.427154 -4.90343 0
M  V30 6482 N 611.933 1.52934 -0.380664 0
M  V30 6483 C 613.21 1.93845 0.261417 0
M  V30 6484 C 613.59 1.31544 1.65104 0
M  V30 6485 O 612.938 0.480234 2.23397 0
M  V30 6486 C 613.148 3.47739 0.296466 0
M  V30 6487 C 614.496 4.21284 0.529578 0
M  V30 6488 O 615.52 3.54199 0.377041 0
M  V30 6489 O 614.379 5.40195 0.827753 0
M  V30 6490 H 611.473 0.811318 0.160285 0
M  V30 6491 H 614.019 1.64042 -0.434544 0
M  V30 6492 H 612.791 3.85395 -0.67724 0
M  V30 6493 H 612.414 3.8382 1.0377 0
M  V30 6494 N 613.412 0.11024 1.57214 0
M  V30 6495 C 614.689 -0.592956 1.86396 0
M  V30 6496 C 615.069 -1.85379 1.00985 0
M  V30 6497 O 614.417 -2.28337 0.0863592 0
M  V30 6498 C 614.627 -0.893816 3.3736 0
M  V30 6499 C 615.975 -1.25069 4.05762 0
M  V30 6500 O 616.999 -0.984356 3.42329 0
M  V30 6501 O 615.858 -1.75017 5.17718 0
M  V30 6502 H 612.952 -0.29828 0.771335 0
M  V30 6503 H 615.498 0.144083 1.69087 0
M  V30 6504 H 614.27 2.6031e-05 3.913 0
M  V30 6505 H 613.893 -1.68631 3.60068 0
M  V30 6506 N 614.89 -1.56749 -0.16351 0
M  V30 6507 C 615.853 -1.96121 -1.18613 0
M  V30 6508 C 616.853 -0.845765 -1.36761 0
M  V30 6509 O 618.043 -1.11268 -1.34033 0
M  V30 6510 C 615.175 -2.26282 -2.54969 0
M  V30 6511 H 616.368 -2.87639 -0.848764 0
M  V30 6512 H 613.921 -1.50928 -0.406251 0
M  V30 6513 H 614.656 -1.37504 -2.93706 0
M  V30 6514 H 614.441 -3.07595 -2.43162 0
M  V30 6515 H 615.931 -2.57638 -3.28653 0
M  V30 6516 N 616.368 0.432326 -1.51554 0
M  V30 6517 C 617.598 1.2019 -1.68042 0
M  V30 6518 C 618.006 1.85356 -0.379434 0
M  V30 6519 O 617.349 1.71724 0.652427 0
M  V30 6520 C 617.411 2.32387 -2.74292 0
M  V30 6521 C 617.075 1.87548 -4.16743 0
M  V30 6522 C 618.072 1.37611 -5.01357 0
M  V30 6523 C 615.757 1.95087 -4.62868 0
M  V30 6524 C 617.751 0.958069 -6.30159 0
M  V30 6525 C 615.438 1.52894 -5.91664 0
M  V30 6526 C 616.436 1.03336 -6.75137 0
M  V30 6527 O 616.124 0.617435 -8.01525 0
M  V30 6528 H 615.856 0.368132 -0.56697 0
M  V30 6529 H 618.41 0.517875 -1.98764 0
M  V30 6530 H 616.64 3.04082 -2.38895 0
M  V30 6531 H 618.329 2.94235 -2.79608 0
M  V30 6532 H 619.095 1.31178 -4.66923 0
M  V30 6533 H 614.974 2.32606 -3.98015 0
M  V30 6534 H 618.518 0.570562 -6.95263 0
M  V30 6535 H 614.415 1.58999 -6.25611 0
M  V30 6536 H 615.183 0.742835 -8.15122 0
M  V30 6537 N 617.846 1.41785 0.688094 0
M  V30 6538 C 619.086 1.43018 1.46032 0
M  V30 6539 C 619.45 0.0402632 1.91958 0
M  V30 6540 O 620.651 -0.0726425 2.68702 0
M  V30 6541 C 618.922 2.4151 2.63453 0
M  V30 6542 S 620.481 2.61335 3.5249 0
M  V30 6543 H 617.299 0.506546 0.498931 0
M  V30 6544 H 619.901 1.78283 0.80221 0
M  V30 6545 H 618.605 3.41286 2.27929 0
M  V30 6546 H 618.136 2.07624 3.34149 0
M  V30 6547 H 620.151 1.88637 4.58945 0
M  V30 6548 N 619.324 -0.923095 1.27737 0
M  V30 6549 C 620.552 -1.70525 1.17171 0
M  V30 6550 C 620.967 -1.86847 -0.270881 0
M  V30 6551 O 620.324 -1.38879 -1.18401 0
M  V30 6552 C 620.375 -3.10242 1.85559 0
M  V30 6553 O 620.096 -2.94683 3.24182 0
M  V30 6554 C 621.597 -4.04586 1.81176 0
M  V30 6555 H 618.817 -0.533347 0.407163 0
M  V30 6556 H 621.361 -1.15599 1.68692 0
M  V30 6557 H 619.516 -3.62014 1.3793 0
M  V30 6558 H 619.93 -3.83045 3.58297 0
M  V30 6559 H 621.404 -5.00119 2.33633 0
M  V30 6560 H 621.881 -4.3218 0.782099 0
M  V30 6561 H 622.487 -3.58741 2.2844 0
M  V30 6562 N 620.802 -1.09834 -1.13024 0
M  V30 6563 C 622.049 -0.83695 -1.84395 0
M  V30 6564 C 622.377 0.637463 -1.83757 0
M  V30 6565 O 621.632 1.48554 -1.27398 0
M  V30 6566 C 621.931 -1.32263 -3.32026 0
M  V30 6567 C 621.597 -2.80739 -3.52841 0
M  V30 6568 C 620.259 -3.21286 -3.5823 0
M  V30 6569 C 622.611 -3.76449 -3.60466 0
M  V30 6570 C 619.939 -4.56308 -3.68781 0
M  V30 6571 C 622.291 -5.11266 -3.72546 0
M  V30 6572 C 620.955 -5.51397 -3.76189 0
M  V30 6573 H 620.225 -0.306262 -0.674748 0
M  V30 6574 H 622.872 -1.37385 -1.33408 0
M  V30 6575 H 621.177 -0.705618 -3.85394 0
M  V30 6576 H 622.874 -1.09695 -3.85705 0
M  V30 6577 H 619.464 -2.48363 -3.49305 0
M  V30 6578 H 623.648 -3.46234 -3.55578 0
M  V30 6579 H 618.904 -4.86832 -3.69871 0
M  V30 6580 H 623.078 -5.85279 -3.77388 0
M  V30 6581 H 620.705 -6.56017 -3.84117 0
M  V30 6582 N 622.28 1.30327 -0.886154 0
M  V30 6583 C 623.691 1.78243 -0.555554 0
M  V30 6584 C 624.042 1.72849 0.928314 0
M  V30 6585 O 623.167 1.30607 1.72542 0
M  V30 6586 C 623.762 3.23654 -1.00168 0
M  V30 6587 C 622.321 3.69401 -0.722471 0
M  V30 6588 C 621.468 2.50753 -1.18399 0
M  V30 6589 H 624.419 1.1718 -1.07026 0
M  V30 6590 H 624.44 3.79056 -0.331152 0
M  V30 6591 H 623.952 3.27548 -2.08169 0
M  V30 6592 H 622.053 3.70995 0.345496 0
M  V30 6593 H 622.166 4.60818 -1.31085 0
M  V30 6594 H 620.53 2.47452 -0.603303 0
M  V30 6595 H 621.313 2.57383 -2.27176 0
M  V30 6596 N 623.758 0.647228 1.43697 0
M  V30 6597 C 624.983 0.164083 2.0675 0
M  V30 6598 C 625.408 -1.15892 1.48158 0
M  V30 6599 O 624.766 -1.71459 0.589194 0
M  V30 6600 C 624.814 0.0800368 3.60511 0
M  V30 6601 O 623.918 -0.959453 4.01084 0
M  V30 6602 H 623.259 0.0921288 0.657578 0
M  V30 6603 H 625.789 0.88846 1.84303 0
M  V30 6604 H 625.799 -0.105263 4.07864 0
M  V30 6605 H 624.474 1.04586 4.02535 0
M  V30 6606 H 623.051 -0.747425 3.65333 0
M  V30 6607 N 625.236 -1.5273 0.388769 0
M  V30 6608 C 626.652 -1.59553 0.0387049 0
M  V30 6609 C 626.852 -1.40278 -1.44652 0
M  V30 6610 O 625.908 -1.21951 -2.21098 0
M  V30 6611 C 627.221 -2.9625 0.515409 0
M  V30 6612 C 628.769 -3.09426 0.471621 0
M  V30 6613 C 629.244 -4.48572 0.924505 0
M  V30 6614 N 630.735 -4.54754 0.880496 0
M  V30 6615 C 631.47 -5.60653 1.20234 0
M  V30 6616 N 630.966 -6.74198 1.59463 0
M  V30 6617 N 632.759 -5.50755 1.12363 0
M  V30 6618 H 624.91 -1.63508 1.35569 0
M  V30 6619 H 627.173 -0.768097 0.555636 0
M  V30 6620 H 626.879 -3.15569 1.5527 0
M  V30 6621 H 626.753 -3.77102 -0.085792 0
M  V30 6622 H 629.14 -2.89804 -0.556588 0
M  V30 6623 H 629.221 -2.30528 1.10862 0
M  V30 6624 H 628.865 -4.68936 1.95094 0
M  V30 6625 H 628.795 -5.25935 0.264524 0
M  V30 6626 H 631.286 -3.73237 0.591815 0
M  V30 6627 H 631.599 -7.5097 1.82385 0
M  V30 6628 H 629.944 -6.75531 1.63349 0
M  V30 6629 H 633.135 -4.6093 0.816169 0
M  V30 6630 H 633.308 -6.33184 1.37777 0
M  V30 6631 N 626.714 -0.118576 -1.57153 0
M  V30 6632 C 627.991 0.583062 -1.86708 0
M  V30 6633 C 628.371 1.84841 -1.01967 0
M  V30 6634 O 627.719 2.28288 -0.0984673 0
M  V30 6635 C 627.929 0.875912 -3.3783 0
M  V30 6636 C 629.277 1.22916 -4.0642 0
M  V30 6637 O 630.301 0.966188 -3.42846 0
M  V30 6638 O 629.16 1.72269 -5.18638 0
M  V30 6639 H 626.254 0.294185 -0.772906 0
M  V30 6640 H 628.8 -0.153048 -1.69008 0
M  V30 6641 H 627.572 -0.0207776 -3.91294 0
M  V30 6642 H 627.195 1.66719 -3.60958 0
M  V30 6643 N 628.193 1.56834 0.155195 0
M  V30 6644 C 629.47 1.73799 0.897395 0
M  V30 6645 C 629.85 0.684379 1.99698 0
M  V30 6646 O 629.198 -0.298111 2.26547 0
M  V30 6647 C 629.408 3.17572 1.44737 0
M  V30 6648 C 630.756 3.79014 1.91399 0
M  V30 6649 O 631.78 3.20951 1.54496 0
M  V30 6650 O 630.639 4.80998 2.59429 0
M  V30 6651 H 627.733 0.710329 0.423511 0
M  V30 6652 H 630.279 1.69107 0.141761 0
M  V30 6653 H 629.051 3.85749 0.656741 0
M  V30 6654 H 628.674 3.26657 2.26674 0
M  V30 6655 N 629.671 -0.424282 1.51781 0
M  V30 6656 C 630.601 -1.52305 1.7699 0
M  V30 6657 C 631.582 -1.5839 0.620209 0
M  V30 6658 O 632.767 -1.73908 0.864268 0
M  V30 6659 C 629.897 -2.90271 1.90683 0
M  V30 6660 C 628.851 -2.99043 3.06198 0
M  V30 6661 C 628.177 -4.39116 3.05092 0
M  V30 6662 C 629.477 -2.7192 4.45934 0
M  V30 6663 H 631.171 -1.31461 2.68995 0
M  V30 6664 H 628.717 -0.630985 1.29439 0
M  V30 6665 H 630.67 -3.6711 2.06901 0
M  V30 6666 H 629.394 -3.12376 0.953365 0
M  V30 6667 H 628.053 -2.24646 2.89706 0
M  V30 6668 H 627.701 -4.58207 2.07498 0
M  V30 6669 H 627.401 -4.45912 3.82669 0
M  V30 6670 H 628.925 -5.17911 3.2342 0
M  V30 6671 H 630.339 -3.38487 4.62709 0
M  V30 6672 H 628.736 -2.90111 5.25315 0
M  V30 6673 H 629.806 -1.67445 4.55072 0
M  V30 6674 N 631.149 -1.42148 -0.680565 0
M  V30 6675 C 632.079 -1.4796 -1.80638 0
M  V30 6676 C 633.06 -0.336728 -1.66734 0
M  V30 6677 O 634.245 -0.550247 -1.86242 0
M  V30 6678 C 631.375 -1.37569 -3.18892 0
M  V30 6679 C 630.329 -2.49823 -3.47524 0
M  V30 6680 C 629.655 -2.24491 -4.85291 0
M  V30 6681 C 630.955 -3.92144 -3.44994 0
M  V30 6682 H 632.649 -2.42184 -1.76032 0
M  V30 6683 H 630.195 -1.16566 -0.845481 0
M  V30 6684 H 632.148 -1.40243 -3.97379 0
M  V30 6685 H 630.872 -0.398357 -3.24162 0
M  V30 6686 H 629.531 -2.46455 -2.71395 0
M  V30 6687 H 629.179 -1.25066 -4.87204 0
M  V30 6688 H 628.879 -2.99722 -5.05411 0
M  V30 6689 H 630.403 -2.28906 -5.66069 0
M  V30 6690 H 631.817 -3.97145 -4.13459 0
M  V30 6691 H 630.214 -4.67179 -3.76648 0
M  V30 6692 H 631.284 -4.19225 -2.43676 0
M  V30 6693 N 632.627 0.916307 -1.28225 0
M  V30 6694 C 633.557 2.0352 -1.14464 0
M  V30 6695 C 634.538 1.70045 -0.0430844 0
M  V30 6696 O 635.723 1.92954 -0.219619 0
M  V30 6697 C 632.853 3.37889 -0.803027 0
M  V30 6698 C 631.807 3.85516 -1.85908 0
M  V30 6699 C 631.133 5.1682 -1.37116 0
M  V30 6700 C 632.433 4.07655 -3.26519 0
M  V30 6701 H 634.127 2.1529 -2.08064 0
M  V30 6702 H 631.673 1.03446 -1.00174 0
M  V30 6703 H 633.626 4.15654 -0.693537 0
M  V30 6704 H 632.35 3.26164 0.168674 0
M  V30 6705 H 631.009 3.09953 -1.95767 0
M  V30 6706 H 630.657 5.01497 -0.38859 0
M  V30 6707 H 630.357 5.49657 -2.07728 0
M  V30 6708 H 631.881 5.97143 -1.27484 0
M  V30 6709 H 633.295 4.75953 -3.19596 0
M  V30 6710 H 631.692 4.51818 -3.94943 0
M  V30 6711 H 632.762 3.12553 -3.70727 0
M  V30 6712 N 634.105 1.10431 1.1244 0
M  V30 6713 C 635.352 0.846717 1.83948 0
M  V30 6714 C 635.68 -0.627709 1.84093 0
M  V30 6715 O 634.935 -1.47876 1.28184 0
M  V30 6716 C 635.234 1.34022 3.3132 0
M  V30 6717 C 634.9 2.82606 3.51347 0
M  V30 6718 C 633.562 3.23182 3.56521 0
M  V30 6719 C 635.914 3.78356 3.58464 0
M  V30 6720 C 633.242 4.58258 3.66356 0
M  V30 6721 C 635.594 5.13234 3.69829 0
M  V30 6722 C 634.258 5.53384 3.73259 0
M  V30 6723 H 633.528 0.309836 0.673114 0
M  V30 6724 H 636.175 1.38091 1.32677 0
M  V30 6725 H 634.48 0.726047 3.85014 0
M  V30 6726 H 636.177 1.11739 3.85118 0
M  V30 6727 H 632.767 2.50212 3.47983 0
M  V30 6728 H 636.951 3.48115 3.53737 0
M  V30 6729 H 632.207 4.88787 3.67284 0
M  V30 6730 H 636.381 5.87272 3.74279 0
M  V30 6731 H 634.008 6.58045 3.80633 0
M  V30 6732 N 635.583 -1.29855 0.893053 0
M  V30 6733 C 636.808 -2.00512 0.530066 0
M  V30 6734 C 637.233 -1.66446 -0.876199 0
M  V30 6735 O 636.591 -0.885446 -1.58207 0
M  V30 6736 C 636.639 -3.53308 0.721505 0
M  V30 6737 O 635.743 -4.11764 -0.228994 0
M  V30 6738 H 635.084 -0.630617 0.207891 0
M  V30 6739 H 637.614 -1.6551 1.20282 0
M  V30 6740 H 637.624 -4.03206 0.623599 0
M  V30 6741 H 636.299 -3.77439 1.74678 0
M  V30 6742 H 634.876 -3.72805 -0.0841034 0
M  V30 6743 N 637.061 -0.65484 -1.43351 0
M  V30 6744 C 638.472 -0.248506 -1.85039 0
M  V30 6745 C 638.823 1.20526 -1.54816 0
M  V30 6746 O 637.948 1.92016 -0.99794 0
M  V30 6747 C 638.543 -0.444241 -3.35875 0
M  V30 6748 C 637.102 -0.0922108 -3.76287 0
M  V30 6749 C 636.249 -0.746327 -2.67068 0
M  V30 6750 H 639.2 -0.8584 -1.33481 0
M  V30 6751 H 639.221 0.309762 -3.79237 0
M  V30 6752 H 638.733 -1.50239 -3.5784 0
M  V30 6753 H 636.834 0.96328 -3.59933 0
M  V30 6754 H 636.947 -0.518807 -4.76283 0
M  V30 6755 H 635.311 -0.179416 -2.54067 0
M  V30 6756 H 636.094 -1.80754 -2.91861 0
M  V30 6757 N 638.539 1.52521 -0.396863 0
M  V30 6758 C 639.764 2.06571 0.185258 0
M  V30 6759 C 640.189 1.26605 1.39115 0
M  V30 6760 O 639.547 0.293055 1.78916 0
M  V30 6761 C 639.595 3.5674 0.526189 0
M  V30 6762 O 638.699 3.7929 1.61903 0
M  V30 6763 H 638.04 0.663712 0.0195474 0
M  V30 6764 H 640.57 1.966 -0.566519 0
M  V30 6765 H 640.58 4.00311 0.788338 0
M  V30 6766 H 639.255 4.14379 -0.355397 0
M  V30 6767 H 637.832 3.47605 1.35 0
M  V30 6768 N 640.017 0.126909 1.57088 0
M  V30 6769 C 640.947 -0.816847 2.18746 0
M  V30 6770 C 641.928 -1.27161 1.12979 0
M  V30 6771 O 643.113 -1.33279 1.41246 0
M  V30 6772 C 640.243 -2.06398 2.79315 0
M  V30 6773 C 639.197 -1.74673 3.90735 0
M  V30 6774 C 638.523 -3.06482 4.38147 0
M  V30 6775 C 639.823 -1.0089 5.12463 0
M  V30 6776 H 641.517 -0.303032 2.97863 0
M  V30 6777 H 639.063 -0.144314 1.43275 0
M  V30 6778 H 641.016 -2.72885 3.2111 0
M  V30 6779 H 639.74 -2.60118 1.975 0
M  V30 6780 H 638.399 -1.10572 3.49527 0
M  V30 6781 H 638.047 -3.58152 3.5318 0
M  V30 6782 H 637.747 -2.86025 5.13287 0
M  V30 6783 H 639.271 -3.74073 4.82599 0
M  V30 6784 H 640.685 -1.57546 5.51228 0
M  V30 6785 H 639.082 -0.905006 5.93237 0
M  V30 6786 H 640.152 0.00297335 4.849 0
M  V30 6787 N 641.495 -1.56914 -0.146875 0
M  V30 6788 C 642.425 -2.01308 -1.1831 0
M  V30 6789 C 643.406 -0.892664 -1.44795 0
M  V30 6790 O 644.591 -1.16048 -1.55713 0
M  V30 6791 C 641.721 -2.3938 -2.51624 0
M  V30 6792 C 640.675 -3.54608 -2.3966 0
M  V30 6793 C 640.001 -3.78493 -3.77686 0
M  V30 6794 C 641.301 -4.87269 -1.88058 0
M  V30 6795 H 642.995 -2.88123 -0.813964 0
M  V30 6796 H 640.541 -1.38615 -0.3901 0
M  V30 6797 H 642.494 -2.69037 -3.24341 0
M  V30 6798 H 641.218 -1.49502 -2.90373 0
M  V30 6799 H 639.877 -3.25116 -1.69396 0
M  V30 6800 H 639.525 -2.85866 -4.13871 0
M  V30 6801 H 639.225 -4.56039 -3.70543 0
M  V30 6802 H 640.749 -4.10576 -4.51951 0
M  V30 6803 H 642.163 -5.15644 -2.50568 0
M  V30 6804 H 640.56 -5.68622 -1.91805 0
M  V30 6805 H 641.63 -4.77634 -0.836277 0
M  V30 6806 N 642.974 0.416227 -1.52004 0
M  V30 6807 C 644.222 1.16153 -1.65387 0
M  V30 6808 C 644.543 1.91208 -0.382669 0
M  V30 6809 O 643.813 1.86413 0.602231 0
M  V30 6810 H 642.393 0.431765 -0.60958 0
M  V30 6811 H 645.055 0.475151 -1.89019 0
M  V30 6812 H 644.151 1.87952 -2.4916 0
M  V30 6813 N 644.452 1.42507 0.673017 0
M  V30 6814 C 645.7 1.42789 1.43023 0
M  V30 6815 C 646.021 0.0459738 1.94946 0
M  V30 6816 O 645.291 -0.915765 1.73178 0
M  V30 6817 H 643.871 0.525657 0.530748 0
M  V30 6818 H 646.533 1.77944 0.795113 0
M  V30 6819 H 645.629 2.12872 2.28237 0
M  V30 6820 N 645.93 -0.909495 1.28709 0
M  V30 6821 C 647.341 -1.47419 1.14563 0
M  V30 6822 C 647.692 -1.94432 -0.262832 0
M  V30 6823 O 646.817 -1.82842 -1.15748 0
M  V30 6824 C 647.412 -2.67933 2.07358 0
M  V30 6825 C 645.971 -3.20568 1.97264 0
M  V30 6826 C 645.118 -1.93269 1.98852 0
M  V30 6827 H 648.069 -0.721787 1.41336 0
M  V30 6828 H 648.09 -3.43339 1.64007 0
M  V30 6829 H 647.602 -2.33685 3.09859 0
M  V30 6830 H 645.703 -3.59531 0.978157 0
M  V30 6831 H 645.816 -3.85529 2.84436 0
M  V30 6832 H 644.18 -2.10553 1.43317 0
M  V30 6833 H 644.963 -1.61312 3.0304 0
M  V30 6834 N 647.408 -1.11026 -1.11852 0
M  V30 6835 C 648.633 -0.879064 -1.87849 0
M  V30 6836 C 649.058 0.565406 -1.79401 0
M  V30 6837 O 648.416 1.39886 -1.15333 0
M  V30 6838 C 648.464 -1.33985 -3.34784 0
M  V30 6839 O 647.568 -0.508803 -4.09249 0
M  V30 6840 H 646.909 -0.316992 -0.583448 0
M  V30 6841 H 649.439 -1.47863 -1.41413 0
M  V30 6842 H 649.449 -1.33248 -3.85628 0
M  V30 6843 H 648.124 -2.39172 -3.40249 0
M  V30 6844 H 646.701 -0.581913 -3.68332 0
M  V30 6845 N 648.886 1.2938 -0.899927 0
M  V30 6846 C 650.297 1.77644 -0.574427 0
M  V30 6847 C 650.648 1.73824 0.909928 0
M  V30 6848 O 649.773 1.32429 1.71147 0
M  V30 6849 C 650.368 3.22573 -1.03595 0
M  V30 6850 C 648.927 3.68614 -0.76161 0
M  V30 6851 C 648.074 2.49483 -1.21052 0
M  V30 6852 H 651.025 1.16038 -1.08263 0
M  V30 6853 H 651.046 3.78684 -0.371337 0
M  V30 6854 H 650.558 3.25321 -2.11631 0
M  V30 6855 H 648.659 3.7134 0.306127 0
M  V30 6856 H 648.772 4.59402 -1.35965 0
M  V30 6857 H 647.136 2.46798 -0.629515 0
M  V30 6858 H 647.919 2.54959 -2.29893 0
M  V30 6859 N 650.364 0.662433 1.43002 0
M  V30 6860 C 651.775 0.258315 1.84904 0
M  V30 6861 C 652.126 -1.19703 1.55453 0
M  V30 6862 O 651.251 -1.91484 1.00811 0
M  V30 6863 C 651.846 0.462047 3.35635 0
M  V30 6864 C 650.405 0.112165 3.76233 0
M  V30 6865 C 649.552 0.760479 2.66668 0
M  V30 6866 H 652.503 0.865467 1.33024 0
M  V30 6867 H 652.524 -0.289646 3.79396 0
M  V30 6868 H 652.036 1.52135 3.57039 0
M  V30 6869 H 650.137 -0.944179 3.60439 0
M  V30 6870 H 650.25 0.544058 4.76001 0
M  V30 6871 H 648.614 0.192887 2.53969 0
M  V30 6872 H 649.397 1.82299 2.90898 0
M  V30 6873 N 651.842 -1.52309 0.404946 0
M  V30 6874 C 653.067 -2.06666 -0.1743 0
M  V30 6875 C 653.492 -1.27341 -1.38441 0
M  V30 6876 O 652.85 -0.302539 -1.78758 0
M  V30 6877 C 652.898 -3.57014 -0.507262 0
M  V30 6878 O 652.002 -3.80144 -1.59889 0
M  V30 6879 H 651.343 -0.663807 -0.0160273 0
M  V30 6880 H 653.873 -1.96297 0.576937 0
M  V30 6881 H 653.883 -4.00724 -0.767098 0
M  V30 6882 H 652.558 -4.14184 0.377368 0
M  V30 6883 H 651.135 -3.48316 -1.33155 0
M  V30 6884 N 653.32 -0.135238 -1.57019 0
M  V30 6885 C 654.548 0.526066 -2.001 0
M  V30 6886 C 654.963 1.59184 -1.01519 0
M  V30 6887 O 654.32 1.82497 -0.0104258 0
M  V30 6888 C 654.371 1.13744 -3.43139 0
M  V30 6889 O 654.092 0.114259 -4.37951 0
M  V30 6890 C 655.593 1.8805 -4.01438 0
M  V30 6891 H 652.813 0.137962 -0.656664 0
M  V30 6892 H 655.357 -0.226359 -2.03243 0
M  V30 6893 H 653.512 1.84056 -3.40885 0
M  V30 6894 H 653.926 0.56058 -5.21496 0
M  V30 6895 H 655.4 2.26133 -5.03555 0
M  V30 6896 H 655.877 2.76194 -3.41487 0
M  V30 6897 H 656.483 1.22464 -4.07287 0
M  V30 6898 N 654.798 1.5699 0.138552 0
M  V30 6899 C 655.761 1.97984 1.15478 0
M  V30 6900 C 656.761 0.867416 1.35398 0
M  V30 6901 O 657.951 1.13387 1.32246 0
M  V30 6902 C 655.083 2.3031 2.51337 0
M  V30 6903 H 656.276 2.88953 0.802896 0
M  V30 6904 H 653.829 1.51555 0.382189 0
M  V30 6905 H 654.564 1.42159 2.91481 0
M  V30 6906 H 654.349 3.11425 2.38237 0
M  V30 6907 H 655.839 2.62834 3.24512 0
M  V30 6908 N 656.276 -0.40816 1.52223 0
M  V30 6909 C 657.687 -0.986929 1.58482 0
M  V30 6910 C 658.038 -1.91521 0.425917 0
M  V30 6911 O 657.163 -2.11593 -0.453593 0
M  V30 6912 C 657.758 -1.7967 2.87235 0
M  V30 6913 C 656.317 -2.32549 2.9597 0
M  V30 6914 C 655.464 -1.12558 2.53428 0
M  V30 6915 H 658.415 -0.188362 1.57578 0
M  V30 6916 H 658.436 -2.65417 2.72642 0
M  V30 6917 H 657.948 -1.12082 3.71563 0
M  V30 6918 H 656.049 -3.03505 2.16137 0
M  V30 6919 H 656.162 -2.63348 4.00231 0
M  V30 6920 H 654.526 -1.47984 2.07299 0
M  V30 6921 H 655.309 -0.465351 3.40131 0
M  V30 6922 N 657.755 -1.42862 -0.66545 0
M  V30 6923 C 659.003 -1.43546 -1.42264 0
M  V30 6924 C 659.324 -0.0563116 -1.94919 0
M  V30 6925 O 658.594 0.906568 -1.73661 0
M  V30 6926 H 657.174 -0.528464 -0.527953 0
M  V30 6927 H 659.836 -1.78363 -0.785665 0
M  V30 6928 H 658.932 -2.14079 -2.27105 0
M  V30 6929 N 659.233 0.902656 -1.29189 0
M  V30 6930 C 660.481 1.6496 -1.16758 0
M  V30 6931 C 660.802 1.92952 0.28188 0
M  V30 6932 O 660.072 1.55351 1.19344 0
M  V30 6933 H 658.652 0.611447 -0.429118 0
M  V30 6934 H 661.314 1.0825 -1.62074 0
M  V30 6935 H 660.41 2.60728 -1.71544 0
M  V30 6936 N 660.711 1.11618 1.11262 0
M  V30 6937 C 661.936 0.889013 1.8738 0
M  V30 6938 C 662.361 -0.555884 1.79698 0
M  V30 6939 O 661.719 -1.39272 1.16073 0
M  V30 6940 C 661.767 1.35759 3.34069 0
M  V30 6941 O 660.871 0.530499 4.08974 0
M  V30 6942 H 660.212 0.320082 0.581759 0
M  V30 6943 H 662.742 1.48611 1.40627 0
M  V30 6944 H 662.752 1.35291 3.84916 0
M  V30 6945 H 661.427 2.40973 3.38976 0
M  V30 6946 H 660.004 0.601439 3.68018 0
M  V30 6947 N 662.189 -1.289 0.906776 0
M  V30 6948 C 663.437 -1.94883 0.535266 0
M  V30 6949 C 663.758 -1.71784 -0.922791 0
M  V30 6950 O 663.028 -1.05359 -1.65156 0
M  V30 6951 H 661.608 -0.721109 0.194962 0
M  V30 6952 H 664.27 -1.57018 1.15461 0
M  V30 6953 H 663.366 -3.03591 0.723821 0
M  V30 6954 N 663.667 -0.670007 -1.42649 0
M  V30 6955 C 664.63 0.00204659 -2.292 0
M  V30 6956 C 665.63 0.733817 -1.4308 0
M  V30 6957 O 666.82 0.57254 -1.64522 0
M  V30 6958 C 663.952 1.01359 -3.25483 0
M  V30 6959 H 665.145 -0.759696 -2.90118 0
M  V30 6960 H 662.698 -0.432105 -1.50208 0
M  V30 6961 H 663.433 1.80399 -2.69493 0
M  V30 6962 H 663.218 0.492323 -3.88997 0
M  V30 6963 H 664.708 1.4824 -3.90403 0
M  V30 6964 N 665.145 1.52092 -0.413018 0
M  V30 6965 C 666.393 2.01456 0.161178 0
M  V30 6966 C 666.714 1.30034 1.45314 0
M  V30 6967 O 665.984 0.427435 1.9118 0
M  V30 6968 H 664.564 0.744376 0.0625526 0
M  V30 6969 H 667.226 1.86974 -0.550151 0
M  V30 6970 H 666.322 3.1008 0.354517 0
M  V30 6971 N 666.623 0.143563 1.56945 0
M  V30 6972 C 667.533 -0.810562 2.20152 0
M  V30 6973 C 668.549 -1.27431 1.1848 0
M  V30 6974 O 669.725 -1.33221 1.51044 0
M  V30 6975 C 666.79 -2.03353 2.80799 0
M  V30 6976 C 665.851 -1.61936 3.97587 0
M  V30 6977 C 665.084 -2.78403 4.55332 0
M  V30 6978 O 665.307 -3.94521 4.11958 0
M  V30 6979 O 664.241 -2.54073 5.45647 0
M  V30 6980 H 668.067 -0.30253 3.02189 0
M  V30 6981 H 665.652 -0.0832925 1.49168 0
M  V30 6982 H 667.534 -2.74932 3.19359 0
M  V30 6983 H 666.209 -2.53116 2.01777 0
M  V30 6984 H 665.116 -0.873904 3.6375 0
M  V30 6985 H 666.449 -1.16892 4.78118 0
M  V30 6986 N 668.101 -1.57061 -0.130224 0
M  V30 6987 C 669.011 -2.02802 -1.17934 0
M  V30 6988 C 670.027 -0.946378 -1.46013 0
M  V30 6989 O 671.203 -1.25708 -1.57351 0
M  V30 6990 C 668.268 -2.41368 -2.48882 0
M  V30 6991 C 667.329 -3.63561 -2.28301 0
M  V30 6992 C 666.562 -4.00279 -3.53005 0
M  V30 6993 O 666.785 -3.37463 -4.59864 0
M  V30 6994 O 665.719 -4.93441 -3.44673 0
M  V30 6995 H 669.545 -2.92394 -0.820958 0
M  V30 6996 H 667.13 -1.45475 -0.340197 0
M  V30 6997 H 669.012 -2.66958 -3.26054 0
M  V30 6998 H 667.687 -1.54926 -2.84217 0
M  V30 6999 H 666.594 -3.43136 -1.49025 0
M  V30 7000 H 667.927 -4.50673 -1.97875 0
M  V30 7001 N 669.579 0.400081 -1.52437 0
M  V30 7002 C 670.995 0.739359 -1.41441 0
M  V30 7003 C 671.195 1.94512 -0.526053 0
M  V30 7004 O 670.251 2.525 0.00472502 0
M  V30 7005 C 671.564 0.984824 -2.84116 0
M  V30 7006 C 673.112 1.08698 -2.93519 0
M  V30 7007 C 673.587 1.36515 -4.37181 0
M  V30 7008 N 675.078 1.43361 -4.40457 0
M  V30 7009 C 675.813 1.66528 -5.48686 0
M  V30 7010 N 675.309 1.87239 -6.67018 0
M  V30 7011 N 677.102 1.68617 -5.36213 0
M  V30 7012 H 669.253 -0.393484 -2.08723 0
M  V30 7013 H 671.516 -0.1138 -0.941145 0
M  V30 7014 H 671.222 0.171096 -3.51284 0
M  V30 7015 H 671.096 1.90253 -3.25705 0
M  V30 7016 H 673.483 1.89129 -2.26526 0
M  V30 7017 H 673.564 0.147432 -2.55375 0
M  V30 7018 H 673.208 0.565982 -5.04737 0
M  V30 7019 H 673.138 2.31737 -4.7287 0
M  V30 7020 H 675.629 1.29108 -3.55161 0
M  V30 7021 H 675.942 2.04392 -7.45281 0
M  V30 7022 H 674.287 1.84486 -6.70067 0
M  V30 7023 H 677.478 1.5198 -4.42741 0
M  V30 7024 H 677.651 1.86332 -6.20632 0
M  V30 7025 N 671.057 1.43213 0.657864 0
M  V30 7026 C 671.99 1.42456 1.78273 0
M  V30 7027 C 672.968 0.286598 1.60054 0
M  V30 7028 O 674.152 0.479467 1.823 0
M  V30 7029 C 671.279 1.23169 3.15511 0
M  V30 7030 C 670.325 2.40181 3.52442 0
M  V30 7031 S 671.158 4.02729 3.52944 0
M  V30 7032 C 672.314 3.85816 4.92846 0
M  V30 7033 H 672.547 2.37642 1.78644 0
M  V30 7034 H 670.08 1.30188 0.830084 0
M  V30 7035 H 672.038 1.12728 3.94719 0
M  V30 7036 H 670.699 0.295398 3.12708 0
M  V30 7037 H 669.892 2.22478 4.52239 0
M  V30 7038 H 669.494 2.47224 2.80636 0
M  V30 7039 H 671.786 3.47853 5.81381 0
M  V30 7040 H 672.729 4.85348 5.15599 0
M  V30 7041 H 673.137 3.18361 4.66162 0
M  V30 7042 N 672.536 -0.895792 1.29666 0
M  V30 7043 C 673.947 -1.46195 1.1612 0
M  V30 7044 C 674.298 -1.94699 -0.242195 0
M  V30 7045 O 673.423 -1.8406 -1.13802 0
M  V30 7046 C 674.018 -2.65718 2.10189 0
M  V30 7047 C 672.577 -3.18458 2.00653 0
M  V30 7048 C 671.724 -1.91149 2.00891 0
M  V30 7049 H 674.675 -0.706756 1.42094 0
M  V30 7050 H 674.696 -3.4158 1.6764 0
M  V30 7051 H 674.208 -2.30386 3.12321 0
M  V30 7052 H 672.309 -3.58474 1.01623 0
M  V30 7053 H 672.422 -3.82491 2.88509 0
M  V30 7054 H 670.786 -2.09021 1.45542 0
M  V30 7055 H 671.569 -1.58089 3.04734 0
M  V30 7056 N 674.014 -1.12206 -1.10668 0
M  V30 7057 C 675.425 -0.890657 -1.64086 0
M  V30 7058 C 675.776 0.575502 -1.8757 0
M  V30 7059 O 674.901 1.4394 -1.61587 0
M  V30 7060 C 675.496 -1.61029 -2.98085 0
M  V30 7061 C 674.055 -1.4251 -3.48379 0
M  V30 7062 C 673.202 -1.64778 -2.23033 0
M  V30 7063 H 676.153 -1.27718 -0.94201 0
M  V30 7064 H 676.174 -1.05993 -3.65439 0
M  V30 7065 H 675.686 -2.67735 -2.80962 0
M  V30 7066 H 673.787 -0.380497 -3.70652 0
M  V30 7067 H 673.9 -2.17959 -4.26651 0
M  V30 7068 H 672.264 -1.07171 -2.31055 0
M  V30 7069 H 673.047 -2.72776 -2.08443 0
M  V30 7070 N 675.492 1.28418 -0.913599 0
M  V30 7071 C 676.717 1.99643 -0.561899 0
M  V30 7072 C 677.142 1.67819 0.849608 0
M  V30 7073 O 676.5 0.910503 1.56779 0
M  V30 7074 C 676.548 3.52116 -0.777622 0
M  V30 7075 O 675.652 4.12076 0.163457 0
M  V30 7076 H 674.993 0.627229 -0.217898 0
M  V30 7077 H 677.523 1.63575 -1.229 0
M  V30 7078 H 677.533 4.02163 -0.687666 0
M  V30 7079 H 676.208 3.74613 -1.8066 0
M  V30 7080 H 674.785 3.72892 0.0247827 0
M  V30 7081 N 676.97 0.677563 1.42291 0
M  V30 7082 C 677.9 0.014968 2.33495 0
M  V30 7083 C 678.881 -0.786376 1.50831 0
M  V30 7084 O 680.066 -0.742975 1.79426 0
M  V30 7085 C 677.196 -0.935023 3.34477 0
M  V30 7086 C 676.15 -0.242074 4.27315 0
M  V30 7087 C 675.476 -1.30519 5.18526 0
M  V30 7088 C 676.776 0.880604 5.14823 0
M  V30 7089 H 678.47 0.776671 2.89151 0
M  V30 7090 H 676.016 0.37494 1.39033 0
M  V30 7091 H 677.969 -1.40766 3.97194 0
M  V30 7092 H 676.693 -1.72818 2.77131 0
M  V30 7093 H 675.352 0.210351 3.65996 0
M  V30 7094 H 675 -2.09041 4.57505 0
M  V30 7095 H 674.7 -0.846652 5.81468 0
M  V30 7096 H 676.224 -1.7787 5.84119 0
M  V30 7097 H 677.638 0.489062 5.7121 0
M  V30 7098 H 676.035 1.26511 5.86613 0
M  V30 7099 H 677.105 1.72818 4.53059 0
M  V30 7100 N 678.448 -1.51871 0.421078 0
M  V30 7101 C 679.38 -2.25052 -0.434065 0
M  V30 7102 C 680.393 -1.28458 -1.00013 0
M  V30 7103 O 681.582 -1.54323 -0.897033 0
M  V30 7104 C 678.682 -2.97813 -1.61743 0
M  V30 7105 C 677.855 -4.21374 -1.17315 0
M  V30 7106 C 676.914 -4.76854 -2.22478 0
M  V30 7107 O 675.94 -5.39123 -1.82577 0
M  V30 7108 N 677.142 -4.59467 -3.54782 0
M  V30 7109 H 679.907 -2.99077 0.193073 0
M  V30 7110 H 677.468 -1.59972 0.249088 0
M  V30 7111 H 679.46 -3.3182 -2.31685 0
M  V30 7112 H 678.03 -2.26899 -2.15024 0
M  V30 7113 H 677.25 -3.93046 -0.3014 0
M  V30 7114 H 678.538 -5.01591 -0.853444 0
M  V30 7115 H 677.936 -4.09832 -3.89941 0
M  V30 7116 H 676.493 -4.9788 -4.20665 0
M  V30 7117 N 679.926 -0.151884 -1.56866 0
M  V30 7118 C 680.836 0.798876 -2.20579 0
M  V30 7119 C 681.852 1.268 -1.19154 0
M  V30 7120 O 683.028 1.32418 -1.51748 0
M  V30 7121 C 680.093 2.01861 -2.81874 0
M  V30 7122 C 679.154 1.59825 -3.9844 0
M  V30 7123 C 678.387 2.75984 -4.56802 0
M  V30 7124 O 678.61 3.92331 -4.14044 0
M  V30 7125 O 677.544 2.51175 -5.46987 0
M  V30 7126 H 681.37 0.2865 -3.02346 0
M  V30 7127 H 678.955 0.0753806 -1.4921 0
M  V30 7128 H 680.837 2.73235 -3.20813 0
M  V30 7129 H 679.512 2.52042 -2.03117 0
M  V30 7130 H 678.419 0.854601 -3.64208 0
M  V30 7131 H 679.752 1.14355 -4.78731 0
M  V30 7132 N 681.404 1.57128 0.121893 0
M  V30 7133 C 682.82 1.52357 0.47534 0
M  V30 7134 C 683.02 0.864417 1.82017 0
M  V30 7135 O 682.076 0.445529 2.48538 0
M  V30 7136 C 683.389 2.97122 0.4625 0
M  V30 7137 C 684.937 3.08196 0.546255 0
M  V30 7138 C 685.412 4.54516 0.563833 0
M  V30 7139 N 686.903 4.58959 0.625353 0
M  V30 7140 C 687.638 5.69585 0.660354 0
M  V30 7141 N 687.134 6.89714 0.653175 0
M  V30 7142 N 688.927 5.57685 0.703143 0
M  V30 7143 H 681.078 1.98364 -0.75931 0
M  V30 7144 H 683.341 0.905777 -0.279772 0
M  V30 7145 H 683.047 3.48706 -0.457943 0
M  V30 7146 H 682.921 3.54406 1.29136 0
M  V30 7147 H 685.308 2.56617 1.45712 0
M  V30 7148 H 685.389 2.53912 -0.310234 0
M  V30 7149 H 685.033 5.06741 -0.342974 0
M  V30 7150 H 684.963 5.06609 1.43716 0
M  V30 7151 H 687.454 3.72489 0.637182 0
M  V30 7152 H 687.767 7.69781 0.682425 0
M  V30 7153 H 686.112 6.92223 0.620646 0
M  V30 7154 H 689.303 4.62744 0.706095 0
M  V30 7155 H 689.476 6.43909 0.726952 0
M  V30 7156 N 682.882 -0.391992 1.52647 0
M  V30 7157 C 684.128 -1.139 1.67793 0
M  V30 7158 C 684.461 -1.89711 0.41514 0
M  V30 7159 O 683.736 -1.85431 -0.586979 0
M  V30 7160 C 684.019 -2.11966 2.91105 0
M  V30 7161 C 683.872 -1.39939 4.27478 0
M  V30 7162 C 685.191 -3.1243 3.09961 0
M  V30 7163 H 682.31 -0.412707 0.610608 0
M  V30 7164 H 684.952 -0.422725 1.85238 0
M  V30 7165 H 683.102 -2.73048 2.76364 0
M  V30 7166 H 684.774 -0.818439 4.53982 0
M  V30 7167 H 683.017 -0.701246 4.28095 0
M  V30 7168 H 683.688 -2.1158 5.09841 0
M  V30 7169 H 686.164 -2.61435 3.23714 0
M  V30 7170 H 685.04 -3.78294 3.97725 0
M  V30 7171 H 685.301 -3.81127 2.24042 0
M  V30 7172 N 684.36 -1.4356 -0.65026 0
M  V30 7173 C 685.771 -1.40324 -1.2315 0
M  V30 7174 C 686.122 -0.108812 -1.95898 0
M  V30 7175 O 685.247 0.79163 -2.01401 0
M  V30 7176 C 685.842 -2.54195 -2.23987 0
M  V30 7177 C 684.401 -2.54215 -2.77582 0
M  V30 7178 C 683.548 -2.31752 -1.5227 0
M  V30 7179 H 686.499 -1.52418 -0.442095 0
M  V30 7180 H 686.52 -2.25854 -3.0622 0
M  V30 7181 H 686.032 -3.48392 -1.71011 0
M  V30 7182 H 684.133 -1.63907 -3.34612 0
M  V30 7183 H 684.246 -3.52081 -3.24925 0
M  V30 7184 H 682.61 -1.80476 -1.79723 0
M  V30 7185 H 683.393 -3.28037 -1.01225 0
M  V30 7186 N 685.838 0.888903 -1.30139 0
M  V30 7187 C 687.254 1.17153 -1.08385 0
M  V30 7188 C 687.454 2.0088 0.157925 0
M  V30 7189 O 686.51 2.37668 0.852652 0
M  V30 7190 C 687.823 1.882 -2.34523 0
M  V30 7191 C 689.371 2.00981 -2.39949 0
M  V30 7192 C 689.846 2.75441 -3.65918 0
M  V30 7193 N 691.337 2.82989 -3.66704 0
M  V30 7194 C 692.072 3.41167 -4.60861 0
M  V30 7195 N 691.568 4.00425 -5.6536 0
M  V30 7196 N 693.361 3.38944 -4.48412 0
M  V30 7197 H 685.512 0.33053 -2.09812 0
M  V30 7198 H 687.775 0.208964 -0.924683 0
M  V30 7199 H 687.481 1.34119 -3.25123 0
M  V30 7200 H 687.355 2.88609 -2.42868 0
M  V30 7201 H 689.742 2.54234 -1.4983 0
M  V30 7202 H 689.823 0.996725 -2.35582 0
M  V30 7203 H 689.467 2.22861 -4.56394 0
M  V30 7204 H 689.397 3.77118 -3.67546 0
M  V30 7205 H 691.888 2.40912 -2.91153 0
M  V30 7206 H 692.201 4.42871 -6.33313 0
M  V30 7207 H 690.546 3.98856 -5.69157 0
M  V30 7208 H 693.737 2.91875 -3.6596 0
M  V30 7209 H 693.91 3.83989 -5.21974 0
M  V30 7210 N 687.317 1.12792 1.10072 0
M  V30 7211 C 688.594 0.796867 1.78632 0
M  V30 7212 C 688.974 -0.712739 1.98704 0
M  V30 7213 O 688.322 -1.64773 1.5831 0
M  V30 7214 C 688.532 1.57622 3.11378 0
M  V30 7215 C 689.88 1.76463 3.86194 0
M  V30 7216 O 690.904 1.54165 3.2111 0
M  V30 7217 O 689.763 2.13623 5.03018 0
M  V30 7218 H 686.857 0.290248 0.774394 0
M  V30 7219 H 689.403 1.23215 1.16688 0
M  V30 7220 H 688.175 2.60246 2.92212 0
M  V30 7221 H 687.798 1.13543 3.81043 0
M  V30 7222 N 688.795 -1.27931 0.920396 0
M  V30 7223 C 690.041 -1.95329 0.5673 0
M  V30 7224 C 690.396 -1.7107 -0.880506 0
M  V30 7225 O 689.689 -1.02497 -1.61879 0
M  V30 7226 C 689.883 -3.47853 0.820558 0
M  V30 7227 C 689.712 -3.86941 2.29143 0
M  V30 7228 C 688.482 -4.10766 2.94278 0
M  V30 7229 C 690.68 -3.97091 3.26838 0
M  V30 7230 N 688.662 -4.36578 4.31594 0
M  V30 7231 C 690.033 -4.27194 4.49339 0
M  V30 7232 C 692.088 -3.79639 3.22147 0
M  V30 7233 C 690.791 -4.41662 5.67739 0
M  V30 7234 C 692.817 -3.95328 4.39852 0
M  V30 7235 C 692.179 -4.2581 5.61128 0
M  V30 7236 H 688.278 -0.73836 0.257583 0
M  V30 7237 H 690.862 -1.54447 1.1855 0
M  V30 7238 H 689.033 -3.87709 0.231571 0
M  V30 7239 H 690.765 -4.024 0.430824 0
M  V30 7240 H 687.52 -4.05318 2.44979 0
M  V30 7241 H 687.944 -4.53555 5.0261 0
M  V30 7242 H 692.586 -3.55119 2.29457 0
M  V30 7243 H 690.304 -4.65011 6.60901 0
M  V30 7244 H 693.89 -3.83253 4.37731 0
M  V30 7245 H 692.77 -4.37691 6.50689 0
M  V30 7246 N 690.273 -0.685099 -1.4193 0
M  V30 7247 C 691.55 -0.140152 -1.95097 0
M  V30 7248 C 691.93 1.34745 -1.62502 0
M  V30 7249 O 691.278 2.08872 -0.926534 0
M  V30 7250 C 691.488 -0.420268 -3.4646 0
M  V30 7251 C 692.836 -0.342338 -4.23218 0
M  V30 7252 O 693.86 -0.354592 -3.54431 0
M  V30 7253 O 692.719 -0.293404 -5.45712 0
M  V30 7254 H 689.813 -0.00885998 -0.826953 0
M  V30 7255 H 692.359 -0.760539 -1.51703 0
M  V30 7256 H 691.131 -1.45037 -3.63428 0
M  V30 7257 H 690.754 0.231616 -3.96925 0
M  V30 7258 N 691.751 1.51645 -0.429126 0
M  V30 7259 C 693.162 1.86665 0.0359003 0
M  V30 7260 C 693.513 1.34677 1.42676 0
M  V30 7261 O 692.638 0.694195 2.04963 0
M  V30 7262 C 693.233 3.38724 0.0719221 0
M  V30 7263 C 691.792 3.7331 0.481336 0
M  V30 7264 C 690.939 2.75313 -0.331329 0
M  V30 7265 H 693.89 1.44987 -0.645333 0
M  V30 7266 H 693.911 3.7011 0.883118 0
M  V30 7267 H 693.423 3.76532 -0.940495 0
M  V30 7268 H 691.524 3.41088 1.49966 0
M  V30 7269 H 691.637 4.78631 0.211837 0
M  V30 7270 H 690.001 2.53839 0.209204 0
M  V30 7271 H 690.784 3.15963 -1.34247 0
M  V30 7272 N 693.229 0.160201 1.56784 0
M  V30 7273 C 694.161 -0.80564 2.14574 0
M  V30 7274 C 695.174 -1.20154 1.09849 0
M  V30 7275 O 696.363 -1.14333 1.37078 0
M  V30 7276 C 693.463 -2.09434 2.6644 0
M  V30 7277 C 692.636 -1.86375 3.95706 0
M  V30 7278 C 691.695 -2.99358 4.32749 0
M  V30 7279 O 690.721 -2.70475 5.00831 0
M  V30 7280 N 691.923 -4.26867 3.93402 0
M  V30 7281 H 694.688 -0.311644 2.98075 0
M  V30 7282 H 692.249 -0.0229465 1.61884 0
M  V30 7283 H 694.241 -2.84091 2.88226 0
M  V30 7284 H 692.811 -2.50057 1.8759 0
M  V30 7285 H 692.031 -0.956821 3.82412 0
M  V30 7286 H 693.319 -1.68322 4.80151 0
M  V30 7287 H 692.717 -4.53197 3.38569 0
M  V30 7288 H 691.274 -4.98263 4.20211 0
M  V30 7289 N 694.707 -1.5719 -0.113559 0
M  V30 7290 C 696.118 -1.74259 -0.670116 0
M  V30 7291 C 696.469 -0.779694 -1.80042 0
M  V30 7292 O 695.594 0.0461353 -2.16351 0
M  V30 7293 C 696.189 -3.15981 -1.22236 0
M  V30 7294 C 694.748 -3.34537 -1.72516 0
M  V30 7295 C 693.895 -2.70116 -0.627098 0
M  V30 7296 H 696.846 -1.58301 0.112396 0
M  V30 7297 H 696.867 -3.17832 -2.09197 0
M  V30 7298 H 696.379 -3.86038 -0.39949 0
M  V30 7299 H 694.48 -2.6953 -2.57263 0
M  V30 7300 H 694.593 -4.42737 -1.83086 0
M  V30 7301 H 692.957 -2.31501 -1.06204 0
M  V30 7302 H 693.74 -3.42802 0.184889 0
M  V30 7303 N 696.185 0.383891 -1.52853 0
M  V30 7304 C 697.115 1.47559 -1.80965 0
M  V30 7305 C 698.096 1.5669 -0.661986 0
M  V30 7306 O 699.281 1.71556 -0.910072 0
M  V30 7307 C 696.411 2.85114 -1.98312 0
M  V30 7308 C 695.365 2.9082 -3.14019 0
M  V30 7309 C 694.691 4.30873 -3.16627 0
M  V30 7310 C 695.991 2.60001 -4.52986 0
M  V30 7311 H 697.685 1.24283 -2.72386 0
M  V30 7312 H 695.231 0.596445 -1.31067 0
M  V30 7313 H 697.184 3.61496 -2.16561 0
M  V30 7314 H 695.908 3.09738 -1.03585 0
M  V30 7315 H 694.567 2.16886 -2.9556 0
M  V30 7316 H 694.215 4.52545 -2.19573 0
M  V30 7317 H 693.915 4.3561 -3.94357 0
M  V30 7318 H 695.439 5.09154 -3.37038 0
M  V30 7319 H 696.853 3.261 -4.71521 0
M  V30 7320 H 695.25 2.76081 -5.32822 0
M  V30 7321 H 696.32 1.5532 -4.59351 0
M  V30 7322 N 697.663 1.43903 0.642637 0
M  V30 7323 C 698.911 1.45791 1.39962 0
M  V30 7324 C 699.232 0.0873144 1.94804 0
M  V30 7325 O 698.502 -0.878825 1.75081 0
M  V30 7326 H 697.082 0.536797 0.519479 0
M  V30 7327 H 699.744 1.7959 0.757189 0
M  V30 7328 H 698.84 2.17665 2.2367 0
M  V30 7329 N 699.141 -0.881989 1.30609 0
M  V30 7330 C 700.552 -1.44956 1.17664 0
M  V30 7331 C 700.903 -1.94945 -0.221531 0
M  V30 7332 O 700.028 -1.85257 -1.11844 0
M  V30 7333 C 700.623 -2.63474 2.12995 0
M  V30 7334 C 699.182 -3.16312 2.04019 0
M  V30 7335 C 698.329 -1.89008 2.02907 0
M  V30 7336 H 701.28 -0.691645 1.42835 0
M  V30 7337 H 701.301 -3.39783 1.71253 0
M  V30 7338 H 700.813 -2.2706 3.14746 0
M  V30 7339 H 698.914 -3.57376 1.0542 0
M  V30 7340 H 699.027 -3.79409 2.9255 0
M  V30 7341 H 697.391 -2.07465 1.47751 0
M  V30 7342 H 698.174 -1.54848 3.06394 0
M  V30 7343 N 700.619 -1.13374 -1.09472 0
M  V30 7344 C 702.03 -0.90801 -1.63132 0
M  V30 7345 C 702.381 0.555576 -1.8817 0
M  V30 7346 O 701.506 1.42218 -1.63104 0
M  V30 7347 C 702.101 -1.64182 -2.96361 0
M  V30 7348 C 700.66 -1.46197 -3.46848 0
M  V30 7349 C 699.807 -1.67134 -2.21273 0
M  V30 7350 H 702.758 -1.2871 -0.928411 0
M  V30 7351 H 702.779 -1.09863 -3.64294 0
M  V30 7352 H 702.291 -2.707 -2.78106 0
M  V30 7353 H 700.392 -0.419788 -3.70228 0
M  V30 7354 H 700.505 -2.22472 -4.24315 0
M  V30 7355 H 698.869 -1.09616 -2.29905 0
M  V30 7356 H 699.652 -2.74971 -2.05538 0
M  V30 7357 N 702.098 1.27442 -0.927168 0
M  V30 7358 C 703.326 1.98498 -0.583622 0
M  V30 7359 C 703.741 1.69171 0.838241 0
M  V30 7360 O 703.098 0.951969 1.55704 0
M  V30 7361 C 703.149 3.52552 -0.799341 0
M  V30 7362 O 702.87 3.80851 -2.16527 0
M  V30 7363 C 704.371 4.4086 -0.464436 0
M  V30 7364 H 701.591 0.633487 -0.221213 0
M  V30 7365 H 704.135 1.62308 -1.24404 0
M  V30 7366 H 702.29 3.86955 -0.185728 0
M  V30 7367 H 702.704 4.75441 -2.21487 0
M  V30 7368 H 704.178 5.47967 -0.666075 0
M  V30 7369 H 704.655 4.35082 0.599995 0
M  V30 7370 H 705.261 4.11977 -1.05617 0
M  V30 7371 N 703.576 0.692616 1.41565 0
M  V30 7372 C 704.987 0.297478 1.84315 0
M  V30 7373 C 705.338 -1.16379 1.57957 0
M  V30 7374 O 704.463 -1.89303 1.0485 0
M  V30 7375 C 705.058 0.533136 3.34579 0
M  V30 7376 C 703.617 0.191944 3.7591 0
M  V30 7377 C 702.764 0.816873 2.64995 0
M  V30 7378 H 705.715 0.893488 1.31158 0
M  V30 7379 H 705.736 -0.209105 3.79925 0
M  V30 7380 H 705.248 1.59674 3.53731 0
M  V30 7381 H 703.349 -0.867512 3.6236 0
M  V30 7382 H 703.462 0.644902 4.7474 0
M  V30 7383 H 701.826 0.246715 2.53502 0
M  V30 7384 H 702.609 1.88429 2.86966 0
M  V30 7385 N 705.054 -1.51416 0.437162 0
M  V30 7386 C 706.302 -2.01687 -0.129108 0
M  V30 7387 C 706.623 -1.32329 -1.43227 0
M  V30 7388 O 705.893 -0.457796 -1.90476 0
M  V30 7389 H 704.473 -0.745277 -0.0507023 0
M  V30 7390 H 707.135 -1.86075 0.579828 0
M  V30 7391 H 706.231 -3.10605 -0.305141 0
M  V30 7392 N 706.532 -0.168513 -1.56696 0
M  V30 7393 C 707.778 0.477865 -1.9709 0
M  V30 7394 C 708.111 1.63084 -1.05438 0
M  V30 7395 O 707.386 1.94238 -0.10095 0
M  V30 7396 C 707.669 0.963521 -3.4697 0
M  V30 7397 C 707.522 -0.189443 -4.49401 0
M  V30 7398 C 708.841 1.83813 -3.99876 0
M  V30 7399 H 705.96 0.172229 -0.716593 0
M  V30 7400 H 708.602 -0.254083 -1.88293 0
M  V30 7401 H 706.752 1.58724 -3.54597 0
M  V30 7402 H 708.424 -0.826451 -4.53836 0
M  V30 7403 H 706.667 -0.845366 -4.25483 0
M  V30 7404 H 707.338 0.192446 -5.51664 0
M  V30 7405 H 709.814 1.31235 -3.94863 0
M  V30 7406 H 708.69 2.14697 -5.0517 0
M  V30 7407 H 708.951 2.78289 -3.43523 0
M  V30 7408 N 708.01 1.57248 0.105221 0
M  V30 7409 C 709.421 1.74612 0.660865 0
M  V30 7410 C 709.772 0.789231 1.79626 0
M  V30 7411 O 708.897 -0.0346611 2.16372 0
M  V30 7412 C 709.492 3.16624 1.20559 0
M  V30 7413 C 708.051 3.35447 1.7074 0
M  V30 7414 C 707.198 2.70445 0.612764 0
M  V30 7415 H 710.149 1.5824 -0.12079 0
M  V30 7416 H 710.17 3.18937 2.07508 0
M  V30 7417 H 709.682 3.86245 0.379012 0
M  V30 7418 H 707.783 2.7089 2.5583 0
M  V30 7419 H 707.896 4.43702 1.80736 0
M  V30 7420 H 706.26 2.32061 1.04975 0
M  V30 7421 H 707.043 3.42699 -0.203066 0
M  V30 7422 N 709.488 -0.375779 1.53054 0
M  V30 7423 C 710.765 -1.13453 1.59336 0
M  V30 7424 C 711.145 -2.07379 0.394614 0
M  V30 7425 O 710.493 -2.2004 -0.616 0
M  V30 7426 C 710.703 -1.8826 2.93869 0
M  V30 7427 C 712.051 -2.43155 3.48081 0
M  V30 7428 O 713.075 -1.984 2.95831 0
M  V30 7429 O 711.934 -3.24944 4.39401 0
M  V30 7430 H 709.028 -0.519856 0.643179 0
M  V30 7431 H 711.574 -0.379865 1.65394 0
M  V30 7432 H 710.346 -1.19652 3.72558 0
M  V30 7433 H 709.969 -2.70658 2.91256 0
M  V30 7434 N 710.966 -1.44241 -0.634997 0
M  V30 7435 C 711.896 -1.53632 -1.7584 0
M  V30 7436 C 712.877 -0.389603 -1.65578 0
M  V30 7437 O 714.062 -0.609219 -1.84397 0
M  V30 7438 C 711.192 -1.47644 -3.14354 0
M  V30 7439 C 710.146 -2.60752 -3.394 0
M  V30 7440 C 709.472 -2.39817 -4.77904 0
M  V30 7441 C 710.772 -4.02921 -3.32343 0
M  V30 7442 H 712.466 -2.47662 -1.68238 0
M  V30 7443 H 710.012 -1.19197 -0.807969 0
M  V30 7444 H 711.965 -1.52815 -3.92716 0
M  V30 7445 H 710.689 -0.501284 -3.2273 0
M  V30 7446 H 709.348 -2.54965 -2.63417 0
M  V30 7447 H 708.996 -1.40502 -4.82978 0
M  V30 7448 H 708.696 -3.15649 -4.9562 0
M  V30 7449 H 710.22 -2.46799 -5.585 0
M  V30 7450 H 711.634 -4.10098 -4.00615 0
M  V30 7451 H 710.031 -4.78925 -3.61595 0
M  V30 7452 H 711.101 -4.26766 -2.30215 0
M  V30 7453 N 712.444 0.87505 -1.31075 0
M  V30 7454 C 713.69 1.63009 -1.20647 0
M  V30 7455 C 714.023 1.9276 0.236045 0
M  V30 7456 O 713.298 1.55559 1.16754 0
M  V30 7457 C 713.581 2.96357 -2.0456 0
M  V30 7458 C 713.434 2.73516 -3.57084 0
M  V30 7459 C 714.753 3.974 -1.89107 0
M  V30 7460 H 711.872 0.591518 -0.439631 0
M  V30 7461 H 714.514 1.0119 -1.60812 0
M  V30 7462 H 712.664 3.49119 -1.70435 0
M  V30 7463 H 714.336 2.27465 -4.01319 0
M  V30 7464 H 712.579 2.0784 -3.80769 0
M  V30 7465 H 713.25 3.68377 -4.11099 0
M  V30 7466 H 715.726 3.5383 -2.18961 0
M  V30 7467 H 714.602 4.88596 -2.5013 0
M  V30 7468 H 714.863 4.33794 -0.85296 0
M  V30 7469 N 713.922 1.13953 1.08869 0
M  V30 7470 C 715.199 0.815768 1.77777 0
M  V30 7471 C 715.579 -0.691624 1.99449 0
M  V30 7472 O 714.927 -1.63085 1.60049 0
M  V30 7473 C 715.137 1.60916 3.09689 0
M  V30 7474 C 716.485 1.80549 3.84301 0
M  V30 7475 O 717.509 1.57562 3.19457 0
M  V30 7476 O 716.368 2.18946 5.00724 0
M  V30 7477 H 713.462 0.298445 0.771271 0
M  V30 7478 H 716.008 1.24446 1.15374 0
M  V30 7479 H 714.78 2.6333 2.89435 0
M  V30 7480 H 714.403 1.17578 3.79817 0
M  V30 7481 N 715.4 -1.26948 0.933913 0
M  V30 7482 C 716.647 -1.94087 0.577625 0
M  V30 7483 C 716.975 -1.73345 -0.88214 0
M  V30 7484 O 716.23 -1.05945 -1.64542 0
M  V30 7485 C 716.529 -3.46963 0.857406 0
M  V30 7486 C 716.195 -3.87834 2.2999 0
M  V30 7487 C 714.857 -3.98704 2.69423 0
M  V30 7488 C 717.209 -4.08442 3.23766 0
M  V30 7489 C 714.537 -4.27573 4.01744 0
M  V30 7490 C 716.889 -4.38798 4.55675 0
M  V30 7491 C 715.553 -4.47881 4.94934 0
M  V30 7492 H 714.823 -0.710215 0.211368 0
M  V30 7493 H 717.47 -1.50899 1.17905 0
M  V30 7494 H 715.775 -3.91416 0.173369 0
M  V30 7495 H 717.472 -3.97062 0.560615 0
M  V30 7496 H 714.062 -3.79916 1.98399 0
M  V30 7497 H 718.246 -3.99479 2.94499 0
M  V30 7498 H 713.502 -4.32815 4.31834 0
M  V30 7499 H 717.676 -4.5369 5.28335 0
M  V30 7500 H 715.303 -4.70005 5.97495 0
M  V30 7501 N 716.879 -0.700114 -1.41195 0
M  V30 7502 C 717.811 0.00155823 -2.292 0
M  V30 7503 C 718.824 0.739736 -1.45023 0
M  V30 7504 O 720.013 0.589684 -1.68478 0
M  V30 7505 C 717.113 1.02635 -3.22985 0
M  V30 7506 C 716.286 0.356871 -4.35942 0
M  V30 7507 C 715.345 1.28491 -5.10271 0
M  V30 7508 O 714.371 0.775562 -5.63892 0
M  V30 7509 N 715.573 2.61699 -5.18164 0
M  V30 7510 H 718.338 -0.754008 -2.9006 0
M  V30 7511 H 715.899 -0.546504 -1.52397 0
M  V30 7512 H 717.891 1.64902 -3.6958 0
M  V30 7513 H 716.461 1.68341 -2.63401 0
M  V30 7514 H 715.681 -0.445753 -3.91672 0
M  V30 7515 H 716.969 -0.108469 -5.08684 0
M  V30 7516 H 716.367 3.05594 -4.76056 0
M  V30 7517 H 714.924 3.19149 -5.6832 0
M  V30 7518 N 718.357 1.51182 -0.445186 0
M  V30 7519 C 719.768 1.86693 0.0160999 0
M  V30 7520 C 720.119 1.36183 1.4124 0
M  V30 7521 O 719.244 0.715895 2.04215 0
M  V30 7522 C 719.839 3.38781 0.0359918 0
M  V30 7523 C 718.398 3.73799 0.441715 0
M  V30 7524 C 717.545 2.74947 -0.360511 0
M  V30 7525 H 720.496 1.44294 -0.660674 0
M  V30 7526 H 720.517 3.71026 0.843813 0
M  V30 7527 H 720.029 3.75513 -0.980378 0
M  V30 7528 H 718.13 3.42659 1.4634 0
M  V30 7529 H 718.243 4.78829 0.16106 0
M  V30 7530 H 716.607 2.54047 0.182269 0
M  V30 7531 H 717.39 3.14521 -1.3759 0
M  V30 7532 N 719.835 0.176821 1.56605 0
M  V30 7533 C 721.246 -0.338963 1.83597 0
M  V30 7534 C 721.597 -1.62677 1.09684 0
M  V30 7535 O 720.722 -2.13524 0.351661 0
M  V30 7536 C 721.317 -0.62177 3.33046 0
M  V30 7537 C 719.876 -1.08198 3.60514 0
M  V30 7538 C 719.023 -0.120774 2.77037 0
M  V30 7539 H 721.974 0.400978 1.53551 0
M  V30 7540 H 721.995 -1.47321 3.50823 0
M  V30 7541 H 721.507 0.315692 3.86814 0
M  V30 7542 H 719.608 -2.03435 3.12162 0
M  V30 7543 H 719.721 -0.987329 4.68816 0
M  V30 7544 H 718.085 -0.619192 2.47059 0
M  V30 7545 H 718.868 0.810806 3.33588 0
M  V30 7546 N 721.313 -1.57302 -0.09688 0
M  V30 7547 C 722.724 -1.7496 -0.651595 0
M  V30 7548 C 723.075 -0.798746 -1.79205 0
M  V30 7549 O 722.2 0.0231858 -2.16388 0
M  V30 7550 C 722.795 -3.17259 -1.18878 0
M  V30 7551 C 721.354 -3.36348 -1.68958 0
M  V30 7552 C 720.501 -2.70766 -0.598413 0
M  V30 7553 H 723.452 -1.58173 0.12918 0
M  V30 7554 H 723.473 -3.20033 -2.05814 0
M  V30 7555 H 722.985 -3.8644 -0.358523 0
M  V30 7556 H 721.086 -2.72243 -2.5439 0
M  V30 7557 H 721.199 -4.44654 -1.7838 0
M  V30 7558 H 719.563 -2.32615 -1.03743 0
M  V30 7559 H 720.346 -3.42586 0.221238 0
M  V30 7560 N 722.791 0.367657 -1.53252 0
M  V30 7561 C 723.701 1.47415 -1.82499 0
M  V30 7562 C 724.717 1.58711 -0.713222 0
M  V30 7563 O 725.893 1.74644 -1.00306 0
M  V30 7564 C 722.958 2.82706 -2.00694 0
M  V30 7565 C 722.019 2.80955 -3.24596 0
M  V30 7566 C 721.252 4.09793 -3.41914 0
M  V30 7567 O 721.475 5.05852 -2.63572 0
M  V30 7568 O 720.409 4.15731 -4.3526 0
M  V30 7569 H 724.235 1.25624 -2.765 0
M  V30 7570 H 721.82 0.557559 -1.38606 0
M  V30 7571 H 723.702 3.62873 -2.14246 0
M  V30 7572 H 722.377 3.04479 -1.09883 0
M  V30 7573 H 721.284 1.99494 -3.16469 0
M  V30 7574 H 722.617 2.64136 -4.15323 0
M  V30 7575 N 724.269 1.44576 0.627338 0
M  V30 7576 C 725.199 1.54562 1.75022 0
M  V30 7577 C 726.18 0.398378 1.65369 0
M  V30 7578 O 727.365 0.61899 1.84071 0
M  V30 7579 C 724.495 1.49309 3.13567 0
M  V30 7580 C 723.449 2.62549 3.38012 0
M  V30 7581 C 722.775 2.42348 4.76625 0
M  V30 7582 C 724.075 4.04678 3.30202 0
M  V30 7583 H 725.769 2.4855 1.66922 0
M  V30 7584 H 723.315 1.19624 0.801636 0
M  V30 7585 H 725.268 1.54895 3.919 0
M  V30 7586 H 723.992 0.518392 3.2246 0
M  V30 7587 H 722.651 2.56358 2.62061 0
M  V30 7588 H 722.299 1.43062 4.82226 0
M  V30 7589 H 721.999 3.18273 4.93939 0
M  V30 7590 H 723.523 2.49758 5.57183 0
M  V30 7591 H 724.937 4.12217 3.98435 0
M  V30 7592 H 723.334 4.80836 3.5905 0
M  V30 7593 H 724.404 4.2798 2.27949 0
M  V30 7594 N 725.747 -0.868086 1.31537 0
M  V30 7595 C 726.993 -1.62367 1.2151 0
M  V30 7596 C 727.326 -1.92883 -0.225819 0
M  V30 7597 O 726.601 -1.56176 -1.15927 0
M  V30 7598 C 726.884 -2.95268 2.06129 0
M  V30 7599 C 726.737 -2.71619 3.58529 0
M  V30 7600 C 728.056 -3.96391 1.91212 0
M  V30 7601 H 725.175 -0.589178 0.442762 0
M  V30 7602 H 727.817 -1.00336 1.61347 0
M  V30 7603 H 725.967 -3.4821 1.72284 0
M  V30 7604 H 727.639 -2.25334 4.0252 0
M  V30 7605 H 725.882 -2.05817 3.81866 0
M  V30 7606 H 726.553 -3.66192 4.13047 0
M  V30 7607 H 729.029 -3.52663 2.20834 0
M  V30 7608 H 727.905 -4.87263 2.52718 0
M  V30 7609 H 728.166 -4.33335 0.875953 0
M  V30 7610 N 727.225 -1.14528 -1.08264 0
M  V30 7611 C 728.155 -0.856356 -2.1723 0
M  V30 7612 C 729.136 0.189251 -1.69044 0
M  V30 7613 O 730.321 0.0456119 -1.94146 0
M  V30 7614 C 727.451 -0.334662 -3.45684 0
M  V30 7615 C 726.405 -1.31588 -4.0727 0
M  V30 7616 C 725.731 -0.653428 -5.30692 0
M  V30 7617 C 727.031 -2.67866 -4.48381 0
M  V30 7618 H 728.725 -1.76755 -2.41657 0
M  V30 7619 H 726.271 -0.851287 -1.16143 0
M  V30 7620 H 728.224 -0.120128 -4.21229 0
M  V30 7621 H 726.948 0.611967 -3.20815 0
M  V30 7622 H 725.607 -1.51661 -3.33758 0
M  V30 7623 H 725.255 0.299054 -5.0211 0
M  V30 7624 H 724.955 -1.30817 -5.72853 0
M  V30 7625 H 726.479 -0.448453 -6.08951 0
M  V30 7626 H 727.893 -2.51692 -5.15096 0
M  V30 7627 H 726.29 -3.29627 -5.01464 0
M  V30 7628 H 727.36 -3.24632 -3.60198 0
M  V30 7629 N 728.703 1.26451 -0.940633 0
M  V30 7630 C 730.119 1.4608 -0.642859 0
M  V30 7631 C 730.319 1.84765 0.803998 0
M  V30 7632 O 729.375 1.96902 1.58069 0
M  V30 7633 C 730.688 2.54359 -1.60381 0
M  V30 7634 C 732.236 2.6821 -1.61345 0
M  V30 7635 C 732.711 3.79659 -2.56169 0
M  V30 7636 N 734.202 3.87051 -2.54452 0
M  V30 7637 C 734.937 4.72739 -3.24507 0
M  V30 7638 N 734.433 5.6282 -4.03987 0
M  V30 7639 N 736.226 4.66581 -3.13462 0
M  V30 7640 H 728.377 0.996289 -1.87584 0
M  V30 7641 H 730.64 0.498921 -0.80609 0
M  V30 7642 H 730.346 2.32758 -2.6366 0
M  V30 7643 H 730.22 3.52005 -1.35545 0
M  V30 7644 H 732.607 2.89184 -0.587913 0
M  V30 7645 H 732.688 1.7101 -1.90235 0
M  V30 7646 H 732.332 3.59438 -3.58841 0
M  V30 7647 H 732.262 4.76315 -2.2457 0
M  V30 7648 H 734.753 3.22649 -1.96739 0
M  V30 7649 H 735.066 6.25095 -4.54396 0
M  V30 7650 H 733.411 5.62574 -4.08088 0
M  V30 7651 H 736.602 3.9521 -2.50852 0
M  V30 7652 H 736.775 5.33141 -3.68327 0
M  V30 7653 N 730.181 0.707592 1.40822 0
M  V30 7654 C 731.091 0.0507246 2.34545 0
M  V30 7655 C 732.107 -0.752727 1.56876 0
M  V30 7656 O 733.283 -0.687524 1.89302 0
M  V30 7657 C 730.348 -0.865731 3.35717 0
M  V30 7658 C 729.409 -0.0531313 4.29267 0
M  V30 7659 C 728.642 -0.925939 5.25606 0
M  V30 7660 O 728.865 -2.16531 5.27703 0
M  V30 7661 O 727.799 -0.369194 6.00767 0
M  V30 7662 H 731.625 0.823587 2.9232 0
M  V30 7663 H 729.21 0.46801 1.4188 0
M  V30 7664 H 731.092 -1.39091 3.97783 0
M  V30 7665 H 729.767 -1.61788 2.80368 0
M  V30 7666 H 728.674 0.516931 3.70511 0
M  V30 7667 H 730.007 0.660617 4.87747 0
M  V30 7668 N 731.66 -1.50943 0.453197 0
M  V30 7669 C 732.623 -2.26684 -0.338705 0
M  V30 7670 C 733.623 -1.30748 -0.936032 0
M  V30 7671 O 734.813 -1.54327 -0.808002 0
M  V30 7672 C 731.945 -3.07063 -1.48071 0
M  V30 7673 H 733.138 -2.98131 0.325289 0
M  V30 7674 H 730.691 -1.54926 0.206771 0
M  V30 7675 H 731.426 -2.4007 -2.18029 0
M  V30 7676 H 731.211 -3.77545 -1.0584 0
M  V30 7677 H 732.701 -3.64393 -2.0398 0
M  V30 7678 N 733.138 -0.185124 -1.56509 0
M  V30 7679 C 734.386 0.455357 -1.96903 0
M  V30 7680 C 734.707 1.62839 -1.07277 0
M  V30 7681 O 733.977 1.95385 -0.141966 0
M  V30 7682 H 732.557 0.171218 -0.727113 0
M  V30 7683 H 735.219 -0.26953 -1.93027 0
M  V30 7684 H 734.315 0.80616 -3.01509 0
M  V30 7685 N 734.616 1.57351 0.0885366 0
M  V30 7686 C 735.526 2.05858 1.12516 0
M  V30 7687 C 736.542 0.984758 1.43452 0
M  V30 7688 O 737.718 1.29836 1.53963 0
M  V30 7689 C 734.783 2.47882 2.42395 0
M  V30 7690 C 733.844 3.69487 2.18582 0
M  V30 7691 C 733.077 4.09497 3.42268 0
M  V30 7692 O 733.3 3.49536 4.50755 0
M  V30 7693 O 732.234 5.02406 3.31469 0
M  V30 7694 H 736.06 2.94467 0.743146 0
M  V30 7695 H 733.645 1.46326 0.301507 0
M  V30 7696 H 735.527 2.75509 3.18862 0
M  V30 7697 H 734.202 1.62408 2.8001 0
M  V30 7698 H 733.109 3.46967 1.39875 0
M  V30 7699 H 734.442 4.55761 1.85857 0
M  V30 7700 N 736.094 -0.359525 1.53444 0
M  V30 7701 C 737.004 -1.46445 1.83278 0
M  V30 7702 C 738.02 -1.5833 0.721629 0
M  V30 7703 O 739.196 -1.7411 1.01231 0
M  V30 7704 C 736.261 -2.81638 2.02191 0
M  V30 7705 C 735.322 -2.7923 3.26082 0
M  V30 7706 C 734.555 -4.07974 3.44082 0
M  V30 7707 O 734.778 -5.04447 2.66251 0
M  V30 7708 O 733.712 -4.13417 4.37458 0
M  V30 7709 H 737.538 -1.24156 2.77162 0
M  V30 7710 H 735.123 -0.550201 1.389 0
M  V30 7711 H 737.005 -3.61732 2.16167 0
M  V30 7712 H 735.68 -3.03892 1.11496 0
M  V30 7713 H 734.587 -1.97813 3.17523 0
M  V30 7714 H 735.92 -2.6193 4.16718 0
M  V30 7715 N 737.572 -1.44907 -0.619662 0
M  V30 7716 C 738.818 -1.48512 -1.38102 0
M  V30 7717 C 739.151 -0.121686 -1.93818 0
M  V30 7718 O 738.426 0.862256 -1.74343 0
M  V30 7719 C 738.709 -2.55469 -2.53787 0
M  V30 7720 C 738.562 -4.01212 -2.03345 0
M  V30 7721 C 739.881 -2.58821 -3.55949 0
M  V30 7722 H 737 -0.540712 -0.500799 0
M  V30 7723 H 739.642 -1.7665 -0.69962 0
M  V30 7724 H 737.792 -2.31606 -3.11915 0
M  V30 7725 H 739.464 -4.36245 -1.49959 0
M  V30 7726 H 737.707 -4.12443 -1.34438 0
M  V30 7727 H 738.378 -4.71717 -2.86683 0
M  V30 7728 H 740.854 -2.80172 -3.07641 0
M  V30 7729 H 739.73 -3.35542 -4.34399 0
M  V30 7730 H 739.991 -1.63451 -4.10775 0
M  V30 7731 N 739.05 0.861098 -1.31996 0
M  V30 7732 C 740.461 1.43065 -1.19955 0
M  V30 7733 C 740.812 1.95273 0.190489 0
M  V30 7734 O 739.937 1.87012 1.08882 0
M  V30 7735 C 740.532 2.60052 -2.1716 0
M  V30 7736 C 739.091 3.13026 -2.09026 0
M  V30 7737 C 738.238 1.85756 -2.05888 0
M  V30 7738 H 741.189 0.668834 -1.43918 0
M  V30 7739 H 741.21 3.37016 -1.76637 0
M  V30 7740 H 740.722 2.22024 -3.18319 0
M  V30 7741 H 738.823 3.55653 -1.11092 0
M  V30 7742 H 738.936 3.74707 -2.98549 0
M  V30 7743 H 737.3 2.05088 -1.51033 0
M  V30 7744 H 738.083 1.49954 -3.08818 0
M  V30 7745 N 740.528 1.15101 1.07655 0
M  V30 7746 C 741.805 0.834578 1.76902 0
M  V30 7747 C 742.185 -0.670431 2.00171 0
M  V30 7748 O 741.533 -1.61378 1.6177 0
M  V30 7749 C 741.743 1.64191 3.07965 0
M  V30 7750 C 743.091 1.84615 3.82364 0
M  V30 7751 O 744.115 1.60941 3.17768 0
M  V30 7752 O 742.974 2.24244 4.98374 0
M  V30 7753 H 740.068 0.306608 0.768063 0
M  V30 7754 H 742.614 1.25663 1.14048 0
M  V30 7755 H 741.386 2.66386 2.86626 0
M  V30 7756 H 741.009 1.216 3.78549 0
M  V30 7757 N 742.006 -1.2595 0.947325 0
M  V30 7758 C 742.969 -2.24407 0.466285 0
M  V30 7759 C 743.969 -1.55054 -0.426005 0
M  V30 7760 O 745.159 -1.7275 -0.224319 0
M  V30 7761 C 742.291 -3.39326 -0.327201 0
M  V30 7762 H 743.484 -2.68477 1.33642 0
M  V30 7763 H 741.037 -1.38211 0.729887 0
M  V30 7764 H 741.772 -3.00667 -1.21532 0
M  V30 7765 H 741.557 -3.9085 0.312839 0
M  V30 7766 H 743.047 -4.12455 -0.653477 0
M  V30 7767 N 743.484 -0.715051 -1.40445 0
M  V30 7768 C 744.732 -0.253826 -2.005 0
M  V30 7769 C 745.053 1.15681 -1.5698 0
M  V30 7770 O 744.323 1.78414 -0.809027 0
M  V30 7771 H 742.903 -0.0908537 -0.741454 0
M  V30 7772 H 745.565 -0.920561 -1.7179 0
M  V30 7773 H 744.661 -0.286499 -3.10782 0
M  V30 7774 N 744.962 1.50701 -0.461195 0
M  V30 7775 C 746.373 1.867 -0.00370227 0
M  V30 7776 C 746.724 1.37673 1.39787 0
M  V30 7777 O 745.849 0.737515 2.03445 0
M  V30 7778 C 746.444 3.388 5.75786e-05 0
M  V30 7779 C 745.003 3.74247 0.402044 0
M  V30 7780 C 744.15 2.74549 -0.389652 0
M  V30 7781 H 747.101 1.43585 -0.675942 0
M  V30 7782 H 747.122 3.719 0.804414 0
M  V30 7783 H 746.634 3.74452 -1.02015 0
M  V30 7784 H 744.735 3.44192 1.42697 0
M  V30 7785 H 744.848 4.78973 0.110265 0
M  V30 7786 H 743.212 2.54226 0.155314 0
M  V30 7787 H 743.995 3.13044 -1.40919 0
M  V30 7788 N 746.441 0.193421 1.56409 0
M  V30 7789 C 747.857 -0.162447 1.58771 0
M  V30 7790 C 748.057 -1.6116 1.20954 0
M  V30 7791 O 747.113 -2.3469 0.931497 0
M  V30 7792 C 748.426 0.138391 3.00381 0
M  V30 7793 C 749.974 0.0783649 3.12902 0
M  V30 7794 C 750.449 0.352491 4.56642 0
M  V30 7795 N 751.94 0.30105 4.62221 0
M  V30 7796 C 752.675 0.487028 5.71328 0
M  V30 7797 N 752.171 0.733265 6.88909 0
M  V30 7798 N 753.964 0.4214 5.60518 0
M  V30 7799 H 746.115 1.13909 1.79272 0
M  V30 7800 H 748.378 0.454528 0.83193 0
M  V30 7801 H 748.084 1.14312 3.32604 0
M  V30 7802 H 747.958 -0.559804 3.73023 0
M  V30 7803 H 750.345 -0.916963 2.80492 0
M  V30 7804 H 750.426 0.809611 2.4265 0
M  V30 7805 H 750.07 1.34513 4.89764 0
M  V30 7806 H 750 -0.399624 5.25081 0
M  V30 7807 H 752.491 0.117279 3.77718 0
M  V30 7808 H 752.804 0.86403 7.67955 0
M  V30 7809 H 751.149 0.770138 6.9072 0
M  V30 7810 H 754.34 0.229461 4.67537 0
M  V30 7811 H 754.513 0.569758 6.4549 0
M  V30 7812 N 747.919 -1.57396 -0.0801906 0
M  V30 7813 C 748.829 -2.06451 -1.11423 0
M  V30 7814 C 749.845 -0.992352 -1.42928 0
M  V30 7815 O 751.021 -1.30651 -1.53272 0
M  V30 7816 C 748.086 -2.49164 -2.41077 0
M  V30 7817 C 747.147 -3.70641 -2.16619 0
M  V30 7818 C 746.38 -4.11307 -3.40092 0
M  V30 7819 O 746.603 -3.51922 -4.48895 0
M  V30 7820 O 745.537 -5.04157 -3.288 0
M  V30 7821 H 749.363 -2.94857 -0.727519 0
M  V30 7822 H 746.948 -1.46484 -0.293743 0
M  V30 7823 H 748.83 -2.77196 -3.17396 0
M  V30 7824 H 747.505 -1.6389 -2.79145 0
M  V30 7825 H 746.412 -3.47703 -1.38033 0
M  V30 7826 H 747.745 -4.5674 -1.83437 0
M  V30 7827 N 749.397 0.351382 -1.53633 0
M  V30 7828 C 750.645 1.09034 -1.70165 0
M  V30 7829 C 750.966 1.89413 -0.463422 0
M  V30 7830 O 750.236 1.888 0.522624 0
M  V30 7831 H 748.816 0.405522 -0.627344 0
M  V30 7832 H 751.478 0.394554 -1.90865 0
M  V30 7833 H 750.574 1.77215 -2.56907 0
M  V30 7834 N 750.875 1.45233 0.611969 0
M  V30 7835 C 752.121 1.49242 1.37312 0
M  V30 7836 C 752.454 0.131963 1.93751 0
M  V30 7837 O 751.729 -0.852999 1.74798 0
M  V30 7838 C 752.012 2.56811 2.52428 0
M  V30 7839 C 751.865 4.02284 2.01215 0
M  V30 7840 C 753.184 2.60705 3.54572 0
M  V30 7841 H 750.303 0.54336 0.497925 0
M  V30 7842 H 752.945 1.77019 0.690242 0
M  V30 7843 H 751.095 2.33256 3.10683 0
M  V30 7844 H 752.767 4.37035 1.47643 0
M  V30 7845 H 751.01 4.1315 1.32248 0
M  V30 7846 H 751.681 4.7323 2.84178 0
M  V30 7847 H 754.157 2.81799 3.06151 0
M  V30 7848 H 753.033 3.37841 4.32614 0
M  V30 7849 H 753.294 1.65627 4.09903 0
M  V30 7850 N 752.353 -0.854086 1.3245 0
M  V30 7851 C 753.578 -1.64597 1.26185 0
M  V30 7852 C 754.003 -1.87357 -0.167074 0
M  V30 7853 O 753.361 -1.42675 -1.11864 0
M  V30 7854 C 753.409 -2.98213 2.02734 0
M  V30 7855 O 752.513 -3.88784 1.37554 0
M  V30 7856 H 751.854 -0.50179 0.434859 0
M  V30 7857 H 754.384 -1.06372 1.74775 0
M  V30 7858 H 754.394 -3.4803 2.1293 0
M  V30 7859 H 753.069 -2.80969 3.06642 0
M  V30 7860 H 751.646 -3.4725 1.3591 0
M  V30 7861 N 753.831 -1.1567 -1.07043 0
M  V30 7862 C 755.078 -0.933517 -1.79699 0
M  V30 7863 C 755.406 0.539162 -1.86878 0
M  V30 7864 O 754.661 1.41592 -1.35093 0
M  V30 7865 C 754.96 -1.49677 -3.24548 0
M  V30 7866 C 754.626 -2.99047 -3.37463 0
M  V30 7867 C 753.288 -3.39824 -3.40695 0
M  V30 7868 C 755.64 -3.95027 -3.40004 0
M  V30 7869 C 752.968 -4.75215 -3.44075 0
M  V30 7870 C 755.32 -5.30295 -3.44921 0
M  V30 7871 C 753.984 -5.70562 -3.46432 0
M  V30 7872 H 753.254 -0.341598 -0.657565 0
M  V30 7873 H 755.901 -1.44263 -1.25938 0
M  V30 7874 H 754.206 -0.908915 -3.81111 0
M  V30 7875 H 755.903 -1.29986 -3.79348 0
M  V30 7876 H 752.493 -2.6653 -3.35648 0
M  V30 7877 H 756.677 -3.64596 -3.36725 0
M  V30 7878 H 751.933 -5.05754 -3.43545 0
M  V30 7879 H 756.107 -6.0446 -3.45833 0
M  V30 7880 H 753.734 -6.75456 -3.48803 0
M  V30 7881 N 755.309 1.25446 -0.953992 0
M  V30 7882 C 756.72 1.75047 -0.649255 0
M  V30 7883 C 757.071 1.77527 0.835385 0
M  V30 7884 O 756.196 1.39569 1.65377 0
M  V30 7885 C 756.791 3.17889 -1.17183 0
M  V30 7886 C 755.35 3.65052 -0.917267 0
M  V30 7887 C 754.497 2.44124 -1.31525 0
M  V30 7888 H 757.448 1.11342 -1.13087 0
M  V30 7889 H 757.469 3.76768 -0.531616 0
M  V30 7890 H 756.981 3.16052 -2.25239 0
M  V30 7891 H 755.082 3.72305 0.148354 0
M  V30 7892 H 755.195 4.53222 -1.55328 0
M  V30 7893 H 753.559 2.43906 -0.733624 0
M  V30 7894 H 754.342 2.44979 -2.405 0
M  V30 7895 N 756.787 0.722489 1.40064 0
M  V30 7896 C 758.033 0.27422 2.01543 0
M  V30 7897 C 758.388 -1.12224 1.5628 0
M  V30 7898 O 757.681 -1.75179 0.776063 0
M  V30 7899 C 757.875 0.300682 3.56133 0
M  V30 7900 C 757.704 1.69818 4.16404 0
M  V30 7901 C 756.474 2.30747 4.49537 0
M  V30 7902 C 758.672 2.64962 4.40794 0
M  V30 7903 N 756.654 3.62781 4.9524 0
M  V30 7904 C 758.025 3.81712 4.88565 0
M  V30 7905 C 760.08 2.62885 4.22842 0
M  V30 7906 C 758.783 4.96703 5.20268 0
M  V30 7907 C 760.809 3.77009 4.55652 0
M  V30 7908 C 760.171 4.92492 5.03618 0
M  V30 7909 H 756.27 0.146328 0.768188 0
M  V30 7910 H 758.854 0.94577 1.70186 0
M  V30 7911 H 757.025 -0.340461 3.86905 0
M  V30 7912 H 758.757 -0.164951 4.04364 0
M  V30 7913 H 755.512 1.82783 4.36907 0
M  V30 7914 H 755.936 4.30533 5.22465 0
M  V30 7915 H 760.578 1.74803 3.84972 0
M  V30 7916 H 758.296 5.85425 5.57049 0
M  V30 7917 H 761.882 3.76685 4.43396 0
M  V30 7918 H 760.762 5.79336 5.28525 0
M  V30 7919 N 758.265 -1.50454 0.469181 0
M  V30 7920 C 759.49 -2.0722 -0.0864892 0
M  V30 7921 C 759.915 -1.33098 -1.32916 0
M  V30 7922 O 759.273 -0.378084 -1.77314 0
M  V30 7923 C 759.321 -3.58845 -0.355384 0
M  V30 7924 O 758.425 -3.86583 -1.43622 0
M  V30 7925 H 757.766 -0.663889 0.0121414 0
M  V30 7926 H 760.296 -1.93674 0.659674 0
M  V30 7927 H 760.306 -4.03617 -0.596447 0
M  V30 7928 H 758.981 -4.12211 0.552698 0
M  V30 7929 H 757.558 -3.5365 -1.18262 0
M  V30 7930 N 759.743 -0.201713 -1.56304 0
M  V30 7931 C 761.159 0.154025 -1.58855 0
M  V30 7932 C 761.359 1.60516 -1.21807 0
M  V30 7933 O 760.415 2.34193 -0.94393 0
M  V30 7934 C 761.728 -0.154319 -3.00304 0
M  V30 7935 C 763.276 -0.0949578 -3.12856 0
M  V30 7936 C 763.751 -0.376703 -4.56448 0
M  V30 7937 N 765.242 -0.325558 -4.62054 0
M  V30 7938 C 765.977 -0.51732 -5.71062 0
M  V30 7939 N 765.473 -0.769789 -6.8851 0
M  V30 7940 N 767.266 -0.45112 -5.60287 0
M  V30 7941 H 759.417 -1.14858 -1.78666 0
M  V30 7942 H 761.68 -0.458934 -0.829508 0
M  V30 7943 H 761.386 -1.16074 -3.31994 0
M  V30 7944 H 761.26 0.540014 -3.73314 0
M  V30 7945 H 763.647 0.902075 -2.80974 0
M  V30 7946 H 763.728 -0.822468 -2.42217 0
M  V30 7947 H 763.372 -1.37108 -4.89044 0
M  V30 7948 H 763.302 0.371772 -5.25286 0
M  V30 7949 H 765.793 -0.137308 -3.7765 0
M  V30 7950 H 766.106 -0.904744 -7.67486 0
M  V30 7951 H 764.451 -0.806758 -6.90302 0
M  V30 7952 H 767.642 -0.254253 -4.67409 0
M  V30 7953 H 767.815 -0.603982 -6.45179 0
M  V30 7954 N 761.222 1.57436 0.0718424 0
M  V30 7955 C 762.633 1.75975 0.623678 0
M  V30 7956 C 762.984 0.827155 1.77912 0
M  V30 7957 O 762.109 0.0112425 2.16397 0
M  V30 7958 C 762.704 3.1911 1.13816 0
M  V30 7959 C 761.263 3.38994 1.63586 0
M  V30 7960 C 760.41 2.71684 0.555261 0
M  V30 7961 H 763.361 1.57948 -0.154328 0
M  V30 7962 H 763.382 3.23267 2.00696 0
M  V30 7963 H 762.894 3.86962 0.296998 0
M  V30 7964 H 760.995 2.76256 2.50027 0
M  V30 7965 H 761.108 4.47436 1.71283 0
M  V30 7966 H 759.472 2.34236 1.00029 0
M  V30 7967 H 760.255 3.42191 -0.275712 0
M  V30 7968 N 762.7 -0.34323 1.53817 0
M  V30 7969 C 764.111 -0.918823 1.62525 0
M  V30 7970 C 764.462 -1.89542 0.506765 0
M  V30 7971 O 763.587 -2.13326 -0.363441 0
M  V30 7972 C 764.182 -1.67326 2.94597 0
M  V30 7973 C 762.741 -2.19786 3.05567 0
M  V30 7974 C 761.888 -1.01708 2.57974 0
M  V30 7975 H 764.839 -0.121358 1.58235 0
M  V30 7976 H 764.86 -2.53615 2.83654 0
M  V30 7977 H 764.372 -0.962223 3.75983 0
M  V30 7978 H 762.473 -2.94065 2.28816 0
M  V30 7979 H 762.586 -2.46135 4.1104 0
M  V30 7980 H 760.95 -1.39058 2.13389 0
M  V30 7981 H 761.733 -0.320671 3.41799 0
M  V30 7982 N 764.178 -1.45556 -0.604258 0
M  V30 7983 C 765.426 -1.4945 -1.36048 0
M  V30 7984 C 765.747 -0.138933 -1.94504 0
M  V30 7985 O 765.017 0.832097 -1.7735 0
M  V30 7986 H 763.597 -0.550381 -0.505064 0
M  V30 7987 H 766.259 -1.81535 -0.709308 0
M  V30 7988 H 765.355 -2.23519 -2.17821 0
M  V30 7989 N 765.656 0.84705 -1.32902 0
M  V30 7990 C 766.588 1.96308 -1.18304 0
M  V30 7991 C 767.601 1.62386 -0.116082 0
M  V30 7992 O 768.79 1.74713 -0.365751 0
M  V30 7993 C 765.89 3.29556 -0.790305 0
M  V30 7994 C 765.063 3.91668 -1.94717 0
M  V30 7995 C 764.122 5.0326 -1.53674 0
M  V30 7996 O 763.148 5.22847 -2.24989 0
M  V30 7997 N 764.35 5.78852 -0.437075 0
M  V30 7998 H 767.115 2.09369 -2.14441 0
M  V30 7999 H 764.676 1.02233 -1.25539 0
M  V30 8000 H 766.668 4.01624 -0.49799 0
M  V30 8001 H 765.238 3.12497 0.0801286 0
M  V30 8002 H 764.458 3.12292 -2.40557 0
M  V30 8003 H 765.746 4.299 -2.72146 0
M  V30 8004 H 765.144 5.65484 0.156316 0
M  V30 8005 H 763.701 6.51479 -0.204399 0
M  V30 8006 N 767.134 1.16236 1.06428 0
M  V30 8007 C 768.382 0.941171 1.78847 0
M  V30 8008 C 768.703 -0.53248 1.87589 0
M  V30 8009 O 767.973 -1.38686 1.38358 0
M  V30 8010 H 766.553 0.345228 0.66244 0
M  V30 8011 H 769.215 1.46479 1.28569 0
M  V30 8012 H 768.311 1.35871 2.80972 0
M  V30 8013 N 768.612 -1.24939 0.960631 0
M  V30 8014 C 769.522 -2.29374 0.492435 0
M  V30 8015 C 770.538 -1.68262 -0.443154 0
M  V30 8016 O 771.714 -1.98875 -0.31793 0
M  V30 8017 C 768.779 -3.46023 -0.216626 0
M  V30 8018 C 767.84 -4.22557 0.757915 0
M  V30 8019 C 767.073 -5.33636 0.0825969 0
M  V30 8020 O 767.296 -5.59084 -1.13054 0
M  V30 8021 O 766.23 -5.96939 0.771177 0
M  V30 8022 H 770.056 -2.71525 1.36044 0
M  V30 8023 H 767.641 -1.30499 0.72735 0
M  V30 8024 H 769.523 -4.16885 -0.615241 0
M  V30 8025 H 768.198 -3.05862 -1.05971 0
M  V30 8026 H 767.105 -3.54099 1.20685 0
M  V30 8027 H 768.438 -4.66516 1.5692 0
M  V30 8028 N 770.09 -0.729906 -1.39679 0
M  V30 8029 C 771.337 -0.275622 -2.00615 0
M  V30 8030 C 771.665 1.13559 -1.57907 0
M  V30 8031 O 770.92 1.78745 -0.796789 0
M  V30 8032 C 771.219 -0.319564 -3.55968 0
M  V30 8033 C 770.885 -1.68308 -4.1831 0
M  V30 8034 C 769.547 -2.05629 -4.35052 0
M  V30 8035 C 771.899 -2.57857 -4.52945 0
M  V30 8036 C 769.227 -3.32018 -4.83716 0
M  V30 8037 C 771.579 -3.83613 -5.03015 0
M  V30 8038 C 770.243 -4.21033 -5.17965 0
M  V30 8039 H 769.513 -0.100857 -0.734104 0
M  V30 8040 H 772.16 -0.93575 -1.67081 0
M  V30 8041 H 770.465 0.42414 -3.89497 0
M  V30 8042 H 772.162 0.0499905 -4.00969 0
M  V30 8043 H 768.752 -1.3829 -4.05677 0
M  V30 8044 H 772.936 -2.30295 -4.39634 0
M  V30 8045 H 768.192 -3.6096 -4.93475 0
M  V30 8046 H 772.366 -4.53162 -5.28788 0
M  V30 8047 H 769.993 -5.19034 -5.55435 0
M  V30 8048 N 771.568 1.50203 -0.477153 0
M  V30 8049 C 772.984 1.59056 -0.131663 0
M  V30 8050 C 773.184 1.48473 1.36227 0
M  V30 8051 O 772.24 1.34635 2.13611 0
M  V30 8052 C 773.553 2.92741 -0.687254 0
M  V30 8053 C 775.101 3.0615 -0.651223 0
M  V30 8054 C 775.576 4.42419 -1.18446 0
M  V30 8055 N 777.067 4.48847 -1.14413 0
M  V30 8056 C 777.802 5.52689 -1.52717 0
M  V30 8057 N 777.298 6.63754 -1.98499 0
M  V30 8058 N 779.091 5.43267 -1.44282 0
M  V30 8059 H 771.242 1.55325 -1.44872 0
M  V30 8060 H 773.505 0.734395 -0.599473 0
M  V30 8061 H 773.211 3.0598 -1.73405 0
M  V30 8062 H 773.085 3.76961 -0.134215 0
M  V30 8063 H 775.472 2.92556 0.386677 0
M  V30 8064 H 775.553 2.23673 -1.24114 0
M  V30 8065 H 775.197 4.56763 -2.22103 0
M  V30 8066 H 775.127 5.23498 -0.570709 0
M  V30 8067 H 777.618 3.69152 -0.808416 0
M  V30 8068 H 777.931 7.39059 -2.25859 0
M  V30 8069 H 776.276 6.64858 -2.02456 0
M  V30 8070 H 779.467 4.55387 -1.08352 0
M  V30 8071 H 779.64 6.24074 -1.74459 0
M  V30 8072 N 773.046 0.209999 1.56195 0
M  V30 8073 C 774.009 -0.691232 2.18528 0
M  V30 8074 C 775.009 -1.13013 1.14388 0
M  V30 8075 O 776.199 -1.04081 1.39688 0
M  V30 8076 C 773.331 -1.94551 2.79934 0
M  V30 8077 H 774.524 -0.147953 2.99535 0
M  V30 8078 H 772.077 -0.0396243 1.5625 0
M  V30 8079 H 772.812 -2.53094 2.02766 0
M  V30 8080 H 772.597 -1.63938 3.56184 0
M  V30 8081 H 774.087 -2.58785 3.2775 0
M  V30 8082 N 774.524 -1.57472 -0.0634922 0
M  V30 8083 C 775.454 -2.07297 -1.07473 0
M  V30 8084 C 776.435 -0.968162 -1.39859 0
M  V30 8085 O 777.62 -1.24139 -1.49343 0
M  V30 8086 C 774.75 -2.52381 -2.38581 0
M  V30 8087 C 773.704 -3.66813 -2.20526 0
M  V30 8088 C 773.03 -3.97982 -3.57092 0
M  V30 8089 C 774.33 -4.96553 -1.61965 0
M  V30 8090 H 776.024 -2.92033 -0.660092 0
M  V30 8091 H 773.57 -1.40488 -0.316074 0
M  V30 8092 H 775.523 -2.85852 -3.09624 0
M  V30 8093 H 774.247 -1.64684 -2.8204 0
M  V30 8094 H 772.906 -3.33639 -1.51924 0
M  V30 8095 H 772.554 -3.07403 -3.98136 0
M  V30 8096 H 772.254 -4.7504 -3.45848 0
M  V30 8097 H 773.778 -4.33956 -4.29552 0
M  V30 8098 H 775.192 -5.28201 -2.22883 0
M  V30 8099 H 773.589 -5.7799 -1.61394 0
M  V30 8100 H 774.659 -4.81396 -0.581918 0
M  V30 8101 N 776.003 0.335068 -1.53997 0
M  V30 8102 C 776.951 1.43206 -1.83289 0
M  V30 8103 C 777.945 1.54081 -0.703953 0
M  V30 8104 O 779.151 1.56603 -0.887432 0
M  V30 8105 H 775.526 0.477655 -0.580818 0
M  V30 8106 H 777.497 1.15719 -2.75049 0
M  V30 8107 C 776.246 2.79602 -2.06683 0
M  V30 8108 H 775.569 2.72004 -2.93008 0
M  V30 8109 H 777.009 3.55459 -2.31139 0
M  V30 8110 C 775.468 3.25873 -0.854883 0
M  V30 8111 O 775.998 4.01657 -0.0584648 0
M  V30 8112 N 774.204 2.82777 -0.669729 0
M  V30 8113 H 773.751 2.21269 -1.31901 0
M  V30 8114 H 773.709 3.1409 0.13969 0
M  V30 8115 N 777.481 1.45874 0.596531 0
M  V30 8116 C 778.444 1.54988 1.68853 0
M  V30 8117 C 779.444 0.428302 1.54991 0
M  V30 8118 O 780.634 0.692158 1.59859 0
M  V30 8119 C 777.766 1.457 3.08195 0
M  V30 8120 H 778.959 2.52294 1.62135 0
M  V30 8121 H 776.512 1.33479 0.813206 0
M  V30 8122 H 777.247 0.496204 3.20481 0
M  V30 8123 H 777.032 2.27061 3.19665 0
M  V30 8124 H 778.522 1.55133 3.87716 0
M  V30 8125 N 778.959 -0.83999 1.33349 0
M  V30 8126 C 780.375 -1.13049 1.12659 0
M  V30 8127 C 780.575 -2.01328 -0.0832613 0
M  V30 8128 O 779.631 -2.40669 -0.763856 0
M  V30 8129 C 780.944 -1.79366 2.41347 0
M  V30 8130 C 782.492 -1.91937 2.47243 0
M  V30 8131 C 782.967 -2.6167 3.75889 0
M  V30 8132 N 784.458 -2.69184 3.76954 0
M  V30 8133 C 785.193 -3.23827 4.73206 0
M  V30 8134 N 784.689 -3.79166 5.79832 0
M  V30 8135 N 786.482 -3.22068 4.60683 0
M  V30 8136 H 778.633 -0.252432 2.10895 0
M  V30 8137 H 780.896 -0.174501 0.931801 0
M  V30 8138 H 780.602 -1.2196 3.29877 0
M  V30 8139 H 780.476 -2.79396 2.53412 0
M  V30 8140 H 782.863 -2.48498 1.59163 0
M  V30 8141 H 782.944 -0.908604 2.39119 0
M  V30 8142 H 782.588 -2.05769 4.64351 0
M  V30 8143 H 782.518 -3.63217 3.81289 0
M  V30 8144 H 785.009 -2.2994 2.99893 0
M  V30 8145 H 785.322 -4.19061 6.49313 0
M  V30 8146 H 783.667 -3.77457 5.83568 0
M  V30 8147 H 786.858 -2.78092 3.7654 0
M  V30 8148 H 787.031 -3.64351 5.35866 0
M  V30 8149 N 780.437 -1.16799 -1.0581 0
M  V30 8150 C 781.367 -0.902241 -2.15364 0
M  V30 8151 C 782.348 0.153351 -1.69407 0
M  V30 8152 O 783.533 0.00442032 -1.94199 0
M  V30 8153 C 780.663 -0.407911 -3.44896 0
M  V30 8154 C 779.617 -1.40197 -4.04387 0
M  V30 8155 C 778.943 -0.765848 -5.29187 0
M  V30 8156 C 780.243 -2.77316 -4.42598 0
M  V30 8157 H 781.937 -1.81841 -2.37853 0
M  V30 8158 H 779.483 -0.875731 -1.14311 0
M  V30 8159 H 781.436 -0.20945 -4.20879 0
M  V30 8160 H 780.16 0.54378 -3.22041 0
M  V30 8161 H 778.819 -1.58707 -3.30466 0
M  V30 8162 H 778.467 0.192482 -5.02632 0
M  V30 8163 H 778.167 -1.42939 -5.69949 0
M  V30 8164 H 779.691 -0.577519 -6.07863 0
M  V30 8165 H 781.105 -2.62561 -5.09642 0
M  V30 8166 H 779.502 -3.4019 -4.94359 0
M  V30 8167 H 780.572 -3.32199 -3.53231 0
M  V30 8168 N 781.915 1.24427 -0.967243 0
M  V30 8169 C 783.326 1.74349 -0.667785 0
M  V30 8170 C 783.677 1.78403 0.816509 0
M  V30 8171 O 782.802 1.41315 1.63887 0
M  V30 8172 C 783.397 3.16628 -1.20548 0
M  V30 8173 C 781.956 3.64059 -0.955934 0
M  V30 8174 C 781.103 2.42715 -1.34106 0
M  V30 8175 H 784.054 1.10136 -1.14262 0
M  V30 8176 H 784.075 3.76183 -0.571547 0
M  V30 8177 H 783.587 3.13646 -2.28578 0
M  V30 8178 H 781.688 3.72441 0.108858 0
M  V30 8179 H 781.801 4.51549 -1.60126 0
M  V30 8180 H 780.165 2.43114 -0.759452 0
M  V30 8181 H 780.948 2.42414 -2.43085 0
M  V30 8182 N 783.393 0.737304 1.3929 0
M  V30 8183 C 784.323 0.113988 2.33222 0
M  V30 8184 C 785.304 -0.721695 1.54031 0
M  V30 8185 O 786.489 -0.666206 1.82415 0
M  V30 8186 C 783.619 -0.792319 3.38141 0
M  V30 8187 C 782.573 -0.0606178 4.27957 0
M  V30 8188 C 781.899 -1.08409 5.23595 0
M  V30 8189 C 783.199 1.09817 5.10625 0
M  V30 8190 H 784.893 0.898611 2.85596 0
M  V30 8191 H 782.439 0.433571 1.37318 0
M  V30 8192 H 784.392 -1.23793 4.02807 0
M  V30 8193 H 783.116 -1.60908 2.84211 0
M  V30 8194 H 781.775 0.365393 3.64775 0
M  V30 8195 H 781.423 -1.89449 4.6596 0
M  V30 8196 H 781.123 -0.599269 5.84536 0
M  V30 8197 H 782.647 -1.52936 5.91137 0
M  V30 8198 H 784.061 0.730892 5.68622 0
M  V30 8199 H 782.458 1.51278 5.80719 0
M  V30 8200 H 783.528 1.91878 4.45321 0
M  V30 8201 N 784.871 -1.49948 0.485112 0
M  V30 8202 C 785.819 -2.30449 -0.315609 0
M  V30 8203 C 786.813 -1.38351 -0.977516 0
M  V30 8204 O 788.019 -1.55477 -0.907019 0
M  V30 8205 H 784.394 -0.742262 -0.120629 0
M  V30 8206 H 786.365 -2.95925 0.383552 0
M  V30 8207 C 785.114 -3.19283 -1.37673 0
M  V30 8208 H 784.437 -3.90067 -0.876801 0
M  V30 8209 H 785.877 -3.78579 -1.90929 0
M  V30 8210 C 784.336 -2.37817 -2.38631 0
M  V30 8211 O 784.866 -2.0711 -3.44192 0
M  V30 8212 N 783.072 -2.00135 -2.107 0
M  V30 8213 H 782.619 -2.25307 -1.24878 0
M  V30 8214 H 782.577 -1.45933 -2.7848 0
M  V30 8215 N 786.349 -0.21828 -1.56081 0
M  V30 8216 C 787.577 0.419258 -2.02608 0
M  V30 8217 C 787.992 1.53578 -1.09814 0
M  V30 8218 O 787.349 1.82185 -0.107149 0
M  V30 8219 C 787.4 0.953955 -3.48686 0
M  V30 8220 O 787.121 -0.11805 -4.37941 0
M  V30 8221 C 788.622 1.66506 -4.10841 0
M  V30 8222 H 785.842 0.10296 -0.663054 0
M  V30 8223 H 788.386 -0.333776 -2.01758 0
M  V30 8224 H 786.541 1.65727 -3.50162 0
M  V30 8225 H 786.955 0.283359 -5.23734 0
M  V30 8226 H 788.429 1.99123 -5.14834 0
M  V30 8227 H 788.906 2.57705 -3.55647 0
M  V30 8228 H 789.512 1.00703 -4.13206 0
M  V30 8229 N 787.827 1.57504 0.0551401 0
M  V30 8230 C 789.104 1.79155 0.785048 0
M  V30 8231 C 789.484 0.809995 1.94942 0
M  V30 8232 O 788.832 -0.153432 2.27984 0
M  V30 8233 C 789.042 3.26134 1.24247 0
M  V30 8234 C 790.39 3.90419 1.66908 0
M  V30 8235 O 791.414 3.30126 1.33772 0
M  V30 8236 O 790.273 4.96523 2.28314 0
M  V30 8237 H 787.367 0.735825 0.377479 0
M  V30 8238 H 789.913 1.69666 0.0339285 0
M  V30 8239 H 788.685 3.89145 0.410089 0
M  V30 8240 H 788.308 3.40411 2.05441 0
M  V30 8241 N 789.305 -0.326896 1.54172 0
M  V30 8242 C 790.268 -1.38515 1.8261 0
M  V30 8243 C 791.268 -1.44872 0.697771 0
M  V30 8244 O 792.458 -1.44957 0.966078 0
M  V30 8245 C 789.59 -2.77281 1.98313 0
M  V30 8246 H 790.783 -1.14556 2.77159 0
M  V30 8247 H 788.336 -0.562199 1.45839 0
M  V30 8248 H 789.071 -3.065 1.05964 0
M  V30 8249 H 788.856 -2.74061 2.80416 0
M  V30 8250 H 790.346 -3.53845 2.21773 0
M  V30 8251 N 790.784 -1.46188 -0.588786 0
M  V30 8252 C 792.014 -1.54519 -1.3714 0
M  V30 8253 C 792.422 -0.183075 -1.88312 0
M  V30 8254 O 791.765 0.828815 -1.6394 0
M  V30 8255 C 791.827 -2.48426 -2.59856 0
M  V30 8256 C 791.491 -3.94791 -2.30193 0
M  V30 8257 C 792.488 -4.84173 -1.894 0
M  V30 8258 C 790.173 -4.39872 -2.42525 0
M  V30 8259 C 792.167 -6.16647 -1.61325 0
M  V30 8260 C 789.854 -5.72381 -2.14063 0
M  V30 8261 C 790.852 -6.60589 -1.73527 0
M  V30 8262 O 790.54 -7.9064 -1.4541 0
M  V30 8263 H 790.272 -0.525264 -0.425527 0
M  V30 8264 H 792.826 -1.92242 -0.723344 0
M  V30 8265 H 791.056 -2.05709 -3.27446 0
M  V30 8266 H 792.745 -2.4723 -3.21919 0
M  V30 8267 H 793.511 -4.50603 -1.79393 0
M  V30 8268 H 789.39 -3.71444 -2.7304 0
M  V30 8269 H 792.934 -6.85454 -1.29611 0
M  V30 8270 H 788.831 -6.05501 -2.23693 0
M  V30 8271 H 789.599 -8.02847 -1.59306 0
M  V30 8272 N 792.262 0.832906 -1.33792 0
M  V30 8273 C 793.192 1.95828 -1.27176 0
M  V30 8274 C 794.173 1.69427 -0.15114 0
M  V30 8275 O 795.358 1.91167 -0.341886 0
M  V30 8276 C 792.488 3.32098 -1.01629 0
M  V30 8277 C 791.442 3.72912 -2.10049 0
M  V30 8278 C 790.768 5.07054 -1.69706 0
M  V30 8279 C 792.068 3.86064 -3.51783 0
M  V30 8280 H 793.762 2.01622 -2.21334 0
M  V30 8281 H 791.308 0.96866 -1.0655 0
M  V30 8282 H 793.261 4.10402 -0.956474 0
M  V30 8283 H 791.985 3.26577 -0.0390956 0
M  V30 8284 H 790.644 2.96876 -2.15082 0
M  V30 8285 H 790.292 4.9801 -0.706737 0
M  V30 8286 H 789.992 5.35333 -2.42264 0
M  V30 8287 H 791.516 5.87827 -1.65202 0
M  V30 8288 H 792.93 4.54665 -3.49218 0
M  V30 8289 H 791.327 4.25787 -4.22878 0
M  V30 8290 H 792.397 2.88344 -3.89854 0
M  V30 8291 N 793.74 1.17359 1.05189 0
M  V30 8292 C 794.965 0.98709 1.82404 0
M  V30 8293 C 795.39 -0.459848 1.82392 0
M  V30 8294 O 794.748 -1.32924 1.23292 0
M  V30 8295 C 794.796 1.53276 3.26403 0
M  V30 8296 O 793.9 0.746541 4.05587 0
M  V30 8297 H 793.241 0.35047 0.563974 0
M  V30 8298 H 795.771 1.55856 1.32552 0
M  V30 8299 H 795.781 1.55504 3.77203 0
M  V30 8300 H 794.456 2.58603 3.25726 0
M  V30 8301 H 793.033 0.795671 3.64312 0
M  V30 8302 N 795.218 -1.23913 0.973828 0
M  V30 8303 C 796.148 -2.27453 0.527969 0
M  V30 8304 C 797.129 -1.6443 -0.435513 0
M  V30 8305 O 798.314 -1.9137 -0.330306 0
M  V30 8306 C 795.444 -3.4685 -0.176757 0
M  V30 8307 C 794.398 -4.22181 0.703352 0
M  V30 8308 C 793.724 -5.34534 -0.133215 0
M  V30 8309 C 795.024 -4.82865 1.99096 0
M  V30 8310 H 796.718 -2.65 1.3934 0
M  V30 8311 H 794.264 -1.27388 0.671446 0
M  V30 8312 H 796.217 -4.18424 -0.499934 0
M  V30 8313 H 794.941 -3.08346 -1.07659 0
M  V30 8314 H 793.6 -3.52416 1.00989 0
M  V30 8315 H 793.248 -4.92271 -1.03338 0
M  V30 8316 H 792.948 -5.85855 0.452494 0
M  V30 8317 H 794.472 -6.08933 -0.450924 0
M  V30 8318 H 795.886 -5.46481 1.73297 0
M  V30 8319 H 794.283 -5.44444 2.52389 0
M  V30 8320 H 795.353 -4.03977 2.68199 0
M  V30 8321 N 796.696 -0.74468 -1.38897 0
M  V30 8322 C 797.628 -0.0713608 -2.29089 0
M  V30 8323 C 798.641 0.693224 -1.47303 0
M  V30 8324 O 799.83 0.535785 -1.70269 0
M  V30 8325 C 796.93 0.923078 -3.26087 0
M  V30 8326 C 796.103 0.217998 -4.36856 0
M  V30 8327 C 795.162 1.12192 -5.14101 0
M  V30 8328 O 794.188 0.595771 -5.66073 0
M  V30 8329 N 795.39 2.45082 -5.26227 0
M  V30 8330 H 798.155 -0.845906 -2.87514 0
M  V30 8331 H 795.716 -0.594712 -1.50581 0
M  V30 8332 H 797.708 1.53061 -3.74639 0
M  V30 8333 H 796.278 1.59876 -2.68623 0
M  V30 8334 H 795.498 -0.570134 -3.90055 0
M  V30 8335 H 796.786 -0.270248 -5.08082 0
M  V30 8336 H 796.184 2.90294 -4.85537 0
M  V30 8337 H 794.741 3.00907 -5.78185 0
M  V30 8338 N 798.174 1.49689 -0.493057 0
M  V30 8339 C 799.084 2.32746 0.294358 0
M  V30 8340 C 800.1 1.44117 0.975003 0
M  V30 8341 O 801.276 1.77149 0.958138 0
M  V30 8342 C 798.341 3.19358 1.34949 0
M  V30 8343 C 797.402 4.2383 0.683122 0
M  V30 8344 C 796.635 5.06303 1.68798 0
M  V30 8345 O 796.858 4.90172 2.91698 0
M  V30 8346 O 795.792 5.88826 1.24768 0
M  V30 8347 H 799.618 3.01247 -0.385254 0
M  V30 8348 H 797.203 1.47216 -0.254519 0
M  V30 8349 H 799.085 3.73037 1.96014 0
M  V30 8350 H 797.76 2.53561 2.01217 0
M  V30 8351 H 796.667 3.74086 0.0329351 0
M  V30 8352 H 798 4.9216 0.0630192 0
M  V30 8353 N 799.652 0.226554 1.55963 0
M  V30 8354 C 800.582 -0.676079 2.23498 0
M  V30 8355 C 801.563 -1.19718 1.20837 0
M  V30 8356 O 802.748 -1.24027 1.49436 0
M  V30 8357 C 799.878 -1.88217 2.91876 0
M  V30 8358 C 798.832 -1.4947 4.01052 0
M  V30 8359 C 798.158 -2.77997 4.56751 0
M  V30 8360 C 799.458 -0.680951 5.17842 0
M  V30 8361 H 801.152 -0.112989 2.99187 0
M  V30 8362 H 798.698 -0.0529046 1.43903 0
M  V30 8363 H 800.651 -2.51911 3.37815 0
M  V30 8364 H 799.375 -2.47031 2.13643 0
M  V30 8365 H 798.034 -0.881199 3.55852 0
M  V30 8366 H 797.682 -3.34966 3.75243 0
M  V30 8367 H 797.382 -2.52803 5.30438 0
M  V30 8368 H 798.906 -3.42625 5.05411 0
M  V30 8369 H 800.32 -1.22171 5.60131 0
M  V30 8370 H 798.717 -0.525898 5.97791 0
M  V30 8371 H 799.787 0.311346 4.83899 0
M  V30 8372 N 801.13 -1.57531 -0.0467866 0
M  V30 8373 C 802.062 -2.02156 -1.08007 0
M  V30 8374 C 803.075 -0.931434 -1.33522 0
M  V30 8375 O 804.264 -1.209 -1.31321 0
M  V30 8376 C 801.364 -2.36675 -2.42566 0
M  V30 8377 C 800.537 -3.67848 -2.36658 0
M  V30 8378 C 799.596 -3.89754 -3.53523 0
M  V30 8379 O 798.622 -4.61036 -3.33818 0
M  V30 8380 N 799.824 -3.34025 -4.74771 0
M  V30 8381 H 802.589 -2.91414 -0.699845 0
M  V30 8382 H 800.15 -1.60185 -0.235041 0
M  V30 8383 H 802.142 -2.48482 -3.19435 0
M  V30 8384 H 800.712 -1.53178 -2.72498 0
M  V30 8385 H 799.932 -3.66561 -1.45005 0
M  V30 8386 H 801.22 -4.53931 -2.29835 0
M  V30 8387 H 800.618 -2.76214 -4.93683 0
M  V30 8388 H 799.175 -3.51241 -5.49066 0
M  V30 8389 N 802.608 0.318715 -1.54344 0
M  V30 8390 C 803.856 1.054 -1.72439 0
M  V30 8391 C 804.177 1.88388 -0.503495 0
M  V30 8392 O 803.447 1.89866 0.48246 0
M  V30 8393 H 802.027 0.392124 -0.635805 0
M  V30 8394 H 804.689 0.35398 -1.91659 0
M  V30 8395 H 803.785 1.71726 -2.60608 0
M  V30 8396 N 804.086 1.46499 0.581025 0
M  V30 8397 C 805.018 1.53225 1.70455 0
M  V30 8398 C 806.031 0.420443 1.57277 0
M  V30 8399 O 807.22 0.688888 1.64671 0
M  V30 8400 C 804.32 1.39803 3.08721 0
M  V30 8401 C 803.493 2.65132 3.47884 0
M  V30 8402 C 802.552 2.45886 4.65217 0
M  V30 8403 O 801.578 3.19615 4.70993 0
M  V30 8404 N 802.78 1.5216 5.60203 0
M  V30 8405 H 805.545 2.50098 1.65139 0
M  V30 8406 H 803.106 1.42576 0.76705 0
M  V30 8407 H 805.098 1.24697 3.8501 0
M  V30 8408 H 803.668 0.51104 3.08394 0
M  V30 8409 H 802.888 2.95169 2.61284 0
M  V30 8410 H 804.176 3.48385 3.70817 0
M  V30 8411 H 803.574 0.913646 5.58273 0
M  V30 8412 H 802.131 1.43017 6.35916 0
M  V30 8413 N 805.565 -0.825799 1.34232 0
M  V30 8414 C 806.842 -1.56741 1.17011 0
M  V30 8415 C 807.222 -2.09512 -0.258425 0
M  V30 8416 O 806.57 -1.90664 -1.25935 0
M  V30 8417 C 806.78 -2.69104 2.22225 0
M  V30 8418 C 808.128 -3.37947 2.57055 0
M  V30 8419 O 809.152 -2.79358 2.20992 0
M  V30 8420 O 808.011 -4.43743 3.1899 0
M  V30 8421 H 805.105 -0.69163 0.453405 0
M  V30 8422 H 807.651 -0.867422 1.45856 0
M  V30 8423 H 806.423 -2.27844 3.18124 0
M  V30 8424 H 806.046 -3.46756 1.94541 0
M  V30 8425 N 807.043 -1.17915 -1.04565 0
M  V30 8426 C 808.454 -0.976383 -1.59134 0
M  V30 8427 C 808.805 0.475267 -1.90357 0
M  V30 8428 O 807.93 1.35172 -1.6899 0
M  V30 8429 C 808.525 -1.76604 -2.89131 0
M  V30 8430 C 807.084 -1.60777 -3.40335 0
M  V30 8431 C 806.231 -1.76369 -2.13985 0
M  V30 8432 H 809.182 -1.32532 -0.872985 0
M  V30 8433 H 809.203 -1.25215 -3.59307 0
M  V30 8434 H 808.715 -2.82252 -2.66375 0
M  V30 8435 H 806.816 -0.576436 -3.68114 0
M  V30 8436 H 806.929 -2.40268 -4.14497 0
M  V30 8437 H 805.293 -1.19268 -2.25049 0
M  V30 8438 H 806.076 -2.83441 -1.9369 0
M  V30 8439 N 808.521 1.23394 -0.980386 0
M  V30 8440 C 809.749 1.95844 -0.667286 0
M  V30 8441 C 810.164 1.72574 0.765735 0
M  V30 8442 O 809.521 1.01715 1.51526 0
M  V30 8443 C 809.572 3.48844 -0.948151 0
M  V30 8444 O 809.293 3.71325 -2.32485 0
M  V30 8445 C 810.794 4.38494 -0.651002 0
M  V30 8446 H 808.014 0.623535 -0.247882 0
M  V30 8447 H 810.558 1.56885 -1.31176 0
M  V30 8448 H 808.713 3.85819 -0.349681 0
M  V30 8449 H 809.127 4.65619 -2.41452 0
M  V30 8450 H 810.601 5.44648 -0.897887 0
M  V30 8451 H 811.078 4.37236 0.414922 0
M  V30 8452 H 811.684 4.07127 -1.22995 0
M  V30 8453 N 809.999 0.752036 1.385 0
M  V30 8454 C 810.949 0.0990189 2.27785 0
M  V30 8455 C 811.933 -0.694867 1.45122 0
M  V30 8456 O 813.125 -0.561077 1.67872 0
M  V30 8457 C 810.254 -0.794531 3.33979 0
M  V30 8458 C 809.34 0.00611984 4.241 0
M  V30 8459 N 809.731 1.04174 4.94956 0
M  V30 8460 C 808.029 -0.220934 4.45452 0
M  V30 8461 C 808.73 1.52601 5.61327 0
M  V30 8462 N 807.706 0.84159 5.37046 0
M  V30 8463 H 811.508 0.892208 2.8003 0
M  V30 8464 H 809.022 0.587934 1.51384 0
M  V30 8465 H 811.019 -1.27797 3.96829 0
M  V30 8466 H 809.679 -1.58669 2.83292 0
M  V30 8467 H 810.69 1.42349 4.97953 0
M  V30 8468 H 807.367 -0.986556 4.05676 0
M  V30 8469 H 808.757 2.38857 6.2801 0
M  V30 8470 N 811.477 -1.49425 0.500989 0
M  V30 8471 C 812.407 -2.31971 -0.266775 0
M  V30 8472 C 813.388 -1.40245 -0.962563 0
M  V30 8473 O 814.573 -1.69154 -0.953968 0
M  V30 8474 C 811.703 -3.20757 -1.33163 0
M  V30 8475 C 810.657 -4.21275 -0.75572 0
M  V30 8476 C 809.983 -4.98997 -1.92109 0
M  V30 8477 C 811.283 -5.21686 0.253213 0
M  V30 8478 H 812.977 -2.96408 0.422237 0
M  V30 8479 H 810.523 -1.4254 0.204505 0
M  V30 8480 H 812.476 -3.77315 -1.87646 0
M  V30 8481 H 811.2 -2.54263 -2.04983 0
M  V30 8482 H 809.859 -3.65861 -0.232637 0
M  V30 8483 H 809.507 -4.28951 -2.62698 0
M  V30 8484 H 809.207 -5.67011 -1.54182 0
M  V30 8485 H 810.731 -5.584 -2.47026 0
M  V30 8486 H 812.145 -5.72939 -0.203483 0
M  V30 8487 H 810.542 -5.9759 0.548322 0
M  V30 8488 H 811.612 -4.70596 1.16909 0
M  V30 8489 N 812.955 -0.234822 -1.55841 0
M  V30 8490 C 814.201 0.393843 -1.98939 0
M  V30 8491 C 814.534 1.58466 -1.1226 0
M  V30 8492 O 813.809 1.93635 -0.183242 0
M  V30 8493 C 814.092 0.815492 -3.50745 0
M  V30 8494 C 813.945 -0.379878 -4.48193 0
M  V30 8495 C 815.264 1.66687 -4.07312 0
M  V30 8496 H 812.383 0.141681 -0.723253 0
M  V30 8497 H 815.025 -0.333716 -1.87046 0
M  V30 8498 H 813.175 1.43541 -3.6101 0
M  V30 8499 H 814.847 -1.0182 -4.49923 0
M  V30 8500 H 813.09 -1.02507 -4.21515 0
M  V30 8501 H 813.761 -0.0417069 -5.51984 0
M  V30 8502 H 816.237 1.14369 -4.00074 0
M  V30 8503 H 815.113 1.93078 -5.13821 0
M  V30 8504 H 815.374 2.63468 -3.55017 0
M  V30 8505 O 814.472 1.61196 -0.0990213 0
M  V30 8506 H 815.163 1.87057 0.50292 0
M  V30 END ATOM
M  V30 BEGIN BOND
M  V30 END BOND
M  V30 END CTAB
M  END
$$$$
