drugbank_target|P14779 Bifunctional cytochrome P450/NADPH--P450 reductase (DB03440; DB04257; DB08086)
 OpenBabel12092119563D

  0  0  0     0  0            999 V3000
M  V30 BEGIN CTAB
M  V30 COUNTS 16436 16621 0 0 0
M  V30 BEGIN ATOM
M  V30 1 H -0.908 1.98254 -0.117106 0
M  V30 2 N 0 1.576 0 0
M  V30 3 C 0.933 2.03868 1.02534 0
M  V30 4 C 1.911 0.928543 1.3348 0
M  V30 5 O 3.095 1.19667 1.45644 0
M  V30 6 C 0.222 2.43627 2.35294 0
M  V30 7 C -0.732 3.65373 2.2001 0
M  V30 8 S 0.101 5.13292 1.52614 0
M  V30 9 C 1.257 5.56322 2.86805 0
M  V30 10 H 1.49 2.90518 0.631377 0
M  V30 11 H -0.977 1.52953 0.210867 0
M  V30 12 H 0.981 2.67203 3.11629 0
M  V30 13 H -0.358 1.57376 2.7183 0
M  V30 14 H -1.165 3.90944 3.18086 0
M  V30 15 H -1.563 3.418 1.51819 0
M  V30 16 H 0.729 5.58782 3.83104 0
M  V30 17 H 1.672 6.56266 2.65933 0
M  V30 18 H 2.08 4.83886 2.90714 0
M  V30 19 N 1.4781 -0.272755 1.55222 0
M  V30 20 C 2.7061 -1.02255 1.79865 0
M  V30 21 C 3.1211 -1.79924 0.572088 0
M  V30 22 O 2.4781 -1.76638 -0.458842 0
M  V30 23 C 2.5291 -1.98094 3.02392 0
M  V30 24 O 2.2501 -1.23572 4.20311 0
M  V30 25 C 3.7511 -2.84884 3.39641 0
M  V30 26 H 0.9711 -0.302057 0.599168 0
M  V30 27 H 3.5151 -0.303465 2.02236 0
M  V30 28 H 1.6701 -2.65465 2.82147 0
M  V30 29 H 2.0841 -1.88172 4.89583 0
M  V30 30 H 3.5581 -3.47927 4.28545 0
M  V30 31 H 4.0351 -3.54665 2.59055 0
M  V30 32 H 4.6411 -2.23003 3.62146 0
M  V30 33 N 2.9562 -1.48159 -0.537278 0
M  V30 34 C 4.2052 -1.5506 -1.28993 0
M  V30 35 C 4.5182 -0.226211 -1.94288 0
M  V30 36 O 5.7242 -0.173395 -2.70946 0
M  V30 37 C 4.1802 -2.73429 -2.34018 0
M  V30 38 C 3.7882 -4.1248 -1.74825 0
M  V30 39 C 5.5322 -2.89638 -3.10339 0
M  V30 40 C 3.4392 -5.22121 -2.77747 0
M  V30 41 H 2.3692 -0.577231 -0.485098 0
M  V30 42 H 5.0202 -1.74478 -0.568317 0
M  V30 43 H 3.4022 -2.47431 -3.09182 0
M  V30 44 H 4.5762 -4.48466 -1.05899 0
M  V30 45 H 2.8912 -4.01327 -1.11022 0
M  V30 46 H 5.4882 -3.68718 -3.87235 0
M  V30 47 H 5.8312 -1.9882 -3.65754 0
M  V30 48 H 6.3642 -3.15502 -2.42288 0
M  V30 49 H 3.1032 -6.1488 -2.27161 0
M  V30 50 H 2.6232 -4.90631 -3.45024 0
M  V30 51 H 4.3022 -5.49924 -3.4087 0
M  V30 52 N 4.4343 0.785586 -1.36625 0
M  V30 53 C 5.3813 1.89838 -1.31264 0
M  V30 54 C 6.3513 1.65115 -0.180633 0
M  V30 55 O 7.5363 1.87222 -0.36777 0
M  V30 56 C 4.6763 3.26706 -1.11163 0
M  V30 57 C 3.7893 3.63476 -2.33472 0
M  V30 58 C 2.9243 4.89481 -2.06353 0
M  V30 59 C 1.9633 5.18941 -3.24602 0
M  V30 60 N 1.1003 6.36131 -2.97123 0
M  V30 61 H 5.9403 1.93756 -2.26413 0
M  V30 62 H 3.4773 0.947454 -1.12524 0
M  V30 63 H 5.4353 4.05639 -0.975337 0
M  V30 64 H 4.0653 3.222 -0.196674 0
M  V30 65 H 3.1173 2.79636 -2.57891 0
M  V30 66 H 4.4293 3.81193 -3.21704 0
M  V30 67 H 3.5833 5.76288 -1.89675 0
M  V30 68 H 2.3223 4.73841 -1.15437 0
M  V30 69 H 1.3273 4.30615 -3.41834 0
M  V30 70 H 2.5523 5.36498 -4.16349 0
M  V30 71 H 0.4983 6.21875 -2.08823 0
M  V30 72 H 0.4153 6.54198 -3.78894 0
M  V30 73 H 1.6833 7.2591 -2.84033 0
M  V30 74 N 5.9124 1.20967 1.01018 0
M  V30 75 C 6.8224 0.980157 2.13143 0
M  V30 76 C 7.8384 -0.0660665 1.73875 0
M  V30 77 O 9.0144 0.122821 2.01025 0
M  V30 78 C 6.0794 0.54216 3.42435 0
M  V30 79 C 5.1404 1.65999 3.95908 0
M  V30 80 C 4.3734 1.2428 5.19028 0
M  V30 81 O 4.5964 0.114196 5.70286 0
M  V30 82 O 3.5304 2.05271 5.65816 0
M  V30 83 H 7.3564 1.91913 2.35379 0
M  V30 84 H 4.9414 0.994099 1.11526 0
M  V30 85 H 6.8234 0.30744 4.20277 0
M  V30 86 H 5.4984 -0.36815 3.216 0
M  V30 87 H 4.4054 1.94906 3.19316 0
M  V30 88 H 5.7384 2.54753 4.21143 0
M  V30 89 N 7.3905 -1.2043 1.01659 0
M  V30 90 C 8.3235 -2.21924 0.531521 0
M  V30 91 C 9.3015 -1.57054 -0.421032 0
M  V30 92 O 10.4855 -1.85389 -0.341035 0
M  V30 93 C 7.6125 -3.37942 -0.226496 0
M  V30 94 C 6.6585 -4.21115 0.67561 0
M  V30 95 S 7.4915 -4.90674 2.14475 0
M  V30 96 C 8.6475 -6.10113 1.3969 0
M  V30 97 H 8.8805 -2.62725 1.3915 0
M  V30 98 H 6.4135 -1.30481 0.825479 0
M  V30 99 H 8.3715 -4.05196 -0.657738 0
M  V30 100 H 7.0325 -2.956 -1.06205 0
M  V30 101 H 6.2255 -5.03918 0.091108 0
M  V30 102 H 5.8275 -3.59115 1.04463 0
M  V30 103 H 8.1195 -6.7411 0.676897 0
M  V30 104 H 9.0625 -6.73022 2.20107 0
M  V30 105 H 9.4705 -5.57283 0.899786 0
M  V30 106 N 8.8686 -0.792821 -1.36206 0
M  V30 107 C 10.2796 -0.429513 -1.81692 0
M  V30 108 C 10.6306 1.04695 -1.65932 0
M  V30 109 O 9.7556 1.81256 -1.18218 0
M  V30 110 C 10.3506 -0.772831 -3.29868 0
M  V30 111 C 8.9096 -0.462307 -3.7355 0
M  V30 112 C 8.0566 -1.00569 -2.5842 0
M  V30 113 H 11.0076 -0.985672 -1.24379 0
M  V30 114 H 11.0286 -0.0651928 -3.80444 0
M  V30 115 H 10.5406 -1.84747 -3.41307 0
M  V30 116 H 8.6416 0.604158 -3.67669 0
M  V30 117 H 8.7546 -0.985299 -4.68859 0
M  V30 118 H 7.1186 -0.428734 -2.51066 0
M  V30 119 H 7.9016 -2.08616 -2.72643 0
M  V30 120 N 10.3467 1.47872 -0.545128 0
M  V30 121 C 11.2787 2.27869 0.246621 0
M  V30 122 C 12.2917 1.36282 0.890561 0
M  V30 123 O 13.4807 1.61207 0.766449 0
M  V30 124 C 10.5807 3.10159 1.36582 0
M  V30 125 C 9.7537 4.29627 0.820954 0
M  V30 126 C 8.8127 4.93607 1.82314 0
M  V30 127 O 7.8387 5.52366 1.37406 0
M  V30 128 N 9.0407 4.87211 3.15603 0
M  V30 129 H 11.8057 2.96459 -0.439539 0
M  V30 130 H 9.3667 1.57367 -0.380421 0
M  V30 131 H 11.3587 3.49829 2.03474 0
M  V30 132 H 9.9287 2.43891 1.9554 0
M  V30 133 H 9.1487 3.94192 -0.0244032 0
M  V30 134 H 10.4367 5.06928 0.436063 0
M  V30 135 H 9.8347 4.40651 3.54744 0
M  V30 136 H 8.3917 5.30937 3.78087 0
M  V30 137 N 11.8248 0.280983 1.55075 0
M  V30 138 C 13.2358 -0.215629 1.85451 0
M  V30 139 C 13.5868 -1.54991 1.203 0
M  V30 140 O 12.7118 -2.10699 0.493435 0
M  V30 141 C 13.3068 -0.398026 3.36454 0
M  V30 142 C 11.8658 -0.838866 3.66933 0
M  V30 143 C 11.0128 0.064458 2.77225 0
M  V30 144 H 13.9638 0.502601 1.50531 0
M  V30 145 H 13.9848 -1.23569 3.59876 0
M  V30 146 H 13.4968 0.573241 3.83843 0
M  V30 147 H 11.5978 -1.8214 3.25048 0
M  V30 148 H 11.7108 -0.672123 4.74362 0
M  V30 149 H 10.0748 -0.452863 2.50642 0
M  V30 150 H 10.8578 1.03172 3.2743 0
M  V30 151 N 13.3029 -1.57598 0.00835791 0
M  V30 152 C 14.2499 -2.08945 -0.980346 0
M  V30 153 C 15.2199 -0.986738 -1.33614 0
M  V30 154 O 16.4049 -1.25968 -1.43306 0
M  V30 155 C 13.5449 -2.60425 -2.26435 0
M  V30 156 C 12.6579 -3.84628 -1.96685 0
M  V30 157 C 11.7929 -4.24579 -3.19228 0
M  V30 158 C 10.8319 -5.41596 -2.85202 0
M  V30 159 N 9.9689 -5.768 -4.00307 0
M  V30 160 H 14.8089 -2.93148 -0.535551 0
M  V30 161 H 12.3459 -1.44912 -0.252776 0
M  V30 162 H 14.3039 -2.88354 -3.01509 0
M  V30 163 H 12.9339 -1.79083 -2.68568 0
M  V30 164 H 11.9859 -3.63556 -1.11942 0
M  V30 165 H 13.2979 -4.69796 -1.67611 0
M  V30 166 H 12.4519 -4.53834 -4.02641 0
M  V30 167 H 11.1909 -3.38137 -3.51447 0
M  V30 168 H 10.1959 -5.12056 -2.00198 0
M  V30 169 H 11.4209 -6.29721 -2.54222 0
M  V30 170 H 9.3669 -4.93316 -4.32407 0
M  V30 171 H 9.2839 -6.5656 -3.74786 0
M  V30 172 H 10.5519 -6.10652 -4.84484 0
M  V30 173 N 14.781 0.264519 -1.55364 0
M  V30 174 C 16.009 1.013 -1.80405 0
M  V30 175 C 16.424 1.79618 -0.581622 0
M  V30 176 O 15.781 1.76879 0.449468 0
M  V30 177 C 15.832 1.96487 -3.03439 0
M  V30 178 O 15.553 1.21341 -4.20961 0
M  V30 179 C 17.054 2.83079 -3.41147 0
M  V30 180 H 14.274 0.298875 -0.600762 0
M  V30 181 H 16.818 0.292736 -2.02394 0
M  V30 182 H 14.973 2.63965 -2.83551 0
M  V30 183 H 15.387 1.85573 -4.90574 0
M  V30 184 H 16.861 3.4565 -4.30384 0
M  V30 185 H 17.338 3.53286 -2.60932 0
M  V30 186 H 17.944 2.2108 -3.63323 0
M  V30 187 N 16.2591 1.48442 0.529413 0
M  V30 188 C 17.5061 1.56488 1.28521 0
M  V30 189 C 17.8341 0.239042 1.93025 0
M  V30 190 O 17.0891 -0.770713 1.79885 0
M  V30 191 C 17.3881 2.6523 2.39558 0
M  V30 192 C 17.0541 4.07648 1.92702 0
M  V30 193 C 15.7161 4.46411 1.79641 0
M  V30 194 C 18.0681 4.96896 1.573 0
M  V30 195 C 15.3961 5.72226 1.29514 0
M  V30 196 C 17.7481 6.23202 1.08636 0
M  V30 197 C 16.4121 6.60821 0.941919 0
M  V30 198 H 15.6821 0.572631 0.470292 0
M  V30 199 H 18.3291 1.82161 0.59072 0
M  V30 200 H 16.6341 2.33419 3.14679 0
M  V30 201 H 18.3311 2.68671 2.97686 0
M  V30 202 H 14.9211 3.77036 2.03819 0
M  V30 203 H 19.1051 4.67626 1.66251 0
M  V30 204 H 14.3611 6.00097 1.17019 0
M  V30 205 H 18.5351 6.91753 0.803136 0
M  V30 206 H 16.1621 7.58198 0.5513 0
M  V30 207 N 17.7372 -0.778329 1.37039 0
M  V30 208 C 18.9852 -1.53361 1.31623 0
M  V30 209 C 19.3062 -1.94739 -0.100831 0
M  V30 210 O 18.5762 -1.65797 -1.04347 0
M  V30 211 H 17.1562 -0.568794 0.484234 0
M  V30 212 H 19.8182 -0.926742 1.71457 0
M  V30 213 H 18.9142 -2.43606 1.95096 0
M  V30 214 N 19.2153 -1.21501 -1.00376 0
M  V30 215 C 20.1253 -0.991447 -2.12621 0
M  V30 216 C 21.1413 0.0568446 -1.73907 0
M  V30 217 O 22.3173 -0.13348 -2.00957 0
M  V30 218 C 19.3823 -0.560312 -3.42142 0
M  V30 219 C 18.4433 -1.68096 -3.95022 0
M  V30 220 C 17.6763 -1.2703 -5.18362 0
M  V30 221 O 17.8993 -0.144438 -5.70217 0
M  V30 222 O 16.8333 -2.08269 -5.64719 0
M  V30 223 H 20.6593 -1.93158 -2.34358 0
M  V30 224 H 18.2443 -0.999999 -1.10997 0
M  V30 225 H 20.1263 -0.329724 -4.20108 0
M  V30 226 H 18.8013 0.351089 -3.2179 0
M  V30 227 H 17.7083 -1.96597 -3.18278 0
M  V30 228 H 19.0413 -2.56983 -4.19786 0
M  V30 229 N 20.6934 1.19889 -1.02296 0
M  V30 230 C 21.6234 2.25141 -0.619174 0
M  V30 231 C 22.6044 1.66051 0.368915 0
M  V30 232 O 23.7894 1.92546 0.252941 0
M  V30 233 C 20.9194 3.4728 0.0368783 0
M  V30 234 C 19.8734 4.19005 -0.872865 0
M  V30 235 C 19.1994 5.34637 -0.0822402 0
M  V30 236 C 20.4994 4.74452 -2.18387 0
M  V30 237 H 22.1934 2.59171 -1.49903 0
M  V30 238 H 19.7394 1.24579 -0.722222 0
M  V30 239 H 21.6924 4.20098 0.330958 0
M  V30 240 H 20.4164 3.12433 0.95149 0
M  V30 241 H 19.0754 3.48061 -1.15105 0
M  V30 242 H 18.7234 4.96034 0.83422 0
M  V30 243 H 18.4234 5.83557 -0.688149 0
M  V30 244 H 19.9474 6.10255 0.205238 0
M  V30 245 H 21.3614 5.39055 -1.95172 0
M  V30 246 H 19.7584 5.33834 -2.74119 0
M  V30 247 H 20.8284 3.92844 -2.84257 0
M  V30 248 N 22.1715 0.800033 1.35784 0
M  V30 249 C 23.1185 0.203848 2.29898 0
M  V30 250 C 24.0885 -0.658375 1.52495 0
M  V30 251 O 25.2735 -0.604832 1.8096 0
M  V30 252 C 22.4135 -0.64688 3.38983 0
M  V30 253 C 21.5265 0.235054 4.3136 0
M  V30 254 C 20.6615 -0.623054 5.27533 0
M  V30 255 C 19.7005 0.259682 6.11549 0
M  V30 256 N 18.8375 -0.558019 6.99879 0
M  V30 257 H 23.6775 1.01186 2.80295 0
M  V30 258 H 21.2145 0.51053 1.37957 0
M  V30 259 H 23.1725 -1.15521 4.00887 0
M  V30 260 H 21.8025 -1.42021 2.89879 0
M  V30 261 H 20.8545 0.861438 3.70518 0
M  V30 262 H 22.1665 0.914768 4.9034 0
M  V30 263 H 21.3205 -1.19678 5.94779 0
M  V30 264 H 20.0595 -1.33636 4.69034 0
M  V30 265 H 19.0645 0.845726 5.43256 0
M  V30 266 H 20.2895 0.970748 6.72126 0
M  V30 267 H 18.2355 -1.25542 6.43875 0
M  V30 268 H 18.1525 0.0637872 7.55973 0
M  V30 269 H 19.4205 -1.11523 7.71481 0
M  V30 270 N 23.6496 -1.47581 0.552962 0
M  V30 271 C 24.5976 -2.31648 -0.21023 0
M  V30 272 C 25.5916 -1.42663 -0.913432 0
M  V30 273 O 26.7976 -1.5945 -0.835201 0
M  V30 274 H 23.1726 -0.746989 -0.0866676 0
M  V30 275 H 25.1436 -2.93869 0.518051 0
M  V30 276 C 23.8926 -3.25226 -1.22976 0
M  V30 277 H 23.2156 -3.93658 -0.698077 0
M  V30 278 H 24.6556 -3.86889 -1.73473 0
M  V30 279 C 23.1146 -2.48448 -2.27542 0
M  V30 280 O 23.6446 -2.22585 -3.34393 0
M  V30 281 N 21.8506 -2.09532 -2.01357 0
M  V30 282 H 21.3976 -2.30765 -1.14478 0
M  V30 283 H 21.3556 -1.58476 -2.71538 0
M  V30 284 N 25.1277 -0.289203 -1.54924 0
M  V30 285 C 26.0577 0.58549 -2.2604 0
M  V30 286 C 27.0387 1.14753 -1.25562 0
M  V30 287 O 28.2237 1.17906 -1.54311 0
M  V30 288 C 25.3537 1.76305 -2.99222 0
M  V30 289 C 24.3077 1.33191 -4.06748 0
M  V30 290 C 23.6337 2.5937 -4.6758 0
M  V30 291 C 24.9337 0.471775 -5.20165 0
M  V30 292 H 26.6277 -0.00763532 -2.99399 0
M  V30 293 H 24.1737 -0.00511229 -1.43999 0
M  V30 294 H 26.1267 2.38097 -3.47689 0
M  V30 295 H 24.8507 2.38223 -2.23422 0
M  V30 296 H 23.5097 0.737121 -3.59113 0
M  V30 297 H 23.1577 3.19576 -3.88433 0
M  V30 298 H 22.8577 2.31228 -5.40192 0
M  V30 299 H 24.3817 3.21985 -5.18804 0
M  V30 300 H 25.7957 0.995056 -5.64599 0
M  V30 301 H 24.1927 0.284639 -5.99425 0
M  V30 302 H 25.2627 -0.506041 -4.82252 0
M  V30 303 N 26.6058 1.57591 -0.0167156 0
M  V30 304 C 28.0168 1.79201 0.523834 0
M  V30 305 C 28.3678 0.925796 1.72984 0
M  V30 306 O 27.4928 0.132792 2.15992 0
M  V30 307 C 28.0878 3.25 0.957091 0
M  V30 308 C 26.6468 3.47648 1.44283 0
M  V30 309 C 25.7938 2.74374 0.401757 0
M  V30 310 H 28.7448 1.56831 -0.242816 0
M  V30 311 H 28.7658 3.34031 1.82219 0
M  V30 312 H 28.2778 3.88019 0.0791415 0
M  V30 313 H 26.3788 2.89866 2.34113 0
M  V30 314 H 26.4918 4.56352 1.45877 0
M  V30 315 H 24.8558 2.39485 0.867121 0
M  V30 316 H 25.6388 3.40102 -0.467513 0
M  V30 317 N 28.0839 -0.256276 1.55502 0
M  V30 318 C 29.0139 -1.32102 1.92539 0
M  V30 319 C 29.9949 -1.50684 0.789194 0
M  V30 320 O 31.1799 -1.63449 1.04872 0
M  V30 321 C 28.3099 -2.67752 2.21192 0
M  V30 322 C 27.2639 -2.63878 3.36975 0
M  V30 323 C 26.5899 -4.03236 3.51147 0
M  V30 324 C 27.8899 -2.21682 4.72921 0
M  V30 325 H 29.5839 -1.01351 2.81724 0
M  V30 326 H 27.1299 -0.486105 1.35547 0
M  V30 327 H 29.0829 -3.42365 2.45691 0
M  V30 328 H 27.8069 -3.0012 1.28824 0
M  V30 329 H 26.4659 -1.91722 3.12471 0
M  V30 330 H 26.1139 -4.32854 2.56216 0
M  V30 331 H 25.8139 -4.01535 4.29003 0
M  V30 332 H 27.3379 -4.79563 3.77957 0
M  V30 333 H 28.7519 -2.86023 4.96854 0
M  V30 334 H 27.1489 -2.3111 5.53812 0
M  V30 335 H 28.2189 -1.16833 4.70615 0
M  V30 336 N 29.562 -1.4872 -0.521534 0
M  V30 337 C 30.492 -1.66771 -1.63431 0
M  V30 338 C 31.473 -0.516499 -1.62069 0
M  V30 339 O 32.658 -0.750013 -1.79132 0
M  V30 340 C 29.788 -1.71515 -3.01993 0
M  V30 341 C 28.742 -2.86222 -3.18216 0
M  V30 342 C 28.068 -2.76061 -4.57924 0
M  V30 343 C 29.368 -4.27419 -3.00184 0
M  V30 344 H 31.062 -2.59932 -1.48579 0
M  V30 345 H 28.608 -1.25089 -0.713358 0
M  V30 346 H 30.561 -1.82731 -3.7972 0
M  V30 347 H 29.285 -0.749393 -3.17886 0
M  V30 348 H 27.944 -2.74575 -2.42908 0
M  V30 349 H 27.592 -1.77437 -4.70665 0
M  V30 350 H 27.292 -3.53037 -4.69722 0
M  V30 351 H 28.816 -2.89256 -5.37739 0
M  V30 352 H 30.23 -4.39855 -3.67697 0
M  V30 353 H 28.627 -5.05458 -3.2347 0
M  V30 354 H 29.697 -4.43293 -1.96518 0
M  V30 355 N 31.0401 0.771051 -1.3745 0
M  V30 356 C 31.9881 1.90574 -1.33358 0
M  V30 357 C 32.9821 1.67936 -0.22224 0
M  V30 358 O 34.1881 1.75717 -0.390304 0
M  V30 359 H 30.5631 0.626714 -0.415612 0
M  V30 360 H 32.5341 1.91142 -2.29144 0
M  V30 361 C 31.2831 3.27845 -1.15813 0
M  V30 362 H 30.6061 3.45842 -2.00583 0
M  V30 363 H 32.0461 4.07538 -1.17 0
M  V30 364 C 30.5051 3.36625 0.136165 0
M  V30 365 O 31.0351 3.85785 1.11949 0
M  V30 366 N 29.2411 2.89997 0.187099 0
M  V30 367 H 28.7881 2.50182 -0.613753 0
M  V30 368 H 28.7461 2.96252 1.05272 0
M  V30 369 N 32.5182 1.22032 0.997298 0
M  V30 370 C 33.7462 1.06841 1.7718 0
M  V30 371 C 34.1612 -0.381325 1.84909 0
M  V30 372 O 33.5182 -1.26437 1.31605 0
M  V30 373 C 33.5692 1.66814 3.20711 0
M  V30 374 O 33.2902 3.06116 3.13408 0
M  V30 375 C 34.7912 1.56838 4.14628 0
M  V30 376 H 32.0112 0.374782 0.556578 0
M  V30 377 H 34.5552 1.61532 1.2541 0
M  V30 378 H 32.7102 1.16196 3.69564 0
M  V30 379 H 33.1242 3.34926 4.0364 0
M  V30 380 H 34.5982 2.03532 5.13107 0
M  V30 381 H 35.0752 0.524155 4.36061 0
M  V30 382 H 35.6812 2.06741 3.7167 0
M  V30 383 N 33.9963 -1.19345 1.0293 0
M  V30 384 C 35.2733 -1.84811 0.640642 0
M  V30 385 C 35.6533 -1.91855 -0.88062 0
M  V30 386 O 35.0013 -1.43587 -1.7775 0
M  V30 387 C 35.2113 -3.23755 1.30321 0
M  V30 388 C 36.5593 -3.99912 1.42673 0
M  V30 389 O 37.5833 -3.33155 1.26041 0
M  V30 390 O 36.4423 -5.19494 1.6967 0
M  V30 391 H 33.5363 -0.796443 0.222726 0
M  V30 392 H 36.0823 -1.26831 1.12748 0
M  V30 393 H 34.8543 -3.13466 2.34211 0
M  V30 394 H 34.4773 -3.89381 0.804261 0
M  V30 395 N 35.4744 -0.807222 -1.35358 0
M  V30 396 C 36.4214 -0.216037 -2.29787 0
M  V30 397 C 37.3914 0.650278 -1.52842 0
M  V30 398 O 38.5764 0.595227 -1.81278 0
M  V30 399 C 35.7164 0.628893 -3.39321 0
M  V30 400 C 34.8294 -0.257927 -4.31229 0
M  V30 401 C 33.9644 0.595069 -5.27856 0
M  V30 402 C 33.0034 -0.292111 -6.11403 0
M  V30 403 N 32.1404 0.520895 -7.00165 0
M  V30 404 H 36.9804 -1.02671 -2.79755 0
M  V30 405 H 34.5174 -0.517839 -1.37684 0
M  V30 406 H 36.4754 1.13393 -4.01494 0
M  V30 407 H 35.1054 1.40482 -2.90628 0
M  V30 408 H 34.1574 -0.881076 -3.70056 0
M  V30 409 H 35.4694 -0.940759 -4.89848 0
M  V30 410 H 34.6234 1.16522 -5.95405 0
M  V30 411 H 33.3624 1.31146 -4.69736 0
M  V30 412 H 32.3674 -0.874525 -5.428 0
M  V30 413 H 33.5924 -1.00638 -6.71602 0
M  V30 414 H 31.5384 1.22125 -6.44532 0
M  V30 415 H 31.4554 -0.103877 -7.55929 0
M  V30 416 H 32.7234 1.0743 -7.72062 0
M  V30 417 N 36.9525 1.47285 -0.560781 0
M  V30 418 C 38.3635 1.86258 -0.128343 0
M  V30 419 C 38.7145 1.46699 1.30284 0
M  V30 420 O 37.8395 0.871698 1.98067 0
M  V30 421 C 38.4345 3.38044 -0.22614 0
M  V30 422 C 36.9935 3.76096 0.151283 0
M  V30 423 C 36.1405 2.71335 -0.572084 0
M  V30 424 H 39.0915 1.38752 -0.770297 0
M  V30 425 H 39.1125 3.76441 0.554322 0
M  V30 426 H 38.6245 3.66806 -1.26788 0
M  V30 427 H 36.7255 3.52951 1.19399 0
M  V30 428 H 36.8385 4.78641 -0.209765 0
M  V30 429 H 35.2025 2.54696 -0.0147653 0
M  V30 430 H 35.9855 3.02938 -1.61504 0
M  V30 431 N 38.4306 0.297415 1.54768 0
M  V30 432 C 39.6766 -0.313376 2.00364 0
M  V30 433 C 40.0096 -1.53815 1.18553 0
M  V30 434 O 39.2846 -1.92739 0.261103 0
M  V30 435 C 39.5676 -0.673525 3.53745 0
M  V30 436 C 39.4206 0.560133 4.46299 0
M  V30 437 C 40.7396 -1.50143 4.13697 0
M  V30 438 H 37.8586 -0.112428 0.728374 0
M  V30 439 H 40.5006 0.4088 1.8555 0
M  V30 440 H 38.6506 -1.28881 3.665 0
M  V30 441 H 40.3226 1.19863 4.45455 0
M  V30 442 H 38.5656 1.19405 4.17043 0
M  V30 443 H 39.2366 0.26405 5.51368 0
M  V30 444 H 41.7126 -0.981588 4.04356 0
M  V30 445 H 40.5886 -1.72221 5.21182 0
M  V30 446 H 40.8496 -2.48952 3.65343 0
M  V30 447 N 39.9087 -1.5758 0.0250728 0
M  V30 448 C 40.8407 -2.06869 -0.986796 0
M  V30 449 C 41.8537 -0.991332 -1.29137 0
M  V30 450 O 43.0427 -1.26761 -1.25674 0
M  V30 451 C 40.1427 -2.47486 -2.31525 0
M  V30 452 C 39.3157 -3.78253 -2.19643 0
M  V30 453 C 38.3747 -4.05464 -3.35388 0
M  V30 454 O 37.4007 -4.75774 -3.12454 0
M  V30 455 N 38.6027 -3.55321 -4.59051 0
M  V30 456 H 41.3677 -2.94302 -0.566276 0
M  V30 457 H 38.9287 -1.6109 -0.161776 0
M  V30 458 H 40.9207 -2.62785 -3.07776 0
M  V30 459 H 39.4907 -1.65441 -2.65232 0
M  V30 460 H 38.7107 -3.7279 -1.28144 0
M  V30 461 H 39.9987 -4.63936 -2.08903 0
M  V30 462 H 39.3967 -2.98431 -4.80578 0
M  V30 463 H 37.9537 -3.75905 -5.32483 0
M  V30 464 N 41.3868 0.248026 -1.55636 0
M  V30 465 C 42.3498 1.29044 -1.89421 0
M  V30 466 C 43.3498 1.41134 -0.770581 0
M  V30 467 O 44.5398 1.39854 -1.03858 0
M  V30 468 C 41.6718 2.66831 -2.12165 0
M  V30 469 H 42.8648 1.00305 -2.82629 0
M  V30 470 H 40.4178 0.487265 -1.48511 0
M  V30 471 H 41.1528 3.00711 -1.21422 0
M  V30 472 H 40.9378 2.59438 -2.93997 0
M  V30 473 H 42.4278 3.42103 -2.3949 0
M  V30 474 N 42.8649 1.48995 0.513639 0
M  V30 475 C 43.7949 1.67636 1.62544 0
M  V30 476 C 44.7759 0.525087 1.61793 0
M  V30 477 O 45.9609 0.759502 1.78732 0
M  V30 478 C 43.0909 1.73114 3.01079 0
M  V30 479 C 42.0449 2.87905 3.16693 0
M  V30 480 C 41.3709 2.78486 4.56453 0
M  V30 481 C 42.6709 4.29005 2.97913 0
M  V30 482 H 44.3649 2.60716 1.47198 0
M  V30 483 H 41.9109 1.25465 0.706714 0
M  V30 484 H 43.8639 1.84742 3.78746 0
M  V30 485 H 42.5879 0.766241 3.17484 0
M  V30 486 H 41.2469 2.75859 2.41448 0
M  V30 487 H 40.8949 1.7993 4.69717 0
M  V30 488 H 40.5949 3.55523 4.67843 0
M  V30 489 H 42.1189 2.92104 5.36197 0
M  V30 490 H 43.5329 4.41798 3.65359 0
M  V30 491 H 41.9299 5.07166 3.20785 0
M  V30 492 H 42.9999 4.44329 1.94165 0
M  V30 493 N 44.343 -0.763751 1.37857 0
M  V30 494 C 45.276 -1.88486 1.28639 0
M  V30 495 C 46.254 -1.61757 0.165363 0
M  V30 496 O 47.438 -1.85391 0.340948 0
M  V30 497 C 44.565 -3.23884 0.990811 0
M  V30 498 C 43.611 -3.69514 2.12983 0
M  V30 499 S 44.444 -3.82244 3.75033 0
M  V30 500 C 45.6 -5.20477 3.47641 0
M  V30 501 H 45.833 -1.96017 2.23527 0
M  V30 502 H 43.366 -0.925684 1.23574 0
M  V30 503 H 45.324 -4.02081 0.827101 0
M  V30 504 H 43.985 -3.14044 0.0592832 0
M  V30 505 H 43.178 -4.67696 1.87821 0
M  V30 506 H 42.78 -2.98441 2.25408 0
M  V30 507 H 45.072 -6.05905 3.03125 0
M  V30 508 H 46.015 -5.50655 4.4518 0
M  V30 509 H 46.423 -4.88793 2.82385 0
M  V30 510 N 45.8211 -1.22559 -0.990812 0
M  V30 511 C 46.7681 -0.997519 -2.0813 0
M  V30 512 C 47.7381 0.0814702 -1.659 0
M  V30 513 O 48.9231 -0.0685424 -1.90677 0
M  V30 514 C 46.0631 -0.583615 -3.40129 0
M  V30 515 C 45.1761 -1.7336 -3.9569 0
M  V30 516 C 44.3111 -1.26748 -5.15857 0
M  V30 517 C 43.3501 -2.38888 -5.63559 0
M  V30 518 N 42.4871 -1.93308 -6.74964 0
M  V30 519 H 47.3271 -1.93099 -2.26973 0
M  V30 520 H 44.8641 -0.962114 -1.11273 0
M  V30 521 H 46.8221 -0.324801 -4.15934 0
M  V30 522 H 45.4521 0.312845 -3.2128 0
M  V30 523 H 44.5041 -2.10669 -3.16738 0
M  V30 524 H 45.8161 -2.57704 -4.27071 0
M  V30 525 H 44.9701 -0.966173 -5.98957 0
M  V30 526 H 43.7091 -0.394272 -4.86104 0
M  V30 527 H 42.7141 -2.69805 -4.79046 0
M  V30 528 H 43.9391 -3.26728 -5.95336 0
M  V30 529 H 41.8851 -1.08352 -6.4699 0
M  V30 530 H 41.8021 -2.71217 -7.05675 0
M  V30 531 H 43.0701 -1.66252 -7.61564 0
M  V30 532 N 47.2992 1.18797 -1.03562 0
M  V30 533 C 48.5482 1.87978 -0.731235 0
M  V30 534 C 48.8612 1.80911 0.743671 0
M  V30 535 O 50.0672 2.45407 1.16137 0
M  V30 536 C 48.5232 3.3721 -1.25768 0
M  V30 537 C 48.1312 3.52818 -2.76085 0
M  V30 538 C 49.8752 4.11825 -1.0296 0
M  V30 539 C 47.7822 4.9598 -3.22114 0
M  V30 540 H 46.7122 0.704063 -0.269835 0
M  V30 541 H 49.3632 1.34266 -1.25079 0
M  V30 542 H 47.7452 3.90359 -0.666011 0
M  V30 543 H 48.9192 3.09965 -3.40966 0
M  V30 544 H 47.2342 2.91602 -2.97249 0
M  V30 545 H 49.8312 5.17411 -1.34869 0
M  V30 546 H 50.1742 4.16287 0.0333546 0
M  V30 547 H 50.7072 3.64833 -1.58562 0
M  V30 548 H 47.4462 4.96684 -4.27768 0
M  V30 549 H 46.9662 5.39569 -2.61965 0
M  V30 550 H 48.6452 5.6467 -3.15844 0
M  V30 551 N 48.7773 0.814389 1.34928 0
M  V30 552 C 49.7403 0.235759 2.27984 0
M  V30 553 C 50.7403 -0.581412 1.49921 0
M  V30 554 O 51.9303 -0.398758 1.69575 0
M  V30 555 C 49.0623 -0.670433 3.34242 0
M  V30 556 H 50.2553 1.05659 2.80671 0
M  V30 557 H 47.8083 0.585614 1.44915 0
M  V30 558 H 48.5433 -1.51466 2.86755 0
M  V30 559 H 48.3283 -0.0860822 3.92005 0
M  V30 560 H 49.8183 -1.06935 4.03676 0
M  V30 561 N 50.2554 -1.46986 0.568584 0
M  V30 562 C 51.5324 -1.95592 -0.0174074 0
M  V30 563 C 51.9124 -1.51124 -1.47393 0
M  V30 564 O 51.2604 -0.755329 -2.15655 0
M  V30 565 C 51.4704 -3.48719 0.139913 0
M  V30 566 C 52.8184 -4.246 0.000426376 0
M  V30 567 O 53.8424 -3.56135 0.0680316 0
M  V30 568 O 52.7014 -5.46302 -0.146988 0
M  V30 569 H 49.7954 -0.82498 -0.0577599 0
M  V30 570 H 52.3414 -1.57335 0.635909 0
M  V30 571 H 51.1134 -3.73927 1.15301 0
M  V30 572 H 50.7364 -3.93771 -0.550491 0
M  V30 573 N 51.7335 -0.305618 -1.54608 0
M  V30 574 C 52.6435 0.57778 -2.27374 0
M  V30 575 C 53.6595 1.14451 -1.31061 0
M  V30 576 O 54.8355 1.16831 -1.6405 0
M  V30 577 C 51.9005 1.73123 -3.00382 0
M  V30 578 C 50.9615 1.19812 -4.12242 0
M  V30 579 C 50.1945 2.2966 -4.81759 0
M  V30 580 O 50.4175 3.49651 -4.50666 0
M  V30 581 O 49.3515 1.96091 -5.69062 0
M  V30 582 H 53.1775 -0.012624 -3.03697 0
M  V30 583 H 50.7625 -0.0719184 -1.49227 0
M  V30 584 H 52.6445 2.40315 -3.4616 0
M  V30 585 H 51.3195 2.30815 -2.26949 0
M  V30 586 H 50.2265 0.491798 -3.70853 0
M  V30 587 H 51.5595 0.666566 -4.87666 0
M  V30 588 N 53.2116 1.57565 -0.0334293 0
M  V30 589 C 54.1416 2.13511 0.945265 0
M  V30 590 C 55.1226 1.05231 1.33643 0
M  V30 591 O 56.3076 1.33084 1.41429 0
M  V30 592 C 53.4376 2.6657 2.22616 0
M  V30 593 C 52.3916 3.79676 1.97561 0
M  V30 594 C 51.7176 4.1918 3.31952 0
M  V30 595 C 53.0176 5.0557 1.31135 0
M  V30 596 H 54.7116 2.95538 0.479325 0
M  V30 597 H 52.2576 1.42166 0.229115 0
M  V30 598 H 54.2106 3.04344 2.91466 0
M  V30 599 H 52.9346 1.8171 2.71384 0
M  V30 600 H 51.5936 3.42347 1.31127 0
M  V30 601 H 51.2416 3.31296 3.78487 0
M  V30 602 H 50.9416 4.95402 3.15992 0
M  V30 603 H 52.4656 4.59541 4.02063 0
M  V30 604 H 53.8796 5.40903 1.89992 0
M  V30 605 H 52.2766 5.86818 1.25559 0
M  V30 606 H 53.3466 4.84062 0.284894 0
M  V30 607 N 54.6897 -0.239769 1.55765 0
M  V30 608 C 55.9377 -0.964892 1.77579 0
M  V30 609 C 56.2587 -1.85582 0.598699 0
M  V30 610 O 55.5287 -1.92075 -0.385226 0
M  V30 611 H 54.1087 -0.359265 0.654933 0
M  V30 612 H 56.7707 -0.256001 1.93211 0
M  V30 613 H 55.8667 -1.58243 2.69009 0
M  V30 614 N 56.1678 -1.49265 -0.50573 0
M  V30 615 C 57.0778 -1.68312 -1.63427 0
M  V30 616 C 58.0938 -0.565682 -1.64548 0
M  V30 617 O 59.2698 -0.839801 -1.83055 0
M  V30 618 C 56.3348 -1.74107 -2.99813 0
M  V30 619 C 55.3958 -2.97653 -3.09356 0
M  V30 620 C 54.6288 -3.03163 -4.39236 0
M  V30 621 O 54.8518 -2.16396 -5.27758 0
M  V30 622 O 53.7858 -3.9558 -4.53652 0
M  V30 623 H 57.6118 -2.63907 -1.50289 0
M  V30 624 H 55.1968 -1.32951 -0.681502 0
M  V30 625 H 57.0788 -1.803 -3.80881 0
M  V30 626 H 55.7538 -0.816901 -3.13223 0
M  V30 627 H 54.6608 -2.96981 -2.27493 0
M  V30 628 H 55.9938 -3.89535 -3.00871 0
M  V30 629 N 57.6459 0.756429 -1.3826 0
M  V30 630 C 58.8949 1.51082 -1.3363 0
M  V30 631 C 59.2079 1.95467 0.0720068 0
M  V30 632 O 60.4139 2.7043 0.240834 0
M  V30 633 C 58.8699 2.72893 -2.34644 0
M  V30 634 C 58.4779 2.35544 -3.81081 0
M  V30 635 C 60.2219 3.50791 -2.39052 0
M  V30 636 C 58.1289 3.53948 -4.73787 0
M  V30 637 H 57.0589 0.56727 -0.49671 0
M  V30 638 H 59.7099 0.827147 -1.638 0
M  V30 639 H 58.0919 3.43227 -1.97513 0
M  V30 640 H 59.2659 1.72894 -4.27135 0
M  V30 641 H 57.5809 1.70786 -3.79764 0
M  V30 642 H 60.1779 4.38823 -3.05513 0
M  V30 643 H 60.5209 3.91745 -1.40861 0
M  V30 644 H 61.0539 2.87467 -2.74968 0
M  V30 645 H 57.7929 3.18064 -5.73163 0
M  V30 646 H 57.3129 4.15651 -4.32428 0
M  V30 647 H 58.9919 4.20566 -4.91663 0
M  V30 648 N 59.124 1.23083 0.984299 0
M  V30 649 C 60.371 1.06057 1.72505 0
M  V30 650 C 60.699 -0.403105 1.90277 0
M  V30 651 O 59.954 -1.3149 1.44944 0
M  V30 652 C 60.253 1.72673 3.1292 0
M  V30 653 C 59.919 3.22586 3.15038 0
M  V30 654 C 58.581 3.63489 3.15324 0
M  V30 655 C 60.933 4.185 3.10657 0
M  V30 656 C 58.261 4.98772 3.08939 0
M  V30 657 C 60.613 5.53769 3.05814 0
M  V30 658 C 59.277 5.94041 3.04419 0
M  V30 659 H 58.547 0.388091 0.631242 0
M  V30 660 H 61.194 1.52963 1.15215 0
M  V30 661 H 59.499 1.18116 3.73572 0
M  V30 662 H 61.196 1.56982 3.68996 0
M  V30 663 H 57.786 2.90022 3.15571 0
M  V30 664 H 61.97 3.87911 3.09579 0
M  V30 665 H 57.226 5.29193 3.0621 0
M  V30 666 H 61.4 6.27808 3.0138 0
M  V30 667 H 59.027 6.98833 2.99227 0
M  V30 668 N 60.6021 -1.18246 1.0419 0
M  V30 669 C 61.5491 -2.2192 0.634037 0
M  V30 670 C 62.5191 -1.62179 -0.358765 0
M  V30 671 O 63.7041 -1.89122 -0.252466 0
M  V30 672 C 60.8441 -3.451 0.00445535 0
M  V30 673 C 59.9571 -4.19174 1.04487 0
M  V30 674 C 59.0921 -5.29813 0.383676 0
M  V30 675 C 58.1311 -5.9566 1.4091 0
M  V30 676 N 57.2681 -6.97834 0.772784 0
M  V30 677 H 62.1081 -2.56164 1.52263 0
M  V30 678 H 59.6451 -1.25843 0.761701 0
M  V30 679 H 61.6031 -4.15485 -0.377919 0
M  V30 680 H 60.2331 -3.11472 -0.847652 0
M  V30 681 H 59.2851 -3.47604 1.54518 0
M  V30 682 H 60.5971 -4.64267 1.82368 0
M  V30 683 H 59.7511 -6.06677 -0.0528366 0
M  V30 684 H 58.4901 -4.85825 -0.427208 0
M  V30 685 H 57.4951 -5.17535 1.85574 0
M  V30 686 H 58.7201 -6.4173 2.22171 0
M  V30 687 H 56.6661 -6.55998 -0.0177708 0
M  V30 688 H 56.5831 -7.41186 1.48928 0
M  V30 689 H 57.8511 -7.78665 0.36071 0
M  V30 690 N 62.0802 -0.821533 -1.34494 0
M  V30 691 C 63.3272 -0.408946 -1.98328 0
M  V30 692 C 63.6552 1.02764 -1.65136 0
M  V30 693 O 62.9102 1.73026 -0.914349 0
M  V30 694 C 63.2092 -0.556512 -3.53041 0
M  V30 695 C 62.8752 -1.95861 -4.0614 0
M  V30 696 C 61.5372 -2.34217 -4.20352 0
M  V30 697 C 63.8892 -2.87523 -4.34718 0
M  V30 698 C 61.2172 -3.63572 -4.6047 0
M  V30 699 C 63.5692 -4.1634 -4.76281 0
M  V30 700 C 62.2332 -4.54675 -4.88699 0
M  V30 701 H 61.5032 -0.149644 -0.725732 0
M  V30 702 H 64.1502 -1.04521 -1.6046 0
M  V30 703 H 62.4552 0.163148 -3.9146 0
M  V30 704 H 64.1522 -0.217826 -4.00408 0
M  V30 705 H 60.7422 -1.65066 -3.95539 0
M  V30 706 H 64.9262 -2.59133 -4.23277 0
M  V30 707 H 60.1822 -3.93101 -4.68275 0
M  V30 708 H 64.3562 -4.87455 -4.97354 0
M  V30 709 H 61.9832 -5.54959 -5.19542 0
M  V30 710 N 63.5583 1.46682 -0.576371 0
M  V30 711 C 64.4683 2.34032 0.163141 0
M  V30 712 C 65.4843 1.49367 0.892501 0
M  V30 713 O 66.6603 1.82252 0.857106 0
M  V30 714 C 63.7253 3.26435 1.16795 0
M  V30 715 C 62.7863 4.26998 0.443944 0
M  V30 716 C 62.0193 5.14986 1.40088 0
M  V30 717 O 62.2423 5.05785 2.637 0
M  V30 718 O 61.1763 5.94906 0.914917 0
M  V30 719 H 65.0023 2.98607 -0.55388 0
M  V30 720 H 62.5873 1.45554 -0.336821 0
M  V30 721 H 64.4693 3.83459 1.74748 0
M  V30 722 H 63.1443 2.64465 1.86655 0
M  V30 723 H 62.0513 3.7368 -0.177271 0
M  V30 724 H 63.3843 4.91736 -0.213566 0
M  V30 725 N 65.0364 0.313813 1.54444 0
M  V30 726 C 65.9994 -0.54379 2.22656 0
M  V30 727 C 66.9994 -1.05124 1.21678 0
M  V30 728 O 68.1894 -0.945225 1.46325 0
M  V30 729 C 65.3214 -1.75427 2.92298 0
M  V30 730 H 66.5144 0.0523599 2.99854 0
M  V30 731 H 64.0674 0.0647834 1.56166 0
M  V30 732 H 64.8024 -2.38991 2.19211 0
M  V30 733 H 64.5874 -1.39791 3.66334 0
M  V30 734 H 66.0774 -2.36325 3.44297 0
M  V30 735 N 66.5145 -1.57545 0.0417849 0
M  V30 736 C 67.9255 -1.80011 -0.495259 0
M  V30 737 C 68.2765 -0.953199 -1.71489 0
M  V30 738 O 67.4015 -0.167138 -2.15754 0
M  V30 739 C 67.9965 -3.26482 -0.905265 0
M  V30 740 C 66.5555 -3.499 -1.38734 0
M  V30 741 C 65.7025 -2.74979 -0.358056 0
M  V30 742 H 68.6535 -1.56425 0.267736 0
M  V30 743 H 68.6745 -3.36887 -1.76882 0
M  V30 744 H 68.1865 -3.88096 -0.017401 0
M  V30 745 H 66.2875 -2.93553 -2.29471 0
M  V30 746 H 66.4005 -4.58615 -1.38598 0
M  V30 747 H 64.7645 -2.40834 -0.828912 0
M  V30 748 H 65.5475 -3.39315 0.521561 0
M  V30 749 N 67.9926 0.231505 -1.5589 0
M  V30 750 C 69.2406 0.955461 -1.78088 0
M  V30 751 C 69.5616 1.85262 -0.608533 0
M  V30 752 O 68.8316 1.92277 0.375035 0
M  V30 753 H 67.4116 0.355787 -0.656829 0
M  V30 754 H 70.0736 0.245751 -1.93344 0
M  V30 755 H 69.1696 1.56814 -2.69844 0
M  V30 756 N 69.4707 1.49531 0.497807 0
M  V30 757 C 70.8867 1.36365 0.829266 0
M  V30 758 C 71.0867 0.399184 1.97506 0
M  V30 759 O 70.1427 -0.167977 2.51941 0
M  V30 760 C 71.4557 2.77153 1.16647 0
M  V30 761 C 73.0037 2.85877 1.27449 0
M  V30 762 C 73.4787 4.2744 1.64497 0
M  V30 763 N 74.9697 4.30265 1.7154 0
M  V30 764 C 75.7047 5.3677 2.01656 0
M  V30 765 N 75.2007 6.53516 2.29976 0
M  V30 766 N 76.9937 5.24189 2.02934 0
M  V30 767 H 69.1447 2.10831 -0.257703 0
M  V30 768 H 71.4077 0.946534 -0.0527091 0
M  V30 769 H 71.1137 3.49442 0.397872 0
M  V30 770 H 70.9877 3.12722 2.10915 0
M  V30 771 H 73.3747 2.13824 2.0338 0
M  V30 772 H 73.4557 2.53887 0.312244 0
M  V30 773 H 73.0997 5.00021 0.891151 0
M  V30 774 H 73.0297 4.56896 2.61827 0
M  V30 775 H 75.5207 3.4607 1.51802 0
M  V30 776 H 75.8337 7.30506 2.52153 0
M  V30 777 H 74.1787 6.56737 2.27425 0
M  V30 778 H 77.3697 4.31988 1.80289 0
M  V30 779 H 77.5427 6.07286 2.26071 0
M  V30 780 N 70.9488 -0.749086 1.3866 0
M  V30 781 C 72.1948 -1.51056 1.35314 0
M  V30 782 C 72.5278 -1.94121 -0.0553751 0
M  V30 783 O 71.8028 -1.65763 -1.01749 0
M  V30 784 C 72.0858 -2.76003 2.31288 0
M  V30 785 C 71.9388 -2.39047 3.8102 0
M  V30 786 C 73.2578 -3.78046 2.2532 0
M  V30 787 H 70.3768 -0.547972 0.492844 0
M  V30 788 H 73.0188 -0.857628 1.69543 0
M  V30 789 H 71.1688 -3.31716 2.02229 0
M  V30 790 H 72.8408 -1.89074 4.20771 0
M  V30 791 H 71.0838 -1.71449 3.98482 0
M  V30 792 H 71.7548 -3.28462 4.4364 0
M  V30 793 H 74.2308 -3.31884 2.50983 0
M  V30 794 H 73.1068 -4.63159 2.94576 0
M  V30 795 H 73.3678 -4.23957 1.25352 0
M  V30 796 N 72.4269 -1.23603 -0.977757 0
M  V30 797 C 73.6549 -1.09646 -1.75458 0
M  V30 798 C 74.0699 0.351859 -1.85492 0
M  V30 799 O 73.4269 1.24327 -1.336 0
M  V30 800 C 73.4779 -1.71895 -3.18016 0
M  V30 801 O 73.1989 -3.11063 -3.08498 0
M  V30 802 C 74.6999 -1.63415 -4.12081 0
M  V30 803 H 71.9199 -0.38359 -0.550545 0
M  V30 804 H 74.4639 -1.63507 -1.22824 0
M  V30 805 H 72.6189 -1.22061 -3.67668 0
M  V30 806 H 73.0329 -3.41305 -3.9826 0
M  V30 807 H 74.5069 -2.11669 -5.09804 0
M  V30 808 H 74.9839 -0.593462 -4.35172 0
M  V30 809 H 75.5899 -2.12628 -3.68334 0
M  V30 810 N 73.905 1.17692 -1.04816 0
M  V30 811 C 75.321 1.39863 -0.768794 0
M  V30 812 C 75.521 1.91118 0.638451 0
M  V30 813 O 74.577 2.10036 1.40146 0
M  V30 814 C 75.89 2.39274 -1.82122 0
M  V30 815 C 77.438 2.52987 -1.843 0
M  V30 816 C 77.913 3.55669 -2.88555 0
M  V30 817 N 79.404 3.63183 -2.87493 0
M  V30 818 C 80.139 4.42381 -3.64811 0
M  V30 819 N 79.635 5.25125 -4.51903 0
M  V30 820 N 81.428 4.37217 -3.53267 0
M  V30 821 H 73.579 0.82752 -1.95617 0
M  V30 822 H 75.842 0.426123 -0.846831 0
M  V30 823 H 75.548 2.08678 -2.83102 0
M  V30 824 H 75.422 3.38725 -1.65967 0
M  V30 825 H 77.809 2.82896 -0.839869 0
M  V30 826 H 77.89 1.53623 -2.04532 0
M  V30 827 H 77.534 3.26499 -3.89051 0
M  V30 828 H 77.464 4.54728 -2.65575 0
M  V30 829 H 79.955 3.04103 -2.24343 0
M  V30 830 H 80.268 5.82728 -5.07591 0
M  V30 831 H 78.613 5.24519 -4.55966 0
M  V30 832 H 81.804 3.71626 -2.84625 0
M  V30 833 H 81.977 4.98696 -4.13771 0
M  V30 834 N 75.3831 0.828654 1.34056 0
M  V30 835 C 76.6131 0.431993 2.02033 0
M  V30 836 C 77.0211 -0.96844 1.62536 0
M  V30 837 O 76.3641 -1.6391 0.829408 0
M  V30 838 C 76.4261 0.461224 3.56529 0
M  V30 839 C 76.0901 1.81599 4.1937 0
M  V30 840 C 77.0871 2.7777 4.39477 0
M  V30 841 C 74.7721 2.10604 4.56017 0
M  V30 842 C 76.7661 4.01115 4.95364 0
M  V30 843 C 74.4531 3.34207 5.11614 0
M  V30 844 C 75.4511 4.2928 5.31232 0
M  V30 845 O 75.1391 5.50699 5.8565 0
M  V30 846 H 74.8711 0.170943 0.654029 0
M  V30 847 H 77.4251 1.11988 1.72185 0
M  V30 848 H 75.6551 -0.283388 3.8566 0
M  V30 849 H 77.3441 0.0838149 4.05813 0
M  V30 850 H 78.1101 2.56659 4.11523 0
M  V30 851 H 73.9891 1.37402 4.40047 0
M  V30 852 H 77.5331 4.75333 5.10592 0
M  V30 853 H 73.4301 3.55179 5.38997 0
M  V30 854 H 74.1981 5.52298 6.04077 0
M  V30 855 N 76.8612 -1.46375 0.584142 0
M  V30 856 C 77.7912 -2.33103 -0.136037 0
M  V30 857 C 78.7722 -1.45431 -0.882255 0
M  V30 858 O 79.9572 -1.74246 -0.857434 0
M  V30 859 C 77.0872 -3.27731 -1.14933 0
M  V30 860 C 76.0412 -4.24855 -0.517862 0
M  V30 861 C 75.3672 -5.09001 -1.63773 0
M  V30 862 C 76.6672 -5.19439 0.545886 0
M  V30 863 H 78.3612 -2.93568 0.588086 0
M  V30 864 H 75.9072 -1.41166 0.284259 0
M  V30 865 H 77.8602 -3.87261 -1.66153 0
M  V30 866 H 76.5842 -2.65377 -1.90375 0
M  V30 867 H 75.2432 -3.6659 -0.0267361 0
M  V30 868 H 74.8912 -4.43031 -2.38185 0
M  V30 869 H 74.5912 -5.74777 -1.22085 0
M  V30 870 H 76.1152 -5.71396 -2.15266 0
M  V30 871 H 77.5292 -5.73177 0.118704 0
M  V30 872 H 75.9262 -5.93566 0.88317 0
M  V30 873 H 76.9962 -4.63285 1.43162 0
M  V30 874 N 78.3393 -0.321999 -1.54275 0
M  V30 875 C 79.5643 0.285791 -2.05422 0
M  V30 876 C 79.9893 1.45124 -1.19669 0
M  V30 877 O 79.3473 1.80132 -0.205441 0
M  V30 878 C 79.3953 0.69956 -3.53749 0
M  V30 879 O 78.4993 1.8021 -3.70942 0
M  V30 880 H 77.8403 0.0518962 -0.661969 0
M  V30 881 H 80.3703 -0.469954 -1.9913 0
M  V30 882 H 80.3803 0.982649 -3.9599 0
M  V30 883 H 79.0553 -0.152864 -4.15619 0
M  V30 884 H 77.6323 1.51794 -3.40607 0
M  V30 885 N 79.8174 1.5752 -0.0501392 0
M  V30 886 C 81.0424 1.97376 0.636997 0
M  V30 887 C 81.4674 0.927466 1.63645 0
M  V30 888 O 80.8254 -0.10941 1.8097 0
M  V30 889 C 80.8734 3.36304 1.30123 0
M  V30 890 O 79.9774 3.34156 2.41689 0
M  V30 891 H 79.3184 0.642998 0.165679 0
M  V30 892 H 81.8484 2.04258 -0.118233 0
M  V30 893 H 81.8584 3.73008 1.65315 0
M  V30 894 H 80.5334 4.11993 0.568746 0
M  V30 895 H 79.1104 3.09196 2.08451 0
M  V30 896 N 81.2955 -0.223234 1.56011 0
M  V30 897 C 82.2275 -1.30006 1.88762 0
M  V30 898 C 83.2405 -1.43129 0.775746 0
M  V30 899 O 84.4295 -1.44057 1.05403 0
M  V30 900 C 81.5295 -2.67589 2.07965 0
M  V30 901 C 80.7025 -2.76434 3.38973 0
M  V30 902 C 79.7615 -3.95019 3.47629 0
M  V30 903 O 78.7875 -3.83436 4.20672 0
M  V30 904 N 79.9895 -5.09249 2.78649 0
M  V30 905 H 82.7545 -1.02238 2.81722 0
M  V30 906 H 80.3155 -0.413278 1.56536 0
M  V30 907 H 82.3075 -3.45297 2.11073 0
M  V30 908 H 80.8775 -2.87964 1.21638 0
M  V30 909 H 80.0975 -1.85216 3.47978 0
M  V30 910 H 81.3855 -2.79313 4.25278 0
M  V30 911 H 80.7835 -5.21556 2.19081 0
M  V30 912 H 79.3405 -5.85007 2.8742 0
M  V30 913 N 82.7736 -1.49793 -0.48987 0
M  V30 914 C 84.1896 -1.36803 -0.822022 0
M  V30 915 C 84.3896 -0.409652 -1.97292 0
M  V30 916 O 83.4456 0.154614 -2.52026 0
M  V30 917 C 84.7586 -2.77768 -1.15175 0
M  V30 918 C 86.3066 -2.86549 -1.25931 0
M  V30 919 C 86.7816 -4.28306 -1.62228 0
M  V30 920 N 88.2726 -4.31169 -1.69256 0
M  V30 921 C 89.0076 -5.37832 -1.98807 0
M  V30 922 N 88.5036 -6.54726 -2.26507 0
M  V30 923 N 90.2966 -5.25258 -2.00152 0
M  V30 924 H 82.4476 -2.10691 0.268881 0
M  V30 925 H 84.7106 -0.946241 0.057728 0
M  V30 926 H 84.4166 -3.49648 -0.379335 0
M  V30 927 H 84.2906 -3.13836 -2.09253 0
M  V30 928 H 86.6776 -2.14899 -2.02243 0
M  V30 929 H 86.7586 -2.54049 -0.298776 0
M  V30 930 H 86.4026 -5.00486 -0.864622 0
M  V30 931 H 86.3326 -4.58279 -2.594 0
M  V30 932 H 88.8236 -3.4687 -1.49965 0
M  V30 933 H 89.1366 -7.31833 -2.48276 0
M  V30 934 H 87.4816 -6.57933 -2.23939 0
M  V30 935 H 90.6726 -4.32938 -1.77996 0
M  V30 936 H 90.8456 -6.08476 -2.22848 0
M  V30 937 N 84.2517 0.741722 -1.39055 0
M  V30 938 C 85.1817 1.869 -1.39966 0
M  V30 939 C 86.1627 1.6804 -0.26392 0
M  V30 940 O 87.3477 1.88458 -0.468755 0
M  V30 941 C 84.4777 3.24572 -1.23574 0
M  V30 942 C 83.4317 3.58056 -2.34477 0
M  V30 943 C 82.7577 4.94593 -2.0318 0
M  V30 944 C 84.0577 3.61716 -3.76774 0
M  V30 945 H 85.7517 1.86395 -2.34302 0
M  V30 946 H 83.2977 0.895361 -1.1278 0
M  V30 947 H 85.2507 4.031 -1.22834 0
M  V30 948 H 83.9747 3.25587 -0.257045 0
M  V30 949 H 82.6337 2.81854 -2.34423 0
M  V30 950 H 82.2817 4.92181 -1.03765 0
M  V30 951 H 81.9817 5.17964 -2.77465 0
M  V30 952 H 83.5057 5.75486 -2.04079 0
M  V30 953 H 84.9197 4.30335 -3.78794 0
M  V30 954 H 83.3167 3.96603 -4.50362 0
M  V30 955 H 84.3867 2.61672 -4.08235 0
M  V30 956 N 85.7298 1.2412 0.971189 0
M  V30 957 C 86.9788 1.07284 1.70801 0
M  V30 958 C 87.2918 -0.388902 1.91695 0
M  V30 959 O 88.4978 -0.677379 2.62914 0
M  V30 960 C 86.9538 1.87145 3.07416 0
M  V30 961 C 86.5618 3.37707 2.94377 0
M  V30 962 C 88.3058 1.78828 3.84995 0
M  V30 963 C 86.2128 4.09925 4.26281 0
M  V30 964 H 85.1428 0.397854 0.64049 0
M  V30 965 H 87.7938 1.4817 1.0825 0
M  V30 966 H 86.1758 1.39071 3.70777 0
M  V30 967 H 87.3498 3.93335 2.4005 0
M  V30 968 H 85.6648 3.46938 2.30267 0
M  V30 969 H 88.2618 2.30089 4.82662 0
M  V30 970 H 88.6048 0.75284 4.09436 0
M  V30 971 H 89.1378 2.24563 3.28354 0
M  V30 972 H 85.8768 5.13813 4.07033 0
M  V30 973 H 85.3968 3.59083 4.80437 0
M  V30 974 H 87.0758 4.1673 4.94919 0
M  V30 975 N 87.2079 -1.17134 1.05439 0
M  V30 976 C 88.1549 -2.21235 0.657539 0
M  V30 977 C 89.1249 -1.62551 -0.341543 0
M  V30 978 O 90.3099 -1.89379 -0.232393 0
M  V30 979 C 87.4499 -3.45076 0.0410575 0
M  V30 980 C 86.5629 -4.18042 1.08927 0
M  V30 981 C 85.6979 -5.29376 0.439848 0
M  V30 982 C 84.7369 -5.94132 1.4722 0
M  V30 983 N 83.8739 -6.96975 0.846756 0
M  V30 984 H 88.7139 -2.54534 1.54972 0
M  V30 985 H 86.2509 -1.25028 0.775006 0
M  V30 986 H 88.2089 -4.15862 -0.33383 0
M  V30 987 H 86.8389 -3.12353 -0.814568 0
M  V30 988 H 85.8909 -3.45945 1.58196 0
M  V30 989 H 87.2029 -4.62306 1.87282 0
M  V30 990 H 86.3569 -6.06699 0.0115125 0
M  V30 991 H 85.0959 -4.86251 -0.375656 0
M  V30 992 H 84.1009 -5.15538 1.91052 0
M  V30 993 H 85.3259 -6.39337 2.28965 0
M  V30 994 H 83.2719 -6.5598 0.0518075 0
M  V30 995 H 83.1889 -7.39565 1.5678 0
M  V30 996 H 84.4569 -7.78239 0.443277 0
M  V30 997 N 88.686 -0.835752 -1.33615 0
M  V30 998 C 89.596 -0.269088 -2.33052 0
M  V30 999 C 90.612 0.603251 -1.63208 0
M  V30 1000 O 91.788 0.508112 -1.94885 0
M  V30 1001 C 88.853 0.549091 -3.42324 0
M  V30 1002 C 87.914 -0.347156 -4.27894 0
M  V30 1003 C 87.147 0.43207 -5.31948 0
M  V30 1004 O 87.37 1.66409 -5.45586 0
M  V30 1005 O 86.304 -0.192298 -6.01593 0
M  V30 1006 H 90.13 -1.09243 -2.83372 0
M  V30 1007 H 87.715 -0.598198 -1.36901 0
M  V30 1008 H 89.597 1.01414 -4.09015 0
M  V30 1009 H 88.272 1.34955 -2.94226 0
M  V30 1010 H 87.179 -0.859979 -3.64081 0
M  V30 1011 H 88.512 -1.1123 -4.79467 0
M  V30 1012 N 90.1641 1.46063 -0.591896 0
M  V30 1013 C 91.1271 2.28854 0.125973 0
M  V30 1014 C 92.1271 1.38903 0.810107 0
M  V30 1015 O 93.3171 1.61186 0.66066 0
M  V30 1016 C 90.4491 3.19526 1.1881 0
M  V30 1017 H 91.6421 2.93802 -0.601717 0
M  V30 1018 H 89.1951 1.52325 -0.350254 0
M  V30 1019 H 89.9301 2.59345 1.94707 0
M  V30 1020 H 89.7151 3.85766 0.701936 0
M  V30 1021 H 91.2051 3.81817 1.69132 0
M  V30 1022 N 91.6422 0.330177 1.54103 0
M  V30 1023 C 92.8822 -0.270916 2.02597 0
M  V30 1024 C 93.2462 -1.48826 1.21304 0
M  V30 1025 O 94.4472 -2.16266 1.59633 0
M  V30 1026 C 92.7182 -0.590328 3.52491 0
M  V30 1027 S 94.2772 -1.17014 4.2291 0
M  V30 1028 H 91.0952 -0.0815379 0.706309 0
M  V30 1029 H 93.6972 0.464835 1.89893 0
M  V30 1030 H 92.4012 0.303691 4.09275 0
M  V30 1031 H 91.9322 -1.3561 3.69288 0
M  V30 1032 H 93.9472 -2.45662 4.3112 0
M  V30 1033 N 93.1203 -1.57491 0.0584922 0
M  V30 1034 C 94.3973 -1.84346 -0.653918 0
M  V30 1035 C 94.7773 -0.948355 -1.88599 0
M  V30 1036 O 94.1253 -0.0112403 -2.28497 0
M  V30 1037 C 94.3353 -3.34239 -1.00425 0
M  V30 1038 C 95.6833 -4.01431 -1.38342 0
M  V30 1039 O 96.7073 -3.38907 -1.09637 0
M  V30 1040 O 95.5663 -5.11683 -1.91943 0
M  V30 1041 H 92.6603 -0.761112 -0.323478 0
M  V30 1042 H 95.2063 -1.6947 0.0884125 0
M  V30 1043 H 93.9783 -3.91089 -0.128625 0
M  V30 1044 H 93.6013 -3.54329 -1.80378 0
M  V30 1045 N 94.5984 0.214957 -1.56127 0
M  V30 1046 C 95.5084 1.28727 -1.96129 0
M  V30 1047 C 96.5244 1.50916 -0.866044 0
M  V30 1048 O 97.7004 1.63918 -1.17016 0
M  V30 1049 C 94.7654 2.61569 -2.27558 0
M  V30 1050 C 93.8264 2.47625 -3.50685 0
M  V30 1051 C 93.0594 3.74132 -3.80606 0
M  V30 1052 O 93.2824 4.77438 -3.12104 0
M  V30 1053 O 92.2164 3.70849 -4.74083 0
M  V30 1054 H 96.0424 0.977855 -2.87527 0
M  V30 1055 H 93.6274 0.418358 -1.43423 0
M  V30 1056 H 95.5094 3.40012 -2.48938 0
M  V30 1057 H 94.1844 2.92178 -1.39332 0
M  V30 1058 H 93.0914 1.67361 -3.34576 0
M  V30 1059 H 94.4244 2.21954 -4.39315 0
M  V30 1060 N 96.0765 1.50051 0.48192 0
M  V30 1061 C 97.3015 1.64508 1.26301 0
M  V30 1062 C 97.7265 0.323851 1.85291 0
M  V30 1063 O 97.0845 -0.710969 1.66778 0
M  V30 1064 C 97.1325 2.7305 2.35533 0
M  V30 1065 O 96.2365 2.3355 3.39895 0
M  V30 1066 H 95.5775 0.549978 0.372048 0
M  V30 1067 H 98.1075 1.9636 0.574786 0
M  V30 1068 H 98.1175 2.95799 2.8101 0
M  V30 1069 H 96.7925 3.68946 1.91967 0
M  V30 1070 H 95.3695 2.21205 3.00204 0
M  V30 1071 N 97.5546 -0.734337 1.39446 0
M  V30 1072 C 98.9706 -1.03997 1.21065 0
M  V30 1073 C 99.1706 -2.01369 0.0727019 0
M  V30 1074 O 98.2266 -2.45856 -0.575426 0
M  V30 1075 C 99.5396 -1.60163 2.54496 0
M  V30 1076 C 101.088 -1.7224 2.61347 0
M  V30 1077 C 101.563 -2.31814 3.95002 0
M  V30 1078 N 103.054 -2.39223 3.96644 0
M  V30 1079 C 103.789 -2.86258 4.96834 0
M  V30 1080 N 103.285 -3.33184 6.07421 0
M  V30 1081 N 105.078 -2.85473 4.84213 0
M  V30 1082 H 97.2286 -0.0885624 2.12215 0
M  V30 1083 H 99.4916 -0.10191 0.942506 0
M  V30 1084 H 99.1976 -0.960811 3.38321 0
M  V30 1085 H 99.0716 -2.5896 2.74262 0
M  V30 1086 H 101.459 -2.35443 1.77906 0
M  V30 1087 H 101.54 -0.720939 2.4543 0
M  V30 1088 H 101.184 -1.69238 4.78875 0
M  V30 1089 H 101.114 -3.32638 4.08239 0
M  V30 1090 H 103.605 -2.06057 3.16779 0
M  V30 1091 H 103.918 -3.67586 6.7978 0
M  V30 1092 H 102.263 -3.31191 6.11013 0
M  V30 1093 H 105.454 -2.48136 3.96921 0
M  V30 1094 H 105.627 -3.21814 5.62441 0
M  V30 1095 N 99.0327 -1.24633 -0.964593 0
M  V30 1096 C 100.28 -1.08788 -1.70796 0
M  V30 1097 C 100.608 0.372783 -1.90894 0
M  V30 1098 O 99.8627 1.29167 -1.47018 0
M  V30 1099 C 100.162 -1.7763 -3.10133 0
M  V30 1100 C 99.8277 -3.27557 -3.09866 0
M  V30 1101 C 98.4897 -3.6846 -3.09501 0
M  V30 1102 C 100.842 -4.23389 -3.03959 0
M  V30 1103 C 98.1697 -5.03624 -3.00965 0
M  V30 1104 C 100.522 -5.58565 -2.96965 0
M  V30 1105 C 99.1857 -5.98809 -2.9493 0
M  V30 1106 H 98.4557 -0.398084 -0.624988 0
M  V30 1107 H 101.103 -1.54777 -1.12767 0
M  V30 1108 H 99.4077 -1.24044 -3.71645 0
M  V30 1109 H 101.105 -1.62832 -3.66451 0
M  V30 1110 H 97.6947 -2.95006 -3.10917 0
M  V30 1111 H 101.879 -3.92787 -3.03368 0
M  V30 1112 H 97.1347 -5.33998 -2.97752 0
M  V30 1113 H 101.309 -6.32523 -2.91354 0
M  V30 1114 H 98.9357 -7.03505 -2.88071 0
M  V30 1115 N 100.511 1.16574 -1.06058 0
M  V30 1116 C 101.788 1.83048 -0.689416 0
M  V30 1117 C 102.168 1.94122 0.829443 0
M  V30 1118 O 101.516 1.48249 1.7388 0
M  V30 1119 C 101.726 3.20186 -1.38859 0
M  V30 1120 C 103.074 3.95989 -1.53226 0
M  V30 1121 O 104.098 3.29696 -1.3483 0
M  V30 1122 O 102.957 5.14813 -1.83384 0
M  V30 1123 H 100.051 0.790258 -0.243764 0
M  V30 1124 H 102.597 1.23797 -1.16071 0
M  V30 1125 H 101.369 3.07146 -2.4244 0
M  V30 1126 H 100.992 3.87112 -0.907216 0
M  V30 1127 N 101.989 0.842826 1.3317 0
M  V30 1128 C 102.936 0.276885 2.29133 0
M  V30 1129 C 103.906 -0.609527 1.54512 0
M  V30 1130 O 105.091 -0.546955 1.82792 0
M  V30 1131 C 102.231 -0.538707 3.40869 0
M  V30 1132 C 101.344 0.372169 4.30394 0
M  V30 1133 C 100.479 -0.454908 5.29249 0
M  V30 1134 C 99.5179 0.45411 6.10413 0
M  V30 1135 N 98.6549 -0.335075 7.013 0
M  V30 1136 H 103.495 1.10052 2.76934 0
M  V30 1137 H 101.032 0.554161 1.36262 0
M  V30 1138 H 102.99 -1.02709 4.0436 0
M  V30 1139 H 101.62 -1.32727 2.9425 0
M  V30 1140 H 100.672 0.97888 3.6759 0
M  V30 1141 H 101.984 1.0703 4.87182 0
M  V30 1142 H 101.138 -1.00695 5.98285 0
M  V30 1143 H 99.8769 -1.18646 4.73048 0
M  V30 1144 H 98.8819 1.01813 5.40291 0
M  V30 1145 H 100.107 1.18409 6.68697 0
M  V30 1146 H 98.0529 -1.04994 6.47543 0
M  V30 1147 H 97.9699 0.304262 7.55387 0
M  V30 1148 H 99.2379 -0.869224 7.74638 0
M  V30 1149 N 103.467 -1.45747 0.599634 0
M  V30 1150 C 104.415 -2.322 -0.136426 0
M  V30 1151 C 105.409 -1.45497 -0.867583 0
M  V30 1152 O 106.615 -1.62027 -0.78405 0
M  V30 1153 H 102.99 -0.749368 -0.0628588 0
M  V30 1154 H 104.961 -2.92072 0.611281 0
M  V30 1155 C 103.71 -3.28974 -1.12567 0
M  V30 1156 H 103.033 -3.9568 -0.572484 0
M  V30 1157 H 104.473 -3.92212 -1.61077 0
M  V30 1158 C 102.932 -2.55561 -2.19523 0
M  V30 1159 O 103.462 -2.33111 -3.27143 0
M  V30 1160 N 101.668 -2.15832 -1.94589 0
M  V30 1161 H 101.215 -2.3429 -1.07078 0
M  V30 1162 H 101.173 -1.67034 -2.66359 0
M  V30 1163 N 104.945 -0.338344 -1.53925 0
M  V30 1164 C 105.875 0.51328 -2.27789 0
M  V30 1165 C 106.856 1.107 -1.29149 0
M  V30 1166 O 108.041 1.12937 -1.57984 0
M  V30 1167 C 105.171 1.66697 -3.04679 0
M  V30 1168 C 104.125 1.20183 -4.1078 0
M  V30 1169 C 103.451 2.44363 -4.75595 0
M  V30 1170 C 104.751 0.30605 -5.21403 0
M  V30 1171 H 106.445 -0.102883 -2.99223 0
M  V30 1172 H 103.991 -0.0509219 -1.4391 0
M  V30 1173 H 105.944 2.26915 -3.55088 0
M  V30 1174 H 104.668 2.30995 -2.30887 0
M  V30 1175 H 103.327 0.622499 -3.61276 0
M  V30 1176 H 102.975 3.07057 -3.98403 0
M  V30 1177 H 102.675 2.13925 -5.47275 0
M  V30 1178 H 104.199 3.05317 -5.28786 0
M  V30 1179 H 105.613 0.814929 -5.67478 0
M  V30 1180 H 104.01 0.0937929 -6.00027 0
M  V30 1181 H 105.08 -0.65921 -4.80398 0
M  V30 1182 N 106.423 1.57458 -0.0668435 0
M  V30 1183 C 107.648 1.9804 0.616027 0
M  V30 1184 C 108.073 0.944771 1.62652 0
M  V30 1185 O 107.431 -0.0902094 1.81075 0
M  V30 1186 C 107.479 3.37665 1.26549 0
M  V30 1187 O 106.583 3.36701 2.38131 0
M  V30 1188 H 105.924 0.644719 0.158849 0
M  V30 1189 H 108.454 2.04121 -0.139891 0
M  V30 1190 H 108.464 3.7474 1.6135 0
M  V30 1191 H 107.139 4.12573 0.525016 0
M  V30 1192 H 105.716 3.1139 2.0516 0
M  V30 1193 N 107.901 -0.206675 1.56239 0
M  V30 1194 C 108.833 -1.27997 1.9013 0
M  V30 1195 C 109.846 -1.42299 0.790883 0
M  V30 1196 O 111.035 -1.42931 1.06925 0
M  V30 1197 C 108.135 -2.65368 2.10792 0
M  V30 1198 C 107.308 -2.72824 3.41886 0
M  V30 1199 C 106.367 -3.9131 3.51799 0
M  V30 1200 O 105.393 -3.78953 4.24716 0
M  V30 1201 N 106.595 -5.06265 2.84035 0
M  V30 1202 H 109.36 -0.992444 2.82791 0
M  V30 1203 H 106.921 -0.396652 1.56966 0
M  V30 1204 H 108.913 -3.43039 2.14724 0
M  V30 1205 H 107.483 -2.86657 1.24685 0
M  V30 1206 H 106.703 -1.81515 3.49923 0
M  V30 1207 H 107.991 -2.74786 4.28217 0
M  V30 1208 H 107.389 -5.19203 2.246 0
M  V30 1209 H 105.946 -5.81925 2.93609 0
M  V30 1210 N 109.379 -1.50304 -0.473955 0
M  V30 1211 C 110.342 -1.6841 -1.55469 0
M  V30 1212 C 111.342 -0.554905 -1.50922 0
M  V30 1213 O 112.532 -0.821882 -1.53593 0
M  V30 1214 C 109.664 -1.70667 -2.95102 0
M  V30 1215 H 110.857 -2.64828 -1.40733 0
M  V30 1216 H 108.41 -1.39742 -0.700132 0
M  V30 1217 H 109.145 -0.75932 -3.15285 0
M  V30 1218 H 108.93 -2.52698 -2.9981 0
M  V30 1219 H 110.42 -1.8664 -3.73571 0
M  V30 1220 N 110.857 0.726932 -1.39834 0
M  V30 1221 C 111.787 1.85405 -1.41941 0
M  V30 1222 C 112.768 1.67751 -0.281728 0
M  V30 1223 O 113.953 1.8795 -0.488717 0
M  V30 1224 C 111.083 3.23243 -1.2701 0
M  V30 1225 C 110.037 3.55549 -2.38262 0
M  V30 1226 C 109.363 4.9241 -2.08415 0
M  V30 1227 C 110.663 3.577 -3.80589 0
M  V30 1228 H 112.357 1.83899 -2.36266 0
M  V30 1229 H 109.903 0.883349 -1.13723 0
M  V30 1230 H 111.856 4.01775 -1.27103 0
M  V30 1231 H 110.58 3.25296 -0.291564 0
M  V30 1232 H 109.239 2.79351 -2.37399 0
M  V30 1233 H 108.887 4.91052 -1.0898 0
M  V30 1234 H 108.587 5.14992 -2.82943 0
M  V30 1235 H 110.111 5.73289 -2.10171 0
M  V30 1236 H 111.525 4.26293 -3.83337 0
M  V30 1237 H 109.922 3.91804 -4.54543 0
M  V30 1238 H 110.992 2.57328 -4.10987 0
M  V30 1239 N 112.336 1.25143 0.95797 0
M  V30 1240 C 113.283 1.05235 2.05412 0
M  V30 1241 C 114.253 -0.0374561 1.66058 0
M  V30 1242 O 115.438 0.119073 1.90428 0
M  V30 1243 C 112.578 0.673589 3.38462 0
M  V30 1244 C 111.691 1.8379 3.90954 0
M  V30 1245 C 110.826 1.40381 5.12315 0
M  V30 1246 C 109.865 2.53746 5.57027 0
M  V30 1247 N 109.002 2.11136 6.69601 0
M  V30 1248 H 113.842 1.99048 2.21774 0
M  V30 1249 H 111.379 0.991277 1.08683 0
M  V30 1250 H 113.337 0.434964 4.14926 0
M  V30 1251 H 111.967 -0.227554 3.21997 0
M  V30 1252 H 111.019 2.18992 3.11041 0
M  V30 1253 H 112.331 2.68937 4.20089 0
M  V30 1254 H 111.485 1.12464 5.96185 0
M  V30 1255 H 110.224 0.523015 4.84887 0
M  V30 1256 H 109.229 2.82412 4.71724 0
M  V30 1257 H 110.454 3.42398 5.86464 0
M  V30 1258 H 108.4 1.25468 6.4389 0
M  V30 1259 H 108.317 2.89832 6.98236 0
M  V30 1260 H 109.585 1.86385 7.56889 0
M  V30 1261 N 113.814 -1.1601 1.06675 0
M  V30 1262 C 115.061 -1.86633 0.785781 0
M  V30 1263 C 115.389 -1.81929 -0.687896 0
M  V30 1264 O 114.644 -1.23253 -1.52011 0
M  V30 1265 C 114.943 -3.35547 1.23057 0
M  V30 1266 C 114.609 -3.60448 2.70902 0
M  V30 1267 C 113.271 -3.66954 3.11285 0
M  V30 1268 C 115.623 -3.7071 3.66365 0
M  V30 1269 C 112.951 -3.81225 4.45965 0
M  V30 1270 C 115.303 -3.86503 5.00797 0
M  V30 1271 C 113.967 -3.91252 5.40813 0
M  V30 1272 H 113.237 -0.682937 0.287538 0
M  V30 1273 H 115.884 -1.37146 1.33654 0
M  V30 1274 H 114.189 -3.87193 0.59907 0
M  V30 1275 H 115.886 -3.88583 0.990163 0
M  V30 1276 H 112.476 -3.56021 2.38636 0
M  V30 1277 H 116.66 -3.64991 3.36296 0
M  V30 1278 H 111.916 -3.83155 4.76447 0
M  V30 1279 H 116.09 -3.93385 5.74649 0
M  V30 1280 H 113.717 -4.02062 6.45174 0
M  V30 1281 N 115.292 -0.849877 -1.32721 0
M  V30 1282 C 116.538 -0.451591 -1.97708 0
M  V30 1283 C 116.871 0.989175 -1.6712 0
M  V30 1284 O 116.146 1.69334 -0.956891 0
M  V30 1285 C 116.429 -0.685598 -3.53513 0
M  V30 1286 C 116.282 -2.17444 -3.93749 0
M  V30 1287 C 117.601 -0.138874 -4.39881 0
M  V30 1288 H 114.72 -0.16555 -0.718166 0
M  V30 1289 H 117.362 -1.06742 -1.57182 0
M  V30 1290 H 115.512 -0.161416 -3.88165 0
M  V30 1291 H 117.184 -2.76433 -3.693 0
M  V30 1292 H 115.427 -2.65476 -3.43081 0
M  V30 1293 H 116.098 -2.28888 -5.02309 0
M  V30 1294 H 118.574 -0.587068 -4.11938 0
M  V30 1295 H 117.45 -0.332213 -5.47894 0
M  V30 1296 H 117.711 0.95806 -4.31594 0
M  V30 1297 N 116.77 1.45427 -0.607355 0
M  V30 1298 C 118.186 1.57283 -0.270985 0
M  V30 1299 C 118.386 1.59875 1.22647 0
M  V30 1300 O 117.442 1.52893 2.00948 0
M  V30 1301 C 118.755 2.85566 -0.941952 0
M  V30 1302 C 120.303 2.9924 -0.917849 0
M  V30 1303 C 120.778 4.30293 -1.56882 0
M  V30 1304 N 122.269 4.37051 -1.5343 0
M  V30 1305 C 123.004 5.37123 -2.00715 0
M  V30 1306 N 122.5 6.43734 -2.56084 0
M  V30 1307 N 124.293 5.28479 -1.91484 0
M  V30 1308 H 116.444 1.41988 -1.57966 0
M  V30 1309 H 118.707 0.67885 -0.661715 0
M  V30 1310 H 118.413 2.8955 -1.99633 0
M  V30 1311 H 118.287 3.74322 -0.465096 0
M  V30 1312 H 120.674 2.94822 0.127984 0
M  V30 1313 H 120.755 2.11895 -1.43297 0
M  V30 1314 H 120.399 4.35469 -2.61398 0
M  V30 1315 H 120.329 5.16454 -1.02873 0
M  V30 1316 H 122.82 3.60615 -1.12982 0
M  V30 1317 H 123.133 7.16341 -2.89958 0
M  V30 1318 H 121.478 6.44485 -2.60122 0
M  V30 1319 H 124.669 4.44098 -1.47967 0
M  V30 1320 H 124.842 6.0632 -2.28648 0
M  V30 1321 N 118.248 0.346503 1.53744 0
M  V30 1322 C 119.525 -0.304532 1.93215 0
M  V30 1323 C 119.905 -1.67993 1.27834 0
M  V30 1324 O 119.253 -2.24411 0.430352 0
M  V30 1325 C 119.463 -0.373852 3.46992 0
M  V30 1326 C 120.811 -0.62329 4.2 0
M  V30 1327 O 121.835 -0.455847 3.53271 0
M  V30 1328 O 120.694 -0.947879 5.38217 0
M  V30 1329 H 117.788 -0.178318 0.807547 0
M  V30 1330 H 120.334 0.397895 1.64969 0
M  V30 1331 H 119.106 0.591224 3.86808 0
M  V30 1332 H 118.729 -1.12294 3.81413 0
M  V30 1333 N 119.726 -1.57421 0.075193 0
M  V30 1334 C 120.973 -1.93618 -0.593146 0
M  V30 1335 C 121.301 -0.955484 -1.69413 0
M  V30 1336 O 120.556 0.0283251 -1.9568 0
M  V30 1337 C 120.855 -3.36428 -1.20626 0
M  V30 1338 C 120.521 -4.50307 -0.231078 0
M  V30 1339 C 119.183 -4.81186 0.0371936 0
M  V30 1340 C 121.535 -5.19374 0.435888 0
M  V30 1341 C 118.863 -5.78466 0.979461 0
M  V30 1342 C 121.215 -6.17665 1.3665 0
M  V30 1343 C 119.879 -6.46958 1.6432 0
M  V30 1344 H 119.149 -0.708499 -0.217047 0
M  V30 1345 H 121.796 -1.90937 0.146793 0
M  V30 1346 H 120.101 -3.35592 -2.02201 0
M  V30 1347 H 121.798 -3.61727 -1.73073 0
M  V30 1348 H 118.388 -4.26227 -0.450357 0
M  V30 1349 H 122.572 -4.95711 0.241748 0
M  V30 1350 H 117.828 -5.99487 1.20106 0
M  V30 1351 H 122.002 -6.70284 1.88924 0
M  V30 1352 H 119.629 -7.2215 2.37494 0
M  V30 1353 N 121.204 0.198386 -1.56346 0
M  V30 1354 C 122.167 1.22952 -1.93431 0
M  V30 1355 C 123.167 1.38611 -0.815092 0
M  V30 1356 O 124.357 1.36479 -1.08255 0
M  V30 1357 C 121.489 2.59946 -2.20546 0
M  V30 1358 H 122.682 0.912626 -2.85677 0
M  V30 1359 H 120.235 0.43977 -1.49986 0
M  V30 1360 H 120.97 2.96696 -1.30927 0
M  V30 1361 H 120.755 2.49953 -3.02102 0
M  V30 1362 H 122.245 3.3431 -2.50253 0
M  V30 1363 N 122.682 1.50554 0.465978 0
M  V30 1364 C 123.93 1.61479 1.21528 0
M  V30 1365 C 124.251 0.319596 1.92363 0
M  V30 1366 O 123.521 -0.663194 1.84333 0
M  V30 1367 H 122.101 0.595055 0.451573 0
M  V30 1368 H 124.763 1.87355 0.53704 0
M  V30 1369 H 123.859 2.42846 1.96042 0
M  V30 1370 N 124.16 -0.719506 1.40217 0
M  V30 1371 C 125.437 -1.47221 1.28784 0
M  V30 1372 C 125.817 -2.10883 -0.0956067 0
M  V30 1373 O 125.165 -1.99833 -1.10811 0
M  V30 1374 C 125.375 -2.5111 2.42373 0
M  V30 1375 C 126.723 -3.17053 2.82423 0
M  V30 1376 O 127.747 -2.61429 2.41937 0
M  V30 1377 O 126.606 -4.17742 3.52355 0
M  V30 1378 H 123.7 -0.654491 0.50554 0
M  V30 1379 H 126.246 -0.752014 1.52128 0
M  V30 1380 H 125.018 -2.02556 3.34793 0
M  V30 1381 H 124.641 -3.3067 2.20778 0
M  V30 1382 N 125.638 -1.25649 -0.95132 0
M  V30 1383 C 126.886 -1.10375 -1.69298 0
M  V30 1384 C 127.207 0.355339 -1.91735 0
M  V30 1385 O 126.477 1.25188 -1.50681 0
M  V30 1386 H 125.057 -0.405461 -0.627384 0
M  V30 1387 H 127.719 -1.57823 -1.14358 0
M  V30 1388 H 126.815 -1.61465 -2.67087 0
M  V30 1389 N 127.117 1.15442 -1.07289 0
M  V30 1390 C 128.047 2.22312 -0.714107 0
M  V30 1391 C 129.028 1.67467 0.298155 0
M  V30 1392 O 130.213 1.93445 0.171048 0
M  V30 1393 C 127.343 3.47124 -0.110448 0
M  V30 1394 C 126.297 4.14926 -1.04979 0
M  V30 1395 C 125.623 5.33807 -0.308924 0
M  V30 1396 C 126.923 4.64762 -2.38314 0
M  V30 1397 H 128.617 2.5258 -1.6076 0
M  V30 1398 H 126.163 1.21404 -0.77441 0
M  V30 1399 H 128.116 4.21124 0.152482 0
M  V30 1400 H 126.84 3.16187 0.81812 0
M  V30 1401 H 125.499 3.42866 -1.29764 0
M  V30 1402 H 125.147 4.99126 0.623084 0
M  V30 1403 H 124.847 5.80113 -0.935036 0
M  V30 1404 H 126.371 6.10576 -0.0537771 0
M  V30 1405 H 127.785 5.30292 -2.1786 0
M  V30 1406 H 126.182 5.21728 -2.96514 0
M  V30 1407 H 127.252 3.80434 -3.00663 0
M  V30 1408 N 128.595 0.856903 1.32268 0
M  V30 1409 C 129.842 0.461386 1.97174 0
M  V30 1410 C 130.17 -0.983491 1.67803 0
M  V30 1411 O 129.425 -1.70541 0.959903 0
M  V30 1412 C 129.724 0.649919 3.51441 0
M  V30 1413 C 129.39 2.0656 4.00804 0
M  V30 1414 C 128.052 2.45279 4.13995 0
M  V30 1415 C 130.404 2.98947 4.26943 0
M  V30 1416 C 127.732 3.75653 4.50668 0
M  V30 1417 C 130.084 4.28822 4.65075 0
M  V30 1418 C 128.748 4.67472 4.76472 0
M  V30 1419 H 128.018 0.168833 0.72151 0
M  V30 1420 H 130.665 1.08739 1.57633 0
M  V30 1421 H 128.97 -0.0593018 3.91755 0
M  V30 1422 H 130.667 0.32391 3.9969 0
M  V30 1423 H 127.257 1.75495 3.91024 0
M  V30 1424 H 131.441 2.70265 4.16258 0
M  V30 1425 H 126.697 4.05379 4.57688 0
M  V30 1426 H 130.871 5.0047 4.84255 0
M  V30 1427 H 128.498 5.68539 5.04646 0
M  V30 1428 N 130.073 -1.45103 0.615059 0
M  V30 1429 C 131.301 -2.06553 0.11977 0
M  V30 1430 C 131.716 -1.45842 -1.19898 0
M  V30 1431 O 131.073 -0.575325 -1.73194 0
M  V30 1432 C 131.124 -3.61495 -0.018364 0
M  V30 1433 O 130.845 -4.19942 1.24822 0
M  V30 1434 C 132.346 -4.39947 -0.544237 0
M  V30 1435 H 129.566 -0.667096 0.0722739 0
M  V30 1436 H 132.11 -1.8623 0.84491 0
M  V30 1437 H 130.265 -3.81135 -0.693865 0
M  V30 1438 H 130.679 -5.13204 1.0827 0
M  V30 1439 H 132.153 -5.48838 -0.589953 0
M  V30 1440 H 132.63 -4.10255 -1.56805 0
M  V30 1441 H 133.236 -4.25188 0.0974703 0
M  V30 1442 N 131.551 -0.354651 -1.53558 0
M  V30 1443 C 132.776 0.242153 -2.05981 0
M  V30 1444 C 133.201 1.42553 -1.2272 0
M  V30 1445 O 132.559 1.79656 -0.243604 0
M  V30 1446 C 132.607 0.624367 -3.55154 0
M  V30 1447 O 131.711 1.72301 -3.74681 0
M  V30 1448 H 131.052 0.0378432 -0.662921 0
M  V30 1449 H 133.582 -0.512087 -1.98088 0
M  V30 1450 H 133.592 0.898433 -3.97985 0
M  V30 1451 H 132.267 -0.240989 -4.15201 0
M  V30 1452 H 130.844 1.44535 -3.4375 0
M  V30 1453 N 133.029 1.57378 -0.0835403 0
M  V30 1454 C 134.275 1.95025 0.577664 0
M  V30 1455 C 134.63 0.964049 1.66505 0
M  V30 1456 O 133.923 -0.0118235 1.91596 0
M  V30 1457 C 134.117 3.37063 1.1884 0
M  V30 1458 C 133.946 4.49409 0.16171 0
M  V30 1459 C 132.716 5.04642 -0.257756 0
M  V30 1460 C 134.914 5.10722 -0.605634 0
M  V30 1461 N 132.896 6.00537 -1.27393 0
M  V30 1462 C 134.267 6.02225 -1.47395 0
M  V30 1463 C 136.322 4.93501 -0.660418 0
M  V30 1464 C 135.025 6.78355 -2.39221 0
M  V30 1465 C 137.051 5.70283 -1.56623 0
M  V30 1466 C 136.413 6.61444 -2.4222 0
M  V30 1467 H 132.512 0.760512 0.182058 0
M  V30 1468 H 135.096 1.94013 -0.163419 0
M  V30 1469 H 133.267 3.3879 1.89936 0
M  V30 1470 H 134.999 3.61917 1.81103 0
M  V30 1471 H 131.754 4.73428 0.127702 0
M  V30 1472 H 132.178 6.53184 -1.77987 0
M  V30 1473 H 136.82 4.22798 -0.0128221 0
M  V30 1474 H 134.538 7.48327 -3.05011 0
M  V30 1475 H 138.124 5.58976 -1.61361 0
M  V30 1476 H 137.004 7.1982 -3.11174 0
M  V30 1477 N 134.507 -0.190092 1.56449 0
M  V30 1478 C 135.735 -0.925772 1.85033 0
M  V30 1479 C 136.15 -1.76638 0.666658 0
M  V30 1480 O 135.507 -1.78822 -0.364565 0
M  V30 1481 C 135.558 -1.81786 3.12468 0
M  V30 1482 O 135.279 -1.01118 4.26271 0
M  V30 1483 C 136.78 -2.6648 3.54265 0
M  V30 1484 H 134 -0.269872 0.614337 0
M  V30 1485 H 136.544 -0.195837 2.0356 0
M  V30 1486 H 134.699 -2.50136 2.95822 0
M  V30 1487 H 135.113 -1.61956 4.98869 0
M  V30 1488 H 136.587 -3.24722 4.46385 0
M  V30 1489 H 137.064 -3.40434 2.77491 0
M  V30 1490 H 137.67 -2.03493 3.73458 0
M  V30 1491 N 135.985 -1.50799 -0.457987 0
M  V30 1492 C 136.935 -1.67003 -1.55222 0
M  V30 1493 C 137.919 -0.52434 -1.52117 0
M  V30 1494 O 139.111 -0.779345 -1.58919 0
M  V30 1495 C 136.24 -1.77956 -2.93576 0
M  V30 1496 C 135.326 -2.98243 -3.01516 0
M  V30 1497 N 135.717 -4.21732 -2.79241 0
M  V30 1498 C 134.015 -2.97072 -3.32662 0
M  V30 1499 C 134.716 -5.02817 -2.92489 0
M  V30 1500 N 133.692 -4.37038 -3.23262 0
M  V30 1501 H 137.494 -2.60163 -1.36721 0
M  V30 1502 H 135.008 -1.48163 -0.664952 0
M  V30 1503 H 137.005 -1.87671 -3.72271 0
M  V30 1504 H 135.665 -0.859634 -3.13114 0
M  V30 1505 H 136.676 -4.51016 -2.54567 0
M  V30 1506 H 133.353 -2.14631 -3.58106 0
M  V30 1507 H 134.743 -6.11054 -2.79396 0
M  V30 1508 N 137.463 0.71206 -1.40597 0
M  V30 1509 C 138.373 1.8562 -1.43466 0
M  V30 1510 C 139.389 1.70902 -0.326902 0
M  V30 1511 O 140.565 1.93105 -0.572043 0
M  V30 1512 C 137.63 3.21451 -1.29884 0
M  V30 1513 C 136.691 3.48398 -2.50833 0
M  V30 1514 C 135.924 4.77749 -2.3789 0
M  V30 1515 O 136.147 5.53089 -1.39459 0
M  V30 1516 O 135.081 5.05111 -3.27333 0
M  V30 1517 H 138.907 1.86155 -2.39958 0
M  V30 1518 H 136.492 0.86295 -1.21957 0
M  V30 1519 H 138.374 4.02579 -1.24531 0
M  V30 1520 H 137.049 3.21636 -0.364997 0
M  V30 1521 H 135.956 2.67265 -2.61763 0
M  V30 1522 H 137.289 3.53014 -3.4299 0
M  V30 1523 N 138.941 1.26152 0.944643 0
M  V30 1524 C 139.888 1.07408 2.04285 0
M  V30 1525 C 140.858 -0.0198413 1.66088 0
M  V30 1526 O 142.043 0.139264 1.90291 0
M  V30 1527 C 139.183 0.70945 3.37729 0
M  V30 1528 C 138.296 1.87926 3.88983 0
M  V30 1529 C 137.431 1.45807 5.10797 0
M  V30 1530 C 136.47 2.5964 5.54305 0
M  V30 1531 N 135.607 2.18226 6.67324 0
M  V30 1532 H 140.447 2.01389 2.1965 0
M  V30 1533 H 137.984 1.00275 1.07626 0
M  V30 1534 H 139.942 0.478948 4.14442 0
M  V30 1535 H 138.572 -0.193389 3.2222 0
M  V30 1536 H 137.624 2.22279 3.08701 0
M  V30 1537 H 138.936 2.73377 4.17213 0
M  V30 1538 H 138.09 1.18781 5.94959 0
M  V30 1539 H 136.829 0.574414 4.84305 0
M  V30 1540 H 135.834 2.87399 4.68702 0
M  V30 1541 H 137.059 3.48599 5.828 0
M  V30 1542 H 135.005 1.3229 6.42523 0
M  V30 1543 H 134.922 2.97221 6.95123 0
M  V30 1544 H 136.19 1.94403 7.54869 0
M  V30 1545 N 140.419 -1.14872 1.07899 0
M  V30 1546 C 141.367 -2.21857 0.698727 0
M  V30 1547 C 142.361 -1.66845 -0.293086 0
M  V30 1548 O 143.567 -1.79321 -0.156204 0
M  V30 1549 H 139.942 -0.722691 0.207899 0
M  V30 1550 H 141.913 -2.51205 1.61054 0
M  V30 1551 C 140.662 -3.47498 0.11858 0
M  V30 1552 H 139.985 -3.90154 0.872914 0
M  V30 1553 H 141.425 -4.23858 -0.109759 0
M  V30 1554 C 139.884 -3.16947 -1.1422 0
M  V30 1555 O 140.414 -3.3426 -2.22785 0
M  V30 1556 N 138.62 -2.70946 -1.05055 0
M  V30 1557 H 138.167 -2.57058 -0.167038 0
M  V30 1558 H 138.125 -2.50879 -1.89491 0
M  V30 1559 N 141.898 -0.863906 -1.31812 0
M  V30 1560 C 143.144 -0.481841 -1.9761 0
M  V30 1561 C 143.499 0.954048 -1.6708 0
M  V30 1562 O 142.792 1.66182 -0.953624 0
M  V30 1563 C 142.986 -0.668547 -3.51091 0
M  V30 1564 C 142.815 -2.12103 -3.96538 0
M  V30 1565 C 141.585 -2.76141 -4.23171 0
M  V30 1566 C 143.783 -3.09265 -4.10925 0
M  V30 1567 N 141.765 -4.12205 -4.54929 0
M  V30 1568 C 143.136 -4.30341 -4.46326 0
M  V30 1569 C 145.191 -3.05337 -3.93286 0
M  V30 1570 C 143.894 -5.48 -4.65928 0
M  V30 1571 C 145.92 -4.22248 -4.14078 0
M  V30 1572 C 145.282 -5.42085 -4.49804 0
M  V30 1573 H 141.381 -0.225238 -0.74886 0
M  V30 1574 H 143.965 -1.11723 -1.59455 0
M  V30 1575 H 142.136 -0.0627898 -3.88349 0
M  V30 1576 H 143.868 -0.255467 -4.03893 0
M  V30 1577 H 140.623 -2.27125 -4.15585 0
M  V30 1578 H 141.047 -4.82416 -4.74978 0
M  V30 1579 H 145.689 -2.138 -3.64759 0
M  V30 1580 H 143.407 -6.40059 -4.93305 0
M  V30 1581 H 146.993 -4.20654 -4.01922 0
M  V30 1582 H 145.873 -6.31044 -4.65567 0
M  V30 1583 N 143.376 1.44774 -0.622745 0
M  V30 1584 C 144.323 2.30635 0.0871679 0
M  V30 1585 C 145.293 1.42994 0.845097 0
M  V30 1586 O 146.478 1.71907 0.827812 0
M  V30 1587 C 143.618 3.28144 1.06844 0
M  V30 1588 C 142.731 4.30888 0.309809 0
M  V30 1589 C 141.866 5.15494 1.28215 0
M  V30 1590 C 140.905 6.09953 0.512198 0
M  V30 1591 N 140.042 6.87287 1.43458 0
M  V30 1592 H 144.882 2.90803 -0.650974 0
M  V30 1593 H 142.419 1.43286 -0.33281 0
M  V30 1594 H 144.377 3.83157 1.65066 0
M  V30 1595 H 143.007 2.69695 1.77382 0
M  V30 1596 H 142.059 3.78414 -0.388181 0
M  V30 1597 H 143.371 4.97955 -0.290254 0
M  V30 1598 H 142.525 5.74983 1.93596 0
M  V30 1599 H 141.264 4.48481 1.91614 0
M  V30 1600 H 140.269 5.49581 -0.155151 0
M  V30 1601 H 141.494 6.78999 -0.116958 0
M  V30 1602 H 139.44 6.2295 2.05594 0
M  V30 1603 H 139.357 7.50763 0.888335 0
M  V30 1604 H 140.625 7.51306 2.07749 0
M  V30 1605 N 144.854 0.36279 1.53368 0
M  V30 1606 C 145.801 -0.485008 2.25646 0
M  V30 1607 C 146.771 -1.07982 1.2621 0
M  V30 1608 O 147.956 -1.11284 1.54986 0
M  V30 1609 C 145.096 -1.62023 3.04701 0
M  V30 1610 C 144.209 -1.05086 4.19024 0
M  V30 1611 C 143.344 -2.15496 4.85525 0
M  V30 1612 C 142.383 -1.5601 5.91884 0
M  V30 1613 N 141.52 -2.60241 6.52088 0
M  V30 1614 H 146.36 0.137864 2.97681 0
M  V30 1615 H 143.897 0.0798061 1.46883 0
M  V30 1616 H 145.855 -2.28887 3.48807 0
M  V30 1617 H 144.485 -2.2138 2.34927 0
M  V30 1618 H 143.537 -0.27259 3.79422 0
M  V30 1619 H 144.849 -0.575926 4.95464 0
M  V30 1620 H 144.003 -2.90186 5.32801 0
M  V30 1621 H 142.742 -2.66341 4.08551 0
M  V30 1622 H 141.747 -0.798338 5.43973 0
M  V30 1623 H 142.972 -1.05994 6.70777 0
M  V30 1624 H 140.918 -3.10304 5.77968 0
M  V30 1625 H 140.835 -2.17426 7.24059 0
M  V30 1626 H 142.103 -3.34641 7.04014 0
M  V30 1627 N 146.332 -1.57332 0.0918853 0
M  V30 1628 C 147.295 -2.12708 -0.85369 0
M  V30 1629 C 148.295 -1.05561 -1.213 0
M  V30 1630 O 149.485 -1.31461 -1.14296 0
M  V30 1631 C 146.617 -2.64503 -2.15061 0
M  V30 1632 H 147.81 -2.97573 -0.3729 0
M  V30 1633 H 145.363 -1.55509 -0.157072 0
M  V30 1634 H 146.098 -1.83149 -2.67632 0
M  V30 1635 H 145.883 -3.4284 -1.90272 0
M  V30 1636 H 147.373 -3.07351 -2.82711 0
M  V30 1637 N 147.81 0.181792 -1.56548 0
M  V30 1638 C 148.76 1.22961 -1.92002 0
M  V30 1639 C 149.744 1.40331 -0.787146 0
M  V30 1640 O 150.936 1.42478 -1.05019 0
M  V30 1641 C 148.065 2.57144 -2.27446 0
M  V30 1642 C 147.151 2.43512 -3.47222 0
M  V30 1643 N 147.542 1.99577 -4.64761 0
M  V30 1644 C 145.84 2.74368 -3.51622 0
M  V30 1645 C 146.541 1.98156 -5.46909 0
M  V30 1646 N 145.517 2.40164 -4.8767 0
M  V30 1647 H 149.319 0.881462 -2.8037 0
M  V30 1648 H 146.833 0.390141 -1.57644 0
M  V30 1649 H 148.83 3.32847 -2.51035 0
M  V30 1650 H 147.49 2.92771 -1.40411 0
M  V30 1651 H 148.501 1.70078 -4.89177 0
M  V30 1652 H 145.178 3.14102 -2.75038 0
M  V30 1653 H 146.568 1.65975 -6.51077 0
M  V30 1654 N 149.288 1.51039 0.449983 0
M  V30 1655 C 150.236 1.71995 1.5659 0
M  V30 1656 C 151.23 0.586029 1.5894 0
M  V30 1657 O 152.436 0.76709 1.62837 0
M  V30 1658 H 148.811 0.543233 0.520001 0
M  V30 1659 H 150.782 2.65562 1.36085 0
M  V30 1660 C 149.531 1.8506 2.9436 0
M  V30 1661 H 148.854 2.71712 2.93279 0
M  V30 1662 H 150.294 2.0374 3.71842 0
M  V30 1663 C 148.753 0.607277 3.31382 0
M  V30 1664 O 149.283 -0.243903 4.00959 0
M  V30 1665 N 147.489 0.455073 2.87015 0
M  V30 1666 H 147.036 1.14879 2.30566 0
M  V30 1667 H 146.994 -0.375611 3.12148 0
M  V30 1668 N 150.766 -0.704594 1.40972 0
M  V30 1669 C 152.015 -1.46018 1.39146 0
M  V30 1670 C 152.328 -1.956 0.000589254 0
M  V30 1671 O 153.534 -2.71137 -0.1403 0
M  V30 1672 C 151.99 -2.63996 2.4461 0
M  V30 1673 C 151.598 -2.21238 3.89561 0
M  V30 1674 C 153.342 -3.41677 2.51907 0
M  V30 1675 C 151.249 -3.3612 4.86598 0
M  V30 1676 H 150.179 -0.548444 0.517422 0
M  V30 1677 H 152.83 -0.765784 1.66757 0
M  V30 1678 H 151.212 -3.3566 2.10115 0
M  V30 1679 H 152.386 -1.56923 4.33257 0
M  V30 1680 H 150.701 -1.56574 3.85841 0
M  V30 1681 H 153.298 -4.27182 3.2159 0
M  V30 1682 H 153.641 -3.86247 1.55303 0
M  V30 1683 H 154.174 -2.77064 2.85448 0
M  V30 1684 H 150.913 -2.96572 5.84573 0
M  V30 1685 H 150.433 -3.99315 4.47557 0
M  V30 1686 H 152.112 -4.02029 5.06934 0
M  V30 1687 N 152.244 -1.26651 -0.937939 0
M  V30 1688 C 153.174 -1.10993 -2.05433 0
M  V30 1689 C 154.155 -0.0142161 -1.70094 0
M  V30 1690 O 155.34 -0.186837 -1.93299 0
M  V30 1691 C 152.47 -0.745561 -3.39203 0
M  V30 1692 C 151.424 -1.79337 -3.88616 0
M  V30 1693 C 150.75 -1.28324 -5.19073 0
M  V30 1694 C 152.05 -3.19553 -4.13138 0
M  V30 1695 H 153.744 -2.0438 -2.1879 0
M  V30 1696 H 151.29 -0.984041 -1.05131 0
M  V30 1697 H 153.243 -0.622888 -4.16771 0
M  V30 1698 H 151.967 0.22401 -3.25831 0
M  V30 1699 H 150.626 -1.90477 -3.13231 0
M  V30 1700 H 150.274 -0.303414 -5.02084 0
M  V30 1701 H 149.974 -1.98369 -5.53103 0
M  V30 1702 H 151.498 -1.1733 -5.99221 0
M  V30 1703 H 152.912 -3.11471 -4.81309 0
M  V30 1704 H 151.309 -3.87218 -4.58457 0
M  V30 1705 H 152.379 -3.65368 -3.18801 0
M  V30 1706 N 153.722 1.14298 -1.08507 0
M  V30 1707 C 154.652 2.21542 -0.737646 0
M  V30 1708 C 155.633 1.67773 0.280377 0
M  V30 1709 O 156.818 1.93616 0.150521 0
M  V30 1710 C 153.948 3.46988 -0.147259 0
M  V30 1711 C 152.902 4.13789 -1.09374 0
M  V30 1712 C 152.228 5.33449 -0.365524 0
M  V30 1713 C 153.528 4.62208 -2.4323 0
M  V30 1714 H 155.222 2.5086 -1.6343 0
M  V30 1715 H 152.768 1.20576 -0.787243 0
M  V30 1716 H 154.721 4.21262 0.107808 0
M  V30 1717 H 153.445 3.17037 0.784538 0
M  V30 1718 H 152.104 3.4147 -1.33393 0
M  V30 1719 H 151.752 4.99759 0.57011 0
M  V30 1720 H 151.452 5.79088 -0.996512 0
M  V30 1721 H 152.976 6.10485 -0.118534 0
M  V30 1722 H 154.39 5.27952 -2.23472 0
M  V30 1723 H 152.787 5.18553 -3.02031 0
M  V30 1724 H 153.857 3.77224 -3.04681 0
M  V30 1725 N 155.201 0.870884 1.31352 0
M  V30 1726 C 156.612 0.534714 1.78879 0
M  V30 1727 C 156.963 -0.948423 1.71754 0
M  V30 1728 O 156.088 -1.74055 1.28584 0
M  V30 1729 C 156.683 0.963839 3.24801 0
M  V30 1730 C 155.242 0.679311 3.70219 0
M  V30 1731 C 154.389 1.15465 2.52117 0
M  V30 1732 H 157.34 1.05651 1.18421 0
M  V30 1733 H 157.361 0.286892 3.79417 0
M  V30 1734 H 156.873 2.04332 3.29955 0
M  V30 1735 H 154.974 -0.388769 3.70566 0
M  V30 1736 H 155.087 1.25698 4.62317 0
M  V30 1737 H 153.451 0.574383 2.48139 0
M  V30 1738 H 154.234 2.24157 2.60016 0
M  V30 1739 N 156.679 -1.44442 0.630414 0
M  V30 1740 C 157.904 -2.06927 0.139944 0
M  V30 1741 C 158.329 -1.46795 -1.17613 0
M  V30 1742 O 157.687 -0.569144 -1.72135 0
M  V30 1743 C 157.735 -3.6058 0.0379581 0
M  V30 1744 O 156.839 -3.99937 -1.0062 0
M  V30 1745 H 156.18 -0.658608 0.0844483 0
M  V30 1746 H 158.71 -1.85327 0.866891 0
M  V30 1747 H 158.72 -4.07714 -0.152856 0
M  V30 1748 H 157.395 -4.03728 0.998809 0
M  V30 1749 H 155.972 -3.64436 -0.79001 0
M  V30 1750 N 158.157 -0.370918 -1.53173 0
M  V30 1751 C 159.404 0.217102 -2.01333 0
M  V30 1752 C 159.732 1.48338 -1.25802 0
M  V30 1753 O 158.987 1.92698 -0.34146 0
M  V30 1754 C 159.286 0.549696 -3.53147 0
M  V30 1755 C 158.952 -0.622872 -4.46577 0
M  V30 1756 C 157.614 -0.944595 -4.71838 0
M  V30 1757 C 159.966 -1.40819 -5.01816 0
M  V30 1758 C 157.294 -2.05351 -5.49589 0
M  V30 1759 C 159.646 -2.50757 -5.80778 0
M  V30 1760 C 158.31 -2.83458 -6.04324 0
M  V30 1761 H 157.58 0.0794431 -0.736729 0
M  V30 1762 H 160.227 -0.504481 -1.84736 0
M  V30 1763 H 158.532 1.35237 -3.6772 0
M  V30 1764 H 160.229 1.017 -3.87889 0
M  V30 1765 H 156.819 -0.36209 -4.27068 0
M  V30 1766 H 161.003 -1.17289 -4.82242 0
M  V30 1767 H 156.259 -2.3108 -5.6605 0
M  V30 1768 H 160.433 -3.12022 -6.22588 0
M  V30 1769 H 158.06 -3.69508 -6.64355 0
M  V30 1770 N 159.635 1.57281 -0.100228 0
M  V30 1771 C 160.86 1.99302 0.573881 0
M  V30 1772 C 161.285 0.979059 1.60611 0
M  V30 1773 O 160.643 -0.0517803 1.81226 0
M  V30 1774 C 160.691 3.40274 1.19358 0
M  V30 1775 O 159.795 3.41676 2.30935 0
M  V30 1776 H 159.136 0.647944 0.145138 0
M  V30 1777 H 161.666 2.03779 -0.183156 0
M  V30 1778 H 161.676 3.78078 1.53365 0
M  V30 1779 H 160.351 4.13594 0.437385 0
M  V30 1780 H 158.928 3.15672 1.98509 0
M  V30 1781 N 161.113 -0.173488 1.56642 0
M  V30 1782 C 162.045 -1.23935 1.92802 0
M  V30 1783 C 163.058 -1.40589 0.820889 0
M  V30 1784 O 164.247 -1.40631 1.09933 0
M  V30 1785 C 161.347 -2.60837 2.16373 0
M  V30 1786 C 160.52 -2.6551 3.47596 0
M  V30 1787 C 159.579 -3.8376 3.60021 0
M  V30 1788 O 158.605 -3.69859 4.32658 0
M  V30 1789 N 159.807 -5.00127 2.94709 0
M  V30 1790 H 162.572 -0.932236 2.84832 0
M  V30 1791 H 160.133 -0.363268 1.57772 0
M  V30 1792 H 162.125 -3.38407 2.21952 0
M  V30 1793 H 160.695 -2.83948 1.30738 0
M  V30 1794 H 159.915 -1.74052 3.53694 0
M  V30 1795 H 161.203 -2.65641 4.33949 0
M  V30 1796 H 160.601 -5.14322 2.35563 0
M  V30 1797 H 159.158 -5.75567 3.05886 0
M  V30 1798 N 162.591 -1.51276 -0.441967 0
M  V30 1799 C 163.523 -1.68444 -1.55433 0
M  V30 1800 C 164.536 -0.565187 -1.52674 0
M  V30 1801 O 165.725 -0.839356 -1.57534 0
M  V30 1802 C 162.825 -1.67966 -2.94348 0
M  V30 1803 C 161.998 -2.964 -3.21661 0
M  V30 1804 C 161.057 -2.88171 -4.40277 0
M  V30 1805 O 160.083 -3.62119 -4.39157 0
M  V30 1806 N 161.285 -2.03706 -5.43584 0
M  V30 1807 H 164.05 -2.644 -1.41112 0
M  V30 1808 H 161.611 -1.49104 -0.630838 0
M  V30 1809 H 163.603 -1.60035 -3.71713 0
M  V30 1810 H 162.173 -0.796225 -3.0229 0
M  V30 1811 H 161.393 -3.18234 -2.32638 0
M  V30 1812 H 162.681 -3.81427 -3.36736 0
M  V30 1813 H 162.079 -1.42995 -5.47329 0
M  V30 1814 H 160.636 -2.01658 -6.1982 0
M  V30 1815 N 164.069 0.697108 -1.41344 0
M  V30 1816 C 165.032 1.79281 -1.42797 0
M  V30 1817 C 166.032 1.57607 -0.318837 0
M  V30 1818 O 167.222 1.64309 -0.578642 0
M  V30 1819 C 164.354 3.17632 -1.23785 0
M  V30 1820 H 165.547 1.79385 -2.40335 0
M  V30 1821 H 163.1 0.904582 -1.27464 0
M  V30 1822 H 163.835 3.23167 -0.270814 0
M  V30 1823 H 163.62 3.34765 -2.04144 0
M  V30 1824 H 165.11 3.97617 -1.27633 0
M  V30 1825 N 165.547 1.27147 0.931209 0
M  V30 1826 C 166.48 1.0389 2.0318 0
M  V30 1827 C 167.458 -0.0395716 1.62552 0
M  V30 1828 O 168.642 0.104867 1.88208 0
M  V30 1829 C 165.769 0.575227 3.3378 0
M  V30 1830 C 164.815 1.64774 3.93385 0
M  V30 1831 S 165.648 3.23933 4.26413 0
M  V30 1832 C 166.804 2.79358 5.60098 0
M  V30 1833 H 167.037 1.97075 2.22596 0
M  V30 1834 H 164.57 1.10938 1.07387 0
M  V30 1835 H 166.528 0.314385 4.09294 0
M  V30 1836 H 165.189 -0.336505 3.12292 0
M  V30 1837 H 164.382 1.27454 4.87618 0
M  V30 1838 H 163.984 1.86048 3.24441 0
M  V30 1839 H 166.276 2.24443 6.39243 0
M  V30 1840 H 167.219 3.72322 6.02314 0
M  V30 1841 H 167.627 2.1861 5.20452 0
M  V30 1842 N 167.025 -1.13721 1.09112 0
M  V30 1843 C 167.972 -2.19031 0.727591 0
M  V30 1844 C 168.942 -1.63555 -0.289656 0
M  V30 1845 O 170.127 -1.90023 -0.172026 0
M  V30 1846 C 167.267 -3.4477 0.15082 0
M  V30 1847 C 166.38 -4.14365 1.22172 0
M  V30 1848 C 165.515 -5.27709 0.608042 0
M  V30 1849 C 164.554 -5.89147 1.66047 0
M  V30 1850 N 163.691 -6.93929 1.06806 0
M  V30 1851 H 168.531 -2.49475 1.62991 0
M  V30 1852 H 166.068 -1.22499 0.81439 0
M  V30 1853 H 168.026 -4.16714 -0.201358 0
M  V30 1854 H 166.656 -3.14787 -0.714783 0
M  V30 1855 H 165.708 -3.40737 1.69122 0
M  V30 1856 H 167.02 -4.56114 2.01895 0
M  V30 1857 H 166.174 -6.06355 0.204523 0
M  V30 1858 H 164.913 -4.872 -0.220769 0
M  V30 1859 H 163.918 -5.09198 2.07357 0
M  V30 1860 H 165.143 -6.31729 2.49189 0
M  V30 1861 H 163.089 -6.55483 0.260476 0
M  V30 1862 H 163.006 -7.34202 1.8023 0
M  V30 1863 H 164.274 -7.76434 0.690644 0
M  V30 1864 N 168.503 -0.877838 -1.30888 0
M  V30 1865 C 169.751 -0.491723 -1.96027 0
M  V30 1866 C 170.072 0.960827 -1.69685 0
M  V30 1867 O 169.342 1.67462 -1.01654 0
M  V30 1868 H 167.922 -0.17885 -0.725273 0
M  V30 1869 H 170.584 -1.11935 -1.59551 0
M  V30 1870 H 169.68 -0.656016 -3.05128 0
M  V30 1871 N 169.982 1.44106 -0.638065 0
M  V30 1872 C 171.212 2.06037 -0.152394 0
M  V30 1873 C 171.62 1.47808 1.18108 0
M  V30 1874 O 170.963 0.598092 1.73691 0
M  V30 1875 C 171.025 3.59488 0.0293714 0
M  V30 1876 C 170.689 4.4022 -1.22702 0
M  V30 1877 C 171.686 4.73256 -2.15232 0
M  V30 1878 C 169.371 4.8048 -1.46437 0
M  V30 1879 C 171.365 5.45444 -3.29802 0
M  V30 1880 C 169.052 5.52417 -2.61303 0
M  V30 1881 C 170.05 5.84819 -3.52811 0
M  V30 1882 O 169.738 6.55289 -4.65673 0
M  V30 1883 H 169.47 0.671233 -0.0801401 0
M  V30 1884 H 172.024 1.85851 -0.874563 0
M  V30 1885 H 170.254 3.78191 0.806758 0
M  V30 1886 H 171.943 4.03164 0.470475 0
M  V30 1887 H 172.709 4.42684 -1.98131 0
M  V30 1888 H 168.588 4.54676 -0.760977 0
M  V30 1889 H 172.132 5.70653 -4.01249 0
M  V30 1890 H 168.029 5.82404 -2.78344 0
M  V30 1891 H 168.797 6.73762 -4.64744 0
M  V30 1892 N 171.46 0.379036 1.52974 0
M  V30 1893 C 172.41 -0.477772 2.22938 0
M  V30 1894 C 173.394 -1.03792 1.22948 0
M  V30 1895 O 174.586 -0.965725 1.48333 0
M  V30 1896 C 171.715 -1.60994 3.03209 0
M  V30 1897 C 170.801 -1.06203 4.10587 0
M  V30 1898 N 171.192 -0.238214 5.05239 0
M  V30 1899 C 169.49 -1.33554 4.25534 0
M  V30 1900 C 170.191 0.0633235 5.81666 0
M  V30 1901 N 169.167 -0.537901 5.40932 0
M  V30 1902 H 172.969 0.158295 2.93473 0
M  V30 1903 H 170.483 0.187778 1.61311 0
M  V30 1904 H 172.48 -2.23607 3.5186 0
M  V30 1905 H 171.14 -2.24893 2.34207 0
M  V30 1906 H 172.151 0.123695 5.17752 0
M  V30 1907 H 168.828 -1.97632 3.6776 0
M  V30 1908 H 170.218 0.730161 6.67921 0
M  V30 1909 N 172.938 -1.57226 0.108567 0
M  V30 1910 C 173.901 -2.13602 -0.831082 0
M  V30 1911 C 174.901 -1.06841 -1.20173 0
M  V30 1912 O 176.091 -1.32666 -1.12895 0
M  V30 1913 C 173.223 -2.66769 -2.12243 0
M  V30 1914 H 174.416 -2.97951 -0.341317 0
M  V30 1915 H 171.969 -1.55667 -0.14057 0
M  V30 1916 H 172.704 -1.85977 -2.65675 0
M  V30 1917 H 172.489 -3.44839 -1.86625 0
M  V30 1918 H 173.979 -3.10332 -2.79435 0
M  V30 1919 N 174.416 0.165178 -1.56732 0
M  V30 1920 C 175.349 1.23336 -1.91998 0
M  V30 1921 C 176.327 1.42476 -0.783531 0
M  V30 1922 O 177.511 1.57384 -1.03743 0
M  V30 1923 C 174.638 2.59533 -2.17625 0
M  V30 1924 C 173.684 2.57093 -3.40302 0
M  V30 1925 S 174.517 2.05571 -4.9447 0
M  V30 1926 C 175.673 3.43532 -5.23198 0
M  V30 1927 H 175.906 0.932387 -2.82301 0
M  V30 1928 H 173.439 0.370013 -1.49901 0
M  V30 1929 H 175.397 3.37918 -2.3307 0
M  V30 1930 H 174.058 2.86827 -1.28019 0
M  V30 1931 H 173.251 3.57308 -3.55453 0
M  V30 1932 H 172.853 1.86806 -3.24005 0
M  V30 1933 H 175.145 4.39559 -5.15552 0
M  V30 1934 H 176.088 3.33251 -6.2478 0
M  V30 1935 H 176.496 3.39828 -4.50752 0
M  V30 1936 N 175.894 1.51508 0.433938 0
M  V30 1937 C 176.827 1.67756 1.54704 0
M  V30 1938 C 177.805 0.525127 1.53887 0
M  V30 1939 O 178.989 0.749393 1.72963 0
M  V30 1940 C 176.116 1.69424 2.9328 0
M  V30 1941 C 175.162 2.90673 3.12108 0
M  V30 1942 S 175.995 4.51431 2.88046 0
M  V30 1943 C 177.151 4.55849 4.28897 0
M  V30 1944 H 177.384 2.61904 1.40689 0
M  V30 1945 H 174.917 1.41235 0.62386 0
M  V30 1946 H 176.875 1.7107 3.73156 0
M  V30 1947 H 175.536 0.764464 3.04655 0
M  V30 1948 H 174.729 2.88251 4.13434 0
M  V30 1949 H 174.331 2.86786 2.40062 0
M  V30 1950 H 176.623 4.31699 5.22152 0
M  V30 1951 H 177.566 5.57676 4.36351 0
M  V30 1952 H 177.974 3.85137 4.12711 0
M  V30 1953 N 177.372 -0.689602 1.41712 0
M  V30 1954 C 178.618 -1.45181 1.41599 0
M  V30 1955 C 178.951 -1.94181 0.0270081 0
M  V30 1956 O 178.226 -1.6993 -0.946265 0
M  V30 1957 C 178.509 -2.65945 2.42787 0
M  V30 1958 C 178.362 -2.22672 3.90816 0
M  V30 1959 C 179.681 -3.68149 2.41151 0
M  V30 1960 H 176.8 -0.526576 0.515642 0
M  V30 1961 H 179.442 -0.784947 1.73028 0
M  V30 1962 H 177.592 -3.2284 2.16116 0
M  V30 1963 H 179.264 -1.71058 4.28412 0
M  V30 1964 H 177.507 -1.54394 4.05395 0
M  V30 1965 H 178.178 -3.0935 4.57172 0
M  V30 1966 H 180.654 -3.2094 2.64834 0
M  V30 1967 H 179.53 -4.50248 3.13955 0
M  V30 1968 H 179.791 -4.18259 1.43221 0
M  V30 1969 N 178.85 -1.27639 -0.924453 0
M  V30 1970 C 180.127 -1.04887 -1.651 0
M  V30 1971 C 180.507 0.415327 -2.06974 0
M  V30 1972 O 179.855 1.39923 -1.80648 0
M  V30 1973 C 180.065 -2.01348 -2.85061 0
M  V30 1974 C 181.413 -2.30899 -3.56329 0
M  V30 1975 O 182.437 -1.99348 -2.95193 0
M  V30 1976 O 181.296 -2.84699 -4.66485 0
M  V30 1977 H 178.39 -0.400083 -0.723784 0
M  V30 1978 H 180.936 -1.38916 -0.974703 0
M  V30 1979 H 179.708 -3.0008 -2.51133 0
M  V30 1980 H 179.331 -1.679 -3.6041 0
M  V30 1981 N 180.328 1.1314 -1.09713 0
M  V30 1982 C 181.577 1.83838 -0.829851 0
M  V30 1983 C 181.89 1.84599 0.646728 0
M  V30 1984 O 183.096 2.51218 1.02965 0
M  V30 1985 C 181.552 3.30069 -1.43466 0
M  V30 1986 C 181.16 3.37688 -2.94399 0
M  V30 1987 C 182.904 4.05788 -1.24645 0
M  V30 1988 C 180.811 4.78209 -3.47952 0
M  V30 1989 H 179.741 0.68877 -0.306777 0
M  V30 1990 H 182.392 1.27448 -1.3202 0
M  V30 1991 H 180.774 3.8628 -0.871996 0
M  V30 1992 H 181.948 2.91456 -3.56918 0
M  V30 1993 H 180.263 2.75436 -3.12289 0
M  V30 1994 H 182.86 5.09535 -1.62107 0
M  V30 1995 H 183.203 4.15878 -0.187357 0
M  V30 1996 H 183.736 3.55915 -1.77678 0
M  V30 1997 H 180.475 4.73311 -4.53495 0
M  V30 1998 H 179.995 5.24924 -2.90198 0
M  V30 1999 H 181.674 5.47133 -3.45332 0
M  V30 2000 N 181.806 0.884767 1.30421 0
M  V30 2001 C 182.769 0.356277 2.26414 0
M  V30 2002 C 183.769 -0.501124 1.52792 0
M  V30 2003 O 184.959 -0.30831 1.7145 0
M  V30 2004 C 182.091 -0.492316 3.37326 0
M  V30 2005 H 183.284 1.20389 2.74675 0
M  V30 2006 H 180.837 0.661607 1.41607 0
M  V30 2007 H 181.572 -1.36052 2.94381 0
M  V30 2008 H 181.357 0.121832 3.91911 0
M  V30 2009 H 182.847 -0.853871 4.08777 0
M  V30 2010 N 183.284 -1.43765 0.645699 0
M  V30 2011 C 184.53 -2.02197 0.156271 0
M  V30 2012 C 184.863 -1.50776 -1.22393 0
M  V30 2013 O 184.138 -0.697771 -1.81553 0
M  V30 2014 C 184.421 -3.59749 0.158872 0
M  V30 2015 C 184.274 -4.21419 1.57245 0
M  V30 2016 C 185.593 -4.37149 -0.50879 0
M  V30 2017 H 182.712 -0.734694 0.0582602 0
M  V30 2018 H 185.354 -1.71157 0.824951 0
M  V30 2019 H 183.504 -3.86325 -0.410525 0
M  V30 2020 H 185.176 -4.059 2.19186 0
M  V30 2021 H 183.419 -3.78356 2.122 0
M  V30 2022 H 184.09 -5.30482 1.52619 0
M  V30 2023 H 186.566 -4.16093 -0.024412 0
M  V30 2024 H 185.442 -5.4683 -0.476213 0
M  V30 2025 H 185.703 -4.12839 -1.58165 0
M  V30 2026 N 184.763 -0.387143 -1.52771 0
M  V30 2027 C 185.695 0.484089 -2.2403 0
M  V30 2028 C 186.708 1.02849 -1.26198 0
M  V30 2029 O 187.897 0.931186 -1.52286 0
M  V30 2030 C 184.997 1.68337 -2.94136 0
M  V30 2031 C 184.17 1.26672 -4.18656 0
M  V30 2032 C 183.229 2.33045 -4.7178 0
M  V30 2033 O 182.255 1.94541 -5.34923 0
M  V30 2034 N 183.457 3.64929 -4.5145 0
M  V30 2035 H 186.222 -0.126404 -2.99433 0
M  V30 2036 H 183.783 -0.213392 -1.60488 0
M  V30 2037 H 185.775 2.39019 -3.26577 0
M  V30 2038 H 184.345 2.20025 -2.22053 0
M  V30 2039 H 183.565 0.388878 -3.92277 0
M  V30 2040 H 184.853 0.964964 -4.99566 0
M  V30 2041 H 184.251 3.98974 -4.01044 0
M  V30 2042 H 182.808 4.31651 -4.88386 0
M  V30 2043 N 186.241 1.57166 -0.116904 0
M  V30 2044 C 187.171 2.18222 0.830759 0
M  V30 2045 C 188.152 1.12167 1.27877 0
M  V30 2046 O 189.337 1.40394 1.34176 0
M  V30 2047 C 186.467 2.77996 2.08172 0
M  V30 2048 C 185.421 3.89614 1.77157 0
M  V30 2049 C 184.747 4.36187 3.09265 0
M  V30 2050 C 186.047 5.1181 1.04151 0
M  V30 2051 H 187.741 2.97664 0.321992 0
M  V30 2052 H 185.287 1.4318 0.153434 0
M  V30 2053 H 187.24 3.19366 2.74924 0
M  V30 2054 H 185.964 1.9584 2.6137 0
M  V30 2055 H 184.623 3.48816 1.12796 0
M  V30 2056 H 184.271 3.50893 3.60393 0
M  V30 2057 H 183.971 5.11455 2.89288 0
M  V30 2058 H 185.495 4.80207 3.77139 0
M  V30 2059 H 186.909 5.50214 1.61052 0
M  V30 2060 H 185.306 5.92648 0.942762 0
M  V30 2061 H 186.376 4.84892 0.0279022 0
M  V30 2062 N 187.719 -0.156864 1.56817 0
M  V30 2063 C 188.965 -0.872416 1.83076 0
M  V30 2064 C 189.298 -1.81261 0.697001 0
M  V30 2065 O 188.573 -1.92171 -0.30008 0
M  V30 2066 C 188.856 -1.65551 3.19789 0
M  V30 2067 C 188.709 -0.737467 4.43713 0
M  V30 2068 C 190.028 -2.62012 3.53606 0
M  V30 2069 H 187.147 -0.315715 0.665953 0
M  V30 2070 H 189.789 -0.138004 1.89498 0
M  V30 2071 H 187.939 -2.28159 3.14445 0
M  V30 2072 H 189.611 -0.123143 4.61136 0
M  V30 2073 H 187.854 -0.0464067 4.33775 0
M  V30 2074 H 188.525 -1.32122 5.35955 0
M  V30 2075 H 191.001 -2.09525 3.59497 0
M  V30 2076 H 189.877 -3.13861 4.50314 0
M  V30 2077 H 190.138 -3.42902 2.79053 0
M  V30 2078 N 189.197 -1.51736 -0.425897 0
M  V30 2079 C 190.129 -1.70083 -1.53638 0
M  V30 2080 C 191.142 -0.581349 -1.52066 0
M  V30 2081 O 192.331 -0.856017 -1.56635 0
M  V30 2082 C 189.431 -1.71078 -2.9255 0
M  V30 2083 C 188.604 -2.99795 -3.185 0
M  V30 2084 C 187.663 -2.92825 -4.37196 0
M  V30 2085 O 186.689 -3.66756 -4.35291 0
M  V30 2086 N 187.891 -2.0946 -5.41393 0
M  V30 2087 H 190.656 -2.65882 -1.383 0
M  V30 2088 H 188.217 -1.49765 -0.614988 0
M  V30 2089 H 190.209 -1.63969 -3.69995 0
M  V30 2090 H 188.779 -0.828242 -3.01428 0
M  V30 2091 H 187.999 -3.20684 -2.2925 0
M  V30 2092 H 189.287 -3.84977 -3.32671 0
M  V30 2093 H 188.685 -1.48792 -5.45781 0
M  V30 2094 H 187.242 -2.08221 -6.17647 0
M  V30 2095 N 190.675 0.682077 -1.42076 0
M  V30 2096 C 191.622 1.79578 -1.44984 0
M  V30 2097 C 192.592 1.6332 -0.302614 0
M  V30 2098 O 193.777 1.83978 -0.505633 0
M  V30 2099 C 190.917 3.1756 -1.35091 0
M  V30 2100 C 190.03 3.45156 -2.59791 0
M  V30 2101 C 189.165 4.72826 -2.42093 0
M  V30 2102 C 188.204 4.93433 -3.62202 0
M  V30 2103 N 187.341 6.12338 -3.43491 0
M  V30 2104 H 192.181 1.76427 -2.40161 0
M  V30 2105 H 189.718 0.861376 -1.19242 0
M  V30 2106 H 191.676 3.97287 -1.27354 0
M  V30 2107 H 190.306 3.19854 -0.435133 0
M  V30 2108 H 189.358 2.59736 -2.77923 0
M  V30 2109 H 190.67 3.5628 -3.49094 0
M  V30 2110 H 189.824 5.60631 -2.319 0
M  V30 2111 H 188.563 4.63973 -1.50268 0
M  V30 2112 H 187.568 4.04073 -3.72834 0
M  V30 2113 H 188.793 5.04136 -4.54998 0
M  V30 2114 H 186.739 6.04672 -2.54377 0
M  V30 2115 H 186.656 6.2429 -4.26377 0
M  V30 2116 H 187.924 7.02841 -3.37097 0
M  V30 2117 N 192.153 1.28127 0.917671 0
M  V30 2118 C 193.399 1.16232 1.66918 0
M  V30 2119 C 193.754 -0.28701 1.90247 0
M  V30 2120 O 193.047 -1.20586 1.48895 0
M  V30 2121 C 193.241 1.89018 3.03327 0
M  V30 2122 C 193.07 3.4088 2.9331 0
M  V30 2123 C 191.84 4.10214 2.95047 0
M  V30 2124 C 194.038 4.36689 2.71675 0
M  V30 2125 N 192.02 5.48571 2.75577 0
M  V30 2126 C 193.391 5.62382 2.6101 0
M  V30 2127 C 195.446 4.26661 2.56641 0
M  V30 2128 C 194.149 6.79189 2.36843 0
M  V30 2129 C 196.175 5.432 2.33853 0
M  V30 2130 C 195.537 6.67855 2.23939 0
M  V30 2131 H 191.636 0.48024 0.617166 0
M  V30 2132 H 194.22 1.61727 1.08409 0
M  V30 2133 H 192.391 1.45963 3.59929 0
M  V30 2134 H 194.123 1.69541 3.67475 0
M  V30 2135 H 190.878 3.61762 3.05655 0
M  V30 2136 H 191.302 6.21287 2.68945 0
M  V30 2137 H 195.944 3.30998 2.63059 0
M  V30 2138 H 193.662 7.74926 2.29164 0
M  V30 2139 H 197.248 5.37328 2.23091 0
M  V30 2140 H 196.128 7.56511 2.06546 0
M  V30 2141 N 193.631 -1.12557 1.10312 0
M  V30 2142 C 194.541 -2.21841 0.763142 0
M  V30 2143 C 195.557 -1.72354 -0.238801 0
M  V30 2144 O 196.733 -2.01249 -0.0778746 0
M  V30 2145 C 193.798 -3.46131 0.198632 0
M  V30 2146 C 192.859 -4.10464 1.25769 0
M  V30 2147 C 192.092 -5.28821 0.72002 0
M  V30 2148 O 192.315 -5.6859 -0.453993 0
M  V30 2149 O 191.249 -5.83437 1.47935 0
M  V30 2150 H 195.075 -2.53312 1.67532 0
M  V30 2151 H 192.66 -1.20867 0.878157 0
M  V30 2152 H 194.542 -4.2125 -0.112401 0
M  V30 2153 H 193.217 -3.16338 -0.686419 0
M  V30 2154 H 192.124 -3.3713 1.62156 0
M  V30 2155 H 193.457 -4.44408 2.11571 0
M  V30 2156 N 195.109 -0.891671 -1.2995 0
M  V30 2157 C 196.525 -0.58662 -1.48428 0
M  V30 2158 C 196.725 0.873951 -1.81561 0
M  V30 2159 O 195.781 1.65471 -1.90724 0
M  V30 2160 C 197.094 -1.50553 -2.60296 0
M  V30 2161 C 198.642 -1.50988 -2.74175 0
M  V30 2162 C 199.117 -2.41488 -3.89163 0
M  V30 2163 N 200.608 -2.39489 -3.96483 0
M  V30 2164 C 201.343 -3.06223 -4.84784 0
M  V30 2165 N 200.839 -3.82206 -5.77833 0
M  V30 2166 N 202.632 -2.95421 -4.78208 0
M  V30 2167 H 194.783 -1.83644 -1.06718 0
M  V30 2168 H 197.046 -0.786455 -0.529332 0
M  V30 2169 H 196.752 -2.54581 -2.42654 0
M  V30 2170 H 196.626 -1.22008 -3.56923 0
M  V30 2171 H 199.013 -0.47708 -2.91218 0
M  V30 2172 H 199.094 -1.83567 -1.78148 0
M  V30 2173 H 198.738 -3.44857 -3.72876 0
M  V30 2174 H 198.668 -2.06222 -4.84541 0
M  V30 2175 H 201.159 -1.84278 -3.29924 0
M  V30 2176 H 201.472 -4.302 -6.41988 0
M  V30 2177 H 199.817 -3.86313 -5.77743 0
M  V30 2178 H 203.008 -2.35581 -4.04499 0
M  V30 2179 H 203.181 -3.47704 -5.46814 0
M  V30 2180 N 196.587 1.43421 -0.653314 0
M  V30 2181 C 197.517 2.33487 0.0246656 0
M  V30 2182 C 198.498 1.49475 0.811863 0
M  V30 2183 O 199.683 1.78139 0.773322 0
M  V30 2184 C 196.813 3.32841 0.99166 0
M  V30 2185 C 195.767 4.26842 0.314568 0
M  V30 2186 C 195.093 5.16236 1.39302 0
M  V30 2187 C 196.393 5.16243 -0.793095 0
M  V30 2188 H 198.087 2.90427 -0.727481 0
M  V30 2189 H 195.633 1.39649 -0.351287 0
M  V30 2190 H 197.586 3.94747 1.47487 0
M  V30 2191 H 196.31 2.74158 1.77497 0
M  V30 2192 H 194.969 3.663 -0.148199 0
M  V30 2193 H 194.617 4.53891 2.16776 0
M  V30 2194 H 194.317 5.79948 0.945223 0
M  V30 2195 H 195.841 5.81015 1.87759 0
M  V30 2196 H 197.255 5.71958 -0.392039 0
M  V30 2197 H 195.652 5.88676 -1.16536 0
M  V30 2198 H 196.722 4.55927 -1.65103 0
M  V30 2199 N 198.065 0.39524 1.52563 0
M  V30 2200 C 199.013 -0.451859 2.28169 0
M  V30 2201 C 200.007 -1.05792 1.32304 0
M  V30 2202 O 201.213 -0.997718 1.49818 0
M  V30 2203 H 197.588 -0.164481 0.733792 0
M  V30 2204 H 199.559 0.207199 2.9768 0
M  V30 2205 C 198.308 -1.56385 3.10546 0
M  V30 2206 H 197.631 -1.10682 3.84174 0
M  V30 2207 H 199.071 -2.13067 3.66577 0
M  V30 2208 C 197.53 -2.52328 2.23231 0
M  V30 2209 O 198.06 -3.5588 1.86312 0
M  V30 2210 N 196.266 -2.22209 1.87274 0
M  V30 2211 H 195.813 -1.38033 2.17496 0
M  V30 2212 H 195.771 -2.86652 1.29143 0
M  V30 2213 N 199.544 -1.57102 0.125237 0
M  V30 2214 C 200.507 -2.14471 -0.80838 0
M  V30 2215 C 201.507 -1.0811 -1.19033 0
M  V30 2216 O 202.697 -1.33856 -1.11482 0
M  V30 2217 C 199.829 -2.69005 -2.09402 0
M  V30 2218 H 201.022 -2.98297 -0.309696 0
M  V30 2219 H 198.575 -1.55807 -0.124051 0
M  V30 2220 H 199.31 -1.88785 -2.63687 0
M  V30 2221 H 199.095 -3.46799 -1.82957 0
M  V30 2222 H 200.585 -3.13278 -2.76128 0
M  V30 2223 N 201.022 0.148545 -1.56898 0
M  V30 2224 C 202.299 0.890019 -1.74178 0
M  V30 2225 C 202.679 1.99407 -0.692839 0
M  V30 2226 O 202.027 2.26671 0.288505 0
M  V30 2227 C 202.237 1.43389 -3.18183 0
M  V30 2228 C 203.585 1.89791 -3.79822 0
M  V30 2229 O 204.609 1.53134 -3.21603 0
M  V30 2230 O 203.468 2.57387 -4.82093 0
M  V30 2231 H 200.562 0.420496 -0.712118 0
M  V30 2232 H 203.108 0.134591 -1.69165 0
M  V30 2233 H 201.88 0.640383 -3.86024 0
M  V30 2234 H 201.503 2.25287 -3.27615 0
M  V30 2235 N 202.5 1.5196 0.417844 0
M  V30 2236 C 203.41 1.77554 1.53336 0
M  V30 2237 C 204.426 0.660655 1.6097 0
M  V30 2238 O 205.602 0.945099 1.77848 0
M  V30 2239 C 202.667 1.91291 2.89152 0
M  V30 2240 C 201.728 3.15183 2.91475 0
M  V30 2241 C 200.961 3.28256 4.20813 0
M  V30 2242 O 201.184 2.46798 5.14244 0
M  V30 2243 O 200.118 4.21356 4.29817 0
M  V30 2244 H 203.944 2.7222 1.34647 0
M  V30 2245 H 201.529 1.36698 0.602828 0
M  V30 2246 H 203.411 2.02199 3.69721 0
M  V30 2247 H 202.086 0.998129 3.07927 0
M  V30 2248 H 200.993 3.09739 2.09791 0
M  V30 2249 H 202.326 4.06414 2.77648 0
M  V30 2250 N 203.978 -0.674533 1.42435 0
M  V30 2251 C 204.928 -1.7807 1.4239 0
M  V30 2252 C 205.912 -1.58169 0.295202 0
M  V30 2253 O 207.104 -1.68643 0.537449 0
M  V30 2254 C 204.233 -3.16532 1.32901 0
M  V30 2255 C 203.319 -3.42055 2.50717 0
M  V30 2256 N 203.71 -3.38162 3.76139 0
M  V30 2257 C 202.008 -3.72692 2.44983 0
M  V30 2258 C 202.709 -3.63177 4.54398 0
M  V30 2259 N 201.685 -3.83954 3.84812 0
M  V30 2260 H 205.487 -1.73454 2.37257 0
M  V30 2261 H 203.001 -0.875381 1.36788 0
M  V30 2262 H 204.998 -3.958 1.30951 0
M  V30 2263 H 203.658 -3.22345 0.390363 0
M  V30 2264 H 204.669 -3.18057 4.0873 0
M  V30 2265 H 201.346 -3.85749 1.59699 0
M  V30 2266 H 202.736 -3.66125 5.63384 0
M  V30 2267 N 205.456 -1.28612 -0.910864 0
M  V30 2268 C 206.705 -1.15311 -1.65488 0
M  V30 2269 C 207.018 0.296999 -1.93332 0
M  V30 2270 O 208.224 0.551168 -2.65847 0
M  V30 2271 C 206.68 -2.01599 -2.98137 0
M  V30 2272 C 206.288 -3.51367 -2.7793 0
M  V30 2273 C 208.032 -1.96993 -3.76024 0
M  V30 2274 C 205.939 -4.29797 -4.06237 0
M  V30 2275 H 204.869 -0.42796 -0.620779 0
M  V30 2276 H 207.52 -1.53166 -1.01057 0
M  V30 2277 H 205.902 -1.56603 -3.63719 0
M  V30 2278 H 207.076 -4.0434 -2.21011 0
M  V30 2279 H 205.391 -3.57529 -2.13452 0
M  V30 2280 H 207.988 -2.52856 -4.71135 0
M  V30 2281 H 208.331 -0.94733 -4.05378 0
M  V30 2282 H 208.864 -2.39973 -3.17266 0
M  V30 2283 H 205.603 -5.32648 -3.82055 0
M  V30 2284 H 205.123 -3.81596 -4.62757 0
M  V30 2285 H 206.802 -4.39869 -4.74473 0
M  V30 2286 N 206.934 1.1197 -1.10907 0
M  V30 2287 C 207.844 2.21433 -0.774896 0
M  V30 2288 C 208.86 1.72478 0.229657 0
M  V30 2289 O 210.036 2.01288 0.0672008 0
M  V30 2290 C 207.101 3.4602 -0.216986 0
M  V30 2291 C 206.162 4.09791 -1.27944 0
M  V30 2292 C 205.395 5.28431 -0.748055 0
M  V30 2293 O 205.618 5.68823 0.423833 0
M  V30 2294 O 204.552 5.82644 -1.51027 0
M  V30 2295 H 208.378 2.5242 -1.68873 0
M  V30 2296 H 205.963 1.20399 -0.884555 0
M  V30 2297 H 207.845 4.21304 0.090059 0
M  V30 2298 H 206.52 3.16698 0.669633 0
M  V30 2299 H 205.427 3.36265 -1.63941 0
M  V30 2300 H 206.76 4.4328 -2.13925 0
M  V30 2301 N 208.412 0.89855 1.29475 0
M  V30 2302 C 209.658 0.524658 1.95896 0
M  V30 2303 C 209.991 -0.926468 1.70676 0
M  V30 2304 O 209.266 -1.65665 1.01908 0
M  V30 2305 C 209.549 0.81633 3.50725 0
M  V30 2306 C 209.402 2.31907 3.85408 0
M  V30 2307 C 210.721 0.302038 4.39062 0
M  V30 2308 H 207.84 0.19209 0.711527 0
M  V30 2309 H 210.482 1.12502 1.53112 0
M  V30 2310 H 208.632 0.305369 3.87298 0
M  V30 2311 H 210.304 2.89949 3.58786 0
M  V30 2312 H 208.547 2.78027 3.32992 0
M  V30 2313 H 209.218 2.47373 4.93468 0
M  V30 2314 H 211.694 0.739551 4.09475 0
M  V30 2315 H 210.57 0.535331 5.46283 0
M  V30 2316 H 210.831 -0.797216 4.34853 0
M  V30 2317 N 209.89 -1.43072 0.660911 0
M  V30 2318 C 211.301 -1.84932 0.256348 0
M  V30 2319 C 211.652 -1.55325 -1.19868 0
M  V30 2320 O 210.777 -1.00607 -1.91591 0
M  V30 2321 C 211.372 -3.35684 0.458475 0
M  V30 2322 C 209.931 -3.76245 0.108161 0
M  V30 2323 C 209.078 -2.66749 0.757641 0
M  V30 2324 H 212.029 -1.33116 0.864051 0
M  V30 2325 H 212.05 -3.79365 -0.293683 0
M  V30 2326 H 211.562 -3.572 1.51755 0
M  V30 2327 H 209.663 -3.60338 -0.948014 0
M  V30 2328 H 209.776 -4.76058 0.538992 0
M  V30 2329 H 208.14 -2.53989 0.190185 0
M  V30 2330 H 208.923 -2.91092 1.81989 0
M  V30 2331 N 211.368 -0.403325 -1.52352 0
M  V30 2332 C 212.278 0.432009 -2.30588 0
M  V30 2333 C 213.294 1.05884 -1.38075 0
M  V30 2334 O 214.47 1.06161 -1.71148 0
M  V30 2335 C 211.535 1.53669 -3.10784 0
M  V30 2336 C 210.596 0.933525 -4.19027 0
M  V30 2337 C 209.829 1.98557 -4.9539 0
M  V30 2338 O 210.052 3.20283 -4.71991 0
M  V30 2339 O 208.986 1.59504 -5.80381 0
M  V30 2340 H 212.812 -0.205739 -3.03002 0
M  V30 2341 H 210.397 -0.166675 -1.48467 0
M  V30 2342 H 212.279 2.17814 -3.60742 0
M  V30 2343 H 210.954 2.15915 -2.41169 0
M  V30 2344 H 209.861 0.254954 -3.7323 0
M  V30 2345 H 211.194 0.35508 -4.90918 0
M  V30 2346 N 212.846 1.57033 -0.133567 0
M  V30 2347 C 214.123 1.87256 0.56522 0
M  V30 2348 C 214.503 1.03726 1.83859 0
M  V30 2349 O 213.851 0.120247 2.28183 0
M  V30 2350 C 214.061 3.3865 0.843636 0
M  V30 2351 C 215.409 4.07574 1.19032 0
M  V30 2352 O 216.433 3.43752 0.933429 0
M  V30 2353 O 215.292 5.20259 1.67312 0
M  V30 2354 H 212.386 0.775678 0.286796 0
M  V30 2355 H 214.932 1.68855 -0.169168 0
M  V30 2356 H 213.704 3.91257 -0.0581149 0
M  V30 2357 H 213.327 3.62532 1.63268 0
M  V30 2358 N 214.325 -0.140222 1.56975 0
M  V30 2359 C 215.258 -1.20266 1.93936 0
M  V30 2360 C 216.236 -1.41212 0.806099 0
M  V30 2361 O 217.42 -1.55713 1.06234 0
M  V30 2362 C 214.547 -2.56037 2.21726 0
M  V30 2363 C 213.593 -2.51646 3.44349 0
M  V30 2364 S 214.426 -1.97678 4.97678 0
M  V30 2365 C 215.582 -3.35165 5.28597 0
M  V30 2366 H 215.815 -0.887358 2.83749 0
M  V30 2367 H 213.348 -0.346119 1.50471 0
M  V30 2368 H 215.306 -3.34167 2.38416 0
M  V30 2369 H 213.967 -2.84755 1.32566 0
M  V30 2370 H 213.16 -3.51608 3.61092 0
M  V30 2371 H 212.762 -1.81628 3.26936 0
M  V30 2372 H 215.054 -4.31302 5.2248 0
M  V30 2373 H 215.997 -3.23269 6.30002 0
M  V30 2374 H 216.405 -3.32614 4.56101 0
M  V30 2375 N 215.803 -1.52179 -0.40978 0
M  V30 2376 C 217.031 -1.70054 -1.17853 0
M  V30 2377 C 217.446 -0.409735 -1.843 0
M  V30 2378 O 216.803 0.614183 -1.71855 0
M  V30 2379 C 216.854 -2.83568 -2.24213 0
M  V30 2380 O 216.575 -4.0765 -1.60478 0
M  V30 2381 C 218.076 -3.12947 -3.13973 0
M  V30 2382 H 215.296 -0.569917 -0.354169 0
M  V30 2383 H 217.84 -1.98734 -0.482198 0
M  V30 2384 H 215.995 -2.57409 -2.89516 0
M  V30 2385 H 216.409 -4.70899 -2.30986 0
M  V30 2386 H 217.883 -3.95889 -3.84677 0
M  V30 2387 H 218.36 -2.26472 -3.76307 0
M  V30 2388 H 218.966 -3.40868 -2.5434 0
M  V30 2389 N 217.281 0.66697 -1.42791 0
M  V30 2390 C 218.697 0.981027 -1.25889 0
M  V30 2391 C 218.897 2.00793 -0.168695 0
M  V30 2392 O 217.953 2.48321 0.45747 0
M  V30 2393 C 219.266 1.47838 -2.61848 0
M  V30 2394 C 220.814 1.59575 -2.69267 0
M  V30 2395 C 221.289 2.12704 -4.05612 0
M  V30 2396 N 222.78 2.20026 -4.07606 0
M  V30 2397 C 223.515 2.62227 -5.09926 0
M  V30 2398 N 223.011 3.03824 -6.22626 0
M  V30 2399 N 224.804 2.62045 -4.97281 0
M  V30 2400 H 216.955 -0.0127891 -2.12396 0
M  V30 2401 H 219.218 0.0568258 -0.946295 0
M  V30 2402 H 218.924 0.798299 -3.4252 0
M  V30 2403 H 218.798 2.45579 -2.86305 0
M  V30 2404 H 221.185 2.26687 -1.88936 0
M  V30 2405 H 221.266 0.60302 -2.48591 0
M  V30 2406 H 220.91 1.46198 -4.86404 0
M  V30 2407 H 220.84 3.12782 -4.23645 0
M  V30 2408 H 223.331 1.90708 -3.2625 0
M  V30 2409 H 223.644 3.34734 -6.96544 0
M  V30 2410 H 221.989 3.01662 -6.26119 0
M  V30 2411 H 225.18 2.28916 -4.08308 0
M  V30 2412 H 225.353 2.94613 -5.77154 0
M  V30 2413 N 218.759 1.29093 0.90403 0
M  V30 2414 C 219.689 1.16401 2.02418 0
M  V30 2415 C 220.67 0.0593085 1.69997 0
M  V30 2416 O 221.855 0.238021 1.92736 0
M  V30 2417 C 218.985 0.835233 3.37107 0
M  V30 2418 C 217.939 1.89578 3.83724 0
M  V30 2419 C 217.265 1.42041 5.15489 0
M  V30 2420 C 218.565 3.30394 4.04521 0
M  V30 2421 H 220.259 2.10109 2.13295 0
M  V30 2422 H 217.805 1.01157 1.02486 0
M  V30 2423 H 219.758 0.733169 4.14973 0
M  V30 2424 H 218.482 -0.137543 3.2631 0
M  V30 2425 H 217.141 1.98715 3.08071 0
M  V30 2426 H 216.789 0.436426 5.01103 0
M  V30 2427 H 216.489 2.12964 5.4765 0
M  V30 2428 H 218.013 1.33176 5.959 0
M  V30 2429 H 219.427 3.24123 4.72882 0
M  V30 2430 H 217.824 3.99237 4.48029 0
M  V30 2431 H 218.894 3.73692 3.09002 0
M  V30 2432 N 220.237 -1.11381 1.11499 0
M  V30 2433 C 221.465 -1.86934 0.88675 0
M  V30 2434 C 221.88 -1.80195 -0.563476 0
M  V30 2435 O 221.237 -1.18367 -1.38908 0
M  V30 2436 C 221.288 -3.35722 1.34064 0
M  V30 2437 O 221.009 -3.4232 2.73401 0
M  V30 2438 C 222.51 -4.2818 1.14791 0
M  V30 2439 H 219.73 -0.591117 0.317523 0
M  V30 2440 H 222.274 -1.40865 1.48248 0
M  V30 2441 H 220.429 -3.79294 0.788355 0
M  V30 2442 H 220.843 -4.34971 2.93087 0
M  V30 2443 H 222.317 -5.30817 1.5145 0
M  V30 2444 H 222.794 -4.39113 0.0875279 0
M  V30 2445 H 223.4 -3.90402 1.68721 0
M  V30 2446 N 221.715 -0.905404 -1.28997 0
M  V30 2447 C 222.645 -0.404212 -2.29975 0
M  V30 2448 C 223.626 0.523784 -1.61835 0
M  V30 2449 O 224.811 0.433298 -1.89304 0
M  V30 2450 C 221.941 0.364042 -3.45387 0
M  V30 2451 C 220.895 -0.474048 -4.25367 0
M  V30 2452 C 220.221 0.422045 -5.33032 0
M  V30 2453 C 221.521 -1.72696 -4.92923 0
M  V30 2454 H 223.215 -1.24807 -2.72146 0
M  V30 2455 H 220.761 -0.601585 -1.30832 0
M  V30 2456 H 222.714 0.725447 -4.15109 0
M  V30 2457 H 221.438 1.24174 -3.02074 0
M  V30 2458 H 220.097 -0.81786 -3.57361 0
M  V30 2459 H 219.745 1.29804 -4.85963 0
M  V30 2460 H 219.445 -0.135057 -5.87445 0
M  V30 2461 H 220.969 0.779517 -6.05604 0
M  V30 2462 H 222.383 -1.43495 -5.55051 0
M  V30 2463 H 220.78 -2.22582 -5.57295 0
M  V30 2464 H 221.85 -2.45964 -4.17887 0
M  V30 2465 N 223.193 1.4272 -0.668489 0
M  V30 2466 C 224.47 1.95248 -0.117373 0
M  V30 2467 C 224.85 1.60919 1.36632 0
M  V30 2468 O 224.198 0.902095 2.09939 0
M  V30 2469 C 224.408 3.46927 -0.379806 0
M  V30 2470 C 225.756 4.23588 -0.292923 0
M  V30 2471 O 226.78 3.5482 -0.313204 0
M  V30 2472 O 225.639 5.46017 -0.229697 0
M  V30 2473 H 222.733 0.827 0.00079152 0
M  V30 2474 H 225.279 1.52581 -0.742783 0
M  V30 2475 H 224.051 3.65096 -1.40786 0
M  V30 2476 H 223.674 3.96627 0.277923 0
M  V30 2477 N 224.671 0.411399 1.52136 0
M  V30 2478 C 225.899 -0.163076 2.06256 0
M  V30 2479 C 226.314 -1.3867 1.28125 0
M  V30 2480 O 225.671 -1.79423 0.333721 0
M  V30 2481 C 225.722 -0.511252 3.57867 0
M  V30 2482 O 225.443 0.66378 4.33042 0
M  V30 2483 C 226.944 -1.13921 4.28412 0
M  V30 2484 H 224.164 -0.0193897 0.67072 0
M  V30 2485 H 226.708 0.583007 1.96013 0
M  V30 2486 H 224.863 -1.20723 3.6811 0
M  V30 2487 H 225.277 0.372601 5.23175 0
M  V30 2488 H 226.751 -1.33302 5.35663 0
M  V30 2489 H 227.228 -2.11296 3.85033 0
M  V30 2490 H 227.834 -0.483373 4.22544 0
M  V30 2491 N 226.149 -1.5696 0.141893 0
M  V30 2492 C 227.398 -1.95135 -0.510427 0
M  V30 2493 C 227.711 -1.02896 -1.66348 0
M  V30 2494 O 228.917 -1.30629 -2.38009 0
M  V30 2495 C 227.373 -3.46876 -0.959427 0
M  V30 2496 C 226.981 -4.47691 0.166419 0
M  V30 2497 C 228.725 -3.93927 -1.58183 0
M  V30 2498 C 226.632 -5.90636 -0.300565 0
M  V30 2499 H 225.562 -0.728494 -0.194454 0
M  V30 2500 H 228.213 -1.8211 0.22542 0
M  V30 2501 H 226.595 -3.55215 -1.75038 0
M  V30 2502 H 227.769 -4.51043 0.94325 0
M  V30 2503 H 226.084 -4.10527 0.696905 0
M  V30 2504 H 228.681 -4.98158 -1.94275 0
M  V30 2505 H 229.024 -3.3519 -2.46888 0
M  V30 2506 H 229.557 -3.88484 -0.855863 0
M  V30 2507 H 226.296 -6.5318 0.550989 0
M  V30 2508 H 225.816 -5.90655 -1.04338 0
M  V30 2509 H 227.495 -6.42588 -0.754265 0
M  V30 2510 N 227.627 0.131896 -1.57047 0
M  V30 2511 C 228.875 0.840269 -1.83804 0
M  V30 2512 C 229.196 1.81017 -0.72512 0
M  V30 2513 O 228.466 1.94272 0.251995 0
M  V30 2514 H 227.046 0.313294 -0.678127 0
M  V30 2515 H 229.708 0.122294 -1.94516 0
M  V30 2516 H 228.804 1.39335 -2.79271 0
M  V30 2517 N 229.106 1.52395 0.401703 0
M  V30 2518 C 230.036 1.79231 1.49661 0
M  V30 2519 C 231.017 0.643654 1.57452 0
M  V30 2520 O 232.202 0.889989 1.72606 0
M  V30 2521 C 229.332 1.94971 2.87409 0
M  V30 2522 C 228.286 3.10604 2.94465 0
M  V30 2523 C 227.612 3.11577 4.34538 0
M  V30 2524 C 228.912 4.49921 2.6527 0
M  V30 2525 H 230.606 2.70917 1.27454 0
M  V30 2526 H 228.152 1.30362 0.6117 0
M  V30 2527 H 230.105 2.12328 3.63999 0
M  V30 2528 H 228.829 0.999632 3.10926 0
M  V30 2529 H 227.488 2.93009 2.20321 0
M  V30 2530 H 227.136 2.14277 4.55076 0
M  V30 2531 H 226.836 3.89247 4.40183 0
M  V30 2532 H 228.36 3.31073 5.13053 0
M  V30 2533 H 229.774 4.67683 3.31581 0
M  V30 2534 H 228.171 5.29564 2.82281 0
M  V30 2535 H 229.241 4.57507 1.60671 0
M  V30 2536 N 230.584 -0.659388 1.43143 0
M  V30 2537 C 231.824 -1.43121 1.45931 0
M  V30 2538 C 232.188 -1.91838 0.0789298 0
M  V30 2539 O 233.389 -2.68794 -0.018491 0
M  V30 2540 C 231.66 -2.58534 2.46769 0
M  V30 2541 S 233.219 -3.47154 2.68384 0
M  V30 2542 H 230.037 -0.488624 0.516496 0
M  V30 2543 H 232.639 -0.766128 1.79863 0
M  V30 2544 H 231.343 -2.21007 3.45809 0
M  V30 2545 H 230.874 -3.29898 2.14315 0
M  V30 2546 H 232.889 -4.55051 1.97845 0
M  V30 2547 N 232.062 -1.29571 -0.897171 0
M  V30 2548 C 233.31 -1.17456 -1.64464 0
M  V30 2549 C 233.631 0.273698 -1.9307 0
M  V30 2550 O 232.901 1.18684 -1.55855 0
M  V30 2551 H 231.481 -0.431706 -0.609622 0
M  V30 2552 H 234.143 -1.62531 -1.07562 0
M  V30 2553 H 233.239 -1.72648 -2.59998 0
M  V30 2554 N 233.54 1.10788 -1.12088 0
M  V30 2555 C 234.787 1.82671 -0.873931 0
M  V30 2556 C 235.115 1.85004 0.600311 0
M  V30 2557 O 234.37 1.30365 1.45957 0
M  V30 2558 C 234.669 3.29294 -1.38926 0
M  V30 2559 C 234.335 3.47113 -2.87791 0
M  V30 2560 C 232.997 3.51684 -3.28439 0
M  V30 2561 C 235.349 3.52808 -3.83635 0
M  V30 2562 C 232.677 3.59513 -4.63646 0
M  V30 2563 C 235.029 3.62169 -5.18668 0
M  V30 2564 C 233.693 3.65003 -5.58864 0
M  V30 2565 H 232.963 0.668441 -0.319794 0
M  V30 2566 H 235.61 1.30613 -1.40045 0
M  V30 2567 H 233.915 3.83894 -0.783122 0
M  V30 2568 H 235.612 3.83416 -1.17443 0
M  V30 2569 H 232.202 3.4423 -2.5535 0
M  V30 2570 H 236.386 3.4853 -3.53328 0
M  V30 2571 H 231.642 3.59987 -4.94185 0
M  V30 2572 H 235.816 3.6552 -5.92763 0
M  V30 2573 H 233.443 3.70822 -6.63623 0
M  V30 2574 N 235.018 0.912232 1.28515 0
M  V30 2575 C 235.966 0.389597 2.29314 0
M  V30 2576 C 236.96 -0.517915 1.61289 0
M  V30 2577 O 238.166 -0.399328 1.75515 0
M  V30 2578 H 234.541 0.107386 0.744293 0
M  V30 2579 H 236.512 1.25286 2.70825 0
M  V30 2580 C 235.261 -0.356496 3.45868 0
M  V30 2581 H 234.584 0.332608 3.98414 0
M  V30 2582 H 236.024 -0.686851 4.184 0
M  V30 2583 C 234.483 -1.56383 2.98406 0
M  V30 2584 O 235.013 -2.66294 3.00749 0
M  V30 2585 N 233.219 -1.41029 2.54085 0
M  V30 2586 H 232.766 -0.516089 2.52377 0
M  V30 2587 H 232.724 -2.21939 2.22689 0
M  V30 2588 N 236.496 -1.42363 0.676048 0
M  V30 2589 C 237.726 -2.05561 0.206967 0
M  V30 2590 C 238.134 -1.50887 -1.14148 0
M  V30 2591 O 237.477 -0.643933 -1.72044 0
M  V30 2592 C 237.539 -3.5944 0.0659508 0
M  V30 2593 C 237.203 -4.36812 1.34331 0
M  V30 2594 C 238.2 -4.67383 2.27704 0
M  V30 2595 C 235.885 -4.76429 1.59125 0
M  V30 2596 C 237.879 -5.36509 3.44147 0
M  V30 2597 C 235.566 -5.45294 2.75857 0
M  V30 2598 C 236.564 -5.75259 3.68193 0
M  V30 2599 O 236.252 -6.42712 4.82883 0
M  V30 2600 H 235.984 -0.668872 0.0979084 0
M  V30 2601 H 238.538 -1.83467 0.923531 0
M  V30 2602 H 236.768 -3.80197 -0.706204 0
M  V30 2603 H 238.457 -4.0427 -0.363418 0
M  V30 2604 H 239.223 -4.37275 2.09799 0
M  V30 2605 H 235.102 -4.52498 0.881258 0
M  V30 2606 H 238.646 -5.59814 4.16238 0
M  V30 2607 H 234.543 -5.7482 2.93688 0
M  V30 2608 H 235.311 -6.61204 4.82444 0
M  V30 2609 N 237.974 -0.419461 -1.51915 0
M  V30 2610 C 239.39 -0.0708431 -1.59443 0
M  V30 2611 C 239.59 1.41796 -1.43164 0
M  V30 2612 O 238.646 2.18596 -1.26381 0
M  V30 2613 C 239.959 -0.574991 -2.95151 0
M  V30 2614 C 241.507 -0.533867 -3.08413 0
M  V30 2615 C 241.982 -1.01469 -4.46618 0
M  V30 2616 N 243.473 -0.971939 -4.52888 0
M  V30 2617 C 244.208 -1.31505 -5.58116 0
M  V30 2618 N 243.704 -1.73014 -6.70849 0
M  V30 2619 N 245.497 -1.23436 -5.48379 0
M  V30 2620 H 237.648 -1.38836 -1.60743 0
M  V30 2621 H 239.911 -0.570998 -0.756747 0
M  V30 2622 H 239.617 -1.61597 -3.12377 0
M  V30 2623 H 239.491 0.00979777 -3.77199 0
M  V30 2624 H 241.878 0.498086 -2.90866 0
M  V30 2625 H 241.959 -1.15484 -2.28248 0
M  V30 2626 H 241.603 -2.04502 -4.6491 0
M  V30 2627 H 241.533 -0.370433 -5.25295 0
M  V30 2628 H 244.024 -0.666893 -3.71969 0
M  V30 2629 H 244.337 -1.97479 -7.47143 0
M  V30 2630 H 242.682 -1.76926 -6.72103 0
M  V30 2631 H 245.873 -0.908869 -4.59192 0
M  V30 2632 H 246.046 -1.50506 -6.30279 0
M  V30 2633 N 239.452 1.56882 -0.150215 0
M  V30 2634 C 240.699 1.96228 0.500093 0
M  V30 2635 C 241.027 1.03522 1.64661 0
M  V30 2636 O 240.282 0.0650683 1.95592 0
M  V30 2637 C 240.581 3.41801 1.04437 0
M  V30 2638 C 240.247 4.50897 0.0159671 0
M  V30 2639 C 238.909 4.8046 -0.266731 0
M  V30 2640 C 241.261 5.16703 -0.683192 0
M  V30 2641 C 238.589 5.73135 -1.25434 0
M  V30 2642 C 240.941 6.10441 -1.65964 0
M  V30 2643 C 239.605 6.38382 -1.95 0
M  V30 2644 H 238.875 0.718048 0.182997 0
M  V30 2645 H 241.522 1.90019 -0.237724 0
M  V30 2646 H 239.827 3.44857 1.85959 0
M  V30 2647 H 241.524 3.69573 1.55618 0
M  V30 2648 H 238.114 4.27891 0.246485 0
M  V30 2649 H 242.298 4.93993 -0.477983 0
M  V30 2650 H 237.554 5.93074 -1.48571 0
M  V30 2651 H 241.728 6.60507 -2.20689 0
M  V30 2652 H 239.355 7.09996 -2.71679 0
M  V30 2653 N 240.93 -0.123565 1.57115 0
M  V30 2654 C 241.878 -1.17082 2.00984 0
M  V30 2655 C 242.872 -1.43136 0.906009 0
M  V30 2656 O 244.078 -1.43152 1.09121 0
M  V30 2657 H 240.453 -0.394653 0.64012 0
M  V30 2658 H 242.424 -0.774292 2.88179 0
M  V30 2659 C 241.173 -2.49057 2.42623 0
M  V30 2660 H 240.496 -2.29846 3.27125 0
M  V30 2661 H 241.936 -3.20906 2.7712 0
M  V30 2662 C 240.395 -3.11305 1.28805 0
M  V30 2663 O 240.925 -3.97171 0.60153 0
M  V30 2664 N 239.131 -2.71111 1.04628 0
M  V30 2665 H 238.678 -2.01382 1.60634 0
M  V30 2666 H 238.636 -3.1309 0.286685 0
M  V30 2667 N 242.408 -1.52605 -0.393616 0
M  V30 2668 C 243.633 -1.71592 -1.16495 0
M  V30 2669 C 244.058 -0.43133 -1.83088 0
M  V30 2670 O 243.416 0.612523 -1.7064 0
M  V30 2671 C 243.464 -2.86318 -2.19213 0
M  V30 2672 O 242.568 -2.52969 -3.257 0
M  V30 2673 H 241.909 -0.570734 -0.33935 0
M  V30 2674 H 244.439 -1.99377 -0.459324 0
M  V30 2675 H 244.449 -3.1168 -2.63286 0
M  V30 2676 H 243.124 -3.79511 -1.7013 0
M  V30 2677 H 241.701 -2.38332 -2.86797 0
M  V30 2678 N 243.887 0.651787 -1.4349 0
M  V30 2679 C 245.134 1.41167 -1.45183 0
M  V30 2680 C 245.462 1.94349 -0.0766601 0
M  V30 2681 O 244.717 1.72804 0.918555 0
M  V30 2682 C 245.016 2.60914 -2.44251 0
M  V30 2683 C 244.682 2.26142 -3.9009 0
M  V30 2684 C 243.344 2.16371 -4.2981 0
M  V30 2685 C 245.696 1.98334 -4.81989 0
M  V30 2686 C 243.024 1.7695 -5.5938 0
M  V30 2687 C 245.376 1.6041 -6.11924 0
M  V30 2688 C 244.04 1.49166 -6.5062 0
M  V30 2689 H 243.31 0.516566 -0.531263 0
M  V30 2690 H 245.957 0.741099 -1.76579 0
M  V30 2691 H 244.262 3.3311 -2.06265 0
M  V30 2692 H 245.959 3.19127 -2.42815 0
M  V30 2693 H 242.549 2.34658 -3.58655 0
M  V30 2694 H 246.733 2.04803 -4.52072 0
M  V30 2695 H 241.989 1.66831 -5.88198 0
M  V30 2696 H 246.163 1.37925 -6.82605 0
M  V30 2697 H 243.79 1.1839 -7.50925 0
M  V30 2698 N 245.365 1.30045 0.890287 0
M  V30 2699 C 246.595 1.21296 1.67245 0
M  V30 2700 C 247.003 -0.227471 1.87828 0
M  V30 2701 O 246.346 -1.16296 1.422 0
M  V30 2702 C 246.408 1.86519 3.07329 0
M  V30 2703 C 246.072 3.35837 3.09939 0
M  V30 2704 C 247.069 4.31915 2.89389 0
M  V30 2705 C 244.754 3.77196 3.31706 0
M  V30 2706 C 246.748 5.67325 2.90552 0
M  V30 2707 C 244.435 5.12725 3.32499 0
M  V30 2708 C 245.433 6.076 3.11947 0
M  V30 2709 O 245.121 7.40655 3.12547 0
M  V30 2710 H 244.853 0.4211 0.528821 0
M  V30 2711 H 247.407 1.72111 1.12103 0
M  V30 2712 H 245.637 1.30228 3.64112 0
M  V30 2713 H 247.326 1.71963 3.67673 0
M  V30 2714 H 248.092 4.01294 2.72375 0
M  V30 2715 H 243.971 3.03796 3.4674 0
M  V30 2716 H 247.515 6.41354 2.74429 0
M  V30 2717 H 243.412 5.42988 3.49047 0
M  V30 2718 H 244.18 7.49577 3.28749 0
M  V30 2719 N 246.843 -1.10192 1.12674 0
M  V30 2720 C 248.259 -1.34235 0.863317 0
M  V30 2721 C 248.459 -1.95062 -0.505277 0
M  V30 2722 O 247.515 -2.19192 -1.25345 0
M  V30 2723 C 248.828 -2.2616 1.98172 0
M  V30 2724 C 250.376 -2.3969 2.0129 0
M  V30 2725 C 250.851 -3.34946 3.1237 0
M  V30 2726 N 252.342 -3.42515 3.11829 0
M  V30 2727 C 253.077 -4.16199 3.94419 0
M  V30 2728 N 252.573 -4.92747 4.87004 0
M  V30 2729 N 254.366 -4.11843 3.82547 0
M  V30 2730 H 246.517 -0.690798 2.00853 0
M  V30 2731 H 248.78 -0.366774 0.874174 0
M  V30 2732 H 248.486 -1.8868 2.96804 0
M  V30 2733 H 248.36 -3.26488 1.88906 0
M  V30 2734 H 250.747 -2.76438 1.03276 0
M  V30 2735 H 250.828 -1.39169 2.14629 0
M  V30 2736 H 250.472 -2.98923 4.10619 0
M  V30 2737 H 250.402 -4.35353 2.96269 0
M  V30 2738 H 252.893 -2.87926 2.44759 0
M  V30 2739 H 253.206 -5.46376 5.46528 0
M  V30 2740 H 251.551 -4.91862 4.91016 0
M  V30 2741 H 254.742 -3.51136 3.0955 0
M  V30 2742 H 254.915 -4.69007 4.47142 0
M  V30 2743 N 248.321 -0.919034 -1.28029 0
M  V30 2744 C 249.598 -0.473668 -1.89778 0
M  V30 2745 C 249.978 1.04783 -1.83259 0
M  V30 2746 O 249.326 1.8982 -1.27202 0
M  V30 2747 C 249.536 -1.00998 -3.34066 0
M  V30 2748 C 250.884 -1.06525 -4.1102 0
M  V30 2749 O 251.908 -0.958996 -3.43048 0
M  V30 2750 O 250.767 -1.22776 -5.3253 0
M  V30 2751 H 247.861 -0.15098 -0.813101 0
M  V30 2752 H 250.407 -1.01016 -1.36359 0
M  V30 2753 H 249.179 -2.05392 -3.33061 0
M  V30 2754 H 248.802 -0.454626 -3.94992 0
M  V30 2755 N 249.799 1.42003 -0.683588 0
M  V30 2756 C 250.731 2.29183 0.0283068 0
M  V30 2757 C 251.744 1.4415 0.756611 0
M  V30 2758 O 252.933 1.67779 0.609306 0
M  V30 2759 C 250.033 3.21765 1.06398 0
M  V30 2760 C 249.206 4.35496 0.407723 0
M  V30 2761 C 248.265 5.08737 1.34437 0
M  V30 2762 O 247.291 5.62948 0.841318 0
M  V30 2763 N 248.493 5.15075 2.67728 0
M  V30 2764 H 251.258 2.9092 -0.720105 0
M  V30 2765 H 248.819 1.53025 -0.528682 0
M  V30 2766 H 250.811 3.6763 1.69204 0
M  V30 2767 H 249.381 2.61418 1.71404 0
M  V30 2768 H 248.601 3.92165 -0.400012 0
M  V30 2769 H 249.889 5.08776 -0.0490956 0
M  V30 2770 H 249.287 4.72457 3.11129 0
M  V30 2771 H 247.844 5.64556 3.2576 0
M  V30 2772 N 251.277 0.427512 1.51691 0
M  V30 2773 C 252.688 -0.0378867 1.86662 0
M  V30 2774 C 253.039 -1.42819 1.34525 0
M  V30 2775 O 252.164 -2.05037 0.692014 0
M  V30 2776 C 252.759 -0.0755266 3.38716 0
M  V30 2777 C 251.318 -0.485309 3.73258 0
M  V30 2778 C 250.465 0.328399 2.75349 0
M  V30 2779 H 253.416 0.64379 1.45055 0
M  V30 2780 H 253.437 -0.887056 3.70016 0
M  V30 2781 H 252.949 0.936487 3.76632 0
M  V30 2782 H 251.05 -1.50329 3.40928 0
M  V30 2783 H 251.163 -0.21693 4.78609 0
M  V30 2784 H 249.527 -0.211905 2.53817 0
M  V30 2785 H 250.31 1.3391 3.16106 0
M  V30 2786 N 252.755 -1.56801 0.158532 0
M  V30 2787 C 253.705 -2.13923 -0.788738 0
M  V30 2788 C 254.689 -1.07006 -1.2016 0
M  V30 2789 O 255.881 -1.33159 -1.1661 0
M  V30 2790 C 253.01 -2.77348 -2.02319 0
M  V30 2791 C 252.096 -3.91404 -1.6329 0
M  V30 2792 N 252.487 -4.9677 -0.951463 0
M  V30 2793 C 250.785 -4.02326 -1.92482 0
M  V30 2794 C 251.486 -5.76698 -0.761221 0
M  V30 2795 N 250.462 -5.27859 -1.29869 0
M  V30 2796 H 254.264 -2.92757 -0.258995 0
M  V30 2797 H 251.778 -1.62344 -0.0426055 0
M  V30 2798 H 253.775 -3.16639 -2.71192 0
M  V30 2799 H 252.435 -1.99991 -2.558 0
M  V30 2800 H 253.446 -5.14284 -0.610928 0
M  V30 2801 H 250.123 -3.36059 -2.47732 0
M  V30 2802 H 251.513 -6.71529 -0.223284 0
M  V30 2803 N 254.233 0.115231 -1.57178 0
M  V30 2804 C 255.644 0.67197 -1.74188 0
M  V30 2805 C 255.995 1.80125 -0.777777 0
M  V30 2806 O 255.12 2.16346 0.0484376 0
M  V30 2807 C 255.715 1.22573 -3.1585 0
M  V30 2808 C 254.274 1.72872 -3.34353 0
M  V30 2809 C 253.421 0.629972 -2.70049 0
M  V30 2810 H 256.372 -0.110712 -1.58313 0
M  V30 2811 H 256.393 2.09535 -3.17609 0
M  V30 2812 H 255.905 0.403598 -3.85996 0
M  V30 2813 H 254.006 2.5755 -2.69256 0
M  V30 2814 H 254.119 1.83557 -4.42542 0
M  V30 2815 H 252.483 1.0645 -2.31388 0
M  V30 2816 H 253.266 -0.181241 -3.42821 0
M  V30 2817 N 255.711 1.52812 0.385517 0
M  V30 2818 C 256.958 1.68026 1.1302 0
M  V30 2819 C 257.286 0.421934 1.89868 0
M  V30 2820 O 256.541 -0.595749 1.86412 0
M  V30 2821 C 256.84 2.86856 2.13187 0
M  V30 2822 C 256.506 4.24159 1.5297 0
M  V30 2823 C 255.168 4.61501 1.36274 0
M  V30 2824 C 257.52 5.09627 1.09223 0
M  V30 2825 C 254.848 5.81966 0.743837 0
M  V30 2826 C 257.2 6.30719 0.487411 0
M  V30 2827 C 255.864 6.6679 0.307777 0
M  V30 2828 H 255.134 0.614849 0.413571 0
M  V30 2829 H 257.781 1.86962 0.414405 0
M  V30 2830 H 256.086 2.6235 2.90998 0
M  V30 2831 H 257.783 2.95821 2.70722 0
M  V30 2832 H 254.373 3.94746 1.66954 0
M  V30 2833 H 258.557 4.81343 1.20922 0
M  V30 2834 H 253.813 6.08519 0.592891 0
M  V30 2835 H 257.987 6.96259 0.140143 0
M  V30 2836 H 255.614 7.60001 -0.173879 0
M  V30 2837 N 257.189 -0.644168 1.43834 0
M  V30 2838 C 258.438 -1.39985 1.45214 0
M  V30 2839 C 258.751 -1.95421 0.0835494 0
M  V30 2840 O 259.957 -2.71488 -0.0251748 0
M  V30 2841 C 258.413 -2.53384 2.55587 0
M  V30 2842 C 258.021 -2.04517 3.98594 0
M  V30 2843 C 259.765 -3.30685 2.66172 0
M  V30 2844 C 257.672 -3.1518 5.00416 0
M  V30 2845 H 256.602 -0.526005 0.540218 0
M  V30 2846 H 259.253 -0.694367 1.69855 0
M  V30 2847 H 257.635 -3.26446 2.24163 0
M  V30 2848 H 258.809 -1.38405 4.39523 0
M  V30 2849 H 257.124 -1.40068 3.92135 0
M  V30 2850 H 259.721 -4.13158 3.39418 0
M  V30 2851 H 260.064 -3.79312 1.71546 0
M  V30 2852 H 260.597 -2.64708 2.96942 0
M  V30 2853 H 257.336 -2.71511 5.96625 0
M  V30 2854 H 256.856 -3.79974 4.64091 0
M  V30 2855 H 258.535 -3.80166 5.23529 0
M  V30 2856 N 258.668 -1.30515 -0.883378 0
M  V30 2857 C 259.896 -1.22359 -1.66841 0
M  V30 2858 C 260.311 0.213296 -1.87591 0
M  V30 2859 O 259.668 1.14075 -1.42454 0
M  V30 2860 C 259.719 -1.95011 -3.04389 0
M  V30 2861 O 259.44 -3.3309 -2.84575 0
M  V30 2862 C 260.941 -1.93532 -3.98824 0
M  V30 2863 H 258.161 -0.423371 -0.520575 0
M  V30 2864 H 260.705 -1.72167 -1.10357 0
M  V30 2865 H 258.86 -1.48997 -3.57601 0
M  V30 2866 H 259.274 -3.69907 -3.71846 0
M  V30 2867 H 260.748 -2.48902 -4.92699 0
M  V30 2868 H 261.225 -0.914627 -4.29571 0
M  V30 2869 H 261.831 -2.39364 -3.51547 0
M  V30 2870 N 260.146 1.09593 -1.13257 0
M  V30 2871 C 261.371 1.8604 -0.916732 0
M  V30 2872 C 261.796 1.80504 0.529146 0
M  V30 2873 O 261.154 1.18127 1.37534 0
M  V30 2874 C 261.202 3.32017 -1.40703 0
M  V30 2875 O 260.306 4.08141 -0.591153 0
M  V30 2876 H 259.647 0.576943 -0.328683 0
M  V30 2877 H 262.177 1.38405 -1.50682 0
M  V30 2878 H 262.187 3.82865 -1.4099 0
M  V30 2879 H 260.862 3.35361 -2.45979 0
M  V30 2880 H 259.439 3.67084 -0.656005 0
M  V30 2881 N 261.624 0.925811 1.2754 0
M  V30 2882 C 262.557 0.367836 2.25216 0
M  V30 2883 C 263.535 -0.534738 1.53556 0
M  V30 2884 O 264.719 -0.475672 1.824 0
M  V30 2885 C 261.846 -0.47298 3.35381 0
M  V30 2886 C 260.892 0.365898 4.24928 0
M  V30 2887 S 261.725 1.78025 5.05042 0
M  V30 2888 C 262.881 0.947068 6.18693 0
M  V30 2889 H 263.114 1.19568 2.72196 0
M  V30 2890 H 260.647 0.727867 1.36167 0
M  V30 2891 H 262.605 -0.952242 3.99303 0
M  V30 2892 H 261.266 -1.27533 2.87044 0
M  V30 2893 H 260.459 -0.277582 5.03235 0
M  V30 2894 H 260.061 0.779261 3.65792 0
M  V30 2895 H 262.353 0.182201 6.77255 0
M  V30 2896 H 263.296 1.70309 6.87314 0
M  V30 2897 H 263.704 0.489913 5.6237 0
M  V30 2898 N 263.102 -1.41638 0.69111 0
M  V30 2899 C 264.348 -2.01598 0.220519 0
M  V30 2900 C 264.681 -1.54594 -1.17535 0
M  V30 2901 O 263.956 -0.755177 -1.79241 0
M  V30 2902 C 264.239 -3.59062 0.273243 0
M  V30 2903 C 264.092 -4.16203 1.70573 0
M  V30 2904 C 265.411 -4.38546 -0.369457 0
M  V30 2905 H 262.53 -0.732468 0.0816045 0
M  V30 2906 H 265.172 -1.68445 0.878986 0
M  V30 2907 H 263.322 -3.87435 -0.287411 0
M  V30 2908 H 264.994 -3.98722 2.31989 0
M  V30 2909 H 263.237 -3.71414 2.2413 0
M  V30 2910 H 263.908 -5.25358 1.69419 0
M  V30 2911 H 266.384 -4.1596 0.107977 0
M  V30 2912 H 265.26 -5.48069 -0.302002 0
M  V30 2913 H 265.521 -4.17662 -1.44951 0
M  V30 2914 N 264.58 -0.43555 -1.51462 0
M  V30 2915 C 265.996 -0.0877501 -1.59359 0
M  V30 2916 C 266.196 1.4027 -1.4466 0
M  V30 2917 O 265.252 2.17243 -1.28693 0
M  V30 2918 C 266.565 -0.606264 -2.94525 0
M  V30 2919 C 268.113 -0.566548 -3.0783 0
M  V30 2920 C 268.588 -1.06201 -4.45517 0
M  V30 2921 N 270.079 -1.01992 -4.51832 0
M  V30 2922 C 270.814 -1.37417 -5.5669 0
M  V30 2923 N 270.31 -1.80119 -6.68976 0
M  V30 2924 N 272.103 -1.29245 -5.47039 0
M  V30 2925 H 264.254 -1.40533 -1.59261 0
M  V30 2926 H 266.517 -0.578992 -0.750648 0
M  V30 2927 H 266.223 -1.64901 -3.10645 0
M  V30 2928 H 266.097 -0.0302097 -3.77188 0
M  V30 2929 H 268.484 0.467208 -2.91378 0
M  V30 2930 H 268.565 -1.17898 -2.2701 0
M  V30 2931 H 268.209 -2.09422 -4.62715 0
M  V30 2932 H 268.139 -0.426127 -5.24873 0
M  V30 2933 H 270.63 -0.706308 -3.71241 0
M  V30 2934 H 270.943 -2.05392 -7.45006 0
M  V30 2935 H 269.288 -1.84044 -6.70189 0
M  V30 2936 H 272.479 -0.957522 -4.58202 0
M  V30 2937 H 272.652 -1.57182 -6.28648 0
M  V30 2938 N 266.058 1.56714 -0.166846 0
M  V30 2939 C 267.021 2.16539 0.751232 0
M  V30 2940 C 268.021 1.11228 1.16125 0
M  V30 2941 O 269.211 1.36765 1.07894 0
M  V30 2942 C 266.343 2.74462 2.02196 0
M  V30 2943 H 267.536 2.99013 0.230499 0
M  V30 2944 H 265.089 1.56081 0.0826982 0
M  V30 2945 H 265.824 1.95709 2.58589 0
M  V30 2946 H 265.609 3.51527 1.73698 0
M  V30 2947 H 267.099 3.20489 2.67725 0
M  V30 2948 N 267.536 -0.106894 1.57237 0
M  V30 2949 C 268.466 -1.13148 2.04254 0
M  V30 2950 C 269.447 -1.42476 0.929224 0
M  V30 2951 O 270.632 -1.52709 1.19973 0
M  V30 2952 C 267.762 -2.4545 2.45706 0
M  V30 2953 C 266.716 -2.30558 3.60592 0
M  V30 2954 C 266.042 -3.67931 3.87983 0
M  V30 2955 C 267.342 -1.75597 4.91897 0
M  V30 2956 H 269.036 -0.740374 2.90101 0
M  V30 2957 H 266.582 -0.354696 1.39563 0
M  V30 2958 H 268.535 -3.17389 2.77205 0
M  V30 2959 H 267.259 -2.86475 1.56843 0
M  V30 2960 H 265.918 -1.61067 3.29322 0
M  V30 2961 H 265.566 -4.06462 2.96306 0
M  V30 2962 H 265.266 -3.58817 4.65322 0
M  V30 2963 H 266.79 -4.41356 4.21945 0
M  V30 2964 H 268.204 -2.37364 5.21854 0
M  V30 2965 H 266.601 -1.77272 5.73319 0
M  V30 2966 H 267.671 -0.714451 4.79608 0
M  V30 2967 N 269.014 -1.53014 -0.377408 0
M  V30 2968 C 270.291 -1.59215 -1.13622 0
M  V30 2969 C 270.671 -0.392407 -2.07421 0
M  V30 2970 O 270.019 0.618342 -2.19975 0
M  V30 2971 C 270.229 -2.93669 -1.88573 0
M  V30 2972 C 271.577 -3.47822 -2.43526 0
M  V30 2973 O 272.601 -2.9562 -1.98715 0
M  V30 2974 O 271.46 -4.39055 -3.25412 0
M  V30 2975 H 268.554 -0.642625 -0.52054 0
M  V30 2976 H 271.1 -1.65353 -0.381625 0
M  V30 2977 H 269.872 -3.7243 -1.20048 0
M  V30 2978 H 269.495 -2.90968 -2.70968 0
M  V30 2979 N 270.492 0.636531 -1.44174 0
M  V30 2980 C 271.402 1.77754 -1.53103 0
M  V30 2981 C 272.418 1.68928 -0.417034 0
M  V30 2982 O 273.594 1.89801 -0.6736 0
M  V30 2983 C 270.659 3.14115 -1.46741 0
M  V30 2984 C 269.72 3.34612 -2.68948 0
M  V30 2985 C 268.953 4.64467 -2.6288 0
M  V30 2986 O 269.176 5.44919 -1.68581 0
M  V30 2987 O 268.11 4.87049 -3.53648 0
M  V30 2988 H 271.936 1.73174 -2.49489 0
M  V30 2989 H 269.521 0.79709 -1.2636 0
M  V30 2990 H 271.403 3.95412 -1.45696 0
M  V30 2991 H 270.078 3.19249 -0.534975 0
M  V30 2992 H 268.985 2.53014 -2.75562 0
M  V30 2993 H 270.318 3.34336 -3.61221 0
M  V30 2994 N 271.97 1.30982 0.876444 0
M  V30 2995 C 272.933 1.18054 1.96459 0
M  V30 2996 C 273.933 0.109399 1.60427 0
M  V30 2997 O 275.123 0.358173 1.70478 0
M  V30 2998 C 272.255 0.810616 3.31122 0
M  V30 2999 H 273.448 2.14735 2.09354 0
M  V30 3000 H 271.001 1.145 1.06392 0
M  V30 3001 H 271.736 -0.155322 3.23928 0
M  V30 3002 H 271.521 1.58481 3.58645 0
M  V30 3003 H 273.011 0.743876 4.10921 0
M  V30 3004 N 273.449 -1.08991 1.13837 0
M  V30 3005 C 274.382 -2.15049 0.763477 0
M  V30 3006 C 275.36 -1.60629 -0.252398 0
M  V30 3007 O 276.544 -1.87958 -0.142853 0
M  V30 3008 C 273.671 -3.38441 0.132545 0
M  V30 3009 C 272.717 -4.11596 1.11763 0
M  V30 3010 S 273.55 -4.6521 2.65216 0
M  V30 3011 C 274.706 -5.91896 2.03495 0
M  V30 3012 H 274.939 -2.46518 1.66182 0
M  V30 3013 H 272.472 -1.21008 0.958976 0
M  V30 3014 H 274.43 -4.09883 -0.225074 0
M  V30 3015 H 273.091 -3.05182 -0.743135 0
M  V30 3016 H 272.284 -5.00121 0.624076 0
M  V30 3017 H 271.886 -3.46038 1.41894 0
M  V30 3018 H 274.178 -6.63156 1.38675 0
M  V30 3019 H 275.121 -6.45938 2.9012 0
M  V30 3020 H 275.529 -5.44625 1.48471 0
M  V30 3021 N 274.927 -0.932562 -1.27047 0
M  V30 3022 C 275.875 -0.42603 -2.28665 0
M  V30 3023 C 276.869 0.49219 -1.62092 0
M  V30 3024 O 278.075 0.371355 -1.76128 0
M  V30 3025 H 274.45 -0.119213 -0.742491 0
M  V30 3026 H 276.421 -1.29579 -2.68797 0
M  V30 3027 C 275.17 0.301426 -3.46391 0
M  V30 3028 H 274.493 -0.39595 -3.97834 0
M  V30 3029 H 275.933 0.6202 -4.1944 0
M  V30 3030 C 274.392 1.51616 -3.00856 0
M  V30 3031 O 274.922 2.61476 -3.04948 0
M  V30 3032 N 273.128 1.36969 -2.56296 0
M  V30 3033 H 272.675 0.475873 -2.53166 0
M  V30 3034 H 272.633 2.18368 -2.26192 0
M  V30 3035 N 276.405 1.4127 -0.698611 0
M  V30 3036 C 277.352 2.30773 -0.0352094 0
M  V30 3037 C 278.322 1.47273 0.768111 0
M  V30 3038 O 279.507 1.76053 0.735524 0
M  V30 3039 C 276.647 3.33346 0.893 0
M  V30 3040 C 275.76 4.31924 0.0809695 0
M  V30 3041 C 274.895 5.21566 1.0071 0
M  V30 3042 C 273.934 6.11811 0.188155 0
M  V30 3043 N 273.071 6.93926 1.06825 0
M  V30 3044 H 277.911 2.86943 -0.804207 0
M  V30 3045 H 275.448 1.4132 -0.408294 0
M  V30 3046 H 277.406 3.91368 1.44523 0
M  V30 3047 H 276.036 2.78719 1.62836 0
M  V30 3048 H 275.088 3.75825 -0.588224 0
M  V30 3049 H 276.4 4.95716 -0.553801 0
M  V30 3050 H 275.554 5.84437 1.62845 0
M  V30 3051 H 274.293 4.58008 1.67572 0
M  V30 3052 H 273.298 5.47986 -0.446254 0
M  V30 3053 H 274.523 6.77425 -0.476716 0
M  V30 3054 H 272.469 6.32973 1.72283 0
M  V30 3055 H 272.386 7.54416 0.489123 0
M  V30 3056 H 273.654 7.61262 1.67632 0
M  V30 3057 N 277.883 0.443576 1.51229 0
M  V30 3058 C 278.813 -0.355142 2.30783 0
M  V30 3059 C 279.794 -1.0154 1.36468 0
M  V30 3060 O 280.979 -1.01785 1.65389 0
M  V30 3061 C 278.109 -1.45312 3.15439 0
M  V30 3062 C 277.063 -0.916002 4.18083 0
M  V30 3063 C 276.389 -2.1102 4.91299 0
M  V30 3064 C 277.689 0.0538602 5.22272 0
M  V30 3065 H 279.383 0.308767 2.97804 0
M  V30 3066 H 276.929 0.149937 1.43217 0
M  V30 3067 H 278.882 -2.01914 3.69876 0
M  V30 3068 H 277.606 -2.14541 2.46252 0
M  V30 3069 H 276.265 -0.372145 3.64706 0
M  V30 3070 H 275.913 -2.78882 4.18609 0
M  V30 3071 H 275.613 -1.75717 5.60712 0
M  V30 3072 H 277.137 -2.68164 5.48562 0
M  V30 3073 H 278.551 -0.422069 5.71744 0
M  V30 3074 H 276.948 0.319776 5.99247 0
M  V30 3075 H 278.018 0.98858 4.74716 0
M  V30 3076 N 279.361 -1.56624 0.175154 0
M  V30 3077 C 280.293 -2.15333 -0.785128 0
M  V30 3078 C 281.306 -1.1099 -1.19101 0
M  V30 3079 O 282.495 -1.38162 -1.13019 0
M  V30 3080 C 279.595 -2.68427 -2.06882 0
M  V30 3081 C 278.768 -3.97466 -1.8259 0
M  V30 3082 C 277.827 -4.35585 -2.95215 0
M  V30 3083 O 276.853 -5.03389 -2.65684 0
M  V30 3084 N 278.055 -3.97457 -4.23094 0
M  V30 3085 H 280.82 -2.98359 -0.283187 0
M  V30 3086 H 278.381 -1.61898 -0.00749817 0
M  V30 3087 H 280.373 -2.90924 -2.81328 0
M  V30 3088 H 278.943 -1.89968 -2.48256 0
M  V30 3089 H 278.163 -3.83307 -0.920287 0
M  V30 3090 H 279.451 -4.81736 -1.63733 0
M  V30 3091 H 278.849 -3.42878 -4.49945 0
M  V30 3092 H 277.406 -4.24947 -4.9423 0
M  V30 3093 N 280.839 0.0985539 -1.57292 0
M  V30 3094 C 282.255 0.45267 -1.53046 0
M  V30 3095 C 282.455 1.80713 -0.891342 0
M  V30 3096 O 281.511 2.4785 -0.482375 0
M  V30 3097 C 282.824 0.418341 -2.97776 0
M  V30 3098 C 284.372 0.500443 -3.08973 0
M  V30 3099 C 284.847 0.496297 -4.55303 0
M  V30 3100 N 286.338 0.557151 -4.59837 0
M  V30 3101 C 287.073 0.575726 -5.70502 0
M  V30 3102 N 286.569 0.550714 -6.90608 0
M  V30 3103 N 288.362 0.620277 -5.58667 0
M  V30 3104 H 280.513 -0.788673 -1.97215 0
M  V30 3105 H 282.776 -0.293188 -0.901524 0
M  V30 3106 H 282.482 -0.509659 -3.47988 0
M  V30 3107 H 282.356 1.2386 -3.56284 0
M  V30 3108 H 284.743 1.41886 -2.58751 0
M  V30 3109 H 284.824 -0.347894 -2.53423 0
M  V30 3110 H 284.468 -0.418162 -5.06176 0
M  V30 3111 H 284.398 1.3618 -5.08687 0
M  V30 3112 H 286.889 0.581816 -3.73394 0
M  V30 3113 H 287.202 0.568075 -7.70709 0
M  V30 3114 H 285.547 0.517816 -6.93068 0
M  V30 3115 H 288.738 0.637322 -4.63741 0
M  V30 3116 H 288.911 0.631283 -6.44918 0
M  V30 3117 N 282.317 1.53212 0.369288 0
M  V30 3118 C 283.28 1.7872 1.43498 0
M  V30 3119 C 284.28 0.657554 1.46741 0
M  V30 3120 O 285.47 0.925736 1.47566 0
M  V30 3121 C 282.602 1.90591 2.82645 0
M  V30 3122 H 283.795 2.73894 1.22156 0
M  V30 3123 H 281.348 1.44233 0.602203 0
M  V30 3124 H 282.083 0.974709 3.09306 0
M  V30 3125 H 281.868 2.72751 2.8169 0
M  V30 3126 H 283.358 2.11931 3.59826 0
M  V30 3127 N 283.795 -0.628877 1.44509 0
M  V30 3128 C 284.743 -1.76193 1.51852 0
M  V30 3129 C 285.737 -1.64849 0.390042 0
M  V30 3130 O 286.943 -1.709 0.565082 0
M  V30 3131 H 283.318 -0.581728 0.476547 0
M  V30 3132 H 285.289 -1.67123 2.47209 0
M  V30 3133 C 284.038 -3.14533 1.48204 0
M  V30 3134 H 283.361 -3.23911 2.34354 0
M  V30 3135 H 284.801 -3.93701 1.57402 0
M  V30 3136 C 283.26 -3.36287 0.203142 0
M  V30 3137 O 283.79 -3.9509 -0.725745 0
M  V30 3138 N 281.996 -2.90408 0.105563 0
M  V30 3139 H 281.543 -2.42739 0.862301 0
M  V30 3140 H 281.501 -3.05339 -0.749371 0
M  V30 3141 N 285.273 -1.31445 -0.869486 0
M  V30 3142 C 286.684 -1.19042 -1.43826 0
M  V30 3143 C 287.035 0.202919 -1.95148 0
M  V30 3144 O 286.16 1.10071 -1.86315 0
M  V30 3145 C 286.755 -2.15499 -2.6143 0
M  V30 3146 C 285.314 -2.07028 -3.14351 0
M  V30 3147 C 284.461 -2.04701 -1.87063 0
M  V30 3148 H 287.412 -1.43489 -0.677984 0
M  V30 3149 H 287.433 -1.74488 -3.38134 0
M  V30 3150 H 286.945 -3.16899 -2.24046 0
M  V30 3151 H 285.046 -1.08825 -3.56354 0
M  V30 3152 H 285.159 -2.96157 -3.766 0
M  V30 3153 H 283.523 -1.49724 -2.06046 0
M  V30 3154 H 284.306 -3.07857 -1.51917 0
M  V30 3155 N 286.751 1.08385 -1.14413 0
M  V30 3156 C 288.028 1.77429 -0.823297 0
M  V30 3157 C 288.408 1.9974 0.683163 0
M  V30 3158 O 287.756 1.60739 1.62405 0
M  V30 3159 C 287.966 3.09004 -1.62227 0
M  V30 3160 C 289.314 3.83532 -1.82177 0
M  V30 3161 O 290.338 3.18786 -1.58915 0
M  V30 3162 O 289.197 4.99792 -2.21067 0
M  V30 3163 H 286.291 0.769999 -0.301712 0
M  V30 3164 H 288.837 1.14846 -1.24934 0
M  V30 3165 H 287.609 2.88316 -2.64555 0
M  V30 3166 H 287.232 3.79316 -1.19187 0
M  V30 3167 N 288.23 0.939286 1.26551 0
M  V30 3168 C 289.507 0.5038 1.89001 0
M  V30 3169 C 289.887 -1.01854 1.84903 0
M  V30 3170 O 289.235 -1.87773 1.30206 0
M  V30 3171 C 289.445 1.063 3.32417 0
M  V30 3172 C 290.793 1.13051 4.09273 0
M  V30 3173 O 291.817 1.01345 3.41479 0
M  V30 3174 O 290.676 1.31233 5.30509 0
M  V30 3175 H 287.77 0.163897 0.810597 0
M  V30 3176 H 290.316 1.03173 1.34735 0
M  V30 3177 H 289.088 2.10665 3.29752 0
M  V30 3178 H 288.711 0.517408 3.94219 0
M  V30 3179 N 289.708 -1.40897 0.706093 0
M  V30 3180 C 291.119 -1.84023 0.315052 0
M  V30 3181 C 291.47 -1.5906 -1.14866 0
M  V30 3182 O 290.595 -1.06651 -1.88293 0
M  V30 3183 C 291.19 -3.34055 0.565038 0
M  V30 3184 C 289.749 -3.7571 0.227806 0
M  V30 3185 C 288.896 -2.64204 0.842122 0
M  V30 3186 H 291.847 -1.303 0.905963 0
M  V30 3187 H 291.868 -3.80107 -0.172843 0
M  V30 3188 H 291.38 -3.52192 1.63042 0
M  V30 3189 H 289.481 -3.63172 -0.832895 0
M  V30 3190 H 289.594 -4.74103 0.690174 0
M  V30 3191 H 287.958 -2.53255 0.270893 0
M  V30 3192 H 288.741 -2.85155 1.91158 0
M  V30 3193 N 291.186 -0.45159 -1.50991 0
M  V30 3194 C 292.149 0.341117 -2.26647 0
M  V30 3195 C 293.149 0.937422 -1.30649 0
M  V30 3196 O 294.339 0.809644 -1.54241 0
M  V30 3197 C 291.471 1.48398 -3.06905 0
M  V30 3198 H 292.664 -0.322117 -2.98165 0
M  V30 3199 H 290.217 -0.205122 -1.54948 0
M  V30 3200 H 290.952 2.18284 -2.39838 0
M  V30 3201 H 290.737 1.06241 -3.77432 0
M  V30 3202 H 292.227 2.04367 -3.64176 0
M  V30 3203 N 292.664 1.56529 -0.183458 0
M  V30 3204 C 293.894 2.01331 0.463612 0
M  V30 3205 C 294.302 1.06278 1.5653 0
M  V30 3206 O 293.645 0.0577976 1.83609 0
M  V30 3207 C 293.707 3.42547 1.09096 0
M  V30 3208 C 293.371 4.56817 0.129442 0
M  V30 3209 C 294.368 5.15734 -0.656807 0
M  V30 3210 C 292.053 5.02295 0.02174 0
M  V30 3211 C 294.047 6.1857 -1.53784 0
M  V30 3212 C 291.734 6.04978 -0.862864 0
M  V30 3213 C 292.732 6.62988 -1.64123 0
M  V30 3214 O 292.42 7.63677 -2.51103 0
M  V30 3215 H 292.152 0.664917 0.121907 0
M  V30 3216 H 294.706 2.034 -0.285954 0
M  V30 3217 H 292.936 3.37428 1.88889 0
M  V30 3218 H 294.625 3.71228 1.64148 0
M  V30 3219 H 295.391 4.81473 -0.583839 0
M  V30 3220 H 291.27 4.56847 0.617392 0
M  V30 3221 H 294.814 6.63777 -2.14583 0
M  V30 3222 H 290.711 6.38663 -0.93699 0
M  V30 3223 H 291.479 7.81049 -2.44753 0
M  V30 3224 N 294.142 -0.090211 1.57342 0
M  V30 3225 C 295.419 -0.824761 1.77361 0
M  V30 3226 C 295.799 -1.96698 0.76637 0
M  V30 3227 O 295.147 -2.27586 -0.204179 0
M  V30 3228 C 295.357 -1.31481 3.23286 0
M  V30 3229 C 296.705 -1.75563 3.86604 0
M  V30 3230 O 297.729 -1.41093 3.27065 0
M  V30 3231 O 296.588 -2.39317 4.91314 0
M  V30 3232 H 293.682 -0.393776 0.727234 0
M  V30 3233 H 296.228 -0.0717138 1.69548 0
M  V30 3234 H 295 -0.496671 3.88135 0
M  V30 3235 H 294.623 -2.12973 3.35751 0
M  V30 3236 N 295.62 -1.53406 -0.361157 0
M  V30 3237 C 296.53 -1.83122 -1.4664 0
M  V30 3238 C 297.546 -0.719943 -1.58407 0
M  V30 3239 O 298.722 -1.01046 -1.74218 0
M  V30 3240 C 295.787 -2.01891 -2.81853 0
M  V30 3241 C 294.848 -3.25784 -2.79577 0
M  V30 3242 C 294.081 -3.43648 -4.0834 0
M  V30 3243 O 294.304 -2.65714 -5.0473 0
M  V30 3244 O 293.238 -4.37018 -4.13883 0
M  V30 3245 H 297.064 -2.7703 -1.24451 0
M  V30 3246 H 294.649 -1.38841 -0.551678 0
M  V30 3247 H 296.531 -2.15782 -3.61962 0
M  V30 3248 H 295.206 -1.11173 -3.0401 0
M  V30 3249 H 294.113 -3.17312 -1.98151 0
M  V30 3250 H 295.446 -4.16439 -2.62373 0
M  V30 3251 N 297.098 0.621204 -1.44841 0
M  V30 3252 C 298.046 1.75385 -1.52784 0
M  V30 3253 C 299.04 1.64639 -0.398779 0
M  V30 3254 O 300.246 1.70598 -0.574137 0
M  V30 3255 H 296.621 0.579193 -0.479625 0
M  V30 3256 H 298.592 1.6581 -2.48092 0
M  V30 3257 C 297.341 3.13742 -1.4987 0
M  V30 3258 H 296.664 3.22663 -2.36069 0
M  V30 3259 H 298.104 3.92861 -1.59487 0
M  V30 3260 C 296.563 3.36175 -0.220973 0
M  V30 3261 O 297.093 3.95469 0.704782 0
M  V30 3262 N 295.299 2.90348 -0.120963 0
M  V30 3263 H 294.846 2.42278 -0.875162 0
M  V30 3264 H 294.804 3.05732 0.733168 0
M  V30 3265 N 298.576 1.31904 0.862503 0
M  V30 3266 C 299.523 1.20182 1.9704 0
M  V30 3267 C 300.493 0.0858247 1.65878 0
M  V30 3268 O 301.678 0.26 1.8902 0
M  V30 3269 C 298.818 0.922797 3.32533 0
M  V30 3270 C 297.931 2.12284 3.76244 0
M  V30 3271 C 297.066 1.77996 5.00491 0
M  V30 3272 C 296.105 2.94366 5.36671 0
M  V30 3273 N 295.242 2.60223 6.52095 0
M  V30 3274 H 300.082 2.14951 2.06398 0
M  V30 3275 H 297.619 1.06917 1.01031 0
M  V30 3276 H 299.577 0.741548 4.10557 0
M  V30 3277 H 298.207 0.0119227 3.22798 0
M  V30 3278 H 297.259 2.41461 2.9394 0
M  V30 3279 H 298.571 2.99357 3.98982 0
M  V30 3280 H 297.725 1.56377 5.862 0
M  V30 3281 H 296.464 0.881252 4.79672 0
M  V30 3282 H 295.469 3.16625 4.49476 0
M  V30 3283 H 296.694 3.84957 5.59451 0
M  V30 3284 H 294.64 1.72884 6.32809 0
M  V30 3285 H 294.557 3.40827 6.74814 0
M  V30 3286 H 295.825 2.42016 7.40978 0
M  V30 3287 N 300.054 -1.07777 1.14986 0
M  V30 3288 C 301.47 -1.32373 0.891596 0
M  V30 3289 C 301.67 -1.9609 -0.463788 0
M  V30 3290 O 300.726 -2.21801 -1.20667 0
M  V30 3291 C 302.039 -2.21905 2.02925 0
M  V30 3292 C 303.587 -2.35367 2.06329 0
M  V30 3293 C 304.062 -3.28245 3.19405 0
M  V30 3294 N 305.553 -3.35824 3.19024 0
M  V30 3295 C 306.288 -4.07739 4.03158 0
M  V30 3296 N 305.784 -4.82306 4.97346 0
M  V30 3297 N 307.577 -4.03635 3.91197 0
M  V30 3298 H 299.728 -0.648039 2.02273 0
M  V30 3299 H 301.991 -0.348149 0.881757 0
M  V30 3300 H 301.697 -1.82342 3.0074 0
M  V30 3301 H 301.571 -3.22407 1.95789 0
M  V30 3302 H 303.958 -2.74186 1.09116 0
M  V30 3303 H 304.039 -1.34585 2.17533 0
M  V30 3304 H 303.683 -2.90146 4.16867 0
M  V30 3305 H 303.613 -4.28971 3.05437 0
M  V30 3306 H 306.104 -2.8267 2.50811 0
M  V30 3307 H 306.417 -5.34661 5.57994 0
M  V30 3308 H 304.762 -4.81337 5.01338 0
M  V30 3309 H 307.953 -3.44491 3.16928 0
M  V30 3310 H 308.126 -4.59417 4.5699 0
M  V30 3311 N 301.532 -0.945985 -1.26051 0
M  V30 3312 C 302.464 -0.416662 -2.25381 0
M  V30 3313 C 303.477 0.462712 -1.56086 0
M  V30 3314 O 304.666 0.272383 -1.7641 0
M  V30 3315 C 301.766 0.419812 -3.3629 0
M  V30 3316 C 300.939 -0.444531 -4.35135 0
M  V30 3317 C 299.998 0.332305 -5.2515 0
M  V30 3318 O 299.024 -0.266324 -5.68577 0
M  V30 3319 N 300.226 1.62763 -5.57215 0
M  V30 3320 H 302.991 -1.27059 -2.71433 0
M  V30 3321 H 300.552 -0.815392 -1.39868 0
M  V30 3322 H 302.544 0.947013 -3.93464 0
M  V30 3323 H 301.114 1.17456 -2.89694 0
M  V30 3324 H 300.334 -1.15291 -3.76964 0
M  V30 3325 H 301.622 -1.03478 -4.98166 0
M  V30 3326 H 301.02 2.13603 -5.23823 0
M  V30 3327 H 299.577 2.10097 -6.17011 0
M  V30 3328 N 303.011 1.40521 -0.713556 0
M  V30 3329 C 304.258 2.00923 -0.25219 0
M  V30 3330 C 304.586 1.56571 1.15395 0
M  V30 3331 O 303.841 0.775874 1.79663 0
M  V30 3332 C 304.14 3.56317 -0.278 0
M  V30 3333 C 303.806 4.20246 -1.63415 0
M  V30 3334 C 302.468 4.37422 -2.00538 0
M  V30 3335 C 304.82 4.55923 -2.52554 0
M  V30 3336 C 302.148 4.87558 -3.2635 0
M  V30 3337 C 304.5 5.07458 -3.77716 0
M  V30 3338 C 303.164 5.22843 -4.14959 0
M  V30 3339 H 302.434 0.735231 -0.0922829 0
M  V30 3340 H 305.081 1.68161 -0.916188 0
M  V30 3341 H 303.386 3.88976 0.469567 0
M  V30 3342 H 305.083 4.00883 0.0967819 0
M  V30 3343 H 301.673 4.07263 -1.33546 0
M  V30 3344 H 305.857 4.42291 -2.25149 0
M  V30 3345 H 301.113 4.97654 -3.55176 0
M  V30 3346 H 305.287 5.34041 -4.4696 0
M  V30 3347 H 302.914 5.61454 -5.12516 0
M  V30 3348 N 304.489 0.459591 1.5075 0
M  V30 3349 C 305.421 -0.37665 2.26084 0
M  V30 3350 C 306.434 -0.967109 1.30961 0
M  V30 3351 O 307.623 -0.857468 1.56556 0
M  V30 3352 C 304.723 -1.54112 3.01832 0
M  V30 3353 C 303.896 -1.06553 4.24223 0
M  V30 3354 C 302.955 -2.1027 4.82362 0
M  V30 3355 O 301.981 -1.68798 5.43595 0
M  V30 3356 N 303.183 -3.42974 4.68347 0
M  V30 3357 H 305.948 0.269124 2.98489 0
M  V30 3358 H 303.509 0.28972 1.59287 0
M  V30 3359 H 305.501 -2.23165 3.37608 0
M  V30 3360 H 304.071 -2.0918 2.32298 0
M  V30 3361 H 303.291 -0.201274 3.93686 0
M  V30 3362 H 304.579 -0.725516 5.03601 0
M  V30 3363 H 303.977 -3.79385 4.19623 0
M  V30 3364 H 302.534 -4.07858 5.08424 0
M  V30 3365 N 305.967 -1.56429 0.191757 0
M  V30 3366 C 306.877 -2.22541 -0.742481 0
M  V30 3367 C 307.893 -1.22342 -1.23727 0
M  V30 3368 O 309.069 -1.55069 -1.28513 0
M  V30 3369 C 306.134 -2.8692 -1.94623 0
M  V30 3370 C 305.195 -4.02378 -1.49633 0
M  V30 3371 C 304.428 -4.63678 -2.6427 0
M  V30 3372 O 304.651 -4.23895 -3.81666 0
M  V30 3373 O 303.585 -5.53202 -2.37174 0
M  V30 3374 H 307.411 -3.02977 -0.209462 0
M  V30 3375 H 304.996 -1.49353 -0.0373832 0
M  V30 3376 H 306.878 -3.27663 -2.64982 0
M  V30 3377 H 305.553 -2.09466 -2.46791 0
M  V30 3378 H 304.46 -3.66265 -0.761636 0
M  V30 3379 H 305.793 -4.81487 -1.02134 0
M  V30 3380 N 307.445 0.0818655 -1.57387 0
M  V30 3381 C 308.722 0.815343 -1.77796 0
M  V30 3382 C 309.102 1.96289 -0.77679 0
M  V30 3383 O 308.45 2.27691 0.192106 0
M  V30 3384 C 308.66 1.29765 -3.23978 0
M  V30 3385 C 310.008 1.7351 -3.8753 0
M  V30 3386 O 311.032 1.39356 -3.27808 0
M  V30 3387 O 309.891 2.36708 -4.92576 0
M  V30 3388 H 306.985 0.389914 -0.729312 0
M  V30 3389 H 309.531 0.0627213 -1.69584 0
M  V30 3390 H 308.303 0.47608 -3.88393 0
M  V30 3391 H 307.926 2.11189 -3.36875 0
M  V30 3392 N 308.923 1.53595 0.353017 0
M  V30 3393 C 310.172 1.69603 1.09168 0
M  V30 3394 C 310.485 0.460925 1.90092 0
M  V30 3395 O 311.691 0.501774 2.66823 0
M  V30 3396 C 310.147 2.99872 1.9901 0
M  V30 3397 C 309.755 4.30687 1.23339 0
M  V30 3398 C 311.499 3.25246 2.72792 0
M  V30 3399 C 309.406 5.52036 2.12156 0
M  V30 3400 H 308.336 0.631966 0.411261 0
M  V30 3401 H 310.987 1.80096 0.351802 0
M  V30 3402 H 309.369 2.83212 2.7678 0
M  V30 3403 H 310.543 4.58019 0.505456 0
M  V30 3404 H 308.858 4.11853 0.613663 0
M  V30 3405 H 311.455 4.13095 3.39495 0
M  V30 3406 H 311.798 2.41846 3.38846 0
M  V30 3407 H 312.331 3.42638 2.021 0
M  V30 3408 H 309.07 6.37951 1.50659 0
M  V30 3409 H 308.59 5.28966 2.82764 0
M  V30 3410 H 310.269 5.87313 2.71427 0
M  V30 3411 N 310.401 -0.613514 1.45168 0
M  V30 3412 C 311.348 -1.72456 1.53387 0
M  V30 3413 C 312.318 -1.6169 0.380191 0
M  V30 3414 O 313.503 -1.81356 0.592836 0
M  V30 3415 C 310.643 -3.10753 1.50088 0
M  V30 3416 C 309.756 -3.32368 2.75963 0
M  V30 3417 C 308.891 -4.60737 2.64376 0
M  V30 3418 C 307.93 -4.7559 3.85332 0
M  V30 3419 N 307.067 -5.95253 3.72315 0
M  V30 3420 H 311.907 -1.64768 2.48305 0
M  V30 3421 H 309.444 -0.803503 1.23216 0
M  V30 3422 H 311.402 -3.90758 1.46164 0
M  V30 3423 H 310.032 -3.17413 0.587243 0
M  V30 3424 H 309.084 -2.4618 2.89999 0
M  V30 3425 H 310.396 -3.39218 3.65695 0
M  V30 3426 H 309.55 -5.48928 2.58385 0
M  V30 3427 H 308.289 -4.56275 1.72233 0
M  V30 3428 H 307.294 -3.85824 3.91688 0
M  V30 3429 H 308.519 -4.81854 4.78533 0
M  V30 3430 H 306.465 -5.91847 2.82937 0
M  V30 3431 H 306.382 -6.03236 4.55677 0
M  V30 3432 H 307.65 -6.85958 3.70246 0
M  V30 3433 N 311.879 -1.3236 -0.855495 0
M  V30 3434 C 313.125 -1.23054 -1.612 0
M  V30 3435 C 313.458 0.207404 -1.93089 0
M  V30 3436 O 312.733 1.14432 -1.57275 0
M  V30 3437 C 313.016 -2.08937 -2.93287 0
M  V30 3438 C 312.869 -3.61105 -2.68185 0
M  V30 3439 C 314.188 -1.94986 -3.94549 0
M  V30 3440 H 311.307 -0.448364 -0.584926 0
M  V30 3441 H 313.949 -1.62297 -0.987917 0
M  V30 3442 H 312.099 -1.75599 -3.46551 0
M  V30 3443 H 313.771 -4.04652 -2.21483 0
M  V30 3444 H 312.014 -3.83813 -2.02164 0
M  V30 3445 H 312.685 -4.16522 -3.62234 0
M  V30 3446 H 315.161 -2.24189 -3.5054 0
M  V30 3447 H 314.037 -2.57356 -4.84829 0
M  V30 3448 H 314.298 -0.917263 -4.3248 0
M  V30 3449 N 313.357 1.07166 -1.15556 0
M  V30 3450 C 314.29 2.13808 -0.797593 0
M  V30 3451 C 315.268 1.6101 0.226812 0
M  V30 3452 O 316.452 1.88161 0.112932 0
M  V30 3453 C 313.579 3.38187 -0.186371 0
M  V30 3454 C 312.625 4.09766 -1.18297 0
M  V30 3455 S 313.458 4.60932 -2.72584 0
M  V30 3456 C 314.614 5.88583 -2.12886 0
M  V30 3457 H 314.847 2.43843 -1.70083 0
M  V30 3458 H 312.38 1.19467 -0.978106 0
M  V30 3459 H 314.338 4.10189 0.159837 0
M  V30 3460 H 312.999 3.06326 0.694489 0
M  V30 3461 H 312.192 4.99065 -0.703562 0
M  V30 3462 H 311.794 3.43736 -1.47381 0
M  V30 3463 H 314.086 6.60866 -1.49208 0
M  V30 3464 H 315.029 6.41241 -3.0036 0
M  V30 3465 H 315.437 5.42194 -1.57116 0
M  V30 3466 N 314.835 0.952656 1.25548 0
M  V30 3467 C 315.783 0.462354 2.27958 0
M  V30 3468 C 316.777 -0.46634 1.62855 0
M  V30 3469 O 317.983 -0.343287 1.76696 0
M  V30 3470 H 314.358 0.13101 0.7405 0
M  V30 3471 H 316.329 1.33839 2.66702 0
M  V30 3472 C 315.078 -0.24628 3.46827 0
M  V30 3473 H 314.401 0.459192 3.97154 0
M  V30 3474 H 315.841 -0.553393 4.20373 0
M  V30 3475 C 314.3 -1.4681 3.0323 0
M  V30 3476 O 314.83 -2.56591 3.09069 0
M  V30 3477 N 313.036 -1.32874 2.58443 0
M  V30 3478 H 312.583 -0.435536 2.53891 0
M  V30 3479 H 312.541 -2.14742 2.29637 0
M  V30 3480 N 316.313 -1.40141 0.720998 0
M  V30 3481 C 317.59 -1.94677 0.189757 0
M  V30 3482 C 317.97 -1.65879 -1.30566 0
M  V30 3483 O 317.318 -0.979391 -2.06447 0
M  V30 3484 C 317.528 -3.45279 0.508304 0
M  V30 3485 C 318.876 -4.22209 0.449934 0
M  V30 3486 O 319.9 -3.53413 0.444677 0
M  V30 3487 O 318.759 -5.44788 0.432189 0
M  V30 3488 H 315.853 -0.826459 0.0299026 0
M  V30 3489 H 318.399 -1.49719 0.7989 0
M  V30 3490 H 317.171 -3.59619 1.54239 0
M  V30 3491 H 316.794 -3.97386 -0.130525 0
M  V30 3492 N 317.792 -0.46758 -1.50504 0
M  V30 3493 C 318.722 0.318381 -2.31319 0
M  V30 3494 C 319.703 0.993564 -1.38066 0
M  V30 3495 O 320.888 0.991411 -1.66987 0
M  V30 3496 C 318.018 1.40275 -3.17711 0
M  V30 3497 C 316.972 0.849373 -4.19487 0
M  V30 3498 C 316.298 2.03177 -4.94594 0
M  V30 3499 C 317.598 -0.136942 -5.2212 0
M  V30 3500 H 319.292 -0.356106 -2.97275 0
M  V30 3501 H 316.838 -0.172703 -1.42961 0
M  V30 3502 H 318.791 1.96004 -3.73042 0
M  V30 3503 H 317.515 2.10596 -2.49634 0
M  V30 3504 H 316.174 0.314076 -3.65252 0
M  V30 3505 H 315.822 2.72187 -4.22993 0
M  V30 3506 H 315.522 1.66774 -5.63436 0
M  V30 3507 H 317.046 2.59403 -5.52759 0
M  V30 3508 H 318.46 0.331056 -5.72343 0
M  V30 3509 H 316.857 -0.41507 -5.98663 0
M  V30 3510 H 317.927 -1.06398 -4.73083 0
M  V30 3511 N 319.27 1.56325 -0.20005 0
M  V30 3512 C 320.516 1.98012 0.438059 0
M  V30 3513 C 320.849 1.08702 1.60927 0
M  V30 3514 O 320.124 0.140064 1.93995 0
M  V30 3515 C 320.407 3.48841 0.893419 0
M  V30 3516 C 320.26 4.48928 -0.279947 0
M  V30 3517 C 321.579 4.03498 1.75719 0
M  V30 3518 H 318.698 0.719918 0.157757 0
M  V30 3519 H 321.34 1.87743 -0.291968 0
M  V30 3520 H 319.49 3.57723 1.51547 0
M  V30 3521 H 321.162 4.52079 -0.91772 0
M  V30 3522 H 319.405 4.23694 -0.930919 0
M  V30 3523 H 320.076 5.5194 0.0812601 0
M  V30 3524 H 322.552 3.97427 1.23253 0
M  V30 3525 H 321.428 5.09393 2.04476 0
M  V30 3526 H 321.689 3.4906 2.71311 0
M  V30 3527 N 320.748 -0.0735177 1.57428 0
M  V30 3528 C 322.025 -0.805903 1.78226 0
M  V30 3529 C 322.405 -1.95874 0.787189 0
M  V30 3530 O 321.753 -2.2779 -0.180029 0
M  V30 3531 C 321.963 -1.28045 3.24662 0
M  V30 3532 C 323.311 -1.71453 3.88444 0
M  V30 3533 O 324.335 -1.37616 3.28543 0
M  V30 3534 O 323.194 -2.34093 4.93825 0
M  V30 3535 H 320.288 -0.386041 0.73137 0
M  V30 3536 H 322.834 -0.0537269 1.69615 0
M  V30 3537 H 321.606 -0.455476 3.8864 0
M  V30 3538 H 321.229 -2.094 3.37991 0
M  V30 3539 N 322.226 -1.5378 -0.344866 0
M  V30 3540 C 323.173 -1.81676 -1.42346 0
M  V30 3541 C 324.143 -0.662376 -1.52321 0
M  V30 3542 O 325.328 -0.906675 -1.67881 0
M  V30 3543 C 322.468 -2.03087 -2.79015 0
M  V30 3544 C 321.581 -3.30799 -2.77842 0
M  V30 3545 C 320.716 -3.42285 -4.0622 0
M  V30 3546 C 319.755 -4.6395 -3.9927 0
M  V30 3547 N 318.892 -4.72477 -5.19336 0
M  V30 3548 H 323.732 -2.73703 -1.17858 0
M  V30 3549 H 321.269 -1.35568 -0.570949 0
M  V30 3550 H 323.227 -2.1349 -3.58438 0
M  V30 3551 H 321.857 -1.14375 -3.01858 0
M  V30 3552 H 320.909 -3.29244 -1.90533 0
M  V30 3553 H 322.221 -4.20314 -2.68584 0
M  V30 3554 H 321.375 -3.52113 -4.94066 0
M  V30 3555 H 320.114 -2.50823 -4.18258 0
M  V30 3556 H 319.119 -4.54201 -3.09809 0
M  V30 3557 H 320.344 -5.56775 -3.88817 0
M  V30 3558 H 318.29 -3.83924 -5.3192 0
M  V30 3559 H 318.207 -5.55927 -5.12329 0
M  V30 3560 H 319.475 -4.86613 -6.08957 0
M  V30 3561 N 323.704 0.605807 -1.45491 0
M  V30 3562 C 324.953 1.36086 -1.48874 0
M  V30 3563 C 325.266 1.95131 -0.135333 0
M  V30 3564 O 326.472 2.7146 -0.0468144 0
M  V30 3565 C 324.928 2.46518 -2.62215 0
M  V30 3566 C 324.536 1.93877 -4.03876 0
M  V30 3567 C 326.28 3.23512 -2.74846 0
M  V30 3568 C 324.187 3.01801 -5.08596 0
M  V30 3569 H 323.117 0.511497 -0.553974 0
M  V30 3570 H 325.768 0.649089 -1.71636 0
M  V30 3571 H 324.15 3.20388 -2.32739 0
M  V30 3572 H 325.324 1.26704 -4.43038 0
M  V30 3573 H 323.639 1.29622 -3.95711 0
M  V30 3574 H 326.236 4.04013 -3.50253 0
M  V30 3575 H 326.579 3.74631 -1.81542 0
M  V30 3576 H 327.112 2.56742 -3.03856 0
M  V30 3577 H 323.851 2.55597 -6.03614 0
M  V30 3578 H 323.371 3.67535 -4.74002 0
M  V30 3579 H 325.05 3.66152 -5.33424 0
M  V30 3580 N 325.182 1.32811 0.848464 0
M  V30 3581 C 326.431 1.23075 1.59798 0
M  V30 3582 C 326.744 -0.204419 1.94529 0
M  V30 3583 O 327.95 -0.423701 2.68173 0
M  V30 3584 C 326.406 2.15594 2.88179 0
M  V30 3585 C 326.014 3.64228 2.60849 0
M  V30 3586 C 327.758 2.14709 3.66197 0
M  V30 3587 C 325.665 4.48689 3.85269 0
M  V30 3588 H 324.595 0.457091 0.599653 0
M  V30 3589 H 327.246 1.57813 0.936342 0
M  V30 3590 H 325.628 1.73778 3.55833 0
M  V30 3591 H 326.802 4.14424 2.01467 0
M  V30 3592 H 325.117 3.67306 1.96151 0
M  V30 3593 H 327.714 2.75046 4.58534 0
M  V30 3594 H 328.057 1.13966 4.00397 0
M  V30 3595 H 328.59 2.54837 3.05455 0
M  V30 3596 H 325.329 5.5027 3.56207 0
M  V30 3597 H 324.849 4.03241 4.44024 0
M  V30 3598 H 326.528 4.62006 4.52946 0
M  V30 3599 N 326.66 -1.06551 1.16123 0
M  V30 3600 C 327.623 -2.12132 0.867906 0
M  V30 3601 C 328.623 -1.60224 -0.135944 0
M  V30 3602 O 329.813 -1.73943 0.0946422 0
M  V30 3603 C 326.945 -3.396 0.297419 0
M  V30 3604 H 328.138 -2.39586 1.80385 0
M  V30 3605 H 325.691 -1.22574 0.969812 0
M  V30 3606 H 326.426 -3.17794 -0.64633 0
M  V30 3607 H 326.211 -3.78581 1.02073 0
M  V30 3608 H 327.701 -4.17455 0.110052 0
M  V30 3609 N 328.138 -0.959301 -1.25041 0
M  V30 3610 C 329.415 -0.533805 -1.88175 0
M  V30 3611 C 329.795 0.988994 -1.865 0
M  V30 3612 O 329.143 1.85677 -1.33177 0
M  V30 3613 C 329.353 -1.11575 -3.30684 0
M  V30 3614 C 330.701 -1.19548 -4.07423 0
M  V30 3615 O 331.725 -1.06765 -3.39823 0
M  V30 3616 O 330.584 -1.39656 -5.28354 0
M  V30 3617 H 327.678 -0.176772 -0.807887 0
M  V30 3618 H 330.224 -1.05303 -1.33076 0
M  V30 3619 H 328.996 -2.15884 -3.26358 0
M  V30 3620 H 328.619 -0.580059 -3.93346 0
M  V30 3621 N 329.616 1.39756 -0.72842 0
M  V30 3622 C 331.032 1.5442 -0.403308 0
M  V30 3623 C 331.232 1.69694 1.08656 0
M  V30 3624 O 330.288 1.69373 1.87267 0
M  V30 3625 C 331.601 2.76555 -1.18058 0
M  V30 3626 C 333.149 2.90384 -1.16815 0
M  V30 3627 C 333.624 4.15449 -1.92785 0
M  V30 3628 N 335.115 4.22475 -1.89918 0
M  V30 3629 C 335.85 5.1818 -2.45514 0
M  V30 3630 N 335.346 6.19714 -3.09719 0
M  V30 3631 N 337.139 5.1035 -2.35584 0
M  V30 3632 H 329.29 1.28089 -1.69431 0
M  V30 3633 H 331.553 0.620327 -0.716867 0
M  V30 3634 H 331.259 2.7159 -2.23455 0
M  V30 3635 H 331.133 3.69033 -0.780662 0
M  V30 3636 H 333.52 2.94846 -0.12234 0
M  V30 3637 H 333.601 1.98988 -1.6074 0
M  V30 3638 H 333.245 4.11749 -2.97364 0
M  V30 3639 H 333.175 5.05877 -1.46272 0
M  V30 3640 H 335.666 3.49743 -1.43138 0
M  V30 3641 H 335.979 6.8919 -3.49625 0
M  V30 3642 H 334.324 6.20121 -3.13807 0
M  V30 3643 H 337.515 4.2996 -1.85072 0
M  V30 3644 H 337.688 5.84761 -2.79211 0
M  V30 3645 N 331.094 0.475555 1.50254 0
M  V30 3646 C 332.041 -0.316293 2.28622 0
M  V30 3647 C 333.011 -0.983227 1.33873 0
M  V30 3648 O 334.196 -0.994805 1.62814 0
M  V30 3649 C 331.336 -1.38975 3.1588 0
M  V30 3650 C 330.449 -0.737146 4.25664 0
M  V30 3651 C 329.584 -1.78887 5.00173 0
M  V30 3652 C 328.623 -1.11676 6.01826 0
M  V30 3653 N 327.76 -2.11154 6.69596 0
M  V30 3654 H 332.6 0.358297 2.95838 0
M  V30 3655 H 330.137 0.188541 1.45887 0
M  V30 3656 H 332.095 -2.02383 3.64825 0
M  V30 3657 H 330.725 -2.03344 2.50701 0
M  V30 3658 H 329.777 0.0096065 3.80399 0
M  V30 3659 H 331.089 -0.206816 4.98371 0
M  V30 3660 H 330.243 -2.49865 5.52859 0
M  V30 3661 H 328.982 -2.35302 4.27182 0
M  V30 3662 H 327.987 -0.392633 5.48396 0
M  V30 3663 H 329.212 -0.55945 6.76792 0
M  V30 3664 H 327.158 -2.66577 5.99394 0
M  V30 3665 H 327.075 -1.63118 7.38193 0
M  V30 3666 H 328.343 -2.81497 7.26897 0
M  V30 3667 N 332.573 -1.56217 0.208337 0
M  V30 3668 C 333.536 -2.18455 -0.693557 0
M  V30 3669 C 334.536 -1.14268 -1.13135 0
M  V30 3670 O 335.726 -1.39577 -1.0423 0
M  V30 3671 C 332.858 -2.79727 -1.94848 0
M  V30 3672 H 334.051 -2.99519 -0.15114 0
M  V30 3673 H 331.604 -1.56245 -0.041287 0
M  V30 3674 H 332.339 -2.02497 -2.53309 0
M  V30 3675 H 332.124 -3.56009 -1.64316 0
M  V30 3676 H 333.614 -3.27475 -2.59133 0
M  V30 3677 N 334.051 0.0651679 -1.57465 0
M  V30 3678 C 335.276 0.779605 -1.9219 0
M  V30 3679 C 335.701 1.69988 -0.805333 0
M  V30 3680 O 335.059 1.79685 0.241435 0
M  V30 3681 C 335.107 1.54364 -3.2589 0
M  V30 3682 O 334.211 2.65474 -3.1559 0
M  V30 3683 H 333.552 0.212249 -0.629163 0
M  V30 3684 H 336.082 0.0314294 -2.04576 0
M  V30 3685 H 336.092 1.92146 -3.59922 0
M  V30 3686 H 334.767 0.868457 -4.06732 0
M  V30 3687 H 333.344 2.30501 -2.93128 0
M  V30 3688 N 335.529 1.53961 0.336706 0
M  V30 3689 C 336.777 1.71197 1.07405 0
M  V30 3690 C 337.098 0.481475 1.88962 0
M  V30 3691 O 336.368 -0.504585 1.8929 0
M  V30 3692 H 334.948 0.631185 0.399517 0
M  V30 3693 H 337.61 1.91232 0.376323 0
M  V30 3694 H 336.706 2.58587 1.74755 0
M  V30 3695 N 337.007 -0.598083 1.45811 0
M  V30 3696 C 337.917 -1.73632 1.57763 0
M  V30 3697 C 338.933 -1.67763 0.461676 0
M  V30 3698 O 340.109 -1.87949 0.723685 0
M  V30 3699 C 337.174 -3.10114 1.55018 0
M  V30 3700 C 336.235 -3.27364 2.77726 0
M  V30 3701 C 335.468 -4.57334 2.75102 0
M  V30 3702 O 335.691 -5.40258 1.8297 0
M  V30 3703 O 334.625 -4.77502 3.66437 0
M  V30 3704 H 338.451 -1.66498 2.53992 0
M  V30 3705 H 336.036 -0.763308 1.28429 0
M  V30 3706 H 337.918 -3.9141 1.56129 0
M  V30 3707 H 336.593 -3.17718 0.619431 0
M  V30 3708 H 335.5 -2.45619 2.82174 0
M  V30 3709 H 336.833 -3.24641 3.69958 0
M  V30 3710 N 338.485 -1.33259 -0.841409 0
M  V30 3711 C 339.417 -1.19136 -1.95804 0
M  V30 3712 C 340.43 -0.122965 -1.62335 0
M  V30 3713 O 341.619 -0.373154 -1.74556 0
M  V30 3714 C 338.719 -0.804268 -3.29218 0
M  V30 3715 C 337.892 -1.96376 -3.90839 0
M  V30 3716 C 336.951 -1.55806 -5.02604 0
M  V30 3717 O 335.977 -2.27203 -5.21888 0
M  V30 3718 N 337.179 -0.461609 -5.78662 0
M  V30 3719 H 339.944 -2.15326 -2.08458 0
M  V30 3720 H 337.505 -1.25971 -1.017 0
M  V30 3721 H 339.497 -0.51501 -4.0141 0
M  V30 3722 H 338.067 0.0668809 -3.12528 0
M  V30 3723 H 337.287 -2.41879 -3.11269 0
M  V30 3724 H 338.575 -2.73966 -4.28742 0
M  V30 3725 H 337.973 0.132343 -5.65545 0
M  V30 3726 H 336.53 -0.232013 -6.51387 0
M  V30 3727 N 339.963 1.05934 -1.16686 0
M  V30 3728 C 341.188 1.83029 -0.975455 0
M  V30 3729 C 341.613 1.82096 0.471452 0
M  V30 3730 O 340.971 1.22443 1.33706 0
M  V30 3731 C 341.019 3.27372 -1.51195 0
M  V30 3732 O 340.123 4.06054 -0.720701 0
M  V30 3733 H 339.464 0.566194 -0.346872 0
M  V30 3734 H 341.994 1.33541 -1.55009 0
M  V30 3735 H 342.004 3.78186 -1.53099 0
M  V30 3736 H 340.679 3.27366 -2.56523 0
M  V30 3737 H 339.256 3.64812 -0.772458 0
M  V30 3738 N 341.441 0.965919 1.2453 0
M  V30 3739 C 342.718 0.543777 1.87889 0
M  V30 3740 C 343.098 -0.97909 1.87021 0
M  V30 3741 O 342.446 -1.84969 1.3416 0
M  V30 3742 C 342.656 1.13327 3.30088 0
M  V30 3743 C 344.004 1.21707 4.06783 0
M  V30 3744 O 345.028 1.08566 3.39252 0
M  V30 3745 O 343.887 1.42456 5.27606 0
M  V30 3746 H 340.981 0.181054 0.806938 0
M  V30 3747 H 343.527 1.06007 1.32516 0
M  V30 3748 H 342.299 2.17612 3.25209 0
M  V30 3749 H 341.922 0.600911 3.93033 0
M  V30 3750 N 342.919 -1.39368 0.735821 0
M  V30 3751 C 344.196 -1.94465 0.210395 0
M  V30 3752 C 344.576 -1.67254 -1.28799 0
M  V30 3753 O 343.924 -1.00123 -2.05396 0
M  V30 3754 C 344.134 -3.4472 0.544897 0
M  V30 3755 C 345.482 -4.21708 0.494689 0
M  V30 3756 O 346.506 -3.52922 0.482136 0
M  V30 3757 O 345.365 -5.44299 0.489947 0
M  V30 3758 H 342.459 -0.826096 0.0386666 0
M  V30 3759 H 345.005 -1.48863 0.814735 0
M  V30 3760 H 343.777 -3.57963 1.58045 0
M  V30 3761 H 343.4 -3.97502 -0.08837 0
M  V30 3762 N 344.397 -0.483516 -1.5 0
M  V30 3763 C 345.327 0.293829 -2.31644 0
M  V30 3764 C 346.308 0.978864 -1.39112 0
M  V30 3765 O 347.493 0.973644 -1.68029 0
M  V30 3766 C 344.623 1.36897 -3.19181 0
M  V30 3767 C 343.577 0.804833 -4.20365 0
M  V30 3768 C 342.903 1.9792 -4.96721 0
M  V30 3769 C 344.203 -0.192313 -5.21946 0
M  V30 3770 H 345.897 -0.387616 -2.9688 0
M  V30 3771 H 343.443 -0.187856 -1.42769 0
M  V30 3772 H 345.396 1.92037 -3.751 0
M  V30 3773 H 344.12 2.07936 -2.51853 0
M  V30 3774 H 342.779 0.275319 -3.65565 0
M  V30 3775 H 342.427 2.67686 -4.25856 0
M  V30 3776 H 342.127 1.60789 -5.65173 0
M  V30 3777 H 343.651 2.53526 -5.55479 0
M  V30 3778 H 345.065 0.270333 -5.72662 0
M  V30 3779 H 343.462 -0.478543 -5.98189 0
M  V30 3780 H 344.532 -1.11409 -4.71928 0
M  V30 3781 N 345.875 1.56104 -0.216619 0
M  V30 3782 C 346.805 2.23063 0.690296 0
M  V30 3783 C 347.786 1.20072 1.20485 0
M  V30 3784 O 348.971 1.48643 1.24976 0
M  V30 3785 C 346.101 2.90672 1.90072 0
M  V30 3786 C 345.055 4.00092 1.5202 0
M  V30 3787 C 344.381 4.54972 2.80899 0
M  V30 3788 C 345.681 5.17398 0.71391 0
M  V30 3789 H 347.375 2.99109 0.132038 0
M  V30 3790 H 344.921 1.43866 0.0620664 0
M  V30 3791 H 346.874 3.36204 2.54057 0
M  V30 3792 H 345.598 2.12066 2.48386 0
M  V30 3793 H 344.257 3.55283 0.903839 0
M  V30 3794 H 343.905 3.73102 3.37348 0
M  V30 3795 H 343.605 5.28817 2.56176 0
M  V30 3796 H 345.129 5.0322 3.45836 0
M  V30 3797 H 346.543 5.59342 1.25735 0
M  V30 3798 H 344.94 5.97444 0.563951 0
M  V30 3799 H 346.01 4.84088 -0.280527 0
M  V30 3800 N 347.353 -0.0568162 1.57498 0
M  V30 3801 C 348.581 -0.765626 1.92213 0
M  V30 3802 C 348.996 -1.70353 0.813961 0
M  V30 3803 O 348.353 -1.81268 -0.211701 0
M  V30 3804 C 348.404 -1.5465 3.2675 0
M  V30 3805 O 348.125 -0.646278 4.33307 0
M  V30 3806 C 349.626 -2.35497 3.75574 0
M  V30 3807 H 346.846 -0.216835 0.634999 0
M  V30 3808 H 349.39 -0.0226146 2.04487 0
M  V30 3809 H 347.545 -2.24165 3.15957 0
M  V30 3810 H 347.959 -1.19093 5.108 0
M  V30 3811 H 349.433 -2.85722 4.72299 0
M  V30 3812 H 349.91 -3.15692 3.05344 0
M  V30 3813 H 350.516 -1.7111 3.8936 0
M  V30 3814 N 348.832 -1.54138 -0.328536 0
M  V30 3815 C 349.782 -1.79557 -1.4051 0
M  V30 3816 C 350.766 -0.651373 -1.47126 0
M  V30 3817 O 351.958 -0.911226 -1.51742 0
M  V30 3818 C 349.087 -2.02196 -2.77438 0
M  V30 3819 C 348.173 -3.22724 -2.75155 0
M  V30 3820 N 348.564 -4.43881 -2.42494 0
M  V30 3821 C 346.862 -3.24196 -3.06289 0
M  V30 3822 C 347.563 -5.25797 -2.48822 0
M  V30 3823 N 346.539 -4.62862 -2.8506 0
M  V30 3824 H 350.341 -2.70814 -1.1418 0
M  V30 3825 H 347.855 -1.53265 -0.536991 0
M  V30 3826 H 349.852 -2.18546 -3.55026 0
M  V30 3827 H 348.512 -1.12191 -3.04702 0
M  V30 3828 H 349.523 -4.70969 -2.15428 0
M  V30 3829 H 346.2 -2.44208 -3.38627 0
M  V30 3830 H 347.59 -6.32535 -2.26603 0
M  V30 3831 N 350.31 0.590341 -1.46126 0
M  V30 3832 C 351.243 1.71434 -1.50617 0
M  V30 3833 C 352.221 1.58543 -0.360948 0
M  V30 3834 O 353.405 1.79865 -0.563985 0
M  V30 3835 C 350.532 3.09422 -1.37753 0
M  V30 3836 C 349.578 3.40854 -2.5636 0
M  V30 3837 S 350.411 3.33773 -4.18755 0
M  V30 3838 C 351.567 4.74312 -4.08386 0
M  V30 3839 H 351.8 1.67364 -2.45717 0
M  V30 3840 H 349.333 0.76845 -1.33919 0
M  V30 3841 H 351.291 3.8903 -1.31018 0
M  V30 3842 H 349.952 3.10989 -0.440949 0
M  V30 3843 H 349.145 4.41368 -2.43332 0
M  V30 3844 H 348.747 2.68798 -2.60046 0
M  V30 3845 H 351.039 5.64522 -3.74595 0
M  V30 3846 H 351.982 4.92397 -5.08872 0
M  V30 3847 H 352.39 4.50803 -3.3976 0
M  V30 3848 N 351.788 1.33704 0.83433 0
M  V30 3849 C 352.718 1.26967 1.95963 0
M  V30 3850 C 353.699 0.149337 1.69443 0
M  V30 3851 O 354.884 0.339852 1.91203 0
M  V30 3852 C 352.014 1.01275 3.32206 0
M  V30 3853 C 350.968 2.09652 3.73136 0
M  V30 3854 C 350.294 1.69166 5.07235 0
M  V30 3855 C 351.594 3.51372 3.86439 0
M  V30 3856 H 353.288 2.2112 2.01857 0
M  V30 3857 H 350.834 1.06447 0.969793 0
M  V30 3858 H 352.787 0.952106 4.10503 0
M  V30 3859 H 351.511 0.0356203 3.26581 0
M  V30 3860 H 350.17 2.14766 2.97104 0
M  V30 3861 H 349.818 0.701437 4.98085 0
M  V30 3862 H 349.518 2.41694 5.35591 0
M  V30 3863 H 351.042 1.64576 5.88003 0
M  V30 3864 H 352.456 3.48734 4.55036 0
M  V30 3865 H 350.853 4.22425 4.26236 0
M  V30 3866 H 351.923 3.89546 2.88759 0
M  V30 3867 N 353.266 -1.05314 1.17247 0
M  V30 3868 C 354.214 -2.15137 0.884238 0
M  V30 3869 C 355.208 -1.68729 -0.15063 0
M  V30 3870 O 356.414 -1.8 -0.00366673 0
M  V30 3871 H 352.789 -0.702471 0.2684 0
M  V30 3872 H 354.76 -2.36652 1.81764 0
M  V30 3873 C 353.509 -3.45243 0.412659 0
M  V30 3874 H 352.832 -3.81352 1.20043 0
M  V30 3875 H 354.272 -4.23263 0.249858 0
M  V30 3876 C 352.731 -3.25487 -0.86948 0
M  V30 3877 O 353.261 -3.51938 -1.93655 0
M  V30 3878 N 351.467 -2.78875 -0.817147 0
M  V30 3879 H 351.014 -2.57549 0.0514211 0
M  V30 3880 H 350.972 -2.66036 -1.67547 0
M  V30 3881 N 354.744 -0.972509 -1.24016 0
M  V30 3882 C 355.992 -0.635776 -1.91839 0
M  V30 3883 C 356.313 0.832312 -1.76345 0
M  V30 3884 O 355.583 1.5946 -1.13795 0
M  V30 3885 H 354.163 -0.232157 -0.710009 0
M  V30 3886 H 356.825 -1.23462 -1.50809 0
M  V30 3887 H 355.921 -0.880545 -2.99421 0
M  V30 3888 N 356.222 1.38976 -0.743202 0
M  V30 3889 C 357.169 2.30544 -0.10861 0
M  V30 3890 C 358.139 1.49642 0.720869 0
M  V30 3891 O 359.324 1.78304 0.679142 0
M  V30 3892 C 356.464 3.36018 0.786496 0
M  V30 3893 C 355.577 4.31963 -0.0564849 0
M  V30 3894 C 354.712 5.24506 0.840657 0
M  V30 3895 C 353.751 6.121 -0.00658363 0
M  V30 3896 N 352.888 6.96973 0.846943 0
M  V30 3897 H 357.728 2.8424 -0.895088 0
M  V30 3898 H 355.265 1.3995 -0.453048 0
M  V30 3899 H 357.223 3.95768 1.31999 0
M  V30 3900 H 355.853 2.83758 1.53887 0
M  V30 3901 H 354.905 3.73763 -0.707492 0
M  V30 3902 H 356.217 4.93703 -0.711229 0
M  V30 3903 H 355.371 5.89322 1.4417 0
M  V30 3904 H 354.11 4.63107 1.52916 0
M  V30 3905 H 353.115 5.46289 -0.620366 0
M  V30 3906 H 354.34 6.75565 -0.691992 0
M  V30 3907 H 352.286 6.38133 1.52059 0
M  V30 3908 H 352.203 7.5559 0.248864 0
M  V30 3909 H 353.471 7.6621 1.43328 0
M  V30 3910 N 357.7 0.491464 1.49741 0
M  V30 3911 C 358.977 -0.118984 1.95238 0
M  V30 3912 C 359.357 -1.55044 1.43264 0
M  V30 3913 O 358.705 -2.19287 0.642287 0
M  V30 3914 C 358.915 -0.0414187 3.48975 0
M  V30 3915 C 360.263 -0.220133 4.24029 0
M  V30 3916 O 361.287 -0.117055 3.56008 0
M  V30 3917 O 360.146 -0.430567 5.44801 0
M  V30 3918 H 357.24 -0.100536 0.820866 0
M  V30 3919 H 359.786 0.553322 1.60426 0
M  V30 3920 H 358.558 0.957214 3.79412 0
M  V30 3921 H 358.181 -0.754292 3.9038 0
M  V30 3922 N 359.178 -1.55987 0.224894 0
M  V30 3923 C 360.589 -1.84553 -0.282345 0
M  V30 3924 C 360.94 -1.14634 -1.59227 0
M  V30 3925 O 360.065 -0.417155 -2.12341 0
M  V30 3926 C 360.66 -3.348 -0.519062 0
M  V30 3927 C 359.219 -3.63671 -0.970604 0
M  V30 3928 C 358.366 -2.77277 -0.0355261 0
M  V30 3929 H 361.317 -1.52245 0.448006 0
M  V30 3930 H 361.338 -3.55187 -1.36463 0
M  V30 3931 H 360.85 -3.8566 0.43449 0
M  V30 3932 H 358.951 -3.1827 -1.9374 0
M  V30 3933 H 359.064 -4.71631 -0.842698 0
M  V30 3934 H 357.428 -2.48846 -0.542927 0
M  V30 3935 H 358.211 -3.30937 0.913003 0
M  V30 3936 N 360.656 0.0484629 -1.57525 0
M  V30 3937 C 361.566 1.07241 -2.08654 0
M  V30 3938 C 362.582 1.409 -1.02095 0
M  V30 3939 O 363.758 1.50609 -1.33712 0
M  V30 3940 C 360.823 2.36008 -2.5397 0
M  V30 3941 C 359.884 2.09108 -3.7493 0
M  V30 3942 C 359.117 3.31736 -4.18075 0
M  V30 3943 O 359.34 4.41714 -3.60895 0
M  V30 3944 O 358.274 3.18576 -5.10679 0
M  V30 3945 H 362.1 0.667965 -2.96263 0
M  V30 3946 H 359.685 0.26417 -1.47046 0
M  V30 3947 H 361.567 3.11747 -2.83535 0
M  V30 3948 H 360.242 2.75786 -1.69481 0
M  V30 3949 H 359.149 1.31 -3.50414 0
M  V30 3950 H 360.482 1.74198 -4.60343 0
M  V30 3951 N 362.134 1.5431 0.320358 0
M  V30 3952 C 363.362 1.76636 1.07738 0
M  V30 3953 C 363.777 0.51649 1.81598 0
M  V30 3954 O 363.134 -0.512942 1.75143 0
M  V30 3955 C 363.185 2.96158 2.07299 0
M  V30 3956 O 362.906 4.16313 1.36438 0
M  V30 3957 C 364.407 3.3072 2.95193 0
M  V30 3958 H 361.627 0.589597 0.320339 0
M  V30 3959 H 364.171 2.01207 0.36551 0
M  V30 3960 H 362.326 2.73851 2.74016 0
M  V30 3961 H 362.74 4.83565 2.03138 0
M  V30 3962 H 364.214 4.17643 3.60941 0
M  V30 3963 H 364.691 2.48026 3.62463 0
M  V30 3964 H 365.297 3.55117 2.34034 0
M  V30 3965 N 363.613 -0.582584 1.46437 0
M  V30 3966 C 364.861 -1.33814 1.51453 0
M  V30 3967 C 365.182 -1.94277 0.167792 0
M  V30 3968 O 364.452 -1.78566 -0.805677 0
M  V30 3969 H 363.032 -0.496838 0.557818 0
M  V30 3970 H 365.694 -0.682281 1.82568 0
M  V30 3971 H 364.79 -2.14479 2.26728 0
M  V30 3972 N 365.091 -1.34144 -0.827227 0
M  V30 3973 C 366.001 -1.27428 -1.96975 0
M  V30 3974 C 367.017 -0.182728 -1.73038 0
M  V30 3975 O 368.193 -0.408426 -1.97215 0
M  V30 3976 C 365.258 -1.02526 -3.31194 0
M  V30 3977 C 364.319 -2.20796 -3.68168 0
M  V30 3978 C 363.552 -1.97073 -4.95982 0
M  V30 3979 O 363.775 -0.926822 -5.6282 0
M  V30 3980 O 362.709 -2.83912 -5.30733 0
M  V30 3981 H 366.535 -2.23537 -2.05584 0
M  V30 3982 H 364.12 -1.14307 -0.961989 0
M  V30 3983 H 366.002 -0.904026 -4.11589 0
M  V30 3984 H 364.677 -0.0945389 -3.23562 0
M  V30 3985 H 363.584 -2.38477 -2.88235 0
M  V30 3986 H 364.917 -3.12243 -3.8048 0
M  V30 3987 N 366.569 1.04691 -1.17803 0
M  V30 3988 C 367.98 1.59238 -0.974689 0
M  V30 3989 C 368.331 1.90306 0.477292 0
M  V30 3990 O 367.456 1.68846 1.35352 0
M  V30 3991 C 368.051 2.89318 -1.76296 0
M  V30 3992 C 366.61 3.40506 -1.60414 0
M  V30 3993 C 365.757 2.14172 -1.76141 0
M  V30 3994 H 368.708 0.874395 -1.32439 0
M  V30 3995 H 368.729 3.5944 -1.24833 0
M  V30 3996 H 368.241 2.66675 -2.81968 0
M  V30 3997 H 366.342 3.68175 -0.572519 0
M  V30 3998 H 366.455 4.14753 -2.39827 0
M  V30 3999 H 364.819 2.25176 -1.19028 0
M  V30 4000 H 365.602 1.93992 -2.83235 0
M  V30 4001 N 368.047 0.979072 1.23499 0
M  V30 4002 C 368.977 0.537606 2.27227 0
M  V30 4003 C 369.958 -0.428539 1.64613 0
M  V30 4004 O 371.143 -0.322191 1.91509 0
M  V30 4005 C 368.273 -0.162052 3.46922 0
M  V30 4006 C 367.227 0.721242 4.21879 0
M  V30 4007 C 366.553 -0.110555 5.34586 0
M  V30 4008 C 367.853 2.01141 4.82016 0
M  V30 4009 H 369.547 1.40462 2.64406 0
M  V30 4010 H 367.093 0.67684 1.27102 0
M  V30 4011 H 369.046 -0.482192 4.18632 0
M  V30 4012 H 367.77 -1.06351 3.08799 0
M  V30 4013 H 366.429 1.02482 3.51984 0
M  V30 4014 H 366.077 -1.0125 4.92704 0
M  V30 4015 H 365.777 0.477325 5.85658 0
M  V30 4016 H 367.301 -0.425107 6.09118 0
M  V30 4017 H 368.715 1.75612 5.45741 0
M  V30 4018 H 367.112 2.54695 5.43369 0
M  V30 4019 H 368.182 2.69909 4.02836 0
M  V30 4020 N 369.525 -1.3858 0.750561 0
M  V30 4021 C 370.802 -1.94231 0.231009 0
M  V30 4022 C 371.182 -1.68611 -1.27018 0
M  V30 4023 O 370.53 -1.02296 -2.04323 0
M  V30 4024 C 370.74 -3.44123 0.581428 0
M  V30 4025 C 372.088 -4.2116 0.539389 0
M  V30 4026 O 373.112 -3.52391 0.519541 0
M  V30 4027 O 371.971 -5.43749 0.54765 0
M  V30 4028 H 369.065 -0.825639 0.0474263 0
M  V30 4029 H 371.611 -1.4799 0.830478 0
M  V30 4030 H 370.383 -3.56267 1.61833 0
M  V30 4031 H 370.006 -3.97573 -0.0462047 0
M  V30 4032 N 371.003 -0.499398 -1.49478 0
M  V30 4033 C 372.28 0.108629 -1.95298 0
M  V30 4034 C 372.66 1.54282 -1.44084 0
M  V30 4035 O 372.008 2.18944 -0.653908 0
M  V30 4036 C 372.218 0.0229111 -3.48992 0
M  V30 4037 C 373.566 0.197643 -4.2414 0
M  V30 4038 O 374.59 0.0981735 -3.56065 0
M  V30 4039 O 373.449 0.401669 -5.45022 0
M  V30 4040 H 370.543 0.096181 -0.821388 0
M  V30 4041 H 373.089 -0.561822 -1.6013 0
M  V30 4042 H 371.861 -0.977321 -3.78899 0
M  V30 4043 H 371.484 0.733579 -3.90774 0
M  V30 4044 N 372.481 1.55866 -0.233164 0
M  V30 4045 C 373.391 2.24431 0.683217 0
M  V30 4046 C 374.407 1.2558 1.2044 0
M  V30 4047 O 375.583 1.58422 1.24356 0
M  V30 4048 C 372.648 2.91979 1.86947 0
M  V30 4049 C 371.709 4.06204 1.38912 0
M  V30 4050 C 370.942 4.70522 2.51883 0
M  V30 4051 O 371.165 4.33865 3.70293 0
M  V30 4052 O 370.099 5.59296 2.22423 0
M  V30 4053 H 373.925 3.03426 0.129059 0
M  V30 4054 H 371.51 1.494 -0.0022283 0
M  V30 4055 H 373.392 3.34573 2.56201 0
M  V30 4056 H 372.067 2.15935 2.41151 0
M  V30 4057 H 370.974 3.68155 0.664259 0
M  V30 4058 H 372.307 4.84025 0.893328 0
M  V30 4059 N 373.959 -0.0401083 1.57549 0
M  V30 4060 C 374.907 -1.06264 2.06908 0
M  V30 4061 C 375.901 -1.38132 0.980608 0
M  V30 4062 O 377.107 -1.37167 1.16556 0
M  V30 4063 H 373.482 -0.360166 0.660139 0
M  V30 4064 H 375.453 -0.620445 2.91878 0
M  V30 4065 C 374.202 -2.35846 2.55483 0
M  V30 4066 H 373.525 -2.12183 3.38849 0
M  V30 4067 H 374.965 -3.05765 2.93741 0
M  V30 4068 C 373.424 -3.0404 1.45126 0
M  V30 4069 O 373.954 -3.93424 0.811216 0
M  V30 4070 N 372.16 -2.65184 1.18852 0
M  V30 4071 H 371.707 -1.92584 1.71083 0
M  V30 4072 H 371.665 -3.1113 0.452244 0
M  V30 4073 N 375.437 -1.54477 -0.31217 0
M  V30 4074 C 376.686 -1.72438 -1.04633 0
M  V30 4075 C 376.999 -0.511163 -1.88803 0
M  V30 4076 O 378.205 -0.572341 -2.65399 0
M  V30 4077 C 376.661 -3.05043 -1.9099 0
M  V30 4078 C 376.269 -4.33806 -1.11877 0
M  V30 4079 C 378.013 -3.32364 -2.64073 0
M  V30 4080 C 375.92 -5.57467 -1.97445 0
M  V30 4081 H 374.85 -0.642647 -0.394361 0
M  V30 4082 H 377.501 -1.80966 -0.303929 0
M  V30 4083 H 375.883 -2.90451 -2.69173 0
M  V30 4084 H 377.057 -4.59199 -0.383843 0
M  V30 4085 H 375.372 -4.13336 -0.504252 0
M  V30 4086 H 377.969 -4.21951 -3.28423 0
M  V30 4087 H 378.312 -2.50745 -3.32314 0
M  V30 4088 H 378.845 -3.47875 -1.92944 0
M  V30 4089 H 375.584 -6.41722 -1.33692 0
M  V30 4090 H 375.104 -5.36277 -2.6864 0
M  V30 4091 H 376.783 -5.94303 -2.5576 0
M  V30 4092 N 376.915 0.57481 -1.46744 0
M  V30 4093 C 378.331 0.898981 -1.31873 0
M  V30 4094 C 378.531 1.99313 -0.29605 0
M  V30 4095 O 377.587 2.50728 0.298621 0
M  V30 4096 C 378.9 1.30886 -2.7072 0
M  V30 4097 C 380.448 1.42127 -2.78871 0
M  V30 4098 C 380.923 1.86478 -4.18318 0
M  V30 4099 N 382.414 1.93658 -4.20774 0
M  V30 4100 C 383.149 2.29267 -5.2557 0
M  V30 4101 N 382.645 2.63612 -6.40688 0
M  V30 4102 N 384.438 2.29889 -5.1294 0
M  V30 4103 H 376.589 -0.147839 -2.11885 0
M  V30 4104 H 378.852 -0.00347013 -0.947994 0
M  V30 4105 H 378.558 0.578853 -3.46904 0
M  V30 4106 H 378.432 2.26874 -3.01343 0
M  V30 4107 H 380.819 2.14213 -2.0297 0
M  V30 4108 H 380.9 0.443705 -2.51922 0
M  V30 4109 H 380.544 1.14968 -4.94717 0
M  V30 4110 H 380.474 2.85207 -4.42679 0
M  V30 4111 H 382.965 1.69574 -3.37718 0
M  V30 4112 H 383.278 2.89759 -7.16421 0
M  V30 4113 H 381.623 2.61232 -6.44036 0
M  V30 4114 H 384.814 2.02485 -4.22039 0
M  V30 4115 H 384.987 2.57312 -5.94722 0
M  V30 4116 N 378.394 1.34581 0.820102 0
M  V30 4117 C 379.624 1.29991 1.6058 0
M  V30 4118 C 380.032 -0.127588 1.88769 0
M  V30 4119 O 379.375 -1.08595 1.48165 0
M  V30 4120 C 379.437 2.02548 2.9701 0
M  V30 4121 C 379.101 3.51794 2.91701 0
M  V30 4122 C 380.098 4.46647 2.66087 0
M  V30 4123 C 377.783 3.94249 3.11245 0
M  V30 4124 C 379.777 5.81929 2.60071 0
M  V30 4125 C 377.464 5.2963 3.04853 0
M  V30 4126 C 378.462 6.23282 2.793 0
M  V30 4127 O 378.15 7.56181 2.72847 0
M  V30 4128 H 377.882 0.448539 0.505756 0
M  V30 4129 H 380.436 1.77811 1.02822 0
M  V30 4130 H 378.666 1.49345 3.56697 0
M  V30 4131 H 380.355 1.91211 3.58041 0
M  V30 4132 H 381.121 4.15168 2.5072 0
M  V30 4133 H 377 3.21749 3.30149 0
M  V30 4134 H 380.544 6.54999 2.40046 0
M  V30 4135 H 376.441 5.60727 3.19774 0
M  V30 4136 H 377.209 7.6595 2.88553 0
M  V30 4137 N 379.872 -1.04064 1.18357 0
M  V30 4138 C 380.804 -2.12114 0.868358 0
M  V30 4139 C 381.817 -1.62247 -0.134045 0
M  V30 4140 O 383.006 -1.78253 0.0937933 0
M  V30 4141 C 380.106 -3.37773 0.276132 0
M  V30 4142 C 379.279 -4.16874 1.3242 0
M  V30 4143 C 378.338 -5.20861 0.747662 0
M  V30 4144 O 377.364 -5.51141 1.42239 0
M  V30 4145 N 378.566 -5.78715 -0.454823 0
M  V30 4146 H 381.331 -2.39748 1.79836 0
M  V30 4147 H 378.892 -1.20258 1.08396 0
M  V30 4148 H 380.884 -4.04513 -0.123133 0
M  V30 4149 H 379.454 -3.07581 -0.557895 0
M  V30 4150 H 378.674 -3.45456 1.89878 0
M  V30 4151 H 379.962 -4.66516 2.03078 0
M  V30 4152 H 379.36 -5.56415 -1.02073 0
M  V30 4153 H 377.917 -6.46921 -0.79601 0
M  V30 4154 N 381.35 -0.985608 -1.22978 0
M  V30 4155 C 382.599 -0.652881 -1.90841 0
M  V30 4156 C 382.912 0.817842 -1.77681 0
M  V30 4157 O 384.118 1.26185 -2.40395 0
M  V30 4158 C 382.574 -1.11717 -3.42122 0
M  V30 4159 C 382.182 -2.6126 -3.63933 0
M  V30 4160 C 383.926 -0.85843 -4.1573 0
M  V30 4161 C 381.833 -3.0133 -5.08876 0
M  V30 4162 H 380.763 -0.240491 -0.714619 0
M  V30 4163 H 383.414 -1.1942 -1.39324 0
M  V30 4164 H 381.796 -0.504027 -3.92779 0
M  V30 4165 H 382.97 -3.27858 -3.23799 0
M  V30 4166 H 381.285 -2.84937 -3.03644 0
M  V30 4167 H 383.882 -1.13359 -5.22546 0
M  V30 4168 H 384.225 0.205461 -4.15793 0
M  V30 4169 H 384.758 -1.43341 -3.71077 0
M  V30 4170 H 381.497 -4.06864 -5.13947 0
M  V30 4171 H 381.017 -2.3943 -5.49939 0
M  V30 4172 H 382.696 -2.92224 -5.77247 0
M  V30 4173 N 382.828 1.3818 -0.7579 0
M  V30 4174 C 384.077 1.99261 -0.312744 0
M  V30 4175 C 384.39 1.60846 1.11301 0
M  V30 4176 O 385.596 2.14929 1.65885 0
M  V30 4177 C 384.052 3.56294 -0.50821 0
M  V30 4178 C 383.66 4.03657 -1.94333 0
M  V30 4179 C 385.404 4.24313 -0.125982 0
M  V30 4180 C 383.311 5.53347 -2.08712 0
M  V30 4181 H 382.241 0.745456 -0.113185 0
M  V30 4182 H 384.892 1.57889 -0.935056 0
M  V30 4183 H 383.274 3.95575 0.183353 0
M  V30 4184 H 384.448 3.75655 -2.66871 0
M  V30 4185 H 382.763 3.48376 -2.28086 0
M  V30 4186 H 385.36 5.34279 -0.212125 0
M  V30 4187 H 385.703 4.05962 0.921964 0
M  V30 4188 H 386.236 3.90285 -0.769563 0
M  V30 4189 H 382.975 5.76607 -3.11777 0
M  V30 4190 H 382.495 5.83078 -1.4064 0
M  V30 4191 H 384.174 6.19111 -1.87912 0
M  V30 4192 N 384.306 0.507319 1.49211 0
M  V30 4193 C 385.534 -0.0315749 2.06876 0
M  V30 4194 C 385.949 -1.30241 1.36685 0
M  V30 4195 O 385.306 -1.76937 0.447152 0
M  V30 4196 C 385.357 -0.282627 3.60393 0
M  V30 4197 O 385.078 0.937835 4.27944 0
M  V30 4198 C 386.579 -0.864453 4.3479 0
M  V30 4199 H 383.799 0.0233048 0.670595 0
M  V30 4200 H 386.343 0.706484 1.91909 0
M  V30 4201 H 384.498 -0.97068 3.75042 0
M  V30 4202 H 384.912 0.704567 5.19746 0
M  V30 4203 H 386.386 -0.989664 5.43056 0
M  V30 4204 H 386.863 -1.86382 3.97692 0
M  V30 4205 H 387.469 -0.213672 4.24763 0
M  V30 4206 N 385.784 -1.5574 0.241426 0
M  V30 4207 C 387.031 -1.9881 -0.384836 0
M  V30 4208 C 387.359 -1.12947 -1.58346 0
M  V30 4209 O 386.614 -0.178993 -1.9488 0
M  V30 4210 C 386.913 -3.47308 -0.843317 0
M  V30 4211 C 386.579 -4.50223 0.246946 0
M  V30 4212 C 385.241 -4.78088 0.546399 0
M  V30 4213 C 387.593 -5.11841 0.983282 0
M  V30 4214 C 384.921 -5.64846 1.58636 0
M  V30 4215 C 387.273 -5.99727 2.01272 0
M  V30 4216 C 385.937 -6.25927 2.31888 0
M  V30 4217 H 385.207 -0.727496 -0.140821 0
M  V30 4218 H 387.854 -1.8831 0.348106 0
M  V30 4219 H 386.159 -3.55112 -1.65537 0
M  V30 4220 H 387.856 -3.78017 -1.33806 0
M  V30 4221 H 384.446 -4.286 0.00340639 0
M  V30 4222 H 388.63 -4.90366 0.765182 0
M  V30 4223 H 383.886 -5.83403 1.82896 0
M  V30 4224 H 388.06 -6.46517 2.58823 0
M  V30 4225 H 385.687 -6.92949 3.12611 0
M  V30 4226 N 387.262 0.0317525 -1.57568 0
M  V30 4227 C 388.192 1.03274 -2.0942 0
M  V30 4228 C 389.173 1.3788 -0.996143 0
M  V30 4229 O 390.358 1.46811 -1.27122 0
M  V30 4230 C 387.488 2.33448 -2.57137 0
M  V30 4231 C 386.442 2.13091 -3.71182 0
M  V30 4232 C 385.768 3.49001 -4.05095 0
M  V30 4233 C 387.068 1.51928 -4.99715 0
M  V30 4234 H 388.762 0.60112 -2.93303 0
M  V30 4235 H 386.308 0.287705 -1.41097 0
M  V30 4236 H 388.261 3.03802 -2.92032 0
M  V30 4237 H 386.985 2.78665 -1.70333 0
M  V30 4238 H 385.644 1.45171 -3.36632 0
M  V30 4239 H 385.292 3.91862 -3.15362 0
M  V30 4240 H 384.992 3.36207 -4.81911 0
M  V30 4241 H 386.516 4.20721 -4.42522 0
M  V30 4242 H 387.93 2.12196 -5.32584 0
M  V30 4243 H 386.327 1.49716 -5.81124 0
M  V30 4244 H 387.397 0.484811 -4.8247 0
M  V30 4245 N 388.74 1.54641 0.303973 0
M  V30 4246 C 389.989 1.7299 1.03717 0
M  V30 4247 C 390.302 0.521168 1.88529 0
M  V30 4248 O 391.508 0.586408 2.65092 0
M  V30 4249 C 389.964 3.06051 1.89369 0
M  V30 4250 C 389.572 4.34393 1.09574 0
M  V30 4251 C 391.316 3.3376 2.62306 0
M  V30 4252 C 389.223 5.58506 1.94486 0
M  V30 4253 H 388.153 0.64473 0.390947 0
M  V30 4254 H 390.804 1.81124 0.294328 0
M  V30 4255 H 389.186 2.91874 2.67629 0
M  V30 4256 H 390.36 4.59396 0.359485 0
M  V30 4257 H 388.675 4.13597 0.482324 0
M  V30 4258 H 391.272 4.23687 3.26181 0
M  V30 4259 H 391.615 2.52503 3.3098 0
M  V30 4260 H 392.148 3.48894 1.91097 0
M  V30 4261 H 388.887 6.42422 1.30287 0
M  V30 4262 H 388.407 5.37694 2.65792 0
M  V30 4263 H 390.086 5.95651 2.52605 0
M  V30 4264 N 390.218 -0.567019 1.47046 0
M  V30 4265 C 391.181 -1.65696 1.58359 0
M  V30 4266 C 392.181 -1.54097 0.459441 0
M  V30 4267 O 393.371 -1.58432 0.724225 0
M  V30 4268 C 390.503 -3.05197 1.51879 0
M  V30 4269 H 391.696 -1.57019 2.5551 0
M  V30 4270 H 389.249 -0.786148 1.3509 0
M  V30 4271 H 389.984 -3.19417 0.560673 0
M  V30 4272 H 389.769 -3.15025 2.33455 0
M  V30 4273 H 391.259 -3.84511 1.62913 0
M  V30 4274 N 391.696 -1.35014 -0.812953 0
M  V30 4275 C 392.944 -1.27678 -1.56661 0
M  V30 4276 C 393.265 0.150359 -1.94419 0
M  V30 4277 O 392.535 1.08532 -1.63088 0
M  V30 4278 H 391.115 -0.469602 -0.580933 0
M  V30 4279 H 393.777 -1.69043 -0.970076 0
M  V30 4280 H 392.873 -1.88833 -2.48492 0
M  V30 4281 N 393.175 1.03435 -1.18907 0
M  V30 4282 C 394.125 2.09924 -0.889706 0
M  V30 4283 C 395.109 1.60261 0.143216 0
M  V30 4284 O 396.301 1.76892 -0.0617122 0
M  V30 4285 C 393.43 3.40669 -0.424168 0
M  V30 4286 C 392.516 3.97082 -1.48952 0
M  V30 4287 N 392.907 4.27227 -2.70759 0
M  V30 4288 C 391.205 4.25029 -1.35152 0
M  V30 4289 C 391.906 4.7246 -3.39347 0
M  V30 4290 N 390.882 4.7366 -2.66735 0
M  V30 4291 H 394.684 2.31116 -1.81555 0
M  V30 4292 H 392.198 1.21246 -1.08042 0
M  V30 4293 H 394.195 4.16461 -0.191176 0
M  V30 4294 H 392.855 3.20901 0.495263 0
M  V30 4295 H 393.866 4.16678 -3.0757 0
M  V30 4296 H 390.543 4.14554 -0.495126 0
M  V30 4297 H 391.933 5.04751 -4.43481 0
M  V30 4298 N 394.653 0.992116 1.22453 0
M  V30 4299 C 395.563 0.55065 2.28046 0
M  V30 4300 C 396.579 -0.400189 1.69335 0
M  V30 4301 O 397.755 -0.267215 1.99619 0
M  V30 4302 C 394.82 -0.128496 3.46462 0
M  V30 4303 C 393.881 0.865208 4.20491 0
M  V30 4304 C 393.114 0.218377 5.33253 0
M  V30 4305 O 393.337 -0.987894 5.6178 0
M  V30 4306 O 392.271 0.922845 5.94783 0
M  V30 4307 H 396.097 1.4291 2.67975 0
M  V30 4308 H 393.682 0.760326 1.28606 0
M  V30 4309 H 395.564 -0.508947 4.18315 0
M  V30 4310 H 394.239 -0.981526 3.0846 0
M  V30 4311 H 393.146 1.29658 3.50913 0
M  V30 4312 H 394.479 1.68741 4.62371 0
M  V30 4313 N 396.131 -1.37776 0.765217 0
M  V30 4314 C 397.359 -2.04124 0.337767 0
M  V30 4315 C 397.774 -1.57715 -1.03785 0
M  V30 4316 O 397.131 -0.755447 -1.6613 0
M  V30 4317 C 397.182 -3.59658 0.364442 0
M  V30 4318 O 396.903 -4.04367 1.68579 0
M  V30 4319 C 398.404 -4.43236 -0.0754221 0
M  V30 4320 H 395.624 -0.655696 0.142491 0
M  V30 4321 H 398.168 -1.76238 1.03732 0
M  V30 4322 H 396.323 -3.86339 -0.286471 0
M  V30 4323 H 396.737 -4.98857 1.61993 0
M  V30 4324 H 398.211 -5.52 -0.00560067 0
M  V30 4325 H 398.688 -4.2455 -1.12491 0
M  V30 4326 H 399.294 -4.21767 0.547055 0
M  V30 4327 N 397.609 -0.515225 -1.4894 0
M  V30 4328 C 398.837 0.0206034 -2.0689 0
M  V30 4329 C 399.252 1.29514 -1.37374 0
M  V30 4330 O 398.609 1.76698 -0.456529 0
M  V30 4331 C 398.66 0.26351 -3.60538 0
M  V30 4332 O 398.381 -0.960517 -4.27441 0
M  V30 4333 C 399.882 0.841383 -4.35242 0
M  V30 4334 H 397.102 -0.0268608 -0.670462 0
M  V30 4335 H 399.646 -0.716651 -1.91532 0
M  V30 4336 H 397.801 0.950777 -3.75552 0
M  V30 4337 H 398.215 -0.73212 -5.19365 0
M  V30 4338 H 399.689 0.96085 -5.43573 0
M  V30 4339 H 400.166 1.8427 -3.98674 0
M  V30 4340 H 400.772 0.191143 -4.2487 0
M  V30 4341 N 399.087 1.5561 -0.249682 0
M  V30 4342 C 400.312 2.03865 0.381305 0
M  V30 4343 C 400.737 1.12769 1.50548 0
M  V30 4344 O 400.095 0.121189 1.80895 0
M  V30 4345 C 400.143 3.50101 0.863816 0
M  V30 4346 O 399.247 3.62132 1.97318 0
M  V30 4347 H 398.588 0.658827 0.0827194 0
M  V30 4348 H 401.118 2.01105 -0.376552 0
M  V30 4349 H 401.128 3.90975 1.1663 0
M  V30 4350 H 399.803 4.1588 0.0411816 0
M  V30 4351 H 398.38 3.33155 1.67517 0
M  V30 4352 N 400.565 -0.0233959 1.57583 0
M  V30 4353 C 401.813 -0.711654 1.89156 0
M  V30 4354 C 402.134 -1.75591 0.848096 0
M  V30 4355 O 401.404 -1.95547 -0.117566 0
M  V30 4356 H 399.984 -0.265835 0.698098 0
M  V30 4357 H 402.646 0.0119948 1.94896 0
M  V30 4358 H 401.742 -1.19766 2.88206 0
M  V30 4359 N 402.043 -1.548 -0.295768 0
M  V30 4360 C 402.973 -1.89115 -1.36959 0
M  V30 4361 C 403.954 -0.75059 -1.52644 0
M  V30 4362 O 405.139 -1.00678 -1.66065 0
M  V30 4363 C 402.269 -2.14307 -2.73295 0
M  V30 4364 C 401.223 -3.30151 -2.72368 0
M  V30 4365 C 400.549 -3.40772 -4.12042 0
M  V30 4366 C 401.849 -4.67126 -2.33646 0
M  V30 4367 H 403.543 -2.79053 -1.08488 0
M  V30 4368 H 401.089 -1.34266 -0.520443 0
M  V30 4369 H 403.042 -2.36898 -3.48507 0
M  V30 4370 H 401.766 -1.21145 -3.03301 0
M  V30 4371 H 400.425 -3.0749 -1.99613 0
M  V30 4372 H 400.073 -2.45117 -4.39234 0
M  V30 4373 H 399.773 -4.18645 -4.12322 0
M  V30 4374 H 401.297 -3.6563 -4.89027 0
M  V30 4375 H 402.711 -4.89414 -2.98575 0
M  V30 4376 H 401.108 -5.47751 -2.45129 0
M  V30 4377 H 402.178 -4.67489 -1.28772 0
M  V30 4378 N 403.521 0.559213 -1.47345 0
M  V30 4379 C 404.451 1.67622 -1.62558 0
M  V30 4380 C 405.432 1.63331 -0.475087 0
M  V30 4381 O 406.617 1.80983 -0.704182 0
M  V30 4382 C 403.747 3.0626 -1.63774 0
M  V30 4383 C 402.701 3.25397 -2.7803 0
M  V30 4384 C 402.027 4.64801 -2.64318 0
M  V30 4385 C 403.327 3.10965 -4.19641 0
M  V30 4386 H 405.021 1.55146 -2.56067 0
M  V30 4387 H 402.567 0.744961 -1.23233 0
M  V30 4388 H 404.52 3.84247 -1.73008 0
M  V30 4389 H 403.244 3.1969 -0.66825 0
M  V30 4390 H 401.903 2.49817 -2.68304 0
M  V30 4391 H 401.551 4.75028 -1.65401 0
M  V30 4392 H 401.251 4.78555 -3.40968 0
M  V30 4393 H 402.775 5.44926 -2.75478 0
M  V30 4394 H 404.189 3.78772 -4.30354 0
M  V30 4395 H 402.586 3.36229 -4.97062 0
M  V30 4396 H 403.656 2.07736 -4.38148 0
M  V30 4397 N 404.999 1.35443 0.805782 0
M  V30 4398 C 406.224 1.32037 1.59941 0
M  V30 4399 C 406.649 -0.0994215 1.87837 0
M  V30 4400 O 406.007 -1.06648 1.46615 0
M  V30 4401 C 406.055 2.13354 2.90711 0
M  V30 4402 O 405.159 1.5148 3.83572 0
M  V30 4403 H 404.5 0.452666 0.485787 0
M  V30 4404 H 407.03 1.78496 1.00002 0
M  V30 4405 H 407.04 2.25338 3.40128 0
M  V30 4406 H 405.715 3.16572 2.69732 0
M  V30 4407 H 404.292 1.4834 3.42125 0
M  V30 4408 N 406.477 -1.02803 1.19454 0
M  V30 4409 C 407.724 -1.76217 0.997693 0
M  V30 4410 C 408.052 -1.887 -0.47144 0
M  V30 4411 O 407.307 -1.4011 -1.3663 0
M  V30 4412 C 407.606 -3.18941 1.6128 0
M  V30 4413 C 407.272 -3.26463 3.11019 0
M  V30 4414 C 405.934 -3.28223 3.51885 0
M  V30 4415 C 408.286 -3.25542 4.07028 0
M  V30 4416 C 405.614 -3.26719 4.8731 0
M  V30 4417 C 407.966 -3.25579 5.42385 0
M  V30 4418 C 406.63 -3.25637 5.82681 0
M  V30 4419 H 405.9 -0.644823 0.365082 0
M  V30 4420 H 408.547 -1.20655 1.4871 0
M  V30 4421 H 406.852 -3.77587 1.04572 0
M  V30 4422 H 408.549 -3.74415 1.43577 0
M  V30 4423 H 405.139 -3.25822 2.78457 0
M  V30 4424 H 409.323 -3.23362 3.76498 0
M  V30 4425 H 404.579 -3.25089 5.1781 0
M  V30 4426 H 408.753 -3.23817 6.16535 0
M  V30 4427 H 406.38 -3.24226 6.87591 0
M  V30 4428 N 407.956 -0.998596 -1.21925 0
M  V30 4429 C 408.919 -0.558679 -2.22287 0
M  V30 4430 C 409.919 0.361525 -1.56683 0
M  V30 4431 O 411.109 0.152695 -1.73529 0
M  V30 4432 C 408.241 0.18661 -3.40389 0
M  V30 4433 H 409.434 -1.4463 -2.62721 0
M  V30 4434 H 406.987 -0.786413 -1.35075 0
M  V30 4435 H 407.722 1.08996 -3.05435 0
M  V30 4436 H 407.507 -0.474188 -3.89222 0
M  V30 4437 H 408.997 0.482367 -4.14805 0
M  V30 4438 N 409.434 1.37368 -0.772513 0
M  V30 4439 C 410.364 2.32856 -0.173304 0
M  V30 4440 C 411.345 1.55818 0.682262 0
M  V30 4441 O 412.53 1.84052 0.619566 0
M  V30 4442 C 409.66 3.40048 0.706007 0
M  V30 4443 C 408.614 4.27973 -0.0483144 0
M  V30 4444 C 407.94 5.26184 0.950491 0
M  V30 4445 C 409.24 5.07665 -1.22776 0
M  V30 4446 H 410.934 2.83217 -0.971002 0
M  V30 4447 H 408.48 1.3617 -0.468377 0
M  V30 4448 H 410.433 4.05827 1.13501 0
M  V30 4449 H 409.157 2.88214 1.53623 0
M  V30 4450 H 407.816 3.63726 -0.458107 0
M  V30 4451 H 407.464 4.7063 1.77529 0
M  V30 4452 H 407.164 5.85872 0.450314 0
M  V30 4453 H 408.688 5.94838 1.37842 0
M  V30 4454 H 410.102 5.66578 -0.875366 0
M  V30 4455 H 408.499 5.76681 -1.66007 0
M  V30 4456 H 409.569 4.40294 -2.03149 0
M  V30 4457 N 410.912 0.523116 1.48665 0
M  V30 4458 C 412.142 -0.00961724 2.06598 0
M  V30 4459 C 412.55 -1.29333 1.38093 0
M  V30 4460 O 411.893 -1.77846 0.46007 0
M  V30 4461 C 411.955 -0.311135 3.58151 0
M  V30 4462 C 411.619 0.878092 4.48485 0
M  V30 4463 C 412.616 1.77464 4.88674 0
M  V30 4464 C 410.301 1.08315 4.90483 0
M  V30 4465 C 412.295 2.86021 5.69623 0
M  V30 4466 C 409.982 2.17187 5.71203 0
M  V30 4467 C 410.98 3.05873 6.10681 0
M  V30 4468 O 410.668 4.12862 6.89783 0
M  V30 4469 H 410.4 0.0272658 0.67545 0
M  V30 4470 H 412.954 0.726156 1.92136 0
M  V30 4471 H 411.184 -1.10079 3.70701 0
M  V30 4472 H 412.873 -0.785125 3.98234 0
M  V30 4473 H 413.639 1.62813 4.56855 0
M  V30 4474 H 409.518 0.402149 4.59243 0
M  V30 4475 H 413.062 3.55272 6.00356 0
M  V30 4476 H 408.959 2.31824 6.02435 0
M  V30 4477 H 409.727 4.10487 7.08126 0
M  V30 4478 N 412.39 -1.55475 0.257931 0
M  V30 4479 C 413.637 -1.99207 -0.363728 0
M  V30 4480 C 413.965 -1.1462 -1.57139 0
M  V30 4481 O 413.22 -0.199653 -1.94679 0
M  V30 4482 C 413.519 -3.48183 -0.806433 0
M  V30 4483 C 413.185 -4.49936 0.294684 0
M  V30 4484 C 411.847 -4.77481 0.597076 0
M  V30 4485 C 414.199 -5.10769 1.03751 0
M  V30 4486 C 411.527 -5.63132 1.64618 0
M  V30 4487 C 413.879 -5.97558 2.07622 0
M  V30 4488 C 412.543 -6.23432 2.38514 0
M  V30 4489 H 411.813 -0.728949 -0.133097 0
M  V30 4490 H 414.46 -1.8793 0.368059 0
M  V30 4491 H 412.765 -3.56848 -1.61761 0
M  V30 4492 H 414.462 -3.79415 -1.29789 0
M  V30 4493 H 411.052 -4.28572 0.0488649 0
M  V30 4494 H 415.236 -4.89527 0.817149 0
M  V30 4495 H 410.492 -5.8143 1.89074 0
M  V30 4496 H 414.666 -6.43735 2.65666 0
M  V30 4497 H 412.293 -6.89594 3.19943 0
M  V30 4498 N 413.868 0.0150385 -1.57593 0
M  V30 4499 C 414.798 1.01047 -2.10503 0
M  V30 4500 C 415.779 1.36816 -1.01071 0
M  V30 4501 O 416.964 1.45455 -1.28672 0
M  V30 4502 C 414.094 2.30708 -2.59598 0
M  V30 4503 C 413.048 2.09142 -3.73421 0
M  V30 4504 C 412.374 3.44685 -4.08774 0
M  V30 4505 C 413.674 1.46619 -5.01298 0
M  V30 4506 H 415.368 0.569978 -2.93925 0
M  V30 4507 H 412.914 0.272724 -1.41394 0
M  V30 4508 H 414.867 3.00687 -2.95238 0
M  V30 4509 H 413.591 2.76843 -1.73279 0
M  V30 4510 H 412.25 1.41592 -3.38153 0
M  V30 4511 H 411.898 3.88495 -3.195 0
M  V30 4512 H 411.598 3.31077 -4.8545 0
M  V30 4513 H 413.122 4.16004 -4.4696 0
M  V30 4514 H 414.536 2.06535 -5.34805 0
M  V30 4515 H 412.933 1.43544 -5.82679 0
M  V30 4516 H 414.003 0.433611 -4.82957 0
M  V30 4517 N 415.346 1.54954 0.287554 0
M  V30 4518 C 416.592 1.75132 1.02257 0
M  V30 4519 C 416.925 0.542858 1.86458 0
M  V30 4520 O 416.2 -0.459856 1.88986 0
M  V30 4521 C 416.483 3.04812 1.91733 0
M  V30 4522 C 416.336 4.35985 1.10622 0
M  V30 4523 C 417.655 3.30438 2.90687 0
M  V30 4524 H 414.774 0.637194 0.370341 0
M  V30 4525 H 417.416 1.87678 0.296111 0
M  V30 4526 H 415.566 2.94247 2.53675 0
M  V30 4527 H 417.238 4.58487 0.508636 0
M  V30 4528 H 415.481 4.31865 0.409271 0
M  V30 4529 H 416.152 5.23017 1.76513 0
M  V30 4530 H 418.628 3.40701 2.38877 0
M  V30 4531 H 417.504 4.22467 3.50447 0
M  V30 4532 H 417.765 2.49377 3.65053 0
M  V30 4533 N 416.824 -0.551391 1.4764 0
M  V30 4534 C 417.771 -1.65796 1.60563 0
M  V30 4535 C 418.741 -1.59932 0.448428 0
M  V30 4536 O 419.926 -1.78679 0.669222 0
M  V30 4537 C 417.066 -3.04108 1.63133 0
M  V30 4538 C 416.179 -3.20365 2.89811 0
M  V30 4539 C 415.314 -4.49109 2.8368 0
M  V30 4540 C 414.353 -4.58819 4.05156 0
M  V30 4541 N 413.49 -5.78926 3.97227 0
M  V30 4542 H 418.33 -1.54088 2.5507 0
M  V30 4543 H 415.867 -0.75052 1.26513 0
M  V30 4544 H 417.825 -3.84207 1.62606 0
M  V30 4545 H 416.455 -3.14637 0.721341 0
M  V30 4546 H 415.507 -2.33659 3.00179 0
M  V30 4547 H 416.819 -3.23402 3.79753 0
M  V30 4548 H 415.973 -5.37475 2.81434 0
M  V30 4549 H 414.712 -4.4856 1.91431 0
M  V30 4550 H 413.717 -3.68864 4.077 0
M  V30 4551 H 414.942 -4.61124 4.98539 0
M  V30 4552 H 412.888 -5.79314 3.07785 0
M  V30 4553 H 412.805 -5.83367 4.80853 0
M  V30 4554 H 414.073 -6.69637 3.99007 0
M  V30 4555 N 418.302 -1.35869 -0.798587 0
M  V30 4556 C 419.25 -1.29491 -1.93222 0
M  V30 4557 C 420.244 -0.18836 -1.6835 0
M  V30 4558 O 421.45 -0.354822 -1.76468 0
M  V30 4559 H 417.825 -0.402901 -0.63496 0
M  V30 4560 H 419.796 -2.25247 -1.9572 0
M  V30 4561 C 418.545 -1.09184 -3.30112 0
M  V30 4562 H 417.868 -1.93574 -3.49813 0
M  V30 4563 H 419.308 -1.08766 -4.09812 0
M  V30 4564 C 417.767 0.203959 -3.36282 0
M  V30 4565 O 418.297 1.19699 -3.83451 0
M  V30 4566 N 416.503 0.245488 -2.89561 0
M  V30 4567 H 416.05 -0.563223 -2.51367 0
M  V30 4568 H 416.008 1.11219 -2.94071 0
M  V30 4569 N 419.78 1.02168 -1.19998 0
M  V30 4570 C 421.191 1.57135 -1.00825 0
M  V30 4571 C 421.542 1.91276 0.436818 0
M  V30 4572 O 420.667 1.71679 1.3174 0
M  V30 4573 C 421.262 2.85514 -1.82393 0
M  V30 4574 C 419.821 3.37027 -1.67601 0
M  V30 4575 C 418.968 2.10388 -1.80644 0
M  V30 4576 H 421.919 0.846106 -1.34264 0
M  V30 4577 H 421.94 3.56711 -1.32429 0
M  V30 4578 H 421.452 2.60634 -2.87561 0
M  V30 4579 H 419.553 3.66878 -0.650485 0
M  V30 4580 H 419.666 4.09572 -2.4857 0
M  V30 4581 H 418.03 2.22601 -1.23778 0
M  V30 4582 H 418.813 1.8794 -2.87286 0
M  V30 4583 N 421.258 1.00505 1.21394 0
M  V30 4584 C 422.208 0.536503 2.21598 0
M  V30 4585 C 423.192 -0.401914 1.55799 0
M  V30 4586 O 424.384 -0.226757 1.75541 0
M  V30 4587 C 421.513 -0.135446 3.43033 0
M  V30 4588 C 420.599 0.823992 4.16018 0
M  V30 4589 N 420.99 1.97683 4.6557 0
M  V30 4590 C 419.288 0.642387 4.4135 0
M  V30 4591 C 419.989 2.58003 5.21354 0
M  V30 4592 N 418.965 1.86162 5.1073 0
M  V30 4593 H 422.767 1.41557 2.57563 0
M  V30 4594 H 420.281 0.868878 1.37202 0
M  V30 4595 H 422.278 -0.488584 4.14027 0
M  V30 4596 H 420.938 -1.01049 3.08576 0
M  V30 4597 H 421.949 2.3572 4.61147 0
M  V30 4598 H 418.626 -0.185578 4.17087 0
M  V30 4599 H 420.016 3.555 5.70149 0
M  V30 4600 N 422.737 -1.36956 0.779787 0
M  V30 4601 C 423.983 -1.99787 0.348281 0
M  V30 4602 C 424.316 -1.61756 -1.07465 0
M  V30 4603 O 423.591 -0.867639 -1.74075 0
M  V30 4604 C 423.874 -3.56597 0.50104 0
M  V30 4605 C 423.727 -4.04513 1.96697 0
M  V30 4606 C 425.046 -4.40008 -0.0898097 0
M  V30 4607 H 422.165 -0.725796 0.128022 0
M  V30 4608 H 424.807 -1.62514 0.984331 0
M  V30 4609 H 422.957 -3.88479 -0.0404347 0
M  V30 4610 H 424.629 -3.83161 2.56876 0
M  V30 4611 H 422.872 -3.56408 2.47297 0
M  V30 4612 H 423.543 -5.1352 2.02486 0
M  V30 4613 H 426.019 -4.14431 0.372293 0
M  V30 4614 H 424.895 -5.4888 0.0471605 0
M  V30 4615 H 425.156 -4.26035 -1.18096 0
M  V30 4616 N 424.215 -0.530993 -1.48385 0
M  V30 4617 C 425.145 0.219985 -2.32461 0
M  V30 4618 C 426.126 0.934111 -1.42156 0
M  V30 4619 O 427.311 0.919694 -1.71042 0
M  V30 4620 C 424.441 1.26674 -3.23375 0
M  V30 4621 C 423.395 0.67069 -4.22712 0
M  V30 4622 C 422.721 1.82017 -5.02766 0
M  V30 4623 C 424.021 -0.358268 -5.2107 0
M  V30 4624 H 425.715 -0.48187 -2.95497 0
M  V30 4625 H 423.261 -0.233182 -1.42099 0
M  V30 4626 H 425.214 1.80006 -3.81019 0
M  V30 4627 H 423.938 1.99818 -2.58341 0
M  V30 4628 H 422.597 0.158878 -3.66256 0
M  V30 4629 H 422.245 2.54002 -4.34157 0
M  V30 4630 H 421.945 1.42727 -5.70003 0
M  V30 4631 H 423.469 2.35725 -5.63264 0
M  V30 4632 H 424.883 0.0880081 -5.73232 0
M  V30 4633 H 423.28 -0.66861 -5.96364 0
M  V30 4634 H 424.35 -1.26367 -4.68145 0
M  V30 4635 N 425.693 1.55336 -0.266172 0
M  V30 4636 C 426.625 2.19544 0.658247 0
M  V30 4637 C 427.638 1.17746 1.12427 0
M  V30 4638 O 428.827 1.44517 1.04772 0
M  V30 4639 C 425.927 2.80032 1.9088 0
M  V30 4640 C 425.1 4.07436 1.59106 0
M  V30 4641 C 424.159 4.52056 2.69317 0
M  V30 4642 O 423.185 5.18023 2.35883 0
M  V30 4643 N 424.387 4.21448 3.99201 0
M  V30 4644 H 427.152 2.99503 0.108754 0
M  V30 4645 H 424.713 1.61667 -0.0869059 0
M  V30 4646 H 426.705 3.06831 2.63888 0
M  V30 4647 H 425.275 2.04119 2.36758 0
M  V30 4648 H 424.495 3.88021 0.695243 0
M  V30 4649 H 425.783 4.90462 1.35367 0
M  V30 4650 H 425.181 3.68528 4.29189 0
M  V30 4651 H 423.738 4.53039 4.68614 0
M  V30 4652 N 427.171 -0.0066808 1.57599 0
M  V30 4653 C 428.118 -1.00024 2.08 0
M  V30 4654 C 429.088 -1.34549 0.973943 0
M  V30 4655 O 430.273 -1.44502 1.24595 0
M  V30 4656 C 427.413 -2.2891 2.58252 0
M  V30 4657 C 426.526 -2.00346 3.82734 0
M  V30 4658 C 425.661 -3.23265 4.21513 0
M  V30 4659 C 424.7 -2.90357 5.3885 0
M  V30 4660 N 423.837 -4.05793 5.72954 0
M  V30 4661 H 428.677 -0.563499 2.92624 0
M  V30 4662 H 426.214 -0.266592 1.44664 0
M  V30 4663 H 428.172 -3.04247 2.85464 0
M  V30 4664 H 426.802 -2.70265 1.76512 0
M  V30 4665 H 425.854 -1.15406 3.62471 0
M  V30 4666 H 427.166 -1.72086 4.68175 0
M  V30 4667 H 426.32 -4.06953 4.49971 0
M  V30 4668 H 425.059 -3.54657 3.34768 0
M  V30 4669 H 424.064 -2.05075 5.10122 0
M  V30 4670 H 425.289 -2.60219 6.27266 0
M  V30 4671 H 423.235 -4.37094 4.89167 0
M  V30 4672 H 423.152 -3.81034 6.52954 0
M  V30 4673 H 424.42 -4.90289 6.06001 0
M  V30 4674 N 428.649 -1.55105 -0.279332 0
M  V30 4675 C 429.612 -1.86783 -1.32834 0
M  V30 4676 C 430.612 -0.74199 -1.42657 0
M  V30 4677 O 431.802 -1.0102 -1.41918 0
M  V30 4678 C 428.934 -2.06746 -2.71052 0
M  V30 4679 H 430.127 -2.8055 -1.05979 0
M  V30 4680 H 427.68 -1.47499 -0.517087 0
M  V30 4681 H 428.415 -1.15339 -3.03097 0
M  V30 4682 H 428.2 -2.88711 -2.65309 0
M  V30 4683 H 429.69 -2.32549 -3.46858 0
M  V30 4684 N 430.127 0.543554 -1.4793 0
M  V30 4685 C 431.09 1.63156 -1.60975 0
M  V30 4686 C 432.09 1.53346 -0.483899 0
M  V30 4687 O 433.28 1.5726 -0.749339 0
M  V30 4688 C 430.412 3.02743 -1.56716 0
M  V30 4689 H 431.605 1.52934 -2.57975 0
M  V30 4690 H 429.158 0.764557 -1.36324 0
M  V30 4691 H 429.893 3.18484 -0.611418 0
M  V30 4692 H 429.678 3.11272 -2.38438 0
M  V30 4693 H 431.168 3.81871 -1.6901 0
M  V30 4694 N 431.605 1.3629 0.791371 0
M  V30 4695 C 432.515 1.32606 1.93527 0
M  V30 4696 C 433.531 0.228541 1.72493 0
M  V30 4697 O 434.707 0.460571 1.96063 0
M  V30 4698 C 431.772 1.11271 3.28359 0
M  V30 4699 C 430.833 2.3048 3.62185 0
M  V30 4700 C 430.066 2.10154 4.90583 0
M  V30 4701 O 430.289 1.07572 5.60165 0
M  V30 4702 O 429.223 2.97884 5.23019 0
M  V30 4703 H 433.049 2.28909 1.99585 0
M  V30 4704 H 430.634 1.16818 0.931344 0
M  V30 4705 H 432.516 1.01283 4.09047 0
M  V30 4706 H 431.191 0.180292 3.23198 0
M  V30 4707 H 430.098 2.46036 2.81811 0
M  V30 4708 H 431.431 3.22221 3.72068 0
M  V30 4709 N 433.083 -1.0153 1.20538 0
M  V30 4710 C 433.993 -2.13557 0.971113 0
M  V30 4711 C 435.009 -1.73845 -0.0734366 0
M  V30 4712 O 436.185 -2.01075 0.114299 0
M  V30 4713 C 433.25 -3.42661 0.527639 0
M  V30 4714 C 432.311 -3.96608 1.64319 0
M  V30 4715 C 431.544 -5.1955 1.22078 0
M  V30 4716 O 431.767 -5.70329 0.0900198 0
M  V30 4717 O 430.701 -5.66681 2.02871 0
M  V30 4718 H 434.527 -2.3619 1.90913 0
M  V30 4719 H 432.112 -1.11946 0.989362 0
M  V30 4720 H 433.994 -4.20404 0.289621 0
M  V30 4721 H 432.669 -3.21441 -0.381779 0
M  V30 4722 H 431.576 -3.20139 1.93551 0
M  V30 4723 H 432.909 -4.22219 2.52966 0
M  V30 4724 N 434.561 -1.01147 -1.20859 0
M  V30 4725 C 435.524 -0.582224 -2.21682 0
M  V30 4726 C 436.524 0.344887 -1.57058 0
M  V30 4727 O 437.714 0.134281 -1.73682 0
M  V30 4728 C 434.846 0.150496 -3.40568 0
M  V30 4729 H 436.039 -1.47408 -2.61172 0
M  V30 4730 H 433.592 -0.800695 -1.34233 0
M  V30 4731 H 434.327 1.0575 -3.06574 0
M  V30 4732 H 434.112 -0.515444 -3.88697 0
M  V30 4733 H 435.602 0.438344 -4.15293 0
M  V30 4734 N 436.039 1.36541 -0.78704 0
M  V30 4735 C 437.002 2.28413 -0.189778 0
M  V30 4736 C 438.002 1.48719 0.611499 0
M  V30 4737 O 439.192 1.68737 0.432842 0
M  V30 4738 C 436.324 3.32824 0.737638 0
M  V30 4739 H 437.517 2.82743 -0.999831 0
M  V30 4740 H 435.07 1.46065 -0.556298 0
M  V30 4741 H 435.805 2.83646 1.57212 0
M  V30 4742 H 435.59 3.91752 0.165044 0
M  V30 4743 H 437.08 4.0144 1.15047 0
M  V30 4744 N 437.518 0.538854 1.48102 0
M  V30 4745 C 438.934 0.19732 1.58376 0
M  V30 4746 C 439.134 -1.29971 1.5398 0
M  V30 4747 O 438.19 -2.07861 1.43352 0
M  V30 4748 C 439.503 0.807716 2.89649 0
M  V30 4749 C 441.051 0.77726 3.03196 0
M  V30 4750 C 441.526 1.36639 4.37143 0
M  V30 4751 N 443.017 1.32875 4.43732 0
M  V30 4752 C 443.752 1.7544 5.45901 0
M  V30 4753 N 443.248 2.25776 6.54979 0
M  V30 4754 N 445.041 1.66623 5.36836 0
M  V30 4755 H 437.192 1.5117 1.49202 0
M  V30 4756 H 439.455 0.629327 0.708979 0
M  V30 4757 H 439.161 1.85909 2.98548 0
M  V30 4758 H 439.035 0.289975 3.76084 0
M  V30 4759 H 441.422 -0.265374 2.93904 0
M  V30 4760 H 441.503 1.33256 2.18349 0
M  V30 4761 H 441.147 2.408 4.47189 0
M  V30 4762 H 441.077 0.786689 5.20691 0
M  V30 4763 H 443.568 0.96037 3.65493 0
M  V30 4764 H 443.881 2.56226 7.29087 0
M  V30 4765 H 442.226 2.29775 6.55918 0
M  V30 4766 H 445.417 1.27089 4.50517 0
M  V30 4767 H 445.59 2.00115 6.16326 0
M  V30 4768 N 438.996 -1.55193 0.274407 0
M  V30 4769 C 440.242 -1.99877 -0.343086 0
M  V30 4770 C 440.575 -1.16256 -1.55558 0
M  V30 4771 O 439.85 -0.232462 -1.93106 0
M  V30 4772 C 440.133 -3.52706 -0.725965 0
M  V30 4773 C 439.986 -4.47081 0.493818 0
M  V30 4774 C 441.305 -4.11422 -1.56268 0
M  V30 4775 H 438.424 -0.726625 -0.123229 0
M  V30 4776 H 441.066 -1.86136 0.38121 0
M  V30 4777 H 439.216 -3.64546 -1.34307 0
M  V30 4778 H 440.888 -4.47186 1.13237 0
M  V30 4779 H 439.131 -4.1877 1.13201 0
M  V30 4780 H 439.802 -5.51699 0.18217 0
M  V30 4781 H 442.278 -4.02855 -1.04151 0
M  V30 4782 H 441.154 -5.18568 -1.79939 0
M  V30 4783 H 441.415 -3.61607 -2.54348 0
M  V30 4784 N 440.474 -0.00167713 -1.576 0
M  V30 4785 C 441.404 0.988091 -2.11563 0
M  V30 4786 C 442.385 1.35736 -1.02517 0
M  V30 4787 O 443.57 1.44082 -1.30208 0
M  V30 4788 C 440.7 2.27941 -2.62031 0
M  V30 4789 C 439.654 2.0517 -3.75619 0
M  V30 4790 C 438.98 3.4033 -4.12407 0
M  V30 4791 C 440.28 1.41294 -5.02825 0
M  V30 4792 H 441.974 0.538771 -2.94513 0
M  V30 4793 H 439.52 0.257712 -1.41675 0
M  V30 4794 H 441.473 2.97539 -2.9841 0
M  V30 4795 H 440.197 2.74989 -1.76205 0
M  V30 4796 H 438.856 1.37998 -3.39635 0
M  V30 4797 H 438.504 3.85085 -3.23603 0
M  V30 4798 H 438.204 3.25909 -4.88935 0
M  V30 4799 H 439.728 4.1124 -4.51347 0
M  V30 4800 H 441.142 2.00851 -5.36965 0
M  V30 4801 H 439.539 1.37356 -5.84169 0
M  V30 4802 H 440.609 0.382362 -4.8339 0
M  V30 4803 N 441.952 1.55251 0.271103 0
M  V30 4804 C 443.198 1.76207 1.00394 0
M  V30 4805 C 443.531 0.562604 1.85872 0
M  V30 4806 O 442.806 -0.439785 1.89463 0
M  V30 4807 C 443.089 3.06828 1.8849 0
M  V30 4808 C 442.942 4.37134 1.05992 0
M  V30 4809 C 444.261 3.33503 2.87165 0
M  V30 4810 H 441.38 0.641086 0.363562 0
M  V30 4811 H 444.022 1.87982 0.276189 0
M  V30 4812 H 442.172 2.96921 2.5054 0
M  V30 4813 H 443.844 4.59001 0.459978 0
M  V30 4814 H 442.087 4.32275 0.363443 0
M  V30 4815 H 442.758 5.2486 1.70955 0
M  V30 4816 H 445.234 3.43215 2.3525 0
M  V30 4817 H 444.11 4.2616 3.45946 0
M  V30 4818 H 444.371 2.53235 3.62387 0
M  V30 4819 N 443.43 -0.535701 1.48216 0
M  V30 4820 C 444.707 -1.29683 1.46429 0
M  V30 4821 C 445.087 -2.10391 0.172852 0
M  V30 4822 O 444.435 -2.12282 -0.845488 0
M  V30 4823 C 444.645 -2.18313 2.72287 0
M  V30 4824 C 445.993 -2.78639 3.20383 0
M  V30 4825 O 447.017 -2.28604 2.73164 0
M  V30 4826 O 445.876 -3.69636 4.02531 0
M  V30 4827 H 442.97 -0.585026 0.584529 0
M  V30 4828 H 445.516 -0.552827 1.60443 0
M  V30 4829 H 444.288 -1.58421 3.57797 0
M  V30 4830 H 443.911 -2.99971 2.60966 0
M  V30 4831 N 444.908 -1.36708 -0.784132 0
M  V30 4832 C 446.319 -1.27947 -1.35965 0
M  V30 4833 C 446.67 0.0784013 -1.96043 0
M  V30 4834 O 445.795 0.979989 -1.92938 0
M  V30 4835 C 446.39 -2.31689 -2.47195 0
M  V30 4836 C 444.949 -2.26601 -3.00548 0
M  V30 4837 C 444.096 -2.16184 -1.73666 0
M  V30 4838 H 447.047 -1.4751 -0.585358 0
M  V30 4839 H 447.068 -1.95638 -3.26352 0
M  V30 4840 H 446.58 -3.30506 -2.03439 0
M  V30 4841 H 444.681 -1.31268 -3.48711 0
M  V30 4842 H 444.794 -3.19508 -3.57004 0
M  V30 4843 H 443.158 -1.62524 -1.96107 0
M  V30 4844 H 443.941 -3.16896 -1.32031 0
M  V30 4845 N 446.386 1.0089 -1.21074 0
M  V30 4846 C 447.632 1.74866 -1.02712 0
M  V30 4847 C 447.965 1.89178 0.438787 0
M  V30 4848 O 447.24 1.42325 1.32567 0
M  V30 4849 C 447.523 3.16347 -1.72036 0
M  V30 4850 C 447.376 3.09782 -3.26121 0
M  V30 4851 C 448.695 4.15187 -1.45973 0
M  V30 4852 H 445.814 0.634736 -0.374539 0
M  V30 4853 H 448.456 1.17646 -1.49196 0
M  V30 4854 H 446.606 3.65201 -1.32517 0
M  V30 4855 H 448.278 2.68673 -3.74983 0
M  V30 4856 H 446.521 2.46982 -3.56626 0
M  V30 4857 H 447.192 4.09829 -3.6979 0
M  V30 4858 H 449.668 3.75022 -1.80272 0
M  V30 4859 H 448.544 5.12331 -1.96999 0
M  V30 4860 H 448.805 4.40386 -0.388924 0
M  V30 4861 N 447.864 1.01787 1.20321 0
M  V30 4862 C 449.275 0.739307 1.71438 0
M  V30 4863 C 449.626 -0.742041 1.81627 0
M  V30 4864 O 448.751 -1.57903 1.47971 0
M  V30 4865 C 449.346 1.33538 3.11373 0
M  V30 4866 C 447.905 1.10566 3.59795 0
M  V30 4867 C 447.052 1.44028 2.36962 0
M  V30 4868 H 450.003 1.18718 1.05317 0
M  V30 4869 H 450.024 0.726611 3.73498 0
M  V30 4870 H 449.536 2.41352 3.03926 0
M  V30 4871 H 447.637 0.0452405 3.72573 0
M  V30 4872 H 447.75 1.78661 4.44542 0
M  V30 4873 H 446.114 0.85933 2.39766 0
M  V30 4874 H 446.897 2.52901 2.32155 0
M  V30 4875 N 449.342 -1.36122 0.79427 0
M  V30 4876 C 450.567 -2.03891 0.379871 0
M  V30 4877 C 450.992 -1.59488 -0.997251 0
M  V30 4878 O 450.35 -0.765652 -1.64339 0
M  V30 4879 C 450.398 -3.57687 0.457442 0
M  V30 4880 O 449.502 -4.08931 -0.5338 0
M  V30 4881 H 448.843 -0.6443 0.160541 0
M  V30 4882 H 451.373 -1.73976 1.07673 0
M  V30 4883 H 451.383 -4.06721 0.322792 0
M  V30 4884 H 450.058 -3.89357 1.46199 0
M  V30 4885 H 448.635 -3.71154 -0.360409 0
M  V30 4886 N 450.82 -0.546701 -1.47814 0
M  V30 4887 C 452.05 -0.0232519 -2.06587 0
M  V30 4888 C 452.458 1.2712 -1.40133 0
M  V30 4889 O 451.801 1.77091 -0.488305 0
M  V30 4890 C 451.863 0.254117 -3.58601 0
M  V30 4891 C 451.527 -0.949331 -4.47031 0
M  V30 4892 C 452.524 -1.85216 -4.85789 0
M  V30 4893 C 450.209 -1.16104 -4.88697 0
M  V30 4894 C 452.203 -2.95047 -5.65001 0
M  V30 4895 C 449.89 -2.26247 -5.67676 0
M  V30 4896 C 450.888 -3.1555 -6.05737 0
M  V30 4897 O 450.576 -4.23784 -6.83127 0
M  V30 4898 H 450.308 -0.0380082 -0.674931 0
M  V30 4899 H 452.862 -0.756631 -1.90956 0
M  V30 4900 H 451.092 1.04168 -3.72406 0
M  V30 4901 H 452.781 0.72167 -3.99433 0
M  V30 4902 H 453.547 -1.70061 -4.54207 0
M  V30 4903 H 449.426 -0.475159 -4.58545 0
M  V30 4904 H 452.97 -3.64778 -5.94628 0
M  V30 4905 H 448.867 -2.41379 -5.98671 0
M  V30 4906 H 449.635 -4.21701 -7.01506 0
M  V30 4907 N 452.299 1.55045 -0.282633 0
M  V30 4908 C 453.246 2.22822 0.601566 0
M  V30 4909 C 454.216 1.20431 1.14392 0
M  V30 4910 O 455.401 1.48996 1.19184 0
M  V30 4911 C 452.541 2.95873 1.77632 0
M  V30 4912 C 451.654 4.12999 1.26711 0
M  V30 4913 C 450.789 4.73676 2.40426 0
M  V30 4914 C 449.828 5.82981 1.86545 0
M  V30 4915 N 448.965 6.3769 2.93762 0
M  V30 4916 H 453.805 2.97995 0.0169528 0
M  V30 4917 H 451.342 1.471 -0.00339964 0
M  V30 4918 H 453.3 3.36447 2.46697 0
M  V30 4919 H 451.93 2.2311 2.33285 0
M  V30 4920 H 450.982 3.77494 0.469314 0
M  V30 4921 H 452.294 4.91803 0.832518 0
M  V30 4922 H 451.448 5.17008 3.17471 0
M  V30 4923 H 450.187 3.94164 2.87203 0
M  V30 4924 H 449.192 5.39092 1.07983 0
M  V30 4925 H 450.417 6.64366 1.40694 0
M  V30 4926 H 448.363 5.61069 3.39908 0
M  V30 4927 H 448.28 7.11788 2.54744 0
M  V30 4928 H 449.548 6.8568 3.7076 0
M  V30 4929 N 453.777 0.010035 1.57597 0
M  V30 4930 C 454.709 -1.00649 2.05918 0
M  V30 4931 C 455.722 -1.30077 0.978964 0
M  V30 4932 O 456.911 -1.26878 1.25556 0
M  V30 4933 C 454.011 -2.33876 2.45265 0
M  V30 4934 C 453.184 -2.23242 3.7614 0
M  V30 4935 C 452.243 -3.39242 4.02245 0
M  V30 4936 O 451.269 -3.1698 4.72771 0
M  V30 4937 N 452.471 -4.6242 3.50924 0
M  V30 4938 H 455.236 -0.594333 2.93748 0
M  V30 4939 H 452.797 -0.17714 1.60928 0
M  V30 4940 H 454.789 -3.1027 2.59836 0
M  V30 4941 H 453.359 -2.66799 1.62902 0
M  V30 4942 H 452.579 -1.31696 3.71551 0
M  V30 4943 H 453.867 -2.13321 4.61922 0
M  V30 4944 H 453.265 -4.83404 2.93832 0
M  V30 4945 H 451.822 -5.36046 3.70807 0
M  V30 4946 N 455.255 -1.55392 -0.262866 0
M  V30 4947 C 456.501 -1.76737 -0.99458 0
M  V30 4948 C 456.834 -0.572453 -1.85571 0
M  V30 4949 O 456.109 0.429732 -1.89693 0
M  V30 4950 C 456.392 -3.07824 -1.8686 0
M  V30 4951 C 456.245 -4.3769 -1.03672 0
M  V30 4952 C 457.564 -3.35021 -2.85393 0
M  V30 4953 H 454.683 -0.643005 -0.360157 0
M  V30 4954 H 457.325 -1.88126 -0.266216 0
M  V30 4955 H 455.475 -2.98245 -2.48962 0
M  V30 4956 H 457.147 -4.59238 -0.43563 0
M  V30 4957 H 455.39 -4.32461 -0.340513 0
M  V30 4958 H 456.061 -5.25759 -1.6817 0
M  V30 4959 H 458.537 -3.44458 -2.33426 0
M  V30 4960 H 457.413 -4.27989 -3.43681 0
M  V30 4961 H 457.674 -2.55153 -3.61039 0
M  V30 4962 N 456.733 0.527833 -1.48498 0
M  V30 4963 C 457.68 1.6322 -1.6318 0
M  V30 4964 C 458.65 1.59199 -0.473815 0
M  V30 4965 O 459.835 1.77591 -0.697563 0
M  V30 4966 C 456.975 3.01474 -1.67951 0
M  V30 4967 C 456.088 3.15713 -2.94871 0
M  V30 4968 C 455.223 4.44539 -2.90789 0
M  V30 4969 C 454.262 4.52315 -4.12404 0
M  V30 4970 N 453.399 5.72533 -4.06387 0
M  V30 4971 H 458.239 1.50011 -2.57489 0
M  V30 4972 H 455.776 0.730298 -1.27691 0
M  V30 4973 H 457.734 3.81572 -1.68698 0
M  V30 4974 H 456.364 3.1345 -0.771306 0
M  V30 4975 H 455.416 2.28854 -3.03859 0
M  V30 4976 H 456.728 3.1732 -3.8485 0
M  V30 4977 H 455.882 5.3293 -2.89949 0
M  V30 4978 H 454.621 4.45457 -1.98542 0
M  V30 4979 H 453.626 3.62331 -4.13517 0
M  V30 4980 H 454.851 4.53134 -5.05812 0
M  V30 4981 H 452.797 5.74344 -3.16962 0
M  V30 4982 H 452.714 5.75643 -4.90073 0
M  V30 4983 H 453.982 6.63204 -4.0961 0
M  V30 4984 N 458.211 1.37122 0.776871 0
M  V30 4985 C 459.143 1.28342 1.89897 0
M  V30 4986 C 460.156 0.200277 1.61563 0
M  V30 4987 O 461.345 0.456012 1.72577 0
M  V30 4988 C 458.445 0.960427 3.25006 0
M  V30 4989 C 457.618 2.148 3.81025 0
M  V30 4990 C 456.677 1.79608 4.94598 0
M  V30 4991 O 455.703 2.51845 5.10454 0
M  V30 4992 N 456.905 0.737171 5.758 0
M  V30 4993 H 459.67 2.25027 1.97947 0
M  V30 4994 H 457.231 1.3068 0.955739 0
M  V30 4995 H 459.223 0.705942 3.98495 0
M  V30 4996 H 457.793 0.0823066 3.12492 0
M  V30 4997 H 457.013 2.56454 2.99374 0
M  V30 4998 H 458.301 2.9411 4.15183 0
M  V30 4999 H 457.699 0.137637 5.65533 0
M  V30 5000 H 456.256 0.542534 6.49538 0
M  V30 5001 N 459.689 -1.00246 1.21608 0
M  V30 5002 C 460.619 -2.10921 1.00172 0
M  V30 5003 C 461.6 -1.69938 -0.0741587 0
M  V30 5004 O 462.785 -1.94009 0.0861753 0
M  V30 5005 C 459.915 -3.42618 0.568355 0
M  V30 5006 C 458.869 -3.97407 1.58909 0
M  V30 5007 C 458.195 -5.25038 1.01187 0
M  V30 5008 C 459.495 -4.2918 2.97661 0
M  V30 5009 H 461.189 -2.29112 1.92739 0
M  V30 5010 H 458.735 -1.10101 0.928102 0
M  V30 5011 H 460.688 -4.19444 0.405555 0
M  V30 5012 H 459.412 -3.24227 -0.392961 0
M  V30 5013 H 458.071 -3.22703 1.73949 0
M  V30 5014 H 457.719 -5.02982 0.0421965 0
M  V30 5015 H 457.419 -5.62661 1.6937 0
M  V30 5016 H 458.943 -6.04507 0.860448 0
M  V30 5017 H 460.357 -4.96839 2.86049 0
M  V30 5018 H 458.754 -4.77952 3.6288 0
M  V30 5019 H 459.824 -3.3735 3.48315 0
M  V30 5020 N 461.167 -1.02423 -1.1978 0
M  V30 5021 C 462.114 -0.601023 -2.22837 0
M  V30 5022 C 463.084 0.382801 -1.61629 0
M  V30 5023 O 464.269 0.280514 -1.88727 0
M  V30 5024 C 461.409 0.0467755 -3.45068 0
M  V30 5025 C 460.522 -0.98253 -4.20678 0
M  V30 5026 C 459.657 -0.304982 -5.30324 0
M  V30 5027 C 458.696 -1.32052 -5.97686 0
M  V30 5028 N 457.833 -0.669105 -6.98904 0
M  V30 5029 H 462.673 -1.48444 -2.58396 0
M  V30 5030 H 460.21 -0.742936 -1.2696 0
M  V30 5031 H 462.168 0.439556 -4.14878 0
M  V30 5032 H 460.798 0.893796 -3.10179 0
M  V30 5033 H 459.85 -1.49341 -3.49859 0
M  V30 5034 H 461.162 -1.75455 -4.66923 0
M  V30 5035 H 460.316 0.142893 -6.06532 0
M  V30 5036 H 459.055 0.499283 -4.85138 0
M  V30 5037 H 458.06 -1.7787 -5.20233 0
M  V30 5038 H 459.285 -2.1262 -6.44957 0
M  V30 5039 H 457.231 0.115152 -6.55899 0
M  V30 5040 H 457.148 -1.37908 -7.43315 0
M  V30 5041 H 458.416 -0.245076 -7.79115 0
M  V30 5042 N 462.645 1.35699 -0.801477 0
M  V30 5043 C 463.875 2.02862 -0.3912 0
M  V30 5044 C 464.283 1.60552 1.00099 0
M  V30 5045 O 463.626 0.796215 1.65548 0
M  V30 5046 C 463.688 3.57386 -0.389299 0
M  V30 5047 C 463.352 4.22943 -1.73113 0
M  V30 5048 C 464.349 4.44984 -2.68859 0
M  V30 5049 C 462.034 4.60167 -2.01373 0
M  V30 5050 C 464.028 5.03345 -3.91053 0
M  V30 5051 C 461.715 5.18243 -3.23832 0
M  V30 5052 C 462.713 5.39773 -4.1849 0
M  V30 5053 O 462.401 5.96626 -5.38788 0
M  V30 5054 H 462.133 0.657341 -0.157732 0
M  V30 5055 H 464.687 1.74407 -1.08496 0
M  V30 5056 H 462.917 3.85011 0.361031 0
M  V30 5057 H 464.606 4.059 -0.0020365 0
M  V30 5058 H 465.372 4.1661 -2.48316 0
M  V30 5059 H 461.251 4.42726 -1.28508 0
M  V30 5060 H 464.795 5.20065 -4.64949 0
M  V30 5061 H 460.692 5.46044 -3.44248 0
M  V30 5062 H 461.46 6.15082 -5.40015 0
M  V30 5063 N 464.123 0.554532 1.47522 0
M  V30 5064 C 465.369 0.0295227 2.02779 0
M  V30 5065 C 465.702 -1.31582 1.42828 0
M  V30 5066 O 464.977 -1.85561 0.582872 0
M  V30 5067 C 465.26 -0.0664057 3.60039 0
M  V30 5068 C 465.113 1.30585 4.30427 0
M  V30 5069 C 466.432 -0.781162 4.33112 0
M  V30 5070 H 463.551 0.0122027 0.736899 0
M  V30 5071 H 466.193 0.716305 1.7598 0
M  V30 5072 H 464.343 -0.651307 3.83002 0
M  V30 5073 H 466.015 1.93374 4.18813 0
M  V30 5074 H 464.258 1.88125 3.90886 0
M  V30 5075 H 464.929 1.19147 5.38988 0
M  V30 5076 H 467.405 -0.284565 4.15126 0
M  V30 5077 H 466.281 -0.817237 5.42782 0
M  V30 5078 H 466.542 -1.83672 4.0214 0
M  V30 5079 N 465.601 -1.54893 0.290851 0
M  V30 5080 C 466.849 -1.99538 -0.320756 0
M  V30 5081 C 467.17 -1.18075 -1.55188 0
M  V30 5082 O 466.44 -0.274162 -1.93972 0
M  V30 5083 H 465.02 -0.737052 -0.121507 0
M  V30 5084 H 467.682 -1.90755 0.399832 0
M  V30 5085 H 466.778 -3.06282 -0.599802 0
M  V30 5086 N 467.08 -0.0183926 -1.57589 0
M  V30 5087 C 468.013 1.00148 -2.0505 0
M  V30 5088 C 468.991 1.32387 -0.944058 0
M  V30 5089 O 470.175 1.44237 -1.21358 0
M  V30 5090 C 467.302 2.32435 -2.46357 0
M  V30 5091 C 466.348 2.15731 -3.67916 0
M  V30 5092 S 467.181 1.46613 -5.15039 0
M  V30 5093 C 468.337 2.80293 -5.59631 0
M  V30 5094 H 468.57 0.597429 -2.91235 0
M  V30 5095 H 466.103 0.193002 -1.53189 0
M  V30 5096 H 468.061 3.0849 -2.70822 0
M  V30 5097 H 466.722 2.69975 -1.60537 0
M  V30 5098 H 465.915 3.13502 -3.9463 0
M  V30 5099 H 465.517 1.4782 -3.43548 0
M  V30 5100 H 467.809 3.76557 -5.63215 0
M  V30 5101 H 468.752 2.58256 -6.59325 0
M  V30 5102 H 469.16 2.85047 -4.87246 0
M  V30 5103 N 468.558 1.5553 0.254621 0
M  V30 5104 C 469.804 1.77262 0.985193 0
M  V30 5105 C 470.137 0.582286 1.85265 0
M  V30 5106 O 469.412 -0.419666 1.89919 0
M  V30 5107 C 469.695 3.0881 1.85225 0
M  V30 5108 C 469.548 4.38233 1.0135 0
M  V30 5109 C 470.867 3.3653 2.83612 0
M  V30 5110 H 467.986 0.644906 0.356742 0
M  V30 5111 H 470.628 1.88264 0.256236 0
M  V30 5112 H 468.778 2.99562 2.47376 0
M  V30 5113 H 470.45 4.59463 0.411269 0
M  V30 5114 H 468.693 4.32636 0.317574 0
M  V30 5115 H 469.364 5.26644 1.65379 0
M  V30 5116 H 471.84 3.45691 2.31596 0
M  V30 5117 H 470.716 4.29805 3.41407 0
M  V30 5118 H 470.977 2.57064 3.59681 0
M  V30 5119 N 470.036 -0.519951 1.48776 0
M  V30 5120 C 470.966 -1.63253 1.66945 0
M  V30 5121 C 471.947 -1.62014 0.518224 0
M  V30 5122 O 473.132 -1.79053 0.751919 0
M  V30 5123 C 470.262 -3.0181 1.71836 0
M  V30 5124 C 469.216 -3.17911 2.8656 0
M  V30 5125 C 468.542 -4.5763 2.76548 0
M  V30 5126 C 469.842 -2.99729 4.27738 0
M  V30 5127 H 471.536 -1.48302 2.6009 0
M  V30 5128 H 469.082 -0.712026 1.25165 0
M  V30 5129 H 471.035 -3.79525 1.83135 0
M  V30 5130 H 469.759 -3.17806 0.752775 0
M  V30 5131 H 468.418 -2.42616 2.74833 0
M  V30 5132 H 468.066 -4.70476 1.77937 0
M  V30 5133 H 467.766 -4.69346 3.53536 0
M  V30 5134 H 469.29 -5.37431 2.89828 0
M  V30 5135 H 470.704 -3.67228 4.40246 0
M  V30 5136 H 469.101 -3.22932 5.05801 0
M  V30 5137 H 470.171 -1.96047 4.43502 0
M  V30 5138 N 471.514 -1.37532 -0.769588 0
M  V30 5139 C 472.462 -1.33561 -1.90432 0
M  V30 5140 C 473.456 -0.224027 -1.67912 0
M  V30 5141 O 474.662 -0.392174 -1.75676 0
M  V30 5142 H 471.037 -0.416279 -0.626271 0
M  V30 5143 H 473.008 -2.29348 -1.90899 0
M  V30 5144 C 471.757 -1.16162 -3.27722 0
M  V30 5145 H 471.08 -2.00951 -3.45628 0
M  V30 5146 H 472.52 -1.17434 -4.07413 0
M  V30 5147 C 470.979 0.132583 -3.36639 0
M  V30 5148 O 471.509 1.11539 -3.85904 0
M  V30 5149 N 469.715 0.184013 -2.90017 0
M  V30 5150 H 469.262 -0.616415 -2.50116 0
M  V30 5151 H 469.22 1.04956 -2.96364 0
M  V30 5152 N 472.992 0.995999 -1.22138 0
M  V30 5153 C 473.902 2.11985 -1.00496 0
M  V30 5154 C 474.918 1.7394 0.0457701 0
M  V30 5155 O 476.094 2.00868 -0.146273 0
M  V30 5156 C 473.159 3.41779 -0.582086 0
M  V30 5157 C 472.22 3.93943 -1.70608 0
M  V30 5158 C 471.453 5.17542 -1.30328 0
M  V30 5159 O 471.676 5.70114 -0.180743 0
M  V30 5160 O 470.61 5.63382 -2.11861 0
M  V30 5161 H 474.436 2.33123 -1.94647 0
M  V30 5162 H 472.021 1.10358 -1.00705 0
M  V30 5163 H 473.903 4.1989 -0.356467 0
M  V30 5164 H 472.578 3.22007 0.330592 0
M  V30 5165 H 471.485 3.17019 -1.98619 0
M  V30 5166 H 472.818 4.18141 -2.59651 0
M  V30 5167 N 474.47 1.03057 1.19235 0
M  V30 5168 C 475.433 0.617418 2.20727 0
M  V30 5169 C 476.433 -0.319856 1.57587 0
M  V30 5170 O 477.623 -0.106633 1.73873 0
M  V30 5171 C 474.755 -0.096296 3.40764 0
M  V30 5172 H 475.948 1.51544 2.58794 0
M  V30 5173 H 473.501 0.821949 1.32942 0
M  V30 5174 H 474.236 -1.00859 3.08217 0
M  V30 5175 H 474.021 0.577217 3.87828 0
M  V30 5176 H 475.511 -0.372219 4.15938 0
M  V30 5177 N 475.948 -1.35272 0.808662 0
M  V30 5178 C 476.878 -2.32315 0.234981 0
M  V30 5179 C 477.859 -1.57572 -0.64071 0
M  V30 5180 O 479.044 -1.8563 -0.570551 0
M  V30 5181 C 476.174 -3.41801 -0.615601 0
M  V30 5182 C 475.128 -4.27694 0.161767 0
M  V30 5183 C 474.454 -5.28519 -0.810649 0
M  V30 5184 C 475.754 -5.04231 1.36193 0
M  V30 5185 H 477.448 -2.80543 1.04575 0
M  V30 5186 H 474.994 -1.3488 0.504315 0
M  V30 5187 H 476.947 -4.08693 -1.02702 0
M  V30 5188 H 475.671 -2.92186 -1.45928 0
M  V30 5189 H 474.33 -3.62384 0.554382 0
M  V30 5190 H 473.978 -4.75171 -1.64988 0
M  V30 5191 H 473.678 -5.8686 -0.294822 0
M  V30 5192 H 475.202 -5.98283 -1.22023 0
M  V30 5193 H 476.616 -5.64058 1.02528 0
M  V30 5194 H 475.013 -5.72077 1.81239 0
M  V30 5195 H 476.083 -4.34753 2.14751 0
M  V30 5196 N 477.426 -0.562348 -1.47226 0
M  V30 5197 C 478.842 -0.222492 -1.58042 0
M  V30 5198 C 479.042 1.27505 -1.56028 0
M  V30 5199 O 478.098 2.05555 -1.46641 0
M  V30 5200 C 479.411 -0.853694 -2.88327 0
M  V30 5201 C 480.959 -0.825397 -3.01921 0
M  V30 5202 C 481.434 -1.43576 -4.34914 0
M  V30 5203 N 482.925 -1.39918 -4.41562 0
M  V30 5204 C 483.66 -1.84103 -5.43041 0
M  V30 5205 N 483.156 -2.36167 -6.51304 0
M  V30 5206 N 484.949 -1.75142 -5.34118 0
M  V30 5207 H 477.1 -1.53525 -1.46778 0
M  V30 5208 H 479.363 -0.640527 -0.698877 0
M  V30 5209 H 479.069 -1.90635 -2.95552 0
M  V30 5210 H 478.943 -0.34977 -3.75575 0
M  V30 5211 H 481.33 0.218583 -2.94289 0
M  V30 5212 H 481.411 -1.36713 -2.16202 0
M  V30 5213 H 481.055 -2.47884 -4.43301 0
M  V30 5214 H 480.985 -0.869427 -5.19373 0
M  V30 5215 H 483.476 -1.0184 -3.63919 0
M  V30 5216 H 483.789 -2.67793 -7.24919 0
M  V30 5217 H 482.134 -2.40181 -6.52179 0
M  V30 5218 H 485.325 -1.34241 -4.48439 0
M  V30 5219 H 485.498 -2.09895 -6.13065 0
M  V30 5220 N 478.904 1.54736 -0.299062 0
M  V30 5221 C 479.834 2.26409 0.571085 0
M  V30 5222 C 480.815 1.2629 1.13951 0
M  V30 5223 O 482 1.55059 1.16921 0
M  V30 5224 C 479.13 3.00338 1.74396 0
M  V30 5225 C 478.084 4.07588 1.30599 0
M  V30 5226 C 477.41 4.69222 2.56387 0
M  V30 5227 C 478.71 5.20455 0.438645 0
M  V30 5228 H 480.404 2.99388 -0.0266991 0
M  V30 5229 H 477.95 1.43993 -0.0142812 0
M  V30 5230 H 479.903 3.49198 2.35878 0
M  V30 5231 H 478.627 2.24934 2.36796 0
M  V30 5232 H 477.286 3.59575 0.71424 0
M  V30 5233 H 476.934 3.9046 3.17097 0
M  V30 5234 H 476.634 5.41653 2.27784 0
M  V30 5235 H 478.158 5.20844 3.18675 0
M  V30 5236 H 479.572 5.65221 0.959085 0
M  V30 5237 H 477.969 5.99594 0.246466 0
M  V30 5238 H 479.039 4.8192 -0.536738 0
M  V30 5239 N 480.382 0.0267497 1.57577 0
M  V30 5240 C 481.628 -0.647596 1.92815 0
M  V30 5241 C 481.983 -1.69872 0.903396 0
M  V30 5242 O 481.276 -1.91429 -0.0808881 0
M  V30 5243 C 481.47 -1.30914 3.3256 0
M  V30 5244 C 481.299 -0.323621 4.48534 0
M  V30 5245 C 480.069 0.0756607 5.05243 0
M  V30 5246 C 482.267 0.42112 5.12573 0
M  V30 5247 N 480.249 1.0566 6.04739 0
M  V30 5248 C 481.62 1.25589 6.07147 0
M  V30 5249 C 483.675 0.482077 4.95561 0
M  V30 5250 C 482.378 2.1461 6.86538 0
M  V30 5251 C 484.404 1.35962 5.75559 0
M  V30 5252 C 483.766 2.18217 6.69747 0
M  V30 5253 H 479.865 -0.209357 0.753454 0
M  V30 5254 H 482.449 0.0933695 1.94476 0
M  V30 5255 H 480.62 -2.02026 3.31723 0
M  V30 5256 H 482.352 -1.94033 3.55153 0
M  V30 5257 H 479.107 -0.298294 4.7266 0
M  V30 5258 H 479.531 1.54324 6.59176 0
M  V30 5259 H 484.173 -0.139609 4.22569 0
M  V30 5260 H 481.891 2.77835 7.58837 0
M  V30 5261 H 485.477 1.41105 5.6443 0
M  V30 5262 H 484.357 2.85022 7.3057 0
M  V30 5263 N 481.861 -1.55662 -0.24637 0
M  V30 5264 C 483.272 -1.67953 -0.81539 0
M  V30 5265 C 483.623 -0.624302 -1.86002 0
M  V30 5266 O 482.748 0.229328 -2.15181 0
M  V30 5267 C 483.343 -3.04484 -1.48576 0
M  V30 5268 C 481.902 -3.18713 -2.00248 0
M  V30 5269 C 481.049 -2.6383 -0.853766 0
M  V30 5270 H 484 -1.58685 -0.0221692 0
M  V30 5271 H 484.021 -2.98959 -2.3538 0
M  V30 5272 H 483.533 -3.81264 -0.725222 0
M  V30 5273 H 481.634 -2.46757 -2.79181 0
M  V30 5274 H 481.747 -4.25628 -2.1995 0
M  V30 5275 H 480.111 -2.21667 -1.25442 0
M  V30 5276 H 480.894 -3.43135 -0.106302 0
M  V30 5277 N 483.339 0.512053 -1.4905 0
M  V30 5278 C 484.567 1.29116 -1.61669 0
M  V30 5279 C 484.982 1.86655 -0.283787 0
M  V30 5280 O 484.339 1.67293 0.729331 0
M  V30 5281 C 484.39 2.4293 -2.67707 0
M  V30 5282 O 484.111 1.87758 -3.95826 0
M  V30 5283 C 485.612 3.34476 -2.90931 0
M  V30 5284 H 482.832 0.392009 -0.544583 0
M  V30 5285 H 485.376 0.615881 -1.95006 0
M  V30 5286 H 483.531 3.06308 -2.37179 0
M  V30 5287 H 483.945 2.62393 -4.54148 0
M  V30 5288 H 485.419 4.10642 -3.68886 0
M  V30 5289 H 485.896 3.90801 -2.00427 0
M  V30 5290 H 486.502 2.76874 -3.22832 0
M  V30 5291 N 484.817 1.37938 0.762283 0
M  V30 5292 C 485.78 1.34279 1.85747 0
M  V30 5293 C 486.78 0.244969 1.58923 0
M  V30 5294 O 487.97 0.501365 1.66829 0
M  V30 5295 C 485.102 1.08833 3.23061 0
M  V30 5296 H 486.295 2.31705 1.90401 0
M  V30 5297 H 483.848 1.23105 0.963057 0
M  V30 5298 H 484.583 0.119767 3.24079 0
M  V30 5299 H 484.368 1.88306 3.43923 0
M  V30 5300 H 485.858 1.08946 4.03138 0
M  V30 5301 N 486.295 -0.989507 1.22664 0
M  V30 5302 C 487.706 -1.54406 1.04955 0
M  V30 5303 C 488.057 -1.92366 -0.385951 0
M  V30 5304 O 487.182 -1.75111 -1.27142 0
M  V30 5305 C 487.777 -2.80578 1.89899 0
M  V30 5306 C 486.336 -3.32464 1.76478 0
M  V30 5307 C 485.483 -2.05524 1.86159 0
M  V30 5308 H 488.434 -0.810211 1.3646 0
M  V30 5309 H 488.455 -3.53075 1.4184 0
M  V30 5310 H 487.967 -2.52918 2.94371 0
M  V30 5311 H 486.068 -3.65024 0.747528 0
M  V30 5312 H 486.181 -4.02838 2.59342 0
M  V30 5313 H 484.545 -2.19241 1.29636 0
M  V30 5314 H 485.328 -1.80258 2.92168 0
M  V30 5315 N 487.773 -1.03688 -1.18687 0
M  V30 5316 C 488.736 -0.629115 -2.20397 0
M  V30 5317 C 489.736 0.311495 -1.57754 0
M  V30 5318 O 490.926 0.0974107 -1.73927 0
M  V30 5319 C 488.058 0.0782231 -3.4081 0
M  V30 5320 H 489.251 -1.52915 -2.57987 0
M  V30 5321 H 486.804 -0.828988 -1.32505 0
M  V30 5322 H 487.539 0.992233 -3.08748 0
M  V30 5323 H 487.324 -0.597776 -3.87517 0
M  V30 5324 H 488.814 0.350156 -4.16129 0
M  V30 5325 N 489.251 1.34841 -0.815825 0
M  V30 5326 C 490.498 1.98499 -0.400535 0
M  V30 5327 C 490.826 1.64699 1.03463 0
M  V30 5328 O 490.081 0.907006 1.73412 0
M  V30 5329 C 490.38 3.53273 -0.541541 0
M  V30 5330 C 490.046 4.06966 -1.94138 0
M  V30 5331 C 488.708 4.21341 -2.32433 0
M  V30 5332 C 491.06 4.35933 -2.85677 0
M  V30 5333 C 488.388 4.62007 -3.61617 0
M  V30 5334 C 490.74 4.78042 -4.14317 0
M  V30 5335 C 489.404 4.90622 -4.52599 0
M  V30 5336 H 488.674 0.72636 -0.146566 0
M  V30 5337 H 491.321 1.60902 -1.0384 0
M  V30 5338 H 489.626 3.91387 0.179741 0
M  V30 5339 H 491.323 4.00497 -0.20085 0
M  V30 5340 H 487.913 3.96235 -1.63388 0
M  V30 5341 H 492.097 4.24372 -2.57337 0
M  V30 5342 H 487.353 4.69937 -3.91113 0
M  V30 5343 H 491.527 4.99415 -4.85342 0
M  V30 5344 H 489.154 5.2189 -5.52752 0
M  V30 5345 N 490.729 0.570148 1.46925 0
M  V30 5346 C 491.954 0.0542592 2.07329 0
M  V30 5347 C 492.379 -1.23582 1.41806 0
M  V30 5348 O 491.737 -1.74341 0.497479 0
M  V30 5349 C 491.785 -0.111175 3.60429 0
M  V30 5350 O 490.889 -1.17071 3.95434 0
M  V30 5351 H 490.23 0.0571425 0.661537 0
M  V30 5352 H 492.76 0.789516 1.88753 0
M  V30 5353 H 492.77 -0.321315 4.06733 0
M  V30 5354 H 491.445 0.831012 4.07513 0
M  V30 5355 H 490.022 -0.940029 3.60857 0
M  V30 5356 N 492.207 -1.54576 0.307264 0
M  V30 5357 C 493.137 -2.26708 -0.55907 0
M  V30 5358 C 494.118 -1.26893 -1.1328 0
M  V30 5359 O 495.303 -1.55677 -1.16097 0
M  V30 5360 C 492.433 -3.01259 -1.72801 0
M  V30 5361 C 491.387 -4.08275 -1.28435 0
M  V30 5362 C 490.713 -4.70575 -2.53895 0
M  V30 5363 C 492.013 -5.2068 -0.411038 0
M  V30 5364 H 493.707 -2.9937 0.042576 0
M  V30 5365 H 491.253 -1.43983 0.0219173 0
M  V30 5366 H 493.206 -3.50444 -2.34023 0
M  V30 5367 H 491.93 -2.26187 -2.356 0
M  V30 5368 H 490.589 -3.59949 -0.695161 0
M  V30 5369 H 490.237 -3.92136 -3.15021 0
M  V30 5370 H 489.937 -5.42854 -2.24908 0
M  V30 5371 H 491.461 -5.22527 -3.15908 0
M  V30 5372 H 492.875 -5.65721 -0.929097 0
M  V30 5373 H 491.272 -5.99716 -0.214664 0
M  V30 5374 H 492.342 -4.81629 0.562287 0
M  V30 5375 N 493.685 -0.035106 -1.57561 0
M  V30 5376 C 494.915 0.651312 -1.96065 0
M  V30 5377 C 495.323 1.6585 -0.910514 0
M  V30 5378 O 494.666 1.83336 0.11552 0
M  V30 5379 C 494.728 1.40897 -3.30739 0
M  V30 5380 C 494.392 0.559436 -4.53563 0
M  V30 5381 C 495.389 -0.16778 -5.19629 0
M  V30 5382 C 493.074 0.495079 -4.99854 0
M  V30 5383 C 495.068 -0.947963 -6.30311 0
M  V30 5384 C 492.755 -0.288804 -6.10417 0
M  V30 5385 C 493.753 -1.00903 -6.75505 0
M  V30 5386 O 493.441 -1.78005 -7.83945 0
M  V30 5387 H 493.173 0.184036 -0.650467 0
M  V30 5388 H 495.727 -0.0929677 -2.05189 0
M  V30 5389 H 493.957 2.19852 -3.18123 0
M  V30 5390 H 495.646 1.98407 -3.54104 0
M  V30 5391 H 496.412 -0.12743 -4.84833 0
M  V30 5392 H 492.291 1.04524 -4.48994 0
M  V30 5393 H 495.835 -1.51064 -6.81047 0
M  V30 5394 H 491.732 -0.33085 -6.44652 0
M  V30 5395 H 492.5 -1.70046 -8.00641 0
M  V30 5396 N 495.163 1.55791 0.238111 0
M  V30 5397 C 496.126 1.90239 1.27835 0
M  V30 5398 C 497.126 0.779552 1.4064 0
M  V30 5399 O 498.316 1.04747 1.3919 0
M  V30 5400 C 495.448 2.13859 2.65475 0
M  V30 5401 H 496.641 2.83262 0.985034 0
M  V30 5402 H 494.194 1.48818 0.477799 0
M  V30 5403 H 494.929 1.23334 2.99932 0
M  V30 5404 H 494.714 2.95643 2.57561 0
M  V30 5405 H 496.204 2.41664 3.40571 0
M  V30 5406 N 496.642 -0.504142 1.49319 0
M  V30 5407 C 497.589 -1.60603 1.65756 0
M  V30 5408 C 498.559 -1.58425 0.499082 0
M  V30 5409 O 499.744 -1.76459 0.725728 0
M  V30 5410 C 496.884 -2.98764 1.72726 0
M  V30 5411 C 495.997 -3.10982 2.99857 0
M  V30 5412 C 495.132 -4.39857 2.97824 0
M  V30 5413 C 494.171 -4.45697 4.19548 0
M  V30 5414 N 493.308 -5.65995 4.15444 0
M  V30 5415 H 498.148 -1.45895 2.59843 0
M  V30 5416 H 495.685 -0.709891 1.28837 0
M  V30 5417 H 497.643 -3.78839 1.74747 0
M  V30 5418 H 496.273 -3.12183 0.821075 0
M  V30 5419 H 495.325 -2.23991 3.07461 0
M  V30 5420 H 496.637 -3.11157 3.89849 0
M  V30 5421 H 495.791 -5.2825 2.98391 0
M  V30 5422 H 494.53 -4.42242 2.05604 0
M  V30 5423 H 493.535 -3.55707 4.19229 0
M  V30 5424 H 494.76 -4.4503 5.12957 0
M  V30 5425 H 492.706 -5.69229 3.26059 0
M  V30 5426 H 492.623 -5.67773 4.99169 0
M  V30 5427 H 493.891 -6.56604 4.20109 0
M  V30 5428 N 498.12 -1.38341 -0.754957 0
M  V30 5429 C 499.03 -1.3769 -1.89944 0
M  V30 5430 C 500.046 -0.274194 -1.71826 0
M  V30 5431 O 501.222 -0.512391 -1.94773 0
M  V30 5432 C 498.287 -1.19938 -3.25293 0
M  V30 5433 C 497.348 -2.40001 -3.55946 0
M  V30 5434 C 496.581 -2.23087 -4.84838 0
M  V30 5435 O 496.804 -1.22386 -5.57116 0
M  V30 5436 O 495.738 -3.11646 -5.14937 0
M  V30 5437 H 499.564 -2.3412 -1.93446 0
M  V30 5438 H 497.149 -1.19246 -0.900044 0
M  V30 5439 H 499.031 -1.12093 -4.06218 0
M  V30 5440 H 497.706 -0.265919 -3.22606 0
M  V30 5441 H 496.613 -2.53421 -2.75188 0
M  V30 5442 H 497.946 -3.31973 -3.63394 0
M  V30 5443 N 499.598 0.982988 -1.23187 0
M  V30 5444 C 500.875 1.69814 -0.970707 0
M  V30 5445 C 501.255 2.04811 0.511424 0
M  V30 5446 O 500.603 1.73924 1.48198 0
M  V30 5447 C 500.813 2.94143 -1.87831 0
M  V30 5448 C 502.161 3.66712 -2.14026 0
M  V30 5449 O 503.185 3.04171 -1.8536 0
M  V30 5450 O 502.044 4.79258 -2.62629 0
M  V30 5451 H 499.138 0.741659 -0.365884 0
M  V30 5452 H 501.684 1.03844 -1.34218 0
M  V30 5453 H 500.456 2.64858 -2.88038 0
M  V30 5454 H 500.079 3.6785 -1.50905 0
M  V30 5455 N 501.076 1.04316 1.18135 0
M  V30 5456 C 502.304 0.768117 1.92113 0
M  V30 5457 C 502.719 -0.675057 1.76319 0
M  V30 5458 O 502.076 -1.46038 1.09449 0
M  V30 5459 C 502.127 1.12808 3.43448 0
M  V30 5460 O 501.848 2.5146 3.58747 0
M  V30 5461 C 503.349 0.8779 4.3452 0
M  V30 5462 H 500.569 0.279937 0.609817 0
M  V30 5463 H 503.113 1.39149 1.49859 0
M  V30 5464 H 501.268 0.549623 3.83481 0
M  V30 5465 H 501.682 2.65313 4.52448 0
M  V30 5466 H 503.156 1.17959 5.39249 0
M  V30 5467 H 503.633 -0.187239 4.38801 0
M  V30 5468 H 504.239 1.43977 4.00188 0
M  V30 5469 N 502.554 -1.34406 0.822964 0
M  V30 5470 C 503.8 -1.98578 0.411666 0
M  V30 5471 C 504.133 -1.65093 -1.02264 0
M  V30 5472 O 503.408 -0.92258 -1.71227 0
M  V30 5473 C 503.691 -3.54823 0.614235 0
M  V30 5474 C 503.544 -3.9805 2.09466 0
M  V30 5475 C 504.863 -4.40071 0.050221 0
M  V30 5476 H 501.982 -0.721355 0.151047 0
M  V30 5477 H 504.624 -1.59301 1.03554 0
M  V30 5478 H 502.774 -3.88411 0.0831774 0
M  V30 5479 H 504.446 -3.74795 2.68936 0
M  V30 5480 H 502.689 -3.4836 2.5851 0
M  V30 5481 H 503.36 -5.06819 2.18721 0
M  V30 5482 H 505.836 -4.13037 0.503953 0
M  V30 5483 H 504.712 -5.48452 0.221759 0
M  V30 5484 H 504.973 -4.29576 -1.04482 0
M  V30 5485 N 504.032 -0.577932 -1.46621 0
M  V30 5486 C 504.962 0.145917 -2.33044 0
M  V30 5487 C 505.943 0.888412 -1.45056 0
M  V30 5488 O 507.128 0.864812 -1.73881 0
M  V30 5489 C 504.258 1.16322 -3.27241 0
M  V30 5490 C 503.212 0.535868 -4.24632 0
M  V30 5491 C 502.538 1.65929 -5.08303 0
M  V30 5492 C 503.838 -0.523861 -5.19666 0
M  V30 5493 H 505.532 -0.575636 -2.93814 0
M  V30 5494 H 503.078 -0.278272 -1.41286 0
M  V30 5495 H 505.031 1.67793 -3.86553 0
M  V30 5496 H 503.755 1.91498 -2.64567 0
M  V30 5497 H 502.414 0.0422759 -3.66576 0
M  V30 5498 H 502.062 2.40061 -4.42018 0
M  V30 5499 H 501.762 1.2452 -5.74255 0
M  V30 5500 H 503.286 2.17686 -5.70478 0
M  V30 5501 H 504.7 -0.0944059 -5.73222 0
M  V30 5502 H 503.097 -0.858 -5.93935 0
M  V30 5503 H 504.167 -1.41197 -4.63887 0
M  V30 5504 N 505.51 1.54411 -0.315457 0
M  V30 5505 C 506.758 2.00023 0.288971 0
M  V30 5506 C 507.079 1.20529 1.5329 0
M  V30 5507 O 506.349 0.304986 1.93511 0
M  V30 5508 H 504.929 0.738891 0.109766 0
M  V30 5509 H 507.591 1.90094 -0.430129 0
M  V30 5510 H 506.687 3.07198 0.550999 0
M  V30 5511 N 506.988 0.0434614 1.5754 0
M  V30 5512 C 508.236 -0.630786 1.92004 0
M  V30 5513 C 508.557 -1.71836 0.921807 0
M  V30 5514 O 507.827 -1.9587 -0.034522 0
M  V30 5515 H 506.407 -0.235988 0.708745 0
M  V30 5516 H 509.069 0.0946462 1.9467 0
M  V30 5517 H 508.165 -1.07434 2.93026 0
M  V30 5518 N 508.466 -1.55915 -0.229846 0
M  V30 5519 C 509.376 -1.94891 -1.30593 0
M  V30 5520 C 510.392 -0.851604 -1.51736 0
M  V30 5521 O 511.568 -1.15447 -1.65027 0
M  V30 5522 C 508.633 -2.25052 -2.63728 0
M  V30 5523 C 507.694 -3.48306 -2.5096 0
M  V30 5524 C 506.927 -3.77019 -3.77747 0
M  V30 5525 O 507.15 -3.07534 -4.80395 0
M  V30 5526 O 506.084 -4.70523 -3.75356 0
M  V30 5527 H 509.91 -2.86581 -1.00525 0
M  V30 5528 H 507.495 -1.43017 -0.432025 0
M  V30 5529 H 509.377 -2.45682 -3.42372 0
M  V30 5530 H 508.052 -1.36538 -2.93495 0
M  V30 5531 H 506.959 -3.32964 -1.70546 0
M  V30 5532 H 508.292 -4.37177 -2.26136 0
M  V30 5533 N 509.944 0.496216 -1.49584 0
M  V30 5534 C 511.174 1.27209 -1.62793 0
M  V30 5535 C 511.582 1.86799 -0.300476 0
M  V30 5536 O 510.925 1.68802 0.724674 0
M  V30 5537 C 510.987 2.43812 -2.64189 0
M  V30 5538 C 510.651 2.05055 -4.08414 0
M  V30 5539 C 511.648 1.58752 -4.9507 0
M  V30 5540 C 509.333 2.14543 -4.54177 0
M  V30 5541 C 511.327 1.22448 -6.25528 0
M  V30 5542 C 509.014 1.77851 -5.84647 0
M  V30 5543 C 510.012 1.31878 -6.70147 0
M  V30 5544 O 509.7 0.956834 -7.98185 0
M  V30 5545 H 509.432 0.391848 -0.550846 0
M  V30 5546 H 511.986 0.601712 -1.96389 0
M  V30 5547 H 510.216 3.13941 -2.25783 0
M  V30 5548 H 511.905 3.05829 -2.66877 0
M  V30 5549 H 512.671 1.50863 -4.60939 0
M  V30 5550 H 508.55 2.49277 -3.87791 0
M  V30 5551 H 512.094 0.864933 -6.92217 0
M  V30 5552 H 507.991 1.8539 -6.18305 0
M  V30 5553 H 508.759 1.08789 -8.11238 0
M  V30 5554 N 511.423 1.38739 0.74761 0
M  V30 5555 C 512.834 1.31507 1.32524 0
M  V30 5556 C 513.185 -0.0263963 1.96182 0
M  V30 5557 O 512.31 -0.92849 1.95469 0
M  V30 5558 C 512.905 2.38162 2.40966 0
M  V30 5559 C 511.464 2.34489 2.94434 0
M  V30 5560 C 510.611 2.20712 1.67873 0
M  V30 5561 H 513.562 1.4901 0.546043 0
M  V30 5562 H 513.583 2.04222 3.21051 0
M  V30 5563 H 513.095 3.35783 1.94605 0
M  V30 5564 H 511.196 1.40467 3.45108 0
M  V30 5565 H 511.309 3.28861 3.48407 0
M  V30 5566 H 509.673 1.67667 1.91729 0
M  V30 5567 H 510.456 3.20285 1.23582 0
M  V30 5568 N 512.901 -0.976442 1.23707 0
M  V30 5569 C 513.831 -2.08749 1.04624 0
M  V30 5570 C 514.812 -1.70057 -0.0380956 0
M  V30 5571 O 515.997 -1.93782 0.127308 0
M  V30 5572 C 513.127 -3.41335 0.640902 0
M  V30 5573 C 512.081 -3.93947 1.67302 0
M  V30 5574 C 511.407 -5.22774 1.12301 0
M  V30 5575 C 512.707 -4.22769 3.06697 0
M  V30 5576 H 514.401 -2.24972 1.97555 0
M  V30 5577 H 511.947 -1.08108 0.951247 0
M  V30 5578 H 513.9 -4.18489 0.494434 0
M  V30 5579 H 512.624 -3.24988 -0.324099 0
M  V30 5580 H 511.283 -3.18941 1.80755 0
M  V30 5581 H 510.931 -5.0278 0.148877 0
M  V30 5582 H 510.631 -5.58942 1.81267 0
M  V30 5583 H 512.155 -6.02546 0.988479 0
M  V30 5584 H 513.569 -4.90659 2.96524 0
M  V30 5585 H 511.966 -4.70147 3.72937 0
M  V30 5586 H 513.036 -3.29885 3.55392 0
M  V30 5587 N 514.379 -1.04941 -1.1758 0
M  V30 5588 C 515.289 -0.658826 -2.25159 0
M  V30 5589 C 516.305 0.318941 -1.71052 0
M  V30 5590 O 517.481 0.171669 -2.00667 0
M  V30 5591 C 514.546 -0.0369522 -3.4668 0
M  V30 5592 C 513.607 -1.06484 -4.15884 0
M  V30 5593 C 512.84 -0.472551 -5.31604 0
M  V30 5594 O 513.063 0.718736 -5.65854 0
M  V30 5595 O 511.997 -1.20557 -5.89703 0
M  V30 5596 H 515.823 -1.55533 -2.60851 0
M  V30 5597 H 513.408 -0.820819 -1.24832 0
M  V30 5598 H 515.29 0.308784 -4.20267 0
M  V30 5599 H 513.965 0.833238 -3.12792 0
M  V30 5600 H 512.872 -1.46253 -3.44327 0
M  V30 5601 H 514.205 -1.9061 -4.53794 0
M  V30 5602 N 515.857 1.33968 -0.830081 0
M  V30 5603 C 516.804 2.29387 -0.255008 0
M  V30 5604 C 517.774 1.53923 0.624243 0
M  V30 5605 O 518.959 1.82262 0.564372 0
M  V30 5606 C 516.099 3.4034 0.571209 0
M  V30 5607 C 515.212 4.30729 -0.331083 0
M  V30 5608 C 514.347 5.2879 0.505389 0
M  V30 5609 C 513.386 6.10819 -0.395843 0
M  V30 5610 N 512.523 7.00948 0.401979 0
M  V30 5611 H 517.363 2.77972 -1.07404 0
M  V30 5612 H 514.9 1.36785 -0.541133 0
M  V30 5613 H 516.858 4.03361 1.06562 0
M  V30 5614 H 515.488 2.9297 1.35529 0
M  V30 5615 H 514.54 3.68507 -0.943759 0
M  V30 5616 H 515.852 4.88181 -1.02377 0
M  V30 5617 H 515.006 5.97297 1.06399 0
M  V30 5618 H 513.745 4.71894 1.23155 0
M  V30 5619 H 512.75 5.41238 -0.966529 0
M  V30 5620 H 513.975 6.69797 -1.12023 0
M  V30 5621 H 511.921 6.46512 1.11168 0
M  V30 5622 H 511.838 7.55643 -0.232167 0
M  V30 5623 H 513.106 7.73774 0.943102 0
M  V30 5624 N 517.335 0.585699 1.46312 0
M  V30 5625 C 518.583 0.072278 2.01971 0
M  V30 5626 C 518.904 -1.29345 1.45928 0
M  V30 5627 O 518.174 -1.84973 0.645109 0
M  V30 5628 H 516.754 0.023729 0.746623 0
M  V30 5629 H 519.416 0.762155 1.7938 0
M  V30 5630 H 518.512 0.00552767 3.121 0
M  V30 5631 N 518.813 -1.54241 0.323641 0
M  V30 5632 C 520.09 -1.92741 -0.333181 0
M  V30 5633 C 520.47 -1.25326 -1.69872 0
M  V30 5634 O 519.818 -0.396991 -2.25025 0
M  V30 5635 C 520.028 -3.46399 -0.425322 0
M  V30 5636 C 521.376 -4.19029 -0.68557 0
M  V30 5637 O 522.4 -3.52555 -0.50824 0
M  V30 5638 O 521.259 -5.36751 -1.02767 0
M  V30 5639 H 518.353 -0.804811 -0.190286 0
M  V30 5640 H 520.899 -1.65542 0.373361 0
M  V30 5641 H 519.671 -3.87643 0.533737 0
M  V30 5642 H 519.294 -3.79704 -1.17944 0
M  V30 5643 N 520.291 -0.0518155 -1.57515 0
M  V30 5644 C 521.201 0.937539 -2.15052 0
M  V30 5645 C 522.217 1.34121 -1.10849 0
M  V30 5646 O 523.393 1.418 -1.4302 0
M  V30 5647 C 520.458 2.19379 -2.68466 0
M  V30 5648 C 519.519 1.84841 -3.87469 0
M  V30 5649 C 518.752 3.04477 -4.38326 0
M  V30 5650 O 518.975 4.17868 -3.88256 0
M  V30 5651 O 517.909 2.85453 -5.29906 0
M  V30 5652 H 521.735 0.478201 -2.99912 0
M  V30 5653 H 519.32 0.17012 -1.48428 0
M  V30 5654 H 521.202 2.93084 -3.02787 0
M  V30 5655 H 519.877 2.64449 -1.86677 0
M  V30 5656 H 518.784 1.08449 -3.58036 0
M  V30 5657 H 520.117 1.44569 -4.7049 0
M  V30 5658 N 521.769 1.56035 0.221574 0
M  V30 5659 C 522.699 1.95434 1.2778 0
M  V30 5660 C 523.68 0.822564 1.48889 0
M  V30 5661 O 524.865 1.08486 1.61072 0
M  V30 5662 C 521.995 2.27102 2.62759 0
M  V30 5663 C 520.949 3.4277 2.56306 0
M  V30 5664 C 520.275 3.60043 3.95314 0
M  V30 5665 C 521.575 4.77742 2.11093 0
M  V30 5666 H 523.269 2.83912 0.950504 0
M  V30 5667 H 520.815 1.36596 0.455791 0
M  V30 5668 H 522.768 2.53256 3.36807 0
M  V30 5669 H 521.492 1.35478 2.97176 0
M  V30 5670 H 520.151 3.16664 1.84715 0
M  V30 5671 H 519.799 2.65794 4.27039 0
M  V30 5672 H 519.499 4.37841 3.91879 0
M  V30 5673 H 521.023 3.88545 4.71025 0
M  V30 5674 H 522.437 5.03102 2.74885 0
M  V30 5675 H 520.834 5.58823 2.18716 0
M  V30 5676 H 521.904 4.731 1.06321 0
M  V30 5677 N 523.247 -0.488276 1.49845 0
M  V30 5678 C 524.18 -1.60651 1.62069 0
M  V30 5679 C 525.158 -1.5568 0.469308 0
M  V30 5680 O 526.342 -1.75553 0.686551 0
M  V30 5681 C 523.469 -2.99197 1.58741 0
M  V30 5682 C 522.515 -3.22385 2.79232 0
M  V30 5683 S 523.348 -3.04133 4.40753 0
M  V30 5684 C 524.504 -4.45052 4.4009 0
M  V30 5685 H 524.737 -1.50039 2.56662 0
M  V30 5686 H 522.27 -0.674371 1.38894 0
M  V30 5687 H 524.228 -3.79081 1.57506 0
M  V30 5688 H 522.889 -3.07213 0.654136 0
M  V30 5689 H 522.082 -4.23557 2.73159 0
M  V30 5690 H 521.684 -2.50245 2.77945 0
M  V30 5691 H 523.976 -5.37375 4.12594 0
M  V30 5692 H 524.919 -4.56172 5.41583 0
M  V30 5693 H 525.327 -4.26327 3.70008 0
M  V30 5694 N 524.725 -1.39134 -0.740242 0
M  V30 5695 C 525.971 -1.36273 -1.50192 0
M  V30 5696 C 526.304 0.0430136 -1.94152 0
M  V30 5697 O 525.579 1.00691 -1.66408 0
M  V30 5698 C 525.862 -2.33041 -2.74525 0
M  V30 5699 C 525.715 -3.82535 -2.36617 0
M  V30 5700 C 527.034 -2.27723 -3.76604 0
M  V30 5701 H 524.153 -0.496323 -0.544823 0
M  V30 5702 H 526.795 -1.70085 -0.846815 0
M  V30 5703 H 524.945 -2.04337 -3.30422 0
M  V30 5704 H 526.617 -4.21967 -1.86391 0
M  V30 5705 H 524.86 -3.99565 -1.68909 0
M  V30 5706 H 525.531 -4.45723 -3.2563 0
M  V30 5707 H 528.007 -2.53091 -3.30279 0
M  V30 5708 H 526.883 -2.97519 -4.61274 0
M  V30 5709 H 527.144 -1.28049 -4.2315 0
M  V30 5710 N 526.204 0.969867 -1.24223 0
M  V30 5711 C 527.134 2.08191 -1.05729 0
M  V30 5712 C 528.115 1.70075 0.0290765 0
M  V30 5713 O 529.3 1.93712 -0.137583 0
M  V30 5714 C 526.43 3.40991 -0.658995 0
M  V30 5715 C 525.384 3.93054 -1.69389 0
M  V30 5716 C 524.71 5.22171 -1.15072 0
M  V30 5717 C 526.01 4.21137 -3.08935 0
M  V30 5718 H 527.704 2.23921 -1.98746 0
M  V30 5719 H 525.25 1.07602 -0.956967 0
M  V30 5720 H 527.203 4.18221 -0.51662 0
M  V30 5721 H 525.927 3.25155 0.30686 0
M  V30 5722 H 524.586 3.17977 -1.82444 0
M  V30 5723 H 524.234 5.02694 -0.175539 0
M  V30 5724 H 523.934 5.57973 -1.84229 0
M  V30 5725 H 525.458 6.02013 -1.02042 0
M  V30 5726 H 526.872 4.8908 -2.99121 0
M  V30 5727 H 525.269 4.68163 -3.75425 0
M  V30 5728 H 526.339 3.27996 -3.57137 0
M  V30 5729 N 527.682 1.05563 1.17022 0
M  V30 5730 C 528.931 0.763036 1.8671 0
M  V30 5731 C 529.244 -0.712857 1.82147 0
M  V30 5732 O 530.45 -1.11955 2.47343 0
M  V30 5733 C 528.906 1.31474 3.35026 0
M  V30 5734 C 528.514 2.82034 3.48081 0
M  V30 5735 C 530.258 1.09935 4.10018 0
M  V30 5736 C 528.165 3.30486 4.90442 0
M  V30 5737 H 527.095 0.281747 0.699382 0
M  V30 5738 H 529.746 1.2734 1.32124 0
M  V30 5739 H 528.128 0.732171 3.89173 0
M  V30 5740 H 529.302 3.46178 3.04133 0
M  V30 5741 H 527.617 3.02156 2.86515 0
M  V30 5742 H 530.214 1.43632 5.15048 0
M  V30 5743 H 530.557 0.0373072 4.16283 0
M  V30 5744 H 531.09 1.64732 3.62089 0
M  V30 5745 H 527.829 4.36137 4.89352 0
M  V30 5746 H 527.349 2.71086 5.35044 0
M  V30 5747 H 529.028 3.25382 5.59227 0
M  V30 5748 N 529.16 -1.33526 0.837174 0
M  V30 5749 C 530.571 -1.80182 0.489017 0
M  V30 5750 C 530.922 -1.69285 -0.991826 0
M  V30 5751 O 530.047 -1.24113 -1.77271 0
M  V30 5752 C 530.642 -3.27149 0.880866 0
M  V30 5753 C 529.201 -3.71828 0.584872 0
M  V30 5754 C 528.348 -2.54974 1.09011 0
M  V30 5755 H 531.299 -1.21071 1.02603 0
M  V30 5756 H 531.32 -3.80024 0.190239 0
M  V30 5757 H 530.832 -3.35048 1.95869 0
M  V30 5758 H 528.933 -3.69457 -0.48295 0
M  V30 5759 H 529.046 -4.65366 1.13892 0
M  V30 5760 H 527.41 -2.4952 0.511047 0
M  V30 5761 H 528.193 -2.65637 2.17467 0
M  V30 5762 N 530.638 -0.59345 -1.46 0
M  V30 5763 C 531.57 0.171569 -2.28557 0
M  V30 5764 C 532.583 0.845273 -1.39137 0
M  V30 5765 O 533.772 0.713033 -1.6364 0
M  V30 5766 C 530.872 1.26311 -3.14482 0
M  V30 5767 C 530.045 0.679258 -4.32094 0
M  V30 5768 C 529.104 1.65987 -4.99334 0
M  V30 5769 O 528.13 1.19171 -5.56585 0
M  V30 5770 N 529.332 2.99414 -4.97324 0
M  V30 5771 H 532.097 -0.536771 -2.94854 0
M  V30 5772 H 529.658 -0.431954 -1.56031 0
M  V30 5773 H 531.65 1.91863 -3.5633 0
M  V30 5774 H 530.22 1.87416 -2.50188 0
M  V30 5775 H 529.44 -0.153992 -3.93899 0
M  V30 5776 H 530.728 0.26916 -5.08088 0
M  V30 5777 H 530.126 3.40064 -4.52076 0
M  V30 5778 H 528.683 3.60426 -5.4308 0
M  V30 5779 N 532.116 1.54067 -0.331816 0
M  V30 5780 C 533.046 2.27569 0.522932 0
M  V30 5781 C 534.027 1.28679 1.11247 0
M  V30 5782 O 535.212 1.57504 1.13605 0
M  V30 5783 C 532.342 3.0397 1.67987 0
M  V30 5784 C 531.296 4.10267 1.21924 0
M  V30 5785 C 530.622 4.74555 2.46377 0
M  V30 5786 C 531.922 5.21268 0.32815 0
M  V30 5787 H 533.616 2.99264 -0.0901977 0
M  V30 5788 H 531.162 1.4393 -0.044821 0
M  V30 5789 H 533.115 3.54123 2.28418 0
M  V30 5790 H 531.839 2.29906 2.31971 0
M  V30 5791 H 530.498 3.61009 0.637809 0
M  V30 5792 H 530.146 3.97098 3.08743 0
M  V30 5793 H 529.846 5.46363 2.16243 0
M  V30 5794 H 531.37 5.27487 3.07555 0
M  V30 5795 H 532.784 5.67128 0.838978 0
M  V30 5796 H 531.181 5.99982 0.119228 0
M  V30 5797 H 532.251 4.80673 -0.638839 0
M  V30 5798 N 533.594 0.0601682 1.57485 0
M  V30 5799 C 534.544 -0.920969 2.08572 0
M  V30 5800 C 535.528 -1.26617 0.992827 0
M  V30 5801 O 536.72 -1.24708 1.25606 0
M  V30 5802 C 533.849 -2.19267 2.64153 0
M  V30 5803 C 532.935 -1.87447 3.80427 0
M  V30 5804 N 533.326 -1.26025 4.89848 0
M  V30 5805 C 531.624 -2.17265 3.89502 0
M  V30 5806 C 532.325 -1.12036 5.70809 0
M  V30 5807 N 531.301 -1.62624 5.18705 0
M  V30 5808 H 535.103 -0.441561 2.90564 0
M  V30 5809 H 532.617 -0.144043 1.6176 0
M  V30 5810 H 534.614 -2.90462 2.99061 0
M  V30 5811 H 533.274 -2.67806 1.83603 0
M  V30 5812 H 534.285 -0.931336 5.09457 0
M  V30 5813 H 530.962 -2.68262 3.19909 0
M  V30 5814 H 532.352 -0.642783 6.68818 0
M  V30 5815 N 535.072 -1.5615 -0.213296 0
M  V30 5816 C 536.488 -1.49327 -0.56336 0
M  V30 5817 C 536.688 -0.756826 -1.86747 0
M  V30 5818 O 535.744 -0.299866 -2.50713 0
M  V30 5819 C 537.057 -2.9392 -0.634944 0
M  V30 5820 C 538.605 -3.04487 -0.725013 0
M  V30 5821 C 539.08 -4.50456 -0.82787 0
M  V30 5822 N 540.571 -4.54533 -0.891876 0
M  V30 5823 C 541.306 -5.64766 -0.991315 0
M  V30 5824 N 540.802 -6.84733 -1.05419 0
M  V30 5825 N 542.595 -5.52637 -1.02709 0
M  V30 5826 H 534.746 -2.02453 0.642366 0
M  V30 5827 H 537.009 -0.920548 0.226487 0
M  V30 5828 H 536.715 -3.50783 0.253859 0
M  V30 5829 H 536.589 -3.46274 -1.49579 0
M  V30 5830 H 538.976 -2.47685 -1.60425 0
M  V30 5831 H 539.057 -2.55289 0.161669 0
M  V30 5832 H 538.701 -5.07878 0.0469464 0
M  V30 5833 H 538.631 -4.97369 -1.73009 0
M  V30 5834 H 541.122 -3.68141 -0.85327 0
M  V30 5835 H 541.435 -7.64493 -1.13007 0
M  V30 5836 H 539.78 -6.87427 -1.02318 0
M  V30 5837 H 542.971 -4.5784 -0.974687 0
M  V30 5838 H 543.144 -6.38576 -1.10113 0
M  V30 5839 N 536.55 0.480323 -1.50102 0
M  V30 5840 C 537.827 1.24159 -1.51142 0
M  V30 5841 C 538.207 2.09605 -0.250818 0
M  V30 5842 O 537.555 2.15274 0.766118 0
M  V30 5843 C 537.765 2.08057 -2.80202 0
M  V30 5844 C 539.113 2.66556 -3.30504 0
M  V30 5845 O 540.137 2.18308 -2.81461 0
M  V30 5846 O 538.996 3.54442 -4.15973 0
M  V30 5847 H 536.09 0.562928 -0.605839 0
M  V30 5848 H 538.636 0.492899 -1.62384 0
M  V30 5849 H 537.408 1.45032 -3.6343 0
M  V30 5850 H 537.031 2.90079 -2.71919 0
M  V30 5851 N 538.028 1.39524 0.732853 0
M  V30 5852 C 538.975 1.38416 1.84688 0
M  V30 5853 C 539.945 0.243539 1.64305 0
M  V30 5854 O 541.13 0.438979 1.85681 0
M  V30 5855 C 538.27 1.23555 3.22224 0
M  V30 5856 C 537.383 2.47179 3.54298 0
M  V30 5857 C 536.518 2.2489 4.81246 0
M  V30 5858 C 535.557 3.44178 5.0617 0
M  V30 5859 N 534.694 3.21192 6.24323 0
M  V30 5860 H 539.534 2.33645 1.84971 0
M  V30 5861 H 537.071 1.16059 0.903804 0
M  V30 5862 H 539.029 1.12949 4.0162 0
M  V30 5863 H 537.659 0.31954 3.21215 0
M  V30 5864 H 536.711 2.68379 2.69587 0
M  V30 5865 H 538.023 3.36022 3.68633 0
M  V30 5866 H 537.177 2.11538 5.68627 0
M  V30 5867 H 535.916 1.33443 4.69089 0
M  V30 5868 H 534.921 3.58025 4.17251 0
M  V30 5869 H 536.146 4.36528 5.20212 0
M  V30 5870 H 534.092 2.32413 6.1345 0
M  V30 5871 H 534.009 4.03594 6.39256 0
M  V30 5872 H 535.277 3.1154 7.14537 0
M  V30 5873 N 539.506 -0.963266 1.24736 0
M  V30 5874 C 540.734 -1.74166 1.11686 0
M  V30 5875 C 541.149 -1.8589 -0.330187 0
M  V30 5876 O 540.506 -1.35042 -1.2276 0
M  V30 5877 C 540.557 -3.15989 1.75595 0
M  V30 5878 O 540.278 -3.04847 3.14642 0
M  V30 5879 C 541.779 -4.10145 1.68213 0
M  V30 5880 H 538.999 -0.546031 0.389989 0
M  V30 5881 H 541.543 -1.20907 1.64929 0
M  V30 5882 H 539.698 -3.66219 1.26343 0
M  V30 5883 H 540.112 -3.9425 3.4593 0
M  V30 5884 H 541.586 -5.07299 2.17604 0
M  V30 5885 H 542.063 -4.3445 0.644208 0
M  V30 5886 H 542.669 -3.65827 2.16912 0
M  V30 5887 N 540.985 -1.06182 -1.16461 0
M  V30 5888 C 542.234 -0.772927 -1.86303 0
M  V30 5889 C 542.547 0.703187 -1.82523 0
M  V30 5890 O 543.753 1.10641 -2.47933 0
M  V30 5891 C 542.209 -1.33249 -3.34324 0
M  V30 5892 C 541.817 -2.83876 -3.46581 0
M  V30 5893 C 543.561 -1.12108 -4.09429 0
M  V30 5894 C 541.468 -3.33082 -4.88682 0
M  V30 5895 H 540.398 -0.285452 -0.697878 0
M  V30 5896 H 543.049 -1.28039 -1.31447 0
M  V30 5897 H 541.431 -0.7528 -3.88779 0
M  V30 5898 H 542.605 -3.47786 -3.02293 0
M  V30 5899 H 540.92 -3.03671 -2.84909 0
M  V30 5900 H 543.517 -1.46361 -5.14279 0
M  V30 5901 H 543.86 -0.0593832 -4.16258 0
M  V30 5902 H 544.393 -1.6665 -3.6121 0
M  V30 5903 H 541.132 -4.38726 -4.87032 0
M  V30 5904 H 540.652 -2.73919 -5.33599 0
M  V30 5905 H 542.331 -3.28344 -5.57494 0
M  V30 5906 N 542.463 1.3308 -0.844243 0
M  V30 5907 C 543.709 1.98304 -0.452453 0
M  V30 5908 C 544.064 1.65645 0.978746 0
M  V30 5909 O 543.357 0.928849 1.6758 0
M  V30 5910 C 543.551 3.52045 -0.616354 0
M  V30 5911 C 543.38 3.99643 -2.06193 0
M  V30 5912 C 542.15 4.27224 -2.69829 0
M  V30 5913 C 544.348 4.15471 -3.03131 0
M  V30 5914 N 542.33 4.60998 -4.05406 0
M  V30 5915 C 543.701 4.52665 -4.23668 0
M  V30 5916 C 545.756 3.97776 -2.99465 0
M  V30 5917 C 544.459 4.74011 -5.41023 0
M  V30 5918 C 546.485 4.20301 -4.16055 0
M  V30 5919 C 545.847 4.57801 -5.35348 0
M  V30 5920 H 541.946 0.752122 -0.214096 0
M  V30 5921 H 544.53 1.61096 -1.09344 0
M  V30 5922 H 542.701 3.884 -0.00513205 0
M  V30 5923 H 544.433 4.04228 -0.19548 0
M  V30 5924 H 541.188 4.18911 -2.20931 0
M  V30 5925 H 541.612 4.82087 -4.75312 0
M  V30 5926 H 546.254 3.67893 -2.08362 0
M  V30 5927 H 543.972 5.02753 -6.32665 0
M  V30 5928 H 547.558 4.08122 -4.14641 0
M  V30 5929 H 546.438 4.74884 -6.24063 0
M  V30 5930 N 543.941 0.601185 1.45683 0
M  V30 5931 C 545.189 0.0936957 2.01883 0
M  V30 5932 C 545.51 -1.2779 1.47291 0
M  V30 5933 O 544.78 -1.84279 0.664691 0
M  V30 5934 H 543.36 0.0316466 0.746329 0
M  V30 5935 H 546.022 0.781137 1.78562 0
M  V30 5936 H 545.118 0.0386297 3.12076 0
M  V30 5937 N 545.419 -1.53889 0.339982 0
M  V30 5938 C 546.696 -1.93084 -0.312719 0
M  V30 5939 C 547.076 -1.2712 -1.68534 0
M  V30 5940 O 546.424 -0.420835 -2.24591 0
M  V30 5941 C 546.634 -3.4683 -0.388558 0
M  V30 5942 C 547.982 -4.19732 -0.641088 0
M  V30 5943 O 549.006 -3.53075 -0.470818 0
M  V30 5944 O 547.865 -5.3781 -0.970685 0
M  V30 5945 H 544.959 -0.806784 -0.18174 0
M  V30 5946 H 547.505 -1.65137 0.390898 0
M  V30 5947 H 546.277 -3.87055 0.574821 0
M  V30 5948 H 545.9 -3.80933 -1.1391 0
M  V30 5949 N 546.897 -0.0685191 -1.57451 0
M  V30 5950 C 548.174 0.642167 -1.84758 0
M  V30 5951 C 548.554 1.87991 -0.960344 0
M  V30 5952 O 547.902 2.28485 -0.0257894 0
M  V30 5953 C 548.112 0.982946 -3.34872 0
M  V30 5954 C 549.46 1.35784 -4.02303 0
M  V30 5955 O 550.484 1.07477 -3.39598 0
M  V30 5956 O 549.343 1.88681 -5.12895 0
M  V30 5957 H 546.437 0.318625 -0.763156 0
M  V30 5958 H 548.983 -0.0992015 -1.6941 0
M  V30 5959 H 547.755 0.10372 -3.91163 0
M  V30 5960 H 547.378 1.78119 -3.55471 0
M  V30 5961 N 548.375 1.56261 0.205012 0
M  V30 5962 C 549.621 1.80306 0.9283 0
M  V30 5963 C 549.954 0.640932 1.83319 0
M  V30 5964 O 549.229 -0.359032 1.91158 0
M  V30 5965 C 549.512 3.14547 1.75306 0
M  V30 5966 C 549.365 4.41236 0.873562 0
M  V30 5967 C 550.684 3.45382 2.72762 0
M  V30 5968 H 547.803 0.655929 0.336044 0
M  V30 5969 H 550.445 1.88984 0.196211 0
M  V30 5970 H 548.595 3.0728 2.37721 0
M  V30 5971 H 550.267 4.60539 0.264887 0
M  V30 5972 H 548.51 4.33427 0.179773 0
M  V30 5973 H 549.181 5.31639 1.48541 0
M  V30 5974 H 551.657 3.52884 2.20481 0
M  V30 5975 H 550.533 4.40449 3.2756 0
M  V30 5976 H 550.794 2.68377 3.51321 0
M  V30 5977 N 549.853 -0.472356 1.50355 0
M  V30 5978 C 550.763 -1.59637 1.7191 0
M  V30 5979 C 551.779 -1.63247 0.602195 0
M  V30 5980 O 552.955 -1.81139 0.880369 0
M  V30 5981 C 550.02 -2.9586 1.80742 0
M  V30 5982 C 549.081 -3.02649 3.04471 0
M  V30 5983 C 548.314 -4.32374 3.12872 0
M  V30 5984 O 548.537 -5.22807 2.28099 0
M  V30 5985 O 547.471 -4.44728 4.05587 0
M  V30 5986 H 551.297 -1.44373 2.67189 0
M  V30 5987 H 548.882 -0.651717 1.34436 0
M  V30 5988 H 550.764 -3.7677 1.88739 0
M  V30 5989 H 549.439 -3.11325 0.88647 0
M  V30 5990 H 548.346 -2.20821 3.01975 0
M  V30 5991 H 549.679 -2.92119 3.9614 0
M  V30 5992 N 551.331 -1.39911 -0.725443 0
M  V30 5993 C 552.241 -1.41688 -1.8698 0
M  V30 5994 C 553.257 -0.310579 -1.71206 0
M  V30 5995 O 554.433 -0.55359 -1.93642 0
M  V30 5996 C 551.498 -1.26811 -3.22676 0
M  V30 5997 C 550.559 -2.47497 -3.50776 0
M  V30 5998 C 549.792 -2.3332 -4.79997 0
M  V30 5999 O 550.015 -1.34175 -5.54394 0
M  V30 6000 O 548.949 -3.22498 -5.08211 0
M  V30 6001 H 552.775 -2.38171 -1.88436 0
M  V30 6002 H 550.36 -1.21128 -0.874548 0
M  V30 6003 H 552.242 -1.20684 -4.03749 0
M  V30 6004 H 550.917 -0.334289 -3.21969 0
M  V30 6005 H 549.824 -2.59201 -2.69751 0
M  V30 6006 H 551.157 -3.39606 -3.5627 0
M  V30 6007 N 552.809 0.956637 -1.25245 0
M  V30 6008 C 554.056 1.701 -1.09874 0
M  V30 6009 C 554.384 1.91128 0.36062 0
M  V30 6010 O 553.639 1.47837 1.28229 0
M  V30 6011 C 553.938 3.08996 -1.79601 0
M  V30 6012 C 553.604 3.07774 -3.29523 0
M  V30 6013 C 552.266 3.07149 -3.70423 0
M  V30 6014 C 554.618 3.01257 -4.25316 0
M  V30 6015 C 551.946 2.97752 -5.0553 0
M  V30 6016 C 554.298 2.93403 -5.60444 0
M  V30 6017 C 552.962 2.91111 -6.00675 0
M  V30 6018 H 552.232 0.62244 -0.402056 0
M  V30 6019 H 554.879 1.1178 -1.55491 0
M  V30 6020 H 553.184 3.70848 -1.26408 0
M  V30 6021 H 554.881 3.65407 -1.65162 0
M  V30 6022 H 551.471 3.09032 -2.9698 0
M  V30 6023 H 555.655 3.00861 -3.9471 0
M  V30 6024 H 550.911 2.94346 -5.35883 0
M  V30 6025 H 555.085 2.87321 -6.34366 0
M  V30 6026 H 552.712 2.83586 -7.05325 0
M  V30 6027 N 554.287 1.06798 1.15896 0
M  V30 6028 C 555.703 0.792423 1.38538 0
M  V30 6029 C 555.903 -0.60592 1.92174 0
M  V30 6030 O 554.959 -1.36561 2.12385 0
M  V30 6031 C 556.272 1.86157 2.36149 0
M  V30 6032 C 557.82 1.88567 2.49823 0
M  V30 6033 C 558.295 2.9455 3.5072 0
M  V30 6034 N 559.786 2.93616 3.58251 0
M  V30 6035 C 560.521 3.72267 4.36125 0
M  V30 6036 N 560.017 4.60751 5.17379 0
M  V30 6037 N 561.81 3.60637 4.31158 0
M  V30 6038 H 553.961 1.96993 0.794198 0
M  V30 6039 H 556.224 0.853942 0.411688 0
M  V30 6040 H 555.93 2.86603 2.03843 0
M  V30 6041 H 555.804 1.71692 3.3586 0
M  V30 6042 H 558.191 0.887765 2.8143 0
M  V30 6043 H 558.272 2.0711 1.5013 0
M  V30 6044 H 557.916 3.94537 3.19849 0
M  V30 6045 H 557.846 2.73255 4.50155 0
M  V30 6046 H 560.337 2.29472 3.00252 0
M  V30 6047 H 560.65 5.17408 5.74028 0
M  V30 6048 H 558.995 4.64803 5.16704 0
M  V30 6049 H 562.186 2.90892 3.66742 0
M  V30 6050 H 562.359 4.22176 4.91601 0
M  V30 6051 N 555.766 -1.3263 0.851289 0
M  V30 6052 C 557.177 -1.79653 0.5081 0
M  V30 6053 C 557.528 -1.70327 -0.973815 0
M  V30 6054 O 556.653 -1.25986 -1.75944 0
M  V30 6055 C 557.248 -3.26196 0.915515 0
M  V30 6056 C 555.807 -3.71187 0.624277 0
M  V30 6057 C 554.954 -2.53804 1.11709 0
M  V30 6058 H 557.905 -1.19976 1.03882 0
M  V30 6059 H 557.926 -3.79801 0.230535 0
M  V30 6060 H 557.438 -3.32952 1.99411 0
M  V30 6061 H 555.539 -3.69948 -0.443737 0
M  V30 6062 H 555.652 -4.64132 1.18821 0
M  V30 6063 H 554.016 -2.48964 0.537484 0
M  V30 6064 H 554.799 -2.63315 2.20272 0
M  V30 6065 N 557.244 -0.608902 -1.45362 0
M  V30 6066 C 558.154 0.110969 -2.34337 0
M  V30 6067 C 559.17 0.859007 -1.51318 0
M  V30 6068 O 560.346 0.816296 -1.84116 0
M  V30 6069 C 557.411 1.09494 -3.28956 0
M  V30 6070 C 556.472 0.348718 -4.27881 0
M  V30 6071 C 555.705 1.28582 -5.17979 0
M  V30 6072 O 555.928 2.52369 -5.11533 0
M  V30 6073 O 554.862 0.782172 -5.96796 0
M  V30 6074 H 558.688 -0.620258 -2.97299 0
M  V30 6075 H 556.273 -0.36916 -1.44767 0
M  V30 6076 H 558.155 1.66163 -3.87257 0
M  V30 6077 H 556.83 1.80717 -2.68557 0
M  V30 6078 H 555.737 -0.260465 -3.73192 0
M  V30 6079 H 557.07 -0.323049 -4.91139 0
M  V30 6080 N 558.722 1.53707 -0.348139 0
M  V30 6081 C 560.138 1.596 0.00361134 0
M  V30 6082 C 560.338 1.36394 1.4832 0
M  V30 6083 O 559.394 1.16046 2.24253 0
M  V30 6084 C 560.707 2.97512 -0.436682 0
M  V30 6085 C 562.255 3.10568 -0.389416 0
M  V30 6086 C 562.73 4.50866 -0.805249 0
M  V30 6087 N 564.221 4.56929 -0.759616 0
M  V30 6088 C 564.956 5.63643 -1.05327 0
M  V30 6089 N 564.452 6.78189 -1.41531 0
M  V30 6090 N 566.245 5.5354 -0.977207 0
M  V30 6091 H 558.396 1.67044 -1.31187 0
M  V30 6092 H 560.659 0.782559 -0.535075 0
M  V30 6093 H 560.365 3.19575 -1.46849 0
M  V30 6094 H 560.239 3.76742 0.185744 0
M  V30 6095 H 562.626 2.88226 0.633228 0
M  V30 6096 H 562.707 2.33387 -1.04711 0
M  V30 6097 H 562.351 4.73943 -1.82593 0
M  V30 6098 H 562.281 5.26452 -0.124989 0
M  V30 6099 H 564.772 3.74675 -0.49265 0
M  V30 6100 H 565.085 7.55541 -1.62411 0
M  V30 6101 H 563.43 6.79624 -1.45381 0
M  V30 6102 H 566.621 4.62932 -0.693675 0
M  V30 6103 H 566.794 6.36614 -1.2094 0
M  V30 6104 N 560.2 0.0768682 1.57412 0
M  V30 6105 C 561.447 -0.591085 1.93681 0
M  V30 6106 C 561.775 -1.69311 0.957286 0
M  V30 6107 O 561.03 -1.95682 -0.0262428 0
M  V30 6108 C 561.329 -1.20268 3.36557 0
M  V30 6109 C 560.995 -0.226286 4.50332 0
M  V30 6110 C 559.657 0.0423142 4.81181 0
M  V30 6111 C 562.009 0.441415 5.19327 0
M  V30 6112 C 559.337 0.985616 5.78362 0
M  V30 6113 C 561.689 1.37307 6.17519 0
M  V30 6114 C 560.353 1.65009 6.46783 0
M  V30 6115 H 559.623 -0.216293 0.70873 0
M  V30 6116 H 562.27 0.148824 1.90921 0
M  V30 6117 H 560.575 -2.01844 3.35807 0
M  V30 6118 H 562.272 -1.72688 3.61911 0
M  V30 6119 H 558.862 -0.445821 4.26275 0
M  V30 6120 H 563.046 0.247023 4.95685 0
M  V30 6121 H 558.302 1.20743 5.99359 0
M  V30 6122 H 562.476 1.89637 6.70083 0
M  V30 6123 H 560.103 2.38263 7.21897 0
M  V30 6124 N 561.678 -1.56367 -0.196722 0
M  V30 6125 C 562.588 -1.97617 -1.2643 0
M  V30 6126 C 563.604 -0.883598 -1.49895 0
M  V30 6127 O 564.78 -1.18921 -1.62541 0
M  V30 6128 C 561.845 -2.30595 -2.58895 0
M  V30 6129 C 560.906 -3.53551 -2.43516 0
M  V30 6130 C 560.139 -3.84946 -3.69665 0
M  V30 6131 O 560.362 -3.17655 -4.73763 0
M  V30 6132 O 559.296 -4.78379 -3.65291 0
M  V30 6133 H 563.122 -2.88648 -0.944233 0
M  V30 6134 H 560.707 -1.43901 -0.401592 0
M  V30 6135 H 562.589 -2.52889 -3.37083 0
M  V30 6136 H 561.264 -1.42732 -2.90533 0
M  V30 6137 H 560.171 -3.36507 -1.63445 0
M  V30 6138 H 561.504 -4.41875 -2.16812 0
M  V30 6139 N 563.156 0.464375 -1.50603 0
M  V30 6140 C 564.104 1.58224 -1.70493 0
M  V30 6141 C 565.098 1.59492 -0.570836 0
M  V30 6142 O 566.304 1.63561 -0.751517 0
M  V30 6143 H 562.679 0.525161 -0.538247 0
M  V30 6144 H 564.65 1.38613 -2.64252 0
M  V30 6145 C 563.399 2.96113 -1.82243 0
M  V30 6146 H 562.722 2.95858 -2.68901 0
M  V30 6147 H 564.162 3.73769 -2.00182 0
M  V30 6148 C 562.621 3.31946 -0.575628 0
M  V30 6149 O 563.151 4.00708 0.282152 0
M  V30 6150 N 561.357 2.87436 -0.427665 0
M  V30 6151 H 560.904 2.31652 -1.12674 0
M  V30 6152 H 560.862 3.11776 0.405379 0
M  V30 6153 N 564.634 1.40294 0.718013 0
M  V30 6154 C 566.045 1.34289 1.29705 0
M  V30 6155 C 566.396 0.0152228 1.96194 0
M  V30 6156 O 565.521 -0.88682 1.97394 0
M  V30 6157 C 566.116 2.43219 2.3586 0
M  V30 6158 C 564.675 2.40682 2.89394 0
M  V30 6159 C 563.822 2.24223 1.63154 0
M  V30 6160 H 566.773 1.50135 0.514312 0
M  V30 6161 H 566.794 2.10986 3.16647 0
M  V30 6162 H 566.306 3.39836 1.87439 0
M  V30 6163 H 564.407 1.47756 3.42051 0
M  V30 6164 H 564.52 3.36177 3.41353 0
M  V30 6165 H 562.884 1.71696 1.88129 0
M  V30 6166 H 563.667 3.22834 1.16761 0
M  V30 6167 N 566.112 -0.949982 1.2575 0
M  V30 6168 C 567.337 -1.73503 1.13628 0
M  V30 6169 C 567.762 -1.85601 -0.30559 0
M  V30 6170 O 567.12 -1.33984 -1.22139 0
M  V30 6171 C 567.168 -3.1243 1.80055 0
M  V30 6172 O 566.272 -3.97916 1.08336 0
M  V30 6173 H 565.613 -0.532665 0.396439 0
M  V30 6174 H 568.143 -1.19043 1.66403 0
M  V30 6175 H 568.153 -3.62866 1.86527 0
M  V30 6176 H 566.828 -3.02941 2.84956 0
M  V30 6177 H 565.405 -3.56375 1.09777 0
M  V30 6178 N 567.59 -1.07411 -1.15328 0
M  V30 6179 C 568.553 -0.698914 -2.18284 0
M  V30 6180 C 569.553 0.261149 -1.58665 0
M  V30 6181 O 570.743 0.0420277 -1.74149 0
M  V30 6182 C 567.875 -0.0302427 -3.40887 0
M  V30 6183 H 569.068 -1.61045 -2.52991 0
M  V30 6184 H 566.621 -0.870724 -1.298 0
M  V30 6185 H 567.356 0.893505 -3.11748 0
M  V30 6186 H 567.141 -0.720759 -3.85419 0
M  V30 6187 H 568.631 0.21759 -4.17033 0
M  V30 6188 N 569.068 1.32177 -0.85831 0
M  V30 6189 C 570.317 1.96392 -0.459689 0
M  V30 6190 C 570.63 1.68659 0.990632 0
M  V30 6191 O 571.836 2.26641 1.49485 0
M  V30 6192 C 570.292 3.51542 -0.7711 0
M  V30 6193 C 569.9 3.8813 -2.2374 0
M  V30 6194 C 571.644 4.2221 -0.44038 0
M  V30 6195 C 569.551 5.36341 -2.49183 0
M  V30 6196 H 568.481 0.735007 -0.168169 0
M  V30 6197 H 571.132 1.50518 -1.0496 0
M  V30 6198 H 569.514 3.95846 -0.11058 0
M  V30 6199 H 570.688 3.54824 -2.94001 0
M  V30 6200 H 569.003 3.30497 -2.533 0
M  V30 6201 H 571.6 5.31234 -0.607855 0
M  V30 6202 H 571.943 4.11683 0.618291 0
M  V30 6203 H 572.476 3.83502 -1.05695 0
M  V30 6204 H 569.215 5.51892 -3.53689 0
M  V30 6205 H 568.735 5.7104 -1.83504 0
M  V30 6206 H 570.414 6.03466 -2.33318 0
M  V30 6207 N 570.547 0.616602 1.45037 0
M  V30 6208 C 571.958 0.199359 1.85633 0
M  V30 6209 C 572.309 -1.24588 1.51566 0
M  V30 6210 O 571.434 -1.94594 0.94668 0
M  V30 6211 C 572.029 0.355033 3.36935 0
M  V30 6212 C 570.588 -0.00758748 3.76399 0
M  V30 6213 C 569.735 0.675256 2.68953 0
M  V30 6214 H 572.686 0.822708 1.3571 0
M  V30 6215 H 572.707 -0.410201 3.78282 0
M  V30 6216 H 572.219 1.40699 3.61698 0
M  V30 6217 H 570.32 -1.05837 3.57252 0
M  V30 6218 H 570.433 0.392346 4.77491 0
M  V30 6219 H 568.797 0.111992 2.54454 0
M  V30 6220 H 569.58 1.72952 2.96551 0
M  V30 6221 N 572.025 -1.5352 0.356285 0
M  V30 6222 C 572.957 -2.23009 -0.529127 0
M  V30 6223 C 573.97 -1.241 -1.05371 0
M  V30 6224 O 575.159 -1.50379 -0.961679 0
M  V30 6225 C 572.259 -2.90685 -1.74229 0
M  V30 6226 C 571.432 -4.16019 -1.35081 0
M  V30 6227 C 570.491 -4.66989 -2.42502 0
M  V30 6228 O 569.517 -5.30895 -2.05279 0
M  V30 6229 N 570.719 -4.44006 -3.7395 0
M  V30 6230 H 573.484 -2.99627 0.0660501 0
M  V30 6231 H 571.045 -1.60885 0.181014 0
M  V30 6232 H 573.037 -3.21695 -2.4555 0
M  V30 6233 H 571.607 -2.17575 -2.24454 0
M  V30 6234 H 570.827 -3.91414 -0.467833 0
M  V30 6235 H 572.115 -4.9752 -1.06542 0
M  V30 6236 H 571.513 -3.92924 -4.06973 0
M  V30 6237 H 570.07 -4.7959 -4.41403 0
M  V30 6238 N 573.503 -0.0852151 -1.57369 0
M  V30 6239 C 574.453 0.88767 -2.10011 0
M  V30 6240 C 575.437 1.25021 -1.01285 0
M  V30 6241 O 576.629 1.22694 -1.27574 0
M  V30 6242 C 573.758 2.15037 -2.67608 0
M  V30 6243 C 572.844 1.81371 -3.83361 0
M  V30 6244 N 573.235 1.18216 -4.91791 0
M  V30 6245 C 571.533 2.11041 -3.92909 0
M  V30 6246 C 572.234 1.02941 -5.72519 0
M  V30 6247 N 571.21 1.54351 -5.21226 0
M  V30 6248 H 575.012 0.395279 -2.9123 0
M  V30 6249 H 572.526 0.11829 -1.61969 0
M  V30 6250 H 574.523 2.85667 -3.03644 0
M  V30 6251 H 573.183 2.64851 -1.8784 0
M  V30 6252 H 574.194 0.850168 -5.10874 0
M  V30 6253 H 570.871 2.63138 -3.24136 0
M  V30 6254 H 572.261 0.536298 -6.69756 0
M  V30 6255 N 574.981 1.5647 0.188427 0
M  V30 6256 C 575.944 1.9421 1.21718 0
M  V30 6257 C 576.944 0.823901 1.38089 0
M  V30 6258 O 578.134 1.09122 1.35787 0
M  V30 6259 C 575.266 2.22197 2.58537 0
M  V30 6260 H 576.459 2.86252 0.894418 0
M  V30 6261 H 574.012 1.50263 0.430211 0
M  V30 6262 H 574.747 1.32814 2.95856 0
M  V30 6263 H 574.532 3.03688 2.48025 0
M  V30 6264 H 576.022 2.52376 3.3271 0
M  V30 6265 N 576.459 -0.456382 1.50847 0
M  V30 6266 C 577.706 -1.20736 1.62571 0
M  V30 6267 C 578.034 -1.9163 0.332904 0
M  V30 6268 O 577.289 -1.8343 -0.682058 0
M  V30 6269 C 577.588 -2.26336 2.76599 0
M  V30 6270 C 577.254 -1.7259 4.16562 0
M  V30 6271 C 575.916 -1.57654 4.54641 0
M  V30 6272 C 578.268 -1.32877 5.03977 0
M  V30 6273 C 575.596 -1.0145 5.77862 0
M  V30 6274 C 577.948 -0.7811 6.27759 0
M  V30 6275 C 576.612 -0.618488 6.64628 0
M  V30 6276 H 575.882 -0.441803 0.594888 0
M  V30 6277 H 578.529 -0.501169 1.84826 0
M  V30 6278 H 576.834 -3.0292 2.48489 0
M  V30 6279 H 578.531 -2.84227 2.82871 0
M  V30 6280 H 575.121 -1.85187 3.86528 0
M  V30 6281 H 579.305 -1.43245 4.75179 0
M  V30 6282 H 574.561 -0.876109 6.0509 0
M  V30 6283 H 578.735 -0.464783 6.94847 0
M  V30 6284 H 576.362 -0.180838 7.59985 0
M  V30 6285 N 577.937 -1.40673 -0.710563 0
M  V30 6286 C 578.884 -1.41336 -1.82463 0
M  V30 6287 C 579.854 -0.269648 -1.63897 0
M  V30 6288 O 581.039 -0.468463 -1.8496 0
M  V30 6289 C 578.179 -1.28665 -3.20218 0
M  V30 6290 C 577.292 -2.52784 -3.5032 0
M  V30 6291 C 576.427 -2.32517 -4.77608 0
M  V30 6292 C 575.466 -3.52187 -5.0063 0
M  V30 6293 N 574.603 -3.31084 -6.19135 0
M  V30 6294 H 579.443 -2.36558 -1.8123 0
M  V30 6295 H 576.98 -1.17483 -0.885226 0
M  V30 6296 H 578.938 -1.19324 -3.99772 0
M  V30 6297 H 577.568 -0.370602 -3.20666 0
M  V30 6298 H 576.62 -2.72634 -2.65283 0
M  V30 6299 H 577.932 -3.41845 -3.63241 0
M  V30 6300 H 577.086 -2.20558 -5.65189 0
M  V30 6301 H 575.825 -1.40889 -4.66906 0
M  V30 6302 H 574.83 -3.64617 -4.11502 0
M  V30 6303 H 576.055 -4.44749 -5.13201 0
M  V30 6304 H 574.001 -2.42143 -6.09674 0
M  V30 6305 H 573.918 -4.13713 -6.32754 0
M  V30 6306 H 575.186 -3.22868 -7.0949 0
M  V30 6307 N 579.415 0.9433 -1.26252 0
M  V30 6308 C 580.826 1.50404 -1.10614 0
M  V30 6309 C 581.177 1.93666 0.31429 0
M  V30 6310 O 580.302 1.79709 1.20555 0
M  V30 6311 C 580.897 2.73336 -2.00182 0
M  V30 6312 C 579.456 3.25686 -1.88695 0
M  V30 6313 C 578.603 1.98474 -1.93658 0
M  V30 6314 H 581.554 0.759006 -1.39373 0
M  V30 6315 H 581.575 3.47567 -1.54847 0
M  V30 6316 H 581.087 2.41818 -3.03555 0
M  V30 6317 H 579.188 3.61998 -0.882489 0
M  V30 6318 H 579.301 3.92935 -2.74115 0
M  V30 6319 H 577.665 2.14278 -1.37684 0
M  V30 6320 H 578.448 1.6929 -2.98657 0
M  V30 6321 N 580.893 1.08022 1.14757 0
M  V30 6322 C 582.14 0.807509 1.85703 0
M  V30 6323 C 582.468 -0.666617 1.8272 0
M  V30 6324 O 581.723 -1.50562 1.25018 0
M  V30 6325 C 582.022 1.26964 3.34088 0
M  V30 6326 C 581.688 2.7509 3.57262 0
M  V30 6327 C 580.35 3.15547 3.63296 0
M  V30 6328 C 582.702 3.70667 3.66409 0
M  V30 6329 C 580.03 4.50384 3.75994 0
M  V30 6330 C 582.382 5.05274 3.80632 0
M  V30 6331 C 581.046 5.45342 3.84913 0
M  V30 6332 H 580.316 0.295488 0.679535 0
M  V30 6333 H 582.963 1.35245 1.35577 0
M  V30 6334 H 581.268 0.644216 3.86467 0
M  V30 6335 H 582.965 1.03544 3.87401 0
M  V30 6336 H 579.555 2.42775 3.53212 0
M  V30 6337 H 583.739 3.40533 3.61041 0
M  V30 6338 H 578.995 4.80886 3.77569 0
M  V30 6339 H 583.169 5.79201 3.86652 0
M  V30 6340 H 580.796 6.49823 3.94505 0
M  V30 6341 N 582.371 -1.3172 0.865308 0
M  V30 6342 C 583.619 -1.96487 0.472995 0
M  V30 6343 C 583.94 -1.68761 -0.976975 0
M  V30 6344 O 583.21 -1.00051 -1.68424 0
M  V30 6345 H 581.79 -0.726947 0.171922 0
M  V30 6346 H 584.452 -1.60612 1.10407 0
M  V30 6347 H 583.548 -3.0574 0.62687 0
M  V30 6348 N 583.85 -0.624285 -1.44708 0
M  V30 6349 C 584.798 0.0969952 -2.32398 0
M  V30 6350 C 585.792 0.842762 -1.46949 0
M  V30 6351 O 586.998 0.756436 -1.63334 0
M  V30 6352 H 583.373 0.0501306 -0.750327 0
M  V30 6353 H 585.344 -0.660767 -2.90992 0
M  V30 6354 C 584.093 1.06967 -3.30837 0
M  V30 6355 H 583.416 0.505242 -3.96595 0
M  V30 6356 H 584.856 1.54397 -3.94889 0
M  V30 6357 C 583.315 2.15153 -2.5925 0
M  V30 6358 O 583.845 3.23139 -2.3863 0
M  V30 6359 N 582.051 1.90898 -2.19103 0
M  V30 6360 H 581.598 1.03086 -2.36074 0
M  V30 6361 H 581.556 2.63485 -1.71531 0
M  V30 6362 N 585.328 1.53329 -0.364422 0
M  V30 6363 C 586.576 2.00842 0.225189 0
M  V30 6364 C 586.897 1.25345 1.49378 0
M  V30 6365 O 586.167 0.366396 1.92443 0
M  V30 6366 H 584.747 0.742009 0.0862027 0
M  V30 6367 H 587.409 1.8863 -0.490389 0
M  V30 6368 H 586.505 3.08795 0.452987 0
M  V30 6369 N 586.806 0.0935595 1.57322 0
M  V30 6370 C 587.738 -0.895923 2.10964 0
M  V30 6371 C 588.751 -1.24705 1.04654 0
M  V30 6372 O 589.94 -1.20044 1.32105 0
M  V30 6373 C 587.04 -2.20546 2.57318 0
M  V30 6374 C 586.213 -2.0299 3.87445 0
M  V30 6375 C 585.272 -3.17443 4.19662 0
M  V30 6376 O 584.298 -2.91474 4.88909 0
M  V30 6377 N 585.5 -4.43168 3.74943 0
M  V30 6378 H 588.265 -0.437788 2.96485 0
M  V30 6379 H 585.826 -0.0915863 1.61641 0
M  V30 6380 H 587.818 -2.9606 2.75917 0
M  V30 6381 H 586.388 -2.57789 1.76816 0
M  V30 6382 H 585.608 -1.11815 3.78009 0
M  V30 6383 H 586.896 -1.88535 4.7258 0
M  V30 6384 H 586.294 -4.67149 3.19043 0
M  V30 6385 H 584.851 -5.15637 3.987 0
M  V30 6386 N 588.284 -1.56567 -0.180126 0
M  V30 6387 C 589.7 -1.50488 -0.531559 0
M  V30 6388 C 589.9 -0.796267 -1.851 0
M  V30 6389 O 588.956 -0.352978 -2.50021 0
M  V30 6390 C 590.269 -2.95201 -0.572456 0
M  V30 6391 C 591.817 -3.05957 -0.660264 0
M  V30 6392 C 592.292 -4.5211 -0.732135 0
M  V30 6393 N 593.783 -4.56322 -0.795262 0
M  V30 6394 C 594.518 -5.66742 -0.871296 0
M  V30 6395 N 594.014 -6.86815 -0.908708 0
M  V30 6396 N 595.807 -5.54691 -0.909639 0
M  V30 6397 H 587.958 -2.01045 0.685165 0
M  V30 6398 H 590.221 -0.915536 0.245962 0
M  V30 6399 H 589.927 -3.50165 0.328208 0
M  V30 6400 H 589.801 -3.49369 -1.422 0
M  V30 6401 H 592.188 -2.51032 -1.55136 0
M  V30 6402 H 592.269 -2.54888 0.215783 0
M  V30 6403 H 591.913 -5.07664 0.154664 0
M  V30 6404 H 591.843 -5.00926 -1.6242 0
M  V30 6405 H 594.334 -3.69868 -0.77499 0
M  V30 6406 H 594.647 -7.66718 -0.967654 0
M  V30 6407 H 592.992 -6.89443 -0.877132 0
M  V30 6408 H 596.183 -4.59804 -0.877353 0
M  V30 6409 H 596.356 -6.40768 -0.965434 0
M  V30 6410 N 589.762 0.448376 -1.51087 0
M  V30 6411 C 590.725 1.52588 -1.71025 0
M  V30 6412 C 591.725 1.49958 -0.580442 0
M  V30 6413 O 592.915 1.52176 -0.847833 0
M  V30 6414 C 590.047 2.92163 -1.75652 0
M  V30 6415 H 591.24 1.36218 -2.67179 0
M  V30 6416 H 588.793 0.676313 -1.4091 0
M  V30 6417 H 589.528 3.13951 -0.812724 0
M  V30 6418 H 589.313 2.95478 -2.57751 0
M  V30 6419 H 590.803 3.70349 -1.92953 0
M  V30 6420 N 591.24 1.41047 0.703093 0
M  V30 6421 C 592.48 1.41461 1.4754 0
M  V30 6422 C 592.844 0.0199013 1.9199 0
M  V30 6423 O 594.045 -0.101138 2.6861 0
M  V30 6424 C 592.316 2.38703 2.66 0
M  V30 6425 S 593.875 2.57582 3.55242 0
M  V30 6426 H 590.693 0.501226 0.504275 0
M  V30 6427 H 593.295 1.77422 0.821074 0
M  V30 6428 H 591.999 3.3885 2.31536 0
M  V30 6429 H 591.53 2.04069 3.36333 0
M  V30 6430 H 593.545 1.83758 4.6092 0
M  V30 6431 N 592.718 -0.936591 1.26751 0
M  V30 6432 C 593.967 -1.67778 1.11953 0
M  V30 6433 C 594.28 -1.92694 -0.33589 0
M  V30 6434 O 595.486 -2.64682 -0.604618 0
M  V30 6435 C 593.942 -3.02138 1.95551 0
M  V30 6436 C 593.55 -2.84953 3.45696 0
M  V30 6437 C 595.294 -3.79917 1.89377 0
M  V30 6438 C 593.201 -4.14814 4.21525 0
M  V30 6439 H 592.131 -0.629275 0.415366 0
M  V30 6440 H 594.782 -1.04122 1.51099 0
M  V30 6441 H 593.164 -3.668 1.49243 0
M  V30 6442 H 594.338 -2.29112 3.99805 0
M  V30 6443 H 592.653 -2.20612 3.53156 0
M  V30 6444 H 595.25 -4.76134 2.43312 0
M  V30 6445 H 595.593 -4.07204 0.865464 0
M  V30 6446 H 596.126 -3.22037 2.33532 0
M  V30 6447 H 592.865 -3.92709 5.24843 0
M  V30 6448 H 592.385 -4.70352 3.72195 0
M  V30 6449 H 594.064 -4.83239 4.3022 0
M  V30 6450 N 594.196 -1.08629 -1.14182 0
M  V30 6451 C 595.444 -0.815731 -1.84906 0
M  V30 6452 C 595.765 0.660441 -1.83475 0
M  V30 6453 O 595.035 1.47888 -1.28476 0
M  V30 6454 H 593.615 -0.298773 -0.684648 0
M  V30 6455 H 596.277 -1.37274 -1.38354 0
M  V30 6456 H 595.373 -1.16193 -2.89665 0
M  V30 6457 N 595.674 1.31259 -0.872281 0
M  V30 6458 C 596.606 2.27396 -0.28697 0
M  V30 6459 C 597.619 1.53181 0.551297 0
M  V30 6460 O 598.808 1.74561 0.372914 0
M  V30 6461 C 595.908 3.33335 0.611617 0
M  V30 6462 C 595.081 4.36966 -0.194729 0
M  V30 6463 C 594.14 5.22387 0.632358 0
M  V30 6464 O 593.166 5.69169 0.0595691 0
M  V30 6465 N 594.368 5.46985 1.94391 0
M  V30 6466 H 597.133 2.78261 -1.11314 0
M  V30 6467 H 594.694 1.44306 -0.733994 0
M  V30 6468 H 596.686 3.87398 1.17068 0
M  V30 6469 H 595.256 2.82496 1.33846 0
M  V30 6470 H 594.476 3.82945 -0.935241 0
M  V30 6471 H 595.764 5.03273 -0.747935 0
M  V30 6472 H 595.162 5.10737 2.43237 0
M  V30 6473 H 593.719 6.03973 2.45071 0
M  V30 6474 N 597.152 0.631951 1.44375 0
M  V30 6475 C 598.084 -0.110911 2.28931 0
M  V30 6476 C 599.097 -0.808086 1.41329 0
M  V30 6477 O 600.286 -0.669396 1.65473 0
M  V30 6478 C 597.386 -1.17928 3.1772 0
M  V30 6479 C 596.559 -0.564458 4.33743 0
M  V30 6480 C 595.618 -1.5269 5.0356 0
M  V30 6481 O 594.644 -1.04372 5.59549 0
M  V30 6482 N 595.846 -2.86123 5.05088 0
M  V30 6483 H 598.611 0.614758 2.93327 0
M  V30 6484 H 596.172 0.473171 1.54831 0
M  V30 6485 H 598.164 -1.82348 3.61291 0
M  V30 6486 H 596.734 -1.80717 2.55069 0
M  V30 6487 H 595.954 0.258373 3.93352 0
M  V30 6488 H 597.242 -0.134355 5.08623 0
M  V30 6489 H 596.64 -3.27959 4.60933 0
M  V30 6490 H 595.197 -3.45901 5.52445 0
M  V30 6491 N 598.631 -1.53133 0.372548 0
M  V30 6492 C 599.878 -2.01356 -0.214959 0
M  V30 6493 C 600.206 -1.2596 -1.48204 0
M  V30 6494 O 599.461 -0.343511 -1.92662 0
M  V30 6495 C 599.76 -3.53206 -0.545938 0
M  V30 6496 C 599.426 -4.46511 0.627624 0
M  V30 6497 C 598.088 -4.71737 0.949615 0
M  V30 6498 C 600.44 -5.01666 1.41353 0
M  V30 6499 C 597.768 -5.4937 2.05936 0
M  V30 6500 C 600.12 -5.80511 2.51375 0
M  V30 6501 C 598.784 -6.04022 2.84101 0
M  V30 6502 H 598.054 -0.736813 -0.078659 0
M  V30 6503 H 600.701 -1.84682 0.506447 0
M  V30 6504 H 599.006 -3.67864 -1.34845 0
M  V30 6505 H 600.703 -3.87997 -1.01287 0
M  V30 6506 H 597.293 -4.27029 0.366635 0
M  V30 6507 H 601.477 -4.82117 1.17802 0
M  V30 6508 H 596.733 -5.65803 2.31682 0
M  V30 6509 H 600.907 -6.22255 3.12684 0
M  V30 6510 H 598.534 -6.63962 3.70214 0
M  V30 6511 N 600.109 -0.101901 -1.5727 0
M  V30 6512 C 601.072 0.840129 -2.13247 0
M  V30 6513 C 602.072 1.20625 -1.06331 0
M  V30 6514 O 603.262 1.13456 -1.32186 0
M  V30 6515 C 600.394 2.13372 -2.65867 0
M  V30 6516 H 601.587 0.353945 -2.97804 0
M  V30 6517 H 599.14 0.147167 -1.55606 0
M  V30 6518 H 599.875 2.66461 -1.84849 0
M  V30 6519 H 599.66 1.88085 -3.44044 0
M  V30 6520 H 601.15 2.80748 -3.09145 0
M  V30 6521 N 601.587 1.56661 0.17182 0
M  V30 6522 C 602.517 1.99401 1.21498 0
M  V30 6523 C 603.498 0.869516 1.46197 0
M  V30 6524 O 604.683 1.13556 1.57539 0
M  V30 6525 C 601.813 2.35346 2.55401 0
M  V30 6526 C 600.767 3.5075 2.45272 0
M  V30 6527 C 600.093 3.72437 3.8366 0
M  V30 6528 C 601.393 4.84216 1.95787 0
M  V30 6529 H 603.087 2.86792 0.859699 0
M  V30 6530 H 600.633 1.37977 0.412103 0
M  V30 6531 H 602.586 2.63843 3.2858 0
M  V30 6532 H 601.31 1.44864 2.92715 0
M  V30 6533 H 599.969 3.2238 1.74547 0
M  V30 6534 H 599.617 2.79246 4.18367 0
M  V30 6535 H 599.317 4.50087 3.77751 0
M  V30 6536 H 600.841 4.03334 4.58426 0
M  V30 6537 H 602.255 5.11592 2.5874 0
M  V30 6538 H 600.652 5.65498 2.00827 0
M  V30 6539 H 601.722 4.76243 0.912159 0
M  V30 6540 N 603.065 -0.440357 1.51323 0
M  V30 6541 C 604.015 -1.53263 1.68803 0
M  V30 6542 C 604.999 -1.51494 0.542057 0
M  V30 6543 O 606.191 -1.57999 0.797839 0
M  V30 6544 C 603.32 -2.91479 1.8137 0
M  V30 6545 C 602.406 -2.98015 3.01742 0
M  V30 6546 N 602.797 -2.743 4.24962 0
M  V30 6547 C 601.095 -3.29173 3.00934 0
M  V30 6548 C 601.796 -2.86601 5.06197 0
M  V30 6549 N 600.772 -3.1814 4.40781 0
M  V30 6550 H 604.574 -1.33675 2.61741 0
M  V30 6551 H 602.088 -0.647616 1.48929 0
M  V30 6552 H 604.085 -3.70055 1.92002 0
M  V30 6553 H 602.745 -3.12089 0.896117 0
M  V30 6554 H 603.756 -2.49287 4.53957 0
M  V30 6555 H 600.433 -3.55577 2.18796 0
M  V30 6556 H 601.823 -2.72246 6.14274 0
M  V30 6557 N 604.543 -1.41418 -0.695603 0
M  V30 6558 C 605.453 -1.45622 -1.83933 0
M  V30 6559 C 606.469 -0.346825 -1.70508 0
M  V30 6560 O 607.645 -0.59454 -1.92424 0
M  V30 6561 C 604.71 -1.33627 -3.19914 0
M  V30 6562 C 603.771 -2.54882 -3.45447 0
M  V30 6563 C 603.004 -2.43449 -4.7494 0
M  V30 6564 O 603.227 -1.45905 -5.51424 0
M  V30 6565 O 602.161 -3.33206 -5.01256 0
M  V30 6566 H 605.987 -2.42114 -1.83342 0
M  V30 6567 H 603.572 -1.22956 -0.848658 0
M  V30 6568 H 605.454 -1.29221 -4.01098 0
M  V30 6569 H 604.129 -0.402508 -3.21188 0
M  V30 6570 H 603.036 -2.64865 -2.64192 0
M  V30 6571 H 604.369 -3.47087 -3.48987 0
M  V30 6572 N 606.021 0.929856 -1.27246 0
M  V30 6573 C 606.984 2.01172 -1.09829 0
M  V30 6574 C 607.984 1.60743 -0.0429687 0
M  V30 6575 O 609.174 1.71813 -0.287373 0
M  V30 6576 C 606.306 3.34191 -0.673003 0
M  V30 6577 H 607.499 2.18054 -2.05895 0
M  V30 6578 H 605.052 1.11036 -1.10003 0
M  V30 6579 H 605.787 3.23009 0.289134 0
M  V30 6580 H 605.572 3.64892 -1.43515 0
M  V30 6581 H 607.062 4.13646 -0.573323 0
M  V30 6582 N 607.499 1.09233 1.13605 0
M  V30 6583 C 608.727 0.848908 1.88683 0
M  V30 6584 C 609.142 -0.599667 1.79024 0
M  V30 6585 O 608.499 -1.41265 1.15544 0
M  V30 6586 C 608.55 1.27273 3.38355 0
M  V30 6587 O 608.271 2.66449 3.47759 0
M  V30 6588 C 609.772 1.0614 4.30406 0
M  V30 6589 H 606.992 0.305549 0.597395 0
M  V30 6590 H 609.536 1.4538 1.43823 0
M  V30 6591 H 607.691 0.711776 3.80805 0
M  V30 6592 H 608.105 2.84264 4.40788 0
M  V30 6593 H 609.579 1.40725 5.33761 0
M  V30 6594 H 610.056 -0.000960332 4.392 0
M  V30 6595 H 610.662 1.60821 3.93722 0
M  V30 6596 N 608.977 -1.30795 0.87923 0
M  V30 6597 C 609.907 -2.30742 0.357796 0
M  V30 6598 C 610.888 -1.60747 -0.556283 0
M  V30 6599 O 612.073 -1.88393 -0.47135 0
M  V30 6600 C 609.203 -3.44583 -0.433555 0
M  V30 6601 C 608.157 -4.26235 0.388251 0
M  V30 6602 C 607.483 -5.32073 -0.529352 0
M  V30 6603 C 608.783 -4.96303 1.62729 0
M  V30 6604 H 610.477 -2.74605 1.19299 0
M  V30 6605 H 608.023 -1.32017 0.575104 0
M  V30 6606 H 609.976 -4.13563 -0.808934 0
M  V30 6607 H 608.7 -2.99511 -1.30234 0
M  V30 6608 H 607.359 -3.58936 0.745695 0
M  V30 6609 H 607.007 -4.83249 -1.39569 0
M  V30 6610 H 606.707 -5.87598 0.0166741 0
M  V30 6611 H 608.231 -6.0391 -0.901373 0
M  V30 6612 H 609.645 -5.5783 1.32283 0
M  V30 6613 H 608.042 -5.61666 2.11309 0
M  V30 6614 H 609.112 -4.22758 2.37494 0
M  V30 6615 N 610.455 -0.639598 -1.44038 0
M  V30 6616 C 611.701 -0.147698 -2.02261 0
M  V30 6617 C 612.034 1.23031 -1.50256 0
M  V30 6618 O 611.309 1.81847 -0.690068 0
M  V30 6619 C 611.592 -0.14362 -3.59813 0
M  V30 6620 C 611.445 -1.55458 -4.22082 0
M  V30 6621 C 612.764 0.527317 -4.36929 0
M  V30 6622 H 609.883 -0.0551453 -0.734934 0
M  V30 6623 H 612.525 -0.817688 -1.71505 0
M  V30 6624 H 610.675 0.426898 -3.86147 0
M  V30 6625 H 612.347 -2.17464 -4.06826 0
M  V30 6626 H 610.59 -2.10594 -3.79253 0
M  V30 6627 H 611.261 -1.50369 -5.31124 0
M  V30 6628 H 613.737 0.0420504 -4.16079 0
M  V30 6629 H 612.613 0.499389 -5.46624 0
M  V30 6630 H 612.874 1.59914 -4.12165 0
M  V30 6631 N 611.933 1.52934 -0.380664 0
M  V30 6632 C 612.863 2.29118 0.450268 0
M  V30 6633 C 613.844 1.32153 1.07096 0
M  V30 6634 O 615.029 1.61038 1.08537 0
M  V30 6635 C 612.159 3.09161 1.58231 0
M  V30 6636 C 611.113 4.13938 1.0881 0
M  V30 6637 C 610.439 4.82153 2.31155 0
M  V30 6638 C 611.739 5.22048 0.162146 0
M  V30 6639 H 613.433 2.98826 -0.185361 0
M  V30 6640 H 610.979 1.43715 -0.0905886 0
M  V30 6641 H 612.932 3.61211 2.17036 0
M  V30 6642 H 611.656 2.3717 2.2454 0
M  V30 6643 H 610.315 3.62855 0.522633 0
M  V30 6644 H 609.963 4.06719 2.95953 0
M  V30 6645 H 609.663 5.52966 1.98752 0
M  V30 6646 H 611.187 5.37004 2.90618 0
M  V30 6647 H 612.601 5.6951 0.658126 0
M  V30 6648 H 610.998 6.00057 -0.0717122 0
M  V30 6649 H 612.068 4.78398 -0.791438 0
M  V30 6650 N 613.412 0.11024 1.57214 0
M  V30 6651 C 614.66 -0.548783 1.94506 0
M  V30 6652 C 614.981 -1.67772 0.99386 0
M  V30 6653 O 614.251 -1.9584 0.0485841 0
M  V30 6654 H 612.831 -0.205715 0.718116 0
M  V30 6655 H 615.493 0.177127 1.94093 0
M  V30 6656 H 614.589 -0.949096 2.97319 0
M  V30 6657 N 614.89 -1.56749 -0.16351 0
M  V30 6658 C 615.823 -1.9213 -1.23132 0
M  V30 6659 C 616.801 -0.785047 -1.42393 0
M  V30 6660 O 617.985 -1.0391 -1.57273 0
M  V30 6661 C 615.112 -2.17901 -2.59301 0
M  V30 6662 C 614.158 -3.40576 -2.5673 0
M  V30 6663 S 614.991 -4.94689 -2.05045 0
M  V30 6664 C 616.147 -5.23564 -3.42975 0
M  V30 6665 H 616.38 -2.824 -0.929383 0
M  V30 6666 H 613.913 -1.4994 -0.368418 0
M  V30 6667 H 615.871 -2.33429 -3.3767 0
M  V30 6668 H 614.532 -1.28324 -2.86691 0
M  V30 6669 H 613.725 -3.55833 -3.5693 0
M  V30 6670 H 613.327 -3.24204 -1.86462 0
M  V30 6671 H 615.619 -5.16019 -4.3901 0
M  V30 6672 H 616.562 -6.25134 -3.32586 0
M  V30 6673 H 616.97 -4.51113 -3.39348 0
M  V30 6674 N 616.368 0.432326 -1.51554 0
M  V30 6675 C 617.301 1.54525 -1.6792 0
M  V30 6676 C 618.279 1.53831 -0.526764 0
M  V30 6677 O 619.463 1.72884 -0.751233 0
M  V30 6678 C 616.59 2.931 -1.69736 0
M  V30 6679 C 615.636 3.11799 -2.91005 0
M  V30 6680 S 616.469 2.87565 -4.51737 0
M  V30 6681 C 617.625 4.28412 -4.56305 0
M  V30 6682 H 617.858 1.4041 -2.62054 0
M  V30 6683 H 615.391 0.622357 -1.41301 0
M  V30 6684 H 617.349 3.72974 -1.71467 0
M  V30 6685 H 616.01 3.04574 -0.767705 0
M  V30 6686 H 615.203 4.13127 -2.8869 0
M  V30 6687 H 614.805 2.39757 -2.87041 0
M  V30 6688 H 617.097 5.21692 -4.32254 0
M  V30 6689 H 618.04 4.35758 -5.58141 0
M  V30 6690 H 618.448 4.12301 -3.85576 0
M  V30 6691 N 617.846 1.41785 0.688094 0
M  V30 6692 C 618.776 1.47 1.8142 0
M  V30 6693 C 619.757 0.327881 1.6691 0
M  V30 6694 O 620.942 0.540362 1.86531 0
M  V30 6695 C 618.072 1.35876 3.19617 0
M  V30 6696 C 617.026 2.47976 3.48844 0
M  V30 6697 C 616.352 2.21915 4.86475 0
M  V30 6698 C 617.652 3.90309 3.47068 0
M  V30 6699 H 619.346 2.41247 1.77314 0
M  V30 6700 H 616.892 1.16116 0.851651 0
M  V30 6701 H 618.845 1.38134 3.98117 0
M  V30 6702 H 617.569 0.38116 3.24368 0
M  V30 6703 H 616.228 2.45013 2.72698 0
M  V30 6704 H 615.876 1.2248 4.8786 0
M  V30 6705 H 615.576 2.97037 5.06994 0
M  V30 6706 H 617.1 2.25901 5.67275 0
M  V30 6707 H 618.514 3.94947 4.1556 0
M  V30 6708 H 616.911 4.65175 3.7912 0
M  V30 6709 H 617.981 4.17927 2.45896 0
M  V30 6710 N 619.324 -0.923095 1.27737 0
M  V30 6711 C 620.271 -2.02432 1.1086 0
M  V30 6712 C 621.241 -1.66098 0.00835195 0
M  V30 6713 O 622.426 -1.90027 0.171542 0
M  V30 6714 C 619.566 -3.36476 0.766671 0
M  V30 6715 C 618.679 -3.85737 1.94501 0
M  V30 6716 C 617.814 -5.08249 1.54455 0
M  V30 6717 C 616.853 -5.49818 2.6901 0
M  V30 6718 N 615.99 -6.63524 2.29521 0
M  V30 6719 H 620.83 -2.16201 2.05089 0
M  V30 6720 H 618.367 -1.05909 1.02087 0
M  V30 6721 H 620.325 -4.13569 0.549223 0
M  V30 6722 H 618.955 -3.22502 -0.13867 0
M  V30 6723 H 618.007 -3.04883 2.27487 0
M  V30 6724 H 619.319 -4.12513 2.80419 0
M  V30 6725 H 618.473 -5.92857 1.28862 0
M  V30 6726 H 617.212 -4.83261 0.656534 0
M  V30 6727 H 616.217 -4.63757 2.95313 0
M  V30 6728 H 617.442 -5.76799 3.5844 0
M  V30 6729 H 615.388 -6.40185 1.43177 0
M  V30 6730 H 615.305 -6.89978 3.08977 0
M  V30 6731 H 616.573 -7.51461 2.07187 0
M  V30 6732 N 620.802 -1.09834 -1.13024 0
M  V30 6733 C 621.752 -0.710899 -2.16634 0
M  V30 6734 C 622.736 0.276836 -1.58501 0
M  V30 6735 O 623.928 0.0865457 -1.76788 0
M  V30 6736 C 621.057 -0.137574 -3.43024 0
M  V30 6737 C 620.143 -1.15198 -4.08155 0
M  V30 6738 N 620.534 -2.34054 -4.48388 0
M  V30 6739 C 618.832 -0.991074 -4.34849 0
M  V30 6740 C 619.533 -2.98616 -4.99203 0
M  V30 6741 N 618.509 -2.26159 -4.94321 0
M  V30 6742 H 622.311 -1.61576 -2.455 0
M  V30 6743 H 619.825 -0.975158 -1.29863 0
M  V30 6744 H 621.822 0.158031 -4.166 0
M  V30 6745 H 620.482 0.762088 -3.1563 0
M  V30 6746 H 621.493 -2.7162 -4.40957 0
M  V30 6747 H 618.17 -0.146448 -4.17243 0
M  V30 6748 H 619.56 -3.99683 -5.40096 0
M  V30 6749 N 622.28 1.30327 -0.886154 0
M  V30 6750 C 623.527 1.96097 -0.505192 0
M  V30 6751 C 623.855 1.69952 0.945868 0
M  V30 6752 O 623.11 0.997653 1.68361 0
M  V30 6753 C 623.409 3.49906 -0.728042 0
M  V30 6754 C 623.075 3.96103 -2.15437 0
M  V30 6755 C 621.737 4.08428 -2.5444 0
M  V30 6756 C 624.089 4.20177 -3.08384 0
M  V30 6757 C 621.417 4.42189 -3.85598 0
M  V30 6758 C 623.769 4.55407 -4.39075 0
M  V30 6759 C 622.433 4.65941 -4.7797 0
M  V30 6760 H 621.703 0.71757 -0.184863 0
M  V30 6761 H 624.35 1.55171 -1.12223 0
M  V30 6762 H 622.655 3.9179 -0.027978 0
M  V30 6763 H 624.352 3.98869 -0.412862 0
M  V30 6764 H 620.942 3.87017 -1.84162 0
M  V30 6765 H 625.126 4.10134 -2.7947 0
M  V30 6766 H 620.382 4.48544 -4.15473 0
M  V30 6767 H 624.556 4.72986 -5.11133 0
M  V30 6768 H 622.183 4.91856 -5.79639 0
M  V30 6769 N 623.758 0.647228 1.43697 0
M  V30 6770 C 625.035 0.0883758 1.954 0
M  V30 6771 C 625.415 -1.39006 1.58873 0
M  V30 6772 O 624.763 -2.11255 0.87083 0
M  V30 6773 C 624.973 0.328263 3.47453 0
M  V30 6774 C 626.321 0.230009 4.23977 0
M  V30 6775 O 627.345 0.260496 3.55246 0
M  V30 6776 O 626.204 0.148615 5.46298 0
M  V30 6777 H 623.298 -0.0130683 0.826897 0
M  V30 6778 H 625.844 0.72005 1.53666 0
M  V30 6779 H 624.616 1.3535 3.67146 0
M  V30 6780 H 624.239 -0.336772 3.96171 0
M  V30 6781 N 625.236 -1.5273 0.388769 0
M  V30 6782 C 626.483 -2.01573 -0.19359 0
M  V30 6783 C 626.811 -1.27525 -1.46859 0
M  V30 6784 O 626.066 -0.363926 -1.92286 0
M  V30 6785 C 626.365 -3.53765 -0.508445 0
M  V30 6786 C 626.031 -4.4582 0.674947 0
M  V30 6787 C 624.693 -4.70703 0.999596 0
M  V30 6788 C 627.045 -5.00138 1.46666 0
M  V30 6789 C 624.373 -5.47155 2.11751 0
M  V30 6790 C 626.725 -5.77812 2.57518 0
M  V30 6791 C 625.389 -6.00975 2.90492 0
M  V30 6792 H 624.659 -0.737606 -0.0708397 0
M  V30 6793 H 627.306 -1.84134 0.526006 0
M  V30 6794 H 625.611 -3.69274 -1.30936 0
M  V30 6795 H 627.308 -3.8905 -0.971664 0
M  V30 6796 H 623.898 -4.26616 0.411906 0
M  V30 6797 H 628.082 -4.8084 1.22909 0
M  V30 6798 H 623.338 -5.63314 2.3767 0
M  V30 6799 H 627.512 -6.18904 3.19267 0
M  V30 6800 H 625.139 -6.59998 3.77236 0
M  V30 6801 N 626.714 -0.118576 -1.57153 0
M  V30 6802 C 627.624 0.845484 -2.18835 0
M  V30 6803 C 628.64 1.29299 -1.16438 0
M  V30 6804 O 629.816 1.35607 -1.48905 0
M  V30 6805 C 626.881 2.07795 -2.77529 0
M  V30 6806 C 625.942 1.6824 -3.9496 0
M  V30 6807 C 625.175 2.85612 -4.50845 0
M  V30 6808 O 625.398 4.01025 -4.05629 0
M  V30 6809 O 624.332 2.62721 -5.41536 0
M  V30 6810 H 628.158 0.350568 -3.0167 0
M  V30 6811 H 625.743 0.107013 -1.49016 0
M  V30 6812 H 627.625 2.79978 -3.14945 0
M  V30 6813 H 626.3 2.56294 -1.97725 0
M  V30 6814 H 625.207 0.931663 -3.62313 0
M  V30 6815 H 626.54 1.24484 -4.76198 0
M  V30 6816 N 628.193 1.56834 0.155195 0
M  V30 6817 C 629.47 1.73799 0.897395 0
M  V30 6818 C 629.85 0.684379 1.99698 0
M  V30 6819 O 629.198 -0.298111 2.26547 0
M  V30 6820 C 629.408 3.17572 1.44737 0
M  V30 6821 C 630.756 3.79014 1.91399 0
M  V30 6822 O 631.78 3.20951 1.54496 0
M  V30 6823 O 630.639 4.80998 2.59429 0
M  V30 6824 H 627.733 0.710329 0.423511 0
M  V30 6825 H 630.279 1.69107 0.141761 0
M  V30 6826 H 629.051 3.85749 0.656741 0
M  V30 6827 H 628.674 3.26657 2.26674 0
M  V30 6828 N 629.671 -0.424282 1.51781 0
M  V30 6829 C 630.621 -1.51464 1.70419 0
M  V30 6830 C 631.605 -1.50911 0.558094 0
M  V30 6831 O 632.797 -1.57143 0.814552 0
M  V30 6832 C 629.926 -2.89539 1.84451 0
M  V30 6833 C 629.012 -2.94798 3.04886 0
M  V30 6834 N 629.403 -2.69778 4.27848 0
M  V30 6835 C 627.701 -3.25962 3.04408 0
M  V30 6836 C 628.402 -2.81216 5.09208 0
M  V30 6837 N 627.378 -3.13447 4.44131 0
M  V30 6838 H 631.18 -1.30892 2.63144 0
M  V30 6839 H 628.694 -0.631783 1.49607 0
M  V30 6840 H 630.691 -3.67998 1.95917 0
M  V30 6841 H 629.351 -3.11121 0.929168 0
M  V30 6842 H 630.362 -2.44458 4.56575 0
M  V30 6843 H 627.039 -3.53236 2.22555 0
M  V30 6844 H 628.429 -2.65715 6.17127 0
M  V30 6845 N 631.149 -1.42148 -0.680565 0
M  V30 6846 C 632.377 -1.45696 -1.46902 0
M  V30 6847 C 632.792 -0.0665858 -1.88683 0
M  V30 6848 O 632.149 0.917436 -1.57764 0
M  V30 6849 C 632.2 -2.37898 -2.72188 0
M  V30 6850 O 631.921 -3.71526 -2.32163 0
M  V30 6851 C 633.422 -2.50407 -3.65802 0
M  V30 6852 H 630.642 -0.495729 -0.45221 0
M  V30 6853 H 633.186 -1.866 -0.836709 0
M  V30 6854 H 631.341 -2.00263 -3.31622 0
M  V30 6855 H 631.755 -4.20849 -3.13027 0
M  V30 6856 H 633.229 -3.19056 -4.50452 0
M  V30 6857 H 633.706 -1.5401 -4.11312 0
M  V30 6858 H 634.312 -2.8874 -3.12265 0
M  V30 6859 N 632.627 0.916307 -1.28225 0
M  V30 6860 C 633.575 2.03977 -1.11786 0
M  V30 6861 C 634.569 1.69358 -0.0378265 0
M  V30 6862 O 635.775 1.78925 -0.196405 0
M  V30 6863 H 632.15 0.66829 -0.344809 0
M  V30 6864 H 634.121 2.14985 -2.06939 0
M  V30 6865 C 632.87 3.38518 -0.7938 0
M  V30 6866 H 632.193 3.65649 -1.61682 0
M  V30 6867 H 633.633 4.17864 -0.718719 0
M  V30 6868 C 632.092 3.33134 0.502353 0
M  V30 6869 O 632.622 3.71281 1.53341 0
M  V30 6870 N 630.828 2.86229 0.502147 0
M  V30 6871 H 630.375 2.55382 -0.337338 0
M  V30 6872 H 630.333 2.83009 1.36942 0
M  V30 6873 N 634.105 1.10431 1.1244 0
M  V30 6874 C 635.335 0.867612 1.87499 0
M  V30 6875 C 635.743 -0.585475 1.79913 0
M  V30 6876 O 635.086 -1.41539 1.171 0
M  V30 6877 C 635.148 1.2374 3.37533 0
M  V30 6878 C 634.812 2.69751 3.68895 0
M  V30 6879 C 635.809 3.67988 3.67261 0
M  V30 6880 C 633.494 3.06135 3.98229 0
M  V30 6881 C 635.488 5.00632 3.9452 0
M  V30 6882 C 633.175 4.38967 4.25149 0
M  V30 6883 C 634.173 5.36025 4.23281 0
M  V30 6884 O 633.861 6.66465 4.49533 0
M  V30 6885 H 633.593 0.311196 0.600111 0
M  V30 6886 H 636.147 1.47257 1.43194 0
M  V30 6887 H 634.377 0.575537 3.82393 0
M  V30 6888 H 636.066 0.978187 3.93937 0
M  V30 6889 H 636.832 3.41224 3.44661 0
M  V30 6890 H 632.711 2.31214 3.98825 0
M  V30 6891 H 636.255 5.7638 3.92978 0
M  V30 6892 H 632.152 4.6547 4.47223 0
M  V30 6893 H 632.92 6.72095 4.67152 0
M  V30 6894 N 635.583 -1.29855 0.893053 0
M  V30 6895 C 636.493 -2.31661 0.370157 0
M  V30 6896 C 637.509 -1.65677 -0.531723 0
M  V30 6897 O 638.685 -1.9691 -0.422902 0
M  V30 6898 C 635.75 -3.44388 -0.399741 0
M  V30 6899 C 634.811 -4.2598 0.532861 0
M  V30 6900 C 634.044 -5.33324 -0.200388 0
M  V30 6901 O 634.267 -5.52305 -1.42531 0
M  V30 6902 O 633.201 -6.00188 0.453668 0
M  V30 6903 H 637.027 -2.78354 1.2146 0
M  V30 6904 H 634.612 -1.34171 0.657153 0
M  V30 6905 H 636.494 -4.13037 -0.835358 0
M  V30 6906 H 635.169 -2.99815 -1.22035 0
M  V30 6907 H 634.076 -3.59998 1.01746 0
M  V30 6908 H 635.409 -4.74178 1.3197 0
M  V30 6909 N 637.061 -0.65484 -1.43351 0
M  V30 6910 C 637.991 0.0221809 -2.33489 0
M  V30 6911 C 638.972 0.810272 -1.49561 0
M  V30 6912 O 640.157 0.771426 -1.78221 0
M  V30 6913 C 637.287 0.988117 -3.32947 0
M  V30 6914 C 636.241 0.310026 -4.26876 0
M  V30 6915 C 635.567 1.38752 -5.16384 0
M  V30 6916 C 636.867 -0.798589 -5.16159 0
M  V30 6917 H 638.561 -0.730571 -2.9035 0
M  V30 6918 H 636.107 -0.352773 -1.39612 0
M  V30 6919 H 638.06 1.47067 -3.94904 0
M  V30 6920 H 636.784 1.77205 -2.74346 0
M  V30 6921 H 635.443 -0.152097 -3.66284 0
M  V30 6922 H 635.091 2.16293 -4.54121 0
M  V30 6923 H 634.791 0.939051 -5.80048 0
M  V30 6924 H 636.315 1.87141 -5.81215 0
M  V30 6925 H 637.729 -0.398126 -5.71916 0
M  V30 6926 H 636.126 -1.17163 -5.88552 0
M  V30 6927 H 637.196 -1.65588 -4.55751 0
M  V30 6928 N 638.539 1.52521 -0.396863 0
M  V30 6929 C 639.816 1.94112 0.240842 0
M  V30 6930 C 640.196 1.33288 1.637 0
M  V30 6931 O 639.544 0.503901 2.22875 0
M  V30 6932 C 639.754 3.48033 0.259567 0
M  V30 6933 C 641.102 4.21822 0.484866 0
M  V30 6934 O 642.126 3.54579 0.339453 0
M  V30 6935 O 640.985 5.41042 0.770412 0
M  V30 6936 H 638.079 0.812973 0.151671 0
M  V30 6937 H 640.625 1.63572 -0.451918 0
M  V30 6938 H 639.397 3.84655 -0.718078 0
M  V30 6939 H 639.02 3.84899 0.996937 0
M  V30 6940 N 640.017 0.126909 1.57088 0
M  V30 6941 C 641.266 -0.529024 1.94639 0
M  V30 6942 C 641.579 -1.67323 1.01304 0
M  V30 6943 O 642.785 -2.39245 1.28352 0
M  V30 6944 C 641.241 -0.992483 3.45945 0
M  V30 6945 C 640.849 0.123691 4.47829 0
M  V30 6946 C 642.593 -1.61934 3.924 0
M  V30 6947 C 640.5 -0.356911 5.90322 0
M  V30 6948 H 639.43 -0.201397 0.726605 0
M  V30 6949 H 642.081 0.208032 1.82317 0
M  V30 6950 H 640.463 -1.7842 3.53528 0
M  V30 6951 H 641.637 0.900168 4.51922 0
M  V30 6952 H 639.952 0.657699 4.11173 0
M  V30 6953 H 642.549 -1.9902 4.96281 0
M  V30 6954 H 642.892 -2.50075 3.32819 0
M  V30 6955 H 643.425 -0.892894 3.8765 0
M  V30 6956 H 640.164 0.488636 6.53676 0
M  V30 6957 H 639.684 -1.0997 5.89633 0
M  V30 6958 H 641.363 -0.815547 6.41839 0
M  V30 6959 N 641.495 -1.56914 -0.146875 0
M  V30 6960 C 642.442 -1.98275 -1.18134 0
M  V30 6961 C 643.412 -0.850367 -1.42681 0
M  V30 6962 O 644.597 -1.11244 -1.55014 0
M  V30 6963 C 641.737 -2.36861 -2.5098 0
M  V30 6964 C 640.85 -3.63391 -2.33605 0
M  V30 6965 C 639.985 -3.91079 -3.59486 0
M  V30 6966 C 639.024 -5.10879 -3.37149 0
M  V30 6967 N 638.161 -5.34577 -4.55161 0
M  V30 6968 H 643.001 -2.8645 -0.821622 0
M  V30 6969 H 640.538 -1.41718 -0.394248 0
M  V30 6970 H 642.496 -2.57262 -3.28439 0
M  V30 6971 H 641.126 -1.51766 -2.84898 0
M  V30 6972 H 640.178 -3.50766 -1.47199 0
M  V30 6973 H 641.49 -4.51007 -2.13059 0
M  V30 6974 H 640.644 -4.11979 -4.45374 0
M  V30 6975 H 639.383 -3.01885 -3.83036 0
M  V30 6976 H 638.388 -4.89853 -2.49649 0
M  V30 6977 H 639.613 -6.01626 -3.14997 0
M  V30 6978 H 637.559 -4.48337 -4.78884 0
M  V30 6979 H 637.476 -6.16463 -4.37618 0
M  V30 6980 H 638.744 -5.59975 -5.42263 0
M  V30 6981 N 642.974 0.416227 -1.52004 0
M  V30 6982 C 643.884 1.53147 -1.77717 0
M  V30 6983 C 644.9 1.609 -0.662368 0
M  V30 6984 O 646.076 1.77747 -0.946991 0
M  V30 6985 C 643.141 2.88948 -1.91598 0
M  V30 6986 C 642.202 2.9114 -3.15493 0
M  V30 6987 C 641.435 4.20464 -3.28703 0
M  V30 6988 O 641.658 5.13981 -2.47345 0
M  V30 6989 O 640.592 4.29368 -4.21813 0
M  V30 6990 H 644.418 1.34357 -2.72363 0
M  V30 6991 H 642.003 0.601373 -1.36762 0
M  V30 6992 H 643.885 3.69505 -2.02593 0
M  V30 6993 H 642.56 3.07821 -1.00141 0
M  V30 6994 H 641.467 2.09461 -3.09962 0
M  V30 6995 H 642.8 2.77216 -4.06709 0
M  V30 6996 N 644.452 1.42507 0.673017 0
M  V30 6997 C 645.68 1.46473 1.46128 0
M  V30 6998 C 646.095 0.0765912 1.88645 0
M  V30 6999 O 645.452 -0.909057 1.58248 0
M  V30 7000 C 645.503 2.39339 2.70923 0
M  V30 7001 O 645.224 3.72752 2.3019 0
M  V30 7002 C 646.725 2.52343 3.64469 0
M  V30 7003 H 643.945 0.49812 0.449575 0
M  V30 7004 H 646.489 1.87041 0.826802 0
M  V30 7005 H 644.644 2.02019 3.30556 0
M  V30 7006 H 645.058 4.22503 3.10791 0
M  V30 7007 H 646.532 3.2144 4.48754 0
M  V30 7008 H 647.009 1.56189 4.1049 0
M  V30 7009 H 647.615 2.90392 3.10729 0
M  V30 7010 N 645.93 -0.909495 1.28709 0
M  V30 7011 C 646.86 -2.0291 1.15542 0
M  V30 7012 C 647.841 -1.7002 0.0521017 0
M  V30 7013 O 649.026 -1.92835 0.229849 0
M  V30 7014 C 646.156 -3.37458 0.820935 0
M  V30 7015 C 645.11 -3.84524 1.87949 0
M  V30 7016 C 644.436 -5.16086 1.39854 0
M  V30 7017 C 645.736 -4.05918 3.28676 0
M  V30 7018 H 647.43 -2.14183 2.09203 0
M  V30 7019 H 644.976 -1.02913 1.00722 0
M  V30 7020 H 646.929 -4.1528 0.715571 0
M  V30 7021 H 645.653 -3.26249 -0.151374 0
M  V30 7022 H 644.312 -3.08911 1.97408 0
M  V30 7023 H 643.96 -5.01284 0.41518 0
M  V30 7024 H 643.66 -5.48547 2.1064 0
M  V30 7025 H 645.184 -5.96459 1.30649 0
M  V30 7026 H 646.598 -4.74252 3.22115 0
M  V30 7027 H 644.995 -4.49717 3.97334 0
M  V30 7028 H 646.065 -3.10583 3.72379 0
M  V30 7029 N 647.408 -1.11026 -1.11852 0
M  V30 7030 C 648.636 -0.878818 -1.87308 0
M  V30 7031 C 649.051 0.57111 -1.79955 0
M  V30 7032 O 648.408 1.39409 -1.17777 0
M  V30 7033 C 648.459 -1.3264 -3.36287 0
M  V30 7034 O 648.18 -2.71948 -3.43476 0
M  V30 7035 C 649.681 -1.12974 -4.28663 0
M  V30 7036 H 646.901 -0.315015 -0.592458 0
M  V30 7037 H 649.445 -1.47649 -1.41492 0
M  V30 7038 H 647.6 -0.772269 -3.79625 0
M  V30 7039 H 648.014 -2.91241 -4.3621 0
M  V30 7040 H 649.488 -1.49198 -5.31454 0
M  V30 7041 H 649.965 -0.0689127 -4.39146 0
M  V30 7042 H 650.571 -1.67064 -3.91113 0
M  V30 7043 N 648.886 1.2938 -0.899927 0
M  V30 7044 C 649.816 2.30144 -0.39446 0
M  V30 7045 C 650.797 1.61611 0.530639 0
M  V30 7046 O 651.982 1.89119 0.441319 0
M  V30 7047 C 649.112 3.45229 0.37868 0
M  V30 7048 C 648.066 4.25564 -0.456012 0
M  V30 7049 C 647.392 5.32848 0.444637 0
M  V30 7050 C 648.692 4.93651 -1.70605 0
M  V30 7051 H 650.386 2.72673 -1.23653 0
M  V30 7052 H 647.932 1.31086 -0.596034 0
M  V30 7053 H 649.885 4.14797 0.743037 0
M  V30 7054 H 648.609 3.01545 1.25453 0
M  V30 7055 H 647.268 3.57704 -0.802704 0
M  V30 7056 H 646.916 4.85408 1.31863 0
M  V30 7057 H 646.616 5.87497 -0.110154 0
M  V30 7058 H 648.14 6.05268 0.805182 0
M  V30 7059 H 649.554 5.55655 -1.41141 0
M  V30 7060 H 647.951 5.58233 -2.20217 0
M  V30 7061 H 649.021 4.18926 -2.4419 0
M  V30 7062 N 650.364 0.662433 1.43002 0
M  V30 7063 C 651.311 -0.0235324 2.30788 0
M  V30 7064 C 652.281 -0.805342 1.4527 0
M  V30 7065 O 653.466 -0.78009 1.74124 0
M  V30 7066 C 650.606 -0.977545 3.30965 0
M  V30 7067 C 649.719 -0.190865 4.31578 0
M  V30 7068 C 648.854 -1.13951 5.18834 0
M  V30 7069 C 647.893 -0.343796 6.11134 0
M  V30 7070 N 647.03 -1.2445 6.90982 0
M  V30 7071 H 651.87 0.730921 2.88897 0
M  V30 7072 H 649.407 0.372197 1.42313 0
M  V30 7073 H 651.365 -1.54437 3.87563 0
M  V30 7074 H 649.995 -1.69877 2.74484 0
M  V30 7075 H 649.047 0.492388 3.772 0
M  V30 7076 H 650.359 0.427464 4.96965 0
M  V30 7077 H 649.513 -1.77666 5.80103 0
M  V30 7078 H 648.252 -1.79174 4.53595 0
M  V30 7079 H 647.257 0.30665 5.48944 0
M  V30 7080 H 648.482 0.304161 6.78419 0
M  V30 7081 H 646.428 -1.88336 6.28383 0
M  V30 7082 H 646.345 -0.680959 7.52927 0
M  V30 7083 H 647.613 -1.86952 7.56749 0
M  V30 7084 N 651.842 -1.52309 0.404946 0
M  V30 7085 C 653.253 -1.86585 -0.0655926 0
M  V30 7086 C 653.604 -1.3239 -1.44801 0
M  V30 7087 O 652.729 -0.6615 -2.06042 0
M  V30 7088 C 653.324 -3.38566 -0.125801 0
M  V30 7089 C 651.883 -3.72497 -0.540666 0
M  V30 7090 C 651.03 -2.75806 0.287487 0
M  V30 7091 H 653.981 -1.45995 0.622185 0
M  V30 7092 H 654.002 -3.68658 -0.941888 0
M  V30 7093 H 653.514 -3.77981 0.880473 0
M  V30 7094 H 651.615 -3.38659 -1.55373 0
M  V30 7095 H 651.728 -4.78234 -0.287956 0
M  V30 7096 H 650.092 -2.53474 -0.249561 0
M  V30 7097 H 650.875 -3.18059 1.29203 0
M  V30 7098 N 653.32 -0.135238 -1.57019 0
M  V30 7099 C 654.23 0.822226 -2.19719 0
M  V30 7100 C 655.246 1.28057 -1.17802 0
M  V30 7101 O 656.422 1.3402 -1.50335 0
M  V30 7102 C 653.487 2.0484 -2.79717 0
M  V30 7103 C 652.548 1.64042 -3.96723 0
M  V30 7104 C 651.781 2.80814 -4.53849 0
M  V30 7105 O 652.004 3.967 -4.0986 0
M  V30 7106 O 650.938 2.56963 -5.44292 0
M  V30 7107 H 654.764 0.318552 -3.02025 0
M  V30 7108 H 652.349 0.0912021 -1.49121 0
M  V30 7109 H 654.231 2.76622 -3.17897 0
M  V30 7110 H 652.906 2.54182 -2.00432 0
M  V30 7111 H 651.813 0.893182 -3.63281 0
M  V30 7112 H 653.146 1.19426 -4.77492 0
M  V30 7113 N 654.798 1.5699 0.138552 0
M  V30 7114 C 656.046 1.83446 0.848053 0
M  V30 7115 C 656.367 0.71744 1.81322 0
M  V30 7116 O 655.637 -0.260228 1.94164 0
M  V30 7117 H 654.217 0.676792 0.316166 0
M  V30 7118 H 656.879 1.94462 0.130538 0
M  V30 7119 H 655.975 2.78677 1.40518 0
M  V30 7120 N 656.276 -0.40816 1.52223 0
M  V30 7121 C 657.523 -1.15502 1.66329 0
M  V30 7122 C 657.851 -1.90474 0.393701 0
M  V30 7123 O 657.106 -1.85507 -0.623356 0
M  V30 7124 C 657.405 -2.17422 2.83659 0
M  V30 7125 C 657.071 -1.5925 4.21841 0
M  V30 7126 C 655.733 -1.4311 4.59427 0
M  V30 7127 C 658.085 -1.16776 5.0795 0
M  V30 7128 C 655.413 -0.830148 5.80797 0
M  V30 7129 C 657.765 -0.580988 6.29926 0
M  V30 7130 C 656.429 -0.406729 6.6626 0
M  V30 7131 H 655.699 -0.422653 0.608642 0
M  V30 7132 H 658.346 -0.442114 1.86327 0
M  V30 7133 H 656.651 -2.94861 2.58001 0
M  V30 7134 H 658.348 -2.75084 2.9177 0
M  V30 7135 H 654.938 -1.72796 3.92224 0
M  V30 7136 H 659.122 -1.28055 4.79495 0
M  V30 7137 H 654.378 -0.68316 6.07571 0
M  V30 7138 H 658.552 -0.243488 6.95974 0
M  V30 7139 H 656.179 0.0610366 7.60175 0
M  V30 7140 N 657.755 -1.42862 -0.66545 0
M  V30 7141 C 659.001 -1.44043 -1.42757 0
M  V30 7142 C 659.334 -0.0599629 -1.94107 0
M  V30 7143 O 658.609 0.917286 -1.71511 0
M  V30 7144 C 658.892 -2.47266 -2.61786 0
M  V30 7145 C 658.745 -3.94539 -2.16007 0
M  V30 7146 C 660.064 -2.47365 -3.64003 0
M  V30 7147 H 657.183 -0.524506 -0.517748 0
M  V30 7148 H 659.825 -1.74335 -0.755466 0
M  V30 7149 H 657.975 -2.21565 -3.19126 0
M  V30 7150 H 659.647 -4.31254 -1.63762 0
M  V30 7151 H 657.89 -4.07957 -1.47491 0
M  V30 7152 H 658.561 -4.62357 -3.01546 0
M  V30 7153 H 661.037 -2.70243 -3.16399 0
M  V30 7154 H 659.913 -3.21552 -4.44854 0
M  V30 7155 H 660.174 -1.50299 -4.15767 0
M  V30 7156 N 659.233 0.902656 -1.29189 0
M  V30 7157 C 660.479 1.65532 -1.17163 0
M  V30 7158 C 660.812 1.92216 0.276879 0
M  V30 7159 O 660.087 1.53048 1.20027 0
M  V30 7160 C 660.37 3.00629 -1.98228 0
M  V30 7161 C 660.223 2.81029 -3.51202 0
M  V30 7162 C 661.542 4.01321 -1.80635 0
M  V30 7163 H 658.661 0.60071 -0.426985 0
M  V30 7164 H 661.303 1.04578 -1.5863 0
M  V30 7165 H 659.453 3.52656 -1.62991 0
M  V30 7166 H 661.125 2.35927 -3.96404 0
M  V30 7167 H 659.368 2.1587 -3.76275 0
M  V30 7168 H 660.039 3.77014 -4.03192 0
M  V30 7169 H 662.515 3.58394 -2.11406 0
M  V30 7170 H 661.391 4.93792 -2.3971 0
M  V30 7171 H 661.652 4.35505 -0.760754 0
M  V30 7172 N 660.711 1.11618 1.11262 0
M  V30 7173 C 661.658 0.7762 2.17356 0
M  V30 7174 C 662.628 -0.253152 1.6416 0
M  V30 7175 O 663.813 -0.129655 1.90359 0
M  V30 7176 C 660.953 0.227581 3.44349 0
M  V30 7177 C 660.066 1.31372 4.1154 0
M  V30 7178 C 659.201 0.72544 5.26223 0
M  V30 7179 C 658.24 1.7913 5.85302 0
M  V30 7180 N 657.377 1.22237 6.91377 0
M  V30 7181 H 662.217 1.68508 2.45783 0
M  V30 7182 H 659.754 0.841475 1.20655 0
M  V30 7183 H 661.712 -0.108483 4.17059 0
M  V30 7184 H 660.342 -0.644486 3.16301 0
M  V30 7185 H 659.394 1.7667 3.36885 0
M  V30 7186 H 660.706 2.12005 4.51504 0
M  V30 7187 H 659.86 0.339541 6.05749 0
M  V30 7188 H 658.599 -0.112188 4.87571 0
M  V30 7189 H 657.604 2.18648 5.04453 0
M  V30 7190 H 658.829 2.63199 6.26022 0
M  V30 7191 H 656.775 0.406423 6.5474 0
M  V30 7192 H 656.692 1.9654 7.30006 0
M  V30 7193 H 657.96 0.863426 7.74703 0
M  V30 7194 N 662.189 -1.289 0.906776 0
M  V30 7195 C 663.152 -2.25777 0.394656 0
M  V30 7196 C 664.152 -1.53621 -0.475119 0
M  V30 7197 O 665.342 -1.71949 -0.279165 0
M  V30 7198 C 662.474 -3.38113 -0.43499 0
M  V30 7199 H 663.667 -2.72592 1.25033 0
M  V30 7200 H 661.22 -1.40463 0.685547 0
M  V30 7201 H 661.955 -2.96648 -1.31036 0
M  V30 7202 H 661.74 -3.91647 0.188334 0
M  V30 7203 H 663.23 -4.10168 -0.784365 0
M  V30 7204 N 663.667 -0.670007 -1.42649 0
M  V30 7205 C 664.614 0.0112928 -2.30797 0
M  V30 7206 C 665.584 0.797627 -1.45695 0
M  V30 7207 O 666.769 0.770845 -1.74535 0
M  V30 7208 C 663.909 0.95998 -3.31479 0
M  V30 7209 C 663.022 0.167975 -4.31673 0
M  V30 7210 C 662.157 1.11198 -5.19431 0
M  V30 7211 C 661.196 0.311381 -6.11307 0
M  V30 7212 N 660.333 1.20784 -6.91633 0
M  V30 7213 H 665.173 -0.746231 -2.88505 0
M  V30 7214 H 662.71 -0.379739 -1.42114 0
M  V30 7215 H 664.668 1.52379 -3.88377 0
M  V30 7216 H 663.298 1.68419 -2.75382 0
M  V30 7217 H 662.35 -0.512385 -3.76933 0
M  V30 7218 H 663.662 -0.453814 -4.96731 0
M  V30 7219 H 662.816 1.74587 -5.81037 0
M  V30 7220 H 661.555 1.76766 -4.54538 0
M  V30 7221 H 660.56 -0.335758 -5.48774 0
M  V30 7222 H 661.785 -0.340135 -6.78248 0
M  V30 7223 H 659.731 1.85001 -6.29373 0
M  V30 7224 H 659.648 0.64102 -7.53277 0
M  V30 7225 H 660.916 1.82936 -7.5773 0
M  V30 7226 N 665.145 1.52092 -0.413018 0
M  V30 7227 C 666.37 2.06756 0.163338 0
M  V30 7228 C 666.795 1.28073 1.37764 0
M  V30 7229 O 666.153 0.312015 1.78595 0
M  V30 7230 C 666.201 3.57278 0.488322 0
M  V30 7231 O 665.305 3.80986 1.57871 0
M  V30 7232 H 664.646 0.663882 0.0125068 0
M  V30 7233 H 667.176 1.95988 -0.587339 0
M  V30 7234 H 667.186 4.01125 0.745836 0
M  V30 7235 H 665.861 4.13978 -0.399327 0
M  V30 7236 H 664.438 3.49017 1.31306 0
M  V30 7237 N 666.623 0.143563 1.56945 0
M  V30 7238 C 667.57 -0.797433 2.16586 0
M  V30 7239 C 668.54 -1.24654 1.09775 0
M  V30 7240 O 669.725 -1.31968 1.37801 0
M  V30 7241 C 666.865 -2.03253 2.78895 0
M  V30 7242 C 665.978 -1.62954 4.00087 0
M  V30 7243 C 665.113 -2.81617 4.50406 0
M  V30 7244 C 664.152 -2.37675 5.64072 0
M  V30 7245 N 663.289 -3.49335 6.09023 0
M  V30 7246 H 668.129 -0.282023 2.96662 0
M  V30 7247 H 665.666 -0.127494 1.46546 0
M  V30 7248 H 667.624 -2.75653 3.13163 0
M  V30 7249 H 666.254 -2.52211 2.01469 0
M  V30 7250 H 665.306 -0.803322 3.71821 0
M  V30 7251 H 666.618 -1.26679 4.82446 0
M  V30 7252 H 665.772 -3.62212 4.86711 0
M  V30 7253 H 664.511 -3.21134 3.67048 0
M  V30 7254 H 663.516 -1.55519 5.27346 0
M  V30 7255 H 664.741 -1.99247 6.49213 0
M  V30 7256 H 662.687 -3.8848 5.28601 0
M  V30 7257 H 662.604 -3.17064 6.86299 0
M  V30 7258 H 663.872 -4.30297 6.49973 0
M  V30 7259 N 668.101 -1.57061 -0.130224 0
M  V30 7260 C 669.048 -1.99517 -1.16024 0
M  V30 7261 C 670.018 -0.865452 -1.41771 0
M  V30 7262 O 671.203 -1.12882 -1.53826 0
M  V30 7263 C 668.343 -2.3951 -2.48453 0
M  V30 7264 C 667.456 -3.65848 -2.29737 0
M  V30 7265 C 666.591 -3.9487 -3.55318 0
M  V30 7266 C 665.63 -5.14426 -3.31711 0
M  V30 7267 N 664.767 -5.39375 -4.49466 0
M  V30 7268 H 669.607 -2.87305 -0.791194 0
M  V30 7269 H 667.144 -1.42129 -0.379195 0
M  V30 7270 H 669.102 -2.60731 -3.25692 0
M  V30 7271 H 667.732 -1.54779 -2.83272 0
M  V30 7272 H 666.784 -3.52307 -1.4347 0
M  V30 7273 H 668.096 -4.53241 -2.08263 0
M  V30 7274 H 667.25 -4.16679 -4.4098 0
M  V30 7275 H 665.989 -3.05931 -3.79813 0
M  V30 7276 H 664.994 -4.92473 -2.44439 0
M  V30 7277 H 666.219 -6.04933 -3.08598 0
M  V30 7278 H 664.165 -4.53391 -4.74102 0
M  V30 7279 H 664.082 -6.21069 -4.31055 0
M  V30 7280 H 665.35 -5.65694 -5.36293 0
M  V30 7281 N 669.579 0.400081 -1.52437 0
M  V30 7282 C 670.828 1.14332 -1.66166 0
M  V30 7283 C 671.141 1.91419 -0.402253 0
M  V30 7284 O 672.347 2.6824 -0.419487 0
M  V30 7285 C 670.803 2.08137 -2.9361 0
M  V30 7286 C 670.411 1.36524 -4.26691 0
M  V30 7287 C 672.155 2.82664 -3.16703 0
M  V30 7288 C 670.062 2.29031 -5.45251 0
M  V30 7289 H 668.992 0.430499 -0.61902 0
M  V30 7290 H 671.643 0.407017 -1.78929 0
M  V30 7291 H 670.025 2.85358 -2.74567 0
M  V30 7292 H 671.199 0.646061 -4.56249 0
M  V30 7293 H 669.514 0.74002 -4.09771 0
M  V30 7294 H 672.111 3.52037 -4.0246 0
M  V30 7295 H 672.454 3.46122 -2.31312 0
M  V30 7296 H 672.987 2.12541 -3.36261 0
M  V30 7297 H 669.726 1.70206 -6.33017 0
M  V30 7298 H 669.246 2.98896 -5.2002 0
M  V30 7299 H 670.925 2.89359 -5.78689 0
M  V30 7300 N 671.057 1.43213 0.657864 0
M  V30 7301 C 672.468 1.39669 1.23893 0
M  V30 7302 C 672.819 0.0984217 1.95953 0
M  V30 7303 O 671.944 -0.8023 2.00978 0
M  V30 7304 C 672.539 2.53004 2.25332 0
M  V30 7305 C 671.098 2.5274 2.78926 0
M  V30 7306 C 670.245 2.30941 1.53497 0
M  V30 7307 H 673.196 1.52181 0.450172 0
M  V30 7308 H 673.217 2.24226 3.07413 0
M  V30 7309 H 672.729 3.4748 1.72856 0
M  V30 7310 H 670.83 1.6213 3.35477 0
M  V30 7311 H 670.943 3.50352 3.26787 0
M  V30 7312 H 669.307 1.7952 1.80678 0
M  V30 7313 H 670.09 3.27496 1.02963 0
M  V30 7314 N 672.536 -0.895792 1.29666 0
M  V30 7315 C 673.466 -2.01673 1.17688 0
M  V30 7316 C 674.447 -1.69955 0.0701317 0
M  V30 7317 O 675.632 -1.9258 0.250289 0
M  V30 7318 C 672.762 -3.36568 0.856681 0
M  V30 7319 C 671.716 -3.82509 1.92017 0
M  V30 7320 C 671.042 -5.14574 1.4532 0
M  V30 7321 C 672.342 -4.02409 3.32963 0
M  V30 7322 H 674.036 -2.11953 2.11463 0
M  V30 7323 H 671.582 -1.01839 1.01807 0
M  V30 7324 H 673.535 -4.14498 0.759577 0
M  V30 7325 H 672.259 -3.26391 -0.116763 0
M  V30 7326 H 670.918 -3.068 2.00673 0
M  V30 7327 H 670.566 -5.00815 0.468325 0
M  V30 7328 H 670.266 -5.46283 2.16447 0
M  V30 7329 H 671.79 -5.9504 1.36968 0
M  V30 7330 H 673.204 -4.70808 3.27127 0
M  V30 7331 H 671.601 -4.45478 4.02082 0
M  V30 7332 H 672.671 -3.06616 3.75652 0
M  V30 7333 N 674.014 -1.12206 -1.10668 0
M  V30 7334 C 675.262 -0.874144 -1.82217 0
M  V30 7335 C 675.583 0.601736 -1.85484 0
M  V30 7336 O 674.853 1.43725 -1.33116 0
M  V30 7337 H 673.433 -0.320404 -0.674797 0
M  V30 7338 H 676.095 -1.41606 -1.33917 0
M  V30 7339 H 675.191 -1.25349 -2.85822 0
M  V30 7340 N 675.492 1.28418 -0.913599 0
M  V30 7341 C 676.74 1.94596 -0.545594 0
M  V30 7342 C 677.061 1.7227 0.913668 0
M  V30 7343 O 676.331 1.06233 1.64595 0
M  V30 7344 H 674.911 0.720065 -0.198783 0
M  V30 7345 H 677.573 1.56404 -1.16292 0
M  V30 7346 H 676.669 3.03202 -0.739911 0
M  V30 7347 N 676.97 0.677563 1.42291 0
M  V30 7348 C 678.219 0.198173 2.00724 0
M  V30 7349 C 678.532 -1.20325 1.54211 0
M  V30 7350 O 679.738 -1.77916 2.05081 0
M  V30 7351 C 678.194 0.303432 3.58619 0
M  V30 7352 C 677.802 1.70909 4.14119 0
M  V30 7353 C 679.546 -0.117103 4.24338 0
M  V30 7354 C 677.453 1.76696 5.64387 0
M  V30 7355 H 676.383 0.070329 0.750713 0
M  V30 7356 H 679.034 0.843147 1.62982 0
M  V30 7357 H 677.416 -0.409482 3.93877 0
M  V30 7358 H 678.59 2.44931 3.90315 0
M  V30 7359 H 676.905 2.07771 3.6086 0
M  V30 7360 H 679.502 -0.0940471 5.34617 0
M  V30 7361 H 679.845 -1.15283 4.00019 0
M  V30 7362 H 680.378 0.5449 3.9405 0
M  V30 7363 H 677.117 2.7826 5.93508 0
M  V30 7364 H 676.637 1.07034 5.90173 0
M  V30 7365 H 678.316 1.52166 6.28852 0
M  V30 7366 N 678.448 -1.51871 0.421078 0
M  V30 7367 C 679.859 -1.86644 -0.0457991 0
M  V30 7368 C 680.21 -1.33919 -1.43388 0
M  V30 7369 O 679.335 -0.683316 -2.05328 0
M  V30 7370 C 679.93 -3.38681 -0.0898844 0
M  V30 7371 C 678.489 -3.73049 -0.501127 0
M  V30 7372 C 677.636 -2.75485 0.316723 0
M  V30 7373 H 680.587 -1.45327 0.637635 0
M  V30 7374 H 680.608 -3.69636 -0.902734 0
M  V30 7375 H 680.12 -3.77025 0.920513 0
M  V30 7376 H 678.221 -3.40288 -1.51773 0
M  V30 7377 H 678.334 -4.78512 -0.237217 0
M  V30 7378 H 676.698 -2.53725 -0.222663 0
M  V30 7379 H 677.481 -3.16671 1.32569 0
M  V30 7380 N 679.926 -0.151884 -1.56866 0
M  V30 7381 C 681.151 0.508044 -2.01081 0
M  V30 7382 C 681.576 1.57306 -1.03134 0
M  V30 7383 O 680.934 1.81298 -0.0078309 0
M  V30 7384 C 680.982 1.08106 -3.44014 0
M  V30 7385 O 680.086 2.19577 -3.49084 0
M  V30 7386 H 679.427 0.123757 -0.652365 0
M  V30 7387 H 681.957 -0.250055 -2.03066 0
M  V30 7388 H 681.967 1.40851 -3.82916 0
M  V30 7389 H 680.642 0.301168 -4.14808 0
M  V30 7390 H 679.219 1.88023 -3.22027 0
M  V30 7391 N 681.404 1.57128 0.121893 0
M  V30 7392 C 682.815 1.73902 0.679348 0
M  V30 7393 C 683.166 0.770135 1.80453 0
M  V30 7394 O 682.291 -0.0576083 2.16323 0
M  V30 7395 C 682.886 3.15328 1.2391 0
M  V30 7396 C 681.445 3.33618 1.74288 0
M  V30 7397 C 680.592 2.6978 0.641414 0
M  V30 7398 H 683.543 1.58359 -0.104 0
M  V30 7399 H 683.564 3.16718 2.10879 0
M  V30 7400 H 683.076 3.85821 0.419957 0
M  V30 7401 H 681.177 2.68162 2.58689 0
M  V30 7402 H 681.29 4.4176 1.85432 0
M  V30 7403 H 679.654 2.30935 1.0743 0
M  V30 7404 H 680.437 3.42895 -0.166707 0
M  V30 7405 N 682.882 -0.391992 1.52647 0
M  V30 7406 C 684.107 -1.16312 1.71716 0
M  V30 7407 C 684.532 -1.83042 0.433279 0
M  V30 7408 O 683.89 -1.70705 -0.610707 0
M  V30 7409 C 683.938 -2.18908 2.86551 0
M  V30 7410 O 683.042 -3.2543 2.53316 0
M  V30 7411 H 682.383 -0.338743 0.571095 0
M  V30 7412 H 684.913 -0.457202 1.99426 0
M  V30 7413 H 684.923 -2.62954 3.1196 0
M  V30 7414 H 683.598 -1.69726 3.79692 0
M  V30 7415 H 682.175 -2.86543 2.38637 0
M  V30 7416 N 684.36 -1.4356 -0.65026 0
M  V30 7417 C 685.588 -1.48779 -1.43779 0
M  V30 7418 C 686.003 -0.106593 -1.88499 0
M  V30 7419 O 685.36 0.883766 -1.59674 0
M  V30 7420 C 685.411 -2.43618 -2.67081 0
M  V30 7421 O 685.132 -3.76367 -2.24231 0
M  V30 7422 C 686.633 -2.5811 -3.60409 0
M  V30 7423 H 683.853 -0.50521 -0.441593 0
M  V30 7424 H 686.397 -1.88332 -0.796941 0
M  V30 7425 H 684.552 -2.07253 -3.273 0
M  V30 7426 H 684.966 -4.27394 -3.0403 0
M  V30 7427 H 686.44 -3.28539 -4.43583 0
M  V30 7428 H 686.917 -1.627 -4.07953 0
M  V30 7429 H 687.523 -2.95298 -3.0607 0
M  V30 7430 N 685.838 0.888903 -1.30139 0
M  V30 7431 C 686.748 2.02705 -1.18101 0
M  V30 7432 C 687.764 1.73702 -0.101809 0
M  V30 7433 O 688.94 1.98906 -0.315984 0
M  V30 7434 C 686.005 3.35616 -0.869651 0
M  V30 7435 C 685.066 3.78067 -2.03381 0
M  V30 7436 C 684.299 5.04635 -1.73721 0
M  V30 7437 O 684.522 5.66531 -0.663267 0
M  V30 7438 O 683.456 5.43399 -2.58845 0
M  V30 7439 H 687.282 2.15788 -2.13704 0
M  V30 7440 H 684.867 1.01426 -1.09695 0
M  V30 7441 H 686.749 4.15358 -0.711043 0
M  V30 7442 H 685.424 3.23651 0.0565002 0
M  V30 7443 H 684.331 2.99046 -2.24772 0
M  V30 7444 H 685.664 3.94631 -2.94155 0
M  V30 7445 N 687.317 1.12792 1.10072 0
M  V30 7446 C 688.249 0.757003 2.16338 0
M  V30 7447 C 689.262 -0.218144 1.61332 0
M  V30 7448 O 690.451 0.0010727 1.785 0
M  V30 7449 C 687.551 0.100303 3.38752 0
M  V30 7450 C 686.724 1.10586 4.2319 0
M  V30 7451 C 685.783 0.47609 5.24042 0
M  V30 7452 O 684.809 1.13418 5.57786 0
M  V30 7453 N 686.011 -0.754823 5.75572 0
M  V30 7454 H 688.776 1.6714 2.48766 0
M  V30 7455 H 686.337 1.02003 1.25726 0
M  V30 7456 H 688.329 -0.333092 4.03327 0
M  V30 7457 H 686.899 -0.716915 3.04268 0
M  V30 7458 H 686.119 1.71677 3.54853 0
M  V30 7459 H 687.407 1.78571 4.76435 0
M  V30 7460 H 686.805 -1.30838 5.50362 0
M  V30 7461 H 685.362 -1.13098 6.41913 0
M  V30 7462 N 688.795 -1.27931 0.920396 0
M  V30 7463 C 690.02 -1.99343 0.572478 0
M  V30 7464 C 690.445 -1.68267 -0.840696 0
M  V30 7465 O 689.803 -0.918805 -1.56294 0
M  V30 7466 C 689.851 -3.51698 0.796284 0
M  V30 7467 O 688.955 -4.12157 -0.141602 0
M  V30 7468 H 688.296 -0.626065 0.221221 0
M  V30 7469 H 690.826 -1.62921 1.23765 0
M  V30 7470 H 690.836 -4.01793 0.708984 0
M  V30 7471 H 689.511 -3.73649 1.82644 0
M  V30 7472 H 688.088 -3.729 -0.005007 0
M  V30 7473 N 690.273 -0.685099 -1.4193 0
M  V30 7474 C 691.236 -0.0222632 -2.29189 0
M  V30 7475 C 692.236 0.7186 -1.4385 0
M  V30 7476 O 693.426 0.555058 -1.6512 0
M  V30 7477 C 690.558 0.979013 -3.2654 0
M  V30 7478 H 691.751 -0.790424 -2.89296 0
M  V30 7479 H 689.304 -0.448012 -1.49742 0
M  V30 7480 H 690.039 1.77531 -2.71392 0
M  V30 7481 H 689.824 0.451037 -3.89497 0
M  V30 7482 H 691.314 1.44091 -3.91954 0
M  V30 7483 N 691.751 1.51645 -0.429126 0
M  V30 7484 C 692.698 2.27542 0.386446 0
M  V30 7485 C 693.668 1.30786 1.02393 0
M  V30 7486 O 694.853 1.59678 1.0444 0
M  V30 7487 C 691.993 3.11457 1.48623 0
M  V30 7488 C 691.106 4.23196 0.867691 0
M  V30 7489 C 690.241 4.94435 1.94183 0
M  V30 7490 C 689.28 5.98108 1.30129 0
M  V30 7491 N 688.417 6.62786 2.31644 0
M  V30 7492 H 693.257 2.968 -0.267155 0
M  V30 7493 H 690.794 1.46397 -0.143591 0
M  V30 7494 H 692.752 3.58429 2.13506 0
M  V30 7495 H 691.382 2.44329 2.10957 0
M  V30 7496 H 690.434 3.80248 0.107373 0
M  V30 7497 H 691.746 4.97499 0.35997 0
M  V30 7498 H 690.9 5.44914 2.66747 0
M  V30 7499 H 689.639 4.19744 2.48326 0
M  V30 7500 H 688.644 5.4693 0.561082 0
M  V30 7501 H 689.869 6.74751 0.767303 0
M  V30 7502 H 687.815 5.90913 2.84883 0
M  V30 7503 H 687.732 7.32828 1.85741 0
M  V30 7504 H 689 7.17897 3.03717 0
M  V30 7505 N 693.229 0.160201 1.56784 0
M  V30 7506 C 694.176 -0.774416 2.1742 0
M  V30 7507 C 695.146 -1.23483 1.11091 0
M  V30 7508 O 696.331 -1.30499 1.39193 0
M  V30 7509 C 693.471 -2.00283 2.81035 0
M  V30 7510 C 692.584 -1.58701 4.01793 0
M  V30 7511 C 691.719 -2.76824 4.53367 0
M  V30 7512 C 690.758 -2.31679 5.66561 0
M  V30 7513 N 689.895 -3.42856 6.12694 0
M  V30 7514 H 694.735 -0.250542 2.96945 0
M  V30 7515 H 692.272 -0.111943 1.46673 0
M  V30 7516 H 694.23 -2.72316 3.16069 0
M  V30 7517 H 692.86 -2.5006 2.04132 0
M  V30 7518 H 691.912 -0.76384 3.72652 0
M  V30 7519 H 693.224 -1.21555 4.83762 0
M  V30 7520 H 692.378 -3.57029 4.90525 0
M  V30 7521 H 691.117 -3.17223 3.70433 0
M  V30 7522 H 690.122 -1.49917 5.28966 0
M  V30 7523 H 691.347 -1.9235 6.5129 0
M  V30 7524 H 689.293 -3.82852 5.32692 0
M  V30 7525 H 689.21 -3.09767 6.89624 0
M  V30 7526 H 690.478 -4.23379 6.545 0
M  V30 7527 N 694.707 -1.5719 -0.113559 0
M  V30 7528 C 695.953 -1.85412 -0.821597 0
M  V30 7529 C 696.286 -0.746722 -1.7927 0
M  V30 7530 O 695.561 0.246971 -1.92926 0
M  V30 7531 C 695.844 -3.24233 -1.56669 0
M  V30 7532 C 695.697 -4.45578 -0.614823 0
M  V30 7533 C 697.016 -3.60697 -2.52161 0
M  V30 7534 H 694.135 -0.674406 -0.29723 0
M  V30 7535 H 696.777 -1.89807 -0.085694 0
M  V30 7536 H 694.927 -3.20617 -2.19401 0
M  V30 7537 H 696.599 -4.613 0.00407137 0
M  V30 7538 H 694.842 -4.33738 0.0732332 0
M  V30 7539 H 695.513 -5.39395 -1.17292 0
M  V30 7540 H 697.989 -3.65139 -1.99532 0
M  V30 7541 H 696.865 -4.58798 -3.01323 0
M  V30 7542 H 697.126 -2.88403 -3.35076 0
M  V30 7543 N 696.185 0.383891 -1.52853 0
M  V30 7544 C 697.601 0.724316 -1.42218 0
M  V30 7545 C 697.801 1.93943 -0.546654 0
M  V30 7546 O 696.857 2.5249 -0.0220562 0
M  V30 7547 C 698.17 0.954635 -2.85144 0
M  V30 7548 C 699.718 1.05579 -2.94656 0
M  V30 7549 C 700.193 1.3187 -4.38605 0
M  V30 7550 N 701.684 1.38681 -4.41952 0
M  V30 7551 C 702.419 1.60699 -5.50421 0
M  V30 7552 N 701.915 1.80154 -6.68967 0
M  V30 7553 N 703.708 1.6292 -5.37972 0
M  V30 7554 H 695.859 -0.4156 -2.08294 0
M  V30 7555 H 698.122 -0.123776 -0.939885 0
M  V30 7556 H 697.828 0.133829 -3.51445 0
M  V30 7557 H 697.702 1.86788 -3.27704 0
M  V30 7558 H 700.089 1.86716 -2.2852 0
M  V30 7559 H 700.17 0.120338 -2.55517 0
M  V30 7560 H 699.814 0.512416 -5.05309 0
M  V30 7561 H 699.744 2.26708 -4.75301 0
M  V30 7562 H 702.235 1.25334 -3.56511 0
M  V30 7563 H 702.548 1.96476 -7.47407 0
M  V30 7564 H 700.893 1.77368 -6.71986 0
M  V30 7565 H 704.084 1.47276 -4.44328 0
M  V30 7566 H 704.257 1.79739 -6.22574 0
M  V30 7567 N 697.663 1.43903 0.642637 0
M  V30 7568 C 698.61 1.49881 1.75512 0
M  V30 7569 C 699.58 0.347538 1.62423 0
M  V30 7570 O 700.765 0.556177 1.82514 0
M  V30 7571 C 697.905 1.43797 3.13714 0
M  V30 7572 C 697.018 2.6921 3.37861 0
M  V30 7573 C 696.153 2.5504 4.6597 0
M  V30 7574 C 695.192 3.75671 4.83257 0
M  V30 7575 N 694.329 3.60247 6.02633 0
M  V30 7576 H 699.169 2.44935 1.69737 0
M  V30 7577 H 696.706 1.21572 0.828165 0
M  V30 7578 H 698.664 1.38262 3.93624 0
M  V30 7579 H 697.294 0.523173 3.18532 0
M  V30 7580 H 696.346 2.8498 2.51973 0
M  V30 7581 H 697.658 3.58786 3.46517 0
M  V30 7582 H 696.812 2.47273 5.54023 0
M  V30 7583 H 695.551 1.63006 4.59653 0
M  V30 7584 H 694.556 3.83836 3.93637 0
M  V30 7585 H 695.781 4.68728 4.91397 0
M  V30 7586 H 693.727 2.70955 5.97427 0
M  V30 7587 H 693.644 4.43431 6.12295 0
M  V30 7588 H 694.912 3.56351 6.93278 0
M  V30 7589 N 699.141 -0.881989 1.30609 0
M  V30 7590 C 700.088 -1.98803 1.17244 0
M  V30 7591 C 701.058 -1.65987 0.0611905 0
M  V30 7592 O 702.243 -1.89385 0.231911 0
M  V30 7593 C 699.383 -3.33867 0.87333 0
M  V30 7594 C 698.496 -3.79354 2.06675 0
M  V30 7595 C 697.631 -5.03078 1.70547 0
M  V30 7596 C 696.67 -5.40981 2.86366 0
M  V30 7597 N 695.807 -6.55886 2.50514 0
M  V30 7598 H 700.647 -2.09566 2.11863 0
M  V30 7599 H 698.184 -1.02607 1.05405 0
M  V30 7600 H 700.142 -4.11612 0.680519 0
M  V30 7601 H 698.772 -3.2278 -0.0359983 0
M  V30 7602 H 697.824 -2.97492 2.37071 0
M  V30 7603 H 699.136 -4.03382 2.93401 0
M  V30 7604 H 698.29 -5.88457 1.47658 0
M  V30 7605 H 697.029 -4.80927 0.809947 0
M  V30 7606 H 696.034 -4.54127 3.09917 0
M  V30 7607 H 697.259 -5.65104 3.76609 0
M  V30 7608 H 695.205 -6.35306 1.63471 0
M  V30 7609 H 695.122 -6.79799 3.30771 0
M  V30 7610 H 696.39 -7.44489 2.30989 0
M  V30 7611 N 700.619 -1.13374 -1.09472 0
M  V30 7612 C 701.582 -0.813639 -2.14272 0
M  V30 7613 C 702.582 0.176677 -1.59826 0
M  V30 7614 O 703.772 -0.0503441 -1.74127 0
M  V30 7615 C 700.904 -0.210897 -3.40247 0
M  V30 7616 H 702.097 -1.74229 -2.44099 0
M  V30 7617 H 699.65 -0.938304 -1.25002 0
M  V30 7618 H 700.385 0.726998 -3.16046 0
M  V30 7619 H 700.17 -0.924048 -3.81056 0
M  V30 7620 H 701.66 -0.00377603 -4.176 0
M  V30 7621 N 702.098 1.27442 -0.927168 0
M  V30 7622 C 703.008 2.30599 -0.431448 0
M  V30 7623 C 704.024 1.67028 0.48761 0
M  V30 7624 O 705.2 1.97962 0.370546 0
M  V30 7625 C 702.265 3.45327 0.308292 0
M  V30 7626 C 701.326 4.24418 -0.645615 0
M  V30 7627 C 700.559 5.33667 0.0589164 0
M  V30 7628 O 700.782 5.5589 1.27838 0
M  V30 7629 O 699.716 5.98774 -0.612638 0
M  V30 7630 H 703.542 2.75036 -1.28797 0
M  V30 7631 H 701.127 1.32382 -0.692495 0
M  V30 7632 H 703.009 4.15107 0.725555 0
M  V30 7633 H 701.684 3.02945 1.14043 0
M  V30 7634 H 700.591 3.57174 -1.11255 0
M  V30 7635 H 701.924 4.70512 -1.44496 0
M  V30 7636 N 703.576 0.692616 1.41565 0
M  V30 7637 C 704.524 0.0139952 2.32596 0
M  V30 7638 C 705.518 -0.771691 1.50802 0
M  V30 7639 O 706.724 -0.677646 1.66757 0
M  V30 7640 H 703.099 -0.0142745 0.751865 0
M  V30 7641 H 705.07 0.798851 2.87508 0
M  V30 7642 C 703.819 -0.910602 3.35564 0
M  V30 7643 H 703.142 -0.315446 3.98554 0
M  V30 7644 H 704.582 -1.3538 4.01806 0
M  V30 7645 C 703.041 -2.02539 2.6922 0
M  V30 7646 O 703.571 -3.11386 2.53775 0
M  V30 7647 N 701.777 -1.80227 2.27962 0
M  V30 7648 H 701.324 -0.917054 2.40724 0
M  V30 7649 H 701.282 -2.55001 1.83907 0
M  V30 7650 N 705.054 -1.51416 0.437162 0
M  V30 7651 C 706.017 -2.26312 -0.362729 0
M  V30 7652 C 707.017 -1.29748 -0.949847 0
M  V30 7653 O 708.207 -1.53462 -0.824325 0
M  V30 7654 C 705.339 -3.05475 -1.5132 0
M  V30 7655 H 706.532 -2.98459 0.29365 0
M  V30 7656 H 704.085 -1.55137 0.190327 0
M  V30 7657 H 704.82 -2.37744 -2.20563 0
M  V30 7658 H 704.605 -3.76401 -1.09838 0
M  V30 7659 H 706.095 -3.62209 -2.07833 0
M  V30 7660 N 706.532 -0.168513 -1.56696 0
M  V30 7661 C 707.482 0.7751 -2.14421 0
M  V30 7662 C 708.466 1.19476 -1.07769 0
M  V30 7663 O 709.658 1.15759 -1.33898 0
M  V30 7664 C 706.787 2.00549 -2.7863 0
M  V30 7665 C 705.873 1.60795 -3.92436 0
M  V30 7666 N 706.264 0.919812 -4.97366 0
M  V30 7667 C 704.562 1.89917 -4.03544 0
M  V30 7668 C 705.263 0.724485 -5.77171 0
M  V30 7669 N 704.239 1.26505 -5.28675 0
M  V30 7670 H 708.041 0.240349 -2.92916 0
M  V30 7671 H 705.555 0.0322675 -1.62368 0
M  V30 7672 H 707.552 2.6917 -3.1836 0
M  V30 7673 H 706.212 2.54522 -2.01615 0
M  V30 7674 H 707.223 0.578169 -5.14663 0
M  V30 7675 H 703.9 2.45587 -3.37629 0
M  V30 7676 H 705.29 0.180521 -6.71657 0
M  V30 7677 N 708.01 1.57248 0.105221 0
M  V30 7678 C 708.958 2.02337 1.14728 0
M  V30 7679 C 709.952 0.922652 1.42069 0
M  V30 7680 O 711.158 1.10785 1.41869 0
M  V30 7681 H 707.533 0.644682 0.387155 0
M  V30 7682 H 709.504 2.89063 0.740607 0
M  V30 7683 C 708.253 2.45513 2.46209 0
M  V30 7684 H 707.576 3.29785 2.26013 0
M  V30 7685 H 709.016 2.80846 3.1765 0
M  V30 7686 C 707.475 1.3243 3.09781 0
M  V30 7687 O 708.005 0.647841 3.96442 0
M  V30 7688 N 706.211 1.07785 2.69872 0
M  V30 7689 H 705.758 1.62973 1.99493 0
M  V30 7690 H 705.716 0.323204 3.12734 0
M  V30 7691 N 709.488 -0.375779 1.53054 0
M  V30 7692 C 710.716 -1.14036 1.72637 0
M  V30 7693 C 711.131 -1.83342 0.450687 0
M  V30 7694 O 710.488 -1.7318 -0.575749 0
M  V30 7695 C 710.539 -2.17841 2.88492 0
M  V30 7696 O 710.26 -1.51358 4.11123 0
M  V30 7697 C 711.761 -3.06924 3.19863 0
M  V30 7698 H 708.981 -0.341386 0.577665 0
M  V30 7699 H 711.525 -0.437809 1.99759 0
M  V30 7700 H 709.68 -2.8371 2.63794 0
M  V30 7701 H 710.094 -2.20439 4.75928 0
M  V30 7702 H 711.568 -3.75763 4.04359 0
M  V30 7703 H 712.045 -3.71169 2.34798 0
M  V30 7704 H 712.651 -2.46684 3.46449 0
M  V30 7705 N 710.966 -1.44241 -0.634997 0
M  V30 7706 C 712.377 -1.41622 -1.21655 0
M  V30 7707 C 712.728 -0.129584 -1.95772 0
M  V30 7708 O 711.853 0.770225 -2.02229 0
M  V30 7709 C 712.448 -2.56557 -2.21278 0
M  V30 7710 C 711.007 -2.57145 -2.7487 0
M  V30 7711 C 710.154 -2.33354 -1.49804 0
M  V30 7712 H 713.105 -1.52878 -0.425905 0
M  V30 7713 H 713.126 -2.29089 -3.03807 0
M  V30 7714 H 712.638 -3.50186 -1.67306 0
M  V30 7715 H 710.739 -1.67447 -3.32855 0
M  V30 7716 H 710.852 -3.55507 -3.21172 0
M  V30 7717 H 709.216 -1.82372 -1.77799 0
M  V30 7718 H 709.999 -3.29092 -0.977402 0
M  V30 7719 N 712.444 0.87505 -1.31075 0
M  V30 7720 C 713.374 1.99775 -1.20881 0
M  V30 7721 C 714.355 1.69822 -0.0971612 0
M  V30 7722 O 715.54 1.92158 -0.280895 0
M  V30 7723 C 712.67 3.35163 -0.910118 0
M  V30 7724 C 711.624 3.79406 -1.98078 0
M  V30 7725 C 710.95 5.12197 -1.53488 0
M  V30 7726 C 712.25 3.97061 -3.39323 0
M  V30 7727 H 713.944 2.08562 -2.14808 0
M  V30 7728 H 711.49 1.00207 -1.03415 0
M  V30 7729 H 713.443 4.13237 -0.825423 0
M  V30 7730 H 712.167 3.26536 0.064822 0
M  V30 7731 H 710.826 3.03568 -2.05528 0
M  V30 7732 H 710.474 5.00007 -0.547941 0
M  V30 7733 H 710.174 5.4277 -2.2511 0
M  V30 7734 H 711.698 5.92785 -1.46417 0
M  V30 7735 H 713.112 4.65545 -3.34576 0
M  V30 7736 H 711.509 4.39025 -4.09118 0
M  V30 7737 H 712.579 3.00601 -3.80483 0
M  V30 7738 N 713.922 1.13953 1.08869 0
M  V30 7739 C 714.852 0.844824 2.17681 0
M  V30 7740 C 715.833 -0.198213 1.68941 0
M  V30 7741 O 717.018 -0.0559073 1.9412 0
M  V30 7742 C 714.148 0.316325 3.45856 0
M  V30 7743 C 713.102 1.29426 4.07962 0
M  V30 7744 C 712.428 0.625275 5.31031 0
M  V30 7745 C 713.728 2.65484 4.49795 0
M  V30 7746 H 715.422 1.75471 2.42591 0
M  V30 7747 H 712.968 0.845116 1.16592 0
M  V30 7748 H 714.921 0.0977876 4.21287 0
M  V30 7749 H 713.645 -0.628972 3.20486 0
M  V30 7750 H 712.304 1.49889 3.34558 0
M  V30 7751 H 711.952 -0.325678 5.01945 0
M  V30 7752 H 711.652 1.27777 5.73539 0
M  V30 7753 H 713.176 0.416152 6.0918 0
M  V30 7754 H 714.59 2.48957 5.16424 0
M  V30 7755 H 712.987 3.26963 5.03205 0
M  V30 7756 H 714.057 3.22717 3.61914 0
M  V30 7757 N 715.4 -1.26948 0.933913 0
M  V30 7758 C 716.646 -1.94374 0.57848 0
M  V30 7759 C 716.979 -1.73166 -0.879048 0
M  V30 7760 O 716.254 -1.06438 -1.62792 0
M  V30 7761 C 716.537 -3.4834 0.912739 0
M  V30 7762 C 716.39 -3.78866 2.42448 0
M  V30 7763 C 717.709 -4.38062 0.423003 0
M  V30 7764 H 714.828 -0.705959 0.211639 0
M  V30 7765 H 717.47 -1.49951 1.16682 0
M  V30 7766 H 715.62 -3.86309 0.412058 0
M  V30 7767 H 717.292 -3.50654 2.99733 0
M  V30 7768 H 715.535 -3.25198 2.87104 0
M  V30 7769 H 716.206 -4.86458 2.60887 0
M  V30 7770 H 718.682 -4.0728 0.852191 0
M  V30 7771 H 717.558 -5.44599 0.685776 0
M  V30 7772 H 717.819 -4.36886 -0.676994 0
M  V30 7773 N 716.879 -0.700114 -1.41195 0
M  V30 7774 C 717.809 -0.0521132 -2.33442 0
M  V30 7775 C 718.79 0.76228 -1.52063 0
M  V30 7776 O 719.975 0.714336 -1.80585 0
M  V30 7777 C 717.105 0.881693 -3.35922 0
M  V30 7778 C 716.059 0.174062 -4.27646 0
M  V30 7779 C 715.385 1.22254 -5.20536 0
M  V30 7780 C 716.685 -0.962396 -5.13357 0
M  V30 7781 H 718.379 -0.822574 -2.87879 0
M  V30 7782 H 715.925 -0.397011 -1.38419 0
M  V30 7783 H 717.878 1.34429 -3.99383 0
M  V30 7784 H 716.602 1.68387 -2.79845 0
M  V30 7785 H 715.261 -0.268551 -3.65615 0
M  V30 7786 H 714.909 2.01736 -4.60773 0
M  V30 7787 H 714.609 0.754038 -5.82742 0
M  V30 7788 H 716.133 1.68555 -5.86874 0
M  V30 7789 H 717.547 -0.579875 -5.7036 0
M  V30 7790 H 715.944 -1.35828 -5.84526 0
M  V30 7791 H 717.014 -1.80003 -4.50252 0
M  V30 7792 N 718.357 1.51182 -0.445186 0
M  V30 7793 C 719.587 2.06269 0.116922 0
M  V30 7794 C 719.995 1.31188 1.36332 0
M  V30 7795 O 719.338 0.367067 1.79995 0
M  V30 7796 C 719.4 3.56051 0.496757 0
M  V30 7797 C 719.064 4.52441 -0.64394 0
M  V30 7798 C 720.061 4.97233 -1.5184 0
M  V30 7799 C 717.746 4.95447 -0.826905 0
M  V30 7800 C 719.74 5.83712 -2.56046 0
M  V30 7801 C 717.427 5.81714 -1.87222 0
M  V30 7802 C 718.425 6.25745 -2.73738 0
M  V30 7803 O 718.113 7.10298 -3.76474 0
M  V30 7804 H 717.845 0.675954 0.00785733 0
M  V30 7805 H 720.399 1.95648 -0.625371 0
M  V30 7806 H 718.629 3.64483 1.29187 0
M  V30 7807 H 720.318 3.93618 0.990928 0
M  V30 7808 H 721.084 4.64696 -1.38862 0
M  V30 7809 H 716.963 4.60712 -0.163052 0
M  V30 7810 H 720.507 6.18 -3.23607 0
M  V30 7811 H 716.404 6.13664 -2.00218 0
M  V30 7812 H 717.172 7.28493 -3.73149 0
M  V30 7813 N 719.835 0.176821 1.56605 0
M  V30 7814 C 721.083 -0.465793 1.96659 0
M  V30 7815 C 721.404 -1.63406 1.06412 0
M  V30 7816 O 720.674 -1.95457 0.131603 0
M  V30 7817 H 719.254 -0.175072 0.726195 0
M  V30 7818 H 721.916 0.25929 1.93168 0
M  V30 7819 H 721.012 -0.822138 3.01077 0
M  V30 7820 N 721.313 -1.57302 -0.09688 0
M  V30 7821 C 722.538 -1.9058 -0.818169 0
M  V30 7822 C 722.963 -0.770921 -1.71576 0
M  V30 7823 O 722.321 0.277588 -1.79162 0
M  V30 7824 C 722.369 -3.22714 -1.60898 0
M  V30 7825 O 721.473 -3.10178 -2.71779 0
M  V30 7826 H 720.814 -0.624759 -0.224882 0
M  V30 7827 H 723.344 -2.04471 -0.07264 0
M  V30 7828 H 723.354 -3.55978 -1.99358 0
M  V30 7829 H 722.029 -4.04899 -0.950227 0
M  V30 7830 H 720.606 -2.88424 -2.3636 0
M  V30 7831 N 722.791 0.367657 -1.53252 0
M  V30 7832 C 723.739 1.47061 -1.8021 0
M  V30 7833 C 724.733 1.55539 -0.671112 0
M  V30 7834 O 725.939 1.58451 -0.854014 0
M  V30 7835 H 722.314 0.489868 -0.570555 0
M  V30 7836 H 724.285 1.21527 -2.72532 0
M  V30 7837 C 723.034 2.83924 -2.00706 0
M  V30 7838 H 722.357 2.78158 -2.87172 0
M  V30 7839 H 723.797 3.60281 -2.23547 0
M  V30 7840 C 722.256 3.27613 -0.785568 0
M  V30 7841 O 722.786 4.01691 0.0267459 0
M  V30 7842 N 720.992 2.84134 -0.609597 0
M  V30 7843 H 720.539 2.24017 -1.27178 0
M  V30 7844 H 720.497 3.13723 0.206281 0
M  V30 7845 N 724.269 1.44576 0.627338 0
M  V30 7846 C 725.202 1.46206 1.75212 0
M  V30 7847 C 726.18 0.320483 1.5941 0
M  V30 7848 O 727.364 0.518028 1.81242 0
M  V30 7849 C 724.491 1.29834 3.12827 0
M  V30 7850 C 723.537 2.47603 3.47268 0
M  V30 7851 S 724.37 4.10125 3.44322 0
M  V30 7852 C 725.526 3.96183 4.84551 0
M  V30 7853 H 725.759 2.41378 1.73563 0
M  V30 7854 H 723.292 1.3192 0.802283 0
M  V30 7855 H 725.25 1.21075 3.92239 0
M  V30 7856 H 723.911 0.361662 3.12011 0
M  V30 7857 H 723.104 2.3202 4.47418 0
M  V30 7858 H 722.706 2.53121 2.75329 0
M  V30 7859 H 724.998 3.60107 5.73872 0
M  V30 7860 H 725.941 4.96176 5.05188 0
M  V30 7861 H 726.349 3.28177 4.59304 0
M  V30 7862 N 725.747 -0.868086 1.31537 0
M  V30 7863 C 726.995 -1.61807 1.21091 0
M  V30 7864 C 727.316 -1.93631 -0.230623 0
M  V30 7865 O 726.586 -1.5846 -1.15183 0
M  V30 7866 H 725.166 -0.599854 0.445178 0
M  V30 7867 H 727.828 -1.03915 1.64887 0
M  V30 7868 H 726.924 -2.56088 1.78396 0
M  V30 7869 N 727.225 -1.14528 -1.08264 0
M  V30 7870 C 728.453 -0.937964 -1.84418 0
M  V30 7871 C 728.868 0.51357 -1.81681 0
M  V30 7872 O 728.225 1.35591 -1.22153 0
M  V30 7873 C 728.276 -1.43272 -3.31897 0
M  V30 7874 O 727.997 -2.82738 -3.34651 0
M  V30 7875 C 729.498 -1.26555 -4.24851 0
M  V30 7876 H 726.718 -0.333704 -0.582136 0
M  V30 7877 H 729.262 -1.52076 -1.36723 0
M  V30 7878 H 727.417 -0.892653 -3.76975 0
M  V30 7879 H 727.831 -3.04971 -4.26724 0
M  V30 7880 H 729.305 -1.66031 -5.26439 0
M  V30 7881 H 729.782 -0.208589 -4.38704 0
M  V30 7882 H 730.388 -1.79423 -3.856 0
M  V30 7883 N 728.703 1.26451 -0.940633 0
M  V30 7884 C 729.666 2.24651 -0.454378 0
M  V30 7885 C 730.666 1.54826 0.434222 0
M  V30 7886 O 731.856 1.72628 0.233477 0
M  V30 7887 C 728.988 3.39148 0.345192 0
M  V30 7888 H 730.181 2.69182 -1.32217 0
M  V30 7889 H 727.734 1.38596 -0.722547 0
M  V30 7890 H 728.469 3.00018 1.23125 0
M  V30 7891 H 728.254 3.9101 -0.292107 0
M  V30 7892 H 729.744 4.12103 0.675341 0
M  V30 7893 N 730.181 0.707592 1.40822 0
M  V30 7894 C 731.091 0.0507246 2.34545 0
M  V30 7895 C 732.107 -0.752727 1.56876 0
M  V30 7896 O 733.283 -0.687524 1.89302 0
M  V30 7897 C 730.348 -0.865731 3.35717 0
M  V30 7898 C 729.409 -0.0531313 4.29267 0
M  V30 7899 C 728.642 -0.925939 5.25606 0
M  V30 7900 O 728.865 -2.16531 5.27703 0
M  V30 7901 O 727.799 -0.369194 6.00767 0
M  V30 7902 H 731.625 0.823587 2.9232 0
M  V30 7903 H 729.21 0.46801 1.4188 0
M  V30 7904 H 731.092 -1.39091 3.97783 0
M  V30 7905 H 729.767 -1.61788 2.80368 0
M  V30 7906 H 728.674 0.516931 3.70511 0
M  V30 7907 H 730.007 0.660617 4.87747 0
M  V30 7908 N 731.66 -1.50943 0.453197 0
M  V30 7909 C 732.908 -2.01813 -0.107709 0
M  V30 7910 C 733.229 -1.33841 -1.41816 0
M  V30 7911 O 732.499 -0.477973 -1.8998 0
M  V30 7912 H 731.079 -0.745773 -0.0427948 0
M  V30 7913 H 733.741 -1.8545 0.599531 0
M  V30 7914 H 732.837 -3.10911 -0.27218 0
M  V30 7915 N 733.138 -0.185124 -1.56509 0
M  V30 7916 C 734.366 0.462139 -2.01673 0
M  V30 7917 C 734.781 1.55873 -1.06532 0
M  V30 7918 O 734.138 1.82371 -0.0684805 0
M  V30 7919 C 734.189 1.0277 -3.46584 0
M  V30 7920 O 733.91 -0.0251296 -4.38093 0
M  V30 7921 C 735.411 1.75183 -4.07217 0
M  V30 7922 H 732.631 0.117001 -0.660721 0
M  V30 7923 H 735.175 -0.290905 -2.0242 0
M  V30 7924 H 733.33 1.73118 -3.46568 0
M  V30 7925 H 733.744 0.394387 -5.23015 0
M  V30 7926 H 735.218 2.09999 -5.10494 0
M  V30 7927 H 735.695 2.6519 -3.50101 0
M  V30 7928 H 736.301 1.09445 -4.10977 0
M  V30 7929 N 734.616 1.57351 0.0885366 0
M  V30 7930 C 735.579 2.01557 1.09121 0
M  V30 7931 C 736.579 0.910052 1.3257 0
M  V30 7932 O 737.769 1.17537 1.28572 0
M  V30 7933 C 734.901 2.38189 2.43883 0
M  V30 7934 H 736.094 2.91361 0.710562 0
M  V30 7935 H 733.647 1.52694 0.333779 0
M  V30 7936 H 734.382 1.5136 2.86811 0
M  V30 7937 H 734.167 3.18846 2.28209 0
M  V30 7938 H 735.657 2.73025 3.15986 0
M  V30 7939 N 736.094 -0.359525 1.53444 0
M  V30 7940 C 737.51 -0.701599 1.43352 0
M  V30 7941 C 737.71 -1.93049 0.577439 0
M  V30 7942 O 736.766 -2.52423 0.0622224 0
M  V30 7943 C 738.079 -0.90915 2.86627 0
M  V30 7944 C 739.627 -1.00878 2.96298 0
M  V30 7945 C 740.102 -1.24876 4.40647 0
M  V30 7946 N 741.593 -1.31632 4.44103 0
M  V30 7947 C 742.328 -1.51922 5.52908 0
M  V30 7948 N 741.824 -1.69489 6.71748 0
M  V30 7949 N 743.617 -1.54341 5.40496 0
M  V30 7950 H 735.768 0.448685 2.07607 0
M  V30 7951 H 738.031 0.138713 0.937797 0
M  V30 7952 H 737.737 -0.0778997 3.51614 0
M  V30 7953 H 737.611 -1.81551 3.30634 0
M  V30 7954 H 739.998 -1.83057 2.31461 0
M  V30 7955 H 740.079 -0.0796721 2.55676 0
M  V30 7956 H 739.723 -0.431961 5.0606 0
M  V30 7957 H 739.653 -2.19118 4.78848 0
M  V30 7958 H 742.144 -1.19646 3.5846 0
M  V30 7959 H 742.457 -1.84561 7.50438 0
M  V30 7960 H 740.802 -1.66655 6.74723 0
M  V30 7961 H 743.993 -1.40188 4.46615 0
M  V30 7962 H 744.166 -1.69812 6.25354 0
M  V30 7963 N 737.572 -1.44907 -0.619662 0
M  V30 7964 C 738.849 -1.38766 -1.37852 0
M  V30 7965 C 739.229 -0.0521393 -2.11036 0
M  V30 7966 O 738.577 0.965613 -2.07095 0
M  V30 7967 C 738.787 -2.59344 -2.33541 0
M  V30 7968 C 740.135 -3.03909 -2.96521 0
M  V30 7969 O 741.159 -2.59631 -2.43865 0
M  V30 7970 O 740.018 -3.80713 -3.92071 0
M  V30 7971 H 737.112 -0.550083 -0.617525 0
M  V30 7972 H 739.658 -1.57015 -0.643759 0
M  V30 7973 H 738.43 -3.48142 -1.78642 0
M  V30 7974 H 738.053 -2.43367 -3.14417 0
M  V30 7975 N 739.05 0.861098 -1.31996 0
M  V30 7976 C 739.98 1.98482 -1.22993 0
M  V30 7977 C 740.961 1.6971 -0.115168 0
M  V30 7978 O 742.146 1.91849 -0.30126 0
M  V30 7979 C 739.276 3.34179 -0.945615 0
M  V30 7980 C 738.23 3.77284 -2.02091 0
M  V30 7981 C 737.556 5.1054 -1.58912 0
M  V30 7982 C 738.856 3.93439 -3.43515 0
M  V30 7983 H 740.55 2.06271 -2.17008 0
M  V30 7984 H 738.096 0.991043 -1.04472 0
M  V30 7985 H 740.049 4.12338 -0.869206 0
M  V30 7986 H 738.773 3.26586 0.0301849 0
M  V30 7987 H 737.432 3.01371 -2.08737 0
M  V30 7988 H 737.08 4.99397 -0.600942 0
M  V30 7989 H 736.78 5.40352 -2.30854 0
M  V30 7990 H 738.304 5.91199 -1.52696 0
M  V30 7991 H 739.718 4.6197 -3.39495 0
M  V30 7992 H 738.115 4.34661 -4.13751 0
M  V30 7993 H 739.185 2.96548 -3.8365 0
M  V30 7994 N 740.528 1.15101 1.07655 0
M  V30 7995 C 741.491 0.847625 2.12951 0
M  V30 7996 C 742.491 -0.151227 1.60087 0
M  V30 7997 O 743.681 0.0780399 1.74025 0
M  V30 7998 C 740.813 0.265 3.39868 0
M  V30 7999 H 742.006 1.7809 2.41296 0
M  V30 8000 H 739.559 0.958072 1.23494 0
M  V30 8001 H 740.294 -0.676625 3.17163 0
M  V30 8002 H 740.079 0.984554 3.79538 0
M  V30 8003 H 741.569 0.0702121 4.17541 0
M  V30 8004 N 742.006 -1.2595 0.947325 0
M  V30 8005 C 743.283 -1.88676 0.515824 0
M  V30 8006 C 743.663 -1.85547 -1.00675 0
M  V30 8007 O 743.011 -1.31399 -1.8694 0
M  V30 8008 C 743.221 -3.31734 1.08415 0
M  V30 8009 C 744.569 -4.08545 1.15654 0
M  V30 8010 O 745.593 -3.40826 1.03517 0
M  V30 8011 O 744.452 -5.29663 1.34608 0
M  V30 8012 H 741.546 -0.809537 0.169055 0
M  V30 8013 H 744.092 -1.34075 1.04029 0
M  V30 8014 H 742.864 -3.28404 2.1276 0
M  V30 8015 H 742.487 -3.93882 0.542499 0
M  V30 8016 N 743.484 -0.715051 -1.40445 0
M  V30 8017 C 744.733 -0.251322 -2.00128 0
M  V30 8018 C 745.046 1.16194 -1.57347 0
M  V30 8019 O 746.252 1.72416 -2.09726 0
M  V30 8020 C 744.708 -0.398407 -3.57688 0
M  V30 8021 C 744.316 -1.81828 -4.09442 0
M  V30 8022 C 746.06 0.00455625 -4.245 0
M  V30 8023 C 743.967 -1.91598 -5.59503 0
M  V30 8024 H 742.897 -0.0902081 -0.748584 0
M  V30 8025 H 745.548 -0.886062 -1.6069 0
M  V30 8026 H 743.93 0.304908 -3.94824 0
M  V30 8027 H 745.104 -2.55193 -3.83684 0
M  V30 8028 H 743.419 -2.17266 -3.55225 0
M  V30 8029 H 746.016 -0.0477303 -5.34679 0
M  V30 8030 H 746.359 1.04636 -4.02935 0
M  V30 8031 H 746.892 -0.649184 -3.92467 0
M  V30 8032 H 743.631 -2.93898 -5.85922 0
M  V30 8033 H 743.151 -1.22644 -5.87127 0
M  V30 8034 H 744.83 -1.68785 -6.24596 0
M  V30 8035 N 744.962 1.50701 -0.461195 0
M  V30 8036 C 745.925 2.2686 0.326679 0
M  V30 8037 C 746.925 1.31243 0.929085 0
M  V30 8038 O 748.115 1.54754 0.799807 0
M  V30 8039 C 745.247 3.07844 1.46441 0
M  V30 8040 H 746.44 2.97954 -0.341095 0
M  V30 8041 H 743.993 1.54814 -0.214984 0
M  V30 8042 H 744.728 2.41223 2.16753 0
M  V30 8043 H 744.513 3.78101 1.03836 0
M  V30 8044 H 746.003 3.65469 2.02044 0
M  V30 8045 N 746.441 0.193421 1.56409 0
M  V30 8046 C 747.374 -0.767384 2.1491 0
M  V30 8047 C 748.352 -1.21075 1.08534 0
M  V30 8048 O 749.536 -1.29856 1.36637 0
M  V30 8049 C 746.663 -2.03615 2.70663 0
M  V30 8050 C 745.709 -1.73505 3.89613 0
M  V30 8051 S 746.542 -0.884645 5.28142 0
M  V30 8052 C 747.698 -2.1636 5.87315 0
M  V30 8053 H 747.931 -0.270053 2.96071 0
M  V30 8054 H 745.464 -0.0215546 1.54385 0
M  V30 8055 H 747.422 -2.7648 3.03429 0
M  V30 8056 H 746.083 -2.50461 1.89547 0
M  V30 8057 H 745.276 -2.67701 4.27027 0
M  V30 8058 H 744.878 -1.08723 3.57848 0
M  V30 8059 H 747.17 -3.11629 6.01576 0
M  V30 8060 H 748.113 -1.8338 6.83943 0
M  V30 8061 H 748.521 -2.29129 5.15907 0
M  V30 8062 N 747.919 -1.57396 -0.0801906 0
M  V30 8063 C 749.144 -1.91437 -0.797909 0
M  V30 8064 C 749.569 -0.789075 -1.70749 0
M  V30 8065 O 748.927 0.25857 -1.79447 0
M  V30 8066 C 748.975 -3.24402 -1.57467 0
M  V30 8067 O 748.079 -3.13043 -2.68473 0
M  V30 8068 H 747.42 -0.627109 -0.218243 0
M  V30 8069 H 749.95 -2.04537 -0.050949 0
M  V30 8070 H 749.96 -3.58072 -1.95571 0
M  V30 8071 H 748.635 -4.05884 -0.907229 0
M  V30 8072 H 747.212 -2.90915 -2.33287 0
M  V30 8073 N 749.397 0.351382 -1.53633 0
M  V30 8074 C 750.344 1.43115 -1.81071 0
M  V30 8075 C 751.314 1.52601 -0.655913 0
M  V30 8076 O 752.499 1.68264 -0.89955 0
M  V30 8077 C 749.639 2.79874 -2.01903 0
M  V30 8078 C 748.752 2.79242 -3.29618 0
M  V30 8079 C 747.887 4.07667 -3.40559 0
M  V30 8080 C 746.926 4.01233 -4.62254 0
M  V30 8081 N 746.063 5.21334 -4.70271 0
M  V30 8082 H 750.903 1.19017 -2.73201 0
M  V30 8083 H 748.44 0.576691 -1.35324 0
M  V30 8084 H 750.398 3.5934 -2.11969 0
M  V30 8085 H 749.028 3.0234 -1.13094 0
M  V30 8086 H 748.08 1.91927 -3.28433 0
M  V30 8087 H 749.392 2.70363 -4.19172 0
M  V30 8088 H 748.546 4.95555 -3.50015 0
M  V30 8089 H 747.285 4.19317 -2.49047 0
M  V30 8090 H 746.29 3.11732 -4.52884 0
M  V30 8091 H 747.515 3.91173 -5.55122 0
M  V30 8092 H 745.461 5.33543 -3.81665 0
M  V30 8093 H 745.378 5.14681 -5.5375 0
M  V30 8094 H 746.646 6.11014 -4.84027 0
M  V30 8095 N 750.875 1.45233 0.611969 0
M  V30 8096 C 752.123 1.48727 1.36838 0
M  V30 8097 C 752.444 0.128616 1.94575 0
M  V30 8098 O 751.714 -0.84149 1.76906 0
M  V30 8099 H 750.294 0.547695 0.507976 0
M  V30 8100 H 752.956 1.81156 0.718925 0
M  V30 8101 H 752.052 2.2236 2.19003 0
M  V30 8102 N 752.353 -0.854086 1.3245 0
M  V30 8103 C 753.6 -1.60831 1.23043 0
M  V30 8104 C 753.928 -1.93389 -0.2076 0
M  V30 8105 O 753.183 -1.5756 -1.16075 0
M  V30 8106 C 753.482 -2.93746 2.03587 0
M  V30 8107 C 753.148 -2.80615 3.52939 0
M  V30 8108 C 751.81 -2.76742 3.93659 0
M  V30 8109 C 754.162 -2.66507 4.4791 0
M  V30 8110 C 751.49 -2.56638 5.27592 0
M  V30 8111 C 753.842 -2.47939 5.81987 0
M  V30 8112 C 752.506 -2.42458 6.21909 0
M  V30 8113 H 751.776 -0.588523 0.450247 0
M  V30 8114 H 754.423 -0.990699 1.63882 0
M  V30 8115 H 752.728 -3.5963 1.55478 0
M  V30 8116 H 754.425 -3.51127 1.93677 0
M  V30 8117 H 751.015 -2.84456 3.20598 0
M  V30 8118 H 755.199 -2.68544 4.1737 0
M  V30 8119 H 750.455 -2.50831 5.57579 0
M  V30 8120 H 754.629 -2.36002 6.55192 0
M  V30 8121 H 752.256 -2.2664 7.2563 0
M  V30 8122 N 753.831 -1.1567 -1.07043 0
M  V30 8123 C 754.794 -0.858906 -2.12498 0
M  V30 8124 C 755.794 0.142735 -1.60165 0
M  V30 8125 O 756.984 -0.0872678 -1.73981 0
M  V30 8126 C 754.116 -0.283021 -3.39723 0
M  V30 8127 H 755.309 -1.79368 -2.40348 0
M  V30 8128 H 752.862 -0.964608 -1.22984 0
M  V30 8129 H 753.597 0.659796 -3.17517 0
M  V30 8130 H 753.382 -1.00467 -3.7901 0
M  V30 8131 H 754.872 -0.0923543 -4.17498 0
M  V30 8132 N 755.309 1.25446 -0.953992 0
M  V30 8133 C 756.72 1.75047 -0.649255 0
M  V30 8134 C 757.071 1.77527 0.835385 0
M  V30 8135 O 756.196 1.39569 1.65377 0
M  V30 8136 C 756.791 3.17889 -1.17183 0
M  V30 8137 C 755.35 3.65052 -0.917267 0
M  V30 8138 C 754.497 2.44124 -1.31525 0
M  V30 8139 H 757.448 1.11342 -1.13087 0
M  V30 8140 H 757.469 3.76768 -0.531616 0
M  V30 8141 H 756.981 3.16052 -2.25239 0
M  V30 8142 H 755.082 3.72305 0.148354 0
M  V30 8143 H 755.195 4.53222 -1.55328 0
M  V30 8144 H 753.559 2.43906 -0.733624 0
M  V30 8145 H 754.342 2.44979 -2.405 0
M  V30 8146 N 756.787 0.722489 1.40064 0
M  V30 8147 C 757.719 0.0349057 2.29173 0
M  V30 8148 C 758.732 -0.716571 1.46182 0
M  V30 8149 O 759.921 -0.562806 1.69395 0
M  V30 8150 C 757.021 -0.974839 3.24577 0
M  V30 8151 C 756.194 -0.287471 4.36454 0
M  V30 8152 C 755.253 -1.20356 5.12251 0
M  V30 8153 O 754.279 -0.685753 5.65054 0
M  V30 8154 N 755.481 -2.53422 5.22262 0
M  V30 8155 H 758.246 0.800058 2.88824 0
M  V30 8156 H 755.807 0.57068 1.51509 0
M  V30 8157 H 757.799 -1.59002 3.72157 0
M  V30 8158 H 756.369 -1.6413 2.66046 0
M  V30 8159 H 755.589 0.508008 3.90913 0
M  V30 8160 H 756.877 0.189382 5.08447 0
M  V30 8161 H 756.275 -2.97981 4.80857 0
M  V30 8162 H 754.832 -3.10067 5.73325 0
M  V30 8163 N 758.265 -1.50454 0.469181 0
M  V30 8164 C 759.511 -2.02615 -0.0865971 0
M  V30 8165 C 759.844 -1.35062 -1.39542 0
M  V30 8166 O 759.119 -0.475701 -1.88593 0
M  V30 8167 C 759.402 -3.59068 -0.272385 0
M  V30 8168 C 759.255 -4.37196 1.05733 0
M  V30 8169 C 760.574 -4.2793 -1.0278 0
M  V30 8170 H 757.693 -0.736389 -0.0299977 0
M  V30 8171 H 760.335 -1.79792 0.614399 0
M  V30 8172 H 758.485 -3.78646 -0.869471 0
M  V30 8173 H 760.157 -4.29195 1.69084 0
M  V30 8174 H 758.4 -4.01013 1.65442 0
M  V30 8175 H 759.071 -5.44924 0.880997 0
M  V30 8176 H 761.547 -4.12816 -0.521718 0
M  V30 8177 H 760.423 -5.37214 -1.12659 0
M  V30 8178 H 760.684 -3.90968 -2.0639 0
M  V30 8179 N 759.743 -0.201713 -1.56304 0
M  V30 8180 C 760.706 0.702811 -2.18159 0
M  V30 8181 C 761.706 1.13619 -1.13787 0
M  V30 8182 O 762.896 1.0482 -1.39134 0
M  V30 8183 C 760.028 1.96032 -2.78898 0
M  V30 8184 H 761.221 0.163836 -2.99452 0
M  V30 8185 H 758.774 0.04791 -1.56227 0
M  V30 8186 H 759.509 2.54165 -2.01421 0
M  V30 8187 H 759.294 1.65824 -3.55309 0
M  V30 8188 H 760.784 2.60519 -3.26373 0
M  V30 8189 N 761.222 1.57436 0.0718424 0
M  V30 8190 C 762.45 1.91474 0.783932 0
M  V30 8191 C 762.865 0.797669 1.71122 0
M  V30 8192 O 762.222 -0.228989 1.81058 0
M  V30 8193 C 762.273 3.25259 1.57761 0
M  V30 8194 O 761.994 4.3267 0.687596 0
M  V30 8195 C 763.495 3.7331 2.3907 0
M  V30 8196 H 760.715 0.632901 0.222885 0
M  V30 8197 H 763.259 2.04457 0.0421262 0
M  V30 8198 H 761.414 3.13804 2.27169 0
M  V30 8199 H 761.828 5.09641 1.23962 0
M  V30 8200 H 763.302 4.69551 2.90216 0
M  V30 8201 H 763.779 3.02318 3.18591 0
M  V30 8202 H 764.385 3.8771 1.74818 0
M  V30 8203 N 762.7 -0.34323 1.53817 0
M  V30 8204 C 763.63 -1.42709 1.84814 0
M  V30 8205 C 764.611 -1.5488 0.703297 0
M  V30 8206 O 765.796 -1.69082 0.955237 0
M  V30 8207 C 762.926 -2.79756 2.05801 0
M  V30 8208 C 761.88 -2.82392 3.21619 0
M  V30 8209 C 761.206 -4.22326 3.2794 0
M  V30 8210 C 762.506 -2.479 4.59721 0
M  V30 8211 H 764.2 -1.17018 2.75585 0
M  V30 8212 H 761.746 -0.561485 1.32602 0
M  V30 8213 H 763.699 -3.55627 2.26069 0
M  V30 8214 H 762.423 -3.06883 1.11761 0
M  V30 8215 H 761.082 -2.08974 3.01207 0
M  V30 8216 H 760.73 -4.46564 2.31494 0
M  V30 8217 H 760.43 -4.25001 4.05768 0
M  V30 8218 H 761.954 -5.00039 3.50419 0
M  V30 8219 H 763.368 -3.13484 4.80001 0
M  V30 8220 H 761.765 -2.61857 5.39954 0
M  V30 8221 H 762.835 -1.43087 4.63308 0
M  V30 8222 N 764.178 -1.45556 -0.604258 0
M  V30 8223 C 765.455 -1.40221 -1.36373 0
M  V30 8224 C 765.835 -0.0745195 -2.10968 0
M  V30 8225 O 765.183 0.943594 -2.08107 0
M  V30 8226 C 765.393 -2.61807 -2.30777 0
M  V30 8227 C 766.741 -3.07037 -2.93281 0
M  V30 8228 O 767.765 -2.62203 -2.41097 0
M  V30 8229 O 766.624 -3.8485 -3.88011 0
M  V30 8230 H 763.718 -0.556602 -0.611656 0
M  V30 8231 H 766.264 -1.57689 -0.627069 0
M  V30 8232 H 765.036 -3.50017 -1.74939 0
M  V30 8233 H 764.659 -2.46688 -3.11818 0
M  V30 8234 N 765.656 0.84705 -1.32902 0
M  V30 8235 C 766.881 1.63925 -1.27056 0
M  V30 8236 C 767.306 1.87443 0.157136 0
M  V30 8237 O 766.664 1.43266 1.11106 0
M  V30 8238 C 766.712 2.97134 -2.04313 0
M  V30 8239 O 765.816 3.88049 -1.39614 0
M  V30 8240 H 765.157 0.499477 -0.437514 0
M  V30 8241 H 767.687 1.05443 -1.75336 0
M  V30 8242 H 767.697 3.46896 -2.14772 0
M  V30 8243 H 766.372 2.79339 -3.08128 0
M  V30 8244 H 764.949 3.46525 -1.3775 0
M  V30 8245 N 767.134 1.16236 1.06428 0
M  V30 8246 C 768.084 0.835994 2.12121 0
M  V30 8247 C 769.068 -0.183955 1.59845 0
M  V30 8248 O 770.26 0.0166741 1.76992 0
M  V30 8249 C 767.389 0.337333 3.41639 0
M  V30 8250 C 766.475 1.38798 4.00744 0
M  V30 8251 N 766.866 2.59799 4.3398 0
M  V30 8252 C 765.164 1.24292 4.28331 0
M  V30 8253 C 765.865 3.27213 4.80943 0
M  V30 8254 N 764.841 2.54594 4.80294 0
M  V30 8255 H 768.643 1.75615 2.35662 0
M  V30 8256 H 766.157 1.04921 1.23957 0
M  V30 8257 H 768.154 0.0851274 4.16813 0
M  V30 8258 H 766.814 -0.57677 3.19536 0
M  V30 8259 H 767.825 2.96867 4.24371 0
M  V30 8260 H 764.502 0.389464 4.15679 0
M  V30 8261 H 765.892 4.30492 5.15874 0
M  V30 8262 N 768.612 -1.24939 0.960631 0
M  V30 8263 C 769.575 -2.239 0.49006 0
M  V30 8264 C 770.575 -1.55497 -0.409535 0
M  V30 8265 O 771.765 -1.72978 -0.205984 0
M  V30 8266 C 768.897 -3.39654 -0.291193 0
M  V30 8267 H 770.09 -2.67044 1.36482 0
M  V30 8268 H 767.643 -1.37429 0.744505 0
M  V30 8269 H 768.378 -3.01939 -1.18336 0
M  V30 8270 H 768.163 -3.90496 0.354276 0
M  V30 8271 H 769.653 -4.13125 -0.609693 0
M  V30 8272 N 770.09 -0.729906 -1.39679 0
M  V30 8273 C 771.338 -0.275077 -2.00219 0
M  V30 8274 C 771.659 1.1401 -1.58199 0
M  V30 8275 O 770.929 1.77546 -0.827904 0
M  V30 8276 H 769.509 -0.0987127 -0.740449 0
M  V30 8277 H 772.171 -0.93873 -1.70804 0
M  V30 8278 H 771.267 -0.319446 -3.10461 0
M  V30 8279 N 771.568 1.50203 -0.477153 0
M  V30 8280 C 772.516 2.30278 0.327826 0
M  V30 8281 C 773.51 1.37831 0.984839 0
M  V30 8282 O 774.716 1.54994 0.915251 0
M  V30 8283 H 771.091 0.741612 0.124564 0
M  V30 8284 H 773.062 2.96124 -0.367853 0
M  V30 8285 C 771.811 3.18548 1.39365 0
M  V30 8286 H 771.134 3.89596 0.897475 0
M  V30 8287 H 772.574 3.77561 1.92934 0
M  V30 8288 C 771.033 2.36548 2.39889 0
M  V30 8289 O 771.563 2.05282 3.45286 0
M  V30 8290 N 769.769 1.99015 2.11758 0
M  V30 8291 H 769.316 2.24641 1.26071 0
M  V30 8292 H 769.274 1.44454 2.7925 0
M  V30 8293 N 773.046 0.209999 1.56195 0
M  V30 8294 C 773.976 -0.699746 2.22769 0
M  V30 8295 C 774.957 -1.20993 1.1956 0
M  V30 8296 O 776.142 -1.25605 1.48112 0
M  V30 8297 C 773.272 -1.91302 2.89863 0
M  V30 8298 C 772.226 -1.53715 3.99444 0
M  V30 8299 C 771.552 -2.82826 4.53777 0
M  V30 8300 C 772.852 -0.735836 5.17091 0
M  V30 8301 H 774.546 -0.144716 2.9905 0
M  V30 8302 H 772.092 -0.0681645 1.43839 0
M  V30 8303 H 774.045 -2.5548 3.35124 0
M  V30 8304 H 772.769 -2.49283 2.11011 0
M  V30 8305 H 771.428 -0.918892 3.54897 0
M  V30 8306 H 771.076 -3.38927 3.71669 0
M  V30 8307 H 770.776 -2.58415 5.27727 0
M  V30 8308 H 772.3 -3.47966 5.01749 0
M  V30 8309 H 773.714 -1.28105 5.58804 0
M  V30 8310 H 772.111 -0.589272 5.972 0
M  V30 8311 H 773.181 0.260004 4.84202 0
M  V30 8312 N 774.524 -1.57472 -0.0634922 0
M  V30 8313 C 775.935 -1.76303 -0.614337 0
M  V30 8314 C 776.286 -0.836578 -1.77471 0
M  V30 8315 O 775.411 -0.0227184 -2.16388 0
M  V30 8316 C 776.006 -3.19709 -1.12122 0
M  V30 8317 C 774.565 -3.39856 -1.61786 0
M  V30 8318 C 773.712 -2.71975 -0.540845 0
M  V30 8319 H 776.663 -1.57864 0.162702 0
M  V30 8320 H 776.684 -3.24326 -1.98979 0
M  V30 8321 H 776.196 -3.87114 -0.276472 0
M  V30 8322 H 774.297 -2.77578 -2.48558 0
M  V30 8323 H 774.41 -4.48338 -1.68908 0
M  V30 8324 H 772.774 -2.34763 -0.987854 0
M  V30 8325 H 773.557 -3.4204 0.293856 0
M  V30 8326 N 776.003 0.335068 -1.53997 0
M  V30 8327 C 777.419 0.678704 -1.4445 0
M  V30 8328 C 777.619 1.92106 -0.608078 0
M  V30 8329 O 776.675 2.52292 -0.102373 0
M  V30 8330 C 777.988 0.863435 -2.88037 0
M  V30 8331 C 779.536 0.961513 -2.97866 0
M  V30 8332 C 780.011 1.1785 -4.42578 0
M  V30 8333 N 781.502 1.2455 -4.46141 0
M  V30 8334 C 782.237 1.43106 -5.55255 0
M  V30 8335 N 781.733 1.5878 -6.74359 0
M  V30 8336 N 783.526 1.45722 -5.42883 0
M  V30 8337 H 775.677 -0.481656 -2.06867 0
M  V30 8338 H 777.94 -0.153615 -0.935471 0
M  V30 8339 H 777.646 0.0219511 -3.51693 0
M  V30 8340 H 777.52 1.76268 -3.33481 0
M  V30 8341 H 779.907 1.79351 -2.34344 0
M  V30 8342 H 779.988 0.0389862 -2.5577 0
M  V30 8343 H 779.632 0.351397 -5.06683 0
M  V30 8344 H 779.562 2.11472 -4.82273 0
M  V30 8345 H 782.053 1.13928 -3.60318 0
M  V30 8346 H 782.366 1.72599 -7.53279 0
M  V30 8347 H 780.711 1.559 -6.77289 0
M  V30 8348 H 783.902 1.33065 -4.48789 0
M  V30 8349 H 784.075 1.59841 -6.27977 0
M  V30 8350 N 777.481 1.45874 0.596531 0
M  V30 8351 C 778.391 1.57947 1.73464 0
M  V30 8352 C 779.407 0.463461 1.67714 0
M  V30 8353 O 780.583 0.725685 1.87872 0
M  V30 8354 C 777.648 1.55348 3.09948 0
M  V30 8355 C 776.709 2.78074 3.27068 0
M  V30 8356 C 775.942 2.75589 4.57041 0
M  V30 8357 O 776.165 1.83545 5.40063 0
M  V30 8358 O 775.099 3.66945 4.77111 0
M  V30 8359 H 778.925 2.54169 1.66228 0
M  V30 8360 H 776.51 1.2851 0.76194 0
M  V30 8361 H 778.392 1.56545 3.91244 0
M  V30 8362 H 777.067 0.622811 3.17652 0
M  V30 8363 H 775.974 2.82435 2.45319 0
M  V30 8364 H 777.307 3.70303 3.24248 0
M  V30 8365 N 778.959 -0.83999 1.33349 0
M  V30 8366 C 780.207 -1.59202 1.24496 0
M  V30 8367 C 780.528 -1.94077 -0.189499 0
M  V30 8368 O 779.798 -1.60868 -1.11796 0
M  V30 8369 H 778.378 -0.590276 0.457802 0
M  V30 8370 H 781.04 -1.00394 1.67054 0
M  V30 8371 H 780.136 -2.52247 1.83788 0
M  V30 8372 N 780.437 -1.16799 -1.0581 0
M  V30 8373 C 781.4 -0.881396 -2.11575 0
M  V30 8374 C 782.4 0.12574 -1.60308 0
M  V30 8375 O 783.59 -0.105716 -1.73879 0
M  V30 8376 C 780.722 -0.319037 -3.39404 0
M  V30 8377 H 781.915 -1.81907 -2.38432 0
M  V30 8378 H 779.468 -0.977597 -1.21954 0
M  V30 8379 H 780.203 0.626082 -3.18199 0
M  V30 8380 H 779.988 -1.04481 -3.77923 0
M  V30 8381 H 781.478 -0.13663 -4.17376 0
M  V30 8382 N 781.915 1.24427 -0.967243 0
M  V30 8383 C 783.161 1.92772 -0.629812 0
M  V30 8384 C 783.494 1.75436 0.832827 0
M  V30 8385 O 782.769 1.10716 1.59913 0
M  V30 8386 C 783.052 3.45798 -1.00477 0
M  V30 8387 C 782.905 3.72304 -2.52407 0
M  V30 8388 C 784.224 4.36787 -0.538999 0
M  V30 8389 H 781.343 0.700099 -0.230282 0
M  V30 8390 H 783.985 1.46805 -1.20616 0
M  V30 8391 H 782.135 3.8508 -0.514336 0
M  V30 8392 H 783.807 3.42584 -3.08924 0
M  V30 8393 H 782.05 3.17472 -2.95625 0
M  V30 8394 H 782.721 4.7937 -2.73693 0
M  V30 8395 H 785.197 4.04877 -0.959874 0
M  V30 8396 H 784.073 5.4259 -0.829926 0
M  V30 8397 H 784.334 4.38527 0.560923 0
M  V30 8398 N 783.393 0.737304 1.3929 0
M  V30 8399 C 784.323 0.113988 2.33222 0
M  V30 8400 C 785.304 -0.721695 1.54031 0
M  V30 8401 O 786.489 -0.666206 1.82415 0
M  V30 8402 C 783.619 -0.792319 3.38141 0
M  V30 8403 C 782.573 -0.0606178 4.27957 0
M  V30 8404 C 781.899 -1.08409 5.23595 0
M  V30 8405 C 783.199 1.09817 5.10625 0
M  V30 8406 H 784.893 0.898611 2.85596 0
M  V30 8407 H 782.439 0.433571 1.37318 0
M  V30 8408 H 784.392 -1.23793 4.02807 0
M  V30 8409 H 783.116 -1.60908 2.84211 0
M  V30 8410 H 781.775 0.365393 3.64775 0
M  V30 8411 H 781.423 -1.89449 4.6596 0
M  V30 8412 H 781.123 -0.599269 5.84536 0
M  V30 8413 H 782.647 -1.52936 5.91137 0
M  V30 8414 H 784.061 0.730892 5.68622 0
M  V30 8415 H 782.458 1.51278 5.80719 0
M  V30 8416 H 783.528 1.91878 4.45321 0
M  V30 8417 N 784.871 -1.49948 0.485112 0
M  V30 8418 C 786.12 -2.01589 -0.066765 0
M  V30 8419 C 786.433 -1.371 -1.39509 0
M  V30 8420 O 787.639 -1.79978 -2.03274 0
M  V30 8421 C 786.095 -3.59501 -0.169476 0
M  V30 8422 C 785.703 -4.32955 1.15126 0
M  V30 8423 C 787.447 -4.19138 -0.672564 0
M  V30 8424 C 785.354 -5.82684 1.01158 0
M  V30 8425 H 784.284 -0.753453 -0.0287259 0
M  V30 8426 H 786.935 -1.72632 0.622132 0
M  V30 8427 H 785.317 -3.85106 -0.922471 0
M  V30 8428 H 786.491 -4.19064 1.9163 0
M  V30 8429 H 784.806 -3.84991 1.58654 0
M  V30 8430 H 787.403 -5.28767 -0.794325 0
M  V30 8431 H 787.746 -3.81447 -1.66745 0
M  V30 8432 H 788.279 -3.97793 0.0234415 0
M  V30 8433 H 785.018 -6.24873 1.98025 0
M  V30 8434 H 784.538 -5.99112 0.287151 0
M  V30 8435 H 786.217 -6.43376 0.683847 0
M  V30 8436 N 786.349 -0.21828 -1.56081 0
M  V30 8437 C 787.595 0.414921 -1.9851 0
M  V30 8438 C 787.928 1.59648 -1.10573 0
M  V30 8439 O 787.203 1.93818 -0.162695 0
M  V30 8440 C 787.486 0.852647 -3.4986 0
M  V30 8441 C 787.339 -0.33232 -4.48571 0
M  V30 8442 C 788.658 1.70998 -4.05521 0
M  V30 8443 H 785.777 0.149344 -0.72171 0
M  V30 8444 H 788.419 -0.313858 -1.8739 0
M  V30 8445 H 786.569 1.47362 -3.59467 0
M  V30 8446 H 788.241 -0.970418 -4.50977 0
M  V30 8447 H 786.484 -0.980302 -4.22578 0
M  V30 8448 H 787.155 0.0168407 -5.51997 0
M  V30 8449 H 789.631 1.18606 -3.98838 0
M  V30 8450 H 788.507 1.98517 -5.11744 0
M  V30 8451 H 788.768 2.67219 -3.52202 0
M  V30 8452 N 787.827 1.57504 0.0551401 0
M  V30 8453 C 789.055 1.92294 0.76358 0
M  V30 8454 C 789.47 0.815774 1.70266 0
M  V30 8455 O 788.827 -0.209772 1.8129 0
M  V30 8456 C 788.878 3.26914 1.54302 0
M  V30 8457 O 788.599 4.33375 0.641666 0
M  V30 8458 C 790.1 3.75825 2.35097 0
M  V30 8459 H 787.32 0.635229 0.216159 0
M  V30 8460 H 789.864 2.0449 0.0204385 0
M  V30 8461 H 788.019 3.16196 2.23828 0
M  V30 8462 H 788.433 5.10927 1.1855 0
M  V30 8463 H 789.907 4.72603 2.8522 0
M  V30 8464 H 790.384 3.0568 3.15367 0
M  V30 8465 H 790.99 3.89542 1.70696 0
M  V30 8466 N 789.305 -0.326896 1.54172 0
M  V30 8467 C 790.268 -1.38515 1.8261 0
M  V30 8468 C 791.268 -1.44872 0.697771 0
M  V30 8469 O 792.458 -1.44957 0.966078 0
M  V30 8470 C 789.59 -2.77281 1.98313 0
M  V30 8471 H 790.783 -1.14556 2.77159 0
M  V30 8472 H 788.336 -0.562199 1.45839 0
M  V30 8473 H 789.071 -3.065 1.05964 0
M  V30 8474 H 788.856 -2.74061 2.80416 0
M  V30 8475 H 790.346 -3.53845 2.21773 0
M  V30 8476 N 790.784 -1.46188 -0.588786 0
M  V30 8477 C 792.009 -1.5498 -1.37826 0
M  V30 8478 C 792.434 -0.189498 -1.87143 0
M  V30 8479 O 791.792 0.829293 -1.61222 0
M  V30 8480 C 791.84 -2.55369 -2.54596 0
M  V30 8481 O 790.944 -2.08452 -3.55839 0
M  V30 8482 H 790.285 -0.521741 -0.41071 0
M  V30 8483 H 792.815 -1.91708 -0.714779 0
M  V30 8484 H 792.825 -2.74782 -3.01594 0
M  V30 8485 H 791.5 -3.54155 -2.18052 0
M  V30 8486 H 790.077 -1.98999 -3.15363 0
M  V30 8487 N 792.262 0.832906 -1.33792 0
M  V30 8488 C 793.492 1.61813 -1.28453 0
M  V30 8489 C 793.9 1.88639 0.145595 0
M  V30 8490 O 793.243 1.47122 1.10004 0
M  V30 8491 C 793.305 2.98929 -1.99704 0
M  V30 8492 C 792.969 2.95045 -3.48995 0
M  V30 8493 C 793.966 2.70337 -4.44088 0
M  V30 8494 C 791.651 3.14993 -3.91261 0
M  V30 8495 C 793.645 2.65612 -5.79421 0
M  V30 8496 C 791.332 3.09893 -5.26697 0
M  V30 8497 C 792.33 2.85235 -6.20588 0
M  V30 8498 O 792.018 2.8005 -7.53543 0
M  V30 8499 H 791.75 0.510013 -0.443693 0
M  V30 8500 H 794.304 1.04514 -1.76822 0
M  V30 8501 H 792.534 3.58106 -1.45935 0
M  V30 8502 H 794.223 3.59849 -1.87786 0
M  V30 8503 H 794.989 2.54671 -4.12756 0
M  V30 8504 H 790.868 3.33204 -3.18584 0
M  V30 8505 H 794.412 2.46285 -6.52679 0
M  V30 8506 H 790.309 3.2511 -5.5765 0
M  V30 8507 H 791.077 2.95849 -7.63162 0
M  V30 8508 N 793.74 1.17359 1.05189 0
M  V30 8509 C 794.688 0.886527 2.15043 0
M  V30 8510 C 795.682 -0.148834 1.68745 0
M  V30 8511 O 796.888 -0.00175123 1.8 0
M  V30 8512 H 793.263 0.269147 0.702185 0
M  V30 8513 H 795.234 1.82016 2.36459 0
M  V30 8514 C 793.983 0.416333 3.45198 0
M  V30 8515 H 793.306 1.20449 3.81225 0
M  V30 8516 H 794.746 0.254362 4.23236 0
M  V30 8517 C 793.205 -0.866016 3.25579 0
M  V30 8518 O 793.735 -1.9328 3.52144 0
M  V30 8519 N 791.941 -0.814179 2.78961 0
M  V30 8520 H 791.488 0.0541618 2.57543 0
M  V30 8521 H 791.446 -1.67264 2.66214 0
M  V30 8522 N 795.218 -1.23913 0.973828 0
M  V30 8523 C 796.466 -1.91771 0.637817 0
M  V30 8524 C 796.787 -1.76434 -0.830435 0
M  V30 8525 O 796.057 -1.13965 -1.59339 0
M  V30 8526 H 794.637 -0.709761 0.232912 0
M  V30 8527 H 797.299 -1.50677 1.23622 0
M  V30 8528 H 796.395 -2.99327 0.883731 0
M  V30 8529 N 796.696 -0.74468 -1.38897 0
M  V30 8530 C 797.646 -0.0869375 -2.27834 0
M  V30 8531 C 798.63 0.702553 -1.44751 0
M  V30 8532 O 799.822 0.569972 -1.67572 0
M  V30 8533 C 796.951 0.812232 -3.33553 0
M  V30 8534 C 796.037 0.0163713 -4.24097 0
M  V30 8535 N 796.428 -1.01547 -4.95502 0
M  V30 8536 C 794.726 0.244554 -4.45329 0
M  V30 8537 C 795.427 -1.49622 -5.62128 0
M  V30 8538 N 794.403 -0.813097 -5.37485 0
M  V30 8539 H 798.205 -0.877345 -2.80499 0
M  V30 8540 H 795.719 -0.579898 -1.51694 0
M  V30 8541 H 797.716 1.299 -3.96146 0
M  V30 8542 H 796.376 1.60169 -2.82446 0
M  V30 8543 H 797.387 -1.39707 -4.98701 0
M  V30 8544 H 794.064 1.00806 -4.05147 0
M  V30 8545 H 795.454 -2.35523 -6.29268 0
M  V30 8546 N 798.174 1.49689 -0.493057 0
M  V30 8547 C 799.585 1.8665 -0.0433032 0
M  V30 8548 C 799.936 1.40607 1.36836 0
M  V30 8549 O 799.061 0.780503 2.01834 0
M  V30 8550 C 799.656 3.38724 -0.0718069 0
M  V30 8551 C 798.215 3.75015 0.32257 0
M  V30 8552 C 797.362 2.7366 -0.4478 0
M  V30 8553 H 800.313 1.42119 -0.706246 0
M  V30 8554 H 800.334 3.73522 0.725347 0
M  V30 8555 H 799.846 3.72204 -1.09935 0
M  V30 8556 H 797.947 3.47142 1.35364 0
M  V30 8557 H 798.06 4.79099 0.00864259 0
M  V30 8558 H 796.424 2.54498 0.101354 0
M  V30 8559 H 797.207 3.09985 -1.47527 0
M  V30 8560 N 799.652 0.226554 1.55963 0
M  V30 8561 C 801.063 -0.280381 1.84583 0
M  V30 8562 C 801.414 -1.59105 1.14804 0
M  V30 8563 O 800.539 -2.12297 0.419414 0
M  V30 8564 C 801.134 -0.515499 3.34855 0
M  V30 8565 C 799.693 -0.966733 3.63774 0
M  V30 8566 C 798.84 -0.0325753 2.77281 0
M  V30 8567 H 801.791 0.449626 1.52197 0
M  V30 8568 H 801.812 -1.36085 3.55332 0
M  V30 8569 H 801.324 0.438594 3.85614 0
M  V30 8570 H 799.425 -1.93401 3.18476 0
M  V30 8571 H 799.538 -0.837679 4.7172 0
M  V30 8572 H 797.902 -0.540279 2.48904 0
M  V30 8573 H 798.685 0.916524 3.30839 0
M  V30 8574 N 801.13 -1.57531 -0.0467866 0
M  V30 8575 C 802.407 -1.79568 -0.775536 0
M  V30 8576 C 802.787 -0.820322 -1.94509 0
M  V30 8577 O 802.135 0.14134 -2.28062 0
M  V30 8578 C 802.345 -3.26789 -1.22516 0
M  V30 8579 C 803.693 -3.91299 -1.64835 0
M  V30 8580 O 804.717 -3.30831 -1.3202 0
M  V30 8581 O 803.576 -4.97727 -2.25677 0
M  V30 8582 H 800.67 -0.737817 -0.373572 0
M  V30 8583 H 803.216 -1.69682 -0.0249302 0
M  V30 8584 H 801.988 -3.89357 -0.389446 0
M  V30 8585 H 801.611 -3.41496 -2.03633 0
M  V30 8586 N 802.608 0.318715 -1.54344 0
M  V30 8587 C 803.556 1.41254 -1.84798 0
M  V30 8588 C 804.55 1.53325 -0.720256 0
M  V30 8589 O 805.756 1.55653 -0.903992 0
M  V30 8590 H 802.131 0.471468 -0.585851 0
M  V30 8591 H 804.102 1.12795 -2.7626 0
M  V30 8592 C 802.851 2.77395 -2.09637 0
M  V30 8593 H 802.174 2.68881 -2.95876 0
M  V30 8594 H 803.614 3.52987 -2.34896 0
M  V30 8595 C 802.073 3.24948 -0.889398 0
M  V30 8596 O 802.603 4.01573 -0.101063 0
M  V30 8597 N 800.809 2.82051 -0.699684 0
M  V30 8598 H 800.356 2.19858 -1.3424 0
M  V30 8599 H 800.314 3.1422 0.106368 0
M  V30 8600 N 804.086 1.46499 0.581025 0
M  V30 8601 C 805.049 1.5677 1.672 0
M  V30 8602 C 806.049 0.444716 1.54528 0
M  V30 8603 O 807.239 0.709074 1.59116 0
M  V30 8604 C 804.371 1.4896 3.06633 0
M  V30 8605 H 805.564 2.54 1.5945 0
M  V30 8606 H 803.117 1.34334 0.799003 0
M  V30 8607 H 803.852 0.530168 3.19937 0
M  V30 8608 H 803.637 2.30439 3.17239 0
M  V30 8609 H 805.127 1.59237 3.86048 0
M  V30 8610 N 805.565 -0.825799 1.34232 0
M  V30 8611 C 806.512 -1.93651 1.2557 0
M  V30 8612 C 807.482 -1.65578 0.131536 0
M  V30 8613 O 808.667 -1.88231 0.312027 0
M  V30 8614 C 805.807 -3.29862 1.01415 0
M  V30 8615 C 804.92 -3.70247 2.22579 0
M  V30 8616 C 804.055 -4.95392 1.91731 0
M  V30 8617 C 803.094 -5.28349 3.09053 0
M  V30 8618 N 802.231 -6.44671 2.78107 0
M  V30 8619 H 807.071 -2.00392 2.20561 0
M  V30 8620 H 804.608 -0.980441 1.09662 0
M  V30 8621 H 806.566 -4.08356 0.854485 0
M  V30 8622 H 805.196 -3.22642 0.100936 0
M  V30 8623 H 804.248 -2.87169 2.49476 0
M  V30 8624 H 805.56 -3.90575 3.10246 0
M  V30 8625 H 804.714 -5.81665 1.72484 0
M  V30 8626 H 803.453 -4.77059 1.0132 0
M  V30 8627 H 802.458 -4.40574 3.289 0
M  V30 8628 H 803.683 -5.48622 4.00239 0
M  V30 8629 H 801.629 -6.278 1.9027 0
M  V30 8630 H 801.546 -6.65158 3.59306 0
M  V30 8631 H 802.814 -7.34022 2.62358 0
M  V30 8632 N 807.043 -1.17915 -1.04565 0
M  V30 8633 C 807.975 -0.859359 -2.1248 0
M  V30 8634 C 808.988 0.140922 -1.62189 0
M  V30 8635 O 810.177 -0.0862361 -1.78292 0
M  V30 8636 C 807.277 -0.261811 -3.37887 0
M  V30 8637 C 806.45 -1.30651 -4.17431 0
M  V30 8638 C 805.509 -0.725575 -5.21174 0
M  V30 8639 O 804.535 -1.39901 -5.51739 0
M  V30 8640 N 805.737 0.479351 -5.78517 0
M  V30 8641 H 808.502 -1.78818 -2.40508 0
M  V30 8642 H 806.063 -1.07885 -1.20716 0
M  V30 8643 H 808.055 0.14028 -4.04457 0
M  V30 8644 H 806.625 0.570929 -3.07342 0
M  V30 8645 H 805.845 -1.88412 -3.46258 0
M  V30 8646 H 807.133 -2.01099 -4.67372 0
M  V30 8647 H 806.531 1.04431 -5.55977 0
M  V30 8648 H 805.088 0.823427 -6.46578 0
M  V30 8649 N 808.521 1.23394 -0.980386 0
M  V30 8650 C 809.768 1.91809 -0.649261 0
M  V30 8651 C 810.096 1.765 0.817197 0
M  V30 8652 O 809.351 1.11979 1.60497 0
M  V30 8653 C 809.65 3.43542 -0.985588 0
M  V30 8654 C 809.316 3.79031 -2.44225 0
M  V30 8655 C 807.978 3.88429 -2.84035 0
M  V30 8656 C 810.33 3.96145 -3.38702 0
M  V30 8657 C 807.658 4.12368 -4.17336 0
M  V30 8658 C 810.01 4.21583 -4.71646 0
M  V30 8659 C 808.674 4.29203 -5.11215 0
M  V30 8660 H 807.944 0.70188 -0.237581 0
M  V30 8661 H 810.591 1.4642 -1.23424 0
M  V30 8662 H 808.896 3.90503 -0.318521 0
M  V30 8663 H 810.593 3.94708 -0.707596 0
M  V30 8664 H 807.183 3.7229 -2.12362 0
M  V30 8665 H 811.367 3.88274 -3.09123 0
M  V30 8666 H 806.623 4.1649 -4.47601 0
M  V30 8667 H 810.797 4.33769 -5.4481 0
M  V30 8668 H 808.424 4.47505 -6.14527 0
M  V30 8669 N 809.999 0.752036 1.385 0
M  V30 8670 C 811.245 0.307958 2.00448 0
M  V30 8671 C 811.578 -1.10702 1.59558 0
M  V30 8672 O 810.853 -1.75788 0.832391 0
M  V30 8673 C 811.136 0.429092 3.57534 0
M  V30 8674 C 810.989 1.88507 4.08393 0
M  V30 8675 C 812.308 -0.178442 4.39738 0
M  V30 8676 H 809.427 0.113373 0.728228 0
M  V30 8677 H 812.069 0.951389 1.64465 0
M  V30 8678 H 810.219 -0.118695 3.88319 0
M  V30 8679 H 811.891 2.49104 3.88259 0
M  V30 8680 H 810.134 2.40066 3.61318 0
M  V30 8681 H 810.805 1.92099 5.17496 0
M  V30 8682 H 813.281 0.28872 4.15097 0
M  V30 8683 H 812.157 -0.0634349 5.48863 0
M  V30 8684 H 812.418 -1.26655 4.23569 0
M  V30 8685 N 811.477 -1.49425 0.500989 0
M  V30 8686 C 812.754 -1.9531 -0.106551 0
M  V30 8687 C 813.134 -1.44248 -1.54129 0
M  V30 8688 O 812.482 -0.656237 -2.18874 0
M  V30 8689 C 812.692 -3.48995 -0.0191972 0
M  V30 8690 C 814.04 -4.24161 -0.193129 0
M  V30 8691 O 815.064 -3.56075 -0.0943843 0
M  V30 8692 O 813.923 -5.45064 -0.395869 0
M  V30 8693 H 811.017 -0.82149 -0.0953068 0
M  V30 8694 H 813.563 -1.6007 0.563526 0
M  V30 8695 H 812.335 -3.78794 0.981353 0
M  V30 8696 H 811.958 -3.90852 -0.72942 0
M  V30 8697 N 812.955 -0.234822 -1.55841 0
M  V30 8698 C 814.201 0.387023 -1.99684 0
M  V30 8699 C 814.556 1.56439 -1.12003 0
M  V30 8700 O 813.849 1.90818 -0.172879 0
M  V30 8701 C 814.043 0.858032 -3.46947 0
M  V30 8702 C 813.872 -0.272152 -4.48876 0
M  V30 8703 C 812.642 -0.742896 -4.99809 0
M  V30 8704 C 814.84 -1.09501 -5.02508 0
M  V30 8705 N 812.822 -1.84675 -5.85464 0
M  V30 8706 C 814.193 -2.04748 -5.85217 0
M  V30 8707 C 816.248 -1.13295 -4.84839 0
M  V30 8708 C 814.951 -3.03483 -6.52143 0
M  V30 8709 C 816.977 -2.10854 -5.52535 0
M  V30 8710 C 816.339 -3.04838 -6.35022 0
M  V30 8711 H 812.438 0.107918 -0.774518 0
M  V30 8712 H 815.022 -0.349635 -1.91535 0
M  V30 8713 H 813.193 1.56401 -3.55518 0
M  V30 8714 H 814.925 1.45381 -3.77686 0
M  V30 8715 H 811.68 -0.32915 -4.72455 0
M  V30 8716 H 812.104 -2.40108 -6.32991 0
M  V30 8717 H 816.746 -0.420226 -4.20706 0
M  V30 8718 H 814.464 -3.7571 -7.15449 0
M  V30 8719 H 818.05 -2.1448 -5.40823 0
M  V30 8720 H 816.93 -3.79097 -6.8648 0
M  V30 8721 N 814.433 1.57553 0.0384317 0
M  V30 8722 C 815.363 2.0898 1.04161 0
M  V30 8723 C 816.344 0.99029 1.38301 0
M  V30 8724 O 817.529 1.26499 1.47349 0
M  V30 8725 C 814.659 2.56145 2.34536 0
M  V30 8726 C 813.613 3.70275 2.14663 0
M  V30 8727 C 812.939 4.03612 3.50715 0
M  V30 8728 C 814.239 4.99067 1.54045 0
M  V30 8729 H 815.933 2.93046 0.613548 0
M  V30 8730 H 813.479 1.40973 0.293684 0
M  V30 8731 H 815.432 2.90741 3.05037 0
M  V30 8732 H 814.156 1.6915 2.79385 0
M  V30 8733 H 812.815 3.36013 1.46597 0
M  V30 8734 H 812.463 3.13698 3.93195 0
M  V30 8735 H 812.163 4.80482 3.38247 0
M  V30 8736 H 813.687 4.40735 4.22593 0
M  V30 8737 H 815.101 5.3168 2.14451 0
M  V30 8738 H 813.498 5.80484 1.52178 0
M  V30 8739 H 814.568 4.8226 0.505259 0
M  V30 8740 N 815.911 -0.310526 1.54511 0
M  V30 8741 C 817.188 -1.06593 1.64004 0
M  V30 8742 C 817.568 -2.05519 0.482216 0
M  V30 8743 O 816.916 -2.22455 -0.52212 0
M  V30 8744 C 817.126 -1.75627 3.01589 0
M  V30 8745 C 818.474 -2.28173 3.58081 0
M  V30 8746 O 819.498 -1.85674 3.03979 0
M  V30 8747 O 818.357 -3.06015 4.52788 0
M  V30 8748 H 815.451 -0.492109 0.664649 0
M  V30 8749 H 817.997 -0.309374 1.66856 0
M  V30 8750 H 816.769 -1.03743 3.77297 0
M  V30 8751 H 816.392 -2.58061 3.02473 0
M  V30 8752 N 817.389 -1.46805 -0.573248 0
M  V30 8753 C 818.321 -1.54127 -1.6964 0
M  V30 8754 C 819.334 -0.428778 -1.57052 0
M  V30 8755 O 820.523 -0.697612 -1.64303 0
M  V30 8756 C 817.623 -1.41438 -3.07975 0
M  V30 8757 C 816.796 -2.66974 -3.46474 0
M  V30 8758 C 815.855 -2.48349 -4.63906 0
M  V30 8759 O 814.881 -3.22109 -4.69292 0
M  V30 8760 N 816.083 -1.55129 -5.59388 0
M  V30 8761 H 818.848 -2.50971 -1.6381 0
M  V30 8762 H 816.409 -1.42981 -0.759479 0
M  V30 8763 H 818.401 -1.26737 -3.84343 0
M  V30 8764 H 816.971 -0.527388 -3.08119 0
M  V30 8765 H 816.191 -2.9655 -2.59715 0
M  V30 8766 H 817.479 -3.50347 -3.68964 0
M  V30 8767 H 816.877 -0.94324 -5.57781 0
M  V30 8768 H 815.434 -1.46387 -6.35149 0
M  V30 8769 N 818.867 0.818669 -1.34668 0
M  V30 8770 C 819.83 1.9114 -1.26483 0
M  V30 8771 C 820.83 1.598 -0.179044 0
M  V30 8772 O 822.02 1.6876 -0.431952 0
M  V30 8773 C 819.152 3.27285 -0.95381 0
M  V30 8774 H 820.345 1.9982 -2.23634 0
M  V30 8775 H 817.898 1.01314 -1.19018 0
M  V30 8776 H 818.633 3.24297 0.0143428 0
M  V30 8777 H 818.418 3.51416 -1.73924 0
M  V30 8778 H 819.908 4.07299 -0.921827 0
M  V30 8779 N 820.346 1.18468 1.03938 0
M  V30 8780 C 821.571 1.00638 1.81347 0
M  V30 8781 C 821.996 -0.440477 1.8287 0
M  V30 8782 O 821.354 -1.31609 1.24695 0
M  V30 8783 C 821.402 1.5673 3.24759 0
M  V30 8784 O 820.506 0.789517 4.04772 0
M  V30 8785 H 819.847 0.356432 0.560225 0
M  V30 8786 H 822.377 1.57253 1.30891 0
M  V30 8787 H 822.387 1.59496 3.75533 0
M  V30 8788 H 821.062 2.62043 3.22965 0
M  V30 8789 H 819.639 0.834267 3.63448 0
M  V30 8790 N 821.824 -1.22873 0.986916 0
M  V30 8791 C 822.787 -2.2281 0.537442 0
M  V30 8792 C 823.787 -1.56331 -0.37646 0
M  V30 8793 O 824.977 -1.73376 -0.169247 0
M  V30 8794 C 822.109 -3.40195 -0.219082 0
M  V30 8795 H 823.302 -2.64089 1.42116 0
M  V30 8796 H 820.855 -1.35819 0.773488 0
M  V30 8797 H 821.59 -3.04381 -1.11905 0
M  V30 8798 H 821.375 -3.89657 0.437026 0
M  V30 8799 H 822.865 -4.14326 -0.521926 0
M  V30 8800 N 823.302 -0.75937 -1.38099 0
M  V30 8801 C 824.579 -0.243371 -1.9408 0
M  V30 8802 C 824.959 1.25942 -1.69416 0
M  V30 8803 O 824.307 2.03667 -1.03595 0
M  V30 8804 C 824.517 -0.603328 -3.43745 0
M  V30 8805 C 825.865 -0.566195 -4.20808 0
M  V30 8806 O 826.889 -0.541969 -3.52053 0
M  V30 8807 O 825.748 -0.582261 -5.43389 0
M  V30 8808 H 822.842 -0.0526825 -0.82532 0
M  V30 8809 H 825.388 -0.839884 -1.47459 0
M  V30 8810 H 824.16 -1.64098 -3.55229 0
M  V30 8811 H 823.783 0.0208887 -3.97595 0
M  V30 8812 N 824.78 1.49157 -0.508906 0
M  V30 8813 C 825.69 2.33045 0.269656 0
M  V30 8814 C 826.706 1.45143 0.959662 0
M  V30 8815 O 827.882 1.78155 0.939295 0
M  V30 8816 C 824.947 3.20772 1.31554 0
M  V30 8817 C 824.008 4.24531 0.638131 0
M  V30 8818 C 823.241 5.08065 1.63418 0
M  V30 8819 O 823.464 4.93238 2.86483 0
M  V30 8820 O 822.398 5.90117 1.18516 0
M  V30 8821 H 826.224 3.00821 -0.417183 0
M  V30 8822 H 823.809 1.46938 -0.270119 0
M  V30 8823 H 825.691 3.75095 1.92047 0
M  V30 8824 H 824.366 2.55681 1.98516 0
M  V30 8825 H 823.273 3.74099 -0.00674357 0
M  V30 8826 H 824.606 4.92199 0.0108155 0
M  V30 8827 N 826.258 0.243083 1.55714 0
M  V30 8828 C 827.504 -0.383287 1.99145 0
M  V30 8829 C 827.837 -1.57868 1.13098 0
M  V30 8830 O 827.112 -1.93535 0.193509 0
M  V30 8831 C 827.395 -0.796879 3.51172 0
M  V30 8832 C 827.248 0.403642 4.47985 0
M  V30 8833 C 828.567 -1.64525 4.08191 0
M  V30 8834 H 825.686 -0.137843 0.723995 0
M  V30 8835 H 828.328 0.343631 1.86867 0
M  V30 8836 H 826.478 -1.41625 3.61766 0
M  V30 8837 H 828.15 1.04204 4.49376 0
M  V30 8838 H 826.393 1.04741 4.20965 0
M  V30 8839 H 827.064 0.0709794 5.51954 0
M  V30 8840 H 829.54 -1.12246 4.00674 0
M  V30 8841 H 828.416 -1.9035 5.14838 0
M  V30 8842 H 828.677 -2.61582 3.56409 0
M  V30 8843 N 827.736 -1.57571 -0.0300757 0
M  V30 8844 C 828.683 -2.06492 -1.03101 0
M  V30 8845 C 829.653 -0.953862 -1.3598 0
M  V30 8846 O 830.838 -1.22436 -1.46335 0
M  V30 8847 C 827.978 -2.54826 -2.32718 0
M  V30 8848 C 827.091 -3.79718 -2.06006 0
M  V30 8849 C 826.226 -4.16668 -3.29487 0
M  V30 8850 C 825.265 -5.3448 -2.98324 0
M  V30 8851 N 824.402 -5.66867 -4.14254 0
M  V30 8852 H 829.242 -2.91755 -0.606877 0
M  V30 8853 H 826.779 -1.44252 -0.288038 0
M  V30 8854 H 828.737 -2.80916 -3.08451 0
M  V30 8855 H 827.367 -1.72481 -2.72856 0
M  V30 8856 H 826.419 -3.60718 -1.20774 0
M  V30 8857 H 827.731 -4.65569 -1.79017 0
M  V30 8858 H 826.885 -4.43881 -4.13588 0
M  V30 8859 H 825.624 -3.29466 -3.59588 0
M  V30 8860 H 824.629 -5.07021 -2.12625 0
M  V30 8861 H 825.854 -6.23334 -2.69502 0
M  V30 8862 H 823.8 -4.82625 -4.44308 0
M  V30 8863 H 823.717 -6.47226 -3.90685 0
M  V30 8864 H 824.985 -5.98656 -4.99231 0
M  V30 8865 N 829.214 0.302327 -1.54673 0
M  V30 8866 C 830.462 1.03565 -1.73547 0
M  V30 8867 C 830.783 1.87843 -0.523448 0
M  V30 8868 O 830.053 1.90367 0.462295 0
M  V30 8869 H 828.633 0.385358 -0.639928 0
M  V30 8870 H 831.295 0.333632 -1.92023 0
M  V30 8871 H 830.391 1.68952 -2.62415 0
M  V30 8872 N 830.692 1.47107 0.565454 0
M  V30 8873 C 831.938 1.53535 1.32495 0
M  V30 8874 C 832.271 0.193537 1.93233 0
M  V30 8875 O 831.546 -0.796956 1.77423 0
M  V30 8876 C 831.829 2.64712 2.4413 0
M  V30 8877 C 831.682 4.08482 1.88314 0
M  V30 8878 C 833.001 2.71853 3.46098 0
M  V30 8879 H 830.12 0.558926 0.480386 0
M  V30 8880 H 832.762 1.79125 0.633575 0
M  V30 8881 H 830.912 2.43023 3.03104 0
M  V30 8882 H 832.584 4.4151 1.33665 0
M  V30 8883 H 830.827 4.17148 1.19037 0
M  V30 8884 H 831.498 4.82032 2.68978 0
M  V30 8885 H 833.974 2.91397 2.97031 0
M  V30 8886 H 832.85 3.51433 4.21646 0
M  V30 8887 H 833.111 1.78584 4.04426 0
M  V30 8888 N 832.17 -0.811516 1.35101 0
M  V30 8889 C 833.586 -1.10634 1.15031 0
M  V30 8890 C 833.786 -2.01459 -0.0405379 0
M  V30 8891 O 832.842 -2.42235 -0.712635 0
M  V30 8892 C 834.155 -1.74207 2.45097 0
M  V30 8893 C 835.703 -1.8665 2.51258 0
M  V30 8894 C 836.178 -2.53638 3.81355 0
M  V30 8895 N 837.669 -2.61128 3.82579 0
M  V30 8896 C 838.404 -3.13717 4.79968 0
M  V30 8897 N 837.9 -3.66782 5.87744 0
M  V30 8898 N 839.693 -3.12224 4.67411 0
M  V30 8899 H 831.844 -0.207641 2.11383 0
M  V30 8900 H 834.107 -0.154697 0.935293 0
M  V30 8901 H 833.813 -1.14936 3.32389 0
M  V30 8902 H 833.687 -2.73958 2.59281 0
M  V30 8903 H 836.074 -2.45066 1.64398 0
M  V30 8904 H 836.155 -0.857678 2.40993 0
M  V30 8905 H 835.799 -1.95873 4.68611 0
M  V30 8906 H 835.729 -3.55047 3.88907 0
M  V30 8907 H 838.22 -2.23527 3.04703 0
M  V30 8908 H 838.533 -4.05194 6.58056 0
M  V30 8909 H 836.878 -3.64994 5.91443 0
M  V30 8910 H 840.069 -2.70042 3.82354 0
M  V30 8911 H 840.242 -3.52903 5.43474 0
M  V30 8912 N 833.648 -1.19017 -1.03309 0
M  V30 8913 C 834.878 -1.01387 -1.80012 0
M  V30 8914 C 835.286 0.440655 -1.83997 0
M  V30 8915 O 834.629 1.31786 -1.27977 0
M  V30 8916 C 834.691 -1.50171 -3.26633 0
M  V30 8917 C 834.355 -2.98213 -3.46292 0
M  V30 8918 C 835.352 -3.96009 -3.36857 0
M  V30 8919 C 833.037 -3.36812 -3.72643 0
M  V30 8920 C 835.031 -5.30399 -3.5349 0
M  V30 8921 C 832.718 -4.71363 -3.88922 0
M  V30 8922 C 833.716 -5.67966 -3.79347 0
M  V30 8923 O 833.404 -7.00079 -3.95151 0
M  V30 8924 H 833.136 -0.357899 -0.573484 0
M  V30 8925 H 835.69 -1.58171 -1.31039 0
M  V30 8926 H 833.92 -0.877586 -3.7661 0
M  V30 8927 H 835.609 -1.28814 -3.84918 0
M  V30 8928 H 836.375 -3.67534 -3.16455 0
M  V30 8929 H 832.254 -2.62175 -3.7919 0
M  V30 8930 H 835.798 -6.05786 -3.45933 0
M  V30 8931 H 831.695 -4.99536 -4.0882 0
M  V30 8932 H 832.463 -7.07092 -4.12266 0
M  V30 8933 N 835.127 1.22348 -0.993418 0
M  V30 8934 C 836.352 1.95666 -0.687727 0
M  V30 8935 C 836.777 1.72883 0.741161 0
M  V30 8936 O 836.135 1.00837 1.50671 0
M  V30 8937 C 836.183 3.46457 -0.99998 0
M  V30 8938 O 835.287 4.12281 -0.0989386 0
M  V30 8939 H 834.628 0.612102 -0.257346 0
M  V30 8940 H 837.158 1.55428 -1.33054 0
M  V30 8941 H 837.168 3.96976 -0.942035 0
M  V30 8942 H 835.843 3.62365 -2.04118 0
M  V30 8943 H 834.42 3.72295 -0.212413 0
M  V30 8944 N 836.605 0.766683 1.37694 0
M  V30 8945 C 837.851 0.329201 2.0011 0
M  V30 8946 C 838.184 -1.09004 1.60723 0
M  V30 8947 O 837.459 -1.74895 0.850989 0
M  V30 8948 C 837.742 0.466989 3.57059 0
M  V30 8949 C 837.595 1.92828 4.06371 0
M  V30 8950 C 838.914 -0.131792 4.39903 0
M  V30 8951 H 836.033 0.12109 0.726984 0
M  V30 8952 H 838.675 0.968779 1.63446 0
M  V30 8953 H 836.825 -0.0775023 3.88423 0
M  V30 8954 H 838.497 2.53208 3.85595 0
M  V30 8955 H 836.74 2.43884 3.58752 0
M  V30 8956 H 837.411 1.97577 5.15429 0
M  V30 8957 H 839.887 0.332731 4.14768 0
M  V30 8958 H 838.763 -0.005217 5.489 0
M  V30 8959 H 839.024 -1.22156 4.24889 0
M  V30 8960 N 838.083 -1.48885 0.516809 0
M  V30 8961 C 839.33 -2.02488 -0.0220602 0
M  V30 8962 C 839.658 -1.39513 -1.35523 0
M  V30 8963 O 838.913 -0.52558 -1.8851 0
M  V30 8964 C 839.212 -3.56801 -0.206798 0
M  V30 8965 C 838.878 -4.38496 1.05035 0
M  V30 8966 C 837.54 -4.60538 1.39492 0
M  V30 8967 C 839.892 -4.85909 1.88525 0
M  V30 8968 C 837.22 -5.2724 2.57361 0
M  V30 8969 C 839.572 -5.53909 3.05561 0
M  V30 8970 C 838.236 -5.74193 3.4038 0
M  V30 8971 H 837.506 -0.740956 -0.00807238 0
M  V30 8972 H 840.153 -1.79014 0.680168 0
M  V30 8973 H 838.458 -3.79042 -0.991687 0
M  V30 8974 H 840.155 -3.95885 -0.638447 0
M  V30 8975 H 836.745 -4.2159 0.771984 0
M  V30 8976 H 840.929 -4.68694 1.63218 0
M  V30 8977 H 836.185 -5.41145 2.84556 0
M  V30 8978 H 840.359 -5.89619 3.7057 0
M  V30 8979 H 837.986 -6.25652 4.31814 0
M  V30 8980 N 839.561 -0.251338 -1.55583 0
M  V30 8981 C 840.809 0.371434 -1.98657 0
M  V30 8982 C 841.13 1.58143 -1.14087 0
M  V30 8983 O 840.4 1.94607 -0.224708 0
M  V30 8984 H 838.98 0.140225 -0.733721 0
M  V30 8985 H 841.642 -0.351157 -1.9171 0
M  V30 8986 H 840.738 0.677554 -3.04657 0
M  V30 8987 N 841.039 1.57585 0.0217189 0
M  V30 8988 C 842.279 1.91457 0.715803 0
M  V30 8989 C 842.643 0.850685 1.72126 0
M  V30 8990 O 843.844 1.07396 2.46413 0
M  V30 8991 C 842.115 3.30456 1.36138 0
M  V30 8992 S 843.674 3.86176 2.0836 0
M  V30 8993 H 840.492 0.67035 0.236963 0
M  V30 8994 H 843.094 1.95477 -0.0297511 0
M  V30 8995 H 841.798 4.05744 0.616465 0
M  V30 8996 H 841.329 3.29757 2.14532 0
M  V30 8997 H 843.344 3.65496 3.356 0
M  V30 8998 N 842.517 -0.29412 1.54831 0
M  V30 8999 C 843.765 -1.02643 1.74094 0
M  V30 9000 C 844.086 -1.87563 0.533402 0
M  V30 9001 O 843.356 -1.9061 -0.452192 0
M  V30 9002 H 841.936 -0.381959 0.641963 0
M  V30 9003 H 844.598 -0.323444 1.92197 0
M  V30 9004 H 843.694 -1.67558 2.63307 0
M  V30 9005 N 843.995 -1.47404 -0.557645 0
M  V30 9006 C 845.272 -1.44488 -1.31843 0
M  V30 9007 C 845.652 -0.1416 -2.10625 0
M  V30 9008 O 845 0.876908 -2.11004 0
M  V30 9009 C 845.21 -2.69016 -2.22331 0
M  V30 9010 C 846.558 -3.16212 -2.83364 0
M  V30 9011 O 847.582 -2.69741 -2.32634 0
M  V30 9012 O 846.441 -3.96999 -3.75571 0
M  V30 9013 H 843.535 -0.57578 -0.593639 0
M  V30 9014 H 846.081 -1.59605 -0.576584 0
M  V30 9015 H 844.853 -3.55406 -1.63715 0
M  V30 9016 H 844.476 -2.56484 -3.03812 0
M  V30 9017 N 845.473 0.80434 -1.35529 0
M  V30 9018 C 846.42 1.91629 -1.28635 0
M  V30 9019 C 847.39 1.65348 -0.157862 0
M  V30 9020 O 848.575 1.87711 -0.341934 0
M  V30 9021 C 845.715 3.28207 -1.0665 0
M  V30 9022 C 844.828 3.66659 -2.28441 0
M  V30 9023 C 843.963 4.92279 -1.99588 0
M  V30 9024 C 843.002 5.23365 -3.1742 0
M  V30 9025 N 842.139 6.40165 -2.88328 0
M  V30 9026 H 846.979 1.96858 -2.23721 0
M  V30 9027 H 844.516 0.962871 -1.11208 0
M  V30 9028 H 846.474 4.06945 -0.919343 0
M  V30 9029 H 845.104 3.22441 -0.152253 0
M  V30 9030 H 844.156 2.83164 -2.54013 0
M  V30 9031 H 845.468 3.8559 -3.1642 0
M  V30 9032 H 844.622 5.78847 -1.81715 0
M  V30 9033 H 843.361 4.75387 -1.08896 0
M  V30 9034 H 842.366 4.35285 -3.35867 0
M  V30 9035 H 843.591 5.42185 -4.08916 0
M  V30 9036 H 841.537 6.24694 -2.00233 0
M  V30 9037 H 841.454 6.59357 -3.69843 0
M  V30 9038 H 842.722 7.29755 -2.74002 0
M  V30 9039 N 846.951 1.19563 1.02676 0
M  V30 9040 C 847.899 0.931942 2.13114 0
M  V30 9041 C 848.893 -0.113007 1.69023 0
M  V30 9042 O 850.099 0.0364298 1.79963 0
M  V30 9043 H 846.474 0.283981 0.696318 0
M  V30 9044 H 848.445 1.86991 2.32545 0
M  V30 9045 C 847.194 0.489461 3.44238 0
M  V30 9046 H 846.517 1.28508 3.78584 0
M  V30 9047 H 847.957 0.34408 4.22602 0
M  V30 9048 C 846.416 -0.796761 3.27343 0
M  V30 9049 O 846.946 -1.85767 3.56165 0
M  V30 9050 N 845.152 -0.754824 2.80626 0
M  V30 9051 H 844.699 0.108778 2.5737 0
M  V30 9052 H 844.657 -1.6158 2.69702 0
M  V30 9053 N 848.429 -1.21819 0.999893 0
M  V30 9054 C 849.675 -1.91325 0.690373 0
M  V30 9055 C 850.03 -1.76323 -0.769929 0
M  V30 9056 O 849.323 -1.12585 -1.55033 0
M  V30 9057 C 849.517 -3.4193 1.04012 0
M  V30 9058 C 849.346 -3.71585 2.53287 0
M  V30 9059 C 848.116 -3.91219 3.19806 0
M  V30 9060 C 850.314 -3.75502 3.5143 0
M  V30 9061 N 848.296 -4.08246 4.58485 0
M  V30 9062 C 849.667 -3.97753 4.75597 0
M  V30 9063 C 851.722 -3.58383 3.45638 0
M  V30 9064 C 850.425 -4.04662 5.94677 0
M  V30 9065 C 852.451 -3.66555 4.64103 0
M  V30 9066 C 851.813 -3.89263 5.87072 0
M  V30 9067 H 847.912 -0.720484 0.304018 0
M  V30 9068 H 850.496 -1.46595 1.28133 0
M  V30 9069 H 848.667 -3.85452 0.477671 0
M  V30 9070 H 850.399 -3.98846 0.685864 0
M  V30 9071 H 847.154 -3.88917 2.7026 0
M  V30 9072 H 847.578 -4.20673 5.30437 0
M  V30 9073 H 852.22 -3.39807 2.51576 0
M  V30 9074 H 849.938 -4.22039 6.89136 0
M  V30 9075 H 853.524 -3.54639 4.61218 0
M  V30 9076 H 852.404 -3.95424 6.77207 0
M  V30 9077 N 849.908 -0.773975 -1.37286 0
M  V30 9078 C 850.871 -0.167974 -2.28584 0
M  V30 9079 C 851.871 0.625662 -1.48129 0
M  V30 9080 O 853.061 0.448924 -1.68316 0
M  V30 9081 C 850.193 0.769364 -3.32105 0
M  V30 9082 H 851.386 -0.972806 -2.83684 0
M  V30 9083 H 848.939 -0.542335 -1.46589 0
M  V30 9084 H 849.674 1.59912 -2.82132 0
M  V30 9085 H 849.459 0.202419 -3.91577 0
M  V30 9086 H 850.949 1.18872 -4.00324 0
M  V30 9087 N 851.386 1.48609 -0.524698 0
M  V30 9088 C 852.614 2.06899 0.00742946 0
M  V30 9089 C 853.029 1.38196 1.28637 0
M  V30 9090 O 852.386 0.467771 1.76403 0
M  V30 9091 C 852.437 3.60699 0.240548 0
M  V30 9092 O 852.158 4.26821 -0.987715 0
M  V30 9093 C 853.659 4.35769 0.813652 0
M  V30 9094 H 850.879 0.670278 -0.0311294 0
M  V30 9095 H 853.423 1.91071 -0.728832 0
M  V30 9096 H 851.578 3.76149 0.926845 0
M  V30 9097 H 851.992 5.18889 -0.765175 0
M  V30 9098 H 853.466 5.44174 0.926219 0
M  V30 9099 H 853.943 3.9984 1.81728 0
M  V30 9100 H 854.549 4.24983 0.164086 0
M  V30 9101 N 852.864 0.259585 1.55447 0
M  V30 9102 C 854.092 -0.365392 2.03648 0
M  V30 9103 C 854.507 -1.50613 1.13847 0
M  V30 9104 O 853.864 -1.81837 0.155414 0
M  V30 9105 C 853.915 -0.861172 3.51093 0
M  V30 9106 O 853.636 0.234121 4.37474 0
M  V30 9107 C 855.137 -1.55555 4.15111 0
M  V30 9108 H 852.357 -0.0853439 0.66555 0
M  V30 9109 H 854.901 0.387151 2.00802 0
M  V30 9110 H 853.056 -1.56385 3.54433 0
M  V30 9111 H 853.47 -0.1444 5.24301 0
M  V30 9112 H 854.944 -1.85403 5.19932 0
M  V30 9113 H 855.421 -2.48185 3.62355 0
M  V30 9114 H 856.027 -0.89712 4.15731 0
M  V30 9115 N 854.342 -1.57594 -0.0133615 0
M  V30 9116 C 855.572 -1.93969 -0.711295 0
M  V30 9117 C 855.98 -0.859084 -1.68572 0
M  V30 9118 O 855.323 0.171842 -1.82894 0
M  V30 9119 C 855.385 -3.2625 -1.51001 0
M  V30 9120 C 855.049 -4.51628 -0.698645 0
M  V30 9121 C 856.046 -5.19899 0.00791185 0
M  V30 9122 C 853.731 -4.98095 -0.648553 0
M  V30 9123 C 855.725 -6.32928 0.753691 0
M  V30 9124 C 853.412 -6.11017 0.10096 0
M  V30 9125 C 854.41 -6.78289 0.800828 0
M  V30 9126 O 854.098 -7.89048 1.53814 0
M  V30 9127 H 853.83 -0.6445 -0.203951 0
M  V30 9128 H 856.384 -2.05378 0.0298267 0
M  V30 9129 H 854.614 -3.11211 -2.29531 0
M  V30 9130 H 856.303 -3.47835 -2.09202 0
M  V30 9131 H 857.069 -4.84995 -0.0217192 0
M  V30 9132 H 852.948 -4.45568 -1.18282 0
M  V30 9133 H 856.492 -6.85371 1.3005 0
M  V30 9134 H 852.389 -6.45364 0.132459 0
M  V30 9135 H 853.157 -8.05492 1.45345 0
M  V30 9136 N 855.82 0.285905 -1.54985 0
M  V30 9137 C 856.752 1.37505 -1.83371 0
M  V30 9138 C 857.765 1.46138 -0.717454 0
M  V30 9139 O 858.954 1.48186 -0.995142 0
M  V30 9140 C 856.054 2.7575 -1.97016 0
M  V30 9141 C 855.227 2.89866 -3.27561 0
M  V30 9142 C 854.286 4.08704 -3.31433 0
M  V30 9143 O 853.312 4.00073 -4.04883 0
M  V30 9144 N 854.514 5.20062 -2.57907 0
M  V30 9145 H 857.279 1.13505 -2.77375 0
M  V30 9146 H 854.84 0.476006 -1.54744 0
M  V30 9147 H 856.832 3.5352 -1.96991 0
M  V30 9148 H 855.402 2.9263 -1.09938 0
M  V30 9149 H 854.622 1.99085 -3.40234 0
M  V30 9150 H 855.91 2.96219 -4.13681 0
M  V30 9151 H 855.308 5.29958 -1.97891 0
M  V30 9152 H 853.865 5.96111 -2.63619 0
M  V30 9153 N 857.298 1.47698 0.54982 0
M  V30 9154 C 858.245 1.60739 1.65625 0
M  V30 9155 C 859.215 0.450129 1.59884 0
M  V30 9156 O 860.4 0.671123 1.78607 0
M  V30 9157 C 857.54 1.63457 3.03934 0
M  V30 9158 C 856.653 2.90152 3.20056 0
M  V30 9159 C 855.788 2.84157 4.48807 0
M  V30 9160 C 854.827 4.05644 4.58387 0
M  V30 9161 N 853.964 3.97843 5.78503 0
M  V30 9162 H 858.804 2.55234 1.53817 0
M  V30 9163 H 856.341 1.26593 0.749173 0
M  V30 9164 H 858.299 1.63015 3.84034 0
M  V30 9165 H 856.929 0.724689 3.1456 0
M  V30 9166 H 855.981 3.00428 2.33339 0
M  V30 9167 H 857.293 3.80097 3.22998 0
M  V30 9168 H 856.447 2.82006 5.37175 0
M  V30 9169 H 855.186 1.91908 4.48356 0
M  V30 9170 H 854.191 4.08092 3.6843 0
M  V30 9171 H 855.416 4.9903 4.60593 0
M  V30 9172 H 853.362 3.08401 5.78986 0
M  V30 9173 H 853.279 4.81473 5.82855 0
M  V30 9174 H 854.547 3.99719 6.69212 0
M  V30 9175 N 858.776 -0.797141 1.35954 0
M  V30 9176 C 860.022 -1.55698 1.29946 0
M  V30 9177 C 860.355 -1.93808 -0.123259 0
M  V30 9178 O 859.63 -1.62102 -1.07486 0
M  V30 9179 C 859.913 -2.83926 2.2149 0
M  V30 9180 C 859.766 -2.52232 3.72423 0
M  V30 9181 C 861.085 -3.85698 2.11955 0
M  V30 9182 H 858.204 -0.56488 0.47337 0
M  V30 9183 H 860.846 -0.916421 1.66438 0
M  V30 9184 H 858.996 -3.38588 1.905 0
M  V30 9185 H 860.668 -2.0368 4.13899 0
M  V30 9186 H 858.911 -1.85286 3.92239 0
M  V30 9187 H 859.582 -3.43782 4.31877 0
M  V30 9188 H 862.058 -3.40462 2.39218 0
M  V30 9189 H 860.934 -4.73182 2.78191 0
M  V30 9190 H 861.195 -4.28083 1.10442 0
M  V30 9191 N 860.254 -1.20106 -1.0204 0
M  V30 9192 C 861.665 -1.00992 -1.57027 0
M  V30 9193 C 862.016 0.434782 -1.91322 0
M  V30 9194 O 861.141 1.31557 -1.71819 0
M  V30 9195 C 861.736 -1.82697 -2.85319 0
M  V30 9196 C 860.295 -1.67959 -3.36848 0
M  V30 9197 C 859.442 -1.80868 -2.10195 0
M  V30 9198 H 862.393 -1.34354 -0.844676 0
M  V30 9199 H 862.414 -1.32809 -3.5657 0
M  V30 9200 H 861.926 -2.87839 -2.60328 0
M  V30 9201 H 860.027 -0.654389 -3.66809 0
M  V30 9202 H 860.14 -2.49006 -4.09308 0
M  V30 9203 H 858.504 -1.24015 -2.22469 0
M  V30 9204 H 859.287 -2.87486 -1.87635 0
M  V30 9205 N 861.732 1.21287 -1.00634 0
M  V30 9206 C 862.695 2.21927 -0.572821 0
M  V30 9207 C 863.695 1.5691 0.351541 0
M  V30 9208 O 864.885 1.73623 0.141643 0
M  V30 9209 C 862.017 3.40501 0.164932 0
M  V30 9210 H 863.21 2.61795 -1.463 0
M  V30 9211 H 860.763 1.34571 -0.794998 0
M  V30 9212 H 861.498 3.06123 1.07049 0
M  V30 9213 H 861.283 3.88912 -0.498962 0
M  V30 9214 H 862.773 4.15103 0.455945 0
M  V30 9215 N 863.21 0.781244 1.36873 0
M  V30 9216 C 864.457 0.349889 1.99454 0
M  V30 9217 C 864.785 -1.07621 1.62013 0
M  V30 9218 O 864.04 -1.75665 0.86258 0
M  V30 9219 C 864.339 0.45146 3.54537 0
M  V30 9220 C 864.005 1.83718 4.11775 0
M  V30 9221 C 862.667 2.21634 4.2712 0
M  V30 9222 C 865.019 2.7449 4.43063 0
M  V30 9223 C 862.347 3.49742 4.7106 0
M  V30 9224 C 864.699 4.02017 4.88431 0
M  V30 9225 C 863.363 4.39967 5.01982 0
M  V30 9226 H 862.633 0.128033 0.729855 0
M  V30 9227 H 865.28 0.997117 1.63493 0
M  V30 9228 H 863.585 -0.279288 3.90803 0
M  V30 9229 H 865.282 0.0988609 4.00878 0
M  V30 9230 H 861.872 1.53251 4.00265 0
M  V30 9231 H 866.056 2.46453 4.30783 0
M  V30 9232 H 861.312 3.79026 4.79738 0
M  V30 9233 H 865.486 4.72475 5.11605 0
M  V30 9234 H 863.113 5.39291 5.35788 0
M  V30 9235 N 864.689 -1.48329 0.532571 0
M  V30 9236 C 865.938 -2.017 -0.00259705 0
M  V30 9237 C 866.251 -1.41469 -1.35077 0
M  V30 9238 O 867.457 -1.86354 -1.97445 0
M  V30 9239 C 865.913 -3.59858 -0.0550179 0
M  V30 9240 C 865.521 -4.29073 1.28842 0
M  V30 9241 C 867.265 -4.21066 -0.538878 0
M  V30 9242 C 865.172 -5.79171 1.19644 0
M  V30 9243 H 864.102 -0.753985 -0.00474081 0
M  V30 9244 H 866.753 -1.70565 0.676739 0
M  V30 9245 H 865.135 -3.87846 -0.799486 0
M  V30 9246 H 866.309 -4.12755 2.04865 0
M  V30 9247 H 864.624 -3.79748 1.70822 0
M  V30 9248 H 867.221 -5.31026 -0.6257 0
M  V30 9249 H 867.564 -3.86559 -1.54525 0
M  V30 9250 H 868.097 -3.97517 0.149984 0
M  V30 9251 H 864.836 -6.18257 2.17805 0
M  V30 9252 H 864.356 -5.97895 0.477609 0
M  V30 9253 H 866.035 -6.40875 0.888186 0
M  V30 9254 N 866.167 -0.267825 -1.55308 0
M  V30 9255 C 867.444 0.402449 -1.91415 0
M  V30 9256 C 867.824 1.7428 -1.1912 0
M  V30 9257 O 867.172 2.2631 -0.315609 0
M  V30 9258 C 867.382 0.549926 -3.4464 0
M  V30 9259 C 868.73 0.836188 -4.16285 0
M  V30 9260 O 869.754 0.635009 -3.50494 0
M  V30 9261 O 868.613 1.22051 -5.32697 0
M  V30 9262 H 865.707 0.219177 -0.797427 0
M  V30 9263 H 868.253 -0.313439 -1.6678 0
M  V30 9264 H 867.025 -0.393641 -3.89315 0
M  V30 9265 H 866.648 1.31556 -3.75205 0
M  V30 9266 N 867.645 1.57599 0.00500368 0
M  V30 9267 C 868.555 2.11532 1.01446 0
M  V30 9268 C 869.571 1.05941 1.3803 0
M  V30 9269 O 870.747 1.37815 1.46864 0
M  V30 9270 C 867.812 2.60382 2.28915 0
M  V30 9271 C 866.873 3.80554 1.98689 0
M  V30 9272 C 866.106 4.27064 3.20081 0
M  V30 9273 O 866.329 3.72939 4.31593 0
M  V30 9274 O 865.263 5.1927 3.04371 0
M  V30 9275 H 869.089 2.97993 0.586011 0
M  V30 9276 H 866.674 1.47718 0.223519 0
M  V30 9277 H 868.556 2.92024 3.03809 0
M  V30 9278 H 867.231 1.77022 2.71007 0
M  V30 9279 H 866.138 3.53893 1.21286 0
M  V30 9280 H 867.471 4.64972 1.61437 0
M  V30 9281 N 869.123 -0.277682 1.55134 0
M  V30 9282 C 870.351 -1.02826 1.7954 0
M  V30 9283 C 870.766 -1.80105 0.566373 0
M  V30 9284 O 870.123 -1.76491 -0.464448 0
M  V30 9285 C 870.174 -1.99053 3.01762 0
M  V30 9286 O 869.895 -1.24906 4.19917 0
M  V30 9287 C 871.396 -2.85961 3.38735 0
M  V30 9288 H 868.616 -0.303958 0.598206 0
M  V30 9289 H 871.16 -0.309884 2.02138 0
M  V30 9290 H 869.315 -2.66359 2.81303 0
M  V30 9291 H 869.729 -1.89725 4.88983 0
M  V30 9292 H 871.203 -3.49286 4.27438 0
M  V30 9293 H 871.68 -3.55486 2.57928 0
M  V30 9294 H 872.286 -2.24152 3.61436 0
M  V30 9295 N 870.601 -1.47988 -0.541979 0
M  V30 9296 C 871.531 -1.64503 -1.65713 0
M  V30 9297 C 872.512 -0.494116 -1.62765 0
M  V30 9298 O 873.697 -0.725256 -1.80149 0
M  V30 9299 C 870.827 -1.67337 -3.04328 0
M  V30 9300 C 869.781 -2.81809 -3.2213 0
M  V30 9301 C 869.107 -2.69724 -4.61685 0
M  V30 9302 C 870.407 -4.23241 -3.06046 0
M  V30 9303 H 872.101 -2.5786 -1.52147 0
M  V30 9304 H 869.647 -1.24094 -0.730529 0
M  V30 9305 H 871.6 -1.77481 -3.82202 0
M  V30 9306 H 870.324 -0.705514 -3.18889 0
M  V30 9307 H 868.983 -2.71201 -2.46669 0
M  V30 9308 H 868.631 -1.70934 -4.73065 0
M  V30 9309 H 868.331 -3.4653 -4.74543 0
M  V30 9310 H 869.855 -2.81818 -5.41674 0
M  V30 9311 H 871.269 -4.34746 -3.73723 0
M  V30 9312 H 869.666 -5.00952 -3.30405 0
M  V30 9313 H 870.736 -4.40543 -2.02609 0
M  V30 9314 N 872.079 0.78992 -1.36375 0
M  V30 9315 C 873.042 1.88414 -1.30509 0
M  V30 9316 C 874.042 1.59384 -0.2129 0
M  V30 9317 O 875.232 1.67805 -0.467651 0
M  V30 9318 C 872.364 3.25188 -1.02302 0
M  V30 9319 H 873.557 1.95031 -2.27822 0
M  V30 9320 H 871.11 0.987664 -1.2114 0
M  V30 9321 H 871.845 3.24254 -0.0544486 0
M  V30 9322 H 871.63 3.47647 -1.81338 0
M  V30 9323 H 873.12 4.05252 -1.00801 0
M  V30 9324 N 873.557 1.20646 1.01402 0
M  V30 9325 C 874.52 0.959314 2.08158 0
M  V30 9326 C 875.52 -0.0661558 1.60664 0
M  V30 9327 O 876.71 0.170177 1.73367 0
M  V30 9328 C 873.842 0.444785 3.37986 0
M  V30 9329 H 875.035 1.90631 2.31517 0
M  V30 9330 H 872.588 1.02219 1.18241 0
M  V30 9331 H 873.323 -0.507553 3.20304 0
M  V30 9332 H 873.108 1.18435 3.73785 0
M  V30 9333 H 874.598 0.291443 4.16582 0
M  V30 9334 N 875.035 -1.20752 1.01276 0
M  V30 9335 C 875.982 -2.234 0.579732 0
M  V30 9336 C 876.952 -1.61256 -0.398206 0
M  V30 9337 O 878.137 -1.8845 -0.29851 0
M  V30 9338 C 875.277 -3.45008 -0.0797006 0
M  V30 9339 C 874.39 -4.21597 0.942343 0
M  V30 9340 C 873.525 -5.30591 0.254364 0
M  V30 9341 C 872.564 -5.98919 1.26343 0
M  V30 9342 N 871.701 -6.99511 0.602384 0
M  V30 9343 H 876.541 -2.59801 1.45971 0
M  V30 9344 H 874.078 -1.27663 0.730787 0
M  V30 9345 H 876.036 -4.1444 -0.479125 0
M  V30 9346 H 874.666 -3.09312 -0.923354 0
M  V30 9347 H 873.718 -3.51268 1.45996 0
M  V30 9348 H 875.03 -4.68576 1.70992 0
M  V30 9349 H 874.184 -6.06368 -0.200763 0
M  V30 9350 H 872.923 -4.84639 -0.545553 0
M  V30 9351 H 871.928 -5.21906 1.72898 0
M  V30 9352 H 873.153 -6.46957 2.06456 0
M  V30 9353 H 871.099 -6.55759 -0.177734 0
M  V30 9354 H 871.016 -7.44597 1.30809 0
M  V30 9355 H 872.284 -7.79313 0.17072 0
M  V30 9356 N 876.513 -0.788492 -1.36457 0
M  V30 9357 C 877.761 -0.359749 -1.98872 0
M  V30 9358 C 878.082 1.07197 -1.62892 0
M  V30 9359 O 877.352 1.73875 -0.902463 0
M  V30 9360 H 875.932 -0.130029 -0.735596 0
M  V30 9361 H 878.594 -1.01033 -1.66668 0
M  V30 9362 H 877.69 -0.450835 -3.08827 0
M  V30 9363 N 877.991 1.48044 -0.54043 0
M  V30 9364 C 878.954 2.28273 0.205966 0
M  V30 9365 C 879.954 1.35983 0.858209 0
M  V30 9366 O 881.144 1.58776 0.716651 0
M  V30 9367 C 878.276 3.15174 1.29917 0
M  V30 9368 H 879.469 2.95727 -0.498555 0
M  V30 9369 H 877.022 1.53457 -0.296745 0
M  V30 9370 H 877.757 2.52374 2.03661 0
M  V30 9371 H 877.542 3.83074 0.836475 0
M  V30 9372 H 879.032 3.75666 1.82387 0
M  V30 9373 N 879.47 0.276058 1.55163 0
M  V30 9374 C 880.38 -0.621066 2.2623 0
M  V30 9375 C 881.396 -1.16931 1.28853 0
M  V30 9376 O 882.572 -1.1994 1.61791 0
M  V30 9377 C 879.637 -1.78824 2.97023 0
M  V30 9378 C 878.698 -1.27657 4.09881 0
M  V30 9379 C 877.931 -2.38812 4.77289 0
M  V30 9380 O 878.154 -3.58188 4.43912 0
M  V30 9381 O 877.088 -2.06915 5.65217 0
M  V30 9382 H 880.914 -0.0453346 3.03666 0
M  V30 9383 H 878.499 0.0434275 1.49337 0
M  V30 9384 H 880.381 -2.46877 3.41511 0
M  V30 9385 H 879.056 -2.35104 2.22503 0
M  V30 9386 H 877.963 -0.56248 3.69847 0
M  V30 9387 H 879.296 -0.759509 4.86305 0
M  V30 9388 N 880.948 -1.576 0.00335426 0
M  V30 9389 C 881.896 -2.09759 -1.00517 0
M  V30 9390 C 882.89 -1.01833 -1.35375 0
M  V30 9391 O 884.096 -1.20294 -1.339 0
M  V30 9392 H 880.471 -0.669821 -0.341825 0
M  V30 9393 H 882.442 -2.93478 -0.539718 0
M  V30 9394 C 881.191 -2.6189 -2.28711 0
M  V30 9395 H 880.514 -3.44571 -2.02758 0
M  V30 9396 H 881.954 -3.02061 -2.97548 0
M  V30 9397 C 880.413 -1.53455 -2.99922 0
M  V30 9398 O 880.943 -0.919402 -3.91037 0
M  V30 9399 N 879.149 -1.2612 -2.61806 0
M  V30 9400 H 878.696 -1.76329 -1.87792 0
M  V30 9401 H 878.654 -0.537872 -3.09765 0
M  V30 9402 N 882.426 0.269451 -1.5528 0
M  V30 9403 C 883.675 0.998381 -1.75258 0
M  V30 9404 C 883.988 1.87321 -0.563034 0
M  V30 9405 O 885.194 2.63719 -0.645313 0
M  V30 9406 C 883.65 1.82505 -3.10193 0
M  V30 9407 C 883.258 0.99871 -4.36726 0
M  V30 9408 C 885.002 2.54807 -3.3952 0
M  V30 9409 C 882.909 1.81997 -5.627 0
M  V30 9410 H 881.839 0.376488 -0.653278 0
M  V30 9411 H 884.49 0.253909 -1.81735 0
M  V30 9412 H 882.872 2.61061 -2.97763 0
M  V30 9413 H 884.046 0.257064 -4.60082 0
M  V30 9414 H 882.361 0.390074 -4.14569 0
M  V30 9415 H 884.958 3.16662 -4.30847 0
M  V30 9416 H 885.301 3.25273 -2.59813 0
M  V30 9417 H 885.834 1.83278 -3.53064 0
M  V30 9418 H 882.573 1.15945 -6.45164 0
M  V30 9419 H 882.093 2.53749 -5.43481 0
M  V30 9420 H 883.772 2.39274 -6.0113 0
M  V30 9421 N 883.904 1.48273 0.534124 0
M  V30 9422 C 884.867 1.6201 1.62127 0
M  V30 9423 C 885.867 0.493653 1.53035 0
M  V30 9424 O 887.057 0.759337 1.56779 0
M  V30 9425 C 884.189 1.5864 3.01739 0
M  V30 9426 H 885.382 2.58944 1.51288 0
M  V30 9427 H 882.935 1.36808 0.755861 0
M  V30 9428 H 883.67 0.631685 3.18088 0
M  V30 9429 H 883.455 2.40415 3.09747 0
M  V30 9430 H 884.945 1.71438 3.80787 0
M  V30 9431 N 885.382 -0.782676 1.36792 0
M  V30 9432 C 886.659 -1.52939 1.21939 0
M  V30 9433 C 887.039 -2.10228 -0.191639 0
M  V30 9434 O 886.387 -1.94574 -1.19805 0
M  V30 9435 C 886.597 -2.61898 2.30674 0
M  V30 9436 C 887.945 -3.29598 2.67676 0
M  V30 9437 O 888.969 -2.72186 2.29768 0
M  V30 9438 O 887.828 -4.3337 3.32946 0
M  V30 9439 H 884.922 -0.676856 0.47518 0
M  V30 9440 H 887.468 -0.82058 1.48542 0
M  V30 9441 H 886.24 -2.17607 3.25212 0
M  V30 9442 H 885.863 -3.40391 2.05475 0
M  V30 9443 N 886.86 -1.21182 -1.00761 0
M  V30 9444 C 888.276 -0.968607 -1.26847 0
M  V30 9445 C 888.476 0.346561 -1.98497 0
M  V30 9446 O 887.532 1.07287 -2.28573 0
M  V30 9447 C 888.845 -2.1574 -2.09467 0
M  V30 9448 C 890.393 -2.19937 -2.22703 0
M  V30 9449 C 890.868 -3.38328 -3.08704 0
M  V30 9450 N 892.359 -3.38398 -3.16293 0
M  V30 9451 C 893.094 -4.26653 -3.83086 0
M  V30 9452 N 892.59 -5.25101 -4.5193 0
M  V30 9453 N 894.383 -4.14469 -3.797 0
M  V30 9454 H 886.534 -2.05763 -0.526816 0
M  V30 9455 H 888.797 -0.90087 -0.29519 0
M  V30 9456 H 888.503 -3.11034 -1.64167 0
M  V30 9457 H 888.377 -2.14584 -3.10216 0
M  V30 9458 H 890.764 -1.25201 -2.67224 0
M  V30 9459 H 890.845 -2.25139 -1.21433 0
M  V30 9460 H 890.489 -4.33356 -2.64886 0
M  V30 9461 H 890.419 -3.30364 -4.10082 0
M  V30 9462 H 892.91 -2.67149 -2.67282 0
M  V30 9463 H 893.223 -5.8875 -5.00592 0
M  V30 9464 H 891.568 -5.29029 -4.50726 0
M  V30 9465 H 894.759 -3.3682 -3.25069 0
M  V30 9466 H 894.932 -4.83458 -4.31477 0
M  V30 9467 N 888.338 1.20213 -1.01915 0
M  V30 9468 C 889.586 1.89272 -0.708552 0
M  V30 9469 C 889.907 1.79394 0.76438 0
M  V30 9470 O 889.177 1.198 1.54999 0
M  V30 9471 H 887.757 0.700628 -0.259094 0
M  V30 9472 H 890.419 1.45985 -1.29129 0
M  V30 9473 H 889.515 2.95841 -0.994215 0
M  V30 9474 N 889.816 0.795718 1.36037 0
M  V30 9475 C 890.726 0.199784 2.33748 0
M  V30 9476 C 891.742 -0.651436 1.61345 0
M  V30 9477 O 892.918 -0.565743 1.93291 0
M  V30 9478 C 889.983 -0.650475 3.40543 0
M  V30 9479 C 889.044 0.219974 4.28736 0
M  V30 9480 C 888.277 -0.589798 5.30431 0
M  V30 9481 O 888.5 -1.82532 5.40406 0
M  V30 9482 O 887.434 0.0136187 6.01898 0
M  V30 9483 H 891.26 1.00782 2.8649 0
M  V30 9484 H 888.845 0.557293 1.38617 0
M  V30 9485 H 890.727 -1.13512 4.05824 0
M  V30 9486 H 889.402 -1.4363 2.9009 0
M  V30 9487 H 888.309 0.751516 3.66474 0
M  V30 9488 H 889.642 0.969468 4.82558 0
M  V30 9489 N 891.294 -1.47756 0.548274 0
M  V30 9490 C 892.257 -2.28379 -0.193857 0
M  V30 9491 C 893.257 -1.36436 -0.850986 0
M  V30 9492 O 894.447 -1.59154 -0.70822 0
M  V30 9493 C 891.579 -3.15858 -1.28243 0
M  V30 9494 H 892.772 -2.95458 0.514231 0
M  V30 9495 H 890.325 -1.53298 0.304879 0
M  V30 9496 H 891.06 -2.5345 -2.0232 0
M  V30 9497 H 890.845 -3.83512 -0.816148 0
M  V30 9498 H 892.335 -3.76627 -1.80393 0
M  V30 9499 N 892.772 -0.284283 -1.55015 0
M  V30 9500 C 894.049 0.382125 -1.91831 0
M  V30 9501 C 894.429 1.73007 -1.20962 0
M  V30 9502 O 893.777 2.25962 -0.339594 0
M  V30 9503 C 893.987 0.513341 -3.45204 0
M  V30 9504 C 895.335 0.791989 -4.17148 0
M  V30 9505 O 896.359 0.597799 -3.51148 0
M  V30 9506 O 895.218 1.16394 -5.33961 0
M  V30 9507 H 892.312 0.210707 -0.799707 0
M  V30 9508 H 894.858 -0.331111 -1.66438 0
M  V30 9509 H 893.63 -0.434911 -3.88876 0
M  V30 9510 H 893.253 1.27569 -3.76579 0
M  V30 9511 N 894.251 1.57596 -0.0117121 0
M  V30 9512 C 895.214 2.08089 0.960816 0
M  V30 9513 C 896.214 0.992519 1.26514 0
M  V30 9514 O 897.404 1.25475 1.20837 0
M  V30 9515 C 894.536 2.53217 2.28241 0
M  V30 9516 H 895.729 2.9529 0.523829 0
M  V30 9517 H 893.282 1.54508 0.235995 0
M  V30 9518 H 894.017 1.69294 2.76604 0
M  V30 9519 H 893.802 3.32714 2.0747 0
M  V30 9520 H 895.292 2.92568 2.97983 0
M  V30 9521 N 895.729 -0.261212 1.5542 0
M  V30 9522 C 896.954 -1.01341 1.80955 0
M  V30 9523 C 897.379 -1.78711 0.586849 0
M  V30 9524 O 896.737 -1.75266 -0.463837 0
M  V30 9525 C 896.785 -1.93835 3.04073 0
M  V30 9526 O 895.889 -3.02791 2.79985 0
M  V30 9527 H 895.23 -0.289123 0.597749 0
M  V30 9528 H 897.76 -0.286543 2.02584 0
M  V30 9529 H 897.77 -2.3557 3.33123 0
M  V30 9530 H 896.445 -1.36936 3.9271 0
M  V30 9531 H 895.022 -2.65287 2.62063 0
M  V30 9532 N 897.207 -1.48554 -0.526253 0
M  V30 9533 C 898.484 -1.47252 -1.28748 0
M  V30 9534 C 898.864 -0.186245 -2.10277 0
M  V30 9535 O 898.212 0.831954 -2.12816 0
M  V30 9536 C 898.422 -2.73672 -2.16575 0
M  V30 9537 C 899.77 -3.22151 -2.76593 0
M  V30 9538 O 900.794 -2.74614 -2.2686 0
M  V30 9539 O 899.653 -4.04877 -3.67066 0
M  V30 9540 H 896.747 -0.588242 -0.581292 0
M  V30 9541 H 899.293 -1.60792 -0.5426 0
M  V30 9542 H 898.065 -3.58798 -1.56139 0
M  V30 9543 H 897.688 -2.6287 -2.98304 0
M  V30 9544 N 898.685 0.775411 -1.37205 0
M  V30 9545 C 899.962 1.5229 -1.22748 0
M  V30 9546 C 900.342 2.10327 0.180487 0
M  V30 9547 O 899.69 1.95206 1.18772 0
M  V30 9548 C 899.9 2.60671 -2.3206 0
M  V30 9549 C 901.248 3.28173 -2.6942 0
M  V30 9550 O 902.272 2.70963 -2.31208 0
M  V30 9551 O 901.131 4.31598 -3.3524 0
M  V30 9552 H 898.225 0.674326 -0.478762 0
M  V30 9553 H 900.771 0.812691 -1.48975 0
M  V30 9554 H 899.543 2.1588 -3.26361 0
M  V30 9555 H 899.166 3.39296 -2.07277 0
M  V30 9556 N 900.163 1.21714 1.00117 0
M  V30 9557 C 901.41 1.0367 1.73951 0
M  V30 9558 C 901.738 -0.429289 1.89703 0
M  V30 9559 O 900.993 -1.33475 1.43119 0
M  V30 9560 C 901.292 1.68345 3.15269 0
M  V30 9561 C 900.958 3.18214 3.19454 0
M  V30 9562 C 899.62 3.59109 3.20303 0
M  V30 9563 C 901.972 4.14179 3.16394 0
M  V30 9564 C 899.3 4.94467 3.15783 0
M  V30 9565 C 901.652 5.49502 3.13416 0
M  V30 9566 C 900.316 5.8979 3.12577 0
M  V30 9567 H 899.586 0.379355 0.63653 0
M  V30 9568 H 902.233 1.51361 1.17312 0
M  V30 9569 H 900.538 1.12957 3.75164 0
M  V30 9570 H 902.235 1.51882 3.71124 0
M  V30 9571 H 898.825 2.85646 3.19538 0
M  V30 9572 H 903.009 3.83607 3.14895 0
M  V30 9573 H 898.265 5.24923 3.13473 0
M  V30 9574 H 902.439 6.23595 3.10003 0
M  V30 9575 H 900.066 6.94643 3.08829 0
M  V30 9576 N 901.641 -1.19671 1.02551 0
M  V30 9577 C 902.551 -2.26441 0.613329 0
M  V30 9578 C 903.567 -1.70375 -0.353339 0
M  V30 9579 O 904.743 -2.0028 -0.212064 0
M  V30 9580 C 901.808 -3.46684 -0.0329028 0
M  V30 9581 C 900.869 -4.17945 0.980837 0
M  V30 9582 C 900.102 -5.32448 0.36535 0
M  V30 9583 O 900.325 -5.64291 -0.832596 0
M  V30 9584 O 899.259 -5.92012 1.08652 0
M  V30 9585 H 903.085 -2.63932 1.50246 0
M  V30 9586 H 900.67 -1.2646 0.795502 0
M  V30 9587 H 902.552 -4.1956 -0.393395 0
M  V30 9588 H 901.227 -3.1105 -0.896089 0
M  V30 9589 H 900.134 -3.47204 1.39286 0
M  V30 9590 H 901.467 -4.57542 1.81428 0
M  V30 9591 N 903.119 -0.802921 -1.35613 0
M  V30 9592 C 904.367 -0.380822 -1.9848 0
M  V30 9593 C 904.688 1.05464 -1.6402 0
M  V30 9594 O 903.958 1.72908 -0.920854 0
M  V30 9595 H 902.538 -0.137824 -0.734176 0
M  V30 9596 H 905.2 -1.02795 -1.65587 0
M  V30 9597 H 904.296 -0.483565 -3.08331 0
M  V30 9598 N 904.597 1.47463 -0.556102 0
M  V30 9599 C 905.825 2.06868 -0.0364585 0
M  V30 9600 C 906.24 1.40893 1.25677 0
M  V30 9601 O 905.597 0.505083 1.75371 0
M  V30 9602 C 905.648 3.61128 0.163984 0
M  V30 9603 O 905.369 4.24629 -1.07803 0
M  V30 9604 C 906.87 4.37397 0.721036 0
M  V30 9605 H 904.09 0.669466 -0.0453399 0
M  V30 9606 H 906.634 1.89482 -0.769198 0
M  V30 9607 H 904.789 3.78031 0.84685 0
M  V30 9608 H 905.203 5.17149 -0.875067 0
M  V30 9609 H 906.677 5.46016 0.810584 0
M  V30 9610 H 907.154 4.03604 1.73206 0
M  V30 9611 H 907.76 4.25236 0.073904 0
M  V30 9612 N 906.075 0.2925 1.54862 0
M  V30 9613 C 907.305 -0.321646 2.04081 0
M  V30 9614 C 907.713 -1.48712 1.16967 0
M  V30 9615 O 907.056 -1.82755 0.18609 0
M  V30 9616 C 907.118 -0.848678 3.49339 0
M  V30 9617 C 906.782 0.190416 4.56603 0
M  V30 9618 C 907.779 1.01595 5.09877 0
M  V30 9619 C 905.464 0.329666 5.01217 0
M  V30 9620 C 907.458 1.96676 6.06298 0
M  V30 9621 C 905.145 1.28393 5.9746 0
M  V30 9622 C 906.143 2.10097 6.49883 0
M  V30 9623 O 905.831 3.03907 7.44242 0
M  V30 9624 H 905.563 -0.075098 0.671816 0
M  V30 9625 H 908.117 0.427531 2.00901 0
M  V30 9626 H 906.347 -1.64823 3.49815 0
M  V30 9627 H 908.036 -1.37779 3.81801 0
M  V30 9628 H 908.802 0.919197 4.7621 0
M  V30 9629 H 904.681 -0.296317 4.60047 0
M  V30 9630 H 908.225 2.60488 6.47141 0
M  V30 9631 H 904.122 1.38144 6.30545 0
M  V30 9632 H 904.89 2.98787 7.62016 0
M  V30 9633 N 907.553 -1.57587 0.0200696 0
M  V30 9634 C 908.463 -2.13119 -0.980676 0
M  V30 9635 C 909.479 -1.08124 -1.36328 0
M  V30 9636 O 910.655 -1.40134 -1.44653 0
M  V30 9637 C 907.72 -2.63991 -2.24743 0
M  V30 9638 C 906.781 -3.83667 -1.9261 0
M  V30 9639 C 906.014 -4.32103 -3.13246 0
M  V30 9640 O 906.237 -3.79758 -4.25606 0
M  V30 9641 O 905.171 -5.24047 -2.96072 0
M  V30 9642 H 908.997 -2.98887 -0.538528 0
M  V30 9643 H 906.582 -1.48055 -0.19999 0
M  V30 9644 H 908.464 -2.9682 -2.99125 0
M  V30 9645 H 907.139 -1.81311 -2.68157 0
M  V30 9646 H 906.046 -3.55778 -1.15641 0
M  V30 9647 H 907.379 -4.67482 -1.54019 0
M  V30 9648 N 909.032 0.252966 -1.55557 0
M  V30 9649 C 909.942 1.33472 -1.92931 0
M  V30 9650 C 910.958 1.52983 -0.828985 0
M  V30 9651 O 912.134 1.66723 -1.12984 0
M  V30 9652 C 909.199 2.6704 -2.21112 0
M  V30 9653 C 908.26 2.56103 -3.44542 0
M  V30 9654 C 907.493 3.83302 -3.71369 0
M  V30 9655 O 907.716 4.84907 -3.00368 0
M  V30 9656 O 906.65 3.823 -4.64898 0
M  V30 9657 H 910.476 1.04768 -2.85057 0
M  V30 9658 H 908.061 0.453208 -1.4236 0
M  V30 9659 H 909.943 3.45981 -2.40572 0
M  V30 9660 H 908.618 2.95489 -1.32166 0
M  V30 9661 H 907.525 1.7547 -3.30396 0
M  V30 9662 H 908.858 2.32601 -4.33772 0
M  V30 9663 N 910.51 1.48831 0.518367 0
M  V30 9664 C 911.756 1.58649 1.27287 0
M  V30 9665 C 912.111 0.262085 1.90607 0
M  V30 9666 O 911.404 -0.736154 1.76894 0
M  V30 9667 C 911.598 2.67003 2.3758 0
M  V30 9668 C 911.427 4.09851 1.85073 0
M  V30 9669 C 910.197 4.76852 1.67154 0
M  V30 9670 C 912.395 4.95646 1.37256 0
M  V30 9671 N 910.377 6.04075 1.09394 0
M  V30 9672 C 911.748 6.13208 0.915189 0
M  V30 9673 C 913.803 4.8178 1.25666 0
M  V30 9674 C 912.506 7.18431 0.353411 0
M  V30 9675 C 914.532 5.87136 0.708873 0
M  V30 9676 C 913.894 7.03914 0.261642 0
M  V30 9677 H 909.993 0.635017 0.456374 0
M  V30 9678 H 912.577 1.85763 0.583097 0
M  V30 9679 H 910.748 2.41691 3.04039 0
M  V30 9680 H 912.48 2.6644 3.04617 0
M  V30 9681 H 909.235 4.3337 1.91017 0
M  V30 9682 H 909.659 6.71955 0.824917 0
M  V30 9683 H 914.301 3.91826 1.58846 0
M  V30 9684 H 912.019 8.08099 0.00931313 0
M  V30 9685 H 915.605 5.78463 0.622221 0
M  V30 9686 H 914.485 7.84046 -0.155634 0
M  V30 9687 N 911.988 -0.768124 1.37614 0
M  V30 9688 C 913.404 -1.06919 1.18493 0
M  V30 9689 C 913.604 -2.01486 0.0235753 0
M  V30 9690 O 912.66 -2.4438 -0.635209 0
M  V30 9691 C 913.973 -1.66321 2.50515 0
M  V30 9692 C 915.521 -1.78562 2.57069 0
M  V30 9693 C 915.996 -2.41377 3.89231 0
M  V30 9694 N 917.487 -2.48824 3.90693 0
M  V30 9695 C 918.222 -2.98288 4.89706 0
M  V30 9696 N 917.718 -3.47897 5.99115 0
M  V30 9697 N 919.511 -2.97196 4.77107 0
M  V30 9698 H 911.662 -0.140286 2.11936 0
M  V30 9699 H 913.925 -0.124863 0.939741 0
M  V30 9700 H 913.631 -1.04303 3.35878 0
M  V30 9701 H 913.505 -2.65571 2.67866 0
M  V30 9702 H 915.892 -2.39712 1.72111 0
M  V30 9703 H 915.973 -0.780574 2.43599 0
M  V30 9704 H 915.617 -1.80866 4.74605 0
M  V30 9705 H 915.547 -3.42495 4.00006 0
M  V30 9706 H 918.038 -2.1372 3.1166 0
M  V30 9707 H 918.351 -3.84053 6.70614 0
M  V30 9708 H 916.696 -3.45993 6.02755 0
M  V30 9709 H 919.887 -2.57741 3.90752 0
M  V30 9710 H 920.06 -3.35434 5.54426 0
M  V30 9711 N 913.466 -1.22244 -0.994698 0
M  V30 9712 C 914.376 -1.00722 -2.11878 0
M  V30 9713 C 915.392 0.043919 -1.73945 0
M  V30 9714 O 916.568 -0.148411 -2.00852 0
M  V30 9715 C 913.633 -0.585723 -3.41717 0
M  V30 9716 C 912.694 -1.71027 -3.93762 0
M  V30 9717 C 911.927 -1.30879 -5.17403 0
M  V30 9718 O 912.15 -0.18681 -5.70094 0
M  V30 9719 O 911.084 -2.1246 -5.63156 0
M  V30 9720 H 914.91 -1.94894 -2.32916 0
M  V30 9721 H 912.495 -1.00822 -1.10251 0
M  V30 9722 H 914.377 -0.360935 -4.19851 0
M  V30 9723 H 913.052 0.327166 -3.22042 0
M  V30 9724 H 911.959 -1.98956 -3.16808 0
M  V30 9725 H 913.292 -2.60096 -4.17865 0
M  V30 9726 N 914.944 1.19125 -1.03184 0
M  V30 9727 C 915.894 2.20348 -0.585731 0
M  V30 9728 C 916.878 1.56656 0.367109 0
M  V30 9729 O 918.07 1.76003 0.187598 0
M  V30 9730 C 915.199 3.43249 0.0590006 0
M  V30 9731 C 914.285 4.1408 -0.916457 0
M  V30 9732 N 914.676 4.61051 -2.08005 0
M  V30 9733 C 912.974 4.39809 -0.74054 0
M  V30 9734 C 913.675 5.15477 -2.69552 0
M  V30 9735 N 912.651 5.06456 -1.97493 0
M  V30 9736 H 916.453 2.54346 -1.47259 0
M  V30 9737 H 913.967 1.35232 -0.899225 0
M  V30 9738 H 915.964 4.15013 0.396236 0
M  V30 9739 H 914.624 3.1075 0.941507 0
M  V30 9740 H 915.635 4.55782 -2.45934 0
M  V30 9741 H 912.312 4.17397 0.0926238 0
M  V30 9742 H 913.702 5.62088 -3.68112 0
M  V30 9743 N 916.422 0.810101 1.35185 0
M  V30 9744 C 917.355 0.168416 2.27578 0
M  V30 9745 C 918.333 -0.667664 1.4826 0
M  V30 9746 O 919.517 -0.634184 1.77512 0
M  V30 9747 C 916.644 -0.765994 3.29925 0
M  V30 9748 C 915.69 -0.00908802 4.26499 0
M  V30 9749 S 916.523 1.32936 5.18737 0
M  V30 9750 C 917.679 0.399485 6.24624 0
M  V30 9751 H 917.912 0.951753 2.81654 0
M  V30 9752 H 915.445 0.60534 1.42039 0
M  V30 9753 H 917.403 -1.2996 3.89385 0
M  V30 9754 H 916.064 -1.52275 2.7472 0
M  V30 9755 H 915.257 -0.718919 4.98846 0
M  V30 9756 H 914.859 0.454663 3.71226 0
M  V30 9757 H 917.151 -0.413904 6.76234 0
M  V30 9758 H 918.094 1.09225 6.99625 0
M  V30 9759 H 918.502 -0.00638358 5.645 0
M  V30 9760 N 917.9 -1.47166 0.563914 0
M  V30 9761 C 919.146 -2.03337 0.0506932 0
M  V30 9762 C 919.501 -1.42976 -1.28746 0
M  V30 9763 O 918.794 -0.578508 -1.82658 0
M  V30 9764 C 918.988 -3.57279 -0.0931797 0
M  V30 9765 C 918.817 -4.32567 1.22948 0
M  V30 9766 C 917.587 -4.72206 1.79859 0
M  V30 9767 C 919.785 -4.67282 2.14829 0
M  V30 9768 N 917.767 -5.32166 3.0606 0
M  V30 9769 C 919.138 -5.27615 3.25611 0
M  V30 9770 C 921.193 -4.49211 2.14741 0
M  V30 9771 C 919.896 -5.71784 4.36412 0
M  V30 9772 C 921.922 -4.94384 3.24559 0
M  V30 9773 C 921.284 -5.54771 4.34061 0
M  V30 9774 H 917.383 -0.779627 0.0608761 0
M  V30 9775 H 919.967 -1.79563 0.75268 0
M  V30 9776 H 918.138 -3.80806 -0.764301 0
M  V30 9777 H 919.87 -4.0009 -0.609075 0
M  V30 9778 H 916.625 -4.54372 1.33577 0
M  V30 9779 H 917.049 -5.66684 3.70404 0
M  V30 9780 H 921.691 -4.01875 1.31362 0
M  V30 9781 H 919.409 -6.18108 5.20546 0
M  V30 9782 H 922.995 -4.82167 3.25586 0
M  V30 9783 H 921.875 -5.89087 5.17635 0
M  V30 9784 N 919.378 -0.300708 -1.54705 0
M  V30 9785 C 920.603 0.314073 -2.05008 0
M  V30 9786 C 921.028 1.46759 -1.17657 0
M  V30 9787 O 920.386 1.80398 -0.180598 0
M  V30 9788 C 920.434 0.748243 -3.52752 0
M  V30 9789 O 919.538 1.85305 -3.68424 0
M  V30 9790 H 918.879 0.0610139 -0.661191 0
M  V30 9791 H 921.409 -0.442467 -1.99758 0
M  V30 9792 H 921.419 1.03713 -3.94598 0
M  V30 9793 H 920.094 -0.095573 -4.1579 0
M  V30 9794 H 918.671 1.56473 -3.38483 0
M  V30 9795 N 920.856 1.57574 -0.0284266 0
M  V30 9796 C 922.133 1.83064 0.688979 0
M  V30 9797 C 922.513 0.91219 1.90374 0
M  V30 9798 O 921.861 -0.0323672 2.28477 0
M  V30 9799 C 922.071 3.32262 1.06785 0
M  V30 9800 C 923.419 3.98717 1.45978 0
M  V30 9801 O 924.443 3.36753 1.16085 0
M  V30 9802 O 923.302 5.07927 2.01673 0
M  V30 9803 H 920.396 0.7548 0.337944 0
M  V30 9804 H 922.942 1.69607 -0.0560555 0
M  V30 9805 H 921.714 3.90772 0.203235 0
M  V30 9806 H 921.337 3.50823 1.87107 0
M  V30 9807 N 922.334 -0.244713 1.55689 0
M  V30 9808 C 923.58 -0.973886 1.77886 0
M  V30 9809 C 923.913 -1.8489 0.594071 0
M  V30 9810 O 923.188 -1.90182 -0.407564 0
M  V30 9811 C 923.471 -1.83255 3.09983 0
M  V30 9812 C 923.324 -0.985571 4.3887 0
M  V30 9813 C 924.643 -2.81464 3.38329 0
M  V30 9814 H 921.762 -0.352629 0.647165 0
M  V30 9815 H 924.404 -0.244243 1.88424 0
M  V30 9816 H 922.554 -2.45464 3.01131 0
M  V30 9817 H 924.226 -0.382005 4.59716 0
M  V30 9818 H 922.469 -0.29002 4.32829 0
M  V30 9819 H 923.14 -1.62022 5.27686 0
M  V30 9820 H 925.616 -2.2939 3.47159 0
M  V30 9821 H 924.492 -3.38663 4.31971 0
M  V30 9822 H 924.753 -3.58037 2.59349 0
M  V30 9823 N 923.813 -1.49104 -0.510467 0
M  V30 9824 C 924.776 -1.64569 -1.59529 0
M  V30 9825 C 925.776 -0.517937 -1.5223 0
M  V30 9826 O 926.966 -0.784183 -1.55551 0
M  V30 9827 C 924.098 -1.6342 -2.99177 0
M  V30 9828 H 925.291 -2.61318 -1.4715 0
M  V30 9829 H 922.844 -1.37993 -0.734001 0
M  V30 9830 H 923.579 -0.68221 -3.17043 0
M  V30 9831 H 923.364 -2.45312 -3.05883 0
M  V30 9832 H 924.854 -1.77474 -3.78011 0
M  V30 9833 N 925.291 0.760815 -1.38019 0
M  V30 9834 C 926.254 1.85604 -1.34476 0
M  V30 9835 C 927.254 1.58897 -0.24666 0
M  V30 9836 O 928.444 1.66776 -0.50314 0
M  V30 9837 C 925.576 3.22945 -1.09176 0
M  V30 9838 H 926.769 1.90155 -2.31908 0
M  V30 9839 H 924.322 0.961746 -1.23208 0
M  V30 9840 H 925.057 3.24066 -0.123216 0
M  V30 9841 H 924.842 3.43723 -1.88672 0
M  V30 9842 H 926.332 4.03022 -1.09375 0
M  V30 9843 N 926.769 1.22769 0.988202 0
M  V30 9844 C 927.999 1.07998 1.76125 0
M  V30 9845 C 928.407 -0.372062 1.85506 0
M  V30 9846 O 927.75 -1.26946 1.3278 0
M  V30 9847 C 927.812 1.6219 3.20834 0
M  V30 9848 C 927.476 3.1086 3.34986 0
M  V30 9849 C 928.473 4.08239 3.21927 0
M  V30 9850 C 926.158 3.50411 3.59886 0
M  V30 9851 C 928.152 5.43154 3.33561 0
M  V30 9852 C 925.839 4.85473 3.71159 0
M  V30 9853 C 926.837 5.81653 3.58006 0
M  V30 9854 O 926.525 7.14263 3.68895 0
M  V30 9855 H 926.257 0.378937 0.559806 0
M  V30 9856 H 928.811 1.62925 1.25078 0
M  V30 9857 H 927.041 1.01676 3.73094 0
M  V30 9858 H 928.73 1.43011 3.79872 0
M  V30 9859 H 929.496 3.79025 3.02597 0
M  V30 9860 H 925.375 2.76068 3.69198 0
M  V30 9861 H 928.919 6.18207 3.23211 0
M  V30 9862 H 924.816 5.14365 3.89998 0
M  V30 9863 H 925.584 7.21906 3.85739 0
M  V30 9864 N 928.247 -1.18576 1.03814 0
M  V30 9865 C 929.494 -1.88493 0.740036 0
M  V30 9866 C 929.822 -1.80198 -0.732056 0
M  V30 9867 O 929.077 -1.19509 -1.54971 0
M  V30 9868 C 929.376 -3.38448 1.14837 0
M  V30 9869 C 929.042 -3.66947 2.62031 0
M  V30 9870 C 927.704 -3.74435 3.02244 0
M  V30 9871 C 930.056 -3.79534 3.57217 0
M  V30 9872 C 927.384 -3.91986 4.36536 0
M  V30 9873 C 929.736 -3.986 4.91223 0
M  V30 9874 C 928.4 -4.04323 5.31111 0
M  V30 9875 H 927.67 -0.689746 0.270798 0
M  V30 9876 H 930.317 -1.40364 1.3027 0
M  V30 9877 H 928.622 -3.88539 0.504472 0
M  V30 9878 H 930.319 -3.90882 0.89511 0
M  V30 9879 H 926.909 -3.61734 2.29883 0
M  V30 9880 H 931.093 -3.73083 3.27296 0
M  V30 9881 H 926.349 -3.9466 4.66962 0
M  V30 9882 H 930.523 -4.07281 5.64885 0
M  V30 9883 H 928.15 -4.17676 6.35178 0
M  V30 9884 N 929.725 -0.817259 -1.34754 0
M  V30 9885 C 930.673 -0.223352 -2.31525 0
M  V30 9886 C 931.667 0.632785 -1.57137 0
M  V30 9887 O 932.873 0.524757 -1.72181 0
M  V30 9888 H 929.248 -0.0534765 -0.750096 0
M  V30 9889 H 931.219 -1.05446 -2.79148 0
M  V30 9890 C 929.968 0.604784 -3.424 0
M  V30 9891 H 929.291 -0.0446664 -3.99775 0
M  V30 9892 H 930.731 0.986543 -4.12363 0
M  V30 9893 C 929.19 1.77478 -2.86362 0
M  V30 9894 O 929.72 2.87273 -2.8078 0
M  V30 9895 N 927.926 1.58971 -2.43263 0
M  V30 9896 H 927.473 0.696598 -2.48003 0
M  V30 9897 H 927.431 2.37408 -2.06119 0
M  V30 9898 N 931.203 1.46865 -0.571711 0
M  V30 9899 C 932.133 2.3298 0.155795 0
M  V30 9900 C 933.114 1.44678 0.894553 0
M  V30 9901 O 934.299 1.73513 0.872176 0
M  V30 9902 C 931.429 3.26745 1.17708 0
M  V30 9903 C 930.383 4.24401 0.553863 0
M  V30 9904 C 929.709 5.07595 1.68083 0
M  V30 9905 C 931.009 5.19884 -0.501827 0
M  V30 9906 H 932.703 2.94056 -0.563176 0
M  V30 9907 H 930.249 1.41402 -0.27228 0
M  V30 9908 H 932.202 3.85838 1.6943 0
M  V30 9909 H 930.926 2.63753 1.92618 0
M  V30 9910 H 929.585 3.66554 0.057815 0
M  V30 9911 H 929.233 4.40996 2.41933 0
M  V30 9912 H 928.933 5.73722 1.26953 0
M  V30 9913 H 930.457 5.6955 2.20103 0
M  V30 9914 H 931.871 5.73257 -0.0701057 0
M  V30 9915 H 930.268 5.94293 -0.832815 0
M  V30 9916 H 931.338 4.64482 -1.39229 0
M  V30 9917 N 932.681 0.308908 1.54543 0
M  V30 9918 C 933.958 -0.351558 1.92415 0
M  V30 9919 C 934.338 -1.71061 1.23699 0
M  V30 9920 O 933.686 -2.25394 0.3755 0
M  V30 9921 C 933.896 -0.458357 3.45977 0
M  V30 9922 C 935.244 -0.725524 4.18355 0
M  V30 9923 O 936.268 -0.541859 3.52054 0
M  V30 9924 O 935.127 -1.07884 5.35745 0
M  V30 9925 H 932.221 -0.197957 0.802958 0
M  V30 9926 H 934.767 0.357548 1.65891 0
M  V30 9927 H 933.539 0.496723 3.88134 0
M  V30 9928 H 933.162 -1.21562 3.78561 0
M  V30 9929 N 934.159 -1.57557 0.0367827 0
M  V30 9930 C 935.408 -1.91291 -0.639569 0
M  V30 9931 C 935.721 -0.915601 -1.72847 0
M  V30 9932 O 936.927 -1.14447 -2.46199 0
M  V30 9933 C 935.383 -3.39697 -1.18888 0
M  V30 9934 C 934.991 -4.47803 -0.132851 0
M  V30 9935 C 936.735 -3.82487 -1.8413 0
M  V30 9936 C 934.642 -5.87311 -0.694229 0
M  V30 9937 H 933.572 -0.713886 -0.242658 0
M  V30 9938 H 936.223 -1.83209 0.103332 0
M  V30 9939 H 934.605 -3.42736 -1.98363 0
M  V30 9940 H 935.779 -4.56334 0.640009 0
M  V30 9941 H 934.094 -4.14264 0.421264 0
M  V30 9942 H 936.691 -4.84076 -2.27101 0
M  V30 9943 H 937.034 -3.17959 -2.68716 0
M  V30 9944 H 937.567 -3.81903 -1.11332 0
M  V30 9945 H 934.306 -6.55401 0.113667 0
M  V30 9946 H 933.826 -5.82371 -1.4354 0
M  V30 9947 H 935.505 -6.36119 -1.1816 0
M  V30 9948 N 935.637 0.236453 -1.55816 0
M  V30 9949 C 936.547 1.31418 -1.94336 0
M  V30 9950 C 937.563 1.52095 -0.845164 0
M  V30 9951 O 938.739 1.65515 -1.14746 0
M  V30 9952 C 935.804 2.6468 -2.23932 0
M  V30 9953 C 934.865 2.52435 -3.47239 0
M  V30 9954 C 934.098 3.79342 -3.75414 0
M  V30 9955 O 934.321 4.81694 -3.05495 0
M  V30 9956 O 933.255 3.77347 -4.68927 0
M  V30 9957 H 937.081 1.01739 -2.86152 0
M  V30 9958 H 934.666 0.438084 -1.42833 0
M  V30 9959 H 936.548 3.4341 -2.44228 0
M  V30 9960 H 935.223 2.94071 -1.35292 0
M  V30 9961 H 934.13 1.71955 -3.32238 0
M  V30 9962 H 935.463 2.27987 -4.36214 0
M  V30 9963 N 937.115 1.49373 0.502552 0
M  V30 9964 C 938.063 1.66411 1.62512 0
M  V30 9965 C 939.057 0.530062 1.60893 0
M  V30 9966 O 940.263 0.709648 1.65421 0
M  V30 9967 H 936.638 0.524707 0.538689 0
M  V30 9968 H 938.609 2.60639 1.45293 0
M  V30 9969 C 937.358 1.74648 3.00655 0
M  V30 9970 H 936.681 2.61285 3.02606 0
M  V30 9971 H 938.121 1.90605 3.78742 0
M  V30 9972 C 936.58 0.490963 3.33303 0
M  V30 9973 O 937.11 -0.384039 3.9986 0
M  V30 9974 N 935.316 0.354375 2.88431 0
M  V30 9975 H 934.863 1.06742 2.34444 0
M  V30 9976 H 934.821 -0.484593 3.10643 0
M  V30 9977 N 938.594 -0.753485 1.38421 0
M  V30 9978 C 939.819 -1.54783 1.38047 0
M  V30 9979 C 940.244 -1.8808 -0.0276371 0
M  V30 9980 O 939.602 -1.5058 -1.00973 0
M  V30 9981 C 939.65 -2.82353 2.24297 0
M  V30 9982 O 938.754 -3.77509 1.66014 0
M  V30 9983 H 938.095 -0.468151 0.470883 0
M  V30 9984 H 940.625 -0.931144 1.82184 0
M  V30 9985 H 940.635 -3.31277 2.38159 0
M  V30 9986 H 939.31 -2.57449 3.26639 0
M  V30 9987 H 937.887 -3.36212 1.61294 0
M  V30 9988 N 940.072 -1.23292 -0.981677 0
M  V30 9989 C 940.982 -1.02964 -2.10798 0
M  V30 9990 C 941.998 0.0254674 -1.73981 0
M  V30 9991 O 943.174 -0.169706 -2.00684 0
M  V30 9992 C 940.239 -0.621934 -3.41076 0
M  V30 9993 C 939.3 -1.75194 -3.91926 0
M  V30 9994 C 938.533 -1.36359 -5.15986 0
M  V30 9995 O 938.756 -0.247265 -5.69864 0
M  V30 9996 O 937.69 -2.18421 -5.60871 0
M  V30 9997 H 941.516 -1.97354 -2.30836 0
M  V30 9998 H 939.101 -1.01986 -1.09175 0
M  V30 9999 H 940.983 -0.405446 -4.19445 0
M  V30 10000 H 939.658 0.29299 -3.22371 0
M  V30 10001 H 938.565 -2.02305 -3.1468 0
M  V30 10002 H 939.898 -2.64513 -4.15083 0
M  V30 10003 N 941.55 1.18024 -1.04442 0
M  V30 10004 C 942.827 1.8398 -0.664125 0
M  V30 10005 C 943.207 1.92961 0.856116 0
M  V30 10006 O 942.555 1.45839 1.75907 0
M  V30 10007 C 942.765 3.22069 -1.34433 0
M  V30 10008 C 944.113 3.98063 -1.47754 0
M  V30 10009 O 945.137 3.31523 -1.30274 0
M  V30 10010 O 943.996 5.17291 -1.76272 0
M  V30 10011 H 941.09 0.793543 -0.23285 0
M  V30 10012 H 943.636 1.25385 -1.14354 0
M  V30 10013 H 942.408 3.10458 -2.38184 0
M  V30 10014 H 942.031 3.88325 -0.853782 0
M  V30 10015 N 943.028 0.824394 1.34319 0
M  V30 10016 C 943.976 0.235628 2.31403 0
M  V30 10017 C 944.97 -0.624443 1.57471 0
M  V30 10018 O 946.176 -0.515618 1.72457 0
M  V30 10019 H 942.551 0.0574537 0.749802 0
M  V30 10020 H 944.522 1.06925 2.78585 0
M  V30 10021 C 943.271 -0.586617 3.42716 0
M  V30 10022 H 942.594 0.0658669 3.99746 0
M  V30 10023 H 944.034 -0.964661 4.1288 0
M  V30 10024 C 942.493 -1.75957 2.87299 0
M  V30 10025 O 943.023 -2.8578 2.82299 0
M  V30 10026 N 941.229 -1.57678 2.44102 0
M  V30 10027 H 940.776 -0.683436 2.48369 0
M  V30 10028 H 940.734 -2.36311 2.07375 0
M  V30 10029 N 944.506 -1.46559 0.579492 0
M  V30 10030 C 945.453 -2.30275 -0.155598 0
M  V30 10031 C 946.423 -1.40422 -0.887175 0
M  V30 10032 O 947.608 -1.69373 -0.878481 0
M  V30 10033 C 944.748 -3.24827 -1.16539 0
M  V30 10034 C 943.861 -4.29778 -0.43759 0
M  V30 10035 C 942.996 -5.11461 -1.43462 0
M  V30 10036 C 942.035 -6.08164 -0.693048 0
M  V30 10037 N 941.172 -6.82726 -1.63799 0
M  V30 10038 H 946.012 -2.92607 0.564356 0
M  V30 10039 H 943.549 -1.44211 0.290126 0
M  V30 10040 H 945.507 -3.78088 -1.76368 0
M  V30 10041 H 944.137 -2.64311 -1.8531 0
M  V30 10042 H 943.189 -3.794 0.27567 0
M  V30 10043 H 944.501 -4.98597 0.142298 0
M  V30 10044 H 943.655 -5.68982 -2.1058 0
M  V30 10045 H 942.394 -4.42595 -2.04844 0
M  V30 10046 H 941.399 -5.49799 -0.00807093 0
M  V30 10047 H 942.624 -6.79047 -0.0846678 0
M  V30 10048 H 940.57 -6.16572 -2.23997 0
M  V30 10049 H 940.487 -7.47795 -1.11082 0
M  V30 10050 H 941.755 -7.44807 -2.29962 0
M  V30 10051 N 945.984 -0.3171 -1.54377 0
M  V30 10052 C 947.209 0.292311 -2.0533 0
M  V30 10053 C 947.634 1.45503 -1.19207 0
M  V30 10054 O 946.992 1.80197 -0.199721 0
M  V30 10055 C 947.04 0.710787 -3.53525 0
M  V30 10056 O 946.144 1.81387 -3.70368 0
M  V30 10057 H 945.485 0.0539976 -0.661801 0
M  V30 10058 H 948.015 -0.463629 -1.99278 0
M  V30 10059 H 948.025 0.995216 -3.95676 0
M  V30 10060 H 946.7 -0.139668 -4.15665 0
M  V30 10061 H 945.277 1.52875 -3.40123 0
M  V30 10062 N 947.462 1.57535 -0.0451378 0
M  V30 10063 C 948.69 1.96761 0.639742 0
M  V30 10064 C 949.105 0.922405 1.64734 0
M  V30 10065 O 948.462 -0.0940535 1.82257 0
M  V30 10066 C 948.513 3.36066 1.33199 0
M  V30 10067 O 948.234 4.36579 0.364757 0
M  V30 10068 C 949.735 3.90015 2.1072 0
M  V30 10069 H 946.955 0.64769 0.175324 0
M  V30 10070 H 949.499 2.04206 -0.109651 0
M  V30 10071 H 947.654 3.2979 2.03266 0
M  V30 10072 H 948.068 5.17432 0.858168 0
M  V30 10073 H 949.542 4.89785 2.54586 0
M  V30 10074 H 950.019 3.25117 2.95288 0
M  V30 10075 H 950.625 3.99609 1.45577 0
M  V30 10076 N 948.94 -0.228186 1.55939 0
M  V30 10077 C 949.87 -1.28607 1.94891 0
M  V30 10078 C 950.851 -1.49236 0.816245 0
M  V30 10079 O 952.036 -1.61531 1.07803 0
M  V30 10080 C 949.166 -2.63719 2.25986 0
M  V30 10081 C 948.12 -2.57757 3.4168 0
M  V30 10082 C 947.446 -3.96837 3.58364 0
M  V30 10083 C 948.746 -2.13116 4.76843 0
M  V30 10084 H 950.44 -0.962531 2.83506 0
M  V30 10085 H 947.986 -0.461577 1.36402 0
M  V30 10086 H 949.939 -3.37878 2.51826 0
M  V30 10087 H 948.663 -2.97747 1.34217 0
M  V30 10088 H 947.322 -1.86055 3.15878 0
M  V30 10089 H 946.97 -4.28162 2.63982 0
M  V30 10090 H 946.67 -3.93731 4.36176 0
M  V30 10091 H 948.194 -4.72668 3.86545 0
M  V30 10092 H 949.608 -2.77015 5.01932 0
M  V30 10093 H 948.005 -2.21083 5.57891 0
M  V30 10094 H 949.075 -1.08326 4.72645 0
M  V30 10095 N 950.418 -1.49637 -0.494624 0
M  V30 10096 C 951.643 -1.63431 -1.27691 0
M  V30 10097 C 952.068 -0.30813 -1.85559 0
M  V30 10098 O 951.426 0.725083 -1.66169 0
M  V30 10099 C 951.474 -2.71043 -2.3784 0
M  V30 10100 O 950.578 -2.3066 -3.41862 0
M  V30 10101 H 949.919 -0.546804 -0.376698 0
M  V30 10102 H 952.449 -1.95866 -0.591413 0
M  V30 10103 H 952.459 -2.93406 -2.83508 0
M  V30 10104 H 951.134 -3.67306 -1.95088 0
M  V30 10105 H 949.711 -2.18652 -3.02069 0
M  V30 10106 N 951.896 0.746133 -1.38819 0
M  V30 10107 C 952.826 1.87344 -1.39372 0
M  V30 10108 C 953.807 1.68123 -0.258583 0
M  V30 10109 O 954.992 1.88606 -0.462769 0
M  V30 10110 C 952.122 3.24962 -1.22543 0
M  V30 10111 C 951.076 3.58799 -2.33339 0
M  V30 10112 C 950.402 4.95235 -2.01609 0
M  V30 10113 C 951.702 3.62911 -3.75624 0
M  V30 10114 H 953.396 1.87138 -2.33709 0
M  V30 10115 H 950.942 0.898937 -1.12495 0
M  V30 10116 H 952.895 4.03488 -1.21554 0
M  V30 10117 H 951.619 3.25667 -0.246707 0
M  V30 10118 H 950.278 2.82596 -2.33527 0
M  V30 10119 H 949.926 4.92508 -1.02202 0
M  V30 10120 H 949.626 5.18843 -2.75819 0
M  V30 10121 H 951.15 5.76131 -2.02251 0
M  V30 10122 H 952.564 4.31535 -3.77426 0
M  V30 10123 H 950.961 3.98031 -4.491 0
M  V30 10124 H 952.031 2.62967 -4.07402 0
M  V30 10125 N 953.375 1.23811 0.975125 0
M  V30 10126 C 954.307 0.981779 2.07108 0
M  V30 10127 C 955.32 -0.0461211 1.62735 0
M  V30 10128 O 956.509 0.190039 1.77486 0
M  V30 10129 C 953.609 0.458364 3.35786 0
M  V30 10130 C 952.782 1.54767 4.09104 0
M  V30 10131 C 951.841 1.0282 5.16057 0
M  V30 10132 O 950.867 1.71831 5.42644 0
M  V30 10133 N 952.069 -0.141243 5.80328 0
M  V30 10134 H 954.834 1.92537 2.29673 0
M  V30 10135 H 952.395 1.1474 1.14221 0
M  V30 10136 H 954.387 0.0957686 4.04587 0
M  V30 10137 H 952.957 -0.390768 3.10148 0
M  V30 10138 H 952.177 2.08279 3.34684 0
M  V30 10139 H 953.465 2.28006 4.54853 0
M  V30 10140 H 952.863 -0.718382 5.6112 0
M  V30 10141 H 951.42 -0.445052 6.50279 0
M  V30 10142 N 954.853 -1.17469 1.05066 0
M  V30 10143 C 956.1 -1.87698 0.759987 0
M  V30 10144 C 956.428 -1.80964 -0.712902 0
M  V30 10145 O 955.683 -1.21146 -1.53695 0
M  V30 10146 C 955.982 -3.37211 1.18421 0
M  V30 10147 C 955.648 -3.64148 2.65909 0
M  V30 10148 C 954.31 -3.71209 3.06199 0
M  V30 10149 C 956.662 -3.75724 3.61222 0
M  V30 10150 C 953.99 -3.87334 4.40669 0
M  V30 10151 C 956.342 -3.93368 4.95424 0
M  V30 10152 C 955.006 -3.98667 5.3537 0
M  V30 10153 H 954.276 -0.686835 0.278099 0
M  V30 10154 H 956.923 -1.38975 1.31751 0
M  V30 10155 H 955.228 -3.87982 0.545654 0
M  V30 10156 H 956.925 -3.89911 0.936518 0
M  V30 10157 H 953.515 -3.59276 2.33707 0
M  V30 10158 H 957.699 -3.69591 3.31235 0
M  V30 10159 H 952.955 -3.89685 4.71122 0
M  V30 10160 H 957.129 -4.01267 5.69173 0
M  V30 10161 H 954.756 -4.10915 6.39572 0
M  V30 10162 N 956.331 -0.831506 -1.3388 0
M  V30 10163 C 957.577 -0.424302 -1.98312 0
M  V30 10164 C 957.91 1.01211 -1.65741 0
M  V30 10165 O 957.185 1.70636 -0.933464 0
M  V30 10166 C 957.468 -0.636815 -3.54424 0
M  V30 10167 C 957.321 -2.11997 -3.96708 0
M  V30 10168 C 958.64 -0.0782411 -4.4003 0
M  V30 10169 H 955.759 -0.155637 -0.720379 0
M  V30 10170 H 958.401 -1.04566 -1.58638 0
M  V30 10171 H 956.551 -0.107907 -3.8835 0
M  V30 10172 H 958.223 -2.71317 -3.73075 0
M  V30 10173 H 956.466 -2.60723 -3.46707 0
M  V30 10174 H 957.137 -2.21944 -5.05416 0
M  V30 10175 H 959.613 -0.530243 -4.12708 0
M  V30 10176 H 958.489 -0.256676 -5.483 0
M  V30 10177 H 958.75 1.01745 -4.30233 0
M  V30 10178 N 957.809 1.4625 -0.587256 0
M  V30 10179 C 959.086 1.95599 -0.00750181 0
M  V30 10180 C 959.466 1.52989 1.45457 0
M  V30 10181 O 958.814 0.782731 2.14676 0
M  V30 10182 C 959.024 3.48513 -0.184309 0
M  V30 10183 C 960.372 4.24565 -0.0544972 0
M  V30 10184 O 961.396 3.5602 -0.113378 0
M  V30 10185 O 960.255 5.46445 0.0774075 0
M  V30 10186 H 957.349 0.825649 0.0472495 0
M  V30 10187 H 959.895 1.56512 -0.655893 0
M  V30 10188 H 958.667 3.72428 -1.20053 0
M  V30 10189 H 958.29 3.9444 0.500301 0
M  V30 10190 N 959.287 0.325282 1.54207 0
M  V30 10191 C 960.512 -0.281418 2.05482 0
M  V30 10192 C 960.937 -1.44869 1.19977 0
M  V30 10193 O 960.295 -1.80088 0.209275 0
M  V30 10194 C 960.343 -0.692029 3.53897 0
M  V30 10195 O 959.447 -1.7942 3.71325 0
M  V30 10196 H 958.788 -0.0504872 0.662078 0
M  V30 10197 H 961.318 0.474191 1.99029 0
M  V30 10198 H 961.328 -0.974219 3.96198 0
M  V30 10199 H 960.003 0.161709 4.15586 0
M  V30 10200 H 958.58 -1.51069 3.40929 0
M  V30 10201 N 960.765 -1.57509 0.0534917 0
M  V30 10202 C 961.728 -2.10563 -0.905307 0
M  V30 10203 C 962.728 -1.02571 -1.23838 0
M  V30 10204 O 963.918 -1.28635 -1.17468 0
M  V30 10205 C 961.05 -2.5918 -2.21447 0
M  V30 10206 H 962.243 -2.96575 -0.445354 0
M  V30 10207 H 959.796 -1.55079 -0.194947 0
M  V30 10208 H 960.531 -1.76568 -2.72019 0
M  V30 10209 H 960.316 -3.38098 -1.98575 0
M  V30 10210 H 961.806 -3.00365 -2.90122 0
M  V30 10211 N 962.243 0.219913 -1.56058 0
M  V30 10212 C 963.206 1.25606 -1.91718 0
M  V30 10213 C 964.206 1.39721 -0.795912 0
M  V30 10214 O 965.396 1.37958 -1.06364 0
M  V30 10215 C 962.528 2.62961 -2.16943 0
M  V30 10216 H 963.721 0.951909 -2.84392 0
M  V30 10217 H 961.274 0.460398 -1.49365 0
M  V30 10218 H 962.009 2.98472 -1.26826 0
M  V30 10219 H 961.794 2.54093 -2.98629 0
M  V30 10220 H 963.284 3.37727 -2.45622 0
M  V30 10221 N 963.721 1.49897 0.486681 0
M  V30 10222 C 964.998 1.50614 1.24799 0
M  V30 10223 C 965.378 0.24193 2.09709 0
M  V30 10224 O 964.726 -0.775237 2.14947 0
M  V30 10225 C 964.936 2.79318 2.09243 0
M  V30 10226 C 966.284 3.29371 2.67955 0
M  V30 10227 O 967.308 2.80533 2.19499 0
M  V30 10228 O 966.167 4.14466 3.56202 0
M  V30 10229 H 963.261 0.603447 0.565491 0
M  V30 10230 H 965.807 1.62174 0.499778 0
M  V30 10231 H 964.579 3.62812 1.46572 0
M  V30 10232 H 964.202 2.70687 2.91229 0
M  V30 10233 N 965.199 -0.738761 1.39212 0
M  V30 10234 C 966.132 -1.86135 1.32018 0
M  V30 10235 C 967.11 -1.61432 0.194512 0
M  V30 10236 O 968.294 -1.84746 0.374331 0
M  V30 10237 C 965.421 -3.22044 1.04907 0
M  V30 10238 C 964.467 -3.65612 2.19613 0
M  V30 10239 S 965.3 -3.75418 3.81866 0
M  V30 10240 C 966.456 -5.14122 3.56972 0
M  V30 10241 H 966.689 -1.91954 2.27027 0
M  V30 10242 H 964.222 -0.903244 1.25223 0
M  V30 10243 H 966.18 -4.00524 0.899491 0
M  V30 10244 H 964.841 -3.13886 0.115918 0
M  V30 10245 H 964.034 -4.64232 1.96227 0
M  V30 10246 H 963.636 -2.94327 2.30755 0
M  V30 10247 H 965.928 -6.00339 3.14005 0
M  V30 10248 H 966.871 -5.42535 4.55039 0
M  V30 10249 H 967.279 -4.8362 2.91156 0
M  V30 10250 N 966.677 -1.24326 -0.968545 0
M  V30 10251 C 968.088 -1.07561 -1.52603 0
M  V30 10252 C 968.439 0.353245 -1.92994 0
M  V30 10253 O 967.564 1.24151 -1.77244 0
M  V30 10254 C 968.159 -1.94634 -2.77314 0
M  V30 10255 C 966.718 -1.82095 -3.29421 0
M  V30 10256 C 965.865 -1.8962 -2.02335 0
M  V30 10257 H 968.816 -1.37815 -0.786932 0
M  V30 10258 H 968.837 -1.47812 -3.50616 0
M  V30 10259 H 968.349 -2.98621 -2.47885 0
M  V30 10260 H 966.45 -0.809376 -3.63703 0
M  V30 10261 H 966.563 -2.66142 -3.98378 0
M  V30 10262 H 964.927 -1.33339 -2.17009 0
M  V30 10263 H 965.71 -2.95185 -1.75273 0
M  V30 10264 N 968.156 1.1691 -1.05688 0
M  V30 10265 C 969.086 2.23275 -0.683402 0
M  V30 10266 C 970.067 1.6704 0.321206 0
M  V30 10267 O 971.252 1.93191 0.197691 0
M  V30 10268 C 968.382 3.47244 -0.0626006 0
M  V30 10269 C 967.336 4.16333 -0.992513 0
M  V30 10270 C 966.662 5.34182 -0.23533 0
M  V30 10271 C 967.962 4.68002 -2.31886 0
M  V30 10272 H 969.656 2.54771 -1.57264 0
M  V30 10273 H 967.202 1.2246 -0.757606 0
M  V30 10274 H 969.155 4.20874 0.210503 0
M  V30 10275 H 967.879 3.1503 0.861616 0
M  V30 10276 H 966.538 3.44622 -1.25026 0
M  V30 10277 H 966.186 4.9822 0.69181 0
M  V30 10278 H 965.886 5.81346 -0.855002 0
M  V30 10279 H 967.41 6.10592 0.0303717 0
M  V30 10280 H 968.824 5.33244 -2.10531 0
M  V30 10281 H 967.221 5.25764 -2.89296 0
M  V30 10282 H 968.291 3.84541 -2.95391 0
M  V30 10283 N 969.634 0.838594 1.33437 0
M  V30 10284 C 970.597 0.276843 2.27522 0
M  V30 10285 C 971.597 -0.554275 1.50945 0
M  V30 10286 O 972.787 -0.368107 1.70266 0
M  V30 10287 C 969.919 -0.610036 3.35397 0
M  V30 10288 H 971.112 1.10705 2.78719 0
M  V30 10289 H 968.665 0.611657 1.43835 0
M  V30 10290 H 969.4 -1.46269 2.89441 0
M  V30 10291 H 969.185 -0.0153615 3.92097 0
M  V30 10292 H 970.675 -0.996368 4.05539 0
M  V30 10293 N 971.112 -1.45937 0.595003 0
M  V30 10294 C 972.059 -2.30427 -0.131165 0
M  V30 10295 C 973.029 -1.41355 -0.872232 0
M  V30 10296 O 974.214 -1.70296 -0.860467 0
M  V30 10297 C 971.354 -3.26045 -1.13087 0
M  V30 10298 C 970.467 -4.30218 -0.391982 0
M  V30 10299 C 969.602 -5.12953 -1.3803 0
M  V30 10300 C 968.641 -6.08865 -0.628505 0
M  V30 10301 N 967.778 -6.84425 -1.56548 0
M  V30 10302 H 972.618 -2.91992 0.595359 0
M  V30 10303 H 970.155 -1.43895 0.305405 0
M  V30 10304 H 972.113 -3.79937 -1.72348 0
M  V30 10305 H 970.743 -2.66261 -1.82496 0
M  V30 10306 H 969.795 -3.79086 0.315895 0
M  V30 10307 H 971.107 -4.98418 0.195173 0
M  V30 10308 H 970.261 -5.71184 -2.04534 0
M  V30 10309 H 969 -4.44743 -2.00138 0
M  V30 10310 H 968.005 -5.49777 0.0502431 0
M  V30 10311 H 969.23 -6.79099 -0.012641 0
M  V30 10312 H 967.176 -6.18913 -2.17444 0
M  V30 10313 H 967.093 -7.48931 -1.03145 0
M  V30 10314 H 968.361 -7.47204 -2.22049 0
M  V30 10315 N 972.59 -0.333456 -1.54032 0
M  V30 10316 C 973.523 0.570776 -2.20947 0
M  V30 10317 C 974.501 1.10811 -1.18994 0
M  V30 10318 O 975.685 1.17027 -1.47773 0
M  V30 10319 C 972.812 1.7842 -2.87896 0
M  V30 10320 C 971.858 1.37722 -4.03652 0
M  V30 10321 S 972.691 0.405548 -5.33962 0
M  V30 10322 C 973.847 1.62603 -6.0441 0
M  V30 10323 H 974.08 0.0023936 -2.973 0
M  V30 10324 H 971.613 -0.117531 -1.53952 0
M  V30 10325 H 973.571 2.48038 -3.27089 0
M  V30 10326 H 972.232 2.32378 -2.11327 0
M  V30 10327 H 971.425 2.28167 -4.49395 0
M  V30 10328 H 971.027 0.760628 -3.66184 0
M  V30 10329 H 973.319 2.56202 -6.2719 0
M  V30 10330 H 974.262 1.21058 -6.97675 0
M  V30 10331 H 974.67 1.8175 -5.34441 0
M  V30 10332 N 974.068 1.57479 -0.061844 0
M  V30 10333 C 975.018 2.0867 0.918749 0
M  V30 10334 C 976.002 0.994174 1.26511 0
M  V30 10335 O 977.194 1.25738 1.24575 0
M  V30 10336 C 974.323 2.64386 2.18986 0
M  V30 10337 C 973.409 3.80626 1.87042 0
M  V30 10338 N 973.8 4.89982 1.25504 0
M  V30 10339 C 972.098 3.89733 2.1685 0
M  V30 10340 C 972.799 5.70928 1.11429 0
M  V30 10341 N 971.775 5.18877 1.62072 0
M  V30 10342 H 975.577 2.90611 0.438469 0
M  V30 10343 H 973.091 1.61775 0.142321 0
M  V30 10344 H 975.088 2.9937 2.90144 0
M  V30 10345 H 973.748 1.83888 2.67611 0
M  V30 10346 H 974.759 5.09556 0.925914 0
M  V30 10347 H 971.436 3.20194 2.67921 0
M  V30 10348 H 972.826 6.68886 0.635665 0
M  V30 10349 N 975.546 -0.211634 1.56173 0
M  V30 10350 C 976.794 -0.932704 1.7929 0
M  V30 10351 C 977.115 -1.84472 0.632076 0
M  V30 10352 O 976.385 -1.92739 -0.350519 0
M  V30 10353 H 974.965 -0.347393 0.661307 0
M  V30 10354 H 977.627 -0.22111 1.93642 0
M  V30 10355 H 976.723 -1.53365 2.71819 0
M  V30 10356 N 977.024 -1.50153 -0.478725 0
M  V30 10357 C 977.987 -1.67916 -1.56003 0
M  V30 10358 C 978.987 -0.550111 -1.51097 0
M  V30 10359 O 980.177 -0.817001 -1.53853 0
M  V30 10360 C 977.309 -1.6973 -2.95643 0
M  V30 10361 H 978.502 -2.6438 -1.41573 0
M  V30 10362 H 976.055 -1.39519 -0.704565 0
M  V30 10363 H 976.79 -0.749306 -3.15525 0
M  V30 10364 H 976.575 -2.51745 -3.00611 0
M  V30 10365 H 978.065 -1.85453 -3.74162 0
M  V30 10366 N 978.502 0.731368 -1.39602 0
M  V30 10367 C 979.749 1.491 -1.37024 0
M  V30 10368 C 980.077 1.94473 0.0326423 0
M  V30 10369 O 979.332 1.6737 1.01418 0
M  V30 10370 C 979.631 2.74224 -2.29208 0
M  V30 10371 C 979.297 2.477 -3.7677 0
M  V30 10372 C 977.959 2.40175 -4.16976 0
M  V30 10373 C 980.311 2.25098 -4.70086 0
M  V30 10374 C 977.639 2.08095 -5.48556 0
M  V30 10375 C 979.991 1.94534 -6.01946 0
M  V30 10376 C 978.655 1.85481 -6.41212 0
M  V30 10377 H 977.925 0.545595 -0.501405 0
M  V30 10378 H 980.572 0.839127 -1.72136 0
M  V30 10379 H 978.877 3.44171 -1.87225 0
M  V30 10380 H 980.574 3.32264 -2.24504 0
M  V30 10381 H 977.164 2.54436 -3.44906 0
M  V30 10382 H 981.348 2.29876 -4.39853 0
M  V30 10383 H 976.604 1.99611 -5.77897 0
M  V30 10384 H 980.778 1.76054 -6.73779 0
M  V30 10385 H 978.405 1.60389 -7.43088 0
M  V30 10386 N 979.98 1.24838 0.961938 0
M  V30 10387 C 981.205 1.11967 1.7458 0
M  V30 10388 C 981.63 -0.323287 1.85301 0
M  V30 10389 O 980.988 -1.23412 1.32812 0
M  V30 10390 C 981.036 1.77066 3.14134 0
M  V30 10391 O 980.14 1.04534 3.98932 0
M  V30 10392 H 979.481 0.391338 0.536424 0
M  V30 10393 H 982.011 1.65259 1.20626 0
M  V30 10394 H 982.021 1.83056 3.64629 0
M  V30 10395 H 980.696 2.82052 3.05646 0
M  V30 10396 H 979.273 1.06372 3.57407 0
M  V30 10397 N 981.458 -1.16348 1.06306 0
M  V30 10398 C 982.686 -1.90782 0.800614 0
M  V30 10399 C 983.101 -1.77439 -0.645033 0
M  V30 10400 O 982.458 -1.11912 -1.4416 0
M  V30 10401 C 982.509 -3.41484 1.18621 0
M  V30 10402 O 982.23 -3.54428 2.57512 0
M  V30 10403 C 983.731 -4.32968 0.951525 0
M  V30 10404 H 980.951 -0.604977 0.290247 0
M  V30 10405 H 983.495 -1.47476 1.41672 0
M  V30 10406 H 981.65 -3.82493 0.614633 0
M  V30 10407 H 982.064 -4.4788 2.72954 0
M  V30 10408 H 983.538 -5.37169 1.27095 0
M  V30 10409 H 984.015 -4.39055 -0.112734 0
M  V30 10410 H 984.621 -3.97687 1.50749 0
M  V30 10411 N 982.937 -0.845659 -1.3299 0
M  V30 10412 C 983.885 -0.272412 -2.30999 0
M  V30 10413 C 984.879 0.599311 -1.58444 0
M  V30 10414 O 986.085 0.488117 -1.73255 0
M  V30 10415 H 982.46 -0.0693751 -0.748793 0
M  V30 10416 H 984.431 -1.11343 -2.76849 0
M  V30 10417 C 983.18 0.532019 -3.43606 0
M  V30 10418 H 982.503 -0.129455 -3.9959 0
M  V30 10419 H 983.943 0.898853 -4.14363 0
M  V30 10420 C 982.402 1.71364 -2.90062 0
M  V30 10421 O 982.932 2.81252 -2.8681 0
M  V30 10422 N 981.138 1.53775 -2.4658 0
M  V30 10423 H 980.685 0.643836 -2.49424 0
M  V30 10424 H 980.643 2.32982 -2.11108 0
M  V30 10425 N 984.415 1.45619 -0.602734 0
M  V30 10426 C 985.661 2.02572 -0.0961759 0
M  V30 10427 C 985.994 1.47076 1.26815 0
M  V30 10428 O 985.269 0.643566 1.83544 0
M  V30 10429 C 985.552 3.60062 -0.0520032 0
M  V30 10430 C 985.405 4.25901 -1.44665 0
M  V30 10431 C 986.724 4.35446 0.638342 0
M  V30 10432 H 983.843 0.736099 -0.0364238 0
M  V30 10433 H 986.485 1.7353 -0.773776 0
M  V30 10434 H 984.635 3.84936 0.525032 0
M  V30 10435 H 986.307 4.12228 -2.0704 0
M  V30 10436 H 984.55 3.84489 -2.00874 0
M  V30 10437 H 985.221 5.34779 -1.36803 0
M  V30 10438 H 987.697 4.15837 0.147926 0
M  V30 10439 H 986.573 5.45176 0.63834 0
M  V30 10440 H 986.834 4.07962 1.70351 0
M  V30 10441 N 985.893 0.34162 1.53853 0
M  V30 10442 C 987.139 -0.255862 2.01179 0
M  V30 10443 C 987.472 -1.50356 1.22909 0
M  V30 10444 O 986.747 -1.91913 0.316198 0
M  V30 10445 C 987.03 -0.571934 3.55529 0
M  V30 10446 C 986.883 0.687727 4.44511 0
M  V30 10447 C 988.202 -1.38233 4.17827 0
M  V30 10448 H 985.321 -0.091521 0.731295 0
M  V30 10449 H 987.963 0.461775 1.84303 0
M  V30 10450 H 986.113 -1.18331 3.70041 0
M  V30 10451 H 987.785 1.32572 4.4184 0
M  V30 10452 H 986.028 1.313 4.13452 0
M  V30 10453 H 986.699 0.421858 5.50386 0
M  V30 10454 H 989.175 -0.865374 4.07002 0
M  V30 10455 H 988.051 -1.57223 5.25901 0
M  V30 10456 H 988.312 -2.38386 3.72323 0
M  V30 10457 N 987.371 -1.57444 0.0701946 0
M  V30 10458 C 988.334 -2.11511 -0.882923 0
M  V30 10459 C 989.334 -1.03879 -1.22743 0
M  V30 10460 O 990.524 -1.29874 -1.16097 0
M  V30 10461 C 987.656 -2.61514 -2.18686 0
M  V30 10462 H 988.849 -2.9703 -0.413873 0
M  V30 10463 H 986.402 -1.55278 -0.178488 0
M  V30 10464 H 987.137 -1.79443 -2.70131 0
M  V30 10465 H 986.922 -3.40185 -1.94978 0
M  V30 10466 H 988.412 -3.03425 -2.86919 0
M  V30 10467 N 988.849 0.203349 -1.56283 0
M  V30 10468 C 990.074 0.945548 -1.84592 0
M  V30 10469 C 990.499 1.7641 -0.652772 0
M  V30 10470 O 989.857 1.76867 0.398468 0
M  V30 10471 C 989.905 1.82416 -3.11057 0
M  V30 10472 O 989.009 2.92191 -2.9103 0
M  V30 10473 H 988.35 0.266739 -0.608068 0
M  V30 10474 H 990.88 0.211158 -2.03507 0
M  V30 10475 H 990.89 2.23044 -3.41636 0
M  V30 10476 H 989.565 1.22267 -3.97522 0
M  V30 10477 H 988.142 2.55378 -2.71728 0
M  V30 10478 N 990.327 1.50405 0.470755 0
M  V30 10479 C 991.274 1.69293 1.56871 0
M  V30 10480 C 992.244 0.534248 1.57274 0
M  V30 10481 O 993.429 0.764855 1.74799 0
M  V30 10482 C 990.569 1.79338 2.94842 0
M  V30 10483 C 989.682 3.06709 3.04226 0
M  V30 10484 C 988.817 3.07548 4.33114 0
M  V30 10485 C 987.856 4.29372 4.36241 0
M  V30 10486 N 986.993 4.27949 5.56601 0
M  V30 10487 H 991.833 2.63029 1.40071 0
M  V30 10488 H 989.37 1.30386 0.681016 0
M  V30 10489 H 991.328 1.83143 3.74853 0
M  V30 10490 H 989.958 0.890411 3.10277 0
M  V30 10491 H 989.01 3.12374 2.17086 0
M  V30 10492 H 990.322 3.96684 3.02396 0
M  V30 10493 H 989.476 3.10084 5.21472 0
M  V30 10494 H 988.215 2.15404 4.37553 0
M  V30 10495 H 987.22 4.27048 3.4628 0
M  V30 10496 H 988.445 5.22743 4.33493 0
M  V30 10497 H 986.391 3.38658 5.61824 0
M  V30 10498 H 986.308 5.11692 5.56513 0
M  V30 10499 H 987.576 4.34631 6.47083 0
M  V30 10500 N 991.805 -0.723954 1.39988 0
M  V30 10501 C 992.715 -1.86829 1.41887 0
M  V30 10502 C 993.731 -1.71173 0.312401 0
M  V30 10503 O 994.907 -1.93583 0.555651 0
M  V30 10504 C 991.972 -3.22541 1.27154 0
M  V30 10505 C 991.033 -3.50512 2.47871 0
M  V30 10506 C 990.266 -4.79749 2.33831 0
M  V30 10507 O 990.489 -5.54251 1.34765 0
M  V30 10508 O 989.423 -5.07868 3.23039 0
M  V30 10509 H 993.249 -1.88183 2.38371 0
M  V30 10510 H 990.834 -0.873259 1.21221 0
M  V30 10511 H 992.716 -4.0362 1.21114 0
M  V30 10512 H 991.391 -3.21933 0.337715 0
M  V30 10513 H 990.298 -2.69475 2.59488 0
M  V30 10514 H 991.631 -3.55909 3.39985 0
M  V30 10515 N 993.283 -1.25346 -0.955304 0
M  V30 10516 C 994.213 -1.08152 -2.06943 0
M  V30 10517 C 995.194 0.00922598 -1.70097 0
M  V30 10518 O 996.379 -0.160181 -1.93538 0
M  V30 10519 C 993.509 -0.698745 -3.40198 0
M  V30 10520 C 992.463 -1.73965 -3.9105 0
M  V30 10521 C 991.789 -1.21158 -5.20792 0
M  V30 10522 C 993.089 -3.13829 -4.17503 0
M  V30 10523 H 994.783 -2.01345 -2.21586 0
M  V30 10524 H 992.329 -0.969459 -1.06478 0
M  V30 10525 H 994.282 -0.565394 -4.1759 0
M  V30 10526 H 993.006 0.268892 -3.25491 0
M  V30 10527 H 991.665 -1.86143 -3.15827 0
M  V30 10528 H 991.313 -0.234193 -5.02455 0
M  V30 10529 H 991.013 -1.90728 -5.55785 0
M  V30 10530 H 992.537 -1.09061 -6.00781 0
M  V30 10531 H 993.951 -3.04809 -4.85556 0
M  V30 10532 H 992.348 -3.80863 -4.63749 0
M  V30 10533 H 993.418 -3.6094 -3.23806 0
M  V30 10534 N 994.761 1.15782 -1.06922 0
M  V30 10535 C 995.693 2.19978 -0.643604 0
M  V30 10536 C 996.706 1.59981 0.301653 0
M  V30 10537 O 997.895 1.78265 0.0916508 0
M  V30 10538 C 994.995 3.38815 0.0757973 0
M  V30 10539 C 994.168 4.28363 -0.884545 0
M  V30 10540 C 993.227 5.25807 -0.203233 0
M  V30 10541 O 992.253 5.62924 -0.842904 0
M  V30 10542 N 993.455 5.70874 1.05279 0
M  V30 10543 H 996.22 2.57112 -1.53992 0
M  V30 10544 H 993.781 1.30855 -0.953344 0
M  V30 10545 H 995.773 4.01052 0.542151 0
M  V30 10546 H 994.343 3.00133 0.874 0
M  V30 10547 H 993.563 3.63292 -1.53012 0
M  V30 10548 H 994.851 4.85067 -1.53581 0
M  V30 10549 H 994.249 5.42822 1.5925 0
M  V30 10550 H 992.806 6.35171 1.46289 0
M  V30 10551 N 996.239 0.8527 1.3254 0
M  V30 10552 C 997.171 0.253181 2.27797 0
M  V30 10553 C 998.184 -0.573977 1.52346 0
M  V30 10554 O 999.373 -0.398786 1.73988 0
M  V30 10555 C 996.473 -0.661034 3.32391 0
M  V30 10556 C 995.646 0.12984 4.37207 0
M  V30 10557 C 994.705 -0.709837 5.2139 0
M  V30 10558 O 993.731 -0.144056 5.69018 0
M  V30 10559 N 994.933 -2.0249 5.44039 0
M  V30 10560 H 997.698 1.07171 2.79883 0
M  V30 10561 H 995.259 0.712491 1.45379 0
M  V30 10562 H 997.251 -1.22806 3.85617 0
M  V30 10563 H 995.821 -1.38025 2.80478 0
M  V30 10564 H 995.041 0.878289 3.84291 0
M  V30 10565 H 996.329 0.673141 5.04328 0
M  V30 10566 H 995.727 -2.50792 5.0707 0
M  V30 10567 H 994.284 -2.5401 6.00269 0
M  V30 10568 N 997.718 -1.45297 0.610449 0
M  V30 10569 C 999.129 -1.85715 0.191488 0
M  V30 10570 C 999.48 -1.51036 -1.25229 0
M  V30 10571 O 998.605 -0.938422 -1.94994 0
M  V30 10572 C 999.2 -3.37082 0.340747 0
M  V30 10573 C 997.759 -3.76393 -0.0235433 0
M  V30 10574 C 996.906 -2.69237 0.663849 0
M  V30 10575 H 999.857 -1.36058 0.816948 0
M  V30 10576 H 999.878 -3.78105 -0.426233 0
M  V30 10577 H 999.39 -3.62291 1.39164 0
M  V30 10578 H 997.491 -3.56801 -1.07351 0
M  V30 10579 H 997.604 -4.77653 0.372102 0
M  V30 10580 H 995.968 -2.54499 0.101204 0
M  V30 10581 H 996.751 -2.97281 1.71694 0
M  V30 10582 N 999.196 -0.349774 -1.5367 0
M  V30 10583 C 1000.44 0.244343 -2.00617 0
M  V30 10584 C 1000.76 1.50567 -1.23914 0
M  V30 10585 O 1000.03 1.92784 -0.348016 0
M  V30 10586 H 998.615 0.0932792 -0.741153 0
M  V30 10587 H 1001.28 -0.472367 -1.89089 0
M  V30 10588 H 1000.37 0.482433 -3.08349 0
M  V30 10589 N 1000.67 1.57404 -0.0785433 0
M  V30 10590 C 1001.9 1.98492 0.601292 0
M  V30 10591 C 1002.32 0.956832 1.61945 0
M  V30 10592 O 1001.68 -0.0767502 1.81137 0
M  V30 10593 C 1001.73 3.38596 1.24036 0
M  V30 10594 O 1000.83 3.38461 2.35622 0
M  V30 10595 H 1000.17 0.645882 0.154054 0
M  V30 10596 H 1002.7 2.04012 -0.155056 0
M  V30 10597 H 1002.71 3.75929 1.5856 0
M  V30 10598 H 1001.39 4.12952 0.494341 0
M  V30 10599 H 999.967 3.12906 2.02841 0
M  V30 10600 N 1002.15 -0.195058 1.56388 0
M  V30 10601 C 1003.11 -1.2254 1.93692 0
M  V30 10602 C 1004.11 -1.38437 0.81804 0
M  V30 10603 O 1005.3 -1.36248 1.08545 0
M  V30 10604 C 1002.44 -2.59476 2.21099 0
M  V30 10605 H 1003.63 -0.906544 2.8587 0
M  V30 10606 H 1001.18 -0.436577 1.50079 0
M  V30 10607 H 1001.92 -2.96417 1.31558 0
M  V30 10608 H 1001.7 -2.4931 3.02634 0
M  V30 10609 H 1003.19 -3.33777 2.50964 0
M  V30 10610 N 1003.63 -1.50653 -0.462772 0
M  V30 10611 C 1005.05 -1.38263 -0.797213 0
M  V30 10612 C 1005.25 -0.445172 -1.96521 0
M  V30 10613 O 1004.3 0.10913 -2.52264 0
M  V30 10614 C 1005.61 -2.798 -1.10146 0
M  V30 10615 C 1007.16 -2.88774 -1.20742 0
M  V30 10616 C 1007.64 -4.31163 -1.54476 0
M  V30 10617 N 1009.13 -4.34152 -1.61451 0
M  V30 10618 C 1009.86 -5.4133 -1.89074 0
M  V30 10619 N 1009.36 -6.58705 -2.1466 0
M  V30 10620 N 1011.15 -5.28783 -1.90645 0
M  V30 10621 H 1003.3 -2.10172 0.30684 0
M  V30 10622 H 1005.57 -0.945046 0.0747862 0
M  V30 10623 H 1005.27 -3.50276 -0.316207 0
M  V30 10624 H 1005.15 -3.17559 -2.03559 0
M  V30 10625 H 1007.53 -2.18512 -1.98334 0
M  V30 10626 H 1007.61 -2.54547 -0.252904 0
M  V30 10627 H 1007.26 -5.01965 -0.774207 0
M  V30 10628 H 1007.19 -4.62883 -2.51092 0
M  V30 10629 H 1009.68 -3.49519 -1.43684 0
M  V30 10630 H 1009.99 -7.36192 -2.35035 0
M  V30 10631 H 1008.34 -6.61866 -2.12035 0
M  V30 10632 H 1011.53 -4.36078 -1.70158 0
M  V30 10633 H 1011.7 -6.12396 -2.11836 0
M  V30 10634 N 1005.11 0.71652 -1.4037 0
M  V30 10635 C 1006.33 1.51069 -1.42102 0
M  V30 10636 C 1006.76 1.88087 -0.0222387 0
M  V30 10637 O 1006.12 1.53204 0.969448 0
M  V30 10638 C 1006.16 2.76307 -2.31704 0
M  V30 10639 O 1005.27 3.72975 -1.75964 0
M  V30 10640 H 1004.61 0.455502 -0.483129 0
M  V30 10641 H 1007.14 0.882514 -1.84588 0
M  V30 10642 H 1007.15 3.24846 -2.46859 0
M  V30 10643 H 1005.82 2.48698 -3.3335 0
M  V30 10644 H 1004.4 3.31818 -1.70151 0
M  V30 10645 N 1006.59 1.25851 0.948643 0
M  V30 10646 C 1007.81 1.13711 1.72851 0
M  V30 10647 C 1008.23 -0.308471 1.86263 0
M  V30 10648 O 1007.59 -1.21175 1.36465 0
M  V30 10649 C 1007.64 1.79271 3.13918 0
M  V30 10650 O 1007.36 3.18179 3.01154 0
M  V30 10651 C 1008.86 1.72988 4.08154 0
M  V30 10652 H 1006.08 0.396334 0.541443 0
M  V30 10653 H 1008.62 1.66329 1.18974 0
M  V30 10654 H 1006.78 1.30609 3.64719 0
M  V30 10655 H 1007.19 3.50507 3.90186 0
M  V30 10656 H 1008.67 2.2351 5.04725 0
M  V30 10657 H 1009.14 0.694866 4.33668 0
M  V30 10658 H 1009.75 2.21166 3.63271 0
M  V30 10659 N 1008.06 -1.15214 1.07534 0
M  V30 10660 C 1009.48 -1.38031 0.801228 0
M  V30 10661 C 1009.68 -1.92556 -0.593672 0
M  V30 10662 O 1008.74 -2.1325 -1.35206 0
M  V30 10663 C 1010.05 -2.34958 1.87657 0
M  V30 10664 C 1011.6 -2.48617 1.90154 0
M  V30 10665 C 1012.07 -3.48837 2.96777 0
M  V30 10666 N 1013.56 -3.56374 2.95892 0
M  V30 10667 C 1014.3 -4.33746 3.75036 0
M  V30 10668 N 1013.79 -5.14435 4.64036 0
M  V30 10669 N 1015.59 -4.28853 3.63375 0
M  V30 10670 H 1007.74 -0.781639 1.97495 0
M  V30 10671 H 1010 -0.406243 0.856546 0
M  V30 10672 H 1009.71 -2.02013 2.87895 0
M  V30 10673 H 1009.58 -3.3476 1.73827 0
M  V30 10674 H 1011.97 -2.80859 0.905666 0
M  V30 10675 H 1012.05 -1.48808 2.08062 0
M  V30 10676 H 1011.69 -3.1733 3.96565 0
M  V30 10677 H 1011.62 -4.48406 2.76116 0
M  V30 10678 H 1014.11 -2.98784 2.31379 0
M  V30 10679 H 1014.43 -5.70722 5.21053 0
M  V30 10680 H 1012.77 -5.13734 4.68084 0
M  V30 10681 H 1015.96 -3.64882 2.93221 0
M  V30 10682 H 1016.14 -4.88903 4.25298 0
M  V30 10683 N 1009.54 -0.859717 -1.32086 0
M  V30 10684 C 1010.49 -0.279715 -2.26278 0
M  V30 10685 C 1011.48 0.577348 -1.50185 0
M  V30 10686 O 1012.67 0.425903 -1.71799 0
M  V30 10687 C 1009.8 0.526622 -3.39237 0
M  V30 10688 C 1008.88 -0.343112 -4.2271 0
M  V30 10689 N 1009.27 -1.43176 -4.85113 0
M  V30 10690 C 1007.57 -0.133744 -4.45799 0
M  V30 10691 C 1008.27 -1.96725 -5.47425 0
M  V30 10692 N 1007.25 -1.26569 -5.2866 0
M  V30 10693 H 1011.05 -1.11191 -2.72055 0
M  V30 10694 H 1008.57 -0.706372 -1.46233 0
M  V30 10695 H 1010.56 0.958587 -4.0573 0
M  V30 10696 H 1009.22 1.35655 -2.95005 0
M  V30 10697 H 1010.23 -1.81469 -4.85066 0
M  V30 10698 H 1006.91 0.661064 -4.12233 0
M  V30 10699 H 1008.3 -2.88006 -6.07044 0
M  V30 10700 N 1011.02 1.44971 -0.618145 0
M  V30 10701 C 1011.95 2.33357 0.0815955 0
M  V30 10702 C 1012.93 1.47451 0.848072 0
M  V30 10703 O 1014.12 1.762 0.816532 0
M  V30 10704 C 1011.25 3.30324 1.07253 0
M  V30 10705 C 1010.2 4.25948 0.418563 0
M  V30 10706 C 1009.53 5.12685 1.51849 0
M  V30 10707 C 1010.83 5.18024 -0.66697 0
M  V30 10708 H 1012.52 2.92115 -0.656442 0
M  V30 10709 H 1010.07 1.40465 -0.317129 0
M  V30 10710 H 1012.02 3.91033 1.57069 0
M  V30 10711 H 1010.74 2.69748 1.8413 0
M  V30 10712 H 1009.4 3.66553 -0.0588308 0
M  V30 10713 H 1009.05 4.4847 2.2778 0
M  V30 10714 H 1008.75 5.7747 1.08637 0
M  V30 10715 H 1010.27 5.76264 2.01871 0
M  V30 10716 H 1011.69 5.72744 -0.252448 0
M  V30 10717 H 1010.09 5.91343 -1.02146 0
M  V30 10718 H 1011.16 4.59817 -1.53936 0
M  V30 10719 N 1012.5 0.357919 1.53482 0
M  V30 10720 C 1013.41 -0.500273 2.29204 0
M  V30 10721 C 1014.42 -1.09936 1.3487 0
M  V30 10722 O 1015.6 -1.11195 1.67921 0
M  V30 10723 C 1012.67 -1.62828 3.06085 0
M  V30 10724 C 1011.73 -1.05751 4.16071 0
M  V30 10725 C 1010.96 -2.13176 4.89277 0
M  V30 10726 O 1011.18 -3.34153 4.62274 0
M  V30 10727 O 1010.12 -1.76663 5.7539 0
M  V30 10728 H 1013.94 0.115696 3.0348 0
M  V30 10729 H 1011.53 0.122527 1.48897 0
M  V30 10730 H 1013.41 -2.28427 3.54117 0
M  V30 10731 H 1012.08 -2.22979 2.34653 0
M  V30 10732 H 1010.99 -0.365642 3.72309 0
M  V30 10733 H 1012.32 -0.500661 4.89647 0
M  V30 10734 N 1013.98 -1.5736 0.0868897 0
M  V30 10735 C 1015.23 -1.93229 -0.578387 0
M  V30 10736 C 1015.54 -0.970127 -1.69847 0
M  V30 10737 O 1016.74 -1.22222 -2.42434 0
M  V30 10738 C 1015.2 -3.43307 -1.0802 0
M  V30 10739 C 1014.81 -4.47999 0.00968135 0
M  V30 10740 C 1016.55 -3.88151 -1.71868 0
M  V30 10741 C 1014.46 -5.89223 -0.507029 0
M  V30 10742 H 1013.39 -0.721245 -0.219823 0
M  V30 10743 H 1016.04 -1.82787 0.161566 0
M  V30 10744 H 1014.42 -3.48873 -1.87359 0
M  V30 10745 H 1015.6 -4.54067 0.784865 0
M  V30 10746 H 1013.91 -4.12714 0.552845 0
M  V30 10747 H 1016.51 -4.91056 -2.11585 0
M  V30 10748 H 1016.85 -3.26347 -2.58464 0
M  V30 10749 H 1017.38 -3.85252 -0.991259 0
M  V30 10750 H 1014.12 -6.54708 0.322121 0
M  V30 10751 H 1013.64 -5.86643 -1.2494 0
M  V30 10752 H 1015.32 -6.39556 -0.978628 0
M  V30 10753 N 1015.45 0.186762 -1.56489 0
M  V30 10754 C 1016.36 1.25169 -1.98419 0
M  V30 10755 C 1017.38 1.49329 -0.893124 0
M  V30 10756 O 1018.56 1.61781 -1.19954 0
M  V30 10757 C 1015.62 2.57422 -2.32239 0
M  V30 10758 C 1014.68 2.4126 -3.55095 0
M  V30 10759 C 1013.92 3.67206 -3.87292 0
M  V30 10760 O 1014.14 4.71731 -3.20665 0
M  V30 10761 O 1013.07 3.62238 -4.80695 0
M  V30 10762 H 1016.9 0.925834 -2.89244 0
M  V30 10763 H 1014.48 0.392421 -1.44154 0
M  V30 10764 H 1016.37 3.35466 -2.5503 0
M  V30 10765 H 1015.04 2.89618 -1.44579 0
M  V30 10766 H 1013.95 1.61299 -3.37541 0
M  V30 10767 H 1015.28 2.13994 -4.43247 0
M  V30 10768 N 1016.93 1.50896 0.454776 0
M  V30 10769 C 1017.86 1.73885 1.5584 0
M  V30 10770 C 1018.84 0.588172 1.59607 0
M  V30 10771 O 1020.03 0.829054 1.75614 0
M  V30 10772 C 1017.16 1.84796 2.94054 0
M  V30 10773 C 1016.11 3.00111 3.05152 0
M  V30 10774 C 1015.44 2.96183 4.45174 0
M  V30 10775 C 1016.74 4.40365 2.80849 0
M  V30 10776 H 1018.43 2.66292 1.36854 0
M  V30 10777 H 1015.98 1.28142 0.656936 0
M  V30 10778 H 1017.93 1.99462 3.71204 0
M  V30 10779 H 1016.66 0.890235 3.14233 0
M  V30 10780 H 1015.31 2.85121 2.30438 0
M  V30 10781 H 1014.96 1.98224 4.62295 0
M  V30 10782 H 1014.66 3.73608 4.53532 0
M  V30 10783 H 1016.19 3.1292 5.24322 0
M  V30 10784 H 1017.6 4.55795 3.47741 0
M  V30 10785 H 1016 5.19363 3.00636 0
M  V30 10786 H 1017.07 4.51606 1.76579 0
M  V30 10787 N 1018.41 -0.709066 1.40748 0
M  V30 10788 C 1019.82 -1.28847 1.35112 0
M  V30 10789 C 1020.17 -1.9618 0.0277149 0
M  V30 10790 O 1019.3 -1.97955 -0.874233 0
M  V30 10791 C 1019.89 -2.34306 2.44716 0
M  V30 10792 C 1018.45 -2.87856 2.4252 0
M  V30 10793 C 1017.6 -1.61723 2.25257 0
M  V30 10794 H 1020.55 -0.504742 1.50459 0
M  V30 10795 H 1020.57 -3.15297 2.12998 0
M  V30 10796 H 1020.08 -1.85271 3.41022 0
M  V30 10797 H 1018.18 -3.41103 1.49931 0
M  V30 10798 H 1018.3 -3.39205 3.38344 0
M  V30 10799 H 1016.66 -1.87032 1.7289 0
M  V30 10800 H 1017.44 -1.14703 3.23571 0
M  V30 10801 N 1019.89 -1.26353 -0.941956 0
M  V30 10802 C 1020.84 -1.07842 -2.04056 0
M  V30 10803 C 1021.81 0.0163064 -1.66092 0
M  V30 10804 O 1022.99 -0.143313 -1.90261 0
M  V30 10805 C 1020.13 -0.716636 -3.37577 0
M  V30 10806 C 1019.24 -1.88754 -3.88582 0
M  V30 10807 C 1018.38 -1.46893 -5.10486 0
M  V30 10808 C 1017.42 -2.60819 -5.53751 0
M  V30 10809 N 1016.56 -2.19646 -6.66858 0
M  V30 10810 H 1021.4 -2.01856 -2.19221 0
M  V30 10811 H 1018.93 -1.00504 -1.07412 0
M  V30 10812 H 1020.89 -0.487768 -4.14339 0
M  V30 10813 H 1019.52 0.18653 -3.22261 0
M  V30 10814 H 1018.57 -2.22936 -3.08227 0
M  V30 10815 H 1019.88 -2.74264 -4.1663 0
M  V30 10816 H 1019.04 -1.20047 -5.94705 0
M  V30 10817 H 1017.78 -0.584721 -4.84182 0
M  V30 10818 H 1016.78 -2.88396 -4.6809 0
M  V30 10819 H 1018.01 -3.49838 -5.82057 0
M  V30 10820 H 1015.95 -1.33657 -6.4224 0
M  V30 10821 H 1015.87 -2.987 -6.94489 0
M  V30 10822 H 1017.14 -1.96009 -7.54454 0
M  V30 10823 N 1021.37 1.14642 -1.08144 0
M  V30 10824 C 1022.28 2.23257 -0.720668 0
M  V30 10825 C 1023.29 1.71866 0.271648 0
M  V30 10826 O 1024.47 2.01064 0.116266 0
M  V30 10827 C 1021.53 3.46447 -0.132542 0
M  V30 10828 C 1020.6 4.12789 -1.17913 0
M  V30 10829 C 1019.83 5.30099 -0.618971 0
M  V30 10830 O 1020.05 5.6762 0.562418 0
M  V30 10831 O 1018.99 5.86154 -1.36774 0
M  V30 10832 H 1022.81 2.56463 -1.62667 0
M  V30 10833 H 1020.4 1.22521 -0.854932 0
M  V30 10834 H 1022.28 4.20959 0.19277 0
M  V30 10835 H 1020.95 3.14971 0.746662 0
M  V30 10836 H 1019.86 3.40163 -1.55693 0
M  V30 10837 H 1021.19 4.48365 -2.03051 0
M  V30 10838 N 1022.85 0.866709 1.31628 0
M  V30 10839 C 1023.81 0.325041 2.26883 0
M  V30 10840 C 1024.81 -0.522133 1.52087 0
M  V30 10841 O 1026 -0.331908 1.71009 0
M  V30 10842 C 1023.13 -0.538756 3.36616 0
M  V30 10843 H 1024.32 1.16592 2.76308 0
M  V30 10844 H 1021.88 0.642029 1.42505 0
M  V30 10845 H 1022.61 -1.40096 2.92478 0
M  V30 10846 H 1022.4 0.0678115 3.92041 0
M  V30 10847 H 1023.89 -0.910123 4.07562 0
M  V30 10848 N 1024.32 -1.44642 0.625825 0
M  V30 10849 C 1025.55 -2.06971 0.133373 0
M  V30 10850 C 1025.97 -1.46421 -1.18078 0
M  V30 10851 O 1025.33 -0.563676 -1.72315 0
M  V30 10852 C 1025.38 -3.6059 0.0265097 0
M  V30 10853 O 1024.48 -3.99615 -1.01889 0
M  V30 10854 H 1023.82 -0.658873 0.0823568 0
M  V30 10855 H 1026.35 -1.85601 0.861002 0
M  V30 10856 H 1026.36 -4.07663 -0.1658 0
M  V30 10857 H 1025.04 -4.04043 0.985986 0
M  V30 10858 H 1023.62 -3.64183 -0.801577 0
M  V30 10859 N 1025.8 -0.366053 -1.5329 0
M  V30 10860 C 1027.03 0.22391 -2.05383 0
M  V30 10861 C 1027.44 1.42962 -1.23929 0
M  V30 10862 O 1026.78 1.81659 -0.273072 0
M  V30 10863 C 1026.84 0.681038 -3.5299 0
M  V30 10864 C 1026.51 -0.40805 -4.55175 0
M  V30 10865 C 1027.51 -1.25806 -5.04449 0
M  V30 10866 C 1025.19 -0.568428 -4.99073 0
M  V30 10867 C 1027.18 -2.25379 -5.96224 0
M  V30 10868 C 1024.87 -1.56752 -5.90654 0
M  V30 10869 C 1025.87 -2.40864 -6.39119 0
M  V30 10870 O 1025.56 -3.39069 -7.28895 0
M  V30 10871 H 1025.29 0.0429593 -0.674634 0
M  V30 10872 H 1027.84 -0.522897 -1.98633 0
M  V30 10873 H 1026.07 1.47945 -3.5728 0
M  V30 10874 H 1027.76 1.19406 -3.8794 0
M  V30 10875 H 1028.53 -1.14536 -4.71282 0
M  V30 10876 H 1024.41 0.0764858 -4.60937 0
M  V30 10877 H 1027.95 -2.91068 -6.33976 0
M  V30 10878 H 1023.85 -1.6807 -6.23236 0
M  V30 10879 H 1024.62 -3.34804 -7.46893 0
M  V30 10880 N 1027.28 1.57312 -0.0952337 0
M  V30 10881 C 1028.21 2.11059 0.893678 0
M  V30 10882 C 1029.22 1.04787 1.24594 0
M  V30 10883 O 1030.41 1.32233 1.19903 0
M  V30 10884 C 1027.51 2.57552 2.20272 0
M  V30 10885 C 1026.69 3.87661 2.02578 0
M  V30 10886 C 1025.75 4.2 3.16996 0
M  V30 10887 O 1024.77 4.89219 2.90953 0
M  V30 10888 N 1025.97 3.75414 4.42769 0
M  V30 10889 H 1028.74 2.96532 0.434632 0
M  V30 10890 H 1026.3 1.6165 0.0898661 0
M  V30 10891 H 1028.29 2.76232 2.95766 0
M  V30 10892 H 1026.86 1.7709 2.576 0
M  V30 10893 H 1026.08 3.78128 1.11413 0
M  V30 10894 H 1027.37 4.7278 1.88032 0
M  V30 10895 H 1026.77 3.1954 4.66809 0
M  V30 10896 H 1025.32 3.99249 5.15212 0
M  V30 10897 N 1028.76 -0.17846 1.56586 0
M  V30 10898 C 1029.67 -1.24115 1.9908 0
M  V30 10899 C 1030.68 -1.48854 0.901031 0
M  V30 10900 O 1031.86 -1.61142 1.2081 0
M  V30 10901 C 1028.92 -2.56187 2.33601 0
M  V30 10902 C 1027.99 -2.39373 3.56369 0
M  V30 10903 C 1027.22 -3.65147 3.89234 0
M  V30 10904 O 1027.44 -4.70024 3.23162 0
M  V30 10905 O 1026.38 -3.59683 4.82609 0
M  V30 10906 H 1030.2 -0.910482 2.89731 0
M  V30 10907 H 1027.79 -0.38477 1.4436 0
M  V30 10908 H 1029.67 -3.34109 2.56806 0
M  V30 10909 H 1028.34 -2.88847 1.46113 0
M  V30 10910 H 1027.25 -1.59506 3.38391 0
M  V30 10911 H 1028.58 -2.1164 4.44375 0
M  V30 10912 N 1030.24 -1.51135 -0.446768 0
M  V30 10913 C 1031.48 -1.63013 -1.19461 0
M  V30 10914 C 1031.8 -0.344067 -1.91941 0
M  V30 10915 O 1031.07 0.639666 -1.85162 0
M  V30 10916 H 1029.65 -0.600757 -0.443959 0
M  V30 10917 H 1032.32 -1.88024 -0.513137 0
M  V30 10918 H 1031.41 -2.45322 -1.92933 0
M  V30 10919 N 1031.71 0.701592 -1.41122 0
M  V30 10920 C 1032.99 1.45569 -1.30648 0
M  V30 10921 C 1033.37 2.10988 0.068744 0
M  V30 10922 O 1032.72 2.01228 1.08257 0
M  V30 10923 C 1032.93 2.48003 -2.45551 0
M  V30 10924 C 1034.28 3.13431 -2.86437 0
M  V30 10925 O 1035.3 2.58327 -2.45247 0
M  V30 10926 O 1034.16 4.13221 -3.57646 0
M  V30 10927 H 1031.25 0.648 -0.513834 0
M  V30 10928 H 1033.8 0.73258 -1.53073 0
M  V30 10929 H 1032.57 1.98276 -3.37346 0
M  V30 10930 H 1032.19 3.27832 -2.24971 0
M  V30 10931 N 1033.19 1.2685 0.935242 0
M  V30 10932 C 1034.14 1.05586 2.02078 0
M  V30 10933 C 1035.13 -0.013699 1.60894 0
M  V30 10934 O 1036.32 0.203956 1.75821 0
M  V30 10935 C 1033.45 0.697118 3.36148 0
M  V30 10936 C 1032.53 1.80444 3.83798 0
M  V30 10937 N 1032.92 3.04283 4.04037 0
M  V30 10938 C 1031.22 1.68939 4.12766 0
M  V30 10939 C 1031.92 3.7629 4.436 0
M  V30 10940 N 1030.9 3.04011 4.50642 0
M  V30 10941 H 1034.7 1.99577 2.15746 0
M  V30 10942 H 1032.21 1.17455 1.12153 0
M  V30 10943 H 1034.21 0.525915 4.1357 0
M  V30 10944 H 1032.87 -0.235247 3.23847 0
M  V30 10945 H 1033.88 3.40125 3.90558 0
M  V30 10946 H 1030.56 0.827341 4.0922 0
M  V30 10947 H 1031.95 4.82687 4.67401 0
M  V30 10948 N 1034.67 -1.14067 1.0875 0
M  V30 10949 C 1035.6 -2.21385 0.74236 0
M  V30 10950 C 1036.58 -1.67833 -0.276805 0
M  V30 10951 O 1037.77 -1.93647 -0.1464 0
M  V30 10952 C 1034.9 -3.46956 0.154644 0
M  V30 10953 C 1033.85 -4.13555 1.10255 0
M  V30 10954 C 1033.18 -5.3337 0.376877 0
M  V30 10955 C 1034.48 -4.6169 2.44213 0
M  V30 10956 H 1036.17 -2.50512 1.63964 0
M  V30 10957 H 1033.72 -1.20408 0.789807 0
M  V30 10958 H 1035.67 -4.21284 -0.0988419 0
M  V30 10959 H 1034.39 -3.17203 -0.777789 0
M  V30 10960 H 1033.05 -3.41186 1.34119 0
M  V30 10961 H 1032.7 -4.99879 -0.559472 0
M  V30 10962 H 1032.4 -5.78875 1.00884 0
M  V30 10963 H 1033.92 -6.10458 0.131527 0
M  V30 10964 H 1035.34 -5.27475 2.24595 0
M  V30 10965 H 1033.74 -5.17909 3.03134 0
M  V30 10966 H 1034.81 -3.76574 3.05483 0
M  V30 10967 N 1036.15 -0.873678 -1.31166 0
M  V30 10968 C 1037.4 -0.485497 -1.96182 0
M  V30 10969 C 1037.72 0.96621 -1.69379 0
M  V30 10970 O 1036.99 1.67783 -1.01121 0
M  V30 10971 H 1035.57 -0.176547 -0.725838 0
M  V30 10972 H 1038.23 -1.11428 -1.59906 0
M  V30 10973 H 1037.33 -0.646325 -3.05334 0
M  V30 10974 N 1037.63 1.44308 -0.633487 0
M  V30 10975 C 1038.87 2.02322 -0.139123 0
M  V30 10976 C 1039.21 1.49733 1.23667 0
M  V30 10977 O 1038.48 0.682353 1.82138 0
M  V30 10978 C 1038.76 3.59871 -0.128366 0
M  V30 10979 C 1038.62 4.22737 -1.53667 0
M  V30 10980 C 1039.94 4.36702 0.545834 0
M  V30 10981 H 1037.05 0.735161 -0.0520293 0
M  V30 10982 H 1039.7 1.7185 -0.810411 0
M  V30 10983 H 1037.85 3.85963 0.443263 0
M  V30 10984 H 1039.52 4.07744 -2.15737 0
M  V30 10985 H 1037.76 3.80142 -2.08985 0
M  V30 10986 H 1038.43 5.31757 -1.48116 0
M  V30 10987 H 1040.91 4.16057 0.0596879 0
M  V30 10988 H 1039.78 5.46407 0.522557 0
M  V30 10989 H 1040.05 4.11483 1.6166 0
M  V30 10990 N 1039.1 0.374177 1.53094 0
M  V30 10991 C 1040.35 -0.213981 2.00562 0
M  V30 10992 C 1040.67 -1.4916 1.26533 0
M  V30 10993 O 1041.87 -2.15889 1.64634 0
M  V30 10994 C 1040.33 -0.431876 3.57299 0
M  V30 10995 C 1039.94 0.831615 4.40214 0
M  V30 10996 C 1041.68 -0.977222 4.13099 0
M  V30 10997 C 1039.59 0.582831 5.88521 0
M  V30 10998 H 1038.52 -0.0837386 0.749336 0
M  V30 10999 H 1041.17 0.494245 1.76719 0
M  V30 11000 H 1039.55 -1.20158 3.7733 0
M  V30 11001 H 1040.72 1.60477 4.31953 0
M  V30 11002 H 1039.04 1.30081 3.9556 0
M  V30 11003 H 1041.64 -1.17881 5.21544 0
M  V30 11004 H 1041.98 -1.94189 3.68234 0
M  V30 11005 H 1042.51 -0.267473 3.969 0
M  V30 11006 H 1039.25 1.51807 6.37679 0
M  V30 11007 H 1038.77 -0.151666 5.99608 0
M  V30 11008 H 1040.45 0.211604 6.46654 0
M  V30 11009 N 1040.58 -1.57259 0.103575 0
M  V30 11010 C 1041.99 -1.81816 -0.424239 0
M  V30 11011 C 1042.34 -1.01976 -1.67617 0
M  V30 11012 O 1041.47 -0.251673 -2.14932 0
M  V30 11013 C 1042.06 -3.29783 -0.776453 0
M  V30 11014 C 1040.62 -3.55074 -1.24897 0
M  V30 11015 C 1039.77 -2.76172 -0.249875 0
M  V30 11016 H 1042.72 -1.55254 0.328913 0
M  V30 11017 H 1042.74 -3.43569 -1.63526 0
M  V30 11018 H 1042.25 -3.87865 0.134906 0
M  V30 11019 H 1040.36 -3.02332 -2.17775 0
M  V30 11020 H 1040.47 -4.637 -1.20495 0
M  V30 11021 H 1038.83 -2.43902 -0.733767 0
M  V30 11022 H 1039.62 -3.37007 0.65431 0
M  V30 11023 N 1042.06 0.170153 -1.56679 0
M  V30 11024 C 1043.48 0.521966 -1.50823 0
M  V30 11025 C 1043.68 1.84589 -0.808037 0
M  V30 11026 O 1042.73 2.49791 -0.368891 0
M  V30 11027 C 1044.05 0.553648 -2.95559 0
M  V30 11028 C 1045.59 0.640769 -3.06371 0
M  V30 11029 C 1046.07 0.703332 -4.52567 0
M  V30 11030 N 1047.56 0.76619 -4.56819 0
M  V30 11031 C 1048.29 0.835192 -5.67285 0
M  V30 11032 N 1047.79 0.864957 -6.87379 0
M  V30 11033 N 1049.58 0.874302 -5.55259 0
M  V30 11034 H 1041.73 -0.697952 -2.00605 0
M  V30 11035 H 1044 -0.251787 -0.913952 0
M  V30 11036 H 1043.7 -0.350498 -3.49949 0
M  V30 11037 H 1043.58 1.39973 -3.50268 0
M  V30 11038 H 1045.96 1.53534 -2.52015 0
M  V30 11039 H 1046.05 -0.232008 -2.54746 0
M  V30 11040 H 1045.69 -0.186986 -5.07556 0
M  V30 11041 H 1045.62 1.59227 -5.0195 0
M  V30 11042 H 1048.11 0.751424 -3.70354 0
M  V30 11043 H 1048.42 0.918814 -7.67318 0
M  V30 11044 H 1046.77 0.833215 -6.89987 0
M  V30 11045 H 1049.96 0.848057 -4.60354 0
M  V30 11046 H 1050.13 0.924615 -6.4137 0
M  V30 11047 N 1043.54 1.5137 0.438746 0
M  V30 11048 C 1044.49 1.73154 1.55308 0
M  V30 11049 C 1045.48 0.597825 1.58501 0
M  V30 11050 O 1046.69 0.77917 1.62262 0
M  V30 11051 H 1043.06 0.547083 0.51595 0
M  V30 11052 H 1045.03 2.66566 1.34108 0
M  V30 11053 C 1043.78 1.87242 2.92977 0
M  V30 11054 H 1043.1 2.73884 2.91252 0
M  V30 11055 H 1044.54 2.06497 3.70317 0
M  V30 11056 C 1043 0.631887 3.30921 0
M  V30 11057 O 1043.53 -0.214099 4.01129 0
M  V30 11058 N 1041.74 0.47639 2.86669 0
M  V30 11059 H 1041.29 1.16589 2.29706 0
M  V30 11060 H 1041.24 -0.352403 3.12419 0
M  V30 11061 N 1045.02 -0.694098 1.41492 0
M  V30 11062 C 1046.25 -1.48071 1.44078 0
M  V30 11063 C 1046.65 -1.89147 0.0448984 0
M  V30 11064 O 1046 -1.57441 -0.946464 0
M  V30 11065 C 1046.06 -2.77324 2.28761 0
M  V30 11066 C 1045.72 -2.58443 3.76904 0
M  V30 11067 C 1046.72 -2.24294 4.69029 0
M  V30 11068 C 1044.41 -2.74037 4.20962 0
M  V30 11069 C 1046.4 -2.0598 6.03201 0
M  V30 11070 C 1044.09 -2.5534 5.55198 0
M  V30 11071 C 1045.08 -2.21362 6.46133 0
M  V30 11072 O 1044.77 -2.02829 7.77892 0
M  V30 11073 H 1044.5 -0.462794 0.492745 0
M  V30 11074 H 1047.06 -0.861968 1.86438 0
M  V30 11075 H 1045.29 -3.4161 1.81217 0
M  V30 11076 H 1046.98 -3.39134 2.23031 0
M  V30 11077 H 1047.74 -2.11859 4.36281 0
M  V30 11078 H 1043.62 -2.99467 3.50486 0
M  V30 11079 H 1047.17 -1.79382 6.74142 0
M  V30 11080 H 1043.06 -2.67366 5.87525 0
M  V30 11081 H 1043.83 -2.17581 7.89051 0
M  V30 11082 N 1046.49 -1.27344 -0.928501 0
M  V30 11083 C 1047.4 -1.11812 -2.06241 0
M  V30 11084 C 1048.42 -0.048347 -1.73933 0
M  V30 11085 O 1049.6 -0.25467 -1.99783 0
M  V30 11086 C 1046.66 -0.766036 -3.38131 0
M  V30 11087 C 1045.72 -1.91659 -3.84142 0
M  V30 11088 C 1044.96 -1.58121 -5.09738 0
M  V30 11089 O 1045.18 -0.488742 -5.68302 0
M  V30 11090 O 1044.11 -2.42013 -5.51102 0
M  V30 11091 H 1047.94 -2.06967 -2.22258 0
M  V30 11092 H 1045.52 -1.06524 -1.04752 0
M  V30 11093 H 1047.41 -0.582982 -4.17348 0
M  V30 11094 H 1046.08 0.155998 -3.23324 0
M  V30 11095 H 1044.99 -2.1547 -3.05816 0
M  V30 11096 H 1046.32 -2.8188 -4.0349 0
M  V30 11097 N 1047.97 1.13488 -1.09353 0
M  V30 11098 C 1049.22 1.84383 -0.827488 0
M  V30 11099 C 1049.54 1.83892 0.648745 0
M  V30 11100 O 1048.81 1.29415 1.47066 0
M  V30 11101 H 1047.39 0.682732 -0.303127 0
M  V30 11102 H 1050.05 1.37477 -1.38152 0
M  V30 11103 H 1049.15 2.88919 -1.18035 0
M  V30 11104 N 1049.45 0.880621 1.30701 0
M  V30 11105 C 1050.7 0.492957 1.95583 0
M  V30 11106 C 1051.01 -0.961863 1.70316 0
M  V30 11107 O 1052.22 -1.45617 2.29146 0
M  V30 11108 C 1050.68 0.830656 3.50183 0
M  V30 11109 C 1050.28 2.30295 3.84276 0
M  V30 11110 C 1052.03 0.511979 4.21401 0
M  V30 11111 C 1049.93 2.58251 5.32034 0
M  V30 11112 H 1048.86 0.18062 0.732047 0
M  V30 11113 H 1051.52 1.075 1.48715 0
M  V30 11114 H 1049.9 0.177752 3.95601 0
M  V30 11115 H 1051.07 2.99981 3.49783 0
M  V30 11116 H 1049.39 2.58873 3.2615 0
M  V30 11117 H 1051.98 0.697935 5.30125 0
M  V30 11118 H 1052.33 -0.548327 4.12673 0
M  V30 11119 H 1052.86 1.12189 3.81652 0
M  V30 11120 H 1049.6 3.63005 5.45809 0
M  V30 11121 H 1049.12 1.9317 5.67843 0
M  V30 11122 H 1050.8 2.43527 5.99419 0
M  V30 11123 N 1050.93 -1.4397 0.641131 0
M  V30 11124 C 1052.18 -2.02246 0.14985 0
M  V30 11125 C 1052.51 -1.50387 -1.22871 0
M  V30 11126 O 1051.78 -0.692003 -1.81773 0
M  V30 11127 C 1052.07 -3.59798 0.147449 0
M  V30 11128 C 1051.92 -4.21916 1.55907 0
M  V30 11129 C 1053.24 -4.36985 -0.522667 0
M  V30 11130 H 1050.36 -0.734875 0.0559274 0
M  V30 11131 H 1053 -1.71418 0.819513 0
M  V30 11132 H 1051.15 -3.86193 -0.422789 0
M  V30 11133 H 1052.82 -4.06594 2.17896 0
M  V30 11134 H 1051.06 -3.79028 2.10998 0
M  V30 11135 H 1051.74 -5.30964 1.50934 0
M  V30 11136 H 1054.21 -4.16083 -0.0376226 0
M  V30 11137 H 1053.09 -5.46676 -0.493572 0
M  V30 11138 H 1053.35 -4.12335 -1.59475 0
M  V30 11139 N 1052.41 -0.382291 -1.52893 0
M  V30 11140 C 1053.36 0.471187 -2.27778 0
M  V30 11141 C 1054.35 1.0691 -1.31402 0
M  V30 11142 O 1055.56 1.01038 -1.48967 0
M  V30 11143 H 1051.93 0.170696 -0.732371 0
M  V30 11144 H 1053.9 -0.181954 -2.97845 0
M  V30 11145 C 1052.65 1.59012 -3.09209 0
M  V30 11146 H 1051.97 1.13935 -3.83222 0
M  V30 11147 H 1053.41 2.16167 -3.64757 0
M  V30 11148 C 1051.87 2.54212 -2.21084 0
M  V30 11149 O 1052.4 3.57447 -1.83288 0
M  V30 11150 N 1050.61 2.23789 -1.85383 0
M  V30 11151 H 1050.16 1.39872 -2.16318 0
M  V30 11152 H 1050.11 2.87737 -1.26708 0
M  V30 11153 N 1053.89 1.57202 -0.111913 0
M  V30 11154 C 1055.3 1.57713 0.244702 0
M  V30 11155 C 1055.5 1.12419 1.67225 0
M  V30 11156 O 1054.56 0.808329 2.39212 0
M  V30 11157 C 1055.87 3.00695 0.0178289 0
M  V30 11158 C 1057.42 3.12887 0.0842781 0
M  V30 11159 C 1057.89 4.57856 -0.114812 0
M  V30 11160 N 1059.38 4.6316 -0.0605423 0
M  V30 11161 C 1060.12 5.73086 -0.189594 0
M  V30 11162 N 1059.62 6.91787 -0.37442 0
M  V30 11163 N 1061.41 5.6195 -0.12967 0
M  V30 11164 H 1053.56 1.84947 -1.04443 0
M  V30 11165 H 1055.82 0.854418 -0.4107 0
M  V30 11166 H 1055.53 3.38093 -0.968802 0
M  V30 11167 H 1055.4 3.69611 0.752815 0
M  V30 11168 H 1057.79 2.7535 1.06143 0
M  V30 11169 H 1057.87 2.46528 -0.682474 0
M  V30 11170 H 1057.51 4.9609 -1.0889 0
M  V30 11171 H 1057.44 5.22297 0.671839 0
M  V30 11172 H 1059.94 3.77817 0.0790856 0
M  V30 11173 H 1060.25 7.71406 -0.463948 0
M  V30 11174 H 1058.59 6.93788 -0.410303 0
M  V30 11175 H 1061.78 4.68098 0.0137115 0
M  V30 11176 H 1061.96 6.47578 -0.233688 0
M  V30 11177 N 1055.36 -0.161842 1.56767 0
M  V30 11178 C 1056.61 -0.878224 1.82798 0
M  V30 11179 C 1056.94 -1.81481 0.691242 0
M  V30 11180 O 1056.22 -1.92075 -0.30618 0
M  V30 11181 C 1056.5 -1.66565 3.19262 0
M  V30 11182 C 1056.35 -0.751551 4.43477 0
M  V30 11183 C 1057.67 -2.63134 3.52773 0
M  V30 11184 H 1054.79 -0.317828 0.664947 0
M  V30 11185 H 1057.43 -0.14402 1.89453 0
M  V30 11186 H 1055.58 -2.29157 3.13719 0
M  V30 11187 H 1057.26 -0.137783 4.61094 0
M  V30 11188 H 1055.5 -0.0601785 4.33758 0
M  V30 11189 H 1056.17 -1.33823 5.35533 0
M  V30 11190 H 1058.65 -2.10666 3.5883 0
M  V30 11191 H 1057.52 -3.15289 4.49315 0
M  V30 11192 H 1057.78 -3.43786 2.77963 0
M  V30 11193 N 1056.84 -1.516 -0.430713 0
M  V30 11194 C 1058.07 -1.68414 -1.20185 0
M  V30 11195 C 1058.48 -0.384297 -1.84847 0
M  V30 11196 O 1057.84 0.637808 -1.70992 0
M  V30 11197 C 1057.89 -2.80451 -2.28099 0
M  V30 11198 O 1057.61 -4.05399 -1.66081 0
M  V30 11199 C 1059.11 -3.0859 -3.18256 0
M  V30 11200 H 1056.33 -0.564982 -0.361989 0
M  V30 11201 H 1058.88 -1.9805 -0.50954 0
M  V30 11202 H 1057.03 -2.53395 -2.93036 0
M  V30 11203 H 1057.45 -4.67671 -2.37453 0
M  V30 11204 H 1058.92 -3.9055 -3.90096 0
M  V30 11205 H 1059.4 -2.21264 -3.79393 0
M  V30 11206 H 1060 -3.37331 -2.59014 0
M  V30 11207 N 1058.32 0.686584 -1.41858 0
M  V30 11208 C 1059.28 1.78214 -1.44126 0
M  V30 11209 C 1060.28 1.57366 -0.330541 0
M  V30 11210 O 1061.47 1.63874 -0.590837 0
M  V30 11211 C 1058.6 3.16704 -1.26142 0
M  V30 11212 H 1059.8 1.77594 -2.41661 0
M  V30 11213 H 1057.35 0.895085 -1.28132 0
M  V30 11214 H 1058.09 3.22957 -0.294823 0
M  V30 11215 H 1057.87 3.33238 -2.06627 0
M  V30 11216 H 1059.36 3.96658 -1.30584 0
M  V30 11217 N 1059.8 1.27835 0.921735 0
M  V30 11218 C 1061.21 1.05369 1.19873 0
M  V30 11219 C 1061.41 -0.208997 2.00413 0
M  V30 11220 O 1060.47 -0.912861 2.35421 0
M  V30 11221 C 1061.78 2.29658 1.94108 0
M  V30 11222 C 1063.33 2.34756 2.07023 0
M  V30 11223 C 1063.81 3.5879 2.84664 0
M  V30 11224 N 1065.3 3.59383 2.9223 0
M  V30 11225 C 1066.03 4.52029 3.52785 0
M  V30 11226 N 1065.53 5.54986 4.14683 0
M  V30 11227 N 1067.32 4.39641 3.50246 0
M  V30 11228 H 1059.47 2.08903 0.383819 0
M  V30 11229 H 1061.73 0.919065 0.232429 0
M  V30 11230 H 1061.44 3.21604 1.4235 0
M  V30 11231 H 1061.31 2.35444 2.94696 0
M  V30 11232 H 1063.7 1.43312 2.57965 0
M  V30 11233 H 1063.78 2.32969 1.05636 0
M  V30 11234 H 1063.43 4.50574 2.34404 0
M  V30 11235 H 1063.36 3.57829 3.86349 0
M  V30 11236 H 1065.85 2.84927 2.48244 0
M  V30 11237 H 1066.16 6.21837 4.58845 0
M  V30 11238 H 1064.51 5.58822 4.13211 0
M  V30 11239 H 1067.7 3.58413 3.01094 0
M  V30 11240 H 1067.87 5.12033 3.97148 0
M  V30 11241 N 1061.28 -1.12907 1.09954 0
M  V30 11242 C 1062.52 -1.84306 0.838912 0
M  V30 11243 C 1062.85 -1.83825 -0.635508 0
M  V30 11244 O 1062.11 -1.27556 -1.48418 0
M  V30 11245 C 1062.4 -3.31885 1.32616 0
M  V30 11246 C 1062.07 -3.52542 2.81114 0
M  V30 11247 C 1060.73 -3.57888 3.21667 0
M  V30 11248 C 1063.08 -3.60065 3.76833 0
M  V30 11249 C 1060.41 -3.68296 4.567 0
M  V30 11250 C 1062.76 -3.72001 5.11662 0
M  V30 11251 C 1061.43 -3.75602 5.51797 0
M  V30 11252 H 1060.7 -0.674422 0.30698 0
M  V30 11253 H 1063.35 -1.33261 1.37527 0
M  V30 11254 H 1061.65 -3.85318 0.709719 0
M  V30 11255 H 1063.35 -3.85588 1.10105 0
M  V30 11256 H 1059.94 -3.4904 2.48735 0
M  V30 11257 H 1064.12 -3.55209 3.46612 0
M  V30 11258 H 1059.38 -3.69352 4.87226 0
M  V30 11259 H 1063.55 -3.76765 5.8568 0
M  V30 11260 H 1061.18 -3.83419 6.56425 0
M  V30 11261 N 1062.75 -0.88754 -1.30232 0
M  V30 11262 C 1064 -0.506277 -1.95656 0
M  V30 11263 C 1064.32 0.948191 -1.70395 0
M  V30 11264 O 1063.59 1.66701 -1.02895 0
M  V30 11265 H 1062.17 -0.184235 -0.723924 0
M  V30 11266 H 1064.83 -1.13118 -1.58715 0
M  V30 11267 H 1063.93 -0.678673 -3.04632 0
M  V30 11268 N 1064.23 1.43628 -0.648757 0
M  V30 11269 C 1065.16 2.33478 0.0320785 0
M  V30 11270 C 1066.14 1.49217 0.816605 0
M  V30 11271 O 1067.33 1.77892 0.778974 0
M  V30 11272 C 1064.46 3.32525 1.00222 0
M  V30 11273 C 1063.41 4.2674 0.328119 0
M  V30 11274 C 1062.74 5.15791 1.4094 0
M  V30 11275 C 1064.04 5.16493 -0.776701 0
M  V30 11276 H 1065.73 2.90657 -0.718257 0
M  V30 11277 H 1063.28 1.3976 -0.346852 0
M  V30 11278 H 1065.23 3.94277 1.4874 0
M  V30 11279 H 1063.96 2.73593 1.78366 0
M  V30 11280 H 1062.61 3.66346 -0.136569 0
M  V30 11281 H 1062.26 4.53201 2.18216 0
M  V30 11282 H 1061.96 5.79645 0.963631 0
M  V30 11283 H 1063.49 5.80416 1.89603 0
M  V30 11284 H 1064.9 5.7208 -0.373878 0
M  V30 11285 H 1063.3 5.89043 -1.14667 0
M  V30 11286 H 1064.37 4.56448 -1.63654 0
M  V30 11287 N 1065.71 0.390394 1.52688 0
M  V30 11288 C 1066.99 -0.249068 1.94008 0
M  V30 11289 C 1067.37 -1.64263 1.32593 0
M  V30 11290 O 1066.72 -2.23086 0.494448 0
M  V30 11291 C 1066.93 -0.274318 3.4792 0
M  V30 11292 C 1068.27 -0.502743 4.21613 0
M  V30 11293 O 1069.3 -0.35448 3.54432 0
M  V30 11294 O 1068.16 -0.79334 5.40711 0
M  V30 11295 H 1065.25 -0.155116 0.812323 0
M  V30 11296 H 1067.8 0.44498 1.63762 0
M  V30 11297 H 1066.57 0.701766 3.84956 0
M  V30 11298 H 1066.19 -1.01324 3.84473 0
M  V30 11299 N 1067.19 -1.57141 0.120249 0
M  V30 11300 C 1068.15 -2.14213 -0.815185 0
M  V30 11301 C 1069.15 -1.07731 -1.19376 0
M  V30 11302 O 1070.34 -1.33502 -1.11906 0
M  V30 11303 C 1067.47 -2.68339 -2.10255 0
M  V30 11304 H 1068.67 -2.98197 -0.319166 0
M  V30 11305 H 1066.22 -1.55767 -0.128997 0
M  V30 11306 H 1066.95 -1.87946 -2.64285 0
M  V30 11307 H 1066.74 -3.46216 -1.84057 0
M  V30 11308 H 1068.23 -3.124 -2.77121 0
M  V30 11309 N 1068.67 0.153526 -1.5685 0
M  V30 11310 C 1069.89 0.886343 -1.87507 0
M  V30 11311 C 1070.32 1.74244 -0.708565 0
M  V30 11312 O 1069.67 1.78045 0.341997 0
M  V30 11313 C 1069.72 1.72428 -3.16703 0
M  V30 11314 O 1068.83 2.82784 -3.00178 0
M  V30 11315 H 1068.17 0.247259 -0.616246 0
M  V30 11316 H 1070.7 0.146306 -2.04076 0
M  V30 11317 H 1070.71 2.12062 -3.4856 0
M  V30 11318 H 1069.38 1.09558 -4.01211 0
M  V30 11319 H 1067.96 2.46604 -2.79716 0
M  V30 11320 N 1070.14 1.51827 0.422667 0
M  V30 11321 C 1071.08 1.70409 1.53275 0
M  V30 11322 C 1072.09 0.584584 1.51942 0
M  V30 11323 O 1073.28 0.859349 1.56453 0
M  V30 11324 C 1070.38 1.717 2.92185 0
M  V30 11325 C 1069.55 3.00472 3.17861 0
M  V30 11326 C 1068.61 2.93755 4.36571 0
M  V30 11327 O 1067.64 3.67682 4.3451 0
M  V30 11328 N 1068.84 2.10612 5.40946 0
M  V30 11329 H 1071.6 2.66176 1.37734 0
M  V30 11330 H 1069.16 1.49895 0.611799 0
M  V30 11331 H 1071.16 1.64756 3.69645 0
M  V30 11332 H 1069.73 0.834655 3.01251 0
M  V30 11333 H 1068.95 3.21171 2.28567 0
M  V30 11334 H 1070.23 3.85684 3.31851 0
M  V30 11335 H 1069.63 1.49954 5.45463 0
M  V30 11336 H 1068.19 2.09535 6.17202 0
M  V30 11337 N 1071.62 -0.679052 1.4222 0
M  V30 11338 C 1072.55 -1.80455 1.41311 0
M  V30 11339 C 1073.57 -1.59767 0.312799 0
M  V30 11340 O 1074.76 -1.68964 0.575612 0
M  V30 11341 C 1071.86 -3.17492 1.18541 0
M  V30 11342 C 1071.03 -3.65066 2.40926 0
M  V30 11343 C 1070.09 -4.80823 2.13765 0
M  V30 11344 O 1069.11 -4.91587 2.86934 0
M  V30 11345 N 1070.32 -5.69233 1.13813 0
M  V30 11346 H 1073.08 -1.81722 2.38322 0
M  V30 11347 H 1070.64 -0.861988 1.37045 0
M  V30 11348 H 1072.63 -3.92581 0.982958 0
M  V30 11349 H 1071.2 -3.1115 0.300691 0
M  V30 11350 H 1070.42 -2.80702 2.76767 0
M  V30 11351 H 1071.71 -3.93593 3.22431 0
M  V30 11352 H 1071.11 -5.63185 0.532887 0
M  V30 11353 H 1069.67 -6.44152 0.995554 0
M  V30 11354 N 1073.1 -1.28322 -0.914942 0
M  V30 11355 C 1074.35 -1.14785 -1.65853 0
M  V30 11356 C 1074.66 0.303135 -1.93237 0
M  V30 11357 O 1075.87 0.559606 -2.6567 0
M  V30 11358 C 1074.32 -2.00652 -2.98776 0
M  V30 11359 C 1073.93 -3.50483 -2.79044 0
M  V30 11360 C 1075.68 -1.95798 -3.76648 0
M  V30 11361 C 1073.58 -4.28505 -4.076 0
M  V30 11362 H 1072.51 -0.425987 -0.622135 0
M  V30 11363 H 1075.16 -1.52844 -1.01543 0
M  V30 11364 H 1073.55 -1.55447 -3.64214 0
M  V30 11365 H 1074.72 -4.03636 -2.22293 0
M  V30 11366 H 1073.04 -3.5685 -2.14586 0
M  V30 11367 H 1075.63 -2.51359 -4.71935 0
M  V30 11368 H 1075.98 -0.934455 -4.05677 0
M  V30 11369 H 1076.51 -2.38965 -3.18026 0
M  V30 11370 H 1073.25 -5.31433 -3.83744 0
M  V30 11371 H 1072.77 -3.80125 -4.63966 0
M  V30 11372 H 1074.45 -4.3836 -4.75867 0
M  V30 11373 N 1074.58 1.12322 -1.10551 0
M  V30 11374 C 1075.99 1.35858 -0.837543 0
M  V30 11375 C 1076.19 1.94062 0.54241 0
M  V30 11376 O 1075.25 2.1676 1.29505 0
M  V30 11377 C 1076.56 2.299 -1.9382 0
M  V30 11378 C 1078.11 2.43488 -1.96679 0
M  V30 11379 C 1078.59 3.40846 -3.05922 0
M  V30 11380 N 1080.08 3.48404 -3.05236 0
M  V30 11381 C 1080.81 4.2365 -3.86405 0
M  V30 11382 N 1080.31 5.01951 -4.77512 0
M  V30 11383 N 1082.1 4.19068 -3.74618 0
M  V30 11384 H 1074.25 0.729002 -1.99498 0
M  V30 11385 H 1076.52 0.38339 -0.867016 0
M  V30 11386 H 1076.22 1.94309 -2.9315 0
M  V30 11387 H 1076.1 3.30033 -1.82641 0
M  V30 11388 H 1078.48 2.78359 -0.979813 0
M  V30 11389 H 1078.56 1.43239 -2.11934 0
M  V30 11390 H 1078.21 3.06704 -4.04839 0
M  V30 11391 H 1078.14 4.40927 -2.87907 0
M  V30 11392 H 1080.63 2.92545 -2.39219 0
M  V30 11393 H 1080.94 5.56707 -5.36002 0
M  V30 11394 H 1079.29 5.01143 -4.8154 0
M  V30 11395 H 1082.48 3.5698 -3.02792 0
M  V30 11396 H 1082.65 4.77455 -4.38111 0
M  V30 11397 N 1076.06 0.894434 1.2976 0
M  V30 11398 C 1076.99 0.3847 2.30309 0
M  V30 11399 C 1077.97 -0.537486 1.61385 0
M  V30 11400 O 1079.15 -0.449332 1.8893 0
M  V30 11401 C 1076.28 -0.393311 3.45066 0
M  V30 11402 C 1075.24 0.437968 4.25753 0
M  V30 11403 C 1074.56 -0.467221 5.32655 0
M  V30 11404 C 1075.86 1.6851 4.9437 0
M  V30 11405 H 1077.56 1.22496 2.73194 0
M  V30 11406 H 1075.1 0.590471 1.31337 0
M  V30 11407 H 1077.06 -0.760614 4.14479 0
M  V30 11408 H 1075.78 -1.2673 3.0101 0
M  V30 11409 H 1074.44 0.787533 3.58041 0
M  V30 11410 H 1074.09 -1.33919 4.84845 0
M  V30 11411 H 1073.79 0.0852482 5.87538 0
M  V30 11412 H 1075.31 -0.830833 6.04921 0
M  V30 11413 H 1076.72 1.38784 5.56248 0
M  V30 11414 H 1075.12 2.17849 5.59162 0
M  V30 11415 H 1076.19 2.42412 4.19958 0
M  V30 11416 N 1077.53 -1.43282 0.656365 0
M  V30 11417 C 1078.44 -2.34576 -0.033864 0
M  V30 11418 C 1079.46 -1.5406 -0.808793 0
M  V30 11419 O 1080.64 -1.867 -0.755322 0
M  V30 11420 C 1077.7 -3.32378 -0.986197 0
M  V30 11421 C 1076.76 -4.28797 -0.207851 0
M  V30 11422 C 1076 -5.21927 -1.11482 0
M  V30 11423 O 1076.22 -5.19554 -2.35414 0
M  V30 11424 O 1075.15 -5.99045 -0.585536 0
M  V30 11425 H 1078.98 -2.95099 0.717668 0
M  V30 11426 H 1076.56 -1.43475 0.416556 0
M  V30 11427 H 1078.45 -3.9251 -1.53341 0
M  V30 11428 H 1077.12 -2.74354 -1.7179 0
M  V30 11429 H 1076.03 -3.72134 0.383022 0
M  V30 11430 H 1077.36 -4.89811 0.48435 0
M  V30 11431 N 1079.01 -0.398486 -1.52479 0
M  V30 11432 C 1079.98 0.420206 -2.25315 0
M  V30 11433 C 1080.98 0.982559 -1.27289 0
M  V30 11434 O 1082.17 0.863113 -1.51314 0
M  V30 11435 C 1079.3 1.59045 -3.01525 0
M  V30 11436 H 1080.49 -0.217599 -2.9911 0
M  V30 11437 H 1078.04 -0.150784 -1.55571 0
M  V30 11438 H 1078.78 2.26542 -2.32054 0
M  V30 11439 H 1078.56 1.19382 -3.73484 0
M  V30 11440 H 1080.05 2.16984 -3.56802 0
M  V30 11441 N 1080.49 1.57075 -0.12858 0
M  V30 11442 C 1081.4 2.19369 0.831533 0
M  V30 11443 C 1082.42 1.17258 1.28555 0
M  V30 11444 O 1083.59 1.49766 1.34656 0
M  V30 11445 C 1080.66 2.78846 2.06024 0
M  V30 11446 C 1079.72 3.96024 1.65722 0
M  V30 11447 C 1078.95 4.52655 2.82735 0
M  V30 11448 O 1079.18 4.08175 3.98434 0
M  V30 11449 O 1078.11 5.43198 2.59268 0
M  V30 11450 H 1081.94 3.01887 0.331352 0
M  V30 11451 H 1079.52 1.49081 0.0975226 0
M  V30 11452 H 1081.4 3.16721 2.77967 0
M  V30 11453 H 1080.08 1.99353 2.5503 0
M  V30 11454 H 1078.98 3.62899 0.908574 0
M  V30 11455 H 1080.32 4.76981 1.21449 0
M  V30 11456 N 1081.97 -0.145205 1.5693 0
M  V30 11457 C 1082.88 -1.19864 2.01667 0
M  V30 11458 C 1083.9 -1.46909 0.932402 0
M  V30 11459 O 1085.07 -1.58543 1.24201 0
M  V30 11460 C 1082.14 -2.51174 2.38982 0
M  V30 11461 C 1081.2 -2.3176 3.61366 0
M  V30 11462 C 1080.43 -3.56809 3.96892 0
M  V30 11463 O 1080.65 -4.63063 3.33059 0
M  V30 11464 O 1079.59 -3.49366 4.9013 0
M  V30 11465 H 1083.41 -0.848821 2.91597 0
M  V30 11466 H 1081 -0.354063 1.45144 0
M  V30 11467 H 1082.88 -3.28587 2.63835 0
M  V30 11468 H 1081.56 -2.85683 1.52207 0
M  V30 11469 H 1080.46 -1.52293 3.41698 0
M  V30 11470 H 1081.8 -2.02167 4.48764 0
M  V30 11471 N 1083.45 -1.52049 -0.414609 0
M  V30 11472 C 1084.36 -1.7788 -1.52958 0
M  V30 11473 C 1085.37 -0.66408 -1.60829 0
M  V30 11474 O 1086.55 -0.948882 -1.77646 0
M  V30 11475 C 1083.61 -1.91906 -2.88744 0
M  V30 11476 C 1082.68 -3.15803 -2.90804 0
M  V30 11477 C 1081.91 -3.29151 -4.20114 0
M  V30 11478 O 1082.13 -2.47892 -5.13718 0
M  V30 11479 O 1081.07 -4.2227 -4.28919 0
M  V30 11480 H 1084.89 -2.72506 -1.34067 0
M  V30 11481 H 1082.48 -1.36826 -0.599918 0
M  V30 11482 H 1084.36 -2.02986 -3.6929 0
M  V30 11483 H 1083.03 -1.00468 -3.07714 0
M  V30 11484 H 1081.94 -3.10185 -2.09131 0
M  V30 11485 H 1083.27 -4.07004 -2.76783 0
M  V30 11486 N 1084.93 0.6715 -1.42579 0
M  V30 11487 C 1085.87 1.78496 -1.46314 0
M  V30 11488 C 1086.84 1.63091 -0.314743 0
M  V30 11489 O 1088.03 1.83597 -0.519292 0
M  V30 11490 C 1085.17 3.16548 -1.37447 0
M  V30 11491 C 1084.28 3.43216 -2.62348 0
M  V30 11492 C 1083.42 4.71014 -2.456 0
M  V30 11493 C 1082.45 4.90728 -3.65859 0
M  V30 11494 N 1081.59 6.09769 -3.48032 0
M  V30 11495 H 1086.43 1.74638 -2.41466 0
M  V30 11496 H 1083.97 0.852491 -1.19879 0
M  V30 11497 H 1085.93 3.96329 -1.30303 0
M  V30 11498 H 1084.56 3.19522 -0.458891 0
M  V30 11499 H 1083.61 2.57664 -2.79846 0
M  V30 11500 H 1084.92 3.53675 -3.51732 0
M  V30 11501 H 1084.07 5.58892 -2.3606 0
M  V30 11502 H 1082.81 4.62843 -1.53712 0
M  V30 11503 H 1081.82 4.01291 -3.75827 0
M  V30 11504 H 1083.04 5.00741 -4.58732 0
M  V30 11505 H 1080.99 6.02765 -2.58864 0
M  V30 11506 H 1080.91 6.21104 -4.31005 0
M  V30 11507 H 1082.17 7.00317 -3.42311 0
M  V30 11508 N 1086.4 1.28806 0.908124 0
M  V30 11509 C 1087.33 1.15758 2.02787 0
M  V30 11510 C 1088.31 0.053911 1.70015 0
M  V30 11511 O 1089.5 0.231901 1.9281 0
M  V30 11512 C 1086.63 0.824526 3.37371 0
M  V30 11513 C 1085.58 1.88359 3.84324 0
M  V30 11514 C 1084.91 1.40404 5.15937 0
M  V30 11515 C 1086.21 3.29108 4.05568 0
M  V30 11516 H 1087.9 2.09431 2.13961 0
M  V30 11517 H 1085.45 1.00831 1.02806 0
M  V30 11518 H 1087.4 0.71999 4.15204 0
M  V30 11519 H 1086.13 -0.147902 3.26265 0
M  V30 11520 H 1084.79 1.97736 3.087 0
M  V30 11521 H 1084.43 0.420515 5.01239 0
M  V30 11522 H 1084.13 2.11224 5.48323 0
M  V30 11523 H 1085.66 1.31283 5.9632 0
M  V30 11524 H 1087.07 3.2262 4.73909 0
M  V30 11525 H 1085.47 3.97812 4.49294 0
M  V30 11526 H 1086.54 3.72709 3.10187 0
M  V30 11527 N 1087.88 -1.11734 1.11145 0
M  V30 11528 C 1088.84 -2.15868 0.770303 0
M  V30 11529 C 1089.84 -1.59438 -0.208842 0
M  V30 11530 O 1091.03 -1.74193 0.0152516 0
M  V30 11531 C 1088.17 -3.40603 0.142303 0
M  V30 11532 H 1089.36 -2.4756 1.69276 0
M  V30 11533 H 1086.91 -1.26867 0.912929 0
M  V30 11534 H 1087.65 -3.14517 -0.790526 0
M  V30 11535 H 1087.43 -3.8284 0.847087 0
M  V30 11536 H 1088.92 -4.17523 -0.0803608 0
M  V30 11537 N 1089.36 -0.901303 -1.29284 0
M  V30 11538 C 1090.31 -0.351562 -2.25273 0
M  V30 11539 C 1091.29 0.529276 -1.51946 0
M  V30 11540 O 1092.49 0.371031 -1.73068 0
M  V30 11541 C 1089.61 0.41843 -3.4074 0
M  V30 11542 C 1088.7 -0.47742 -4.21404 0
M  V30 11543 N 1089.09 -1.58537 -4.80312 0
M  V30 11544 C 1087.39 -0.275504 -4.45148 0
M  V30 11545 C 1088.09 -2.14041 -5.40889 0
M  V30 11546 N 1087.07 -1.43324 -5.24365 0
M  V30 11547 H 1090.87 -1.1979 -2.68379 0
M  V30 11548 H 1088.38 -0.752538 -1.43912 0
M  V30 11549 H 1090.38 0.829022 -4.08574 0
M  V30 11550 H 1089.04 1.26201 -2.99171 0
M  V30 11551 H 1090.05 -1.96809 -4.79047 0
M  V30 11552 H 1086.73 0.529581 -4.14128 0
M  V30 11553 H 1088.12 -3.07173 -5.97574 0
M  V30 11554 N 1090.84 1.42931 -0.663954 0
M  V30 11555 C 1091.77 2.33499 0.00731327 0
M  V30 11556 C 1092.75 1.50074 0.800733 0
M  V30 11557 O 1093.93 1.78708 0.760062 0
M  V30 11558 C 1091.06 3.33569 0.966897 0
M  V30 11559 C 1090.02 4.27064 0.282839 0
M  V30 11560 C 1089.34 5.17257 1.35461 0
M  V30 11561 C 1090.64 5.1564 -0.831438 0
M  V30 11562 H 1092.34 2.89879 -0.749044 0
M  V30 11563 H 1089.88 1.39385 -0.361656 0
M  V30 11564 H 1091.84 3.95833 1.44549 0
M  V30 11565 H 1090.56 2.75469 1.75455 0
M  V30 11566 H 1089.22 3.6618 -0.175417 0
M  V30 11567 H 1088.87 4.5549 2.13397 0
M  V30 11568 H 1088.57 5.80634 0.902098 0
M  V30 11569 H 1090.09 5.82395 1.83436 0
M  V30 11570 H 1091.51 5.71651 -0.434534 0
M  V30 11571 H 1089.9 5.87794 -1.20908 0
M  V30 11572 H 1090.97 4.54687 -1.68487 0
M  V30 11573 N 1092.32 0.406567 1.52266 0
M  V30 11574 C 1093.73 -0.063607 1.86592 0
M  V30 11575 C 1094.08 -1.4466 1.32544 0
M  V30 11576 O 1093.2 -2.05971 0.663692 0
M  V30 11577 C 1093.8 -0.122198 3.3858 0
M  V30 11578 C 1092.36 -0.536701 3.72554 0
M  V30 11579 C 1091.5 0.290422 2.75775 0
M  V30 11580 H 1094.45 0.623738 1.45929 0
M  V30 11581 H 1094.48 -0.937964 3.68758 0
M  V30 11582 H 1093.99 0.884495 3.77887 0
M  V30 11583 H 1092.09 -1.55013 3.38824 0
M  V30 11584 H 1092.2 -0.282867 4.78264 0
M  V30 11585 H 1090.57 -0.246864 2.53501 0
M  V30 11586 H 1091.35 1.29541 3.17921 0
M  V30 11587 N 1093.79 -1.57004 0.136909 0
M  V30 11588 C 1094.72 -2.19262 -0.802902 0
M  V30 11589 C 1095.71 -1.13786 -1.26439 0
M  V30 11590 O 1096.89 -1.42091 -1.32377 0
M  V30 11591 C 1094.02 -2.80624 -2.04615 0
M  V30 11592 C 1092.97 -3.91839 -1.72181 0
M  V30 11593 C 1092.3 -4.4009 -3.03686 0
M  V30 11594 C 1093.6 -5.13095 -0.976249 0
M  V30 11595 H 1095.29 -2.98049 -0.28406 0
M  V30 11596 H 1092.84 -1.43364 -0.135189 0
M  V30 11597 H 1094.79 -3.22842 -2.70834 0
M  V30 11598 H 1093.52 -1.99153 -2.58855 0
M  V30 11599 H 1092.18 -3.50224 -1.08344 0
M  V30 11600 H 1091.82 -3.55454 -3.55896 0
M  V30 11601 H 1091.52 -5.15098 -2.82751 0
M  V30 11602 H 1093.05 -4.84971 -3.70993 0
M  V30 11603 H 1094.46 -5.5222 -1.54033 0
M  V30 11604 H 1092.86 -5.93801 -0.867214 0
M  V30 11605 H 1093.93 -4.84888 0.0338488 0
M  V30 11606 N 1095.27 0.136881 -1.57004 0
M  V30 11607 C 1096.24 1.15267 -1.98106 0
M  V30 11608 C 1097.24 1.35305 -0.868856 0
M  V30 11609 O 1098.43 1.32126 -1.13527 0
M  V30 11610 C 1095.56 2.51092 -2.30577 0
M  V30 11611 H 1096.75 0.799821 -2.89038 0
M  V30 11612 H 1094.3 0.380576 -1.51596 0
M  V30 11613 H 1095.04 2.9133 -1.42469 0
M  V30 11614 H 1094.82 2.37906 -3.11678 0
M  V30 11615 H 1096.31 3.24232 -2.63179 0
M  V30 11616 N 1096.75 1.52266 0.40654 0
M  V30 11617 C 1097.7 1.75794 1.4955 0
M  V30 11618 C 1098.67 0.600472 1.54866 0
M  V30 11619 O 1099.85 0.838305 1.71397 0
M  V30 11620 C 1096.99 1.91682 2.86971 0
M  V30 11621 C 1096.11 3.19337 2.90943 0
M  V30 11622 C 1095.24 3.25641 4.1968 0
M  V30 11623 C 1094.28 4.47488 4.17637 0
M  V30 11624 N 1093.42 4.51171 5.37949 0
M  V30 11625 H 1098.26 2.68733 1.28789 0
M  V30 11626 H 1095.79 1.33157 0.625102 0
M  V30 11627 H 1097.75 1.98877 3.66748 0
M  V30 11628 H 1096.38 1.02121 3.06221 0
M  V30 11629 H 1095.43 3.21301 2.03642 0
M  V30 11630 H 1096.75 4.09153 2.85299 0
M  V30 11631 H 1095.9 3.31922 5.07851 0
M  V30 11632 H 1094.64 2.33769 4.28023 0
M  V30 11633 H 1093.64 4.41351 3.27856 0
M  V30 11634 H 1094.87 5.40659 4.10932 0
M  V30 11635 H 1092.81 3.62182 5.46955 0
M  V30 11636 H 1092.73 5.34835 5.3431 0
M  V30 11637 H 1094 4.61685 6.28066 0
M  V30 11638 N 1098.23 -0.663929 1.42933 0
M  V30 11639 C 1099.46 -1.45192 1.474 0
M  V30 11640 C 1099.87 -1.88592 0.0886014 0
M  V30 11641 O 1099.23 -1.58824 -0.898962 0
M  V30 11642 C 1099.28 -2.69394 2.41059 0
M  V30 11643 O 1099 -2.27812 3.7421 0
M  V30 11644 C 1100.5 -3.62855 2.54659 0
M  V30 11645 H 1097.72 -0.446394 0.500973 0
M  V30 11646 H 1100.27 -0.814875 1.87563 0
M  V30 11647 H 1098.42 -3.29262 2.0412 0
M  V30 11648 H 1098.83 -3.08095 4.24474 0
M  V30 11649 H 1100.31 -4.46698 3.24291 0
M  V30 11650 H 1100.79 -4.09487 1.58799 0
M  V30 11651 H 1101.39 -3.08874 2.92364 0
M  V30 11652 N 1099.71 -1.29285 -0.901281 0
M  V30 11653 C 1100.95 -1.17339 -1.65407 0
M  V30 11654 C 1101.29 0.274834 -1.92245 0
M  V30 11655 O 1100.56 1.19865 -1.53176 0
M  V30 11656 C 1100.84 -1.98547 -3.00418 0
M  V30 11657 C 1100.7 -3.51501 -2.80655 0
M  V30 11658 C 1102.02 -1.81062 -4.01129 0
M  V30 11659 H 1099.13 -0.427624 -0.600255 0
M  V30 11660 H 1101.78 -1.58741 -1.0441 0
M  V30 11661 H 1099.93 -1.63366 -3.52482 0
M  V30 11662 H 1101.6 -3.96655 -2.35505 0
M  V30 11663 H 1099.84 -3.76504 -2.15469 0
M  V30 11664 H 1100.51 -4.03593 -3.76585 0
M  V30 11665 H 1102.99 -2.11788 -3.58169 0
M  V30 11666 H 1101.86 -2.40235 -4.93536 0
M  V30 11667 H 1102.13 -0.765388 -4.35424 0
M  V30 11668 N 1101.18 1.11143 -1.11736 0
M  V30 11669 C 1102.41 1.87285 -0.891007 0
M  V30 11670 C 1102.83 1.79758 0.553971 0
M  V30 11671 O 1102.19 1.16221 1.39149 0
M  V30 11672 C 1102.24 3.33924 -1.36114 0
M  V30 11673 O 1101.34 4.08917 -0.534851 0
M  V30 11674 H 1100.69 0.581418 -0.320701 0
M  V30 11675 H 1103.22 1.40469 -1.4876 0
M  V30 11676 H 1103.23 3.84772 -1.35701 0
M  V30 11677 H 1101.9 3.38719 -2.41334 0
M  V30 11678 H 1100.48 3.67954 -0.605355 0
M  V30 11679 N 1102.66 0.908147 1.28804 0
M  V30 11680 C 1103.91 0.539201 1.95501 0
M  V30 11681 C 1104.24 -0.913759 1.7136 0
M  V30 11682 O 1103.52 -1.64904 1.03136 0
M  V30 11683 C 1103.8 0.842372 3.50109 0
M  V30 11684 C 1103.65 2.34765 3.83673 0
M  V30 11685 C 1104.97 0.334658 4.38826 0
M  V30 11686 H 1102.09 0.197373 0.71008 0
M  V30 11687 H 1104.73 1.13637 1.52272 0
M  V30 11688 H 1102.88 0.334143 3.8706 0
M  V30 11689 H 1104.55 2.92607 3.56621 0
M  V30 11690 H 1102.8 2.80494 3.30916 0
M  V30 11691 H 1103.47 2.51034 4.91616 0
M  V30 11692 H 1105.94 0.769961 4.08914 0
M  V30 11693 H 1104.82 0.575914 5.4587 0
M  V30 11694 H 1105.08 -0.764878 4.35433 0
M  V30 11695 N 1104.14 -1.42577 0.671525 0
M  V30 11696 C 1105.05 -2.34598 -0.00898225 0
M  V30 11697 C 1106.07 -1.54909 -0.792407 0
M  V30 11698 O 1107.24 -1.87491 -0.735477 0
M  V30 11699 C 1104.31 -3.33405 -0.950888 0
M  V30 11700 C 1103.37 -4.28993 -0.16236 0
M  V30 11701 C 1102.6 -5.2308 -1.0594 0
M  V30 11702 O 1102.82 -5.22022 -2.2989 0
M  V30 11703 O 1101.76 -5.99632 -0.521966 0
M  V30 11704 H 1105.58 -2.94321 0.748927 0
M  V30 11705 H 1103.17 -1.43025 0.43175 0
M  V30 11706 H 1105.05 -3.94115 -1.49169 0
M  V30 11707 H 1103.73 -2.7616 -1.68871 0
M  V30 11708 H 1102.63 -3.71707 0.42247 0
M  V30 11709 H 1103.97 -4.8927 0.536274 0
M  V30 11710 N 1105.62 -0.414636 -1.52048 0
M  V30 11711 C 1106.53 0.414861 -2.30903 0
M  V30 11712 C 1107.54 1.04855 -1.38858 0
M  V30 11713 O 1108.72 1.04886 -1.71933 0
M  V30 11714 C 1105.79 1.51356 -3.11917 0
M  V30 11715 C 1104.85 0.902359 -4.19709 0
M  V30 11716 C 1104.08 1.9487 -4.96852 0
M  V30 11717 O 1104.3 3.16766 -4.74358 0
M  V30 11718 O 1103.24 1.55186 -5.8155 0
M  V30 11719 H 1107.06 -0.228251 -3.02841 0
M  V30 11720 H 1104.65 -0.177704 -1.48339 0
M  V30 11721 H 1106.53 2.15127 -3.62351 0
M  V30 11722 H 1105.2 2.14117 -2.42767 0
M  V30 11723 H 1104.11 0.22721 -3.73409 0
M  V30 11724 H 1105.44 0.318587 -4.91168 0
M  V30 11725 N 1107.1 1.56929 -0.145233 0
M  V30 11726 C 1108.03 2.19685 0.791263 0
M  V30 11727 C 1109.01 1.14455 1.25833 0
M  V30 11728 O 1110.19 1.42791 1.31622 0
M  V30 11729 C 1107.32 2.81705 2.03124 0
M  V30 11730 C 1106.28 3.92746 1.70101 0
M  V30 11731 C 1105.6 4.41694 3.01347 0
M  V30 11732 C 1106.9 5.13606 0.949025 0
M  V30 11733 H 1108.6 2.98196 0.26825 0
M  V30 11734 H 1106.14 1.43434 0.127584 0
M  V30 11735 H 1108.1 3.24273 2.69119 0
M  V30 11736 H 1106.82 2.00523 2.57795 0
M  V30 11737 H 1105.48 3.50794 1.06486 0
M  V30 11738 H 1105.13 3.57336 3.54006 0
M  V30 11739 H 1104.83 5.1659 2.80016 0
M  V30 11740 H 1106.35 4.86931 3.68416 0
M  V30 11741 H 1107.76 5.53029 1.51102 0
M  V30 11742 H 1106.16 5.94252 0.835711 0
M  V30 11743 H 1107.23 4.84863 -0.0595631 0
M  V30 11744 N 1108.58 -0.128553 1.57075 0
M  V30 11745 C 1109.51 -1.15953 2.02675 0
M  V30 11746 C 1110.49 -1.43743 0.909501 0
M  V30 11747 O 1111.67 -1.54348 1.17857 0
M  V30 11748 C 1108.8 -2.48813 2.423 0
M  V30 11749 C 1107.76 -2.35506 3.57381 0
M  V30 11750 C 1107.08 -3.73243 3.82875 0
M  V30 11751 C 1108.38 -1.82359 4.89431 0
M  V30 11752 H 1110.08 -0.780283 2.89054 0
M  V30 11753 H 1107.62 -0.373896 1.39061 0
M  V30 11754 H 1109.57 -3.21179 2.72804 0
M  V30 11755 H 1108.3 -2.88609 1.52881 0
M  V30 11756 H 1106.96 -1.6559 3.27071 0
M  V30 11757 H 1106.61 -4.10507 2.90677 0
M  V30 11758 H 1106.31 -3.65195 4.60333 0
M  V30 11759 H 1107.83 -4.47128 4.15823 0
M  V30 11760 H 1109.24 -2.44533 5.18533 0
M  V30 11761 H 1107.64 -1.85156 5.70822 0
M  V30 11762 H 1108.71 -0.780478 4.78578 0
M  V30 11763 N 1110.05 -1.5248 -0.398459 0
M  V30 11764 C 1110.99 -1.72826 -1.50545 0
M  V30 11765 C 1112 -0.608683 -1.50993 0
M  V30 11766 O 1113.19 -0.88413 -1.55066 0
M  V30 11767 C 1110.29 -1.76327 -2.89417 0
M  V30 11768 C 1109.46 -3.05491 -3.1304 0
M  V30 11769 C 1108.52 -3.00663 -4.31843 0
M  V30 11770 O 1107.55 -3.74548 -4.28605 0
M  V30 11771 N 1108.75 -2.19191 -5.37527 0
M  V30 11772 H 1111.51 -2.68333 -1.33482 0
M  V30 11773 H 1109.07 -1.5085 -0.587875 0
M  V30 11774 H 1111.07 -1.70616 -3.66977 0
M  V30 11775 H 1109.64 -0.882476 -2.99885 0
M  V30 11776 H 1108.86 -3.24767 -2.23428 0
M  V30 11777 H 1110.14 -3.90915 -3.25673 0
M  V30 11778 H 1109.54 -1.58613 -5.43009 0
M  V30 11779 H 1108.1 -2.19328 -6.1379 0
M  V30 11780 N 1111.53 0.65634 -1.43283 0
M  V30 11781 C 1112.76 1.44199 -1.47954 0
M  V30 11782 C 1113.17 1.88961 -0.0950315 0
M  V30 11783 O 1112.51 1.59895 0.904388 0
M  V30 11784 C 1112.57 2.71161 -2.36033 0
M  V30 11785 C 1112.24 2.48359 -3.83623 0
M  V30 11786 C 1113.24 2.1178 -4.74811 0
M  V30 11787 C 1110.92 2.6278 -4.28079 0
M  V30 11788 C 1112.91 1.89915 -6.0845 0
M  V30 11789 C 1110.6 2.4053 -5.61772 0
M  V30 11790 C 1111.6 2.04154 -6.51775 0
M  V30 11791 O 1111.29 1.82134 -7.82996 0
M  V30 11792 H 1111.02 0.449567 -0.504842 0
M  V30 11793 H 1113.57 0.812234 -1.88658 0
M  V30 11794 H 1111.8 3.36685 -1.9021 0
M  V30 11795 H 1113.49 3.33102 -2.31944 0
M  V30 11796 H 1114.26 2.00217 -4.41744 0
M  V30 11797 H 1110.14 2.9007 -3.58302 0
M  V30 11798 H 1113.68 1.61445 -6.78661 0
M  V30 11799 H 1109.58 2.51695 -5.94407 0
M  V30 11800 H 1110.35 1.96584 -7.94542 0
M  V30 11801 N 1113.01 1.29761 0.894412 0
M  V30 11802 C 1114.26 1.18214 1.64782 0
M  V30 11803 C 1114.59 -0.264635 1.92388 0
M  V30 11804 O 1113.86 -1.19051 1.53809 0
M  V30 11805 C 1114.15 2.00138 2.99361 0
M  V30 11806 C 1114 3.52984 2.78787 0
M  V30 11807 C 1115.32 1.83187 4.00163 0
M  V30 11808 H 1112.44 0.430802 0.597979 0
M  V30 11809 H 1115.08 1.59292 1.03566 0
M  V30 11810 H 1113.23 1.65233 3.51611 0
M  V30 11811 H 1114.9 3.97898 2.33398 0
M  V30 11812 H 1113.14 3.77642 2.13469 0
M  V30 11813 H 1113.82 4.05585 3.7444 0
M  V30 11814 H 1116.29 2.13684 3.57041 0
M  V30 11815 H 1115.17 2.42849 4.92255 0
M  V30 11816 H 1115.43 0.788469 4.35012 0
M  V30 11817 N 1114.49 -1.10549 1.12324 0
M  V30 11818 C 1115.4 -2.20428 0.803032 0
M  V30 11819 C 1116.41 -1.72756 -0.207674 0
M  V30 11820 O 1117.59 -2.01357 -0.0415623 0
M  V30 11821 C 1114.65 -3.45716 0.261032 0
M  V30 11822 C 1113.72 -4.08129 1.33152 0
M  V30 11823 C 1112.95 -5.27436 0.815288 0
M  V30 11824 O 1113.17 -5.69317 -0.351361 0
M  V30 11825 O 1112.11 -5.80674 1.58434 0
M  V30 11826 H 1115.93 -2.50249 1.72073 0
M  V30 11827 H 1113.52 -1.19263 0.899815 0
M  V30 11828 H 1115.4 -4.21384 -0.0364007 0
M  V30 11829 H 1114.07 -3.17525 -0.629249 0
M  V30 11830 H 1112.98 -3.3415 1.6821 0
M  V30 11831 H 1114.31 -4.4052 2.19552 0
M  V30 11832 N 1115.97 -0.914965 -1.28321 0
M  V30 11833 C 1116.9 -0.421292 -2.29668 0
M  V30 11834 C 1117.88 0.511743 -1.6222 0
M  V30 11835 O 1119.06 0.419218 -1.89621 0
M  V30 11836 C 1116.19 0.338364 -3.45648 0
M  V30 11837 C 1115.15 -0.505646 -4.25003 0
M  V30 11838 C 1114.47 0.382421 -5.33331 0
M  V30 11839 C 1115.77 -1.76354 -4.91626 0
M  V30 11840 H 1117.47 -1.26826 -2.71211 0
M  V30 11841 H 1115.01 -0.611291 -1.30381 0
M  V30 11842 H 1116.96 0.694578 -4.15636 0
M  V30 11843 H 1115.69 1.21925 -3.02988 0
M  V30 11844 H 1114.35 -0.844395 -3.56743 0
M  V30 11845 H 1114 1.26189 -4.86914 0
M  V30 11846 H 1113.7 -0.17871 -5.87328 0
M  V30 11847 H 1115.22 0.73449 -6.06166 0
M  V30 11848 H 1116.63 -1.47616 -5.5397 0
M  V30 11849 H 1115.03 -2.26717 -5.55625 0
M  V30 11850 H 1116.1 -2.49063 -4.16048 0
M  V30 11851 N 1117.44 1.42219 -0.679077 0
M  V30 11852 C 1118.38 2.29172 0.035583 0
M  V30 11853 C 1119.39 1.43909 0.761183 0
M  V30 11854 O 1120.58 1.67584 0.61463 0
M  V30 11855 C 1117.68 3.21426 1.07419 0
M  V30 11856 C 1116.85 4.35364 0.421547 0
M  V30 11857 C 1115.91 5.08307 1.36051 0
M  V30 11858 O 1114.94 5.62678 0.859186 0
M  V30 11859 N 1116.14 5.14222 2.69362 0
M  V30 11860 H 1118.9 2.91147 -0.710865 0
M  V30 11861 H 1116.46 1.53192 -0.523821 0
M  V30 11862 H 1118.46 3.67091 1.70371 0
M  V30 11863 H 1117.03 2.60873 1.72233 0
M  V30 11864 H 1116.25 3.9229 -0.387559 0
M  V30 11865 H 1117.53 5.08789 -0.0329421 0
M  V30 11866 H 1116.93 4.71467 3.12627 0
M  V30 11867 H 1115.49 5.63519 3.27551 0
M  V30 11868 N 1118.92 0.422693 1.51826 0
M  V30 11869 C 1120.2 -0.20786 1.94492 0
M  V30 11870 C 1120.58 -1.61414 1.36047 0
M  V30 11871 O 1119.93 -2.21987 0.541657 0
M  V30 11872 C 1120.14 -0.200457 3.48424 0
M  V30 11873 C 1121.48 -0.413199 4.22585 0
M  V30 11874 O 1122.51 -0.27922 3.55104 0
M  V30 11875 O 1121.37 -0.678469 5.42272 0
M  V30 11876 H 1118.46 -0.137851 0.81543 0
M  V30 11877 H 1121.01 0.479617 1.62781 0
M  V30 11878 H 1119.78 0.783263 3.83381 0
M  V30 11879 H 1119.4 -0.931464 3.86535 0
M  V30 11880 N 1120.4 -1.5685 0.153553 0
M  V30 11881 C 1121.81 -1.83074 -0.36618 0
M  V30 11882 C 1122.16 -1.07257 -1.64288 0
M  V30 11883 O 1121.29 -0.319925 -2.14022 0
M  V30 11884 C 1121.88 -3.32086 -0.671142 0
M  V30 11885 C 1120.44 -3.58868 -1.13537 0
M  V30 11886 C 1119.59 -2.76827 -0.161887 0
M  V30 11887 H 1122.54 -1.54129 0.378139 0
M  V30 11888 H 1122.56 -3.48598 -1.52512 0
M  V30 11889 H 1122.07 -3.8724 0.258234 0
M  V30 11890 H 1120.17 -3.09107 -2.08047 0
M  V30 11891 H 1120.29 -4.67299 -1.05682 0
M  V30 11892 H 1118.65 -2.46112 -0.6558 0
M  V30 11893 H 1119.43 -3.34755 0.761195 0
M  V30 11894 N 1121.88 0.120221 -1.57141 0
M  V30 11895 C 1123.12 0.829449 -1.85062 0
M  V30 11896 C 1123.46 1.79585 -0.739116 0
M  V30 11897 O 1122.73 1.92819 0.255147 0
M  V30 11898 C 1123.01 1.58042 -3.23566 0
M  V30 11899 C 1122.87 0.633706 -4.45314 0
M  V30 11900 C 1124.19 2.53688 -3.59625 0
M  V30 11901 H 1121.31 0.300086 -0.67314 0
M  V30 11902 H 1123.95 0.0937393 -1.89769 0
M  V30 11903 H 1122.1 2.20758 -3.19684 0
M  V30 11904 H 1123.77 0.0154836 -4.61297 0
M  V30 11905 H 1122.01 -0.054846 -4.33765 0
M  V30 11906 H 1122.68 1.19577 -5.38893 0
M  V30 11907 H 1125.16 2.01078 -3.6429 0
M  V30 11908 H 1124.04 3.03265 -4.57516 0
M  V30 11909 H 1124.3 3.36296 -2.8698 0
M  V30 11910 N 1123.36 1.52689 0.390367 0
M  V30 11911 C 1124.58 1.71541 1.15678 0
M  V30 11912 C 1125 0.433171 1.83764 0
M  V30 11913 O 1124.36 -0.592248 1.72623 0
M  V30 11914 C 1124.41 2.864 2.20584 0
M  V30 11915 O 1124.13 4.0966 1.55274 0
M  V30 11916 C 1125.63 3.1692 3.09962 0
M  V30 11917 H 1122.85 0.574381 0.346883 0
M  V30 11918 H 1125.39 1.99332 0.456851 0
M  V30 11919 H 1123.55 2.61075 2.86214 0
M  V30 11920 H 1123.96 4.73802 2.2497 0
M  V30 11921 H 1125.44 4.00755 3.79604 0
M  V30 11922 H 1125.91 2.31245 3.73393 0
M  V30 11923 H 1126.52 3.4408 2.49979 0
M  V30 11924 N 1124.83 -0.648732 1.43629 0
M  V30 11925 C 1126.25 -0.964917 1.27128 0
M  V30 11926 C 1126.45 -2.00561 0.194251 0
M  V30 11927 O 1125.51 -2.48884 -0.42581 0
M  V30 11928 C 1126.82 -1.44491 2.6371 0
M  V30 11929 C 1128.37 -1.56133 2.71278 0
M  V30 11930 C 1128.84 -2.07521 4.08288 0
M  V30 11931 N 1130.33 -2.14817 4.10375 0
M  V30 11932 C 1131.07 -2.55712 5.13224 0
M  V30 11933 N 1130.56 -2.9587 6.26444 0
M  V30 11934 N 1132.36 -2.55691 5.00578 0
M  V30 11935 H 1124.51 0.0398357 2.12363 0
M  V30 11936 H 1126.77 -0.0447705 0.946942 0
M  V30 11937 H 1126.48 -0.754616 3.43509 0
M  V30 11938 H 1126.35 -2.41914 2.89409 0
M  V30 11939 H 1128.74 -2.24263 1.91808 0
M  V30 11940 H 1128.82 -0.571314 2.49338 0
M  V30 11941 H 1128.46 -1.39992 4.88226 0
M  V30 11942 H 1128.39 -3.07362 4.27594 0
M  V30 11943 H 1130.88 -1.86538 3.28652 0
M  V30 11944 H 1131.2 -3.25837 7.0075 0
M  V30 11945 H 1129.54 -2.93664 6.2991 0
M  V30 11946 H 1132.73 -2.23697 4.1119 0
M  V30 11947 H 1132.91 -2.87239 5.80859 0
M  V30 11948 N 1126.31 -1.30234 -0.887518 0
M  V30 11949 C 1127.54 -1.21829 -1.67229 0
M  V30 11950 C 1127.96 0.219251 -1.87523 0
M  V30 11951 O 1127.31 1.14526 -1.42091 0
M  V30 11952 C 1127.36 -1.94044 -3.05007 0
M  V30 11953 O 1127.08 -3.32185 -2.85631 0
M  V30 11954 C 1128.59 -1.92265 -3.99436 0
M  V30 11955 H 1125.81 -0.421716 -0.521916 0
M  V30 11956 H 1128.35 -1.71816 -1.10903 0
M  V30 11957 H 1126.5 -1.47861 -3.58072 0
M  V30 11958 H 1126.92 -3.68724 -3.73018 0
M  V30 11959 H 1128.39 -2.47336 -4.93486 0
M  V30 11960 H 1128.87 -0.900984 -4.29859 0
M  V30 11961 H 1129.48 -2.38247 -3.52305 0
M  V30 11962 N 1127.79 1.09952 -1.12909 0
M  V30 11963 C 1128.72 2.16257 -0.759305 0
M  V30 11964 C 1129.74 1.61355 0.216427 0
M  V30 11965 O 1130.92 1.785 -0.00297224 0
M  V30 11966 C 1128.02 3.38741 -0.103908 0
M  V30 11967 C 1127.2 4.23072 -1.11037 0
M  V30 11968 C 1126.26 5.23991 -0.481667 0
M  V30 11969 O 1125.28 5.57665 -1.14011 0
M  V30 11970 N 1126.48 5.75652 0.748698 0
M  V30 11971 H 1129.25 2.48588 -1.67405 0
M  V30 11972 H 1126.81 1.25617 -1.02137 0
M  V30 11973 H 1128.8 4.03362 0.328799 0
M  V30 11974 H 1127.37 3.04344 0.713677 0
M  V30 11975 H 1126.59 3.5467 -1.72054 0
M  V30 11976 H 1127.88 4.76244 -1.79078 0
M  V30 11977 H 1127.28 5.505 1.30253 0
M  V30 11978 H 1125.84 6.42033 1.12415 0
M  V30 11979 N 1129.27 0.921757 1.27833 0
M  V30 11980 C 1130.2 0.433466 2.29441 0
M  V30 11981 C 1131.18 -0.503133 1.62489 0
M  V30 11982 O 1132.36 -0.409156 1.89841 0
M  V30 11983 C 1129.49 -0.320029 3.45822 0
M  V30 11984 C 1128.45 0.528178 4.24728 0
M  V30 11985 C 1127.77 -0.354132 5.33526 0
M  V30 11986 C 1129.07 1.78959 4.90684 0
M  V30 11987 H 1130.77 1.28263 2.70535 0
M  V30 11988 H 1128.31 0.618197 1.30055 0
M  V30 11989 H 1130.27 -0.672526 4.15999 0
M  V30 11990 H 1128.99 -1.20317 3.0363 0
M  V30 11991 H 1127.65 0.863302 3.5629 0
M  V30 11992 H 1127.3 -1.23605 4.87576 0
M  V30 11993 H 1127 0.209855 5.87225 0
M  V30 11994 H 1128.52 -0.702333 6.06547 0
M  V30 11995 H 1129.94 1.50552 5.53179 0
M  V30 11996 H 1128.33 2.29661 5.54415 0
M  V30 11997 H 1129.4 2.51265 4.14721 0
M  V30 11998 N 1130.75 -1.41857 0.686609 0
M  V30 11999 C 1132.16 -1.55549 0.357288 0
M  V30 12000 C 1132.36 -1.66394 -1.13646 0
M  V30 12001 O 1131.42 -1.63739 -1.92213 0
M  V30 12002 C 1132.73 -2.79938 1.09796 0
M  V30 12003 C 1134.28 -2.93724 1.08143 0
M  V30 12004 C 1134.75 -4.20989 1.80367 0
M  V30 12005 N 1136.25 -4.27927 1.77293 0
M  V30 12006 C 1136.98 -5.2524 2.30022 0
M  V30 12007 N 1136.48 -6.28636 2.91185 0
M  V30 12008 N 1138.27 -5.17118 2.20329 0
M  V30 12009 H 1130.42 -1.33063 1.65554 0
M  V30 12010 H 1132.68 -0.641335 0.698135 0
M  V30 12011 H 1132.39 -2.78104 2.15293 0
M  V30 12012 H 1132.26 -3.71188 0.670763 0
M  V30 12013 H 1134.65 -2.9508 0.0347554 0
M  V30 12014 H 1134.73 -2.03673 1.54761 0
M  V30 12015 H 1134.38 -4.20395 2.85009 0
M  V30 12016 H 1134.31 -5.09997 1.3119 0
M  V30 12017 H 1136.8 -3.53838 1.32692 0
M  V30 12018 H 1137.11 -6.99265 3.29011 0
M  V30 12019 H 1135.45 -6.29164 2.95259 0
M  V30 12020 H 1138.65 -4.35265 1.72226 0
M  V30 12021 H 1138.82 -5.92792 2.61728 0
M  V30 12022 N 1132.22 -0.430739 -1.51599 0
M  V30 12023 C 1133.19 0.372319 -2.26156 0
M  V30 12024 C 1134.19 0.955338 -1.29344 0
M  V30 12025 O 1135.38 0.830823 -1.53111 0
M  V30 12026 C 1132.51 1.52613 -3.04831 0
M  V30 12027 H 1133.7 -0.280996 -2.98581 0
M  V30 12028 H 1131.26 -0.183749 -1.55216 0
M  V30 12029 H 1131.99 2.21569 -2.36807 0
M  V30 12030 H 1131.78 1.11433 -3.75932 0
M  V30 12031 H 1133.27 2.09366 -3.61325 0
M  V30 12032 N 1133.7 1.56767 -0.161869 0
M  V30 12033 C 1134.64 2.13321 0.810527 0
M  V30 12034 C 1135.61 1.06073 1.23237 0
M  V30 12035 O 1136.8 1.33993 1.32583 0
M  V30 12036 C 1133.92 2.66506 2.09027 0
M  V30 12037 C 1132.97 3.86038 1.8132 0
M  V30 12038 S 1133.8 5.26253 0.990873 0
M  V30 12039 C 1134.96 5.82837 2.28149 0
M  V30 12040 H 1135.19 2.95467 0.32965 0
M  V30 12041 H 1132.73 1.5431 0.052655 0
M  V30 12042 H 1134.68 2.97797 2.82537 0
M  V30 12043 H 1133.34 1.84463 2.54229 0
M  V30 12044 H 1132.54 4.21547 2.7625 0
M  V30 12045 H 1132.14 3.55585 1.1591 0
M  V30 12046 H 1134.43 5.95175 3.23686 0
M  V30 12047 H 1135.37 6.80109 1.97123 0
M  V30 12048 H 1135.78 5.11186 2.39477 0
M  V30 12049 N 1135.18 -0.111886 1.57202 0
M  V30 12050 C 1136.14 -1.12101 1.99915 0
M  V30 12051 C 1137.14 -1.33906 0.890272 0
M  V30 12052 O 1138.33 -1.30303 1.15615 0
M  V30 12053 C 1135.47 -2.47392 2.34543 0
M  V30 12054 H 1136.66 -0.753736 2.90274 0
M  V30 12055 H 1134.21 -0.35641 1.52182 0
M  V30 12056 H 1134.95 -2.89026 1.47086 0
M  V30 12057 H 1134.73 -2.32917 3.15423 0
M  V30 12058 H 1136.22 -3.20004 2.68304 0
M  V30 12059 N 1136.66 -1.52894 -0.382264 0
M  V30 12060 C 1137.62 -1.77497 -1.45008 0
M  V30 12061 C 1138.62 -0.64509 -1.47293 0
M  V30 12062 O 1139.81 -0.913192 -1.48346 0
M  V30 12063 C 1136.94 -1.88188 -2.8425 0
M  V30 12064 H 1138.14 -2.72849 -1.24473 0
M  V30 12065 H 1135.69 -1.43717 -0.61441 0
M  V30 12066 H 1136.42 -0.948451 -3.10121 0
M  V30 12067 H 1136.21 -2.70353 -2.83992 0
M  V30 12068 H 1137.7 -2.08873 -3.6161 0
M  V30 12069 N 1138.14 0.641106 -1.43971 0
M  V30 12070 C 1139.08 1.75352 -1.50068 0
M  V30 12071 C 1140.05 1.62386 -0.349266 0
M  V30 12072 O 1141.24 1.82455 -0.558118 0
M  V30 12073 C 1138.38 3.13561 -1.4413 0
M  V30 12074 C 1137.49 3.37574 -2.6957 0
M  V30 12075 C 1136.63 4.65698 -2.55535 0
M  V30 12076 C 1135.67 4.82857 -3.76186 0
M  V30 12077 N 1134.8 6.02249 -3.60888 0
M  V30 12078 H 1139.64 1.69477 -2.45116 0
M  V30 12079 H 1137.18 0.826871 -1.2166 0
M  V30 12080 H 1139.14 3.93476 -1.38681 0
M  V30 12081 H 1137.77 3.18476 -0.526563 0
M  V30 12082 H 1136.82 2.5167 -2.85248 0
M  V30 12083 H 1138.13 3.46135 -3.59154 0
M  V30 12084 H 1137.29 5.53759 -2.47862 0
M  V30 12085 H 1136.03 4.59479 -1.63495 0
M  V30 12086 H 1135.03 3.93229 -3.84254 0
M  V30 12087 H 1136.26 4.90898 -4.6925 0
M  V30 12088 H 1134.2 5.97138 -2.71591 0
M  V30 12089 H 1134.12 6.11822 -4.44083 0
M  V30 12090 H 1135.39 6.92898 -3.57088 0
M  V30 12091 N 1139.62 1.30703 0.880598 0
M  V30 12092 C 1140.84 1.22714 1.6658 0
M  V30 12093 C 1141.26 -0.209303 1.87636 0
M  V30 12094 O 1140.62 -1.13771 1.42697 0
M  V30 12095 C 1140.67 1.95659 3.03974 0
M  V30 12096 O 1140.39 3.33695 2.83865 0
M  V30 12097 C 1141.89 1.9438 3.98411 0
M  V30 12098 H 1139.11 0.424478 0.519673 0
M  V30 12099 H 1141.65 1.72402 1.0999 0
M  V30 12100 H 1139.81 1.49758 3.57283 0
M  V30 12101 H 1140.22 3.70697 3.71058 0
M  V30 12102 H 1141.7 2.4995 4.92168 0
M  V30 12103 H 1142.17 0.923767 4.29375 0
M  V30 12104 H 1142.78 2.40112 3.51036 0
M  V30 12105 N 1141.09 -1.09351 1.1349 0
M  V30 12106 C 1142.34 -1.81812 0.898452 0
M  V30 12107 C 1142.67 -1.85525 -0.573959 0
M  V30 12108 O 1141.95 -1.32403 -1.42477 0
M  V30 12109 C 1142.23 -3.27921 1.48794 0
M  V30 12110 C 1142.08 -3.32476 3.02952 0
M  V30 12111 C 1143.4 -4.24625 1.15678 0
M  V30 12112 H 1140.52 -0.660074 0.327829 0
M  V30 12113 H 1143.16 -1.28091 1.40331 0
M  V30 12114 H 1141.31 -3.738 1.05858 0
M  V30 12115 H 1142.99 -2.94994 3.54649 0
M  V30 12116 H 1141.23 -2.72037 3.37903 0
M  V30 12117 H 1141.9 -4.35409 3.39298 0
M  V30 12118 H 1144.38 -3.87036 1.52781 0
M  V30 12119 H 1143.25 -5.25194 1.59571 0
M  V30 12120 H 1143.51 -4.42044 0.0705933 0
M  V30 12121 N 1142.57 -0.928524 -1.27343 0
M  V30 12122 C 1143.81 -0.576696 -1.96096 0
M  V30 12123 C 1144.18 0.866074 -1.71357 0
M  V30 12124 O 1145.38 1.32621 -2.33805 0
M  V30 12125 C 1143.65 -0.894692 -3.4602 0
M  V30 12126 S 1145.21 -0.651503 -4.33936 0
M  V30 12127 H 1142.02 -0.212847 -0.678393 0
M  V30 12128 H 1144.63 -1.19714 -1.5456 0
M  V30 12129 H 1143.33 -1.94239 -3.61524 0
M  V30 12130 H 1142.86 -0.263478 -3.92517 0
M  V30 12131 H 1144.88 0.490314 -4.93772 0
M  V30 12132 N 1144.05 1.41491 -0.694123 0
M  V30 12133 C 1145.46 1.84283 -0.299439 0
M  V30 12134 C 1145.81 1.58081 1.16211 0
M  V30 12135 O 1144.94 1.05051 1.89191 0
M  V30 12136 C 1145.53 3.34522 -0.536696 0
M  V30 12137 C 1144.09 3.7589 -0.195944 0
M  V30 12138 C 1143.24 2.64908 -0.819692 0
M  V30 12139 H 1146.19 1.31063 -0.894884 0
M  V30 12140 H 1146.21 3.79947 0.205062 0
M  V30 12141 H 1145.72 3.53561 -1.6005 0
M  V30 12142 H 1143.82 3.62452 0.863655 0
M  V30 12143 H 1143.94 4.74671 -0.649954 0
M  V30 12144 H 1142.3 2.53476 -0.249412 0
M  V30 12145 H 1143.08 2.86765 -1.88734 0
M  V30 12146 N 1145.53 0.438773 1.51369 0
M  V30 12147 C 1146.94 -0.0240139 1.86685 0
M  V30 12148 C 1147.29 -1.41816 1.35583 0
M  V30 12149 O 1146.41 -2.04517 0.707232 0
M  V30 12150 C 1147.01 -0.0503527 3.38763 0
M  V30 12151 C 1145.57 -0.457556 3.73609 0
M  V30 12152 C 1144.72 0.348852 2.75097 0
M  V30 12153 H 1147.67 0.654552 1.44573 0
M  V30 12154 H 1147.69 -0.859534 3.70665 0
M  V30 12155 H 1147.2 0.964451 3.75925 0
M  V30 12156 H 1145.3 -1.47791 3.42036 0
M  V30 12157 H 1145.41 -0.181357 4.78757 0
M  V30 12158 H 1143.78 -0.193037 2.53967 0
M  V30 12159 H 1144.56 1.36256 3.15102 0
M  V30 12160 N 1147.01 -1.56678 0.170181 0
M  V30 12161 C 1147.96 -2.14503 -0.772818 0
M  V30 12162 C 1148.94 -1.07896 -1.19362 0
M  V30 12163 O 1150.13 -1.34021 -1.15617 0
M  V30 12164 C 1147.26 -2.78844 -2.00253 0
M  V30 12165 C 1146.35 -3.92607 -1.60377 0
M  V30 12166 N 1146.74 -4.97464 -0.914519 0
M  V30 12167 C 1145.04 -4.03746 -1.89487 0
M  V30 12168 C 1145.74 -5.77248 -0.718343 0
M  V30 12169 N 1144.71 -5.2881 -1.25942 0
M  V30 12170 H 1148.51 -2.92941 -0.237231 0
M  V30 12171 H 1146.03 -1.62371 -0.0305396 0
M  V30 12172 H 1148.03 -3.18646 -2.68831 0
M  V30 12173 H 1146.69 -2.01886 -2.54307 0
M  V30 12174 H 1147.7 -5.14724 -0.572692 0
M  V30 12175 H 1144.37 -3.3789 -2.45227 0
M  V30 12176 H 1145.76 -6.71676 -0.173373 0
M  V30 12177 N 1148.48 0.103547 -1.57259 0
M  V30 12178 C 1149.43 1.12621 -2.01458 0
M  V30 12179 C 1150.4 1.40282 -0.889391 0
M  V30 12180 O 1151.59 1.51887 -1.15477 0
M  V30 12181 C 1148.73 2.44352 -2.43692 0
M  V30 12182 C 1147.84 2.23495 -3.69695 0
M  V30 12183 C 1146.97 3.48565 -4.00844 0
M  V30 12184 C 1146.01 3.22932 -5.19982 0
M  V30 12185 N 1145.15 4.40246 -5.46926 0
M  V30 12186 H 1149.99 0.742315 -2.88606 0
M  V30 12187 H 1147.53 0.355016 -1.42752 0
M  V30 12188 H 1149.48 3.2122 -2.66221 0
M  V30 12189 H 1148.11 2.80605 -1.59565 0
M  V30 12190 H 1147.17 1.3747 -3.54692 0
M  V30 12191 H 1148.48 2.0054 -4.56711 0
M  V30 12192 H 1147.63 4.33844 -4.24104 0
M  V30 12193 H 1146.37 3.74565 -3.12333 0
M  V30 12194 H 1145.38 2.36045 -4.96551 0
M  V30 12195 H 1146.6 2.98286 -6.10084 0
M  V30 12196 H 1144.55 4.66338 -4.61373 0
M  V30 12197 H 1144.46 4.20452 -6.28296 0
M  V30 12198 H 1145.73 5.26614 -5.74716 0
M  V30 12199 N 1149.96 1.53094 0.37415 0
M  V30 12200 C 1151.21 1.69111 1.11934 0
M  V30 12201 C 1151.54 0.437252 1.89213 0
M  V30 12202 O 1150.82 -0.565298 1.86104 0
M  V30 12203 C 1151.1 2.93559 2.08554 0
M  V30 12204 C 1150.95 4.29082 1.3494 0
M  V30 12205 C 1152.27 3.13586 3.08791 0
M  V30 12206 H 1149.39 0.615383 0.405553 0
M  V30 12207 H 1152.03 1.85719 0.401078 0
M  V30 12208 H 1150.18 2.79531 2.69805 0
M  V30 12209 H 1151.85 4.54906 0.765402 0
M  V30 12210 H 1150.1 4.28884 0.651238 0
M  V30 12211 H 1150.77 5.12275 2.05616 0
M  V30 12212 H 1153.24 3.26743 2.57639 0
M  V30 12213 H 1152.12 4.02112 3.73627 0
M  V30 12214 H 1152.38 2.28475 3.78486 0
M  V30 12215 N 1151.44 -0.633461 1.44309 0
M  V30 12216 C 1152.35 -1.77428 1.53481 0
M  V30 12217 C 1153.37 -1.68839 0.420628 0
M  V30 12218 O 1154.54 -1.89658 0.677638 0
M  V30 12219 C 1151.61 -3.13801 1.47409 0
M  V30 12220 C 1150.67 -3.34039 2.6966 0
M  V30 12221 C 1149.9 -4.63907 2.63868 0
M  V30 12222 O 1150.12 -5.44559 1.69741 0
M  V30 12223 O 1149.06 -4.86295 3.54684 0
M  V30 12224 H 1152.88 -1.72642 2.49857 0
M  V30 12225 H 1150.47 -0.794399 1.26529 0
M  V30 12226 H 1152.35 -3.95101 1.46537 0
M  V30 12227 H 1151.03 -3.19134 0.541769 0
M  V30 12228 H 1149.93 -2.52427 2.761 0
M  V30 12229 H 1151.27 -3.33566 3.61931 0
M  V30 12230 N 1152.92 -1.31168 -0.873655 0
M  V30 12231 C 1153.85 -1.21094 -1.99646 0
M  V30 12232 C 1154.83 -0.0989684 -1.69812 0
M  V30 12233 O 1156.01 -0.282939 -1.92128 0
M  V30 12234 C 1153.14 -0.913684 -3.35066 0
M  V30 12235 C 1152.1 -1.98482 -3.79195 0
M  V30 12236 C 1151.42 -1.54033 -5.12033 0
M  V30 12237 C 1152.72 -3.39745 -3.96699 0
M  V30 12238 H 1154.42 -2.1503 -2.08333 0
M  V30 12239 H 1151.96 -1.03521 -1.00097 0
M  V30 12240 H 1153.92 -0.829821 -4.13149 0
M  V30 12241 H 1152.64 0.0613471 -3.26542 0
M  V30 12242 H 1151.3 -2.05851 -3.03349 0
M  V30 12243 H 1150.95 -0.553261 -4.99948 0
M  V30 12244 H 1150.65 -2.25688 -5.4253 0
M  V30 12245 H 1152.17 -1.47047 -5.92629 0
M  V30 12246 H 1153.59 -3.35071 -4.65188 0
M  V30 12247 H 1151.98 -4.09585 -4.38589 0
M  V30 12248 H 1153.05 -3.80802 -3.00196 0
M  V30 12249 N 1154.4 1.08748 -1.14068 0
M  V30 12250 C 1155.31 2.19123 -0.837998 0
M  V30 12251 C 1156.32 1.73065 0.180164 0
M  V30 12252 O 1157.5 2.01398 0.00952285 0
M  V30 12253 C 1154.56 3.45257 -0.316 0
M  V30 12254 C 1153.62 4.05959 -1.39628 0
M  V30 12255 C 1152.86 5.26072 -0.899095 0
M  V30 12256 O 1153.08 5.69804 0.260744 0
M  V30 12257 O 1152.01 5.7808 -1.67652 0
M  V30 12258 H 1155.84 2.4748 -1.76033 0
M  V30 12259 H 1153.43 1.17816 -0.918675 0
M  V30 12260 H 1155.31 4.21389 -0.0306425 0
M  V30 12261 H 1153.98 3.18486 0.578654 0
M  V30 12262 H 1152.89 3.31432 -1.73505 0
M  V30 12263 H 1154.22 4.36971 -2.26533 0
M  V30 12264 N 1155.87 0.935264 1.26849 0
M  V30 12265 C 1156.84 0.44485 2.24842 0
M  V30 12266 C 1157.84 -0.440781 1.54641 0
M  V30 12267 O 1159.03 -0.240793 1.72528 0
M  V30 12268 C 1156.16 -0.359566 3.38998 0
M  V30 12269 H 1157.35 1.31074 2.6974 0
M  V30 12270 H 1154.91 0.716665 1.38901 0
M  V30 12271 H 1155.64 -1.24396 2.99493 0
M  V30 12272 H 1155.43 0.275529 3.91131 0
M  V30 12273 H 1156.92 -0.692804 4.11813 0
M  V30 12274 N 1157.35 -1.41121 0.701616 0
M  V30 12275 C 1158.28 -2.33436 0.0545974 0
M  V30 12276 C 1159.26 -1.52144 -0.760662 0
M  V30 12277 O 1160.45 -1.80661 -0.712414 0
M  V30 12278 C 1157.58 -3.36015 -0.878117 0
M  V30 12279 C 1156.53 -4.27664 -0.169511 0
M  V30 12280 C 1155.86 -5.20666 -1.21699 0
M  V30 12281 C 1157.16 -5.13254 0.967859 0
M  V30 12282 H 1158.85 -2.87791 0.825637 0
M  V30 12283 H 1156.4 -1.38377 0.398484 0
M  V30 12284 H 1158.35 -3.99526 -1.34004 0
M  V30 12285 H 1157.08 -2.80024 -1.68089 0
M  V30 12286 H 1155.73 -3.65586 0.272441 0
M  V30 12287 H 1155.38 -4.60987 -2.01246 0
M  V30 12288 H 1155.08 -5.82822 -0.747836 0
M  V30 12289 H 1156.61 -5.87053 -1.6793 0
M  V30 12290 H 1158.02 -5.70298 0.585944 0
M  V30 12291 H 1156.42 -5.84381 1.3645 0
M  V30 12292 H 1157.49 -4.5006 1.80483 0
M  V30 12293 N 1158.83 -0.446794 -1.51134 0
M  V30 12294 C 1159.76 0.350229 -2.30858 0
M  V30 12295 C 1160.74 1.0125 -1.36684 0
M  V30 12296 O 1161.93 1.01433 -1.65605 0
M  V30 12297 C 1159.06 1.4464 -3.15748 0
M  V30 12298 C 1158.01 0.907102 -4.18277 0
M  V30 12299 C 1157.34 2.09974 -4.91747 0
M  V30 12300 C 1158.64 -0.0649758 -5.2226 0
M  V30 12301 H 1160.33 -0.315105 -2.97737 0
M  V30 12302 H 1157.88 -0.152985 -1.43185 0
M  V30 12303 H 1159.83 2.01127 -3.70305 0
M  V30 12304 H 1158.55 2.14016 -2.46708 0
M  V30 12305 H 1157.21 0.364382 -3.64785 0
M  V30 12306 H 1156.86 2.77991 -4.19202 0
M  V30 12307 H 1156.56 1.74523 -5.61084 0
M  V30 12308 H 1158.08 2.66996 -5.49131 0
M  V30 12309 H 1159.5 0.4099 -5.71833 0
M  V30 12310 H 1157.9 -0.332529 -5.99178 0
M  V30 12311 H 1158.97 -0.998681 -4.74504 0
M  V30 12312 N 1160.31 1.56586 -0.178487 0
M  V30 12313 C 1161.22 2.21903 0.761321 0
M  V30 12314 C 1162.23 1.21289 1.2476 0
M  V30 12315 O 1163.41 1.53974 1.29823 0
M  V30 12316 C 1160.48 2.85259 1.97048 0
M  V30 12317 C 1159.54 4.01095 1.53039 0
M  V30 12318 C 1158.77 4.61421 2.68191 0
M  V30 12319 O 1158.99 4.20644 3.85247 0
M  V30 12320 O 1157.93 5.51171 2.41855 0
M  V30 12321 H 1161.75 3.02788 0.235141 0
M  V30 12322 H 1159.34 1.49316 0.0500442 0
M  V30 12323 H 1161.22 3.25404 2.6775 0
M  V30 12324 H 1159.89 2.07366 2.48558 0
M  V30 12325 H 1158.8 3.65606 0.792661 0
M  V30 12326 H 1160.13 4.80603 1.06213 0
M  V30 12327 N 1161.79 -0.095206 1.57312 0
M  V30 12328 C 1162.73 -1.11551 2.02052 0
M  V30 12329 C 1163.7 -1.39808 0.896818 0
M  V30 12330 O 1164.89 -1.51273 1.1628 0
M  V30 12331 C 1162.03 -2.43056 2.44985 0
M  V30 12332 C 1161.14 -2.21531 3.70875 0
M  V30 12333 C 1160.28 -3.46434 4.02687 0
M  V30 12334 C 1159.32 -3.2017 5.21687 0
M  V30 12335 N 1158.45 -4.37339 5.49253 0
M  V30 12336 H 1163.29 -0.727 2.88996 0
M  V30 12337 H 1160.83 -0.347441 1.42938 0
M  V30 12338 H 1162.79 -3.19803 2.67921 0
M  V30 12339 H 1161.42 -2.79754 1.61051 0
M  V30 12340 H 1160.47 -1.35587 3.55416 0
M  V30 12341 H 1161.78 -1.98116 4.57768 0
M  V30 12342 H 1160.94 -4.31589 4.26399 0
M  V30 12343 H 1159.67 -3.72904 3.14315 0
M  V30 12344 H 1158.68 -2.33409 4.97796 0
M  V30 12345 H 1159.9 -2.95047 6.11657 0
M  V30 12346 H 1157.85 -4.63885 4.6384 0
M  V30 12347 H 1157.77 -4.17114 6.30517 0
M  V30 12348 H 1159.04 -5.23559 5.775 0
M  V30 12349 N 1163.26 -1.53291 -0.366026 0
M  V30 12350 C 1164.2 -1.75981 -1.46845 0
M  V30 12351 C 1165.21 -0.640574 -1.49668 0
M  V30 12352 O 1166.4 -0.916823 -1.53155 0
M  V30 12353 C 1163.5 -1.82426 -2.85611 0
M  V30 12354 C 1162.67 -3.12062 -3.0649 0
M  V30 12355 C 1161.73 -3.09755 -4.25368 0
M  V30 12356 O 1160.76 -3.83555 -4.20564 0
M  V30 12357 N 1161.96 -2.30544 -5.32757 0
M  V30 12358 H 1164.72 -2.71104 -1.2776 0
M  V30 12359 H 1162.28 -1.52063 -0.555745 0
M  V30 12360 H 1164.28 -1.78361 -3.63276 0
M  V30 12361 H 1162.85 -0.945888 -2.97946 0
M  V30 12362 H 1162.07 -3.29433 -2.16489 0
M  V30 12363 H 1163.35 -3.97735 -3.17308 0
M  V30 12364 H 1162.75 -1.70095 -5.39522 0
M  V30 12365 H 1161.31 -2.32298 -6.09 0
M  V30 12366 N 1164.74 0.6258 -1.44643 0
M  V30 12367 C 1165.71 1.71941 -1.51555 0
M  V30 12368 C 1166.71 1.55822 -0.396988 0
M  V30 12369 O 1167.9 1.61221 -0.65981 0
M  V30 12370 C 1165.03 3.11068 -1.39461 0
M  V30 12371 H 1166.22 1.67185 -2.48976 0
M  V30 12372 H 1163.77 0.839934 -1.31814 0
M  V30 12373 H 1164.51 3.21416 -0.431534 0
M  V30 12374 H 1164.29 3.24175 -2.20574 0
M  V30 12375 H 1165.78 3.90762 -1.4729 0
M  V30 12376 N 1166.22 1.31629 0.866686 0
M  V30 12377 C 1167.45 1.24293 1.6503 0
M  V30 12378 C 1167.86 -0.193556 1.88207 0
M  V30 12379 O 1167.2 -1.13712 1.44275 0
M  V30 12380 C 1167.26 1.92032 3.03914 0
M  V30 12381 C 1166.93 3.41373 3.03831 0
M  V30 12382 C 1167.92 4.37064 2.81551 0
M  V30 12383 C 1165.61 3.83118 3.24848 0
M  V30 12384 C 1167.6 5.72474 2.80272 0
M  V30 12385 C 1165.29 5.18639 3.23197 0
M  V30 12386 C 1166.29 6.13128 3.00936 0
M  V30 12387 O 1165.98 7.46172 2.99137 0
M  V30 12388 H 1165.71 0.430569 0.521139 0
M  V30 12389 H 1168.26 1.74105 1.0898 0
M  V30 12390 H 1166.49 1.36774 3.61704 0
M  V30 12391 H 1168.18 1.78567 3.64512 0
M  V30 12392 H 1168.95 4.06142 2.65093 0
M  V30 12393 H 1164.83 3.10001 3.41204 0
M  V30 12394 H 1168.37 6.46199 2.62816 0
M  V30 12395 H 1164.27 5.49196 3.39197 0
M  V30 12396 H 1165.04 7.55385 3.15175 0
M  V30 12397 N 1167.7 -1.08142 1.14644 0
M  V30 12398 C 1168.65 -2.15133 0.835845 0
M  V30 12399 C 1169.62 -1.64795 -0.207785 0
M  V30 12400 O 1170.8 -1.90644 -0.07711 0
M  V30 12401 C 1167.94 -3.4359 0.322456 0
M  V30 12402 C 1167.05 -4.07761 1.42671 0
M  V30 12403 C 1166.19 -5.24022 0.870281 0
M  V30 12404 C 1165.23 -5.8014 1.95202 0
M  V30 12405 N 1164.37 -6.87743 1.41257 0
M  V30 12406 H 1169.21 -2.41042 1.75222 0
M  V30 12407 H 1166.74 -1.18288 0.874428 0
M  V30 12408 H 1168.7 -4.17199 0.00657059 0
M  V30 12409 H 1167.33 -3.17958 -0.557014 0
M  V30 12410 H 1166.38 -3.31885 1.85893 0
M  V30 12411 H 1167.69 -4.45485 2.24375 0
M  V30 12412 H 1166.85 -6.04582 0.506459 0
M  V30 12413 H 1165.59 -4.87695 0.0223118 0
M  V30 12414 H 1164.59 -4.98232 2.32476 0
M  V30 12415 H 1165.82 -6.18525 2.80363 0
M  V30 12416 H 1163.76 -6.5337 0.586826 0
M  V30 12417 H 1163.68 -7.24308 2.16596 0
M  V30 12418 H 1164.95 -7.72028 1.07674 0
M  V30 12419 N 1169.18 -0.941978 -1.26351 0
M  V30 12420 C 1170.09 -0.45833 -2.30079 0
M  V30 12421 C 1171.1 0.468084 -1.67586 0
M  V30 12422 O 1172.28 0.347418 -1.98381 0
M  V30 12423 C 1169.34 0.26797 -3.45663 0
M  V30 12424 C 1168.41 -0.695102 -4.23635 0
M  V30 12425 C 1167.64 -0.003369 -5.337 0
M  V30 12426 O 1167.86 1.21342 -5.57344 0
M  V30 12427 O 1166.8 -0.682476 -5.98018 0
M  V30 12428 H 1170.62 -1.31998 -2.73514 0
M  V30 12429 H 1168.21 -0.707897 -1.31564 0
M  V30 12430 H 1170.09 0.677061 -4.15925 0
M  V30 12431 H 1168.76 1.105 -3.04256 0
M  V30 12432 H 1167.67 -1.15415 -3.55851 0
M  V30 12433 H 1169 -1.49977 -4.68794 0
M  V30 12434 N 1170.66 1.40747 -0.709091 0
M  V30 12435 C 1171.59 2.29196 -0.0130359 0
M  V30 12436 C 1172.6 1.45491 0.730487 0
M  V30 12437 O 1173.79 1.6885 0.578944 0
M  V30 12438 C 1170.89 3.23632 1.00577 0
M  V30 12439 C 1170.06 4.3616 0.329105 0
M  V30 12440 C 1169.12 5.11079 1.25239 0
M  V30 12441 O 1168.15 5.64374 0.739641 0
M  V30 12442 N 1169.35 5.1982 2.58394 0
M  V30 12443 H 1172.11 2.89574 -0.772462 0
M  V30 12444 H 1169.68 1.52046 -0.556197 0
M  V30 12445 H 1171.67 3.70622 1.62546 0
M  V30 12446 H 1170.24 2.64467 1.66661 0
M  V30 12447 H 1169.46 3.9138 -0.470683 0
M  V30 12448 H 1170.75 5.08605 -0.140856 0
M  V30 12449 H 1170.14 4.77992 3.02556 0
M  V30 12450 H 1168.7 5.7034 3.15524 0
M  V30 12451 N 1172.13 0.454803 1.50895 0
M  V30 12452 C 1173.38 -0.105927 2.02523 0
M  V30 12453 C 1173.71 -1.40825 1.33724 0
M  V30 12454 O 1172.99 -1.89038 0.457683 0
M  V30 12455 C 1173.27 -0.306635 3.58792 0
M  V30 12456 C 1173.12 1.01556 4.38185 0
M  V30 12457 C 1174.44 -1.06858 4.2693 0
M  V30 12458 H 1171.56 -0.0370232 0.736069 0
M  V30 12459 H 1174.2 0.597215 1.8037 0
M  V30 12460 H 1172.35 -0.905563 3.77799 0
M  V30 12461 H 1174.03 1.64981 4.30789 0
M  V30 12462 H 1172.27 1.61608 4.02574 0
M  V30 12463 H 1172.94 0.828959 5.4574 0
M  V30 12464 H 1175.42 -0.561086 4.123 0
M  V30 12465 H 1174.29 -1.1778 5.36115 0
M  V30 12466 H 1174.55 -2.10111 3.8898 0
M  V30 12467 N 1173.61 -1.56489 0.186789 0
M  V30 12468 C 1174.54 -2.21705 -0.732739 0
M  V30 12469 C 1175.52 -1.17751 -1.22755 0
M  V30 12470 O 1176.71 -1.46231 -1.27789 0
M  V30 12471 C 1173.84 -2.86992 -1.95584 0
M  V30 12472 C 1172.79 -3.97118 -1.59628 0
M  V30 12473 C 1172.12 -4.49529 -2.89531 0
M  V30 12474 C 1173.42 -5.15941 -0.812518 0
M  V30 12475 H 1175.11 -2.98802 -0.189094 0
M  V30 12476 H 1172.66 -1.43722 -0.0895099 0
M  V30 12477 H 1174.61 -3.31295 -2.60426 0
M  V30 12478 H 1173.33 -2.07287 -2.52388 0
M  V30 12479 H 1171.99 -3.53494 -0.971475 0
M  V30 12480 H 1171.64 -3.66596 -3.44407 0
M  V30 12481 H 1171.34 -5.23832 -2.66221 0
M  V30 12482 H 1172.87 -4.96528 -3.55376 0
M  V30 12483 H 1174.28 -5.56841 -1.36386 0
M  V30 12484 H 1172.68 -5.96259 -0.677862 0
M  V30 12485 H 1173.75 -4.84535 0.188095 0
M  V30 12486 N 1175.09 0.086862 -1.5736 0
M  V30 12487 C 1176.05 1.08906 -2.01673 0
M  V30 12488 C 1177.05 1.32473 -0.911463 0
M  V30 12489 O 1178.24 1.28447 -1.17673 0
M  V30 12490 C 1175.37 2.43629 -2.38449 0
M  V30 12491 H 1176.57 0.707461 -2.91436 0
M  V30 12492 H 1174.12 0.332154 -1.5273 0
M  V30 12493 H 1174.86 2.8665 -1.51665 0
M  V30 12494 H 1174.64 2.2787 -3.19089 0
M  V30 12495 H 1176.13 3.15695 -2.73361 0
M  V30 12496 N 1176.57 1.53483 0.357892 0
M  V30 12497 C 1177.51 1.80463 1.43881 0
M  V30 12498 C 1178.48 0.649438 1.52877 0
M  V30 12499 O 1179.67 0.892409 1.68644 0
M  V30 12500 C 1176.81 2.00714 2.80727 0
M  V30 12501 C 1175.92 3.28431 2.80637 0
M  V30 12502 C 1175.06 3.38828 4.09107 0
M  V30 12503 C 1174.1 4.60549 4.03189 0
M  V30 12504 N 1173.23 4.68057 5.23323 0
M  V30 12505 H 1178.07 2.72694 1.20174 0
M  V30 12506 H 1175.61 1.35079 0.582422 0
M  V30 12507 H 1177.57 2.10444 3.60235 0
M  V30 12508 H 1176.2 1.11811 3.02817 0
M  V30 12509 H 1175.25 3.27617 1.93317 0
M  V30 12510 H 1176.56 4.18022 2.72138 0
M  V30 12511 H 1175.72 3.47911 4.97034 0
M  V30 12512 H 1174.46 2.47267 4.20369 0
M  V30 12513 H 1173.46 4.51558 3.13649 0
M  V30 12514 H 1174.69 5.53459 3.93523 0
M  V30 12515 H 1172.63 3.794 5.35156 0
M  V30 12516 H 1172.55 5.51563 5.17024 0
M  V30 12517 H 1173.82 4.81433 6.1306 0
M  V30 12518 N 1178.05 -0.61812 1.44973 0
M  V30 12519 C 1179.46 -0.937734 1.29146 0
M  V30 12520 C 1179.66 -2.00104 0.236749 0
M  V30 12521 O 1178.72 -2.49731 -0.372923 0
M  V30 12522 C 1180.03 -1.38865 2.66715 0
M  V30 12523 C 1181.58 -1.50343 2.74529 0
M  V30 12524 C 1182.05 -1.98814 4.12598 0
M  V30 12525 N 1183.54 -2.06064 4.14839 0
M  V30 12526 C 1184.28 -2.44768 5.18533 0
M  V30 12527 N 1183.78 -2.82516 6.32579 0
M  V30 12528 N 1185.57 -2.45016 5.05889 0
M  V30 12529 H 1177.72 0.084872 2.1223 0
M  V30 12530 H 1179.98 -0.0246744 0.947679 0
M  V30 12531 H 1179.69 -0.681583 3.45032 0
M  V30 12532 H 1179.56 -2.3572 2.94475 0
M  V30 12533 H 1181.95 -2.20144 1.96522 0
M  V30 12534 H 1182.03 -0.518297 2.50494 0
M  V30 12535 H 1181.67 -1.29604 4.91086 0
M  V30 12536 H 1181.6 -2.98223 4.34017 0
M  V30 12537 H 1184.1 -1.79525 3.32535 0
M  V30 12538 H 1184.41 -3.109 7.07504 0
M  V30 12539 H 1182.75 -2.80237 6.35997 0
M  V30 12540 H 1185.94 -2.14925 4.15842 0
M  V30 12541 H 1186.12 -2.74854 5.86821 0
M  V30 12542 N 1179.52 -1.32087 -0.859693 0
M  V30 12543 C 1180.45 -1.23204 -1.98351 0
M  V30 12544 C 1181.43 -0.116974 -1.69697 0
M  V30 12545 O 1182.62 -0.303301 -1.91817 0
M  V30 12546 C 1179.75 -0.949171 -3.34078 0
M  V30 12547 C 1178.7 -2.02493 -3.77069 0
M  V30 12548 C 1178.03 -1.59455 -5.1037 0
M  V30 12549 C 1179.33 -3.43934 -3.93074 0
M  V30 12550 H 1181.02 -2.17227 -2.0604 0
M  V30 12551 H 1178.57 -1.04577 -0.989931 0
M  V30 12552 H 1180.52 -0.873594 -4.12245 0
M  V30 12553 H 1179.25 0.0267095 -3.26589 0
M  V30 12554 H 1177.91 -2.09057 -3.01149 0
M  V30 12555 H 1177.55 -0.606256 -4.99333 0
M  V30 12556 H 1177.25 -2.31429 -5.40106 0
M  V30 12557 H 1178.78 -1.53325 -5.91036 0
M  V30 12558 H 1180.19 -3.39986 -4.61608 0
M  V30 12559 H 1178.59 -4.14214 -4.3422 0
M  V30 12560 H 1179.66 -3.83965 -2.9614 0
M  V30 12561 N 1181 1.07532 -1.15215 0
M  V30 12562 C 1182.23 1.83817 -0.949687 0
M  V30 12563 C 1182.64 1.82004 0.501991 0
M  V30 12564 O 1182 1.23014 1.34811 0
M  V30 12565 C 1182.05 3.30978 -1.45382 0
M  V30 12566 O 1181.77 3.32844 -2.84863 0
M  V30 12567 C 1183.27 4.24037 -1.29257 0
M  V30 12568 H 1180.49 0.58 -0.337404 0
M  V30 12569 H 1183.04 1.35752 -1.52944 0
M  V30 12570 H 1181.19 3.76399 -0.916638 0
M  V30 12571 H 1181.61 4.24773 -3.07682 0
M  V30 12572 H 1183.08 5.25371 -1.69379 0
M  V30 12573 H 1183.56 4.38563 -0.236519 0
M  V30 12574 H 1184.16 3.8445 -1.81874 0
M  V30 12575 N 1182.48 0.948665 1.2585 0
M  V30 12576 C 1183.41 0.408398 2.24516 0
M  V30 12577 C 1184.39 -0.506954 1.54495 0
M  V30 12578 O 1185.58 -0.442695 1.83228 0
M  V30 12579 C 1182.7 -0.41241 3.3618 0
M  V30 12580 C 1181.75 0.442483 4.24198 0
M  V30 12581 S 1182.58 1.87106 5.01749 0
M  V30 12582 C 1183.74 1.05851 6.16884 0
M  V30 12583 H 1183.97 1.24458 2.69995 0
M  V30 12584 H 1181.5 0.752309 1.34832 0
M  V30 12585 H 1183.46 -0.880064 4.00955 0
M  V30 12586 H 1182.12 -1.22335 2.89297 0
M  V30 12587 H 1181.32 -0.186767 5.03654 0
M  V30 12588 H 1180.92 0.845113 3.64327 0
M  V30 12589 H 1183.21 0.304329 6.76816 0
M  V30 12590 H 1184.15 1.82678 6.8413 0
M  V30 12591 H 1184.56 0.591269 5.61395 0
M  V30 12592 N 1183.96 -1.40369 0.716545 0
M  V30 12593 C 1184.89 -2.33365 0.0793533 0
M  V30 12594 C 1185.87 -1.52943 -0.744482 0
M  V30 12595 O 1187.05 -1.81406 -0.693212 0
M  V30 12596 C 1184.18 -3.36928 -0.842429 0
M  V30 12597 C 1183.14 -4.2782 -0.124142 0
M  V30 12598 C 1182.46 -5.21928 -1.1617 0
M  V30 12599 C 1183.76 -5.12199 1.02224 0
M  V30 12600 H 1185.46 -2.86899 0.856115 0
M  V30 12601 H 1183 -1.37946 0.413138 0
M  V30 12602 H 1184.96 -4.00925 -1.29759 0
M  V30 12603 H 1183.68 -2.81791 -1.6511 0
M  V30 12604 H 1182.34 -3.65277 0.311201 0
M  V30 12605 H 1181.99 -4.63096 -1.96345 0
M  V30 12606 H 1181.69 -5.83582 -0.685978 0
M  V30 12607 H 1183.21 -5.88802 -1.61694 0
M  V30 12608 H 1184.63 -5.69644 0.646399 0
M  V30 12609 H 1183.02 -5.82901 1.4264 0
M  V30 12610 H 1184.09 -4.4812 1.85246 0
M  V30 12611 N 1185.44 -0.462799 -1.50652 0
M  V30 12612 C 1186.35 0.341191 -2.32106 0
M  V30 12613 C 1187.36 1.00384 -1.42123 0
M  V30 12614 O 1188.54 0.993635 -1.75182 0
M  V30 12615 C 1185.6 1.41356 -3.16575 0
M  V30 12616 C 1184.66 0.768375 -4.22368 0
M  V30 12617 C 1183.9 1.78964 -5.028 0
M  V30 12618 O 1184.12 3.01515 -4.84195 0
M  V30 12619 O 1183.05 1.36606 -5.86193 0
M  V30 12620 H 1186.88 -0.324482 -3.01962 0
M  V30 12621 H 1184.47 -0.224807 -1.47699 0
M  V30 12622 H 1186.35 2.0349 -3.69012 0
M  V30 12623 H 1185.02 2.06285 -2.49456 0
M  V30 12624 H 1183.93 0.108297 -3.73943 0
M  V30 12625 H 1185.26 0.162164 -4.91933 0
M  V30 12626 N 1186.91 1.56388 -0.195085 0
M  V30 12627 C 1187.84 2.22091 0.720971 0
M  V30 12628 C 1188.83 1.184 1.22128 0
M  V30 12629 O 1190.01 1.46907 1.27012 0
M  V30 12630 C 1187.14 2.88025 1.94059 0
M  V30 12631 C 1186.09 3.97959 1.5752 0
M  V30 12632 C 1185.42 4.51058 2.87143 0
M  V30 12633 C 1186.72 5.16365 0.785145 0
M  V30 12634 H 1188.41 2.98898 0.173245 0
M  V30 12635 H 1185.96 1.43767 0.0818868 0
M  V30 12636 H 1187.91 3.32671 2.58666 0
M  V30 12637 H 1186.64 2.08623 2.51285 0
M  V30 12638 H 1185.3 3.54004 0.952715 0
M  V30 12639 H 1184.94 3.68418 3.42458 0
M  V30 12640 H 1184.64 5.25237 2.63439 0
M  V30 12641 H 1186.17 4.98406 3.52738 0
M  V30 12642 H 1187.58 5.57556 1.33431 0
M  V30 12643 H 1185.98 5.9661 0.646231 0
M  V30 12644 H 1187.05 4.84428 -0.213789 0
M  V30 12645 N 1188.39 -0.0785156 1.57404 0
M  V30 12646 C 1189.32 -1.09446 2.06262 0
M  V30 12647 C 1190.3 -1.40777 0.954772 0
M  V30 12648 O 1191.49 -1.5052 1.22708 0
M  V30 12649 C 1188.62 -2.40979 2.50093 0
M  V30 12650 C 1187.57 -2.24017 3.64692 0
M  V30 12651 C 1186.9 -3.60873 3.94556 0
M  V30 12652 C 1188.2 -1.66696 4.94985 0
M  V30 12653 H 1189.89 -0.687928 2.9139 0
M  V30 12654 H 1187.44 -0.329466 1.4018 0
M  V30 12655 H 1189.39 -3.12337 2.82884 0
M  V30 12656 H 1188.12 -2.83599 1.61985 0
M  V30 12657 H 1186.77 -1.55101 3.32174 0
M  V30 12658 H 1186.42 -4.01051 3.0359 0
M  V30 12659 H 1186.12 -3.50365 4.71718 0
M  V30 12660 H 1187.65 -4.33673 4.29837 0
M  V30 12661 H 1189.06 -2.27913 5.2605 0
M  V30 12662 H 1187.46 -1.66902 5.76423 0
M  V30 12663 H 1188.53 -0.627827 4.80818 0
M  V30 12664 N 1189.87 -1.5367 -0.349747 0
M  V30 12665 C 1190.78 -1.84207 -1.45275 0
M  V30 12666 C 1191.8 -0.731695 -1.57868 0
M  V30 12667 O 1192.97 -1.02337 -1.73462 0
M  V30 12668 C 1190.04 -2.0398 -2.80345 0
M  V30 12669 C 1189.1 -3.27853 -2.77148 0
M  V30 12670 C 1188.33 -3.46673 -4.05775 0
M  V30 12671 O 1188.55 -2.69457 -5.02741 0
M  V30 12672 O 1187.49 -4.40082 -4.10623 0
M  V30 12673 H 1191.31 -2.77947 -1.22389 0
M  V30 12674 H 1188.9 -1.39247 -0.541345 0
M  V30 12675 H 1190.78 -2.18466 -3.60348 0
M  V30 12676 H 1189.46 -1.13429 -3.03176 0
M  V30 12677 H 1188.36 -3.18776 -1.95787 0
M  V30 12678 H 1189.7 -4.18377 -2.59271 0
M  V30 12679 N 1191.35 0.610423 -1.45298 0
M  V30 12680 C 1192.3 1.7213 -1.53753 0
M  V30 12681 C 1193.27 1.61609 -0.383632 0
M  V30 12682 O 1194.45 1.8123 -0.596694 0
M  V30 12683 C 1191.59 3.10433 -1.50749 0
M  V30 12684 C 1190.7 3.3178 -2.76669 0
M  V30 12685 C 1189.84 4.60173 -2.65356 0
M  V30 12686 C 1188.88 4.74769 -3.86343 0
M  V30 12687 N 1188.01 5.94459 -3.73581 0
M  V30 12688 H 1192.85 1.64239 -2.48655 0
M  V30 12689 H 1190.39 0.800879 -1.23387 0
M  V30 12690 H 1192.35 3.90446 -1.46996 0
M  V30 12691 H 1190.98 3.17288 -0.593998 0
M  V30 12692 H 1190.03 2.45563 -2.90522 0
M  V30 12693 H 1191.34 3.38439 -3.66416 0
M  V30 12694 H 1190.5 5.48377 -2.59553 0
M  V30 12695 H 1189.24 4.55907 -1.73204 0
M  V30 12696 H 1188.24 3.8499 -3.92509 0
M  V30 12697 H 1189.47 4.80834 -4.79557 0
M  V30 12698 H 1187.41 5.91243 -2.84196 0
M  V30 12699 H 1187.33 6.02265 -4.5696 0
M  V30 12700 H 1188.6 6.85168 -3.71705 0
M  V30 12701 N 1192.83 1.32541 0.852676 0
M  V30 12702 C 1194.06 1.26037 1.63702 0
M  V30 12703 C 1194.46 -0.173583 1.88402 0
M  V30 12704 O 1193.81 -1.12175 1.45473 0
M  V30 12705 C 1193.87 1.95245 3.01861 0
M  V30 12706 C 1193.53 3.44576 3.00193 0
M  V30 12707 C 1194.53 4.40026 2.76899 0
M  V30 12708 C 1192.22 3.86541 3.20766 0
M  V30 12709 C 1194.21 5.75414 2.74185 0
M  V30 12710 C 1191.9 5.22038 3.17678 0
M  V30 12711 C 1192.89 6.16286 2.94416 0
M  V30 12712 O 1192.58 7.49303 2.91206 0
M  V30 12713 H 1192.31 0.436073 0.516543 0
M  V30 12714 H 1194.87 1.75251 1.07127 0
M  V30 12715 H 1193.1 1.40603 3.60233 0
M  V30 12716 H 1194.79 1.82423 3.62597 0
M  V30 12717 H 1195.55 4.0893 2.6077 0
M  V30 12718 H 1191.43 3.13603 3.37897 0
M  V30 12719 H 1194.98 6.4895 2.55947 0
M  V30 12720 H 1190.87 5.52762 3.33353 0
M  V30 12721 H 1191.64 7.58686 3.07146 0
M  V30 12722 N 1194.3 -1.0692 1.15784 0
M  V30 12723 C 1195.72 -1.61069 0.944123 0
M  V30 12724 C 1196.07 -1.8936 -0.513522 0
M  V30 12725 O 1195.19 -1.66232 -1.38549 0
M  V30 12726 C 1195.79 -2.9263 1.70743 0
M  V30 12727 C 1194.35 -3.43505 1.53887 0
M  V30 12728 C 1193.49 -2.17495 1.72021 0
M  V30 12729 H 1196.44 -0.89951 1.30746 0
M  V30 12730 H 1196.46 -3.61757 1.17951 0
M  V30 12731 H 1195.98 -2.72007 2.76828 0
M  V30 12732 H 1194.08 -3.69201 0.502153 0
M  V30 12733 H 1194.19 -4.19254 2.31868 0
M  V30 12734 H 1192.55 -2.27407 1.1471 0
M  V30 12735 H 1193.34 -1.99362 2.79481 0
M  V30 12736 N 1195.78 -0.955326 -1.25345 0
M  V30 12737 C 1196.75 -0.480564 -2.24105 0
M  V30 12738 C 1197.75 0.416123 -1.55322 0
M  V30 12739 O 1198.94 0.213315 -1.72889 0
M  V30 12740 C 1196.07 0.305589 -3.39528 0
M  V30 12741 H 1197.26 -1.35349 -2.6762 0
M  V30 12742 H 1194.81 -0.738673 -1.37744 0
M  V30 12743 H 1195.55 1.19615 -3.01434 0
M  V30 12744 H 1195.33 -0.337719 -3.90643 0
M  V30 12745 H 1196.82 0.627201 -4.12863 0
M  V30 12746 N 1197.26 1.39987 -0.723979 0
M  V30 12747 C 1198.5 2.02587 -0.271647 0
M  V30 12748 C 1198.87 1.56186 1.11669 0
M  V30 12749 O 1200.07 2.10907 1.66648 0
M  V30 12750 C 1198.34 3.55604 -0.357851 0
M  V30 12751 S 1199.9 4.38797 0.0162614 0
M  V30 12752 H 1196.71 0.702878 -0.10716 0
M  V30 12753 H 1199.32 1.70974 -0.948057 0
M  V30 12754 H 1198.02 3.86866 -1.36977 0
M  V30 12755 H 1197.55 3.91956 0.336754 0
M  V30 12756 H 1199.57 4.80564 1.23582 0
M  V30 12757 N 1198.74 0.470782 1.50404 0
M  V30 12758 C 1199.65 -0.328877 2.32283 0
M  V30 12759 C 1200.67 -0.99629 1.42654 0
M  V30 12760 O 1201.84 -0.984331 1.75707 0
M  V30 12761 C 1198.91 -1.39675 3.1732 0
M  V30 12762 C 1197.97 -0.745965 4.22769 0
M  V30 12763 C 1197.2 -1.76295 5.03742 0
M  V30 12764 O 1197.42 -2.98943 4.85788 0
M  V30 12765 O 1196.36 -1.33495 5.86909 0
M  V30 12766 H 1200.18 0.340491 3.01785 0
M  V30 12767 H 1197.77 0.232637 1.47578 0
M  V30 12768 H 1199.65 -2.0153 3.70086 0
M  V30 12769 H 1198.33 -2.04959 2.50546 0
M  V30 12770 H 1197.23 -0.0884647 3.73995 0
M  V30 12771 H 1198.57 -0.136074 4.92012 0
M  V30 12772 N 1200.22 -1.56282 0.203376 0
M  V30 12773 C 1201.15 -2.15395 -0.753684 0
M  V30 12774 C 1202.13 -1.09303 -1.20381 0
M  V30 12775 O 1203.31 -1.37461 -1.28984 0
M  V30 12776 C 1200.44 -2.71954 -2.01888 0
M  V30 12777 C 1199.49 -3.9071 -1.71021 0
M  V30 12778 S 1200.32 -5.28695 -0.850999 0
M  V30 12779 C 1201.47 -5.88681 -2.12615 0
M  V30 12780 H 1201.71 -2.96237 -0.251196 0
M  V30 12781 H 1199.24 -1.54396 -0.0117238 0
M  V30 12782 H 1201.2 -3.05183 -2.74542 0
M  V30 12783 H 1199.86 -1.91138 -2.49249 0
M  V30 12784 H 1199.05 -4.28723 -2.64977 0
M  V30 12785 H 1198.65 -3.58533 -1.06442 0
M  V30 12786 H 1200.95 -6.03548 -3.07792 0
M  V30 12787 H 1201.89 -6.85096 -1.79021 0
M  V30 12788 H 1202.3 -5.17356 -2.2584 0
M  V30 12789 N 1201.7 0.070167 -1.57444 0
M  V30 12790 C 1202.64 1.08322 -2.03801 0
M  V30 12791 C 1203.61 1.38364 -0.918946 0
M  V30 12792 O 1204.8 1.49404 -1.18672 0
M  V30 12793 C 1201.94 2.39128 -2.48821 0
M  V30 12794 C 1201.05 2.15603 -3.74352 0
M  V30 12795 C 1200.19 3.39984 -4.08148 0
M  V30 12796 C 1199.22 3.1183 -5.26715 0
M  V30 12797 N 1198.36 4.28546 -5.56141 0
M  V30 12798 H 1203.2 0.680931 -2.90116 0
M  V30 12799 H 1200.74 0.324657 -1.43473 0
M  V30 12800 H 1202.7 3.15501 -2.72975 0
M  V30 12801 H 1201.33 2.77157 -1.65481 0
M  V30 12802 H 1200.38 1.29915 -3.57528 0
M  V30 12803 H 1201.69 1.90808 -4.60862 0
M  V30 12804 H 1200.84 4.2475 -4.33211 0
M  V30 12805 H 1199.58 3.67856 -3.20208 0
M  V30 12806 H 1198.59 2.2546 -5.01446 0
M  V30 12807 H 1199.81 2.85278 -6.16273 0
M  V30 12808 H 1197.76 4.56447 -4.71161 0
M  V30 12809 H 1197.68 4.0703 -6.37073 0
M  V30 12810 H 1198.94 5.14305 -5.85757 0
M  V30 12811 N 1203.17 1.53854 0.341593 0
M  V30 12812 C 1204.42 1.71194 1.08162 0
M  V30 12813 C 1204.75 0.47614 1.88582 0
M  V30 12814 O 1204 -0.542115 1.88041 0
M  V30 12815 C 1204.3 2.92844 2.04884 0
M  V30 12816 C 1203.97 4.28366 1.40759 0
M  V30 12817 C 1202.63 4.65214 1.23 0
M  V30 12818 C 1204.98 5.12546 0.945819 0
M  V30 12819 C 1202.31 5.83857 0.576852 0
M  V30 12820 C 1204.66 6.31857 0.306568 0
M  V30 12821 C 1203.33 6.67398 0.116677 0
M  V30 12822 H 1202.6 0.626442 0.395792 0
M  V30 12823 H 1205.24 1.88073 0.360688 0
M  V30 12824 H 1203.55 2.70576 2.83365 0
M  V30 12825 H 1205.25 3.03454 2.62139 0
M  V30 12826 H 1201.84 3.99366 1.5558 0
M  V30 12827 H 1206.02 4.84609 1.07087 0
M  V30 12828 H 1201.28 6.09967 0.418363 0
M  V30 12829 H 1205.45 6.96375 -0.0593285 0
M  V30 12830 H 1203.08 7.59191 -0.391477 0
M  V30 12831 N 1204.65 -0.602709 1.4562 0
M  V30 12832 C 1205.88 -1.39299 1.53657 0
M  V30 12833 C 1206.3 -1.87315 0.171632 0
M  V30 12834 O 1205.66 -1.60423 -0.844639 0
M  V30 12835 C 1205.71 -2.57021 2.52928 0
M  V30 12836 O 1204.81 -3.57812 2.05047 0
M  V30 12837 H 1204.15 -0.41567 0.517798 0
M  V30 12838 H 1206.68 -0.73304 1.91018 0
M  V30 12839 H 1206.69 -3.04202 2.71892 0
M  V30 12840 H 1205.37 -2.21422 3.52058 0
M  V30 12841 H 1203.94 -3.17247 1.95981 0
M  V30 12842 N 1206.13 -1.32992 -0.845635 0
M  V30 12843 C 1207.04 -1.24701 -1.98713 0
M  V30 12844 C 1208.06 -0.158864 -1.73273 0
M  V30 12845 O 1209.23 -0.381209 -1.97759 0
M  V30 12846 C 1206.3 -0.979524 -3.32575 0
M  V30 12847 C 1205.36 -2.15701 -3.71176 0
M  V30 12848 C 1204.59 -1.90219 -4.98651 0
M  V30 12849 O 1204.81 -0.849171 -5.64044 0
M  V30 12850 O 1203.75 -2.76571 -5.34595 0
M  V30 12851 H 1207.57 -2.20683 -2.08645 0
M  V30 12852 H 1205.16 -1.12971 -0.97765 0
M  V30 12853 H 1207.04 -0.847219 -4.12796 0
M  V30 12854 H 1205.72 -0.0499398 -3.23661 0
M  V30 12855 H 1204.62 -2.34483 -2.91494 0
M  V30 12856 H 1205.96 -3.0697 -3.84747 0
M  V30 12857 N 1207.61 1.06304 -1.1635 0
M  V30 12858 C 1208.85 1.79101 -0.94494 0
M  V30 12859 C 1209.18 1.87217 0.527251 0
M  V30 12860 O 1208.44 1.35992 1.40729 0
M  V30 12861 C 1208.74 3.23589 -1.51741 0
M  V30 12862 C 1208.4 3.35552 -3.0119 0
M  V30 12863 C 1207.06 3.38525 -3.41986 0
M  V30 12864 C 1209.42 3.37482 -3.97184 0
M  V30 12865 C 1206.74 3.41042 -4.77396 0
M  V30 12866 C 1209.1 3.41537 -5.3248 0
M  V30 12867 C 1207.76 3.42792 -5.72757 0
M  V30 12868 H 1207.03 0.655377 -0.345778 0
M  V30 12869 H 1209.68 1.25017 -1.45062 0
M  V30 12870 H 1207.98 3.80525 -0.933164 0
M  V30 12871 H 1209.68 3.78512 -1.32399 0
M  V30 12872 H 1206.27 3.33944 -2.68662 0
M  V30 12873 H 1210.45 3.34397 -3.66732 0
M  V30 12874 H 1205.71 3.40317 -5.07931 0
M  V30 12875 H 1209.88 3.41977 -6.0665 0
M  V30 12876 H 1207.51 3.44495 -6.77663 0
M  V30 12877 N 1209.09 0.96196 1.24836 0
M  V30 12878 C 1210.33 0.616342 1.92052 0
M  V30 12879 C 1210.65 -0.851601 1.76088 0
M  V30 12880 O 1211.85 -1.3075 2.37943 0
M  V30 12881 C 1210.31 1.05168 3.44191 0
M  V30 12882 C 1209.92 2.54268 3.68852 0
M  V30 12883 C 1211.66 0.778938 4.17292 0
M  V30 12884 C 1209.57 2.91564 5.14533 0
M  V30 12885 H 1208.5 0.22681 0.719078 0
M  V30 12886 H 1211.15 1.1674 1.41577 0
M  V30 12887 H 1209.53 0.428979 3.9367 0
M  V30 12888 H 1210.71 3.21619 3.29997 0
M  V30 12889 H 1209.02 2.79091 3.09026 0
M  V30 12890 H 1211.62 1.03366 5.24614 0
M  V30 12891 H 1211.96 -0.284772 4.15325 0
M  V30 12892 H 1212.49 1.36233 3.73745 0
M  V30 12893 H 1209.23 3.96982 5.21618 0
M  V30 12894 H 1208.75 2.28892 5.54408 0
M  V30 12895 H 1210.43 2.81155 5.82718 0
M  V30 12896 N 1210.56 -1.39601 0.731392 0
M  V30 12897 C 1211.53 -2.28992 0.0976037 0
M  V30 12898 C 1212.53 -1.46135 -0.670917 0
M  V30 12899 O 1213.72 -1.66856 -0.50047 0
M  V30 12900 C 1210.85 -3.29582 -0.871124 0
M  V30 12901 H 1212.04 -2.86541 0.885112 0
M  V30 12902 H 1209.59 -1.48188 0.497002 0
M  V30 12903 H 1210.33 -2.77082 -1.68512 0
M  V30 12904 H 1210.11 -3.9077 -0.322735 0
M  V30 12905 H 1211.6 -3.96479 -1.31126 0
M  V30 12906 N 1212.04 -0.478751 -1.50152 0
M  V30 12907 C 1212.97 0.301182 -2.31549 0
M  V30 12908 C 1213.95 0.983276 -1.38801 0
M  V30 12909 O 1215.14 0.978973 -1.67719 0
M  V30 12910 C 1212.27 1.3791 -3.18745 0
M  V30 12911 C 1211.22 0.818175 -4.20107 0
M  V30 12912 C 1210.55 1.99496 -4.9609 0
M  V30 12913 C 1211.85 -0.17574 -5.22004 0
M  V30 12914 H 1213.54 -0.378188 -2.97002 0
M  V30 12915 H 1211.09 -0.183323 -1.42828 0
M  V30 12916 H 1213.04 1.93227 -3.74488 0
M  V30 12917 H 1211.77 2.08735 -2.51192 0
M  V30 12918 H 1210.42 0.286924 -3.65475 0
M  V30 12919 H 1210.07 2.69036 -4.25004 0
M  V30 12920 H 1209.77 1.62582 -5.6466 0
M  V30 12921 H 1211.3 2.55288 -5.54671 0
M  V30 12922 H 1212.71 0.288513 -5.72574 0
M  V30 12923 H 1211.11 -0.459549 -5.98338 0
M  V30 12924 H 1212.18 -1.09911 -4.72279 0
M  V30 12925 N 1213.52 1.56172 -0.211661 0
M  V30 12926 C 1214.45 2.22843 0.697375 0
M  V30 12927 C 1215.43 1.19689 1.20866 0
M  V30 12928 O 1216.62 1.48245 1.25447 0
M  V30 12929 C 1213.75 2.90067 1.90993 0
M  V30 12930 C 1212.7 3.99608 1.5329 0
M  V30 12931 C 1212.03 4.54078 2.82343 0
M  V30 12932 C 1213.33 5.17169 0.730333 0
M  V30 12933 H 1215.02 2.99065 0.141533 0
M  V30 12934 H 1212.57 1.43846 0.0666337 0
M  V30 12935 H 1214.52 3.35396 2.55123 0
M  V30 12936 H 1213.24 2.11276 2.49058 0
M  V30 12937 H 1211.9 3.54995 0.915115 0
M  V30 12938 H 1211.55 3.72029 3.38531 0
M  V30 12939 H 1211.25 5.28001 2.57853 0
M  V30 12940 H 1212.77 5.02119 3.47432 0
M  V30 12941 H 1214.19 5.5894 1.2751 0
M  V30 12942 H 1212.59 5.97262 0.582916 0
M  V30 12943 H 1213.66 4.84174 -0.265157 0
M  V30 12944 N 1215 -0.0618163 1.57479 0
M  V30 12945 C 1216.41 -0.612461 1.76368 0
M  V30 12946 C 1216.76 -1.77381 0.838466 0
M  V30 12947 O 1215.89 -2.16386 0.0250211 0
M  V30 12948 C 1216.48 -1.11782 3.19829 0
M  V30 12949 C 1215.04 -1.61424 3.40028 0
M  V30 12950 C 1214.19 -0.53795 2.72032 0
M  V30 12951 H 1217.14 0.164382 1.57846 0
M  V30 12952 H 1217.16 -1.98634 3.24538 0
M  V30 12953 H 1216.67 -0.272353 3.87143 0
M  V30 12954 H 1214.77 -2.48263 2.77842 0
M  V30 12955 H 1214.88 -1.68431 4.48517 0
M  V30 12956 H 1213.25 -0.985355 2.34868 0
M  V30 12957 H 1214.03 0.297495 3.42009 0
M  V30 12958 N 1216.48 -1.54033 -0.333429 0
M  V30 12959 C 1217.7 -1.76031 -1.09672 0
M  V30 12960 C 1218.13 -0.502844 -1.81254 0
M  V30 12961 O 1217.48 0.54509 -1.72912 0
M  V30 12962 C 1217.53 -2.947 -2.07809 0
M  V30 12963 O 1216.64 -2.65555 -3.15522 0
M  V30 12964 H 1215.98 -0.583611 -0.316692 0
M  V30 12965 H 1218.51 -2.01026 -0.380732 0
M  V30 12966 H 1218.52 -3.21771 -2.50853 0
M  V30 12967 H 1217.19 -3.85895 -1.55106 0
M  V30 12968 H 1215.77 -2.49403 -2.77223 0
M  V30 12969 N 1217.95 0.594978 -1.45938 0
M  V30 12970 C 1219.2 1.34976 -1.49881 0
M  V30 12971 C 1219.52 1.95025 -0.14983 0
M  V30 12972 O 1220.72 2.71417 -0.0669868 0
M  V30 12973 C 1219.18 2.44563 -2.6404 0
M  V30 12974 C 1218.79 1.9087 -4.05306 0
M  V30 12975 C 1220.53 3.21461 -2.77242 0
M  V30 12976 C 1218.44 2.98013 -5.10825 0
M  V30 12977 H 1217.37 0.507366 -0.55776 0
M  V30 12978 H 1220.02 0.636316 -1.72114 0
M  V30 12979 H 1218.4 3.1865 -2.35114 0
M  V30 12980 H 1219.57 1.23408 -4.43968 0
M  V30 12981 H 1217.89 1.26678 -3.96663 0
M  V30 12982 H 1220.49 4.01399 -3.53246 0
M  V30 12983 H 1220.83 3.73271 -1.84321 0
M  V30 12984 H 1221.36 2.54477 -3.05756 0
M  V30 12985 H 1218.1 2.51104 -6.05497 0
M  V30 12986 H 1217.62 3.64003 -4.7672 0
M  V30 12987 H 1219.3 3.62178 -5.36131 0
M  V30 12988 N 1219.43 1.33438 0.838571 0
M  V30 12989 C 1220.85 1.12779 1.12929 0
M  V30 12990 C 1221.05 -0.0811188 2.01337 0
M  V30 12991 O 1220.1 -0.761294 2.4075 0
M  V30 12992 C 1221.42 2.41537 1.7911 0
M  V30 12993 C 1222.97 2.47447 1.91674 0
M  V30 12994 C 1223.44 3.76167 2.6127 0
M  V30 12995 N 1224.93 3.7724 2.68783 0
M  V30 12996 C 1225.67 4.7355 3.23323 0
M  V30 12997 N 1225.16 5.80235 3.78549 0
M  V30 12998 N 1226.96 4.61025 3.21578 0
M  V30 12999 H 1219.11 2.10921 0.250187 0
M  V30 13000 H 1221.37 0.931986 0.17351 0
M  V30 13001 H 1221.08 3.30006 1.21609 0
M  V30 13002 H 1220.95 2.53709 2.79127 0
M  V30 13003 H 1223.34 1.59427 2.48328 0
M  V30 13004 H 1223.42 2.39216 0.906058 0
M  V30 13005 H 1223.06 4.64569 2.05275 0
M  V30 13006 H 1222.99 3.81675 3.62811 0
M  V30 13007 H 1225.48 3.00138 2.29621 0
M  V30 13008 H 1225.8 6.49759 4.1837 0
M  V30 13009 H 1224.14 5.83969 3.76836 0
M  V30 13010 H 1227.33 3.76836 2.77691 0
M  V30 13011 H 1227.5 5.36253 3.63781 0
M  V30 13012 N 1220.91 -1.05686 1.16912 0
M  V30 13013 C 1222.32 -1.60059 0.961153 0
M  V30 13014 C 1222.67 -1.89894 -0.493409 0
M  V30 13015 O 1221.8 -1.67692 -1.36778 0
M  V30 13016 C 1222.39 -2.90803 1.73837 0
M  V30 13017 C 1220.95 -3.41854 1.57522 0
M  V30 13018 C 1220.1 -2.15658 1.74319 0
M  V30 13019 H 1223.05 -0.885592 1.31693 0
M  V30 13020 H 1223.07 -3.60485 1.21781 0
M  V30 13021 H 1222.58 -2.69056 2.79697 0
M  V30 13022 H 1220.68 -3.68647 0.541284 0
M  V30 13023 H 1220.8 -4.16771 2.36302 0
M  V30 13024 H 1219.16 -2.26177 1.17115 0
M  V30 13025 H 1219.94 -1.96386 2.8158 0
M  V30 13026 N 1222.39 -0.968567 -1.24324 0
M  V30 13027 C 1223.8 -0.675239 -1.44612 0
M  V30 13028 C 1224 0.762641 -1.8651 0
M  V30 13029 O 1223.06 1.53644 -2.00374 0
M  V30 13030 C 1224.37 -1.66007 -2.50723 0
M  V30 13031 C 1225.92 -1.6728 -2.6455 0
M  V30 13032 C 1226.4 -2.64563 -3.73859 0
M  V30 13033 N 1227.89 -2.6301 -3.81287 0
M  V30 13034 C 1228.62 -3.34957 -4.65394 0
M  V30 13035 N 1228.12 -4.16424 -5.53681 0
M  V30 13036 N 1229.91 -3.23778 -4.59483 0
M  V30 13037 H 1222.06 -1.89757 -0.954257 0
M  V30 13038 H 1224.33 -0.817004 -0.480841 0
M  V30 13039 H 1224.03 -2.68779 -2.26827 0
M  V30 13040 H 1223.91 -1.43353 -3.48898 0
M  V30 13041 H 1226.29 -0.652184 -2.87803 0
M  V30 13042 H 1226.37 -1.93997 -1.6673 0
M  V30 13043 H 1226.02 -3.66759 -3.51355 0
M  V30 13044 H 1225.95 -2.35124 -4.71194 0
M  V30 13045 H 1228.44 -2.03877 -3.18186 0
M  V30 13046 H 1228.75 -4.68207 -6.14818 0
M  V30 13047 H 1227.1 -4.20518 -5.53344 0
M  V30 13048 H 1230.29 -2.59594 -3.89524 0
M  V30 13049 H 1230.46 -3.80112 -5.24804 0
M  V30 13050 N 1223.87 1.39211 -0.738786 0
M  V30 13051 C 1225.1 2.04435 -0.298318 0
M  V30 13052 C 1225.5 1.55822 1.07314 0
M  V30 13053 O 1224.85 0.719922 1.69005 0
M  V30 13054 C 1224.91 3.58789 -0.225979 0
M  V30 13055 C 1224.57 4.30395 -1.53653 0
M  V30 13056 C 1225.57 4.56777 -2.48295 0
M  V30 13057 C 1223.26 4.68869 -1.80187 0
M  V30 13058 C 1225.25 5.20648 -3.67702 0
M  V30 13059 C 1222.94 5.32467 -2.99871 0
M  V30 13060 C 1223.93 5.58289 -3.93449 0
M  V30 13061 O 1223.62 6.20567 -5.1103 0
M  V30 13062 H 1223.35 0.663848 -0.127603 0
M  V30 13063 H 1225.91 1.79171 -1.00433 0
M  V30 13064 H 1224.14 3.82965 0.536164 0
M  V30 13065 H 1225.83 4.05487 0.182996 0
M  V30 13066 H 1226.59 4.27497 -2.29066 0
M  V30 13067 H 1222.47 4.48124 -1.08193 0
M  V30 13068 H 1226.02 5.4072 -4.40759 0
M  V30 13069 H 1221.91 5.61169 -3.18998 0
M  V30 13070 H 1222.68 6.39059 -5.11415 0
M  V30 13071 N 1225.34 0.486708 1.49896 0
M  V30 13072 C 1226.57 -0.0599944 2.06513 0
M  V30 13073 C 1226.98 -1.32662 1.34898 0
M  V30 13074 O 1226.33 -1.78915 0.416565 0
M  V30 13075 C 1226.39 -0.39838 3.57286 0
M  V30 13076 C 1226.05 0.768465 4.50493 0
M  V30 13077 C 1227.05 1.65495 4.92856 0
M  V30 13078 C 1224.73 0.96322 4.92978 0
M  V30 13079 C 1226.73 2.72046 5.76429 0
M  V30 13080 C 1224.41 2.03193 5.7633 0
M  V30 13081 C 1225.41 2.9089 6.17958 0
M  V30 13082 O 1225.1 3.95919 6.99645 0
M  V30 13083 H 1224.83 0.0107865 0.675914 0
M  V30 13084 H 1227.39 0.679087 1.93849 0
M  V30 13085 H 1225.62 -1.19086 3.67907 0
M  V30 13086 H 1227.31 -0.882003 3.96201 0
M  V30 13087 H 1228.07 1.51624 4.6069 0
M  V30 13088 H 1223.95 0.29004 4.60087 0
M  V30 13089 H 1227.49 3.40526 6.08841 0
M  V30 13090 H 1223.39 2.17064 6.07909 0
M  V30 13091 H 1224.16 3.93097 7.17925 0
M  V30 13092 N 1226.82 -1.56058 0.219941 0
M  V30 13093 C 1228.05 -2.031 -0.42014 0
M  V30 13094 C 1228.47 -1.09875 -1.52673 0
M  V30 13095 O 1227.83 -0.0866458 -1.81093 0
M  V30 13096 C 1227.88 -3.48389 -0.93047 0
M  V30 13097 O 1226.98 -3.583 -2.04192 0
M  V30 13098 H 1226.32 -0.657129 -0.0952772 0
M  V30 13099 H 1228.85 -2.01787 0.338105 0
M  V30 13100 H 1228.86 -3.88678 -1.2407 0
M  V30 13101 H 1227.54 -4.15725 -0.120539 0
M  V30 13102 H 1226.12 -3.29898 -1.73845 0
M  V30 13103 N 1228.3 0.053464 -1.57509 0
M  V30 13104 C 1229.55 0.748016 -1.87317 0
M  V30 13105 C 1229.86 1.77805 -0.815161 0
M  V30 13106 O 1231.07 2.52347 -1.00167 0
M  V30 13107 C 1229.53 1.38137 -3.32334 0
M  V30 13108 C 1229.13 0.388958 -4.46308 0
M  V30 13109 C 1230.88 2.05722 -3.7132 0
M  V30 13110 C 1228.78 1.02927 -5.82374 0
M  V30 13111 H 1227.71 0.283123 -0.698826 0
M  V30 13112 H 1230.37 0.00170723 -1.835 0
M  V30 13113 H 1228.75 2.17656 -3.3082 0
M  V30 13114 H 1229.92 -0.377752 -4.59249 0
M  V30 13115 H 1228.24 -0.183447 -4.15996 0
M  V30 13116 H 1230.83 2.54437 -4.70283 0
M  V30 13117 H 1231.18 2.86475 -3.02056 0
M  V30 13118 H 1231.71 1.3301 -3.74904 0
M  V30 13119 H 1228.45 0.261674 -6.54977 0
M  V30 13120 H 1227.97 1.7664 -5.732 0
M  V30 13121 H 1229.65 1.54378 -6.28312 0
M  V30 13122 N 1229.78 1.54207 0.325255 0
M  V30 13123 C 1231 1.7661 1.08736 0
M  V30 13124 C 1231.43 0.512449 1.80985 0
M  V30 13125 O 1230.79 -0.535913 1.73198 0
M  V30 13126 C 1230.84 2.95797 2.06243 0
M  V30 13127 O 1229.94 2.67225 3.14109 0
M  V30 13128 H 1229.28 0.585282 0.313593 0
M  V30 13129 H 1231.81 2.01225 0.370066 0
M  V30 13130 H 1231.82 3.23097 2.49143 0
M  V30 13131 H 1230.5 3.86712 1.53058 0
M  V30 13132 H 1229.07 2.50869 2.75897 0
M  V30 13133 N 1231.26 -0.58723 1.46251 0
M  V30 13134 C 1232.48 -1.37661 1.55126 0
M  V30 13135 C 1232.91 -1.87123 0.191489 0
M  V30 13136 O 1232.27 -1.6131 -0.827576 0
M  V30 13137 C 1232.31 -2.54324 2.5564 0
M  V30 13138 O 1231.42 -3.55617 2.0883 0
M  V30 13139 H 1230.76 -0.410154 0.522178 0
M  V30 13140 H 1233.29 -0.712738 1.91784 0
M  V30 13141 H 1233.3 -3.01301 2.75103 0
M  V30 13142 H 1231.97 -2.17675 3.54387 0
M  V30 13143 H 1230.55 -3.15151 1.99335 0
M  V30 13144 N 1232.74 -1.33881 -0.831482 0
M  V30 13145 C 1233.96 -1.28961 -1.62431 0
M  V30 13146 C 1234.39 0.135249 -1.87613 0
M  V30 13147 O 1233.74 1.09426 -1.44553 0
M  V30 13148 C 1233.79 -2.07767 -2.94729 0
M  V30 13149 O 1232.9 -1.44133 -3.86393 0
M  V30 13150 H 1232.24 -0.443313 -0.494337 0
M  V30 13151 H 1234.77 -1.76555 -1.0339 0
M  V30 13152 H 1234.78 -2.18806 -3.44366 0
M  V30 13153 H 1233.45 -3.11367 -2.75724 0
M  V30 13154 H 1232.03 -1.41784 -3.44894 0
M  V30 13155 N 1234.21 1.05064 -1.1747 0
M  V30 13156 C 1235.62 1.59547 -0.969628 0
M  V30 13157 C 1235.98 1.90153 0.483332 0
M  V30 13158 O 1235.1 1.68415 1.35887 0
M  V30 13159 C 1235.7 2.89877 -1.75377 0
M  V30 13160 C 1234.25 3.41013 -1.59332 0
M  V30 13161 C 1233.4 2.1473 -1.7546 0
M  V30 13162 H 1236.35 0.878595 -1.3216 0
M  V30 13163 H 1236.37 3.59834 -1.23691 0
M  V30 13164 H 1235.89 2.67569 -2.8112 0
M  V30 13165 H 1233.99 3.68355 -0.560827 0
M  V30 13166 H 1234.1 4.15512 -2.38509 0
M  V30 13167 H 1232.46 2.25553 -1.18313 0
M  V30 13168 H 1233.25 1.9489 -2.82618 0
M  V30 13169 N 1235.69 0.975146 1.23809 0
M  V30 13170 C 1237.11 0.682899 1.44252 0
M  V30 13171 C 1237.31 -0.752739 1.86912 0
M  V30 13172 O 1236.36 -1.52579 2.01186 0
M  V30 13173 C 1237.68 1.67335 2.49839 0
M  V30 13174 C 1239.22 1.6868 2.63659 0
M  V30 13175 C 1239.7 2.66542 3.72451 0
M  V30 13176 N 1241.19 2.65028 3.79887 0
M  V30 13177 C 1241.93 3.37421 4.63611 0
M  V30 13178 N 1241.42 4.19355 5.51465 0
M  V30 13179 N 1243.21 3.2621 4.57759 0
M  V30 13180 H 1235.37 1.9026 0.94418 0
M  V30 13181 H 1237.63 0.819543 0.476502 0
M  V30 13182 H 1237.33 2.69978 2.25399 0
M  V30 13183 H 1237.21 1.45201 3.48133 0
M  V30 13184 H 1239.6 0.667438 2.87453 0
M  V30 13185 H 1239.68 1.94878 1.65699 0
M  V30 13186 H 1239.32 3.68617 3.49405 0
M  V30 13187 H 1239.25 2.3762 4.69941 0
M  V30 13188 H 1241.74 2.05562 3.171 0
M  V30 13189 H 1242.05 4.71461 6.12327 0
M  V30 13190 H 1240.4 4.23447 5.51106 0
M  V30 13191 H 1243.59 2.61656 3.88142 0
M  V30 13192 H 1243.76 3.82889 5.22781 0
M  V30 13193 N 1237.17 -1.38817 0.746158 0
M  V30 13194 C 1238.42 -2.00577 0.299458 0
M  V30 13195 C 1238.75 -1.59087 -1.11378 0
M  V30 13196 O 1238.02 -0.824932 -1.7614 0
M  V30 13197 C 1238.31 -3.57713 0.413932 0
M  V30 13198 C 1238.16 -4.09189 1.86774 0
M  V30 13199 C 1239.48 -4.39659 -0.197082 0
M  V30 13200 H 1236.6 -0.728702 0.110285 0
M  V30 13201 H 1239.24 -1.64866 0.944408 0
M  V30 13202 H 1237.39 -3.88265 -0.135155 0
M  V30 13203 H 1239.06 -3.89311 2.47456 0
M  V30 13204 H 1237.3 -3.62333 2.38532 0
M  V30 13205 H 1237.98 -5.18305 1.89904 0
M  V30 13206 H 1240.45 -4.15216 0.271121 0
M  V30 13207 H 1239.33 -5.48832 -0.0867011 0
M  V30 13208 H 1239.59 -4.23028 -1.2845 0
M  V30 13209 N 1238.65 -0.49465 -1.49636 0
M  V30 13210 C 1239.92 0.114829 -1.95263 0
M  V30 13211 C 1240.3 1.54739 -1.43593 0
M  V30 13212 O 1239.65 2.1915 -0.646953 0
M  V30 13213 C 1239.86 0.0339912 -3.48983 0
M  V30 13214 C 1241.21 0.211108 -4.24075 0
M  V30 13215 O 1242.23 0.109478 -3.56032 0
M  V30 13216 O 1241.09 0.418971 -5.44892 0
M  V30 13217 H 1238.19 0.0987883 -0.821078 0
M  V30 13218 H 1240.73 -0.556736 -1.60308 0
M  V30 13219 H 1239.51 -0.965287 -3.79207 0
M  V30 13220 H 1239.13 0.745982 -3.90539 0
M  V30 13221 N 1240.13 1.55939 -0.228214 0
M  V30 13222 C 1241.04 2.24213 0.690339 0
M  V30 13223 C 1242.05 1.25197 1.20838 0
M  V30 13224 O 1243.23 1.58026 1.24859 0
M  V30 13225 C 1240.29 2.91384 1.87873 0
M  V30 13226 C 1239.35 4.05761 1.40201 0
M  V30 13227 C 1238.59 4.6972 2.53376 0
M  V30 13228 O 1238.81 4.32687 3.71669 0
M  V30 13229 O 1237.74 5.58587 2.24198 0
M  V30 13230 H 1241.57 3.03383 0.138692 0
M  V30 13231 H 1239.15 1.494 0.00251504 0
M  V30 13232 H 1241.04 3.33758 2.57262 0
M  V30 13233 H 1239.71 2.15168 2.41835 0
M  V30 13234 H 1238.62 3.67943 0.675945 0
M  V30 13235 H 1239.95 4.83739 0.908691 0
M  V30 13236 N 1241.6 -0.0451101 1.57535 0
M  V30 13237 C 1242.55 -1.05066 2.05499 0
M  V30 13238 C 1243.52 -1.36884 0.940843 0
M  V30 13239 O 1244.71 -1.47497 1.21034 0
M  V30 13240 C 1241.85 -2.35139 2.52594 0
M  V30 13241 C 1240.96 -2.0962 3.77735 0
M  V30 13242 C 1240.09 -3.33447 4.13505 0
M  V30 13243 C 1239.13 -3.03411 5.31609 0
M  V30 13244 N 1238.27 -4.19644 5.62888 0
M  V30 13245 H 1243.11 -0.63469 2.91163 0
M  V30 13246 H 1240.65 -0.30179 1.43971 0
M  V30 13247 H 1242.61 -3.11118 2.7796 0
M  V30 13248 H 1241.24 -2.74489 1.69869 0
M  V30 13249 H 1240.29 -1.24211 3.59549 0
M  V30 13250 H 1241.6 -1.83452 4.63839 0
M  V30 13251 H 1240.75 -4.17805 4.39914 0
M  V30 13252 H 1239.49 -3.62715 3.2602 0
M  V30 13253 H 1238.5 -2.17453 5.04969 0
M  V30 13254 H 1239.72 -2.75438 6.20734 0
M  V30 13255 H 1237.67 -4.48893 4.78363 0
M  V30 13256 H 1237.59 -3.96843 6.43468 0
M  V30 13257 H 1238.85 -5.04921 5.93865 0
M  V30 13258 N 1243.08 -1.54377 -0.317073 0
M  V30 13259 C 1244.01 -1.80563 -1.41172 0
M  V30 13260 C 1245.03 -0.687865 -1.47554 0
M  V30 13261 O 1246.22 -0.965084 -1.50161 0
M  V30 13262 C 1243.32 -1.9142 -2.79663 0
M  V30 13263 C 1242.49 -3.21655 -2.96407 0
M  V30 13264 C 1241.55 -3.23131 -4.15298 0
M  V30 13265 O 1240.57 -3.96741 -4.08149 0
M  V30 13266 N 1241.78 -2.47376 -5.25153 0
M  V30 13267 H 1244.54 -2.75032 -1.1907 0
M  V30 13268 H 1242.1 -1.53754 -0.507086 0
M  V30 13269 H 1244.09 -1.89828 -3.57418 0
M  V30 13270 H 1242.66 -1.0402 -2.94786 0
M  V30 13271 H 1241.88 -3.36154 -2.05899 0
M  V30 13272 H 1243.17 -4.07629 -3.04494 0
M  V30 13273 H 1242.57 -1.87173 -5.33838 0
M  V30 13274 H 1241.13 -2.51555 -6.01301 0
M  V30 13275 N 1244.56 0.579466 -1.4656 0
M  V30 13276 C 1245.52 1.67033 -1.56948 0
M  V30 13277 C 1246.52 1.54481 -0.446361 0
M  V30 13278 O 1247.71 1.5904 -0.710767 0
M  V30 13279 C 1244.85 3.06474 -1.49286 0
M  V30 13280 H 1246.04 1.59179 -2.54169 0
M  V30 13281 H 1243.59 0.797573 -1.34419 0
M  V30 13282 H 1244.33 3.1988 -0.533572 0
M  V30 13283 H 1244.11 3.16993 -2.30776 0
M  V30 13284 H 1245.6 3.85879 -1.59648 0
M  V30 13285 N 1246.04 1.3432 0.824371 0
M  V30 13286 C 1247.26 1.2982 1.61745 0
M  V30 13287 C 1247.69 -0.125298 1.87682 0
M  V30 13288 O 1247.05 -1.08658 1.45131 0
M  V30 13289 C 1247.09 2.09327 2.93623 0
M  V30 13290 O 1246.2 1.4618 3.85623 0
M  V30 13291 H 1245.54 0.445929 0.491979 0
M  V30 13292 H 1248.07 1.77101 1.02452 0
M  V30 13293 H 1248.08 2.20629 3.43201 0
M  V30 13294 H 1246.75 3.12825 2.74069 0
M  V30 13295 H 1245.33 1.43611 3.44137 0
M  V30 13296 N 1247.52 -1.0444 1.18026 0
M  V30 13297 C 1248.77 -1.7697 0.9677 0
M  V30 13298 C 1249.08 -1.88995 -0.503994 0
M  V30 13299 O 1250.28 -2.58342 -0.834968 0
M  V30 13300 C 1248.74 -3.1816 1.68232 0
M  V30 13301 C 1248.35 -3.14241 3.19307 0
M  V30 13302 C 1250.09 -3.95095 1.55244 0
M  V30 13303 C 1248 -4.50266 3.83425 0
M  V30 13304 H 1246.93 -0.663355 0.358436 0
M  V30 13305 H 1249.58 -1.17003 1.4136 0
M  V30 13306 H 1247.96 -3.78501 1.16418 0
M  V30 13307 H 1249.14 -2.63373 3.78115 0
M  V30 13308 H 1247.45 -2.50805 3.32394 0
M  V30 13309 H 1250.05 -4.95681 2.00511 0
M  V30 13310 H 1250.39 -4.13236 0.504125 0
M  V30 13311 H 1250.92 -3.4132 2.04317 0
M  V30 13312 H 1247.66 -4.37329 4.88286 0
M  V30 13313 H 1247.18 -5.01251 3.29404 0
M  V30 13314 H 1248.86 -5.1919 3.86071 0
M  V30 13315 N 1248.99 -0.981699 -1.2329 0
M  V30 13316 C 1250.22 -0.66937 -1.95773 0
M  V30 13317 C 1250.64 0.763898 -1.72656 0
M  V30 13318 O 1249.99 1.51418 -1.01876 0
M  V30 13319 C 1250.05 -0.951863 -3.48743 0
M  V30 13320 O 1249.77 -2.3288 -3.71078 0
M  V30 13321 C 1251.27 -0.655668 -4.38424 0
M  V30 13322 H 1248.49 -0.248545 -0.623271 0
M  V30 13323 H 1251.03 -1.31343 -1.56746 0
M  V30 13324 H 1249.19 -0.353787 -3.85781 0
M  V30 13325 H 1249.6 -2.41948 -4.65362 0
M  V30 13326 H 1251.07 -0.903683 -5.44553 0
M  V30 13327 H 1251.55 0.410269 -4.3728 0
M  V30 13328 H 1252.16 -1.23428 -4.06996 0
M  V30 13329 N 1250.47 1.3842 -0.753509 0
M  V30 13330 C 1251.72 2.00415 -0.310091 0
M  V30 13331 C 1252.05 1.59675 1.10532 0
M  V30 13332 O 1251.33 0.834261 1.757 0
M  V30 13333 C 1251.61 3.57488 -0.432897 0
M  V30 13334 C 1251.46 4.08193 -1.88941 0
M  V30 13335 C 1252.78 4.39757 0.173763 0
M  V30 13336 H 1249.9 0.728107 -0.114147 0
M  V30 13337 H 1252.54 1.64363 -0.953138 0
M  V30 13338 H 1250.69 3.88331 0.114563 0
M  V30 13339 H 1252.36 3.87993 -2.49517 0
M  V30 13340 H 1250.61 3.61063 -2.4045 0
M  V30 13341 H 1251.28 5.17291 -1.9265 0
M  V30 13342 H 1253.75 4.15066 -0.293137 0
M  V30 13343 H 1252.63 5.4887 0.057594 0
M  V30 13344 H 1252.89 4.23704 1.26205 0
M  V30 13345 N 1251.95 0.502579 1.49372 0
M  V30 13346 C 1253.18 -0.0403087 2.07361 0
M  V30 13347 C 1253.6 -1.29918 1.36026 0
M  V30 13348 O 1252.96 -1.76428 0.417488 0
M  V30 13349 C 1253.01 -0.275362 3.59547 0
M  V30 13350 O 1252.11 -1.34975 3.89686 0
M  V30 13351 H 1251.45 0.0269268 0.663454 0
M  V30 13352 H 1253.98 0.702652 1.92156 0
M  V30 13353 H 1253.99 -0.506392 4.04845 0
M  V30 13354 H 1252.67 0.644382 4.10878 0
M  V30 13355 H 1251.24 -1.10355 3.56197 0
M  V30 13356 N 1253.43 -1.55816 0.23648 0
M  V30 13357 C 1254.67 -1.98981 -0.391725 0
M  V30 13358 C 1255.01 -1.12428 -1.58346 0
M  V30 13359 O 1254.28 -0.185303 -1.93615 0
M  V30 13360 C 1254.57 -3.50831 -0.811759 0
M  V30 13361 C 1254.42 -4.48152 0.384648 0
M  V30 13362 C 1255.74 -4.07489 -1.66254 0
M  V30 13363 H 1252.86 -0.723404 -0.140911 0
M  V30 13364 H 1255.5 -1.87011 0.335706 0
M  V30 13365 H 1253.65 -3.61162 -1.43157 0
M  V30 13366 H 1255.32 -4.49814 1.02298 0
M  V30 13367 H 1253.56 -4.21406 1.02955 0
M  V30 13368 H 1254.23 -5.51979 0.0475809 0
M  V30 13369 H 1256.71 -4.00195 -1.13944 0
M  V30 13370 H 1255.59 -5.14026 -1.92531 0
M  V30 13371 H 1255.85 -3.55297 -2.6309 0
M  V30 13372 N 1254.91 0.036755 -1.57557 0
M  V30 13373 C 1256.15 0.730186 -1.89199 0
M  V30 13374 C 1256.49 1.75414 -0.833271 0
M  V30 13375 O 1255.76 1.93901 0.152579 0
M  V30 13376 C 1256.04 1.40669 -3.31488 0
M  V30 13377 C 1255.9 0.396764 -4.48047 0
M  V30 13378 C 1257.22 2.34268 -3.72567 0
M  V30 13379 H 1254.33 0.263983 -0.6881 0
M  V30 13380 H 1256.98 -0.0069847 -1.89999 0
M  V30 13381 H 1255.13 2.03502 -3.30937 0
M  V30 13382 H 1256.8 -0.229062 -4.60731 0
M  V30 13383 H 1255.04 -0.284698 -4.32865 0
M  V30 13384 H 1255.71 0.908436 -5.44474 0
M  V30 13385 H 1258.19 1.81485 -3.74436 0
M  V30 13386 H 1257.06 2.78587 -4.72949 0
M  V30 13387 H 1257.33 3.20611 -3.04403 0
M  V30 13388 N 1256.39 1.54543 0.308881 0
M  V30 13389 C 1257.61 1.77753 1.06857 0
M  V30 13390 C 1258.04 0.531616 1.80431 0
M  V30 13391 O 1257.39 -0.517513 1.73757 0
M  V30 13392 C 1257.44 2.97968 2.03094 0
M  V30 13393 O 1256.55 2.70541 3.11257 0
M  V30 13394 H 1255.89 0.588576 0.307368 0
M  V30 13395 H 1258.42 2.01607 0.348703 0
M  V30 13396 H 1258.43 3.25722 2.45702 0
M  V30 13397 H 1257.1 3.88314 1.48948 0
M  V30 13398 H 1255.68 2.53781 2.7322 0
M  V30 13399 N 1257.86 -0.571685 1.46866 0
M  V30 13400 C 1259.11 -1.32685 1.52444 0
M  V30 13401 C 1259.43 -1.94147 0.182225 0
M  V30 13402 O 1258.7 -1.79159 -0.792385 0
M  V30 13403 H 1257.28 -0.492679 0.561495 0
M  V30 13404 H 1259.94 -0.668694 1.8307 0
M  V30 13405 H 1259.04 -2.12788 2.28315 0
M  V30 13406 N 1259.34 -1.34755 -0.817236 0
M  V30 13407 C 1260.25 -1.28888 -1.96023 0
M  V30 13408 C 1261.27 -0.195582 -1.72897 0
M  V30 13409 O 1262.44 -0.423071 -1.96906 0
M  V30 13410 C 1259.51 -1.04985 -3.30423 0
M  V30 13411 C 1258.57 -2.23526 -3.66517 0
M  V30 13412 C 1257.8 -2.00753 -4.94504 0
M  V30 13413 O 1258.03 -0.968622 -5.62116 0
M  V30 13414 O 1256.96 -2.87848 -5.28608 0
M  V30 13415 H 1260.79 -2.25059 -2.03917 0
M  V30 13416 H 1258.37 -1.15019 -0.953467 0
M  V30 13417 H 1260.25 -0.934589 -4.10906 0
M  V30 13418 H 1258.93 -0.118582 -3.23483 0
M  V30 13419 H 1257.83 -2.40613 -2.86455 0
M  V30 13420 H 1259.17 -3.15062 -3.78149 0
M  V30 13421 N 1260.82 1.03812 -1.18578 0
M  V30 13422 C 1261.78 2.10049 -0.91718 0
M  V30 13423 C 1262.78 1.60498 0.0985122 0
M  V30 13424 O 1263.97 1.73674 -0.135213 0
M  V30 13425 C 1261.1 3.38813 -0.376599 0
M  V30 13426 H 1262.3 2.3531 -1.85927 0
M  V30 13427 H 1259.85 1.20277 -0.998156 0
M  V30 13428 H 1260.59 3.19216 0.571983 0
M  V30 13429 H 1260.37 3.76096 -1.10881 0
M  V30 13430 H 1261.86 4.17084 -0.207453 0
M  V30 13431 N 1262.3 0.988223 1.22768 0
M  V30 13432 C 1263.54 0.672085 1.91975 0
M  V30 13433 C 1263.9 -0.786719 1.7558 0
M  V30 13434 O 1263.19 -1.561 1.111 0
M  V30 13435 C 1263.39 1.00744 3.42907 0
M  V30 13436 C 1263.21 2.4973 3.73985 0
M  V30 13437 C 1261.98 3.16058 3.94253 0
M  V30 13438 C 1264.18 3.47831 3.78838 0
M  V30 13439 N 1262.16 4.54568 4.12603 0
M  V30 13440 C 1263.54 4.7178 4.02273 0
M  V30 13441 C 1265.59 3.42203 3.61665 0
M  V30 13442 C 1264.29 5.90789 4.10318 0
M  V30 13443 C 1266.32 4.60584 3.70967 0
M  V30 13444 C 1265.68 5.83331 3.94847 0
M  V30 13445 H 1261.78 0.297129 0.723352 0
M  V30 13446 H 1264.36 1.26728 1.47811 0
M  V30 13447 H 1262.54 0.440869 3.8589 0
M  V30 13448 H 1264.27 0.647774 3.99482 0
M  V30 13449 H 1261.02 2.66536 3.91479 0
M  V30 13450 H 1261.45 5.26399 4.25715 0
M  V30 13451 H 1266.09 2.48323 3.42193 0
M  V30 13452 H 1263.81 6.85078 4.28596 0
M  V30 13453 H 1267.39 4.57813 3.59024 0
M  V30 13454 H 1266.27 6.73403 4.01868 0
M  V30 13455 N 1263.78 -1.38018 0.760839 0
M  V30 13456 C 1265 -2.04757 0.330038 0
M  V30 13457 C 1265.43 -1.57009 -1.03585 0
M  V30 13458 O 1264.78 -0.725349 -1.66158 0
M  V30 13459 C 1264.83 -3.58696 0.370082 0
M  V30 13460 O 1263.94 -4.07507 -0.633361 0
M  V30 13461 H 1263.28 -0.648023 0.144782 0
M  V30 13462 H 1265.81 -1.7655 1.03399 0
M  V30 13463 H 1265.82 -4.07387 0.223515 0
M  V30 13464 H 1264.49 -3.92806 1.36661 0
M  V30 13465 H 1263.07 -3.70165 -0.45081 0
M  V30 13466 N 1265.25 -0.510493 -1.49103 0
M  V30 13467 C 1266.5 0.0305831 -2.02077 0
M  V30 13468 C 1266.82 1.36602 -1.39157 0
M  V30 13469 O 1266.09 1.88016 -0.550154 0
M  V30 13470 H 1264.67 0.0142916 -0.746863 0
M  V30 13471 H 1267.33 -0.669895 -1.83026 0
M  V30 13472 H 1266.43 0.153283 -3.11723 0
M  V30 13473 N 1266.73 1.55688 -0.24474 0
M  V30 13474 C 1267.96 2.02995 0.38425 0
M  V30 13475 C 1268.37 1.12339 1.52239 0
M  V30 13476 O 1267.71 0.129803 1.83241 0
M  V30 13477 C 1267.77 3.46564 0.955701 0
M  V30 13478 C 1267.44 4.56973 -0.0499176 0
M  V30 13479 C 1268.44 5.1276 -0.858682 0
M  V30 13480 C 1266.12 5.01994 -0.175383 0
M  V30 13481 C 1268.11 6.12059 -1.77939 0
M  V30 13482 C 1265.8 6.01126 -1.0996 0
M  V30 13483 C 1266.8 6.56037 -1.90013 0
M  V30 13484 O 1266.49 7.53235 -2.80877 0
M  V30 13485 H 1266.22 0.669189 0.0957212 0
M  V30 13486 H 1268.77 2.02121 -0.36555 0
M  V30 13487 H 1267 3.44581 1.75502 0
M  V30 13488 H 1268.69 3.77383 1.49454 0
M  V30 13489 H 1269.46 4.78811 -0.772325 0
M  V30 13490 H 1265.34 4.58918 0.437644 0
M  V30 13491 H 1268.88 6.54845 -2.40465 0
M  V30 13492 H 1264.78 6.34494 -1.18689 0
M  V30 13493 H 1265.55 7.70844 -2.75214 0
M  V30 13494 N 1268.21 -0.0283989 1.57574 0
M  V30 13495 C 1269.46 -0.717656 1.88929 0
M  V30 13496 C 1269.78 -1.7586 0.842517 0
M  V30 13497 O 1269.05 -1.95509 -0.123774 0
M  V30 13498 H 1267.63 -0.268051 0.69725 0
M  V30 13499 H 1270.29 0.00580691 1.94899 0
M  V30 13500 H 1269.39 -1.2068 2.87824 0
M  V30 13501 N 1269.69 -1.54705 -0.300681 0
M  V30 13502 C 1270.6 -1.88736 -1.39341 0
M  V30 13503 C 1271.61 -0.78155 -1.5546 0
M  V30 13504 O 1272.79 -1.07804 -1.70118 0
M  V30 13505 C 1269.85 -2.12795 -2.73713 0
M  V30 13506 C 1268.92 -3.36504 -2.66577 0
M  V30 13507 C 1268.15 -3.59407 -3.94541 0
M  V30 13508 O 1268.37 -2.85315 -4.93914 0
M  V30 13509 O 1267.31 -4.52923 -3.96415 0
M  V30 13510 H 1271.13 -2.817 -1.13484 0
M  V30 13511 H 1268.72 -1.40899 -0.496771 0
M  V30 13512 H 1270.6 -2.29819 -3.53215 0
M  V30 13513 H 1269.27 -1.23017 -2.99414 0
M  V30 13514 H 1268.18 -3.24844 -1.85546 0
M  V30 13515 H 1269.51 -4.26414 -2.45829 0
M  V30 13516 N 1271.17 0.563888 -1.47167 0
M  V30 13517 C 1272.4 1.34498 -1.56825 0
M  V30 13518 C 1272.8 1.87974 -0.215011 0
M  V30 13519 O 1272.15 1.65323 0.80087 0
M  V30 13520 C 1272.21 2.55602 -2.528 0
M  V30 13521 C 1271.87 2.23459 -3.98642 0
M  V30 13522 C 1272.87 1.81155 -4.87318 0
M  V30 13523 C 1270.56 2.35024 -4.43925 0
M  V30 13524 C 1272.55 1.50835 -6.19296 0
M  V30 13525 C 1270.24 2.04317 -5.75932 0
M  V30 13526 C 1271.23 1.6229 -6.63439 0
M  V30 13527 O 1270.92 1.31969 -7.92994 0
M  V30 13528 H 1270.65 0.416551 -0.532411 0
M  V30 13529 H 1273.21 0.690611 -1.93442 0
M  V30 13530 H 1271.44 3.23907 -2.11237 0
M  V30 13531 H 1273.13 3.17677 -2.52659 0
M  V30 13532 H 1273.89 1.71719 -4.53583 0
M  V30 13533 H 1269.77 2.66696 -3.76024 0
M  V30 13534 H 1273.32 1.17958 -6.87555 0
M  V30 13535 H 1269.21 2.13383 -6.09211 0
M  V30 13536 H 1269.98 1.45656 -8.05436 0
M  V30 13537 N 1272.64 1.35187 0.810078 0
M  V30 13538 C 1273.59 1.27822 1.92173 0
M  V30 13539 C 1274.56 0.150851 1.65414 0
M  V30 13540 O 1275.75 0.333973 1.87854 0
M  V30 13541 C 1272.89 1.05258 3.28656 0
M  V30 13542 C 1272 2.26884 3.67624 0
M  V30 13543 C 1271.13 1.97499 4.9312 0
M  V30 13544 C 1270.17 3.15198 5.24706 0
M  V30 13545 N 1269.31 2.85612 6.41381 0
M  V30 13546 H 1274.15 2.22884 1.97804 0
M  V30 13547 H 1271.69 1.10799 0.967577 0
M  V30 13548 H 1273.65 0.902084 4.07331 0
M  V30 13549 H 1272.28 0.138583 3.22502 0
M  V30 13550 H 1271.33 2.5281 2.84238 0
M  V30 13551 H 1272.64 3.14783 3.86928 0
M  V30 13552 H 1271.79 1.7926 5.79613 0
M  V30 13553 H 1270.53 1.0688 4.75844 0
M  V30 13554 H 1269.54 3.34019 4.36705 0
M  V30 13555 H 1270.76 4.06614 5.43913 0
M  V30 13556 H 1268.71 1.97583 6.25537 0
M  V30 13557 H 1268.63 3.67044 6.60919 0
M  V30 13558 H 1269.89 2.70906 7.3091 0
M  V30 13559 N 1274.12 -1.03182 1.19127 0
M  V30 13560 C 1275.37 -1.76184 0.990134 0
M  V30 13561 C 1275.69 -1.88986 -0.480546 0
M  V30 13562 O 1274.96 -1.4213 -1.34817 0
M  V30 13563 H 1273.54 -0.652668 0.363364 0
M  V30 13564 H 1276.2 -1.24481 1.49968 0
M  V30 13565 H 1275.3 -2.77119 1.43568 0
M  V30 13566 N 1275.6 -0.99472 -1.22242 0
M  V30 13567 C 1276.85 -0.667045 -1.90351 0
M  V30 13568 C 1277.16 0.804615 -1.78284 0
M  V30 13569 O 1278.37 1.24395 -2.41326 0
M  V30 13570 C 1276.82 -1.14256 -3.41282 0
M  V30 13571 C 1276.43 -2.63958 -3.61981 0
M  V30 13572 C 1278.18 -0.889302 -4.1508 0
M  V30 13573 C 1276.08 -3.05103 -5.06622 0
M  V30 13574 H 1275.01 -0.245795 -0.712812 0
M  V30 13575 H 1277.66 -1.20452 -1.38432 0
M  V30 13576 H 1276.05 -0.533203 -3.92394 0
M  V30 13577 H 1277.22 -3.30255 -3.21354 0
M  V30 13578 H 1275.54 -2.87186 -3.01518 0
M  V30 13579 H 1278.13 -1.17239 -5.21689 0
M  V30 13580 H 1278.48 0.174556 -4.15934 0
M  V30 13581 H 1279.01 -1.46095 -3.70002 0
M  V30 13582 H 1275.75 -4.10672 -5.1091 0
M  V30 13583 H 1275.27 -2.4351 -5.48145 0
M  V30 13584 H 1276.95 -2.96506 -5.75059 0
M  V30 13585 N 1277.08 1.37613 -0.768148 0
M  V30 13586 C 1278.04 2.28653 -0.158283 0
M  V30 13587 C 1279.04 1.47862 0.631936 0
M  V30 13588 O 1280.23 1.68124 0.456055 0
M  V30 13589 C 1277.36 3.31776 0.783435 0
M  V30 13590 H 1278.56 2.84094 -0.960772 0
M  V30 13591 H 1276.11 1.46818 -0.536116 0
M  V30 13592 H 1276.84 2.81452 1.61106 0
M  V30 13593 H 1276.63 3.91488 0.219016 0
M  V30 13594 H 1278.12 3.99816 1.20568 0
M  V30 13595 N 1278.56 0.518393 1.4883 0
M  V30 13596 C 1279.78 -0.0183131 2.07392 0
M  V30 13597 C 1280.21 -1.28468 1.37396 0
M  V30 13598 O 1279.56 -1.75975 0.436177 0
M  V30 13599 C 1279.61 -0.237211 3.59819 0
M  V30 13600 O 1278.72 -1.30835 3.91096 0
M  V30 13601 H 1278.06 0.0339621 0.663131 0
M  V30 13602 H 1280.59 0.722993 1.914 0
M  V30 13603 H 1280.6 -0.463424 4.0536 0
M  V30 13604 H 1279.27 0.687925 4.10171 0
M  V30 13605 H 1277.85 -1.06571 3.57347 0
M  V30 13606 N 1280.03 -1.55556 0.252993 0
M  V30 13607 C 1280.98 -2.23035 -0.660161 0
M  V30 13608 C 1281.98 -1.21994 -1.17532 0
M  V30 13609 O 1283.18 -1.39989 -1.13151 0
M  V30 13610 H 1279.56 -0.715516 -0.23139 0
M  V30 13611 H 1281.53 -2.98323 -0.0679506 0
M  V30 13612 C 1280.28 -2.94817 -1.84332 0
M  V30 13613 H 1279.6 -3.72342 -1.45607 0
M  V30 13614 H 1281.04 -3.45386 -2.45936 0
M  V30 13615 C 1279.5 -1.99033 -2.71822 0
M  V30 13616 O 1280.03 -1.5273 -3.71533 0
M  V30 13617 N 1278.24 -1.66004 -2.38518 0
M  V30 13618 H 1277.78 -2.03853 -1.57485 0
M  V30 13619 H 1277.74 -1.02183 -2.97331 0
M  V30 13620 N 1281.51 0.0200419 -1.57587 0
M  V30 13621 C 1282.74 0.719511 -1.93666 0
M  V30 13622 C 1283.15 1.68934 -0.85193 0
M  V30 13623 O 1282.49 1.8282 0.179593 0
M  V30 13624 C 1282.56 1.52382 -3.25607 0
M  V30 13625 C 1282.22 0.717784 -4.51328 0
M  V30 13626 C 1283.22 0.0141272 -5.19898 0
M  V30 13627 C 1280.9 0.669662 -4.97816 0
M  V30 13628 C 1282.9 -0.726853 -6.33242 0
M  V30 13629 C 1280.58 -0.0750577 -6.11054 0
M  V30 13630 C 1281.58 -0.772067 -6.78622 0
M  V30 13631 O 1281.27 -1.50468 -7.89693 0
M  V30 13632 H 1281 0.206681 -0.643629 0
M  V30 13633 H 1283.55 -0.0211203 -2.05389 0
M  V30 13634 H 1281.78 2.30848 -3.10236 0
M  V30 13635 H 1283.47 2.10675 -3.46945 0
M  V30 13636 H 1284.24 0.0422784 -4.84982 0
M  V30 13637 H 1280.12 1.20169 -4.45062 0
M  V30 13638 H 1283.66 -1.27143 -6.85916 0
M  V30 13639 H 1279.56 -0.1051 -6.45414 0
M  V30 13640 H 1280.33 -1.41929 -8.06101 0
M  V30 13641 N 1282.99 1.54862 0.292472 0
M  V30 13642 C 1283.92 1.89406 1.36556 0
M  V30 13643 C 1284.9 0.753838 1.52484 0
M  V30 13644 O 1286.09 1.01031 1.6585 0
M  V30 13645 C 1283.22 2.14888 2.72838 0
M  V30 13646 C 1282.17 3.3073 2.71665 0
M  V30 13647 C 1281.5 3.41648 4.11316 0
M  V30 13648 C 1282.8 4.67622 2.32651 0
M  V30 13649 H 1284.49 2.79284 1.07894 0
M  V30 13650 H 1282.04 1.34377 0.517585 0
M  V30 13651 H 1283.99 2.3764 3.48002 0
M  V30 13652 H 1282.71 1.2179 3.03042 0
M  V30 13653 H 1281.37 3.07915 1.98958 0
M  V30 13654 H 1281.02 2.46051 4.38711 0
M  V30 13655 H 1280.72 4.19522 4.11431 0
M  V30 13656 H 1282.24 3.6667 4.88248 0
M  V30 13657 H 1283.66 4.90048 2.97533 0
M  V30 13658 H 1282.06 5.48272 2.43963 0
M  V30 13659 H 1283.13 4.67762 1.27777 0
M  V30 13660 N 1284.47 -0.556076 1.47464 0
M  V30 13661 C 1285.43 -1.64515 1.59586 0
M  V30 13662 C 1286.43 -1.53751 0.470881 0
M  V30 13663 O 1287.62 -1.57889 0.735979 0
M  V30 13664 C 1284.75 -3.0406 1.54143 0
M  V30 13665 H 1285.95 -1.55116 2.56669 0
M  V30 13666 H 1283.5 -0.776087 1.35671 0
M  V30 13667 H 1284.23 -3.18991 0.584395 0
M  V30 13668 H 1284.02 -3.13282 2.3579 0
M  V30 13669 H 1285.51 -3.8329 1.65766 0
M  V30 13670 N 1285.95 -1.35615 -0.802897 0
M  V30 13671 C 1286.86 -1.3096 -1.94645 0
M  V30 13672 C 1287.87 -0.213909 -1.7268 0
M  V30 13673 O 1289.05 -0.443932 -1.96446 0
M  V30 13674 C 1286.11 -1.08483 -3.2929 0
M  V30 13675 C 1285.18 -2.27401 -3.64126 0
M  V30 13676 C 1284.41 -2.05987 -4.92347 0
M  V30 13677 O 1284.63 -1.02819 -5.61057 0
M  V30 13678 O 1283.57 -2.93439 -5.25526 0
M  V30 13679 H 1287.39 -2.27209 -2.01519 0
M  V30 13680 H 1284.98 -1.16024 -0.941214 0
M  V30 13681 H 1286.86 -0.978118 -4.09891 0
M  V30 13682 H 1285.53 -0.152885 -3.23339 0
M  V30 13683 H 1284.44 -2.43638 -2.83886 0
M  V30 13684 H 1285.77 -3.19055 -3.74786 0
M  V30 13685 N 1287.43 1.02549 -1.19673 0
M  V30 13686 C 1288.36 2.12794 -0.961289 0
M  V30 13687 C 1289.34 1.69766 0.106575 0
M  V30 13688 O 1290.52 1.94138 -0.0491358 0
M  V30 13689 C 1287.65 3.4364 -0.502868 0
M  V30 13690 C 1286.61 4.00367 -1.51296 0
M  V30 13691 C 1285.93 5.26874 -0.911491 0
M  V30 13692 C 1287.23 4.34782 -2.89416 0
M  V30 13693 H 1288.93 2.32748 -1.88331 0
M  V30 13694 H 1286.47 1.11852 -0.906922 0
M  V30 13695 H 1288.42 4.20141 -0.325436 0
M  V30 13696 H 1287.15 3.23418 0.454764 0
M  V30 13697 H 1285.81 3.25964 -1.67759 0
M  V30 13698 H 1285.46 5.02971 0.0537982 0
M  V30 13699 H 1285.16 5.65791 -1.58602 0
M  V30 13700 H 1286.68 6.06039 -0.74493 0
M  V30 13701 H 1288.09 5.02207 -2.76516 0
M  V30 13702 H 1286.49 4.8479 -3.53693 0
M  V30 13703 H 1287.56 3.43935 -3.41814 0
M  V30 13704 N 1288.9 1.00119 1.21713 0
M  V30 13705 C 1289.84 0.516633 2.23301 0
M  V30 13706 C 1290.85 -0.392732 1.57992 0
M  V30 13707 O 1292.04 -0.19354 1.77448 0
M  V30 13708 C 1289.14 -0.269612 3.37826 0
M  V30 13709 C 1288.31 0.637898 4.32723 0
M  V30 13710 C 1287.37 -0.0980745 5.26109 0
M  V30 13711 O 1286.4 0.519302 5.66826 0
M  V30 13712 N 1287.6 -1.37783 5.63911 0
M  V30 13713 H 1290.36 1.39022 2.65505 0
M  V30 13714 H 1287.92 0.87688 1.36097 0
M  V30 13715 H 1289.92 -0.770826 3.97291 0
M  V30 13716 H 1288.49 -1.04436 2.94638 0
M  V30 13717 H 1287.71 1.31966 3.71455 0
M  V30 13718 H 1288.99 1.25564 4.93063 0
M  V30 13719 H 1288.39 -1.90061 5.32817 0
M  V30 13720 H 1286.95 -1.82407 6.25756 0
M  V30 13721 N 1290.38 -1.37203 0.775435 0
M  V30 13722 C 1291.29 -2.34019 0.165062 0
M  V30 13723 C 1292.31 -1.6036 -0.675316 0
M  V30 13724 O 1293.48 -1.9243 -0.594375 0
M  V30 13725 C 1290.55 -3.3954 -0.700957 0
M  V30 13726 C 1289.61 -4.29015 0.156304 0
M  V30 13727 C 1288.84 -5.29497 -0.668476 0
M  V30 13728 O 1289.07 -5.37636 -1.90535 0
M  V30 13729 O 1288 -6.01852 -0.0757351 0
M  V30 13730 H 1291.83 -2.87955 0.965184 0
M  V30 13731 H 1289.41 -1.39429 0.536654 0
M  V30 13732 H 1291.29 -4.04094 -1.19524 0
M  V30 13733 H 1289.97 -2.87926 -1.4792 0
M  V30 13734 H 1288.87 -3.67549 0.69703 0
M  V30 13735 H 1290.21 -4.83944 0.897725 0
M  V30 13736 N 1291.86 -0.526279 -1.48553 0
M  V30 13737 C 1293.11 0.00914839 -2.02098 0
M  V30 13738 C 1293.43 1.35119 -1.40598 0
M  V30 13739 O 1292.7 1.87422 -0.570065 0
M  V30 13740 H 1291.28 0.00636935 -0.746973 0
M  V30 13741 H 1293.94 -0.689269 -1.82305 0
M  V30 13742 H 1293.04 0.120212 -3.11868 0
M  V30 13743 N 1293.34 1.5542 -0.261239 0
M  V30 13744 C 1294.61 1.91243 0.41056 0
M  V30 13745 C 1294.99 1.1838 1.74784 0
M  V30 13746 O 1294.34 0.306013 2.26442 0
M  V30 13747 C 1294.55 3.44404 0.56453 0
M  V30 13748 C 1295.9 4.15927 0.853827 0
M  V30 13749 O 1296.92 3.50222 0.649861 0
M  V30 13750 O 1295.78 5.32175 1.24308 0
M  V30 13751 H 1292.88 0.796491 0.222555 0
M  V30 13752 H 1295.42 1.66912 -0.306367 0
M  V30 13753 H 1294.2 3.89478 -0.377134 0
M  V30 13754 H 1293.82 3.74644 1.33145 0
M  V30 13755 N 1294.82 -0.0116844 1.57596 0
M  V30 13756 C 1296.04 -0.71026 1.94327 0
M  V30 13757 C 1296.46 -1.67952 0.862418 0
M  V30 13758 O 1295.82 -1.818 -0.159698 0
M  V30 13759 C 1295.87 -1.45228 3.31045 0
M  V30 13760 O 1295.59 -0.52191 4.3498 0
M  V30 13761 C 1297.09 -2.24644 3.82165 0
M  V30 13762 H 1294.31 -0.198559 0.640949 0
M  V30 13763 H 1296.85 0.0359615 2.04468 0
M  V30 13764 H 1295.01 -2.15023 3.22248 0
M  V30 13765 H 1295.42 -1.04415 5.14002 0
M  V30 13766 H 1296.9 -2.72078 4.80289 0
M  V30 13767 H 1297.37 -3.06817 3.14261 0
M  V30 13768 H 1297.98 -1.59888 3.94101 0
M  V30 13769 N 1296.29 -1.55015 -0.284256 0
M  V30 13770 C 1297.54 -1.74297 -1.01506 0
M  V30 13771 C 1297.86 -0.545134 -1.8785 0
M  V30 13772 O 1299.06 -0.620118 -2.64323 0
M  V30 13773 C 1297.52 -3.08438 -1.85456 0
M  V30 13774 C 1297.13 -4.35753 -1.04034 0
M  V30 13775 C 1298.87 -3.37073 -2.58035 0
M  V30 13776 C 1296.78 -5.60938 -1.87358 0
M  V30 13777 H 1295.71 -0.649656 -0.382705 0
M  V30 13778 H 1298.36 -1.81484 -0.271239 0
M  V30 13779 H 1296.74 -2.95259 -2.63891 0
M  V30 13780 H 1297.91 -4.59816 -0.300954 0
M  V30 13781 H 1296.23 -4.14178 -0.429616 0
M  V30 13782 H 1298.83 -4.27806 -3.20759 0
M  V30 13783 H 1299.17 -2.56698 -3.27738 0
M  V30 13784 H 1299.7 -3.51299 -1.86638 0
M  V30 13785 H 1296.44 -6.44029 -1.22096 0
M  V30 13786 H 1295.96 -5.41035 -2.58923 0
M  V30 13787 H 1297.64 -5.98819 -2.44999 0
M  V30 13788 N 1297.77 0.548248 -1.47757 0
M  V30 13789 C 1299 1.3302 -1.58472 0
M  V30 13790 C 1299.41 1.87292 -0.238186 0
M  V30 13791 O 1298.77 1.65465 0.76991 0
M  V30 13792 C 1298.82 2.49386 -2.61704 0
M  V30 13793 O 1298.54 1.97355 -3.9113 0
M  V30 13794 C 1300.04 3.41471 -2.82688 0
M  V30 13795 H 1297.26 0.405172 -0.534861 0
M  V30 13796 H 1299.81 0.663251 -1.93446 0
M  V30 13797 H 1297.96 3.12001 -2.29639 0
M  V30 13798 H 1298.38 2.7339 -4.47614 0
M  V30 13799 H 1299.85 4.19516 -3.58762 0
M  V30 13800 H 1300.33 3.95573 -1.90837 0
M  V30 13801 H 1300.93 2.84664 -3.15985 0
M  V30 13802 N 1299.25 1.36039 0.795694 0
M  V30 13803 C 1300.49 1.31295 1.56656 0
M  V30 13804 C 1300.85 -0.108324 1.91694 0
M  V30 13805 O 1302.05 -0.280248 2.67335 0
M  V30 13806 C 1300.33 2.20411 2.81343 0
M  V30 13807 S 1301.88 2.33289 3.71647 0
M  V30 13808 H 1298.7 0.46644 0.536614 0
M  V30 13809 H 1301.3 1.71544 0.937697 0
M  V30 13810 H 1300.01 3.22635 2.53643 0
M  V30 13811 H 1299.54 1.81158 3.49207 0
M  V30 13812 H 1301.55 1.52575 4.7216 0
M  V30 13813 N 1300.73 -1.01913 1.20215 0
M  V30 13814 C 1301.98 -1.7547 1.01076 0
M  V30 13815 C 1302.3 -1.89045 -0.457404 0
M  V30 13816 O 1301.56 -1.41121 -1.35585 0
M  V30 13817 C 1301.86 -3.17734 1.63646 0
M  V30 13818 C 1301.52 -3.24143 3.13436 0
M  V30 13819 C 1300.19 -3.25599 3.54315 0
M  V30 13820 C 1302.54 -3.22508 4.09436 0
M  V30 13821 C 1299.87 -3.23089 4.89725 0
M  V30 13822 C 1302.22 -3.21539 5.44789 0
M  V30 13823 C 1300.88 -3.21298 5.85085 0
M  V30 13824 H 1300.15 -0.642092 0.369864 0
M  V30 13825 H 1302.8 -1.19547 1.49602 0
M  V30 13826 H 1301.1 -3.76799 1.07375 0
M  V30 13827 H 1302.8 -3.73338 1.46356 0
M  V30 13828 H 1299.39 -3.23743 2.80871 0
M  V30 13829 H 1303.57 -3.20555 3.7889 0
M  V30 13830 H 1298.83 -3.21231 5.20212 0
M  V30 13831 H 1303 -3.19226 6.18924 0
M  V30 13832 H 1300.63 -3.19107 6.89982 0
M  V30 13833 N 1302.21 -1.00763 -1.2118 0
M  V30 13834 C 1303.46 -0.687197 -1.89633 0
M  V30 13835 C 1303.77 0.78566 -1.79128 0
M  V30 13836 O 1304.97 1.21828 -2.42632 0
M  V30 13837 C 1303.43 -1.1787 -3.40051 0
M  V30 13838 C 1303.04 -2.67782 -3.59161 0
M  V30 13839 C 1304.78 -0.933277 -4.14114 0
M  V30 13840 C 1302.69 -3.10459 -5.03358 0
M  V30 13841 H 1301.62 -0.253342 -0.710165 0
M  V30 13842 H 1304.27 -1.21914 -1.37147 0
M  V30 13843 H 1302.65 -0.574791 -3.91806 0
M  V30 13844 H 1303.83 -3.33645 -3.17833 0
M  V30 13845 H 1302.14 -2.90368 -2.98455 0
M  V30 13846 H 1304.74 -1.22766 -5.20416 0
M  V30 13847 H 1305.08 0.130431 -4.16096 0
M  V30 13848 H 1305.61 -1.50011 -3.68431 0
M  V30 13849 H 1302.35 -4.16068 -5.06525 0
M  V30 13850 H 1301.87 -2.4931 -5.45531 0
M  V30 13851 H 1303.55 -3.02589 -5.71882 0
M  V30 13852 N 1303.68 1.3679 -0.7827 0
M  V30 13853 C 1304.91 2.04206 -0.362571 0
M  V30 13854 C 1305.33 1.58637 1.01074 0
M  V30 13855 O 1304.69 0.751692 1.64983 0
M  V30 13856 C 1304.74 3.58062 -0.4271 0
M  V30 13857 O 1303.84 4.08463 0.56845 0
M  V30 13858 H 1303.19 0.645638 -0.155073 0
M  V30 13859 H 1305.72 1.74883 -1.06194 0
M  V30 13860 H 1305.73 4.0698 -0.288298 0
M  V30 13861 H 1304.4 3.90582 -1.42893 0
M  V30 13862 H 1302.98 3.70835 0.391863 0
M  V30 13863 N 1305.16 0.53415 1.48272 0
M  V30 13864 C 1306.39 0.00574475 2.06899 0
M  V30 13865 C 1306.81 -1.27754 1.39012 0
M  V30 13866 O 1306.16 -1.76102 0.478993 0
M  V30 13867 C 1306.21 -0.217576 3.60845 0
M  V30 13868 O 1305.93 1.01487 4.26183 0
M  V30 13869 C 1307.44 -0.785888 4.36278 0
M  V30 13870 H 1304.66 0.0353967 0.670066 0
M  V30 13871 H 1307.2 0.740984 1.90603 0
M  V30 13872 H 1305.35 -0.902875 3.76732 0
M  V30 13873 H 1305.77 0.7982 5.18391 0
M  V30 13874 H 1307.24 -0.891551 5.44753 0
M  V30 13875 H 1307.72 -1.79178 4.00989 0
M  V30 13876 H 1308.33 -0.137022 4.25079 0
M  V30 13877 N 1306.64 -1.55279 0.269478 0
M  V30 13878 C 1308.05 -1.85286 -0.229372 0
M  V30 13879 C 1308.4 -1.19148 -1.55879 0
M  V30 13880 O 1307.53 -0.4778 -2.11059 0
M  V30 13881 C 1308.12 -3.3615 -0.42296 0
M  V30 13882 C 1306.68 -3.66301 -0.866047 0
M  V30 13883 C 1305.83 -2.77265 0.0439028 0
M  V30 13884 H 1308.78 -1.509 0.491427 0
M  V30 13885 H 1308.8 -3.5895 -1.26234 0
M  V30 13886 H 1308.31 -3.84258 0.544768 0
M  V30 13887 H 1306.41 -3.23688 -1.84545 0
M  V30 13888 H 1306.53 -4.73851 -0.707274 0
M  V30 13889 H 1304.89 -2.50299 -0.471433 0
M  V30 13890 H 1305.67 -3.28186 1.00741 0
M  V30 13891 N 1308.12 0.00332656 -1.576 0
M  V30 13892 C 1309.05 1.02391 -2.05058 0
M  V30 13893 C 1310.06 1.30903 -0.967901 0
M  V30 13894 O 1311.25 1.27937 -1.24476 0
M  V30 13895 C 1308.35 2.35947 -2.43274 0
M  V30 13896 C 1307.53 2.26423 -3.74234 0
M  V30 13897 C 1306.58 3.4264 -3.99355 0
M  V30 13898 O 1305.61 3.20977 -4.70067 0
M  V30 13899 N 1306.81 4.65379 -3.46991 0
M  V30 13900 H 1309.58 0.619216 -2.93233 0
M  V30 13901 H 1307.14 0.190777 -1.60772 0
M  V30 13902 H 1309.13 3.12462 -2.57196 0
M  V30 13903 H 1307.7 2.6817 -1.60635 0
M  V30 13904 H 1306.92 1.34841 -3.70421 0
M  V30 13905 H 1308.21 2.17229 -4.60097 0
M  V30 13906 H 1307.61 4.85878 -2.89723 0
M  V30 13907 H 1306.16 5.39171 -3.66249 0
M  V30 13908 N 1309.6 1.55164 0.276031 0
M  V30 13909 C 1310.82 1.7998 1.03063 0
M  V30 13910 C 1311.25 0.569769 1.79263 0
M  V30 13911 O 1310.6 -0.48054 1.74816 0
M  V30 13912 C 1310.65 3.02209 1.96728 0
M  V30 13913 O 1309.76 2.77083 3.05449 0
M  V30 13914 H 1309.1 0.594963 0.294814 0
M  V30 13915 H 1311.63 2.02301 0.305861 0
M  V30 13916 H 1311.64 3.3086 2.38738 0
M  V30 13917 H 1310.31 3.91386 1.40677 0
M  V30 13918 H 1308.89 2.5952 2.67776 0
M  V30 13919 N 1311.07 -0.540404 1.48045 0
M  V30 13920 C 1311.98 -1.67308 1.64455 0
M  V30 13921 C 1313 -1.65823 0.527152 0
M  V30 13922 O 1314.18 -1.84964 0.796881 0
M  V30 13923 C 1311.24 -3.03792 1.67068 0
M  V30 13924 C 1310.3 -3.16213 2.90358 0
M  V30 13925 C 1309.54 -4.46187 2.92837 0
M  V30 13926 O 1309.76 -5.32662 2.04029 0
M  V30 13927 O 1308.69 -4.62754 3.84892 0
M  V30 13928 H 1312.52 -1.56403 2.6033 0
M  V30 13929 H 1310.1 -0.712323 1.31325 0
M  V30 13930 H 1311.99 -3.84982 1.71368 0
M  V30 13931 H 1310.66 -3.15043 0.74363 0
M  V30 13932 H 1309.57 -2.34357 2.91595 0
M  V30 13933 H 1310.9 -3.09874 3.82412 0
M  V30 13934 N 1312.55 -1.36459 -0.788468 0
M  V30 13935 C 1313.8 -1.30741 -1.54638 0
M  V30 13936 C 1314.13 0.113029 -1.94171 0
M  V30 13937 O 1313.38 1.08252 -1.63034 0
M  V30 13938 C 1313.68 -2.17672 -2.83467 0
M  V30 13939 C 1313.35 -3.66205 -2.63067 0
M  V30 13940 C 1312.01 -4.06688 -2.57212 0
M  V30 13941 C 1314.36 -4.60376 -2.44343 0
M  V30 13942 C 1311.69 -5.39482 -2.306 0
M  V30 13943 C 1314.04 -5.93388 -2.19258 0
M  V30 13944 C 1312.71 -6.32994 -2.11836 0
M  V30 13945 H 1311.98 -0.478416 -0.565862 0
M  V30 13946 H 1314.62 -1.68519 -0.909588 0
M  V30 13947 H 1312.93 -1.72834 -3.51619 0
M  V30 13948 H 1314.62 -2.10573 -3.41263 0
M  V30 13949 H 1311.21 -3.3409 -2.6848 0
M  V30 13950 H 1315.4 -4.29971 -2.47868 0
M  V30 13951 H 1310.65 -5.69149 -2.23337 0
M  V30 13952 H 1314.83 -6.65923 -2.03765 0
M  V30 13953 H 1312.46 -7.3582 -1.90978 0
M  V30 13954 N 1314.03 1.01274 -1.20754 0
M  V30 13955 C 1315.26 1.78524 -1.04579 0
M  V30 13956 C 1315.67 1.84409 0.404809 0
M  V30 13957 O 1315.03 1.29987 1.281 0
M  V30 13958 C 1315.08 3.22806 -1.62722 0
M  V30 13959 O 1314.8 3.17276 -3.02106 0
M  V30 13960 C 1316.3 4.16589 -1.51553 0
M  V30 13961 H 1313.52 0.561299 -0.367674 0
M  V30 13962 H 1316.07 1.27454 -1.59924 0
M  V30 13963 H 1314.22 3.71011 -1.11487 0
M  V30 13964 H 1314.64 4.07866 -3.29766 0
M  V30 13965 H 1316.11 5.15654 -1.9699 0
M  V30 13966 H 1316.59 4.36692 -0.468659 0
M  V30 13967 H 1317.19 3.74269 -2.01998 0
M  V30 13968 N 1315.51 1.01404 1.20644 0
M  V30 13969 C 1316.44 0.602465 2.25594 0
M  V30 13970 C 1317.42 -0.381216 1.65773 0
M  V30 13971 O 1318.61 -0.267209 1.92353 0
M  V30 13972 C 1315.74 -0.0626245 3.47244 0
M  V30 13973 C 1314.69 0.841776 4.1964 0
M  V30 13974 C 1314.02 0.0426002 5.34683 0
M  V30 13975 C 1315.32 2.14864 4.76058 0
M  V30 13976 H 1317.01 1.47977 2.60275 0
M  V30 13977 H 1314.56 0.712966 1.25111 0
M  V30 13978 H 1316.51 -0.362095 4.19841 0
M  V30 13979 H 1315.23 -0.974627 3.11719 0
M  V30 13980 H 1313.89 1.12521 3.48905 0
M  V30 13981 H 1313.54 -0.870973 4.95402 0
M  V30 13982 H 1313.24 0.644866 5.84051 0
M  V30 13983 H 1314.76 -0.250476 6.10086 0
M  V30 13984 H 1316.18 1.9117 5.40488 0
M  V30 13985 H 1314.57 2.70153 5.35852 0
M  V30 13986 H 1315.64 2.81336 3.9494 0
M  V30 13987 N 1316.99 -1.36373 0.789944 0
M  V30 13988 C 1318.4 -1.81783 0.425677 0
M  V30 13989 C 1318.75 -1.65711 -1.05045 0
M  V30 13990 O 1317.87 -1.17835 -1.81505 0
M  V30 13991 C 1318.47 -3.3003 0.765866 0
M  V30 13992 C 1317.03 -3.73647 0.454421 0
M  V30 13993 C 1316.18 -2.58632 1.00023 0
M  V30 13994 H 1319.13 -1.24587 0.983044 0
M  V30 13995 H 1319.15 -3.80457 0.0571624 0
M  V30 13996 H 1318.66 -3.41696 1.84026 0
M  V30 13997 H 1316.76 -3.67541 -0.611918 0
M  V30 13998 H 1316.87 -4.69066 0.975401 0
M  V30 13999 H 1315.24 -2.51156 0.423434 0
M  V30 14000 H 1316.02 -2.73083 2.0804 0
M  V30 14001 N 1318.47 -0.542005 -1.47987 0
M  V30 14002 C 1319.41 0.214151 -2.29804 0
M  V30 14003 C 1320.38 0.922625 -1.38119 0
M  V30 14004 O 1321.57 0.921301 -1.67083 0
M  V30 14005 C 1318.71 1.24768 -3.21756 0
M  V30 14006 C 1317.82 0.546824 -4.28525 0
M  V30 14007 C 1316.96 1.56432 -5.07644 0
M  V30 14008 C 1315.99 0.847598 -6.06203 0
M  V30 14009 N 1315.13 1.81121 -6.78336 0
M  V30 14010 H 1319.97 -0.489707 -2.93949 0
M  V30 14011 H 1317.51 -0.253331 -1.44902 0
M  V30 14012 H 1319.47 1.85933 -3.73477 0
M  V30 14013 H 1318.1 1.91976 -2.59509 0
M  V30 14014 H 1317.15 -0.179026 -3.79978 0
M  V30 14015 H 1318.46 -0.0153623 -4.98798 0
M  V30 14016 H 1317.61 2.24992 -5.63439 0
M  V30 14017 H 1316.35 2.16041 -4.37238 0
M  V30 14018 H 1315.36 0.147989 -5.49601 0
M  V30 14019 H 1316.58 0.257454 -6.78612 0
M  V30 14020 H 1314.53 2.39615 -6.10672 0
M  V30 14021 H 1314.45 1.30077 -7.44725 0
M  V30 14022 H 1315.71 2.48842 -7.38714 0
M  V30 14023 N 1319.94 1.55134 -0.277709 0
M  V30 14024 C 1321.22 1.91667 0.390253 0
M  V30 14025 C 1321.6 1.20228 1.73518 0
M  V30 14026 O 1320.95 0.330013 2.26104 0
M  V30 14027 C 1321.16 3.44983 0.52797 0
M  V30 14028 C 1322.51 4.16809 0.809665 0
M  V30 14029 O 1323.53 3.50891 0.612679 0
M  V30 14030 O 1322.39 5.33463 1.18656 0
M  V30 14031 H 1319.48 0.798807 0.214095 0
M  V30 14032 H 1322.03 1.66577 -0.324053 0
M  V30 14033 H 1320.8 3.89056 -0.418422 0
M  V30 14034 H 1320.42 3.76035 1.29164 0
M  V30 14035 N 1321.42 0.00503138 1.57599 0
M  V30 14036 C 1322.83 -0.537106 1.78807 0
M  V30 14037 C 1323.18 -1.73666 0.912945 0
M  V30 14038 O 1322.31 -2.16085 0.116775 0
M  V30 14039 C 1322.9 -0.98116 3.24282 0
M  V30 14040 C 1321.46 -1.46857 3.46569 0
M  V30 14041 C 1320.61 -0.422088 2.74069 0
M  V30 14042 H 1323.56 0.231182 1.57007 0
M  V30 14043 H 1323.58 -1.8469 3.32671 0
M  V30 14044 H 1323.09 -0.107907 3.8795 0
M  V30 14045 H 1321.19 -2.36255 2.88122 0
M  V30 14046 H 1321.31 -1.49256 4.55258 0
M  V30 14047 H 1319.67 -0.884853 2.38836 0
M  V30 14048 H 1320.45 0.442285 3.40439 0
M  V30 14049 N 1322.9 -1.55308 -0.267798 0
M  V30 14050 C 1323.81 -1.91649 -1.35307 0
M  V30 14051 C 1324.83 -0.814349 -1.53767 0
M  V30 14052 O 1326 -1.11388 -1.67793 0
M  V30 14053 C 1323.07 -2.18553 -2.69138 0
M  V30 14054 C 1322.13 -3.42083 -2.5938 0
M  V30 14055 C 1321.36 -3.67695 -3.86828 0
M  V30 14056 O 1321.58 -2.95728 -4.87751 0
M  V30 14057 O 1320.52 -4.61229 -3.86718 0
M  V30 14058 H 1324.34 -2.84044 -1.07483 0
M  V30 14059 H 1321.93 -1.41921 -0.466772 0
M  V30 14060 H 1323.81 -2.3726 -3.48261 0
M  V30 14061 H 1322.49 -1.2934 -2.96737 0
M  V30 14062 H 1321.39 -3.28706 -1.78614 0
M  V30 14063 H 1322.73 -4.31532 -2.36729 0
M  V30 14064 N 1324.38 0.532545 -1.4833 0
M  V30 14065 C 1325.61 1.31331 -1.59874 0
M  V30 14066 C 1326.02 1.87028 -0.258037 0
M  V30 14067 O 1325.38 1.66272 0.752317 0
M  V30 14068 C 1325.43 2.46596 -2.64334 0
M  V30 14069 O 1325.15 1.93195 -3.93201 0
M  V30 14070 C 1326.65 3.38454 -2.86294 0
M  V30 14071 H 1323.87 0.399476 -0.539129 0
M  V30 14072 H 1326.41 0.642696 -1.94138 0
M  V30 14073 H 1324.57 3.09548 -2.32936 0
M  V30 14074 H 1324.98 2.68627 -4.50489 0
M  V30 14075 H 1326.46 4.15687 -3.63192 0
M  V30 14076 H 1326.93 3.93526 -1.95022 0
M  V30 14077 H 1327.54 2.81297 -3.18986 0
M  V30 14078 N 1325.86 1.36875 0.78122 0
M  V30 14079 C 1327.27 1.28236 1.35692 0
M  V30 14080 C 1327.62 -0.0742286 1.9606 0
M  V30 14081 O 1326.74 -0.97588 1.93146 0
M  V30 14082 C 1327.34 2.32215 2.46702 0
M  V30 14083 C 1325.9 2.2724 3.00065 0
M  V30 14084 C 1325.04 2.16553 1.73206 0
M  V30 14085 H 1327.99 1.47634 0.582217 0
M  V30 14086 H 1328.02 1.96333 3.25935 0
M  V30 14087 H 1327.53 3.30938 2.02735 0
M  V30 14088 H 1325.63 1.3201 3.48431 0
M  V30 14089 H 1325.74 3.20267 3.56323 0
M  V30 14090 H 1324.11 1.62941 1.95761 0
M  V30 14091 H 1324.89 3.17176 1.31356 0
M  V30 14092 N 1327.33 -1.00632 1.21289 0
M  V30 14093 C 1328.26 -2.11238 0.995021 0
M  V30 14094 C 1329.24 -1.69914 -0.0795537 0
M  V30 14095 O 1330.43 -1.94035 0.0800152 0
M  V30 14096 C 1327.56 -3.42797 0.557475 0
M  V30 14097 C 1326.51 -3.97909 1.57646 0
M  V30 14098 C 1325.84 -5.25357 0.995197 0
M  V30 14099 C 1327.14 -4.30123 2.96297 0
M  V30 14100 H 1328.83 -2.29722 1.9201 0
M  V30 14101 H 1326.38 -1.10395 0.924602 0
M  V30 14102 H 1328.33 -4.19571 0.392236 0
M  V30 14103 H 1327.06 -3.24101 -0.403253 0
M  V30 14104 H 1325.72 -3.23254 1.72924 0
M  V30 14105 H 1325.36 -5.02993 0.026227 0
M  V30 14106 H 1325.06 -5.63196 1.67583 0
M  V30 14107 H 1326.59 -6.04777 0.841251 0
M  V30 14108 H 1328 -4.97744 2.8447 0
M  V30 14109 H 1326.4 -4.79101 3.61361 0
M  V30 14110 H 1327.47 -3.38454 3.47242 0
M  V30 14111 N 1328.81 -1.02043 -1.20104 0
M  V30 14112 C 1330.06 -0.707271 -1.88893 0
M  V30 14113 C 1330.37 0.766617 -1.79951 0
M  V30 14114 O 1331.58 1.19248 -2.4391 0
M  V30 14115 C 1330.04 -1.2147 -3.38782 0
M  V30 14116 C 1329.64 -2.71576 -3.56301 0
M  V30 14117 C 1331.39 -0.977146 -4.13101 0
M  V30 14118 C 1329.29 -3.15781 -5.00037 0
M  V30 14119 H 1328.22 -0.26086 -0.707438 0
M  V30 14120 H 1330.88 -1.23361 -1.35846 0
M  V30 14121 H 1329.26 -0.616315 -3.91175 0
M  V30 14122 H 1330.43 -3.36997 -3.14276 0
M  V30 14123 H 1328.75 -2.93517 -2.95359 0
M  V30 14124 H 1331.34 -1.28278 -5.19085 0
M  V30 14125 H 1331.69 0.0862909 -4.16211 0
M  V30 14126 H 1332.22 -1.5391 -3.6682 0
M  V30 14127 H 1328.96 -4.21417 -5.02084 0
M  V30 14128 H 1328.48 -2.55083 -5.42856 0
M  V30 14129 H 1330.16 -3.08637 -5.6864 0
M  V30 14130 N 1330.29 1.35952 -0.797165 0
M  V30 14131 C 1331.22 2.27728 -0.146693 0
M  V30 14132 C 1332.2 1.47616 0.68178 0
M  V30 14133 O 1333.39 1.76898 0.651094 0
M  V30 14134 C 1330.51 3.29179 0.797442 0
M  V30 14135 C 1329.56 4.26471 0.0497851 0
M  V30 14136 S 1330.39 5.19982 -1.2798 0
M  V30 14137 C 1331.55 6.24977 -0.339864 0
M  V30 14138 H 1331.78 2.82549 -0.924834 0
M  V30 14139 H 1329.31 1.4261 -0.591759 0
M  V30 14140 H 1331.27 3.88127 1.33669 0
M  V30 14141 H 1329.93 2.73255 1.54889 0
M  V30 14142 H 1329.13 4.98138 0.766487 0
M  V30 14143 H 1328.73 3.71643 -0.419219 0
M  V30 14144 H 1331.02 6.75809 0.478412 0
M  V30 14145 H 1331.96 7.00636 -1.02544 0
M  V30 14146 H 1332.37 5.64468 0.0602491 0
M  V30 14147 N 1331.77 0.549846 1.47697 0
M  V30 14148 C 1333.01 0.0230845 2.02787 0
M  V30 14149 C 1333.35 -1.32035 1.42409 0
M  V30 14150 O 1332.62 -1.85745 0.576978 0
M  V30 14151 C 1332.91 -0.0778363 3.60016 0
M  V30 14152 C 1332.76 1.29217 4.3084 0
M  V30 14153 C 1334.08 -0.794909 4.32862 0
M  V30 14154 H 1331.2 0.00986307 0.736934 0
M  V30 14155 H 1333.84 0.710714 1.76207 0
M  V30 14156 H 1331.99 -0.663464 3.82793 0
M  V30 14157 H 1333.66 1.92044 4.19424 0
M  V30 14158 H 1331.9 1.86883 3.91481 0
M  V30 14159 H 1332.57 1.17435 5.39364 0
M  V30 14160 H 1335.05 -0.297743 4.15033 0
M  V30 14161 H 1333.93 -0.834466 5.4252 0
M  V30 14162 H 1334.19 -1.84948 4.01555 0
M  V30 14163 N 1333.25 -1.54984 0.285932 0
M  V30 14164 C 1334.49 -1.99436 -0.32709 0
M  V30 14165 C 1334.82 -1.17582 -1.55562 0
M  V30 14166 O 1334.09 -0.268002 -1.94058 0
M  V30 14167 H 1332.67 -0.736662 -0.123846 0
M  V30 14168 H 1335.33 -1.90881 0.393774 0
M  V30 14169 H 1334.42 -3.0609 -0.609523 0
M  V30 14170 N 1334.72 -0.0133892 -1.57594 0
M  V30 14171 C 1336.14 0.527615 -1.7909 0
M  V30 14172 C 1336.49 1.73179 -0.922142 0
M  V30 14173 O 1335.61 2.1602 -0.128233 0
M  V30 14174 C 1336.21 0.963949 -3.24798 0
M  V30 14175 C 1334.77 1.45017 -3.47343 0
M  V30 14176 C 1333.91 0.407548 -2.74289 0
M  V30 14177 H 1336.86 -0.239505 -1.56882 0
M  V30 14178 H 1336.88 1.82924 -3.33645 0
M  V30 14179 H 1336.4 0.0873315 -3.88002 0
M  V30 14180 H 1334.5 2.34724 -2.89371 0
M  V30 14181 H 1334.61 1.4684 -4.56043 0
M  V30 14182 H 1332.97 0.872174 -2.39301 0
M  V30 14183 H 1333.76 -0.460333 -3.402 0
M  V30 14184 N 1336.2 1.55448 0.259558 0
M  V30 14185 C 1337.45 1.76337 0.987396 0
M  V30 14186 C 1337.77 0.57505 1.86328 0
M  V30 14187 O 1337.04 -0.409621 1.9157 0
M  V30 14188 H 1335.62 0.650312 0.367565 0
M  V30 14189 H 1338.28 1.9287 0.280551 0
M  V30 14190 H 1337.38 2.66975 1.61651 0
M  V30 14191 N 1337.68 -0.524672 1.4861 0
M  V30 14192 C 1338.91 -1.30482 1.60568 0
M  V30 14193 C 1339.32 -1.86889 0.267952 0
M  V30 14194 O 1338.68 -1.66669 -0.743488 0
M  V30 14195 C 1338.73 -2.45191 2.65638 0
M  V30 14196 O 1338.45 -1.91107 3.9422 0
M  V30 14197 C 1339.95 -3.36931 2.88084 0
M  V30 14198 H 1337.17 -0.396612 0.541239 0
M  V30 14199 H 1339.72 -0.632392 1.94476 0
M  V30 14200 H 1337.87 -3.08308 2.34574 0
M  V30 14201 H 1338.29 -2.66234 4.51907 0
M  V30 14202 H 1339.76 -4.13755 3.65391 0
M  V30 14203 H 1340.24 -3.92487 1.97106 0
M  V30 14204 H 1340.84 -2.79601 3.20473 0
M  V30 14205 N 1339.16 -1.37287 -0.77395 0
M  V30 14206 C 1340.41 -1.32112 -1.5294 0
M  V30 14207 C 1340.73 0.0946137 -1.9477 0
M  V30 14208 O 1340 1.03817 -1.66129 0
M  V30 14209 H 1338.58 -0.486047 -0.567245 0
M  V30 14210 H 1341.24 -1.71752 -0.921263 0
M  V30 14211 H 1340.34 -1.95873 -2.42982 0
M  V30 14212 N 1340.64 0.999871 -1.21821 0
M  V30 14213 C 1341.88 1.74098 -1.04009 0
M  V30 14214 C 1342.22 1.89499 0.424716 0
M  V30 14215 O 1341.49 1.43306 1.31505 0
M  V30 14216 C 1341.77 3.1506 -1.74382 0
M  V30 14217 C 1341.63 3.0735 -3.28414 0
M  V30 14218 C 1342.95 4.1409 -1.49055 0
M  V30 14219 H 1340.06 0.631935 -0.379245 0
M  V30 14220 H 1342.71 1.16534 -1.50066 0
M  V30 14221 H 1340.86 3.64206 -1.35227 0
M  V30 14222 H 1342.53 2.65879 -3.76969 0
M  V30 14223 H 1340.77 2.44325 -3.58452 0
M  V30 14224 H 1341.44 4.07069 -3.72825 0
M  V30 14225 H 1343.92 3.73672 -1.83054 0
M  V30 14226 H 1342.79 5.10853 -2.008 0
M  V30 14227 H 1343.06 4.40085 -0.421641 0
M  V30 14228 N 1342.11 1.02678 1.19562 0
M  V30 14229 C 1343.08 0.610407 2.20922 0
M  V30 14230 C 1344.08 -0.324858 1.57484 0
M  V30 14231 O 1345.27 -0.112153 1.73839 0
M  V30 14232 C 1342.4 -0.107115 3.40732 0
M  V30 14233 H 1343.59 1.50722 2.59274 0
M  V30 14234 H 1341.15 0.817725 1.33203 0
M  V30 14235 H 1341.88 -1.01837 3.07896 0
M  V30 14236 H 1341.67 0.564901 3.88009 0
M  V30 14237 H 1343.16 -0.385423 4.15818 0
M  V30 14238 N 1343.59 -1.35528 0.804364 0
M  V30 14239 C 1345 -1.81321 0.444933 0
M  V30 14240 C 1345.35 -1.66816 -1.03281 0
M  V30 14241 O 1344.48 -1.19753 -1.80245 0
M  V30 14242 C 1345.07 -3.29199 0.800827 0
M  V30 14243 C 1343.63 -3.73144 0.494026 0
M  V30 14244 C 1342.78 -2.57557 1.02761 0
M  V30 14245 H 1345.73 -1.23537 0.996203 0
M  V30 14246 H 1345.75 -3.80375 0.0975117 0
M  V30 14247 H 1345.26 -3.39725 1.8764 0
M  V30 14248 H 1343.37 -3.68169 -0.572901 0
M  V30 14249 H 1343.48 -4.68005 1.0251 0
M  V30 14250 H 1341.84 -2.50692 0.450048 0
M  V30 14251 H 1342.63 -2.70861 2.10925 0
M  V30 14252 N 1345.07 -0.557671 -1.47404 0
M  V30 14253 C 1346.32 -0.0337884 -2.02472 0
M  V30 14254 C 1346.65 1.31624 -1.43197 0
M  V30 14255 O 1345.9 1.86989 -0.577366 0
M  V30 14256 C 1346.2 0.108324 -3.57236 0
M  V30 14257 C 1345.87 -1.17088 -4.35432 0
M  V30 14258 C 1344.53 -1.5214 -4.56516 0
M  V30 14259 C 1346.88 -2.01854 -4.80525 0
M  V30 14260 C 1344.21 -2.71803 -5.19942 0
M  V30 14261 C 1346.56 -3.2072 -5.45272 0
M  V30 14262 C 1345.22 -3.56085 -5.64588 0
M  V30 14263 H 1344.49 -0.012364 -0.740897 0
M  V30 14264 H 1347.14 -0.729276 -1.7707 0
M  V30 14265 H 1345.45 0.886781 -3.81633 0
M  V30 14266 H 1347.14 0.529031 -3.97495 0
M  V30 14267 H 1343.73 -0.887952 -4.19301 0
M  V30 14268 H 1347.92 -1.76081 -4.64014 0
M  V30 14269 H 1343.17 -2.99371 -5.33092 0
M  V30 14270 H 1347.35 -3.86689 -5.79176 0
M  V30 14271 H 1344.97 -4.48903 -6.13506 0
M  V30 14272 N 1346.55 1.54831 -0.294147 0
M  V30 14273 C 1347.97 1.59489 0.0594489 0
M  V30 14274 C 1348.17 1.31121 1.53002 0
M  V30 14275 O 1347.22 1.08129 2.28176 0
M  V30 14276 C 1348.53 2.98858 -0.332323 0
M  V30 14277 C 1350.08 3.1174 -0.280518 0
M  V30 14278 C 1350.56 4.53407 -0.64701 0
M  V30 14279 N 1352.05 4.59307 -0.599284 0
M  V30 14280 C 1352.78 5.66983 -0.85542 0
M  V30 14281 N 1352.28 6.82726 -1.17717 0
M  V30 14282 N 1354.07 5.56621 -0.78294 0
M  V30 14283 H 1346.22 1.71532 -1.25262 0
M  V30 14284 H 1348.49 0.800801 -0.507368 0
M  V30 14285 H 1348.19 3.24517 -1.35578 0
M  V30 14286 H 1348.07 3.75862 0.317443 0
M  V30 14287 H 1350.45 2.85834 0.733683 0
M  V30 14288 H 1350.53 2.36907 -0.96481 0
M  V30 14289 H 1350.18 4.80042 -1.65899 0
M  V30 14290 H 1350.11 5.26567 0.0592796 0
M  V30 14291 H 1352.6 3.76169 -0.361259 0
M  V30 14292 H 1352.91 7.60761 -1.35877 0
M  V30 14293 H 1351.26 6.84295 -1.21513 0
M  V30 14294 H 1354.45 4.65075 -0.531282 0
M  V30 14295 H 1354.62 6.40456 -0.985929 0
M  V30 14296 N 1348.03 0.0217466 1.57585 0
M  V30 14297 C 1349.28 -0.657187 1.91116 0
M  V30 14298 C 1349.6 -1.7309 0.898039 0
M  V30 14299 O 1348.87 -1.95803 -0.0615116 0
M  V30 14300 H 1347.45 -0.245732 0.705425 0
M  V30 14301 H 1350.11 0.0678096 1.94782 0
M  V30 14302 H 1349.2 -1.11462 2.91518 0
M  V30 14303 N 1349.51 -1.55583 -0.251311 0
M  V30 14304 C 1350.75 -1.77209 -0.979966 0
M  V30 14305 C 1351.08 -0.585279 -1.85485 0
M  V30 14306 O 1350.34 0.431559 -1.90882 0
M  V30 14307 C 1350.63 -3.04291 -1.87461 0
M  V30 14308 C 1350.3 -4.35844 -1.15545 0
M  V30 14309 C 1348.96 -4.71594 -0.956679 0
M  V30 14310 C 1351.31 -5.17189 -0.645381 0
M  V30 14311 C 1348.64 -5.86227 -0.235465 0
M  V30 14312 C 1350.99 -6.32569 0.0623441 0
M  V30 14313 C 1349.66 -6.66943 0.272634 0
M  V30 14314 H 1348.93 -0.648452 -0.358595 0
M  V30 14315 H 1351.58 -1.89856 -0.250423 0
M  V30 14316 H 1349.88 -2.86637 -2.67108 0
M  V30 14317 H 1351.58 -3.18221 -2.44001 0
M  V30 14318 H 1348.17 -4.07757 -1.32031 0
M  V30 14319 H 1352.35 -4.90028 -0.786505 0
M  V30 14320 H 1347.61 -6.11369 -0.0620232 0
M  V30 14321 H 1351.78 -6.94844 0.465234 0
M  V30 14322 H 1349.41 -7.55617 0.833442 0
M  V30 14323 N 1350.98 0.516783 -1.48886 0
M  V30 14324 C 1352.23 1.27375 -1.57808 0
M  V30 14325 C 1352.56 1.92492 -0.256963 0
M  V30 14326 O 1351.84 1.79947 0.738193 0
M  V30 14327 C 1352.12 2.35295 -2.72595 0
M  V30 14328 C 1351.97 1.74783 -4.14453 0
M  V30 14329 C 1353.29 3.36973 -2.83085 0
M  V30 14330 H 1350.41 0.46175 -0.574418 0
M  V30 14331 H 1353.05 0.57434 -1.81111 0
M  V30 14332 H 1351.2 2.94951 -2.52857 0
M  V30 14333 H 1352.88 1.19076 -4.45666 0
M  V30 14334 H 1351.12 1.05258 -4.20836 0
M  V30 14335 H 1351.79 2.52985 -4.90615 0
M  V30 14336 H 1354.27 2.87289 -3.01005 0
M  V30 14337 H 1353.14 4.09864 -3.65106 0
M  V30 14338 H 1353.4 3.98336 -1.91784 0
M  V30 14339 N 1352.46 1.37696 0.766659 0
M  V30 14340 C 1353.39 1.2975 1.88938 0
M  V30 14341 C 1354.41 0.212278 1.6141 0
M  V30 14342 O 1355.6 0.468825 1.72233 0
M  V30 14343 C 1352.7 0.984553 3.24283 0
M  V30 14344 C 1351.87 2.17625 3.79418 0
M  V30 14345 C 1350.93 1.83279 4.9325 0
M  V30 14346 O 1349.95 2.55631 5.08568 0
M  V30 14347 N 1351.16 0.779941 5.75237 0
M  V30 14348 H 1353.92 2.26492 1.96269 0
M  V30 14349 H 1351.48 1.31387 0.946001 0
M  V30 14350 H 1353.47 0.735536 3.9796 0
M  V30 14351 H 1352.04 0.105527 3.12422 0
M  V30 14352 H 1351.26 2.58672 2.9746 0
M  V30 14353 H 1352.55 2.97187 4.12986 0
M  V30 14354 H 1351.95 0.179661 5.65415 0
M  V30 14355 H 1350.51 0.59079 6.49117 0
M  V30 14356 N 1353.94 -0.993397 1.22349 0
M  V30 14357 C 1354.9 -2.065 0.994506 0
M  V30 14358 C 1355.9 -1.60753 -0.0388766 0
M  V30 14359 O 1357.09 -1.73053 0.199578 0
M  V30 14360 C 1354.22 -3.37182 0.502088 0
M  V30 14361 H 1355.42 -2.28248 1.94533 0
M  V30 14362 H 1352.97 -1.16489 1.04211 0
M  V30 14363 H 1353.71 -3.21119 -0.453114 0
M  V30 14364 H 1353.49 -3.71721 1.24763 0
M  V30 14365 H 1354.98 -4.16027 0.362108 0
M  V30 14366 N 1355.42 -1.03311 -1.19015 0
M  V30 14367 C 1356.83 -0.750946 -1.4083 0
M  V30 14368 C 1357.03 0.662704 -1.90291 0
M  V30 14369 O 1356.09 1.42806 -2.08237 0
M  V30 14370 C 1357.4 -1.79064 -2.41571 0
M  V30 14371 C 1358.95 -1.81068 -2.55311 0
M  V30 14372 C 1359.43 -2.84008 -3.59309 0
M  V30 14373 N 1360.92 -2.82852 -3.6681 0
M  V30 14374 C 1361.65 -3.59156 -4.46984 0
M  V30 14375 N 1361.15 -4.45188 -5.30829 0
M  V30 14376 N 1362.94 -3.47679 -4.41674 0
M  V30 14377 H 1355.09 -1.94548 -0.852329 0
M  V30 14378 H 1357.35 -0.841344 -0.436858 0
M  V30 14379 H 1357.06 -2.80425 -2.12261 0
M  V30 14380 H 1356.93 -1.61646 -3.40809 0
M  V30 14381 H 1359.32 -0.803825 -2.83941 0
M  V30 14382 H 1359.4 -2.02562 -1.56212 0
M  V30 14383 H 1359.05 -3.84867 -3.3142 0
M  V30 14384 H 1358.98 -2.59771 -4.58069 0
M  V30 14385 H 1361.47 -2.20457 -3.06932 0
M  V30 14386 H 1361.78 -5.00139 -5.89135 0
M  V30 14387 H 1360.13 -4.49259 -5.30275 0
M  V30 14388 H 1363.32 -2.79876 -3.75216 0
M  V30 14389 H 1363.49 -4.07396 -5.03917 0
M  V30 14390 N 1356.9 1.35099 -0.81154 0
M  V30 14391 C 1357.84 2.29717 -0.223372 0
M  V30 14392 C 1358.81 1.53049 0.645396 0
M  V30 14393 O 1360 1.81467 0.589436 0
M  V30 14394 C 1357.14 3.3952 0.618057 0
M  V30 14395 C 1356.25 4.31145 -0.271693 0
M  V30 14396 C 1355.39 5.28044 0.578214 0
M  V30 14397 C 1354.42 6.11306 -0.311628 0
M  V30 14398 N 1353.56 7.00328 0.498539 0
M  V30 14399 H 1358.4 2.79426 -1.03563 0
M  V30 14400 H 1355.94 1.37518 -0.522231 0
M  V30 14401 H 1357.9 4.01854 1.12111 0
M  V30 14402 H 1356.53 2.91075 1.39554 0
M  V30 14403 H 1355.58 3.69773 -0.892885 0
M  V30 14404 H 1356.89 4.89545 -0.956392 0
M  V30 14405 H 1356.04 5.95774 1.1462 0
M  V30 14406 H 1354.78 4.70152 1.29646 0
M  V30 14407 H 1353.79 5.42518 -0.891849 0
M  V30 14408 H 1355.01 6.71277 -1.02781 0
M  V30 14409 H 1352.96 6.44919 1.20067 0
M  V30 14410 H 1352.88 7.55892 -0.12801 0
M  V30 14411 H 1354.14 7.72401 1.04965 0
M  V30 14412 N 1358.37 0.56548 1.47106 0
M  V30 14413 C 1359.31 -0.215154 2.28188 0
M  V30 14414 C 1360.32 -0.871671 1.37498 0
M  V30 14415 O 1361.51 -0.744131 1.6225 0
M  V30 14416 C 1358.61 -1.32289 3.12014 0
M  V30 14417 C 1357.78 -0.761594 4.30719 0
M  V30 14418 C 1356.84 -1.75486 4.96076 0
M  V30 14419 O 1355.87 -1.29771 5.5421 0
M  V30 14420 N 1357.07 -3.0885 4.9152 0
M  V30 14421 H 1359.83 0.480405 2.95825 0
M  V30 14422 H 1357.39 0.402099 1.56827 0
M  V30 14423 H 1359.39 -1.98628 3.52603 0
M  V30 14424 H 1357.96 -1.92156 2.46566 0
M  V30 14425 H 1357.18 0.078794 3.94121 0
M  V30 14426 H 1358.46 -0.366072 5.07481 0
M  V30 14427 H 1357.86 -3.4863 4.45504 0
M  V30 14428 H 1356.42 -3.70725 5.36103 0
M  V30 14429 N 1359.85 -1.54672 0.302354 0
M  V30 14430 C 1360.78 -2.2653 -0.566265 0
M  V30 14431 C 1361.76 -1.26532 -1.13682 0
M  V30 14432 O 1362.95 -1.55307 -1.1659 0
M  V30 14433 C 1360.08 -3.00709 -1.73757 0
M  V30 14434 C 1359.03 -4.07865 -1.29731 0
M  V30 14435 C 1358.36 -4.69767 -2.55388 0
M  V30 14436 C 1359.66 -5.20547 -0.427567 0
M  V30 14437 H 1361.35 -2.99382 0.033071 0
M  V30 14438 H 1358.9 -1.4399 0.0173458 0
M  V30 14439 H 1360.85 -3.497 -2.35134 0
M  V30 14440 H 1359.58 -2.25437 -2.36317 0
M  V30 14441 H 1358.23 -3.59726 -0.706586 0
M  V30 14442 H 1357.88 -3.91134 -3.16265 0
M  V30 14443 H 1357.58 -5.42137 -2.26631 0
M  V30 14444 H 1359.11 -5.21521 -3.17566 0
M  V30 14445 H 1360.52 -5.65424 -0.947053 0
M  V30 14446 H 1358.92 -5.99645 -0.233704 0
M  V30 14447 H 1359.99 -4.81805 0.546993 0
M  V30 14448 N 1361.33 -0.0301034 -1.57571 0
M  V30 14449 C 1362.28 0.951421 -2.10277 0
M  V30 14450 C 1363.25 1.3224 -1.00508 0
M  V30 14451 O 1364.43 1.41554 -1.27934 0
M  V30 14452 C 1361.57 2.2282 -2.63525 0
M  V30 14453 C 1360.69 1.91359 -3.87306 0
M  V30 14454 C 1359.82 3.13339 -4.28943 0
M  V30 14455 C 1358.86 2.77701 -5.4548 0
M  V30 14456 N 1358 3.9231 -5.82269 0
M  V30 14457 H 1362.84 0.495049 -2.93859 0
M  V30 14458 H 1360.37 0.232756 -1.45247 0
M  V30 14459 H 1362.33 2.97502 -2.92487 0
M  V30 14460 H 1360.96 2.66072 -1.82772 0
M  V30 14461 H 1360.01 1.06915 -3.65066 0
M  V30 14462 H 1361.33 1.61112 -4.72064 0
M  V30 14463 H 1360.48 3.9634 -4.59347 0
M  V30 14464 H 1359.22 3.46747 -3.42954 0
M  V30 14465 H 1358.22 1.93113 -5.14769 0
M  V30 14466 H 1359.45 2.45508 -6.33169 0
M  V30 14467 H 1357.39 4.25559 -4.99235 0
M  V30 14468 H 1357.31 3.65691 -6.61669 0
M  V30 14469 H 1358.58 4.76012 -6.17279 0
M  V30 14470 N 1362.81 1.55714 0.243056 0
M  V30 14471 C 1363.72 1.93777 1.32241 0
M  V30 14472 C 1364.73 0.838709 1.52452 0
M  V30 14473 O 1365.91 1.14044 1.66 0
M  V30 14474 C 1362.98 2.22808 2.65627 0
M  V30 14475 C 1362.04 3.46166 2.53904 0
M  V30 14476 C 1361.27 3.73802 3.8093 0
M  V30 14477 O 1361.49 3.0345 4.82985 0
M  V30 14478 O 1360.43 4.67323 3.79332 0
M  V30 14479 H 1364.25 2.85718 1.02951 0
M  V30 14480 H 1361.84 1.42646 0.444135 0
M  V30 14481 H 1363.72 2.4277 3.44442 0
M  V30 14482 H 1362.39 1.34045 2.94642 0
M  V30 14483 H 1361.3 3.31506 1.73362 0
M  V30 14484 H 1362.63 4.35244 2.29834 0
M  V30 14485 N 1364.29 -0.50888 1.49158 0
M  V30 14486 C 1365.22 -1.62778 1.61356 0
M  V30 14487 C 1366.23 -1.55039 0.496653 0
M  V30 14488 O 1367.42 -1.61115 0.768386 0
M  V30 14489 C 1364.52 -3.01534 1.54694 0
M  V30 14490 C 1363.69 -3.34539 2.81785 0
M  V30 14491 C 1362.75 -4.5267 2.68283 0
M  V30 14492 O 1361.78 -4.54844 3.42207 0
M  V30 14493 N 1362.98 -5.52115 1.79303 0
M  V30 14494 H 1365.75 -1.52744 2.57855 0
M  V30 14495 H 1363.31 -0.696597 1.46148 0
M  V30 14496 H 1365.3 -3.7847 1.43327 0
M  V30 14497 H 1363.87 -3.05535 0.660849 0
M  V30 14498 H 1363.09 -2.46576 3.07561 0
M  V30 14499 H 1364.38 -3.53384 3.66057 0
M  V30 14500 H 1363.77 -5.53153 1.18485 0
M  V30 14501 H 1362.33 -6.28184 1.73863 0
M  V30 14502 N 1365.76 -1.381 -0.759346 0
M  V30 14503 C 1367.01 -1.33727 -1.5153 0
M  V30 14504 C 1367.33 0.0739504 -1.9486 0
M  V30 14505 O 1366.6 1.02049 -1.67221 0
M  V30 14506 H 1365.18 -0.492037 -0.562058 0
M  V30 14507 H 1367.85 -1.72719 -0.902995 0
M  V30 14508 H 1366.94 -1.98439 -2.40891 0
M  V30 14509 N 1367.24 0.986894 -1.22875 0
M  V30 14510 C 1368.17 2.08035 -0.961971 0
M  V30 14511 C 1369.19 1.62683 0.0616475 0
M  V30 14512 O 1370.38 1.77659 -0.173094 0
M  V30 14513 C 1367.48 3.36208 -0.426302 0
M  V30 14514 C 1366.65 4.10562 -1.50856 0
M  V30 14515 C 1365.71 5.17014 -0.97891 0
M  V30 14516 O 1364.73 5.44259 -1.66645 0
M  V30 14517 N 1365.94 5.80167 0.196613 0
M  V30 14518 H 1368.7 2.315 -1.90336 0
M  V30 14519 H 1366.26 1.1531 -1.13645 0
M  V30 14520 H 1368.25 4.0466 -0.0571577 0
M  V30 14521 H 1366.82 3.09761 0.420345 0
M  V30 14522 H 1366.04 3.36656 -2.05076 0
M  V30 14523 H 1367.33 4.57007 -2.23655 0
M  V30 14524 H 1366.73 5.60409 0.771892 0
M  V30 14525 H 1365.29 6.49825 0.507083 0
M  V30 14526 N 1368.72 1.0394 1.18466 0
M  V30 14527 C 1369.95 0.761926 1.92897 0
M  V30 14528 C 1370.37 -0.674618 1.75586 0
M  V30 14529 O 1369.73 -1.46711 1.06515 0
M  V30 14530 C 1369.78 1.13152 3.42387 0
M  V30 14531 O 1368.88 0.256266 4.11603 0
M  V30 14532 H 1368.22 0.280527 0.601831 0
M  V30 14533 H 1370.75 1.3889 1.50235 0
M  V30 14534 H 1370.76 1.0929 3.9309 0
M  V30 14535 H 1369.44 2.17804 3.54308 0
M  V30 14536 H 1368.01 0.354392 3.71212 0
M  V30 14537 N 1370.2 -1.34667 0.818693 0
M  V30 14538 C 1371.13 -2.32134 0.252239 0
M  V30 14539 C 1372.11 -1.58044 -0.628982 0
M  V30 14540 O 1373.29 -1.86049 -0.55674 0
M  V30 14541 C 1370.42 -3.42249 -0.590183 0
M  V30 14542 C 1369.38 -4.27562 0.193547 0
M  V30 14543 C 1368.7 -5.29107 -0.771349 0
M  V30 14544 C 1370 -5.03205 1.39936 0
M  V30 14545 H 1371.7 -2.79758 1.06657 0
M  V30 14546 H 1369.24 -1.34502 0.514325 0
M  V30 14547 H 1371.2 -4.09445 -0.996616 0
M  V30 14548 H 1369.92 -2.93262 -1.43752 0
M  V30 14549 H 1368.58 -3.61962 0.581297 0
M  V30 14550 H 1368.23 -4.76384 -1.61453 0
M  V30 14551 H 1367.93 -5.87063 -0.251201 0
M  V30 14552 H 1369.45 -5.99174 -1.17573 0
M  V30 14553 H 1370.87 -5.6328 1.06717 0
M  V30 14554 H 1369.26 -5.70715 1.85485 0
M  V30 14555 H 1370.33 -4.33145 2.17976 0
M  V30 14556 N 1371.68 -0.573274 -1.46804 0
M  V30 14557 C 1372.92 -0.0551522 -2.02025 0
M  V30 14558 C 1373.25 1.30577 -1.44826 0
M  V30 14559 O 1372.52 1.85514 -0.629403 0
M  V30 14560 H 1371.1 -0.0173982 -0.746797 0
M  V30 14561 H 1373.76 -0.746919 -1.8002 0
M  V30 14562 H 1372.85 0.0209326 -3.12093 0
M  V30 14563 N 1373.15 1.5451 -0.310553 0
M  V30 14564 C 1374.06 2.27557 0.570518 0
M  V30 14565 C 1375.08 1.31426 1.14032 0
M  V30 14566 O 1376.26 1.64423 1.16306 0
M  V30 14567 C 1373.32 3.00933 1.72163 0
M  V30 14568 C 1372.38 4.12623 1.18495 0
M  V30 14569 C 1371.62 4.8249 2.28121 0
M  V30 14570 O 1371.84 4.5178 3.48211 0
M  V30 14571 O 1370.77 5.69686 1.94273 0
M  V30 14572 H 1374.6 3.03692 -0.0223195 0
M  V30 14573 H 1372.18 1.49203 -0.0766821 0
M  V30 14574 H 1374.07 3.46925 2.39208 0
M  V30 14575 H 1372.74 2.27685 2.3009 0
M  V30 14576 H 1371.65 3.71008 0.479956 0
M  V30 14577 H 1372.98 4.87876 0.650994 0
M  V30 14578 N 1374.63 0.0384594 1.57553 0
M  V30 14579 C 1375.6 -0.925358 2.0969 0
M  V30 14580 C 1376.6 -1.24811 1.01385 0
M  V30 14581 O 1377.79 -1.1869 1.27508 0
M  V30 14582 C 1374.92 -2.2391 2.57055 0
M  V30 14583 H 1376.11 -0.473633 2.96136 0
M  V30 14584 H 1373.66 -0.209736 1.54886 0
M  V30 14585 H 1374.4 -2.73691 1.73964 0
M  V30 14586 H 1374.18 -2.01793 3.36188 0
M  V30 14587 H 1375.67 -2.92974 2.97583 0
M  V30 14588 N 1376.11 -1.55841 -0.234795 0
M  V30 14589 C 1377.06 -1.8772 -1.29403 0
M  V30 14590 C 1378.05 -0.739087 -1.42921 0
M  V30 14591 O 1379.24 -1.00125 -1.45959 0
M  V30 14592 C 1376.37 -2.18592 -2.64712 0
M  V30 14593 C 1375.45 -3.38761 -2.55151 0
M  V30 14594 N 1375.84 -4.57723 -2.15229 0
M  V30 14595 C 1374.14 -3.42112 -2.86138 0
M  V30 14596 C 1374.84 -5.39872 -2.16595 0
M  V30 14597 N 1373.82 -4.79242 -2.5657 0
M  V30 14598 H 1377.62 -2.77219 -0.976067 0
M  V30 14599 H 1375.13 -1.5623 -0.443396 0
M  V30 14600 H 1377.13 -2.39599 -3.41171 0
M  V30 14601 H 1375.79 -1.30398 -2.97366 0
M  V30 14602 H 1376.8 -4.83126 -1.86575 0
M  V30 14603 H 1373.48 -2.64224 -3.23252 0
M  V30 14604 H 1374.87 -6.45072 -1.87967 0
M  V30 14605 N 1377.59 0.500963 -1.49426 0
M  V30 14606 C 1378.52 1.61114 -1.69011 0
M  V30 14607 C 1379.5 1.61341 -0.538813 0
M  V30 14608 O 1380.69 1.78081 -0.77466 0
M  V30 14609 C 1377.82 2.99598 -1.75666 0
M  V30 14610 C 1376.77 3.14236 -2.90585 0
M  V30 14611 C 1376.1 4.54071 -2.82354 0
M  V30 14612 C 1377.4 2.94258 -4.3152 0
M  V30 14613 H 1379.09 1.44978 -2.61957 0
M  V30 14614 H 1376.64 0.69603 -1.26061 0
M  V30 14615 H 1378.59 3.77163 -1.87953 0
M  V30 14616 H 1377.31 3.16822 -0.793186 0
M  V30 14617 H 1375.97 2.39096 -2.779 0
M  V30 14618 H 1375.62 4.68172 -1.83914 0
M  V30 14619 H 1375.32 4.64806 -3.59485 0
M  V30 14620 H 1376.84 5.33696 -2.96649 0
M  V30 14621 H 1378.26 3.61592 -4.44886 0
M  V30 14622 H 1376.65 3.16464 -5.09873 0
M  V30 14623 H 1377.72 1.90383 -4.45962 0
M  V30 14624 N 1379.07 1.38501 0.752011 0
M  V30 14625 C 1380.3 1.37832 1.53902 0
M  V30 14626 C 1380.71 -0.0333526 1.89171 0
M  V30 14627 O 1380.05 -1.01076 1.53393 0
M  V30 14628 C 1380.11 2.17098 2.86546 0
M  V30 14629 C 1379.77 3.65895 2.73807 0
M  V30 14630 C 1380.77 4.59353 2.43497 0
M  V30 14631 C 1378.46 4.0927 2.9121 0
M  V30 14632 C 1380.45 5.94167 2.30746 0
M  V30 14633 C 1378.14 5.44165 2.78079 0
M  V30 14634 C 1379.14 6.36427 2.47891 0
M  V30 14635 O 1378.82 7.68839 2.34822 0
M  V30 14636 H 1378.56 0.473187 0.482773 0
M  V30 14637 H 1381.11 1.82715 0.938324 0
M  V30 14638 H 1379.34 1.66936 3.48811 0
M  V30 14639 H 1381.03 2.08817 3.48067 0
M  V30 14640 H 1381.79 4.27147 2.29718 0
M  V30 14641 H 1377.67 3.37803 3.13704 0
M  V30 14642 H 1381.22 6.66148 2.07105 0
M  V30 14643 H 1377.11 5.75967 2.91432 0
M  V30 14644 H 1377.88 7.79379 2.50022 0
M  V30 14645 N 1380.55 -0.980364 1.23396 0
M  V30 14646 C 1381.79 -1.72166 1.06607 0
M  V30 14647 C 1382.12 -1.90405 -0.397029 0
M  V30 14648 O 1381.38 -1.45363 -1.31027 0
M  V30 14649 C 1381.67 -3.12367 1.73671 0
M  V30 14650 C 1381.34 -3.14007 3.2359 0
M  V30 14651 C 1380 -3.14162 3.64494 0
M  V30 14652 C 1382.35 -3.09319 4.19489 0
M  V30 14653 C 1379.68 -3.07345 4.99756 0
M  V30 14654 C 1382.03 -3.04044 5.54743 0
M  V30 14655 C 1380.7 -3.02521 5.9501 0
M  V30 14656 H 1379.97 -0.63 0.390104 0
M  V30 14657 H 1382.62 -1.14727 1.5333 0
M  V30 14658 H 1380.92 -3.73193 1.19308 0
M  V30 14659 H 1382.62 -3.68493 1.58159 0
M  V30 14660 H 1379.21 -3.14644 2.91028 0
M  V30 14661 H 1383.39 -3.08339 3.88897 0
M  V30 14662 H 1378.65 -3.04519 5.30168 0
M  V30 14663 H 1382.82 -2.99374 6.28767 0
M  V30 14664 H 1380.45 -2.96994 6.99785 0
M  V30 14665 N 1382.02 -1.04567 -1.17913 0
M  V30 14666 C 1383.27 -0.750538 -1.87647 0
M  V30 14667 C 1383.59 0.72423 -1.81052 0
M  V30 14668 O 1382.86 1.52292 -1.23223 0
M  V30 14669 H 1381.44 -0.274636 -0.694683 0
M  V30 14670 H 1384.1 -1.32349 -1.43072 0
M  V30 14671 H 1383.2 -1.05987 -2.93553 0
M  V30 14672 N 1383.5 1.34231 -0.825823 0
M  V30 14673 C 1384.74 2.00014 -0.421173 0
M  V30 14674 C 1385.11 1.64039 0.997759 0
M  V30 14675 O 1386.31 2.22688 1.50545 0
M  V30 14676 C 1384.58 3.5197 -0.620643 0
M  V30 14677 S 1386.14 4.37709 -0.309272 0
M  V30 14678 H 1382.95 0.692993 -0.159003 0
M  V30 14679 H 1385.56 1.63471 -1.07227 0
M  V30 14680 H 1384.26 3.7564 -1.65296 0
M  V30 14681 H 1383.79 3.93374 0.0450832 0
M  V30 14682 H 1385.81 4.88407 0.875943 0
M  V30 14683 N 1384.98 0.581051 1.46498 0
M  V30 14684 C 1386.4 0.242599 1.57745 0
M  V30 14685 C 1386.6 -1.25508 1.57639 0
M  V30 14686 O 1385.65 -2.0367 1.49247 0
M  V30 14687 C 1386.96 0.890342 2.87217 0
M  V30 14688 C 1388.51 0.863778 3.00845 0
M  V30 14689 C 1388.99 1.49103 4.3305 0
M  V30 14690 N 1390.48 1.4553 4.39745 0
M  V30 14691 C 1391.21 1.91003 5.40653 0
M  V30 14692 N 1390.71 2.44442 6.48244 0
M  V30 14693 N 1392.5 1.8193 5.31844 0
M  V30 14694 H 1384.65 1.55382 1.44811 0
M  V30 14695 H 1386.92 0.649375 0.690664 0
M  V30 14696 H 1386.62 1.94383 2.93101 0
M  V30 14697 H 1386.5 0.397569 3.75099 0
M  V30 14698 H 1388.88 -0.181089 2.94544 0
M  V30 14699 H 1388.96 1.39455 2.14443 0
M  V30 14700 H 1388.61 2.53509 4.40109 0
M  V30 14701 H 1388.54 0.935496 5.18224 0
M  V30 14702 H 1391.03 1.06466 3.62593 0
M  V30 14703 H 1391.34 2.77002 7.2145 0
M  V30 14704 H 1389.69 2.48467 6.49068 0
M  V30 14705 H 1392.88 1.3994 4.46693 0
M  V30 14706 H 1393.05 2.17685 6.10342 0
M  V30 14707 N 1386.46 -1.54343 0.318742 0
M  V30 14708 C 1387.68 -2.05361 -0.290126 0
M  V30 14709 C 1388.11 -1.19362 -1.45376 0
M  V30 14710 O 1387.47 -0.201639 -1.80175 0
M  V30 14711 C 1387.51 -3.53601 -0.707025 0
M  V30 14712 O 1386.62 -3.70561 -1.80992 0
M  V30 14713 H 1385.96 -0.661858 -0.0532933 0
M  V30 14714 H 1388.49 -1.99228 0.46575 0
M  V30 14715 H 1388.5 -3.95782 -0.991005 0
M  V30 14716 H 1387.17 -4.1565 0.144091 0
M  V30 14717 H 1385.75 -3.40286 -1.52513 0
M  V30 14718 N 1387.94 -0.0468143 -1.5753 0
M  V30 14719 C 1389.35 0.489509 -1.80169 0
M  V30 14720 C 1389.7 1.71184 -0.958669 0
M  V30 14721 O 1388.82 2.15699 -0.174025 0
M  V30 14722 C 1389.42 0.894838 -3.26769 0
M  V30 14723 C 1387.98 1.37617 -3.50341 0
M  V30 14724 C 1387.12 0.349275 -2.75092 0
M  V30 14725 H 1390.07 -0.272728 -1.56339 0
M  V30 14726 H 1390.1 1.75805 -3.3745 0
M  V30 14727 H 1389.61 0.00501096 -3.881 0
M  V30 14728 H 1387.71 2.28533 -2.94285 0
M  V30 14729 H 1387.82 1.37133 -4.59055 0
M  V30 14730 H 1386.19 0.821219 -2.41098 0
M  V30 14731 H 1386.97 -0.532391 -3.39147 0
M  V30 14732 N 1389.41 1.55964 0.226527 0
M  V30 14733 C 1390.36 1.88403 1.28406 0
M  V30 14734 C 1391.35 0.746656 1.42527 0
M  V30 14735 O 1392.54 1.00898 1.45425 0
M  V30 14736 C 1389.67 2.19992 2.63549 0
M  V30 14737 C 1388.76 3.40109 2.5335 0
M  V30 14738 N 1389.15 4.58858 2.12798 0
M  V30 14739 C 1387.44 3.43625 2.8432 0
M  V30 14740 C 1388.15 5.41013 2.13729 0
M  V30 14741 N 1387.12 4.80596 2.54025 0
M  V30 14742 H 1390.92 2.77732 0.961352 0
M  V30 14743 H 1388.44 1.56463 0.435104 0
M  V30 14744 H 1390.43 2.41405 3.39896 0
M  V30 14745 H 1389.09 1.31973 2.9667 0
M  V30 14746 H 1390.11 4.84108 1.8401 0
M  V30 14747 H 1386.78 2.65935 3.21846 0
M  V30 14748 H 1388.17 6.4606 1.84543 0
M  V30 14749 N 1390.89 -0.493031 1.4969 0
M  V30 14750 C 1391.8 -1.61991 1.69694 0
M  V30 14751 C 1392.82 -1.64061 0.579641 0
M  V30 14752 O 1393.99 -1.82335 0.855323 0
M  V30 14753 C 1391.06 -2.98323 1.76648 0
M  V30 14754 C 1390.12 -3.06816 3.00271 0
M  V30 14755 C 1389.35 -4.36644 3.06883 0
M  V30 14756 O 1389.58 -5.25901 2.20872 0
M  V30 14757 O 1388.51 -4.50275 3.99419 0
M  V30 14758 H 1392.34 -1.48042 2.65174 0
M  V30 14759 H 1389.92 -0.670182 1.33525 0
M  V30 14760 H 1391.8 -3.79335 1.83529 0
M  V30 14761 H 1390.48 -3.12517 0.843482 0
M  V30 14762 H 1389.39 -2.24962 2.98903 0
M  V30 14763 H 1390.72 -2.97551 3.92077 0
M  V30 14764 N 1392.37 -1.38898 -0.744656 0
M  V30 14765 C 1393.65 -1.2611 -1.49518 0
M  V30 14766 C 1394.03 0.133592 -2.10677 0
M  V30 14767 O 1393.38 1.14394 -1.97804 0
M  V30 14768 C 1393.59 -2.37809 -2.55437 0
M  V30 14769 C 1394.93 -2.76664 -3.22091 0
M  V30 14770 O 1395.96 -2.37187 -2.65746 0
M  V30 14771 O 1394.82 -3.44771 -4.24023 0
M  V30 14772 H 1391.91 -0.493664 -0.663494 0
M  V30 14773 H 1394.46 -1.50748 -0.779304 0
M  V30 14774 H 1393.23 -3.31089 -2.08556 0
M  V30 14775 H 1392.85 -2.14783 -3.34595 0
M  V30 14776 N 1393.85 0.973806 -1.23914 0
M  V30 14777 C 1395.08 1.74853 -1.10046 0
M  V30 14778 C 1395.49 1.85927 0.350388 0
M  V30 14779 O 1394.83 1.34252 1.25388 0
M  V30 14780 C 1394.89 3.18919 -1.65924 0
M  V30 14781 C 1394.56 3.31335 -3.14748 0
M  V30 14782 C 1395.55 3.17141 -4.11968 0
M  V30 14783 C 1393.24 3.55772 -3.54587 0
M  V30 14784 C 1395.23 3.27199 -5.47009 0
M  V30 14785 C 1392.92 3.65468 -4.89771 0
M  V30 14786 C 1393.92 3.51193 -5.85792 0
M  V30 14787 O 1393.6 3.60534 -7.18519 0
M  V30 14788 H 1393.34 0.555345 -0.385445 0
M  V30 14789 H 1395.89 1.23168 -1.64374 0
M  V30 14790 H 1394.12 3.71882 -1.06023 0
M  V30 14791 H 1395.81 3.78177 -1.47434 0
M  V30 14792 H 1396.58 2.98153 -3.82531 0
M  V30 14793 H 1392.45 3.65951 -2.80358 0
M  V30 14794 H 1396 3.15974 -6.21937 0
M  V30 14795 H 1391.9 3.83969 -5.18882 0
M  V30 14796 H 1392.66 3.77288 -7.26358 0
M  V30 14797 N 1395.33 1.05191 1.17357 0
M  V30 14798 C 1396.26 0.673931 2.23563 0
M  V30 14799 C 1397.24 -0.328284 1.66902 0
M  V30 14800 O 1398.42 -0.205878 1.93106 0
M  V30 14801 C 1395.55 0.0478801 3.47267 0
M  V30 14802 C 1394.51 0.974855 4.1675 0
M  V30 14803 C 1393.83 0.212684 5.34277 0
M  V30 14804 C 1395.13 2.299 4.68981 0
M  V30 14805 H 1396.83 1.56183 2.55436 0
M  V30 14806 H 1394.37 0.752408 1.2278 0
M  V30 14807 H 1396.33 -0.228343 4.20781 0
M  V30 14808 H 1395.05 -0.874963 3.14662 0
M  V30 14809 H 1393.71 1.23564 3.45148 0
M  V30 14810 H 1393.36 -0.712924 4.97922 0
M  V30 14811 H 1393.06 0.830351 5.81703 0
M  V30 14812 H 1394.58 -0.056255 6.10574 0
M  V30 14813 H 1395.99 2.08269 5.34132 0
M  V30 14814 H 1394.39 2.87064 5.26986 0
M  V30 14815 H 1395.46 2.93759 3.8579 0
M  V30 14816 N 1396.8 -1.33791 0.83293 0
M  V30 14817 C 1398.03 -2.01894 0.43844 0
M  V30 14818 C 1398.44 -1.62844 -0.963247 0
M  V30 14819 O 1397.79 -0.834636 -1.63644 0
M  V30 14820 C 1397.85 -3.5638 0.472604 0
M  V30 14821 C 1397.51 -4.18788 1.82937 0
M  V30 14822 C 1398.51 -4.38588 2.79172 0
M  V30 14823 C 1396.19 -4.55342 2.12058 0
M  V30 14824 C 1398.19 -4.94081 4.02694 0
M  V30 14825 C 1395.87 -5.10544 3.35839 0
M  V30 14826 C 1396.87 -5.29859 4.30974 0
M  V30 14827 O 1396.56 -5.83889 5.52566 0
M  V30 14828 H 1396.29 -0.65348 0.173031 0
M  V30 14829 H 1398.85 -1.71827 1.12537 0
M  V30 14830 H 1397.08 -3.85749 -0.271074 0
M  V30 14831 H 1398.77 -4.05785 0.0967701 0
M  V30 14832 H 1399.53 -4.10701 2.57972 0
M  V30 14833 H 1395.41 -4.39607 1.38806 0
M  V30 14834 H 1398.95 -5.09072 4.7696 0
M  V30 14835 H 1394.85 -5.3786 3.56898 0
M  V30 14836 H 1395.62 -6.02311 5.54224 0
M  V30 14837 N 1398.28 -0.588812 -1.46187 0
M  V30 14838 C 1399.21 0.178825 -2.28501 0
M  V30 14839 C 1400.23 0.849686 -1.38867 0
M  V30 14840 O 1401.42 0.718224 -1.63413 0
M  V30 14841 C 1398.52 1.27309 -3.14079 0
M  V30 14842 C 1397.69 0.692974 -4.31876 0
M  V30 14843 C 1396.75 1.67572 -4.98805 0
M  V30 14844 O 1395.77 1.20937 -5.56204 0
M  V30 14845 N 1396.98 3.00992 -4.96371 0
M  V30 14846 H 1399.74 -0.527407 -2.95023 0
M  V30 14847 H 1397.3 -0.426998 -1.56168 0
M  V30 14848 H 1399.29 1.92993 -3.55719 0
M  V30 14849 H 1397.86 1.88209 -2.49592 0
M  V30 14850 H 1397.08 -0.141485 -3.93946 0
M  V30 14851 H 1398.37 0.28529 -5.08 0
M  V30 14852 H 1397.77 3.41498 -4.50994 0
M  V30 14853 H 1396.33 3.62149 -5.41933 0
M  V30 14854 N 1399.76 1.54172 -0.326923 0
M  V30 14855 C 1400.67 2.28149 0.546351 0
M  V30 14856 C 1401.69 1.32628 1.12631 0
M  V30 14857 O 1402.86 1.65647 1.14556 0
M  V30 14858 C 1399.93 3.02742 1.68962 0
M  V30 14859 C 1398.99 4.13856 1.14112 0
M  V30 14860 C 1398.22 4.84882 2.2299 0
M  V30 14861 O 1398.44 4.55448 3.43399 0
M  V30 14862 O 1397.38 5.71714 1.8822 0
M  V30 14863 H 1401.2 3.03651 -0.0545288 0
M  V30 14864 H 1398.79 1.49113 -0.0925027 0
M  V30 14865 H 1400.67 3.49443 2.35515 0
M  V30 14866 H 1399.35 2.30113 2.27662 0
M  V30 14867 H 1398.25 3.71497 0.440579 0
M  V30 14868 H 1399.59 4.88539 0.599211 0
M  V30 14869 N 1401.24 0.0551678 1.57503 0
M  V30 14870 C 1402.15 -0.932959 2.15251 0
M  V30 14871 C 1403.16 -1.33885 1.11134 0
M  V30 14872 O 1404.34 -1.41495 1.43321 0
M  V30 14873 C 1401.41 -2.18807 2.68932 0
M  V30 14874 C 1400.47 -1.84016 3.87862 0
M  V30 14875 C 1399.7 -3.03543 4.38973 0
M  V30 14876 O 1399.92 -4.17041 3.89144 0
M  V30 14877 O 1398.86 -2.84325 5.30512 0
M  V30 14878 H 1402.68 -0.471816 3.00013 0
M  V30 14879 H 1400.27 -0.16696 1.48464 0
M  V30 14880 H 1402.15 -2.92439 3.0341 0
M  V30 14881 H 1400.82 -2.64051 1.87239 0
M  V30 14882 H 1399.73 -1.07687 3.58266 0
M  V30 14883 H 1401.06 -1.43567 4.70796 0
M  V30 14884 N 1402.72 -1.56081 -0.218252 0
M  V30 14885 C 1403.65 -1.95706 -1.27364 0
M  V30 14886 C 1404.63 -0.825731 -1.48713 0
M  V30 14887 O 1405.81 -1.08829 -1.60841 0
M  V30 14888 C 1402.94 -2.2766 -2.62275 0
M  V30 14889 C 1401.9 -3.43314 -2.55576 0
M  V30 14890 C 1401.22 -3.60883 -3.94547 0
M  V30 14891 C 1402.52 -4.7819 -2.10075 0
M  V30 14892 H 1404.22 -2.84113 -0.944459 0
M  V30 14893 H 1401.76 -1.36693 -0.452882 0
M  V30 14894 H 1403.72 -2.53973 -3.36268 0
M  V30 14895 H 1402.44 -1.3611 -2.96887 0
M  V30 14896 H 1401.1 -3.17056 -1.8404 0
M  V30 14897 H 1400.75 -2.66703 -4.26472 0
M  V30 14898 H 1400.45 -4.38674 -3.90946 0
M  V30 14899 H 1401.97 -3.89547 -4.70197 0
M  V30 14900 H 1403.38 -5.03686 -2.73813 0
M  V30 14901 H 1401.78 -5.59287 -2.17527 0
M  V30 14902 H 1402.85 -4.73325 -1.05314 0
M  V30 14903 N 1404.2 0.485086 -1.49949 0
M  V30 14904 C 1405.11 1.61089 -1.70551 0
M  V30 14905 C 1406.12 1.63752 -0.588333 0
M  V30 14906 O 1407.3 1.81879 -0.86498 0
M  V30 14907 C 1404.36 2.97382 -1.78227 0
M  V30 14908 C 1403.42 3.05219 -3.01894 0
M  V30 14909 C 1402.66 4.35011 -3.09195 0
M  V30 14910 O 1402.88 5.24722 -2.23658 0
M  V30 14911 O 1401.81 4.48151 -4.01802 0
M  V30 14912 H 1405.64 1.46633 -2.65956 0
M  V30 14913 H 1403.22 0.663091 -1.33879 0
M  V30 14914 H 1405.11 3.78356 -1.85538 0
M  V30 14915 H 1403.78 3.12066 -0.860043 0
M  V30 14916 H 1402.69 2.23373 -3.00092 0
M  V30 14917 H 1404.02 2.95467 -3.93649 0
M  V30 14918 N 1405.67 1.39291 0.737279 0
M  V30 14919 C 1406.62 1.37969 1.87263 0
M  V30 14920 C 1407.62 0.263156 1.67344 0
M  V30 14921 O 1408.82 0.433069 1.74713 0
M  V30 14922 H 1405.2 0.430782 0.616385 0
M  V30 14923 H 1407.17 2.33741 1.85494 0
M  V30 14924 C 1405.92 1.23779 3.24922 0
M  V30 14925 H 1405.24 2.08963 3.40844 0
M  V30 14926 H 1406.68 1.26911 4.04561 0
M  V30 14927 C 1405.14 -0.0539778 3.36857 0
M  V30 14928 O 1405.67 -1.02501 3.88402 0
M  V30 14929 N 1403.87 -0.116275 2.90367 0
M  V30 14930 H 1403.42 0.674622 2.48609 0
M  V30 14931 H 1403.38 -0.980107 2.98733 0
M  V30 14932 N 1407.15 -0.967221 1.24429 0
M  V30 14933 C 1408.11 -2.04344 1.03808 0
M  V30 14934 C 1409.11 -1.60799 -0.00476972 0
M  V30 14935 O 1410.3 -1.72591 0.236241 0
M  V30 14936 C 1407.44 -3.36041 0.573496 0
M  V30 14937 H 1408.63 -2.2407 1.9933 0
M  V30 14938 H 1406.18 -1.14253 1.06658 0
M  V30 14939 H 1406.92 -3.22008 -0.384898 0
M  V30 14940 H 1406.7 -3.68991 1.32619 0
M  V30 14941 H 1408.19 -4.15165 0.450272 0
M  V30 14942 N 1408.63 -1.05812 -1.16797 0
M  V30 14943 C 1409.56 -0.622584 -2.20582 0
M  V30 14944 C 1410.57 0.316905 -1.59686 0
M  V30 14945 O 1411.76 0.108657 -1.78169 0
M  V30 14946 C 1408.86 0.108124 -3.38727 0
M  V30 14947 C 1408.04 -0.84363 -4.29187 0
M  V30 14948 C 1407.1 -0.15305 -5.25977 0
M  V30 14949 O 1406.12 -0.78915 -5.63703 0
M  V30 14950 N 1407.32 1.10721 -5.69843 0
M  V30 14951 H 1410.09 -1.51532 -2.5857 0
M  V30 14952 H 1407.65 -0.940815 -1.31758 0
M  V30 14953 H 1409.64 0.580395 -4.00517 0
M  V30 14954 H 1408.21 0.902599 -2.99286 0
M  V30 14955 H 1407.43 -1.49538 -3.64735 0
M  V30 14956 H 1408.72 -1.48946 -4.86511 0
M  V30 14957 H 1408.12 1.64423 -5.41278 0
M  V30 14958 H 1406.67 1.52344 -6.33746 0
M  V30 14959 N 1410.11 1.33347 -0.840014 0
M  V30 14960 C 1411.33 2.02485 -0.448856 0
M  V30 14961 C 1411.76 1.62781 0.942543 0
M  V30 14962 O 1411.12 0.82099 1.61646 0
M  V30 14963 C 1411.16 3.55928 -0.578582 0
M  V30 14964 O 1410.27 4.10507 0.394695 0
M  V30 14965 H 1409.61 0.63848 -0.182317 0
M  V30 14966 H 1412.14 1.70221 -1.13516 0
M  V30 14967 H 1412.15 4.05391 -0.460653 0
M  V30 14968 H 1410.82 3.8417 -1.5933 0
M  V30 14969 H 1409.4 3.72164 0.234227 0
M  V30 14970 N 1411.59 0.596556 1.45873 0
M  V30 14971 C 1412.5 -0.130832 2.34235 0
M  V30 14972 C 1413.51 -0.871805 1.50584 0
M  V30 14973 O 1414.69 -0.831877 1.83417 0
M  V30 14974 C 1411.75 -1.12279 3.28016 0
M  V30 14975 C 1410.81 -0.384982 4.2757 0
M  V30 14976 C 1410.05 -1.32969 5.1687 0
M  V30 14977 O 1410.27 -2.56696 5.09375 0
M  V30 14978 O 1409.2 -0.832741 5.96112 0
M  V30 14979 H 1413.03 0.59503 2.97814 0
M  V30 14980 H 1410.61 0.356873 1.45075 0
M  V30 14981 H 1412.5 -1.6944 3.85834 0
M  V30 14982 H 1411.17 -1.82988 2.67015 0
M  V30 14983 H 1410.08 0.228816 3.734 0
M  V30 14984 H 1411.41 0.281398 4.91395 0
M  V30 14985 N 1413.06 -1.53996 0.335095 0
M  V30 14986 C 1414.31 -2.00375 -0.263475 0
M  V30 14987 C 1414.63 -1.22471 -1.51742 0
M  V30 14988 O 1413.9 -0.329604 -1.93107 0
M  V30 14989 H 1412.48 -0.740229 -0.100347 0
M  V30 14990 H 1415.14 -1.89531 0.454302 0
M  V30 14991 H 1414.24 -3.07874 -0.511834 0
M  V30 14992 N 1414.54 -0.0635198 -1.57472 0
M  V30 14993 C 1415.79 0.607008 -1.92349 0
M  V30 14994 C 1416.1 1.71268 -0.944806 0
M  V30 14995 O 1417.31 2.44221 -1.18609 0
M  V30 14996 C 1415.77 1.13105 -3.41666 0
M  V30 14997 C 1415.37 0.0568256 -4.47964 0
M  V30 14998 C 1417.12 1.77611 -3.85557 0
M  V30 14999 C 1415.02 0.594443 -5.88405 0
M  V30 15000 H 1413.95 0.230506 -0.717902 0
M  V30 15001 H 1416.61 -0.134413 -1.83007 0
M  V30 15002 H 1414.99 1.92517 -3.46054 0
M  V30 15003 H 1416.16 -0.717371 -4.55182 0
M  V30 15004 H 1414.48 -0.491517 -4.13489 0
M  V30 15005 H 1417.07 2.18852 -4.87861 0
M  V30 15006 H 1417.42 2.6328 -3.22474 0
M  V30 15007 H 1417.95 1.04834 -3.83738 0
M  V30 15008 H 1414.69 -0.224893 -6.55114 0
M  V30 15009 H 1414.21 1.33635 -5.84724 0
M  V30 15010 H 1415.89 1.07346 -6.38033 0
M  V30 15011 N 1416.02 1.56195 0.209972 0
M  V30 15012 C 1417.27 1.78941 0.930744 0
M  V30 15013 C 1417.58 0.634139 1.85035 0
M  V30 15014 O 1418.79 0.745524 2.61064 0
M  V30 15015 C 1417.24 3.16935 1.70529 0
M  V30 15016 C 1416.85 4.40221 0.83125 0
M  V30 15017 C 1418.6 3.49 2.41659 0
M  V30 15018 C 1416.5 5.69238 1.60381 0
M  V30 15019 H 1415.43 0.667176 0.351273 0
M  V30 15020 H 1418.08 1.82572 0.184341 0
M  V30 15021 H 1416.47 3.07513 2.49503 0
M  V30 15022 H 1417.64 4.60728 0.081227 0
M  V30 15023 H 1415.95 4.15756 0.231517 0
M  V30 15024 H 1418.55 4.42623 2.99982 0
M  V30 15025 H 1418.89 2.72042 3.15117 0
M  V30 15026 H 1419.43 3.59804 1.69665 0
M  V30 15027 H 1416.17 6.49121 0.912292 0
M  V30 15028 H 1415.69 5.52772 2.32815 0
M  V30 15029 H 1417.37 6.09827 2.16149 0
M  V30 15030 N 1417.5 -0.477127 1.50204 0
M  V30 15031 C 1418.73 -1.25307 1.64638 0
M  V30 15032 C 1419.14 -1.85942 0.327274 0
M  V30 15033 O 1418.5 -1.6895 -0.690088 0
M  V30 15034 C 1418.55 -2.36616 2.73304 0
M  V30 15035 O 1418.27 -1.78469 4.00101 0
M  V30 15036 C 1419.77 -3.27595 2.98658 0
M  V30 15037 H 1416.99 -0.379192 0.553583 0
M  V30 15038 H 1419.53 -0.5702 1.9639 0
M  V30 15039 H 1417.69 -3.00689 2.44264 0
M  V30 15040 H 1418.1 -2.51722 4.60148 0
M  V30 15041 H 1419.58 -4.01921 3.7837 0
M  V30 15042 H 1420.05 -3.86017 2.09493 0
M  V30 15043 H 1420.66 -2.69264 3.29206 0
M  V30 15044 N 1418.98 -1.3968 -0.729882 0
M  V30 15045 C 1419.91 -1.41549 -1.85704 0
M  V30 15046 C 1420.89 -0.278186 -1.6781 0
M  V30 15047 O 1422.07 -0.484749 -1.88053 0
M  V30 15048 C 1419.2 -1.26327 -3.2351 0
M  V30 15049 C 1418.16 -2.37511 -3.56051 0
M  V30 15050 C 1417.48 -2.07375 -4.92849 0
M  V30 15051 C 1418.78 -3.79833 -3.58502 0
M  V30 15052 H 1420.48 -2.35877 -1.84398 0
M  V30 15053 H 1418.02 -1.13536 -0.885747 0
M  V30 15054 H 1419.98 -1.26254 -4.02042 0
M  V30 15055 H 1418.7 -0.284697 -3.25357 0
M  V30 15056 H 1417.36 -2.36809 -2.79852 0
M  V30 15057 H 1417.01 -1.07943 -4.91281 0
M  V30 15058 H 1416.71 -2.81855 -5.15588 0
M  V30 15059 H 1418.23 -2.08961 -5.73731 0
M  V30 15060 H 1419.64 -3.82436 -4.27101 0
M  V30 15061 H 1418.04 -4.53715 -3.92763 0
M  V30 15062 H 1419.11 -4.10443 -2.58195 0
M  V30 15063 N 1420.45 0.960609 -1.2494 0
M  V30 15064 C 1421.4 2.04164 -1.01493 0
M  V30 15065 C 1422.39 1.60834 0.0461124 0
M  V30 15066 O 1423.58 1.76196 -0.168491 0
M  V30 15067 C 1420.71 3.37484 -0.629251 0
M  V30 15068 C 1419.8 3.87356 -1.72674 0
M  V30 15069 N 1420.19 4.10085 -2.9608 0
M  V30 15070 C 1418.48 4.16086 -1.60589 0
M  V30 15071 C 1419.19 4.51091 -3.67276 0
M  V30 15072 N 1418.16 4.56676 -2.9487 0
M  V30 15073 H 1421.96 2.19723 -1.95189 0
M  V30 15074 H 1419.48 1.14496 -1.15171 0
M  V30 15075 H 1421.47 4.14545 -0.442484 0
M  V30 15076 H 1420.13 3.23307 0.300446 0
M  V30 15077 H 1421.15 3.97331 -3.32187 0
M  V30 15078 H 1417.82 4.10804 -0.744725 0
M  V30 15079 H 1419.21 4.77031 -4.73172 0
M  V30 15080 N 1421.93 1.0643 1.16234 0
M  V30 15081 C 1423.16 0.802644 1.90697 0
M  V30 15082 C 1423.58 -0.643145 1.77508 0
M  V30 15083 O 1422.93 -1.4404 1.12065 0
M  V30 15084 C 1422.98 1.18984 3.41358 0
M  V30 15085 O 1422.7 2.5789 3.54153 0
M  V30 15086 C 1424.21 0.956132 4.32866 0
M  V30 15087 H 1421.43 0.290891 0.604668 0
M  V30 15088 H 1423.97 1.41829 1.47325 0
M  V30 15089 H 1422.12 0.618703 3.82428 0
M  V30 15090 H 1422.54 2.73431 4.47589 0
M  V30 15091 H 1424.01 1.27667 5.37034 0
M  V30 15092 H 1424.49 -0.108062 4.39067 0
M  V30 15093 H 1425.1 1.51172 3.97526 0
M  V30 15094 N 1423.41 -1.329 0.847073 0
M  V30 15095 C 1424.37 -2.27341 0.291324 0
M  V30 15096 C 1425.37 -1.51295 -0.544653 0
M  V30 15097 O 1426.56 -1.70497 -0.357258 0
M  V30 15098 C 1423.7 -3.35779 -0.588668 0
M  V30 15099 H 1424.89 -2.78009 1.12477 0
M  V30 15100 H 1422.44 -1.43442 0.620803 0
M  V30 15101 H 1423.18 -2.90366 -1.44423 0
M  V30 15102 H 1422.96 -3.92099 0.00960515 0
M  V30 15103 H 1424.45 -4.06166 -0.970526 0
M  V30 15104 N 1424.89 -0.604284 -1.45555 0
M  V30 15105 C 1426.14 -0.0981861 -2.02262 0
M  V30 15106 C 1426.46 1.27002 -1.47312 0
M  V30 15107 O 1425.72 1.85058 -0.636563 0
M  V30 15108 C 1426.02 -0.00538243 -3.574 0
M  V30 15109 C 1425.68 -1.30881 -4.31487 0
M  V30 15110 C 1424.35 -1.66586 -4.51445 0
M  V30 15111 C 1426.7 -2.17039 -4.7386 0
M  V30 15112 C 1424.03 -2.88207 -5.11032 0
M  V30 15113 C 1426.38 -3.37905 -5.34792 0
M  V30 15114 C 1425.04 -3.73866 -5.52974 0
M  V30 15115 H 1424.31 -0.0359289 -0.740128 0
M  V30 15116 H 1426.96 -0.785241 -1.7466 0
M  V30 15117 H 1425.26 0.764919 -3.84261 0
M  V30 15118 H 1426.96 0.402303 -3.98977 0
M  V30 15119 H 1423.55 -1.0209 -4.16264 0
M  V30 15120 H 1427.73 -1.90754 -4.58177 0
M  V30 15121 H 1422.99 -3.16179 -5.23298 0
M  V30 15122 H 1427.16 -4.0492 -5.6658 0
M  V30 15123 H 1424.79 -4.68194 -5.98914 0
M  V30 15124 N 1426.37 1.53816 -0.343257 0
M  V30 15125 C 1427.59 2.05796 0.257418 0
M  V30 15126 C 1428.02 1.2166 1.43459 0
M  V30 15127 O 1427.37 0.230278 1.79832 0
M  V30 15128 C 1427.42 3.54681 0.65068 0
M  V30 15129 O 1426.53 3.73394 1.75074 0
M  V30 15130 H 1425.87 0.662622 0.042757 0
M  V30 15131 H 1428.4 1.98462 -0.497386 0
M  V30 15132 H 1428.41 3.97308 0.927914 0
M  V30 15133 H 1427.08 4.15368 -0.210199 0
M  V30 15134 H 1425.66 3.42669 1.4708 0
M  V30 15135 N 1427.84 0.0718701 1.57436 0
M  V30 15136 C 1429.26 -0.28476 1.57039 0
M  V30 15137 C 1429.46 -1.70032 1.08127 0
M  V30 15138 O 1428.52 -2.41191 0.747189 0
M  V30 15139 C 1429.83 -0.0943482 3.00552 0
M  V30 15140 C 1431.38 -0.163879 3.12571 0
M  V30 15141 C 1431.85 -0.00174658 4.58 0
M  V30 15142 N 1433.34 -0.0573489 4.63164 0
M  V30 15143 C 1434.08 0.0436849 5.73383 0
M  V30 15144 N 1433.57 0.198243 6.92516 0
M  V30 15145 N 1435.37 -0.0133856 5.62098 0
M  V30 15146 H 1427.52 0.99702 1.87545 0
M  V30 15147 H 1429.78 0.388822 0.864593 0
M  V30 15148 H 1429.49 0.882445 3.40449 0
M  V30 15149 H 1429.36 -0.846636 3.67576 0
M  V30 15150 H 1431.75 -1.13116 2.7256 0
M  V30 15151 H 1431.83 0.619513 2.48185 0
M  V30 15152 H 1431.47 0.9623 4.98701 0
M  V30 15153 H 1431.4 -0.804543 5.20418 0
M  V30 15154 H 1433.89 -0.175212 3.77494 0
M  V30 15155 H 1434.21 0.267479 7.72337 0
M  V30 15156 H 1432.55 0.233606 6.94607 0
M  V30 15157 H 1435.74 -0.132835 4.67911 0
M  V30 15158 H 1435.92 0.0688076 6.47963 0
M  V30 15159 N 1429.32 -1.56304 -0.201686 0
M  V30 15160 C 1430.26 -1.8907 -1.27781 0
M  V30 15161 C 1431.23 -0.75009 -1.44265 0
M  V30 15162 O 1432.42 -1.00044 -1.59761 0
M  V30 15163 C 1429.54 -2.11513 -2.64537 0
M  V30 15164 C 1428.59 -3.34214 -2.64959 0
M  V30 15165 S 1429.42 -4.89541 -2.17047 0
M  V30 15166 C 1430.58 -5.15044 -3.55641 0
M  V30 15167 H 1430.81 -2.8005 -0.997971 0
M  V30 15168 H 1428.35 -1.48997 -0.404872 0
M  V30 15169 H 1430.3 -2.25126 -3.43262 0
M  V30 15170 H 1428.96 -1.21295 -2.89735 0
M  V30 15171 H 1428.16 -3.47023 -3.65501 0
M  V30 15172 H 1427.76 -3.1956 -1.94312 0
M  V30 15173 H 1430.05 -5.05161 -4.51463 0
M  V30 15174 H 1430.99 -6.16838 -3.47731 0
M  V30 15175 H 1431.4 -4.42704 -3.50248 0
M  V30 15176 N 1430.8 0.469154 -1.50455 0
M  V30 15177 C 1432.21 1.04997 -1.54378 0
M  V30 15178 C 1432.56 1.93082 -0.348414 0
M  V30 15179 O 1431.69 2.09594 0.538469 0
M  V30 15180 C 1432.28 1.91096 -2.79764 0
M  V30 15181 C 1430.84 2.44283 -2.86361 0
M  V30 15182 C 1429.99 1.22676 -2.48688 0
M  V30 15183 H 1432.94 0.251692 -1.56691 0
M  V30 15184 H 1432.96 2.76186 -2.61728 0
M  V30 15185 H 1432.47 1.26961 -3.66746 0
M  V30 15186 H 1430.57 3.11966 -2.03735 0
M  V30 15187 H 1430.69 2.79258 -3.89297 0
M  V30 15188 H 1429.05 1.56215 -2.01169 0
M  V30 15189 H 1429.83 0.602002 -3.37981 0
M  V30 15190 N 1432.28 1.40065 0.722464 0
M  V30 15191 C 1433.23 1.39947 1.85789 0
M  V30 15192 C 1434.22 0.28089 1.67055 0
M  V30 15193 O 1435.43 0.451575 1.74244 0
M  V30 15194 H 1431.8 0.437296 0.611781 0
M  V30 15195 H 1433.77 2.35695 1.83004 0
M  V30 15196 C 1432.52 1.27218 3.2359 0
M  V30 15197 H 1431.84 2.12566 3.38609 0
M  V30 15198 H 1433.28 1.31194 4.03192 0
M  V30 15199 C 1431.74 -0.0182466 3.36895 0
M  V30 15200 O 1432.27 -0.983761 3.89468 0
M  V30 15201 N 1430.48 -0.0854707 2.90474 0
M  V30 15202 H 1430.03 0.700953 2.4788 0
M  V30 15203 H 1429.98 -0.948367 2.99755 0
M  V30 15204 N 1433.76 -0.95397 1.25448 0
M  V30 15205 C 1434.69 -2.05412 1.01679 0
M  V30 15206 C 1435.7 -1.62789 -0.0184932 0
M  V30 15207 O 1436.89 -1.77137 0.220136 0
M  V30 15208 C 1433.99 -3.3496 0.515292 0
M  V30 15209 C 1433.16 -4.06418 1.61688 0
M  V30 15210 C 1432.22 -5.14237 1.11564 0
M  V30 15211 O 1431.25 -5.39649 1.81017 0
M  V30 15212 N 1432.45 -5.80484 -0.0427228 0
M  V30 15213 H 1435.22 -2.26372 1.96407 0
M  V30 15214 H 1432.78 -1.12257 1.16662 0
M  V30 15215 H 1434.77 -4.04366 0.164426 0
M  V30 15216 H 1433.34 -3.10767 -0.33807 0
M  V30 15217 H 1432.56 -3.31101 2.1393 0
M  V30 15218 H 1433.85 -4.50917 2.35693 0
M  V30 15219 H 1433.25 -5.62259 -0.623038 0
M  V30 15220 H 1431.8 -6.50941 -0.334615 0
M  V30 15221 N 1435.24 -1.07045 -1.15668 0
M  V30 15222 C 1436.65 -0.814932 -1.67975 0
M  V30 15223 C 1437 0.660408 -1.84751 0
M  V30 15224 O 1436.12 1.51156 -1.54857 0
M  V30 15225 C 1436.72 -1.47274 -3.05116 0
M  V30 15226 C 1435.28 -1.26481 -3.54513 0
M  V30 15227 C 1434.42 -1.54439 -2.30312 0
M  V30 15228 H 1437.37 -1.23291 -0.999251 0
M  V30 15229 H 1437.4 -0.892244 -3.69891 0
M  V30 15230 H 1436.91 -2.54649 -2.92874 0
M  V30 15231 H 1435.01 -0.211138 -3.72001 0
M  V30 15232 H 1435.12 -1.98283 -4.36143 0
M  V30 15233 H 1433.49 -0.965269 -2.357 0
M  V30 15234 H 1434.27 -2.6299 -2.20661 0
M  V30 15235 N 1436.71 1.32449 -0.85411 0
M  V30 15236 C 1437.66 2.2889 -0.296341 0
M  V30 15237 C 1438.63 1.55024 0.596378 0
M  V30 15238 O 1439.82 1.8325 0.531406 0
M  V30 15239 C 1436.96 3.41315 0.509729 0
M  V30 15240 C 1436.07 4.30062 -0.40872 0
M  V30 15241 C 1435.2 5.29616 0.409928 0
M  V30 15242 C 1434.24 6.10005 -0.505953 0
M  V30 15243 N 1433.38 7.01559 0.275483 0
M  V30 15244 H 1438.22 2.75989 -1.12401 0
M  V30 15245 H 1435.76 1.35787 -0.565717 0
M  V30 15246 H 1437.71 4.05218 0.992697 0
M  V30 15247 H 1436.34 2.95367 1.30223 0
M  V30 15248 H 1435.4 3.66745 -1.01007 0
M  V30 15249 H 1436.71 4.86255 -1.11165 0
M  V30 15250 H 1435.86 5.99119 0.956083 0
M  V30 15251 H 1434.6 4.74039 1.14623 0
M  V30 15252 H 1433.61 5.39406 -1.064 0
M  V30 15253 H 1434.83 6.67667 -1.24086 0
M  V30 15254 H 1432.78 6.48412 0.994887 0
M  V30 15255 H 1432.69 7.55102 -0.368426 0
M  V30 15256 H 1433.96 7.75349 0.803382 0
M  V30 15257 N 1438.19 0.611994 1.45232 0
M  V30 15258 C 1439.42 0.115409 2.06578 0
M  V30 15259 C 1439.83 -1.20206 1.45588 0
M  V30 15260 O 1439.19 -1.73315 0.571668 0
M  V30 15261 C 1439.24 -0.0259943 3.61491 0
M  V30 15262 O 1438.96 1.23936 4.20204 0
M  V30 15263 C 1440.46 -0.553522 4.39831 0
M  V30 15264 H 1437.68 0.0708656 0.667247 0
M  V30 15265 H 1440.23 0.840977 1.86408 0
M  V30 15266 H 1438.38 -0.701909 3.80988 0
M  V30 15267 H 1438.8 1.07187 5.13431 0
M  V30 15268 H 1440.27 -0.601536 5.48713 0
M  V30 15269 H 1440.75 -1.57671 4.09923 0
M  V30 15270 H 1441.35 0.0884954 4.25208 0
M  V30 15271 N 1439.67 -1.53632 0.351409 0
M  V30 15272 C 1440.9 -2.0516 -0.243498 0
M  V30 15273 C 1441.31 -1.22559 -1.44138 0
M  V30 15274 O 1440.65 -0.255726 -1.81911 0
M  V30 15275 C 1440.71 -3.52324 -0.71469 0
M  V30 15276 C 1440.38 -4.55543 0.364598 0
M  V30 15277 C 1441.37 -5.05626 1.20987 0
M  V30 15278 C 1439.06 -4.99593 0.520779 0
M  V30 15279 C 1441.05 -5.98347 2.1968 0
M  V30 15280 C 1438.74 -5.92123 1.51109 0
M  V30 15281 C 1439.74 -6.41389 2.34754 0
M  V30 15282 O 1439.43 -7.32097 3.32098 0
M  V30 15283 H 1439.16 -0.674193 -0.0493948 0
M  V30 15284 H 1441.71 -1.99123 0.503919 0
M  V30 15285 H 1439.94 -3.55852 -1.51348 0
M  V30 15286 H 1441.63 -3.86783 -1.23102 0
M  V30 15287 H 1442.4 -4.72353 1.10033 0
M  V30 15288 H 1438.28 -4.60843 -0.120466 0
M  V30 15289 H 1441.82 -6.36724 2.85005 0
M  V30 15290 H 1437.72 -6.24811 1.62116 0
M  V30 15291 H 1438.48 -7.50053 3.27662 0
M  V30 15292 N 1441.15 -0.0802183 -1.57396 0
M  V30 15293 C 1442.39 0.587831 -1.94094 0
M  V30 15294 C 1442.73 1.6875 -0.961093 0
M  V30 15295 O 1442 1.94498 0.00832799 0
M  V30 15296 C 1442.28 1.15692 -3.41009 0
M  V30 15297 C 1442.14 0.0633211 -4.49755 0
M  V30 15298 C 1443.46 2.05987 -3.88918 0
M  V30 15299 H 1440.58 0.212214 -0.705786 0
M  V30 15300 H 1443.22 -0.147902 -1.89423 0
M  V30 15301 H 1441.37 1.78394 -3.4512 0
M  V30 15302 H 1443.04 -0.57019 -4.57763 0
M  V30 15303 H 1441.28 -0.605003 -4.2956 0
M  V30 15304 H 1441.95 0.502056 -5.49712 0
M  V30 15305 H 1444.43 1.5321 -3.86867 0
M  V30 15306 H 1443.31 2.42737 -4.92311 0
M  V30 15307 H 1443.57 2.97147 -3.27347 0
M  V30 15308 N 1442.63 1.56409 0.193394 0
M  V30 15309 C 1443.56 1.91211 1.26377 0
M  V30 15310 C 1444.57 0.802944 1.41622 0
M  V30 15311 O 1445.76 1.08136 1.42017 0
M  V30 15312 C 1442.86 2.13039 2.63567 0
M  V30 15313 C 1442.03 3.44192 2.69909 0
M  V30 15314 C 1441.09 3.55111 3.88307 0
M  V30 15315 O 1440.12 4.2792 3.75331 0
M  V30 15316 N 1441.32 2.88325 5.03834 0
M  V30 15317 H 1444.08 2.83624 0.968383 0
M  V30 15318 H 1441.65 1.57297 0.383302 0
M  V30 15319 H 1443.64 2.1763 3.41202 0
M  V30 15320 H 1442.21 1.27116 2.85588 0
M  V30 15321 H 1441.43 3.51452 1.78535 0
M  V30 15322 H 1442.72 4.30536 2.71139 0
M  V30 15323 H 1442.11 2.29003 5.17276 0
M  V30 15324 H 1440.67 2.98542 5.7941 0
M  V30 15325 N 1444.1 -0.461169 1.50702 0
M  V30 15326 C 1445.05 -1.55575 1.66675 0
M  V30 15327 C 1446.04 -1.52227 0.521128 0
M  V30 15328 O 1447.23 -1.59083 0.775989 0
M  V30 15329 C 1444.36 -2.93951 1.77336 0
M  V30 15330 C 1443.44 -3.02145 2.97606 0
M  V30 15331 N 1443.84 -2.80131 4.21142 0
M  V30 15332 C 1442.13 -3.33289 2.96369 0
M  V30 15333 C 1442.83 -2.93549 5.02199 0
M  V30 15334 N 1441.81 -3.24184 4.36355 0
M  V30 15335 H 1445.61 -1.3727 2.59874 0
M  V30 15336 H 1443.13 -0.668078 1.48022 0
M  V30 15337 H 1445.12 -3.72666 1.86884 0
M  V30 15338 H 1443.78 -3.13295 0.853023 0
M  V30 15339 H 1444.79 -2.55519 4.50478 0
M  V30 15340 H 1441.47 -3.58558 2.13875 0
M  V30 15341 H 1442.86 -2.80685 6.10463 0
M  V30 15342 N 1445.58 -1.40446 -0.715026 0
M  V30 15343 C 1446.83 -1.3896 -1.47709 0
M  V30 15344 C 1447.16 0.00798698 -1.94198 0
M  V30 15345 O 1446.44 0.976732 -1.68197 0
M  V30 15346 C 1446.72 -2.37955 -2.70277 0
M  V30 15347 C 1446.57 -3.8674 -2.29678 0
M  V30 15348 C 1447.89 -2.34478 -3.72435 0
M  V30 15349 H 1445.01 -0.50607 -0.535782 0
M  V30 15350 H 1447.65 -1.71585 -0.815999 0
M  V30 15351 H 1445.8 -2.10264 -3.26682 0
M  V30 15352 H 1447.47 -4.2526 -1.7875 0
M  V30 15353 H 1445.72 -4.02547 -1.61674 0
M  V30 15354 H 1446.39 -4.51524 -3.17538 0
M  V30 15355 H 1448.86 -2.59007 -3.2566 0
M  V30 15356 H 1447.74 -3.05791 -4.55832 0
M  V30 15357 H 1448 -1.35661 -4.20771 0
M  V30 15358 N 1447.06 0.947303 -1.25952 0
M  V30 15359 C 1447.99 2.04485 -1.01297 0
M  V30 15360 C 1448.97 1.62488 0.06024 0
M  V30 15361 O 1450.15 1.88326 -0.0809237 0
M  V30 15362 C 1447.28 3.34484 -0.532733 0
M  V30 15363 C 1446.33 3.95449 -1.59758 0
M  V30 15364 S 1447.16 4.30498 -3.18484 0
M  V30 15365 C 1448.32 5.63605 -2.72213 0
M  V30 15366 H 1448.55 2.25084 -1.94228 0
M  V30 15367 H 1446.08 1.0879 -1.09564 0
M  V30 15368 H 1448.04 4.09661 -0.262309 0
M  V30 15369 H 1446.7 3.11839 0.376192 0
M  V30 15370 H 1445.89 4.892 -1.21243 0
M  V30 15371 H 1445.5 3.26781 -1.81907 0
M  V30 15372 H 1447.79 6.42046 -2.16295 0
M  V30 15373 H 1448.73 6.07 -3.64633 0
M  V30 15374 H 1449.14 5.2319 -2.11974 0
M  V30 15375 N 1448.54 1.07657 1.15099 0
M  V30 15376 C 1449.45 0.711198 2.2356 0
M  V30 15377 C 1450.46 -0.278932 1.7175 0
M  V30 15378 O 1451.64 -0.124788 2.01013 0
M  V30 15379 C 1448.71 0.117855 3.465 0
M  V30 15380 C 1447.77 1.16162 4.13286 0
M  V30 15381 C 1447 0.596494 5.30356 0
M  V30 15382 O 1447.22 -0.586474 5.67377 0
M  V30 15383 O 1446.16 1.34288 5.86729 0
M  V30 15384 H 1449.98 1.61578 2.5715 0
M  V30 15385 H 1447.57 0.84973 1.22882 0
M  V30 15386 H 1449.45 -0.210613 4.20873 0
M  V30 15387 H 1448.12 -0.760008 3.14652 0
M  V30 15388 H 1447.03 1.54249 3.4082 0
M  V30 15389 H 1448.36 2.01149 4.49221 0
M  V30 15390 N 1450.02 -1.31994 0.861122 0
M  V30 15391 C 1450.95 -2.27632 0.267681 0
M  V30 15392 C 1451.96 -1.52709 -0.564265 0
M  V30 15393 O 1453.15 -1.74239 -0.3877 0
M  V30 15394 C 1450.25 -3.32805 -0.639856 0
M  V30 15395 C 1449.42 -4.37116 0.157676 0
M  V30 15396 C 1448.48 -5.21832 -0.676624 0
M  V30 15397 O 1447.51 -5.69098 -0.107822 0
M  V30 15398 N 1448.71 -5.45317 -1.99022 0
M  V30 15399 H 1451.48 -2.79195 1.0895 0
M  V30 15400 H 1449.04 -1.44923 0.721733 0
M  V30 15401 H 1451.03 -3.86391 -1.20348 0
M  V30 15402 H 1449.6 -2.81351 -1.36236 0
M  V30 15403 H 1448.82 -3.83724 0.902741 0
M  V30 15404 H 1450.11 -5.03889 0.70524 0
M  V30 15405 H 1449.5 -5.08656 -2.47558 0
M  V30 15406 H 1448.06 -6.01874 -2.50182 0
M  V30 15407 N 1451.49 -0.619688 -1.44906 0
M  V30 15408 C 1452.77 -0.0510703 -1.95533 0
M  V30 15409 C 1453.15 1.42013 -1.56191 0
M  V30 15410 O 1452.5 2.12879 -0.830356 0
M  V30 15411 C 1452.71 -0.261896 -3.48016 0
M  V30 15412 C 1454.06 -0.149057 -4.24338 0
M  V30 15413 O 1455.08 -0.192655 -3.55679 0
M  V30 15414 O 1453.94 -0.0443345 -5.46482 0
M  V30 15415 H 1451.03 0.0288461 -0.826497 0
M  V30 15416 H 1453.58 -0.690594 -1.55013 0
M  V30 15417 H 1452.35 -1.28319 -3.69662 0
M  V30 15418 H 1451.98 0.412314 -3.95456 0
M  V30 15419 N 1452.97 1.53444 -0.359552 0
M  V30 15420 C 1454.22 2.00769 0.231564 0
M  V30 15421 C 1454.54 1.2487 1.49775 0
M  V30 15422 O 1453.81 0.360284 1.92558 0
M  V30 15423 H 1452.39 0.741732 0.0885581 0
M  V30 15424 H 1455.05 1.88785 -0.484397 0
M  V30 15425 H 1454.15 3.0865 0.462789 0
M  V30 15426 N 1454.45 0.0885642 1.57351 0
M  V30 15427 C 1455.4 -0.872723 2.13664 0
M  V30 15428 C 1456.37 -1.28418 1.05347 0
M  V30 15429 O 1457.55 -1.36709 1.33099 0
M  V30 15430 C 1454.69 -2.12886 2.71613 0
M  V30 15431 C 1453.81 -1.76852 3.94141 0
M  V30 15432 C 1452.94 -2.97203 4.40277 0
M  V30 15433 C 1451.98 -2.57265 5.55411 0
M  V30 15434 N 1451.12 -3.70429 5.96428 0
M  V30 15435 H 1455.96 -0.385644 2.95494 0
M  V30 15436 H 1453.49 -0.178688 1.46011 0
M  V30 15437 H 1455.45 -2.86441 3.03327 0
M  V30 15438 H 1454.08 -2.59105 1.92521 0
M  V30 15439 H 1453.13 -0.932921 3.68783 0
M  V30 15440 H 1454.45 -1.43481 4.77718 0
M  V30 15441 H 1453.6 -3.79019 4.7374 0
M  V30 15442 H 1452.34 -3.3378 3.55587 0
M  V30 15443 H 1451.34 -1.73875 5.21582 0
M  V30 15444 H 1452.57 -2.21839 6.41844 0
M  V30 15445 H 1450.51 -4.06737 5.14686 0
M  V30 15446 H 1450.43 -3.40881 6.74786 0
M  V30 15447 H 1451.7 -4.52774 6.3452 0
M  V30 15448 N 1455.93 -1.56509 -0.185096 0
M  V30 15449 C 1456.88 -1.95336 -1.22934 0
M  V30 15450 C 1457.85 -0.81532 -1.44713 0
M  V30 15451 O 1459.03 -1.07431 -1.57681 0
M  V30 15452 C 1456.17 -2.30671 -2.56681 0
M  V30 15453 C 1455.28 -3.57586 -2.42397 0
M  V30 15454 C 1454.42 -3.82197 -3.68916 0
M  V30 15455 C 1453.46 -5.02505 -3.49507 0
M  V30 15456 N 1452.59 -5.23319 -4.68062 0
M  V30 15457 H 1457.43 -2.84361 -0.89123 0
M  V30 15458 H 1454.97 -1.40715 -0.428689 0
M  V30 15459 H 1456.93 -2.49176 -3.34615 0
M  V30 15460 H 1455.56 -1.44773 -2.88514 0
M  V30 15461 H 1454.61 -3.47072 -1.55709 0
M  V30 15462 H 1455.92 -4.45677 -2.23994 0
M  V30 15463 H 1455.08 -4.00996 -4.55288 0
M  V30 15464 H 1453.82 -2.92455 -3.90284 0
M  V30 15465 H 1452.82 -4.83619 -2.6152 0
M  V30 15466 H 1454.05 -5.93765 -3.29574 0
M  V30 15467 H 1451.99 -4.36526 -4.89674 0
M  V30 15468 H 1451.91 -6.05608 -4.52521 0
M  V30 15469 H 1453.18 -5.46585 -5.55757 0
M  V30 15470 N 1457.41 0.45317 -1.50944 0
M  V30 15471 C 1458.34 1.55655 -1.74051 0
M  V30 15472 C 1459.32 1.59545 -0.58987 0
M  V30 15473 O 1460.5 1.75526 -0.830922 0
M  V30 15474 C 1457.63 2.93857 -1.85109 0
M  V30 15475 C 1456.59 3.04832 -3.00435 0
M  V30 15476 C 1455.91 4.44858 -2.96657 0
M  V30 15477 C 1457.21 2.80381 -4.40663 0
M  V30 15478 H 1458.91 1.36571 -2.66437 0
M  V30 15479 H 1456.45 0.655572 -1.28212 0
M  V30 15480 H 1458.41 3.70992 -1.99857 0
M  V30 15481 H 1457.13 3.14138 -0.893579 0
M  V30 15482 H 1455.79 2.30134 -2.85366 0
M  V30 15483 H 1455.44 4.62083 -1.98716 0
M  V30 15484 H 1455.14 4.53134 -3.7409 0
M  V30 15485 H 1456.66 5.23989 -3.13478 0
M  V30 15486 H 1458.07 3.47255 -4.56165 0
M  V30 15487 H 1456.47 3.00083 -5.19683 0
M  V30 15488 H 1457.54 1.76099 -4.51793 0
M  V30 15489 N 1458.88 1.40823 0.707568 0
M  V30 15490 C 1460.13 1.38837 1.46312 0
M  V30 15491 C 1460.45 -0.00353939 1.956 0
M  V30 15492 O 1461.65 -0.146022 2.71107 0
M  V30 15493 C 1460.11 2.44052 2.64512 0
M  V30 15494 C 1459.72 3.89093 2.2206 0
M  V30 15495 C 1461.46 2.51185 3.42208 0
M  V30 15496 C 1459.37 4.85887 3.37147 0
M  V30 15497 H 1458.3 0.516263 0.549535 0
M  V30 15498 H 1460.95 1.66595 0.769302 0
M  V30 15499 H 1459.33 2.09406 3.36103 0
M  V30 15500 H 1460.5 4.32925 1.57837 0
M  V30 15501 H 1458.82 3.8551 1.57388 0
M  V30 15502 H 1461.42 3.20687 4.2786 0
M  V30 15503 H 1461.76 1.54488 3.86574 0
M  V30 15504 H 1462.29 2.84862 2.77666 0
M  V30 15505 H 1459.03 5.83946 2.97805 0
M  V30 15506 H 1458.55 4.46713 4.00259 0
M  V30 15507 H 1460.23 5.06084 4.03098 0
M  V30 15508 N 1460.36 -0.94061 1.26453 0
M  V30 15509 C 1461.27 -2.07298 1.09839 0
M  V30 15510 C 1462.29 -1.73971 0.0317477 0
M  V30 15511 O 1463.46 -2.00017 0.235594 0
M  V30 15512 C 1460.53 -3.38847 0.733736 0
M  V30 15513 C 1459.59 -3.85954 1.87985 0
M  V30 15514 C 1458.82 -5.11224 1.5325 0
M  V30 15515 O 1459.05 -5.68743 0.434491 0
M  V30 15516 O 1457.98 -5.53386 2.36743 0
M  V30 15517 H 1461.81 -2.24222 2.04837 0
M  V30 15518 H 1459.39 -1.05763 1.0552 0
M  V30 15519 H 1461.27 -4.17885 0.543131 0
M  V30 15520 H 1459.95 -3.2316 -0.186843 0
M  V30 15521 H 1458.86 -3.07858 2.12542 0
M  V30 15522 H 1460.19 -4.06162 2.78017 0
M  V30 15523 N 1461.84 -1.08266 -1.14527 0
M  V30 15524 C 1462.77 -0.732968 -2.21698 0
M  V30 15525 C 1463.75 0.283917 -1.67714 0
M  V30 15526 O 1464.94 0.154607 -1.93584 0
M  V30 15527 C 1462.07 -0.139935 -3.47018 0
M  V30 15528 C 1461.02 -1.08501 -4.14019 0
M  V30 15529 C 1460.35 -0.354263 -5.33525 0
M  V30 15530 C 1461.65 -2.42254 -4.62721 0
M  V30 15531 H 1463.34 -1.629 -2.51205 0
M  V30 15532 H 1460.89 -0.784696 -1.20742 0
M  V30 15533 H 1462.84 0.1167 -4.21238 0
M  V30 15534 H 1461.56 0.791228 -3.16871 0
M  V30 15535 H 1460.22 -1.32672 -3.41751 0
M  V30 15536 H 1459.87 0.580658 -4.99637 0
M  V30 15537 H 1459.57 -0.984287 -5.79297 0
M  V30 15538 H 1461.09 -0.105648 -6.10509 0
M  V30 15539 H 1462.51 -2.22357 -5.28422 0
M  V30 15540 H 1460.91 -3.00935 -5.1919 0
M  V30 15541 H 1461.98 -3.03884 -3.77866 0
M  V30 15542 N 1463.32 1.31536 -0.86811 0
M  V30 15543 C 1464.25 2.31037 -0.33822 0
M  V30 15544 C 1465.23 1.60269 0.569892 0
M  V30 15545 O 1466.42 1.87987 0.487305 0
M  V30 15546 C 1463.55 3.44203 0.462753 0
M  V30 15547 C 1462.5 4.26549 -0.3521 0
M  V30 15548 C 1461.83 5.31605 0.574443 0
M  V30 15549 C 1463.13 4.97665 -1.58516 0
M  V30 15550 H 1464.82 2.75607 -1.16967 0
M  V30 15551 H 1462.37 1.325 -0.56389 0
M  V30 15552 H 1464.32 4.12862 0.843967 0
M  V30 15553 H 1463.04 2.98396 1.32769 0
M  V30 15554 H 1461.7 3.59555 -0.715237 0
M  V30 15555 H 1461.35 4.82048 1.43661 0
M  V30 15556 H 1461.05 5.87591 0.0331436 0
M  V30 15557 H 1462.57 6.03124 0.952541 0
M  V30 15558 H 1463.99 5.58931 -1.27549 0
M  V30 15559 H 1462.38 5.63437 -2.06539 0
M  V30 15560 H 1463.45 4.24756 -2.33902 0
M  V30 15561 N 1464.8 0.627364 1.44575 0
M  V30 15562 C 1466.07 0.0614392 1.95503 0
M  V30 15563 C 1466.45 -1.41182 1.56942 0
M  V30 15564 O 1465.8 -2.12435 0.841634 0
M  V30 15565 C 1466.01 0.280349 3.47872 0
M  V30 15566 C 1467.36 0.171559 4.24253 0
M  V30 15567 O 1468.38 0.211515 3.55571 0
M  V30 15568 O 1467.24 0.0733152 5.46451 0
M  V30 15569 H 1464.34 -0.0244626 0.826638 0
M  V30 15570 H 1466.88 0.698805 1.54644 0
M  V30 15571 H 1465.66 1.30278 3.68976 0
M  V30 15572 H 1465.28 -0.391336 3.95669 0
M  V30 15573 N 1466.28 -1.53251 0.367684 0
M  V30 15574 C 1467.21 -2.23396 -0.512539 0
M  V30 15575 C 1468.22 -1.2488 -1.04446 0
M  V30 15576 O 1469.41 -1.5109 -0.950477 0
M  V30 15577 C 1466.51 -2.91971 -1.72064 0
M  V30 15578 C 1465.68 -4.17011 -1.31986 0
M  V30 15579 C 1464.74 -4.68779 -2.39025 0
M  V30 15580 O 1463.77 -5.32405 -2.01328 0
M  V30 15581 N 1464.97 -4.46773 -3.7064 0
M  V30 15582 H 1467.73 -2.9957 0.0883152 0
M  V30 15583 H 1465.3 -1.60746 0.192966 0
M  V30 15584 H 1467.29 -3.23511 -2.43152 0
M  V30 15585 H 1465.86 -2.19237 -2.22831 0
M  V30 15586 H 1465.08 -3.91751 -0.438732 0
M  V30 15587 H 1466.37 -4.98298 -1.02842 0
M  V30 15588 H 1465.76 -3.95938 -4.04042 0
M  V30 15589 H 1464.32 -4.82857 -4.37827 0
M  V30 15590 N 1467.75 -0.0969077 -1.57302 0
M  V30 15591 C 1469 0.565254 -1.94034 0
M  V30 15592 C 1469.32 1.68609 -0.9796 0
M  V30 15593 O 1468.59 1.95874 -0.0319788 0
M  V30 15594 H 1467.17 0.211796 -0.716346 0
M  V30 15595 H 1469.83 -0.160665 -1.94237 0
M  V30 15596 H 1468.93 0.974268 -2.96504 0
M  V30 15597 N 1469.23 1.56605 0.176793 0
M  V30 15598 C 1470.19 1.95109 1.20271 0
M  V30 15599 C 1471.19 0.83414 1.37473 0
M  V30 15600 O 1472.38 1.10128 1.34972 0
M  V30 15601 C 1469.52 2.24112 2.56878 0
M  V30 15602 H 1470.71 2.86909 0.87312 0
M  V30 15603 H 1468.26 1.50578 0.419033 0
M  V30 15604 H 1469 1.35009 2.94861 0
M  V30 15605 H 1468.78 3.05523 2.45761 0
M  V30 15606 H 1470.27 2.54842 3.30825 0
M  V30 15607 N 1470.71 -0.445159 1.51182 0
M  V30 15608 C 1471.66 -1.53798 1.68316 0
M  V30 15609 C 1472.64 -1.51666 0.537244 0
M  V30 15610 O 1473.84 -1.58251 0.792818 0
M  V30 15611 C 1470.96 -2.92053 1.80444 0
M  V30 15612 C 1470.05 -2.98971 3.00794 0
M  V30 15613 N 1470.44 -2.75648 4.24089 0
M  V30 15614 C 1468.74 -3.30127 2.99887 0
M  V30 15615 C 1469.44 -2.88206 5.05284 0
M  V30 15616 N 1468.42 -3.19538 4.39769 0
M  V30 15617 H 1472.22 -1.34506 2.61315 0
M  V30 15618 H 1469.73 -0.652341 1.48722 0
M  V30 15619 H 1471.73 -3.70663 1.90827 0
M  V30 15620 H 1470.39 -3.12372 0.886204 0
M  V30 15621 H 1471.4 -2.50727 4.53163 0
M  V30 15622 H 1468.08 -3.5627 2.17665 0
M  V30 15623 H 1469.47 -2.74194 6.13406 0
M  V30 15624 N 1472.19 -1.41197 -0.700089 0
M  V30 15625 C 1473.43 -1.40311 -1.46011 0
M  V30 15626 C 1473.76 -0.0106853 -1.94497 0
M  V30 15627 O 1473.02 0.976648 -1.69588 0
M  V30 15628 C 1473.32 -2.35259 -2.6905 0
M  V30 15629 C 1472.98 -3.82194 -2.39245 0
M  V30 15630 C 1471.64 -4.22223 -2.30827 0
M  V30 15631 C 1474 -4.74983 -2.1457 0
M  V30 15632 C 1471.32 -5.53055 -1.95824 0
M  V30 15633 C 1473.68 -6.0613 -1.81077 0
M  V30 15634 C 1472.34 -6.45185 -1.71151 0
M  V30 15635 H 1471.61 -0.513434 -0.534291 0
M  V30 15636 H 1474.26 -1.73963 -0.800574 0
M  V30 15637 H 1472.56 -1.94845 -3.39915 0
M  V30 15638 H 1474.26 -2.31849 -3.2718 0
M  V30 15639 H 1470.85 -3.50488 -2.4669 0
M  V30 15640 H 1475.03 -4.44864 -2.20021 0
M  V30 15641 H 1470.29 -5.822 -1.86689 0
M  V30 15642 H 1474.46 -6.77533 -1.61002 0
M  V30 15643 H 1472.09 -7.46476 -1.43796 0
M  V30 15644 N 1473.67 0.933891 -1.2695 0
M  V30 15645 C 1474.9 1.71263 -1.15553 0
M  V30 15646 C 1475.3 1.86948 0.291059 0
M  V30 15647 O 1474.65 1.38173 1.21053 0
M  V30 15648 C 1474.71 3.13479 -1.75986 0
M  V30 15649 C 1474.37 3.21154 -3.2513 0
M  V30 15650 C 1475.37 3.03874 -4.21849 0
M  V30 15651 C 1473.05 3.44311 -3.65726 0
M  V30 15652 C 1475.05 3.09631 -5.57142 0
M  V30 15653 C 1472.74 3.49702 -5.01151 0
M  V30 15654 C 1473.73 3.32379 -5.96668 0
M  V30 15655 O 1473.42 3.37493 -7.29626 0
M  V30 15656 H 1473.15 0.542801 -0.402918 0
M  V30 15657 H 1475.71 1.17877 -1.68209 0
M  V30 15658 H 1473.94 3.6832 -1.178 0
M  V30 15659 H 1475.63 3.73295 -1.59391 0
M  V30 15660 H 1476.39 2.85832 -3.91823 0
M  V30 15661 H 1472.27 3.56847 -2.91859 0
M  V30 15662 H 1475.82 2.96028 -6.31675 0
M  V30 15663 H 1471.71 3.67267 -5.30835 0
M  V30 15664 H 1472.48 3.53988 -7.37994 0
M  V30 15665 N 1475.14 1.08871 1.13951 0
M  V30 15666 C 1476.39 0.816198 1.84448 0
M  V30 15667 C 1476.71 -0.660396 1.84114 0
M  V30 15668 O 1477.91 -1.04825 2.50448 0
M  V30 15669 C 1476.37 1.41015 3.31123 0
M  V30 15670 C 1475.98 2.91888 3.39861 0
M  V30 15671 C 1477.72 1.21633 4.06701 0
M  V30 15672 C 1475.63 3.44397 4.80775 0
M  V30 15673 H 1474.56 0.301662 0.691025 0
M  V30 15674 H 1477.21 1.31072 1.28423 0
M  V30 15675 H 1475.59 0.843333 3.86916 0
M  V30 15676 H 1476.76 3.54747 2.94094 0
M  V30 15677 H 1475.08 3.10238 2.77743 0
M  V30 15678 H 1477.68 1.58324 5.10723 0
M  V30 15679 H 1478.02 0.156519 4.16006 0
M  V30 15680 H 1478.55 1.75035 3.57222 0
M  V30 15681 H 1475.29 4.49973 4.7666 0
M  V30 15682 H 1474.81 2.86299 5.27061 0
M  V30 15683 H 1476.49 3.41266 5.49679 0
M  V30 15684 N 1476.62 -1.31073 0.875073 0
M  V30 15685 C 1477.86 -1.98313 0.495116 0
M  V30 15686 C 1478.23 -1.67629 -0.93619 0
M  V30 15687 O 1479.43 -2.28122 -1.42176 0
M  V30 15688 C 1477.7 -3.49424 0.750847 0
M  V30 15689 S 1479.26 -4.36259 0.471512 0
M  V30 15690 H 1476.07 -0.686614 0.184613 0
M  V30 15691 H 1478.68 -1.59378 1.1322 0
M  V30 15692 H 1477.38 -3.69246 1.79124 0
M  V30 15693 H 1476.91 -3.9327 0.100946 0
M  V30 15694 H 1478.93 -4.91322 -0.69407 0
M  V30 15695 N 1478.1 -0.635022 -1.4424 0
M  V30 15696 C 1479.35 -0.140788 -2.01609 0
M  V30 15697 C 1479.67 1.24317 -1.50234 0
M  V30 15698 O 1478.94 1.82677 -0.707519 0
M  V30 15699 H 1477.52 -0.0490568 -0.745387 0
M  V30 15700 H 1480.18 -0.8226 -1.7669 0
M  V30 15701 H 1479.28 -0.111456 -3.11901 0
M  V30 15702 N 1479.58 1.53054 -0.375806 0
M  V30 15703 C 1480.86 1.93761 0.26757 0
M  V30 15704 C 1481.24 1.31019 1.65521 0
M  V30 15705 O 1480.58 0.473138 2.23548 0
M  V30 15706 C 1480.79 3.47643 0.307505 0
M  V30 15707 C 1482.14 4.21114 0.542951 0
M  V30 15708 O 1483.17 3.54077 0.388285 0
M  V30 15709 O 1482.02 5.39929 0.8449 0
M  V30 15710 H 1479.12 0.810805 0.16286 0
M  V30 15711 H 1481.66 1.64179 -0.429334 0
M  V30 15712 H 1480.44 3.85608 -0.665001 0
M  V30 15713 H 1480.06 3.83488 1.04988 0
M  V30 15714 N 1481.06 0.105248 1.57248 0
M  V30 15715 C 1482.3 -0.554956 1.94331 0
M  V30 15716 C 1482.63 -1.68087 0.988528 0
M  V30 15717 O 1481.9 -1.95854 0.042366 0
M  V30 15718 H 1480.48 -0.207994 0.717459 0
M  V30 15719 H 1483.14 0.170964 1.94149 0
M  V30 15720 H 1482.23 -0.95853 2.97016 0
M  V30 15721 N 1482.53 -1.56697 -0.168486 0
M  V30 15722 C 1483.76 -1.86652 -0.904195 0
M  V30 15723 C 1484.18 -0.691906 -1.74912 0
M  V30 15724 O 1483.54 0.358971 -1.77711 0
M  V30 15725 C 1483.59 -3.15043 -1.75442 0
M  V30 15726 O 1482.69 -2.97466 -2.85636 0
M  V30 15727 H 1482.04 -0.613859 -0.253128 0
M  V30 15728 H 1484.57 -2.03927 -0.165773 0
M  V30 15729 H 1484.58 -3.4652 -2.15378 0
M  V30 15730 H 1483.25 -4.00147 -1.13381 0
M  V30 15731 H 1481.83 -2.7735 -2.49262 0
M  V30 15732 N 1484.01 0.437135 -1.51416 0
M  V30 15733 C 1484.94 1.54894 -1.68939 0
M  V30 15734 C 1485.96 1.52493 -0.570059 0
M  V30 15735 O 1487.15 1.57266 -0.844381 0
M  V30 15736 C 1484.25 2.9381 -1.68904 0
M  V30 15737 C 1483.42 3.20714 -2.97425 0
M  V30 15738 C 1482.48 4.39355 -2.89575 0
M  V30 15739 O 1481.5 4.37999 -3.63519 0
M  V30 15740 N 1482.71 5.42931 -2.05441 0
M  V30 15741 H 1485.47 1.40267 -2.64849 0
M  V30 15742 H 1483.03 0.626075 -1.49305 0
M  V30 15743 H 1485.02 3.71201 -1.61221 0
M  V30 15744 H 1483.59 3.02034 -0.805871 0
M  V30 15745 H 1482.81 2.31621 -3.18975 0
M  V30 15746 H 1484.1 3.35516 -3.825 0
M  V30 15747 H 1483.5 5.4687 -1.44742 0
M  V30 15748 H 1482.06 6.19173 -2.03636 0
M  V30 15749 N 1485.49 1.41566 0.692592 0
M  V30 15750 C 1486.42 1.38067 1.81694 0
M  V30 15751 C 1487.4 0.247482 1.60706 0
M  V30 15752 O 1488.59 0.43487 1.83415 0
M  V30 15753 C 1485.71 1.15438 3.18421 0
M  V30 15754 C 1484.76 2.31515 3.58194 0
M  V30 15755 S 1485.59 3.94003 3.6266 0
M  V30 15756 C 1486.75 3.73683 5.02108 0
M  V30 15757 H 1486.98 2.33215 1.84386 0
M  V30 15758 H 1484.51 1.28125 0.861585 0
M  V30 15759 H 1486.47 1.03069 3.9735 0
M  V30 15760 H 1485.13 0.219055 3.13335 0
M  V30 15761 H 1484.33 2.11383 4.57529 0
M  V30 15762 H 1483.93 2.40307 2.86581 0
M  V30 15763 H 1486.22 3.33573 5.89691 0
M  V30 15764 H 1487.16 4.72631 5.27281 0
M  V30 15765 H 1487.57 3.06899 4.73786 0
M  V30 15766 N 1486.97 -0.927146 1.27443 0
M  V30 15767 C 1487.93 -2.00938 1.10257 0
M  V30 15768 C 1488.93 -1.60733 0.0463898 0
M  V30 15769 O 1490.12 -1.71752 0.291029 0
M  V30 15770 C 1487.25 -3.34047 0.680115 0
M  V30 15771 H 1488.45 -2.17615 2.06358 0
M  V30 15772 H 1486 -1.10802 1.10239 0
M  V30 15773 H 1486.73 -3.23069 -0.282259 0
M  V30 15774 H 1486.52 -3.64585 1.44291 0
M  V30 15775 H 1488.01 -4.13523 0.582126 0
M  V30 15776 N 1488.45 -1.09474 -1.13372 0
M  V30 15777 C 1489.86 -0.850378 -1.66209 0
M  V30 15778 C 1490.21 0.621071 -1.86111 0
M  V30 15779 O 1489.33 1.47837 -1.58029 0
M  V30 15780 C 1489.93 -1.53713 -3.01924 0
M  V30 15781 C 1488.49 -1.33972 -3.5175 0
M  V30 15782 C 1487.63 -1.5929 -2.26985 0
M  V30 15783 H 1490.59 -1.25383 -0.972874 0
M  V30 15784 H 1490.61 -0.970503 -3.67915 0
M  V30 15785 H 1490.12 -2.60804 -2.87407 0
M  V30 15786 H 1488.22 -0.289998 -3.7147 0
M  V30 15787 H 1488.33 -2.0749 -4.31839 0
M  V30 15788 H 1486.7 -1.01505 -2.336 0
M  V30 15789 H 1487.48 -2.67611 -2.15033 0
M  V30 15790 N 1489.92 1.30607 -0.882012 0
M  V30 15791 C 1490.89 2.26489 -0.351498 0
M  V30 15792 C 1491.89 1.52686 0.504348 0
M  V30 15793 O 1493.08 1.71385 0.311928 0
M  V30 15794 C 1490.21 3.37222 0.499435 0
M  V30 15795 H 1491.4 2.74929 -1.19809 0
M  V30 15796 H 1488.96 1.41746 -0.658616 0
M  V30 15797 H 1489.69 2.94093 1.36673 0
M  V30 15798 H 1489.48 3.91936 -0.11356 0
M  V30 15799 H 1490.97 4.08596 0.862497 0
M  V30 15800 N 1491.4 0.642663 1.43901 0
M  V30 15801 C 1492.65 0.152003 2.0223 0
M  V30 15802 C 1492.98 -1.22711 1.50518 0
M  V30 15803 O 1492.26 -1.817 0.693937 0
M  V30 15804 C 1492.54 0.151278 3.59782 0
M  V30 15805 C 1492.39 1.56356 4.2175 0
M  V30 15806 C 1493.71 -0.518016 4.37041 0
M  V30 15807 H 1490.83 0.0567094 0.734815 0
M  V30 15808 H 1493.47 0.821337 1.7133 0
M  V30 15809 H 1491.62 -0.418679 3.86237 0
M  V30 15810 H 1493.29 2.18329 4.06362 0
M  V30 15811 H 1491.54 2.11401 3.78803 0
M  V30 15812 H 1492.21 1.51499 5.30803 0
M  V30 15813 H 1494.68 -0.0331947 4.16087 0
M  V30 15814 H 1493.56 -0.487754 5.46729 0
M  V30 15815 H 1493.82 -1.59036 4.12504 0
M  V30 15816 N 1492.88 -1.52852 0.383918 0
M  V30 15817 C 1493.79 -2.3002 -0.461298 0
M  V30 15818 C 1494.81 -1.36717 -1.07631 0
M  V30 15819 O 1495.98 -1.69784 -1.08329 0
M  V30 15820 C 1493.05 -3.08804 -1.57609 0
M  V30 15821 C 1492.11 -4.17806 -0.986737 0
M  V30 15822 C 1491.34 -4.92825 -2.04841 0
M  V30 15823 O 1491.57 -4.67879 -3.26259 0
M  V30 15824 O 1490.5 -5.78306 -1.66871 0
M  V30 15825 H 1494.33 -3.03239 0.167189 0
M  V30 15826 H 1491.91 -1.48667 0.147781 0
M  V30 15827 H 1493.79 -3.57943 -2.22384 0
M  V30 15828 H 1492.47 -2.38404 -2.18964 0
M  V30 15829 H 1491.37 -3.72876 -0.302396 0
M  V30 15830 H 1492.71 -4.90426 -0.417481 0
M  V30 15831 N 1494.36 -0.113586 -1.5719 0
M  V30 15832 C 1495.32 0.824258 -2.13866 0
M  V30 15833 C 1496.32 1.19831 -1.07224 0
M  V30 15834 O 1497.51 1.12471 -1.33026 0
M  V30 15835 C 1494.64 2.11391 -2.67445 0
M  V30 15836 H 1495.84 0.331803 -2.98059 0
M  V30 15837 H 1493.39 0.135599 -1.55711 0
M  V30 15838 H 1494.13 2.65079 -1.86824 0
M  V30 15839 H 1493.91 1.85523 -3.45433 0
M  V30 15840 H 1495.4 2.78443 -3.11222 0
M  V30 15841 N 1495.84 1.56784 0.160173 0
M  V30 15842 C 1497.07 1.86767 0.89026 0
M  V30 15843 C 1497.48 0.700276 1.75333 0
M  V30 15844 O 1496.84 -0.330342 1.79485 0
M  V30 15845 C 1496.89 3.15883 1.75784 0
M  V30 15846 O 1496.61 4.28124 0.929575 0
M  V30 15847 C 1498.11 3.5929 2.59664 0
M  V30 15848 H 1495.33 0.61938 0.258088 0
M  V30 15849 H 1497.87 2.03897 0.156919 0
M  V30 15850 H 1496.03 3.00546 2.4444 0
M  V30 15851 H 1496.44 5.01872 1.52397 0
M  V30 15852 H 1497.92 4.52506 3.16136 0
M  V30 15853 H 1498.39 2.83943 3.35072 0
M  V30 15854 H 1499 3.77277 1.96323 0
M  V30 15855 N 1497.32 -0.429099 1.51646 0
M  V30 15856 C 1498.25 -1.52867 1.76505 0
M  V30 15857 C 1499.23 -1.58586 0.615178 0
M  V30 15858 O 1500.41 -1.74182 0.858742 0
M  V30 15859 C 1497.54 -2.90875 1.8976 0
M  V30 15860 C 1496.5 -3.00014 3.05247 0
M  V30 15861 C 1495.82 -4.40082 3.03696 0
M  V30 15862 C 1497.12 -2.73334 4.45068 0
M  V30 15863 H 1498.82 -1.32315 2.68576 0
M  V30 15864 H 1496.36 -0.635091 1.29238 0
M  V30 15865 H 1498.31 -3.67765 2.05734 0
M  V30 15866 H 1497.04 -3.12677 0.943442 0
M  V30 15867 H 1495.7 -2.25565 2.88991 0
M  V30 15868 H 1495.35 -4.58864 2.06042 0
M  V30 15869 H 1495.05 -4.47125 3.81252 0
M  V30 15870 H 1496.57 -5.18935 3.21774 0
M  V30 15871 H 1497.98 -3.39954 4.61632 0
M  V30 15872 H 1496.38 -2.91777 5.24391 0
M  V30 15873 H 1497.45 -1.68889 4.54538 0
M  V30 15874 N 1498.79 -1.41931 -0.685074 0
M  V30 15875 C 1499.73 -1.39028 -1.8096 0
M  V30 15876 C 1500.7 -0.256001 -1.60572 0
M  V30 15877 O 1501.89 -0.44459 -1.83182 0
M  V30 15878 C 1499.02 -1.17125 -3.17804 0
M  V30 15879 C 1498.06 -2.33411 -3.56961 0
M  V30 15880 S 1498.89 -3.9592 -3.60565 0
M  V30 15881 C 1500.05 -3.7634 -5.00119 0
M  V30 15882 H 1500.28 -2.34189 -1.83146 0
M  V30 15883 H 1497.82 -1.2858 -0.854778 0
M  V30 15884 H 1499.77 -1.05175 -3.96798 0
M  V30 15885 H 1498.44 -0.235668 -3.13215 0
M  V30 15886 H 1497.63 -2.13807 -4.56402 0
M  V30 15887 H 1497.23 -2.41823 -2.85303 0
M  V30 15888 H 1499.52 -3.36695 -5.87914 0
M  V30 15889 H 1500.47 -4.7542 -5.24768 0
M  V30 15890 H 1500.87 -3.09407 -4.72152 0
M  V30 15891 N 1500.27 0.920374 -1.27933 0
M  V30 15892 C 1501.22 2.02196 -1.1129 0
M  V30 15893 C 1502.19 1.66096 -0.0118871 0
M  V30 15894 O 1503.37 1.8999 -0.175586 0
M  V30 15895 C 1500.51 3.36312 -0.77383 0
M  V30 15896 C 1499.63 3.85322 -1.95322 0
M  V30 15897 C 1498.76 5.07919 -1.55537 0
M  V30 15898 C 1497.8 5.49244 -2.7018 0
M  V30 15899 N 1496.94 6.63034 -2.30933 0
M  V30 15900 H 1501.78 2.15764 -2.05548 0
M  V30 15901 H 1499.31 1.05691 -1.02312 0
M  V30 15902 H 1501.27 4.13451 -0.558024 0
M  V30 15903 H 1499.9 3.22531 0.131806 0
M  V30 15904 H 1498.95 3.04399 -2.28135 0
M  V30 15905 H 1500.27 4.11915 -2.81296 0
M  V30 15906 H 1499.42 5.92581 -1.30123 0
M  V30 15907 H 1498.16 4.8312 -0.666818 0
M  V30 15908 H 1497.16 4.63127 -2.96299 0
M  V30 15909 H 1498.39 5.76035 -3.59667 0
M  V30 15910 H 1496.34 6.39878 -1.44539 0
M  V30 15911 H 1496.25 6.89319 -3.10444 0
M  V30 15912 H 1497.52 7.51018 -2.08786 0
M  V30 15913 N 1501.75 1.10074 1.1279 0
M  V30 15914 C 1502.97 0.863106 1.88587 0
M  V30 15915 C 1503.4 -0.580595 1.78915 0
M  V30 15916 O 1502.76 -1.40859 1.14142 0
M  V30 15917 C 1502.81 1.31142 3.35908 0
M  V30 15918 O 1501.91 0.474088 4.09666 0
M  V30 15919 H 1501.25 0.312034 0.586115 0
M  V30 15920 H 1503.78 1.46659 1.42662 0
M  V30 15921 H 1503.79 1.29974 3.86744 0
M  V30 15922 H 1502.47 2.36279 3.42265 0
M  V30 15923 H 1501.04 0.550665 3.68812 0
M  V30 15924 N 1503.23 -1.30138 0.888926 0
M  V30 15925 C 1504.46 -1.99853 0.523676 0
M  V30 15926 C 1504.87 -1.66783 -0.893312 0
M  V30 15927 O 1504.21 -0.903292 -1.59957 0
M  V30 15928 C 1504.27 -3.54055 0.623332 0
M  V30 15929 C 1503.93 -4.10652 2.00534 0
M  V30 15930 C 1504.93 -4.26353 2.97522 0
M  V30 15931 C 1502.62 -4.45938 2.3118 0
M  V30 15932 C 1504.61 -4.76557 4.23288 0
M  V30 15933 C 1502.3 -4.95841 3.57191 0
M  V30 15934 C 1503.3 -5.11103 4.53059 0
M  V30 15935 O 1502.98 -5.59927 5.76833 0
M  V30 15936 H 1502.72 -0.645553 0.200591 0
M  V30 15937 H 1505.27 -1.66899 1.19724 0
M  V30 15938 H 1503.5 -3.86551 -0.107221 0
M  V30 15939 H 1505.19 -4.05009 0.26879 0
M  V30 15940 H 1505.95 -3.9939 2.75159 0
M  V30 15941 H 1501.83 -4.33324 1.57326 0
M  V30 15942 H 1505.38 -4.88385 4.98123 0
M  V30 15943 H 1501.27 -5.22239 3.7939 0
M  V30 15944 H 1502.04 -5.78263 5.79271 0
M  V30 15945 N 1504.71 -0.650285 -1.43559 0
M  V30 15946 C 1505.67 0.0336325 -2.29175 0
M  V30 15947 C 1506.67 0.753465 -1.42055 0
M  V30 15948 O 1507.86 0.595158 -1.63718 0
M  V30 15949 C 1504.99 1.05835 -3.24055 0
M  V30 15950 H 1506.18 -0.719643 -2.91138 0
M  V30 15951 H 1503.74 -0.411363 -1.5079 0
M  V30 15952 H 1504.47 1.84096 -2.66982 0
M  V30 15953 H 1504.26 0.545884 -3.88281 0
M  V30 15954 H 1505.75 1.53606 -3.88323 0
M  V30 15955 N 1506.18 1.52647 -0.392018 0
M  V30 15956 C 1507.46 1.94034 0.247004 0
M  V30 15957 C 1507.84 1.32767 1.64122 0
M  V30 15958 O 1507.19 0.496822 2.23033 0
M  V30 15959 C 1507.4 3.47949 0.270615 0
M  V30 15960 C 1508.75 4.21666 0.498256 0
M  V30 15961 O 1509.77 3.54469 0.350708 0
M  V30 15962 O 1508.63 5.40795 0.787586 0
M  V30 15963 H 1505.72 0.812487 0.154251 0
M  V30 15964 H 1508.27 1.63715 -0.446723 0
M  V30 15965 H 1507.04 3.84881 -0.705862 0
M  V30 15966 H 1506.66 3.8458 1.00915 0
M  V30 15967 N 1507.66 0.121921 1.57128 0
M  V30 15968 C 1508.91 -0.536164 1.95584 0
M  V30 15969 C 1509.24 -1.66143 1.0055 0
M  V30 15970 O 1508.52 -1.94452 0.0432427 0
M  V30 15971 C 1508.8 -1.0661 3.43957 0
M  V30 15972 C 1508.65 0.0559458 4.49765 0
M  V30 15973 C 1509.97 -1.95603 3.94243 0
M  V30 15974 H 1507.09 -0.193427 0.711165 0
M  V30 15975 H 1509.73 0.198072 1.88965 0
M  V30 15976 H 1507.88 -1.69181 3.49729 0
M  V30 15977 H 1509.55 0.691357 4.5609 0
M  V30 15978 H 1507.8 0.71868 4.27805 0
M  V30 15979 H 1508.47 -0.356133 5.5085 0
M  V30 15980 H 1510.94 -1.42899 3.90793 0
M  V30 15981 H 1509.82 -2.29599 4.98573 0
M  V30 15982 H 1510.08 -2.88364 3.3511 0
M  V30 15983 N 1509.14 -1.56867 -0.151857 0
M  V30 15984 C 1510.09 -1.94315 -1.19271 0
M  V30 15985 C 1511.07 -0.813807 -1.38802 0
M  V30 15986 O 1512.27 -1.07722 -1.40446 0
M  V30 15987 C 1509.4 -2.32316 -2.52753 0
M  V30 15988 C 1508.48 -3.5181 -2.36835 0
M  V30 15989 N 1508.87 -4.68488 -1.90663 0
M  V30 15990 C 1507.17 -3.56799 -2.67602 0
M  V30 15991 C 1507.87 -5.50594 -1.87673 0
M  V30 15992 N 1506.85 -4.92169 -2.30805 0
M  V30 15993 H 1510.65 -2.82003 -0.827747 0
M  V30 15994 H 1508.16 -1.58361 -0.359958 0
M  V30 15995 H 1510.16 -2.57347 -3.27991 0
M  V30 15996 H 1508.82 -1.45977 -2.90036 0
M  V30 15997 H 1509.83 -4.92336 -1.60703 0
M  V30 15998 H 1506.51 -2.80988 -3.08791 0
M  V30 15999 H 1507.9 -6.54129 -1.53509 0
M  V30 16000 N 1510.62 0.421051 -1.51871 0
M  V30 16001 C 1511.55 1.53094 -1.70572 0
M  V30 16002 C 1512.56 1.5188 -0.586201 0
M  V30 16003 O 1513.75 1.56361 -0.861013 0
M  V30 16004 C 1510.85 2.92002 -1.72011 0
M  V30 16005 C 1510.03 3.17541 -3.0081 0
M  V30 16006 C 1509.08 4.36259 -2.94219 0
M  V30 16007 O 1508.11 4.34118 -3.68144 0
M  V30 16008 N 1509.31 5.40722 -2.11188 0
M  V30 16009 H 1512.08 1.3745 -2.66322 0
M  V30 16010 H 1509.64 0.610204 -1.4996 0
M  V30 16011 H 1511.63 3.6947 -1.65149 0
M  V30 16012 H 1510.2 3.01162 -0.837861 0
M  V30 16013 H 1509.42 2.28225 -3.21414 0
M  V30 16014 H 1510.71 3.3144 -3.86037 0
M  V30 16015 H 1510.11 5.45304 -1.50534 0
M  V30 16016 H 1508.66 6.16979 -2.10192 0
M  V30 16017 N 1512.1 1.42293 0.677538 0
M  V30 16018 C 1513.34 1.42827 1.43973 0
M  V30 16019 C 1513.68 0.0435041 1.94151 0
M  V30 16020 O 1512.95 -0.931794 1.70727 0
M  V30 16021 C 1513.23 2.45037 2.63873 0
M  V30 16022 C 1513.09 3.92694 2.19344 0
M  V30 16023 C 1514.41 2.4427 3.66087 0
M  V30 16024 H 1511.52 0.520097 0.522176 0
M  V30 16025 H 1514.17 1.73688 0.770219 0
M  V30 16026 H 1512.32 2.18851 3.20993 0
M  V30 16027 H 1513.99 4.2985 1.67412 0
M  V30 16028 H 1512.23 4.06692 1.50944 0
M  V30 16029 H 1512.9 4.59784 3.05455 0
M  V30 16030 H 1515.38 2.67551 3.18678 0
M  V30 16031 H 1514.25 3.17769 4.47564 0
M  V30 16032 H 1514.52 1.46769 4.17027 0
M  V30 16033 N 1513.57 -0.913576 1.28419 0
M  V30 16034 C 1514.8 -1.70178 1.18551 0
M  V30 16035 C 1515.22 -1.864 -0.252307 0
M  V30 16036 O 1514.58 -1.37427 -1.18252 0
M  V30 16037 C 1514.63 -3.07145 1.8893 0
M  V30 16038 O 1513.73 -3.9465 1.19688 0
M  V30 16039 H 1513.08 -0.521092 0.411533 0
M  V30 16040 H 1515.61 -1.14228 1.69744 0
M  V30 16041 H 1515.62 -3.57375 1.96843 0
M  V30 16042 H 1514.29 -2.94655 2.93515 0
M  V30 16043 H 1512.87 -3.53085 1.19939 0
M  V30 16044 N 1515.05 -1.1067 -1.12204 0
M  V30 16045 C 1515.96 -0.770221 -2.21596 0
M  V30 16046 C 1516.98 0.233297 -1.72429 0
M  V30 16047 O 1518.15 0.0714493 -2.01273 0
M  V30 16048 C 1515.22 -0.209682 -3.46065 0
M  V30 16049 C 1514.28 -1.27079 -4.1006 0
M  V30 16050 C 1513.51 -0.736899 -5.28588 0
M  V30 16051 O 1513.74 0.435838 -5.68732 0
M  V30 16052 O 1512.67 -1.49797 -5.82962 0
M  V30 16053 H 1516.5 -1.6834 -2.52776 0
M  V30 16054 H 1514.08 -0.882012 -1.20586 0
M  V30 16055 H 1515.96 0.0989516 -4.21284 0
M  V30 16056 H 1514.64 0.676316 -3.16556 0
M  V30 16057 H 1513.55 -1.63231 -3.3661 0
M  V30 16058 H 1514.88 -2.12989 -4.4373 0
M  V30 16059 N 1516.53 1.29665 -0.895815 0
M  V30 16060 C 1517.49 2.26103 -0.3755 0
M  V30 16061 C 1518.49 1.53212 0.488126 0
M  V30 16062 O 1519.68 1.71706 0.293733 0
M  V30 16063 C 1516.82 3.37732 0.46364 0
M  V30 16064 H 1518.01 2.73643 -1.22718 0
M  V30 16065 H 1515.56 1.4104 -0.673613 0
M  V30 16066 H 1516.3 2.95526 1.33546 0
M  V30 16067 H 1516.08 3.91793 -0.155123 0
M  V30 16068 H 1517.57 4.09488 0.819112 0
M  V30 16069 N 1518.01 0.657889 1.43212 0
M  V30 16070 C 1519.29 0.102895 1.95329 0
M  V30 16071 C 1519.67 -1.37821 1.59901 0
M  V30 16072 O 1519.01 -2.10602 0.886505 0
M  V30 16073 C 1519.22 0.354075 3.47199 0
M  V30 16074 C 1520.57 0.261511 4.23794 0
M  V30 16075 O 1521.6 0.286889 3.55043 0
M  V30 16076 O 1520.45 0.189209 5.46172 0
M  V30 16077 H 1517.55 -0.00692284 0.826971 0
M  V30 16078 H 1520.09 0.73145 1.53127 0
M  V30 16079 H 1518.87 1.38075 3.6613 0
M  V30 16080 H 1518.49 -0.307321 3.96411 0
M  V30 16081 N 1519.49 -1.52437 0.400108 0
M  V30 16082 C 1520.45 -2.2536 -0.417808 0
M  V30 16083 C 1521.45 -1.27393 -0.981204 0
M  V30 16084 O 1522.64 -1.51406 -0.861503 0
M  V30 16085 C 1519.77 -3.01695 -1.58724 0
M  V30 16086 H 1520.96 -2.99086 0.220782 0
M  V30 16087 H 1518.52 -1.55555 0.152439 0
M  V30 16088 H 1519.25 -2.32295 -2.26295 0
M  V30 16089 H 1519.04 -3.73611 -1.18984 0
M  V30 16090 H 1520.53 -3.57033 -2.16604 0
M  V30 16091 N 1520.96 -0.130252 -1.57061 0
M  V30 16092 C 1522.38 0.226279 -1.57988 0
M  V30 16093 C 1522.58 1.65902 -1.14363 0
M  V30 16094 O 1521.64 2.38252 -0.836191 0
M  V30 16095 C 1522.95 -0.0172647 -3.00695 0
M  V30 16096 C 1524.5 0.0477572 -3.12964 0
M  V30 16097 C 1524.97 -0.168238 -4.57691 0
M  V30 16098 N 1526.46 -0.114591 -4.63058 0
M  V30 16099 C 1527.2 -0.256462 -5.72826 0
M  V30 16100 N 1526.69 -0.455129 -6.91303 0
M  V30 16101 N 1528.49 -0.195243 -5.61761 0
M  V30 16102 H 1520.64 -1.06594 -1.83716 0
M  V30 16103 H 1522.9 -0.420643 -0.849567 0
M  V30 16104 H 1522.61 -1.00819 -3.3694 0
M  V30 16105 H 1522.48 0.709629 -3.70465 0
M  V30 16106 H 1524.87 1.02922 -2.7657 0
M  V30 16107 H 1524.95 -0.711198 -2.45714 0
M  V30 16108 H 1524.59 -1.14673 -4.94785 0
M  V30 16109 H 1524.52 0.610839 -5.23045 0
M  V30 16110 H 1527.01 0.0349873 -3.77884 0
M  V30 16111 H 1527.33 -0.553943 -7.70812 0
M  V30 16112 H 1525.67 -0.491244 -6.93262 0
M  V30 16113 H 1528.86 -0.0409186 -4.68082 0
M  V30 16114 H 1529.04 -0.309248 -6.47262 0
M  V30 16115 N 1522.44 1.56945 0.143535 0
M  V30 16116 C 1523.37 2.0156 1.17881 0
M  V30 16117 C 1524.35 0.895744 1.44604 0
M  V30 16118 O 1525.54 1.16379 1.55466 0
M  V30 16119 C 1522.67 2.39915 2.51114 0
M  V30 16120 C 1521.62 3.55117 2.38905 0
M  V30 16121 C 1520.95 3.79296 3.7688 0
M  V30 16122 C 1522.25 4.87668 1.87021 0
M  V30 16123 H 1523.94 2.88296 0.80783 0
M  V30 16124 H 1521.49 1.38698 0.387149 0
M  V30 16125 H 1523.44 2.69727 3.23767 0
M  V30 16126 H 1522.17 1.5012 2.90055 0
M  V30 16127 H 1520.83 3.25476 1.68703 0
M  V30 16128 H 1520.47 2.86747 4.13262 0
M  V30 16129 H 1520.17 4.56827 3.69571 0
M  V30 16130 H 1521.7 4.11537 4.51076 0
M  V30 16131 H 1523.11 5.16176 2.4947 0
M  V30 16132 H 1521.51 5.69029 1.90594 0
M  V30 16133 H 1522.58 4.77811 0.82611 0
M  V30 16134 N 1523.92 -0.412991 1.52093 0
M  V30 16135 C 1525.17 -1.15878 1.67164 0
M  V30 16136 C 1525.52 -1.88306 0.394772 0
M  V30 16137 O 1524.82 -1.8161 -0.610614 0
M  V30 16138 C 1525.01 -2.18321 2.82968 0
M  V30 16139 C 1524.84 -1.55951 4.21793 0
M  V30 16140 C 1523.61 -1.33389 4.87376 0
M  V30 16141 C 1525.81 -1.02249 5.04033 0
M  V30 16142 N 1523.79 -0.668717 6.10247 0
M  V30 16143 C 1525.16 -0.484011 6.18108 0
M  V30 16144 C 1527.21 -0.916583 4.89391 0
M  V30 16145 C 1525.92 0.149993 7.19144 0
M  V30 16146 C 1527.94 -0.296438 5.90657 0
M  V30 16147 C 1527.31 0.231383 7.0402 0
M  V30 16148 H 1523.4 -0.410837 0.665385 0
M  V30 16149 H 1525.99 -0.451728 1.89387 0
M  V30 16150 H 1524.16 -2.86389 2.62366 0
M  V30 16151 H 1525.89 -2.85234 2.87095 0
M  V30 16152 H 1522.65 -1.60235 4.4567 0
M  V30 16153 H 1523.07 -0.352867 6.7608 0
M  V30 16154 H 1527.71 -1.31049 4.01978 0
M  V30 16155 H 1525.43 0.555971 8.06185 0
M  V30 16156 H 1529.02 -0.216065 5.81399 0
M  V30 16157 H 1527.9 0.703689 7.81036 0
M  V30 16158 N 1525.4 -1.4265 -0.669982 0
M  V30 16159 C 1526.33 -1.49298 -1.79534 0
M  V30 16160 C 1527.31 -0.34911 -1.66479 0
M  V30 16161 O 1528.5 -0.564072 -1.85828 0
M  V30 16162 C 1525.63 -1.39935 -3.17861 0
M  V30 16163 C 1524.58 -2.52398 -3.45657 0
M  V30 16164 C 1523.91 -2.28092 -4.8361 0
M  V30 16165 C 1525.21 -3.94697 -3.4207 0
M  V30 16166 H 1526.9 -2.43486 -1.74227 0
M  V30 16167 H 1524.45 -1.17191 -0.836796 0
M  V30 16168 H 1526.4 -1.43193 -3.96325 0
M  V30 16169 H 1525.12 -0.422436 -3.23857 0
M  V30 16170 H 1523.78 -2.48465 -2.69556 0
M  V30 16171 H 1523.43 -1.28683 -4.86261 0
M  V30 16172 H 1523.13 -3.03469 -5.0317 0
M  V30 16173 H 1524.65 -2.33107 -5.64352 0
M  V30 16174 H 1526.07 -4.00207 -4.10496 0
M  V30 16175 H 1524.46 -4.69965 -3.73166 0
M  V30 16176 H 1525.53 -4.21025 -2.40554 0
M  V30 16177 N 1526.88 0.906753 -1.28902 0
M  V30 16178 C 1527.81 2.01497 -1.09233 0
M  V30 16179 C 1528.82 1.62746 -0.0419378 0
M  V30 16180 O 1530.01 1.76198 -0.285728 0
M  V30 16181 C 1527.11 3.32816 -0.639255 0
M  V30 16182 C 1526.28 4.00137 -1.76661 0
M  V30 16183 C 1525.34 5.09742 -1.30573 0
M  V30 16184 O 1524.37 5.32559 -2.00921 0
M  V30 16185 N 1525.57 5.80243 -0.17275 0
M  V30 16186 H 1528.34 2.18927 -2.04673 0
M  V30 16187 H 1525.9 1.0785 -1.20748 0
M  V30 16188 H 1527.89 4.03477 -0.31439 0
M  V30 16189 H 1526.46 3.11807 0.222498 0
M  V30 16190 H 1525.68 3.22933 -2.26071 0
M  V30 16191 H 1526.97 4.41859 -2.52266 0
M  V30 16192 H 1526.37 5.64184 0.413931 0
M  V30 16193 H 1524.92 6.51734 0.0927926 0
M  V30 16194 N 1528.36 1.11264 1.11616 0
M  V30 16195 C 1529.29 0.727118 2.17361 0
M  V30 16196 C 1530.3 -0.240356 1.61016 0
M  V30 16197 O 1531.49 -0.0235265 1.78484 0
M  V30 16198 C 1528.59 0.05361 3.38858 0
M  V30 16199 C 1527.76 1.04744 4.24673 0
M  V30 16200 C 1526.82 0.403827 5.24648 0
M  V30 16201 O 1525.85 1.0572 5.59296 0
M  V30 16202 N 1527.05 -0.834071 5.74477 0
M  V30 16203 H 1529.81 1.63696 2.51045 0
M  V30 16204 H 1527.38 1.00261 1.2712 0
M  V30 16205 H 1529.37 -0.388643 4.0283 0
M  V30 16206 H 1527.94 -0.758778 3.03251 0
M  V30 16207 H 1527.16 1.6677 3.57185 0
M  V30 16208 H 1528.45 1.71988 4.7885 0
M  V30 16209 H 1527.84 -1.3841 5.48506 0
M  V30 16210 H 1526.4 -1.21933 6.40293 0
M  V30 16211 N 1529.83 -1.29188 0.902679 0
M  V30 16212 C 1530.76 -2.3006 0.399357 0
M  V30 16213 C 1531.74 -1.61724 -0.527199 0
M  V30 16214 O 1532.93 -1.89213 -0.437293 0
M  V30 16215 C 1530.06 -3.45309 -0.371331 0
M  V30 16216 C 1529.01 -4.25466 0.465068 0
M  V30 16217 C 1528.34 -5.32941 -0.433295 0
M  V30 16218 C 1529.64 -4.93287 1.71655 0
M  V30 16219 H 1531.33 -2.72409 1.24233 0
M  V30 16220 H 1528.88 -1.30958 0.598822 0
M  V30 16221 H 1530.83 -4.14955 -0.734207 0
M  V30 16222 H 1529.56 -3.01811 -1.24811 0
M  V30 16223 H 1528.22 -3.57532 0.810315 0
M  V30 16224 H 1527.86 -4.85688 -1.3083 0
M  V30 16225 H 1527.56 -5.87472 0.122657 0
M  V30 16226 H 1529.09 -6.05438 -0.792298 0
M  V30 16227 H 1530.5 -5.55353 1.42323 0
M  V30 16228 H 1528.9 -5.57763 2.21405 0
M  V30 16229 H 1529.97 -4.18406 2.45081 0
M  V30 16230 N 1531.31 -0.665475 -1.42861 0
M  V30 16231 C 1532.22 0.018927 -2.34592 0
M  V30 16232 C 1533.24 0.798967 -1.54572 0
M  V30 16233 O 1534.41 0.743419 -1.87177 0
M  V30 16234 C 1531.48 0.965013 -3.32999 0
M  V30 16235 C 1530.54 0.180544 -4.2892 0
M  V30 16236 C 1529.77 1.08157 -5.22626 0
M  V30 16237 O 1530 2.32101 -5.21043 0
M  V30 16238 O 1528.93 0.54738 -5.99406 0
M  V30 16239 H 1532.76 -0.736444 -2.94636 0
M  V30 16240 H 1530.34 -0.425684 -1.43207 0
M  V30 16241 H 1532.22 1.50839 -3.93479 0
M  V30 16242 H 1530.9 1.7004 -2.75442 0
M  V30 16243 H 1529.8 -0.40671 -3.71883 0
M  V30 16244 H 1531.14 -0.515529 -4.89493 0
M  V30 16245 N 1532.79 1.52222 -0.408187 0
M  V30 16246 C 1533.7 2.30725 0.424645 0
M  V30 16247 C 1534.72 1.38412 1.05442 0
M  V30 16248 O 1535.89 1.71486 1.05614 0
M  V30 16249 C 1532.96 3.11273 1.52677 0
M  V30 16250 C 1532.02 4.19323 0.920143 0
M  V30 16251 C 1531.25 4.96021 1.96974 0
M  V30 16252 O 1531.47 4.73011 3.18774 0
M  V30 16253 O 1530.41 5.80887 1.5765 0
M  V30 16254 H 1534.23 3.02935 -0.215411 0
M  V30 16255 H 1531.82 1.48413 -0.171414 0
M  V30 16256 H 1533.7 3.61436 2.16661 0
M  V30 16257 H 1532.38 2.41857 2.15144 0
M  V30 16258 H 1531.28 3.7331 0.243037 0
M  V30 16259 H 1532.62 4.91028 0.339405 0
M  V30 16260 N 1534.27 0.138579 1.5699 0
M  V30 16261 C 1535.21 -0.804305 2.16332 0
M  V30 16262 C 1536.18 -1.25002 1.09379 0
M  V30 16263 O 1537.37 -1.32405 1.37381 0
M  V30 16264 C 1534.51 -2.04137 2.78248 0
M  V30 16265 C 1533.62 -1.64223 3.99568 0
M  V30 16266 C 1532.76 -2.83046 4.49509 0
M  V30 16267 C 1531.8 -2.39465 5.63314 0
M  V30 16268 N 1530.93 -3.51267 6.07911 0
M  V30 16269 H 1535.77 -0.29144 2.96571 0
M  V30 16270 H 1533.31 -0.132146 1.46505 0
M  V30 16271 H 1535.27 -2.76646 3.12286 0
M  V30 16272 H 1533.9 -2.52849 2.00667 0
M  V30 16273 H 1532.95 -0.815123 3.71564 0
M  V30 16274 H 1534.26 -1.2821 4.82041 0
M  V30 16275 H 1533.42 -3.63755 4.85559 0
M  V30 16276 H 1532.16 -3.22298 3.66026 0
M  V30 16277 H 1531.16 -1.57193 5.2685 0
M  V30 16278 H 1532.39 -2.01307 6.48577 0
M  V30 16279 H 1530.33 -3.90156 5.27365 0
M  V30 16280 H 1530.25 -3.19241 6.85289 0
M  V30 16281 H 1531.52 -4.32358 6.48604 0
M  V30 16282 N 1535.75 -1.57019 -0.13521 0
M  V30 16283 C 1536.99 -1.83626 -0.844147 0
M  V30 16284 C 1537.31 -0.721298 -1.81169 0
M  V30 16285 O 1536.58 0.256095 -1.94219 0
M  V30 16286 H 1535.16 -0.677464 -0.314725 0
M  V30 16287 H 1537.83 -1.9449 -0.126399 0
M  V30 16288 H 1536.92 -2.78976 -1.39925 0
M  V30 16289 N 1537.22 0.404919 -1.52309 0
M  V30 16290 C 1538.64 0.743846 -1.41206 0
M  V30 16291 C 1538.84 1.94678 -0.519874 0
M  V30 16292 O 1537.9 2.52497 0.0127417 0
M  V30 16293 C 1539.21 0.99384 -2.83802 0
M  V30 16294 C 1540.76 1.0963 -2.93173 0
M  V30 16295 C 1541.23 1.37902 -4.36746 0
M  V30 16296 N 1542.72 1.44758 -4.39999 0
M  V30 16297 C 1543.46 1.68269 -5.48154 0
M  V30 16298 N 1542.95 1.89356 -6.6642 0
M  V30 16299 N 1544.75 1.70318 -5.35675 0
M  V30 16300 H 1536.9 -0.386855 -2.08847 0
M  V30 16301 H 1539.16 -0.110811 -0.941501 0
M  V30 16302 H 1538.87 0.182249 -3.51227 0
M  V30 16303 H 1538.74 1.91287 -3.25099 0
M  V30 16304 H 1541.13 1.89847 -2.25925 0
M  V30 16305 H 1541.21 0.155539 -2.55327 0
M  V30 16306 H 1540.85 0.582004 -5.04554 0
M  V30 16307 H 1540.78 2.33237 -4.72132 0
M  V30 16308 H 1543.27 1.30235 -3.5475 0
M  V30 16309 H 1543.59 2.06758 -7.44628 0
M  V30 16310 H 1541.93 1.86612 -6.69478 0
M  V30 16311 H 1545.12 1.53385 -4.42256 0
M  V30 16312 H 1545.3 1.88302 -6.20037 0
M  V30 16313 N 1538.7 1.43003 0.662408 0
M  V30 16314 C 1539.93 1.47341 1.44825 0
M  V30 16315 C 1540.34 0.0870204 1.89 0
M  V30 16316 O 1539.68 -0.911158 1.59511 0
M  V30 16317 C 1539.75 2.34882 2.7216 0
M  V30 16318 C 1539.41 3.82567 2.49983 0
M  V30 16319 C 1540.41 4.73909 2.13791 0
M  V30 16320 C 1538.09 4.26962 2.64592 0
M  V30 16321 C 1540.09 6.07639 1.92493 0
M  V30 16322 C 1537.77 5.60748 2.4291 0
M  V30 16323 C 1538.77 6.50903 2.06915 0
M  V30 16324 O 1538.46 7.82217 1.85451 0
M  V30 16325 H 1538.19 0.502932 0.451703 0
M  V30 16326 H 1540.74 1.88312 0.820224 0
M  V30 16327 H 1538.97 1.88782 3.37488 0
M  V30 16328 H 1540.66 2.3053 3.34082 0
M  V30 16329 H 1541.43 4.40892 2.02088 0
M  V30 16330 H 1537.31 3.5707 2.91586 0
M  V30 16331 H 1540.85 6.77971 1.64321 0
M  V30 16332 H 1536.75 5.93335 2.54212 0
M  V30 16333 H 1537.52 7.93702 1.9995 0
M  V30 16334 N 1540.18 -0.899904 1.29381 0
M  V30 16335 C 1541.14 -1.98554 1.14494 0
M  V30 16336 C 1542.14 -1.60599 0.0804732 0
M  V30 16337 O 1543.33 -1.71096 0.327395 0
M  V30 16338 C 1540.47 -3.32529 0.750818 0
M  V30 16339 H 1541.66 -2.13189 2.10928 0
M  V30 16340 H 1539.21 -1.08438 1.12565 0
M  V30 16341 H 1539.95 -3.23595 -0.213668 0
M  V30 16342 H 1539.73 -3.61443 1.51992 0
M  V30 16343 H 1541.22 -4.12195 0.669709 0
M  V30 16344 N 1541.66 -1.11854 -1.11024 0
M  V30 16345 C 1542.61 -0.780825 -2.17191 0
M  V30 16346 C 1543.58 0.249657 -1.64213 0
M  V30 16347 O 1544.76 0.125603 -1.90386 0
M  V30 16348 C 1541.9 -0.23491 -3.443 0
M  V30 16349 C 1541.01 -1.32247 -4.1126 0
M  V30 16350 C 1540.15 -0.736638 -5.26068 0
M  V30 16351 C 1539.19 -1.80375 -5.8492 0
M  V30 16352 N 1538.32 -1.23709 -6.91115 0
M  V30 16353 H 1543.16 -1.69031 -2.45423 0
M  V30 16354 H 1540.7 -0.844041 -1.20476 0
M  V30 16355 H 1542.66 0.0996064 -4.17081 0
M  V30 16356 H 1541.29 0.637752 -3.16437 0
M  V30 16357 H 1540.34 -1.77387 -3.36509 0
M  V30 16358 H 1541.65 -2.12965 -4.51051 0
M  V30 16359 H 1540.81 -0.352432 -6.05675 0
M  V30 16360 H 1539.55 0.101811 -4.87594 0
M  V30 16361 H 1538.55 -2.19721 -5.03987 0
M  V30 16362 H 1539.78 -2.64531 -6.2546 0
M  V30 16363 H 1537.72 -0.420357 -6.54652 0
M  V30 16364 H 1537.64 -1.98093 -7.29586 0
M  V30 16365 H 1538.91 -0.879912 -7.74518 0
M  V30 16366 N 1543.14 1.28707 -0.909517 0
M  V30 16367 C 1544.41 1.90124 -0.459585 0
M  V30 16368 C 1544.79 1.82477 1.06139 0
M  V30 16369 O 1544.14 1.25792 1.90758 0
M  V30 16370 C 1544.35 3.34806 -0.985188 0
M  V30 16371 C 1545.7 4.11799 -1.03475 0
M  V30 16372 O 1546.72 3.43749 -0.933536 0
M  V30 16373 O 1545.58 5.33426 -1.18825 0
M  V30 16374 H 1542.68 0.814199 -0.144948 0
M  V30 16375 H 1545.22 1.37104 -1.00002 0
M  V30 16376 H 1543.99 3.34575 -2.02917 0
M  V30 16377 H 1543.62 3.95318 -0.425329 0
M  V30 16378 N 1544.61 0.673042 1.42506 0
M  V30 16379 C 1545.86 0.194864 2.01862 0
M  V30 16380 C 1546.19 -1.19491 1.53087 0
M  V30 16381 O 1545.47 -1.80187 0.732322 0
M  V30 16382 C 1545.75 0.227559 3.5938 0
M  V30 16383 C 1545.6 1.65266 4.18338 0
M  V30 16384 C 1546.92 -0.425197 4.38041 0
M  V30 16385 H 1544.04 0.0722831 0.733447 0
M  V30 16386 H 1546.68 0.857493 1.6955 0
M  V30 16387 H 1544.83 -0.336658 3.87039 0
M  V30 16388 H 1546.51 2.26899 4.0164 0
M  V30 16389 H 1544.75 2.19388 3.74234 0
M  V30 16390 H 1545.42 1.62724 5.2747 0
M  V30 16391 H 1547.9 0.0550709 4.16064 0
M  V30 16392 H 1546.77 -0.371675 5.4764 0
M  V30 16393 H 1547.03 -1.50251 4.15785 0
M  V30 16394 N 1546.09 -1.52004 0.416254 0
M  V30 16395 C 1547.34 -2.02848 -0.149787 0
M  V30 16396 C 1547.69 -1.29603 -1.422 0
M  V30 16397 O 1546.99 -0.395826 -1.87467 0
M  V30 16398 C 1547.18 -3.54624 -0.444553 0
M  V30 16399 C 1547.01 -4.42571 0.797537 0
M  V30 16400 C 1545.78 -4.87623 1.32485 0
M  V30 16401 C 1547.98 -4.86166 1.6777 0
M  V30 16402 N 1545.96 -5.59718 2.52168 0
M  V30 16403 C 1547.33 -5.57115 2.72072 0
M  V30 16404 C 1549.39 -4.68174 1.69462 0
M  V30 16405 C 1548.09 -6.1198 3.77985 0
M  V30 16406 C 1550.11 -5.23942 2.74298 0
M  V30 16407 C 1549.48 -5.94818 3.7732 0
M  V30 16408 H 1545.58 -0.781832 -0.0161927 0
M  V30 16409 H 1548.16 -1.86102 0.5722 0
M  V30 16410 H 1546.33 -3.71429 -1.13558 0
M  V30 16411 H 1548.06 -3.92148 -1.0001 0
M  V30 16412 H 1544.82 -4.65318 0.881837 0
M  V30 16413 H 1545.24 -6.00404 3.128 0
M  V30 16414 H 1549.88 -4.12858 0.911497 0
M  V30 16415 H 1547.6 -6.66364 4.57149 0
M  V30 16416 H 1551.19 -5.11885 2.76523 0
M  V30 16417 H 1550.07 -6.37198 4.57109 0
M  V30 16418 N 1547.57 -0.146903 -1.56914 0
M  V30 16419 C 1548.53 0.778709 -2.15566 0
M  V30 16420 C 1549.53 1.1753 -1.09742 0
M  V30 16421 O 1550.72 1.09624 -1.35382 0
M  V30 16422 C 1547.86 2.0567 -2.71869 0
M  V30 16423 H 1549.05 0.268506 -2.98696 0
M  V30 16424 H 1546.6 0.10254 -1.55963 0
M  V30 16425 H 1547.34 2.61057 -1.92405 0
M  V30 16426 H 1547.12 1.78154 -3.4929 0
M  V30 16427 H 1548.61 2.71779 -3.17059 0
M  V30 16428 N 1549.05 1.57088 0.126881 0
M  V30 16429 C 1550.3 1.84071 0.834397 0
M  V30 16430 C 1550.62 0.730896 1.80784 0
M  V30 16431 O 1549.89 -0.245791 1.94352 0
M  V30 16432 H 1548.47 0.679123 0.311128 0
M  V30 16433 H 1551.13 1.94554 0.116083 0
M  V30 16434 H 1550.23 2.79714 1.38443 0
M  V30 16435 O 1550.57 -0.271318 1.59205 0
M  V30 16436 H 1551.26 -0.916383 1.70652 0
M  V30 END ATOM
M  V30 BEGIN BOND
M  V30 END BOND
M  V30 END CTAB
M  END
$$$$
