drugbank_target|P14941 NADP-dependent isopropanol dehydrogenase (DB02606; DB03461)
 OpenBabel12092120013D

  0  0  0     0  0            999 V3000
M  V30 BEGIN CTAB
M  V30 COUNTS 5333 5391 0 0 0
M  V30 BEGIN ATOM
M  V30 1 H -0.908 1.98254 -0.117106 0
M  V30 2 N 0 1.576 0 0
M  V30 3 C 0.933 2.03868 1.02534 0
M  V30 4 C 1.911 0.928543 1.3348 0
M  V30 5 O 3.095 1.19667 1.45644 0
M  V30 6 C 0.222 2.43627 2.35294 0
M  V30 7 C -0.732 3.65373 2.2001 0
M  V30 8 S 0.101 5.13292 1.52614 0
M  V30 9 C 1.257 5.56322 2.86805 0
M  V30 10 H 1.49 2.90518 0.631377 0
M  V30 11 H -0.977 1.52953 0.210867 0
M  V30 12 H 0.981 2.67203 3.11629 0
M  V30 13 H -0.358 1.57376 2.7183 0
M  V30 14 H -1.165 3.90944 3.18086 0
M  V30 15 H -1.563 3.418 1.51819 0
M  V30 16 H 0.729 5.58782 3.83104 0
M  V30 17 H 1.672 6.56266 2.65933 0
M  V30 18 H 2.08 4.83886 2.90714 0
M  V30 19 N 1.4781 -0.272755 1.55222 0
M  V30 20 C 2.4251 -1.33716 1.88119 0
M  V30 21 C 3.3951 -1.49066 0.73271 0
M  V30 22 O 4.5801 -1.63469 0.984002 0
M  V30 23 C 1.7201 -2.69238 2.15882 0
M  V30 24 C 0.8331 -2.62108 3.43399 0
M  V30 25 C -0.0319 -3.89811 3.60861 0
M  V30 26 C -0.9929 -3.77193 4.8207 0
M  V30 27 N -1.8559 -4.9673 4.96189 0
M  V30 28 H 2.9841 -1.04962 2.78903 0
M  V30 29 H 0.5211 -0.507088 1.38083 0
M  V30 30 H 2.4791 -3.48089 2.29978 0
M  V30 31 H 1.1091 -2.96194 1.28331 0
M  V30 32 H 0.1611 -1.74967 3.37773 0
M  V30 33 H 1.4731 -2.48685 4.32386 0
M  V30 34 H 0.6271 -4.77103 3.74777 0
M  V30 35 H -0.6339 -4.06102 2.7006 0
M  V30 36 H -1.6289 -2.88284 4.68159 0
M  V30 37 H -0.4039 -3.62421 5.74307 0
M  V30 38 H -2.4579 -5.13431 4.08319 0
M  V30 39 H -2.5409 -4.85839 5.79221 0
M  V30 40 H -1.2729 -5.85594 5.1449 0
M  V30 41 N 2.9562 -1.48159 -0.537278 0
M  V30 42 C 4.2042 -1.55497 -1.29094 0
M  V30 43 C 4.5252 -0.227454 -1.93669 0
M  V30 44 O 3.7952 0.750386 -1.80959 0
M  V30 45 H 2.3752 -0.572832 -0.47945 0
M  V30 46 H 5.0372 -1.84579 -0.625818 0
M  V30 47 H 4.1332 -2.33216 -2.07405 0
M  V30 48 N 4.4343 0.785586 -1.36625 0
M  V30 49 C 5.6813 1.54362 -1.31067 0
M  V30 50 C 6.0093 1.94195 0.10893 0
M  V30 51 O 5.2643 1.63262 1.07908 0
M  V30 52 C 5.5633 2.83007 -2.1827 0
M  V30 53 C 5.2293 2.62294 -3.6676 0
M  V30 54 C 3.8913 2.56353 -4.0723 0
M  V30 55 C 6.2433 2.43371 -4.6089 0
M  V30 56 C 3.5713 2.29461 -5.39967 0
M  V30 57 C 5.9233 2.18005 -5.93849 0
M  V30 58 C 4.5873 2.105 -6.3344 0
M  V30 59 H 3.8573 0.564851 -0.479609 0
M  V30 60 H 6.5043 0.906028 -1.68711 0
M  V30 61 H 4.8093 3.51253 -1.73576 0
M  V30 62 H 6.5063 3.40817 -2.11292 0
M  V30 63 H 3.0963 2.67774 -3.34656 0
M  V30 64 H 7.2803 2.46959 -4.30494 0
M  V30 65 H 2.5363 2.22135 -5.69619 0
M  V30 66 H 6.7103 2.02359 -6.66351 0
M  V30 67 H 4.3373 1.89425 -7.36222 0
M  V30 68 N 5.9124 1.20967 1.01018 0
M  V30 69 C 6.8754 0.965918 2.07853 0
M  V30 70 C 7.8754 -0.0610545 1.60684 0
M  V30 71 O 9.0654 0.175681 1.73312 0
M  V30 72 C 6.1974 0.455513 3.37843 0
M  V30 73 H 7.3904 1.91365 2.3091 0
M  V30 74 H 4.9434 1.02594 1.17916 0
M  V30 75 H 5.6784 -0.497381 3.20463 0
M  V30 76 H 5.4634 1.19622 3.73407 0
M  V30 77 H 6.9534 0.304667 4.16487 0
M  V30 78 N 7.3905 -1.2043 1.01659 0
M  V30 79 C 8.3235 -2.21924 0.531521 0
M  V30 80 C 9.3015 -1.57054 -0.421032 0
M  V30 81 O 10.4855 -1.85389 -0.341035 0
M  V30 82 C 7.6125 -3.37942 -0.226496 0
M  V30 83 C 6.6585 -4.21115 0.67561 0
M  V30 84 S 7.4915 -4.90674 2.14475 0
M  V30 85 C 8.6475 -6.10113 1.3969 0
M  V30 86 H 8.8805 -2.62725 1.3915 0
M  V30 87 H 6.4135 -1.30481 0.825479 0
M  V30 88 H 8.3715 -4.05196 -0.657738 0
M  V30 89 H 7.0325 -2.956 -1.06205 0
M  V30 90 H 6.2255 -5.03918 0.091108 0
M  V30 91 H 5.8275 -3.59115 1.04463 0
M  V30 92 H 8.1195 -6.7411 0.676897 0
M  V30 93 H 9.0625 -6.73022 2.20107 0
M  V30 94 H 9.4705 -5.57283 0.899786 0
M  V30 95 N 8.8686 -0.792821 -1.36206 0
M  V30 96 C 9.7986 -0.207853 -2.32573 0
M  V30 97 C 10.7796 0.659055 -1.56813 0
M  V30 98 O 11.9646 0.592176 -1.84951 0
M  V30 99 C 9.0946 0.655449 -3.41059 0
M  V30 100 C 8.0486 -0.111842 -4.27854 0
M  V30 101 C 7.3746 0.872274 -5.27537 0
M  V30 102 C 8.6746 -1.30299 -5.05786 0
M  V30 103 H 10.3686 -1.01294 -2.81744 0
M  V30 104 H 7.9146 -0.48854 -1.3546 0
M  V30 105 H 9.8676 1.07464 -4.07467 0
M  V30 106 H 8.5916 1.49328 -2.90463 0
M  V30 107 H 7.2506 -0.512053 -3.63006 0
M  V30 108 H 6.8986 1.70523 -4.73214 0
M  V30 109 H 6.5986 0.363291 -5.86476 0
M  V30 110 H 8.1226 1.28996 -5.96818 0
M  V30 111 H 9.5366 -0.959379 -5.65216 0
M  V30 112 H 7.9336 -1.7455 -5.74154 0
M  V30 113 H 9.0036 -2.09663 -4.37229 0
M  V30 114 N 10.3467 1.47872 -0.545128 0
M  V30 115 C 11.5717 2.07391 -0.0190611 0
M  V30 116 C 11.9967 1.39688 1.25971 0
M  V30 117 O 11.3547 0.467816 1.7516 0
M  V30 118 C 11.4027 3.60188 0.172335 0
M  V30 119 O 10.5067 3.9339 1.23766 0
M  V30 120 H 9.8477 0.662411 -0.0459059 0
M  V30 121 H 12.3777 1.90066 -0.757365 0
M  V30 122 H 12.3877 4.06129 0.390305 0
M  V30 123 H 11.0627 4.08865 -0.761725 0
M  V30 124 H 9.6397 3.5921 1.00114 0
M  V30 125 N 11.8248 0.280983 1.55075 0
M  V30 126 C 13.0738 -0.334784 1.98902 0
M  V30 127 C 13.3868 -1.56534 1.17288 0
M  V30 128 O 14.5928 -2.25443 1.51287 0
M  V30 129 C 13.0488 -0.646994 3.54037 0
M  V30 130 C 12.6568 0.564085 4.44435 0
M  V30 131 C 14.4008 -1.22506 4.06439 0
M  V30 132 C 12.3078 0.226137 5.90967 0
M  V30 133 H 11.2378 -0.128866 0.742906 0
M  V30 134 H 13.8888 0.386556 1.79382 0
M  V30 135 H 12.2708 -1.42739 3.6938 0
M  V30 136 H 13.4448 1.34082 4.40861 0
M  V30 137 H 11.7598 1.0594 4.02698 0
M  V30 138 H 14.3568 -1.49182 5.13468 0
M  V30 139 H 14.6998 -2.16085 3.55827 0
M  V30 140 H 15.2328 -0.50682 3.94558 0
M  V30 141 H 11.9718 1.12996 6.45687 0
M  V30 142 H 11.4918 -0.513717 5.97596 0
M  V30 143 H 13.1708 -0.179539 6.46751 0
M  V30 144 N 13.3029 -1.57598 0.00835791 0
M  V30 145 C 14.5509 -1.90551 -0.6734 0
M  V30 146 C 14.8719 -0.883301 -1.73847 0
M  V30 147 O 14.1419 0.0781442 -1.95744 0
M  V30 148 H 12.7219 -0.703312 -0.251717 0
M  V30 149 H 15.3839 -1.94833 0.0512592 0
M  V30 150 H 14.4799 -2.9056 -1.13935 0
M  V30 151 N 14.781 0.264519 -1.55364 0
M  V30 152 C 15.728 1.32717 -1.88825 0
M  V30 153 C 16.698 1.48675 -0.740605 0
M  V30 154 O 17.883 1.62945 -0.992657 0
M  V30 155 C 15.023 2.68089 -2.17307 0
M  V30 156 C 14.136 2.60284 -3.44785 0
M  V30 157 C 13.271 3.87892 -3.62924 0
M  V30 158 C 12.31 3.74631 -4.84064 0
M  V30 159 N 11.447 4.94092 -4.98816 0
M  V30 160 H 16.287 1.03481 -2.79456 0
M  V30 161 H 13.824 0.499757 -1.3835 0
M  V30 162 H 15.782 3.46864 -2.31821 0
M  V30 163 H 14.412 2.95509 -1.299 0
M  V30 164 H 13.464 1.73173 -3.38697 0
M  V30 165 H 14.776 2.46388 -4.33698 0
M  V30 166 H 13.93 4.75109 -3.77302 0
M  V30 167 H 12.669 4.04664 -2.7221 0
M  V30 168 H 11.674 2.85797 -4.69681 0
M  V30 169 H 12.899 3.5937 -5.76221 0
M  V30 170 H 10.845 5.11259 -4.11036 0
M  V30 171 H 10.762 4.8276 -5.81789 0
M  V30 172 H 12.03 5.82857 -5.17588 0
M  V30 173 N 16.2591 1.48442 0.529413 0
M  V30 174 C 17.5051 1.5672 1.28711 0
M  V30 175 C 17.8381 0.2406 1.92704 0
M  V30 176 O 17.1131 -0.753454 1.79313 0
M  V30 177 C 17.3961 2.70587 2.37603 0
M  V30 178 C 17.2491 4.12953 1.78297 0
M  V30 179 C 18.5681 2.80212 3.39366 0
M  V30 180 H 15.6871 0.570474 0.466613 0
M  V30 181 H 18.3291 1.80617 0.589706 0
M  V30 182 H 16.4791 2.50342 2.97088 0
M  V30 183 H 18.1511 4.44639 1.22858 0
M  V30 184 H 16.3941 4.19927 1.0883 0
M  V30 185 H 17.0651 4.88448 2.57144 0
M  V30 186 H 19.5411 2.98553 2.89836 0
M  V30 187 H 18.4171 3.61611 4.12951 0
M  V30 188 H 18.6781 1.88393 3.99951 0
M  V30 189 N 17.7372 -0.778329 1.37039 0
M  V30 190 C 18.9852 -1.53361 1.31623 0
M  V30 191 C 19.3062 -1.94739 -0.100831 0
M  V30 192 O 18.5762 -1.65797 -1.04347 0
M  V30 193 H 17.1562 -0.568794 0.484234 0
M  V30 194 H 19.8182 -0.926742 1.71457 0
M  V30 195 H 18.9142 -2.43606 1.95096 0
M  V30 196 N 19.2153 -1.21501 -1.00376 0
M  V30 197 C 20.4613 -1.04457 -1.74529 0
M  V30 198 C 20.8163 0.417386 -1.87818 0
M  V30 199 O 20.1093 1.30556 -1.40234 0
M  V30 200 C 20.3033 -1.67673 -3.15627 0
M  V30 201 C 20.1323 -3.19865 -3.16096 0
M  V30 202 C 18.9023 -3.88915 -3.22604 0
M  V30 203 C 21.1003 -4.16936 -3.01112 0
M  V30 204 N 19.0823 -5.28284 -3.12712 0
M  V30 205 C 20.4533 -5.43066 -2.99131 0
M  V30 206 C 22.5083 -4.07968 -2.85423 0
M  V30 207 C 21.2113 -6.6126 -2.83068 0
M  V30 208 C 23.2373 -5.258 -2.70718 0
M  V30 209 C 22.5993 -6.50842 -2.69414 0
M  V30 210 H 18.6983 -0.436584 -0.648782 0
M  V30 211 H 21.2823 -1.53875 -1.19293 0
M  V30 212 H 19.4533 -1.20822 -3.6913 0
M  V30 213 H 21.1853 -1.43824 -3.78281 0
M  V30 214 H 17.9403 -3.39847 -3.2985 0
M  V30 215 H 18.3643 -6.01284 -3.11105 0
M  V30 216 H 23.0063 -3.1209 -2.85236 0
M  V30 217 H 20.7243 -7.57298 -2.82002 0
M  V30 218 H 24.3103 -5.20683 -2.59577 0
M  V30 219 H 23.1903 -7.40485 -2.5817 0
M  V30 220 N 20.6934 1.19889 -1.02296 0
M  V30 221 C 21.9424 1.88743 -0.711257 0
M  V30 222 C 22.2554 1.80112 0.762817 0
M  V30 223 O 23.4614 2.44161 1.18733 0
M  V30 224 C 21.9174 3.38525 -1.22185 0
M  V30 225 C 21.5254 3.55727 -2.72328 0
M  V30 226 C 23.2694 4.12893 -0.985864 0
M  V30 227 C 21.1764 4.99369 -3.16835 0
M  V30 228 H 20.1064 0.706885 -0.262353 0
M  V30 229 H 22.7574 1.35586 -1.23648 0
M  V30 230 H 21.1394 3.91044 -0.624571 0
M  V30 231 H 22.3134 3.13564 -3.3766 0
M  V30 232 H 20.6284 2.94739 -2.9414 0
M  V30 233 H 23.2254 5.18813 -1.29374 0
M  V30 234 H 23.5684 4.16228 0.0775055 0
M  V30 235 H 24.1014 3.66494 -1.54684 0
M  V30 236 H 20.8404 5.01193 -4.22476 0
M  V30 237 H 20.3604 5.42317 -2.56228 0
M  V30 238 H 22.0394 5.67988 -3.09837 0
M  V30 239 N 22.1715 0.800033 1.35784 0
M  V30 240 C 23.0815 0.207204 2.33683 0
M  V30 241 C 24.0975 -0.64631 1.61551 0
M  V30 242 O 25.2735 -0.559604 1.93469 0
M  V30 243 C 22.3385 -0.639659 3.40748 0
M  V30 244 C 21.3995 0.233585 4.28664 0
M  V30 245 C 20.6325 -0.572954 5.30616 0
M  V30 246 O 20.8555 -1.80816 5.40982 0
M  V30 247 O 19.7895 0.0327285 6.01891 0
M  V30 248 H 23.6155 1.01692 2.86169 0
M  V30 249 H 21.2005 0.561691 1.38439 0
M  V30 250 H 23.0825 -1.12223 4.06182 0
M  V30 251 H 21.7575 -1.42708 2.90544 0
M  V30 252 H 20.6645 0.763147 3.66233 0
M  V30 253 H 21.9975 0.984784 4.82248 0
M  V30 254 N 23.6496 -1.47581 0.552962 0
M  V30 255 C 24.5966 -2.29957 -0.197108 0
M  V30 256 C 25.5666 -1.38799 -0.912359 0
M  V30 257 O 26.7516 -1.67761 -0.908888 0
M  V30 258 C 23.8916 -3.22672 -1.22379 0
M  V30 259 C 23.0046 -4.28919 -0.515038 0
M  V30 260 C 22.1396 -5.0879 -1.52664 0
M  V30 261 C 21.1786 -6.06815 -0.802631 0
M  V30 262 N 20.3156 -6.7966 -1.76086 0
M  V30 263 H 25.1556 -2.93578 0.511486 0
M  V30 264 H 22.6926 -1.4471 0.264067 0
M  V30 265 H 24.6506 -3.74845 -1.83159 0
M  V30 266 H 23.2806 -2.60925 -1.90047 0
M  V30 267 H 22.3326 -3.79835 0.207192 0
M  V30 268 H 23.6446 -4.98773 0.0523425 0
M  V30 269 H 22.7986 -5.65091 -2.20809 0
M  V30 270 H 21.5376 -4.38828 -2.12794 0
M  V30 271 H 20.5426 -5.49695 -0.107238 0
M  V30 272 H 21.7676 -6.78784 -0.207135 0
M  V30 273 H 19.7136 -6.12432 -2.35081 0
M  V30 274 H 19.6306 -7.45669 -1.24552 0
M  V30 275 H 20.8986 -7.40538 -2.43359 0
M  V30 276 N 25.1277 -0.289203 -1.54924 0
M  V30 277 C 26.0377 0.601863 -2.26748 0
M  V30 278 C 27.0537 1.15834 -1.2984 0
M  V30 279 O 28.2297 1.18564 -1.62802 0
M  V30 280 C 25.2947 1.76299 -2.98529 0
M  V30 281 C 24.3557 1.24178 -4.10948 0
M  V30 282 C 23.5887 2.34757 -4.79296 0
M  V30 283 O 23.8117 3.54411 -4.46933 0
M  V30 284 O 22.7457 2.02115 -5.66951 0
M  V30 285 H 26.5717 0.0195879 -3.03694 0
M  V30 286 H 24.1567 -0.0560868 -1.49295 0
M  V30 287 H 26.0387 2.43973 -3.43592 0
M  V30 288 H 24.7137 2.33209 -2.24488 0
M  V30 289 H 23.6207 0.531104 -3.70311 0
M  V30 290 H 24.9537 0.718252 -4.86931 0
M  V30 291 N 26.6058 1.57591 -0.0167156 0
M  V30 292 C 27.5528 2.09462 0.969251 0
M  V30 293 C 28.5228 0.99381 1.33089 0
M  V30 294 O 29.7078 1.26726 1.42636 0
M  V30 295 C 26.8478 2.61622 2.25051 0
M  V30 296 C 25.9608 3.85666 1.94642 0
M  V30 297 C 25.0958 4.26266 3.16972 0
M  V30 298 C 24.1348 5.43101 2.82326 0
M  V30 299 N 23.2718 5.78915 3.97243 0
M  V30 300 H 28.1118 2.93428 0.519997 0
M  V30 301 H 25.6488 1.45044 0.245087 0
M  V30 302 H 27.6068 2.89949 2.99976 0
M  V30 303 H 26.2368 1.80505 2.67615 0
M  V30 304 H 25.2888 3.64145 1.10013 0
M  V30 305 H 26.6008 4.70678 1.65117 0
M  V30 306 H 25.7548 4.55963 4.00228 0
M  V30 307 H 24.4938 3.39996 3.49648 0
M  V30 308 H 23.4988 5.1311 1.97479 0
M  V30 309 H 24.7238 6.3106 2.50879 0
M  V30 310 H 22.6698 4.95602 4.29785 0
M  V30 311 H 22.5868 6.58539 3.71299 0
M  V30 312 H 23.8548 6.13212 4.81239 0
M  V30 313 N 28.0839 -0.256276 1.55502 0
M  V30 314 C 29.4949 -0.826068 1.67431 0
M  V30 315 C 29.8459 -1.86396 0.612446 0
M  V30 316 O 28.9709 -2.15031 -0.243025 0
M  V30 317 C 29.5659 -1.50512 3.03532 0
M  V30 318 C 28.1249 -2.02273 3.17431 0
M  V30 319 C 27.2719 -0.870548 2.63281 0
M  V30 320 H 30.2229 -0.0322728 1.58667 0
M  V30 321 H 30.2439 -2.37279 2.97454 0
M  V30 322 H 29.7559 -0.749484 3.80794 0
M  V30 323 H 27.8569 -2.80746 2.44974 0
M  V30 324 H 27.9699 -2.22655 4.24219 0
M  V30 325 H 26.3339 -1.26851 2.20864 0
M  V30 326 H 27.1169 -0.128149 3.43061 0
M  V30 327 N 29.562 -1.4872 -0.521534 0
M  V30 328 C 30.525 -1.63379 -1.60748 0
M  V30 329 C 31.525 -0.50661 -1.52611 0
M  V30 330 O 32.715 -0.772601 -1.5613 0
M  V30 331 C 29.847 -1.61192 -3.00383 0
M  V30 332 H 31.04 -2.60217 -1.49087 0
M  V30 333 H 28.593 -1.37444 -0.744235 0
M  V30 334 H 29.328 -0.65863 -3.17541 0
M  V30 335 H 29.113 -2.43032 -3.07698 0
M  V30 336 H 30.603 -1.7466 -3.7932 0
M  V30 337 N 31.0401 0.771051 -1.3745 0
M  V30 338 C 32.4511 1.34737 -1.29239 0
M  V30 339 C 32.8021 1.96109 0.0596908 0
M  V30 340 O 31.9271 1.93865 0.961534 0
M  V30 341 C 32.5221 2.44973 -2.34037 0
M  V30 342 C 31.0811 2.98372 -2.29458 0
M  V30 343 C 30.2281 1.71595 -2.17831 0
M  V30 344 H 33.1791 0.571256 -1.48062 0
M  V30 345 H 33.2001 3.24471 -1.98744 0
M  V30 346 H 32.7121 2.00276 -3.32432 0
M  V30 347 H 30.8131 3.47443 -1.34589 0
M  V30 348 H 30.9261 3.53939 -3.229 0
M  V30 349 H 29.2901 1.94547 -1.64388 0
M  V30 350 H 30.0731 1.29001 -3.18141 0
M  V30 351 N 32.5182 1.22032 0.997298 0
M  V30 352 C 33.7662 1.04016 1.73278 0
M  V30 353 C 34.0872 -0.426255 1.90284 0
M  V30 354 O 33.3572 -1.30694 1.45931 0
M  V30 355 H 31.9372 0.381897 0.642 0
M  V30 356 H 34.5992 1.5347 1.20137 0
M  V30 357 H 33.6952 1.51441 2.72896 0
M  V30 358 N 33.9963 -1.19345 1.0293 0
M  V30 359 C 35.4073 -1.70725 0.755633 0
M  V30 360 C 35.7583 -1.82326 -0.724676 0
M  V30 361 O 34.8833 -1.49471 -1.56484 0
M  V30 362 C 35.4783 -3.10084 1.36503 0
M  V30 363 C 34.0373 -3.58723 1.13994 0
M  V30 364 C 33.1843 -2.35577 1.46283 0
M  V30 365 H 36.1353 -1.0418 1.19718 0
M  V30 366 H 36.1563 -3.72787 0.762217 0
M  V30 367 H 35.6683 -3.01609 2.44241 0
M  V30 368 H 33.7693 -3.72512 0.0807901 0
M  V30 369 H 33.8823 -4.42816 1.82894 0
M  V30 370 H 32.2463 -2.38935 0.88217 0
M  V30 371 H 33.0293 -2.29731 2.55105 0
M  V30 372 N 35.4744 -0.807222 -1.35358 0
M  V30 373 C 36.7214 -0.387888 -1.9875 0
M  V30 374 C 37.0494 1.04509 -1.64037 0
M  V30 375 O 36.3044 1.73986 -0.895946 0
M  V30 376 C 36.6034 -0.519036 -3.53611 0
M  V30 377 C 36.2694 -1.91542 -4.08194 0
M  V30 378 C 34.9314 -2.29745 -4.22813 0
M  V30 379 C 37.2834 -2.82896 -4.37744 0
M  V30 380 C 34.6114 -3.58668 -4.643 0
M  V30 381 C 36.9634 -4.11265 -4.8067 0
M  V30 382 C 35.6274 -4.49466 -4.93494 0
M  V30 383 H 34.8974 -0.141938 -0.727279 0
M  V30 384 H 37.5444 -1.02814 -1.6156 0
M  V30 385 H 35.8494 0.204658 -3.91265 0
M  V30 386 H 37.5464 -0.175345 -4.00616 0
M  V30 387 H 34.1364 -1.60862 -3.97268 0
M  V30 388 H 38.3204 -2.54629 -4.26002 0
M  V30 389 H 33.5764 -3.88113 -4.72418 0
M  V30 390 H 37.7504 -4.82153 -5.02496 0
M  V30 391 H 35.3774 -5.49418 -5.25399 0
M  V30 392 N 36.9525 1.47285 -0.560781 0
M  V30 393 C 38.2295 1.9558 0.0277798 0
M  V30 394 C 38.6095 1.5034 1.48192 0
M  V30 395 O 37.9575 0.743882 2.16052 0
M  V30 396 C 38.1675 3.48789 -0.121418 0
M  V30 397 C 39.5155 4.24594 0.0220912 0
M  V30 398 O 40.5395 3.56166 -0.0491439 0
M  V30 399 O 39.3985 5.46217 0.175958 0
M  V30 400 H 36.4925 0.824663 0.0621342 0
M  V30 401 H 39.0385 1.5767 -0.627556 0
M  V30 402 H 37.8105 3.74533 -1.13316 0
M  V30 403 H 37.4335 3.93473 0.571366 0
M  V30 404 N 38.4306 0.297415 1.54768 0
M  V30 405 C 39.3936 -0.567375 2.22066 0
M  V30 406 C 40.3936 -1.06409 1.20556 0
M  V30 407 O 41.5836 -0.960691 1.45315 0
M  V30 408 C 38.7156 -1.78517 2.90421 0
M  V30 409 H 39.9086 0.0205534 2.99893 0
M  V30 410 H 37.4616 0.0482163 1.56226 0
M  V30 411 H 38.1966 -2.41303 2.16664 0
M  V30 412 H 37.9816 -1.43669 3.64831 0
M  V30 413 H 39.4716 -2.39964 3.41771 0
M  V30 414 N 39.9087 -1.5758 0.0250728 0
M  V30 415 C 41.1577 -1.90811 -0.653767 0
M  V30 416 C 41.4707 -0.90273 -1.73523 0
M  V30 417 O 42.6767 -1.12614 -2.47043 0
M  V30 418 C 41.1327 -3.38804 -1.21409 0
M  V30 419 C 40.7407 -4.47692 -0.166126 0
M  V30 420 C 42.4847 -3.81108 -1.86967 0
M  V30 421 C 40.3917 -5.86779 -0.737856 0
M  V30 422 H 39.3217 -0.712063 -0.247956 0
M  V30 423 H 41.9727 -1.83281 0.0897137 0
M  V30 424 H 40.3547 -3.41252 -2.00905 0
M  V30 425 H 41.5287 -4.56797 0.606079 0
M  V30 426 H 39.8437 -4.14565 0.390466 0
M  V30 427 H 42.4407 -4.82375 -2.30692 0
M  V30 428 H 42.7837 -3.15953 -2.71071 0
M  V30 429 H 43.3167 -3.81065 -1.14167 0
M  V30 430 H 40.0557 -6.55468 0.0649577 0
M  V30 431 H 39.5757 -5.81288 -1.47864 0
M  V30 432 H 41.2547 -6.35223 -1.22884 0
M  V30 433 N 41.3868 0.248026 -1.55636 0
M  V30 434 C 42.6328 0.97767 -1.77678 0
M  V30 435 C 42.9658 1.85016 -0.590135 0
M  V30 436 O 42.2408 1.90095 0.411611 0
M  V30 437 C 42.5238 1.83914 -3.09593 0
M  V30 438 C 42.3768 0.99491 -4.38659 0
M  V30 439 C 43.6958 2.82183 -3.37729 0
M  V30 440 H 40.8148 0.354005 -0.646413 0
M  V30 441 H 43.4568 0.248253 -1.88371 0
M  V30 442 H 41.6068 2.46104 -3.00608 0
M  V30 443 H 43.2788 0.391789 -4.59633 0
M  V30 444 H 41.5218 0.299231 -4.32767 0
M  V30 445 H 42.1928 1.63145 -5.2734 0
M  V30 446 H 44.6688 2.30129 -3.4667 0
M  V30 447 H 43.5448 3.39582 -4.31249 0
M  V30 448 H 43.8058 3.58588 -2.58586 0
M  V30 449 N 42.8649 1.48995 0.513639 0
M  V30 450 C 44.2809 1.35478 0.843682 0
M  V30 451 C 44.4809 0.378213 1.97919 0
M  V30 452 O 43.5369 -0.194689 2.51748 0
M  V30 453 C 44.8499 2.75901 1.1958 0
M  V30 454 C 46.3979 2.84509 1.30474 0
M  V30 455 C 46.8729 4.25671 1.69021 0
M  V30 456 N 48.3639 4.28422 1.76094 0
M  V30 457 C 49.0989 5.34601 2.07338 0
M  V30 458 N 48.5949 6.5104 2.36894 0
M  V30 459 N 50.3879 5.22007 2.08483 0
M  V30 460 H 42.5389 2.11092 -0.235328 0
M  V30 461 H 44.8019 0.947039 -0.0426669 0
M  V30 462 H 44.5079 3.49001 0.434913 0
M  V30 463 H 44.3819 3.10467 2.1422 0
M  V30 464 H 46.7689 2.11655 2.05637 0
M  V30 465 H 46.8499 2.53542 0.339155 0
M  V30 466 H 46.4939 4.99048 0.944135 0
M  V30 467 H 46.4239 4.54094 2.66658 0
M  V30 468 H 48.9149 3.44441 1.55464 0
M  V30 469 H 49.2279 7.2779 2.59887 0
M  V30 470 H 47.5729 6.54287 2.34378 0
M  V30 471 H 50.7639 4.30051 1.84861 0
M  V30 472 H 50.9369 6.04854 2.325 0
M  V30 473 N 44.343 -0.763751 1.37857 0
M  V30 474 C 45.754 -1.3405 1.29952 0
M  V30 475 C 46.105 -1.96138 -0.0492898 0
M  V30 476 O 45.23 -1.94372 -0.951239 0
M  V30 477 C 45.825 -2.43729 2.35333 0
M  V30 478 C 44.384 -2.97151 2.31037 0
M  V30 479 C 43.531 -1.70438 2.18738 0
M  V30 480 H 46.482 -0.563396 1.48363 0
M  V30 481 H 46.503 -3.23412 2.00462 0
M  V30 482 H 46.015 -1.9851 3.33489 0
M  V30 483 H 44.116 -3.46724 1.3643 0
M  V30 484 H 44.229 -3.52221 3.24772 0
M  V30 485 H 42.593 -1.93673 1.65418 0
M  V30 486 H 43.376 -1.27312 3.18821 0
M  V30 487 N 45.8211 -1.22559 -0.990812 0
M  V30 488 C 46.7511 -1.0218 -2.09956 0
M  V30 489 C 47.7321 0.0579394 -1.70001 0
M  V30 490 O 48.9171 -0.104684 -1.93918 0
M  V30 491 C 46.0471 -0.601023 -3.4206 0
M  V30 492 C 45.0011 -1.62694 -3.95872 0
M  V30 493 C 44.3271 -1.06193 -5.24049 0
M  V30 494 C 45.6271 -3.01743 -4.2632 0
M  V30 495 H 47.3211 -1.94916 -2.27262 0
M  V30 496 H 44.8671 -0.938566 -1.09211 0
M  V30 497 H 46.8201 -0.445561 -4.19038 0
M  V30 498 H 45.5441 0.362005 -3.24588 0
M  V30 499 H 44.2031 -1.77021 -3.21028 0
M  V30 500 H 43.8511 -0.0901903 -5.02919 0
M  V30 501 H 43.5511 -1.74732 -5.61019 0
M  V30 502 H 45.0751 -0.918092 -6.03658 0
M  V30 503 H 46.4891 -2.90777 -4.94087 0
M  V30 504 H 44.8861 -3.67425 -4.74467 0
M  V30 505 H 45.9561 -3.51518 -3.34011 0
M  V30 506 N 47.2992 1.18797 -1.03562 0
M  V30 507 C 48.2622 2.20464 -0.626769 0
M  V30 508 C 49.2622 1.57721 0.313173 0
M  V30 509 O 50.4522 1.73917 0.0992615 0
M  V30 510 C 47.5842 3.40802 0.0818498 0
M  V30 511 H 48.7772 2.58149 -1.5264 0
M  V30 512 H 46.3302 1.32593 -0.827578 0
M  V30 513 H 47.0652 3.08642 0.995518 0
M  V30 514 H 46.8502 3.8758 -0.593652 0
M  V30 515 H 48.3402 4.16092 0.354584 0
M  V30 516 N 48.7773 0.814389 1.34928 0
M  V30 517 C 50.0233 0.399013 1.98836 0
M  V30 518 C 50.3563 -1.03314 1.64438 0
M  V30 519 O 49.6313 -1.71811 0.911659 0
M  V30 520 C 49.9143 0.591629 3.55207 0
M  V30 521 C 49.7673 2.06928 3.99376 0
M  V30 522 C 51.0863 0.022199 4.40094 0
M  V30 523 H 48.2053 0.146451 0.722303 0
M  V30 524 H 50.8473 1.02537 1.59957 0
M  V30 525 H 48.9973 0.0584441 3.88456 0
M  V30 526 H 50.6693 2.66544 3.76499 0
M  V30 527 H 48.9123 2.56287 3.49999 0
M  V30 528 H 49.5833 2.1549 5.08201 0
M  V30 529 H 52.0593 0.477643 4.13349 0
M  V30 530 H 50.9353 0.186832 5.48582 0
M  V30 531 H 51.1963 -1.07215 4.28902 0
M  V30 532 N 50.2554 -1.46986 0.568584 0
M  V30 533 C 51.2184 -2.28624 -0.162366 0
M  V30 534 C 52.2184 -1.37596 -0.832103 0
M  V30 535 O 53.4084 -1.60115 -0.68622 0
M  V30 536 C 50.5404 -3.17596 -1.23878 0
M  V30 537 H 51.7334 -2.94722 0.554899 0
M  V30 538 H 49.2864 -1.52863 0.325976 0
M  V30 539 H 50.0214 -2.56214 -1.98808 0
M  V30 540 H 49.8064 -3.846 -0.763219 0
M  V30 541 H 51.2964 -3.79078 -1.75185 0
M  V30 542 N 51.7335 -0.305618 -1.54608 0
M  V30 543 C 53.1445 0.186098 -1.8577 0
M  V30 544 C 53.4955 1.53058 -1.22751 0
M  V30 545 O 52.6205 2.09888 -0.526893 0
M  V30 546 C 53.2155 0.344449 -3.37044 0
M  V30 547 C 51.7745 0.780384 -3.68221 0
M  V30 548 C 50.9215 -0.108554 -2.77087 0
M  V30 549 H 53.8725 -0.526485 -1.49712 0
M  V30 550 H 53.8935 1.17828 -3.61796 0
M  V30 551 H 53.4055 -0.634235 -3.82883 0
M  V30 552 H 51.5065 1.76945 -3.27904 0
M  V30 553 H 51.6195 0.596572 -4.75371 0
M  V30 554 H 49.9835 0.412931 -2.5133 0
M  V30 555 H 50.7665 -1.08368 -3.25747 0
M  V30 556 N 53.2116 1.57565 -0.0334293 0
M  V30 557 C 54.4516 1.93844 0.648379 0
M  V30 558 C 54.8156 0.910387 1.69044 0
M  V30 559 O 56.0166 1.15952 2.42505 0
M  V30 560 C 54.2876 3.35017 1.24492 0
M  V30 561 S 55.8466 3.93229 1.94721 0
M  V30 562 H 52.6646 0.678231 0.213364 0
M  V30 563 H 55.2666 1.95254 -0.0981253 0
M  V30 564 H 53.9706 4.07652 0.474128 0
M  V30 565 H 53.5016 3.37061 2.02864 0
M  V30 566 H 55.5166 3.77014 3.22606 0
M  V30 567 N 54.6897 -0.239769 1.55765 0
M  V30 568 C 55.9177 -0.98417 1.81994 0
M  V30 569 C 56.3327 -1.7867 0.610124 0
M  V30 570 O 55.6897 -1.77571 -0.421271 0
M  V30 571 C 55.7407 -1.91635 3.06526 0
M  V30 572 O 55.4617 -1.14629 4.22838 0
M  V30 573 C 56.9627 -2.77616 3.45607 0
M  V30 574 H 54.1827 -0.28928 0.605441 0
M  V30 575 H 56.7267 -0.260499 2.02834 0
M  V30 576 H 54.8817 -2.5942 2.87715 0
M  V30 577 H 55.2957 -1.77745 4.93464 0
M  V30 578 H 56.7697 -3.38759 4.35828 0
M  V30 579 H 57.2467 -3.4909 2.6652 0
M  V30 580 H 57.8527 -2.15271 3.66795 0
M  V30 581 N 56.1678 -1.49265 -0.50573 0
M  V30 582 C 57.3928 -1.62478 -1.28902 0
M  V30 583 C 57.8178 -0.294332 -1.85783 0
M  V30 584 O 57.1758 0.737412 -1.65626 0
M  V30 585 C 57.2238 -2.69268 -2.39848 0
M  V30 586 O 56.3278 -2.28113 -3.43567 0
M  V30 587 H 55.6688 -0.54399 -0.380751 0
M  V30 588 H 58.1988 -1.95421 -0.605952 0
M  V30 589 H 58.2088 -2.91291 -2.85681 0
M  V30 590 H 56.8838 -3.65846 -1.97812 0
M  V30 591 H 55.4608 -2.16401 -3.03685 0
M  V30 592 N 57.6459 0.756429 -1.3826 0
M  V30 593 C 58.9229 1.50584 -1.24835 0
M  V30 594 C 59.3029 2.10556 0.151485 0
M  V30 595 O 58.6509 1.96825 1.1607 0
M  V30 596 C 58.8609 2.57448 -2.3563 0
M  V30 597 C 60.2089 3.24429 -2.73917 0
M  V30 598 O 61.2329 2.67751 -2.34921 0
M  V30 599 O 60.0919 4.26937 -3.41156 0
M  V30 600 H 57.1859 0.667664 -0.48801 0
M  V30 601 H 59.7319 0.792083 -1.5008 0
M  V30 602 H 58.5039 2.11362 -3.29305 0
M  V30 603 H 58.1269 3.36408 -2.11933 0
M  V30 604 N 59.124 1.23083 0.984299 0
M  V30 605 C 60.373 1.05466 1.71929 0
M  V30 606 C 60.686 -0.409211 1.91272 0
M  V30 607 O 61.892 -0.705226 2.62181 0
M  V30 608 C 60.348 1.83874 3.09384 0
M  V30 609 C 59.956 3.34566 2.97943 0
M  V30 610 C 61.7 1.74734 3.8687 0
M  V30 611 C 59.607 4.05381 4.30605 0
M  V30 612 H 58.537 0.391039 0.644674 0
M  V30 613 H 61.188 1.47013 1.09815 0
M  V30 614 H 59.57 1.35131 3.72231 0
M  V30 615 H 60.744 3.90767 2.44209 0
M  V30 616 H 59.059 3.44476 2.33934 0
M  V30 617 H 61.656 2.24957 4.85076 0
M  V30 618 H 61.999 0.709372 4.10212 0
M  V30 619 H 62.532 2.21067 3.30717 0
M  V30 620 H 59.271 5.09467 4.1246 0
M  V30 621 H 58.791 3.53967 4.84218 0
M  V30 622 H 60.47 4.11458 4.99311 0
M  V30 623 N 60.6021 -1.18246 1.0419 0
M  V30 624 C 61.5521 -2.19843 0.604392 0
M  V30 625 C 62.5361 -1.56962 -0.353814 0
M  V30 626 O 63.7281 -1.76156 -0.17267 0
M  V30 627 C 60.8571 -3.43287 -0.0298975 0
M  V30 628 C 59.9431 -4.13288 0.951531 0
M  V30 629 N 60.3341 -4.59271 2.11906 0
M  V30 630 C 58.6321 -4.39165 0.7778 0
M  V30 631 C 59.3331 -5.13173 2.73912 0
M  V30 632 N 58.3091 -5.04763 2.01779 0
M  V30 633 H 62.1111 -2.53089 1.4941 0
M  V30 634 H 59.6251 -1.34465 0.910658 0
M  V30 635 H 61.6221 -4.15334 -0.361037 0
M  V30 636 H 60.2821 -3.11537 -0.915127 0
M  V30 637 H 61.2931 -4.5368 2.49789 0
M  V30 638 H 57.9701 -4.17461 -0.0572331 0
M  V30 639 H 59.3601 -5.58947 3.72864 0
M  V30 640 N 62.0802 -0.821533 -1.34494 0
M  V30 641 C 63.3082 -0.421884 -2.02553 0
M  V30 642 C 63.7232 0.971745 -1.61872 0
M  V30 643 O 63.0802 1.62864 -0.823496 0
M  V30 644 C 63.1312 -0.51285 -3.57844 0
M  V30 645 O 62.8522 -1.85155 -3.97051 0
M  V30 646 C 64.3532 -0.107921 -4.43169 0
M  V30 647 H 61.5732 -0.169482 -0.649243 0
M  V30 648 H 64.1172 -1.1093 -1.71798 0
M  V30 649 H 62.2722 0.126474 -3.87193 0
M  V30 650 H 62.6862 -1.82482 -4.91732 0
M  V30 651 H 64.1602 -0.222657 -5.51551 0
M  V30 652 H 64.6372 0.948401 -4.28838 0
M  V30 653 H 65.2432 -0.720989 -4.19144 0
M  V30 654 N 63.5583 1.46682 -0.576371 0
M  V30 655 C 64.8043 2.02712 -0.0596221 0
M  V30 656 C 65.1373 1.44765 1.29448 0
M  V30 657 O 64.4123 0.610355 1.84675 0
M  V30 658 C 64.6953 3.60098 0.0129503 0
M  V30 659 C 64.5483 4.28441 -1.3696 0
M  V30 660 C 65.8673 4.34224 0.71678 0
M  V30 661 H 62.9863 0.736637 -0.0231407 0
M  V30 662 H 65.6283 1.74898 -0.742351 0
M  V30 663 H 63.7783 3.83926 0.594378 0
M  V30 664 H 65.4503 4.15896 -1.9957 0
M  V30 665 H 63.6933 3.8805 -1.93907 0
M  V30 666 H 64.3643 5.3716 -1.27135 0
M  V30 667 H 66.8403 4.15503 0.222908 0
M  V30 668 H 65.7163 5.43936 0.73657 0
M  V30 669 H 65.9773 4.04823 1.77682 0
M  V30 670 N 65.0364 0.313813 1.54444 0
M  V30 671 C 66.2834 -0.291675 2.00388 0
M  V30 672 C 66.6114 -1.52904 1.2021 0
M  V30 673 O 65.8664 -1.93833 0.269707 0
M  V30 674 C 66.1654 -0.680386 3.50864 0
M  V30 675 C 65.8314 0.456699 4.48581 0
M  V30 676 C 64.4934 0.768824 4.75018 0
M  V30 677 C 66.8454 1.22098 5.06697 0
M  V30 678 C 64.1734 1.84812 5.56831 0
M  V30 679 C 66.5254 2.29029 5.89685 0
M  V30 680 C 65.1894 2.60834 6.14428 0
M  V30 681 H 64.4594 -0.106732 0.733273 0
M  V30 682 H 67.1064 0.43557 1.86481 0
M  V30 683 H 65.4114 -1.48791 3.62448 0
M  V30 684 H 67.1084 -1.16026 3.83847 0
M  V30 685 H 63.6984 0.203337 4.28117 0
M  V30 686 H 67.8824 0.993096 4.86263 0
M  V30 687 H 63.1384 2.09912 5.74236 0
M  V30 688 H 67.3124 2.887 6.33739 0
M  V30 689 H 64.9394 3.44596 6.77612 0
M  V30 690 N 66.5145 -1.57545 0.0417849 0
M  V30 691 C 67.4245 -2.14451 -0.951213 0
M  V30 692 C 68.4405 -1.09992 -1.34825 0
M  V30 693 O 69.6165 -1.42114 -1.42708 0
M  V30 694 C 66.6815 -2.67063 -2.21084 0
M  V30 695 C 65.7425 -3.86284 -1.87304 0
M  V30 696 C 64.9755 -4.36378 -3.07261 0
M  V30 697 O 65.1985 -3.85587 -4.20332 0
M  V30 698 O 64.1325 -5.28077 -2.88822 0
M  V30 699 H 67.9585 -2.99601 -0.497287 0
M  V30 700 H 65.5435 -1.48317 -0.179567 0
M  V30 701 H 67.4255 -3.00914 -2.95006 0
M  V30 702 H 66.1005 -1.84989 -2.65633 0
M  V30 703 H 65.0075 -3.57338 -1.10727 0
M  V30 704 H 66.3405 -4.6956 -1.47562 0
M  V30 705 N 67.9926 0.231505 -1.5589 0
M  V30 706 C 69.2406 0.955461 -1.78088 0
M  V30 707 C 69.5616 1.85262 -0.608533 0
M  V30 708 O 68.8316 1.92277 0.375035 0
M  V30 709 H 67.4116 0.355787 -0.656829 0
M  V30 710 H 70.0736 0.245751 -1.93344 0
M  V30 711 H 69.1696 1.56814 -2.69844 0
M  V30 712 N 69.4707 1.49531 0.497807 0
M  V30 713 C 70.4337 1.65916 1.58128 0
M  V30 714 C 71.4337 0.530825 1.51786 0
M  V30 715 O 72.6237 0.797342 1.54881 0
M  V30 716 C 69.7557 1.65951 2.9778 0
M  V30 717 H 70.9487 2.62556 1.44929 0
M  V30 718 H 68.5017 1.38611 0.722275 0
M  V30 719 H 69.2367 0.709065 3.16453 0
M  V30 720 H 69.0217 2.47897 3.03792 0
M  V30 721 H 70.5117 1.80673 3.76493 0
M  V30 722 N 70.9488 -0.749086 1.3866 0
M  V30 723 C 72.1978 -1.50371 1.3443 0
M  V30 724 C 72.5108 -1.95503 -0.0616397 0
M  V30 725 O 73.7168 -2.70554 -0.226489 0
M  V30 726 C 72.1728 -2.71644 2.36088 0
M  V30 727 C 71.7808 -2.3352 3.82325 0
M  V30 728 C 73.5248 -3.49518 2.40909 0
M  V30 729 C 71.4318 -3.51431 4.75658 0
M  V30 730 H 70.3618 -0.564628 0.499712 0
M  V30 731 H 73.0128 -0.818449 1.64237 0
M  V30 732 H 71.3948 -3.42175 1.9933 0
M  V30 733 H 72.5688 -1.70627 4.28046 0
M  V30 734 H 70.8838 -1.6877 3.80665 0
M  V30 735 H 73.4808 -4.37197 3.07836 0
M  V30 736 H 73.8238 -3.90992 1.42937 0
M  V30 737 H 74.3568 -2.86005 2.76489 0
M  V30 738 H 71.0958 -3.15019 5.74842 0
M  V30 739 H 70.6158 -4.13352 4.34627 0
M  V30 740 H 72.2948 -4.17953 4.93887 0
M  V30 741 N 72.4269 -1.23603 -0.977757 0
M  V30 742 C 73.6749 -1.06759 -1.71601 0
M  V30 743 C 73.9959 0.395929 -1.90938 0
M  V30 744 O 73.2659 1.28356 -1.47992 0
M  V30 745 H 71.8459 -0.392062 -0.635843 0
M  V30 746 H 74.5079 -1.55362 -1.1768 0
M  V30 747 H 73.6039 -1.55763 -2.70452 0
M  V30 748 N 73.905 1.17692 -1.04816 0
M  V30 749 C 74.815 2.25229 -0.65643 0
M  V30 750 C 75.831 1.71018 0.320761 0
M  V30 751 O 77.007 2.00649 0.173805 0
M  V30 752 C 74.072 3.46684 -0.0332629 0
M  V30 753 C 73.133 4.15997 -1.06042 0
M  V30 754 C 72.366 5.31654 -0.466893 0
M  V30 755 O 72.589 5.65777 0.724758 0
M  V30 756 O 71.523 5.89831 -1.1993 0
M  V30 757 H 75.349 2.61016 -1.55255 0
M  V30 758 H 72.934 1.24919 -0.81949 0
M  V30 759 H 74.816 4.20234 0.313256 0
M  V30 760 H 73.491 3.12703 0.836566 0
M  V30 761 H 72.398 3.44482 -1.45886 0
M  V30 762 H 73.731 4.53996 -1.90127 0
M  V30 763 N 75.3831 0.828654 1.34056 0
M  V30 764 C 76.7991 0.515135 1.51058 0
M  V30 765 C 76.9991 -0.959581 1.77184 0
M  V30 766 O 76.0551 -1.74382 1.82612 0
M  V30 767 C 77.3681 1.37963 2.67183 0
M  V30 768 C 78.9161 1.37735 2.81066 0
M  V30 769 C 79.3911 2.22645 4.00241 0
M  V30 770 N 80.8821 2.203 4.07458 0
M  V30 771 C 81.6171 2.82744 4.98842 0
M  V30 772 N 81.1131 3.54201 5.9541 0
M  V30 773 N 82.9061 2.72268 4.91759 0
M  V30 774 H 75.0571 1.78343 1.15358 0
M  V30 775 H 77.3201 0.760304 0.566252 0
M  V30 776 H 77.0261 2.42714 2.54525 0
M  V30 777 H 76.9001 1.0484 3.62338 0
M  V30 778 H 79.2871 0.337593 2.93163 0
M  V30 779 H 79.3681 1.74859 1.86703 0
M  V30 780 H 79.0121 3.26674 3.88905 0
M  V30 781 H 78.9421 1.82869 4.93829 0
M  V30 782 H 81.4331 1.68327 3.38341 0
M  V30 783 H 81.7461 3.9908 6.61782 0
M  V30 784 H 80.0911 3.58308 5.95517 0
M  V30 785 H 83.2821 2.16014 4.15278 0
M  V30 786 H 83.4551 3.21219 5.62781 0
M  V30 787 N 76.8612 -1.46375 0.584142 0
M  V30 788 C 77.8112 -2.27371 -0.169232 0
M  V30 789 C 78.7952 -1.35955 -0.860523 0
M  V30 790 O 79.9872 -1.60119 -0.754382 0
M  V30 791 C 77.1162 -3.22334 -1.18134 0
M  V30 792 C 76.2022 -4.21235 -0.492088 0
M  V30 793 N 76.5932 -5.03766 0.453129 0
M  V30 794 C 74.8912 -4.39773 -0.742652 0
M  V30 795 C 75.5922 -5.75366 0.85609 0
M  V30 796 N 74.5682 -5.43214 0.204926 0
M  V30 797 H 78.3702 -2.88572 0.557097 0
M  V30 798 H 75.8842 -1.57242 0.406042 0
M  V30 799 H 77.8812 -3.79071 -1.73525 0
M  V30 800 H 76.5412 -2.62693 -1.90847 0
M  V30 801 H 77.5522 -5.11227 0.828723 0
M  V30 802 H 74.2292 -3.91279 -1.45625 0
M  V30 803 H 75.6192 -6.5172 1.63434 0
M  V30 804 N 78.3393 -0.321999 -1.54275 0
M  V30 805 C 79.2873 0.560206 -2.25753 0
M  V30 806 C 80.2813 1.11984 -1.27106 0
M  V30 807 O 81.4873 1.06806 -1.44888 0
M  V30 808 H 77.8623 0.199304 -0.725108 0
M  V30 809 H 79.8333 -0.0649365 -2.98329 0
M  V30 810 C 78.5823 1.71023 -3.02731 0
M  V30 811 H 77.9053 1.28885 -3.78456 0
M  V30 812 H 79.3453 2.30314 -3.55993 0
M  V30 813 C 77.8043 2.62692 -2.10938 0
M  V30 814 O 78.3343 3.64364 -1.6912 0
M  V30 815 N 76.5403 2.30891 -1.76459 0
M  V30 816 H 76.0873 1.48253 -2.10663 0
M  V30 817 H 76.0453 2.92487 -1.1532 0
M  V30 818 N 79.8174 1.5752 -0.0501392 0
M  V30 819 C 80.7504 2.07026 0.959962 0
M  V30 820 C 81.7284 0.970539 1.30458 0
M  V30 821 O 82.9124 1.2424 1.41763 0
M  V30 822 C 80.0394 2.5099 2.27424 0
M  V30 823 C 79.0854 3.72188 2.08275 0
M  V30 824 S 79.9184 5.17888 1.36207 0
M  V30 825 C 81.0744 5.65165 2.6896 0
M  V30 826 H 81.3074 2.9238 0.538631 0
M  V30 827 H 78.8404 1.53547 0.162099 0
M  V30 828 H 80.7984 2.76982 3.02971 0
M  V30 829 H 79.4594 1.65944 2.66686 0
M  V30 830 H 78.6524 4.00866 3.05487 0
M  V30 831 H 78.2544 3.46457 1.40868 0
M  V30 832 H 80.5464 5.70687 3.65133 0
M  V30 833 H 81.4894 6.64394 2.4492 0
M  V30 834 H 81.8974 4.9289 2.75172 0
M  V30 835 N 81.2955 -0.223234 1.56011 0
M  V30 836 C 82.5445 -0.945912 1.78144 0
M  V30 837 C 82.8575 -1.85567 0.618396 0
M  V30 838 O 84.0635 -2.61688 0.723318 0
M  V30 839 C 82.5195 -1.73216 3.15475 0
M  V30 840 C 82.1275 -0.868619 4.39499 0
M  V30 841 C 83.8715 -2.44615 3.46935 0
M  V30 842 C 81.7785 -1.65212 5.67855 0
M  V30 843 H 80.7085 -0.356929 0.664167 0
M  V30 844 H 83.3595 -0.199845 1.82409 0
M  V30 845 H 81.7415 -2.52107 3.05382 0
M  V30 846 H 82.9155 -0.120366 4.60643 0
M  V30 847 H 81.2305 -0.26683 4.15544 0
M  V30 848 H 83.8275 -3.03732 4.40058 0
M  V30 849 H 84.1705 -3.17417 2.69355 0
M  V30 850 H 84.7035 -1.72715 3.58349 0
M  V30 851 H 81.4425 -0.967407 6.48322 0
M  V30 852 H 80.9625 -2.37503 5.50774 0
M  V30 853 H 82.6415 -2.21322 6.07968 0
M  V30 854 N 82.7736 -1.49793 -0.48987 0
M  V30 855 C 83.7036 -1.70201 -1.59856 0
M  V30 856 C 84.6846 -0.55076 -1.60937 0
M  V30 857 O 85.8696 -0.787841 -1.77501 0
M  V30 858 C 82.9996 -1.77882 -2.98287 0
M  V30 859 C 81.9536 -2.92907 -3.12073 0
M  V30 860 C 81.2796 -2.85712 -4.51965 0
M  V30 861 C 82.5796 -4.3369 -2.91051 0
M  V30 862 H 84.2736 -2.63025 -1.43032 0
M  V30 863 H 81.8196 -1.26574 -0.686664 0
M  V30 864 H 83.7726 -1.90744 -3.75759 0
M  V30 865 H 82.4966 -0.816653 -3.16225 0
M  V30 866 H 81.1556 -2.79665 -2.37029 0
M  V30 867 H 80.8036 -1.8738 -4.66795 0
M  V30 868 H 80.5036 -3.62921 -4.62128 0
M  V30 869 H 82.0276 -3.00598 -5.31482 0
M  V30 870 H 83.4416 -4.47555 -3.58284 0
M  V30 871 H 81.8386 -5.12205 -3.12675 0
M  V30 872 H 82.9086 -4.47362 -1.87071 0
M  V30 873 N 84.2517 0.741722 -1.39055 0
M  V30 874 C 85.4997 1.49818 -1.35643 0
M  V30 875 C 85.8207 1.94938 0.0491642 0
M  V30 876 O 85.0907 1.68505 0.999141 0
M  V30 877 H 83.6707 0.555755 -0.499144 0
M  V30 878 H 86.3327 0.880957 -1.73854 0
M  V30 879 H 85.4287 2.38348 -2.01486 0
M  V30 880 N 85.7298 1.2412 0.971189 0
M  V30 881 C 86.6798 0.997551 2.05019 0
M  V30 882 C 87.6638 -0.0597747 1.60789 0
M  V30 883 O 88.8558 0.153516 1.76333 0
M  V30 884 C 85.9848 0.600557 3.38006 0
M  V30 885 C 85.0708 1.69377 3.88809 0
M  V30 886 N 85.4618 2.92586 4.12586 0
M  V30 887 C 83.7598 1.57048 4.17435 0
M  V30 888 C 84.4608 3.63431 4.54195 0
M  V30 889 N 83.4368 2.90979 4.59165 0
M  V30 890 H 87.2388 1.93316 2.21374 0
M  V30 891 H 84.7528 1.14194 1.1547 0
M  V30 892 H 86.7498 0.40725 4.14906 0
M  V30 893 H 85.4098 -0.327903 3.2304 0
M  V30 894 H 86.4208 3.288 4.00139 0
M  V30 895 H 83.0978 0.709798 4.11422 0
M  V30 896 H 84.4878 4.69102 4.81033 0
M  V30 897 N 87.2079 -1.17134 1.05439 0
M  V30 898 C 88.1179 -2.24878 0.668365 0
M  V30 899 C 89.1339 -1.71186 -0.311687 0
M  V30 900 O 90.3099 -2.00738 -0.163161 0
M  V30 901 C 87.3749 -3.46662 0.051648 0
M  V30 902 C 86.4359 -4.15429 1.08246 0
M  V30 903 C 85.6689 -5.31399 0.495082 0
M  V30 904 O 85.8919 -5.66153 -0.694743 0
M  V30 905 O 84.8259 -5.89187 1.23056 0
M  V30 906 H 88.6519 -2.60189 1.56637 0
M  V30 907 H 86.2369 -1.24482 0.826104 0
M  V30 908 H 88.1189 -4.20394 -0.290966 0
M  V30 909 H 86.7939 -3.13142 -0.819971 0
M  V30 910 H 85.7009 -3.43704 1.47711 0
M  V30 911 H 87.0339 -4.52982 1.92532 0
M  V30 912 N 88.686 -0.835752 -1.33615 0
M  V30 913 C 89.649 -0.272 -2.2758 0
M  V30 914 C 90.649 0.557487 -1.50827 0
M  V30 915 O 91.839 0.37173 -1.70188 0
M  V30 916 C 88.971 0.617173 -3.35267 0
M  V30 917 H 90.164 -1.10111 -2.78954 0
M  V30 918 H 87.717 -0.608594 -1.43965 0
M  V30 919 H 88.452 1.46884 -2.89129 0
M  V30 920 H 88.237 0.0237066 -3.92093 0
M  V30 921 H 89.727 1.005 -4.05326 0
M  V30 922 N 90.1641 1.46063 -0.591896 0
M  V30 923 C 91.4101 2.02638 -0.0811191 0
M  V30 924 C 91.7431 1.4613 1.27905 0
M  V30 925 O 91.0181 0.629908 1.84017 0
M  V30 926 C 91.3011 3.60091 -0.0252436 0
M  V30 927 C 91.1541 4.26965 -1.41496 0
M  V30 928 C 92.4731 4.3496 0.670685 0
M  V30 929 H 89.5921 0.73635 -0.0309524 0
M  V30 930 H 92.2341 1.741 -0.760859 0
M  V30 931 H 90.3841 3.84535 0.553624 0
M  V30 932 H 92.0561 4.13756 -2.0397 0
M  V30 933 H 90.2991 3.85971 -1.98011 0
M  V30 934 H 90.9701 5.35781 -1.32825 0
M  V30 935 H 93.4461 4.15716 0.178825 0
M  V30 936 H 92.3221 5.44686 0.678837 0
M  V30 937 H 92.5831 4.06685 1.73379 0
M  V30 938 N 91.6422 0.330177 1.54103 0
M  V30 939 C 92.8902 -0.269871 2.0029 0
M  V30 940 C 93.2112 -1.52133 1.21986 0
M  V30 941 O 92.4812 -1.93212 0.323438 0
M  V30 942 H 91.0612 -0.10271 0.739905 0
M  V30 943 H 93.7232 0.448249 1.89675 0
M  V30 944 H 92.8192 -0.52166 3.07709 0
M  V30 945 N 93.1203 -1.57491 0.0584922 0
M  V30 946 C 94.0303 -2.15448 -0.928414 0
M  V30 947 C 95.0463 -1.11416 -1.3365 0
M  V30 948 O 96.2223 -1.4362 -1.41193 0
M  V30 949 C 93.2873 -2.69393 -2.18239 0
M  V30 950 C 92.3483 -3.88249 -1.83196 0
M  V30 951 C 91.5813 -4.39613 -3.02616 0
M  V30 952 O 91.8043 -3.90023 -4.16219 0
M  V30 953 O 90.7383 -5.31111 -2.83204 0
M  V30 954 H 94.5643 -3.00112 -0.465483 0
M  V30 955 H 92.1493 -1.48499 -0.163826 0
M  V30 956 H 94.0313 -3.04026 -2.91798 0
M  V30 957 H 92.7063 -1.87796 -2.63656 0
M  V30 958 H 91.6133 -3.58492 -1.06931 0
M  V30 959 H 92.9463 -4.71098 -1.42573 0
M  V30 960 N 94.5984 0.214957 -1.56127 0
M  V30 961 C 95.8444 0.939762 -1.79712 0
M  V30 962 C 96.1774 1.83723 -0.629247 0
M  V30 963 O 95.4524 1.90925 0.371197 0
M  V30 964 C 95.7354 1.77306 -3.13424 0
M  V30 965 C 95.5884 0.90164 -4.40671 0
M  V30 966 C 96.9074 2.74956 -3.43638 0
M  V30 967 H 94.0264 0.340214 -0.653776 0
M  V30 968 H 96.6684 0.20824 -1.88855 0
M  V30 969 H 94.8184 2.39673 -3.0576 0
M  V30 970 H 96.4904 0.294206 -4.60361 0
M  V30 971 H 94.7334 0.207368 -4.33304 0
M  V30 972 H 95.4044 1.51923 -5.30682 0
M  V30 973 H 97.8804 2.22724 -3.51473 0
M  V30 974 H 96.7564 3.30358 -4.38355 0
M  V30 975 H 97.0174 3.53023 -2.66134 0
M  V30 976 N 96.0765 1.50051 0.48192 0
M  V30 977 C 97.3225 1.60736 1.2366 0
M  V30 978 C 97.6555 0.301786 1.91841 0
M  V30 979 O 96.9305 -0.696025 1.8162 0
M  V30 980 C 97.2135 2.78009 2.28874 0
M  V30 981 C 97.0665 4.18416 1.65069 0
M  V30 982 C 98.3855 2.90867 3.30279 0
M  V30 983 H 95.5045 0.585031 0.448228 0
M  V30 984 H 98.1465 1.82402 0.531946 0
M  V30 985 H 96.2965 2.59667 2.88973 0
M  V30 986 H 97.9685 4.48322 1.0865 0
M  V30 987 H 96.2115 4.23177 0.954148 0
M  V30 988 H 96.8825 4.96381 2.41474 0
M  V30 989 H 99.3585 3.07623 2.80191 0
M  V30 990 H 98.2345 3.74566 4.01238 0
M  V30 991 H 98.4955 2.01021 3.93755 0
M  V30 992 N 97.5546 -0.734337 1.39446 0
M  V30 993 C 98.4646 -1.87879 1.40495 0
M  V30 994 C 99.4806 -1.714 0.299672 0
M  V30 995 O 100.657 -1.93991 0.541249 0
M  V30 996 C 97.7216 -3.23477 1.24754 0
M  V30 997 C 96.7826 -3.52344 2.45259 0
M  V30 998 C 96.0156 -4.81473 2.30259 0
M  V30 999 O 96.2386 -5.55237 1.30643 0
M  V30 1000 O 95.1726 -5.10254 3.19256 0
M  V30 1001 H 98.9986 -1.89949 2.36966 0
M  V30 1002 H 96.5836 -0.882243 1.20569 0
M  V30 1003 H 98.4656 -4.04509 1.18111 0
M  V30 1004 H 97.1406 -3.22176 0.313781 0
M  V30 1005 H 96.0476 -2.71396 2.57478 0
M  V30 1006 H 97.3806 -3.58426 3.37331 0
M  V30 1007 N 99.0327 -1.24633 -0.964593 0
M  V30 1008 C 100.279 -1.08949 -1.71049 0
M  V30 1009 C 100.612 0.370302 -1.90637 0
M  V30 1010 O 99.8867 1.27349 -1.47011 0
M  V30 1011 C 100.17 -1.83329 -3.0994 0
M  V30 1012 C 100.023 -3.37077 -2.97824 0
M  V30 1013 C 101.342 -1.60846 -4.09654 0
M  V30 1014 H 98.4607 -0.397178 -0.620821 0
M  V30 1015 H 101.103 -1.5334 -1.12191 0
M  V30 1016 H 99.2527 -1.45597 -3.60186 0
M  V30 1017 H 100.925 -3.84425 -2.5498 0
M  V30 1018 H 99.1677 -3.65298 -2.33965 0
M  V30 1019 H 99.8387 -3.84324 -3.96231 0
M  V30 1020 H 102.315 -1.93674 -3.68279 0
M  V30 1021 H 101.191 -2.1534 -5.04896 0
M  V30 1022 H 101.452 -0.547434 -4.38698 0
M  V30 1023 N 100.511 1.16574 -1.06058 0
M  V30 1024 C 101.759 1.86677 -0.77434 0
M  V30 1025 C 102.08 1.81959 0.701147 0
M  V30 1026 O 101.35 1.2515 1.50713 0
M  V30 1027 H 99.9298 0.691134 -0.283449 0
M  V30 1028 H 102.592 1.41378 -1.34158 0
M  V30 1029 H 101.688 2.92181 -1.09711 0
M  V30 1030 N 101.989 0.842826 1.3317 0
M  V30 1031 C 103.214 0.453129 2.02389 0
M  V30 1032 C 103.639 -0.939105 1.6298 0
M  V30 1033 O 102.997 -1.61472 0.8244 0
M  V30 1034 C 103.045 0.586094 3.55805 0
M  V30 1035 O 102.149 -0.386029 4.10589 0
M  V30 1036 H 101.49 0.183664 0.638094 0
M  V30 1037 H 104.02 1.13875 1.69981 0
M  V30 1038 H 104.03 0.469209 4.05293 0
M  V30 1039 H 102.705 1.6014 3.83833 0
M  V30 1040 H 101.282 -0.226371 3.72212 0
M  V30 1041 N 103.467 -1.45747 0.599634 0
M  V30 1042 C 104.377 -2.34262 -0.125888 0
M  V30 1043 C 105.393 -1.50768 -0.868625 0
M  V30 1044 O 106.569 -1.83592 -0.828003 0
M  V30 1045 C 103.634 -3.28252 -1.11587 0
M  V30 1046 C 102.695 -4.27651 -0.375956 0
M  V30 1047 C 101.928 -5.1715 -1.31877 0
M  V30 1048 O 102.151 -5.09916 -2.55621 0
M  V30 1049 O 101.085 -5.96286 -0.820157 0
M  V30 1050 H 104.911 -2.97688 0.601315 0
M  V30 1051 H 102.496 -1.44999 0.359934 0
M  V30 1052 H 104.378 -3.86191 -1.68626 0
M  V30 1053 H 103.053 -2.67401 -1.82424 0
M  V30 1054 H 101.96 -3.7335 0.236698 0
M  V30 1055 H 103.293 -4.91334 0.29177 0
M  V30 1056 N 104.945 -0.338344 -1.53925 0
M  V30 1057 C 106.191 0.260143 -2.01125 0
M  V30 1058 C 106.524 1.50617 -1.22589 0
M  V30 1059 O 105.799 1.91979 -0.312113 0
M  V30 1060 C 106.082 0.579499 -3.55407 0
M  V30 1061 C 105.935 -0.678264 -4.44657 0
M  V30 1062 C 107.254 1.39122 -4.17532 0
M  V30 1063 H 104.373 0.0930772 -0.731099 0
M  V30 1064 H 107.015 -0.457852 -1.84401 0
M  V30 1065 H 105.165 1.19118 -3.69788 0
M  V30 1066 H 106.837 -1.31631 -4.42121 0
M  V30 1067 H 105.08 -1.3042 -4.13731 0
M  V30 1068 H 105.751 -0.410143 -5.50474 0
M  V30 1069 H 108.227 0.874035 -4.06817 0
M  V30 1070 H 107.103 1.58342 -5.25565 0
M  V30 1071 H 107.364 2.39178 -3.71815 0
M  V30 1072 N 106.423 1.57458 -0.0668435 0
M  V30 1073 C 107.37 2.12439 0.902122 0
M  V30 1074 C 108.34 1.03565 1.2986 0
M  V30 1075 O 109.525 1.312 1.38532 0
M  V30 1076 C 106.665 2.6865 2.16614 0
M  V30 1077 C 105.778 3.91663 1.82274 0
M  V30 1078 C 104.913 4.36134 3.0325 0
M  V30 1079 C 103.952 5.51808 2.64904 0
M  V30 1080 N 103.089 5.9126 3.78624 0
M  V30 1081 H 107.929 2.94934 0.426382 0
M  V30 1082 H 105.466 1.4575 0.198819 0
M  V30 1083 H 107.424 2.99346 2.90599 0
M  V30 1084 H 106.054 1.88928 2.61737 0
M  V30 1085 H 105.106 3.6746 0.983719 0
M  V30 1086 H 106.418 4.75693 1.50059 0
M  V30 1087 H 105.572 4.68465 3.85519 0
M  V30 1088 H 104.311 3.50948 3.38655 0
M  V30 1089 H 103.316 5.19133 1.81055 0
M  V30 1090 H 104.541 6.38722 2.30675 0
M  V30 1091 H 102.487 5.09024 4.138 0
M  V30 1092 H 102.404 6.70018 3.5016 0
M  V30 1093 H 103.672 6.28212 4.61486 0
M  V30 1094 N 107.901 -0.206675 1.56239 0
M  V30 1095 C 109.178 -0.954051 1.70755 0
M  V30 1096 C 109.558 -2.01841 0.618353 0
M  V30 1097 O 108.906 -2.25444 -0.372434 0
M  V30 1098 C 109.116 -1.551 3.12642 0
M  V30 1099 C 110.464 -2.03757 3.72516 0
M  V30 1100 O 111.488 -1.64965 3.15698 0
M  V30 1101 O 110.347 -2.75103 4.72208 0
M  V30 1102 H 107.441 -0.446636 0.696021 0
M  V30 1103 H 109.987 -0.197283 1.68549 0
M  V30 1104 H 108.759 -0.783212 3.83382 0
M  V30 1105 H 108.382 -2.37291 3.19028 0
M  V30 1106 N 109.379 -1.50304 -0.473955 0
M  V30 1107 C 110.626 -1.6115 -1.22625 0
M  V30 1108 C 110.954 -0.310517 -1.92005 0
M  V30 1109 O 110.209 0.703419 -1.82621 0
M  V30 1110 C 110.508 -2.73938 -2.29549 0
M  V30 1111 C 110.174 -4.14519 -1.7744 0
M  V30 1112 C 108.836 -4.5277 -1.62949 0
M  V30 1113 C 111.188 -5.02392 -1.3875 0
M  V30 1114 C 108.516 -5.76639 -1.08187 0
M  V30 1115 C 110.868 -6.26805 -0.854309 0
M  V30 1116 C 109.532 -6.63861 -0.696011 0
M  V30 1117 H 108.802 -0.589691 -0.448715 0
M  V30 1118 H 111.449 -1.84228 -0.522705 0
M  V30 1119 H 109.754 -2.44937 -3.05799 0
M  V30 1120 H 111.451 -2.79534 -2.87509 0
M  V30 1121 H 108.041 -3.8434 -1.89685 0
M  V30 1122 H 112.225 -4.73474 -1.4878 0
M  V30 1123 H 107.481 -6.04027 -0.946666 0
M  V30 1124 H 111.655 -6.94258 -0.545843 0
M  V30 1125 H 109.282 -7.59722 -0.26952 0
M  V30 1126 N 110.857 0.726932 -1.39834 0
M  V30 1127 C 111.804 1.841 -1.39197 0
M  V30 1128 C 112.774 1.642 -0.250502 0
M  V30 1129 O 113.959 1.85494 -0.446846 0
M  V30 1130 C 111.099 3.21697 -1.24919 0
M  V30 1131 C 110.212 3.53247 -2.48678 0
M  V30 1132 C 109.347 4.80289 -2.26928 0
M  V30 1133 C 108.386 5.04707 -3.4632 0
M  V30 1134 N 107.523 6.22956 -3.23836 0
M  V30 1135 H 112.363 1.83979 -2.34427 0
M  V30 1136 H 109.9 0.898876 -1.16442 0
M  V30 1137 H 111.858 4.01137 -1.1465 0
M  V30 1138 H 110.488 3.21076 -0.333153 0
M  V30 1139 H 109.54 2.68447 -2.69519 0
M  V30 1140 H 110.852 3.67205 -3.37582 0
M  V30 1141 H 110.006 5.67725 -2.13947 0
M  V30 1142 H 108.745 4.68519 -1.35431 0
M  V30 1143 H 107.75 4.1573 -3.5979 0
M  V30 1144 H 108.975 5.18357 -4.38729 0
M  V30 1145 H 106.921 6.12459 -2.35011 0
M  V30 1146 H 106.838 6.37539 -4.063 0
M  V30 1147 H 108.106 7.1321 -3.14566 0
M  V30 1148 N 112.336 1.25143 0.95797 0
M  V30 1149 C 113.747 1.08851 1.51685 0
M  V30 1150 C 114.098 -0.33687 1.93286 0
M  V30 1151 O 113.223 -1.22644 1.7829 0
M  V30 1152 C 113.818 1.96978 2.75654 0
M  V30 1153 C 112.377 1.84881 3.27866 0
M  V30 1154 C 111.524 1.91329 2.0072 0
M  V30 1155 H 114.475 1.38478 0.77522 0
M  V30 1156 H 114.496 1.5078 3.4935 0
M  V30 1157 H 114.008 3.00712 2.45345 0
M  V30 1158 H 112.109 0.840182 3.63004 0
M  V30 1159 H 112.222 2.6951 3.96107 0
M  V30 1160 H 110.586 1.35174 2.15871 0
M  V30 1161 H 111.369 2.96661 1.72764 0
M  V30 1162 N 113.814 -1.1601 1.06675 0
M  V30 1163 C 115.062 -1.86264 0.784229 0
M  V30 1164 C 115.383 -1.82328 -0.691488 0
M  V30 1165 O 114.653 -1.25947 -1.50047 0
M  V30 1166 H 113.233 -0.689621 0.28711 0
M  V30 1167 H 115.895 -1.40664 1.34906 0
M  V30 1168 H 114.991 -2.91595 1.11259 0
M  V30 1169 N 115.292 -0.849877 -1.32721 0
M  V30 1170 C 116.569 -0.372405 -1.92022 0
M  V30 1171 C 116.949 1.1435 -1.77447 0
M  V30 1172 O 116.297 1.96296 -1.16962 0
M  V30 1173 C 116.507 -0.831482 -3.3895 0
M  V30 1174 C 117.855 -0.845882 -4.16089 0
M  V30 1175 O 118.879 -0.775806 -3.47649 0
M  V30 1176 O 117.738 -0.943753 -5.38289 0
M  V30 1177 H 114.832 -0.107667 -0.819961 0
M  V30 1178 H 117.378 -0.93646 -1.41522 0
M  V30 1179 H 116.15 -1.87448 -3.4348 0
M  V30 1180 H 115.773 -0.24461 -3.96847 0
M  V30 1181 N 116.77 1.45427 -0.607355 0
M  V30 1182 C 118.186 1.57283 -0.270985 0
M  V30 1183 C 118.386 1.59875 1.22647 0
M  V30 1184 O 117.442 1.52893 2.00948 0
M  V30 1185 C 118.755 2.85566 -0.941952 0
M  V30 1186 C 120.303 2.9924 -0.917849 0
M  V30 1187 C 120.778 4.30293 -1.56882 0
M  V30 1188 N 122.269 4.37051 -1.5343 0
M  V30 1189 C 123.004 5.37123 -2.00715 0
M  V30 1190 N 122.5 6.43734 -2.56084 0
M  V30 1191 N 124.293 5.28479 -1.91484 0
M  V30 1192 H 116.444 1.41988 -1.57966 0
M  V30 1193 H 118.707 0.67885 -0.661715 0
M  V30 1194 H 118.413 2.8955 -1.99633 0
M  V30 1195 H 118.287 3.74322 -0.465096 0
M  V30 1196 H 120.674 2.94822 0.127984 0
M  V30 1197 H 120.755 2.11895 -1.43297 0
M  V30 1198 H 120.399 4.35469 -2.61398 0
M  V30 1199 H 120.329 5.16454 -1.02873 0
M  V30 1200 H 122.82 3.60615 -1.12982 0
M  V30 1201 H 123.133 7.16341 -2.89958 0
M  V30 1202 H 121.478 6.44485 -2.60122 0
M  V30 1203 H 124.669 4.44098 -1.47967 0
M  V30 1204 H 124.842 6.0632 -2.28648 0
M  V30 1205 N 118.248 0.346503 1.53744 0
M  V30 1206 C 119.494 -0.249473 2.0126 0
M  V30 1207 C 119.827 -1.49965 1.23386 0
M  V30 1208 O 119.102 -1.91811 0.32229 0
M  V30 1209 C 119.385 -0.560643 3.55709 0
M  V30 1210 C 119.238 0.701836 4.44291 0
M  V30 1211 C 120.557 -1.36905 4.18264 0
M  V30 1212 H 117.676 -0.0891987 0.731582 0
M  V30 1213 H 120.318 0.467624 1.84156 0
M  V30 1214 H 118.468 -1.17156 3.70414 0
M  V30 1215 H 120.14 1.33974 4.41417 0
M  V30 1216 H 118.383 1.32612 4.13033 0
M  V30 1217 H 119.054 0.43933 5.50249 0
M  V30 1218 H 121.53 -0.852448 4.07275 0
M  V30 1219 H 120.406 -1.55553 5.26398 0
M  V30 1220 H 120.667 -2.37203 3.73078 0
M  V30 1221 N 119.726 -1.57421 0.075193 0
M  V30 1222 C 120.972 -1.93905 -0.594025 0
M  V30 1223 C 121.305 -0.955701 -1.69056 0
M  V30 1224 O 120.58 0.0145373 -1.94495 0
M  V30 1225 C 120.863 -3.40638 -1.1678 0
M  V30 1226 C 120.716 -4.49733 -0.0776792 0
M  V30 1227 C 122.035 -3.88259 -2.07228 0
M  V30 1228 H 119.154 -0.705105 -0.214466 0
M  V30 1229 H 121.796 -1.8947 0.141854 0
M  V30 1230 H 119.946 -3.44549 -1.79494 0
M  V30 1231 H 121.618 -4.57942 0.555573 0
M  V30 1232 H 119.861 -4.29751 0.591286 0
M  V30 1233 H 120.532 -5.49549 -0.519603 0
M  V30 1234 H 123.008 -3.86376 -1.54445 0
M  V30 1235 H 121.884 -4.91533 -2.44308 0
M  V30 1236 H 122.145 -3.26396 -2.98191 0
M  V30 1237 N 121.204 0.198386 -1.56346 0
M  V30 1238 C 122.45 0.920648 -1.80698 0
M  V30 1239 C 122.783 1.83045 -0.648697 0
M  V30 1240 O 122.058 1.91308 0.350925 0
M  V30 1241 C 122.341 1.73971 -3.15287 0
M  V30 1242 C 122.194 0.85485 -4.41602 0
M  V30 1243 C 123.513 2.71296 -3.46535 0
M  V30 1244 H 120.632 0.333261 -0.657348 0
M  V30 1245 H 123.274 0.188198 -1.89066 0
M  V30 1246 H 121.424 2.36416 -3.08285 0
M  V30 1247 H 123.096 0.245362 -4.60647 0
M  V30 1248 H 121.339 0.161398 -4.335 0
M  V30 1249 H 122.01 1.46286 -5.32264 0
M  V30 1250 H 124.486 2.18983 -3.53816 0
M  V30 1251 H 123.362 3.2569 -4.41834 0
M  V30 1252 H 123.623 3.5018 -2.69864 0
M  V30 1253 N 122.682 1.50554 0.465978 0
M  V30 1254 C 124.093 1.54599 1.04671 0
M  V30 1255 C 124.444 0.352488 1.93008 0
M  V30 1256 O 123.569 -0.534044 2.09707 0
M  V30 1257 C 124.164 2.80166 1.90505 0
M  V30 1258 C 122.723 2.86876 2.43678 0
M  V30 1259 C 121.87 2.48947 1.22151 0
M  V30 1260 H 124.821 1.56744 0.248384 0
M  V30 1261 H 124.842 2.62311 2.75633 0
M  V30 1262 H 124.354 3.67013 1.26186 0
M  V30 1263 H 122.455 2.04393 3.11536 0
M  V30 1264 H 122.568 3.89885 2.78436 0
M  V30 1265 H 120.932 2.01498 1.5579 0
M  V30 1266 H 121.715 3.38107 0.594866 0
M  V30 1267 N 124.16 -0.719506 1.40217 0
M  V30 1268 C 125.123 -1.8153 1.39927 0
M  V30 1269 C 126.123 -1.58095 0.293723 0
M  V30 1270 O 127.313 -1.65209 0.552429 0
M  V30 1271 C 124.445 -3.19561 1.18716 0
M  V30 1272 H 125.638 -1.83186 2.37451 0
M  V30 1273 H 123.191 -0.924746 1.26008 0
M  V30 1274 H 123.926 -3.23557 0.219366 0
M  V30 1275 H 123.711 -3.3797 1.98793 0
M  V30 1276 H 125.201 -3.99598 1.21291 0
M  V30 1277 N 125.638 -1.25649 -0.95132 0
M  V30 1278 C 126.887 -1.09988 -1.69073 0
M  V30 1279 C 127.2 0.358355 -1.92289 0
M  V30 1280 O 128.406 0.635466 -2.63958 0
M  V30 1281 C 126.862 -1.92012 -3.044 0
M  V30 1282 C 126.47 -3.42347 -2.88968 0
M  V30 1283 C 128.214 -1.8493 -3.82101 0
M  V30 1284 C 126.121 -4.16655 -4.19705 0
M  V30 1285 H 125.051 -0.407993 -0.63408 0
M  V30 1286 H 127.702 -1.49873 -1.05879 0
M  V30 1287 H 126.084 -1.44952 -3.68517 0
M  V30 1288 H 127.258 -3.97104 -2.33762 0
M  V30 1289 H 125.573 -3.50557 -2.24719 0
M  V30 1290 H 128.17 -2.37739 -4.78941 0
M  V30 1291 H 128.513 -0.817883 -4.08187 0
M  V30 1292 H 129.046 -2.29758 -3.2474 0
M  V30 1293 H 125.785 -5.20224 -3.98807 0
M  V30 1294 H 125.305 -3.66681 -4.74663 0
M  V30 1295 H 126.984 -4.24551 -4.88227 0
M  V30 1296 N 127.117 1.15442 -1.07289 0
M  V30 1297 C 128.345 1.90096 -0.81676 0
M  V30 1298 C 128.76 1.7798 0.629966 0
M  V30 1299 O 128.117 1.1313 1.43206 0
M  V30 1300 C 128.168 3.40466 -1.21512 0
M  V30 1301 O 127.889 3.52232 -2.60508 0
M  V30 1302 C 129.39 4.32145 -0.988198 0
M  V30 1303 H 126.61 0.602495 -0.295366 0
M  V30 1304 H 129.154 1.4627 -1.42918 0
M  V30 1305 H 127.309 3.81958 -0.647039 0
M  V30 1306 H 127.723 4.45549 -2.76742 0
M  V30 1307 H 129.197 5.36072 -1.31645 0
M  V30 1308 H 129.674 4.39135 0.0755063 0
M  V30 1309 H 130.28 3.96395 -1.54115 0
M  V30 1310 N 128.595 0.856903 1.32268 0
M  V30 1311 C 130.006 0.515711 1.79436 0
M  V30 1312 C 130.357 -0.966586 1.70738 0
M  V30 1313 O 129.482 -1.75409 1.26731 0
M  V30 1314 C 130.077 0.929335 3.25805 0
M  V30 1315 C 128.636 0.640006 3.70919 0
M  V30 1316 C 127.783 1.12784 2.53328 0
M  V30 1317 H 130.734 1.04389 1.19535 0
M  V30 1318 H 130.755 0.246633 3.797 0
M  V30 1319 H 130.267 2.00821 3.32103 0
M  V30 1320 H 128.368 -0.428051 3.70133 0
M  V30 1321 H 128.481 1.20788 4.63624 0
M  V30 1322 H 126.845 0.548033 2.48734 0
M  V30 1323 H 127.628 2.21387 2.62379 0
M  V30 1324 N 130.073 -1.45103 0.615059 0
M  V30 1325 C 131.35 -1.95549 0.0448276 0
M  V30 1326 C 131.73 -1.55737 -1.4251 0
M  V30 1327 O 131.078 -0.823556 -2.13143 0
M  V30 1328 C 131.288 -3.48098 0.250785 0
M  V30 1329 C 132.636 -4.24384 0.135509 0
M  V30 1330 O 133.66 -3.55738 0.181299 0
M  V30 1331 O 132.519 -5.46493 0.0268878 0
M  V30 1332 H 129.613 -0.8264 -0.0314845 0
M  V30 1333 H 132.159 -1.55232 0.685642 0
M  V30 1334 H 130.931 -3.7007 1.27139 0
M  V30 1335 H 130.554 -3.95323 -0.424937 0
M  V30 1336 N 131.551 -0.354651 -1.53558 0
M  V30 1337 C 132.797 0.231422 -2.02079 0
M  V30 1338 C 133.152 1.47308 -1.23767 0
M  V30 1339 O 132.445 1.8891 -0.319947 0
M  V30 1340 C 132.639 0.587121 -3.52545 0
M  V30 1341 C 132.468 -0.618513 -4.45426 0
M  V30 1342 C 131.238 -1.12724 -4.92566 0
M  V30 1343 C 133.436 -1.48039 -4.92533 0
M  V30 1344 N 131.418 -2.29404 -5.69427 0
M  V30 1345 C 132.789 -2.49397 -5.67628 0
M  V30 1346 C 134.844 -1.50454 -4.74624 0
M  V30 1347 C 133.547 -3.53013 -6.26717 0
M  V30 1348 C 135.573 -2.52958 -5.34571 0
M  V30 1349 C 134.935 -3.5304 -6.09543 0
M  V30 1350 H 131.034 0.0476909 -0.780544 0
M  V30 1351 H 133.618 -0.496727 -1.88257 0
M  V30 1352 H 131.789 1.28436 -3.6655 0
M  V30 1353 H 133.521 1.15734 -3.87799 0
M  V30 1354 H 130.276 -0.693577 -4.68494 0
M  V30 1355 H 130.7 -2.88347 -6.12524 0
M  V30 1356 H 135.342 -0.744356 -4.16196 0
M  V30 1357 H 133.06 -4.2992 -6.84247 0
M  V30 1358 H 136.646 -2.55667 -5.22614 0
M  V30 1359 H 135.526 -4.31056 -6.55103 0
M  V30 1360 N 133.029 1.57378 -0.0835403 0
M  V30 1361 C 134.445 1.57246 0.273109 0
M  V30 1362 C 134.645 1.09385 1.69225 0
M  V30 1363 O 133.701 0.765051 2.40631 0
M  V30 1364 C 135.014 3.00614 0.0720628 0
M  V30 1365 C 136.562 3.12684 0.1407 0
M  V30 1366 C 137.037 4.57989 -0.0322094 0
M  V30 1367 N 138.528 4.63194 0.0230085 0
M  V30 1368 C 139.263 5.73335 -0.0861941 0
M  V30 1369 N 138.759 6.9235 -0.24958 0
M  V30 1370 N 140.552 5.62093 -0.0282886 0
M  V30 1371 H 132.703 1.86801 -1.0109 0
M  V30 1372 H 134.966 0.861687 -0.395222 0
M  V30 1373 H 134.672 3.39786 -0.907662 0
M  V30 1374 H 134.546 3.68193 0.81936 0
M  V30 1375 H 136.933 2.73391 1.11092 0
M  V30 1376 H 137.014 2.47719 -0.637896 0
M  V30 1377 H 136.658 4.97973 -0.999247 0
M  V30 1378 H 136.588 5.21 0.765937 0
M  V30 1379 H 139.079 3.77613 0.14722 0
M  V30 1380 H 139.392 7.72117 -0.324733 0
M  V30 1381 H 137.737 6.94415 -0.285097 0
M  V30 1382 H 140.928 4.67997 0.0981408 0
M  V30 1383 H 141.101 6.47895 -0.116845 0
M  V30 1384 N 134.507 -0.190092 1.56449 0
M  V30 1385 C 135.735 -0.925772 1.85033 0
M  V30 1386 C 136.15 -1.76638 0.666658 0
M  V30 1387 O 135.507 -1.78822 -0.364565 0
M  V30 1388 C 135.558 -1.81786 3.12468 0
M  V30 1389 O 135.279 -1.01118 4.26271 0
M  V30 1390 C 136.78 -2.6648 3.54265 0
M  V30 1391 H 134 -0.269872 0.614337 0
M  V30 1392 H 136.544 -0.195837 2.0356 0
M  V30 1393 H 134.699 -2.50136 2.95822 0
M  V30 1394 H 135.113 -1.61956 4.98869 0
M  V30 1395 H 136.587 -3.24722 4.46385 0
M  V30 1396 H 137.064 -3.40434 2.77491 0
M  V30 1397 H 137.67 -2.03493 3.73458 0
M  V30 1398 N 135.985 -1.50799 -0.457987 0
M  V30 1399 C 137.21 -1.66496 -1.23668 0
M  V30 1400 C 137.635 -0.353288 -1.84752 0
M  V30 1401 O 136.993 0.684346 -1.67888 0
M  V30 1402 C 137.041 -2.76763 -2.3116 0
M  V30 1403 O 136.145 -2.38928 -3.36136 0
M  V30 1404 H 135.486 -0.555828 -0.363252 0
M  V30 1405 H 138.016 -1.9725 -0.543474 0
M  V30 1406 H 138.026 -3.00232 -2.76269 0
M  V30 1407 H 136.701 -3.71954 -1.86073 0
M  V30 1408 H 135.278 -2.25953 -2.96647 0
M  V30 1409 N 137.463 0.71206 -1.40597 0
M  V30 1410 C 138.373 1.8562 -1.43466 0
M  V30 1411 C 139.389 1.70902 -0.326902 0
M  V30 1412 O 140.565 1.93105 -0.572043 0
M  V30 1413 C 137.63 3.21451 -1.29884 0
M  V30 1414 C 136.691 3.48398 -2.50833 0
M  V30 1415 C 135.924 4.77749 -2.3789 0
M  V30 1416 O 136.147 5.53089 -1.39459 0
M  V30 1417 O 135.081 5.05111 -3.27333 0
M  V30 1418 H 138.907 1.86155 -2.39958 0
M  V30 1419 H 136.492 0.86295 -1.21957 0
M  V30 1420 H 138.374 4.02579 -1.24531 0
M  V30 1421 H 137.049 3.21636 -0.364997 0
M  V30 1422 H 135.956 2.67265 -2.61763 0
M  V30 1423 H 137.289 3.53014 -3.4299 0
M  V30 1424 N 138.941 1.26152 0.944643 0
M  V30 1425 C 140.187 1.11657 1.69294 0
M  V30 1426 C 140.52 -0.339926 1.91202 0
M  V30 1427 O 139.795 -1.24994 1.49019 0
M  V30 1428 C 140.078 1.88236 3.06984 0
M  V30 1429 C 139.931 3.41772 2.92424 0
M  V30 1430 C 141.25 1.67343 4.07043 0
M  V30 1431 H 138.369 0.407004 0.614424 0
M  V30 1432 H 141.011 1.55106 1.09737 0
M  V30 1433 H 139.161 1.51308 3.57824 0
M  V30 1434 H 140.833 3.88433 2.48832 0
M  V30 1435 H 139.076 3.68974 2.28124 0
M  V30 1436 H 139.747 3.90579 3.90067 0
M  V30 1437 H 142.223 1.99509 3.65151 0
M  V30 1438 H 141.099 2.23346 5.01406 0
M  V30 1439 H 141.36 0.617158 4.37771 0
M  V30 1440 N 140.419 -1.14872 1.07899 0
M  V30 1441 C 141.351 -2.19425 0.662231 0
M  V30 1442 C 142.364 -1.60231 -0.288079 0
M  V30 1443 O 143.553 -1.78336 -0.076534 0
M  V30 1444 C 140.653 -3.38867 -0.0470695 0
M  V30 1445 C 139.826 -4.27597 0.920831 0
M  V30 1446 C 138.885 -5.25616 0.247805 0
M  V30 1447 O 137.911 -5.62189 0.890599 0
M  V30 1448 N 139.113 -5.71746 -1.00435 0
M  V30 1449 H 141.878 -2.55797 1.56166 0
M  V30 1450 H 139.439 -1.30042 0.964404 0
M  V30 1451 H 141.431 -4.01497 -0.50813 0
M  V30 1452 H 140.001 -3.00864 -0.848523 0
M  V30 1453 H 139.221 -3.61982 1.56087 0
M  V30 1454 H 140.509 -4.83748 1.57688 0
M  V30 1455 H 139.907 -5.44153 -1.54642 0
M  V30 1456 H 138.464 -6.36389 -1.40899 0
M  V30 1457 N 141.898 -0.863906 -1.31812 0
M  V30 1458 C 143.314 -0.555004 -1.49639 0
M  V30 1459 C 143.514 0.912266 -1.79666 0
M  V30 1460 O 142.57 1.69479 -1.87171 0
M  V30 1461 C 143.883 -1.44998 -2.63431 0
M  V30 1462 C 145.431 -1.45138 -2.77316 0
M  V30 1463 C 145.906 -2.33179 -3.94197 0
M  V30 1464 N 147.397 -2.31025 -4.01474 0
M  V30 1465 C 148.132 -2.95871 -4.9117 0
M  V30 1466 N 147.628 -3.69863 -5.8581 0
M  V30 1467 N 149.421 -2.85211 -4.84367 0
M  V30 1468 H 141.572 -1.81339 -1.10589 0
M  V30 1469 H 143.835 -0.77505 -0.545895 0
M  V30 1470 H 143.541 -2.49377 -2.48 0
M  V30 1471 H 143.415 -1.14409 -3.59431 0
M  V30 1472 H 145.802 -0.415201 -2.92164 0
M  V30 1473 H 145.883 -1.79747 -1.82001 0
M  V30 1474 H 145.527 -3.3687 -3.80107 0
M  V30 1475 H 145.457 -1.95897 -4.88807 0
M  V30 1476 H 147.948 -1.77238 -3.33759 0
M  V30 1477 H 148.261 -4.16486 -6.50968 0
M  V30 1478 H 146.606 -3.73971 -5.85808 0
M  V30 1479 H 149.797 -2.26948 -4.09405 0
M  V30 1480 H 149.97 -3.36027 -5.54066 0
M  V30 1481 N 143.376 1.44774 -0.622745 0
M  V30 1482 C 144.624 2.01721 -0.123655 0
M  V30 1483 C 144.945 1.49172 1.25589 0
M  V30 1484 O 144.215 0.691974 1.83272 0
M  V30 1485 H 142.795 0.745777 -0.0427225 0
M  V30 1486 H 145.457 1.77382 -0.807559 0
M  V30 1487 H 144.553 3.11984 -0.0849534 0
M  V30 1488 N 144.854 0.36279 1.53368 0
M  V30 1489 C 146.084 -0.228281 2.05335 0
M  V30 1490 C 146.492 -1.43226 1.23625 0
M  V30 1491 O 145.835 -1.81717 0.269206 0
M  V30 1492 C 145.897 -0.688549 3.52845 0
M  V30 1493 C 145.561 0.398362 4.5526 0
M  V30 1494 C 146.558 1.24732 5.04716 0
M  V30 1495 C 144.243 0.557805 4.99193 0
M  V30 1496 C 146.237 2.2411 5.96702 0
M  V30 1497 C 143.924 1.55495 5.90986 0
M  V30 1498 C 144.922 2.39503 6.39631 0
M  V30 1499 O 144.61 3.37517 7.29615 0
M  V30 1500 H 144.342 -0.044395 0.674541 0
M  V30 1501 H 146.896 0.518668 1.98744 0
M  V30 1502 H 145.126 -1.48706 3.56964 0
M  V30 1503 H 146.815 -1.20231 3.87685 0
M  V30 1504 H 147.581 1.13532 4.71525 0
M  V30 1505 H 143.46 -0.0862959 4.60919 0
M  V30 1506 H 147.004 2.89718 6.34594 0
M  V30 1507 H 142.901 1.66744 6.23592 0
M  V30 1508 H 143.669 3.33213 7.47604 0
M  V30 1509 N 146.332 -1.57332 0.0918853 0
M  V30 1510 C 147.282 -2.10385 -0.87876 0
M  V30 1511 C 148.266 -1.01814 -1.24591 0
M  V30 1512 O 149.458 -1.28093 -1.22152 0
M  V30 1513 C 146.587 -2.68517 -2.13901 0
M  V30 1514 C 145.673 -3.84126 -1.79744 0
M  V30 1515 N 146.064 -4.92288 -1.1613 0
M  V30 1516 C 144.362 -3.93801 -2.09373 0
M  V30 1517 C 145.063 -5.7295 -1.00513 0
M  V30 1518 N 144.039 -5.21876 -1.5214 0
M  V30 1519 H 147.841 -2.91395 -0.38293 0
M  V30 1520 H 145.355 -1.62017 -0.111423 0
M  V30 1521 H 147.352 -3.04852 -2.84378 0
M  V30 1522 H 146.012 -1.88961 -2.64053 0
M  V30 1523 H 147.023 -5.1123 -0.828504 0
M  V30 1524 H 143.7 -3.25249 -2.61762 0
M  V30 1525 H 145.09 -6.69978 -0.507902 0
M  V30 1526 N 147.81 0.181792 -1.56548 0
M  V30 1527 C 148.742 1.24956 -1.92142 0
M  V30 1528 C 149.755 1.41022 -0.813422 0
M  V30 1529 O 150.944 1.41212 -1.09186 0
M  V30 1530 C 148.044 2.61981 -2.14987 0
M  V30 1531 C 147.217 2.6735 -3.46183 0
M  V30 1532 C 146.276 3.85664 -3.5798 0
M  V30 1533 O 145.302 3.72148 -4.30691 0
M  V30 1534 N 146.504 5.01683 -2.92053 0
M  V30 1535 H 149.269 0.947329 -2.84334 0
M  V30 1536 H 146.83 0.371629 -1.57577 0
M  V30 1537 H 148.822 3.3958 -2.20154 0
M  V30 1538 H 147.392 2.84637 -1.2923 0
M  V30 1539 H 146.612 1.75925 -3.52766 0
M  V30 1540 H 147.9 2.67939 -4.32534 0
M  V30 1541 H 147.298 5.15564 -2.32832 0
M  V30 1542 H 145.855 5.77181 -3.0283 0
M  V30 1543 N 149.288 1.51039 0.449983 0
M  V30 1544 C 150.238 1.67824 1.54335 0
M  V30 1545 C 151.222 0.5324 1.51836 0
M  V30 1546 O 152.414 0.787762 1.58503 0
M  V30 1547 C 149.543 1.7951 2.92628 0
M  V30 1548 C 148.629 2.99838 2.9993 0
M  V30 1549 N 149.02 4.23207 2.77001 0
M  V30 1550 C 147.318 2.98832 3.31082 0
M  V30 1551 C 148.019 5.04361 2.89818 0
M  V30 1552 N 146.995 4.38746 3.2094 0
M  V30 1553 H 150.797 2.60884 1.35339 0
M  V30 1554 H 148.311 1.48513 0.657085 0
M  V30 1555 H 150.308 1.89642 3.7127 0
M  V30 1556 H 148.968 0.876227 3.12654 0
M  V30 1557 H 149.979 4.5236 2.52172 0
M  V30 1558 H 146.656 2.16527 3.56963 0
M  V30 1559 H 148.046 6.12528 2.76151 0
M  V30 1560 N 150.766 -0.704594 1.40972 0
M  V30 1561 C 151.991 -1.49858 1.43378 0
M  V30 1562 C 152.416 -1.88061 0.038184 0
M  V30 1563 O 151.774 -1.5402 -0.956425 0
M  V30 1564 C 151.822 -2.74333 2.34038 0
M  V30 1565 O 150.926 -3.7147 1.7912 0
M  V30 1566 H 150.267 -0.45139 0.486974 0
M  V30 1567 H 152.797 -0.866832 1.8533 0
M  V30 1568 H 152.807 -3.22741 2.49604 0
M  V30 1569 H 151.482 -2.45863 3.35446 0
M  V30 1570 H 150.059 -3.30363 1.72958 0
M  V30 1571 N 152.244 -1.26651 -0.937939 0
M  V30 1572 C 153.492 -1.12165 -1.68118 0
M  V30 1573 C 153.813 0.334983 -1.92101 0
M  V30 1574 O 153.083 1.23583 -1.52 0
M  V30 1575 H 151.663 -0.412093 -0.623048 0
M  V30 1576 H 154.325 -1.59027 -1.12678 0
M  V30 1577 H 153.421 -1.64289 -2.6536 0
M  V30 1578 N 153.722 1.14298 -1.08507 0
M  V30 1579 C 154.97 1.84993 -0.813763 0
M  V30 1580 C 155.291 1.83405 0.662393 0
M  V30 1581 O 154.561 1.28319 1.48024 0
M  V30 1582 H 153.141 0.684966 -0.298045 0
M  V30 1583 H 155.803 1.385 -1.37126 0
M  V30 1584 H 154.899 2.89788 -1.15884 0
M  V30 1585 N 155.201 0.870884 1.31352 0
M  V30 1586 C 156.134 0.271983 2.26573 0
M  V30 1587 C 157.112 -0.599385 1.51149 0
M  V30 1588 O 158.296 -0.552605 1.80218 0
M  V30 1589 C 155.423 -0.614801 3.33073 0
M  V30 1590 C 154.469 0.185342 4.26097 0
M  V30 1591 S 155.302 1.56444 5.12138 0
M  V30 1592 C 156.458 0.683807 6.22153 0
M  V30 1593 H 156.691 1.07916 2.77023 0
M  V30 1594 H 154.224 0.669459 1.39132 0
M  V30 1595 H 156.182 -1.12074 3.94905 0
M  V30 1596 H 154.843 -1.39593 2.81376 0
M  V30 1597 H 154.036 -0.490771 5.01605 0
M  V30 1598 H 153.638 0.623415 3.68768 0
M  V30 1599 H 155.93 -0.10521 6.77418 0
M  V30 1600 H 156.873 1.41004 6.93919 0
M  V30 1601 H 157.281 0.250952 5.63942 0
M  V30 1602 N 156.679 -1.44442 0.630414 0
M  V30 1603 C 157.609 -2.33418 -0.0618083 0
M  V30 1604 C 158.59 -1.48165 -0.835541 0
M  V30 1605 O 159.775 -1.76886 -0.801564 0
M  V30 1606 C 156.905 -3.31222 -1.04449 0
M  V30 1607 C 155.859 -4.26288 -0.382436 0
M  V30 1608 C 155.185 -5.13954 -1.47497 0
M  V30 1609 C 156.485 -5.1744 0.710865 0
M  V30 1610 H 158.179 -2.91548 0.681184 0
M  V30 1611 H 155.725 -1.40191 0.329026 0
M  V30 1612 H 157.678 -3.92351 -1.53748 0
M  V30 1613 H 156.402 -2.71299 -1.81836 0
M  V30 1614 H 155.061 -3.6649 0.0899054 0
M  V30 1615 H 154.709 -4.50385 -2.2397 0
M  V30 1616 H 154.409 -5.7837 -1.03737 0
M  V30 1617 H 155.933 -5.77955 -1.96979 0
M  V30 1618 H 157.347 -5.72509 0.300996 0
M  V30 1619 H 155.744 -5.90455 1.07156 0
M  V30 1620 H 156.814 -4.58496 1.57829 0
M  V30 1621 N 158.157 -0.370918 -1.53173 0
M  V30 1622 C 159.12 0.460778 -2.24521 0
M  V30 1623 C 160.12 1.00536 -1.25496 0
M  V30 1624 O 161.31 0.890266 -1.49733 0
M  V30 1625 C 158.442 1.64457 -2.98608 0
M  V30 1626 H 159.635 -0.163613 -2.99453 0
M  V30 1627 H 157.188 -0.122699 -1.55818 0
M  V30 1628 H 157.923 2.30691 -2.2793 0
M  V30 1629 H 157.708 1.26099 -3.7127 0
M  V30 1630 H 159.198 2.23384 -3.5283 0
M  V30 1631 N 159.635 1.57281 -0.100228 0
M  V30 1632 C 160.883 1.94153 0.561157 0
M  V30 1633 C 161.204 0.983157 1.68401 0
M  V30 1634 O 160.474 0.0361132 1.95867 0
M  V30 1635 H 159.054 0.716791 0.210283 0
M  V30 1636 H 161.716 1.94202 -0.164765 0
M  V30 1637 H 160.812 2.96709 0.968008 0
M  V30 1638 N 161.113 -0.173488 1.56642 0
M  V30 1639 C 162.359 -0.887108 1.83035 0
M  V30 1640 C 162.714 -1.79965 0.680461 0
M  V30 1641 O 162.007 -1.88854 -0.323225 0
M  V30 1642 C 162.201 -1.72069 3.13252 0
M  V30 1643 C 162.03 -0.89035 4.40798 0
M  V30 1644 C 160.8 -0.566282 5.02117 0
M  V30 1645 C 162.998 -0.232921 5.13772 0
M  V30 1646 N 160.98 0.280427 6.13259 0
M  V30 1647 C 162.351 0.475046 6.18177 0
M  V30 1648 C 164.406 -0.150863 4.97671 0
M  V30 1649 C 163.109 1.25729 7.08227 0
M  V30 1650 C 165.135 0.618039 5.88162 0
M  V30 1651 C 164.497 1.31438 6.92029 0
M  V30 1652 H 160.596 -0.303303 0.720785 0
M  V30 1653 H 163.18 -0.154244 1.94088 0
M  V30 1654 H 161.351 -2.42499 3.03395 0
M  V30 1655 H 163.083 -2.37545 3.2765 0
M  V30 1656 H 159.838 -0.895852 4.6505 0
M  V30 1657 H 160.262 0.694027 6.73433 0
M  V30 1658 H 164.904 -0.674868 4.17379 0
M  V30 1659 H 162.622 1.79265 7.87966 0
M  V30 1660 H 166.208 0.683173 5.77775 0
M  V30 1661 H 165.088 1.89981 7.6084 0
M  V30 1662 N 162.591 -1.51276 -0.441967 0
M  V30 1663 C 163.538 -1.72256 -1.53612 0
M  V30 1664 C 164.508 -0.564164 -1.56225 0
M  V30 1665 O 165.693 -0.798074 -1.73307 0
M  V30 1666 C 162.833 -1.84932 -2.91366 0
M  V30 1667 C 161.946 -3.12459 -2.98317 0
M  V30 1668 C 161.081 -3.15758 -4.27166 0
M  V30 1669 C 160.12 -4.37619 -4.27967 0
M  V30 1670 N 159.257 -4.38493 -5.48333 0
M  V30 1671 H 164.097 -2.65654 -1.35026 0
M  V30 1672 H 161.634 -1.31662 -0.656009 0
M  V30 1673 H 163.592 -1.90263 -3.7129 0
M  V30 1674 H 162.222 -0.949461 -3.08521 0
M  V30 1675 H 161.274 -3.1646 -2.11086 0
M  V30 1676 H 162.586 -4.02382 -2.94771 0
M  V30 1677 H 161.74 -3.19979 -5.15459 0
M  V30 1678 H 160.479 -2.23715 -4.33362 0
M  V30 1679 H 159.484 -4.33579 -3.38067 0
M  V30 1680 H 160.709 -5.30921 -4.23438 0
M  V30 1681 H 158.655 -3.49318 -5.55259 0
M  V30 1682 H 158.572 -5.22219 -5.46647 0
M  V30 1683 H 159.84 -4.469 -6.38671 0
M  V30 1684 N 164.069 0.697108 -1.41344 0
M  V30 1685 C 165.316 1.45714 -1.40619 0
M  V30 1686 C 165.644 1.94494 -0.0147907 0
M  V30 1687 O 164.899 1.69794 0.973066 0
M  V30 1688 C 165.198 2.68553 -2.35826 0
M  V30 1689 C 164.864 2.38438 -3.82698 0
M  V30 1690 C 163.526 2.29936 -4.22709 0
M  V30 1691 C 165.878 2.13567 -4.75435 0
M  V30 1692 C 163.206 1.94656 -5.53467 0
M  V30 1693 C 165.558 1.79797 -6.06511 0
M  V30 1694 C 164.222 1.69789 -6.45545 0
M  V30 1695 H 163.492 0.533206 -0.51456 0
M  V30 1696 H 166.139 0.796901 -1.74131 0
M  V30 1697 H 164.444 3.39503 -1.95563 0
M  V30 1698 H 166.141 3.2669 -2.32539 0
M  V30 1699 H 162.731 2.4595 -3.51008 0
M  V30 1700 H 166.915 2.19082 -4.45328 0
M  V30 1701 H 162.171 1.8546 -5.82593 0
M  V30 1702 H 166.345 1.59572 -6.77872 0
M  V30 1703 H 163.972 1.4222 -7.46778 0
M  V30 1704 N 165.547 1.27147 0.931209 0
M  V30 1705 C 166.772 1.16191 1.71797 0
M  V30 1706 C 167.197 -0.278004 1.86034 0
M  V30 1707 O 166.555 -1.20137 1.35782 0
M  V30 1708 C 166.603 1.84673 3.09723 0
M  V30 1709 O 165.707 1.14231 3.96264 0
M  V30 1710 H 165.048 0.404303 0.526721 0
M  V30 1711 H 167.578 1.68152 1.1656 0
M  V30 1712 H 167.588 1.91893 3.60057 0
M  V30 1713 H 166.263 2.89421 2.98677 0
M  V30 1714 H 164.84 1.15056 3.54706 0
M  V30 1715 N 167.025 -1.13721 1.09112 0
M  V30 1716 C 167.973 -2.21103 0.722219 0
M  V30 1717 C 168.967 -1.67147 -0.275374 0
M  V30 1718 O 170.173 -1.79477 -0.137176 0
M  V30 1719 H 166.548 -0.720445 0.215553 0
M  V30 1720 H 168.519 -2.49483 1.63709 0
M  V30 1721 C 167.268 -3.47352 0.15543 0
M  V30 1722 H 166.591 -3.89206 0.914246 0
M  V30 1723 H 168.031 -4.2395 -0.0647967 0
M  V30 1724 C 166.49 -3.1814 -1.10852 0
M  V30 1725 O 167.02 -3.36604 -2.19227 0
M  V30 1726 N 165.226 -2.72045 -1.02176 0
M  V30 1727 H 164.773 -2.57221 -0.139764 0
M  V30 1728 H 164.731 -2.52875 -1.8682 0
M  V30 1729 N 168.503 -0.877838 -1.30888 0
M  V30 1730 C 169.749 -0.493426 -1.96706 0
M  V30 1731 C 170.082 0.953504 -1.6918 0
M  V30 1732 O 169.357 1.67266 -0.992594 0
M  V30 1733 C 169.64 -0.760429 -3.51979 0
M  V30 1734 C 169.493 -2.25747 -3.89048 0
M  V30 1735 C 170.812 -0.232148 -4.39487 0
M  V30 1736 H 167.931 -0.180746 -0.714493 0
M  V30 1737 H 170.573 -1.10052 -1.54882 0
M  V30 1738 H 168.723 -0.243715 -3.87735 0
M  V30 1739 H 170.395 -2.84204 -3.63354 0
M  V30 1740 H 168.638 -2.72694 -3.37373 0
M  V30 1741 H 169.309 -2.39491 -4.97341 0
M  V30 1742 H 171.785 -0.674314 -4.106 0
M  V30 1743 H 170.661 -0.448355 -5.47066 0
M  V30 1744 H 170.922 0.866297 -4.33529 0
M  V30 1745 N 169.982 1.44106 -0.638065 0
M  V30 1746 C 170.929 2.30715 0.062701 0
M  V30 1747 C 171.899 1.43882 0.829883 0
M  V30 1748 O 173.084 1.72775 0.809532 0
M  V30 1749 C 170.224 3.29258 1.03358 0
M  V30 1750 C 169.337 4.31192 0.26409 0
M  V30 1751 C 168.472 5.16825 1.22741 0
M  V30 1752 C 167.511 6.10462 0.447475 0
M  V30 1753 N 166.648 6.8877 1.36161 0
M  V30 1754 H 171.488 2.90096 -0.681781 0
M  V30 1755 H 169.025 1.42925 -0.347988 0
M  V30 1756 H 170.983 3.84886 1.60992 0
M  V30 1757 H 169.613 2.71562 1.74511 0
M  V30 1758 H 168.665 3.77981 -0.428295 0
M  V30 1759 H 169.977 4.97619 -0.343052 0
M  V30 1760 H 169.131 5.77004 1.87487 0
M  V30 1761 H 167.87 4.50488 1.86847 0
M  V30 1762 H 166.875 5.49386 -0.213433 0
M  V30 1763 H 168.1 6.78837 -0.188968 0
M  V30 1764 H 166.046 6.25096 1.98975 0
M  V30 1765 H 165.963 7.51663 0.808656 0
M  V30 1766 H 167.231 7.53467 1.99769 0
M  V30 1767 N 171.46 0.379036 1.52974 0
M  V30 1768 C 172.737 -0.263479 1.93817 0
M  V30 1769 C 173.117 -1.65244 1.31368 0
M  V30 1770 O 172.465 -2.23448 0.477856 0
M  V30 1771 C 172.675 -0.300166 3.47707 0
M  V30 1772 C 174.023 -0.534061 4.21228 0
M  V30 1773 O 175.047 -0.38081 3.54159 0
M  V30 1774 O 173.906 -0.833501 5.40106 0
M  V30 1775 H 171 -0.161149 0.811147 0
M  V30 1776 H 173.546 0.432798 1.64088 0
M  V30 1777 H 172.318 0.673138 3.85467 0
M  V30 1778 H 171.941 -1.04179 3.83709 0
M  V30 1779 N 172.938 -1.57226 0.108567 0
M  V30 1780 C 174.186 -1.94448 -0.550853 0
M  V30 1781 C 174.507 -0.992074 -1.67878 0
M  V30 1782 O 173.777 -0.0465 -1.95845 0
M  V30 1783 H 172.357 -0.717897 -0.206479 0
M  V30 1784 H 175.019 -1.94112 0.175062 0
M  V30 1785 H 174.115 -2.97218 -0.952259 0
M  V30 1786 N 174.416 0.165178 -1.56732 0
M  V30 1787 C 175.662 0.882112 -1.82611 0
M  V30 1788 C 175.995 1.81628 -0.687378 0
M  V30 1789 O 175.27 1.92009 0.310267 0
M  V30 1790 C 175.553 1.67245 -3.18906 0
M  V30 1791 C 175.406 0.760987 -4.43316 0
M  V30 1792 C 176.725 2.63884 -3.52212 0
M  V30 1793 H 173.844 0.319242 -0.664269 0
M  V30 1794 H 176.486 0.148052 -1.89422 0
M  V30 1795 H 174.636 2.29824 -3.1323 0
M  V30 1796 H 176.308 0.147596 -4.61064 0
M  V30 1797 H 174.551 0.0694102 -4.33744 0
M  V30 1798 H 175.222 1.34962 -5.35247 0
M  V30 1799 H 177.698 2.11429 -3.58381 0
M  V30 1800 H 176.574 3.16245 -4.48643 0
M  V30 1801 H 176.835 3.44377 -2.77231 0
M  V30 1802 N 175.894 1.51508 0.433938 0
M  V30 1803 C 177.141 1.64345 1.18309 0
M  V30 1804 C 177.469 0.361315 1.91115 0
M  V30 1805 O 176.724 -0.654753 1.84422 0
M  V30 1806 C 177.023 2.79928 2.22205 0
M  V30 1807 C 176.689 4.19078 1.66387 0
M  V30 1808 C 175.351 4.56932 1.50887 0
M  V30 1809 C 177.703 5.05894 1.25381 0
M  V30 1810 C 175.031 5.79305 0.928608 0
M  V30 1811 C 177.383 6.2885 0.687823 0
M  V30 1812 C 176.047 6.65473 0.519755 0
M  V30 1813 H 175.317 0.601381 0.432923 0
M  V30 1814 H 177.964 1.85549 0.473676 0
M  V30 1815 H 176.269 2.52959 2.99197 0
M  V30 1816 H 177.966 2.87059 2.79997 0
M  V30 1817 H 174.556 3.89234 1.79428 0
M  V30 1818 H 178.74 4.77253 1.36175 0
M  V30 1819 H 173.996 6.06324 0.786186 0
M  V30 1820 H 178.17 6.95461 0.361581 0
M  V30 1821 H 175.797 7.6017 0.0679979 0
M  V30 1822 N 177.372 -0.689602 1.41712 0
M  V30 1823 C 178.62 -1.4468 1.4111 0
M  V30 1824 C 178.941 -1.94986 0.0232196 0
M  V30 1825 O 178.211 -1.72097 -0.935913 0
M  V30 1826 H 176.791 -0.536847 0.519427 0
M  V30 1827 H 179.453 -0.815825 1.77004 0
M  V30 1828 H 178.549 -2.30706 2.10193 0
M  V30 1829 N 178.85 -1.27639 -0.924453 0
M  V30 1830 C 179.76 -1.12466 -2.05885 0
M  V30 1831 C 180.776 -0.053869 -1.73917 0
M  V30 1832 O 181.952 -0.261012 -1.99702 0
M  V30 1833 C 179.017 -0.776768 -3.37886 0
M  V30 1834 C 178.078 -1.92878 -3.83532 0
M  V30 1835 C 177.311 -1.59739 -5.09234 0
M  V30 1836 O 177.534 -0.506782 -5.68144 0
M  V30 1837 O 176.468 -2.43761 -5.50331 0
M  V30 1838 H 180.294 -2.07671 -2.21599 0
M  V30 1839 H 177.879 -1.06857 -1.04413 0
M  V30 1840 H 179.761 -0.596229 -4.17161 0
M  V30 1841 H 178.436 0.145732 -3.23372 0
M  V30 1842 H 177.343 -2.1644 -3.0513 0
M  V30 1843 H 178.676 -2.8316 -4.02593 0
M  V30 1844 N 180.328 1.1314 -1.09713 0
M  V30 1845 C 181.575 1.84484 -0.834987 0
M  V30 1846 C 181.903 1.83689 0.639418 0
M  V30 1847 O 181.158 1.2724 1.4869 0
M  V30 1848 C 181.457 3.32167 -1.3191 0
M  V30 1849 C 181.123 3.53139 -2.80363 0
M  V30 1850 C 179.785 3.58571 -3.20905 0
M  V30 1851 C 182.137 3.60866 -3.76065 0
M  V30 1852 C 179.465 3.69267 -4.55916 0
M  V30 1853 C 181.817 3.73089 -5.10869 0
M  V30 1854 C 180.481 3.76775 -5.50996 0
M  V30 1855 H 179.751 0.675073 -0.305544 0
M  V30 1856 H 182.398 1.33554 -1.37243 0
M  V30 1857 H 180.703 3.85469 -0.701517 0
M  V30 1858 H 182.4 3.85821 -1.09284 0
M  V30 1859 H 178.99 3.49569 -2.47991 0
M  V30 1860 H 183.174 3.55946 -3.45855 0
M  V30 1861 H 178.43 3.70388 -4.86438 0
M  V30 1862 H 182.604 3.78011 -5.84877 0
M  V30 1863 H 180.231 3.84815 -6.55608 0
M  V30 1864 N 181.806 0.884767 1.30421 0
M  V30 1865 C 183.053 0.503105 1.96151 0
M  V30 1866 C 183.381 -0.947676 1.69851 0
M  V30 1867 O 182.636 -1.68467 0.995861 0
M  V30 1868 C 182.935 0.724318 3.49983 0
M  V30 1869 C 182.601 2.15015 3.96332 0
M  V30 1870 C 181.263 2.54005 4.08699 0
M  V30 1871 C 183.615 3.07936 4.20505 0
M  V30 1872 C 180.943 3.85128 4.42599 0
M  V30 1873 C 183.295 4.3859 4.55874 0
M  V30 1874 C 181.959 4.77474 4.66449 0
M  V30 1875 H 181.229 0.184099 0.717766 0
M  V30 1876 H 183.876 1.12058 1.55291 0
M  V30 1877 H 182.181 0.0238086 3.91793 0
M  V30 1878 H 183.878 0.408617 3.98913 0
M  V30 1879 H 180.468 1.8375 3.87213 0
M  V30 1880 H 184.652 2.79033 4.10431 0
M  V30 1881 H 179.908 4.14996 4.48986 0
M  V30 1882 H 184.082 5.10629 4.7353 0
M  V30 1883 H 181.709 5.79115 4.92473 0
M  V30 1884 N 183.284 -1.43765 0.645699 0
M  V30 1885 C 184.234 -2.27884 -0.0726442 0
M  V30 1886 C 185.218 -1.39483 -0.802086 0
M  V30 1887 O 186.41 -1.63174 -0.685791 0
M  V30 1888 C 183.539 -3.27055 -1.04356 0
M  V30 1889 C 182.625 -4.22944 -0.312985 0
M  V30 1890 N 183.016 -5.01391 0.666386 0
M  V30 1891 C 181.314 -4.42528 -0.55546 0
M  V30 1892 C 182.015 -5.71217 1.09935 0
M  V30 1893 N 180.991 -5.41856 0.435137 0
M  V30 1894 H 184.793 -2.85949 0.678988 0
M  V30 1895 H 182.307 -1.55378 0.472368 0
M  V30 1896 H 184.304 -3.86089 -1.57292 0
M  V30 1897 H 182.964 -2.70551 -1.79534 0
M  V30 1898 H 183.975 -5.07252 1.04481 0
M  V30 1899 H 180.652 -3.97104 -1.28899 0
M  V30 1900 H 182.042 -6.44202 1.90929 0
M  V30 1901 N 184.763 -0.387143 -1.52771 0
M  V30 1902 C 186.009 0.196025 -2.0185 0
M  V30 1903 C 186.342 1.46641 -1.27319 0
M  V30 1904 O 185.617 1.90889 -0.373032 0
M  V30 1905 C 185.9 0.466136 -3.5707 0
M  V30 1906 C 185.753 -0.819385 -4.42274 0
M  V30 1907 C 187.072 1.25768 -4.21747 0
M  V30 1908 H 184.191 0.0697708 -0.73369 0
M  V30 1909 H 186.833 -0.516286 -1.82851 0
M  V30 1910 H 184.983 1.07293 -3.7339 0
M  V30 1911 H 186.655 -1.4563 -4.37709 0
M  V30 1912 H 184.898 -1.43517 -4.09372 0
M  V30 1913 H 185.569 -0.585065 -5.48891 0
M  V30 1914 H 188.045 0.744167 -4.09391 0
M  V30 1915 H 186.921 1.41541 -5.30337 0
M  V30 1916 H 187.182 2.27228 -3.79236 0
M  V30 1917 N 186.241 1.57166 -0.116904 0
M  V30 1918 C 187.189 2.16457 0.851418 0
M  V30 1919 C 188.183 1.11323 1.27686 0
M  V30 1920 O 189.389 1.2963 1.24884 0
M  V30 1921 H 185.764 0.69271 0.292672 0
M  V30 1922 H 187.735 2.96605 0.32685 0
M  V30 1923 C 186.484 2.77689 2.09246 0
M  V30 1924 H 185.807 3.58285 1.77402 0
M  V30 1925 H 187.247 3.22716 2.7501 0
M  V30 1926 C 185.706 1.74667 2.88085 0
M  V30 1927 O 186.236 1.19877 3.83396 0
M  V30 1928 N 184.442 1.44656 2.52038 0
M  V30 1929 H 183.989 1.89402 1.74599 0
M  V30 1930 H 183.947 0.759675 3.05084 0
M  V30 1931 N 187.719 -0.156864 1.56817 0
M  V30 1932 C 188.996 -0.899244 1.73704 0
M  V30 1933 C 189.376 -1.99771 0.682254 0
M  V30 1934 O 188.724 -2.26515 -0.300522 0
M  V30 1935 C 188.934 -1.45075 3.17418 0
M  V30 1936 C 190.282 -1.91802 3.7881 0
M  V30 1937 O 191.306 -1.54838 3.20786 0
M  V30 1938 O 190.165 -2.5994 4.80722 0
M  V30 1939 H 187.259 -0.424267 0.709878 0
M  V30 1940 H 189.805 -0.143561 1.69092 0
M  V30 1941 H 188.577 -0.660846 3.85679 0
M  V30 1942 H 188.2 -2.27021 3.26416 0
M  V30 1943 N 189.197 -1.51736 -0.425897 0
M  V30 1944 C 190.16 -1.73271 -1.50032 0
M  V30 1945 C 191.16 -0.602639 -1.4908 0
M  V30 1946 O 192.35 -0.87033 -1.509 0
M  V30 1947 C 189.482 -1.79969 -2.89523 0
M  V30 1948 H 190.675 -2.69172 -1.32237 0
M  V30 1949 H 188.228 -1.41899 -0.65532 0
M  V30 1950 H 188.963 -0.859241 -3.1271 0
M  V30 1951 H 188.748 -2.62109 -2.91619 0
M  V30 1952 H 190.238 -1.9843 -3.67444 0
M  V30 1953 N 190.675 0.682077 -1.42076 0
M  V30 1954 C 191.952 1.43755 -1.32642 0
M  V30 1955 C 192.332 2.11063 0.0396611 0
M  V30 1956 O 191.68 2.02701 1.05474 0
M  V30 1957 C 191.89 2.44596 -2.48946 0
M  V30 1958 C 193.238 3.09454 -2.9073 0
M  V30 1959 O 194.262 2.54922 -2.48783 0
M  V30 1960 O 193.121 4.08253 -3.63307 0
M  V30 1961 H 190.215 0.640857 -0.522715 0
M  V30 1962 H 192.761 0.711415 -1.54068 0
M  V30 1963 H 191.533 1.93609 -3.40046 0
M  V30 1964 H 191.156 3.24701 -2.29467 0
M  V30 1965 N 192.153 1.28127 0.917671 0
M  V30 1966 C 193.086 1.06039 2.02067 0
M  V30 1967 C 194.064 -0.0223285 1.62585 0
M  V30 1968 O 195.248 0.124823 1.88086 0
M  V30 1969 C 192.375 0.610596 3.33151 0
M  V30 1970 C 191.421 1.68937 3.91615 0
M  V30 1971 S 192.254 3.28437 4.22953 0
M  V30 1972 C 193.41 2.85283 5.57103 0
M  V30 1973 H 193.643 1.99425 2.20493 0
M  V30 1974 H 191.176 1.12071 1.06205 0
M  V30 1975 H 193.134 0.357778 4.08938 0
M  V30 1976 H 191.795 -0.303364 3.12632 0
M  V30 1977 H 190.988 1.32619 4.86239 0
M  V30 1978 H 190.59 1.89478 3.2245 0
M  V30 1979 H 192.882 2.3121 6.36827 0
M  V30 1980 H 193.825 3.7869 5.98331 0
M  V30 1981 H 194.233 2.24118 5.18104 0
M  V30 1982 N 193.631 -1.12557 1.10312 0
M  V30 1983 C 194.579 -2.20325 0.745629 0
M  V30 1984 C 195.573 -1.67429 -0.25763 0
M  V30 1985 O 196.779 -1.79612 -0.118132 0
M  V30 1986 H 193.154 -0.718118 0.223182 0
M  V30 1987 H 195.125 -2.47733 1.66346 0
M  V30 1988 C 193.874 -3.47168 0.192262 0
M  V30 1989 H 193.197 -3.88215 0.955475 0
M  V30 1990 H 194.637 -4.23995 -0.0198274 0
M  V30 1991 C 193.096 -3.19298 -1.07472 0
M  V30 1992 O 193.626 -3.3891 -2.15645 0
M  V30 1993 N 191.832 -2.73113 -0.992847 0
M  V30 1994 H 191.379 -2.57354 -0.112474 0
M  V30 1995 H 191.337 -2.54842 -1.84127 0
M  V30 1996 N 195.109 -0.891671 -1.2995 0
M  V30 1997 C 196.039 -0.379797 -2.30391 0
M  V30 1998 C 197.02 0.540919 -1.6127 0
M  V30 1999 O 198.205 0.453352 -1.88834 0
M  V30 2000 C 195.335 0.400654 -3.44981 0
M  V30 2001 C 194.289 -0.428905 -4.25846 0
M  V30 2002 C 193.615 0.478557 -5.32554 0
M  V30 2003 C 194.915 -1.67458 -4.94727 0
M  V30 2004 H 196.609 -1.21914 -2.73454 0
M  V30 2005 H 194.155 -0.587675 -1.31462 0
M  V30 2006 H 196.108 0.769434 -4.14316 0
M  V30 2007 H 194.832 1.27371 -3.0074 0
M  V30 2008 H 193.491 -0.779911 -3.58208 0
M  V30 2009 H 193.139 1.34951 -4.84559 0
M  V30 2010 H 192.839 -0.0727433 -5.87555 0
M  V30 2011 H 194.363 0.843705 -6.04743 0
M  V30 2012 H 195.777 -1.376 -5.56542 0
M  V30 2013 H 194.174 -2.16659 -5.59624 0
M  V30 2014 H 195.244 -2.41518 -4.20473 0
M  V30 2015 N 196.587 1.43421 -0.653314 0
M  V30 2016 C 197.55 2.29182 0.0287951 0
M  V30 2017 C 198.55 1.42213 0.750465 0
M  V30 2018 O 199.74 1.63843 0.591701 0
M  V30 2019 C 196.872 3.24278 1.05151 0
M  V30 2020 H 198.065 2.90985 -0.725786 0
M  V30 2021 H 195.618 1.50702 -0.414545 0
M  V30 2022 H 196.353 2.6737 1.83532 0
M  V30 2023 H 196.138 3.88396 0.537687 0
M  V30 2024 H 197.628 3.88647 1.52786 0
M  V30 2025 N 198.065 0.39524 1.52563 0
M  V30 2026 C 199.015 -0.4541 2.23432 0
M  V30 2027 C 199.999 -1.02482 1.24042 0
M  V30 2028 O 201.191 -0.949938 1.49349 0
M  V30 2029 C 198.32 -1.57769 3.049 0
M  V30 2030 C 197.406 -1.01842 4.1169 0
M  V30 2031 N 197.797 -0.184613 5.05463 0
M  V30 2032 C 196.095 -1.29033 4.26927 0
M  V30 2033 C 196.796 0.125013 5.81566 0
M  V30 2034 N 195.772 -0.480498 5.41472 0
M  V30 2035 H 199.574 0.189413 2.93289 0
M  V30 2036 H 197.088 0.204877 1.61102 0
M  V30 2037 H 199.085 -2.19862 3.54212 0
M  V30 2038 H 197.745 -2.22397 2.36579 0
M  V30 2039 H 198.756 0.178602 5.17592 0
M  V30 2040 H 195.433 -1.93721 3.69836 0
M  V30 2041 H 196.823 0.800962 6.67109 0
M  V30 2042 N 199.544 -1.57102 0.125237 0
M  V30 2043 C 200.474 -2.18659 -0.819174 0
M  V30 2044 C 201.455 -1.12843 -1.27281 0
M  V30 2045 O 202.64 -1.41104 -1.33429 0
M  V30 2046 C 199.77 -2.79096 -2.06695 0
M  V30 2047 C 198.724 -3.90548 -1.75088 0
M  V30 2048 C 198.05 -4.37821 -3.06948 0
M  V30 2049 C 199.35 -5.12356 -1.01435 0
M  V30 2050 H 201.044 -2.9783 -0.306202 0
M  V30 2051 H 198.59 -1.4326 -0.145839 0
M  V30 2052 H 200.543 -3.2082 -2.73226 0
M  V30 2053 H 199.267 -1.97223 -2.60328 0
M  V30 2054 H 197.926 -3.49409 -1.10944 0
M  V30 2055 H 197.574 -3.52799 -3.58527 0
M  V30 2056 H 197.274 -5.12982 -2.86571 0
M  V30 2057 H 198.798 -4.822 -3.74587 0
M  V30 2058 H 200.212 -5.5106 -1.58132 0
M  V30 2059 H 198.609 -5.9314 -0.911319 0
M  V30 2060 H 199.679 -4.849 -0.00218681 0
M  V30 2061 N 201.022 0.148545 -1.56898 0
M  V30 2062 C 202.433 0.708766 -1.72723 0
M  V30 2063 C 202.784 1.81734 -0.739395 0
M  V30 2064 O 201.909 2.16194 0.0943169 0
M  V30 2065 C 202.504 1.29245 -3.13179 0
M  V30 2066 C 201.063 1.79925 -3.30611 0
M  V30 2067 C 200.21 0.687111 -2.68652 0
M  V30 2068 H 203.161 -0.0771063 -1.58513 0
M  V30 2069 H 203.182 2.16224 -3.13093 0
M  V30 2070 H 202.694 0.485382 -3.85053 0
M  V30 2071 H 200.795 2.63203 -2.63732 0
M  V30 2072 H 200.908 1.92903 -4.38549 0
M  V30 2073 H 199.272 1.11335 -2.29078 0
M  V30 2074 H 200.055 -0.108483 -3.43129 0
M  V30 2075 N 202.5 1.5196 0.417844 0
M  V30 2076 C 203.447 1.74678 1.50852 0
M  V30 2077 C 204.417 0.588947 1.55308 0
M  V30 2078 O 205.602 0.825544 1.72016 0
M  V30 2079 C 202.742 1.89544 2.88387 0
M  V30 2080 C 201.855 3.17166 2.93309 0
M  V30 2081 C 200.99 3.22513 4.22088 0
M  V30 2082 C 200.029 4.44372 4.20951 0
M  V30 2083 N 199.166 4.47161 5.41287 0
M  V30 2084 H 204.006 2.67768 1.30783 0
M  V30 2085 H 201.543 1.32689 0.63498 0
M  V30 2086 H 203.501 1.96146 3.68216 0
M  V30 2087 H 202.131 0.998424 3.06971 0
M  V30 2088 H 201.183 3.19778 2.06024 0
M  V30 2089 H 202.495 4.07021 2.88332 0
M  V30 2090 H 201.649 3.28139 5.10303 0
M  V30 2091 H 200.388 2.30581 4.29748 0
M  V30 2092 H 199.393 4.38902 3.31127 0
M  V30 2093 H 200.618 5.3759 4.14938 0
M  V30 2094 H 198.564 3.58108 5.49632 0
M  V30 2095 H 198.481 5.3085 5.3827 0
M  V30 2096 H 199.749 4.57005 6.3148 0
M  V30 2097 N 203.978 -0.674533 1.42435 0
M  V30 2098 C 204.888 -1.81751 1.48337 0
M  V30 2099 C 205.904 -1.69975 0.372099 0
M  V30 2100 O 207.08 -1.91521 0.62304 0
M  V30 2101 C 204.145 -3.17895 1.38361 0
M  V30 2102 C 203.206 -3.41625 2.59982 0
M  V30 2103 C 202.439 -4.71274 2.50473 0
M  V30 2104 O 202.662 -5.49197 1.54075 0
M  V30 2105 O 201.596 -4.96254 3.4061 0
M  V30 2106 H 205.422 -1.79728 2.44809 0
M  V30 2107 H 203.007 -0.830312 1.24202 0
M  V30 2108 H 204.889 -3.99136 1.35161 0
M  V30 2109 H 203.564 -3.20555 0.450144 0
M  V30 2110 H 202.471 -2.60231 2.68757 0
M  V30 2111 H 203.804 -3.43796 3.52229 0
M  V30 2112 N 205.456 -1.28612 -0.910864 0
M  V30 2113 C 206.705 -1.15311 -1.65488 0
M  V30 2114 C 207.018 0.296999 -1.93332 0
M  V30 2115 O 208.224 0.551168 -2.65847 0
M  V30 2116 C 206.68 -2.01599 -2.98137 0
M  V30 2117 C 206.288 -3.51367 -2.7793 0
M  V30 2118 C 208.032 -1.96993 -3.76024 0
M  V30 2119 C 205.939 -4.29797 -4.06237 0
M  V30 2120 H 204.869 -0.42796 -0.620779 0
M  V30 2121 H 207.52 -1.53166 -1.01057 0
M  V30 2122 H 205.902 -1.56603 -3.63719 0
M  V30 2123 H 207.076 -4.0434 -2.21011 0
M  V30 2124 H 205.391 -3.57529 -2.13452 0
M  V30 2125 H 207.988 -2.52856 -4.71135 0
M  V30 2126 H 208.331 -0.94733 -4.05378 0
M  V30 2127 H 208.864 -2.39973 -3.17266 0
M  V30 2128 H 205.603 -5.32648 -3.82055 0
M  V30 2129 H 205.123 -3.81596 -4.62757 0
M  V30 2130 H 206.802 -4.39869 -4.74473 0
M  V30 2131 N 206.934 1.1197 -1.10907 0
M  V30 2132 C 208.345 1.65114 -0.871446 0
M  V30 2133 C 208.696 1.86885 0.597353 0
M  V30 2134 O 207.821 1.59896 1.45816 0
M  V30 2135 C 208.416 2.99944 -1.5754 0
M  V30 2136 C 206.975 3.50018 -1.38435 0
M  V30 2137 C 206.122 2.24941 -1.62164 0
M  V30 2138 H 209.073 0.956851 -1.2661 0
M  V30 2139 H 209.094 3.66651 -1.01721 0
M  V30 2140 H 208.606 2.84067 -2.64438 0
M  V30 2141 H 206.707 3.71071 -0.337214 0
M  V30 2142 H 206.82 4.29165 -2.12965 0
M  V30 2143 H 205.184 2.3229 -1.04467 0
M  V30 2144 H 205.967 2.11612 -2.70324 0
M  V30 2145 N 208.412 0.89855 1.29475 0
M  V30 2146 C 209.342 0.39201 2.30186 0
M  V30 2147 C 210.323 -0.532359 1.61555 0
M  V30 2148 O 211.508 -0.443331 1.89072 0
M  V30 2149 C 208.638 -0.382353 3.45189 0
M  V30 2150 C 207.592 0.451483 4.25612 0
M  V30 2151 C 206.918 -0.450307 5.328 0
M  V30 2152 C 208.218 1.70079 4.93832 0
M  V30 2153 H 209.912 1.23362 2.72804 0
M  V30 2154 H 207.458 0.594638 1.31149 0
M  V30 2155 H 209.411 -0.747451 4.14718 0
M  V30 2156 H 208.135 -1.25774 3.01411 0
M  V30 2157 H 206.794 0.798897 3.57789 0
M  V30 2158 H 206.442 -1.32379 4.85268 0
M  V30 2159 H 206.142 0.103902 5.87508 0
M  V30 2160 H 207.666 -0.811623 6.05182 0
M  V30 2161 H 209.08 1.40549 5.55805 0
M  V30 2162 H 207.477 2.19623 5.58467 0
M  V30 2163 H 208.547 2.43744 4.19186 0
M  V30 2164 N 209.89 -1.43072 0.660911 0
M  V30 2165 C 210.8 -2.34585 -0.0264163 0
M  V30 2166 C 211.816 -1.54316 -0.803898 0
M  V30 2167 O 212.992 -1.86939 -0.749391 0
M  V30 2168 C 210.057 -3.32689 -0.975639 0
M  V30 2169 C 209.118 -4.2886 -0.194236 0
M  V30 2170 C 208.351 -5.22278 -1.09825 0
M  V30 2171 O 208.574 -5.20299 -2.33763 0
M  V30 2172 O 207.508 -5.99228 -0.566513 0
M  V30 2173 H 211.334 -2.94869 0.727034 0
M  V30 2174 H 208.919 -1.43342 0.42111 0
M  V30 2175 H 210.801 -3.92995 -1.52094 0
M  V30 2176 H 209.476 -2.74898 -1.70918 0
M  V30 2177 H 208.383 -3.72011 0.394835 0
M  V30 2178 H 209.716 -4.89655 0.499899 0
M  V30 2179 N 211.368 -0.403325 -1.52352 0
M  V30 2180 C 212.331 0.413051 -2.25447 0
M  V30 2181 C 213.331 0.978513 -1.276 0
M  V30 2182 O 214.521 0.858305 -1.51587 0
M  V30 2183 C 211.653 1.58087 -3.02029 0
M  V30 2184 H 212.846 -0.227094 -2.99039 0
M  V30 2185 H 210.399 -0.155722 -1.55522 0
M  V30 2186 H 211.134 2.25804 -2.32772 0
M  V30 2187 H 210.919 1.18195 -3.73861 0
M  V30 2188 H 212.409 2.1585 -3.57489 0
M  V30 2189 N 212.846 1.57033 -0.133567 0
M  V30 2190 C 213.809 2.14897 0.796995 0
M  V30 2191 C 214.809 1.0874 1.18458 0
M  V30 2192 O 215.999 1.34446 1.1077 0
M  V30 2193 C 213.131 2.70112 2.07973 0
M  V30 2194 H 214.324 2.98457 0.293873 0
M  V30 2195 H 211.877 1.55871 0.115787 0
M  V30 2196 H 212.612 1.9018 2.62682 0
M  V30 2197 H 212.397 3.47764 1.81115 0
M  V30 2198 H 213.887 3.14738 2.74462 0
M  V30 2199 N 214.325 -0.140222 1.56975 0
M  V30 2200 C 215.571 -0.852949 1.83991 0
M  V30 2201 C 215.904 -1.80512 0.716187 0
M  V30 2202 O 215.179 -1.92479 -0.279681 0
M  V30 2203 C 215.462 -1.6215 3.21527 0
M  V30 2204 C 215.315 -0.690363 4.4447 0
M  V30 2205 C 216.634 -2.58247 3.56366 0
M  V30 2206 H 213.753 -0.308634 0.669264 0
M  V30 2207 H 216.395 -0.117898 1.89634 0
M  V30 2208 H 214.545 -2.24812 3.16847 0
M  V30 2209 H 216.217 -0.0742264 4.6124 0
M  V30 2210 H 214.46 -0.000396433 4.338 0
M  V30 2211 H 215.131 -1.2643 5.37326 0
M  V30 2212 H 217.607 -2.05701 3.61699 0
M  V30 2213 H 216.483 -3.09067 4.53617 0
M  V30 2214 H 216.744 -3.39923 2.82674 0
M  V30 2215 N 215.803 -1.52179 -0.40978 0
M  V30 2216 C 216.736 -1.70196 -1.52015 0
M  V30 2217 C 217.714 -0.549542 -1.53032 0
M  V30 2218 O 218.898 -0.776815 -1.71749 0
M  V30 2219 C 216.025 -1.74069 -2.90547 0
M  V30 2220 C 215.071 -2.95601 -3.07445 0
M  V30 2221 S 215.904 -4.55956 -2.80827 0
M  V30 2222 C 217.06 -4.62614 -4.21591 0
M  V30 2223 H 217.293 -2.64109 -1.36504 0
M  V30 2224 H 214.826 -1.4221 -0.601312 0
M  V30 2225 H 216.784 -1.76985 -3.70387 0
M  V30 2226 H 215.445 -0.812835 -3.034 0
M  V30 2227 H 214.638 -2.94791 -4.08796 0
M  V30 2228 H 214.24 -2.90569 -2.35469 0
M  V30 2229 H 216.532 -4.39951 -5.15218 0
M  V30 2230 H 217.475 -5.64548 -4.27424 0
M  V30 2231 H 217.883 -3.91654 -4.06531 0
M  V30 2232 N 217.281 0.66697 -1.42791 0
M  V30 2233 C 218.53 1.42278 -1.42968 0
M  V30 2234 C 218.843 1.9553 -0.0524489 0
M  V30 2235 O 220.049 2.71414 0.068363 0
M  V30 2236 C 218.505 2.57418 -2.51524 0
M  V30 2237 C 218.113 2.10832 -3.9529 0
M  V30 2238 C 219.857 3.34878 -2.60877 0
M  V30 2239 C 217.764 3.23101 -4.95338 0
M  V30 2240 H 216.694 0.534533 -0.531781 0
M  V30 2241 H 219.345 0.721302 -1.68729 0
M  V30 2242 H 217.727 3.29971 -2.18941 0
M  V30 2243 H 218.901 1.4538 -4.37266 0
M  V30 2244 H 217.216 1.46289 -3.89857 0
M  V30 2245 H 219.813 4.18505 -3.32802 0
M  V30 2246 H 220.156 3.81993 -1.6549 0
M  V30 2247 H 220.689 2.69398 -2.92693 0
M  V30 2248 H 217.428 2.80969 -5.9223 0
M  V30 2249 H 216.948 3.87309 -4.57987 0
M  V30 2250 H 218.627 3.88447 -5.17415 0
M  V30 2251 N 218.759 1.29093 0.90403 0
M  V30 2252 C 220.17 1.15186 1.46932 0
M  V30 2253 C 220.521 -0.254587 1.94541 0
M  V30 2254 O 219.646 -1.14972 1.83332 0
M  V30 2255 C 220.241 2.08492 2.67051 0
M  V30 2256 C 218.8 1.98621 3.19729 0
M  V30 2257 C 217.947 1.9967 1.92425 0
M  V30 2258 H 220.898 1.41641 0.715789 0
M  V30 2259 H 220.919 1.65461 3.42641 0
M  V30 2260 H 220.431 3.10847 2.3237 0
M  V30 2261 H 218.532 0.993389 3.59114 0
M  V30 2262 H 218.645 2.86068 3.8432 0
M  V30 2263 H 217.009 1.44208 2.09943 0
M  V30 2264 H 217.792 3.03721 1.60026 0
M  V30 2265 N 220.237 -1.11381 1.11499 0
M  V30 2266 C 221.514 -1.7955 0.775965 0
M  V30 2267 C 221.894 -1.97859 -0.73588 0
M  V30 2268 O 221.242 -1.56376 -1.66609 0
M  V30 2269 C 221.452 -3.13196 1.53977 0
M  V30 2270 C 222.8 -3.88227 1.71944 0
M  V30 2271 O 223.824 -3.22887 1.50407 0
M  V30 2272 O 222.683 -5.05477 2.07738 0
M  V30 2273 H 219.777 -0.777728 0.28119 0
M  V30 2274 H 222.323 -1.18118 1.21845 0
M  V30 2275 H 221.095 -2.95229 2.56818 0
M  V30 2276 H 220.718 -3.82342 1.09088 0
M  V30 2277 N 221.715 -0.905404 -1.28997 0
M  V30 2278 C 222.648 -0.331959 -2.25773 0
M  V30 2279 C 223.626 0.559099 -1.52685 0
M  V30 2280 O 224.81 0.50463 -1.8162 0
M  V30 2281 C 221.937 0.526276 -3.34586 0
M  V30 2282 C 220.983 -0.298249 -4.25456 0
M  V30 2283 S 221.816 -1.69968 -5.0781 0
M  V30 2284 C 222.972 -0.848519 -6.20122 0
M  V30 2285 H 223.205 -1.15222 -2.74064 0
M  V30 2286 H 220.738 -0.706112 -1.37308 0
M  V30 2287 H 222.696 1.01565 -3.97737 0
M  V30 2288 H 221.357 1.32084 -2.84978 0
M  V30 2289 H 220.55 0.357607 -5.0273 0
M  V30 2290 H 220.152 -0.720968 -3.66985 0
M  V30 2291 H 222.444 -0.0744325 -6.77459 0
M  V30 2292 H 223.387 -1.59353 -6.89937 0
M  V30 2293 H 223.795 -0.400383 -5.63078 0
M  V30 2294 N 223.193 1.4272 -0.668489 0
M  V30 2295 C 224.126 2.28111 0.0637898 0
M  V30 2296 C 225.104 1.40705 0.814912 0
M  V30 2297 O 226.288 1.70146 0.81134 0
M  V30 2298 C 223.415 3.20429 1.0974 0
M  V30 2299 C 222.461 4.24197 0.442579 0
M  V30 2300 S 223.294 5.29563 -0.795173 0
M  V30 2301 C 224.45 6.25449 0.237516 0
M  V30 2302 H 224.683 2.8987 -0.660521 0
M  V30 2303 H 222.216 1.47456 -0.457821 0
M  V30 2304 H 224.174 3.74158 1.68868 0
M  V30 2305 H 222.835 2.57818 1.79411 0
M  V30 2306 H 222.028 4.88954 1.22227 0
M  V30 2307 H 221.63 3.73925 -0.0749554 0
M  V30 2308 H 223.922 6.68524 1.09915 0
M  V30 2309 H 224.865 7.07104 -0.375421 0
M  V30 2310 H 225.273 5.61511 0.580167 0
M  V30 2311 N 224.671 0.411399 1.52136 0
M  V30 2312 C 225.899 -0.163076 2.06256 0
M  V30 2313 C 226.314 -1.3867 1.28125 0
M  V30 2314 O 225.671 -1.79423 0.333721 0
M  V30 2315 C 225.722 -0.511252 3.57867 0
M  V30 2316 O 225.443 0.66378 4.33042 0
M  V30 2317 C 226.944 -1.13921 4.28412 0
M  V30 2318 H 224.164 -0.0193897 0.67072 0
M  V30 2319 H 226.708 0.583007 1.96013 0
M  V30 2320 H 224.863 -1.20723 3.6811 0
M  V30 2321 H 225.277 0.372601 5.23175 0
M  V30 2322 H 226.751 -1.33302 5.35663 0
M  V30 2323 H 227.228 -2.11296 3.85033 0
M  V30 2324 H 227.834 -0.483373 4.22544 0
M  V30 2325 N 226.149 -1.5696 0.141893 0
M  V30 2326 C 227.377 -2.00322 -0.517579 0
M  V30 2327 C 227.792 -1.02193 -1.58752 0
M  V30 2328 O 227.149 -0.0181619 -1.82491 0
M  V30 2329 C 227.2 -3.43618 -1.12289 0
M  V30 2330 O 226.921 -4.37995 -0.0956929 0
M  V30 2331 C 228.422 -4.02231 -1.86347 0
M  V30 2332 H 225.642 -0.657243 -0.135177 0
M  V30 2333 H 228.186 -2.03146 0.234973 0
M  V30 2334 H 226.341 -3.41662 -1.82609 0
M  V30 2335 H 226.755 -5.21729 -0.538469 0
M  V30 2336 H 228.229 -5.04509 -2.23997 0
M  V30 2337 H 228.706 -3.42655 -2.74744 0
M  V30 2338 H 229.312 -4.07802 -1.20737 0
M  V30 2339 N 227.627 0.131896 -1.57047 0
M  V30 2340 C 228.875 0.840269 -1.83804 0
M  V30 2341 C 229.196 1.81017 -0.72512 0
M  V30 2342 O 228.466 1.94272 0.251995 0
M  V30 2343 H 227.046 0.313294 -0.678127 0
M  V30 2344 H 229.708 0.122294 -1.94516 0
M  V30 2345 H 228.804 1.39335 -2.79271 0
M  V30 2346 N 229.106 1.52395 0.401703 0
M  V30 2347 C 230.353 1.66817 1.14796 0
M  V30 2348 C 230.681 0.401772 1.90305 0
M  V30 2349 O 229.936 -0.615487 1.85769 0
M  V30 2350 C 230.235 2.84578 2.16217 0
M  V30 2351 C 229.901 4.22513 1.5746 0
M  V30 2352 C 228.563 4.60029 1.41161 0
M  V30 2353 C 230.915 5.0844 1.14622 0
M  V30 2354 C 228.243 5.81144 0.80552 0
M  V30 2355 C 230.595 6.30167 0.55428 0
M  V30 2356 C 229.259 6.66426 0.378482 0
M  V30 2357 H 228.529 0.610428 0.420069 0
M  V30 2358 H 231.176 1.86512 0.434212 0
M  V30 2359 H 229.481 2.59248 2.93764 0
M  V30 2360 H 231.178 2.92933 2.73845 0
M  V30 2361 H 227.768 3.92953 1.71132 0
M  V30 2362 H 231.952 4.80034 1.26021 0
M  V30 2363 H 227.208 6.07855 0.657399 0
M  V30 2364 H 231.382 6.96071 0.213983 0
M  V30 2365 H 229.009 7.60143 -0.0932606 0
M  V30 2366 N 230.584 -0.659388 1.43143 0
M  V30 2367 C 231.534 -1.7655 1.44271 0
M  V30 2368 C 232.518 -1.57847 0.311961 0
M  V30 2369 O 233.71 -1.68064 0.555306 0
M  V30 2370 C 230.839 -3.15104 1.36251 0
M  V30 2371 C 229.925 -3.39377 2.54331 0
M  V30 2372 N 230.316 -3.34153 3.79704 0
M  V30 2373 C 228.614 -3.70072 2.48922 0
M  V30 2374 C 229.315 -3.58337 4.58225 0
M  V30 2375 N 228.291 -3.79851 3.88863 0
M  V30 2376 H 232.093 -1.70928 2.39083 0
M  V30 2377 H 229.607 -0.860823 1.37708 0
M  V30 2378 H 231.604 -3.94389 1.35141 0
M  V30 2379 H 230.264 -3.21913 0.424531 0
M  V30 2380 H 231.275 -3.13704 4.1208 0
M  V30 2381 H 227.952 -3.84034 1.63781 0
M  V30 2382 H 229.342 -3.60129 5.67236 0
M  V30 2383 N 232.062 -1.29571 -0.897171 0
M  V30 2384 C 233.31 -1.17456 -1.64464 0
M  V30 2385 C 233.631 0.273698 -1.9307 0
M  V30 2386 O 232.901 1.18684 -1.55855 0
M  V30 2387 H 231.481 -0.431706 -0.609622 0
M  V30 2388 H 234.143 -1.62531 -1.07562 0
M  V30 2389 H 233.239 -1.72648 -2.59998 0
M  V30 2390 N 233.54 1.10788 -1.12088 0
M  V30 2391 C 234.503 2.15207 -0.788577 0
M  V30 2392 C 235.503 1.59609 0.195317 0
M  V30 2393 O 236.693 1.74174 -0.0300193 0
M  V30 2394 C 233.825 3.4047 -0.171174 0
M  V30 2395 H 235.018 2.46116 -1.71368 0
M  V30 2396 H 232.571 1.26089 -0.923652 0
M  V30 2397 H 233.306 3.15176 0.763832 0
M  V30 2398 H 233.091 3.82109 -0.879514 0
M  V30 2399 H 234.581 4.17576 0.04496 0
M  V30 2400 N 235.018 0.912232 1.28515 0
M  V30 2401 C 235.928 0.404506 2.31086 0
M  V30 2402 C 236.944 -0.50707 1.66448 0
M  V30 2403 O 238.12 -0.393624 1.97516 0
M  V30 2404 C 235.185 -0.348572 3.44943 0
M  V30 2405 C 234.246 0.59604 4.25142 0
M  V30 2406 C 233.479 -0.121194 5.33562 0
M  V30 2407 O 233.702 -1.34317 5.5436 0
M  V30 2408 O 232.636 0.542716 5.99448 0
M  V30 2409 H 236.462 1.25579 2.76521 0
M  V30 2410 H 234.047 0.676998 1.33181 0
M  V30 2411 H 235.929 -0.77395 4.14232 0
M  V30 2412 H 234.604 -1.17571 3.01594 0
M  V30 2413 H 233.511 1.07079 3.58448 0
M  V30 2414 H 234.844 1.38995 4.72167 0
M  V30 2415 N 236.496 -1.42363 0.676048 0
M  V30 2416 C 237.426 -2.33497 0.0124832 0
M  V30 2417 C 238.407 -1.50748 -0.787981 0
M  V30 2418 O 239.592 -1.79346 -0.744884 0
M  V30 2419 C 236.722 -3.34377 -0.938582 0
M  V30 2420 C 235.676 -4.27289 -0.246622 0
M  V30 2421 C 235.002 -5.18386 -1.31071 0
M  V30 2422 C 236.302 -5.14916 0.875125 0
M  V30 2423 H 237.996 -2.89233 0.773593 0
M  V30 2424 H 235.542 -1.39073 0.37346 0
M  V30 2425 H 237.495 -3.97044 -1.41188 0
M  V30 2426 H 236.219 -2.76947 -1.73113 0
M  V30 2427 H 234.878 -3.66018 0.206456 0
M  V30 2428 H 234.526 -4.57282 -2.09528 0
M  V30 2429 H 234.226 -5.81378 -0.852839 0
M  V30 2430 H 235.75 -5.83929 -1.78492 0
M  V30 2431 H 237.164 -5.71262 0.482983 0
M  V30 2432 H 235.561 -5.86747 1.25887 0
M  V30 2433 H 236.631 -4.53242 1.72335 0
M  V30 2434 N 237.974 -0.419461 -1.51915 0
M  V30 2435 C 238.937 0.389116 -2.25873 0
M  V30 2436 C 239.937 0.964924 -1.28631 0
M  V30 2437 O 241.127 0.842179 -1.52489 0
M  V30 2438 C 238.259 1.54874 -3.03689 0
M  V30 2439 H 239.452 -0.258799 -2.98781 0
M  V30 2440 H 237.005 -0.172209 -1.55348 0
M  V30 2441 H 237.74 2.23323 -2.35154 0
M  V30 2442 H 237.525 1.14223 -3.75094 0
M  V30 2443 H 239.015 2.12046 -3.59759 0
M  V30 2444 N 239.452 1.56882 -0.150215 0
M  V30 2445 C 240.729 1.87844 0.545327 0
M  V30 2446 C 241.109 1.0567 1.82749 0
M  V30 2447 O 240.457 0.144442 2.28043 0
M  V30 2448 C 240.667 3.39526 0.80767 0
M  V30 2449 C 242.015 4.08814 1.14703 0
M  V30 2450 O 243.039 3.44723 0.896917 0
M  V30 2451 O 241.898 5.22004 1.61784 0
M  V30 2452 H 238.992 0.778677 0.278553 0
M  V30 2453 H 241.538 1.68666 -0.187068 0
M  V30 2454 H 240.31 3.91173 -0.0996096 0
M  V30 2455 H 239.933 3.64243 1.59413 0
M  V30 2456 N 240.93 -0.123565 1.57115 0
M  V30 2457 C 242.179 -0.830704 1.83799 0
M  V30 2458 C 242.492 -1.81259 0.735158 0
M  V30 2459 O 243.698 -2.56558 0.888278 0
M  V30 2460 C 242.154 -1.52802 3.25852 0
M  V30 2461 C 241.762 -0.587356 4.44133 0
M  V30 2462 C 243.506 -2.22056 3.61789 0
M  V30 2463 C 241.413 -1.28764 5.77212 0
M  V30 2464 H 240.343 -0.313967 0.685522 0
M  V30 2465 H 242.994 -0.0834359 1.8331 0
M  V30 2466 H 241.376 -2.32175 3.20797 0
M  V30 2467 H 242.55 0.172829 4.60476 0
M  V30 2468 H 240.865 -0.00201892 4.164 0
M  V30 2469 H 243.462 -2.75131 4.58483 0
M  V30 2470 H 243.805 -2.99644 2.88997 0
M  V30 2471 H 244.338 -1.49576 3.68608 0
M  V30 2472 H 241.077 -0.55314 6.53162 0
M  V30 2473 H 240.597 -2.01995 5.64764 0
M  V30 2474 H 242.276 -1.8221 6.20813 0
M  V30 2475 N 242.408 -1.52605 -0.393616 0
M  V30 2476 C 243.318 -1.79971 -1.50492 0
M  V30 2477 C 244.334 -0.686181 -1.59899 0
M  V30 2478 O 245.51 -0.973274 -1.76322 0
M  V30 2479 C 242.575 -1.95867 -2.86072 0
M  V30 2480 C 241.636 -3.19781 -2.86424 0
M  V30 2481 C 240.869 -3.34909 -4.15538 0
M  V30 2482 O 241.092 -2.54948 -5.10253 0
M  V30 2483 O 240.026 -4.28141 -4.23059 0
M  V30 2484 H 243.852 -2.74328 -1.30299 0
M  V30 2485 H 241.437 -1.3764 -0.581005 0
M  V30 2486 H 243.319 -2.08056 -3.66457 0
M  V30 2487 H 241.994 -1.04699 -3.063 0
M  V30 2488 H 240.901 -3.13038 -2.04837 0
M  V30 2489 H 242.234 -4.1078 -2.71147 0
M  V30 2490 N 243.887 0.651787 -1.4349 0
M  V30 2491 C 244.817 1.77621 -1.51569 0
M  V30 2492 C 245.798 1.66022 -0.370253 0
M  V30 2493 O 246.983 1.85095 -0.587658 0
M  V30 2494 C 244.113 3.16056 -1.43966 0
M  V30 2495 C 243.067 3.4242 -2.56774 0
M  V30 2496 C 242.393 4.8067 -2.34223 0
M  V30 2497 C 243.693 3.37023 -3.99015 0
M  V30 2498 H 245.387 1.71117 -2.45681 0
M  V30 2499 H 242.933 0.821825 -1.18246 0
M  V30 2500 H 244.886 3.94472 -1.48221 0
M  V30 2501 H 243.61 3.23293 -0.463586 0
M  V30 2502 H 242.269 2.66375 -2.51873 0
M  V30 2503 H 241.917 4.84585 -1.34856 0
M  V30 2504 H 241.617 4.9927 -3.09844 0
M  V30 2505 H 243.141 5.61342 -2.40265 0
M  V30 2506 H 244.555 4.05374 -4.05395 0
M  V30 2507 H 242.952 3.67159 -4.74673 0
M  V30 2508 H 244.022 2.3518 -4.2405 0
M  V30 2509 N 245.365 1.30045 0.890287 0
M  V30 2510 C 246.613 1.18327 1.63839 0
M  V30 2511 C 246.934 -0.263455 1.93212 0
M  V30 2512 O 246.204 -1.17856 1.56482 0
M  V30 2513 H 244.784 0.434933 0.607324 0
M  V30 2514 H 247.446 1.631 1.06698 0
M  V30 2515 H 246.542 1.74024 2.59079 0
M  V30 2516 N 246.843 -1.10192 1.12674 0
M  V30 2517 C 247.806 -2.14786 0.799979 0
M  V30 2518 C 248.806 -1.59711 -0.18685 0
M  V30 2519 O 249.996 -1.74156 0.0392558 0
M  V30 2520 C 247.128 -3.40374 0.189228 0
M  V30 2521 H 248.321 -2.45203 1.72671 0
M  V30 2522 H 245.874 -1.25597 0.930326 0
M  V30 2523 H 246.609 -3.15577 -0.747107 0
M  V30 2524 H 246.394 -3.81637 0.899766 0
M  V30 2525 H 247.884 -4.17594 -0.0228143 0
M  V30 2526 N 248.321 -0.919034 -1.28029 0
M  V30 2527 C 249.549 -0.570971 -1.98866 0
M  V30 2528 C 249.964 0.848996 -1.68634 0
M  V30 2529 O 249.321 1.56307 -0.942036 0
M  V30 2530 C 249.372 -0.776876 -3.53054 0
M  V30 2531 O 249.093 -2.14097 -3.82222 0
M  V30 2532 C 250.594 -0.436356 -4.41147 0
M  V30 2533 H 247.814 -0.217175 -0.634883 0
M  V30 2534 H 250.358 -1.23368 -1.63097 0
M  V30 2535 H 248.513 -0.161085 -3.87065 0
M  V30 2536 H 248.927 -2.18455 -4.76841 0
M  V30 2537 H 250.401 -0.63117 -5.4838 0
M  V30 2538 H 250.878 0.627686 -4.34692 0
M  V30 2539 H 251.484 -1.02991 -4.12641 0
M  V30 2540 N 249.799 1.42003 -0.683588 0
M  V30 2541 C 251.045 2.01712 -0.209825 0
M  V30 2542 C 251.378 1.53968 1.18353 0
M  V30 2543 O 250.653 0.745661 1.79639 0
M  V30 2544 C 250.936 3.59202 -0.254197 0
M  V30 2545 C 250.789 4.17102 -1.68363 0
M  V30 2546 C 252.108 4.38344 0.392709 0
M  V30 2547 H 249.227 0.732891 -0.0777189 0
M  V30 2548 H 251.869 1.68909 -0.87004 0
M  V30 2549 H 250.019 3.87278 0.307954 0
M  V30 2550 H 251.691 3.99946 -2.29871 0
M  V30 2551 H 249.934 3.72597 -2.22157 0
M  V30 2552 H 250.605 5.26249 -1.6663 0
M  V30 2553 H 253.081 4.16011 -0.0859162 0
M  V30 2554 H 251.957 5.47901 0.331063 0
M  V30 2555 H 252.218 4.16887 1.47164 0
M  V30 2556 N 251.277 0.427512 1.51691 0
M  V30 2557 C 252.24 -0.377132 2.26076 0
M  V30 2558 C 253.24 -0.958089 1.29141 0
M  V30 2559 O 254.43 -0.83408 1.52934 0
M  V30 2560 C 251.562 -1.53262 3.04506 0
M  V30 2561 H 252.755 0.27464 2.9864 0
M  V30 2562 H 250.308 0.180445 1.55255 0
M  V30 2563 H 251.043 -2.22072 2.36335 0
M  V30 2564 H 250.828 -1.12232 3.75694 0
M  V30 2565 H 252.318 -2.10135 3.60878 0
M  V30 2566 N 252.755 -1.56801 0.158532 0
M  V30 2567 C 254.001 -1.96781 -0.490405 0
M  V30 2568 C 254.334 -1.04397 -1.63753 0
M  V30 2569 O 253.609 -0.0885805 -1.94298 0
M  V30 2570 C 253.892 -3.4635 -0.985594 0
M  V30 2571 C 253.745 -4.49512 0.160824 0
M  V30 2572 C 255.064 -3.98697 -1.86355 0
M  V30 2573 H 252.183 -0.715482 -0.176788 0
M  V30 2574 H 254.825 -1.88451 0.242088 0
M  V30 2575 H 252.975 -3.53579 -1.60978 0
M  V30 2576 H 254.647 -4.54353 0.797537 0
M  V30 2577 H 252.89 -4.26013 0.818256 0
M  V30 2578 H 253.561 -5.51531 -0.227569 0
M  V30 2579 H 256.037 -3.94019 -1.33746 0
M  V30 2580 H 254.913 -5.03792 -2.17909 0
M  V30 2581 H 255.174 -3.41744 -2.8047 0
M  V30 2582 N 254.233 0.115231 -1.57178 0
M  V30 2583 C 255.163 1.1423 -2.03651 0
M  V30 2584 C 256.144 1.42967 -0.921655 0
M  V30 2585 O 257.329 1.53343 -1.19162 0
M  V30 2586 C 254.459 2.4675 -2.44401 0
M  V30 2587 C 253.413 2.32467 -3.59365 0
M  V30 2588 C 252.739 3.69984 -3.86026 0
M  V30 2589 C 254.039 1.78203 -4.90959 0
M  V30 2590 H 255.733 0.755749 -2.89705 0
M  V30 2591 H 253.279 0.362093 -1.39373 0
M  V30 2592 H 255.232 3.18854 -2.75517 0
M  V30 2593 H 253.956 2.87302 -1.55322 0
M  V30 2594 H 252.615 1.62811 -3.28463 0
M  V30 2595 H 252.263 4.08028 -2.94147 0
M  V30 2596 H 251.963 3.61279 -4.63412 0
M  V30 2597 H 253.487 4.43587 -4.19599 0
M  V30 2598 H 254.901 2.40128 -5.20587 0
M  V30 2599 H 253.298 1.8031 -5.72371 0
M  V30 2600 H 254.368 0.739876 -4.79222 0
M  V30 2601 N 255.711 1.52812 0.385517 0
M  V30 2602 C 256.959 1.67694 1.12797 0
M  V30 2603 C 257.28 0.421115 1.90399 0
M  V30 2604 O 256.55 -0.564551 1.87589 0
M  V30 2605 H 255.13 0.618155 0.419396 0
M  V30 2606 H 257.792 1.89938 0.436972 0
M  V30 2607 H 256.888 2.52896 1.82894 0
M  V30 2608 N 257.189 -0.644168 1.43834 0
M  V30 2609 C 258.438 -1.39985 1.45214 0
M  V30 2610 C 258.751 -1.95421 0.0835494 0
M  V30 2611 O 259.957 -2.71488 -0.0251748 0
M  V30 2612 C 258.413 -2.53384 2.55587 0
M  V30 2613 C 258.021 -2.04517 3.98594 0
M  V30 2614 C 259.765 -3.30685 2.66172 0
M  V30 2615 C 257.672 -3.1518 5.00416 0
M  V30 2616 H 256.602 -0.526005 0.540218 0
M  V30 2617 H 259.253 -0.694367 1.69855 0
M  V30 2618 H 257.635 -3.26446 2.24163 0
M  V30 2619 H 258.809 -1.38405 4.39523 0
M  V30 2620 H 257.124 -1.40068 3.92135 0
M  V30 2621 H 259.721 -4.13158 3.39418 0
M  V30 2622 H 260.064 -3.79312 1.71546 0
M  V30 2623 H 260.597 -2.64708 2.96942 0
M  V30 2624 H 257.336 -2.71511 5.96625 0
M  V30 2625 H 256.856 -3.79974 4.64091 0
M  V30 2626 H 258.535 -3.80166 5.23529 0
M  V30 2627 N 258.668 -1.30515 -0.883378 0
M  V30 2628 C 259.916 -1.19194 -1.63209 0
M  V30 2629 C 260.237 0.253205 -1.93349 0
M  V30 2630 O 259.507 1.17025 -1.57105 0
M  V30 2631 H 258.087 -0.438148 -0.605009 0
M  V30 2632 H 260.749 -1.63663 -1.05832 0
M  V30 2633 H 259.845 -1.75396 -2.58153 0
M  V30 2634 N 260.146 1.09593 -1.13257 0
M  V30 2635 C 261.557 1.63229 -0.906274 0
M  V30 2636 C 261.908 1.8811 0.557578 0
M  V30 2637 O 261.033 1.62953 1.42391 0
M  V30 2638 C 261.628 2.96535 -1.63867 0
M  V30 2639 C 260.187 3.47003 -1.45828 0
M  V30 2640 C 259.334 2.2145 -1.66898 0
M  V30 2641 H 262.285 0.92978 -1.28611 0
M  V30 2642 H 262.306 3.64411 -1.09476 0
M  V30 2643 H 261.818 2.78394 -2.70404 0
M  V30 2644 H 259.919 3.70272 -0.415848 0
M  V30 2645 H 260.032 4.24551 -2.2202 0
M  V30 2646 H 258.396 2.30022 -1.09371 0
M  V30 2647 H 259.179 2.0583 -2.74752 0
M  V30 2648 N 261.624 0.925811 1.2754 0
M  V30 2649 C 262.87 0.566092 1.94739 0
M  V30 2650 C 263.203 -0.890057 1.72603 0
M  V30 2651 O 262.478 -1.63467 1.05399 0
M  V30 2652 C 262.761 0.89054 3.48915 0
M  V30 2653 C 262.614 2.4003 3.80402 0
M  V30 2654 C 263.933 0.395101 4.38323 0
M  V30 2655 H 261.052 0.20714 0.707292 0
M  V30 2656 H 263.694 1.15725 1.50691 0
M  V30 2657 H 261.844 0.387452 3.86563 0
M  V30 2658 H 263.516 2.97494 3.52555 0
M  V30 2659 H 261.759 2.85028 3.2702 0
M  V30 2660 H 262.43 2.57785 4.8811 0
M  V30 2661 H 264.906 0.826241 4.07814 0
M  V30 2662 H 263.782 0.651086 5.45025 0
M  V30 2663 H 264.043 -0.704798 4.36446 0
M  V30 2664 N 263.102 -1.41638 0.69111 0
M  V30 2665 C 264.35 -2.00902 0.219758 0
M  V30 2666 C 264.671 -1.54994 -1.18329 0
M  V30 2667 O 263.941 -0.778628 -1.79762 0
M  V30 2668 H 262.521 -0.74289 0.0782558 0
M  V30 2669 H 265.183 -1.73327 0.891271 0
M  V30 2670 H 264.279 -3.11224 0.233708 0
M  V30 2671 N 264.58 -0.43555 -1.51462 0
M  V30 2672 C 265.51 0.367376 -2.30592 0
M  V30 2673 C 266.491 1.02263 -1.35928 0
M  V30 2674 O 267.676 1.02661 -1.64847 0
M  V30 2675 C 264.806 1.46983 -3.14664 0
M  V30 2676 C 263.76 0.938161 -4.17591 0
M  V30 2677 C 263.086 2.13622 -4.90173 0
M  V30 2678 C 264.386 -0.0261621 -5.22293 0
M  V30 2679 H 266.08 -0.292969 -2.97963 0
M  V30 2680 H 263.626 -0.14234 -1.43295 0
M  V30 2681 H 265.579 2.03873 -3.688 0
M  V30 2682 H 264.303 2.15843 -2.4511 0
M  V30 2683 H 262.962 0.391481 -3.64504 0
M  V30 2684 H 262.61 2.81098 -4.17124 0
M  V30 2685 H 262.31 1.78688 -5.59772 0
M  V30 2686 H 263.834 2.7107 -5.47132 0
M  V30 2687 H 265.248 0.452384 -5.71512 0
M  V30 2688 H 263.645 -0.287992 -5.99409 0
M  V30 2689 H 264.715 -0.963391 -4.75233 0
M  V30 2690 N 266.058 1.56714 -0.166846 0
M  V30 2691 C 266.991 2.13577 0.80375 0
M  V30 2692 C 267.969 1.06464 1.22899 0
M  V30 2693 O 269.153 1.34413 1.32157 0
M  V30 2694 C 266.28 2.67168 2.0818 0
M  V30 2695 C 265.326 3.86612 1.80093 0
M  V30 2696 S 266.159 5.26565 0.97416 0
M  V30 2697 C 267.315 5.83558 2.26297 0
M  V30 2698 H 267.548 2.9557 0.320267 0
M  V30 2699 H 265.081 1.54326 0.0477555 0
M  V30 2700 H 267.039 2.98692 2.8159 0
M  V30 2701 H 265.7 1.85269 2.53642 0
M  V30 2702 H 264.893 4.22422 2.7491 0
M  V30 2703 H 264.495 3.55951 1.14781 0
M  V30 2704 H 266.787 5.962 3.21795 0
M  V30 2705 H 267.73 6.80731 1.94962 0
M  V30 2706 H 268.138 5.11944 2.37853 0
M  V30 2707 N 267.536 -0.106894 1.57237 0
M  V30 2708 C 268.499 -1.11466 2.0027 0
M  V30 2709 C 269.499 -1.33623 0.894519 0
M  V30 2710 O 270.689 -1.29935 1.16028 0
M  V30 2711 C 267.821 -2.46646 2.35327 0
M  V30 2712 H 269.014 -0.744516 2.90512 0
M  V30 2713 H 266.567 -0.351576 1.52295 0
M  V30 2714 H 267.302 -2.88558 1.48003 0
M  V30 2715 H 267.087 -2.31915 3.16161 0
M  V30 2716 H 268.577 -3.19151 2.69318 0
M  V30 2717 N 269.014 -1.53014 -0.377408 0
M  V30 2718 C 270.26 -1.68872 -1.12294 0
M  V30 2719 C 270.593 -0.433224 -1.89306 0
M  V30 2720 O 269.868 0.569258 -1.85983 0
M  V30 2721 C 270.151 -2.93115 -2.09179 0
M  V30 2722 C 270.004 -4.28794 -1.35853 0
M  V30 2723 C 271.323 -3.12928 -3.09458 0
M  V30 2724 H 268.442 -0.614518 -0.406862 0
M  V30 2725 H 271.084 -1.85633 -0.40503 0
M  V30 2726 H 269.234 -2.78956 -2.70399 0
M  V30 2727 H 270.906 -4.54742 -0.775082 0
M  V30 2728 H 269.149 -4.28744 -0.660364 0
M  V30 2729 H 269.82 -5.11837 -2.06706 0
M  V30 2730 H 272.296 -3.26194 -2.58334 0
M  V30 2731 H 271.172 -4.01316 -3.74482 0
M  V30 2732 H 271.433 -2.27669 -3.78971 0
M  V30 2733 N 270.492 0.636531 -1.44174 0
M  V30 2734 C 271.455 1.73063 -1.50273 0
M  V30 2735 C 272.455 1.56113 -0.385397 0
M  V30 2736 O 273.645 1.61707 -0.64781 0
M  V30 2737 C 270.777 3.12096 -1.37145 0
M  V30 2738 H 271.97 1.69031 -2.47727 0
M  V30 2739 H 269.523 0.849706 -1.31186 0
M  V30 2740 H 270.258 3.21728 -0.407636 0
M  V30 2741 H 270.043 3.25805 -2.18159 0
M  V30 2742 H 271.533 3.91846 -1.44382 0
M  V30 2743 N 271.97 1.30982 0.876444 0
M  V30 2744 C 273.218 1.20058 1.62575 0
M  V30 2745 C 273.539 -0.242947 1.93481 0
M  V30 2746 O 272.809 -1.1619 1.57724 0
M  V30 2747 H 271.389 0.44135 0.602677 0
M  V30 2748 H 274.051 1.64222 1.04962 0
M  V30 2749 H 273.147 1.76762 2.57219 0
M  V30 2750 N 273.449 -1.08991 1.13837 0
M  V30 2751 C 274.412 -2.13925 0.822715 0
M  V30 2752 C 275.412 -1.599 -0.1699 0
M  V30 2753 O 276.602 -1.74104 0.0577251 0
M  V30 2754 C 273.734 -3.40155 0.225318 0
M  V30 2755 H 274.927 -2.43358 1.75262 0
M  V30 2756 H 272.48 -1.24603 0.943594 0
M  V30 2757 H 273.215 -3.16352 -0.713594 0
M  V30 2758 H 273 -3.80661 0.940193 0
M  V30 2759 H 274.49 -4.17594 0.0214784 0
M  V30 2760 N 274.927 -0.932562 -1.27047 0
M  V30 2761 C 275.874 -0.434072 -2.26681 0
M  V30 2762 C 276.844 0.501639 -1.58344 0
M  V30 2763 O 278.029 0.419734 -1.86126 0
M  V30 2764 C 275.169 0.30261 -3.43771 0
M  V30 2765 C 274.282 -0.667774 -4.26808 0
M  V30 2766 C 273.417 0.0892393 -5.31125 0
M  V30 2767 C 272.456 -0.873532 -6.05835 0
M  V30 2768 N 271.593 -0.148832 -7.01942 0
M  V30 2769 H 276.433 -1.28868 -2.68695 0
M  V30 2770 H 273.97 -0.646713 -1.32121 0
M  V30 2771 H 275.928 0.746092 -4.10474 0
M  V30 2772 H 274.558 1.12142 -3.02695 0
M  V30 2773 H 273.61 -1.22978 -3.59973 0
M  V30 2774 H 274.922 -1.40337 -4.78651 0
M  V30 2775 H 274.076 0.592409 -6.03801 0
M  V30 2776 H 272.815 0.85777 -4.80097 0
M  V30 2777 H 271.82 -1.38791 -5.31994 0
M  V30 2778 H 273.045 -1.64193 -6.58952 0
M  V30 2779 H 270.991 0.601365 -6.53238 0
M  V30 2780 H 270.908 -0.82391 -7.51497 0
M  V30 2781 H 272.176 0.333527 -7.78786 0
M  V30 2782 N 276.405 1.4127 -0.698611 0
M  V30 2783 C 277.335 2.33447 -0.049629 0
M  V30 2784 C 278.316 1.51982 0.763898 0
M  V30 2785 O 279.501 1.80509 0.716257 0
M  V30 2786 C 276.631 3.35828 0.885267 0
M  V30 2787 C 275.585 4.27627 0.178613 0
M  V30 2788 C 274.911 5.20406 1.22807 0
M  V30 2789 C 276.211 5.13459 -0.956933 0
M  V30 2790 H 277.905 2.87966 -0.81951 0
M  V30 2791 H 275.451 1.38461 -0.395538 0
M  V30 2792 H 277.404 3.9924 1.34854 0
M  V30 2793 H 276.128 2.79666 1.68685 0
M  V30 2794 H 274.787 3.65643 -0.26466 0
M  V30 2795 H 274.435 4.60558 2.02226 0
M  V30 2796 H 274.135 5.82661 0.760239 0
M  V30 2797 H 275.659 5.86695 1.69179 0
M  V30 2798 H 277.073 5.70421 -0.573805 0
M  V30 2799 H 275.47 5.8467 -1.35205 0
M  V30 2800 H 276.54 4.50443 -1.79524 0
M  V30 2801 N 277.883 0.443576 1.51229 0
M  V30 2802 C 279.299 0.0962001 1.5931 0
M  V30 2803 C 279.499 -1.39501 1.45402 0
M  V30 2804 O 278.555 -2.16557 1.29843 0
M  V30 2805 C 279.868 0.621875 2.94199 0
M  V30 2806 C 281.416 0.582865 3.07525 0
M  V30 2807 C 281.891 1.08562 4.44948 0
M  V30 2808 N 283.382 1.04387 4.51284 0
M  V30 2809 C 284.117 1.40368 5.55954 0
M  V30 2810 N 283.613 1.83664 6.68011 0
M  V30 2811 N 285.406 1.32145 5.46346 0
M  V30 2812 H 277.557 1.41376 1.58514 0
M  V30 2813 H 279.82 0.582965 0.747567 0
M  V30 2814 H 279.526 1.66546 3.09767 0
M  V30 2815 H 279.4 0.0502125 3.77167 0
M  V30 2816 H 281.787 -0.451749 2.91622 0
M  V30 2817 H 281.868 1.191 2.26382 0
M  V30 2818 H 281.512 2.11873 4.61598 0
M  V30 2819 H 281.442 0.453956 5.2464 0
M  V30 2820 H 283.933 0.725986 3.70861 0
M  V30 2821 H 284.246 2.0934 7.43906 0
M  V30 2822 H 282.591 1.87596 6.69203 0
M  V30 2823 H 285.782 0.981808 4.57688 0
M  V30 2824 H 285.955 1.60514 6.27805 0
M  V30 2825 N 279.361 -1.56624 0.175154 0
M  V30 2826 C 280.609 -1.96609 -0.467885 0
M  V30 2827 C 280.93 -1.06238 -1.63519 0
M  V30 2828 O 280.2 -0.129523 -1.95471 0
M  V30 2829 H 278.78 -0.726008 -0.175845 0
M  V30 2830 H 281.442 -1.93195 0.257234 0
M  V30 2831 H 280.538 -3.00989 -0.825342 0
M  V30 2832 N 280.839 0.0985539 -1.57292 0
M  V30 2833 C 281.802 1.10402 -2.00858 0
M  V30 2834 C 282.802 1.33146 -0.901593 0
M  V30 2835 O 283.992 1.29318 -1.16716 0
M  V30 2836 C 281.124 2.45394 -2.36632 0
M  V30 2837 H 282.317 0.729099 -2.90902 0
M  V30 2838 H 279.87 0.343495 -1.52479 0
M  V30 2839 H 280.605 2.87769 -1.49531 0
M  V30 2840 H 280.39 2.30235 -3.17387 0
M  V30 2841 H 281.88 3.17718 -2.71007 0
M  V30 2842 N 282.317 1.53212 0.369288 0
M  V30 2843 C 283.565 1.68881 1.11012 0
M  V30 2844 C 283.886 0.441285 1.89941 0
M  V30 2845 O 283.156 -0.544623 1.88177 0
M  V30 2846 H 281.736 0.622569 0.412816 0
M  V30 2847 H 284.398 1.90391 0.416802 0
M  V30 2848 H 283.494 2.54822 1.80201 0
M  V30 2849 N 283.795 -0.628877 1.44509 0
M  V30 2850 C 285.211 -0.947305 1.28446 0
M  V30 2851 C 285.411 -2.00275 0.221872 0
M  V30 2852 O 284.467 -2.49447 -0.391471 0
M  V30 2853 C 285.78 -1.40843 2.65676 0
M  V30 2854 C 287.328 -1.52379 2.73404 0
M  V30 2855 C 287.803 -2.01875 4.11109 0
M  V30 2856 N 289.294 -2.09142 4.13296 0
M  V30 2857 C 290.029 -2.48615 5.16699 0
M  V30 2858 N 289.525 -2.87209 6.30462 0
M  V30 2859 N 291.318 -2.48768 5.04054 0
M  V30 2860 H 283.469 0.0690977 2.12288 0
M  V30 2861 H 285.732 -0.0317164 0.947469 0
M  V30 2862 H 285.438 -0.707206 3.44516 0
M  V30 2863 H 285.312 -2.37902 2.92716 0
M  V30 2864 H 287.699 -2.21598 1.9488 0
M  V30 2865 H 287.78 -0.536898 2.50102 0
M  V30 2866 H 287.424 -1.3325 4.90109 0
M  V30 2867 H 287.354 -3.0144 4.31789 0
M  V30 2868 H 289.845 -1.81991 3.31191 0
M  V30 2869 H 290.158 -3.16149 7.05174 0
M  V30 2870 H 288.503 -2.84955 6.33897 0
M  V30 2871 H 291.694 -2.18009 4.14234 0
M  V30 2872 H 291.867 -2.79207 5.84763 0
M  V30 2873 N 285.273 -1.31445 -0.869486 0
M  V30 2874 C 286.522 -1.20517 -1.61736 0
M  V30 2875 C 286.835 0.235341 -1.94179 0
M  V30 2876 O 288.041 0.466312 -2.67465 0
M  V30 2877 C 286.497 -2.10982 -2.91573 0
M  V30 2878 C 286.105 -3.60032 -2.66611 0
M  V30 2879 C 287.849 -2.08856 -3.69567 0
M  V30 2880 C 285.756 -4.42503 -3.92358 0
M  V30 2881 H 284.686 -0.447493 -0.606849 0
M  V30 2882 H 287.337 -1.56303 -0.96133 0
M  V30 2883 H 285.719 -1.68095 -3.58553 0
M  V30 2884 H 286.893 -4.11167 -2.08035 0
M  V30 2885 H 285.208 -3.64139 -2.0197 0
M  V30 2886 H 287.805 -2.67716 -4.62852 0
M  V30 2887 H 288.148 -1.07582 -4.02159 0
M  V30 2888 H 288.681 -2.49945 -3.09471 0
M  V30 2889 H 285.42 -5.44533 -3.64916 0
M  V30 2890 H 284.94 -3.96125 -4.50383 0
M  V30 2891 H 286.619 -4.54741 -4.60238 0
M  V30 2892 N 286.751 1.08385 -1.14413 0
M  V30 2893 C 288 1.80153 -0.907076 0
M  V30 2894 C 288.313 1.87176 0.567851 0
M  V30 2895 O 289.519 2.55359 0.922172 0
M  V30 2896 C 287.975 3.23687 -1.57336 0
M  V30 2897 C 287.583 3.24897 -3.08457 0
M  V30 2898 C 289.327 4.00136 -1.41744 0
M  V30 2899 C 287.234 4.6302 -3.67921 0
M  V30 2900 H 286.164 0.675139 -0.335714 0
M  V30 2901 H 288.815 1.21733 -1.37307 0
M  V30 2902 H 287.197 3.82234 -1.03505 0
M  V30 2903 H 288.371 2.76055 -3.68958 0
M  V30 2904 H 286.686 2.61943 -3.2369 0
M  V30 2905 H 289.283 5.02201 -1.83572 0
M  V30 2906 H 289.626 4.14709 -0.363576 0
M  V30 2907 H 290.159 3.48058 -1.92614 0
M  V30 2908 H 286.898 4.5365 -4.73161 0
M  V30 2909 H 286.418 5.12143 -3.12201 0
M  V30 2910 H 288.097 5.31994 -3.68227 0
M  V30 2911 N 288.23 0.939286 1.26551 0
M  V30 2912 C 289.193 0.451987 2.24699 0
M  V30 2913 C 290.193 -0.435869 1.5478 0
M  V30 2914 O 291.383 -0.235314 1.72603 0
M  V30 2915 C 288.515 -0.348801 3.39111 0
M  V30 2916 H 289.708 1.3193 2.69322 0
M  V30 2917 H 287.261 0.721072 1.38673 0
M  V30 2918 H 287.996 -1.23444 2.99887 0
M  V30 2919 H 287.781 0.287945 3.91041 0
M  V30 2920 H 289.271 -0.679726 4.12031 0
M  V30 2921 N 289.708 -1.40897 0.706093 0
M  V30 2922 C 290.954 -2.01352 0.241889 0
M  V30 2923 C 291.287 -1.55832 -1.15888 0
M  V30 2924 O 290.562 -0.774145 -1.7843 0
M  V30 2925 C 290.845 -3.58752 0.311311 0
M  V30 2926 C 290.698 -4.1437 1.74978 0
M  V30 2927 C 292.017 -4.38914 -0.322922 0
M  V30 2928 H 289.136 -0.731562 0.0893687 0
M  V30 2929 H 291.778 -1.67504 0.896802 0
M  V30 2930 H 289.928 -3.87718 -0.246302 0
M  V30 2931 H 291.6 -3.96239 2.36205 0
M  V30 2932 H 289.843 -3.69016 2.28057 0
M  V30 2933 H 290.514 -5.23532 1.74981 0
M  V30 2934 H 292.99 -4.15822 0.152089 0
M  V30 2935 H 291.866 -5.48358 -0.243855 0
M  V30 2936 H 292.127 -4.19176 -1.40513 0
M  V30 2937 N 291.186 -0.45159 -1.50991 0
M  V30 2938 C 292.434 0.109857 -2.01801 0
M  V30 2939 C 292.755 1.41958 -1.3369 0
M  V30 2940 O 292.025 1.9003 -0.475951 0
M  V30 2941 H 290.605 0.0435884 -0.745727 0
M  V30 2942 H 293.267 -0.597557 -1.85514 0
M  V30 2943 H 292.363 0.275489 -3.10882 0
M  V30 2944 N 292.664 1.56529 -0.183458 0
M  V30 2945 C 293.889 2.02064 0.467428 0
M  V30 2946 C 294.314 1.06282 1.55196 0
M  V30 2947 O 293.672 0.0443565 1.81246 0
M  V30 2948 C 293.72 3.46122 1.01153 0
M  V30 2949 O 292.824 3.53437 2.12499 0
M  V30 2950 H 292.165 0.654726 0.110588 0
M  V30 2951 H 294.695 2.02521 -0.290917 0
M  V30 2952 H 294.705 3.85676 1.33108 0
M  V30 2953 H 293.38 4.15331 0.217533 0
M  V30 2954 H 291.957 3.2575 1.81497 0
M  V30 2955 N 294.142 -0.090211 1.57342 0
M  V30 2956 C 295.558 -0.444547 1.53284 0
M  V30 2957 C 295.758 -1.80238 0.900914 0
M  V30 2958 O 294.814 -2.4759 0.495513 0
M  V30 2959 C 296.127 -0.402543 2.97993 0
M  V30 2960 C 297.675 -0.48405 3.09234 0
M  V30 2961 C 298.15 -0.472144 4.5556 0
M  V30 2962 N 299.641 -0.532757 4.60126 0
M  V30 2963 C 300.376 -0.545462 5.708 0
M  V30 2964 N 299.872 -0.514082 6.9089 0
M  V30 2965 N 301.665 -0.59064 5.58988 0
M  V30 2966 H 293.816 0.799121 1.96794 0
M  V30 2967 H 296.079 0.297965 0.899956 0
M  V30 2968 H 295.785 0.528106 3.47712 0
M  V30 2969 H 295.659 -1.21969 3.56936 0
M  V30 2970 H 298.046 -1.40512 2.595 0
M  V30 2971 H 298.127 0.361328 2.53235 0
M  V30 2972 H 297.771 0.445 5.05947 0
M  V30 2973 H 297.701 -1.3348 5.09402 0
M  V30 2974 H 300.192 -0.562006 3.73698 0
M  V30 2975 H 300.505 -0.527195 7.71 0
M  V30 2976 H 298.85 -0.481054 6.93333 0
M  V30 2977 H 302.041 -0.61272 4.64073 0
M  V30 2978 H 302.214 -0.597073 6.45243 0
M  V30 2979 N 295.62 -1.53406 -0.361157 0
M  V30 2980 C 297.031 -1.61442 -0.937728 0
M  V30 2981 C 297.382 -0.48461 -1.90121 0
M  V30 2982 O 296.507 0.388312 -2.12888 0
M  V30 2983 C 297.102 -2.92624 -1.70753 0
M  V30 2984 C 295.661 -3.02981 -2.23337 0
M  V30 2985 C 294.808 -2.5677 -1.04712 0
M  V30 2986 H 297.759 -1.58083 -0.139816 0
M  V30 2987 H 297.78 -2.80675 -2.56908 0
M  V30 2988 H 297.292 -3.74834 -1.00604 0
M  V30 2989 H 295.393 -2.25368 -2.96715 0
M  V30 2990 H 295.506 -4.0814 -2.50916 0
M  V30 2991 H 293.87 -2.11752 -1.41539 0
M  V30 2992 H 294.653 -3.41402 -0.360539 0
M  V30 2993 N 297.098 0.621204 -1.44841 0
M  V30 2994 C 298.344 1.3826 -1.48365 0
M  V30 2995 C 298.677 1.93831 -0.119624 0
M  V30 2996 O 297.952 1.74251 0.864111 0
M  V30 2997 C 298.235 2.54058 -2.55199 0
M  V30 2998 C 298.088 2.03772 -4.00995 0
M  V30 2999 C 299.407 3.56225 -2.58442 0
M  V30 3000 H 296.526 0.501374 -0.540179 0
M  V30 3001 H 299.168 0.7015 -1.76576 0
M  V30 3002 H 297.318 3.12162 -2.31274 0
M  V30 3003 H 298.99 1.50423 -4.36086 0
M  V30 3004 H 297.233 1.34876 -4.12299 0
M  V30 3005 H 297.904 2.87185 -4.71411 0
M  V30 3006 H 300.38 3.07939 -2.79844 0
M  V30 3007 H 299.256 4.34756 -3.3508 0
M  V30 3008 H 299.517 4.10949 -1.63013 0
M  V30 3009 N 298.576 1.31904 0.862503 0
M  V30 3010 C 299.816 1.23324 1.63004 0
M  V30 3011 C 300.18 -0.203724 1.90916 0
M  V30 3012 O 301.381 -0.413132 2.65606 0
M  V30 3013 C 299.652 2.06116 2.91978 0
M  V30 3014 S 301.211 2.14478 3.82812 0
M  V30 3015 H 298.029 0.439117 0.559193 0
M  V30 3016 H 300.631 1.66658 1.02202 0
M  V30 3017 H 299.335 3.09593 2.69407 0
M  V30 3018 H 298.866 1.6353 3.57801 0
M  V30 3019 H 300.881 1.28855 4.79177 0
M  V30 3020 N 300.054 -1.07777 1.14986 0
M  V30 3021 C 301.3 -1.80557 0.923422 0
M  V30 3022 C 301.633 -1.86298 -0.548337 0
M  V30 3023 O 300.908 -1.34354 -1.40639 0
M  V30 3024 C 301.191 -3.25839 1.53299 0
M  V30 3025 C 301.044 -3.28269 3.07505 0
M  V30 3026 C 302.363 -4.22991 1.21518 0
M  V30 3027 H 299.482 -0.655493 0.336894 0
M  V30 3028 H 302.124 -1.26144 1.42083 0
M  V30 3029 H 300.274 -3.72306 1.10999 0
M  V30 3030 H 301.946 -2.90079 3.58681 0
M  V30 3031 H 300.189 -2.67355 3.4162 0
M  V30 3032 H 300.86 -4.30691 3.45266 0
M  V30 3033 H 303.336 -3.84894 1.581 0
M  V30 3034 H 302.212 -5.22945 1.66793 0
M  V30 3035 H 302.473 -4.41904 0.131505 0
M  V30 3036 N 301.532 -0.945985 -1.26051 0
M  V30 3037 C 302.809 -0.513816 -1.88731 0
M  V30 3038 C 303.189 1.00872 -1.8544 0
M  V30 3039 O 302.537 1.8708 -1.312 0
M  V30 3040 C 302.747 -1.08062 -3.31849 0
M  V30 3041 C 304.095 -1.1522 -4.08668 0
M  V30 3042 O 305.119 -1.03155 -3.40936 0
M  V30 3043 O 303.978 -1.34044 -5.29806 0
M  V30 3044 H 301.072 -0.168193 -0.809716 0
M  V30 3045 H 303.618 -1.03886 -1.34186 0
M  V30 3046 H 302.39 -2.1241 -3.2863 0
M  V30 3047 H 302.013 -0.538307 -3.93939 0
M  V30 3048 N 303.011 1.40521 -0.713556 0
M  V30 3049 C 303.974 2.29098 -0.0684347 0
M  V30 3050 C 304.974 1.45268 0.689472 0
M  V30 3051 O 306.164 1.66205 0.521677 0
M  V30 3052 C 303.296 3.28446 0.913024 0
M  V30 3053 H 304.489 2.87645 -0.84855 0
M  V30 3054 H 302.042 1.48809 -0.47809 0
M  V30 3055 H 302.777 2.74913 1.72027 0
M  V30 3056 H 302.562 3.90327 0.372472 0
M  V30 3057 H 304.052 3.94777 1.36165 0
M  V30 3058 N 304.489 0.459591 1.5075 0
M  V30 3059 C 305.452 -0.329093 2.26825 0
M  V30 3060 C 306.452 -0.930481 1.31144 0
M  V30 3061 O 307.642 -0.801453 1.54669 0
M  V30 3062 C 304.774 -1.46768 3.07688 0
M  V30 3063 H 305.967 0.337924 2.9799 0
M  V30 3064 H 303.52 0.213336 1.54837 0
M  V30 3065 H 304.255 -2.17009 2.40993 0
M  V30 3066 H 304.04 -1.04238 3.77991 0
M  V30 3067 H 305.53 -2.02433 3.65254 0
M  V30 3068 N 305.967 -1.56429 0.191757 0
M  V30 3069 C 306.914 -2.18936 -0.730454 0
M  V30 3070 C 307.884 -1.13557 -1.21219 0
M  V30 3071 O 309.069 -1.41794 -1.27668 0
M  V30 3072 C 306.209 -2.85013 -1.9458 0
M  V30 3073 C 305.322 -4.04909 -1.50574 0
M  V30 3074 C 304.457 -4.58853 -2.67634 0
M  V30 3075 C 303.496 -5.71114 -2.20217 0
M  V30 3076 N 302.633 -6.19478 -3.30442 0
M  V30 3077 H 307.473 -2.97389 -0.190664 0
M  V30 3078 H 305.01 -1.46869 -0.0823694 0
M  V30 3079 H 306.968 -3.21492 -2.65893 0
M  V30 3080 H 305.598 -2.09129 -2.45896 0
M  V30 3081 H 304.65 -3.74115 -0.688605 0
M  V30 3082 H 305.962 -4.86113 -1.11784 0
M  V30 3083 H 305.116 -4.97619 -3.47074 0
M  V30 3084 H 303.855 -3.76749 -3.09696 0
M  V30 3085 H 302.86 -5.31879 -1.3923 0
M  V30 3086 H 304.085 -6.55033 -1.79189 0
M  V30 3087 H 302.031 -5.40297 -3.72041 0
M  V30 3088 H 301.948 -6.95725 -2.9581 0
M  V30 3089 H 303.216 -6.62898 -4.10106 0
M  V30 3090 N 307.445 0.0818655 -1.57387 0
M  V30 3091 C 308.675 0.794954 -1.90694 0
M  V30 3092 C 309.083 1.72147 -0.784982 0
M  V30 3093 O 308.426 1.81974 0.251196 0
M  V30 3094 C 308.488 1.65042 -3.19376 0
M  V30 3095 C 308.152 0.894337 -4.48164 0
M  V30 3096 C 309.149 0.21813 -5.19442 0
M  V30 3097 C 306.834 0.864495 -4.94805 0
M  V30 3098 C 308.828 -0.477802 -6.35607 0
M  V30 3099 C 306.515 0.164785 -6.10878 0
M  V30 3100 C 307.513 -0.505173 -6.81129 0
M  V30 3101 O 307.201 -1.19363 -7.94989 0
M  V30 3102 H 306.933 0.231779 -0.635023 0
M  V30 3103 H 309.487 0.059493 -2.05314 0
M  V30 3104 H 307.717 2.42844 -3.00938 0
M  V30 3105 H 309.406 2.24127 -3.38411 0
M  V30 3106 H 310.172 0.232558 -4.84442 0
M  V30 3107 H 306.051 1.37542 -4.40004 0
M  V30 3108 H 309.595 -1.00129 -6.90377 0
M  V30 3109 H 305.492 0.148249 -6.4533 0
M  V30 3110 H 306.26 -1.10188 -8.11049 0
M  V30 3111 N 308.923 1.53595 0.353017 0
M  V30 3112 C 310.153 1.74058 1.11299 0
M  V30 3113 C 310.561 0.475205 1.83135 0
M  V30 3114 O 309.904 -0.562344 1.74881 0
M  V30 3115 C 309.966 2.85994 2.17825 0
M  V30 3116 C 309.63 4.25923 1.65647 0
M  V30 3117 C 310.627 5.07829 1.11383 0
M  V30 3118 C 308.312 4.72377 1.7078 0
M  V30 3119 C 310.306 6.34285 0.629439 0
M  V30 3120 C 307.993 5.98808 1.21953 0
M  V30 3121 C 308.991 6.79594 0.681265 0
M  V30 3122 O 308.679 8.03651 0.200248 0
M  V30 3123 H 308.411 0.585327 0.338183 0
M  V30 3124 H 310.965 2.01186 0.413927 0
M  V30 3125 H 309.195 2.54368 2.91262 0
M  V30 3126 H 310.884 2.94515 2.79313 0
M  V30 3127 H 311.65 4.73107 1.06746 0
M  V30 3128 H 307.529 4.0956 2.11617 0
M  V30 3129 H 311.073 6.97288 0.208636 0
M  V30 3130 H 306.97 6.33026 1.26287 0
M  V30 3131 H 307.738 8.1788 0.318416 0
M  V30 3132 N 310.401 -0.613514 1.45168 0
M  V30 3133 C 311.649 -1.36997 1.48581 0
M  V30 3134 C 311.97 -1.94589 0.126545 0
M  V30 3135 O 311.24 -1.76816 -0.843372 0
M  V30 3136 H 309.82 -0.508558 0.547154 0
M  V30 3137 H 312.482 -0.720853 1.81079 0
M  V30 3138 H 311.578 -2.1924 2.22127 0
M  V30 3139 N 311.879 -1.3236 -0.855495 0
M  V30 3140 C 312.842 -1.21164 -1.94556 0
M  V30 3141 C 313.842 -0.134908 -1.60233 0
M  V30 3142 O 315.032 -0.385249 -1.69887 0
M  V30 3143 C 312.164 -0.863192 -3.29791 0
M  V30 3144 H 313.357 -2.18038 -2.05911 0
M  V30 3145 H 310.91 -1.16179 -1.04557 0
M  V30 3146 H 311.645 0.103769 -3.24134 0
M  V30 3147 H 311.43 -1.64166 -3.56078 0
M  V30 3148 H 312.92 -0.809156 -4.09686 0
M  V30 3149 N 313.357 1.07166 -1.15556 0
M  V30 3150 C 314.585 1.83514 -0.955519 0
M  V30 3151 C 315 1.82163 0.49621 0
M  V30 3152 O 314.357 1.23441 1.34419 0
M  V30 3153 C 314.408 3.30515 -1.46432 0
M  V30 3154 O 314.129 3.31937 -2.85918 0
M  V30 3155 C 315.63 4.23625 -1.30603 0
M  V30 3156 H 312.85 0.578926 -0.339244 0
M  V30 3157 H 315.394 1.35265 -1.53374 0
M  V30 3158 H 313.549 3.76106 -0.928584 0
M  V30 3159 H 313.963 4.23794 -3.09029 0
M  V30 3160 H 315.437 5.24831 -1.71047 0
M  V30 3161 H 315.914 4.38485 -0.250441 0
M  V30 3162 H 316.52 3.83871 -1.83094 0
M  V30 3163 N 314.835 0.952656 1.25548 0
M  V30 3164 C 316.112 0.523818 1.88456 0
M  V30 3165 C 316.492 -0.998871 1.85973 0
M  V30 3166 O 315.84 -1.86381 1.3219 0
M  V30 3167 C 316.05 1.0982 3.31271 0
M  V30 3168 C 317.398 1.17385 4.08051 0
M  V30 3169 O 318.422 1.04961 3.40384 0
M  V30 3170 O 317.281 1.36852 5.29088 0
M  V30 3171 H 314.375 0.172485 0.808813 0
M  V30 3172 H 316.921 1.04596 1.33633 0
M  V30 3173 H 315.693 2.1415 3.27499 0
M  V30 3174 H 315.316 0.559191 3.93648 0
M  V30 3175 N 316.313 -1.40141 0.720998 0
M  V30 3176 C 317.562 -2.0002 0.259804 0
M  V30 3177 C 317.875 -1.57839 -1.15526 0
M  V30 3178 O 319.081 -2.10455 -1.71525 0
M  V30 3179 C 317.537 -3.57516 0.413566 0
M  V30 3180 C 317.145 -4.08667 1.83562 0
M  V30 3181 C 318.889 -4.24498 0.0134387 0
M  V30 3182 C 316.796 -5.58686 1.93968 0
M  V30 3183 H 315.726 -0.748195 0.0933806 0
M  V30 3184 H 318.377 -1.60313 0.892866 0
M  V30 3185 H 316.759 -3.9495 -0.288169 0
M  V30 3186 H 317.933 -3.82598 2.56817 0
M  V30 3187 H 316.248 -3.543 2.1877 0
M  V30 3188 H 318.845 -5.34654 0.0703954 0
M  V30 3189 H 319.188 -4.03375 -1.02927 0
M  V30 3190 H 319.721 -3.92188 0.665815 0
M  V30 3191 H 316.46 -5.8467 2.96379 0
M  V30 3192 H 315.98 -5.86602 1.25131 0
M  V30 3193 H 317.659 -6.23875 1.71431 0
M  V30 3194 N 317.792 -0.46758 -1.50504 0
M  V30 3195 C 319.038 0.0887532 -2.02606 0
M  V30 3196 C 319.371 1.39686 -1.34913 0
M  V30 3197 O 318.646 1.88644 -0.473694 0
M  V30 3198 C 318.929 0.276206 -3.59039 0
M  V30 3199 C 318.782 -1.05267 -4.37309 0
M  V30 3200 C 320.101 1.03235 -4.27821 0
M  V30 3201 H 317.22 0.0307814 -0.736357 0
M  V30 3202 H 319.862 -0.612485 -1.79857 0
M  V30 3203 H 318.012 0.8735 -3.78553 0
M  V30 3204 H 319.684 -1.68628 -4.29374 0
M  V30 3205 H 317.927 -1.65015 -4.01189 0
M  V30 3206 H 318.598 -0.875197 -5.45018 0
M  V30 3207 H 321.074 0.526111 -4.12761 0
M  V30 3208 H 319.95 1.1323 -5.37094 0
M  V30 3209 H 320.211 2.06806 -3.90748 0
M  V30 3210 N 319.27 1.56325 -0.20005 0
M  V30 3211 C 320.218 2.20666 0.735482 0
M  V30 3212 C 321.212 1.17934 1.21605 0
M  V30 3213 O 322.418 1.36068 1.17837 0
M  V30 3214 H 318.793 0.70725 0.255542 0
M  V30 3215 H 320.764 2.9792 0.169166 0
M  V30 3216 C 319.513 2.88391 1.94232 0
M  V30 3217 H 318.836 3.67185 1.58161 0
M  V30 3218 H 320.276 3.3684 2.57517 0
M  V30 3219 C 318.735 1.89692 2.78421 0
M  V30 3220 O 319.265 1.40032 3.76502 0
M  V30 3221 N 317.471 1.57813 2.44015 0
M  V30 3222 H 317.018 1.9839 1.64314 0
M  V30 3223 H 316.976 0.920325 3.00628 0
M  V30 3224 N 320.748 -0.0735177 1.57428 0
M  V30 3225 C 321.978 -0.78483 1.91112 0
M  V30 3226 C 322.386 -1.71729 0.7941 0
M  V30 3227 O 321.729 -1.82105 -0.241542 0
M  V30 3228 C 321.791 -1.63346 3.20247 0
M  V30 3229 C 321.455 -0.870557 4.48632 0
M  V30 3230 C 322.452 -0.19058 5.19551 0
M  V30 3231 C 320.137 -0.838242 4.95256 0
M  V30 3232 C 322.131 0.511503 6.35344 0
M  V30 3233 C 319.818 -0.132386 6.10957 0
M  V30 3234 C 320.816 0.541288 6.80852 0
M  V30 3235 O 320.504 1.23578 7.94345 0
M  V30 3236 H 320.236 -0.228408 0.636244 0
M  V30 3237 H 322.79 -0.0486039 2.05342 0
M  V30 3238 H 321.02 -2.41245 3.02222 0
M  V30 3239 H 322.709 -2.22329 3.39595 0
M  V30 3240 H 323.475 -0.206864 4.84559 0
M  V30 3241 H 319.354 -1.35206 4.40727 0
M  V30 3242 H 322.898 1.03789 6.89836 0
M  V30 3243 H 318.795 -0.114023 6.45399 0
M  V30 3244 H 319.563 1.14487 8.10454 0
M  V30 3245 N 322.226 -1.5378 -0.344866 0
M  V30 3246 C 323.173 -1.81676 -1.42346 0
M  V30 3247 C 324.143 -0.662376 -1.52321 0
M  V30 3248 O 325.328 -0.906675 -1.67881 0
M  V30 3249 C 322.468 -2.03087 -2.79015 0
M  V30 3250 C 321.581 -3.30799 -2.77842 0
M  V30 3251 C 320.716 -3.42285 -4.0622 0
M  V30 3252 C 319.755 -4.6395 -3.9927 0
M  V30 3253 N 318.892 -4.72477 -5.19336 0
M  V30 3254 H 323.732 -2.73703 -1.17858 0
M  V30 3255 H 321.269 -1.35568 -0.570949 0
M  V30 3256 H 323.227 -2.1349 -3.58438 0
M  V30 3257 H 321.857 -1.14375 -3.01858 0
M  V30 3258 H 320.909 -3.29244 -1.90533 0
M  V30 3259 H 322.221 -4.20314 -2.68584 0
M  V30 3260 H 321.375 -3.52113 -4.94066 0
M  V30 3261 H 320.114 -2.50823 -4.18258 0
M  V30 3262 H 319.119 -4.54201 -3.09809 0
M  V30 3263 H 320.344 -5.56775 -3.88817 0
M  V30 3264 H 318.29 -3.83924 -5.3192 0
M  V30 3265 H 318.207 -5.55927 -5.12329 0
M  V30 3266 H 319.475 -4.86613 -6.08957 0
M  V30 3267 N 323.704 0.605807 -1.45491 0
M  V30 3268 C 324.981 1.36522 -1.40075 0
M  V30 3269 C 325.361 2.10976 -0.0722744 0
M  V30 3270 O 324.709 2.08007 0.945808 0
M  V30 3271 C 324.919 2.31056 -2.61561 0
M  V30 3272 C 326.267 2.93608 -3.06724 0
M  V30 3273 O 327.291 2.41376 -2.61946 0
M  V30 3274 O 326.15 3.88421 -3.84437 0
M  V30 3275 H 323.244 0.612248 -0.555951 0
M  V30 3276 H 325.79 0.628747 -1.57623 0
M  V30 3277 H 324.562 1.75311 -3.49831 0
M  V30 3278 H 324.185 3.12081 -2.46356 0
M  V30 3279 N 325.182 1.32811 0.848464 0
M  V30 3280 C 326.43 1.23479 1.59991 0
M  V30 3281 C 326.751 -0.201853 1.93952 0
M  V30 3282 O 326.021 -1.12818 1.60153 0
M  V30 3283 H 324.601 0.454034 0.593179 0
M  V30 3284 H 327.263 1.66412 1.01455 0
M  V30 3285 H 326.359 1.82178 2.53412 0
M  V30 3286 N 326.66 -1.06551 1.16123 0
M  V30 3287 C 328.071 -1.60768 0.949232 0
M  V30 3288 C 328.422 -1.89523 -0.507508 0
M  V30 3289 O 327.547 -1.66671 -1.38021 0
M  V30 3290 C 328.142 -2.92086 1.71671 0
M  V30 3291 C 326.701 -3.43015 1.54977 0
M  V30 3292 C 325.848 -2.16947 1.72711 0
M  V30 3293 H 328.799 -0.895354 1.31031 0
M  V30 3294 H 328.82 -3.6138 1.19099 0
M  V30 3295 H 328.332 -2.71127 2.7769 0
M  V30 3296 H 326.433 -3.69039 0.513873 0
M  V30 3297 H 326.546 -4.18516 2.33198 0
M  V30 3298 H 324.91 -2.27041 1.15431 0
M  V30 3299 H 325.693 -1.98473 2.80113 0
M  V30 3300 N 328.138 -0.959301 -1.25041 0
M  V30 3301 C 329.387 -0.612254 -1.92183 0
M  V30 3302 C 329.7 0.855347 -1.75907 0
M  V30 3303 O 330.906 1.31256 -2.37664 0
M  V30 3304 C 329.362 -1.04435 -3.44414 0
M  V30 3305 C 328.97 -2.53482 -3.69393 0
M  V30 3306 C 330.714 -0.770055 -4.17457 0
M  V30 3307 C 328.621 -2.90468 -5.15153 0
M  V30 3308 H 327.551 -0.225279 -0.719559 0
M  V30 3309 H 330.202 -1.16438 -1.41825 0
M  V30 3310 H 328.584 -0.4206 -3.9376 0
M  V30 3311 H 329.758 -3.20916 -3.30681 0
M  V30 3312 H 328.073 -2.78432 -3.0962 0
M  V30 3313 H 330.67 -1.02249 -5.24832 0
M  V30 3314 H 331.013 0.293611 -4.15263 0
M  V30 3315 H 331.546 -1.35437 -3.74034 0
M  V30 3316 H 328.285 -3.95871 -5.22462 0
M  V30 3317 H 327.805 -2.27711 -5.54894 0
M  V30 3318 H 329.484 -2.79914 -5.83315 0
M  V30 3319 N 329.616 1.39756 -0.72842 0
M  V30 3320 C 330.526 2.34444 -0.0855374 0
M  V30 3321 C 331.542 1.57976 0.729356 0
M  V30 3322 O 332.718 1.90301 0.659346 0
M  V30 3323 C 329.783 3.36965 0.815798 0
M  V30 3324 C 328.844 4.29299 -0.0105996 0
M  V30 3325 C 328.077 5.26923 0.84781 0
M  V30 3326 O 328.3 5.30859 2.08673 0
M  V30 3327 O 327.234 6.01249 0.279969 0
M  V30 3328 H 331.06 2.91065 -0.866892 0
M  V30 3329 H 328.645 1.4117 -0.48902 0
M  V30 3330 H 330.527 3.99804 1.33171 0
M  V30 3331 H 329.202 2.82739 1.57608 0
M  V30 3332 H 328.109 3.69703 -0.571877 0
M  V30 3333 H 329.442 4.86712 -0.73295 0
M  V30 3334 N 331.094 0.475555 1.50254 0
M  V30 3335 C 332.319 -0.0777042 2.07254 0
M  V30 3336 C 332.744 -1.3235 1.3366 0
M  V30 3337 O 332.102 -1.77152 0.385597 0
M  V30 3338 C 332.15 -0.340169 3.58992 0
M  V30 3339 O 331.254 -1.41982 3.87188 0
M  V30 3340 H 330.595 0.0149556 0.663832 0
M  V30 3341 H 333.125 0.667878 1.93392 0
M  V30 3342 H 333.135 -0.579332 4.03866 0
M  V30 3343 H 331.81 0.570167 4.11973 0
M  V30 3344 H 330.387 -1.16762 3.54148 0
M  V30 3345 N 332.573 -1.56217 0.208337 0
M  V30 3346 C 333.505 -2.1695 -0.739276 0
M  V30 3347 C 334.518 -1.13492 -1.1672 0
M  V30 3348 O 335.707 -1.40529 -1.10063 0
M  V30 3349 C 332.807 -2.72755 -2.01142 0
M  V30 3350 C 331.98 -4.0125 -1.74118 0
M  V30 3351 C 331.039 -4.41749 -2.85909 0
M  V30 3352 O 330.065 -5.08912 -2.54946 0
M  V30 3353 N 331.267 -4.06342 -4.14568 0
M  V30 3354 H 334.032 -2.98893 -0.219837 0
M  V30 3355 H 331.593 -1.61878 0.0268445 0
M  V30 3356 H 333.585 -2.96826 -2.75094 0
M  V30 3357 H 332.155 -1.95191 -2.4417 0
M  V30 3358 H 331.375 -3.85173 -0.838775 0
M  V30 3359 H 332.663 -4.851 -1.53477 0
M  V30 3360 H 332.061 -3.52345 -4.42571 0
M  V30 3361 H 330.618 -4.35335 -4.85105 0
M  V30 3362 N 334.051 0.0651679 -1.57465 0
M  V30 3363 C 335.3 0.761916 -1.86756 0
M  V30 3364 C 335.613 1.78406 -0.801925 0
M  V30 3365 O 336.819 2.53084 -0.982885 0
M  V30 3366 C 335.275 1.40603 -3.31299 0
M  V30 3367 C 334.883 0.422115 -4.46007 0
M  V30 3368 C 336.627 2.08476 -3.69781 0
M  V30 3369 C 334.534 1.07252 -5.81593 0
M  V30 3370 H 333.464 0.288308 -0.696702 0
M  V30 3371 H 336.115 0.015344 -1.83494 0
M  V30 3372 H 334.497 2.20109 -3.29193 0
M  V30 3373 H 335.671 -0.343613 -4.59517 0
M  V30 3374 H 333.986 -0.152527 -4.16121 0
M  V30 3375 H 336.583 2.57925 -4.68379 0
M  V30 3376 H 336.926 2.88712 -2.99919 0
M  V30 3377 H 337.459 1.35792 -3.73905 0
M  V30 3378 H 334.198 0.310342 -6.54765 0
M  V30 3379 H 333.718 1.80895 -5.71872 0
M  V30 3380 H 335.397 1.59043 -6.27148 0
M  V30 3381 N 335.529 1.53961 0.336706 0
M  V30 3382 C 336.462 1.77255 1.43722 0
M  V30 3383 C 337.44 0.62193 1.50236 0
M  V30 3384 O 338.624 0.857874 1.67847 0
M  V30 3385 C 335.751 1.87733 2.81912 0
M  V30 3386 C 334.797 3.09933 2.92991 0
M  V30 3387 S 335.63 4.68836 2.58753 0
M  V30 3388 C 336.786 4.82202 3.99039 0
M  V30 3389 H 337.019 2.70322 1.23748 0
M  V30 3390 H 334.552 1.44917 0.532777 0
M  V30 3391 H 336.51 1.94455 3.61521 0
M  V30 3392 H 335.171 0.956666 2.99177 0
M  V30 3393 H 334.364 3.1396 3.94265 0
M  V30 3394 H 333.966 3.01472 2.21338 0
M  V30 3395 H 336.258 4.64032 4.9364 0
M  V30 3396 H 337.201 5.84298 4.00002 0
M  V30 3397 H 337.609 4.10604 3.87382 0
M  V30 3398 N 337.007 -0.598083 1.45811 0
M  V30 3399 C 337.955 -1.72932 1.55555 0
M  V30 3400 C 338.949 -1.63984 0.424921 0
M  V30 3401 O 340.155 -1.69663 0.601205 0
M  V30 3402 H 336.53 -0.571489 0.488779 0
M  V30 3403 H 338.501 -1.61842 2.50699 0
M  V30 3404 C 337.25 -3.11318 1.54843 0
M  V30 3405 H 336.573 -3.18867 2.41172 0
M  V30 3406 H 338.013 -3.90274 1.65717 0
M  V30 3407 C 336.472 -3.3578 0.274427 0
M  V30 3408 O 337.002 -3.9654 -0.641778 0
M  V30 3409 N 335.208 -2.90119 0.167139 0
M  V30 3410 H 334.755 -2.40855 0.913596 0
M  V30 3411 H 334.713 -3.0686 -0.684435 0
M  V30 3412 N 338.485 -1.33259 -0.841409 0
M  V30 3413 C 339.415 -1.25926 -1.96634 0
M  V30 3414 C 340.396 -0.140349 -1.6952 0
M  V30 3415 O 341.581 -0.329707 -1.91381 0
M  V30 3416 C 338.711 -0.99512 -3.32738 0
M  V30 3417 C 337.665 -2.0767 -3.74242 0
M  V30 3418 C 336.991 -1.66474 -5.08125 0
M  V30 3419 C 338.291 -3.49318 -3.88297 0
M  V30 3420 H 339.985 -2.20046 -2.03027 0
M  V30 3421 H 337.531 -1.05931 -0.975425 0
M  V30 3422 H 339.484 -0.930323 -4.11002 0
M  V30 3423 H 338.208 -0.0183004 -3.26595 0
M  V30 3424 H 336.867 -2.13187 -2.98239 0
M  V30 3425 H 336.515 -0.675012 -4.9845 0
M  V30 3426 H 336.215 -2.3885 -5.36865 0
M  V30 3427 H 337.739 -1.61455 -5.88867 0
M  V30 3428 H 339.153 -3.46316 -4.56879 0
M  V30 3429 H 337.55 -4.20158 -4.28471 0
M  V30 3430 H 338.62 -3.8801 -2.9082 0
M  V30 3431 N 339.963 1.05934 -1.16686 0
M  V30 3432 C 341.191 1.8249 -0.974929 0
M  V30 3433 C 341.606 1.82679 0.476861 0
M  V30 3434 O 340.963 1.2486 1.33103 0
M  V30 3435 C 341.014 3.28943 -1.49929 0
M  V30 3436 O 340.735 3.28886 -2.89423 0
M  V30 3437 C 342.236 4.22215 -1.35089 0
M  V30 3438 H 339.456 0.575295 -0.345365 0
M  V30 3439 H 342 1.33631 -1.548 0
M  V30 3440 H 340.155 3.751 -0.968423 0
M  V30 3441 H 340.569 4.20493 -3.13506 0
M  V30 3442 H 342.043 5.22987 -1.76603 0
M  V30 3443 H 342.52 4.38195 -0.296935 0
M  V30 3444 H 343.126 3.81907 -1.87155 0
M  V30 3445 N 341.441 0.965919 1.2453 0
M  V30 3446 C 342.351 0.502154 2.29163 0
M  V30 3447 C 343.367 -0.436017 1.68448 0
M  V30 3448 O 344.543 -0.309497 1.99008 0
M  V30 3449 C 341.608 -0.201956 3.46111 0
M  V30 3450 C 340.669 0.775821 4.22232 0
M  V30 3451 C 339.902 0.105217 5.33596 0
M  V30 3452 O 340.125 -1.10683 5.59558 0
M  V30 3453 O 339.059 0.796475 5.96607 0
M  V30 3454 H 342.885 1.37194 2.70946 0
M  V30 3455 H 340.47 0.732875 1.30189 0
M  V30 3456 H 342.352 -0.597564 4.17142 0
M  V30 3457 H 341.027 -1.04673 3.06309 0
M  V30 3458 H 339.934 1.22185 3.53584 0
M  V30 3459 H 341.267 1.58896 4.65846 0
M  V30 3460 N 342.919 -1.39368 0.735821 0
M  V30 3461 C 344.167 -2.00101 0.283562 0
M  V30 3462 C 344.488 -1.5868 -1.13338 0
M  V30 3463 O 343.758 -0.835423 -1.77193 0
M  V30 3464 H 342.338 -0.740024 0.101851 0
M  V30 3465 H 345 -1.70404 0.945962 0
M  V30 3466 H 344.096 -3.10323 0.332604 0
M  V30 3467 N 344.397 -0.483516 -1.5 0
M  V30 3468 C 345.344 0.304164 -2.28787 0
M  V30 3469 C 346.314 0.976114 -1.34392 0
M  V30 3470 O 347.499 0.986156 -1.63339 0
M  V30 3471 C 344.639 1.37298 -3.16612 0
M  V30 3472 C 343.752 0.714561 -4.26049 0
M  V30 3473 C 342.887 1.76232 -5.01114 0
M  V30 3474 C 341.926 1.08483 -6.0241 0
M  V30 3475 N 341.063 2.076 -6.70706 0
M  V30 3476 H 345.903 -0.373981 -2.95644 0
M  V30 3477 H 343.44 -0.196275 -1.45785 0
M  V30 3478 H 345.398 2.00445 -3.65893 0
M  V30 3479 H 344.028 2.02012 -2.51776 0
M  V30 3480 H 343.08 -0.0297798 -3.80388 0
M  V30 3481 H 344.392 0.180383 -4.98474 0
M  V30 3482 H 343.546 2.46929 -5.54176 0
M  V30 3483 H 342.285 2.33033 -4.28424 0
M  V30 3484 H 341.29 0.363545 -5.48597 0
M  V30 3485 H 342.515 0.523551 -6.77079 0
M  V30 3486 H 340.461 2.63394 -6.00799 0
M  V30 3487 H 340.378 1.59201 -7.39047 0
M  V30 3488 H 341.646 2.77639 -7.2838 0
M  V30 3489 N 345.875 1.56104 -0.216619 0
M  V30 3490 C 347.123 1.97781 0.415593 0
M  V30 3491 C 347.444 1.10536 1.60645 0
M  V30 3492 O 346.714 0.181303 1.95059 0
M  V30 3493 H 345.294 0.730415 0.156534 0
M  V30 3494 H 347.956 1.92445 -0.308366 0
M  V30 3495 H 347.052 3.03072 0.74525 0
M  V30 3496 N 347.353 -0.0568162 1.57498 0
M  V30 3497 C 348.599 -0.75422 1.88253 0
M  V30 3498 C 348.932 -1.76461 0.810865 0
M  V30 3499 O 348.207 -1.93691 -0.177259 0
M  V30 3500 C 348.49 -1.44878 3.2967 0
M  V30 3501 C 348.343 -0.453789 4.47505 0
M  V30 3502 C 349.662 -2.38994 3.69554 0
M  V30 3503 H 346.781 -0.272724 0.684683 0
M  V30 3504 H 349.423 -0.0172113 1.89992 0
M  V30 3505 H 347.573 -2.077 3.28318 0
M  V30 3506 H 349.245 0.170371 4.60985 0
M  V30 3507 H 347.488 0.229552 4.33192 0
M  V30 3508 H 348.159 -0.977699 5.43273 0
M  V30 3509 H 350.635 -1.86239 3.72095 0
M  V30 3510 H 349.511 -2.84587 4.69363 0
M  V30 3511 H 349.772 -3.24461 3.00296 0
M  V30 3512 N 348.832 -1.54138 -0.328536 0
M  V30 3513 C 350.109 -1.62749 -1.08499 0
M  V30 3514 C 350.489 -0.458198 -2.06067 0
M  V30 3515 O 349.837 0.548046 -2.2183 0
M  V30 3516 C 350.047 -2.99519 -1.79135 0
M  V30 3517 C 351.395 -3.55394 -2.32337 0
M  V30 3518 O 352.419 -3.01792 -1.89209 0
M  V30 3519 O 351.278 -4.49186 -3.11279 0
M  V30 3520 H 348.372 -0.65886 -0.499832 0
M  V30 3521 H 350.918 -1.66484 -0.328826 0
M  V30 3522 H 349.69 -3.76061 -1.08139 0
M  V30 3523 H 349.313 -2.99441 -2.61574 0
M  V30 3524 N 350.31 0.590341 -1.46126 0
M  V30 3525 C 351.273 1.68194 -1.55703 0
M  V30 3526 C 352.273 1.54808 -0.434868 0
M  V30 3527 O 353.463 1.59564 -0.698928 0
M  V30 3528 C 350.595 3.07575 -1.47005 0
M  V30 3529 H 351.788 1.61064 -2.52979 0
M  V30 3530 H 349.341 0.807541 -1.33823 0
M  V30 3531 H 350.076 3.20268 -0.509785 0
M  V30 3532 H 349.861 3.187 -2.28414 0
M  V30 3533 H 351.351 3.87055 -1.56776 0
M  V30 3534 N 351.788 1.33704 0.83433 0
M  V30 3535 C 352.751 1.24244 1.92603 0
M  V30 3536 C 353.751 0.160383 1.59998 0
M  V30 3537 O 354.941 0.412228 1.69252 0
M  V30 3538 C 352.073 0.91555 3.28376 0
M  V30 3539 H 353.266 2.21287 2.02416 0
M  V30 3540 H 350.819 1.17827 1.02696 0
M  V30 3541 H 351.554 -0.0521886 3.24258 0
M  V30 3542 H 351.339 1.69811 3.53422 0
M  V30 3543 H 352.829 0.874231 4.08347 0
M  V30 3544 N 353.266 -1.05314 1.17247 0
M  V30 3545 C 354.515 -1.77685 0.954521 0
M  V30 3546 C 354.828 -1.88616 -0.518025 0
M  V30 3547 O 356.034 -2.57714 -0.854144 0
M  V30 3548 C 354.49 -3.19402 1.65863 0
M  V30 3549 C 354.098 -3.16605 3.16963 0
M  V30 3550 C 355.842 -3.96237 1.52303 0
M  V30 3551 C 353.749 -4.53103 3.80068 0
M  V30 3552 H 352.679 -0.666 0.353496 0
M  V30 3553 H 355.33 -1.1805 1.40486 0
M  V30 3554 H 353.712 -3.79355 1.13602 0
M  V30 3555 H 354.886 -2.66176 3.76148 0
M  V30 3556 H 353.201 -2.53268 3.30521 0
M  V30 3557 H 355.798 -4.97157 1.96822 0
M  V30 3558 H 356.141 -4.136 0.473401 0
M  V30 3559 H 356.674 -3.42829 2.01775 0
M  V30 3560 H 353.413 -4.40946 4.85023 0
M  V30 3561 H 352.933 -5.03686 3.2567 0
M  V30 3562 H 354.612 -5.22045 3.82202 0
M  V30 3563 N 354.744 -0.972509 -1.24016 0
M  V30 3564 C 355.993 -0.632603 -1.91523 0
M  V30 3565 C 356.306 0.836641 -1.76804 0
M  V30 3566 O 357.512 1.28728 -2.39043 0
M  V30 3567 C 355.968 -1.08082 -3.43287 0
M  V30 3568 C 355.576 -2.57386 -3.66683 0
M  V30 3569 C 357.32 -0.814288 -4.16617 0
M  V30 3570 C 355.227 -2.95915 -5.12043 0
M  V30 3571 H 354.157 -0.232898 -0.717129 0
M  V30 3572 H 356.808 -1.17936 -1.40582 0
M  V30 3573 H 355.19 -0.462339 -3.93292 0
M  V30 3574 H 356.364 -3.24405 -3.27258 0
M  V30 3575 H 354.679 -2.81701 -3.06649 0
M  V30 3576 H 357.276 -1.0781 -5.23718 0
M  V30 3577 H 357.619 0.24955 -4.15551 0
M  V30 3578 H 358.152 -1.39397 -3.72577 0
M  V30 3579 H 354.891 -4.0139 -5.18234 0
M  V30 3580 H 354.411 -2.33584 -5.52448 0
M  V30 3581 H 356.09 -2.86086 -5.80314 0
M  V30 3582 N 356.222 1.38976 -0.743202 0
M  V30 3583 C 357.185 2.28901 -0.117014 0
M  V30 3584 C 358.185 1.46698 0.658503 0
M  V30 3585 O 359.375 1.67274 0.486305 0
M  V30 3586 C 356.507 3.30309 0.84315 0
M  V30 3587 H 357.7 2.8578 -0.909373 0
M  V30 3588 H 355.253 1.47761 -0.509547 0
M  V30 3589 H 355.988 2.785 1.66157 0
M  V30 3590 H 355.773 3.91029 0.289594 0
M  V30 3591 H 357.263 3.97577 1.2776 0
M  V30 3592 N 357.7 0.491464 1.49741 0
M  V30 3593 C 358.948 -0.0563141 2.02022 0
M  V30 3594 C 359.269 -1.38363 1.37407 0
M  V30 3595 O 358.539 -1.88702 0.526166 0
M  V30 3596 H 357.119 -0.0238014 0.746621 0
M  V30 3597 H 359.781 0.646533 1.83864 0
M  V30 3598 H 358.877 -0.192967 3.11503 0
M  V30 3599 N 359.178 -1.55987 0.224894 0
M  V30 3600 C 360.426 -1.97998 -0.405099 0
M  V30 3601 C 360.747 -1.11387 -1.60056 0
M  V30 3602 O 360.017 -0.191645 -1.9496 0
M  V30 3603 H 358.597 -0.731235 -0.152658 0
M  V30 3604 H 361.259 -1.92279 0.318567 0
M  V30 3605 H 360.355 -3.03463 -0.729167 0
M  V30 3606 N 360.656 0.0484629 -1.57525 0
M  V30 3607 C 361.604 1.07359 -2.06341 0
M  V30 3608 C 362.598 1.3865 -0.973269 0
M  V30 3609 O 363.804 1.37783 -1.15827 0
M  V30 3610 H 360.179 0.363662 -0.65822 0
M  V30 3611 H 362.15 0.635916 -2.91545 0
M  V30 3612 C 360.899 2.37198 -2.54229 0
M  V30 3613 H 360.222 2.13977 -3.37719 0
M  V30 3614 H 361.662 3.07319 -2.92115 0
M  V30 3615 C 360.121 3.04805 -1.43511 0
M  V30 3616 O 360.651 3.93848 -0.79034 0
M  V30 3617 N 358.857 2.65811 -1.17444 0
M  V30 3618 H 358.404 1.93488 -1.70059 0
M  V30 3619 H 358.362 3.11366 -0.435737 0
M  V30 3620 N 362.134 1.5431 0.320358 0
M  V30 3621 C 363.097 1.83195 1.3774 0
M  V30 3622 C 364.097 0.703906 1.44575 0
M  V30 3623 O 365.287 0.972214 1.44546 0
M  V30 3624 C 362.419 1.99487 2.76438 0
M  V30 3625 H 363.612 2.77642 1.1338 0
M  V30 3626 H 361.165 1.46076 0.556012 0
M  V30 3627 H 361.9 1.07262 3.06048 0
M  V30 3628 H 361.685 2.81575 2.7287 0
M  V30 3629 H 363.175 2.23271 3.52902 0
M  V30 3630 N 363.613 -0.582584 1.46437 0
M  V30 3631 C 364.89 -1.34276 1.4223 0
M  V30 3632 C 365.27 -2.10835 0.10583 0
M  V30 3633 O 364.618 -2.09485 -0.912596 0
M  V30 3634 C 364.828 -2.26865 2.65204 0
M  V30 3635 C 366.176 -2.88691 3.11356 0
M  V30 3636 O 367.2 -2.37178 2.65753 0
M  V30 3637 O 366.059 -3.82255 3.90568 0
M  V30 3638 H 363.153 -0.603326 0.565621 0
M  V30 3639 H 365.699 -0.603591 1.58603 0
M  V30 3640 H 364.471 -1.69724 3.52576 0
M  V30 3641 H 364.094 -3.08122 2.5129 0
M  V30 3642 N 365.091 -1.34144 -0.827227 0
M  V30 3643 C 366.34 -1.25602 -1.5782 0
M  V30 3644 C 366.653 0.173445 -1.94829 0
M  V30 3645 O 367.859 0.380984 -2.68814 0
M  V30 3646 C 366.315 -2.20151 -2.84713 0
M  V30 3647 C 365.923 -3.68331 -2.55021 0
M  V30 3648 C 367.667 -2.20508 -3.62735 0
M  V30 3649 C 365.574 -4.54762 -3.78082 0
M  V30 3650 H 364.504 -0.466573 -0.592306 0
M  V30 3651 H 367.155 -1.59283 -0.911116 0
M  V30 3652 H 365.537 -1.79417 -3.53023 0
M  V30 3653 H 366.711 -4.17577 -1.94849 0
M  V30 3654 H 365.026 -3.7038 -1.90283 0
M  V30 3655 H 367.623 -2.82306 -4.54101 0
M  V30 3656 H 367.966 -1.20322 -3.98533 0
M  V30 3657 H 368.499 -2.59664 -3.01362 0
M  V30 3658 H 365.238 -5.55867 -3.47407 0
M  V30 3659 H 364.758 -4.10254 -4.37552 0
M  V30 3660 H 366.437 -4.69153 -4.45538 0
M  V30 3661 N 366.569 1.04691 -1.17803 0
M  V30 3662 C 367.502 2.12068 -0.842765 0
M  V30 3663 C 368.48 1.61455 0.192608 0
M  V30 3664 O 369.664 1.88359 0.072995 0
M  V30 3665 C 366.791 3.37715 -0.258063 0
M  V30 3666 C 365.837 4.07164 -1.26962 0
M  V30 3667 S 366.67 4.55047 -2.82299 0
M  V30 3668 C 367.826 5.83935 -2.25323 0
M  V30 3669 H 368.059 2.4018 -1.75217 0
M  V30 3670 H 365.592 1.17366 -1.00323 0
M  V30 3671 H 367.55 4.10435 0.0727935 0
M  V30 3672 H 366.211 3.0773 0.629357 0
M  V30 3673 H 365.404 4.9746 -0.809263 0
M  V30 3674 H 365.006 3.40533 -1.54639 0
M  V30 3675 H 367.298 6.57552 -1.63192 0
M  V30 3676 H 368.241 6.34725 -3.13894 0
M  V30 3677 H 368.649 5.3874 -1.68582 0
M  V30 3678 N 368.047 0.979072 1.23499 0
M  V30 3679 C 369.01 0.523244 2.23147 0
M  V30 3680 C 370.01 -0.386406 1.56088 0
M  V30 3681 O 371.2 -0.180283 1.73265 0
M  V30 3682 C 368.332 -0.240739 3.40049 0
M  V30 3683 H 369.525 1.40432 2.64989 0
M  V30 3684 H 367.078 0.764824 1.36309 0
M  V30 3685 H 367.813 -1.13841 3.03662 0
M  V30 3686 H 367.598 0.412207 3.89927 0
M  V30 3687 H 369.088 -0.548297 4.13985 0
M  V30 3688 N 369.525 -1.3858 0.750561 0
M  V30 3689 C 370.753 -2.04471 0.316098 0
M  V30 3690 C 371.168 -1.56606 -1.05452 0
M  V30 3691 O 370.525 -0.737784 -1.66922 0
M  V30 3692 C 370.576 -3.60025 0.326275 0
M  V30 3693 O 370.297 -4.06133 1.6428 0
M  V30 3694 C 371.798 -4.43131 -0.122429 0
M  V30 3695 H 369.018 -0.65717 0.135528 0
M  V30 3696 H 371.562 -1.77329 1.01857 0
M  V30 3697 H 369.717 -3.86014 -0.327431 0
M  V30 3698 H 370.131 -5.00547 1.56693 0
M  V30 3699 H 371.605 -5.51963 -0.0641473 0
M  V30 3700 H 372.082 -4.23333 -1.16988 0
M  V30 3701 H 372.688 -4.22323 0.50229 0
M  V30 3702 N 371.003 -0.499398 -1.49478 0
M  V30 3703 C 371.966 0.268838 -2.27618 0
M  V30 3704 C 372.966 0.895383 -1.33565 0
M  V30 3705 O 374.156 0.760164 -1.56739 0
M  V30 3706 C 371.288 1.38559 -3.11471 0
M  V30 3707 H 372.481 -0.416812 -2.96989 0
M  V30 3708 H 370.034 -0.254313 -1.54217 0
M  V30 3709 H 370.769 2.10544 -2.46661 0
M  V30 3710 H 370.554 0.941797 -3.80621 0
M  V30 3711 H 372.044 1.92678 -3.70493 0
M  V30 3712 N 372.481 1.55866 -0.233164 0
M  V30 3713 C 373.727 1.98897 0.395959 0
M  V30 3714 C 374.06 1.12091 1.58585 0
M  V30 3715 O 373.335 0.181182 1.93654 0
M  V30 3716 C 373.618 3.50658 0.819224 0
M  V30 3717 C 373.471 4.48233 -0.375109 0
M  V30 3718 C 374.79 4.07135 1.67121 0
M  V30 3719 H 371.909 0.723102 0.142451 0
M  V30 3720 H 374.551 1.87082 -0.331725 0
M  V30 3721 H 372.701 3.60857 1.43925 0
M  V30 3722 H 374.373 4.50031 -1.01341 0
M  V30 3723 H 372.616 4.21624 -1.02058 0
M  V30 3724 H 373.287 5.51988 -0.0358328 0
M  V30 3725 H 375.763 3.99952 1.14795 0
M  V30 3726 H 374.639 5.13615 1.93625 0
M  V30 3727 H 374.9 3.54736 2.63846 0
M  V30 3728 N 373.959 -0.0401083 1.57549 0
M  V30 3729 C 374.906 -1.04413 2.05831 0
M  V30 3730 C 375.876 -1.36585 0.945184 0
M  V30 3731 O 377.061 -1.47112 1.21502 0
M  V30 3732 C 374.201 -2.34336 2.53339 0
M  V30 3733 C 373.314 -2.08419 3.78398 0
M  V30 3734 C 372.449 -3.32133 4.14561 0
M  V30 3735 C 371.488 -3.01721 5.3257 0
M  V30 3736 N 370.625 -4.17855 5.64218 0
M  V30 3737 H 375.465 -0.625442 2.91363 0
M  V30 3738 H 373.002 -0.297218 1.44066 0
M  V30 3739 H 374.96 -3.10234 2.78946 0
M  V30 3740 H 373.59 -2.73948 1.7074 0
M  V30 3741 H 372.642 -1.23069 3.59942 0
M  V30 3742 H 373.954 -1.81978 4.64419 0
M  V30 3743 H 373.108 -4.16406 4.41238 0
M  V30 3744 H 371.847 -3.61678 3.2717 0
M  V30 3745 H 370.852 -2.15849 5.05657 0
M  V30 3746 H 372.077 -2.73466 6.21605 0
M  V30 3747 H 370.023 -4.47372 4.79786 0
M  V30 3748 H 369.94 -3.94798 6.44725 0
M  V30 3749 H 371.208 -5.03033 5.95465 0
M  V30 3750 N 375.437 -1.54477 -0.31217 0
M  V30 3751 C 376.686 -1.72438 -1.04633 0
M  V30 3752 C 376.999 -0.511163 -1.88803 0
M  V30 3753 O 378.205 -0.572341 -2.65399 0
M  V30 3754 C 376.661 -3.05043 -1.9099 0
M  V30 3755 C 376.269 -4.33806 -1.11877 0
M  V30 3756 C 378.013 -3.32364 -2.64073 0
M  V30 3757 C 375.92 -5.57467 -1.97445 0
M  V30 3758 H 374.85 -0.642647 -0.394361 0
M  V30 3759 H 377.501 -1.80966 -0.303929 0
M  V30 3760 H 375.883 -2.90451 -2.69173 0
M  V30 3761 H 377.057 -4.59199 -0.383843 0
M  V30 3762 H 375.372 -4.13336 -0.504252 0
M  V30 3763 H 377.969 -4.21951 -3.28423 0
M  V30 3764 H 378.312 -2.50745 -3.32314 0
M  V30 3765 H 378.845 -3.47875 -1.92944 0
M  V30 3766 H 375.584 -6.41722 -1.33692 0
M  V30 3767 H 375.104 -5.36277 -2.6864 0
M  V30 3768 H 376.783 -5.94303 -2.5576 0
M  V30 3769 N 376.915 0.57481 -1.46744 0
M  V30 3770 C 378.161 1.3347 -1.52688 0
M  V30 3771 C 378.494 1.93353 -0.181229 0
M  V30 3772 O 377.769 1.76912 0.808237 0
M  V30 3773 C 378.052 2.45811 -2.63152 0
M  V30 3774 C 377.905 1.90912 -4.07275 0
M  V30 3775 C 379.224 3.47822 -2.69644 0
M  V30 3776 H 376.343 0.483935 -0.555856 0
M  V30 3777 H 378.985 0.644968 -1.78718 0
M  V30 3778 H 377.135 3.04646 -2.41088 0
M  V30 3779 H 378.807 1.36473 -4.4065 0
M  V30 3780 H 377.05 1.21691 -4.16382 0
M  V30 3781 H 377.721 2.72042 -4.80309 0
M  V30 3782 H 380.197 2.9888 -2.895 0
M  V30 3783 H 379.073 4.23876 -3.48742 0
M  V30 3784 H 379.334 4.05555 -1.76005 0
M  V30 3785 N 378.394 1.34581 0.820102 0
M  V30 3786 C 379.341 1.2639 1.93117 0
M  V30 3787 C 380.311 0.138554 1.65521 0
M  V30 3788 O 381.496 0.320004 1.88097 0
M  V30 3789 C 378.636 1.02812 3.29429 0
M  V30 3790 C 377.749 2.24146 3.693 0
M  V30 3791 C 376.884 1.93829 4.94574 0
M  V30 3792 C 375.923 3.1129 5.27034 0
M  V30 3793 N 375.06 2.80838 6.43486 0
M  V30 3794 H 379.9 2.21408 1.99455 0
M  V30 3795 H 377.437 1.10077 0.975784 0
M  V30 3796 H 379.395 0.871788 4.0799 0
M  V30 3797 H 378.025 0.114612 3.22596 0
M  V30 3798 H 377.077 2.50691 2.86109 0
M  V30 3799 H 378.389 3.11899 3.89257 0
M  V30 3800 H 377.543 1.74948 5.80929 0
M  V30 3801 H 376.282 1.03341 4.76626 0
M  V30 3802 H 375.287 3.30764 4.39175 0
M  V30 3803 H 376.512 4.02561 5.4692 0
M  V30 3804 H 374.458 1.92929 6.26988 0
M  V30 3805 H 374.375 3.62123 6.63629 0
M  V30 3806 H 375.643 2.65467 7.32903 0
M  V30 3807 N 379.872 -1.04064 1.18357 0
M  V30 3808 C 381.283 -1.58719 0.98312 0
M  V30 3809 C 381.634 -1.90556 -0.467193 0
M  V30 3810 O 380.759 -1.69561 -1.34454 0
M  V30 3811 C 381.354 -2.88379 1.77828 0
M  V30 3812 C 379.913 -3.3965 1.62218 0
M  V30 3813 C 379.06 -2.13235 1.77274 0
M  V30 3814 H 382.011 -0.867359 1.32901 0
M  V30 3815 H 382.032 -3.58773 1.26737 0
M  V30 3816 H 381.544 -2.65176 2.83379 0
M  V30 3817 H 379.645 -3.67866 0.592036 0
M  V30 3818 H 379.758 -4.13475 2.42023 0
M  V30 3819 H 378.122 -2.24542 1.20221 0
M  V30 3820 H 378.905 -1.92487 2.8426 0
M  V30 3821 N 381.35 -0.985608 -1.22978 0
M  V30 3822 C 382.598 -0.656087 -1.91154 0
M  V30 3823 C 382.919 0.813561 -1.77218 0
M  V30 3824 O 382.189 1.58244 -1.1548 0
M  V30 3825 H 380.769 -0.239674 -0.707506 0
M  V30 3826 H 383.431 -1.25054 -1.49491 0
M  V30 3827 H 382.527 -0.912253 -2.9847 0
M  V30 3828 N 382.828 1.3818 -0.7579 0
M  V30 3829 C 384.076 1.99624 -0.315361 0
M  V30 3830 C 384.397 1.60464 1.10799 0
M  V30 3831 O 383.667 0.863507 1.75842 0
M  V30 3832 H 382.247 0.73831 -0.113611 0
M  V30 3833 H 384.909 1.68878 -0.972952 0
M  V30 3834 H 384.005 3.09754 -0.381931 0
M  V30 3835 N 384.306 0.507319 1.49211 0
M  V30 3836 C 385.534 -0.0315749 2.06876 0
M  V30 3837 C 385.949 -1.30241 1.36685 0
M  V30 3838 O 385.306 -1.76937 0.447152 0
M  V30 3839 C 385.357 -0.282627 3.60393 0
M  V30 3840 O 385.078 0.937835 4.27944 0
M  V30 3841 C 386.579 -0.864453 4.3479 0
M  V30 3842 H 383.799 0.0233048 0.670595 0
M  V30 3843 H 386.343 0.706484 1.91909 0
M  V30 3844 H 384.498 -0.97068 3.75042 0
M  V30 3845 H 384.912 0.704567 5.19746 0
M  V30 3846 H 386.386 -0.989664 5.43056 0
M  V30 3847 H 386.863 -1.86382 3.97692 0
M  V30 3848 H 387.469 -0.213672 4.24763 0
M  V30 3849 N 385.784 -1.5574 0.241426 0
M  V30 3850 C 387.033 -1.97986 -0.385295 0
M  V30 3851 C 387.346 -1.13267 -1.59468 0
M  V30 3852 O 388.552 -1.45501 -2.2922 0
M  V30 3853 C 387.008 -3.52275 -0.736884 0
M  V30 3854 C 386.616 -4.45726 0.450796 0
M  V30 3855 C 388.36 -4.03189 -1.3281 0
M  V30 3856 C 386.267 -5.91352 0.0756662 0
M  V30 3857 H 385.197 -0.739386 -0.147731 0
M  V30 3858 H 387.848 -1.80308 0.340779 0
M  V30 3859 H 386.23 -3.65628 -1.52094 0
M  V30 3860 H 387.404 -4.44131 1.22819 0
M  V30 3861 H 385.719 -4.05264 0.956573 0
M  V30 3862 H 388.316 -5.09505 -1.62201 0
M  V30 3863 H 388.659 -3.50212 -2.25071 0
M  V30 3864 H 389.192 -3.93141 -0.607069 0
M  V30 3865 H 385.931 -6.48354 0.965272 0
M  V30 3866 H 385.451 -5.96095 -0.665635 0
M  V30 3867 H 387.13 -6.46084 -0.344075 0
M  V30 3868 N 387.262 0.0317525 -1.57568 0
M  V30 3869 C 388.225 1.01783 -2.0536 0
M  V30 3870 C 389.225 1.29203 -0.957253 0
M  V30 3871 O 390.415 1.24251 -1.22095 0
M  V30 3872 C 387.547 2.35137 -2.46827 0
M  V30 3873 H 388.74 0.605062 -2.93733 0
M  V30 3874 H 386.293 0.278514 -1.53799 0
M  V30 3875 H 387.028 2.81168 -1.61602 0
M  V30 3876 H 386.813 2.16566 -3.26866 0
M  V30 3877 H 388.303 3.05938 -2.84239 0
M  V30 3878 N 388.74 1.54641 0.303973 0
M  V30 3879 C 389.688 1.86137 1.39484 0
M  V30 3880 C 390.682 0.734854 1.52631 0
M  V30 3881 O 391.888 0.918803 1.54784 0
M  V30 3882 H 388.263 0.590324 0.465856 0
M  V30 3883 H 390.234 2.77324 1.10154 0
M  V30 3884 C 388.983 2.12274 2.75382 0
M  V30 3885 H 388.306 2.98429 2.66046 0
M  V30 3886 H 389.746 2.38254 3.5073 0
M  V30 3887 C 388.205 0.920365 3.24085 0
M  V30 3888 O 388.735 0.139377 4.01458 0
M  V30 3889 N 386.941 0.726566 2.81371 0
M  V30 3890 H 386.488 1.36332 2.18567 0
M  V30 3891 H 386.446 -0.0763799 3.14307 0
M  V30 3892 N 390.218 -0.567019 1.47046 0
M  V30 3893 C 391.464 -1.32658 1.53394 0
M  V30 3894 C 391.797 -1.93254 0.19148 0
M  V30 3895 O 391.072 -1.77338 -0.798844 0
M  V30 3896 C 391.355 -2.44412 2.64452 0
M  V30 3897 C 391.208 -1.88749 4.08282 0
M  V30 3898 C 392.527 -3.46387 2.71485 0
M  V30 3899 H 389.646 -0.48098 0.558415 0
M  V30 3900 H 392.288 -0.635481 1.79058 0
M  V30 3901 H 390.438 -3.03363 2.427 0
M  V30 3902 H 392.11 -1.34134 4.41368 0
M  V30 3903 H 390.353 -1.19481 4.17021 0
M  V30 3904 H 391.024 -2.69491 4.81745 0
M  V30 3905 H 393.5 -2.9734 2.91081 0
M  V30 3906 H 392.376 -4.2202 3.50985 0
M  V30 3907 H 392.637 -4.04616 1.78153 0
M  V30 3908 N 391.696 -1.35014 -0.812953 0
M  V30 3909 C 392.644 -1.27435 -1.94585 0
M  V30 3910 C 393.638 -0.170494 -1.6854 0
M  V30 3911 O 394.844 -0.336085 -1.76835 0
M  V30 3912 H 391.219 -0.396144 -0.639198 0
M  V30 3913 H 393.19 -2.23158 -1.98098 0
M  V30 3914 C 391.939 -1.05677 -3.31252 0
M  V30 3915 H 391.262 -1.89853 -3.51846 0
M  V30 3916 H 392.702 -1.04413 -4.10943 0
M  V30 3917 C 391.161 0.239615 -3.36047 0
M  V30 3918 O 391.691 1.23759 -3.8216 0
M  V30 3919 N 389.897 0.276186 -2.89285 0
M  V30 3920 H 389.444 -0.53653 -2.51951 0
M  V30 3921 H 389.402 1.14332 -2.92875 0
M  V30 3922 N 393.175 1.03435 -1.18907 0
M  V30 3923 C 394.405 1.8012 -1.01195 0
M  V30 3924 C 394.813 1.8395 0.442613 0
M  V30 3925 O 394.156 1.27836 1.31923 0
M  V30 3926 C 394.218 3.26792 -1.49823 0
M  V30 3927 C 393.882 3.46609 -2.97844 0
M  V30 3928 C 394.879 3.37278 -3.95651 0
M  V30 3929 C 392.564 3.73001 -3.36416 0
M  V30 3930 C 394.558 3.54054 -5.30023 0
M  V30 3931 C 392.245 3.89423 -4.70949 0
M  V30 3932 C 393.243 3.79951 -5.67562 0
M  V30 3933 O 392.931 3.95895 -6.99659 0
M  V30 3934 H 392.663 0.573865 -0.357289 0
M  V30 3935 H 395.217 1.31207 -1.58031 0
M  V30 3936 H 393.447 3.76703 -0.873578 0
M  V30 3937 H 395.136 3.85055 -1.28404 0
M  V30 3938 H 395.902 3.16846 -3.67197 0
M  V30 3939 H 391.781 3.79469 -2.61772 0
M  V30 3940 H 395.325 3.46577 -6.05417 0
M  V30 3941 H 391.222 4.09351 -4.99101 0
M  V30 3942 H 391.99 4.13019 -7.06653 0
M  V30 3943 N 394.653 0.992116 1.22453 0
M  V30 3944 C 395.9 0.667534 1.91181 0
M  V30 3945 C 396.228 -0.800317 1.77271 0
M  V30 3946 O 395.483 -1.59421 1.13505 0
M  V30 3947 C 395.782 1.01832 3.42586 0
M  V30 3948 C 395.448 2.47831 3.76684 0
M  V30 3949 C 394.11 2.87729 3.85701 0
M  V30 3950 C 396.462 3.42466 3.92895 0
M  V30 3951 C 393.79 4.21252 4.08367 0
M  V30 3952 C 396.142 4.75648 4.17064 0
M  V30 3953 C 394.806 5.15288 4.24305 0
M  V30 3954 H 394.076 0.244268 0.699581 0
M  V30 3955 H 396.723 1.24816 1.45235 0
M  V30 3956 H 395.028 0.355769 3.90181 0
M  V30 3957 H 396.725 0.745228 3.94014 0
M  V30 3958 H 393.315 2.15905 3.70247 0
M  V30 3959 H 397.499 3.12814 3.85307 0
M  V30 3960 H 392.755 4.51554 4.122 0
M  V30 3961 H 396.929 5.48924 4.2855 0
M  V30 3962 H 394.556 6.18769 4.41621 0
M  V30 3963 N 396.131 -1.37776 0.765217 0
M  V30 3964 C 397.379 -1.99454 0.325943 0
M  V30 3965 C 397.7 -1.61049 -1.09947 0
M  V30 3966 O 396.97 -0.872821 -1.75381 0
M  V30 3967 H 395.55 -0.737697 0.117525 0
M  V30 3968 H 398.212 -1.68359 0.981895 0
M  V30 3969 H 397.308 -3.09547 0.398353 0
M  V30 3970 N 397.609 -0.515225 -1.4894 0
M  V30 3971 C 398.519 0.259774 -2.33157 0
M  V30 3972 C 399.535 0.953501 -1.45548 0
M  V30 3973 O 400.711 0.931735 -1.78552 0
M  V30 3974 C 397.776 1.30193 -3.21326 0
M  V30 3975 C 396.837 0.620129 -4.24797 0
M  V30 3976 C 396.07 1.61263 -5.08753 0
M  V30 3977 O 396.293 2.84389 -4.94448 0
M  V30 3978 O 395.227 1.16013 -5.90614 0
M  V30 3979 H 399.053 -0.429932 -3.00641 0
M  V30 3980 H 396.638 -0.276346 -1.46822 0
M  V30 3981 H 398.52 1.90455 -3.75905 0
M  V30 3982 H 397.195 1.97431 -2.56521 0
M  V30 3983 H 396.102 -0.0226019 -3.74093 0
M  V30 3984 H 397.435 -0.0100493 -4.92199 0
M  V30 3985 N 399.087 1.5561 -0.249682 0
M  V30 3986 C 400.335 1.98618 0.373548 0
M  V30 3987 C 400.656 1.13919 1.58264 0
M  V30 3988 O 399.926 0.222637 1.94631 0
M  V30 3989 H 398.506 0.733571 0.141006 0
M  V30 3990 H 401.168 1.91748 -0.349117 0
M  V30 3991 H 400.264 3.04584 0.680796 0
M  V30 3992 N 400.565 -0.0233959 1.57583 0
M  V30 3993 C 401.475 -1.03907 2.10334 0
M  V30 3994 C 402.491 -1.39257 1.04323 0
M  V30 3995 O 403.667 -1.48462 1.36091 0
M  V30 3996 C 400.732 -2.31938 2.57693 0
M  V30 3997 C 399.793 -2.03117 3.78209 0
M  V30 3998 C 399.026 -3.25043 4.233 0
M  V30 3999 O 399.249 -4.35916 3.67876 0
M  V30 4000 O 398.183 -3.10411 5.15683 0
M  V30 4001 H 402.009 -0.620748 2.97288 0
M  V30 4002 H 399.594 -0.240743 1.47448 0
M  V30 4003 H 401.476 -3.07196 2.88458 0
M  V30 4004 H 400.151 -2.73055 1.73847 0
M  V30 4005 H 399.058 -1.25408 3.52454 0
M  V30 4006 H 400.391 -1.66852 4.63056 0
M  V30 4007 N 402.043 -1.548 -0.295768 0
M  V30 4008 C 403.289 -1.74588 -1.03184 0
M  V30 4009 C 403.622 -0.532962 -1.86744 0
M  V30 4010 O 402.897 0.469872 -1.88739 0
M  V30 4011 C 403.18 -3.03791 -1.93347 0
M  V30 4012 C 403.033 -4.35392 -1.12933 0
M  V30 4013 C 404.352 -3.28892 -2.92435 0
M  V30 4014 H 401.471 -0.635221 -0.373715 0
M  V30 4015 H 404.113 -1.87519 -0.30606 0
M  V30 4016 H 402.263 -2.92898 -2.55232 0
M  V30 4017 H 403.935 -4.58211 -0.532943 0
M  V30 4018 H 402.178 -4.31642 -0.432168 0
M  V30 4019 H 402.849 -5.22074 -1.79284 0
M  V30 4020 H 405.325 -3.39429 -2.4068 0
M  V30 4021 H 404.201 -4.20603 -3.52682 0
M  V30 4022 H 404.462 -2.47437 -3.6637 0
M  V30 4023 N 403.521 0.559213 -1.47345 0
M  V30 4024 C 404.451 1.67622 -1.62558 0
M  V30 4025 C 405.432 1.63331 -0.475087 0
M  V30 4026 O 406.617 1.80983 -0.704182 0
M  V30 4027 C 403.747 3.0626 -1.63774 0
M  V30 4028 C 402.701 3.25397 -2.7803 0
M  V30 4029 C 402.027 4.64801 -2.64318 0
M  V30 4030 C 403.327 3.10965 -4.19641 0
M  V30 4031 H 405.021 1.55146 -2.56067 0
M  V30 4032 H 402.567 0.744961 -1.23233 0
M  V30 4033 H 404.52 3.84247 -1.73008 0
M  V30 4034 H 403.244 3.1969 -0.66825 0
M  V30 4035 H 401.903 2.49817 -2.68304 0
M  V30 4036 H 401.551 4.75028 -1.65401 0
M  V30 4037 H 401.251 4.78555 -3.40968 0
M  V30 4038 H 402.775 5.44926 -2.75478 0
M  V30 4039 H 404.189 3.78772 -4.30354 0
M  V30 4040 H 402.586 3.36229 -4.97062 0
M  V30 4041 H 403.656 2.07736 -4.38148 0
M  V30 4042 N 404.999 1.35443 0.805782 0
M  V30 4043 C 406.41 1.25768 1.37983 0
M  V30 4044 C 406.761 -0.10958 1.95894 0
M  V30 4045 O 405.886 -1.01056 1.91355 0
M  V30 4046 C 406.481 2.27727 2.5085 0
M  V30 4047 C 405.04 2.2179 3.04115 0
M  V30 4048 C 404.187 2.13393 1.77084 0
M  V30 4049 H 407.138 1.4656 0.608752 0
M  V30 4050 H 407.159 1.90422 3.29424 0
M  V30 4051 H 406.671 3.27227 2.08671 0
M  V30 4052 H 404.772 1.25703 3.50756 0
M  V30 4053 H 404.885 3.13788 3.62042 0
M  V30 4054 H 403.249 1.59384 1.98668 0
M  V30 4055 H 404.032 3.14755 1.37056 0
M  V30 4056 N 406.477 -1.02803 1.19454 0
M  V30 4057 C 407.723 -1.76478 0.999171 0
M  V30 4058 C 408.056 -1.88456 -0.468828 0
M  V30 4059 O 407.331 -1.40198 -1.34814 0
M  V30 4060 C 407.614 -3.19044 1.66981 0
M  V30 4061 C 407.467 -3.14932 3.21151 0
M  V30 4062 C 408.786 -4.17456 1.39349 0
M  V30 4063 H 405.905 -0.640614 0.364393 0
M  V30 4064 H 408.547 -1.20005 1.47305 0
M  V30 4065 H 406.697 -3.67263 1.2669 0
M  V30 4066 H 408.369 -2.74605 3.70661 0
M  V30 4067 H 406.612 -2.52625 3.52652 0
M  V30 4068 H 407.283 -4.1566 3.63223 0
M  V30 4069 H 409.759 -3.77842 1.74283 0
M  V30 4070 H 408.635 -5.154 1.88823 0
M  V30 4071 H 408.896 -4.40949 0.318813 0
M  V30 4072 N 407.956 -0.998596 -1.21925 0
M  V30 4073 C 409.367 -0.711939 -1.72593 0
M  V30 4074 C 409.718 0.770842 -1.80423 0
M  V30 4075 O 408.843 1.60237 -1.4544 0
M  V30 4076 C 409.438 -1.28567 -3.13458 0
M  V30 4077 C 407.997 -1.04828 -3.61508 0
M  V30 4078 C 407.144 -1.4024 -2.39224 0
M  V30 4079 H 410.095 -1.17027 -1.07193 0
M  V30 4080 H 410.116 -0.667098 -3.74607 0
M  V30 4081 H 409.628 -2.36486 -3.07727 0
M  V30 4082 H 407.729 0.0140383 -3.72597 0
M  V30 4083 H 407.842 -1.71566 -4.47328 0
M  V30 4084 H 406.206 -0.821077 -2.41103 0
M  V30 4085 H 406.989 -2.49176 -2.36149 0
M  V30 4086 N 409.434 1.37368 -0.772513 0
M  V30 4087 C 410.85 1.53059 -0.452231 0
M  V30 4088 C 411.05 1.73065 1.03203 0
M  V30 4089 O 410.106 1.75245 1.81784 0
M  V30 4090 C 411.419 2.72659 -1.26797 0
M  V30 4091 C 412.967 2.86521 -1.25995 0
M  V30 4092 C 413.442 4.09105 -2.05905 0
M  V30 4093 N 414.933 4.16219 -2.03263 0
M  V30 4094 C 415.668 5.10107 -2.61875 0
M  V30 4095 N 415.164 6.09547 -3.29278 0
M  V30 4096 N 416.957 5.02596 -2.51701 0
M  V30 4097 H 409.108 1.22634 -1.7342 0
M  V30 4098 H 411.371 0.597206 -0.736239 0
M  V30 4099 H 411.077 2.64343 -2.31982 0
M  V30 4100 H 410.951 3.66363 -0.897672 0
M  V30 4101 H 413.338 2.94308 -0.216081 0
M  V30 4102 H 413.419 1.93774 -1.66989 0
M  V30 4103 H 413.063 4.0208 -3.10313 0
M  V30 4104 H 412.993 5.00968 -1.62292 0
M  V30 4105 H 415.484 3.45012 -1.54192 0
M  V30 4106 H 415.797 6.77718 -3.71374 0
M  V30 4107 H 414.142 6.09824 -3.33377 0
M  V30 4108 H 417.333 4.23855 -1.98657 0
M  V30 4109 H 417.506 5.75582 -2.97673 0
M  V30 4110 N 410.912 0.523116 1.48665 0
M  V30 4111 C 411.842 -0.23231 2.32342 0
M  V30 4112 C 412.823 -0.941637 1.41659 0
M  V30 4113 O 414.008 -0.928751 1.70552 0
M  V30 4114 C 411.138 -1.28387 3.22698 0
M  V30 4115 C 410.092 -0.693098 4.22351 0
M  V30 4116 C 409.418 -1.8468 5.01794 0
M  V30 4117 C 410.718 0.33063 5.21252 0
M  V30 4118 H 412.412 0.466192 2.95748 0
M  V30 4119 H 409.958 0.225643 1.42221 0
M  V30 4120 H 411.911 -1.82024 3.80059 0
M  V30 4121 H 410.635 -2.01186 2.57278 0
M  V30 4122 H 409.294 -0.178299 3.66166 0
M  V30 4123 H 408.942 -2.56301 4.32804 0
M  V30 4124 H 408.642 -1.45747 5.69238 0
M  V30 4125 H 410.166 -2.38709 5.62006 0
M  V30 4126 H 411.58 -0.118407 5.73178 0
M  V30 4127 H 409.977 0.636974 5.9671 0
M  V30 4128 H 411.047 1.23883 4.68808 0
M  V30 4129 N 412.39 -1.55475 0.257931 0
M  V30 4130 C 413.3 -2.2549 -0.647425 0
M  V30 4131 C 414.316 -1.2748 -1.18427 0
M  V30 4132 O 415.492 -1.6038 -1.2182 0
M  V30 4133 C 412.557 -2.94916 -1.82278 0
M  V30 4134 C 411.618 -4.08363 -1.32432 0
M  V30 4135 C 410.851 -4.74469 -2.44366 0
M  V30 4136 O 411.074 -4.39701 -3.63344 0
M  V30 4137 O 410.008 -5.62763 -2.13497 0
M  V30 4138 H 413.834 -3.03593 -0.0807707 0
M  V30 4139 H 411.419 -1.49377 0.0259962 0
M  V30 4140 H 413.301 -3.38606 -2.50846 0
M  V30 4141 H 411.976 -2.19744 -2.37685 0
M  V30 4142 H 410.883 -3.69166 -0.605605 0
M  V30 4143 H 412.216 -4.85385 -0.816211 0
M  V30 4144 N 413.868 0.0150385 -1.57593 0
M  V30 4145 C 415.114 0.69849 -1.91031 0
M  V30 4146 C 415.469 1.72208 -0.85804 0
M  V30 4147 O 414.762 1.91147 0.131614 0
M  V30 4148 C 414.956 1.39686 -3.28972 0
M  V30 4149 C 414.785 0.442428 -4.47518 0
M  V30 4150 C 413.555 0.0583223 -5.05266 0
M  V30 4151 C 415.753 -0.285072 -5.13509 0
M  V30 4152 N 413.735 -0.895893 -6.07328 0
M  V30 4153 C 415.106 -1.09447 -6.10263 0
M  V30 4154 C 417.161 -0.350518 -4.96665 0
M  V30 4155 C 415.864 -1.96333 -6.91987 0
M  V30 4156 C 417.89 -1.20655 -5.78962 0
M  V30 4157 C 417.252 -2.00383 -6.75297 0
M  V30 4158 H 413.351 0.22926 -0.747639 0
M  V30 4159 H 415.935 -0.0417748 -1.94655 0
M  V30 4160 H 414.106 2.1075 -3.2625 0
M  V30 4161 H 415.838 2.03381 -3.49883 0
M  V30 4162 H 412.593 0.423506 -4.71703 0
M  V30 4163 H 413.017 -1.36792 -6.63036 0
M  V30 4164 H 417.659 0.251596 -4.22051 0
M  V30 4165 H 415.377 -2.57618 -7.65936 0
M  V30 4166 H 418.963 -1.2609 -5.67972 0
M  V30 4167 H 417.843 -2.65552 -7.3787 0
M  V30 4168 N 415.346 1.54954 0.287554 0
M  V30 4169 C 416.594 1.74528 1.01904 0
M  V30 4170 C 416.915 0.541349 1.87335 0
M  V30 4171 O 416.185 -0.444108 1.908 0
M  V30 4172 H 414.765 0.643576 0.379235 0
M  V30 4173 H 417.427 1.92333 0.315294 0
M  V30 4174 H 416.523 2.64015 1.6644 0
M  V30 4175 N 416.824 -0.551391 1.4764 0
M  V30 4176 C 418.064 -1.31901 1.56145 0
M  V30 4177 C 418.428 -1.90724 0.221013 0
M  V30 4178 O 419.629 -2.6819 0.180945 0
M  V30 4179 C 417.9 -2.39517 2.65267 0
M  V30 4180 S 419.459 -3.26289 2.93395 0
M  V30 4181 H 416.277 -0.448965 0.551318 0
M  V30 4182 H 418.879 -0.630599 1.85051 0
M  V30 4183 H 417.583 -1.94747 3.6125 0
M  V30 4184 H 417.114 -3.13092 2.38195 0
M  V30 4185 H 419.129 -4.39122 2.31055 0
M  V30 4186 N 418.302 -1.35869 -0.798587 0
M  V30 4187 C 419.55 -1.29332 -1.55298 0
M  V30 4188 C 419.871 0.129729 -1.94568 0
M  V30 4189 O 419.141 1.06796 -1.6423 0
M  V30 4190 H 417.721 -0.475737 -0.57592 0
M  V30 4191 H 420.383 -1.70062 -0.952093 0
M  V30 4192 H 419.479 -1.91458 -2.46476 0
M  V30 4193 N 419.78 1.02168 -1.19998 0
M  V30 4194 C 420.713 2.10232 -0.887558 0
M  V30 4195 C 421.691 1.61827 0.158317 0
M  V30 4196 O 422.875 1.88471 0.0330249 0
M  V30 4197 C 420.002 3.37092 -0.32964 0
M  V30 4198 C 419.048 4.0438 -1.3557 0
M  V30 4199 S 419.881 4.48956 -2.91888 0
M  V30 4200 C 421.037 5.79024 -2.37658 0
M  V30 4201 H 421.27 2.36409 -1.80272 0
M  V30 4202 H 418.803 1.15211 -1.0279 0
M  V30 4203 H 420.761 4.10498 -0.0142824 0
M  V30 4204 H 419.422 3.08996 0.563941 0
M  V30 4205 H 418.615 4.95632 -0.9146 0
M  V30 4206 H 418.217 3.37176 -1.61828 0
M  V30 4207 H 420.509 6.53942 -1.77103 0
M  V30 4208 H 421.452 6.27924 -3.27287 0
M  V30 4209 H 421.86 5.35043 -1.79971 0
M  V30 4210 N 421.258 1.00505 1.21394 0
M  V30 4211 C 422.221 0.570459 2.21987 0
M  V30 4212 C 423.221 -0.353211 1.56873 0
M  V30 4213 O 424.411 -0.14349 1.73608 0
M  V30 4214 C 421.543 -0.168555 3.40483 0
M  V30 4215 H 422.736 1.46021 2.6195 0
M  V30 4216 H 420.289 0.793565 1.34656 0
M  V30 4217 H 421.024 -1.07374 3.06009 0
M  V30 4218 H 420.809 0.494823 3.88965 0
M  V30 4219 H 422.299 -0.460362 4.15055 0
M  V30 4220 N 422.737 -1.36956 0.779787 0
M  V30 4221 C 423.687 -2.27539 0.144892 0
M  V30 4222 C 424.671 -1.46493 -0.665488 0
M  V30 4223 O 425.863 -1.68968 -0.527141 0
M  V30 4224 C 422.992 -3.35512 -0.727082 0
M  V30 4225 C 422.078 -4.24001 0.0915642 0
M  V30 4226 N 422.469 -4.92757 1.14125 0
M  V30 4227 C 420.767 -4.45807 -0.131141 0
M  V30 4228 C 421.468 -5.58138 1.6388 0
M  V30 4229 N 420.444 -5.35241 0.94962 0
M  V30 4230 H 424.246 -2.78176 0.948446 0
M  V30 4231 H 421.76 -1.50169 0.618315 0
M  V30 4232 H 423.757 -3.99324 -1.19776 0
M  V30 4233 H 422.417 -2.86431 -1.52929 0
M  V30 4234 H 423.428 -4.94984 1.52353 0
M  V30 4235 H 420.105 -4.07582 -0.904621 0
M  V30 4236 H 421.495 -6.23071 2.51461 0
M  V30 4237 N 424.215 -0.530993 -1.48385 0
M  V30 4238 C 425.162 0.231223 -2.29639 0
M  V30 4239 C 426.132 0.932864 -1.37429 0
M  V30 4240 O 427.317 0.933692 -1.66394 0
M  V30 4241 C 424.457 1.27155 -3.2082 0
M  V30 4242 C 423.57 0.578655 -4.28107 0
M  V30 4243 C 422.705 1.602 -5.06467 0
M  V30 4244 C 421.744 0.892625 -6.05556 0
M  V30 4245 N 420.881 1.86157 -6.76971 0
M  V30 4246 H 425.721 -0.467848 -2.94305 0
M  V30 4247 H 423.258 -0.242556 -1.45086 0
M  V30 4248 H 425.216 1.88703 -3.72085 0
M  V30 4249 H 423.846 1.939 -2.58075 0
M  V30 4250 H 422.898 -0.150782 -3.80101 0
M  V30 4251 H 424.21 0.0217065 -4.98795 0
M  V30 4252 H 423.364 2.29173 -5.61751 0
M  V30 4253 H 422.103 2.19285 -4.35621 0
M  V30 4254 H 421.108 0.188829 -5.49476 0
M  V30 4255 H 422.333 0.307878 -6.78402 0
M  V30 4256 H 420.279 2.44147 -6.08875 0
M  V30 4257 H 420.196 1.35608 -7.43738 0
M  V30 4258 H 421.464 2.54325 -7.36844 0
M  V30 4259 N 425.693 1.55336 -0.266172 0
M  V30 4260 C 426.921 2.03801 0.356756 0
M  V30 4261 C 427.336 1.14485 1.50129 0
M  V30 4262 O 426.693 0.163121 1.8177 0
M  V30 4263 C 426.744 3.51455 0.846281 0
M  V30 4264 O 426.465 4.37371 -0.252663 0
M  V30 4265 C 427.966 4.15767 1.53794 0
M  V30 4266 H 425.186 0.665906 0.0825218 0
M  V30 4267 H 427.73 2.00636 -0.39566 0
M  V30 4268 H 425.885 3.55092 1.54881 0
M  V30 4269 H 426.299 5.24358 0.122173 0
M  V30 4270 H 427.773 5.20714 1.83198 0
M  V30 4271 H 428.25 3.63404 2.46646 0
M  V30 4272 H 428.856 4.16107 0.879488 0
M  V30 4273 N 427.171 -0.0066808 1.57599 0
M  V30 4274 C 428.42 -0.692078 1.89455 0
M  V30 4275 C 428.733 -1.75306 0.867586 0
M  V30 4276 O 429.939 -2.49262 1.07614 0
M  V30 4277 C 428.395 -1.2821 3.36289 0
M  V30 4278 C 428.003 -0.256291 4.47266 0
M  V30 4279 C 429.747 -1.94608 3.77264 0
M  V30 4280 C 427.654 -0.855927 5.85173 0
M  V30 4281 H 426.584 -0.262252 0.706923 0
M  V30 4282 H 429.235 0.052769 1.83424 0
M  V30 4283 H 427.617 -2.0774 3.37135 0
M  V30 4284 H 428.791 0.513923 4.57925 0
M  V30 4285 H 427.106 0.306862 4.15268 0
M  V30 4286 H 429.703 -2.40364 4.77629 0
M  V30 4287 H 430.046 -2.77382 3.10427 0
M  V30 4288 H 430.579 -1.21822 3.78688 0
M  V30 4289 H 427.318 -0.0671161 6.55466 0
M  V30 4290 H 426.838 -1.59546 5.78191 0
M  V30 4291 H 428.517 -1.35658 6.32618 0
M  V30 4292 N 428.649 -1.55105 -0.279332 0
M  V30 4293 C 429.596 -1.8755 -1.34513 0
M  V30 4294 C 430.566 -0.726384 -1.49375 0
M  V30 4295 O 431.751 -0.977063 -1.63884 0
M  V30 4296 C 428.891 -2.14738 -2.70151 0
M  V30 4297 C 428.004 -3.42285 -2.63562 0
M  V30 4298 C 427.139 -3.59206 -3.91337 0
M  V30 4299 C 426.178 -4.80467 -3.79233 0
M  V30 4300 N 425.315 -4.94079 -4.98829 0
M  V30 4301 H 430.155 -2.78456 -1.06143 0
M  V30 4302 H 427.692 -1.37867 -0.512936 0
M  V30 4303 H 429.65 -2.28501 -3.49061 0
M  V30 4304 H 428.28 -1.27075 -2.96735 0
M  V30 4305 H 427.332 -3.37029 -1.76397 0
M  V30 4306 H 428.644 -4.31328 -2.50515 0
M  V30 4307 H 427.798 -3.72751 -4.78687 0
M  V30 4308 H 426.537 -2.68337 -4.07243 0
M  V30 4309 H 425.542 -4.66932 -2.90266 0
M  V30 4310 H 426.767 -5.72765 -3.64852 0
M  V30 4311 H 424.713 -4.06139 -5.15158 0
M  V30 4312 H 424.63 -5.77156 -4.8829 0
M  V30 4313 H 425.898 -5.12003 -5.8777 0
M  V30 4314 N 430.127 0.543554 -1.4793 0
M  V30 4315 C 431.375 1.29752 -1.54948 0
M  V30 4316 C 431.696 1.93764 -0.219242 0
M  V30 4317 O 430.966 1.80639 0.75805 0
M  V30 4318 H 429.546 0.481874 -0.570795 0
M  V30 4319 H 432.208 0.633636 -1.84312 0
M  V30 4320 H 431.304 2.08392 -2.32334 0
M  V30 4321 N 431.605 1.3629 0.791371 0
M  V30 4322 C 432.853 1.30154 1.5461 0
M  V30 4323 C 433.174 -0.119409 1.94634 0
M  V30 4324 O 432.444 -1.05924 1.64794 0
M  V30 4325 H 431.024 0.478784 0.573389 0
M  V30 4326 H 433.686 1.70565 0.94306 0
M  V30 4327 H 432.782 1.92762 2.45457 0
M  V30 4328 N 433.083 -1.0153 1.20538 0
M  V30 4329 C 434.013 -2.11972 0.979295 0
M  V30 4330 C 434.994 -1.6985 -0.0921787 0
M  V30 4331 O 436.179 -1.94089 0.0655932 0
M  V30 4332 C 433.309 -3.43201 0.531984 0
M  V30 4333 C 432.263 -3.9907 1.54685 0
M  V30 4334 C 431.589 -5.26082 0.956127 0
M  V30 4335 C 432.889 -4.32313 2.93092 0
M  V30 4336 H 434.583 -2.31143 1.90298 0
M  V30 4337 H 432.129 -1.11079 0.916372 0
M  V30 4338 H 434.082 -4.1985 0.361044 0
M  V30 4339 H 432.806 -3.23792 -0.427327 0
M  V30 4340 H 431.465 -3.2453 1.70517 0
M  V30 4341 H 431.113 -5.02999 -0.0111538 0
M  V30 4342 H 430.813 -5.64426 1.63393 0
M  V30 4343 H 432.337 -6.05386 0.796284 0
M  V30 4344 H 433.751 -4.99845 2.80763 0
M  V30 4345 H 432.148 -4.81774 3.57791 0
M  V30 4346 H 433.218 -3.41025 3.44717 0
M  V30 4347 N 434.561 -1.01147 -1.20859 0
M  V30 4348 C 435.801 -0.706331 -1.91808 0
M  V30 4349 C 436.165 0.749736 -1.76757 0
M  V30 4350 O 437.366 1.16716 -2.42138 0
M  V30 4351 C 435.637 -1.12371 -3.39275 0
M  V30 4352 S 437.196 -0.939764 -4.28619 0
M  V30 4353 H 434.014 -0.257665 -0.662669 0
M  V30 4354 H 436.616 -1.29766 -1.46223 0
M  V30 4355 H 435.32 -2.17943 -3.47749 0
M  V30 4356 H 434.851 -0.524952 -3.89882 0
M  V30 4357 H 436.866 0.159556 -4.95943 0
M  V30 4358 N 436.039 1.36541 -0.78704 0
M  V30 4359 C 437.45 1.81873 -0.421807 0
M  V30 4360 C 437.801 1.65487 1.05397 0
M  V30 4361 O 436.926 1.17448 1.81755 0
M  V30 4362 C 437.521 3.30192 -0.758841 0
M  V30 4363 C 436.08 3.73743 -0.446468 0
M  V30 4364 C 435.227 2.58844 -0.994728 0
M  V30 4365 H 438.178 1.24796 -0.98039 0
M  V30 4366 H 438.199 3.80468 -0.0490648 0
M  V30 4367 H 437.711 3.42087 -1.83299 0
M  V30 4368 H 435.812 3.6741 0.619739 0
M  V30 4369 H 435.925 4.69272 -0.965415 0
M  V30 4370 H 434.289 2.51245 -0.418087 0
M  V30 4371 H 435.072 2.73525 -2.07458 0
M  V30 4372 N 437.518 0.538854 1.48102 0
M  V30 4373 C 438.766 0.00798599 2.02098 0
M  V30 4374 C 439.087 -1.33922 1.41739 0
M  V30 4375 O 438.357 -1.86932 0.585934 0
M  V30 4376 H 436.937 -3.62179e-05 0.747 0
M  V30 4377 H 439.599 0.7047 1.81714 0
M  V30 4378 H 438.695 -0.0937672 3.11959 0
M  V30 4379 N 438.996 -1.55193 0.274407 0
M  V30 4380 C 440.244 -1.99187 -0.341902 0
M  V30 4381 C 440.565 -1.16422 -1.56431 0
M  V30 4382 O 439.835 -0.253573 -1.94252 0
M  V30 4383 H 438.415 -0.735721 -0.129317 0
M  V30 4384 H 441.077 -1.91168 0.379578 0
M  V30 4385 H 440.173 -3.05629 -0.632253 0
M  V30 4386 N 440.474 -0.00167713 -1.576 0
M  V30 4387 C 441.89 0.354422 -1.55615 0
M  V30 4388 C 442.09 1.74679 -1.00447 0
M  V30 4389 O 441.146 2.4428 -0.639022 0
M  V30 4390 C 442.459 0.22812 -2.99833 0
M  V30 4391 C 444.007 0.302934 -3.11531 0
M  V30 4392 C 444.482 0.205737 -4.57538 0
M  V30 4393 N 445.973 0.263584 -4.62449 0
M  V30 4394 C 446.708 0.211742 -5.73009 0
M  V30 4395 N 446.204 0.110399 -6.92712 0
M  V30 4396 N 447.997 0.263729 -5.61481 0
M  V30 4397 H 440.148 -0.912498 -1.918 0
M  V30 4398 H 442.411 -0.349928 -0.881053 0
M  V30 4399 H 442.117 -0.729934 -3.44042 0
M  V30 4400 H 441.991 1.00951 -3.6344 0
M  V30 4401 H 444.378 1.25143 -2.67251 0
M  V30 4402 H 444.459 -0.508357 -2.50698 0
M  V30 4403 H 444.103 -0.739225 -5.02492 0
M  V30 4404 H 444.033 1.03554 -5.16318 0
M  V30 4405 H 446.524 0.343173 -3.76339 0
M  V30 4406 H 446.837 0.0767828 -7.72762 0
M  V30 4407 H 445.182 0.0760025 -6.94958 0
M  V30 4408 H 448.373 0.34111 -4.66855 0
M  V30 4409 H 448.546 0.219862 -6.47627 0
M  V30 4410 N 441.952 1.55251 0.271103 0
M  V30 4411 C 442.882 1.9127 1.33933 0
M  V30 4412 C 443.863 0.77478 1.5143 0
M  V30 4413 O 445.048 1.03307 1.64442 0
M  V30 4414 C 442.178 2.18627 2.69851 0
M  V30 4415 C 441.132 3.34442 2.67081 0
M  V30 4416 C 440.458 3.47284 4.06569 0
M  V30 4417 C 441.758 4.70784 2.26185 0
M  V30 4418 H 443.452 2.80744 1.04035 0
M  V30 4419 H 440.998 1.35077 0.499017 0
M  V30 4420 H 442.951 2.42413 3.44694 0
M  V30 4421 H 441.675 1.25955 3.01335 0
M  V30 4422 H 440.334 3.10627 1.94695 0
M  V30 4423 H 439.982 2.52074 4.35279 0
M  V30 4424 H 439.682 4.25152 4.0561 0
M  V30 4425 H 441.206 3.73363 4.83148 0
M  V30 4426 H 442.62 4.94102 2.90751 0
M  V30 4427 H 441.017 5.51582 2.36384 0
M  V30 4428 H 442.087 4.69478 1.21319 0
M  V30 4429 N 443.43 -0.535701 1.48216 0
M  V30 4430 C 444.846 -0.863701 1.3421 0
M  V30 4431 C 445.046 -1.98458 0.34879 0
M  V30 4432 O 444.102 -2.51432 -0.23204 0
M  V30 4433 C 445.415 -1.23662 2.74095 0
M  V30 4434 C 446.963 -1.34683 2.82541 0
M  V30 4435 C 447.438 -1.75322 4.23115 0
M  V30 4436 N 448.929 -1.82434 4.2576 0
M  V30 4437 C 449.664 -2.15252 5.31464 0
M  V30 4438 N 449.16 -2.46533 6.47452 0
M  V30 4439 N 450.953 -2.16209 5.18855 0
M  V30 4440 H 443.104 0.203965 2.11418 0
M  V30 4441 H 445.367 0.0286033 0.947568 0
M  V30 4442 H 445.073 -0.486674 3.48316 0
M  V30 4443 H 444.947 -2.18805 3.07253 0
M  V30 4444 H 447.334 -2.08756 2.08579 0
M  V30 4445 H 447.415 -0.376756 2.5301 0
M  V30 4446 H 447.059 -1.01812 4.97591 0
M  V30 4447 H 446.989 -2.7337 4.50085 0
M  V30 4448 H 449.48 -1.6056 3.42095 0
M  V30 4449 H 449.793 -2.70662 7.23852 0
M  V30 4450 H 448.138 -2.44065 6.50736 0
M  V30 4451 H 451.329 -1.91224 4.2726 0
M  V30 4452 H 451.502 -2.41453 6.01335 0
M  V30 4453 N 444.908 -1.36708 -0.784132 0
M  V30 4454 C 445.841 -1.25827 -1.90375 0
M  V30 4455 C 446.819 -0.141331 -1.61985 0
M  V30 4456 O 448.003 -0.313389 -1.85877 0
M  V30 4457 C 445.13 -0.942621 -3.25319 0
M  V30 4458 C 444.176 -2.07474 -3.72635 0
M  V30 4459 S 445.009 -3.69317 -3.8777 0
M  V30 4460 C 446.165 -3.39876 -5.25581 0
M  V30 4461 H 446.398 -2.20593 -1.99314 0
M  V30 4462 H 443.931 -1.22186 -0.943926 0
M  V30 4463 H 445.889 -0.767321 -4.03265 0
M  V30 4464 H 444.55 -0.0126566 -3.14097 0
M  V30 4465 H 443.743 -1.80858 -4.70432 0
M  V30 4466 H 443.345 -2.20953 -3.01754 0
M  V30 4467 H 445.637 -2.94097 -6.10339 0
M  V30 4468 H 446.58 -4.36956 -5.57203 0
M  V30 4469 H 446.988 -2.75098 -4.92931 0
M  V30 4470 N 446.386 1.0089 -1.21074 0
M  V30 4471 C 447.296 2.13039 -0.982425 0
M  V30 4472 C 448.312 1.73881 0.0642161 0
M  V30 4473 O 449.488 2.01012 -0.12496 0
M  V30 4474 C 446.553 3.42377 -0.545803 0
M  V30 4475 C 445.614 3.95731 -1.6642 0
M  V30 4476 C 444.847 5.18896 -1.24832 0
M  V30 4477 O 445.07 5.70273 -0.120265 0
M  V30 4478 O 444.004 5.65597 -2.05873 0
M  V30 4479 H 447.83 2.35175 -1.92163 0
M  V30 4480 H 445.415 1.1142 -0.995285 0
M  V30 4481 H 447.297 4.20244 -0.311912 0
M  V30 4482 H 445.972 3.21639 0.364727 0
M  V30 4483 H 444.879 3.19108 -1.95246 0
M  V30 4484 H 446.212 4.20872 -2.55201 0
M  V30 4485 N 447.864 1.01787 1.20321 0
M  V30 4486 C 449.28 0.732951 1.41774 0
M  V30 4487 C 449.48 -0.686883 1.89431 0
M  V30 4488 O 448.536 -1.45446 2.06402 0
M  V30 4489 C 449.849 1.75973 2.43832 0
M  V30 4490 C 451.397 1.77802 2.57596 0
M  V30 4491 C 451.872 2.7941 3.62897 0
M  V30 4492 N 453.363 2.78157 3.70382 0
M  V30 4493 C 454.098 3.53434 4.51521 0
M  V30 4494 N 453.594 4.38392 5.36455 0
M  V30 4495 N 455.387 3.42026 4.46066 0
M  V30 4496 H 447.538 1.93447 0.877035 0
M  V30 4497 H 449.801 0.835712 0.447536 0
M  V30 4498 H 449.507 2.77699 2.15815 0
M  V30 4499 H 449.381 1.57292 3.4284 0
M  V30 4500 H 451.768 0.767602 2.84942 0
M  V30 4501 H 451.849 2.00557 1.58779 0
M  V30 4502 H 451.493 3.80616 3.36295 0
M  V30 4503 H 451.423 2.53916 4.61339 0
M  V30 4504 H 453.914 2.16531 3.09714 0
M  V30 4505 H 454.227 4.92596 5.95457 0
M  V30 4506 H 452.572 4.4247 5.35953 0
M  V30 4507 H 455.763 2.75075 3.78749 0
M  V30 4508 H 455.936 4.00946 5.09064 0
M  V30 4509 N 449.342 -1.36122 0.79427 0
M  V30 4510 C 450.272 -2.32551 0.210328 0
M  V30 4511 C 451.253 -1.56884 -0.657386 0
M  V30 4512 O 452.438 -1.85014 -0.590207 0
M  V30 4513 C 449.568 -3.41128 -0.651819 0
M  V30 4514 C 448.522 -4.27842 0.116395 0
M  V30 4515 C 447.848 -5.2763 -0.86666 0
M  V30 4516 C 449.148 -5.05647 1.30837 0
M  V30 4517 H 450.842 -2.81636 1.01594 0
M  V30 4518 H 448.388 -1.35407 0.489981 0
M  V30 4519 H 450.341 -4.07581 -1.07031 0
M  V30 4520 H 449.065 -2.90622 -1.49019 0
M  V30 4521 H 447.724 -3.62952 0.515915 0
M  V30 4522 H 447.372 -4.73395 -1.70019 0
M  V30 4523 H 447.072 -5.86514 -0.35705 0
M  V30 4524 H 448.596 -5.96955 -1.28361 0
M  V30 4525 H 450.01 -5.65113 0.965393 0
M  V30 4526 H 448.407 -5.73967 1.75161 0
M  V30 4527 H 449.477 -4.37006 2.10128 0
M  V30 4528 N 450.82 -0.546701 -1.47814 0
M  V30 4529 C 452.069 -0.0166497 -2.01693 0
M  V30 4530 C 452.382 1.33721 -1.42752 0
M  V30 4531 O 453.588 1.95658 -1.8823 0
M  V30 4532 C 452.044 0.0206769 -3.59894 0
M  V30 4533 C 451.652 -1.3293 -4.27824 0
M  V30 4534 C 453.396 0.498674 -4.21561 0
M  V30 4535 C 451.303 -1.25165 -5.78003 0
M  V30 4536 H 450.233 -0.0024541 -0.753996 0
M  V30 4537 H 452.884 -0.692984 -1.69912 0
M  V30 4538 H 451.266 0.76244 -3.88591 0
M  V30 4539 H 452.44 -2.08795 -4.10781 0
M  V30 4540 H 450.755 -1.74438 -3.78101 0
M  V30 4541 H 453.352 0.575 -5.31599 0
M  V30 4542 H 453.695 1.5083 -3.88016 0
M  V30 4543 H 454.228 -0.18791 -3.97356 0
M  V30 4544 H 450.967 -2.23695 -6.1615 0
M  V30 4545 H 450.487 -0.53464 -5.97412 0
M  V30 4546 H 452.166 -0.949299 -6.39998 0
M  V30 4547 N 452.299 1.55045 -0.282633 0
M  V30 4548 C 453.576 1.9179 0.384166 0
M  V30 4549 C 453.956 1.20778 1.73136 0
M  V30 4550 O 453.304 0.33719 2.25998 0
M  V30 4551 C 453.514 3.45149 0.517014 0
M  V30 4552 C 454.862 4.17064 0.796427 0
M  V30 4553 O 455.886 3.51084 0.601535 0
M  V30 4554 O 454.745 5.33837 1.16962 0
M  V30 4555 H 451.839 0.799483 0.211558 0
M  V30 4556 H 454.385 1.66474 -0.32934 0
M  V30 4557 H 453.157 3.88922 -0.430772 0
M  V30 4558 H 452.78 3.76443 1.2797 0
M  V30 4559 N 453.777 0.010035 1.57597 0
M  V30 4560 C 454.707 -0.976857 2.12084 0
M  V30 4561 C 455.688 -1.35191 1.03235 0
M  V30 4562 O 456.873 -1.43389 1.3097 0
M  V30 4563 C 454.003 -2.26548 2.63236 0
M  V30 4564 C 452.957 -2.03175 3.76701 0
M  V30 4565 C 452.283 -3.38138 4.14206 0
M  V30 4566 C 453.583 -1.38625 5.03568 0
M  V30 4567 H 455.277 -0.523145 2.94794 0
M  V30 4568 H 452.823 -0.250195 1.4181 0
M  V30 4569 H 454.776 -2.95952 2.99984 0
M  V30 4570 H 453.5 -2.74051 1.77661 0
M  V30 4571 H 452.159 -1.36195 3.40362 0
M  V30 4572 H 451.807 -3.83363 3.25641 0
M  V30 4573 H 451.507 -3.23312 4.90656 0
M  V30 4574 H 453.031 -4.08841 4.53521 0
M  V30 4575 H 454.445 -1.98 5.38023 0
M  V30 4576 H 452.842 -1.34256 5.84889 0
M  V30 4577 H 453.912 -0.356722 4.83586 0
M  V30 4578 N 455.255 -1.55392 -0.262866 0
M  V30 4579 C 456.501 -1.76737 -0.99458 0
M  V30 4580 C 456.834 -0.572453 -1.85571 0
M  V30 4581 O 456.109 0.429732 -1.89693 0
M  V30 4582 C 456.392 -3.07824 -1.8686 0
M  V30 4583 C 456.245 -4.3769 -1.03672 0
M  V30 4584 C 457.564 -3.35021 -2.85393 0
M  V30 4585 H 454.683 -0.643005 -0.360157 0
M  V30 4586 H 457.325 -1.88126 -0.266216 0
M  V30 4587 H 455.475 -2.98245 -2.48962 0
M  V30 4588 H 457.147 -4.59238 -0.43563 0
M  V30 4589 H 455.39 -4.32461 -0.340513 0
M  V30 4590 H 456.061 -5.25759 -1.6817 0
M  V30 4591 H 458.537 -3.44458 -2.33426 0
M  V30 4592 H 457.413 -4.27989 -3.43681 0
M  V30 4593 H 457.674 -2.55153 -3.61039 0
M  V30 4594 N 456.733 0.527833 -1.48498 0
M  V30 4595 C 457.98 1.28354 -1.56625 0
M  V30 4596 C 458.308 1.93 -0.241096 0
M  V30 4597 O 457.563 1.79967 0.768798 0
M  V30 4598 C 457.862 2.39275 -2.65485 0
M  V30 4599 C 457.528 1.92268 -4.07853 0
M  V30 4600 C 456.19 1.79166 -4.46602 0
M  V30 4601 C 458.542 1.56771 -4.97064 0
M  V30 4602 C 455.87 1.28905 -5.72364 0
M  V30 4603 C 458.222 1.07972 -6.23318 0
M  V30 4604 C 456.886 0.934887 -6.60921 0
M  V30 4605 H 456.156 0.469682 -0.573131 0
M  V30 4606 H 458.803 0.588781 -1.82224 0
M  V30 4607 H 457.108 3.1443 -2.33754 0
M  V30 4608 H 458.805 2.974 -2.68988 0
M  V30 4609 H 455.395 2.03417 -3.77252 0
M  V30 4610 H 459.579 1.65753 -4.67803 0
M  V30 4611 H 454.835 1.16381 -6.00221 0
M  V30 4612 H 459.009 0.795775 -6.91838 0
M  V30 4613 H 456.636 0.543231 -7.58257 0
M  V30 4614 N 458.211 1.37122 0.776871 0
M  V30 4615 C 459.441 1.35034 1.56363 0
M  V30 4616 C 459.849 -0.0674681 1.8908 0
M  V30 4617 O 459.192 -1.03826 1.51545 0
M  V30 4618 C 459.254 2.11894 2.90415 0
M  V30 4619 C 458.918 3.60897 2.80362 0
M  V30 4620 C 459.915 4.54887 2.51742 0
M  V30 4621 C 457.6 4.03951 2.98545 0
M  V30 4622 C 459.594 5.89909 2.41426 0
M  V30 4623 C 457.281 5.3906 2.87849 0
M  V30 4624 C 458.279 6.31852 2.5933 0
M  V30 4625 O 457.967 7.64479 2.48651 0
M  V30 4626 H 457.699 0.464402 0.49123 0
M  V30 4627 H 460.253 1.80992 0.971127 0
M  V30 4628 H 458.483 1.60618 3.51765 0
M  V30 4629 H 460.172 2.02505 3.51776 0
M  V30 4630 H 460.938 4.22934 2.37385 0
M  V30 4631 H 456.817 3.3209 3.19746 0
M  V30 4632 H 460.361 6.62304 2.19086 0
M  V30 4633 H 456.258 5.70617 3.01773 0
M  V30 4634 H 457.026 7.74742 2.64039 0
M  V30 4635 N 459.689 -1.00246 1.21608 0
M  V30 4636 C 460.636 -2.09073 0.977613 0
M  V30 4637 C 461.606 -1.65815 -0.097297 0
M  V30 4638 O 462.791 -1.90734 0.0503445 0
M  V30 4639 C 459.931 -3.40671 0.551133 0
M  V30 4640 C 459.044 -3.97326 1.69576 0
M  V30 4641 C 458.179 -5.17043 1.2182 0
M  V30 4642 C 457.218 -5.65813 2.335 0
M  V30 4643 N 456.355 -6.76778 1.86859 0
M  V30 4644 H 461.195 -2.28806 1.90924 0
M  V30 4645 H 458.732 -1.12186 0.951452 0
M  V30 4646 H 460.69 -4.16225 0.285097 0
M  V30 4647 H 459.32 -3.20967 -0.343489 0
M  V30 4648 H 458.372 -3.18734 2.07637 0
M  V30 4649 H 459.684 -4.29511 2.53617 0
M  V30 4650 H 458.838 -5.99852 0.908975 0
M  V30 4651 H 457.577 -4.86458 0.347869 0
M  V30 4652 H 456.582 -4.81599 2.65222 0
M  V30 4653 H 457.807 -5.98427 3.21033 0
M  V30 4654 H 455.753 -6.47994 1.02174 0
M  V30 4655 H 455.67 -7.08231 2.64471 0
M  V30 4656 H 456.938 -7.63116 1.58978 0
M  V30 4657 N 461.167 -1.02423 -1.1978 0
M  V30 4658 C 462.583 -0.740459 -1.41384 0
M  V30 4659 C 462.783 0.676827 -1.89793 0
M  V30 4660 O 461.839 1.4435 -2.0717 0
M  V30 4661 C 463.152 -1.77264 -2.42895 0
M  V30 4662 C 464.7 -1.79165 -2.56649 0
M  V30 4663 C 465.175 -2.8133 -3.6141 0
M  V30 4664 N 466.666 -2.80118 -3.68901 0
M  V30 4665 C 467.401 -3.55824 -4.49641 0
M  V30 4666 N 466.897 -4.41231 -5.34123 0
M  V30 4667 N 468.69 -3.44387 -4.44246 0
M  V30 4668 H 460.841 -1.9391 -0.866764 0
M  V30 4669 H 463.104 -0.838074 -0.443098 0
M  V30 4670 H 462.81 -2.7884 -2.14339 0
M  V30 4671 H 462.684 -1.59108 -3.42001 0
M  V30 4672 H 465.071 -0.782702 -2.84531 0
M  V30 4673 H 465.152 -2.01396 -1.57713 0
M  V30 4674 H 464.796 -3.82394 -3.34271 0
M  V30 4675 H 464.726 -2.56359 -4.59986 0
M  V30 4676 H 467.217 -2.1817 -3.08562 0
M  V30 4677 H 467.53 -4.95747 -5.92836 0
M  V30 4678 H 465.875 -4.45306 -5.33599 0
M  V30 4679 H 469.066 -2.7708 -3.77285 0
M  V30 4680 H 469.239 -4.0364 -5.06931 0
M  V30 4681 N 462.645 1.35699 -0.801477 0
M  V30 4682 C 463.891 1.99208 -0.380022 0
M  V30 4683 C 464.224 1.63445 1.04878 0
M  V30 4684 O 463.499 0.895223 1.72673 0
M  V30 4685 C 463.782 3.55755 -0.557708 0
M  V30 4686 C 463.635 4.01332 -2.03107 0
M  V30 4687 C 464.954 4.40096 0.0197968 0
M  V30 4688 H 462.073 0.723667 -0.139552 0
M  V30 4689 H 464.715 1.60928 -1.01006 0
M  V30 4690 H 462.865 3.88494 -0.0213741 0
M  V30 4691 H 464.537 3.79026 -2.62939 0
M  V30 4692 H 462.78 3.52429 -2.52936 0
M  V30 4693 H 463.451 5.10234 -2.1063 0
M  V30 4694 H 465.927 4.13786 -0.438179 0
M  V30 4695 H 464.803 5.48735 -0.134477 0
M  V30 4696 H 465.064 4.2786 1.11303 0
M  V30 4697 N 464.123 0.554532 1.47522 0
M  V30 4698 C 465.4 -0.0360704 1.95567 0
M  V30 4699 C 465.78 -1.48828 1.49711 0
M  V30 4700 O 465.128 -2.16366 0.734717 0
M  V30 4701 C 465.338 0.106631 3.48837 0
M  V30 4702 C 466.686 -0.0400899 4.24581 0
M  V30 4703 O 467.71 0.0340453 3.56184 0
M  V30 4704 O 466.569 -0.199111 5.46137 0
M  V30 4705 H 463.663 -0.0656294 0.824392 0
M  V30 4706 H 466.209 0.620867 1.57935 0
M  V30 4707 H 464.981 1.11727 3.7501 0
M  V30 4708 H 464.604 -0.58804 3.93227 0
M  V30 4709 N 465.601 -1.54893 0.290851 0
M  V30 4710 C 467.012 -1.85584 -0.203816 0
M  V30 4711 C 467.363 -1.21285 -1.54222 0
M  V30 4712 O 466.488 -0.506841 -2.10381 0
M  V30 4713 C 467.083 -3.367 -0.376595 0
M  V30 4714 C 465.642 -3.6746 -0.815485 0
M  V30 4715 C 464.789 -2.77178 0.0821087 0
M  V30 4716 H 467.74 -1.50208 0.512175 0
M  V30 4717 H 467.761 -3.60656 -1.21275 0
M  V30 4718 H 467.273 -3.8347 0.59767 0
M  V30 4719 H 465.374 -3.26201 -1.80066 0
M  V30 4720 H 465.487 -4.7478 -0.641905 0
M  V30 4721 H 463.851 -2.50925 -0.436895 0
M  V30 4722 H 464.634 -3.26767 1.05254 0
M  V30 4723 N 467.08 -0.0183926 -1.57589 0
M  V30 4724 C 468.305 0.676634 -1.96052 0
M  V30 4725 C 468.73 1.6548 -0.894307 0
M  V30 4726 O 468.088 1.80712 0.145849 0
M  V30 4727 C 468.136 1.36872 -3.33614 0
M  V30 4728 O 467.24 2.48372 -3.29219 0
M  V30 4729 H 466.581 0.1786 -0.63953 0
M  V30 4730 H 469.111 -0.077056 -2.04455 0
M  V30 4731 H 469.121 1.72797 -3.69601 0
M  V30 4732 H 467.796 0.651636 -4.10763 0
M  V30 4733 H 466.373 2.14639 -3.04934 0
M  V30 4734 N 468.558 1.5553 0.254621 0
M  V30 4735 C 469.505 1.89666 1.31512 0
M  V30 4736 C 470.475 0.750057 1.482 0
M  V30 4737 O 471.66 1.00301 1.62309 0
M  V30 4738 C 468.8 2.19009 2.667 0
M  V30 4739 C 467.913 3.46435 2.58083 0
M  V30 4740 C 467.048 3.65386 3.85573 0
M  V30 4741 C 466.087 4.8644 3.71541 0
M  V30 4742 N 465.224 5.01952 4.90906 0
M  V30 4743 H 470.064 2.80109 1.017 0
M  V30 4744 H 467.601 1.38666 0.490938 0
M  V30 4745 H 469.559 2.34025 3.45381 0
M  V30 4746 H 468.189 1.31779 2.94676 0
M  V30 4747 H 467.241 3.39792 1.71013 0
M  V30 4748 H 468.553 4.35258 2.43622 0
M  V30 4749 H 467.707 3.80319 4.72697 0
M  V30 4750 H 466.446 2.74781 4.02922 0
M  V30 4751 H 465.451 4.71491 2.82801 0
M  V30 4752 H 466.676 5.78497 3.55694 0
M  V30 4753 H 464.622 4.14283 5.08631 0
M  V30 4754 H 464.539 5.84851 4.79046 0
M  V30 4755 H 465.807 5.21289 5.7955 0
M  V30 4756 N 470.036 -0.519951 1.48776 0
M  V30 4757 C 470.966 -1.63253 1.66945 0
M  V30 4758 C 471.947 -1.62014 0.518224 0
M  V30 4759 O 473.132 -1.79053 0.751919 0
M  V30 4760 C 470.262 -3.0181 1.71836 0
M  V30 4761 C 469.216 -3.17911 2.8656 0
M  V30 4762 C 468.542 -4.5763 2.76548 0
M  V30 4763 C 469.842 -2.99729 4.27738 0
M  V30 4764 H 471.536 -1.48302 2.6009 0
M  V30 4765 H 469.082 -0.712026 1.25165 0
M  V30 4766 H 471.035 -3.79525 1.83135 0
M  V30 4767 H 469.759 -3.17806 0.752775 0
M  V30 4768 H 468.418 -2.42616 2.74833 0
M  V30 4769 H 468.066 -4.70476 1.77937 0
M  V30 4770 H 467.766 -4.69346 3.53536 0
M  V30 4771 H 469.29 -5.37431 2.89828 0
M  V30 4772 H 470.704 -3.67228 4.40246 0
M  V30 4773 H 469.101 -3.22932 5.05801 0
M  V30 4774 H 470.171 -1.96047 4.43502 0
M  V30 4775 N 471.514 -1.37532 -0.769588 0
M  V30 4776 C 472.76 -1.33057 -1.53048 0
M  V30 4777 C 473.093 0.0841865 -1.94017 0
M  V30 4778 O 472.368 1.04198 -1.64235 0
M  V30 4779 C 472.651 -2.27166 -2.79406 0
M  V30 4780 C 472.504 -3.77429 -2.44677 0
M  V30 4781 C 473.823 -2.19683 -3.81349 0
M  V30 4782 H 470.942 -0.484655 -0.555228 0
M  V30 4783 H 473.584 -1.68251 -0.882702 0
M  V30 4784 H 471.734 -1.97283 -3.34682 0
M  V30 4785 H 473.406 -4.17918 -1.953 0
M  V30 4786 H 471.649 -3.95892 -1.77346 0
M  V30 4787 H 472.32 -4.38716 -3.35011 0
M  V30 4788 H 474.796 -2.46029 -3.35573 0
M  V30 4789 H 473.672 -2.87668 -4.67481 0
M  V30 4790 H 473.933 -1.19045 -4.25771 0
M  V30 4791 N 472.992 0.995999 -1.22138 0
M  V30 4792 C 474.22 1.77066 -1.07029 0
M  V30 4793 C 474.635 1.8495 0.379357 0
M  V30 4794 O 473.992 1.3174 1.26297 0
M  V30 4795 C 474.043 3.20533 -1.67155 0
M  V30 4796 O 473.764 3.13082 -3.06449 0
M  V30 4797 C 475.265 4.14461 -1.5728 0
M  V30 4798 H 472.485 0.556179 -0.375374 0
M  V30 4799 H 475.029 1.25238 -1.61666 0
M  V30 4800 H 473.184 3.6944 -1.16589 0
M  V30 4801 H 473.598 4.03283 -3.35355 0
M  V30 4802 H 475.072 5.1289 -2.04078 0
M  V30 4803 H 475.549 4.36005 -0.528795 0
M  V30 4804 H 476.155 3.71449 -2.07136 0
M  V30 4805 N 474.47 1.03057 1.19235 0
M  V30 4806 C 475.42 0.583386 2.2041 0
M  V30 4807 C 476.404 -0.368776 1.56617 0
M  V30 4808 O 477.596 -0.189471 1.75983 0
M  V30 4809 C 474.725 -0.0626534 3.43243 0
M  V30 4810 C 473.811 0.91205 4.14177 0
M  V30 4811 N 474.202 2.07514 4.61272 0
M  V30 4812 C 472.5 0.735859 4.39888 0
M  V30 4813 C 473.201 2.69003 5.15764 0
M  V30 4814 N 472.177 1.96954 5.06666 0
M  V30 4815 H 475.979 1.46988 2.54503 0
M  V30 4816 H 473.493 0.897785 1.35328 0
M  V30 4817 H 475.49 -0.400653 4.1497 0
M  V30 4818 H 474.15 -0.944813 3.1065 0
M  V30 4819 H 475.161 2.45448 4.56043 0
M  V30 4820 H 471.838 -0.0970656 4.17387 0
M  V30 4821 H 473.228 3.67514 5.6248 0
M  V30 4822 N 475.948 -1.35272 0.808662 0
M  V30 4823 C 477.194 -1.99003 0.390581 0
M  V30 4824 C 477.527 -1.63999 -1.0401 0
M  V30 4825 O 476.802 -0.904368 -1.72196 0
M  V30 4826 C 477.085 -3.55454 0.576566 0
M  V30 4827 C 476.938 -4.00249 2.05233 0
M  V30 4828 C 478.257 -4.401 0.00354277 0
M  V30 4829 H 475.376 -0.722917 0.143388 0
M  V30 4830 H 478.018 -1.6039 1.01858 0
M  V30 4831 H 476.168 -3.88477 0.0419766 0
M  V30 4832 H 477.84 -3.77626 2.64946 0
M  V30 4833 H 476.083 -3.51082 2.54801 0
M  V30 4834 H 476.754 -5.0911 2.13333 0
M  V30 4835 H 479.23 -4.13548 0.460117 0
M  V30 4836 H 478.106 -5.48656 0.163575 0
M  V30 4837 H 478.367 -4.28444 -1.09032 0
M  V30 4838 N 477.426 -0.562348 -1.47226 0
M  V30 4839 C 478.673 -0.0402165 -2.0246 0
M  V30 4840 C 479.001 1.31169 -1.43614 0
M  V30 4841 O 478.256 1.86805 -0.5833 0
M  V30 4842 C 478.555 0.0969817 -3.57268 0
M  V30 4843 C 478.221 -1.1847 -4.35058 0
M  V30 4844 C 476.883 -1.53588 -4.56031 0
M  V30 4845 C 479.235 -2.03378 -4.79882 0
M  V30 4846 C 476.563 -2.73452 -5.19077 0
M  V30 4847 C 478.915 -3.2245 -5.44251 0
M  V30 4848 C 477.579 -3.57876 -5.63455 0
M  V30 4849 H 476.849 -0.0147163 -0.740854 0
M  V30 4850 H 479.496 -0.734895 -1.76838 0
M  V30 4851 H 477.801 0.87466 -3.81912 0
M  V30 4852 H 479.498 0.516408 -3.97661 0
M  V30 4853 H 476.088 -0.90126 -4.19017 0
M  V30 4854 H 480.272 -1.77553 -4.63453 0
M  V30 4855 H 475.528 -3.01062 -5.32139 0
M  V30 4856 H 479.702 -3.88526 -5.77945 0
M  V30 4857 H 477.329 -4.50849 -6.12078 0
M  V30 4858 N 478.904 1.54736 -0.299062 0
M  V30 4859 C 480.32 1.59507 0.0543849 0
M  V30 4860 C 480.52 1.31606 1.52585 0
M  V30 4861 O 479.576 1.08853 2.27832 0
M  V30 4862 C 480.889 2.98751 -0.34181 0
M  V30 4863 C 482.437 3.1165 -0.290414 0
M  V30 4864 C 482.912 4.53199 -0.661402 0
M  V30 4865 N 484.403 4.59114 -0.613863 0
M  V30 4866 C 485.138 5.66709 -0.873417 0
M  V30 4867 N 484.634 6.82349 -1.19884 0
M  V30 4868 N 486.427 5.56369 -0.800608 0
M  V30 4869 H 478.578 1.71133 -1.25806 0
M  V30 4870 H 480.841 0.799186 -0.509908 0
M  V30 4871 H 480.547 3.24085 -1.36608 0
M  V30 4872 H 480.421 3.75961 0.305508 0
M  V30 4873 H 482.808 2.86066 0.724605 0
M  V30 4874 H 482.889 2.366 -0.972327 0
M  V30 4875 H 482.533 4.79513 -1.67422 0
M  V30 4876 H 482.463 5.26583 0.0425612 0
M  V30 4877 H 484.954 3.76053 -0.3732 0
M  V30 4878 H 485.267 7.60326 -1.38291 0
M  V30 4879 H 483.612 6.83906 -1.23685 0
M  V30 4880 H 486.803 4.64904 -0.546045 0
M  V30 4881 H 486.976 6.40139 -1.00626 0
M  V30 4882 N 480.382 0.0267497 1.57577 0
M  V30 4883 C 481.63 -0.651116 1.91324 0
M  V30 4884 C 481.951 -1.72804 0.90353 0
M  V30 4885 O 481.221 -1.95822 -0.0552946 0
M  V30 4886 H 479.801 -0.243491 0.706202 0
M  V30 4887 H 482.463 0.0739935 1.94759 0
M  V30 4888 H 481.559 -1.10536 2.9187 0
M  V30 4889 N 481.861 -1.55662 -0.24637 0
M  V30 4890 C 483.108 -1.77519 -0.974335 0
M  V30 4891 C 483.436 -0.591165 -1.85298 0
M  V30 4892 O 482.691 0.425497 -1.91018 0
M  V30 4893 C 482.99 -3.04885 -1.86494 0
M  V30 4894 C 482.656 -4.36209 -1.14161 0
M  V30 4895 C 481.318 -4.71896 -0.941701 0
M  V30 4896 C 483.67 -5.17391 -0.628957 0
M  V30 4897 C 480.998 -5.86299 -0.216852 0
M  V30 4898 C 483.35 -6.32546 0.0824273 0
M  V30 4899 C 482.014 -6.66853 0.293807 0
M  V30 4900 H 481.284 -0.649588 -0.356535 0
M  V30 4901 H 483.931 -1.89934 -0.244394 0
M  V30 4902 H 482.236 -2.87484 -2.66196 0
M  V30 4903 H 483.933 -3.18994 -2.42989 0
M  V30 4904 H 480.523 -4.08174 -1.30736 0
M  V30 4905 H 484.707 -4.90276 -0.770943 0
M  V30 4906 H 479.963 -6.11385 -0.0426124 0
M  V30 4907 H 484.137 -6.94693 0.487292 0
M  V30 4908 H 481.764 -7.55349 0.857428 0
M  V30 4909 N 483.339 0.512053 -1.4905 0
M  V30 4910 C 484.616 1.27337 -1.48474 0
M  V30 4911 C 484.996 2.1009 -0.206301 0
M  V30 4912 O 484.344 2.136 0.811609 0
M  V30 4913 C 484.554 2.13954 -2.75726 0
M  V30 4914 C 485.902 2.73507 -3.24776 0
M  V30 4915 O 486.926 2.24229 -2.76767 0
M  V30 4916 O 485.785 3.63186 -4.08361 0
M  V30 4917 H 482.879 0.575652 -0.593762 0
M  V30 4918 H 485.425 0.527232 -1.61302 0
M  V30 4919 H 484.197 1.52709 -3.60272 0
M  V30 4920 H 483.82 2.95782 -2.65705 0
M  V30 4921 N 484.817 1.37938 0.762283 0
M  V30 4922 C 485.765 1.34569 1.89721 0
M  V30 4923 C 486.759 0.232929 1.67791 0
M  V30 4924 O 487.965 0.401485 1.75465 0
M  V30 4925 H 484.34 0.419594 0.624055 0
M  V30 4926 H 486.311 2.30357 1.8968 0
M  V30 4927 C 485.06 1.17898 3.27101 0
M  V30 4928 H 484.383 2.02781 3.44558 0
M  V30 4929 H 485.823 1.19593 4.06784 0
M  V30 4930 C 484.282 -0.114728 3.36705 0
M  V30 4931 O 484.812 -1.0949 3.8649 0
M  V30 4932 N 483.018 -0.16863 2.9011 0
M  V30 4933 H 482.565 0.62967 2.49786 0
M  V30 4934 H 482.523 -1.03383 2.96916 0
M  V30 4935 N 486.295 -0.989507 1.22664 0
M  V30 4936 C 487.544 -1.72375 1.04737 0
M  V30 4937 C 487.857 -1.91096 -0.417316 0
M  V30 4938 O 489.063 -2.6188 -0.716334 0
M  V30 4939 C 487.519 -3.10161 1.82561 0
M  V30 4940 C 487.127 -2.99358 3.333 0
M  V30 4941 C 488.871 -3.87607 1.73093 0
M  V30 4942 C 486.778 -4.32319 4.03552 0
M  V30 4943 H 485.708 -0.646326 0.388302 0
M  V30 4944 H 488.359 -1.10437 1.46546 0
M  V30 4945 H 486.741 -3.728 1.33552 0
M  V30 4946 H 487.915 -2.45863 3.89728 0
M  V30 4947 H 486.23 -2.35392 3.43481 0
M  V30 4948 H 488.827 -4.86025 2.22899 0
M  V30 4949 H 489.17 -4.10509 0.691976 0
M  V30 4950 H 489.703 -3.31652 2.19663 0
M  V30 4951 H 486.442 -4.14616 5.07714 0
M  V30 4952 H 485.962 -4.85714 3.51911 0
M  V30 4953 H 487.641 -5.01051 4.09337 0
M  V30 4954 N 487.773 -1.03688 -1.18687 0
M  V30 4955 C 488.683 -0.634908 -2.25845 0
M  V30 4956 C 489.699 0.337065 -1.70704 0
M  V30 4957 O 490.875 0.192943 -2.00474 0
M  V30 4958 C 487.94 -0.000180054 -3.467 0
M  V30 4959 C 487.001 -1.02067 -4.1699 0
M  V30 4960 C 486.234 -0.41614 -5.32075 0
M  V30 4961 O 486.457 0.778712 -5.65059 0
M  V30 4962 O 485.391 -1.14296 -5.90948 0
M  V30 4963 H 489.217 -1.52757 -2.62486 0
M  V30 4964 H 486.802 -0.807533 -1.25695 0
M  V30 4965 H 488.684 0.353342 -4.19916 0
M  V30 4966 H 487.359 0.866367 -3.11891 0
M  V30 4967 H 486.266 -1.42592 -3.45859 0
M  V30 4968 H 487.599 -1.85786 -4.5579 0
M  V30 4969 N 489.251 1.34841 -0.815825 0
M  V30 4970 C 490.198 2.29644 -0.230664 0
M  V30 4971 C 491.168 1.53253 0.640533 0
M  V30 4972 O 492.353 1.81653 0.583672 0
M  V30 4973 C 489.493 3.39715 0.607275 0
M  V30 4974 C 488.606 4.31056 -0.28538 0
M  V30 4975 C 487.741 5.28225 0.561446 0
M  V30 4976 C 486.78 6.11204 -0.331035 0
M  V30 4977 N 485.917 7.00483 0.476302 0
M  V30 4978 H 490.757 2.79095 -1.0445 0
M  V30 4979 H 488.294 1.37351 -0.526595 0
M  V30 4980 H 490.252 4.02208 1.10835 0
M  V30 4981 H 488.882 2.91517 1.38629 0
M  V30 4982 H 487.934 3.69487 -0.904621 0
M  V30 4983 H 489.246 4.89239 -0.97193 0
M  V30 4984 H 488.4 5.96135 1.12728 0
M  V30 4985 H 487.139 4.70562 1.28153 0
M  V30 4986 H 486.144 5.42232 -0.909069 0
M  V30 4987 H 487.369 6.70947 -1.04912 0
M  V30 4988 H 485.315 6.45296 1.18019 0
M  V30 4989 H 485.232 7.55847 -0.152008 0
M  V30 4990 H 486.5 7.7273 1.02512 0
M  V30 4991 N 490.729 0.570148 1.46925 0
M  V30 4992 C 491.692 -0.159933 2.28641 0
M  V30 4993 C 492.692 -0.830638 1.37685 0
M  V30 4994 O 493.882 -0.684516 1.60187 0
M  V30 4995 C 491.014 -1.2354 3.17727 0
M  V30 4996 H 492.207 0.558035 2.94662 0
M  V30 4997 H 489.76 0.327603 1.52828 0
M  V30 4998 H 490.495 -1.98535 2.56426 0
M  V30 4999 H 490.28 -0.759125 3.84681 0
M  V30 5000 H 491.77 -1.74782 3.79264 0
M  V30 5001 N 492.207 -1.54576 0.307264 0
M  V30 5002 C 493.454 -2.00263 -0.300167 0
M  V30 5003 C 493.782 -1.19561 -1.53413 0
M  V30 5004 O 493.037 -0.261487 -1.93945 0
M  V30 5005 C 493.336 -3.50572 -0.695253 0
M  V30 5006 C 493.002 -4.48771 0.437679 0
M  V30 5007 C 491.664 -4.7534 0.748681 0
M  V30 5008 C 494.016 -5.0721 1.19949 0
M  V30 5009 C 491.344 -5.5761 1.8245 0
M  V30 5010 C 493.696 -5.90651 2.26527 0
M  V30 5011 C 492.36 -6.15528 2.58227 0
M  V30 5012 H 491.63 -0.732814 -0.109839 0
M  V30 5013 H 494.277 -1.86664 0.427661 0
M  V30 5014 H 492.582 -3.61814 -1.50326 0
M  V30 5015 H 494.279 -3.83352 -1.17653 0
M  V30 5016 H 490.869 -4.282 0.185187 0
M  V30 5017 H 495.053 -4.86679 0.972474 0
M  V30 5018 H 490.309 -5.75121 2.07476 0
M  V30 5019 H 494.483 -6.34957 2.86011 0
M  V30 5020 H 492.11 -6.79066 3.4172 0
M  V30 5021 N 493.685 -0.035106 -1.57561 0
M  V30 5022 C 494.618 0.979673 -2.06101 0
M  V30 5023 C 495.596 1.31378 -0.958046 0
M  V30 5024 O 496.78 1.42942 -1.22881 0
M  V30 5025 C 493.907 2.29809 -2.48808 0
M  V30 5026 C 492.953 2.11817 -3.70184 0
M  V30 5027 S 493.786 1.41143 -5.16565 0
M  V30 5028 C 494.942 2.74341 -5.62572 0
M  V30 5029 H 495.175 0.566506 -2.91853 0
M  V30 5030 H 492.708 0.176744 -1.53385 0
M  V30 5031 H 494.666 3.056 -2.74078 0
M  V30 5032 H 493.327 2.68257 -1.63392 0
M  V30 5033 H 492.52 3.09299 -3.97933 0
M  V30 5034 H 492.122 1.44168 -3.45097 0
M  V30 5035 H 494.414 3.70562 -5.67177 0
M  V30 5036 H 495.357 2.51249 -6.62027 0
M  V30 5037 H 495.765 2.79863 -4.90242 0
M  V30 5038 N 495.163 1.55791 0.238111 0
M  V30 5039 C 496.093 1.94068 1.29846 0
M  V30 5040 C 497.074 0.806726 1.49753 0
M  V30 5041 O 498.259 1.06772 1.62214 0
M  V30 5042 C 495.389 2.24302 2.65153 0
M  V30 5043 C 494.343 3.40032 2.59927 0
M  V30 5044 C 493.669 3.55829 3.99111 0
M  V30 5045 C 494.969 4.75476 2.16148 0
M  V30 5046 H 496.663 2.82887 0.980563 0
M  V30 5047 H 494.209 1.36105 0.470253 0
M  V30 5048 H 496.162 2.4967 3.39475 0
M  V30 5049 H 494.886 1.32318 2.98596 0
M  V30 5050 H 493.545 3.14687 1.88063 0
M  V30 5051 H 493.193 2.6125 4.29834 0
M  V30 5052 H 492.893 4.3366 3.96501 0
M  V30 5053 H 494.417 3.83528 4.7512 0
M  V30 5054 H 495.831 5.00158 2.80205 0
M  V30 5055 H 494.228 5.56472 2.24631 0
M  V30 5056 H 495.298 4.71946 1.11333 0
M  V30 5057 N 496.642 -0.504142 1.49319 0
M  V30 5058 C 497.575 -1.62361 1.60356 0
M  V30 5059 C 498.553 -1.56169 0.45277 0
M  V30 5060 O 499.737 -1.76271 0.667892 0
M  V30 5061 C 496.864 -3.00864 1.55559 0
M  V30 5062 C 495.91 -3.25328 2.75797 0
M  V30 5063 S 496.743 -3.08791 4.37503 0
M  V30 5064 C 497.899 -4.49695 4.35345 0
M  V30 5065 H 498.132 -1.52753 2.55056 0
M  V30 5066 H 495.665 -0.689065 1.38171 0
M  V30 5067 H 497.623 -3.8073 1.53477 0
M  V30 5068 H 496.284 -3.0789 0.621515 0
M  V30 5069 H 495.477 -4.2643 2.68651 0
M  V30 5070 H 495.079 -2.53179 2.75275 0
M  V30 5071 H 497.371 -5.41721 4.06871 0
M  V30 5072 H 498.314 -4.61891 5.36714 0
M  V30 5073 H 498.722 -4.30227 3.65465 0
M  V30 5074 N 498.12 -1.38341 -0.754957 0
M  V30 5075 C 499.067 -1.3546 -1.86867 0
M  V30 5076 C 500.037 -0.217369 -1.64672 0
M  V30 5077 O 501.222 -0.409383 -1.86356 0
M  V30 5078 C 498.362 -1.18413 -3.24149 0
M  V30 5079 C 497.475 -2.41511 -3.58185 0
M  V30 5080 C 496.61 -2.17205 -4.84763 0
M  V30 5081 C 495.649 -3.36081 -5.11582 0
M  V30 5082 N 494.786 -3.11219 -6.29354 0
M  V30 5083 H 499.626 -2.30672 -1.88664 0
M  V30 5084 H 497.163 -1.14607 -0.922154 0
M  V30 5085 H 499.121 -1.06545 -4.03366 0
M  V30 5086 H 497.751 -0.268397 -3.21682 0
M  V30 5087 H 496.803 -2.64056 -2.73822 0
M  V30 5088 H 498.115 -3.30115 -3.73932 0
M  V30 5089 H 497.269 -2.02465 -5.7192 0
M  V30 5090 H 496.008 -1.25964 -4.71152 0
M  V30 5091 H 495.013 -3.51341 -4.22894 0
M  V30 5092 H 496.238 -4.28196 -5.27091 0
M  V30 5093 H 494.184 -2.22624 -6.17069 0
M  V30 5094 H 494.101 -3.93373 -6.45596 0
M  V30 5095 H 495.369 -3.00132 -7.19403 0
M  V30 5096 N 499.598 0.982988 -1.23187 0
M  V30 5097 C 500.875 1.69814 -0.970707 0
M  V30 5098 C 501.255 2.04811 0.511424 0
M  V30 5099 O 500.603 1.73924 1.48198 0
M  V30 5100 C 500.813 2.94143 -1.87831 0
M  V30 5101 C 502.161 3.66712 -2.14026 0
M  V30 5102 O 503.185 3.04171 -1.8536 0
M  V30 5103 O 502.044 4.79258 -2.62629 0
M  V30 5104 H 499.138 0.741659 -0.365884 0
M  V30 5105 H 501.684 1.03844 -1.34218 0
M  V30 5106 H 500.456 2.64858 -2.88038 0
M  V30 5107 H 500.079 3.6785 -1.50905 0
M  V30 5108 N 501.076 1.04316 1.18135 0
M  V30 5109 C 502.023 0.636398 2.21853 0
M  V30 5110 C 502.993 -0.357039 1.62217 0
M  V30 5111 O 504.178 -0.250453 1.89149 0
M  V30 5112 C 501.318 0.00812779 3.45099 0
M  V30 5113 C 500.431 1.04933 4.19062 0
M  V30 5114 C 499.566 0.389313 5.29771 0
M  V30 5115 C 498.605 1.41544 5.9551 0
M  V30 5116 N 497.742 0.78021 6.97751 0
M  V30 5117 H 502.582 1.52536 2.56002 0
M  V30 5118 H 500.119 0.76304 1.25762 0
M  V30 5119 H 502.077 -0.373497 4.15525 0
M  V30 5120 H 500.707 -0.844336 3.11562 0
M  V30 5121 H 499.759 1.54888 3.47439 0
M  V30 5122 H 501.071 1.82862 4.64072 0
M  V30 5123 H 500.225 -0.0463805 6.06682 0
M  V30 5124 H 498.964 -0.422038 4.8587 0
M  V30 5125 H 497.969 1.86124 5.17337 0
M  V30 5126 H 499.194 2.22854 6.41493 0
M  V30 5127 H 497.14 -0.0107899 6.55999 0
M  V30 5128 H 497.057 1.49716 7.41027 0
M  V30 5129 H 498.325 0.368996 7.78626 0
M  V30 5130 N 502.554 -1.34406 0.822964 0
M  V30 5131 C 503.965 -1.8069 0.469879 0
M  V30 5132 C 504.316 -1.68223 -1.00972 0
M  V30 5133 O 503.441 -1.22226 -1.78577 0
M  V30 5134 C 504.036 -3.28064 0.846118 0
M  V30 5135 C 502.595 -3.72428 0.545402 0
M  V30 5136 C 501.742 -2.56116 1.06301 0
M  V30 5137 H 504.693 -1.22153 1.01313 0
M  V30 5138 H 504.714 -3.80205 0.149922 0
M  V30 5139 H 504.226 -3.37107 1.92304 0
M  V30 5140 H 502.327 -3.68924 -0.522109 0
M  V30 5141 H 502.44 -4.66548 1.0895 0
M  V30 5142 H 500.804 -2.50048 0.484554 0
M  V30 5143 H 501.587 -2.67928 2.14638 0
M  V30 5144 N 504.032 -0.577932 -1.46621 0
M  V30 5145 C 504.979 0.158048 -2.30258 0
M  V30 5146 C 505.949 0.888669 -1.40328 0
M  V30 5147 O 507.134 0.880283 -1.6928 0
M  V30 5148 C 504.274 1.16884 -3.24703 0
M  V30 5149 C 503.387 0.442163 -4.29731 0
M  V30 5150 C 502.522 1.44007 -5.11308 0
M  V30 5151 C 501.561 0.69952 -6.0809 0
M  V30 5152 N 500.698 1.64525 -6.82551 0
M  V30 5153 H 505.538 -0.561242 -2.92667 0
M  V30 5154 H 503.075 -0.288591 -1.44241 0
M  V30 5155 H 505.033 1.7677 -3.779 0
M  V30 5156 H 503.663 1.85591 -2.64113 0
M  V30 5157 H 502.715 -0.271632 -3.79429 0
M  V30 5158 H 504.027 -0.136992 -4.98612 0
M  V30 5159 H 503.181 2.11186 -5.68758 0
M  V30 5160 H 501.92 2.05315 -4.42377 0
M  V30 5161 H 500.925 0.0139217 -5.49798 0
M  V30 5162 H 502.15 0.091894 -6.79038 0
M  V30 5163 H 500.096 2.24653 -6.16334 0
M  V30 5164 H 500.013 1.11878 -7.47676 0
M  V30 5165 H 501.281 2.30754 -7.44562 0
M  V30 5166 N 505.51 1.54411 -0.315457 0
M  V30 5167 C 506.787 1.92562 0.343398 0
M  V30 5168 C 507.167 1.24423 1.70535 0
M  V30 5169 O 506.515 0.385051 2.25232 0
M  V30 5170 C 506.725 3.46168 0.443687 0
M  V30 5171 C 508.073 4.18659 0.707783 0
M  V30 5172 O 509.097 3.52281 0.52693 0
M  V30 5173 O 507.956 5.36198 1.05612 0
M  V30 5174 H 505.05 0.80379 0.194552 0
M  V30 5175 H 507.596 1.65738 -0.364577 0
M  V30 5176 H 506.368 3.8792 -0.513172 0
M  V30 5177 H 505.991 3.79073 1.19956 0
M  V30 5178 N 506.988 0.0434614 1.5754 0
M  V30 5179 C 507.918 -0.931651 2.14109 0
M  V30 5180 C 508.899 -1.32971 1.06079 0
M  V30 5181 O 510.084 -1.40579 1.33982 0
M  V30 5182 C 507.214 -2.20914 2.67982 0
M  V30 5183 C 506.168 -1.95139 3.80926 0
M  V30 5184 C 505.494 -3.29276 4.21285 0
M  V30 5185 C 506.794 -1.27913 5.06395 0
M  V30 5186 H 508.488 -0.460497 2.95837 0
M  V30 5187 H 506.034 -0.220058 1.42309 0
M  V30 5188 H 507.987 -2.89522 3.06194 0
M  V30 5189 H 506.711 -2.70221 1.83434 0
M  V30 5190 H 505.37 -1.28945 3.43175 0
M  V30 5191 H 505.018 -3.76369 3.33699 0
M  V30 5192 H 504.718 -3.12831 4.97404 0
M  V30 5193 H 506.242 -3.99129 4.62091 0
M  V30 5194 H 507.656 -1.86544 5.42102 0
M  V30 5195 H 506.053 -1.2182 5.87605 0
M  V30 5196 H 507.123 -0.254066 4.84234 0
M  V30 5197 N 508.466 -1.55915 -0.229846 0
M  V30 5198 C 509.715 -1.77742 -0.953455 0
M  V30 5199 C 510.028 -0.610524 -1.85828 0
M  V30 5200 O 511.234 -0.712219 -2.61992 0
M  V30 5201 C 509.69 -3.14738 -1.74551 0
M  V30 5202 C 509.298 -4.39126 -0.887242 0
M  V30 5203 C 511.042 -3.45895 -2.46084 0
M  V30 5204 C 508.949 -5.67149 -1.67617 0
M  V30 5205 H 507.879 -0.662648 -0.359741 0
M  V30 5206 H 510.53 -1.82322 -0.207576 0
M  V30 5207 H 508.912 -3.04311 -2.53399 0
M  V30 5208 H 510.086 -4.60588 -0.139892 0
M  V30 5209 H 508.401 -4.15427 -0.284443 0
M  V30 5210 H 510.998 -4.38767 -3.05594 0
M  V30 5211 H 511.341 -2.68007 -3.18556 0
M  V30 5212 H 511.874 -3.57614 -1.74233 0
M  V30 5213 H 508.613 -6.47906 -0.994881 0
M  V30 5214 H 508.133 -5.49763 -2.39836 0
M  V30 5215 H 509.812 -6.07025 -2.23898 0
M  V30 5216 N 509.944 0.496216 -1.49584 0
M  V30 5217 C 510.891 1.59722 -1.66606 0
M  V30 5218 C 511.861 1.58158 -0.507477 0
M  V30 5219 O 513.046 1.76072 -0.735076 0
M  V30 5220 C 510.186 2.97844 -1.74308 0
M  V30 5221 C 509.299 3.09388 -3.01502 0
M  V30 5222 C 508.434 4.38271 -3.00153 0
M  V30 5223 C 507.473 4.43466 -4.21906 0
M  V30 5224 N 506.61 5.63784 -4.1844 0
M  V30 5225 H 511.45 1.44515 -2.60613 0
M  V30 5226 H 508.987 0.703048 -1.29212 0
M  V30 5227 H 510.945 3.77907 -1.76754 0
M  V30 5228 H 509.575 3.11743 -0.837619 0
M  V30 5229 H 508.627 2.22357 -3.08645 0
M  V30 5230 H 509.939 3.09085 -3.91494 0
M  V30 5231 H 509.093 5.2666 -3.01188 0
M  V30 5232 H 507.832 4.41146 -2.07947 0
M  V30 5233 H 506.837 3.53478 -4.21109 0
M  V30 5234 H 508.062 4.42303 -5.1531 0
M  V30 5235 H 506.008 5.67491 -3.29074 0
M  V30 5236 H 505.925 5.65118 -5.02173 0
M  V30 5237 H 507.193 6.54367 -4.23585 0
M  V30 5238 N 511.423 1.38739 0.74761 0
M  V30 5239 C 512.834 1.31507 1.32524 0
M  V30 5240 C 513.185 -0.0263963 1.96182 0
M  V30 5241 O 512.31 -0.92849 1.95469 0
M  V30 5242 C 512.905 2.38162 2.40966 0
M  V30 5243 C 511.464 2.34489 2.94434 0
M  V30 5244 C 510.611 2.20712 1.67873 0
M  V30 5245 H 513.562 1.4901 0.546043 0
M  V30 5246 H 513.583 2.04222 3.21051 0
M  V30 5247 H 513.095 3.35783 1.94605 0
M  V30 5248 H 511.196 1.40467 3.45108 0
M  V30 5249 H 511.309 3.28861 3.48407 0
M  V30 5250 H 509.673 1.67667 1.91729 0
M  V30 5251 H 510.456 3.20285 1.23582 0
M  V30 5252 N 512.901 -0.976442 1.23707 0
M  V30 5253 C 514.147 -1.72081 1.07312 0
M  V30 5254 C 514.48 -1.90275 -0.388476 0
M  V30 5255 O 513.755 -1.4579 -1.28746 0
M  V30 5256 C 514.038 -3.11675 1.80363 0
M  V30 5257 C 513.891 -3.01027 3.3422 0
M  V30 5258 C 515.21 -4.1117 1.5693 0
M  V30 5259 H 512.329 -0.624583 0.391236 0
M  V30 5260 H 514.971 -1.13649 1.52263 0
M  V30 5261 H 513.121 -3.61559 1.42153 0
M  V30 5262 H 514.793 -2.58637 3.81975 0
M  V30 5263 H 513.036 -2.3744 3.63049 0
M  V30 5264 H 513.707 -3.9988 3.80525 0
M  V30 5265 H 516.183 -3.7011 1.90151 0
M  V30 5266 H 515.059 -5.06928 2.10513 0
M  V30 5267 H 515.32 -4.392 0.505548 0
M  V30 5268 N 514.379 -1.04941 -1.1758 0
M  V30 5269 C 515.625 -0.759112 -1.88057 0
M  V30 5270 C 515.958 0.711918 -1.8068 0
M  V30 5271 O 515.233 1.52035 -1.21308 0
M  V30 5272 C 515.516 -1.237 -3.38187 0
M  V30 5273 C 515.369 -2.77078 -3.54327 0
M  V30 5274 C 516.688 -0.834014 -4.32125 0
M  V30 5275 H 513.807 -0.277237 -0.682868 0
M  V30 5276 H 516.449 -1.30296 -1.38286 0
M  V30 5277 H 514.599 -0.774337 -3.80705 0
M  V30 5278 H 516.271 -3.31449 -3.20842 0
M  V30 5279 H 514.514 -3.16477 -2.96689 0
M  V30 5280 H 515.185 -3.05577 -4.59703 0
M  V30 5281 H 517.661 -1.23228 -3.97434 0
M  V30 5282 H 516.537 -1.19603 -5.35711 0
M  V30 5283 H 516.798 0.262195 -4.41322 0
M  V30 5284 N 515.857 1.33968 -0.830081 0
M  V30 5285 C 517.106 1.97323 -0.417928 0
M  V30 5286 C 517.419 1.6652 1.02618 0
M  V30 5287 O 518.625 2.2342 1.54259 0
M  V30 5288 C 517.081 3.53099 -0.696359 0
M  V30 5289 C 516.689 3.92788 -2.15457 0
M  V30 5290 C 518.433 4.23049 -0.350724 0
M  V30 5291 C 516.34 5.41506 -2.37751 0
M  V30 5292 H 515.27 0.738409 -0.152541 0
M  V30 5293 H 517.921 1.52711 -1.01744 0
M  V30 5294 H 516.303 3.95991 -0.0265904 0
M  V30 5295 H 517.477 3.6098 -2.86408 0
M  V30 5296 H 515.792 3.35795 -2.46232 0
M  V30 5297 H 518.389 5.32403 -0.495036 0
M  V30 5298 H 518.732 4.10279 0.705476 0
M  V30 5299 H 519.265 3.85657 -0.975362 0
M  V30 5300 H 516.004 5.5927 -3.41903 0
M  V30 5301 H 515.524 5.74804 -1.7135 0
M  V30 5302 H 517.203 6.0828 -2.20465 0
M  V30 5303 N 517.335 0.585699 1.46312 0
M  V30 5304 C 518.265 -0.133556 2.33118 0
M  V30 5305 C 519.246 -0.880707 1.45525 0
M  V30 5306 O 520.431 -0.855579 1.74337 0
M  V30 5307 C 517.561 -1.14585 3.27853 0
M  V30 5308 C 516.515 -0.513341 4.2491 0
M  V30 5309 C 515.841 -1.63231 5.09175 0
M  V30 5310 C 517.141 0.551413 5.19381 0
M  V30 5311 H 518.835 0.59121 2.93505 0
M  V30 5312 H 516.381 0.285761 1.41136 0
M  V30 5313 H 518.334 -1.65741 3.87438 0
M  V30 5314 H 517.058 -1.90093 2.65579 0
M  V30 5315 H 515.717 -0.0228349 3.66593 0
M  V30 5316 H 515.365 -2.37713 4.43285 0
M  V30 5317 H 515.065 -1.21473 5.74907 0
M  V30 5318 H 516.589 -2.14658 5.71624 0
M  V30 5319 H 518.003 0.124804 5.73164 0
M  V30 5320 H 516.4 0.889486 5.93471 0
M  V30 5321 H 517.47 1.43655 4.63132 0
M  V30 5322 N 518.813 -1.54241 0.323641 0
M  V30 5323 C 519.776 -2.22997 -0.529602 0
M  V30 5324 C 520.776 -1.22345 -1.04347 0
M  V30 5325 O 521.966 -1.46924 -0.935889 0
M  V30 5326 C 519.098 -2.93409 -1.73562 0
M  V30 5327 H 520.291 -2.99815 0.0714518 0
M  V30 5328 H 517.844 -1.56121 0.0747258 0
M  V30 5329 H 518.579 -2.20729 -2.37591 0
M  V30 5330 H 518.364 -3.67217 -1.37456 0
M  V30 5331 H 519.854 -3.45794 -2.34128 0
M  V30 5332 O 520.33 -0.191128 -1.60365 0
M  V30 5333 H 521.021 0.395023 -1.89629 0
M  V30 END ATOM
M  V30 BEGIN BOND
M  V30 END BOND
M  V30 END CTAB
M  END
$$$$
