drugbank_target|P14923 Junction plakoglobin (DB01593; DB14487)
 OpenBabel12092121083D

  0  0  0     0  0            999 V3000
M  V30 BEGIN CTAB
M  V30 COUNTS 11504 11600 0 0 0
M  V30 BEGIN ATOM
M  V30 1 H -0.908 1.98254 -0.117106 0
M  V30 2 N 0 1.576 0 0
M  V30 3 C 0.933 2.03868 1.02534 0
M  V30 4 C 1.911 0.928543 1.3348 0
M  V30 5 O 3.095 1.19667 1.45644 0
M  V30 6 C 0.222 2.43627 2.35294 0
M  V30 7 C -0.732 3.65373 2.2001 0
M  V30 8 S 0.101 5.13292 1.52614 0
M  V30 9 C 1.257 5.56322 2.86805 0
M  V30 10 H 1.49 2.90518 0.631377 0
M  V30 11 H -0.977 1.52953 0.210867 0
M  V30 12 H 0.981 2.67203 3.11629 0
M  V30 13 H -0.358 1.57376 2.7183 0
M  V30 14 H -1.165 3.90944 3.18086 0
M  V30 15 H -1.563 3.418 1.51819 0
M  V30 16 H 0.729 5.58782 3.83104 0
M  V30 17 H 1.672 6.56266 2.65933 0
M  V30 18 H 2.08 4.83886 2.90714 0
M  V30 19 N 1.4781 -0.272755 1.55222 0
M  V30 20 C 2.3881 -1.35918 1.91216 0
M  V30 21 C 3.4041 -1.54026 0.809436 0
M  V30 22 O 4.5801 -1.68148 1.10852 0
M  V30 23 C 1.6451 -2.69834 2.17693 0
M  V30 24 C 0.7061 -2.6047 3.41253 0
M  V30 25 C -0.0609 -3.88 3.66458 0
M  V30 26 O 0.1621 -4.88693 2.94169 0
M  V30 27 O -0.9039 -3.88189 4.59992 0
M  V30 28 H 2.9221 -1.0839 2.83699 0
M  V30 29 H 0.5071 -0.471301 1.41771 0
M  V30 30 H 2.3891 -3.49017 2.36147 0
M  V30 31 H 1.0641 -2.97148 1.28392 0
M  V30 32 H -0.0289 -1.79663 3.28134 0
M  V30 33 H 1.3041 -2.38106 4.30774 0
M  V30 34 N 2.9562 -1.48159 -0.537278 0
M  V30 35 C 4.2022 -1.56035 -1.29541 0
M  V30 36 C 4.5352 -0.230377 -1.92829 0
M  V30 37 O 3.8102 0.762952 -1.78911 0
M  V30 38 C 4.0932 -2.69323 -2.39034 0
M  V30 39 C 3.9462 -4.12002 -1.80485 0
M  V30 40 C 5.2652 -2.78408 -3.40847 0
M  V30 41 H 2.3842 -0.567992 -0.469632 0
M  V30 42 H 5.0262 -1.80302 -0.599277 0
M  V30 43 H 3.1762 -2.48763 -2.98412 0
M  V30 44 H 4.8482 -4.43981 -1.25215 0
M  V30 45 H 3.0912 -4.19344 -1.11055 0
M  V30 46 H 3.7622 -4.87077 -2.59731 0
M  V30 47 H 6.2382 -2.97012 -2.91416 0
M  V30 48 H 5.1142 -3.59416 -4.14863 0
M  V30 49 H 5.3752 -1.86269 -4.00944 0
M  V30 50 N 4.4343 0.785586 -1.36625 0
M  V30 51 C 5.3673 1.90509 -1.25625 0
M  V30 52 C 6.3453 1.62 -0.139607 0
M  V30 53 O 7.5293 1.8591 -0.31141 0
M  V30 54 C 4.6563 3.25419 -0.939158 0
M  V30 55 C 3.7023 3.72856 -2.07077 0
M  V30 56 S 4.5353 3.88162 -3.68904 0
M  V30 57 C 5.6913 5.25942 -3.39317 0
M  V30 58 H 5.9243 1.99549 -2.20381 0
M  V30 59 H 3.4573 0.945226 -1.22085 0
M  V30 60 H 5.4153 4.03346 -0.763029 0
M  V30 61 H 4.0763 3.14099 -0.00931402 0
M  V30 62 H 3.2693 4.70624 -1.80357 0
M  V30 63 H 2.8713 3.01989 -2.20632 0
M  V30 64 H 5.1633 6.10651 -2.93447 0
M  V30 65 H 6.1063 5.57668 -4.36363 0
M  V30 66 H 6.5143 4.93224 -2.74573 0
M  V30 67 N 5.9124 1.20967 1.01018 0
M  V30 68 C 6.8604 0.961223 2.1181 0
M  V30 69 C 7.8544 -0.0897034 1.69162 0
M  V30 70 O 9.0604 0.0612271 1.79896 0
M  V30 71 H 5.4354 0.29355 0.692338 0
M  V30 72 H 7.4064 1.90178 2.29946 0
M  V30 73 C 6.1554 0.536854 3.4353 0
M  V30 74 H 5.4784 1.33713 3.76777 0
M  V30 75 H 6.9184 0.402286 4.22087 0
M  V30 76 C 5.3774 -0.751574 3.2841 0
M  V30 77 O 5.9074 -1.80841 3.58691 0
M  V30 78 N 4.1134 -0.716079 2.81639 0
M  V30 79 H 3.6604 0.144236 2.57196 0
M  V30 80 H 3.6184 -1.57847 2.71904 0
M  V30 81 N 7.3905 -1.2043 1.01659 0
M  V30 82 C 8.3205 -2.25466 0.607226 0
M  V30 83 C 9.3015 -1.65853 -0.377716 0
M  V30 84 O 10.4865 -1.92409 -0.263149 0
M  V30 85 C 7.6165 -3.47256 -0.0552949 0
M  V30 86 C 6.5705 -4.19462 0.850632 0
M  V30 87 C 5.8965 -5.34673 0.0538859 0
M  V30 88 C 7.1965 -4.75603 2.15868 0
M  V30 89 H 8.8905 -2.59962 1.48526 0
M  V30 90 H 6.4365 -1.2496 0.715605 0
M  V30 91 H 8.3895 -4.19917 -0.353233 0
M  V30 92 H 7.1135 -3.11924 -0.968045 0
M  V30 93 H 5.7725 -3.48667 1.13257 0
M  V30 94 H 5.4205 -4.95585 -0.860514 0
M  V30 95 H 5.1205 -5.83913 0.657192 0
M  V30 96 H 6.6445 -6.10138 -0.237598 0
M  V30 97 H 8.0585 -5.40083 1.92311 0
M  V30 98 H 6.4555 -5.3528 2.71284 0
M  V30 99 H 7.5255 -3.94346 2.82169 0
M  V30 100 N 8.8686 -0.792821 -1.36206 0
M  V30 101 C 9.8016 -0.139422 -2.27774 0
M  V30 102 C 10.7796 0.68649 -1.47398 0
M  V30 103 O 11.9636 0.656738 -1.7669 0
M  V30 104 C 9.0906 0.807947 -3.28922 0
M  V30 105 C 8.1366 0.0633999 -4.26453 0
M  V30 106 S 8.9696 -1.26319 -5.20388 0
M  V30 107 C 10.1256 -0.31991 -6.25082 0
M  V30 108 H 10.3586 -0.915809 -2.82843 0
M  V30 109 H 7.8916 -0.587203 -1.42798 0
M  V30 110 H 9.8496 1.34908 -3.87699 0
M  V30 111 H 8.5106 1.55761 -2.72759 0
M  V30 112 H 7.7036 0.782386 -4.9789 0
M  V30 113 H 7.3056 -0.407352 -3.71775 0
M  V30 114 H 9.5976 0.499985 -6.75653 0
M  V30 115 H 10.5406 -1.00307 -7.00959 0
M  V30 116 H 10.9486 0.0782694 -5.64446 0
M  V30 117 N 10.3467 1.47872 -0.545128 0
M  V30 118 C 11.2567 2.33633 0.212746 0
M  V30 119 C 12.2727 1.4744 0.923983 0
M  V30 120 O 13.4487 1.80393 0.895572 0
M  V30 121 C 10.5137 3.23884 1.23693 0
M  V30 122 C 9.5747 4.25961 0.534417 0
M  V30 123 C 8.8077 5.11899 1.5098 0
M  V30 124 O 9.0307 5.00077 2.7437 0
M  V30 125 O 7.9647 5.92831 1.0409 0
M  V30 126 H 11.7907 2.99714 -0.490416 0
M  V30 127 H 9.3757 1.46235 -0.305871 0
M  V30 128 H 11.2577 3.79666 1.82843 0
M  V30 129 H 9.9327 2.60446 1.92222 0
M  V30 130 H 8.8397 3.73972 -0.0979679 0
M  V30 131 H 10.1727 4.92079 -0.109213 0
M  V30 132 N 11.8248 0.280983 1.55075 0
M  V30 133 C 12.7568 -0.637268 2.20163 0
M  V30 134 C 13.7698 -1.11298 1.18813 0
M  V30 135 O 14.9588 -1.03388 1.4551 0
M  V30 136 C 12.0588 -1.88199 2.81841 0
M  V30 137 C 11.2318 -1.55211 4.08936 0
M  V30 138 C 10.2908 -2.64991 4.54606 0
M  V30 139 O 9.3168 -2.30929 5.2025 0
M  V30 140 N 10.5188 -3.95161 4.25238 0
M  V30 141 H 13.2838 -0.0801694 2.99593 0
M  V30 142 H 10.8448 0.102329 1.61576 0
M  V30 143 H 12.8368 -2.60948 3.09335 0
M  V30 144 H 11.4068 -2.34799 2.06369 0
M  V30 145 H 10.6268 -0.658185 3.88666 0
M  V30 146 H 11.9148 -1.30681 4.91732 0
M  V30 147 H 11.3128 -4.25653 3.72607 0
M  V30 148 H 9.8698 -4.6427 4.5749 0
M  V30 149 N 13.3029 -1.57598 0.00835791 0
M  V30 150 C 14.7139 -1.7892 -0.53333 0
M  V30 151 C 15.0649 -0.916609 -1.73473 0
M  V30 152 O 14.1899 -0.121336 -2.1606 0
M  V30 153 C 14.7849 -3.24488 -0.974313 0
M  V30 154 C 13.3439 -3.46878 -1.46125 0
M  V30 155 C 12.4909 -2.74157 -0.416302 0
M  V30 156 H 15.4419 -1.56958 0.234495 0
M  V30 157 H 15.4629 -3.3306 -1.83988 0
M  V30 158 H 14.9749 -3.87972 -0.099718 0
M  V30 159 H 13.0759 -2.8862 -2.35646 0
M  V30 160 H 13.1889 -4.55572 -1.48295 0
M  V30 161 H 11.5529 -2.39022 -0.87981 0
M  V30 162 H 12.3359 -3.40345 0.44947 0
M  V30 163 N 14.781 0.264519 -1.55364 0
M  V30 164 C 16.03 0.992812 -1.75574 0
M  V30 165 C 16.343 1.87142 -0.568979 0
M  V30 166 O 17.549 2.63513 -0.653682 0
M  V30 167 C 16.005 1.81519 -3.10771 0
M  V30 168 C 15.613 0.984839 -4.37041 0
M  V30 169 C 17.357 2.53727 -3.40327 0
M  V30 170 C 15.264 1.80209 -5.63275 0
M  V30 171 H 14.194 0.374412 -0.65447 0
M  V30 172 H 16.845 0.248138 -1.81815 0
M  V30 173 H 15.227 2.60115 -2.98591 0
M  V30 174 H 16.401 0.242455 -4.60162 0
M  V30 175 H 14.716 0.37691 -4.14691 0
M  V30 176 H 17.313 3.15292 -4.3185 0
M  V30 177 H 17.656 3.24447 -2.60845 0
M  V30 178 H 18.189 1.82156 -3.53644 0
M  V30 179 H 14.928 1.13896 -6.45529 0
M  V30 180 H 14.448 2.52022 -5.44284 0
M  V30 181 H 16.127 2.37364 -6.01887 0
M  V30 182 N 16.2591 1.48442 0.529413 0
M  V30 183 C 17.2061 1.63007 1.63394 0
M  V30 184 C 18.1761 0.47212 1.59249 0
M  V30 185 O 19.3611 0.695673 1.77666 0
M  V30 186 C 16.5011 1.6763 3.01653 0
M  V30 187 C 15.6141 2.94535 3.16027 0
M  V30 188 C 14.7491 2.90316 4.44849 0
M  V30 189 C 13.7881 4.11923 4.52754 0
M  V30 190 N 12.9251 4.05777 5.72965 0
M  V30 191 H 17.7651 2.5733 1.50285 0
M  V30 192 H 15.3021 1.27613 0.731656 0
M  V30 193 H 17.2601 1.68292 3.81751 0
M  V30 194 H 15.8901 0.76797 3.13532 0
M  V30 195 H 14.9421 3.03615 2.29177 0
M  V30 196 H 16.2541 3.84512 3.17729 0
M  V30 197 H 15.4081 2.89382 5.33238 0
M  V30 198 H 14.1471 1.98068 4.45668 0
M  V30 199 H 13.1521 4.13131 3.62771 0
M  V30 200 H 14.3771 5.0533 4.53672 0
M  V30 201 H 12.3231 3.16351 5.74681 0
M  V30 202 H 12.2401 4.8946 5.76164 0
M  V30 203 H 13.5081 4.08904 6.6364 0
M  V30 204 N 17.7372 -0.778329 1.37039 0
M  V30 205 C 18.9832 -1.53892 1.32079 0
M  V30 206 C 19.3162 -1.9396 -0.0965386 0
M  V30 207 O 18.5912 -1.63568 -1.05242 0
M  V30 208 C 18.8742 -2.80847 2.25382 0
M  V30 209 C 18.7272 -2.47076 3.75864 0
M  V30 210 C 20.0462 -3.82741 2.1725 0
M  V30 211 H 17.1652 -0.558303 0.48111 0
M  V30 212 H 19.8072 -0.893397 1.67685 0
M  V30 213 H 17.9572 -3.35931 1.95148 0
M  V30 214 H 19.6292 -1.97957 4.16666 0
M  V30 215 H 17.8722 -1.79863 3.94755 0
M  V30 216 H 18.5432 -3.37798 4.36574 0
M  V30 217 H 21.0192 -3.37133 2.43887 0
M  V30 218 H 19.8952 -4.69303 2.84686 0
M  V30 219 H 20.1562 -4.2652 1.16331 0
M  V30 220 N 19.2153 -1.21501 -1.00376 0
M  V30 221 C 20.4433 -1.059 -1.77744 0
M  V30 222 C 20.8583 0.391125 -1.84704 0
M  V30 223 O 20.2153 1.27133 -1.30933 0
M  V30 224 C 20.2663 -1.65111 -3.21591 0
M  V30 225 O 19.9873 -3.0445 -3.15027 0
M  V30 226 C 21.4883 -1.54637 -4.15454 0
M  V30 227 H 18.7083 -0.371825 -0.558558 0
M  V30 228 H 21.2523 -1.60865 -1.26264 0
M  V30 229 H 19.4073 -1.14235 -3.70175 0
M  V30 230 H 19.8213 -3.3278 -4.0541 0
M  V30 231 H 21.2953 -2.00808 -5.14179 0
M  V30 232 H 21.7723 -0.501022 -4.36333 0
M  V30 233 H 22.3783 -2.04767 -3.72761 0
M  V30 234 N 20.6934 1.19889 -1.02296 0
M  V30 235 C 21.6034 2.26571 -0.608508 0
M  V30 236 C 22.6194 1.70299 0.356964 0
M  V30 237 O 23.7954 2.00235 0.216326 0
M  V30 238 C 20.8604 3.46677 0.0402814 0
M  V30 239 C 19.9214 4.18153 -0.97194 0
M  V30 240 C 19.1544 5.32525 -0.354016 0
M  V30 241 O 19.3774 5.64112 0.844604 0
M  V30 242 O 18.3114 5.92242 -1.07391 0
M  V30 243 H 22.1374 2.64251 -1.49684 0
M  V30 244 H 19.7224 1.26629 -0.792809 0
M  V30 245 H 21.6044 4.19475 0.402324 0
M  V30 246 H 20.2794 3.10858 0.902707 0
M  V30 247 H 19.1864 3.47499 -1.38546 0
M  V30 248 H 20.5194 4.57927 -1.80454 0
M  V30 249 N 22.1715 0.800033 1.35784 0
M  V30 250 C 23.4175 0.38701 1.99684 0
M  V30 251 C 23.7725 -1.03268 1.62338 0
M  V30 252 O 23.0655 -1.70543 0.87325 0
M  V30 253 C 23.2595 0.500276 3.53881 0
M  V30 254 C 23.0885 1.92942 4.06206 0
M  V30 255 C 21.8585 2.55637 4.35865 0
M  V30 256 C 24.0565 2.89307 4.25213 0
M  V30 257 N 22.0385 3.9003 4.74078 0
M  V30 258 C 23.4095 4.08556 4.66349 0
M  V30 259 C 25.4645 2.86225 4.07406 0
M  V30 260 C 24.1675 5.25146 4.91543 0
M  V30 261 C 26.1935 4.02011 4.33752 0
M  V30 262 C 25.5555 5.20007 4.75155 0
M  V30 263 H 21.6545 0.189252 0.758754 0
M  V30 264 H 24.2385 1.03988 1.64604 0
M  V30 265 H 22.4095 -0.122568 3.88207 0
M  V30 266 H 24.1415 0.0624733 4.04652 0
M  V30 267 H 20.8965 2.07039 4.25948 0
M  V30 268 H 21.3205 4.59205 4.97454 0
M  V30 269 H 25.9625 1.96154 3.74544 0
M  V30 270 H 23.6805 6.15794 5.23281 0
M  V30 271 H 27.2665 4.00999 4.21534 0
M  V30 272 H 26.1465 6.08113 4.95145 0
M  V30 273 N 23.6496 -1.47581 0.552962 0
M  V30 274 C 24.5816 -2.27997 -0.234533 0
M  V30 275 C 25.5946 -1.36753 -0.883321 0
M  V30 276 O 26.7836 -1.61612 -0.757889 0
M  V30 277 C 23.8836 -3.10879 -1.34935 0
M  V30 278 C 23.0566 -4.30056 -0.798158 0
M  V30 279 C 22.1156 -4.94567 -1.79694 0
M  V30 280 O 21.1416 -5.53087 -1.34474 0
M  V30 281 N 22.3436 -4.88878 -3.13015 0
M  V30 282 H 25.1086 -2.96222 0.455255 0
M  V30 283 H 22.6696 -1.57163 0.388761 0
M  V30 284 H 24.6616 -3.50903 -2.01616 0
M  V30 285 H 23.2316 -2.44924 -1.94244 0
M  V30 286 H 22.4516 -3.94174 0.0453079 0
M  V30 287 H 23.7396 -5.07152 -0.409173 0
M  V30 288 H 23.1376 -4.42526 -3.52402 0
M  V30 289 H 21.6946 -5.32934 -3.75266 0
M  V30 290 N 25.1277 -0.289203 -1.54924 0
M  V30 291 C 26.0597 0.625583 -2.20497 0
M  V30 292 C 27.0727 1.10667 -1.19402 0
M  V30 293 O 28.2617 1.02615 -1.46056 0
M  V30 294 C 25.3617 1.86702 -2.82835 0
M  V30 295 C 24.5347 1.5304 -4.09753 0
M  V30 296 C 23.5937 2.62576 -4.56005 0
M  V30 297 O 22.6197 2.28167 -5.21468 0
M  V30 298 N 23.8217 3.92901 -4.27328 0
M  V30 299 H 26.5867 0.0642801 -2.99631 0
M  V30 300 H 24.1477 -0.110896 -1.6152 0
M  V30 301 H 26.1397 2.59304 -3.10715 0
M  V30 302 H 24.7097 2.33702 -2.07611 0
M  V30 303 H 23.9297 0.637564 -3.8901 0
M  V30 304 H 25.2177 1.28072 -4.92418 0
M  V30 305 H 24.6157 4.23671 -3.74859 0
M  V30 306 H 23.1727 4.61837 -4.59946 0
M  V30 307 N 26.6058 1.57591 -0.0167156 0
M  V30 308 C 27.8338 1.95575 0.675128 0
M  V30 309 C 28.2488 0.892542 1.6637 0
M  V30 310 O 27.6058 -0.126912 1.82058 0
M  V30 311 C 27.6568 3.33608 1.39239 0
M  V30 312 O 27.3778 4.3585 0.443444 0
M  V30 313 C 28.8788 3.86151 2.17721 0
M  V30 314 H 26.0988 0.644423 0.186978 0
M  V30 315 H 28.6428 2.0437 -0.0728 0
M  V30 316 H 26.7978 3.2607 2.09182 0
M  V30 317 H 27.2118 5.158 0.951358 0
M  V30 318 H 28.6858 4.85114 2.63379 0
M  V30 319 H 29.1628 3.19738 3.01105 0
M  V30 320 H 29.7688 3.96918 1.52761 0
M  V30 321 N 28.0839 -0.256276 1.55502 0
M  V30 322 C 29.3139 -1.00196 1.80677 0
M  V30 323 C 29.7219 -1.79805 0.588797 0
M  V30 324 O 29.0649 -1.78055 -0.451883 0
M  V30 325 C 29.1269 -1.99515 2.99055 0
M  V30 326 C 28.7909 -1.38688 4.35448 0
M  V30 327 C 29.7879 -0.794079 5.138 0
M  V30 328 C 27.4729 -1.40906 4.82132 0
M  V30 329 C 29.4669 -0.231562 6.36979 0
M  V30 330 C 27.1539 -0.842684 6.05262 0
M  V30 331 C 28.1519 -0.254953 6.82524 0
M  V30 332 O 27.8399 0.3027 8.0333 0
M  V30 333 H 27.5719 -0.300919 0.60533 0
M  V30 334 H 30.1259 -0.287307 2.03381 0
M  V30 335 H 28.3559 -2.74785 2.72084 0
M  V30 336 H 30.0449 -2.60349 3.11405 0
M  V30 337 H 30.8109 -0.769519 4.78856 0
M  V30 338 H 26.6899 -1.85591 4.21992 0
M  V30 339 H 30.2339 0.227816 6.97228 0
M  V30 340 H 26.1309 -0.86454 6.39684 0
M  V30 341 H 26.8989 0.193662 8.18271 0
M  V30 342 N 29.562 -1.4872 -0.521534 0
M  V30 343 C 30.79 -1.60843 -1.30142 0
M  V30 344 C 31.205 -0.271897 -1.86832 0
M  V30 345 O 30.562 0.739969 -1.66825 0
M  V30 346 C 30.613 -2.66155 -2.4463 0
M  V30 347 O 30.334 -3.94623 -1.90275 0
M  V30 348 C 31.835 -2.88795 -3.36322 0
M  V30 349 H 29.055 -0.542075 -0.395468 0
M  V30 350 H 31.599 -1.94609 -0.628285 0
M  V30 351 H 29.754 -2.35224 -3.07812 0
M  V30 352 H 30.168 -4.52468 -2.65279 0
M  V30 353 H 31.642 -3.66264 -4.12983 0
M  V30 354 H 32.119 -1.97934 -3.9207 0
M  V30 355 H 32.725 -3.21063 -2.78924 0
M  V30 356 N 31.0401 0.771051 -1.3745 0
M  V30 357 C 32.2701 1.55789 -1.35696 0
M  V30 358 C 32.6781 1.89107 0.0594523 0
M  V30 359 O 32.0211 1.51984 1.03183 0
M  V30 360 C 32.0831 2.89515 -2.13123 0
M  V30 361 C 31.7471 2.78829 -3.62082 0
M  V30 362 C 32.7441 2.49812 -4.5595 0
M  V30 363 C 30.4291 2.9683 -4.05213 0
M  V30 364 C 32.4231 2.38923 -5.90927 0
M  V30 365 C 30.1101 2.85562 -5.40276 0
M  V30 366 C 31.1081 2.56649 -6.32946 0
M  V30 367 O 30.7961 2.45408 -7.65526 0
M  V30 368 H 30.5281 0.489257 -0.466481 0
M  V30 369 H 33.0821 0.963446 -1.81403 0
M  V30 370 H 31.3121 3.51081 -1.62107 0
M  V30 371 H 33.0011 3.50915 -2.03994 0
M  V30 372 H 33.7671 2.3559 -4.23937 0
M  V30 373 H 29.6461 3.18335 -3.33442 0
M  V30 374 H 33.1901 2.16277 -6.63227 0
M  V30 375 H 29.0871 2.99351 -5.71891 0
M  V30 376 H 29.8551 2.60753 -7.75855 0
M  V30 377 N 32.5182 1.22032 0.997298 0
M  V30 378 C 33.7952 0.950823 1.70935 0
M  V30 379 C 34.1752 -0.535292 2.042 0
M  V30 380 O 33.5232 -1.50217 1.72183 0
M  V30 381 C 33.7332 1.84386 2.96315 0
M  V30 382 C 35.0812 2.09732 3.69185 0
M  V30 383 O 36.1052 1.81798 3.06314 0
M  V30 384 O 34.9642 2.57018 4.82291 0
M  V30 385 H 32.0582 0.357204 0.745878 0
M  V30 386 H 34.6042 1.32997 1.05404 0
M  V30 387 H 33.3762 2.84928 2.68201 0
M  V30 388 H 32.9992 1.46602 3.69586 0
M  V30 389 N 33.9963 -1.19345 1.0293 0
M  V30 390 C 35.2213 -1.93538 0.745511 0
M  V30 391 C 35.6463 -1.75007 -0.689511 0
M  V30 392 O 35.0043 -1.05265 -1.47611 0
M  V30 393 C 35.0523 -3.43336 1.10239 0
M  V30 394 O 34.1563 -4.11806 0.221289 0
M  V30 395 H 33.4973 -0.604193 0.275404 0
M  V30 396 H 36.0273 -1.5141 1.37609 0
M  V30 397 H 36.0373 -3.94004 1.05947 0
M  V30 398 H 34.7123 -3.56146 2.14786 0
M  V30 399 H 33.2893 -3.715 0.322842 0
M  V30 400 N 35.4744 -0.807222 -1.35358 0
M  V30 401 C 36.7224 -0.387122 -1.98358 0
M  V30 402 C 37.0434 1.04942 -1.64354 0
M  V30 403 O 36.3134 1.72615 -0.926339 0
M  V30 404 H 34.8934 -0.140154 -0.733734 0
M  V30 405 H 37.5554 -1.0332 -1.6526 0
M  V30 406 H 36.6514 -0.493352 -3.08176 0
M  V30 407 N 36.9525 1.47285 -0.560781 0
M  V30 408 C 38.2015 2.01668 -0.035895 0
M  V30 409 C 38.5145 1.44021 1.32353 0
M  V30 410 O 39.7205 1.90088 1.93853 0
M  V30 411 C 38.1765 3.59897 -0.0136659 0
M  V30 412 C 37.7845 4.26536 -1.37006 0
M  V30 413 C 39.5285 4.22017 0.458425 0
M  V30 414 C 37.4355 5.76782 -1.30675 0
M  V30 415 H 36.3655 0.753938 -0.00964879 0
M  V30 416 H 39.0165 1.69243 -0.709166 0
M  V30 417 H 37.3985 3.89301 0.725325 0
M  V30 418 H 38.5725 4.0877 -2.12705 0
M  V30 419 H 36.8875 3.76419 -1.78038 0
M  V30 420 H 39.4845 5.32124 0.524247 0
M  V30 421 H 39.8275 3.89437 1.4712 0
M  V30 422 H 40.3605 3.97159 -0.225818 0
M  V30 423 H 37.0995 6.13988 -2.29564 0
M  V30 424 H 36.6195 5.96875 -0.591622 0
M  V30 425 H 38.2985 6.39063 -1.01033 0
M  V30 426 N 38.4306 0.297415 1.54768 0
M  V30 427 C 39.3806 -0.595275 2.20092 0
M  V30 428 C 40.3646 -1.10163 1.17273 0
M  V30 429 O 41.5566 -1.043 1.43006 0
M  V30 430 C 38.6856 -1.7684 2.94249 0
M  V30 431 C 37.7716 -1.27818 4.0438 0
M  V30 432 N 38.1626 -0.505695 5.03266 0
M  V30 433 C 36.4606 -1.55923 4.17857 0
M  V30 434 C 37.1616 -0.245094 5.81183 0
M  V30 435 N 36.1376 -0.823881 5.3732 0
M  V30 436 H 39.9396 0.00250837 2.939 0
M  V30 437 H 37.4536 0.102007 1.62079 0
M  V30 438 H 39.4506 -2.41944 3.39513 0
M  V30 439 H 38.1106 -2.36992 2.21957 0
M  V30 440 H 39.1216 -0.150928 5.1768 0
M  V30 441 H 35.7986 -2.16849 3.56767 0
M  V30 442 H 37.1886 0.375084 6.70852 0
M  V30 443 N 39.9087 -1.5758 0.0250728 0
M  V30 444 C 41.1337 -1.96337 -0.668317 0
M  V30 445 C 41.5587 -0.901314 -1.651 0
M  V30 446 O 40.9167 0.138187 -1.80773 0
M  V30 447 C 40.9647 -3.34191 -1.35457 0
M  V30 448 O 40.0687 -3.30269 -2.46974 0
M  V30 449 H 39.4097 -0.640281 -0.175887 0
M  V30 450 H 41.9397 -2.0442 0.0857224 0
M  V30 451 H 41.9497 -3.70331 -1.71228 0
M  V30 452 H 40.6247 -4.11036 -0.634218 0
M  V30 453 H 39.2017 -3.05841 -2.13344 0
M  V30 454 N 41.3868 0.248026 -1.55636 0
M  V30 455 C 42.6348 0.974295 -1.77065 0
M  V30 456 C 42.9558 1.85897 -0.588849 0
M  V30 457 O 42.2258 1.91868 0.395407 0
M  V30 458 H 40.8058 0.362733 -0.653019 0
M  V30 459 H 43.4678 0.266244 -1.93073 0
M  V30 460 H 42.5638 1.59667 -2.68166 0
M  V30 461 N 42.8649 1.48995 0.513639 0
M  V30 462 C 43.8279 1.64229 1.59879 0
M  V30 463 C 44.8279 0.514696 1.5234 0
M  V30 464 O 46.0179 0.78087 1.55718 0
M  V30 465 C 43.1499 1.62783 2.99524 0
M  V30 466 H 44.3429 2.61004 1.47705 0
M  V30 467 H 41.8959 1.37837 0.736936 0
M  V30 468 H 42.6309 0.675461 3.17188 0
M  V30 469 H 42.4159 2.4466 3.06404 0
M  V30 470 H 43.9059 1.76669 3.78388 0
M  V30 471 N 44.343 -0.763751 1.37857 0
M  V30 472 C 45.291 -1.89864 1.34367 0
M  V30 473 C 46.285 -1.67816 0.231143 0
M  V30 474 O 47.491 -1.75508 0.399617 0
M  V30 475 H 43.866 -0.624501 0.41893 0
M  V30 476 H 45.837 -1.89925 2.30155 0
M  V30 477 C 44.586 -3.27227 1.1755 0
M  V30 478 H 43.909 -3.44773 2.02414 0
M  V30 479 H 45.349 -4.06911 1.1916 0
M  V30 480 C 43.808 -3.36692 -0.118311 0
M  V30 481 O 44.338 -3.86374 -1.09902 0
M  V30 482 N 42.544 -2.90092 -0.171717 0
M  V30 483 H 42.091 -2.49853 0.627012 0
M  V30 484 H 42.049 -2.96806 -1.03699 0
M  V30 485 N 45.8211 -1.22559 -0.990812 0
M  V30 486 C 47.0491 -1.07779 -1.76611 0
M  V30 487 C 47.4641 0.371513 -1.85109 0
M  V30 488 O 46.8211 1.25737 -1.32274 0
M  V30 489 C 46.8721 -1.68512 -3.19822 0
M  V30 490 O 46.5931 -3.07774 -3.1178 0
M  V30 491 C 48.0941 -1.59035 -4.13791 0
M  V30 492 H 45.3141 -0.377729 -0.554583 0
M  V30 493 H 47.8581 -1.62195 -1.24551 0
M  V30 494 H 46.0131 -1.18154 -3.68942 0
M  V30 495 H 46.4271 -3.37062 -4.01858 0
M  V30 496 H 47.9011 -2.0625 -5.1202 0
M  V30 497 H 48.3781 -0.547273 -4.35777 0
M  V30 498 H 48.9841 -2.08709 -3.70568 0
M  V30 499 N 47.2992 1.18797 -1.03562 0
M  V30 500 C 48.5392 1.90346 -0.744832 0
M  V30 501 C 48.9032 1.78231 0.713972 0
M  V30 502 O 50.1042 2.44441 1.11813 0
M  V30 503 C 48.3752 3.36942 -1.19184 0
M  V30 504 S 49.9342 4.26638 -1.02593 0
M  V30 505 H 46.7522 0.657343 -0.270963 0
M  V30 506 H 49.3542 1.43579 -1.32685 0
M  V30 507 H 48.0582 3.43287 -2.24905 0
M  V30 508 H 47.5892 3.88745 -0.603397 0
M  V30 509 H 49.6042 4.96164 0.0596033 0
M  V30 510 N 48.7773 0.814389 1.34928 0
M  V30 511 C 50.0233 0.399013 1.98836 0
M  V30 512 C 50.3563 -1.03314 1.64438 0
M  V30 513 O 49.6313 -1.71811 0.911659 0
M  V30 514 C 49.9143 0.591629 3.55207 0
M  V30 515 C 49.7673 2.06928 3.99376 0
M  V30 516 C 51.0863 0.022199 4.40094 0
M  V30 517 H 48.2053 0.146451 0.722303 0
M  V30 518 H 50.8473 1.02537 1.59957 0
M  V30 519 H 48.9973 0.0584441 3.88456 0
M  V30 520 H 50.6693 2.66544 3.76499 0
M  V30 521 H 48.9123 2.56287 3.49999 0
M  V30 522 H 49.5833 2.1549 5.08201 0
M  V30 523 H 52.0593 0.477643 4.13349 0
M  V30 524 H 50.9353 0.186832 5.48582 0
M  V30 525 H 51.1963 -1.07215 4.28902 0
M  V30 526 N 50.2554 -1.46986 0.568584 0
M  V30 527 C 51.6664 -1.86188 0.138219 0
M  V30 528 C 52.0174 -1.47388 -1.29504 0
M  V30 529 O 51.1424 -0.88219 -1.97602 0
M  V30 530 C 51.7374 -3.3792 0.244065 0
M  V30 531 C 50.2964 -3.76171 -0.131335 0
M  V30 532 C 49.4434 -2.71027 0.586465 0
M  V30 533 H 52.3944 -1.38342 0.777645 0
M  V30 534 H 52.4154 -3.76729 -0.534351 0
M  V30 535 H 51.9274 -3.66128 1.28731 0
M  V30 536 H 50.0284 -3.5358 -1.17526 0
M  V30 537 H 50.1414 -4.78523 0.235146 0
M  V30 538 H 48.5054 -2.54684 0.0282722 0
M  V30 539 H 49.2884 -3.02077 1.63109 0
M  V30 540 N 51.7335 -0.305618 -1.54608 0
M  V30 541 C 52.9585 0.307562 -2.05107 0
M  V30 542 C 53.3835 1.46385 -1.18123 0
M  V30 543 O 52.7415 1.8034 -0.186324 0
M  V30 544 C 52.7895 0.73704 -3.52987 0
M  V30 545 O 51.8935 1.84134 -3.6901 0
M  V30 546 H 51.2345 0.0589143 -0.661381 0
M  V30 547 H 53.7645 -0.448807 -1.99617 0
M  V30 548 H 53.7745 1.02459 -3.94925 0
M  V30 549 H 52.4495 -0.108773 -4.15758 0
M  V30 550 H 51.0265 1.55398 -3.38978 0
M  V30 551 N 53.2116 1.57565 -0.0334293 0
M  V30 552 C 54.4576 1.92262 0.645226 0
M  V30 553 C 54.7906 0.910543 1.71531 0
M  V30 554 O 54.0656 -0.066099 1.94388 0
M  V30 555 C 54.3486 3.37422 1.2577 0
M  V30 556 C 54.2016 4.49369 0.196891 0
M  V30 557 C 55.5206 3.82628 2.17449 0
M  V30 558 H 52.6396 0.699171 0.233085 0
M  V30 559 H 55.2816 1.89779 -0.0915694 0
M  V30 560 H 53.4316 3.39669 1.88566 0
M  V30 561 H 55.1036 4.59254 -0.433962 0
M  V30 562 H 53.3466 4.31168 -0.477137 0
M  V30 563 H 54.0176 5.47978 0.665124 0
M  V30 564 H 56.4936 3.82145 1.64634 0
M  V30 565 H 55.3696 4.84883 2.57254 0
M  V30 566 H 55.6306 3.18376 3.0674 0
M  V30 567 N 54.6897 -0.239769 1.55765 0
M  V30 568 C 55.9147 -0.988373 1.82335 0
M  V30 569 C 56.3397 -1.77886 0.611421 0
M  V30 570 O 55.6977 -1.75889 -0.439639 0
M  V30 571 C 55.7457 -1.89627 3.06715 0
M  V30 572 O 54.8497 -2.98904 2.84131 0
M  V30 573 H 54.1907 -0.280858 0.601677 0
M  V30 574 H 56.7207 -0.258597 2.02959 0
M  V30 575 H 56.7307 -2.30957 3.36338 0
M  V30 576 H 55.4057 -1.31511 3.9456 0
M  V30 577 H 53.9827 -2.61651 2.65694 0
M  V30 578 N 56.1678 -1.49265 -0.50573 0
M  V30 579 C 57.3928 -1.62478 -1.28902 0
M  V30 580 C 57.8178 -0.294332 -1.85783 0
M  V30 581 O 57.1758 0.737412 -1.65626 0
M  V30 582 C 57.2238 -2.69268 -2.39848 0
M  V30 583 O 56.3278 -2.28113 -3.43567 0
M  V30 584 H 55.6688 -0.54399 -0.380751 0
M  V30 585 H 58.1988 -1.95421 -0.605952 0
M  V30 586 H 58.2088 -2.91291 -2.85681 0
M  V30 587 H 56.8838 -3.65846 -1.97812 0
M  V30 588 H 55.4608 -2.16401 -3.03685 0
M  V30 589 N 57.6459 0.756429 -1.3826 0
M  V30 590 C 58.5929 1.87011 -1.35261 0
M  V30 591 C 59.5629 1.64695 -0.215616 0
M  V30 592 O 60.7479 1.864 -0.407399 0
M  V30 593 C 57.8879 3.24275 -1.18068 0
M  V30 594 C 57.0009 3.58442 -2.41129 0
M  V30 595 C 56.1359 4.84994 -2.16689 0
M  V30 596 C 55.1749 5.11939 -3.35537 0
M  V30 597 N 54.3119 6.29685 -3.10549 0
M  V30 598 H 59.1519 1.8891 -2.30472 0
M  V30 599 H 56.6889 0.923373 -1.14509 0
M  V30 600 H 58.6469 4.03479 -1.06116 0
M  V30 601 H 57.2769 3.21711 -0.264973 0
M  V30 602 H 56.3289 2.74103 -2.63764 0
M  V30 603 H 57.6409 3.74283 -3.29717 0
M  V30 604 H 56.7949 5.72135 -2.01857 0
M  V30 605 H 55.5339 4.71286 -1.25462 0
M  V30 606 H 54.5389 4.23268 -3.50891 0
M  V30 607 H 55.7639 5.27546 -4.27635 0
M  V30 608 H 53.7099 6.17306 -2.21967 0
M  V30 609 H 53.6269 6.46014 -3.92686 0
M  V30 610 H 54.8949 7.19722 -2.99367 0
M  V30 611 N 59.124 1.23083 0.984299 0
M  V30 612 C 60.372 1.05848 1.72165 0
M  V30 613 C 60.693 -0.406049 1.90726 0
M  V30 614 O 59.963 -1.29139 1.47309 0
M  V30 615 H 58.543 0.388685 0.637913 0
M  V30 616 H 61.205 1.54736 1.18503 0
M  V30 617 H 60.301 1.54327 2.71274 0
M  V30 618 N 60.6021 -1.18246 1.0419 0
M  V30 619 C 61.8511 -1.87588 0.741194 0
M  V30 620 C 62.1641 -1.81303 -0.734066 0
M  V30 621 O 63.3701 -2.46019 -1.14834 0
M  V30 622 C 61.8261 -3.36538 1.27555 0
M  V30 623 C 61.4341 -3.51349 2.77953 0
M  V30 624 C 63.1781 -4.11273 1.05143 0
M  V30 625 C 61.0851 -4.94265 3.2474 0
M  V30 626 H 60.0151 -0.702622 0.273565 0
M  V30 627 H 62.6661 -1.33601 1.25789 0
M  V30 628 H 61.0481 -3.9 0.686703 0
M  V30 629 H 62.2221 -3.08153 3.42605 0
M  V30 630 H 60.5371 -2.90022 2.98791 0
M  V30 631 H 63.1341 -5.16689 1.37611 0
M  V30 632 H 63.4771 -4.16298 -0.0112774 0
M  V30 633 H 64.0101 -3.63987 1.60495 0
M  V30 634 H 60.7491 -4.94408 4.30396 0
M  V30 635 H 60.2691 -5.38172 2.64823 0
M  V30 636 H 61.9481 -5.62987 3.18834 0
M  V30 637 N 62.0802 -0.821533 -1.34494 0
M  V30 638 C 63.0132 -0.187704 -2.27427 0
M  V30 639 C 63.9912 0.65507 -1.48821 0
M  V30 640 O 65.1752 0.619111 -1.78043 0
M  V30 641 C 62.3022 0.737996 -3.30562 0
M  V30 642 C 61.3482 -0.0270713 -4.26491 0
M  V30 643 S 62.1812 -1.37329 -5.17592 0
M  V30 644 C 63.3372 -0.452427 -6.24263 0
M  V30 645 H 63.5702 -0.975598 -2.80837 0
M  V30 646 H 61.1032 -0.61736 -1.4152 0
M  V30 647 H 63.0612 1.26654 -3.90473 0
M  V30 648 H 61.7222 1.4994 -2.76001 0
M  V30 649 H 60.9152 0.6766 -4.99438 0
M  V30 650 H 60.5172 -0.48612 -3.70827 0
M  V30 651 H 62.8092 0.356557 -6.76561 0
M  V30 652 H 63.7522 -1.15153 -6.98674 0
M  V30 653 H 64.1602 -0.0414755 -5.64485 0
M  V30 654 N 63.5583 1.46682 -0.576371 0
M  V30 655 C 64.4683 2.34032 0.163141 0
M  V30 656 C 65.4843 1.49367 0.892501 0
M  V30 657 O 66.6603 1.82252 0.857106 0
M  V30 658 C 63.7253 3.26435 1.16795 0
M  V30 659 C 62.7863 4.26998 0.443944 0
M  V30 660 C 62.0193 5.14986 1.40088 0
M  V30 661 O 62.2423 5.05785 2.637 0
M  V30 662 O 61.1763 5.94906 0.914917 0
M  V30 663 H 65.0023 2.98607 -0.55388 0
M  V30 664 H 62.5873 1.45554 -0.336821 0
M  V30 665 H 64.4693 3.83459 1.74748 0
M  V30 666 H 63.1443 2.64465 1.86655 0
M  V30 667 H 62.0513 3.7368 -0.177271 0
M  V30 668 H 63.3843 4.91736 -0.213566 0
M  V30 669 N 65.0364 0.313813 1.54444 0
M  V30 670 C 65.9464 -0.565714 2.27677 0
M  V30 671 C 66.9624 -1.13754 1.31666 0
M  V30 672 O 68.1384 -1.15959 1.64668 0
M  V30 673 C 65.2034 -1.71528 3.01296 0
M  V30 674 C 64.2644 -1.17624 4.12872 0
M  V30 675 C 63.4974 -2.27102 4.8297 0
M  V30 676 O 63.7204 -3.47256 4.52514 0
M  V30 677 O 62.6544 -1.9307 5.70094 0
M  V30 678 H 66.4804 0.0287296 3.03686 0
M  V30 679 H 64.0654 0.0798312 1.49187 0
M  V30 680 H 65.9474 -2.38476 3.4743 0
M  V30 681 H 64.6224 -2.29608 2.2817 0
M  V30 682 H 63.5294 -0.472124 3.71109 0
M  V30 683 H 64.8624 -0.640695 4.88012 0
M  V30 684 N 66.5145 -1.57545 0.0417849 0
M  V30 685 C 67.7915 -1.83642 -0.673433 0
M  V30 686 C 68.1715 -0.928298 -1.89594 0
M  V30 687 O 67.5195 0.0129955 -2.28496 0
M  V30 688 C 67.7295 -3.33155 -1.03964 0
M  V30 689 C 69.0775 -3.99941 -1.42592 0
M  V30 690 O 70.1015 -3.37725 -1.13226 0
M  V30 691 O 68.9605 -5.09619 -1.9736 0
M  V30 692 H 66.0545 -0.757638 -0.331533 0
M  V30 693 H 68.6005 -1.69554 0.070433 0
M  V30 694 H 67.3725 -3.9093 -0.170098 0
M  V30 695 H 66.9955 -3.52396 -1.84126 0
M  V30 696 N 67.9926 0.231505 -1.5589 0
M  V30 697 C 68.9026 1.308 -1.94752 0
M  V30 698 C 69.9186 1.51826 -0.849989 0
M  V30 699 O 71.0946 1.6515 -1.15271 0
M  V30 700 C 68.1596 2.63968 -2.24771 0
M  V30 701 C 67.2206 2.51331 -3.48039 0
M  V30 702 C 66.4536 3.78148 -3.76616 0
M  V30 703 O 66.6766 4.80722 -3.07022 0
M  V30 704 O 65.6106 3.75857 -4.70123 0
M  V30 705 H 69.4366 1.0083 -2.86474 0
M  V30 706 H 67.0216 0.433547 -1.42971 0
M  V30 707 H 68.9036 3.42633 -2.45318 0
M  V30 708 H 67.5786 2.9364 -1.36225 0
M  V30 709 H 66.4856 1.709 -3.32782 0
M  V30 710 H 67.8186 2.26601 -4.36936 0
M  V30 711 N 69.4707 1.49531 0.497807 0
M  V30 712 C 70.4337 1.65916 1.58128 0
M  V30 713 C 71.4337 0.530825 1.51786 0
M  V30 714 O 72.6237 0.797342 1.54881 0
M  V30 715 C 69.7557 1.65951 2.9778 0
M  V30 716 H 70.9487 2.62556 1.44929 0
M  V30 717 H 68.5017 1.38611 0.722275 0
M  V30 718 H 69.2367 0.709065 3.16453 0
M  V30 719 H 69.0217 2.47897 3.03792 0
M  V30 720 H 70.5117 1.80673 3.76493 0
M  V30 721 N 70.9488 -0.749086 1.3866 0
M  V30 722 C 72.1888 -1.52112 1.36534 0
M  V30 723 C 72.5528 -1.91951 -0.0432316 0
M  V30 724 O 73.7538 -2.68132 -0.189396 0
M  V30 725 C 72.0248 -2.73704 2.29828 0
M  V30 726 S 73.5838 -3.63519 2.45763 0
M  V30 727 H 70.4018 -0.520482 0.484375 0
M  V30 728 H 73.0038 -0.878963 1.74627 0
M  V30 729 H 71.7078 -2.42552 3.31054 0
M  V30 730 H 71.2388 -3.4286 1.929 0
M  V30 731 H 73.2538 -4.66712 1.68505 0
M  V30 732 N 72.4269 -1.23603 -0.977757 0
M  V30 733 C 73.6749 -1.06759 -1.71601 0
M  V30 734 C 73.9959 0.395929 -1.90938 0
M  V30 735 O 73.2659 1.28356 -1.47992 0
M  V30 736 H 71.8459 -0.392062 -0.635843 0
M  V30 737 H 74.5079 -1.55362 -1.1768 0
M  V30 738 H 73.6039 -1.55763 -2.70452 0
M  V30 739 N 73.905 1.17692 -1.04816 0
M  V30 740 C 75.321 1.39863 -0.768794 0
M  V30 741 C 75.521 1.91118 0.638451 0
M  V30 742 O 74.577 2.10036 1.40146 0
M  V30 743 C 75.89 2.39274 -1.82122 0
M  V30 744 C 77.438 2.52987 -1.843 0
M  V30 745 C 77.913 3.55669 -2.88555 0
M  V30 746 N 79.404 3.63183 -2.87493 0
M  V30 747 C 80.139 4.42381 -3.64811 0
M  V30 748 N 79.635 5.25125 -4.51903 0
M  V30 749 N 81.428 4.37217 -3.53267 0
M  V30 750 H 73.579 0.82752 -1.95617 0
M  V30 751 H 75.842 0.426123 -0.846831 0
M  V30 752 H 75.548 2.08678 -2.83102 0
M  V30 753 H 75.422 3.38725 -1.65967 0
M  V30 754 H 77.809 2.82896 -0.839869 0
M  V30 755 H 77.89 1.53623 -2.04532 0
M  V30 756 H 77.534 3.26499 -3.89051 0
M  V30 757 H 77.464 4.54728 -2.65575 0
M  V30 758 H 79.955 3.04103 -2.24343 0
M  V30 759 H 80.268 5.82728 -5.07591 0
M  V30 760 H 78.613 5.24519 -4.55966 0
M  V30 761 H 81.804 3.71626 -2.84625 0
M  V30 762 H 81.977 4.98696 -4.13771 0
M  V30 763 N 75.3831 0.828654 1.34056 0
M  V30 764 C 76.3151 0.212052 2.28217 0
M  V30 765 C 77.3281 -0.601362 1.51286 0
M  V30 766 O 78.5171 -0.430104 1.73241 0
M  V30 767 C 75.6171 -0.72088 3.31144 0
M  V30 768 C 74.7901 0.0509587 4.3737 0
M  V30 769 C 73.8491 -0.803766 5.20025 0
M  V30 770 O 72.8751 -0.246667 5.68665 0
M  V30 771 N 74.0771 -2.1227 5.40298 0
M  V30 772 H 76.8421 1.02105 2.81771 0
M  V30 773 H 74.4031 0.686153 1.46641 0
M  V30 774 H 76.3951 -1.29742 3.8334 0
M  V30 775 H 74.9651 -1.43061 2.77943 0
M  V30 776 H 74.1851 0.808831 3.85813 0
M  V30 777 H 75.4731 0.582065 5.0546 0
M  V30 778 H 74.8711 -2.59898 5.02464 0
M  V30 779 H 73.4281 -2.64796 5.95589 0
M  V30 780 N 76.8612 -1.46375 0.584142 0
M  V30 781 C 78.0912 -2.06461 0.0758195 0
M  V30 782 C 78.4992 -1.43322 -1.23512 0
M  V30 783 O 77.8422 -0.533216 -1.75791 0
M  V30 784 C 77.9042 -3.59131 -0.162773 0
M  V30 785 C 77.5682 -4.4447 1.06279 0
M  V30 786 C 78.5652 -4.80918 1.97519 0
M  V30 787 C 76.2502 -4.85584 1.28504 0
M  V30 788 C 78.2442 -5.57309 3.09331 0
M  V30 789 C 75.9312 -5.61734 2.4062 0
M  V30 790 C 76.9292 -5.9751 3.30863 0
M  V30 791 O 76.6172 -6.72121 4.41032 0
M  V30 792 H 76.3492 -0.673745 0.0551725 0
M  V30 793 H 78.9032 -1.88969 0.804984 0
M  V30 794 H 77.1332 -3.74936 -0.946565 0
M  V30 795 H 78.8222 -4.0114 -0.619782 0
M  V30 796 H 79.5882 -4.49732 1.81565 0
M  V30 797 H 75.4672 -4.57187 0.591702 0
M  V30 798 H 79.0112 -5.85152 3.79793 0
M  V30 799 H 74.9082 -5.92334 2.56537 0
M  V30 800 H 75.6762 -6.90547 4.39417 0
M  V30 801 N 78.3393 -0.321999 -1.54275 0
M  V30 802 C 79.5673 0.283052 -2.04955 0
M  V30 803 C 79.9823 1.45904 -1.19823 0
M  V30 804 O 79.3393 1.81063 -0.228545 0
M  V30 805 C 79.3903 0.719028 -3.54277 0
M  V30 806 O 79.1113 -0.410175 -4.36176 0
M  V30 807 C 80.6123 1.38705 -4.21041 0
M  V30 808 H 77.8323 0.0584616 -0.668448 0
M  V30 809 H 80.3763 -0.467734 -1.99079 0
M  V30 810 H 78.5313 1.41979 -3.60445 0
M  V30 811 H 78.9453 -0.0669416 -5.24457 0
M  V30 812 H 80.4193 1.64306 -5.2698 0
M  V30 813 H 80.8963 2.33385 -3.72059 0
M  V30 814 H 81.5023 0.728906 -4.19007 0
M  V30 815 N 79.8174 1.5752 -0.0501392 0
M  V30 816 C 80.7474 2.14502 0.922566 0
M  V30 817 C 81.7284 1.06642 1.3252 0
M  V30 818 O 82.9134 1.34577 1.4001 0
M  V30 819 C 80.0434 2.68916 2.19776 0
M  V30 820 C 78.9974 3.8175 1.93523 0
M  V30 821 C 78.3234 4.22677 3.27487 0
M  V30 822 C 79.6234 5.06932 1.25765 0
M  V30 823 H 81.3174 2.9603 0.447952 0
M  V30 824 H 78.8634 1.42401 0.214024 0
M  V30 825 H 80.8164 3.07419 2.88222 0
M  V30 826 H 79.5404 1.84578 2.69441 0
M  V30 827 H 78.1994 3.43718 1.27489 0
M  V30 828 H 77.8474 3.35291 3.74952 0
M  V30 829 H 77.5474 4.98725 3.1072 0
M  V30 830 H 79.0714 4.63779 3.97166 0
M  V30 831 H 80.4854 5.42888 1.84244 0
M  V30 832 H 78.8824 5.88116 1.19328 0
M  V30 833 H 79.9524 4.84337 0.233536 0
M  V30 834 N 81.2955 -0.223234 1.56011 0
M  V30 835 C 82.2425 -1.27664 1.92277 0
M  V30 836 C 83.2125 -1.46659 0.779763 0
M  V30 837 O 84.3975 -1.60256 1.03551 0
M  V30 838 C 81.5375 -2.62234 2.24338 0
M  V30 839 C 80.6505 -2.51051 3.51564 0
M  V30 840 C 79.7855 -3.78133 3.7308 0
M  V30 841 C 78.8245 -3.61665 4.93827 0
M  V30 842 N 77.9615 -4.80693 5.11741 0
M  V30 843 H 82.8015 -0.960358 2.82101 0
M  V30 844 H 80.3385 -0.462901 1.39627 0
M  V30 845 H 82.2965 -3.40596 2.40936 0
M  V30 846 H 80.9265 -2.91961 1.3769 0
M  V30 847 H 79.9785 -1.64132 3.43169 0
M  V30 848 H 81.2905 -2.34803 4.40079 0
M  V30 849 H 80.4445 -4.64938 3.89766 0
M  V30 850 H 79.1835 -3.97304 2.82844 0
M  V30 851 H 78.1885 -2.73244 4.77093 0
M  V30 852 H 79.4135 -3.43966 5.85546 0
M  V30 853 H 77.3595 -5.00181 4.24446 0
M  V30 854 H 77.2765 -4.67165 5.94384 0
M  V30 855 H 78.5445 -5.6893 5.3286 0
M  V30 856 N 82.7736 -1.49793 -0.48987 0
M  V30 857 C 83.7206 -1.67281 -1.59014 0
M  V30 858 C 84.6906 -0.514177 -1.57941 0
M  V30 859 O 85.8756 -0.742533 -1.75759 0
M  V30 860 C 83.0156 -1.75569 -2.97102 0
M  V30 861 C 82.1286 -3.0281 -3.08107 0
M  V30 862 C 81.2636 -3.02008 -4.36995 0
M  V30 863 C 80.3026 -4.23782 -4.41673 0
M  V30 864 N 79.4396 -4.20826 -5.62005 0
M  V30 865 H 84.2796 -2.61224 -1.43409 0
M  V30 866 H 81.8166 -1.29508 -0.697565 0
M  V30 867 H 83.7746 -1.78354 -3.77155 0
M  V30 868 H 82.4046 -0.850827 -3.11385 0
M  V30 869 H 81.4566 -3.09584 -2.21047 0
M  V30 870 H 82.7686 -3.92801 -3.07423 0
M  V30 871 H 81.9226 -3.03418 -5.25378 0
M  V30 872 H 80.6616 -2.09815 -4.4026 0
M  V30 873 H 79.6666 -4.22604 -3.5169 0
M  V30 874 H 80.8916 -5.17181 -4.40115 0
M  V30 875 H 78.8376 -3.31476 -5.66091 0
M  V30 876 H 78.7546 -5.04564 -5.62984 0
M  V30 877 H 80.0226 -4.26355 -6.52565 0
M  V30 878 N 84.2517 0.741722 -1.39055 0
M  V30 879 C 85.4797 1.53098 -1.39171 0
M  V30 880 C 85.8947 1.88794 0.0155099 0
M  V30 881 O 85.2517 1.53626 0.985159 0
M  V30 882 C 85.3027 2.82274 -2.2584 0
M  V30 883 O 85.0237 2.48097 -3.61081 0
M  V30 884 C 86.5247 3.76343 -2.34266 0
M  V30 885 H 83.7447 0.473335 -0.4756 0
M  V30 886 H 86.2887 0.917045 -1.82785 0
M  V30 887 H 84.4437 3.40015 -1.85656 0
M  V30 888 H 84.8577 3.31029 -4.06842 0
M  V30 889 H 86.3317 4.63898 -2.9917 0
M  V30 890 H 86.8087 4.17619 -1.35982 0
M  V30 891 H 87.4147 3.24523 -2.74891 0
M  V30 892 N 85.7298 1.2412 0.971189 0
M  V30 893 C 86.9578 1.10575 1.74874 0
M  V30 894 C 87.3728 -0.342017 1.85676 0
M  V30 895 O 86.7298 -1.23617 1.34258 0
M  V30 896 C 86.7808 1.73579 3.171 0
M  V30 897 O 86.5018 3.12695 3.06844 0
M  V30 898 C 88.0028 1.65598 4.11208 0
M  V30 899 H 85.2228 0.386504 0.548503 0
M  V30 900 H 87.7668 1.64156 1.21955 0
M  V30 901 H 85.9218 1.24009 3.67016 0
M  V30 902 H 86.3358 3.43412 3.96445 0
M  V30 903 H 87.8098 2.1437 5.08674 0
M  V30 904 H 88.2868 0.616532 4.34851 0
M  V30 905 H 88.8928 2.14578 3.67201 0
M  V30 906 N 87.2079 -1.17134 1.05439 0
M  V30 907 C 88.4359 -1.91372 0.786414 0
M  V30 908 C 88.8509 -1.76955 -0.658202 0
M  V30 909 O 88.2079 -1.10838 -1.44987 0
M  V30 910 C 88.2589 -3.42356 1.1608 0
M  V30 911 O 87.9799 -3.56332 2.54871 0
M  V30 912 C 89.4809 -4.33663 0.919322 0
M  V30 913 H 86.7009 -0.607118 0.285743 0
M  V30 914 H 89.2449 -1.48525 1.40572 0
M  V30 915 H 87.3999 -3.82939 0.586191 0
M  V30 916 H 87.8139 -4.49896 2.69618 0
M  V30 917 H 89.2879 -5.38099 1.231 0
M  V30 918 H 89.7649 -4.38959 -0.145359 0
M  V30 919 H 90.3709 -3.98796 1.47789 0
M  V30 920 N 88.686 -0.835752 -1.33615 0
M  V30 921 C 89.916 -0.442701 -2.01801 0
M  V30 922 C 90.324 0.959807 -1.63047 0
M  V30 923 O 89.667 1.63468 -0.838088 0
M  V30 924 C 89.729 -0.480125 -3.56279 0
M  V30 925 C 89.393 -1.8382 -4.18401 0
M  V30 926 C 90.39 -2.80097 -4.37998 0
M  V30 927 C 88.075 -2.13019 -4.54894 0
M  V30 928 C 90.069 -4.03736 -4.9323 0
M  V30 929 C 87.756 -3.36916 -5.09834 0
M  V30 930 C 88.754 -4.32091 -5.28948 0
M  V30 931 O 88.442 -5.53797 -5.82721 0
M  V30 932 H 88.174 -0.17441 -0.653114 0
M  V30 933 H 90.728 -1.129 -1.71589 0
M  V30 934 H 88.958 0.262931 -3.85805 0
M  V30 935 H 90.647 -0.105335 -4.05763 0
M  V30 936 H 91.413 -2.58838 -4.10156 0
M  V30 937 H 87.292 -1.39733 -4.39313 0
M  V30 938 H 90.836 -4.78034 -5.08064 0
M  V30 939 H 86.733 -3.58033 -5.37106 0
M  V30 940 H 87.501 -5.55494 -6.0114 0
M  V30 941 N 90.1641 1.46063 -0.591896 0
M  V30 942 C 91.3921 2.06717 -0.0868936 0
M  V30 943 C 91.8071 1.43916 1.22203 0
M  V30 944 O 91.1641 0.547698 1.74088 0
M  V30 945 C 91.2151 3.6142 0.0758725 0
M  V30 946 O 90.9361 4.21874 -1.18126 0
M  V30 947 C 92.4371 4.39025 0.61416 0
M  V30 948 H 89.6571 0.668162 -0.0616518 0
M  V30 949 H 92.2011 1.8755 -0.815175 0
M  V30 950 H 90.3561 3.79983 0.754413 0
M  V30 951 H 90.7701 5.14861 -1.00092 0
M  V30 952 H 92.2441 5.4783 0.677193 0
M  V30 953 H 92.7211 4.07708 1.63312 0
M  V30 954 H 93.3271 4.2529 -0.0298142 0
M  V30 955 N 91.6422 0.330177 1.54103 0
M  V30 956 C 92.5742 -0.566902 2.22079 0
M  V30 957 C 93.5872 -1.07462 1.22294 0
M  V30 958 O 94.7762 -0.987065 1.48726 0
M  V30 959 C 91.8762 -1.79138 2.87685 0
M  V30 960 C 91.0492 -1.42123 4.13666 0
M  V30 961 C 90.1082 -2.50394 4.62806 0
M  V30 962 O 89.1342 -2.14261 5.27334 0
M  V30 963 N 90.3362 -3.81433 4.37595 0
M  V30 964 H 93.1012 0.0151844 2.99696 0
M  V30 965 H 90.6622 0.153681 1.61169 0
M  V30 966 H 92.6542 -2.50975 3.1748 0
M  V30 967 H 91.2242 -2.28115 2.13734 0
M  V30 968 H 90.4442 -0.534201 3.90564 0
M  V30 969 H 91.7322 -1.14971 4.9564 0
M  V30 970 H 91.1302 -4.13584 3.8596 0
M  V30 971 H 89.6872 -4.4948 4.72029 0
M  V30 972 N 93.1203 -1.57491 0.0584922 0
M  V30 973 C 94.3683 -1.92597 -0.612436 0
M  V30 974 C 94.6893 -0.938162 -1.70949 0
M  V30 975 O 93.9593 0.0158301 -1.95894 0
M  V30 976 H 92.5393 -0.710964 -0.229214 0
M  V30 977 H 95.2013 -1.94571 0.113218 0
M  V30 978 H 94.2973 -2.94038 -1.04633 0
M  V30 979 N 94.5984 0.214957 -1.56127 0
M  V30 980 C 95.8444 0.939762 -1.79712 0
M  V30 981 C 96.1774 1.83723 -0.629247 0
M  V30 982 O 95.4524 1.90925 0.371197 0
M  V30 983 C 95.7354 1.77306 -3.13424 0
M  V30 984 C 95.5884 0.90164 -4.40671 0
M  V30 985 C 96.9074 2.74956 -3.43638 0
M  V30 986 H 94.0264 0.340214 -0.653776 0
M  V30 987 H 96.6684 0.20824 -1.88855 0
M  V30 988 H 94.8184 2.39673 -3.0576 0
M  V30 989 H 96.4904 0.294206 -4.60361 0
M  V30 990 H 94.7334 0.207368 -4.33304 0
M  V30 991 H 95.4044 1.51923 -5.30682 0
M  V30 992 H 97.8804 2.22724 -3.51473 0
M  V30 993 H 96.7564 3.30358 -4.38355 0
M  V30 994 H 97.0174 3.53023 -2.66134 0
M  V30 995 N 96.0765 1.50051 0.48192 0
M  V30 996 C 97.4875 1.5348 1.06305 0
M  V30 997 C 97.8385 0.331997 1.93371 0
M  V30 998 O 96.9635 -0.556256 2.09129 0
M  V30 999 C 97.5585 2.7813 1.93466 0
M  V30 1000 C 96.1175 2.84275 2.46707 0
M  V30 1001 C 95.2645 2.47637 1.24785 0
M  V30 1002 H 98.2155 1.56472 0.264995 0
M  V30 1003 H 98.2365 2.59372 2.78399 0
M  V30 1004 H 97.7485 3.65654 1.30072 0
M  V30 1005 H 95.8495 2.01077 3.13686 0
M  V30 1006 H 95.9625 3.8691 2.82555 0
M  V30 1007 H 94.3265 1.99835 1.57918 0
M  V30 1008 H 95.1095 3.37457 0.630694 0
M  V30 1009 N 97.5546 -0.734337 1.39446 0
M  V30 1010 C 98.9656 -1.31264 1.32766 0
M  V30 1011 C 99.3166 -1.96198 -0.00767497 0
M  V30 1012 O 98.4416 -1.96346 -0.909796 0
M  V30 1013 C 99.0366 -2.38682 2.4045 0
M  V30 1014 C 97.5956 -2.92184 2.37288 0
M  V30 1015 C 96.7426 -1.6576 2.22304 0
M  V30 1016 H 99.6936 -0.531799 1.49525 0
M  V30 1017 H 99.7146 -3.19087 2.07276 0
M  V30 1018 H 99.2266 -1.91392 3.37625 0
M  V30 1019 H 97.3276 -3.43752 1.43754 0
M  V30 1020 H 97.4406 -3.45253 3.3217 0
M  V30 1021 H 95.8046 -1.9012 1.69489 0
M  V30 1022 H 96.5876 -1.20521 3.21449 0
M  V30 1023 N 99.0327 -1.24633 -0.964593 0
M  V30 1024 C 100.258 -1.11596 -1.74818 0
M  V30 1025 C 100.683 0.32723 -1.85232 0
M  V30 1026 O 100.041 1.23695 -1.32549 0
M  V30 1027 C 100.089 -1.76397 -3.1451 0
M  V30 1028 O 99.1927 -1.03685 -3.99153 0
M  V30 1029 H 98.5337 -0.390196 -0.537255 0
M  V30 1030 H 101.064 -1.65002 -1.20977 0
M  V30 1031 H 101.074 -1.8228 -3.65018 0
M  V30 1032 H 99.7487 -2.81401 -3.06246 0
M  V30 1033 H 98.3257 -1.05611 -3.57632 0
M  V30 1034 N 100.511 1.16574 -1.06058 0
M  V30 1035 C 101.443 2.2045 -0.627239 0
M  V30 1036 C 102.456 1.59752 0.313534 0
M  V30 1037 O 103.645 1.78192 0.104896 0
M  V30 1038 C 100.745 3.3875 0.100974 0
M  V30 1039 C 99.9178 4.29008 -0.852687 0
M  V30 1040 C 98.9768 5.25944 -0.164152 0
M  V30 1041 O 98.0028 5.63535 -0.801047 0
M  V30 1042 N 99.2048 5.70075 1.09518 0
M  V30 1043 H 101.97 2.58249 -1.52077 0
M  V30 1044 H 99.5308 1.3156 -0.943594 0
M  V30 1045 H 101.523 4.00638 0.57194 0
M  V30 1046 H 100.093 2.99476 0.89628 0
M  V30 1047 H 99.3128 3.64419 -1.50308 0
M  V30 1048 H 100.601 4.86195 -1.49972 0
M  V30 1049 H 99.9988 5.41624 1.6328 0
M  V30 1050 H 98.5558 6.34067 1.51006 0
M  V30 1051 N 101.989 0.842826 1.3317 0
M  V30 1052 C 103.237 0.439577 1.97262 0
M  V30 1053 C 103.558 -1.00548 1.67078 0
M  V30 1054 O 102.828 -1.70098 0.971779 0
M  V30 1055 H 101.408 0.159558 0.72976 0
M  V30 1056 H 104.07 1.07665 1.62463 0
M  V30 1057 H 103.166 0.574886 3.0676 0
M  V30 1058 N 103.467 -1.45747 0.599634 0
M  V30 1059 C 104.744 -1.95585 0.0240846 0
M  V30 1060 C 105.124 -1.54217 -1.44154 0
M  V30 1061 O 104.472 -0.800903 -2.14004 0
M  V30 1062 C 104.682 -3.48344 0.21385 0
M  V30 1063 C 106.03 -4.24504 0.0904902 0
M  V30 1064 O 107.054 -3.55911 0.143558 0
M  V30 1065 O 105.913 -5.46491 -0.0310766 0
M  V30 1066 H 103.007 -0.82602 -0.0402478 0
M  V30 1067 H 105.553 -1.55951 0.669139 0
M  V30 1068 H 104.325 -3.71397 1.23206 0
M  V30 1069 H 103.948 -3.9485 -0.466842 0
M  V30 1070 N 104.945 -0.338344 -1.53925 0
M  V30 1071 C 105.875 0.51328 -2.27789 0
M  V30 1072 C 106.856 1.107 -1.29149 0
M  V30 1073 O 108.041 1.12937 -1.57984 0
M  V30 1074 C 105.171 1.66697 -3.04679 0
M  V30 1075 C 104.125 1.20183 -4.1078 0
M  V30 1076 C 103.451 2.44363 -4.75595 0
M  V30 1077 C 104.751 0.30605 -5.21403 0
M  V30 1078 H 106.445 -0.102883 -2.99223 0
M  V30 1079 H 103.991 -0.0509219 -1.4391 0
M  V30 1080 H 105.944 2.26915 -3.55088 0
M  V30 1081 H 104.668 2.30995 -2.30887 0
M  V30 1082 H 103.327 0.622499 -3.61276 0
M  V30 1083 H 102.975 3.07057 -3.98403 0
M  V30 1084 H 102.675 2.13925 -5.47275 0
M  V30 1085 H 104.199 3.05317 -5.28786 0
M  V30 1086 H 105.613 0.814929 -5.67478 0
M  V30 1087 H 104.01 0.0937929 -6.00027 0
M  V30 1088 H 105.08 -0.65921 -4.80398 0
M  V30 1089 N 106.423 1.57458 -0.0668435 0
M  V30 1090 C 107.333 2.15937 0.916975 0
M  V30 1091 C 108.349 1.12123 1.33058 0
M  V30 1092 O 109.525 1.44366 1.40429 0
M  V30 1093 C 106.59 2.70547 2.16807 0
M  V30 1094 C 105.651 3.89215 1.81135 0
M  V30 1095 C 104.884 4.41211 3.0028 0
M  V30 1096 O 105.107 3.92225 4.14144 0
M  V30 1097 O 104.041 5.32605 2.80384 0
M  V30 1098 H 107.867 3.00354 0.449561 0
M  V30 1099 H 105.452 1.48584 0.155949 0
M  V30 1100 H 107.334 3.0557 2.90181 0
M  V30 1101 H 106.009 1.89192 2.62656 0
M  V30 1102 H 104.916 3.59054 1.05028 0
M  V30 1103 H 106.249 4.71848 1.40073 0
M  V30 1104 N 107.901 -0.206675 1.56239 0
M  V30 1105 C 109.131 -0.943975 1.83773 0
M  V30 1106 C 109.539 -1.77841 0.645703 0
M  V30 1107 O 108.882 -1.79403 -0.395008 0
M  V30 1108 C 108.944 -1.899 3.05251 0
M  V30 1109 C 108.608 -1.24764 4.39639 0
M  V30 1110 C 109.605 -0.630216 5.16066 0
M  V30 1111 C 107.29 -1.25496 4.8637 0
M  V30 1112 C 109.284 -0.0287946 6.37393 0
M  V30 1113 C 106.971 -0.649698 6.07637 0
M  V30 1114 C 107.969 -0.0376845 6.8299 0
M  V30 1115 O 107.657 0.55812 8.0196 0
M  V30 1116 H 107.389 -0.281508 0.614597 0
M  V30 1117 H 109.943 -0.222458 2.04192 0
M  V30 1118 H 108.173 -2.6599 2.80689 0
M  V30 1119 H 109.862 -2.5031 3.1953 0
M  V30 1120 H 110.628 -0.616785 4.81062 0
M  V30 1121 H 106.507 -1.72072 4.27683 0
M  V30 1122 H 110.051 0.449518 6.9615 0
M  V30 1123 H 105.948 -0.660592 6.42111 0
M  V30 1124 H 106.716 0.453891 8.17241 0
M  V30 1125 N 109.379 -1.50304 -0.473955 0
M  V30 1126 C 110.311 -1.65109 -1.58971 0
M  V30 1127 C 111.324 -0.532676 -1.53839 0
M  V30 1128 O 112.513 -0.805751 -1.59279 0
M  V30 1129 C 109.613 -1.61684 -2.97845 0
M  V30 1130 C 108.786 -2.8951 -3.27876 0
M  V30 1131 C 107.845 -2.78768 -4.4629 0
M  V30 1132 O 106.871 -3.52722 -4.46739 0
M  V30 1133 N 108.073 -1.9213 -5.47783 0
M  V30 1134 H 110.838 -2.61347 -1.46689 0
M  V30 1135 H 108.399 -1.47732 -0.662324 0
M  V30 1136 H 110.391 -1.52114 -3.75024 0
M  V30 1137 H 108.961 -0.731925 -3.03911 0
M  V30 1138 H 108.181 -3.13228 -2.39336 0
M  V30 1139 H 109.469 -3.74199 -3.4475 0
M  V30 1140 H 108.867 -1.31353 -5.50239 0
M  V30 1141 H 107.424 -1.88466 -6.23958 0
M  V30 1142 N 110.857 0.726932 -1.39834 0
M  V30 1143 C 111.79 1.8501 -1.33592 0
M  V30 1144 C 112.768 1.61262 -0.208191 0
M  V30 1145 O 113.952 1.84422 -0.389981 0
M  V30 1146 C 111.079 3.21143 -1.07633 0
M  V30 1147 C 110.125 3.63737 -2.22705 0
M  V30 1148 S 110.958 3.72167 -3.85035 0
M  V30 1149 C 112.114 5.11077 -3.61318 0
M  V30 1150 H 112.347 1.90022 -2.28646 0
M  V30 1151 H 109.88 0.892595 -1.25985 0
M  V30 1152 H 111.838 3.99747 -0.933415 0
M  V30 1153 H 110.499 3.13776 -0.142526 0
M  V30 1154 H 109.692 4.62551 -2.00155 0
M  V30 1155 H 109.294 2.9236 -2.33242 0
M  V30 1156 H 111.586 5.97656 -3.19083 0
M  V30 1157 H 112.529 5.38658 -4.59623 0
M  V30 1158 H 112.937 4.81135 -2.95245 0
M  V30 1159 N 112.336 1.25143 0.95797 0
M  V30 1160 C 113.561 1.12521 1.74223 0
M  V30 1161 C 113.986 -0.317402 1.85403 0
M  V30 1162 O 113.344 -1.2299 1.33204 0
M  V30 1163 C 113.392 1.78062 3.1357 0
M  V30 1164 O 112.496 1.058 3.98598 0
M  V30 1165 H 111.837 0.39304 0.535178 0
M  V30 1166 H 114.367 1.65641 1.201 0
M  V30 1167 H 114.377 1.84213 3.64046 0
M  V30 1168 H 113.052 2.83021 3.04749 0
M  V30 1169 H 111.629 1.07506 3.57067 0
M  V30 1170 N 113.814 -1.1601 1.06675 0
M  V30 1171 C 115.042 -1.90527 0.806667 0
M  V30 1172 C 115.457 -1.77643 -0.639396 0
M  V30 1173 O 114.814 -1.12369 -1.43803 0
M  V30 1174 C 114.865 -3.41106 1.19705 0
M  V30 1175 O 114.586 -3.53608 2.58636 0
M  V30 1176 C 116.087 -4.32663 0.965266 0
M  V30 1177 H 113.307 -0.604053 0.292166 0
M  V30 1178 H 115.851 -1.47026 1.4214 0
M  V30 1179 H 114.006 -3.82296 0.626774 0
M  V30 1180 H 114.42 -4.47011 2.74375 0
M  V30 1181 H 115.894 -5.36763 1.288 0
M  V30 1182 H 116.371 -4.39089 -0.0987936 0
M  V30 1183 H 116.977 -3.97206 1.52011 0
M  V30 1184 N 115.292 -0.849877 -1.32721 0
M  V30 1185 C 116.52 -0.464754 -2.01613 0
M  V30 1186 C 116.935 0.937191 -1.63897 0
M  V30 1187 O 116.292 1.61081 -0.857856 0
M  V30 1188 C 116.343 -0.588638 -3.56675 0
M  V30 1189 O 116.064 -1.93535 -3.93034 0
M  V30 1190 C 117.565 -0.2019 -4.4284 0
M  V30 1191 H 114.785 -0.183215 -0.645502 0
M  V30 1192 H 117.329 -1.1455 -1.69407 0
M  V30 1193 H 115.484 0.0443159 -3.87375 0
M  V30 1194 H 115.898 -1.92871 -4.87751 0
M  V30 1195 H 117.372 -0.339599 -5.50954 0
M  V30 1196 H 117.849 0.857224 -4.30753 0
M  V30 1197 H 118.455 -0.809733 -4.17521 0
M  V30 1198 N 116.77 1.45427 -0.607355 0
M  V30 1199 C 117.733 2.28974 0.101693 0
M  V30 1200 C 118.733 1.39754 0.795329 0
M  V30 1201 O 119.923 1.61878 0.643527 0
M  V30 1202 C 117.055 3.20768 1.15414 0
M  V30 1203 H 118.248 2.93147 -0.632844 0
M  V30 1204 H 115.801 1.51945 -0.366391 0
M  V30 1205 H 116.536 2.61395 1.91945 0
M  V30 1206 H 116.321 3.86489 0.66098 0
M  V30 1207 H 117.811 3.83589 1.65073 0
M  V30 1208 N 118.248 0.346503 1.53744 0
M  V30 1209 C 119.664 -0.00530975 1.59599 0
M  V30 1210 C 119.864 -1.48465 1.36236 0
M  V30 1211 O 118.92 -2.24376 1.15808 0
M  V30 1212 C 120.233 0.433516 2.97559 0
M  V30 1213 C 121.781 0.386111 3.10609 0
M  V30 1214 C 122.256 0.800451 4.50951 0
M  V30 1215 N 123.747 0.754753 4.5701 0
M  V30 1216 C 124.482 1.04727 5.63755 0
M  V30 1217 N 123.978 1.4081 6.7834 0
M  V30 1218 N 125.771 0.971316 5.53644 0
M  V30 1219 H 117.922 1.31009 1.67184 0
M  V30 1220 H 120.185 0.534242 0.783128 0
M  V30 1221 H 119.891 1.46509 3.19731 0
M  V30 1222 H 119.765 -0.189753 3.76722 0
M  V30 1223 H 122.152 -0.636295 2.88158 0
M  V30 1224 H 122.233 1.04462 2.33498 0
M  V30 1225 H 121.877 1.82088 4.74137 0
M  V30 1226 H 121.807 0.119386 5.26465 0
M  V30 1227 H 124.298 0.488662 3.74727 0
M  V30 1228 H 124.611 1.61607 7.55714 0
M  V30 1229 H 122.956 1.44657 6.79779 0
M  V30 1230 H 126.147 0.688748 4.63005 0
M  V30 1231 H 126.32 1.20263 6.36742 0
M  V30 1232 N 119.726 -1.57421 0.075193 0
M  V30 1233 C 120.689 -2.11791 -0.876203 0
M  V30 1234 C 121.689 -1.04268 -1.22412 0
M  V30 1235 O 122.879 -1.30242 -1.15684 0
M  V30 1236 C 120.011 -2.62207 -2.17854 0
M  V30 1237 H 121.204 -2.9716 -0.40444 0
M  V30 1238 H 118.757 -1.55333 -0.173557 0
M  V30 1239 H 119.492 -1.803 -2.6956 0
M  V30 1240 H 119.277 -3.40802 -1.93897 0
M  V30 1241 H 120.767 -3.04335 -2.85955 0
M  V30 1242 N 121.204 0.198386 -1.56346 0
M  V30 1243 C 122.151 1.24589 -1.94284 0
M  V30 1244 C 123.121 1.454 -0.802997 0
M  V30 1245 O 124.306 1.58588 -1.06087 0
M  V30 1246 C 121.446 2.58631 -2.28482 0
M  V30 1247 C 120.559 2.45426 -3.55514 0
M  V30 1248 C 119.694 3.7215 -3.79049 0
M  V30 1249 C 118.733 3.53763 -4.99518 0
M  V30 1250 N 117.87 4.72491 -5.19323 0
M  V30 1251 H 122.71 0.915356 -2.83593 0
M  V30 1252 H 120.247 0.440629 -1.40346 0
M  V30 1253 H 122.205 3.3672 -2.46324 0
M  V30 1254 H 120.835 2.89734 -1.42317 0
M  V30 1255 H 119.887 1.58652 -3.45737 0
M  V30 1256 H 121.199 2.27772 -4.43758 0
M  V30 1257 H 120.353 4.58679 -3.97113 0
M  V30 1258 H 119.092 3.92754 -2.89129 0
M  V30 1259 H 118.097 2.65619 -4.8138 0
M  V30 1260 H 119.322 3.34607 -5.90944 0
M  V30 1261 H 117.268 4.93365 -4.3235 0
M  V30 1262 H 117.185 4.5765 -6.01741 0
M  V30 1263 H 118.453 5.6038 -5.41843 0
M  V30 1264 N 122.682 1.50554 0.465978 0
M  V30 1265 C 124.098 1.38093 0.800154 0
M  V30 1266 C 124.298 0.440988 1.96615 0
M  V30 1267 O 123.354 -0.114499 2.5224 0
M  V30 1268 C 124.667 2.79565 1.10742 0
M  V30 1269 C 126.215 2.88516 1.21357 0
M  V30 1270 C 126.69 4.30833 1.55393 0
M  V30 1271 N 128.181 4.33807 1.62375 0
M  V30 1272 C 128.916 5.40927 1.90225 0
M  V30 1273 N 128.412 6.58247 2.16062 0
M  V30 1274 N 130.205 5.28376 1.9177 0
M  V30 1275 H 122.356 2.10237 -0.302366 0
M  V30 1276 H 124.619 0.945203 -0.0727746 0
M  V30 1277 H 124.325 3.50208 0.323661 0
M  V30 1278 H 124.199 3.17125 2.04234 0
M  V30 1279 H 126.586 2.1809 1.98799 0
M  V30 1280 H 126.667 2.54492 0.258321 0
M  V30 1281 H 126.311 5.01799 0.784889 0
M  V30 1282 H 126.241 4.62347 2.52076 0
M  V30 1283 H 128.732 3.49212 1.44427 0
M  V30 1284 H 129.045 7.3569 2.36601 0
M  V30 1285 H 127.39 6.61413 2.13444 0
M  V30 1286 H 130.581 4.35715 1.71085 0
M  V30 1287 H 130.754 6.11944 2.13139 0
M  V30 1288 N 124.16 -0.719506 1.40217 0
M  V30 1289 C 125.406 -1.48152 1.38488 0
M  V30 1290 C 125.739 -1.94195 -0.0141867 0
M  V30 1291 O 125.014 -1.67884 -0.982096 0
M  V30 1292 C 125.297 -2.71035 2.37091 0
M  V30 1293 C 125.15 -2.30912 3.86005 0
M  V30 1294 C 126.469 -3.73182 2.33288 0
M  V30 1295 H 123.588 -0.537395 0.504357 0
M  V30 1296 H 126.23 -0.821472 1.71324 0
M  V30 1297 H 124.38 -3.27352 2.0922 0
M  V30 1298 H 126.052 -1.80107 4.24687 0
M  V30 1299 H 124.295 -1.62958 4.02029 0
M  V30 1300 H 124.966 -3.18978 4.50508 0
M  V30 1301 H 127.442 -3.26485 2.57966 0
M  V30 1302 H 126.318 -4.56806 3.04334 0
M  V30 1303 H 126.579 -4.21202 1.34317 0
M  V30 1304 N 125.638 -1.25649 -0.95132 0
M  V30 1305 C 127.054 -1.02542 -1.223 0
M  V30 1306 C 127.254 0.255715 -1.99871 0
M  V30 1307 O 126.31 0.967558 -2.33226 0
M  V30 1308 C 127.623 -2.25065 -1.99415 0
M  V30 1309 C 129.171 -2.29861 -2.12446 0
M  V30 1310 C 129.646 -3.52048 -2.92961 0
M  V30 1311 N 131.137 -3.52465 -3.00538 0
M  V30 1312 C 131.872 -4.43672 -3.63239 0
M  V30 1313 N 131.368 -5.45157 -4.27523 0
M  V30 1314 N 133.161 -4.31346 -3.60412 0
M  V30 1315 H 125.312 -2.07951 -0.432471 0
M  V30 1316 H 127.575 -0.91339 -0.253816 0
M  V30 1317 H 127.281 -3.18194 -1.49817 0
M  V30 1318 H 127.155 -2.28502 -3.00111 0
M  V30 1319 H 129.542 -1.37252 -2.61239 0
M  V30 1320 H 129.623 -2.3044 -1.11044 0
M  V30 1321 H 129.267 -4.44981 -2.44856 0
M  V30 1322 H 129.197 -3.48715 -3.94596 0
M  V30 1323 H 131.688 -2.79056 -2.54826 0
M  V30 1324 H 132.001 -6.10958 -4.73234 0
M  V30 1325 H 130.346 -5.49025 -4.26141 0
M  V30 1326 H 133.537 -3.51288 -3.09377 0
M  V30 1327 H 133.71 -5.02624 -4.0899 0
M  V30 1328 N 127.117 1.15442 -1.07289 0
M  V30 1329 C 128.027 2.23786 -0.704057 0
M  V30 1330 C 129.043 1.7166 0.284413 0
M  V30 1331 O 130.219 2.00972 0.131205 0
M  V30 1332 C 127.284 3.46535 -0.106792 0
M  V30 1333 C 126.345 4.13654 -1.14842 0
M  V30 1334 C 125.578 5.30544 -0.57956 0
M  V30 1335 O 125.801 5.67187 0.604585 0
M  V30 1336 O 124.735 5.87154 -1.32414 0
M  V30 1337 H 128.561 2.57664 -1.60757 0
M  V30 1338 H 126.146 1.23152 -0.845803 0
M  V30 1339 H 128.028 4.20804 0.224048 0
M  V30 1340 H 126.703 3.14407 0.770049 0
M  V30 1341 H 125.61 3.4131 -1.5316 0
M  V30 1342 H 126.943 4.49861 -1.99714 0
M  V30 1343 N 128.595 0.856903 1.32268 0
M  V30 1344 C 129.558 0.308171 2.27119 0
M  V30 1345 C 130.558 -0.533421 1.51695 0
M  V30 1346 O 131.748 -0.344607 1.70757 0
M  V30 1347 C 128.88 -0.563757 3.36206 0
M  V30 1348 H 130.073 1.14535 2.77167 0
M  V30 1349 H 127.626 0.631421 1.42978 0
M  V30 1350 H 128.361 -1.42266 2.91429 0
M  V30 1351 H 128.146 0.0386749 3.92081 0
M  V30 1352 H 129.636 -0.940386 4.06874 0
M  V30 1353 N 130.073 -1.45103 0.615059 0
M  V30 1354 C 131.006 -2.27717 -0.148408 0
M  V30 1355 C 131.984 -1.37584 -0.866572 0
M  V30 1356 O 133.168 -1.67017 -0.87393 0
M  V30 1357 C 130.295 -3.16136 -1.21557 0
M  V30 1358 C 129.341 -4.22263 -0.599712 0
M  V30 1359 S 130.174 -5.3215 0.598081 0
M  V30 1360 C 131.33 -6.24137 -0.469484 0
M  V30 1361 H 131.563 -2.92121 0.552483 0
M  V30 1362 H 129.096 -1.49054 0.402778 0
M  V30 1363 H 131.054 -3.67633 -1.82638 0
M  V30 1364 H 129.715 -2.50982 -1.88857 0
M  V30 1365 H 128.908 -4.84081 -1.4029 0
M  V30 1366 H 128.51 -3.73945 -0.063876 0
M  V30 1367 H 130.802 -6.63984 -1.34652 0
M  V30 1368 H 131.745 -7.0801 0.112725 0
M  V30 1369 H 132.153 -5.58971 -0.788168 0
M  V30 1370 N 131.551 -0.354651 -1.53558 0
M  V30 1371 C 132.791 0.238651 -2.03002 0
M  V30 1372 C 133.155 1.46878 -1.23656 0
M  V30 1373 O 134.356 2.13699 -1.63053 0
M  V30 1374 C 132.627 0.534175 -3.53386 0
M  V30 1375 S 134.186 1.10271 -4.24719 0
M  V30 1376 H 131.004 0.0702908 -0.707517 0
M  V30 1377 H 133.606 -0.494987 -1.8913 0
M  V30 1378 H 132.31 -0.368765 -4.0874 0
M  V30 1379 H 131.841 1.29718 -3.71398 0
M  V30 1380 H 133.856 2.38772 -4.34974 0
M  V30 1381 N 133.029 1.57378 -0.0835403 0
M  V30 1382 C 134.44 1.81261 0.447358 0
M  V30 1383 C 134.791 0.998331 1.68902 0
M  V30 1384 O 133.916 0.224282 2.15235 0
M  V30 1385 C 134.511 3.28767 0.818386 0
M  V30 1386 C 133.07 3.53455 1.29409 0
M  V30 1387 C 132.217 2.75831 0.285024 0
M  V30 1388 H 135.168 1.5566 -0.309115 0
M  V30 1389 H 135.189 3.41459 1.67887 0
M  V30 1390 H 134.701 3.88006 -0.0855019 0
M  V30 1391 H 132.802 2.99534 2.21608 0
M  V30 1392 H 132.915 4.62128 1.2639 0
M  V30 1393 H 131.279 2.42947 0.764767 0
M  V30 1394 H 132.062 3.37813 -0.611341 0
M  V30 1395 N 134.507 -0.190092 1.56449 0
M  V30 1396 C 135.755 -0.907908 1.80559 0
M  V30 1397 C 136.076 -1.83583 0.657438 0
M  V30 1398 O 135.346 -1.93203 -0.323924 0
M  V30 1399 H 133.926 -0.338247 0.666032 0
M  V30 1400 H 136.588 -0.194403 1.93928 0
M  V30 1401 H 135.684 -1.49604 2.73907 0
M  V30 1402 N 135.985 -1.50799 -0.457987 0
M  V30 1403 C 137.231 -1.62683 -1.21088 0
M  V30 1404 C 137.564 -0.332268 -1.91336 0
M  V30 1405 O 136.839 0.667043 -1.82704 0
M  V30 1406 C 137.122 -2.81615 -2.24422 0
M  V30 1407 C 136.975 -4.20989 -1.58392 0
M  V30 1408 C 138.294 -2.96085 -3.2561 0
M  V30 1409 H 135.413 -0.592087 -0.438864 0
M  V30 1410 H 138.055 -1.83225 -0.50286 0
M  V30 1411 H 136.205 -2.64231 -2.84806 0
M  V30 1412 H 137.877 -4.49994 -1.01504 0
M  V30 1413 H 136.12 -4.24641 -0.886704 0
M  V30 1414 H 136.791 -5.0016 -2.33547 0
M  V30 1415 H 139.267 -3.12042 -2.75262 0
M  V30 1416 H 138.143 -3.80902 -3.95228 0
M  V30 1417 H 138.404 -2.0726 -3.90507 0
M  V30 1418 N 137.463 0.71206 -1.40597 0
M  V30 1419 C 138.688 1.50617 -1.42581 0
M  V30 1420 C 139.113 1.88079 -0.0282102 0
M  V30 1421 O 138.471 1.53511 0.964579 0
M  V30 1422 C 138.519 2.7557 -2.3258 0
M  V30 1423 O 137.623 3.72414 -1.77148 0
M  V30 1424 H 136.964 0.453966 -0.484573 0
M  V30 1425 H 139.494 0.876649 -1.84868 0
M  V30 1426 H 139.504 3.2406 -2.47889 0
M  V30 1427 H 138.179 2.47639 -3.34138 0
M  V30 1428 H 136.756 3.31276 -1.71204 0
M  V30 1429 N 138.941 1.26152 0.944643 0
M  V30 1430 C 140.189 1.11271 1.6871 0
M  V30 1431 C 140.51 -0.345166 1.91921 0
M  V30 1432 O 139.78 -1.24387 1.51343 0
M  V30 1433 H 138.36 0.408783 0.625224 0
M  V30 1434 H 141.022 1.58427 1.1352 0
M  V30 1435 H 140.118 1.62879 2.66227 0
M  V30 1436 N 140.419 -1.14872 1.07899 0
M  V30 1437 C 141.329 -2.2341 0.715915 0
M  V30 1438 C 142.345 -1.71808 -0.275306 0
M  V30 1439 O 143.521 -2.01039 -0.120545 0
M  V30 1440 C 140.586 -3.46474 0.125168 0
M  V30 1441 C 139.647 -4.13039 1.17034 0
M  V30 1442 C 138.88 -5.30229 0.607688 0
M  V30 1443 O 139.103 -5.675 -0.574497 0
M  V30 1444 O 138.037 -5.86444 1.35526 0
M  V30 1445 H 141.863 -2.56808 1.62121 0
M  V30 1446 H 139.448 -1.22702 0.852322 0
M  V30 1447 H 141.33 -4.20917 -0.201729 0
M  V30 1448 H 140.005 -3.14811 -0.753364 0
M  V30 1449 H 138.912 -3.40493 1.54968 0
M  V30 1450 H 140.245 -4.48796 2.02097 0
M  V30 1451 N 141.898 -0.863906 -1.31812 0
M  V30 1452 C 143.175 -0.39275 -1.91616 0
M  V30 1453 C 143.555 1.12461 -1.7865 0
M  V30 1454 O 142.903 1.95045 -1.19037 0
M  V30 1455 C 143.113 -0.867385 -3.38049 0
M  V30 1456 C 144.461 -0.889966 -4.15168 0
M  V30 1457 O 145.485 -0.812635 -3.46806 0
M  V30 1458 O 144.344 -1.00079 -5.37258 0
M  V30 1459 H 141.438 -0.116358 -0.818773 0
M  V30 1460 H 143.984 -0.951418 -1.40521 0
M  V30 1461 H 142.756 -1.91081 -3.41473 0
M  V30 1462 H 142.379 -0.286687 -3.96565 0
M  V30 1463 N 143.376 1.44774 -0.622745 0
M  V30 1464 C 144.601 2.06999 -0.128968 0
M  V30 1465 C 145.026 1.4617 1.1839 0
M  V30 1466 O 144.384 0.560007 1.72434 0
M  V30 1467 C 144.432 3.60595 -0.0188351 0
M  V30 1468 O 143.536 3.99398 1.02739 0
M  V30 1469 H 142.877 0.659047 -0.0809544 0
M  V30 1470 H 145.407 1.85784 -0.85705 0
M  V30 1471 H 145.417 4.07627 0.174476 0
M  V30 1472 H 144.092 4.04252 -0.977384 0
M  V30 1473 H 142.669 3.64011 0.809326 0
M  V30 1474 N 144.854 0.36279 1.53368 0
M  V30 1475 C 146.079 -0.231226 2.06107 0
M  V30 1476 C 146.504 -1.419 1.23474 0
M  V30 1477 O 145.862 -1.79524 0.253128 0
M  V30 1478 C 145.91 -0.605523 3.5548 0
M  V30 1479 O 145.014 -1.70312 3.7559 0
M  V30 1480 H 144.355 -0.034327 0.663112 0
M  V30 1481 H 146.885 0.522584 1.97814 0
M  V30 1482 H 146.895 -0.877314 3.98456 0
M  V30 1483 H 145.57 0.263004 4.15068 0
M  V30 1484 H 144.147 -1.4271 3.44512 0
M  V30 1485 N 146.332 -1.57332 0.0918853 0
M  V30 1486 C 147.262 -2.16872 -0.865371 0
M  V30 1487 C 148.243 -1.10118 -1.29646 0
M  V30 1488 O 149.428 -1.38242 -1.36392 0
M  V30 1489 C 146.558 -2.74649 -2.12569 0
M  V30 1490 C 145.512 -3.86747 -1.83333 0
M  V30 1491 C 144.838 -4.31212 -3.16166 0
M  V30 1492 C 146.138 -5.10089 -1.1228 0
M  V30 1493 H 147.832 -2.97114 -0.369307 0
M  V30 1494 H 145.378 -1.42918 -0.176194 0
M  V30 1495 H 147.331 -3.14952 -2.7997 0
M  V30 1496 H 146.055 -1.91657 -2.64452 0
M  V30 1497 H 144.714 -3.46978 -1.18331 0
M  V30 1498 H 144.362 -3.45115 -3.6593 0
M  V30 1499 H 144.062 -5.06788 -2.97388 0
M  V30 1500 H 145.586 -4.74146 -3.84731 0
M  V30 1501 H 147 -5.47582 -1.69785 0
M  V30 1502 H 145.397 -5.91073 -1.03693 0
M  V30 1503 H 146.467 -4.84786 -0.105041 0
M  V30 1504 N 147.81 0.181792 -1.56548 0
M  V30 1505 C 148.74 1.22765 -1.98623 0
M  V30 1506 C 149.721 1.46747 -0.860189 0
M  V30 1507 O 150.906 1.58259 -1.12551 0
M  V30 1508 C 148.036 2.56894 -2.33715 0
M  V30 1509 C 146.99 2.475 -3.49182 0
M  V30 1510 C 146.316 3.86023 -3.69986 0
M  V30 1511 C 147.616 1.98866 -4.82959 0
M  V30 1512 H 149.31 0.877942 -2.86239 0
M  V30 1513 H 146.856 0.42088 -1.37712 0
M  V30 1514 H 148.809 3.30253 -2.61746 0
M  V30 1515 H 147.533 2.93632 -1.42997 0
M  V30 1516 H 146.192 1.76596 -3.21262 0
M  V30 1517 H 145.84 4.20136 -2.76576 0
M  V30 1518 H 145.54 3.80609 -4.47672 0
M  V30 1519 H 147.064 4.60984 -4.00407 0
M  V30 1520 H 148.478 2.61992 -5.09934 0
M  V30 1521 H 146.875 2.04424 -5.64208 0
M  V30 1522 H 147.945 0.942465 -4.75653 0
M  V30 1523 N 149.288 1.51039 0.449983 0
M  V30 1524 C 150.218 1.74379 1.55288 0
M  V30 1525 C 151.199 0.593236 1.5942 0
M  V30 1526 O 152.384 0.834625 1.7535 0
M  V30 1527 C 149.514 1.85728 2.93466 0
M  V30 1528 C 148.468 3.01078 3.04197 0
M  V30 1529 C 147.794 2.97595 4.44231 0
M  V30 1530 C 149.094 4.41254 2.7945 0
M  V30 1531 H 150.788 2.66725 1.36008 0
M  V30 1532 H 148.334 1.2835 0.652864 0
M  V30 1533 H 150.287 2.0064 3.70569 0
M  V30 1534 H 149.011 0.900207 3.13949 0
M  V30 1535 H 147.67 2.85851 2.29531 0
M  V30 1536 H 147.318 1.99691 4.61663 0
M  V30 1537 H 147.018 3.75046 4.52343 0
M  V30 1538 H 148.542 3.14583 5.23326 0
M  V30 1539 H 149.956 4.56897 3.46292 0
M  V30 1540 H 148.353 5.20315 2.98985 0
M  V30 1541 H 149.423 4.52164 1.75144 0
M  V30 1542 N 150.766 -0.704594 1.40972 0
M  V30 1543 C 151.729 -1.80035 1.41845 0
M  V30 1544 C 152.729 -1.57774 0.310474 0
M  V30 1545 O 153.919 -1.64613 0.56992 0
M  V30 1546 C 151.051 -3.18284 1.22098 0
M  V30 1547 H 152.244 -1.80658 2.3938 0
M  V30 1548 H 149.797 -0.911329 1.26982 0
M  V30 1549 H 150.532 -3.23306 0.253672 0
M  V30 1550 H 150.317 -3.35843 2.02366 0
M  V30 1551 H 151.807 -3.98289 1.25522 0
M  V30 1552 N 152.244 -1.26651 -0.937939 0
M  V30 1553 C 153.472 -1.15173 -1.7188 0
M  V30 1554 C 153.887 0.292668 -1.86518 0
M  V30 1555 O 153.244 1.20014 -1.37488 0
M  V30 1556 C 153.295 -1.81925 -3.12387 0
M  V30 1557 O 153.016 -3.2072 -2.98446 0
M  V30 1558 C 154.517 -1.76442 -4.06673 0
M  V30 1559 H 151.737 -0.400911 -0.538063 0
M  V30 1560 H 154.281 -1.67332 -1.1756 0
M  V30 1561 H 152.436 -1.33696 -3.63599 0
M  V30 1562 H 152.85 -3.53802 -3.872 0
M  V30 1563 H 154.324 -2.27781 -5.02812 0
M  V30 1564 H 154.801 -0.731608 -4.33064 0
M  V30 1565 H 155.407 -2.24238 -3.61382 0
M  V30 1566 N 153.722 1.14298 -1.08507 0
M  V30 1567 C 154.654 2.1907 -0.673859 0
M  V30 1568 C 155.667 1.60381 0.279577 0
M  V30 1569 O 156.856 1.78374 0.0670754 0
M  V30 1570 C 153.956 3.38888 0.0290979 0
M  V30 1571 C 153.129 4.27103 -0.943494 0
M  V30 1572 C 152.188 5.25477 -0.275676 0
M  V30 1573 O 151.214 5.61709 -0.920401 0
M  V30 1574 N 152.416 5.7227 0.974013 0
M  V30 1575 H 155.181 2.54965 -1.57521 0
M  V30 1576 H 152.742 1.29528 -0.971287 0
M  V30 1577 H 154.734 4.01761 0.48683 0
M  V30 1578 H 153.304 3.01309 0.832555 0
M  V30 1579 H 152.524 3.61149 -1.58004 0
M  V30 1580 H 153.812 4.82905 -1.60251 0
M  V30 1581 H 153.21 5.44965 1.51755 0
M  V30 1582 H 151.767 6.37127 1.37522 0
M  V30 1583 N 155.201 0.870884 1.31352 0
M  V30 1584 C 156.447 0.482987 1.96965 0
M  V30 1585 C 156.78 -0.962462 1.68672 0
M  V30 1586 O 156.055 -1.6779 0.98371 0
M  V30 1587 C 156.338 0.741752 3.52378 0
M  V30 1588 C 156.191 2.2368 3.9024 0
M  V30 1589 C 157.51 0.208838 4.39604 0
M  V30 1590 H 154.629 0.176955 0.715441 0
M  V30 1591 H 157.271 1.09229 1.55464 0
M  V30 1592 H 155.421 0.223149 3.87859 0
M  V30 1593 H 157.093 2.82273 3.64856 0
M  V30 1594 H 155.336 2.70901 3.38814 0
M  V30 1595 H 156.007 2.3685 4.98604 0
M  V30 1596 H 158.483 0.652529 4.10952 0
M  V30 1597 H 157.359 0.419336 5.47296 0
M  V30 1598 H 157.62 -0.889275 4.33064 0
M  V30 1599 N 156.679 -1.44442 0.630414 0
M  V30 1600 C 157.589 -2.34476 -0.0761693 0
M  V30 1601 C 158.605 -1.52576 -0.836449 0
M  V30 1602 O 159.781 -1.85307 -0.788874 0
M  V30 1603 C 156.846 -3.30545 -1.04599 0
M  V30 1604 C 155.907 -4.28352 -0.28516 0
M  V30 1605 C 155.14 -5.19831 -1.20878 0
M  V30 1606 O 155.363 -5.15223 -2.44747 0
M  V30 1607 O 154.297 -5.97892 -0.693491 0
M  V30 1608 H 158.123 -2.96345 0.664324 0
M  V30 1609 H 155.708 -1.44203 0.39061 0
M  V30 1610 H 157.59 -3.89681 -1.60396 0
M  V30 1611 H 156.265 -2.7121 -1.76711 0
M  V30 1612 H 155.172 -3.72764 0.315837 0
M  V30 1613 H 156.505 -4.90605 0.395924 0
M  V30 1614 N 158.157 -0.370918 -1.53173 0
M  V30 1615 C 159.405 0.216673 -2.00935 0
M  V30 1616 C 159.726 1.48845 -1.25977 0
M  V30 1617 O 158.996 1.92286 -0.374551 0
M  V30 1618 H 157.576 0.0830565 -0.742368 0
M  V30 1619 H 160.238 -0.49838 -1.8842 0
M  V30 1620 H 159.334 0.439893 -3.08984 0
M  V30 1621 N 159.635 1.57281 -0.100228 0
M  V30 1622 C 160.567 2.11342 0.886972 0
M  V30 1623 C 161.58 1.05182 1.24261 0
M  V30 1624 O 162.769 1.32613 1.19483 0
M  V30 1625 C 159.869 2.5825 2.19454 0
M  V30 1626 C 159.042 3.88302 2.01346 0
M  V30 1627 C 158.101 4.21004 3.15661 0
M  V30 1628 O 157.127 4.9014 2.89398 0
M  V30 1629 N 158.329 3.76818 4.41575 0
M  V30 1630 H 161.094 2.96668 0.425216 0
M  V30 1631 H 158.655 1.61678 0.0847334 0
M  V30 1632 H 160.647 2.7717 2.94888 0
M  V30 1633 H 159.217 1.77907 2.57037 0
M  V30 1634 H 158.437 3.7848 1.10212 0
M  V30 1635 H 159.725 4.73375 1.8653 0
M  V30 1636 H 159.123 3.2102 4.65792 0
M  V30 1637 H 157.68 4.00882 5.13942 0
M  V30 1638 N 161.113 -0.173488 1.56642 0
M  V30 1639 C 162.076 -1.19859 1.95362 0
M  V30 1640 C 163.076 -1.37296 0.83704 0
M  V30 1641 O 164.266 -1.34739 1.10413 0
M  V30 1642 C 161.398 -2.56405 2.24654 0
M  V30 1643 H 162.591 -0.867062 2.87092 0
M  V30 1644 H 160.144 -0.415853 1.50666 0
M  V30 1645 H 160.879 -2.94576 1.35631 0
M  V30 1646 H 160.664 -2.45115 3.06041 0
M  V30 1647 H 162.154 -3.30287 2.5554 0
M  V30 1648 N 162.591 -1.51276 -0.441967 0
M  V30 1649 C 163.819 -1.67516 -1.21434 0
M  V30 1650 C 164.234 -0.37055 -1.85128 0
M  V30 1651 O 163.591 0.650498 -1.70513 0
M  V30 1652 C 163.642 -2.78748 -2.30177 0
M  V30 1653 O 163.363 -4.04154 -1.69089 0
M  V30 1654 C 164.864 -3.06217 -3.20541 0
M  V30 1655 H 162.084 -0.562276 -0.366178 0
M  V30 1656 H 164.628 -1.97666 -0.524244 0
M  V30 1657 H 162.783 -2.5121 -2.94911 0
M  V30 1658 H 163.197 -4.65894 -2.40922 0
M  V30 1659 H 164.671 -3.8764 -3.92987 0
M  V30 1660 H 165.148 -2.18439 -3.81026 0
M  V30 1661 H 165.754 -3.35397 -2.61513 0
M  V30 1662 N 164.069 0.697108 -1.41344 0
M  V30 1663 C 165.017 1.83237 -1.43272 0
M  V30 1664 C 166.011 1.66522 -0.310947 0
M  V30 1665 O 167.217 1.73402 -0.482899 0
M  V30 1666 H 163.592 0.603802 -0.448249 0
M  V30 1667 H 165.563 1.78727 -2.38954 0
M  V30 1668 C 164.312 3.21245 -1.33029 0
M  V30 1669 H 163.635 3.34723 -2.18633 0
M  V30 1670 H 165.075 4.00763 -1.38439 0
M  V30 1671 C 163.534 3.36873 -0.0424635 0
M  V30 1672 O 164.064 3.91177 0.913421 0
M  V30 1673 N 162.27 2.90581 0.0331145 0
M  V30 1674 H 161.817 2.46577 -0.745506 0
M  V30 1675 H 161.775 3.01416 0.894199 0
M  V30 1676 N 165.547 1.27147 0.931209 0
M  V30 1677 C 166.477 1.12081 2.04842 0
M  V30 1678 C 167.458 0.0232364 1.70084 0
M  V30 1679 O 168.643 0.197085 1.93197 0
M  V30 1680 C 165.773 0.76354 3.38803 0
M  V30 1681 C 164.727 1.81396 3.87659 0
M  V30 1682 C 164.053 1.31075 5.18385 0
M  V30 1683 C 165.353 3.21739 4.11438 0
M  V30 1684 H 167.047 2.05537 2.17703 0
M  V30 1685 H 164.593 0.989603 1.04608 0
M  V30 1686 H 166.546 0.644982 4.16435 0
M  V30 1687 H 165.27 -0.206727 3.25945 0
M  V30 1688 H 163.929 1.92136 3.12217 0
M  V30 1689 H 163.577 0.330037 5.01916 0
M  V30 1690 H 163.277 2.013 5.52044 0
M  V30 1691 H 164.801 1.20506 5.98591 0
M  V30 1692 H 166.215 3.14019 4.79651 0
M  V30 1693 H 164.612 3.89644 4.56397 0
M  V30 1694 H 165.682 3.67054 3.16859 0
M  V30 1695 N 167.025 -1.13721 1.09112 0
M  V30 1696 C 167.957 -2.1871 0.685467 0
M  V30 1697 C 168.97 -1.60527 -0.271068 0
M  V30 1698 O 170.159 -1.78407 -0.0576148 0
M  V30 1699 C 167.259 -3.38898 -0.0111255 0
M  V30 1700 C 166.432 -4.26597 0.966131 0
M  V30 1701 C 165.491 -5.25324 0.303539 0
M  V30 1702 O 164.517 -5.61213 0.950177 0
M  V30 1703 N 165.719 -5.72779 -0.943651 0
M  V30 1704 H 168.484 -2.54126 1.58871 0
M  V30 1705 H 166.045 -1.29012 0.978143 0
M  V30 1706 H 168.037 -4.02014 -0.465517 0
M  V30 1707 H 166.607 -3.01747 -0.816565 0
M  V30 1708 H 165.827 -3.60306 1.59917 0
M  V30 1709 H 167.115 -4.82048 1.6281 0
M  V30 1710 H 166.513 -5.45762 -1.48862 0
M  V30 1711 H 165.07 -6.37847 -1.34142 0
M  V30 1712 N 168.503 -0.877838 -1.30888 0
M  V30 1713 C 169.919 -0.570844 -1.49042 0
M  V30 1714 C 170.119 0.893159 -1.80624 0
M  V30 1715 O 169.175 1.67485 -1.88958 0
M  V30 1716 C 170.488 -1.47784 -2.61878 0
M  V30 1717 C 172.036 -1.48071 -2.75761 0
M  V30 1718 C 172.511 -2.37347 -3.91702 0
M  V30 1719 N 174.002 -2.35271 -3.99001 0
M  V30 1720 C 174.737 -3.01063 -4.88004 0
M  V30 1721 N 174.233 -3.76055 -5.81854 0
M  V30 1722 N 176.026 -2.90332 -4.81315 0
M  V30 1723 H 168.177 -1.82502 -1.0866 0
M  V30 1724 H 170.44 -0.780797 -0.537644 0
M  V30 1725 H 170.146 -2.51993 -2.45341 0
M  V30 1726 H 170.02 -1.18215 -3.58197 0
M  V30 1727 H 172.407 -0.446166 -2.91708 0
M  V30 1728 H 172.488 -1.81668 -1.80085 0
M  V30 1729 H 172.132 -3.40883 -3.76512 0
M  V30 1730 H 172.062 -2.01071 -4.86701 0
M  V30 1731 H 174.553 -1.80768 -3.3186 0
M  V30 1732 H 174.866 -4.23366 -6.46514 0
M  V30 1733 H 173.211 -3.80163 -5.81808 0
M  V30 1734 H 176.402 -2.31278 -4.06974 0
M  V30 1735 H 176.575 -3.41885 -5.50471 0
M  V30 1736 N 169.982 1.44106 -0.638065 0
M  V30 1737 C 170.912 2.33448 0.0494287 0
M  V30 1738 C 171.893 1.48606 0.827672 0
M  V30 1739 O 173.078 1.77308 0.792173 0
M  V30 1740 C 170.208 3.31771 1.02691 0
M  V30 1741 C 169.162 4.26485 0.359823 0
M  V30 1742 C 168.488 5.14729 1.44769 0
M  V30 1743 C 169.788 5.17056 -0.738296 0
M  V30 1744 H 171.482 2.91183 -0.696636 0
M  V30 1745 H 169.028 1.40014 -0.336456 0
M  V30 1746 H 170.981 3.93161 1.51666 0
M  V30 1747 H 169.705 2.7226 1.80395 0
M  V30 1748 H 168.364 3.66437 -0.10934 0
M  V30 1749 H 168.012 4.51566 2.21578 0
M  V30 1750 H 167.712 5.78913 1.00668 0
M  V30 1751 H 169.236 5.78991 1.93911 0
M  V30 1752 H 170.65 5.72342 -0.331354 0
M  V30 1753 H 169.047 5.89879 -1.10286 0
M  V30 1754 H 170.117 4.57652 -1.60258 0
M  V30 1755 N 171.46 0.379036 1.52974 0
M  V30 1756 C 172.423 -0.448865 2.24762 0
M  V30 1757 C 173.423 -0.998689 1.26027 0
M  V30 1758 O 174.613 -0.882313 1.50203 0
M  V30 1759 C 171.745 -1.62872 2.99476 0
M  V30 1760 H 172.938 0.179491 2.99362 0
M  V30 1761 H 170.491 0.13096 1.5575 0
M  V30 1762 H 171.226 -2.29479 2.29151 0
M  V30 1763 H 171.011 -1.24128 3.71934 0
M  V30 1764 H 172.501 -2.2151 3.5401 0
M  V30 1765 N 172.938 -1.57226 0.108567 0
M  V30 1766 C 173.848 -2.18292 -0.859401 0
M  V30 1767 C 174.864 -1.15612 -1.30038 0
M  V30 1768 O 176.04 -1.48039 -1.36552 0
M  V30 1769 C 173.105 -2.762 -2.09558 0
M  V30 1770 C 172.166 -3.93881 -1.70752 0
M  V30 1771 C 171.399 -4.49018 -2.88477 0
M  V30 1772 O 171.622 -4.03068 -4.036 0
M  V30 1773 O 170.556 -5.39852 -2.66164 0
M  V30 1774 H 174.382 -3.01441 -0.369769 0
M  V30 1775 H 171.967 -1.48945 -0.1165 0
M  V30 1776 H 173.849 -3.13156 -2.81978 0
M  V30 1777 H 172.524 -1.96089 -2.57548 0
M  V30 1778 H 171.431 -3.61713 -0.954714 0
M  V30 1779 H 172.764 -4.75396 -1.27513 0
M  V30 1780 N 174.416 0.165178 -1.56732 0
M  V30 1781 C 175.827 0.727046 -1.71962 0
M  V30 1782 C 176.178 1.82508 -0.720078 0
M  V30 1783 O 175.303 2.16082 0.117242 0
M  V30 1784 C 175.898 1.32559 -3.11791 0
M  V30 1785 C 174.457 1.83422 -3.28684 0
M  V30 1786 C 173.604 0.715567 -2.67908 0
M  V30 1787 H 176.555 -0.0602896 -1.58585 0
M  V30 1788 H 176.576 2.19533 -3.10782 0
M  V30 1789 H 176.088 0.526195 -3.84516 0
M  V30 1790 H 174.189 2.65986 -2.60926 0
M  V30 1791 H 174.302 1.97543 -4.36478 0
M  V30 1792 H 172.666 1.13758 -2.27884 0
M  V30 1793 H 173.449 -0.0720836 -3.43224 0
M  V30 1794 N 175.894 1.51508 0.433938 0
M  V30 1795 C 177.119 1.68443 1.21003 0
M  V30 1796 C 177.544 0.382636 1.84167 0
M  V30 1797 O 176.902 -0.65755 1.68956 0
M  V30 1798 C 176.95 2.80405 2.26727 0
M  V30 1799 O 176.054 2.44245 3.32292 0
M  V30 1800 H 175.395 0.561536 0.354363 0
M  V30 1801 H 177.925 1.9809 0.512024 0
M  V30 1802 H 177.935 3.0459 2.71457 0
M  V30 1803 H 176.61 3.74867 1.80132 0
M  V30 1804 H 175.187 2.30644 2.93015 0
M  V30 1805 N 177.372 -0.689602 1.41712 0
M  V30 1806 C 178.304 -1.815 1.39966 0
M  V30 1807 C 179.317 -1.59995 0.300917 0
M  V30 1808 O 180.506 -1.69387 0.563039 0
M  V30 1809 C 177.606 -3.18364 1.16179 0
M  V30 1810 C 176.779 -3.66847 2.38206 0
M  V30 1811 C 175.838 -4.82398 2.10186 0
M  V30 1812 O 174.864 -4.93706 2.83272 0
M  V30 1813 N 176.066 -5.70064 1.0958 0
M  V30 1814 H 178.831 -1.83488 2.36965 0
M  V30 1815 H 176.392 -0.872149 1.36401 0
M  V30 1816 H 178.384 -3.93301 0.953756 0
M  V30 1817 H 176.954 -3.11365 0.27756 0
M  V30 1818 H 176.174 -2.82751 2.74673 0
M  V30 1819 H 177.462 -3.95978 3.19498 0
M  V30 1820 H 176.86 -5.63565 0.491019 0
M  V30 1821 H 175.417 -6.44874 0.947656 0
M  V30 1822 N 178.85 -1.27639 -0.924453 0
M  V30 1823 C 179.78 -1.13166 -2.04244 0
M  V30 1824 C 180.761 -0.032256 -1.70069 0
M  V30 1825 O 181.946 -0.207328 -1.9309 0
M  V30 1826 C 179.076 -0.781496 -3.38393 0
M  V30 1827 C 178.03 -1.83449 -3.86692 0
M  V30 1828 C 177.356 -1.33822 -5.17683 0
M  V30 1829 C 178.656 -3.23917 -4.09726 0
M  V30 1830 H 180.35 -2.06689 -2.1661 0
M  V30 1831 H 177.896 -0.995136 -1.04082 0
M  V30 1832 H 179.849 -0.667057 -4.16087 0
M  V30 1833 H 178.573 0.189439 -3.2605 0
M  V30 1834 H 177.232 -1.93789 -3.11193 0
M  V30 1835 H 176.88 -0.35665 -5.01734 0
M  V30 1836 H 176.58 -2.04224 -5.50968 0
M  V30 1837 H 178.104 -1.23679 -5.97943 0
M  V30 1838 H 179.518 -3.16559 -4.77978 0
M  V30 1839 H 177.915 -3.92059 -4.54324 0
M  V30 1840 H 178.985 -3.68729 -3.14908 0
M  V30 1841 N 180.328 1.1314 -1.09713 0
M  V30 1842 C 181.258 2.20748 -0.761102 0
M  V30 1843 C 182.239 1.68061 0.262566 0
M  V30 1844 O 183.424 1.93765 0.129977 0
M  V30 1845 C 180.554 3.46812 -0.184054 0
M  V30 1846 C 179.508 4.12606 -1.13757 0
M  V30 1847 C 178.834 5.33031 -0.422083 0
M  V30 1848 C 180.134 4.59603 -2.48118 0
M  V30 1849 H 181.828 2.49113 -1.66082 0
M  V30 1850 H 179.374 1.19734 -0.799987 0
M  V30 1851 H 181.327 4.21353 0.0631215 0
M  V30 1852 H 180.051 3.17851 0.750868 0
M  V30 1853 H 178.71 3.40036 -1.37007 0
M  V30 1854 H 178.358 5.00335 0.517072 0
M  V30 1855 H 178.058 5.77999 -1.05788 0
M  V30 1856 H 179.582 6.10325 -0.183277 0
M  V30 1857 H 180.996 5.25552 -2.29059 0
M  V30 1858 H 179.393 5.15321 -3.07514 0
M  V30 1859 H 180.463 3.73971 -3.08665 0
M  V30 1860 N 181.806 0.884767 1.30421 0
M  V30 1861 C 182.753 0.349642 2.28136 0
M  V30 1862 C 183.723 -0.560061 1.56373 0
M  V30 1863 O 184.908 -0.488524 1.8444 0
M  V30 1864 C 182.048 -0.42999 3.42411 0
M  V30 1865 C 181.161 0.508907 4.28992 0
M  V30 1866 C 180.296 -0.286301 5.30428 0
M  V30 1867 C 179.335 0.648079 6.08659 0
M  V30 1868 N 178.472 -0.111792 7.02011 0
M  V30 1869 H 183.312 1.18807 2.73293 0
M  V30 1870 H 180.849 0.597231 1.3443 0
M  V30 1871 H 182.807 -0.897923 4.07423 0
M  V30 1872 H 181.437 -1.23299 2.98324 0
M  V30 1873 H 180.489 1.09533 3.64289 0
M  V30 1874 H 181.801 1.22475 4.8353 0
M  V30 1875 H 180.955 -0.816098 6.01186 0
M  V30 1876 H 179.694 -1.03536 4.76583 0
M  V30 1877 H 178.699 1.18951 5.36778 0
M  V30 1878 H 179.924 1.39623 6.64592 0
M  V30 1879 H 177.87 -0.843395 6.50556 0
M  V30 1880 H 177.787 0.544429 7.54037 0
M  V30 1881 H 179.055 -0.622339 7.77012 0
M  V30 1882 N 183.284 -1.43765 0.645699 0
M  V30 1883 C 184.509 -2.06767 0.161883 0
M  V30 1884 C 184.934 -1.48034 -1.16049 0
M  V30 1885 O 184.292 -0.587369 -1.71522 0
M  V30 1886 C 184.34 -3.60519 0.0762003 0
M  V30 1887 O 183.444 -4.00982 -0.963721 0
M  V30 1888 H 182.785 -0.657675 0.091429 0
M  V30 1889 H 185.315 -1.84397 0.886499 0
M  V30 1890 H 185.325 -4.07853 -0.109604 0
M  V30 1891 H 184 -4.02646 1.04157 0
M  V30 1892 H 182.577 -3.65253 -0.751312 0
M  V30 1893 N 184.763 -0.387143 -1.52771 0
M  V30 1894 C 185.726 0.436939 -2.24997 0
M  V30 1895 C 186.726 0.991991 -1.26555 0
M  V30 1896 O 187.916 0.874335 -1.50669 0
M  V30 1897 C 185.048 1.61281 -3.00335 0
M  V30 1898 H 186.241 -0.195365 -2.99263 0
M  V30 1899 H 183.794 -0.139218 -1.55679 0
M  V30 1900 H 184.529 2.2826 -2.30364 0
M  V30 1901 H 184.314 1.22154 -3.72587 0
M  V30 1902 H 185.804 2.19629 -3.5518 0
M  V30 1903 N 186.241 1.57166 -0.116904 0
M  V30 1904 C 187.49 1.94298 0.541407 0
M  V30 1905 C 187.803 1.00236 1.67964 0
M  V30 1906 O 189.009 1.26826 2.40057 0
M  V30 1907 C 187.465 3.45306 1.01449 0
M  V30 1908 C 187.073 4.47899 -0.0951738 0
M  V30 1909 C 188.817 3.91361 1.6443 0
M  V30 1910 C 186.724 5.90083 0.394491 0
M  V30 1911 H 185.654 0.725308 0.206019 0
M  V30 1912 H 188.305 1.82446 -0.196419 0
M  V30 1913 H 186.687 3.52385 1.80667 0
M  V30 1914 H 187.861 4.52486 -0.871374 0
M  V30 1915 H 186.176 4.11583 -0.631505 0
M  V30 1916 H 188.773 4.95004 2.02176 0
M  V30 1917 H 189.116 3.3122 2.52189 0
M  V30 1918 H 189.649 3.87073 0.917559 0
M  V30 1919 H 186.388 6.53974 -0.447004 0
M  V30 1920 H 185.908 5.88921 1.13722 0
M  V30 1921 H 187.587 6.41307 0.856399 0
M  V30 1922 N 187.719 -0.156864 1.56817 0
M  V30 1923 C 188.965 -0.872416 1.83076 0
M  V30 1924 C 189.298 -1.81261 0.697001 0
M  V30 1925 O 188.573 -1.92171 -0.30008 0
M  V30 1926 C 188.856 -1.65551 3.19789 0
M  V30 1927 C 188.709 -0.737467 4.43713 0
M  V30 1928 C 190.028 -2.62012 3.53606 0
M  V30 1929 H 187.147 -0.315715 0.665953 0
M  V30 1930 H 189.789 -0.138004 1.89498 0
M  V30 1931 H 187.939 -2.28159 3.14445 0
M  V30 1932 H 189.611 -0.123143 4.61136 0
M  V30 1933 H 187.854 -0.0464067 4.33775 0
M  V30 1934 H 188.525 -1.32122 5.35955 0
M  V30 1935 H 191.001 -2.09525 3.59497 0
M  V30 1936 H 189.877 -3.13861 4.50314 0
M  V30 1937 H 190.138 -3.42902 2.79053 0
M  V30 1938 N 189.197 -1.51736 -0.425897 0
M  V30 1939 C 190.147 -1.70258 -1.51645 0
M  V30 1940 C 191.131 -0.556488 -1.5097 0
M  V30 1941 O 192.323 -0.812879 -1.5723 0
M  V30 1942 C 189.452 -1.84143 -2.89735 0
M  V30 1943 C 188.538 -3.04572 -2.95122 0
M  V30 1944 N 188.929 -4.2756 -2.70233 0
M  V30 1945 C 187.227 -3.04061 -3.26286 0
M  V30 1946 C 187.928 -5.08908 -2.81757 0
M  V30 1947 N 186.904 -4.43797 -3.13919 0
M  V30 1948 H 190.706 -2.63004 -1.31172 0
M  V30 1949 H 188.22 -1.4954 -0.633375 0
M  V30 1950 H 190.217 -1.95525 -3.68206 0
M  V30 1951 H 188.877 -0.925857 -3.1122 0
M  V30 1952 H 189.888 -4.56315 -2.44943 0
M  V30 1953 H 186.565 -2.22179 -3.53473 0
M  V30 1954 H 187.955 -6.16843 -2.66372 0
M  V30 1955 N 190.675 0.682077 -1.42076 0
M  V30 1956 C 191.605 1.80796 -1.47767 0
M  V30 1957 C 192.586 1.6677 -0.334954 0
M  V30 1958 O 193.771 1.863 -0.548264 0
M  V30 1959 C 190.901 3.19038 -1.37229 0
M  V30 1960 C 189.855 3.47789 -2.49453 0
M  V30 1961 C 189.181 4.8553 -2.23975 0
M  V30 1962 C 190.481 3.45411 -3.91776 0
M  V30 1963 H 192.175 1.7629 -2.41997 0
M  V30 1964 H 189.721 0.846721 -1.16476 0
M  V30 1965 H 191.674 3.97528 -1.39821 0
M  V30 1966 H 190.398 3.24204 -0.394907 0
M  V30 1967 H 189.057 2.71657 -2.46166 0
M  V30 1968 H 188.705 4.87337 -1.24547 0
M  V30 1969 H 188.405 5.0573 -2.99184 0
M  V30 1970 H 189.929 5.66312 -2.28304 0
M  V30 1971 H 191.343 4.13882 -3.96705 0
M  V30 1972 H 189.74 3.77145 -4.66778 0
M  V30 1973 H 190.81 2.44122 -4.18966 0
M  V30 1974 N 192.153 1.28127 0.917671 0
M  V30 1975 C 193.402 1.14432 1.66097 0
M  V30 1976 C 193.715 -0.307247 1.93172 0
M  V30 1977 O 194.921 -0.565259 2.65551 0
M  V30 1978 C 193.377 2.00015 2.99202 0
M  V30 1979 C 192.985 3.49889 2.79789 0
M  V30 1980 C 194.729 1.94996 3.77064 0
M  V30 1981 C 192.636 4.27636 4.08511 0
M  V30 1982 H 191.566 0.424662 0.62304 0
M  V30 1983 H 194.217 1.52628 1.01868 0
M  V30 1984 H 192.599 1.54672 3.64544 0
M  V30 1985 H 193.773 4.03162 2.23152 0
M  V30 1986 H 192.088 3.56392 2.15345 0
M  V30 1987 H 194.685 2.50354 4.72469 0
M  V30 1988 H 195.028 0.925819 4.05875 0
M  V30 1989 H 195.561 2.38287 3.18534 0
M  V30 1990 H 192.3 5.30615 3.84874 0
M  V30 1991 H 191.82 3.79137 4.64774 0
M  V30 1992 H 193.499 4.37346 4.76799 0
M  V30 1993 N 193.631 -1.12557 1.10312 0
M  V30 1994 C 194.579 -2.20325 0.745629 0
M  V30 1995 C 195.573 -1.67429 -0.25763 0
M  V30 1996 O 196.779 -1.79612 -0.118132 0
M  V30 1997 H 193.154 -0.718118 0.223182 0
M  V30 1998 H 195.125 -2.47733 1.66346 0
M  V30 1999 C 193.874 -3.47168 0.192262 0
M  V30 2000 H 193.197 -3.88215 0.955475 0
M  V30 2001 H 194.637 -4.23995 -0.0198274 0
M  V30 2002 C 193.096 -3.19298 -1.07472 0
M  V30 2003 O 193.626 -3.3891 -2.15645 0
M  V30 2004 N 191.832 -2.73113 -0.992847 0
M  V30 2005 H 191.379 -2.57354 -0.112474 0
M  V30 2006 H 191.337 -2.54842 -1.84127 0
M  V30 2007 N 195.109 -0.891671 -1.2995 0
M  V30 2008 C 196.339 -0.527893 -1.99742 0
M  V30 2009 C 196.747 0.88979 -1.66971 0
M  V30 2010 O 196.09 1.59766 -0.906667 0
M  V30 2011 C 196.152 -0.630804 -3.53922 0
M  V30 2012 C 195.816 -2.01401 -4.10228 0
M  V30 2013 C 196.813 -2.98422 -4.25724 0
M  V30 2014 C 194.498 -2.32121 -4.45449 0
M  V30 2015 C 196.492 -4.24293 -4.75662 0
M  V30 2016 C 194.179 -3.58237 -4.95086 0
M  V30 2017 C 195.177 -4.54137 -5.10146 0
M  V30 2018 O 194.865 -5.78014 -5.58708 0
M  V30 2019 H 194.597 -0.201953 -0.645129 0
M  V30 2020 H 197.151 -1.20076 -1.66646 0
M  V30 2021 H 195.381 0.0990616 -3.86573 0
M  V30 2022 H 197.07 -0.277338 -4.04951 0
M  V30 2023 H 197.836 -2.76001 -3.98809 0
M  V30 2024 H 193.715 -1.5824 -4.32991 0
M  V30 2025 H 197.259 -4.99153 -4.87332 0
M  V30 2026 H 193.156 -3.80491 -5.21437 0
M  V30 2027 H 193.924 -5.8049 -5.77039 0
M  V30 2028 N 196.587 1.43421 -0.653314 0
M  V30 2029 C 197.519 2.29071 0.0769134 0
M  V30 2030 C 198.532 1.42513 0.787017 0
M  V30 2031 O 199.721 1.66449 0.644757 0
M  V30 2032 C 196.821 3.19436 1.13199 0
M  V30 2033 C 195.994 4.34533 0.500006 0
M  V30 2034 C 195.053 5.05771 1.45198 0
M  V30 2035 O 194.079 5.61037 0.960538 0
M  V30 2036 N 195.281 5.0928 2.78594 0
M  V30 2037 H 198.046 2.92382 -0.658235 0
M  V30 2038 H 195.607 1.54112 -0.496104 0
M  V30 2039 H 197.599 3.63958 1.76964 0
M  V30 2040 H 196.169 2.57724 1.7691 0
M  V30 2041 H 195.389 3.92925 -0.316738 0
M  V30 2042 H 196.677 5.08766 0.0588345 0
M  V30 2043 H 196.075 4.65751 3.2108 0
M  V30 2044 H 194.632 5.57519 3.37662 0
M  V30 2045 N 198.065 0.39524 1.52563 0
M  V30 2046 C 199.342 -0.242908 1.94086 0
M  V30 2047 C 199.722 -1.63841 1.33114 0
M  V30 2048 O 199.07 -2.22928 0.501529 0
M  V30 2049 C 199.28 -0.26327 3.48006 0
M  V30 2050 C 200.628 -0.489354 4.21771 0
M  V30 2051 O 201.652 -0.343226 3.54543 0
M  V30 2052 O 200.511 -0.776169 5.4096 0
M  V30 2053 H 197.605 -0.152536 0.812811 0
M  V30 2054 H 200.151 0.450178 1.6362 0
M  V30 2055 H 198.923 0.713985 3.84731 0
M  V30 2056 H 198.546 -1.00103 3.84792 0
M  V30 2057 N 199.544 -1.57102 0.125237 0
M  V30 2058 C 200.821 -1.86953 -0.575142 0
M  V30 2059 C 201.201 -1.02749 -1.84407 0
M  V30 2060 O 200.549 -0.108144 -2.28244 0
M  V30 2061 C 200.759 -3.38198 -0.861583 0
M  V30 2062 C 202.107 -4.06937 -1.21192 0
M  V30 2063 O 203.131 -3.43252 -0.951645 0
M  V30 2064 O 201.99 -5.19364 -1.70068 0
M  V30 2065 H 199.084 -0.774147 -0.290906 0
M  V30 2066 H 201.63 -1.68942 0.160211 0
M  V30 2067 H 200.402 -3.91282 0.0373647 0
M  V30 2068 H 200.025 -3.61661 -1.65188 0
M  V30 2069 N 201.022 0.148545 -1.56898 0
M  V30 2070 C 201.985 1.16736 -1.97244 0
M  V30 2071 C 202.985 1.35947 -0.858777 0
M  V30 2072 O 204.175 1.32966 -1.12542 0
M  V30 2073 C 201.307 2.52798 -2.28705 0
M  V30 2074 H 202.5 0.821279 -2.88435 0
M  V30 2075 H 200.053 0.391831 -1.51309 0
M  V30 2076 H 200.788 2.92381 -1.403 0
M  V30 2077 H 200.573 2.40216 -3.09901 0
M  V30 2078 H 202.063 3.26179 -2.60762 0
M  V30 2079 N 202.5 1.5196 0.417844 0
M  V30 2080 C 203.41 1.77554 1.53336 0
M  V30 2081 C 204.426 0.660655 1.6097 0
M  V30 2082 O 205.602 0.945099 1.77848 0
M  V30 2083 C 202.667 1.91291 2.89152 0
M  V30 2084 C 201.728 3.15183 2.91475 0
M  V30 2085 C 200.961 3.28256 4.20813 0
M  V30 2086 O 201.184 2.46798 5.14244 0
M  V30 2087 O 200.118 4.21356 4.29817 0
M  V30 2088 H 203.944 2.7222 1.34647 0
M  V30 2089 H 201.529 1.36698 0.602828 0
M  V30 2090 H 203.411 2.02199 3.69721 0
M  V30 2091 H 202.086 0.998129 3.07927 0
M  V30 2092 H 200.993 3.09739 2.09791 0
M  V30 2093 H 202.326 4.06414 2.77648 0
M  V30 2094 N 203.978 -0.674533 1.42435 0
M  V30 2095 C 204.908 -1.80009 1.48724 0
M  V30 2096 C 205.889 -1.6659 0.343793 0
M  V30 2097 O 207.074 -1.86007 0.558137 0
M  V30 2098 C 204.204 -3.18306 1.38919 0
M  V30 2099 C 203.158 -3.46461 2.51294 0
M  V30 2100 C 202.484 -4.84335 2.26547 0
M  V30 2101 C 203.784 -3.43328 3.93603 0
M  V30 2102 H 205.478 -1.75004 2.42928 0
M  V30 2103 H 203.024 -0.840533 1.16923 0
M  V30 2104 H 204.977 -3.9678 1.41927 0
M  V30 2105 H 203.701 -3.2399 0.412094 0
M  V30 2106 H 202.36 -2.70348 2.47604 0
M  V30 2107 H 202.008 -4.86669 1.2713 0
M  V30 2108 H 201.708 -5.04136 3.01861 0
M  V30 2109 H 203.232 -5.65094 2.31304 0
M  V30 2110 H 204.646 -4.11772 3.98894 0
M  V30 2111 H 203.043 -3.74664 4.68771 0
M  V30 2112 H 204.113 -2.41897 4.20255 0
M  V30 2113 N 205.456 -1.28612 -0.910864 0
M  V30 2114 C 206.419 -1.12803 -1.9952 0
M  V30 2115 C 207.419 -0.0668264 -1.60661 0
M  V30 2116 O 208.609 -0.312847 -1.71368 0
M  V30 2117 C 205.741 -0.72254 -3.33155 0
M  V30 2118 H 206.934 -2.09109 -2.14973 0
M  V30 2119 H 204.487 -1.11639 -1.09391 0
M  V30 2120 H 205.222 0.241152 -3.23402 0
M  V30 2121 H 205.007 -1.48916 -3.62721 0
M  V30 2122 H 206.497 -0.634666 -4.12749 0
M  V30 2123 N 206.934 1.1197 -1.10907 0
M  V30 2124 C 208.162 1.87402 -0.876824 0
M  V30 2125 C 208.577 1.79894 0.573025 0
M  V30 2126 O 207.934 1.17629 1.39534 0
M  V30 2127 C 207.985 3.36428 -1.32282 0
M  V30 2128 O 207.706 3.43765 -2.71582 0
M  V30 2129 C 209.207 4.28783 -1.12518 0
M  V30 2130 H 206.427 0.592793 -0.314384 0
M  V30 2131 H 208.971 1.41649 -1.47499 0
M  V30 2132 H 207.126 3.79706 -0.768229 0
M  V30 2133 H 207.54 4.3652 -2.90776 0
M  V30 2134 H 209.014 5.31613 -1.48633 0
M  V30 2135 H 209.491 4.39153 -0.0642394 0
M  V30 2136 H 210.097 3.91291 -1.66648 0
M  V30 2137 N 208.412 0.89855 1.29475 0
M  V30 2138 C 209.828 0.594483 1.48115 0
M  V30 2139 C 210.028 -0.86431 1.82022 0
M  V30 2140 O 209.084 -1.64457 1.91599 0
M  V30 2141 C 210.397 1.51932 2.59494 0
M  V30 2142 C 211.945 1.5244 2.7337 0
M  V30 2143 C 212.42 2.43548 3.87877 0
M  V30 2144 N 213.911 2.41589 3.95208 0
M  V30 2145 C 214.646 3.08789 4.83153 0
M  V30 2146 N 214.142 3.85265 5.75798 0
M  V30 2147 N 215.935 2.97952 4.76635 0
M  V30 2148 H 208.086 1.84207 1.05742 0
M  V30 2149 H 210.349 0.789251 0.525154 0
M  V30 2150 H 210.055 2.55865 2.41301 0
M  V30 2151 H 209.929 1.23899 3.56271 0
M  V30 2152 H 212.316 0.492518 2.90961 0
M  V30 2153 H 212.397 1.8451 1.77172 0
M  V30 2154 H 212.041 3.46829 3.71041 0
M  V30 2155 H 211.971 2.08788 4.83441 0
M  V30 2156 H 214.462 1.86025 3.28943 0
M  V30 2157 H 214.775 4.33598 6.39697 0
M  V30 2158 H 213.12 3.89371 5.75687 0
M  V30 2159 H 216.311 2.37723 4.03244 0
M  V30 2160 H 216.484 3.50599 5.44962 0
M  V30 2161 N 209.89 -1.43072 0.660911 0
M  V30 2162 C 210.853 -2.29194 -0.0166406 0
M  V30 2163 C 211.853 -1.42609 -0.742912 0
M  V30 2164 O 213.043 -1.64155 -0.583004 0
M  V30 2165 C 210.175 -3.24831 -1.0343 0
M  V30 2166 H 211.368 -2.90596 0.741208 0
M  V30 2167 H 208.921 -1.5048 0.422532 0
M  V30 2168 H 209.656 -2.68339 -1.82111 0
M  V30 2169 H 209.441 -3.88676 -0.517082 0
M  V30 2170 H 210.931 -3.89451 -1.50723 0
M  V30 2171 N 211.368 -0.403325 -1.52352 0
M  V30 2172 C 212.298 0.416205 -2.29761 0
M  V30 2173 C 213.279 1.05123 -1.33728 0
M  V30 2174 O 214.464 1.06134 -1.62632 0
M  V30 2175 C 211.594 1.53624 -3.11475 0
M  V30 2176 C 210.548 1.02653 -4.15507 0
M  V30 2177 C 209.874 2.23971 -4.85532 0
M  V30 2178 C 211.174 0.08463 -5.22231 0
M  V30 2179 H 212.868 -0.229701 -2.98518 0
M  V30 2180 H 210.414 -0.111913 -1.43564 0
M  V30 2181 H 212.367 2.1165 -3.64393 0
M  V30 2182 H 211.091 2.20994 -2.40477 0
M  V30 2183 H 209.75 0.46871 -3.63591 0
M  V30 2184 H 209.398 2.89883 -4.11068 0
M  V30 2185 H 209.098 1.90521 -5.55856 0
M  V30 2186 H 210.622 2.82614 -5.41259 0
M  V30 2187 H 212.036 0.573509 -5.70424 0
M  V30 2188 H 210.433 -0.160783 -5.99885 0
M  V30 2189 H 211.503 -0.86237 -4.7717 0
M  V30 2190 N 212.846 1.57033 -0.133567 0
M  V30 2191 C 214.257 1.82593 0.389464 0
M  V30 2192 C 214.608 1.05156 1.6564 0
M  V30 2193 O 213.733 0.292644 2.14412 0
M  V30 2194 C 214.328 3.31204 0.713377 0
M  V30 2195 C 212.887 3.57393 1.18098 0
M  V30 2196 C 212.034 2.76598 0.197126 0
M  V30 2197 H 214.985 1.54598 -0.358481 0
M  V30 2198 H 215.006 3.46627 1.56939 0
M  V30 2199 H 214.518 3.87537 -0.2089 0
M  V30 2200 H 212.619 3.06433 2.11966 0
M  V30 2201 H 212.732 4.65915 1.11624 0
M  V30 2202 H 211.096 2.45257 0.687088 0
M  V30 2203 H 211.879 3.35697 -0.718504 0
M  V30 2204 N 214.325 -0.140222 1.56975 0
M  V30 2205 C 215.235 -1.19223 2.02047 0
M  V30 2206 C 216.251 -1.46612 0.937062 0
M  V30 2207 O 217.427 -1.58148 1.24704 0
M  V30 2208 C 214.492 -2.50414 2.39778 0
M  V30 2209 C 213.553 -2.30612 3.621 0
M  V30 2210 C 212.786 -3.55547 3.98023 0
M  V30 2211 O 213.009 -4.62004 3.34528 0
M  V30 2212 O 211.943 -3.47808 4.91237 0
M  V30 2213 H 215.769 -0.839559 2.91865 0
M  V30 2214 H 213.354 -0.349453 1.45256 0
M  V30 2215 H 215.236 -3.27747 2.64877 0
M  V30 2216 H 213.911 -2.85198 1.53114 0
M  V30 2217 H 212.818 -1.51207 3.4218 0
M  V30 2218 H 214.151 -2.00741 4.49404 0
M  V30 2219 N 215.803 -1.52179 -0.40978 0
M  V30 2220 C 216.733 -1.78435 -1.5061 0
M  V30 2221 C 217.714 -0.635295 -1.57791 0
M  V30 2222 O 218.899 -0.880823 -1.73076 0
M  V30 2223 C 216.029 -1.93444 -2.88439 0
M  V30 2224 C 214.983 -3.09038 -2.96108 0
M  V30 2225 C 214.309 -3.09268 -4.36185 0
M  V30 2226 C 215.609 -4.48508 -2.67652 0
M  V30 2227 H 217.303 -2.70237 -1.28889 0
M  V30 2228 H 214.849 -1.30036 -0.618605 0
M  V30 2229 H 216.802 -2.10394 -3.65119 0
M  V30 2230 H 215.526 -0.983129 -3.11452 0
M  V30 2231 H 214.185 -2.91837 -2.21872 0
M  V30 2232 H 213.833 -2.11861 -4.56206 0
M  V30 2233 H 213.533 -3.86907 -4.42241 0
M  V30 2234 H 215.057 -3.28348 -5.14801 0
M  V30 2235 H 216.471 -4.65918 -3.34056 0
M  V30 2236 H 214.868 -5.28059 -2.85085 0
M  V30 2237 H 215.938 -4.56649 -1.63095 0
M  V30 2238 N 217.281 0.66697 -1.42791 0
M  V30 2239 C 218.509 1.45505 -1.47091 0
M  V30 2240 C 218.924 1.8861 -0.0845873 0
M  V30 2241 O 218.281 1.58632 0.90234 0
M  V30 2242 C 218.332 2.69906 -2.40485 0
M  V30 2243 O 218.053 2.28608 -3.73725 0
M  V30 2244 C 219.554 3.63396 -2.53886 0
M  V30 2245 H 216.774 0.447459 -0.500022 0
M  V30 2246 H 219.318 0.818866 -1.8739 0
M  V30 2247 H 217.473 3.29696 -2.03419 0
M  V30 2248 H 217.887 3.08997 -4.23817 0
M  V30 2249 H 219.361 4.47387 -3.2334 0
M  V30 2250 H 219.838 4.09824 -1.57927 0
M  V30 2251 H 220.444 3.09495 -2.91706 0
M  V30 2252 N 218.759 1.29093 0.90403 0
M  V30 2253 C 219.706 1.13853 2.00764 0
M  V30 2254 C 220.676 0.0330084 1.66067 0
M  V30 2255 O 221.861 0.199733 1.89752 0
M  V30 2256 C 219.001 0.816537 3.35301 0
M  V30 2257 C 218.114 2.00206 3.82807 0
M  V30 2258 C 217.249 1.61983 5.059 0
M  V30 2259 C 216.288 2.77143 5.45764 0
M  V30 2260 N 215.425 2.39346 6.60044 0
M  V30 2261 H 220.265 2.08276 2.13132 0
M  V30 2262 H 217.802 1.03648 1.04381 0
M  V30 2263 H 219.76 0.610557 4.12708 0
M  V30 2264 H 218.39 -0.090779 3.22672 0
M  V30 2265 H 217.442 2.31988 3.01473 0
M  V30 2266 H 218.754 2.86512 4.08304 0
M  V30 2267 H 217.908 1.37649 5.90879 0
M  V30 2268 H 216.647 0.728202 4.82233 0
M  V30 2269 H 215.652 3.02165 4.59322 0
M  V30 2270 H 216.877 3.66964 5.71414 0
M  V30 2271 H 214.823 1.52665 6.37989 0
M  V30 2272 H 214.74 3.19185 6.85315 0
M  V30 2273 H 216.008 2.1832 7.48303 0
M  V30 2274 N 220.237 -1.11381 1.11499 0
M  V30 2275 C 221.167 -2.19509 0.796125 0
M  V30 2276 C 222.148 -1.68458 -0.235796 0
M  V30 2277 O 223.333 -1.93947 -0.0991344 0
M  V30 2278 C 220.463 -3.46475 0.239205 0
M  V30 2279 C 219.417 -4.10744 1.20307 0
M  V30 2280 C 218.743 -5.32293 0.50683 0
M  V30 2281 C 220.043 -4.55597 2.55399 0
M  V30 2282 H 221.737 -2.46439 1.70024 0
M  V30 2283 H 219.283 -1.18446 0.818935 0
M  V30 2284 H 221.236 -4.214 0.00392006 0
M  V30 2285 H 219.96 -3.19006 -0.700206 0
M  V30 2286 H 218.619 -3.37813 1.42399 0
M  V30 2287 H 218.267 -5.01095 -0.437408 0
M  V30 2288 H 217.967 -5.76243 1.1497 0
M  V30 2289 H 219.491 -6.09956 0.280351 0
M  V30 2290 H 220.905 -5.21841 2.37391 0
M  V30 2291 H 219.302 -5.10363 3.15673 0
M  V30 2292 H 220.372 -3.69013 3.14575 0
M  V30 2293 N 221.715 -0.905404 -1.28997 0
M  V30 2294 C 222.645 -0.404212 -2.29975 0
M  V30 2295 C 223.626 0.523784 -1.61835 0
M  V30 2296 O 224.811 0.433298 -1.89304 0
M  V30 2297 C 221.941 0.364042 -3.45387 0
M  V30 2298 C 220.895 -0.474048 -4.25367 0
M  V30 2299 C 220.221 0.422045 -5.33032 0
M  V30 2300 C 221.521 -1.72696 -4.92923 0
M  V30 2301 H 223.215 -1.24807 -2.72146 0
M  V30 2302 H 220.761 -0.601585 -1.30832 0
M  V30 2303 H 222.714 0.725447 -4.15109 0
M  V30 2304 H 221.438 1.24174 -3.02074 0
M  V30 2305 H 220.097 -0.81786 -3.57361 0
M  V30 2306 H 219.745 1.29804 -4.85963 0
M  V30 2307 H 219.445 -0.135057 -5.87445 0
M  V30 2308 H 220.969 0.779517 -6.05604 0
M  V30 2309 H 222.383 -1.43495 -5.55051 0
M  V30 2310 H 220.78 -2.22582 -5.57295 0
M  V30 2311 H 221.85 -2.45964 -4.17887 0
M  V30 2312 N 223.193 1.4272 -0.668489 0
M  V30 2313 C 224.141 2.32586 0.0254857 0
M  V30 2314 C 225.135 1.49471 0.797176 0
M  V30 2315 O 226.341 1.65583 0.705853 0
M  V30 2316 H 222.716 0.751514 0.0270339 0
M  V30 2317 H 224.687 2.88823 -0.749936 0
M  V30 2318 C 223.436 3.3397 0.967427 0
M  V30 2319 H 222.759 3.97961 0.383048 0
M  V30 2320 H 224.199 3.9945 1.42181 0
M  V30 2321 C 222.658 2.65744 2.0708 0
M  V30 2322 O 223.188 2.48454 3.15648 0
M  V30 2323 N 221.394 2.2487 1.8407 0
M  V30 2324 H 220.941 2.39132 0.95778 0
M  V30 2325 H 220.899 1.79552 2.58086 0
M  V30 2326 N 224.671 0.411399 1.52136 0
M  V30 2327 C 225.948 -0.222308 1.94333 0
M  V30 2328 C 226.328 -1.6242 1.34844 0
M  V30 2329 O 225.676 -2.22384 0.525145 0
M  V30 2330 C 225.886 -0.226345 3.48265 0
M  V30 2331 C 227.234 -0.444592 4.22266 0
M  V30 2332 O 228.258 -0.305602 3.54887 0
M  V30 2333 O 227.117 -0.718749 5.41753 0
M  V30 2334 H 224.211 -0.143907 0.814383 0
M  V30 2335 H 226.757 0.467506 1.63133 0
M  V30 2336 H 225.529 0.75475 3.83952 0
M  V30 2337 H 225.152 -0.960163 3.85832 0
M  V30 2338 N 226.149 -1.5696 0.141893 0
M  V30 2339 C 227.059 -2.20066 -0.812905 0
M  V30 2340 C 228.075 -1.18344 -1.27557 0
M  V30 2341 O 229.251 -1.50902 -1.33381 0
M  V30 2342 C 226.316 -2.80583 -2.03652 0
M  V30 2343 C 225.377 -3.97414 -1.62359 0
M  V30 2344 C 224.61 -4.55036 -2.78887 0
M  V30 2345 O 224.833 -4.11538 -3.94959 0
M  V30 2346 O 223.767 -5.45376 -2.54653 0
M  V30 2347 H 227.593 -3.02157 -0.305746 0
M  V30 2348 H 225.178 -1.49159 -0.0848799 0
M  V30 2349 H 227.06 -3.19067 -2.75272 0
M  V30 2350 H 225.735 -2.01508 -2.5333 0
M  V30 2351 H 224.642 -3.63656 -0.877775 0
M  V30 2352 H 225.975 -4.77994 -1.17401 0
M  V30 2353 N 227.627 0.131896 -1.57047 0
M  V30 2354 C 228.904 0.871495 -1.75112 0
M  V30 2355 C 229.284 1.9866 -0.713949 0
M  V30 2356 O 228.632 2.26965 0.264447 0
M  V30 2357 C 228.842 1.40007 -3.19686 0
M  V30 2358 C 230.19 1.85752 -3.81813 0
M  V30 2359 O 231.214 1.49715 -3.23209 0
M  V30 2360 O 230.073 2.5226 -4.84796 0
M  V30 2361 H 227.167 0.412919 -0.716538 0
M  V30 2362 H 229.713 0.116641 -1.69299 0
M  V30 2363 H 228.485 0.599404 -3.86682 0
M  V30 2364 H 228.108 2.218 -3.29986 0
M  V30 2365 N 229.106 1.52395 0.401703 0
M  V30 2366 C 230.517 1.58899 0.980202 0
M  V30 2367 C 230.868 0.434032 1.91339 0
M  V30 2368 O 229.993 -0.444619 2.11783 0
M  V30 2369 C 230.588 2.87994 1.78451 0
M  V30 2370 C 229.147 2.96953 2.31292 0
M  V30 2371 C 228.294 2.53903 1.11483 0
M  V30 2372 H 231.245 1.57657 0.18168 0
M  V30 2373 H 231.266 2.73765 2.64259 0
M  V30 2374 H 230.778 3.72035 1.10506 0
M  V30 2375 H 228.879 2.17422 3.02586 0
M  V30 2376 H 228.992 4.01344 2.61649 0
M  V30 2377 H 227.356 2.07925 1.47104 0
M  V30 2378 H 228.139 3.40326 0.450928 0
M  V30 2379 N 230.584 -0.659388 1.43143 0
M  V30 2380 C 231.83 -1.42145 1.44647 0
M  V30 2381 C 232.163 -1.9408 0.0681907 0
M  V30 2382 O 231.438 -1.71899 -0.910007 0
M  V30 2383 C 231.721 -2.60735 2.48373 0
M  V30 2384 C 231.574 -2.14332 3.95451 0
M  V30 2385 C 232.893 -3.62951 2.48906 0
M  V30 2386 H 230.012 -0.51552 0.526696 0
M  V30 2387 H 232.654 -0.748069 1.74654 0
M  V30 2388 H 230.804 -3.18184 2.22916 0
M  V30 2389 H 232.476 -1.61932 4.31944 0
M  V30 2390 H 230.719 -1.4576 4.08578 0
M  V30 2391 H 231.39 -2.99583 4.63631 0
M  V30 2392 H 233.866 -3.1525 2.71582 0
M  V30 2393 H 232.742 -4.43487 3.23435 0
M  V30 2394 H 233.003 -4.15126 1.52061 0
M  V30 2395 N 232.062 -1.29571 -0.897171 0
M  V30 2396 C 233.308 -1.17863 -1.65034 0
M  V30 2397 C 233.641 0.268729 -1.92332 0
M  V30 2398 O 232.916 1.19378 -1.53555 0
M  V30 2399 C 233.199 -1.995 -2.99786 0
M  V30 2400 C 233.052 -3.5239 -2.79538 0
M  V30 2401 C 234.371 -1.82335 -4.00552 0
M  V30 2402 H 231.49 -0.429528 -0.598895 0
M  V30 2403 H 234.132 -1.59072 -1.03905 0
M  V30 2404 H 232.282 -1.64485 -3.51962 0
M  V30 2405 H 233.954 -3.97401 -2.34244 0
M  V30 2406 H 232.197 -3.77187 -2.14273 0
M  V30 2407 H 232.868 -4.04787 -3.75302 0
M  V30 2408 H 235.344 -2.12924 -3.57495 0
M  V30 2409 H 234.22 -2.41801 -4.92771 0
M  V30 2410 H 234.481 -0.779209 -4.35179 0
M  V30 2411 N 233.54 1.10788 -1.12088 0
M  V30 2412 C 234.786 1.82942 -0.875226 0
M  V30 2413 C 235.119 1.84779 0.597538 0
M  V30 2414 O 234.394 1.30578 1.44152 0
M  V30 2415 C 234.677 3.29789 -1.44606 0
M  V30 2416 C 234.53 3.36307 -2.98693 0
M  V30 2417 C 235.849 4.26064 -1.10261 0
M  V30 2418 H 232.968 0.664195 -0.319397 0
M  V30 2419 H 235.61 1.29867 -1.38689 0
M  V30 2420 H 233.76 3.75118 -1.01089 0
M  V30 2421 H 235.432 2.99487 -3.50864 0
M  V30 2422 H 233.675 2.76318 -3.34411 0
M  V30 2423 H 234.346 4.39694 -3.33726 0
M  V30 2424 H 236.822 3.88951 -1.4784 0
M  V30 2425 H 235.698 5.27183 -1.52869 0
M  V30 2426 H 235.959 4.42098 -0.0142953 0
M  V30 2427 N 235.018 0.912232 1.28515 0
M  V30 2428 C 236.246 0.560416 1.99166 0
M  V30 2429 C 236.661 -0.857927 1.68182 0
M  V30 2430 O 236.018 -1.56805 0.933733 0
M  V30 2431 C 236.069 0.758142 3.53461 0
M  V30 2432 O 235.79 2.12067 3.83352 0
M  V30 2433 C 237.291 0.412954 4.41372 0
M  V30 2434 H 234.511 0.213805 0.636026 0
M  V30 2435 H 237.055 1.22502 1.63749 0
M  V30 2436 H 235.21 0.140556 3.87145 0
M  V30 2437 H 235.624 2.15923 4.77993 0
M  V30 2438 H 237.098 0.60208 5.48707 0
M  V30 2439 H 237.575 -0.65073 4.34353 0
M  V30 2440 H 238.181 1.00802 4.13182 0
M  V30 2441 N 236.496 -1.42363 0.676048 0
M  V30 2442 C 237.443 -2.308 -0.00150904 0
M  V30 2443 C 238.413 -1.46032 -0.791444 0
M  V30 2444 O 239.598 -1.74861 -0.76344 0
M  V30 2445 C 236.738 -3.31883 -0.945919 0
M  V30 2446 C 235.851 -4.31741 -0.149675 0
M  V30 2447 C 234.986 -5.19898 -1.08995 0
M  V30 2448 C 234.025 -6.11434 -0.285465 0
M  V30 2449 N 233.162 -6.92138 -1.17851 0
M  V30 2450 H 238.002 -2.88187 0.758455 0
M  V30 2451 H 235.539 -1.41952 0.38576 0
M  V30 2452 H 237.497 -3.89019 -1.50731 0
M  V30 2453 H 236.127 -2.76093 -1.6725 0
M  V30 2454 H 235.179 -3.76713 0.528359 0
M  V30 2455 H 236.491 -4.96534 0.474866 0
M  V30 2456 H 235.645 -5.81772 -1.72123 0
M  V30 2457 H 234.384 -4.55284 -1.74837 0
M  V30 2458 H 233.389 -5.48627 0.359018 0
M  V30 2459 H 234.614 -6.78097 0.368883 0
M  V30 2460 H 232.56 -6.30152 -1.82332 0
M  V30 2461 H 232.477 -7.53542 -0.609082 0
M  V30 2462 H 233.745 -7.58499 -1.79722 0
M  V30 2463 N 237.974 -0.419461 -1.51915 0
M  V30 2464 C 238.937 0.389116 -2.25873 0
M  V30 2465 C 239.937 0.964924 -1.28631 0
M  V30 2466 O 241.127 0.842179 -1.52489 0
M  V30 2467 C 238.259 1.54874 -3.03689 0
M  V30 2468 H 239.452 -0.258799 -2.98781 0
M  V30 2469 H 237.005 -0.172209 -1.55348 0
M  V30 2470 H 237.74 2.23323 -2.35154 0
M  V30 2471 H 237.525 1.14223 -3.75094 0
M  V30 2472 H 239.015 2.12046 -3.59759 0
M  V30 2473 N 239.452 1.56882 -0.150215 0
M  V30 2474 C 240.415 2.1573 0.774157 0
M  V30 2475 C 241.415 1.0999 1.17298 0
M  V30 2476 O 242.605 1.35613 1.09338 0
M  V30 2477 C 239.737 2.72302 2.05096 0
M  V30 2478 H 240.93 2.98752 0.262201 0
M  V30 2479 H 238.483 1.55985 0.099248 0
M  V30 2480 H 239.218 1.92956 2.6065 0
M  V30 2481 H 239.003 3.49665 1.77416 0
M  V30 2482 H 240.493 3.17632 2.71109 0
M  V30 2483 N 240.93 -0.123565 1.57115 0
M  V30 2484 C 241.863 -1.18202 1.95201 0
M  V30 2485 C 242.841 -1.40349 0.821031 0
M  V30 2486 O 244.025 -1.54578 1.07879 0
M  V30 2487 C 241.152 -2.53671 2.24429 0
M  V30 2488 C 240.198 -2.4798 3.46999 0
M  V30 2489 S 241.031 -1.92389 4.99747 0
M  V30 2490 C 242.187 -3.2954 5.32123 0
M  V30 2491 H 242.42 -0.857212 2.84674 0
M  V30 2492 H 239.953 -0.33014 1.50829 0
M  V30 2493 H 241.911 -3.3162 2.41947 0
M  V30 2494 H 240.572 -2.83332 1.35579 0
M  V30 2495 H 239.765 -3.47758 3.64801 0
M  V30 2496 H 239.367 -1.7815 3.28844 0
M  V30 2497 H 241.659 -4.25736 5.27025 0
M  V30 2498 H 242.602 -3.16569 6.33395 0
M  V30 2499 H 243.01 -3.27758 4.59603 0
M  V30 2500 N 242.408 -1.52605 -0.393616 0
M  V30 2501 C 243.657 -1.66649 -1.13627 0
M  V30 2502 C 243.97 -0.410364 -1.91247 0
M  V30 2503 O 245.176 -0.430854 -2.68059 0
M  V30 2504 C 243.632 -2.9449 -2.06891 0
M  V30 2505 C 243.24 -4.27266 -1.34714 0
M  V30 2506 C 244.984 -3.17899 -2.81319 0
M  V30 2507 C 242.891 -5.46217 -2.26717 0
M  V30 2508 H 241.821 -0.62084 -0.427871 0
M  V30 2509 H 244.472 -1.791 -0.399428 0
M  V30 2510 H 242.854 -2.75774 -2.84191 0
M  V30 2511 H 244.028 -4.56518 -0.626714 0
M  V30 2512 H 242.343 -4.10081 -0.722643 0
M  V30 2513 H 244.94 -4.03949 -3.50328 0
M  V30 2514 H 245.283 -2.32777 -3.45139 0
M  V30 2515 H 245.816 -3.37159 -2.11113 0
M  V30 2516 H 242.555 -6.33733 -1.67521 0
M  V30 2517 H 242.075 -5.21283 -2.96689 0
M  V30 2518 H 243.754 -5.7991 -2.86903 0
M  V30 2519 N 243.887 0.651787 -1.4349 0
M  V30 2520 C 245.133 1.41376 -1.45398 0
M  V30 2521 C 245.466 1.94041 -0.0784823 0
M  V30 2522 O 244.741 1.72379 0.900878 0
M  V30 2523 C 245.024 2.59414 -2.49752 0
M  V30 2524 C 244.877 2.12232 -3.96582 0
M  V30 2525 C 246.196 3.61626 -2.50827 0
M  V30 2526 H 243.315 0.512719 -0.529422 0
M  V30 2527 H 245.957 0.738796 -1.75048 0
M  V30 2528 H 244.107 3.16997 -2.246 0
M  V30 2529 H 245.779 1.59639 -4.32797 0
M  V30 2530 H 244.022 1.43592 -4.09346 0
M  V30 2531 H 244.693 2.9712 -4.65214 0
M  V30 2532 H 247.169 3.13805 -2.7325 0
M  V30 2533 H 246.045 4.41766 -3.25783 0
M  V30 2534 H 246.306 4.14314 -1.5426 0
M  V30 2535 N 245.365 1.30045 0.890287 0
M  V30 2536 C 246.313 1.15873 2.01683 0
M  V30 2537 C 247.307 0.0719403 1.69247 0
M  V30 2538 O 248.513 0.232414 1.78493 0
M  V30 2539 H 244.888 0.358203 0.661207 0
M  V30 2540 H 246.859 2.11229 2.10772 0
M  V30 2541 C 245.608 0.861842 3.36849 0
M  V30 2542 H 244.931 1.69016 3.62317 0
M  V30 2543 H 246.371 0.802762 4.16331 0
M  V30 2544 C 244.83 -0.435132 3.34078 0
M  V30 2545 O 245.36 -1.4583 3.74295 0
M  V30 2546 N 243.566 -0.444377 2.87182 0
M  V30 2547 H 243.113 0.388723 2.5465 0
M  V30 2548 H 243.071 -1.31213 2.85711 0
M  V30 2549 N 246.843 -1.10192 1.12674 0
M  V30 2550 C 247.775 -2.16418 0.754701 0
M  V30 2551 C 248.788 -1.61309 -0.21986 0
M  V30 2552 O 249.977 -1.785 -0.000826841 0
M  V30 2553 C 247.077 -3.38762 0.096698 0
M  V30 2554 C 246.25 -4.23307 1.10136 0
M  V30 2555 C 245.309 -5.24092 0.470513 0
M  V30 2556 O 244.335 -5.57906 1.12824 0
M  V30 2557 N 245.537 -5.75491 -0.760948 0
M  V30 2558 H 248.302 -2.48943 1.66875 0
M  V30 2559 H 245.863 -1.25834 1.01869 0
M  V30 2560 H 247.855 -4.03291 -0.337384 0
M  V30 2561 H 246.425 -3.04192 -0.720153 0
M  V30 2562 H 245.645 -3.55036 1.71299 0
M  V30 2563 H 246.933 -4.76624 1.78064 0
M  V30 2564 H 246.331 -5.50222 -1.31424 0
M  V30 2565 H 244.888 -6.41792 -1.13781 0
M  V30 2566 N 248.321 -0.919034 -1.28029 0
M  V30 2567 C 249.251 -0.428581 -2.29533 0
M  V30 2568 C 250.232 0.50659 -1.62381 0
M  V30 2569 O 251.417 0.413195 -1.89753 0
M  V30 2570 C 248.547 0.327388 -3.45753 0
M  V30 2571 C 247.501 -0.519137 -4.2484 0
M  V30 2572 C 246.827 0.365486 -5.33449 0
M  V30 2573 C 248.127 -1.77914 -4.91064 0
M  V30 2574 H 249.821 -1.27687 -2.70807 0
M  V30 2575 H 247.367 -0.615428 -1.30186 0
M  V30 2576 H 249.32 0.681378 -4.15855 0
M  V30 2577 H 248.044 1.20963 -3.03374 0
M  V30 2578 H 246.703 -0.855717 -3.56473 0
M  V30 2579 H 246.351 1.24642 -4.87312 0
M  V30 2580 H 246.051 -0.197356 -5.87268 0
M  V30 2581 H 247.575 0.715241 -6.06396 0
M  V30 2582 H 248.989 -1.49374 -5.53498 0
M  V30 2583 H 247.386 -2.2848 -5.54903 0
M  V30 2584 H 248.456 -2.50382 -4.15255 0
M  V30 2585 N 249.799 1.42003 -0.683588 0
M  V30 2586 C 251.024 2.06265 -0.216647 0
M  V30 2587 C 251.449 1.51059 1.12083 0
M  V30 2588 O 250.807 0.632638 1.69904 0
M  V30 2589 C 250.855 3.60191 -0.171759 0
M  V30 2590 O 249.959 4.03396 0.857069 0
M  V30 2591 H 249.3 0.65502 -0.108834 0
M  V30 2592 H 251.83 1.81982 -0.935077 0
M  V30 2593 H 251.84 4.08 0.0014303 0
M  V30 2594 H 250.515 3.99743 -1.14796 0
M  V30 2595 H 249.092 3.67117 0.654208 0
M  V30 2596 N 251.277 0.427512 1.51691 0
M  V30 2597 C 252.224 -0.388867 2.275 0
M  V30 2598 C 253.194 -1.02532 1.30677 0
M  V30 2599 O 254.379 -1.0461 1.59566 0
M  V30 2600 C 251.519 -1.48954 3.11298 0
M  V30 2601 C 250.632 -0.872194 4.23104 0
M  V30 2602 C 249.767 -1.94709 4.94228 0
M  V30 2603 C 248.806 -1.30766 5.97969 0
M  V30 2604 N 247.943 -2.32349 6.62539 0
M  V30 2605 H 252.783 0.263997 2.96828 0
M  V30 2606 H 250.32 0.142033 1.46413 0
M  V30 2607 H 252.278 -2.13887 3.58201 0
M  V30 2608 H 250.908 -2.11217 2.44105 0
M  V30 2609 H 249.96 -0.111419 3.80237 0
M  V30 2610 H 251.272 -0.365264 4.97461 0
M  V30 2611 H 250.426 -2.67327 5.44629 0
M  V30 2612 H 249.165 -2.48773 4.1948 0
M  V30 2613 H 248.17 -0.566902 5.4687 0
M  V30 2614 H 249.395 -0.774483 6.74669 0
M  V30 2615 H 247.341 -2.85511 5.90609 0
M  V30 2616 H 247.258 -1.8652 7.3263 0
M  V30 2617 H 248.526 -3.04481 7.17574 0
M  V30 2618 N 252.755 -1.56801 0.158532 0
M  V30 2619 C 253.702 -2.17337 -0.776729 0
M  V30 2620 C 254.672 -1.1096 -1.23601 0
M  V30 2621 O 255.857 -1.39054 -1.30647 0
M  V30 2622 C 252.997 -2.80822 -2.00582 0
M  V30 2623 C 252.11 -4.01624 -1.59129 0
M  V30 2624 C 251.245 -4.53072 -2.77306 0
M  V30 2625 C 250.284 -5.66314 -2.32282 0
M  V30 2626 N 249.421 -6.12329 -3.43508 0
M  V30 2627 H 254.261 -2.96918 -0.253701 0
M  V30 2628 H 251.798 -1.46661 -0.113504 0
M  V30 2629 H 253.756 -3.15779 -2.72652 0
M  V30 2630 H 252.386 -2.03866 -2.50277 0
M  V30 2631 H 251.438 -3.72571 -0.767806 0
M  V30 2632 H 252.75 -4.83633 -1.2207 0
M  V30 2633 H 251.904 -4.90145 -3.57551 0
M  V30 2634 H 250.643 -3.70095 -3.17617 0
M  V30 2635 H 249.648 -5.28806 -1.5048 0
M  V30 2636 H 250.873 -6.51085 -1.93043 0
M  V30 2637 H 248.819 -5.32284 -3.83418 0
M  V30 2638 H 248.736 -6.89293 -3.105 0
M  V30 2639 H 250.004 -6.5405 -4.24075 0
M  V30 2640 N 254.233 0.115231 -1.57178 0
M  V30 2641 C 255.143 1.15994 -2.03918 0
M  V30 2642 C 256.159 1.45103 -0.960268 0
M  V30 2643 O 257.335 1.56144 -1.27204 0
M  V30 2644 C 254.4 2.46568 -2.43732 0
M  V30 2645 C 253.461 2.24822 -3.65723 0
M  V30 2646 C 252.694 3.4917 -4.03629 0
M  V30 2647 O 252.917 4.56623 -3.41835 0
M  V30 2648 O 251.851 3.39949 -4.96708 0
M  V30 2649 H 255.677 0.793019 -2.93164 0
M  V30 2650 H 253.262 0.3263 -1.45793 0
M  V30 2651 H 255.144 3.23492 -2.70057 0
M  V30 2652 H 253.819 2.82726 -1.57631 0
M  V30 2653 H 252.726 1.45744 -3.44542 0
M  V30 2654 H 254.059 1.93566 -4.52541 0
M  V30 2655 N 255.711 1.52812 0.385517 0
M  V30 2656 C 256.674 1.77188 1.45386 0
M  V30 2657 C 257.674 0.641953 1.4743 0
M  V30 2658 O 258.864 0.910033 1.4854 0
M  V30 2659 C 255.996 1.87582 2.8465 0
M  V30 2660 H 257.189 2.72583 1.25054 0
M  V30 2661 H 254.742 1.43586 0.617467 0
M  V30 2662 H 255.477 0.941849 3.10322 0
M  V30 2663 H 255.262 2.69748 2.84567 0
M  V30 2664 H 256.752 2.08102 3.62054 0
M  V30 2665 N 257.189 -0.644168 1.43834 0
M  V30 2666 C 258.414 -1.43642 1.49605 0
M  V30 2667 C 258.839 -1.8773 0.117913 0
M  V30 2668 O 258.197 -1.57938 -0.890239 0
M  V30 2669 C 258.245 -2.6416 2.45463 0
M  V30 2670 O 257.349 -3.63538 1.94714 0
M  V30 2671 H 256.69 -0.430329 0.50568 0
M  V30 2672 H 259.22 -0.787448 1.8884 0
M  V30 2673 H 259.23 -3.11864 2.63068 0
M  V30 2674 H 257.905 -2.31414 3.45572 0
M  V30 2675 H 256.482 -3.2273 1.86814 0
M  V30 2676 N 258.668 -1.30515 -0.883378 0
M  V30 2677 C 260.084 -1.08881 -1.16692 0
M  V30 2678 C 260.284 0.149409 -2.00945 0
M  V30 2679 O 259.34 0.84257 -2.38027 0
M  V30 2680 C 260.653 -2.35319 -1.87204 0
M  V30 2681 C 262.201 -2.40799 -1.99962 0
M  V30 2682 C 262.676 -3.67083 -2.73887 0
M  V30 2683 N 264.167 -3.679 -2.81432 0
M  V30 2684 C 264.902 -4.62303 -3.3921 0
M  V30 2685 N 264.398 -5.67052 -3.98025 0
M  V30 2686 N 266.191 -4.49845 -3.3704 0
M  V30 2687 H 258.342 -2.09951 -0.321633 0
M  V30 2688 H 260.605 -0.92556 -0.205043 0
M  V30 2689 H 260.311 -3.25689 -1.3274 0
M  V30 2690 H 260.185 -2.44089 -2.87577 0
M  V30 2691 H 262.572 -1.50907 -2.53597 0
M  V30 2692 H 262.653 -2.36003 -0.98673 0
M  V30 2693 H 262.297 -4.57334 -2.20925 0
M  V30 2694 H 262.227 -3.69141 -3.75556 0
M  V30 2695 H 264.718 -2.92171 -2.39676 0
M  V30 2696 H 265.031 -6.35184 -4.40183 0
M  V30 2697 H 263.376 -5.70842 -3.96439 0
M  V30 2698 H 266.567 -3.67194 -2.90321 0
M  V30 2699 H 266.74 -5.23597 -3.81772 0
M  V30 2700 N 260.146 1.09593 -1.13257 0
M  V30 2701 C 261.562 1.33775 -0.870423 0
M  V30 2702 C 261.762 1.95327 0.494926 0
M  V30 2703 O 260.818 2.19853 1.2418 0
M  V30 2704 C 262.131 2.25106 -1.99369 0
M  V30 2705 C 263.679 2.3862 -2.02558 0
M  V30 2706 C 264.154 3.33285 -3.14142 0
M  V30 2707 N 265.645 3.40857 -3.13641 0
M  V30 2708 C 266.38 4.14101 -3.96621 0
M  V30 2709 N 265.876 4.90157 -4.8961 0
M  V30 2710 N 267.669 4.09808 -3.84726 0
M  V30 2711 H 259.82 0.680136 -2.01216 0
M  V30 2712 H 262.083 0.362133 -0.876107 0
M  V30 2713 H 261.789 1.87103 -2.97801 0
M  V30 2714 H 261.663 3.25481 -1.90635 0
M  V30 2715 H 264.05 2.75887 -1.0474 0
M  V30 2716 H 264.131 1.38028 -2.15364 0
M  V30 2717 H 263.775 2.96741 -4.12198 0
M  V30 2718 H 263.705 4.33776 -2.98574 0
M  V30 2719 H 266.196 2.86624 -2.46282 0
M  V30 2720 H 266.509 5.4347 -5.49418 0
M  V30 2721 H 264.854 4.89251 -4.93617 0
M  V30 2722 H 268.045 3.4949 -3.11408 0
M  V30 2723 H 268.218 4.66629 -4.49623 0
M  V30 2724 N 261.624 0.925811 1.2754 0
M  V30 2725 C 262.587 0.428129 2.25166 0
M  V30 2726 C 263.587 -0.452261 1.54309 0
M  V30 2727 O 264.777 -0.253608 1.72344 0
M  V30 2728 C 261.909 -0.384749 3.38722 0
M  V30 2729 H 263.102 1.29066 2.70706 0
M  V30 2730 H 260.655 0.706323 1.3943 0
M  V30 2731 H 261.39 -1.26618 2.98561 0
M  V30 2732 H 261.175 0.246454 3.91325 0
M  V30 2733 H 262.665 -0.723389 4.11287 0
M  V30 2734 N 263.102 -1.41638 0.69111 0
M  V30 2735 C 264.032 -2.3347 0.037248 0
M  V30 2736 C 265.013 -1.51575 -0.771947 0
M  V30 2737 O 266.198 -1.80126 -0.72582 0
M  V30 2738 C 263.328 -3.35354 -0.903064 0
M  V30 2739 C 262.282 -4.27526 -0.201288 0
M  V30 2740 C 261.608 -5.19747 -1.25565 0
M  V30 2741 C 262.908 -5.13959 0.929689 0
M  V30 2742 H 264.602 -2.88397 0.804227 0
M  V30 2743 H 262.148 -1.38669 0.388189 0
M  V30 2744 H 264.101 -3.98519 -1.36969 0
M  V30 2745 H 262.825 -2.78767 -1.70166 0
M  V30 2746 H 261.484 -3.65779 0.245265 0
M  V30 2747 H 261.132 -4.59479 -2.04666 0
M  V30 2748 H 260.832 -5.8225 -0.791128 0
M  V30 2749 H 262.356 -5.85789 -1.72288 0
M  V30 2750 H 263.77 -5.70718 0.543546 0
M  V30 2751 H 262.167 -5.85379 1.32103 0
M  V30 2752 H 263.237 -4.51389 1.77133 0
M  V30 2753 N 264.58 -0.43555 -1.51462 0
M  V30 2754 C 265.513 0.421989 -2.24264 0
M  V30 2755 C 266.491 1.02619 -1.26127 0
M  V30 2756 O 267.675 1.069 -1.55257 0
M  V30 2757 C 264.802 1.588 -2.99166 0
M  V30 2758 C 263.848 1.10465 -4.11946 0
M  V30 2759 S 264.681 0.048146 -5.35478 0
M  V30 2760 C 265.837 1.21887 -6.13917 0
M  V30 2761 H 266.07 -0.196102 -2.96653 0
M  V30 2762 H 263.603 -0.220054 -1.52824 0
M  V30 2763 H 265.561 2.25647 -3.42919 0
M  V30 2764 H 264.222 2.1775 -2.26371 0
M  V30 2765 H 263.415 1.97654 -4.63626 0
M  V30 2766 H 263.017 0.51445 -3.70445 0
M  V30 2767 H 265.309 2.13756 -6.42895 0
M  V30 2768 H 266.252 0.742076 -7.04201 0
M  V30 2769 H 266.66 1.45663 -5.45383 0
M  V30 2770 N 266.058 1.56714 -0.166846 0
M  V30 2771 C 267.306 1.96358 0.478305 0
M  V30 2772 C 267.627 1.0537 1.6408 0
M  V30 2773 O 266.897 0.119154 1.95537 0
M  V30 2774 H 265.477 0.725065 0.179692 0
M  V30 2775 H 268.139 1.93329 -0.246985 0
M  V30 2776 H 267.235 3.00547 0.841292 0
M  V30 2777 N 267.536 -0.106894 1.57237 0
M  V30 2778 C 268.761 -0.830287 1.90055 0
M  V30 2779 C 269.186 -1.72064 0.75998 0
M  V30 2780 O 268.544 -1.78982 -0.288991 0
M  V30 2781 C 268.592 -1.6295 3.21683 0
M  V30 2782 O 267.696 -2.73748 3.08441 0
M  V30 2783 H 267.037 -0.228855 0.623315 0
M  V30 2784 H 269.567 -0.085658 2.04421 0
M  V30 2785 H 269.577 -2.01621 3.54701 0
M  V30 2786 H 268.252 -0.975989 4.04286 0
M  V30 2787 H 266.829 -2.38192 2.86913 0
M  V30 2788 N 269.014 -1.53014 -0.377408 0
M  V30 2789 C 270.425 -1.60438 -0.954798 0
M  V30 2790 C 270.776 -0.464418 -1.90624 0
M  V30 2791 O 269.901 0.41087 -2.12464 0
M  V30 2792 C 270.496 -2.90797 -1.73847 0
M  V30 2793 C 269.055 -3.00595 -2.26538 0
M  V30 2794 C 268.202 -2.55645 -1.07429 0
M  V30 2795 H 271.153 -1.57926 -0.156575 0
M  V30 2796 H 271.174 -2.77935 -2.5987 0
M  V30 2797 H 270.686 -3.73746 -1.04574 0
M  V30 2798 H 268.787 -2.22208 -2.99089 0
M  V30 2799 H 268.9 -4.05456 -2.5523 0
M  V30 2800 H 267.264 -2.10239 -1.43777 0
M  V30 2801 H 268.047 -3.41 -0.396728 0
M  V30 2802 N 270.492 0.636531 -1.44174 0
M  V30 2803 C 271.424 1.7618 -1.46606 0
M  V30 2804 C 272.437 1.58768 -0.360091 0
M  V30 2805 O 273.626 1.67181 -0.625518 0
M  V30 2806 C 270.726 3.13833 -1.27915 0
M  V30 2807 C 269.899 3.57753 -2.51658 0
M  V30 2808 C 268.958 4.74265 -2.27945 0
M  V30 2809 O 267.984 4.82852 -3.01401 0
M  V30 2810 N 269.186 5.65604 -1.30662 0
M  V30 2811 H 271.951 1.74567 -2.43612 0
M  V30 2812 H 269.512 0.820924 -1.39544 0
M  V30 2813 H 271.504 3.8949 -1.09907 0
M  V30 2814 H 270.074 3.10121 -0.39293 0
M  V30 2815 H 269.294 2.72362 -2.84978 0
M  V30 2816 H 270.582 3.83847 -3.33974 0
M  V30 2817 H 269.98 5.61354 -0.699844 0
M  V30 2818 H 268.537 6.40913 -1.18634 0
M  V30 2819 N 271.97 1.30982 0.876444 0
M  V30 2820 C 272.9 1.20668 1.99903 0
M  V30 2821 C 273.881 0.095354 1.69833 0
M  V30 2822 O 275.066 0.27885 1.92188 0
M  V30 2823 C 272.196 0.90655 3.3526 0
M  V30 2824 C 271.15 1.97675 3.79617 0
M  V30 2825 C 270.476 1.52943 5.1236 0
M  V30 2826 C 271.776 3.389 3.97422 0
M  V30 2827 H 273.47 2.14586 2.0879 0
M  V30 2828 H 271.016 1.03308 1.00317 0
M  V30 2829 H 272.969 0.821025 4.13324 0
M  V30 2830 H 271.693 -0.0682969 3.26529 0
M  V30 2831 H 270.352 2.05205 3.03787 0
M  V30 2832 H 270 0.54262 5.00065 0
M  V30 2833 H 269.7 2.24532 5.43009 0
M  V30 2834 H 271.224 1.45786 5.92941 0
M  V30 2835 H 272.638 3.34081 4.659 0
M  V30 2836 H 271.035 4.0865 4.3946 0
M  V30 2837 H 272.105 3.80163 3.01006 0
M  V30 2838 N 273.449 -1.08991 1.13837 0
M  V30 2839 C 274.695 -1.81526 0.90422 0
M  V30 2840 C 275.028 -1.85706 -0.568066 0
M  V30 2841 O 274.303 -1.32855 -1.42056 0
M  V30 2842 C 274.586 -3.27447 1.49835 0
M  V30 2843 C 274.439 -3.31512 3.04006 0
M  V30 2844 C 275.758 -4.24256 1.17025 0
M  V30 2845 H 272.877 -0.659029 0.329923 0
M  V30 2846 H 275.519 -1.27644 1.40737 0
M  V30 2847 H 273.669 -3.73462 1.07044 0
M  V30 2848 H 275.341 -2.93867 3.55584 0
M  V30 2849 H 273.584 -2.70963 3.38765 0
M  V30 2850 H 274.255 -4.34329 3.40679 0
M  V30 2851 H 276.731 -3.86549 1.54009 0
M  V30 2852 H 275.607 -5.24684 1.61237 0
M  V30 2853 H 275.868 -4.42019 0.0846274 0
M  V30 2854 N 274.927 -0.932562 -1.27047 0
M  V30 2855 C 275.89 -0.440064 -2.24936 0
M  V30 2856 C 276.89 0.444071 -1.54547 0
M  V30 2857 O 278.08 0.244465 -1.72476 0
M  V30 2858 C 275.212 0.36678 -3.38921 0
M  V30 2859 H 276.405 -1.305 -2.70018 0
M  V30 2860 H 273.958 -0.713707 -1.39054 0
M  V30 2861 H 274.693 1.25033 -2.99228 0
M  V30 2862 H 274.478 -0.267204 -3.91188 0
M  V30 2863 H 275.968 0.701567 -4.11665 0
M  V30 2864 N 276.405 1.4127 -0.698611 0
M  V30 2865 C 277.368 2.29158 -0.044132 0
M  V30 2866 C 278.368 1.44529 0.704841 0
M  V30 2867 O 279.558 1.65643 0.539276 0
M  V30 2868 C 276.69 3.27459 0.947809 0
M  V30 2869 H 277.883 2.88529 -0.817994 0
M  V30 2870 H 275.436 1.49307 -0.46228 0
M  V30 2871 H 276.171 2.73073 1.74933 0
M  V30 2872 H 275.956 3.8991 0.41385 0
M  V30 2873 H 277.446 3.93311 1.40344 0
M  V30 2874 N 277.883 0.443576 1.51229 0
M  V30 2875 C 279.129 -0.120975 2.02439 0
M  V30 2876 C 279.462 -1.41815 1.32674 0
M  V30 2877 O 278.737 -1.89373 0.443622 0
M  V30 2878 C 279.02 -0.333291 3.58554 0
M  V30 2879 C 278.873 0.982968 4.38928 0
M  V30 2880 C 280.192 -1.10028 4.26124 0
M  V30 2881 H 277.311 -0.0424923 0.735774 0
M  V30 2882 H 279.953 0.583794 1.80809 0
M  V30 2883 H 278.103 -0.933614 3.77115 0
M  V30 2884 H 279.775 1.61775 4.32003 0
M  V30 2885 H 278.018 1.58611 4.03763 0
M  V30 2886 H 278.689 0.788379 5.46341 0
M  V30 2887 H 281.165 -0.591711 4.11871 0
M  V30 2888 H 280.041 -1.21761 5.35225 0
M  V30 2889 H 280.302 -2.12996 3.87408 0
M  V30 2890 N 279.361 -1.56624 0.175154 0
M  V30 2891 C 280.607 -1.9729 -0.469506 0
M  V30 2892 C 280.94 -1.06128 -1.62636 0
M  V30 2893 O 280.215 -0.109183 -1.94193 0
M  V30 2894 C 280.498 -3.47375 -0.948804 0
M  V30 2895 C 280.351 -4.49317 0.208491 0
M  V30 2896 C 281.67 -4.00652 -1.82116 0
M  V30 2897 H 278.789 -0.717317 -0.16919 0
M  V30 2898 H 281.431 -1.88184 0.262062 0
M  V30 2899 H 279.581 -3.55267 -1.57219 0
M  V30 2900 H 281.253 -4.53482 0.845682 0
M  V30 2901 H 279.496 -4.25121 0.863395 0
M  V30 2902 H 280.167 -5.51741 -0.169059 0
M  V30 2903 H 282.643 -3.95416 -1.2956 0
M  V30 2904 H 281.519 -5.06075 -2.12554 0
M  V30 2905 H 281.78 -3.44699 -2.7683 0
M  V30 2906 N 280.839 0.0985539 -1.57292 0
M  V30 2907 C 282.255 0.45267 -1.53046 0
M  V30 2908 C 282.455 1.80713 -0.891342 0
M  V30 2909 O 281.511 2.4785 -0.482375 0
M  V30 2910 C 282.824 0.418341 -2.97776 0
M  V30 2911 C 284.372 0.500443 -3.08973 0
M  V30 2912 C 284.847 0.496297 -4.55303 0
M  V30 2913 N 286.338 0.557151 -4.59837 0
M  V30 2914 C 287.073 0.575726 -5.70502 0
M  V30 2915 N 286.569 0.550714 -6.90608 0
M  V30 2916 N 288.362 0.620277 -5.58667 0
M  V30 2917 H 280.513 -0.788673 -1.97215 0
M  V30 2918 H 282.776 -0.293188 -0.901524 0
M  V30 2919 H 282.482 -0.509659 -3.47988 0
M  V30 2920 H 282.356 1.2386 -3.56284 0
M  V30 2921 H 284.743 1.41886 -2.58751 0
M  V30 2922 H 284.824 -0.347894 -2.53423 0
M  V30 2923 H 284.468 -0.418162 -5.06176 0
M  V30 2924 H 284.398 1.3618 -5.08687 0
M  V30 2925 H 286.889 0.581816 -3.73394 0
M  V30 2926 H 287.202 0.568075 -7.70709 0
M  V30 2927 H 285.547 0.517816 -6.93068 0
M  V30 2928 H 288.738 0.637322 -4.63741 0
M  V30 2929 H 288.911 0.631283 -6.44918 0
M  V30 2930 N 282.317 1.53212 0.369288 0
M  V30 2931 C 283.545 1.73119 1.13303 0
M  V30 2932 C 283.96 0.458455 1.83149 0
M  V30 2933 O 283.317 -0.568403 1.73423 0
M  V30 2934 C 283.368 2.89413 2.16616 0
M  V30 2935 O 283.089 4.11761 1.49614 0
M  V30 2936 C 284.59 3.21161 3.05566 0
M  V30 2937 H 281.81 0.579107 0.338934 0
M  V30 2938 H 284.354 1.99942 0.429338 0
M  V30 2939 H 282.509 2.64994 2.82589 0
M  V30 2940 H 282.923 4.76858 2.18419 0
M  V30 2941 H 284.397 4.05949 3.74045 0
M  V30 2942 H 284.874 2.36369 3.70171 0
M  V30 2943 H 285.48 3.47492 2.45213 0
M  V30 2944 N 283.795 -0.628877 1.44509 0
M  V30 2945 C 284.728 -1.75367 1.46019 0
M  V30 2946 C 285.706 -1.59444 0.318787 0
M  V30 2947 O 286.89 -1.81297 0.516099 0
M  V30 2948 C 284.017 -3.12965 1.29501 0
M  V30 2949 C 283.063 -3.47532 2.47233 0
M  V30 2950 S 283.896 -3.44758 4.09758 0
M  V30 2951 C 285.052 -4.84973 3.95667 0
M  V30 2952 H 285.285 -1.7382 2.41193 0
M  V30 2953 H 282.818 -0.803686 1.31834 0
M  V30 2954 H 284.776 -3.92367 1.20658 0
M  V30 2955 H 283.437 -3.12049 0.358341 0
M  V30 2956 H 282.63 -4.47664 2.31544 0
M  V30 2957 H 282.232 -2.75598 2.52828 0
M  V30 2958 H 284.524 -5.74255 3.59496 0
M  V30 2959 H 285.467 -5.05716 4.95638 0
M  V30 2960 H 285.875 -4.59653 3.27688 0
M  V30 2961 N 285.273 -1.31445 -0.869486 0
M  V30 2962 C 286.205 -1.14955 -1.98287 0
M  V30 2963 C 287.218 -0.0885037 -1.62559 0
M  V30 2964 O 288.407 -0.336044 -1.75308 0
M  V30 2965 C 285.507 -0.734255 -3.3085 0
M  V30 2966 C 284.68 -1.88042 -3.94917 0
M  V30 2967 C 283.739 -1.4511 -5.05796 0
M  V30 2968 O 282.765 -2.16082 -5.2659 0
M  V30 2969 N 283.967 -0.338763 -5.79511 0
M  V30 2970 H 286.732 -2.10856 -2.12979 0
M  V30 2971 H 284.293 -1.23786 -1.04349 0
M  V30 2972 H 286.285 -0.42975 -4.02412 0
M  V30 2973 H 284.855 0.133158 -3.12316 0
M  V30 2974 H 284.075 -2.35222 -3.1633 0
M  V30 2975 H 285.363 -2.6481 -4.34457 0
M  V30 2976 H 284.761 0.252274 -5.65137 0
M  V30 2977 H 283.318 -0.0937925 -6.51733 0
M  V30 2978 N 286.751 1.08385 -1.14413 0
M  V30 2979 C 287.699 2.17406 -0.826888 0
M  V30 2980 C 288.693 1.6827 0.195312 0
M  V30 2981 O 289.899 1.79927 0.0513892 0
M  V30 2982 H 286.274 0.70934 -0.249681 0
M  V30 2983 H 288.245 2.41388 -1.75426 0
M  V30 2984 C 286.994 3.46215 -0.320979 0
M  V30 2985 H 286.317 3.84401 -1.0989 0
M  V30 2986 H 287.757 4.23777 -0.137549 0
M  V30 2987 C 286.216 3.23067 0.955472 0
M  V30 2988 O 286.746 3.4668 2.02918 0
M  V30 2989 N 284.952 2.7661 0.890798 0
M  V30 2990 H 284.499 2.57594 0.0168815 0
M  V30 2991 H 284.457 2.61501 1.74542 0
M  V30 2992 N 288.23 0.939286 1.26551 0
M  V30 2993 C 289.458 0.602536 1.97932 0
M  V30 2994 C 289.873 -0.82206 1.69964 0
M  V30 2995 O 289.23 -1.54789 0.966784 0
M  V30 2996 C 289.281 0.832946 3.51773 0
M  V30 2997 O 289.002 2.20151 3.78768 0
M  V30 2998 C 290.503 0.506483 4.40397 0
M  V30 2999 H 287.723 0.227248 0.631347 0
M  V30 3000 H 290.267 1.25948 1.61113 0
M  V30 3001 H 288.422 0.222644 3.8676 0
M  V30 3002 H 288.836 2.26013 4.73306 0
M  V30 3003 H 290.31 0.718333 5.47306 0
M  V30 3004 H 290.787 -0.558451 4.35635 0
M  V30 3005 H 291.393 1.09543 4.10951 0
M  V30 3006 N 289.708 -1.40897 0.706093 0
M  V30 3007 C 290.933 -2.05895 0.249435 0
M  V30 3008 C 291.358 -1.52823 -1.09666 0
M  V30 3009 O 290.716 -0.659589 -1.68876 0
M  V30 3010 C 290.764 -3.59872 0.22904 0
M  V30 3011 O 289.868 -4.04708 -0.792784 0
M  V30 3012 H 289.209 -0.653206 0.119241 0
M  V30 3013 H 291.739 -1.80471 0.96391 0
M  V30 3014 H 291.749 -4.07951 0.0634791 0
M  V30 3015 H 290.424 -3.97866 1.21141 0
M  V30 3016 H 289.001 -3.68111 -0.59572 0
M  V30 3017 N 291.186 -0.45159 -1.50991 0
M  V30 3018 C 292.463 0.170707 -1.94854 0
M  V30 3019 C 292.843 1.58788 -1.39103 0
M  V30 3020 O 292.191 2.20913 -0.583921 0
M  V30 3021 C 292.401 0.133929 -3.48743 0
M  V30 3022 C 293.749 0.33248 -4.23296 0
M  V30 3023 O 294.773 0.211403 -3.55572 0
M  V30 3024 O 293.632 0.57486 -5.43468 0
M  V30 3025 H 290.726 0.122264 -0.817912 0
M  V30 3026 H 293.272 -0.510594 -1.61836 0
M  V30 3027 H 292.044 -0.856283 -3.81816 0
M  V30 3028 H 291.667 0.857529 -3.88242 0
M  V30 3029 N 292.664 1.56529 -0.183458 0
M  V30 3030 C 293.594 2.21549 0.737456 0
M  V30 3031 C 294.575 1.17489 1.23005 0
M  V30 3032 O 295.76 1.45959 1.281 0
M  V30 3033 C 292.89 2.86575 1.96194 0
M  V30 3034 C 291.844 3.96778 1.60473 0
M  V30 3035 C 291.17 4.48911 2.90487 0
M  V30 3036 C 292.47 5.15767 0.823497 0
M  V30 3037 H 294.164 2.98761 0.195453 0
M  V30 3038 H 291.71 1.43702 0.0925686 0
M  V30 3039 H 293.663 3.30739 2.61131 0
M  V30 3040 H 292.387 2.06749 2.52828 0
M  V30 3041 H 291.046 3.53286 0.978997 0
M  V30 3042 H 290.694 3.65862 3.45186 0
M  V30 3043 H 290.394 5.23265 2.67335 0
M  V30 3044 H 291.918 4.95771 3.56432 0
M  V30 3045 H 293.332 5.56549 1.37571 0
M  V30 3046 H 291.729 5.96114 0.690551 0
M  V30 3047 H 292.799 4.84574 -0.177782 0
M  V30 3048 N 294.142 -0.090211 1.57342 0
M  V30 3049 C 295.419 -0.824761 1.77361 0
M  V30 3050 C 295.799 -1.96698 0.76637 0
M  V30 3051 O 295.147 -2.27586 -0.204179 0
M  V30 3052 C 295.357 -1.31481 3.23286 0
M  V30 3053 C 296.705 -1.75563 3.86604 0
M  V30 3054 O 297.729 -1.41093 3.27065 0
M  V30 3055 O 296.588 -2.39317 4.91314 0
M  V30 3056 H 293.682 -0.393776 0.727234 0
M  V30 3057 H 296.228 -0.0717138 1.69548 0
M  V30 3058 H 295 -0.496671 3.88135 0
M  V30 3059 H 294.623 -2.12973 3.35751 0
M  V30 3060 N 295.62 -1.53406 -0.361157 0
M  V30 3061 C 296.848 -1.73717 -1.12383 0
M  V30 3062 C 297.263 -0.468161 -1.82904 0
M  V30 3063 O 296.62 0.559198 -1.73722 0
M  V30 3064 C 296.671 -2.90558 -2.15078 0
M  V30 3065 O 296.392 -4.12549 -1.47428 0
M  V30 3066 C 297.893 -3.22777 -3.03858 0
M  V30 3067 H 295.113 -0.580896 -0.335858 0
M  V30 3068 H 297.657 -2.00167 -0.418728 0
M  V30 3069 H 295.812 -2.66489 -2.8118 0
M  V30 3070 H 296.226 -4.78009 -2.15887 0
M  V30 3071 H 297.7 -4.07927 -3.71887 0
M  V30 3072 H 298.177 -2.38329 -3.68912 0
M  V30 3073 H 298.783 -3.48787 -2.43367 0
M  V30 3074 N 297.098 0.621204 -1.44841 0
M  V30 3075 C 298.061 1.71459 -1.521 0
M  V30 3076 C 299.061 1.55696 -0.401933 0
M  V30 3077 O 300.251 1.61011 -0.664925 0
M  V30 3078 C 297.383 3.10624 -1.40447 0
M  V30 3079 H 298.576 1.66394 -2.49506 0
M  V30 3080 H 296.129 0.835745 -1.3208 0
M  V30 3081 H 296.864 3.21277 -0.441737 0
M  V30 3082 H 296.649 3.23473 -2.21602 0
M  V30 3083 H 298.139 3.90293 -1.4853 0
M  V30 3084 N 298.576 1.31904 0.862503 0
M  V30 3085 C 299.992 1.10724 1.14945 0
M  V30 3086 C 300.192 -0.117421 2.01158 0
M  V30 3087 O 299.248 -0.804595 2.39338 0
M  V30 3088 C 300.561 2.38267 1.83437 0
M  V30 3089 C 302.109 2.43949 1.96106 0
M  V30 3090 C 302.584 3.71394 2.68013 0
M  V30 3091 N 304.075 3.72331 2.75543 0
M  V30 3092 C 304.81 4.67641 3.31812 0
M  V30 3093 N 304.306 5.73313 3.88953 0
M  V30 3094 N 306.099 4.5515 3.29841 0
M  V30 3095 H 298.25 2.10436 0.288191 0
M  V30 3096 H 300.513 0.928705 0.190292 0
M  V30 3097 H 300.219 3.27759 1.27542 0
M  V30 3098 H 300.093 2.48633 2.83657 0
M  V30 3099 H 302.48 1.54922 2.51164 0
M  V30 3100 H 302.561 2.37543 0.949059 0
M  V30 3101 H 302.205 4.60791 2.13621 0
M  V30 3102 H 302.135 3.75069 3.69636 0
M  V30 3103 H 304.626 2.95947 2.34997 0
M  V30 3104 H 304.939 6.42107 4.30022 0
M  V30 3105 H 303.284 5.77077 3.87308 0
M  V30 3106 H 306.475 3.71766 2.84443 0
M  V30 3107 H 306.648 5.29604 3.73394 0
M  V30 3108 N 300.054 -1.07777 1.14986 0
M  V30 3109 C 301.294 -1.81888 0.932527 0
M  V30 3110 C 301.658 -1.84509 -0.531064 0
M  V30 3111 O 302.859 -2.54448 -0.866577 0
M  V30 3112 C 301.13 -3.23244 1.52473 0
M  V30 3113 S 302.689 -4.14154 1.44989 0
M  V30 3114 H 299.507 -0.626752 0.335712 0
M  V30 3115 H 302.109 -1.29503 1.46455 0
M  V30 3116 H 300.813 -3.18922 2.58296 0
M  V30 3117 H 300.344 -3.80704 0.991381 0
M  V30 3118 H 302.359 -4.94247 0.439799 0
M  V30 3119 N 301.532 -0.945985 -1.26051 0
M  V30 3120 C 302.76 -0.613025 -1.9761 0
M  V30 3121 C 303.175 0.813035 -1.70397 0
M  V30 3122 O 302.532 1.54274 -0.974979 0
M  V30 3123 C 302.583 -0.85159 -3.51326 0
M  V30 3124 O 302.304 -2.22157 -3.77595 0
M  V30 3125 C 303.805 -0.529831 -4.40122 0
M  V30 3126 H 301.025 -0.230593 -0.630133 0
M  V30 3127 H 303.569 -1.268 -1.60443 0
M  V30 3128 H 301.724 -0.243151 -3.86636 0
M  V30 3129 H 302.138 -2.2852 -4.721 0
M  V30 3130 H 303.612 -0.747348 -5.46917 0
M  V30 3131 H 304.089 0.535341 -4.35925 0
M  V30 3132 H 304.695 -1.11721 -4.10364 0
M  V30 3133 N 303.011 1.40521 -0.713556 0
M  V30 3134 C 304.239 2.05237 -0.261775 0
M  V30 3135 C 304.654 1.53755 1.09567 0
M  V30 3136 O 304.011 0.693268 1.6882 0
M  V30 3137 C 304.062 3.60763 -0.230706 0
M  V30 3138 O 303.783 4.10345 -1.53455 0
M  V30 3139 C 305.284 4.42651 0.239874 0
M  V30 3140 H 302.504 0.660533 -0.118057 0
M  V30 3141 H 305.048 1.79967 -0.971192 0
M  V30 3142 H 303.203 3.8501 0.429661 0
M  V30 3143 H 303.617 5.04526 -1.43366 0
M  V30 3144 H 305.091 5.51599 0.210468 0
M  V30 3145 H 305.568 4.20082 1.28171 0
M  V30 3146 H 306.174 4.23507 -0.390142 0
M  V30 3147 N 304.489 0.459591 1.5075 0
M  V30 3148 C 305.714 -0.0996819 2.0716 0
M  V30 3149 C 306.139 -1.33761 1.32249 0
M  V30 3150 O 305.497 -1.77551 0.366786 0
M  V30 3151 C 305.545 -0.378226 3.58611 0
M  V30 3152 O 304.649 -1.46081 3.85661 0
M  V30 3153 H 303.99 0.00791392 0.663953 0
M  V30 3154 H 306.52 0.647329 1.9409 0
M  V30 3155 H 306.53 -0.622135 4.03229 0
M  V30 3156 H 305.205 0.526439 4.12555 0
M  V30 3157 H 303.782 -1.20511 3.5289 0
M  V30 3158 N 305.967 -1.56429 0.191757 0
M  V30 3159 C 307.216 -1.9666 -0.448088 0
M  V30 3160 C 307.529 -1.08136 -1.62991 0
M  V30 3161 O 308.735 -1.38135 -2.33733 0
M  V30 3162 C 307.191 -3.49753 -0.848585 0
M  V30 3163 C 306.799 -4.46935 0.308764 0
M  V30 3164 C 308.543 -3.9876 -1.4557 0
M  V30 3165 C 306.45 -5.91293 -0.112506 0
M  V30 3166 H 305.38 -0.734312 -0.171179 0
M  V30 3167 H 308.031 -1.81301 0.283242 0
M  V30 3168 H 306.413 -3.60604 -1.63649 0
M  V30 3169 H 307.587 -4.47813 1.08627 0
M  V30 3170 H 305.902 -4.08102 0.827158 0
M  V30 3171 H 308.499 -5.04086 -1.78328 0
M  V30 3172 H 308.842 -3.42875 -2.36099 0
M  V30 3173 H 309.375 -3.9101 -0.731836 0
M  V30 3174 H 306.114 -6.51097 0.758514 0
M  V30 3175 H 305.634 -5.93676 -0.854941 0
M  V30 3176 H 307.313 -6.44663 -0.549448 0
M  V30 3177 N 307.445 0.0818655 -1.57387 0
M  V30 3178 C 308.375 1.09885 -2.06028 0
M  V30 3179 C 309.356 1.4098 -0.951774 0
M  V30 3180 O 310.541 1.50781 -1.22387 0
M  V30 3181 C 307.671 2.4151 -2.4958 0
M  V30 3182 C 306.625 2.24792 -3.64215 0
M  V30 3183 C 305.951 3.61712 -3.93787 0
M  V30 3184 C 307.251 1.67749 -4.94629 0
M  V30 3185 H 308.945 0.694128 -2.91243 0
M  V30 3186 H 306.491 0.332448 -1.4011 0
M  V30 3187 H 308.444 3.12939 -2.82219 0
M  V30 3188 H 307.168 2.83943 -1.61381 0
M  V30 3189 H 305.827 1.55807 -3.31843 0
M  V30 3190 H 305.475 4.01697 -3.02735 0
M  V30 3191 H 305.175 3.51368 -4.70971 0
M  V30 3192 H 306.699 4.34587 -4.28913 0
M  V30 3193 H 308.113 2.29032 -5.25564 0
M  V30 3194 H 306.51 1.68128 -5.76067 0
M  V30 3195 H 307.58 0.638059 -4.80684 0
M  V30 3196 N 308.923 1.53595 0.353017 0
M  V30 3197 C 309.873 1.77299 1.43349 0
M  V30 3198 C 310.857 0.627884 1.48143 0
M  V30 3199 O 312.049 0.88697 1.53173 0
M  V30 3200 C 309.178 1.97757 2.80619 0
M  V30 3201 C 308.264 3.18305 2.80254 0
M  V30 3202 N 308.655 4.39967 2.49526 0
M  V30 3203 C 306.953 3.19283 3.11407 0
M  V30 3204 C 307.654 5.21772 2.57156 0
M  V30 3205 N 306.63 4.58269 2.92388 0
M  V30 3206 H 310.432 2.68963 1.18474 0
M  V30 3207 H 307.946 1.52391 0.561306 0
M  V30 3208 H 309.943 2.1287 3.58458 0
M  V30 3209 H 308.603 1.07329 3.06448 0
M  V30 3210 H 309.614 4.67482 2.22893 0
M  V30 3211 H 306.291 2.3879 3.4247 0
M  V30 3212 H 307.681 6.2885 2.36638 0
M  V30 3213 N 310.401 -0.613514 1.45168 0
M  V30 3214 C 311.349 -1.74572 1.53712 0
M  V30 3215 C 312.343 -1.64426 0.407505 0
M  V30 3216 O 313.549 -1.70291 0.583176 0
M  V30 3217 H 309.924 -0.576641 0.48269 0
M  V30 3218 H 311.895 -1.64492 2.48968 0
M  V30 3219 C 310.644 -3.12943 1.51532 0
M  V30 3220 H 309.967 -3.21407 2.37776 0
M  V30 3221 H 311.407 -3.9201 1.61569 0
M  V30 3222 C 309.866 -3.36053 0.238798 0
M  V30 3223 O 310.396 -3.95837 -0.6838 0
M  V30 3224 N 308.602 -2.9028 0.136359 0
M  V30 3225 H 308.149 -2.41811 0.887999 0
M  V30 3226 H 308.107 -3.06116 -0.716944 0
M  V30 3227 N 311.879 -1.3236 -0.855495 0
M  V30 3228 C 312.809 -1.23833 -1.97958 0
M  V30 3229 C 313.79 -0.122361 -1.69659 0
M  V30 3230 O 314.975 -0.30939 -1.9172 0
M  V30 3231 C 312.105 -0.959772 -3.33775 0
M  V30 3232 C 311.059 -2.03689 -3.76424 0
M  V30 3233 C 310.385 -1.61075 -5.09862 0
M  V30 3234 C 311.685 -3.4518 -3.9198 0
M  V30 3235 H 313.379 -2.1788 -2.0535 0
M  V30 3236 H 310.925 -1.04891 -0.986605 0
M  V30 3237 H 312.878 -0.886678 -4.11966 0
M  V30 3238 H 311.602 0.0163404 -3.26596 0
M  V30 3239 H 310.261 -2.10012 -3.00484 0
M  V30 3240 H 309.909 -0.622107 -4.99138 0
M  V30 3241 H 309.609 -2.33143 -5.39368 0
M  V30 3242 H 311.133 -1.55201 -5.90546 0
M  V30 3243 H 312.547 -3.4145 -4.60526 0
M  V30 3244 H 310.944 -4.1559 -4.32903 0
M  V30 3245 H 312.014 -3.84903 -2.94919 0
M  V30 3246 N 313.357 1.07166 -1.15556 0
M  V30 3247 C 314.582 1.84053 -0.955988 0
M  V30 3248 C 315.007 1.81586 0.490739 0
M  V30 3249 O 314.365 1.21018 1.34997 0
M  V30 3250 C 314.413 3.28957 -1.47714 0
M  V30 3251 O 313.517 4.06795 -0.677593 0
M  V30 3252 H 312.858 0.569842 -0.340847 0
M  V30 3253 H 315.388 1.35178 -1.53584 0
M  V30 3254 H 315.398 3.79788 -1.4908 0
M  V30 3255 H 314.073 3.30068 -2.53037 0
M  V30 3256 H 312.65 3.6561 -0.733721 0
M  V30 3257 N 314.835 0.952656 1.25548 0
M  V30 3258 C 315.785 0.442033 2.23674 0
M  V30 3259 C 316.769 -0.467632 1.53955 0
M  V30 3260 O 317.961 -0.301006 1.74422 0
M  V30 3261 C 315.09 -0.280816 3.4215 0
M  V30 3262 C 314.176 0.646803 4.19139 0
M  V30 3263 N 314.567 1.77759 4.73535 0
M  V30 3264 C 312.865 0.454617 4.43677 0
M  V30 3265 C 313.566 2.35658 5.31827 0
M  V30 3266 N 312.542 1.64333 5.18166 0
M  V30 3267 H 316.344 1.30505 2.63336 0
M  V30 3268 H 313.858 0.809904 1.40763 0
M  V30 3269 H 315.855 -0.663747 4.11582 0
M  V30 3270 H 314.515 -1.14046 3.04012 0
M  V30 3271 H 315.526 2.15949 4.7073 0
M  V30 3272 H 312.203 -0.362312 4.15925 0
M  V30 3273 H 313.593 3.30998 5.84713 0
M  V30 3274 N 316.313 -1.40141 0.720998 0
M  V30 3275 C 317.263 -2.27949 0.0482544 0
M  V30 3276 C 318.247 -1.43538 -0.727021 0
M  V30 3277 O 319.439 -1.6658 -0.598332 0
M  V30 3278 C 316.568 -3.32126 -0.868729 0
M  V30 3279 C 315.654 -4.24008 -0.0883515 0
M  V30 3280 N 316.045 -4.97154 0.931226 0
M  V30 3281 C 314.343 -4.4485 -0.320105 0
M  V30 3282 C 315.044 -5.64587 1.4006 0
M  V30 3283 N 314.02 -5.38787 0.721752 0
M  V30 3284 H 317.822 -2.81948 0.829609 0
M  V30 3285 H 315.336 -1.52656 0.554067 0
M  V30 3286 H 317.333 -3.93884 -1.36605 0
M  V30 3287 H 315.993 -2.79687 -1.6494 0
M  V30 3288 H 317.004 -5.01 1.31222 0
M  V30 3289 H 313.681 -4.03378 -1.07668 0
M  V30 3290 H 315.071 -6.33175 2.24808 0
M  V30 3291 N 317.792 -0.46758 -1.50504 0
M  V30 3292 C 319.208 -0.121533 -1.59137 0
M  V30 3293 C 319.408 1.3717 -1.47603 0
M  V30 3294 O 318.464 2.14464 -1.33272 0
M  V30 3295 C 319.777 -0.6686 -2.93173 0
M  V30 3296 C 321.325 -0.631716 -3.06559 0
M  V30 3297 C 321.8 -1.15627 -4.43164 0
M  V30 3298 N 323.291 -1.11553 -4.49567 0
M  V30 3299 C 324.026 -1.49195 -5.5365 0
M  V30 3300 N 323.522 -1.94269 -6.65005 0
M  V30 3301 N 325.315 -1.4082 -5.44175 0
M  V30 3302 H 317.466 -1.4388 -1.56245 0
M  V30 3303 H 319.729 -0.594784 -0.738198 0
M  V30 3304 H 319.435 -1.71453 -3.07078 0
M  V30 3305 H 319.309 -0.11021 -3.77039 0
M  V30 3306 H 321.696 0.405297 -2.92304 0
M  V30 3307 H 321.777 -1.22687 -2.24458 0
M  V30 3308 H 321.421 -2.1919 -4.58168 0
M  V30 3309 H 321.351 -0.537365 -5.23851 0
M  V30 3310 H 323.842 -0.784895 -3.69659 0
M  V30 3311 H 324.155 -2.21148 -7.40482 0
M  V30 3312 H 322.5 -1.98219 -6.66134 0
M  V30 3313 H 325.691 -1.0545 -4.56068 0
M  V30 3314 H 325.864 -1.70481 -6.25172 0
M  V30 3315 N 319.27 1.56325 -0.20005 0
M  V30 3316 C 320.18 2.22931 0.730668 0
M  V30 3317 C 321.196 1.22997 1.23076 0
M  V30 3318 O 322.372 1.55748 1.27689 0
M  V30 3319 C 319.437 2.87948 1.93098 0
M  V30 3320 C 318.498 4.03166 1.47497 0
M  V30 3321 C 317.731 4.65073 2.61807 0
M  V30 3322 O 317.954 4.25913 3.79413 0
M  V30 3323 O 316.888 5.54452 2.34237 0
M  V30 3324 H 320.714 3.03084 0.193391 0
M  V30 3325 H 318.299 1.49371 0.0294621 0
M  V30 3326 H 320.181 3.29063 2.6324 0
M  V30 3327 H 318.856 2.10771 2.45677 0
M  V30 3328 H 317.763 3.66664 0.742201 0
M  V30 3329 H 319.096 4.82022 0.995796 0
M  V30 3330 N 320.748 -0.0735177 1.57428 0
M  V30 3331 C 321.996 -0.771472 1.86796 0
M  V30 3332 C 322.317 -1.78201 0.791804 0
M  V30 3333 O 321.587 -1.95074 -0.179718 0
M  V30 3334 H 320.167 -0.28791 0.689287 0
M  V30 3335 H 322.829 -0.0500161 1.94836 0
M  V30 3336 H 321.925 -1.28874 2.8425 0
M  V30 3337 N 322.226 -1.5378 -0.344866 0
M  V30 3338 C 323.156 -1.84662 -1.42906 0
M  V30 3339 C 324.137 -0.701648 -1.54955 0
M  V30 3340 O 325.322 -0.953438 -1.69184 0
M  V30 3341 C 322.452 -2.05503 -2.79974 0
M  V30 3342 C 321.406 -3.21318 -2.82734 0
M  V30 3343 C 320.732 -3.2749 -4.22675 0
M  V30 3344 C 322.032 -4.59456 -2.48389 0
M  V30 3345 H 323.726 -2.75461 -1.17311 0
M  V30 3346 H 321.272 -1.32542 -0.562896 0
M  V30 3347 H 323.225 -2.25691 -3.55867 0
M  V30 3348 H 321.949 -1.11434 -3.07002 0
M  V30 3349 H 320.608 -3.00984 -2.09294 0
M  V30 3350 H 320.256 -2.31019 -4.4681 0
M  V30 3351 H 319.956 -4.05316 -4.25433 0
M  V30 3352 H 321.48 -3.49887 -5.00412 0
M  V30 3353 H 322.894 -4.79667 -3.13995 0
M  V30 3354 H 321.291 -5.39675 -2.62432 0
M  V30 3355 H 322.361 -4.63155 -1.4358 0
M  V30 3356 N 323.704 0.605807 -1.45491 0
M  V30 3357 C 324.634 1.72709 -1.57143 0
M  V30 3358 C 325.615 1.6476 -0.422884 0
M  V30 3359 O 326.8 1.83132 -0.646247 0
M  V30 3360 C 323.93 3.11316 -1.53948 0
M  V30 3361 C 322.884 3.34077 -2.67537 0
M  V30 3362 C 322.21 4.72975 -2.49397 0
M  V30 3363 C 323.51 3.24158 -4.09535 0
M  V30 3364 H 325.204 1.63214 -2.51001 0
M  V30 3365 H 322.75 0.78379 -1.208 0
M  V30 3366 H 324.703 3.89557 -1.60696 0
M  V30 3367 H 323.427 3.21655 -0.566205 0
M  V30 3368 H 322.086 2.58227 -2.6022 0
M  V30 3369 H 321.734 4.8005 -1.50205 0
M  V30 3370 H 321.434 4.8916 -3.25571 0
M  V30 3371 H 322.958 5.53414 -2.58002 0
M  V30 3372 H 324.372 3.92271 -4.18086 0
M  V30 3373 H 322.769 3.51872 -4.86113 0
M  V30 3374 H 323.839 2.2157 -4.31317 0
M  V30 3375 N 325.182 1.32811 0.848464 0
M  V30 3376 C 326.145 1.22194 1.9391 0
M  V30 3377 C 327.145 0.143404 1.60159 0
M  V30 3378 O 328.335 0.394253 1.6968 0
M  V30 3379 C 325.467 0.88067 3.29328 0
M  V30 3380 H 326.66 2.19127 2.04752 0
M  V30 3381 H 324.213 1.16731 1.0394 0
M  V30 3382 H 324.948 -0.0865776 3.24184 0
M  V30 3383 H 324.733 1.66052 3.55203 0
M  V30 3384 H 326.223 0.830871 4.09251 0
M  V30 3385 N 326.66 -1.06551 1.16123 0
M  V30 3386 C 327.909 -1.78687 0.935622 0
M  V30 3387 C 328.222 -1.88056 -0.538001 0
M  V30 3388 O 329.428 -2.56794 -0.88143 0
M  V30 3389 C 327.884 -3.21143 1.62466 0
M  V30 3390 C 327.492 -3.19949 3.13587 0
M  V30 3391 C 329.236 -3.9783 1.48092 0
M  V30 3392 C 327.143 -4.57108 3.75241 0
M  V30 3393 H 326.073 -0.669712 0.346412 0
M  V30 3394 H 328.724 -1.19534 1.39226 0
M  V30 3395 H 327.106 -3.80539 1.09572 0
M  V30 3396 H 328.28 -2.70151 3.73303 0
M  V30 3397 H 326.595 -2.5676 3.27816 0
M  V30 3398 H 329.192 -4.99217 1.91538 0
M  V30 3399 H 329.535 -4.14078 0.429507 0
M  V30 3400 H 330.068 -3.4495 1.98127 0
M  V30 3401 H 326.807 -4.46065 4.80319 0
M  V30 3402 H 326.327 -5.07111 3.20309 0
M  V30 3403 H 328.006 -5.26069 3.76644 0
M  V30 3404 N 328.138 -0.959301 -1.25041 0
M  V30 3405 C 329.385 -0.616611 -1.92884 0
M  V30 3406 C 329.713 0.847036 -1.75087 0
M  V30 3407 O 328.968 1.62374 -1.09239 0
M  V30 3408 C 329.267 -0.927136 -3.45165 0
M  V30 3409 C 328.933 -2.37757 -3.83122 0
M  V30 3410 C 327.595 -2.77402 -3.93194 0
M  V30 3411 C 329.947 -3.31929 -4.01836 0
M  V30 3412 C 327.275 -4.10277 -4.19392 0
M  V30 3413 C 329.627 -4.64423 -4.29528 0
M  V30 3414 C 328.291 -5.03857 -4.37818 0
M  V30 3415 H 327.561 -0.225634 -0.705812 0
M  V30 3416 H 330.208 -1.20921 -1.48493 0
M  V30 3417 H 328.513 -0.252195 -3.90987 0
M  V30 3418 H 330.21 -0.6405 -3.95852 0
M  V30 3419 H 326.8 -2.06013 -3.75841 0
M  V30 3420 H 330.984 -3.02488 -3.93465 0
M  V30 3421 H 326.24 -4.40467 -4.24027 0
M  V30 3422 H 330.414 -5.37369 -4.42953 0
M  V30 3423 H 328.041 -6.06843 -4.57871 0
M  V30 3424 N 329.616 1.39756 -0.72842 0
M  V30 3425 C 330.563 2.30647 -0.0841519 0
M  V30 3426 C 331.533 1.48869 0.7367 0
M  V30 3427 O 332.718 1.77574 0.698015 0
M  V30 3428 C 329.858 3.35165 0.822091 0
M  V30 3429 C 328.971 4.31999 -0.0106663 0
M  V30 3430 C 328.106 5.23585 0.896241 0
M  V30 3431 C 327.145 6.12072 0.0583381 0
M  V30 3432 N 326.282 6.96035 0.920818 0
M  V30 3433 H 331.122 2.85173 -0.864891 0
M  V30 3434 H 328.659 1.40422 -0.438179 0
M  V30 3435 H 330.617 3.94345 1.36189 0
M  V30 3436 H 329.247 2.8211 1.56888 0
M  V30 3437 H 328.299 3.74492 -0.66781 0
M  V30 3438 H 329.611 4.9443 -0.658825 0
M  V30 3439 H 328.765 5.87759 1.50412 0
M  V30 3440 H 327.504 4.61459 1.57819 0
M  V30 3441 H 326.509 5.46916 -0.562389 0
M  V30 3442 H 327.734 6.76261 -0.6203 0
M  V30 3443 H 325.68 6.36485 1.58818 0
M  V30 3444 H 325.597 7.55284 0.32899 0
M  V30 3445 H 326.865 7.64646 1.51447 0
M  V30 3446 N 331.094 0.475555 1.50254 0
M  V30 3447 C 332.319 -0.0777042 2.07254 0
M  V30 3448 C 332.744 -1.3235 1.3366 0
M  V30 3449 O 332.102 -1.77152 0.385597 0
M  V30 3450 C 332.15 -0.340169 3.58992 0
M  V30 3451 O 331.254 -1.41982 3.87188 0
M  V30 3452 H 330.595 0.0149556 0.663832 0
M  V30 3453 H 333.125 0.667878 1.93392 0
M  V30 3454 H 333.135 -0.579332 4.03866 0
M  V30 3455 H 331.81 0.570167 4.11973 0
M  V30 3456 H 330.387 -1.16762 3.54148 0
M  V30 3457 N 332.573 -1.56217 0.208337 0
M  V30 3458 C 333.821 -1.97558 -0.426076 0
M  V30 3459 C 334.142 -1.09683 -1.61229 0
M  V30 3460 O 333.412 -0.170956 -1.95153 0
M  V30 3461 H 331.992 -0.729575 -0.160405 0
M  V30 3462 H 334.654 -1.92606 0.298155 0
M  V30 3463 H 333.75 -3.02672 -0.761312 0
M  V30 3464 N 334.051 0.0651679 -1.57465 0
M  V30 3465 C 335.299 0.761555 -1.87202 0
M  V30 3466 C 335.62 1.77778 -0.801243 0
M  V30 3467 O 334.89 1.95166 0.16937 0
M  V30 3468 H 333.47 0.284251 -0.690804 0
M  V30 3469 H 336.132 0.0396827 -1.9486 0
M  V30 3470 H 335.228 1.27365 -2.84929 0
M  V30 3471 N 335.529 1.53961 0.336706 0
M  V30 3472 C 336.778 1.70751 1.07363 0
M  V30 3473 C 337.091 0.481061 1.89592 0
M  V30 3474 O 338.297 0.530046 2.66276 0
M  V30 3475 C 336.753 3.01965 1.95818 0
M  V30 3476 C 336.361 4.31971 1.18764 0
M  V30 3477 C 338.105 3.28121 2.69327 0
M  V30 3478 C 336.012 5.54255 2.06289 0
M  V30 3479 H 334.942 0.636292 0.404535 0
M  V30 3480 H 337.593 1.80459 0.332681 0
M  V30 3481 H 335.975 2.86132 2.7376 0
M  V30 3482 H 337.149 4.5853 0.456849 0
M  V30 3483 H 335.464 4.12481 0.569946 0
M  V30 3484 H 338.061 4.16673 3.35094 0
M  V30 3485 H 338.404 2.45426 3.36261 0
M  V30 3486 H 338.937 3.44762 1.98454 0
M  V30 3487 H 335.676 6.39513 1.43885 0
M  V30 3488 H 335.196 5.31935 2.77138 0
M  V30 3489 H 336.875 5.90159 2.65182 0
M  V30 3490 N 337.007 -0.598083 1.45811 0
M  V30 3491 C 338.418 -1.18011 1.44673 0
M  V30 3492 C 338.769 -1.95378 0.179364 0
M  V30 3493 O 337.894 -2.04124 -0.718509 0
M  V30 3494 C 338.489 -2.14677 2.62105 0
M  V30 3495 C 337.048 -2.68236 2.64057 0
M  V30 3496 C 336.195 -1.43816 2.37091 0
M  V30 3497 H 339.146 -0.38686 1.53913 0
M  V30 3498 H 339.167 -2.97878 2.36746 0
M  V30 3499 H 338.679 -1.5834 3.5433 0
M  V30 3500 H 336.78 -3.28486 1.75864 0
M  V30 3501 H 336.893 -3.12021 3.63566 0
M  V30 3502 H 335.257 -1.731 1.86838 0
M  V30 3503 H 336.04 -0.893333 3.31473 0
M  V30 3504 N 338.485 -1.33259 -0.841409 0
M  V30 3505 C 339.448 -1.23221 -1.9326 0
M  V30 3506 C 340.448 -0.151895 -1.60081 0
M  V30 3507 O 341.638 -0.403246 -1.69468 0
M  V30 3508 C 338.77 -0.898123 -3.28856 0
M  V30 3509 H 339.963 -2.2021 -2.03587 0
M  V30 3510 H 337.516 -1.17281 -1.03319 0
M  V30 3511 H 338.251 0.0693841 -3.24226 0
M  V30 3512 H 338.036 -1.67934 -3.54317 0
M  V30 3513 H 339.526 -0.852563 -4.08805 0
M  V30 3514 N 339.963 1.05934 -1.16686 0
M  V30 3515 C 340.893 2.1546 -0.899949 0
M  V30 3516 C 341.874 1.69391 0.155154 0
M  V30 3517 O 343.059 1.94199 0.00648693 0
M  V30 3518 C 340.189 3.44939 -0.404241 0
M  V30 3519 C 339.143 4.04536 -1.39767 0
M  V30 3520 C 338.469 5.29268 -0.760216 0
M  V30 3521 C 339.769 4.42893 -2.76845 0
M  V30 3522 H 341.463 2.38046 -1.81588 0
M  V30 3523 H 339.009 1.14404 -0.874514 0
M  V30 3524 H 340.962 4.20901 -0.204971 0
M  V30 3525 H 339.686 3.21983 0.547206 0
M  V30 3526 H 338.345 3.30635 -1.58355 0
M  V30 3527 H 337.993 5.02611 0.197831 0
M  V30 3528 H 337.693 5.70101 -1.42332 0
M  V30 3529 H 339.217 6.07924 -0.57105 0
M  V30 3530 H 340.631 5.09921 -2.62019 0
M  V30 3531 H 339.028 4.94721 -3.39663 0
M  V30 3532 H 340.098 3.53584 -3.31823 0
M  V30 3533 N 341.441 0.965919 1.2453 0
M  V30 3534 C 342.687 0.62776 1.92839 0
M  V30 3535 C 343.02 -0.834694 1.75347 0
M  V30 3536 O 342.295 -1.60031 1.10546 0
M  V30 3537 C 342.578 1.00109 3.45905 0
M  V30 3538 C 342.431 2.52011 3.72573 0
M  V30 3539 C 343.75 0.53435 4.36844 0
M  V30 3540 H 340.869 0.229537 0.700344 0
M  V30 3541 H 343.511 1.2046 1.46933 0
M  V30 3542 H 341.661 0.510238 3.85135 0
M  V30 3543 H 343.333 3.08559 3.42912 0
M  V30 3544 H 341.576 2.95287 3.17786 0
M  V30 3545 H 342.247 2.73183 4.79661 0
M  V30 3546 H 344.723 0.955565 4.04979 0
M  V30 3547 H 343.599 0.824152 5.42678 0
M  V30 3548 H 343.86 -0.565589 4.38467 0
M  V30 3549 N 342.919 -1.39368 0.735821 0
M  V30 3550 C 344.335 -1.54204 0.411492 0
M  V30 3551 C 344.535 -1.70268 -1.07755 0
M  V30 3552 O 343.591 -1.70364 -1.86366 0
M  V30 3553 C 344.904 -2.75925 1.19523 0
M  V30 3554 C 346.452 -2.89761 1.18354 0
M  V30 3555 C 346.927 -4.14421 1.94986 0
M  V30 3556 N 348.418 -4.21462 1.92156 0
M  V30 3557 C 349.153 -5.16871 2.48258 0
M  V30 3558 N 348.649 -6.18063 3.13001 0
M  V30 3559 N 350.442 -5.09093 2.38287 0
M  V30 3560 H 342.593 -1.27189 1.70108 0
M  V30 3561 H 344.856 -0.616517 0.720147 0
M  V30 3562 H 344.562 -2.70401 2.24892 0
M  V30 3563 H 344.436 -3.68614 0.800222 0
M  V30 3564 H 346.823 -2.94777 0.137975 0
M  V30 3565 H 346.904 -1.98133 1.61793 0
M  V30 3566 H 346.548 -4.10166 2.99543 0
M  V30 3567 H 346.478 -5.05095 1.48953 0
M  V30 3568 H 348.969 -3.48979 1.44991 0
M  V30 3569 H 349.282 -6.87326 3.53275 0
M  V30 3570 H 347.627 -6.18448 3.17091 0
M  V30 3571 H 350.818 -4.28973 1.8735 0
M  V30 3572 H 350.991 -5.83272 2.82308 0
M  V30 3573 N 344.397 -0.483516 -1.5 0
M  V30 3574 C 345.33 0.350427 -2.25493 0
M  V30 3575 C 346.308 0.985549 -1.29328 0
M  V30 3576 O 347.492 1.01906 -1.58579 0
M  V30 3577 C 344.619 1.49202 -3.04066 0
M  V30 3578 C 343.665 0.973036 -4.15252 0
M  V30 3579 S 344.498 -0.122237 -5.3536 0
M  V30 3580 C 345.654 1.02294 -6.17484 0
M  V30 3581 H 345.887 -0.290381 -2.95878 0
M  V30 3582 H 343.42 -0.268562 -1.52046 0
M  V30 3583 H 345.378 2.14623 -3.49925 0
M  V30 3584 H 344.039 2.10438 -2.33183 0
M  V30 3585 H 343.232 1.82804 -4.69679 0
M  V30 3586 H 342.834 0.396335 -3.71894 0
M  V30 3587 H 345.126 1.93195 -6.49371 0
M  V30 3588 H 346.069 0.517664 -7.06205 0
M  V30 3589 H 346.477 1.28238 -5.49741 0
M  V30 3590 N 345.875 1.56104 -0.216619 0
M  V30 3591 C 346.805 2.23063 0.690296 0
M  V30 3592 C 347.786 1.20072 1.20485 0
M  V30 3593 O 348.971 1.48643 1.24976 0
M  V30 3594 C 346.101 2.90672 1.90072 0
M  V30 3595 C 345.055 4.00092 1.5202 0
M  V30 3596 C 344.381 4.54972 2.80899 0
M  V30 3597 C 345.681 5.17398 0.71391 0
M  V30 3598 H 347.375 2.99109 0.132038 0
M  V30 3599 H 344.921 1.43866 0.0620664 0
M  V30 3600 H 346.874 3.36204 2.54057 0
M  V30 3601 H 345.598 2.12066 2.48386 0
M  V30 3602 H 344.257 3.55283 0.903839 0
M  V30 3603 H 343.905 3.73102 3.37348 0
M  V30 3604 H 343.605 5.28817 2.56176 0
M  V30 3605 H 345.129 5.0322 3.45836 0
M  V30 3606 H 346.543 5.59342 1.25735 0
M  V30 3607 H 344.94 5.97444 0.563951 0
M  V30 3608 H 346.01 4.84088 -0.280527 0
M  V30 3609 N 347.353 -0.0568162 1.57498 0
M  V30 3610 C 348.578 -0.769402 1.92601 0
M  V30 3611 C 349.003 -1.69559 0.814336 0
M  V30 3612 O 348.361 -1.79811 -0.231903 0
M  V30 3613 C 348.409 -1.52634 3.26704 0
M  V30 3614 O 347.513 -2.63797 3.16994 0
M  V30 3615 H 346.854 -0.208909 0.63028 0
M  V30 3616 H 349.384 -0.0205798 2.0459 0
M  V30 3617 H 349.394 -1.90234 3.60936 0
M  V30 3618 H 348.069 -0.846875 4.07186 0
M  V30 3619 H 346.646 -2.28943 2.94346 0
M  V30 3620 N 348.832 -1.54138 -0.328536 0
M  V30 3621 C 350.057 -1.76378 -1.09112 0
M  V30 3622 C 350.482 -0.508596 -1.81094 0
M  V30 3623 O 349.84 0.539598 -1.73084 0
M  V30 3624 C 349.888 -2.95358 -2.06872 0
M  V30 3625 O 348.992 -2.66556 -3.14677 0
M  V30 3626 H 348.333 -0.584614 -0.314838 0
M  V30 3627 H 350.863 -2.01146 -0.374348 0
M  V30 3628 H 350.873 -3.22566 -2.4983 0
M  V30 3629 H 349.548 -3.86385 -1.5388 0
M  V30 3630 H 348.125 -2.50282 -2.7643 0
M  V30 3631 N 350.31 0.590341 -1.46126 0
M  V30 3632 C 351.721 1.17243 -1.45296 0
M  V30 3633 C 352.072 1.95281 -0.189723 0
M  V30 3634 O 351.197 2.04502 0.707674 0
M  V30 3635 C 351.792 2.13284 -2.6324 0
M  V30 3636 C 350.351 2.66832 -2.65476 0
M  V30 3637 C 349.498 1.42557 -2.3785 0
M  V30 3638 H 352.449 0.378692 -1.54116 0
M  V30 3639 H 352.47 2.96619 -2.38323 0
M  V30 3640 H 351.982 1.56459 -3.55165 0
M  V30 3641 H 350.083 3.27548 -1.77603 0
M  V30 3642 H 350.196 3.10088 -3.65215 0
M  V30 3643 H 348.56 1.72107 -1.87753 0
M  V30 3644 H 349.343 0.875741 -3.31942 0
M  V30 3645 N 351.788 1.33704 0.83433 0
M  V30 3646 C 353.034 1.25603 1.59222 0
M  V30 3647 C 353.367 -0.176659 1.93395 0
M  V30 3648 O 352.642 -1.11915 1.59076 0
M  V30 3649 C 352.925 2.13576 2.89926 0
M  V30 3650 C 352.778 3.65326 2.62406 0
M  V30 3651 C 354.097 2.01238 3.91397 0
M  V30 3652 H 351.216 0.457613 0.577719 0
M  V30 3653 H 353.858 1.63848 0.961972 0
M  V30 3654 H 352.008 1.8109 3.43713 0
M  V30 3655 H 353.68 4.08124 2.15017 0
M  V30 3656 H 351.923 3.8698 1.96033 0
M  V30 3657 H 352.594 4.22232 3.55562 0
M  V30 3658 H 355.07 2.29738 3.46929 0
M  V30 3659 H 353.946 2.65036 4.80673 0
M  V30 3660 H 354.207 0.985951 4.30966 0
M  V30 3661 N 353.266 -1.05314 1.17247 0
M  V30 3662 C 354.176 -2.16538 0.90268 0
M  V30 3663 C 355.192 -1.73523 -0.128707 0
M  V30 3664 O 356.368 -2.01337 0.0502701 0
M  V30 3665 C 353.433 -3.44167 0.418356 0
M  V30 3666 C 352.494 -4.01635 1.51618 0
M  V30 3667 C 351.727 -5.23171 1.05487 0
M  V30 3668 O 351.95 -5.70327 -0.0914715 0
M  V30 3669 O 350.884 -5.72848 1.8474 0
M  V30 3670 H 354.71 -2.42145 1.83302 0
M  V30 3671 H 352.295 -1.15037 0.953246 0
M  V30 3672 H 354.177 -4.21112 0.155726 0
M  V30 3673 H 352.852 -3.20063 -0.48385 0
M  V30 3674 H 351.759 -3.26135 1.83268 0
M  V30 3675 H 353.092 -4.30053 2.39405 0
M  V30 3676 N 354.744 -0.972509 -1.24016 0
M  V30 3677 C 355.969 -0.654417 -1.96805 0
M  V30 3678 C 356.394 0.770398 -1.716 0
M  V30 3679 O 355.752 1.52361 -0.982647 0
M  V30 3680 C 355.8 -0.941031 -3.48105 0
M  V30 3681 O 354.904 -0.0289472 -4.1239 0
M  V30 3682 H 354.245 -0.24692 -0.616382 0
M  V30 3683 H 356.775 -1.30396 -1.57664 0
M  V30 3684 H 356.785 -0.87452 -3.98517 0
M  V30 3685 H 355.46 -1.97939 -3.65777 0
M  V30 3686 H 354.037 -0.149192 -3.72601 0
M  V30 3687 N 356.222 1.38976 -0.743202 0
M  V30 3688 C 357.468 2.0064 -0.295189 0
M  V30 3689 C 357.801 1.5885 1.11716 0
M  V30 3690 O 357.076 0.821181 1.76315 0
M  V30 3691 C 357.359 3.578 -0.406318 0
M  V30 3692 C 357.212 4.09586 -1.85903 0
M  V30 3693 C 358.531 4.39616 0.206439 0
M  V30 3694 H 355.65 0.728935 -0.108733 0
M  V30 3695 H 358.292 1.65067 -0.940897 0
M  V30 3696 H 356.442 3.88235 0.143419 0
M  V30 3697 H 358.114 3.89837 -2.46627 0
M  V30 3698 H 356.357 3.6284 -2.3776 0
M  V30 3699 H 357.028 5.18708 -1.888 0
M  V30 3700 H 359.504 4.15273 -0.262283 0
M  V30 3701 H 358.38 5.48812 0.0983819 0
M  V30 3702 H 358.641 4.22754 1.2935 0
M  V30 3703 N 357.7 0.491464 1.49741 0
M  V30 3704 C 358.63 -0.28154 2.31796 0
M  V30 3705 C 359.611 -0.971473 1.3963 0
M  V30 3706 O 360.796 -0.964719 1.68543 0
M  V30 3707 C 357.926 -1.35203 3.19902 0
M  V30 3708 C 356.88 -0.782529 4.20786 0
M  V30 3709 C 356.206 -1.95283 4.97764 0
M  V30 3710 C 357.506 0.21999 5.21837 0
M  V30 3711 H 359.2 0.403355 2.96671 0
M  V30 3712 H 356.746 0.195425 1.42668 0
M  V30 3713 H 358.699 -1.90045 3.76113 0
M  V30 3714 H 357.423 -2.06598 2.52953 0
M  V30 3715 H 356.082 -0.255928 3.65706 0
M  V30 3716 H 355.73 -2.65423 4.2727 0
M  V30 3717 H 355.43 -1.57789 5.66018 0
M  V30 3718 H 356.954 -2.50577 5.56816 0
M  V30 3719 H 358.368 -0.23996 5.72798 0
M  V30 3720 H 356.765 0.51026 5.97927 0
M  V30 3721 H 357.835 1.13911 4.7133 0
M  V30 3722 N 359.178 -1.55987 0.224894 0
M  V30 3723 C 360.425 -1.9839 -0.4059 0
M  V30 3724 C 360.753 -1.11261 -1.59535 0
M  V30 3725 O 360.008 -0.158314 -1.95059 0
M  V30 3726 C 360.307 -3.46394 -0.880106 0
M  V30 3727 C 359.973 -4.5046 0.19918 0
M  V30 3728 C 358.635 -4.7864 0.495661 0
M  V30 3729 C 360.987 -5.12855 0.928939 0
M  V30 3730 C 358.315 -5.66497 1.52636 0
M  V30 3731 C 360.667 -6.01828 1.949 0
M  V30 3732 C 359.331 -6.28351 2.25236 0
M  V30 3733 H 358.601 -0.725961 -0.148529 0
M  V30 3734 H 361.248 -1.88668 0.328113 0
M  V30 3735 H 359.553 -3.53337 -1.69294 0
M  V30 3736 H 361.25 -3.76577 -1.37808 0
M  V30 3737 H 357.84 -4.28579 -0.0420526 0
M  V30 3738 H 362.024 -4.9115 0.713129 0
M  V30 3739 H 357.28 -5.8531 1.76698 0
M  V30 3740 H 361.454 -6.49225 2.51951 0
M  V30 3741 H 359.081 -6.96226 3.05244 0
M  V30 3742 N 360.656 0.0484629 -1.57525 0
M  V30 3743 C 361.886 0.754326 -1.92337 0
M  V30 3744 C 362.294 1.70443 -0.82132 0
M  V30 3745 O 361.637 1.82466 0.21254 0
M  V30 3746 C 361.699 1.58231 -3.22805 0
M  V30 3747 C 361.363 0.799074 -4.4996 0
M  V30 3748 C 362.36 0.1079 -5.19788 0
M  V30 3749 C 360.045 0.759345 -4.96527 0
M  V30 3750 C 362.039 -0.612516 -6.3445 0
M  V30 3751 C 359.726 0.0351713 -6.1109 0
M  V30 3752 C 360.724 -0.649537 -6.79904 0
M  V30 3753 O 360.412 -1.36199 -7.92278 0
M  V30 3754 H 360.144 0.218257 -0.639797 0
M  V30 3755 H 362.698 0.0159295 -2.05394 0
M  V30 3756 H 360.928 2.36406 -3.06021 0
M  V30 3757 H 362.617 2.16898 -3.43089 0
M  V30 3758 H 363.383 0.129748 -4.84826 0
M  V30 3759 H 359.262 1.28177 -4.42822 0
M  V30 3760 H 362.806 -1.14751 -6.88097 0
M  V30 3761 H 358.703 0.0113314 -6.45499 0
M  V30 3762 H 359.471 -1.27366 -8.0853 0
M  V30 3763 N 362.134 1.5431 0.320358 0
M  V30 3764 C 363.097 1.83195 1.3774 0
M  V30 3765 C 364.097 0.703906 1.44575 0
M  V30 3766 O 365.287 0.972214 1.44546 0
M  V30 3767 C 362.419 1.99487 2.76438 0
M  V30 3768 H 363.612 2.77642 1.1338 0
M  V30 3769 H 361.165 1.46076 0.556012 0
M  V30 3770 H 361.9 1.07262 3.06048 0
M  V30 3771 H 361.685 2.81575 2.7287 0
M  V30 3772 H 363.175 2.23271 3.52902 0
M  V30 3773 N 363.613 -0.582584 1.46437 0
M  V30 3774 C 364.862 -1.337 1.5102 0
M  V30 3775 C 365.175 -1.94891 0.166359 0
M  V30 3776 O 366.381 -2.71351 0.0899954 0
M  V30 3777 C 364.837 -2.42315 2.66104 0
M  V30 3778 C 364.445 -1.87427 4.06909 0
M  V30 3779 C 366.189 -3.19099 2.79958 0
M  V30 3780 C 364.096 -2.93672 5.13333 0
M  V30 3781 H 363.026 -0.502619 0.562041 0
M  V30 3782 H 365.677 -0.621701 1.72647 0
M  V30 3783 H 364.059 -3.16645 2.37807 0
M  V30 3784 H 365.233 -1.19639 4.44998 0
M  V30 3785 H 363.548 -1.2331 3.97723 0
M  V30 3786 H 366.145 -3.9839 3.56636 0
M  V30 3787 H 366.488 -3.71695 1.87479 0
M  V30 3788 H 367.021 -2.51875 3.07902 0
M  V30 3789 H 363.76 -2.45962 6.07604 0
M  V30 3790 H 363.28 -3.59948 4.79789 0
M  V30 3791 H 364.959 -3.5762 5.39182 0
M  V30 3792 N 365.091 -1.34144 -0.827227 0
M  V30 3793 C 366.319 -1.29325 -1.61501 0
M  V30 3794 C 366.734 0.13354 -1.88327 0
M  V30 3795 O 366.091 1.0793 -1.47164 0
M  V30 3796 C 366.142 -2.07746 -2.95844 0
M  V30 3797 O 365.863 -3.4486 -2.70191 0
M  V30 3798 C 367.364 -2.10273 -3.90256 0
M  V30 3799 H 364.584 -0.445069 -0.50215 0
M  V30 3800 H 367.128 -1.76693 -1.02955 0
M  V30 3801 H 365.283 -1.6403 -3.5096 0
M  V30 3802 H 365.697 -3.85345 -3.55822 0
M  V30 3803 H 367.171 -2.69575 -4.81698 0
M  V30 3804 H 367.648 -1.096 -4.25305 0
M  V30 3805 H 368.254 -2.54059 -3.41078 0
M  V30 3806 N 366.569 1.04691 -1.17803 0
M  V30 3807 C 367.797 1.81446 -0.99423 0
M  V30 3808 C 368.212 1.83174 0.457459 0
M  V30 3809 O 367.569 1.26265 1.31771 0
M  V30 3810 C 367.62 3.27334 -1.5341 0
M  V30 3811 O 367.341 3.25798 -2.92895 0
M  V30 3812 C 368.842 4.20759 -1.39559 0
M  V30 3813 H 366.062 0.571599 -0.351447 0
M  V30 3814 H 368.606 1.31982 -1.56208 0
M  V30 3815 H 366.761 3.74052 -1.00815 0
M  V30 3816 H 367.175 4.17144 -3.17949 0
M  V30 3817 H 368.649 5.21084 -1.82141 0
M  V30 3818 H 369.126 4.37856 -0.343394 0
M  V30 3819 H 369.732 3.79901 -1.91195 0
M  V30 3820 N 368.047 0.979072 1.23499 0
M  V30 3821 C 368.977 0.537606 2.27227 0
M  V30 3822 C 369.958 -0.428539 1.64613 0
M  V30 3823 O 371.143 -0.322191 1.91509 0
M  V30 3824 C 368.273 -0.162052 3.46922 0
M  V30 3825 C 367.227 0.721242 4.21879 0
M  V30 3826 C 366.553 -0.110555 5.34586 0
M  V30 3827 C 367.853 2.01141 4.82016 0
M  V30 3828 H 369.547 1.40462 2.64406 0
M  V30 3829 H 367.093 0.67684 1.27102 0
M  V30 3830 H 369.046 -0.482192 4.18632 0
M  V30 3831 H 367.77 -1.06351 3.08799 0
M  V30 3832 H 366.429 1.02482 3.51984 0
M  V30 3833 H 366.077 -1.0125 4.92704 0
M  V30 3834 H 365.777 0.477325 5.85658 0
M  V30 3835 H 367.301 -0.425107 6.09118 0
M  V30 3836 H 368.715 1.75612 5.45741 0
M  V30 3837 H 367.112 2.54695 5.43369 0
M  V30 3838 H 368.182 2.69909 4.02836 0
M  V30 3839 N 369.525 -1.3858 0.750561 0
M  V30 3840 C 370.475 -2.27795 0.0965949 0
M  V30 3841 C 371.459 -1.45048 -0.696411 0
M  V30 3842 O 372.651 -1.67812 -0.562863 0
M  V30 3843 C 369.78 -3.33894 -0.798085 0
M  V30 3844 C 368.866 -4.241 0.0016067 0
M  V30 3845 N 369.257 -4.95067 1.03647 0
M  V30 3846 C 367.555 -4.45429 -0.225674 0
M  V30 3847 C 368.256 -5.61489 1.52004 0
M  V30 3848 N 367.232 -5.37135 0.835874 0
M  V30 3849 H 371.034 -2.80125 0.889228 0
M  V30 3850 H 368.548 -1.51446 0.586323 0
M  V30 3851 H 370.545 -3.96693 -1.28219 0
M  V30 3852 H 369.205 -2.83123 -1.5897 0
M  V30 3853 H 370.216 -4.98104 1.41819 0
M  V30 3854 H 366.893 -4.05571 -0.990872 0
M  V30 3855 H 368.283 -6.28264 2.38188 0
M  V30 3856 N 371.003 -0.499398 -1.49478 0
M  V30 3857 C 371.951 0.293604 -2.3074 0
M  V30 3858 C 372.945 0.96427 -1.39277 0
M  V30 3859 O 374.151 0.892141 -1.56336 0
M  V30 3860 H 370.526 0.113541 -0.743379 0
M  V30 3861 H 372.497 -0.411772 -2.95545 0
M  V30 3862 C 371.246 1.3462 -3.20582 0
M  V30 3863 H 370.569 0.83954 -3.90886 0
M  V30 3864 H 372.009 1.87308 -3.80384 0
M  V30 3865 C 370.468 2.36351 -2.40083 0
M  V30 3866 O 370.998 3.422 -2.10385 0
M  V30 3867 N 369.204 2.0878 -2.02137 0
M  V30 3868 H 368.751 1.22723 -2.26488 0
M  V30 3869 H 368.709 2.77075 -1.48583 0
M  V30 3870 N 372.481 1.55866 -0.233164 0
M  V30 3871 C 373.411 2.23783 0.666599 0
M  V30 3872 C 374.392 1.21343 1.19205 0
M  V30 3873 O 375.577 1.4996 1.23392 0
M  V30 3874 C 372.707 2.92671 1.86978 0
M  V30 3875 C 371.661 4.01682 1.47768 0
M  V30 3876 C 370.987 4.57926 2.76058 0
M  V30 3877 C 372.287 5.18126 0.658993 0
M  V30 3878 H 373.981 2.99232 0.100306 0
M  V30 3879 H 371.527 1.43924 0.046804 0
M  V30 3880 H 373.48 3.3888 2.50476 0
M  V30 3881 H 372.204 2.14688 2.46123 0
M  V30 3882 H 370.863 3.56222 0.866106 0
M  V30 3883 H 370.511 3.76659 3.33372 0
M  V30 3884 H 370.211 5.31505 2.50552 0
M  V30 3885 H 371.735 5.06859 3.40479 0
M  V30 3886 H 373.149 5.60644 1.19795 0
M  V30 3887 H 371.546 5.98009 0.500552 0
M  V30 3888 H 372.616 4.83763 -0.331856 0
M  V30 3889 N 373.959 -0.0401083 1.57549 0
M  V30 3890 C 374.889 -1.04384 2.08869 0
M  V30 3891 C 375.87 -1.38407 0.988817 0
M  V30 3892 O 377.055 -1.47483 1.26342 0
M  V30 3893 C 374.185 -2.34808 2.55895 0
M  V30 3894 C 373.139 -2.15057 3.70047 0
M  V30 3895 C 372.465 -3.51145 4.03239 0
M  V30 3896 C 373.765 -1.54576 4.98902 0
M  V30 3897 H 375.459 -0.616666 2.92981 0
M  V30 3898 H 373.005 -0.295184 1.40942 0
M  V30 3899 H 374.958 -3.05346 2.90417 0
M  V30 3900 H 373.682 -2.79565 1.68853 0
M  V30 3901 H 372.341 -1.46954 3.35857 0
M  V30 3902 H 371.989 -3.93529 3.13279 0
M  V30 3903 H 371.689 -3.38758 4.80122 0
M  V30 3904 H 373.213 -4.23062 4.40285 0
M  V30 3905 H 374.627 -2.15017 5.31451 0
M  V30 3906 H 373.024 -1.52796 5.80322 0
M  V30 3907 H 374.094 -0.51039 4.82206 0
M  V30 3908 N 375.437 -1.54477 -0.31217 0
M  V30 3909 C 376.367 -1.87652 -1.38957 0
M  V30 3910 C 377.348 -0.734358 -1.53431 0
M  V30 3911 O 378.533 -0.98911 -1.67123 0
M  V30 3912 C 375.663 -2.11396 -2.75552 0
M  V30 3913 C 374.617 -3.27243 -2.75855 0
M  V30 3914 C 373.943 -3.36382 -4.15633 0
M  V30 3915 C 375.243 -4.64622 -2.38587 0
M  V30 3916 H 376.937 -2.77887 -1.11442 0
M  V30 3917 H 374.483 -1.33707 -0.534655 0
M  V30 3918 H 376.436 -2.33189 -3.51 0
M  V30 3919 H 375.16 -1.17921 -3.04569 0
M  V30 3920 H 373.819 -3.05356 -2.02863 0
M  V30 3921 H 373.467 -2.40445 -4.41809 0
M  V30 3922 H 373.167 -4.14249 -4.1674 0
M  V30 3923 H 374.691 -3.60422 -4.92877 0
M  V30 3924 H 376.105 -4.86219 -3.03749 0
M  V30 3925 H 374.502 -5.45121 -2.50925 0
M  V30 3926 H 375.572 -4.66097 -1.33723 0
M  V30 3927 N 376.915 0.57481 -1.46744 0
M  V30 3928 C 378.145 1.35659 -1.55821 0
M  V30 3929 C 378.553 1.88129 -0.201036 0
M  V30 3930 O 377.896 1.64723 0.813134 0
M  V30 3931 C 377.958 2.57473 -2.50894 0
M  V30 3932 C 377.622 2.26415 -3.9697 0
M  V30 3933 C 378.619 1.84771 -4.85958 0
M  V30 3934 C 376.304 2.38316 -4.42166 0
M  V30 3935 C 378.298 1.55434 -6.18158 0
M  V30 3936 C 375.985 2.08591 -5.74398 0
M  V30 3937 C 376.983 1.67216 -6.62214 0
M  V30 3938 O 376.671 1.37859 -7.91991 0
M  V30 3939 H 376.403 0.420496 -0.529301 0
M  V30 3940 H 378.957 0.704967 -1.92923 0
M  V30 3941 H 377.187 3.25468 -2.08824 0
M  V30 3942 H 378.876 3.19546 -2.50291 0
M  V30 3943 H 379.642 1.75085 -4.52295 0
M  V30 3944 H 375.521 2.69483 -3.74032 0
M  V30 3945 H 379.065 1.23065 -6.86659 0
M  V30 3946 H 374.962 2.17905 -6.07608 0
M  V30 3947 H 375.73 1.51638 -8.04331 0
M  V30 3948 N 378.394 1.34581 0.820102 0
M  V30 3949 C 379.326 1.22236 1.93884 0
M  V30 3950 C 380.339 0.148776 1.62119 0
M  V30 3951 O 381.528 0.400877 1.7394 0
M  V30 3952 C 378.628 0.856542 3.27897 0
M  V30 3953 C 377.801 2.02569 3.87666 0
M  V30 3954 C 376.86 1.63782 5.00062 0
M  V30 3955 O 375.886 2.35477 5.18208 0
M  V30 3956 N 377.088 0.553611 5.77854 0
M  V30 3957 H 379.853 2.18615 2.05006 0
M  V30 3958 H 377.414 1.27573 0.99683 0
M  V30 3959 H 379.406 0.578806 4.0054 0
M  V30 3960 H 377.976 -0.0171518 3.12595 0
M  V30 3961 H 377.196 2.468 3.07382 0
M  V30 3962 H 378.484 2.80752 4.24329 0
M  V30 3963 H 377.882 -0.0423528 5.65684 0
M  V30 3964 H 376.439 0.335614 6.50935 0
M  V30 3965 N 379.872 -1.04064 1.18357 0
M  V30 3966 C 380.782 -2.15569 0.925596 0
M  V30 3967 C 381.798 -1.7365 -0.110295 0
M  V30 3968 O 382.974 -2.01273 0.0716218 0
M  V30 3969 C 380.039 -3.43704 0.454836 0
M  V30 3970 C 379.1 -4.00004 1.55869 0
M  V30 3971 C 378.333 -5.22023 1.1103 0
M  V30 3972 O 378.556 -5.70392 -0.0309756 0
M  V30 3973 O 377.49 -5.70856 1.90805 0
M  V30 3974 H 381.316 -2.40187 1.8586 0
M  V30 3975 H 378.901 -1.1402 0.965394 0
M  V30 3976 H 380.783 -4.20923 0.200382 0
M  V30 3977 H 379.458 -3.20559 -0.449876 0
M  V30 3978 H 378.365 -3.24172 1.86716 0
M  V30 3979 H 379.698 -4.2749 2.43953 0
M  V30 3980 N 381.35 -0.985608 -1.22978 0
M  V30 3981 C 382.598 -0.656087 -1.91154 0
M  V30 3982 C 382.919 0.813561 -1.77218 0
M  V30 3983 O 382.189 1.58244 -1.1548 0
M  V30 3984 H 380.769 -0.239674 -0.707506 0
M  V30 3985 H 383.431 -1.25054 -1.49491 0
M  V30 3986 H 382.527 -0.912253 -2.9847 0
M  V30 3987 N 382.828 1.3818 -0.7579 0
M  V30 3988 C 383.791 2.28764 -0.141286 0
M  V30 3989 C 384.791 1.47388 0.642907 0
M  V30 3990 O 385.981 1.67781 0.468536 0
M  V30 3991 C 383.113 3.31184 0.808069 0
M  V30 3992 H 384.306 2.848 -0.939633 0
M  V30 3993 H 381.859 1.47212 -0.525191 0
M  V30 3994 H 382.594 2.80247 1.63193 0
M  V30 3995 H 382.379 3.91314 0.248104 0
M  V30 3996 H 383.869 3.98909 1.23536 0
M  V30 3997 N 384.306 0.507319 1.49211 0
M  V30 3998 C 385.253 -0.267728 2.29242 0
M  V30 3999 C 386.223 -0.954609 1.35928 0
M  V30 4000 O 387.408 -0.960046 1.64887 0
M  V30 4001 C 384.548 -1.32243 3.18756 0
M  V30 4002 C 383.661 -0.64669 4.27132 0
M  V30 4003 C 382.796 -1.68238 5.03855 0
M  V30 4004 C 381.835 -0.98885 6.0406 0
M  V30 4005 N 380.972 -1.96903 6.73924 0
M  V30 4006 H 385.812 0.420968 2.95012 0
M  V30 4007 H 383.349 0.219443 1.45454 0
M  V30 4008 H 385.307 -1.94599 3.69036 0
M  V30 4009 H 383.937 -1.97981 2.54958 0
M  V30 4010 H 382.989 0.0902926 3.80293 0
M  V30 4011 H 384.301 -0.101058 4.98698 0
M  V30 4012 H 383.455 -2.38081 5.58034 0
M  V30 4013 H 382.194 -2.26187 4.32077 0
M  V30 4014 H 381.199 -0.276222 5.49106 0
M  V30 4015 H 382.424 -0.415767 6.77826 0
M  V30 4016 H 380.37 -2.53803 6.04913 0
M  V30 4017 H 380.287 -1.47423 7.41487 0
M  V30 4018 H 381.555 -2.66015 7.32705 0
M  V30 4019 N 385.784 -1.5574 0.241426 0
M  V30 4020 C 386.717 -2.17168 -0.700935 0
M  V30 4021 C 387.695 -1.12206 -1.1768 0
M  V30 4022 O 388.879 -1.40565 -1.25593 0
M  V30 4023 C 386.006 -2.76796 -1.95196 0
M  V30 4024 C 385.052 -3.94764 -1.61442 0
M  V30 4025 S 385.885 -5.30613 -0.72182 0
M  V30 4026 C 387.041 -5.93691 -1.98197 0
M  V30 4027 H 387.274 -2.96761 -0.178882 0
M  V30 4028 H 384.807 -1.54378 0.0259299 0
M  V30 4029 H 386.765 -3.11787 -2.67019 0
M  V30 4030 H 385.426 -1.9716 -2.44514 0
M  V30 4031 H 384.619 -4.35057 -2.54443 0
M  V30 4032 H 384.221 -3.61022 -0.976672 0
M  V30 4033 H 386.513 -6.10874 -2.92983 0
M  V30 4034 H 387.456 -6.89258 -1.62262 0
M  V30 4035 H 387.864 -5.22709 -2.13156 0
M  V30 4036 N 387.262 0.0317525 -1.57568 0
M  V30 4037 C 388.225 1.01783 -2.0536 0
M  V30 4038 C 389.225 1.29203 -0.957253 0
M  V30 4039 O 390.415 1.24251 -1.22095 0
M  V30 4040 C 387.547 2.35137 -2.46827 0
M  V30 4041 H 388.74 0.605062 -2.93733 0
M  V30 4042 H 386.293 0.278514 -1.53799 0
M  V30 4043 H 387.028 2.81168 -1.61602 0
M  V30 4044 H 386.813 2.16566 -3.26866 0
M  V30 4045 H 388.303 3.05938 -2.84239 0
M  V30 4046 N 388.74 1.54641 0.303973 0
M  V30 4047 C 389.986 1.74038 1.04109 0
M  V30 4048 C 390.319 0.523051 1.87024 0
M  V30 4049 O 389.594 -0.479874 1.88487 0
M  V30 4050 C 389.877 3.02761 1.94955 0
M  V30 4051 C 389.73 4.34787 1.1524 0
M  V30 4052 C 391.049 3.27336 2.94175 0
M  V30 4053 H 388.168 0.63323 0.377079 0
M  V30 4054 H 390.81 1.87354 0.316001 0
M  V30 4055 H 388.96 2.9154 2.56782 0
M  V30 4056 H 390.632 4.57922 0.557236 0
M  V30 4057 H 388.875 4.31407 0.455053 0
M  V30 4058 H 389.546 5.21116 1.8205 0
M  V30 4059 H 392.022 3.38148 2.42477 0
M  V30 4060 H 390.898 4.18726 3.54908 0
M  V30 4061 H 391.159 2.45491 3.67677 0
M  V30 4062 N 390.218 -0.567019 1.47046 0
M  V30 4063 C 391.634 -0.891975 1.32348 0
M  V30 4064 C 391.834 -1.99154 0.306616 0
M  V30 4065 O 390.89 -2.50883 -0.28532 0
M  V30 4066 C 392.203 -1.29449 2.7141 0
M  V30 4067 C 393.751 -1.40646 2.79621 0
M  V30 4068 C 394.226 -1.84257 4.19301 0
M  V30 4069 N 395.717 -1.91424 4.21795 0
M  V30 4070 C 396.452 -2.26476 5.26779 0
M  V30 4071 N 395.948 -2.60211 6.42077 0
M  V30 4072 N 397.741 -2.27166 5.14152 0
M  V30 4073 H 389.892 0.159074 2.11803 0
M  V30 4074 H 392.155 0.00849752 0.947962 0
M  V30 4075 H 391.861 -0.560448 3.47206 0
M  V30 4076 H 391.735 -2.25273 3.02542 0
M  V30 4077 H 394.122 -2.13133 2.04104 0
M  V30 4078 H 394.203 -0.430339 2.52154 0
M  V30 4079 H 393.847 -1.12343 4.95319 0
M  V30 4080 H 393.777 -2.82855 4.44185 0
M  V30 4081 H 396.268 -1.6778 3.38612 0
M  V30 4082 H 396.581 -2.85956 7.17948 0
M  V30 4083 H 394.926 -2.57813 6.45413 0
M  V30 4084 H 398.117 -2.00244 4.23107 0
M  V30 4085 H 398.29 -2.54154 5.96079 0
M  V30 4086 N 391.696 -1.35014 -0.812953 0
M  V30 4087 C 392.626 -1.30069 -1.93919 0
M  V30 4088 C 393.607 -0.176275 -1.69184 0
M  V30 4089 O 394.792 -0.370227 -1.90638 0
M  V30 4090 C 391.922 -1.06547 -3.30552 0
M  V30 4091 C 390.876 -2.15561 -3.69753 0
M  V30 4092 C 390.202 -1.77214 -5.04479 0
M  V30 4093 C 391.502 -3.57476 -3.808 0
M  V30 4094 H 393.196 -2.24303 -1.98314 0
M  V30 4095 H 390.742 -1.07977 -0.952736 0
M  V30 4096 H 392.695 -1.01729 -4.08937 0
M  V30 4097 H 391.419 -0.0875719 -3.26483 0
M  V30 4098 H 390.078 -2.19466 -2.9365 0
M  V30 4099 H 389.726 -0.780589 -4.96906 0
M  V30 4100 H 389.426 -2.50184 -5.31678 0
M  V30 4101 H 390.95 -1.7391 -5.8531 0
M  V30 4102 H 392.364 -3.55929 -4.4943 0
M  V30 4103 H 390.761 -4.29152 -4.19462 0
M  V30 4104 H 391.831 -3.94091 -2.82525 0
M  V30 4105 N 393.175 1.03435 -1.18907 0
M  V30 4106 C 394.138 2.09756 -0.923844 0
M  V30 4107 C 395.138 1.60528 0.093416 0
M  V30 4108 O 396.328 1.73631 -0.140727 0
M  V30 4109 C 393.46 3.38692 -0.387354 0
M  V30 4110 H 394.653 2.34719 -1.86674 0
M  V30 4111 H 392.206 1.19959 -1.00197 0
M  V30 4112 H 392.941 3.19396 0.561845 0
M  V30 4113 H 392.726 3.75742 -1.12074 0
M  V30 4114 H 394.216 4.17016 -0.220694 0
M  V30 4115 N 394.653 0.992116 1.22453 0
M  V30 4116 C 395.93 0.583508 1.86694 0
M  V30 4117 C 396.31 -0.9392 1.89056 0
M  V30 4118 O 395.658 -1.82081 1.38053 0
M  V30 4119 C 395.868 1.20304 3.2761 0
M  V30 4120 C 397.216 1.30308 4.0411 0
M  V30 4121 O 398.24 1.15737 3.36873 0
M  V30 4122 O 397.099 1.53615 5.24466 0
M  V30 4123 H 394.193 0.198129 0.802916 0
M  V30 4124 H 396.739 1.08794 1.30238 0
M  V30 4125 H 395.511 2.24461 3.2052 0
M  V30 4126 H 395.134 0.684144 3.9167 0
M  V30 4127 N 396.131 -1.37776 0.765217 0
M  V30 4128 C 397.379 -1.99454 0.325943 0
M  V30 4129 C 397.7 -1.61049 -1.09947 0
M  V30 4130 O 396.97 -0.872821 -1.75381 0
M  V30 4131 H 395.55 -0.737697 0.117525 0
M  V30 4132 H 398.212 -1.68359 0.981895 0
M  V30 4133 H 397.308 -3.09547 0.398353 0
M  V30 4134 N 397.609 -0.515225 -1.4894 0
M  V30 4135 C 398.539 0.244628 -2.32215 0
M  V30 4136 C 399.52 0.949136 -1.41157 0
M  V30 4137 O 400.705 0.937783 -1.70057 0
M  V30 4138 C 397.835 1.30096 -3.22013 0
M  V30 4139 C 396.789 0.715486 -4.21977 0
M  V30 4140 C 396.115 1.87339 -5.00808 0
M  V30 4141 C 397.415 -0.302982 -5.2142 0
M  V30 4142 H 399.109 -0.450501 -2.95991 0
M  V30 4143 H 396.655 -0.218098 -1.42339 0
M  V30 4144 H 398.608 1.84037 -3.79089 0
M  V30 4145 H 397.332 2.02547 -2.56207 0
M  V30 4146 H 395.991 0.197715 -3.66066 0
M  V30 4147 H 395.639 2.58592 -4.31438 0
M  V30 4148 H 395.339 1.48764 -5.68457 0
M  V30 4149 H 396.863 2.41686 -5.60732 0
M  V30 4150 H 398.277 0.148802 -5.73107 0
M  V30 4151 H 396.674 -0.60532 -5.97039 0
M  V30 4152 H 397.744 -1.21395 -4.69459 0
M  V30 4153 N 399.087 1.5561 -0.249682 0
M  V30 4154 C 400.019 2.18834 0.681496 0
M  V30 4155 C 401.032 1.16546 1.1367 0
M  V30 4156 O 402.221 1.43397 1.06299 0
M  V30 4157 C 399.321 2.77992 1.9384 0
M  V30 4158 C 398.494 4.05725 1.63419 0
M  V30 4159 C 397.553 4.49174 2.74096 0
M  V30 4160 O 396.579 5.15492 2.41364 0
M  V30 4161 N 397.781 4.17191 4.03649 0
M  V30 4162 H 400.546 2.9937 0.140514 0
M  V30 4163 H 398.107 1.6175 -0.0697541 0
M  V30 4164 H 400.099 3.04015 2.67127 0
M  V30 4165 H 398.669 2.01596 2.38909 0
M  V30 4166 H 397.889 3.87261 0.736358 0
M  V30 4167 H 399.177 4.88999 1.40562 0
M  V30 4168 H 398.575 3.63955 4.33074 0
M  V30 4169 H 397.132 4.48043 4.73393 0
M  V30 4170 N 400.565 -0.0233959 1.57583 0
M  V30 4171 C 401.512 -1.02224 2.06927 0
M  V30 4172 C 402.482 -1.35575 0.959617 0
M  V30 4173 O 403.667 -1.45815 1.23055 0
M  V30 4174 C 400.807 -2.31636 2.5581 0
M  V30 4175 C 399.92 -2.04394 3.80588 0
M  V30 4176 C 399.055 -3.27717 4.18061 0
M  V30 4177 C 398.094 -2.96056 5.3574 0
M  V30 4178 N 397.231 -4.11847 5.68618 0
M  V30 4179 H 402.071 -0.594504 2.9201 0
M  V30 4180 H 399.608 -0.281921 1.44373 0
M  V30 4181 H 401.566 -3.07258 2.82221 0
M  V30 4182 H 400.196 -2.72122 1.73636 0
M  V30 4183 H 399.248 -1.19244 3.61227 0
M  V30 4184 H 400.56 -1.77042 4.66323 0
M  V30 4185 H 399.714 -4.11702 4.4563 0
M  V30 4186 H 398.453 -3.58188 3.30988 0
M  V30 4187 H 397.458 -2.10474 5.07918 0
M  V30 4188 H 398.683 -2.66857 6.24471 0
M  V30 4189 H 396.629 -4.42258 4.84504 0
M  V30 4190 H 396.546 -3.87938 6.48876 0
M  V30 4191 H 397.814 -4.96689 6.00766 0
M  V30 4192 N 402.043 -1.548 -0.295768 0
M  V30 4193 C 402.976 -1.81003 -1.38972 0
M  V30 4194 C 403.954 -0.661544 -1.48534 0
M  V30 4195 O 405.138 -0.902074 -1.65514 0
M  V30 4196 C 402.265 -1.95141 -2.76835 0
M  V30 4197 C 401.311 -3.17592 -2.84671 0
M  V30 4198 S 402.144 -4.75531 -2.46232 0
M  V30 4199 C 403.3 -4.92613 -3.86114 0
M  V30 4200 H 403.533 -2.73507 -1.16537 0
M  V30 4201 H 401.066 -1.46278 -0.494168 0
M  V30 4202 H 403.024 -2.03972 -3.56238 0
M  V30 4203 H 401.685 -1.03565 -2.96535 0
M  V30 4204 H 400.878 -3.24303 -3.85803 0
M  V30 4205 H 400.48 -3.07235 -2.13267 0
M  V30 4206 H 402.772 -4.76957 -4.81164 0
M  V30 4207 H 403.715 -5.94698 -3.8437 0
M  V30 4208 H 404.123 -4.2073 -3.76359 0
M  V30 4209 N 403.521 0.559213 -1.47345 0
M  V30 4210 C 404.767 1.31843 -1.54095 0
M  V30 4211 C 405.1 1.93149 -0.201726 0
M  V30 4212 O 404.375 1.77759 0.789428 0
M  V30 4213 C 404.658 2.43006 -2.65744 0
M  V30 4214 C 404.511 1.86581 -4.09277 0
M  V30 4215 C 405.83 3.44943 -2.73318 0
M  V30 4216 H 402.949 0.478012 -0.560957 0
M  V30 4217 H 405.591 0.625977 -1.79392 0
M  V30 4218 H 403.741 3.02072 -2.44305 0
M  V30 4219 H 405.413 1.31792 -4.42073 0
M  V30 4220 H 403.656 1.17268 -4.17649 0
M  V30 4221 H 404.327 2.66933 -4.83168 0
M  V30 4222 H 406.803 2.95793 -2.92653 0
M  V30 4223 H 405.679 4.20153 -3.53218 0
M  V30 4224 H 405.94 4.03665 -1.80296 0
M  V30 4225 N 404.999 1.35443 0.805782 0
M  V30 4226 C 406.41 1.25768 1.37983 0
M  V30 4227 C 406.761 -0.10958 1.95894 0
M  V30 4228 O 405.886 -1.01056 1.91355 0
M  V30 4229 C 406.481 2.27727 2.5085 0
M  V30 4230 C 405.04 2.2179 3.04115 0
M  V30 4231 C 404.187 2.13393 1.77084 0
M  V30 4232 H 407.138 1.4656 0.608752 0
M  V30 4233 H 407.159 1.90422 3.29424 0
M  V30 4234 H 406.671 3.27227 2.08671 0
M  V30 4235 H 404.772 1.25703 3.50756 0
M  V30 4236 H 404.885 3.13788 3.62042 0
M  V30 4237 H 403.249 1.59384 1.98668 0
M  V30 4238 H 404.032 3.14755 1.37056 0
M  V30 4239 N 406.477 -1.02803 1.19454 0
M  V30 4240 C 407.407 -2.12999 0.956758 0
M  V30 4241 C 408.388 -1.69743 -0.110188 0
M  V30 4242 O 409.573 -1.94148 0.0450038 0
M  V30 4243 C 406.703 -3.43746 0.495553 0
M  V30 4244 C 405.657 -4.00688 1.50443 0
M  V30 4245 C 404.983 -5.27067 0.900275 0
M  V30 4246 C 406.283 -4.35397 2.8849 0
M  V30 4247 H 407.977 -2.33148 1.87836 0
M  V30 4248 H 405.523 -1.12045 0.904539 0
M  V30 4249 H 407.476 -4.2021 0.316493 0
M  V30 4250 H 406.2 -3.23321 -0.461646 0
M  V30 4251 H 404.859 -3.2632 1.67065 0
M  V30 4252 H 404.507 -5.02959 -0.064503 0
M  V30 4253 H 404.207 -5.66127 1.57397 0
M  V30 4254 H 405.731 -6.06196 0.73203 0
M  V30 4255 H 407.145 -5.02795 2.75446 0
M  V30 4256 H 405.542 -4.85541 3.52661 0
M  V30 4257 H 406.612 -3.44662 3.41081 0
M  V30 4258 N 407.956 -0.998596 -1.21925 0
M  V30 4259 C 408.886 -0.573688 -2.26343 0
M  V30 4260 C 409.867 0.402296 -1.65274 0
M  V30 4261 O 411.052 0.291683 -1.91997 0
M  V30 4262 C 408.182 0.106839 -3.47136 0
M  V30 4263 C 407.136 -0.788269 -4.20678 0
M  V30 4264 C 406.462 0.0254927 -5.34694 0
M  V30 4265 C 407.762 -2.08784 -4.78755 0
M  V30 4266 H 409.456 -1.44651 -2.62138 0
M  V30 4267 H 407.002 -0.696975 -1.26009 0
M  V30 4268 H 408.955 0.415531 -4.19346 0
M  V30 4269 H 407.679 1.01424 -3.10452 0
M  V30 4270 H 406.338 -1.08069 -3.50309 0
M  V30 4271 H 405.986 0.933989 -4.94253 0
M  V30 4272 H 405.686 -0.570437 -5.84825 0
M  V30 4273 H 407.21 0.328147 -6.09718 0
M  V30 4274 H 408.624 -1.84272 -5.42878 0
M  V30 4275 H 407.021 -2.63307 -5.39249 0
M  V30 4276 H 408.091 -2.76284 -3.98491 0
M  V30 4277 N 409.434 1.37368 -0.772513 0
M  V30 4278 C 410.382 2.32134 -0.147111 0
M  V30 4279 C 411.376 1.54972 0.684106 0
M  V30 4280 O 412.582 1.70363 0.581083 0
M  V30 4281 H 408.957 0.751449 -0.028786 0
M  V30 4282 H 410.928 2.82464 -0.962112 0
M  V30 4283 C 409.677 3.40226 0.71703 0
M  V30 4284 H 409 3.99706 0.0867951 0
M  V30 4285 H 410.44 4.08897 1.12159 0
M  V30 4286 C 408.899 2.80372 1.86797 0
M  V30 4287 O 409.429 2.71183 2.96349 0
M  V30 4288 N 407.635 2.37904 1.66883 0
M  V30 4289 H 407.182 2.45578 0.777759 0
M  V30 4290 H 407.14 1.98202 2.44056 0
M  V30 4291 N 410.912 0.523116 1.48665 0
M  V30 4292 C 411.859 -0.243398 2.29513 0
M  V30 4293 C 412.829 -0.940139 1.36933 0
M  V30 4294 O 414.014 -0.942503 1.65896 0
M  V30 4295 C 411.154 -1.28855 3.20141 0
M  V30 4296 C 410.267 -0.60135 4.27794 0
M  V30 4297 C 409.402 -1.62884 5.05611 0
M  V30 4298 C 408.441 -0.924726 6.05075 0
M  V30 4299 N 407.578 -1.89744 6.75975 0
M  V30 4300 H 412.418 0.452234 2.94549 0
M  V30 4301 H 409.955 0.234858 1.45213 0
M  V30 4302 H 411.913 -1.90674 3.71079 0
M  V30 4303 H 410.543 -1.95266 2.57043 0
M  V30 4304 H 409.595 0.130623 3.80176 0
M  V30 4305 H 410.907 -0.0481585 4.98777 0
M  V30 4306 H 410.061 -2.32149 5.60528 0
M  V30 4307 H 408.8 -2.21592 4.34452 0
M  V30 4308 H 407.805 -0.217966 5.49368 0
M  V30 4309 H 409.03 -0.343851 6.78229 0
M  V30 4310 H 406.976 -2.47373 6.07571 0
M  V30 4311 H 406.893 -1.3955 7.43009 0
M  V30 4312 H 408.161 -2.58229 7.35485 0
M  V30 4313 N 412.39 -1.55475 0.257931 0
M  V30 4314 C 413.338 -2.23244 -0.653076 0
M  V30 4315 C 414.332 -1.22366 -1.17144 0
M  V30 4316 O 415.538 -1.40347 -1.12706 0
M  V30 4317 H 411.913 -0.716247 -0.229117 0
M  V30 4318 H 413.884 -2.98343 -0.0584788 0
M  V30 4319 C 412.633 -2.95401 -1.83395 0
M  V30 4320 H 411.956 -3.72802 -1.44424 0
M  V30 4321 H 413.396 -3.46165 -2.44838 0
M  V30 4322 C 411.855 -1.99895 -2.71189 0
M  V30 4323 O 412.385 -1.53909 -3.71046 0
M  V30 4324 N 410.591 -1.6676 -2.3799 0
M  V30 4325 H 410.138 -2.04352 -1.56837 0
M  V30 4326 H 410.096 -1.03127 -2.97005 0
M  V30 4327 N 413.868 0.0150385 -1.57593 0
M  V30 4328 C 414.816 1.02958 -2.08572 0
M  V30 4329 C 415.81 1.36554 -1.00246 0
M  V30 4330 O 417.016 1.35295 -1.18724 0
M  V30 4331 H 413.391 0.349619 -0.665786 0
M  V30 4332 H 415.362 0.573932 -2.92829 0
M  V30 4333 C 414.111 2.31752 -2.59203 0
M  V30 4334 H 413.434 2.06765 -3.42182 0
M  V30 4335 H 414.874 3.01053 -2.98568 0
M  V30 4336 C 413.333 3.01692 -1.49945 0
M  V30 4337 O 413.863 3.92083 -0.873704 0
M  V30 4338 N 412.069 2.6326 -1.23056 0
M  V30 4339 H 411.616 1.89838 -1.74125 0
M  V30 4340 H 411.574 3.10372 -0.501685 0
M  V30 4341 N 415.346 1.54954 0.287554 0
M  V30 4342 C 416.757 1.65732 0.859634 0
M  V30 4343 C 417.108 0.574767 1.87592 0
M  V30 4344 O 416.233 -0.286299 2.14498 0
M  V30 4345 C 416.828 3.00438 1.56597 0
M  V30 4346 C 415.387 3.13292 2.08627 0
M  V30 4347 C 414.534 2.61473 0.923416 0
M  V30 4348 H 417.485 1.5857 0.0642338 0
M  V30 4349 H 417.506 2.92613 2.43224 0
M  V30 4350 H 417.018 3.79207 0.826053 0
M  V30 4351 H 415.119 2.39268 2.85625 0
M  V30 4352 H 415.232 4.19647 2.31157 0
M  V30 4353 H 413.596 2.18264 1.31275 0
M  V30 4354 H 414.379 3.42733 0.197241 0
M  V30 4355 N 416.824 -0.551391 1.4764 0
M  V30 4356 C 417.771 -1.65796 1.60563 0
M  V30 4357 C 418.741 -1.59932 0.448428 0
M  V30 4358 O 419.926 -1.78679 0.669222 0
M  V30 4359 C 417.066 -3.04108 1.63133 0
M  V30 4360 C 416.179 -3.20365 2.89811 0
M  V30 4361 C 415.314 -4.49109 2.8368 0
M  V30 4362 C 414.353 -4.58819 4.05156 0
M  V30 4363 N 413.49 -5.78926 3.97227 0
M  V30 4364 H 418.33 -1.54088 2.5507 0
M  V30 4365 H 415.867 -0.75052 1.26513 0
M  V30 4366 H 417.825 -3.84207 1.62606 0
M  V30 4367 H 416.455 -3.14637 0.721341 0
M  V30 4368 H 415.507 -2.33659 3.00179 0
M  V30 4369 H 416.819 -3.23402 3.79753 0
M  V30 4370 H 415.973 -5.37475 2.81434 0
M  V30 4371 H 414.712 -4.4856 1.91431 0
M  V30 4372 H 413.717 -3.68864 4.077 0
M  V30 4373 H 414.942 -4.61124 4.98539 0
M  V30 4374 H 412.888 -5.79314 3.07785 0
M  V30 4375 H 412.805 -5.83367 4.80853 0
M  V30 4376 H 414.073 -6.69637 3.99007 0
M  V30 4377 N 418.302 -1.35869 -0.798587 0
M  V30 4378 C 419.549 -1.29588 -1.55606 0
M  V30 4379 C 419.877 0.127456 -1.94082 0
M  V30 4380 O 419.132 1.09461 -1.62225 0
M  V30 4381 C 419.431 -2.1556 -2.85077 0
M  V30 4382 C 419.097 -3.6424 -2.65781 0
M  V30 4383 C 417.759 -4.04766 -2.60227 0
M  V30 4384 C 420.111 -4.58547 -2.47758 0
M  V30 4385 C 417.439 -5.37753 -2.34603 0
M  V30 4386 C 419.791 -5.91742 -2.23662 0
M  V30 4387 C 418.455 -6.31402 -2.16534 0
M  V30 4388 H 417.725 -0.474197 -0.569402 0
M  V30 4389 H 420.372 -1.67839 -0.922086 0
M  V30 4390 H 418.677 -1.70216 -3.52893 0
M  V30 4391 H 420.374 -2.08031 -3.42818 0
M  V30 4392 H 416.964 -3.32086 -2.70956 0
M  V30 4393 H 421.148 -4.28117 -2.51056 0
M  V30 4394 H 416.404 -5.67474 -2.2756 0
M  V30 4395 H 420.578 -6.6439 -2.08708 0
M  V30 4396 H 418.205 -7.34381 -1.96441 0
M  V30 4397 N 419.78 1.02168 -1.19998 0
M  V30 4398 C 420.71 2.12488 -0.96804 0
M  V30 4399 C 421.691 1.69799 0.101185 0
M  V30 4400 O 422.876 1.94121 -0.0552993 0
M  V30 4401 C 420.006 3.43479 -0.513776 0
M  V30 4402 C 418.96 3.99884 -1.52566 0
M  V30 4403 C 418.286 5.26582 -0.928214 0
M  V30 4404 C 419.586 4.33861 -2.90795 0
M  V30 4405 H 421.28 2.32149 -1.89069 0
M  V30 4406 H 418.826 1.11564 -0.910468 0
M  V30 4407 H 420.779 4.20036 -0.338774 0
M  V30 4408 H 419.503 3.23561 0.444493 0
M  V30 4409 H 418.162 3.25429 -1.68794 0
M  V30 4410 H 417.81 5.02986 0.0378289 0
M  V30 4411 H 417.51 5.65284 -1.60397 0
M  V30 4412 H 419.034 6.05799 -0.764167 0
M  V30 4413 H 420.448 5.01327 -2.78109 0
M  V30 4414 H 418.845 4.83664 -3.55231 0
M  V30 4415 H 419.915 3.42848 -3.42904 0
M  V30 4416 N 421.258 1.00505 1.21394 0
M  V30 4417 C 422.221 0.570459 2.21987 0
M  V30 4418 C 423.221 -0.353211 1.56873 0
M  V30 4419 O 424.411 -0.14349 1.73608 0
M  V30 4420 C 421.543 -0.168555 3.40483 0
M  V30 4421 H 422.736 1.46021 2.6195 0
M  V30 4422 H 420.289 0.793565 1.34656 0
M  V30 4423 H 421.024 -1.07374 3.06009 0
M  V30 4424 H 420.809 0.494823 3.88965 0
M  V30 4425 H 422.299 -0.460362 4.15055 0
M  V30 4426 N 422.737 -1.36956 0.779787 0
M  V30 4427 C 423.986 -1.98738 0.344405 0
M  V30 4428 C 424.299 -1.62596 -1.08728 0
M  V30 4429 O 425.505 -2.1754 -1.62445 0
M  V30 4430 C 423.961 -3.5544 0.564829 0
M  V30 4431 C 423.569 -4.00514 2.0073 0
M  V30 4432 C 425.313 -4.24059 0.193471 0
M  V30 4433 C 423.22 -5.49957 2.17489 0
M  V30 4434 H 422.15 -0.743561 0.12503 0
M  V30 4435 H 424.801 -1.56381 0.960057 0
M  V30 4436 H 423.183 -3.95817 -0.120397 0
M  V30 4437 H 424.357 -3.71362 2.72814 0
M  V30 4438 H 422.672 -3.44703 2.336 0
M  V30 4439 H 425.269 -5.33874 0.297097 0
M  V30 4440 H 425.612 -4.07378 -0.857263 0
M  V30 4441 H 426.145 -3.89012 0.831556 0
M  V30 4442 H 422.884 -5.71574 3.2091 0
M  V30 4443 H 422.404 -5.80767 1.49899 0
M  V30 4444 H 424.083 -6.16043 1.97738 0
M  V30 4445 N 424.215 -0.530993 -1.48385 0
M  V30 4446 C 425.443 -0.00134122 -2.069 0
M  V30 4447 C 425.858 1.2805 -1.3874 0
M  V30 4448 O 425.215 1.76204 -0.475244 0
M  V30 4449 C 425.266 0.225256 -3.60798 0
M  V30 4450 O 424.987 -1.0058 -4.26398 0
M  V30 4451 C 426.488 0.795172 -4.3611 0
M  V30 4452 H 423.708 -0.0339704 -0.67014 0
M  V30 4453 H 426.252 -0.736926 -1.90761 0
M  V30 4454 H 424.407 0.910891 -3.76539 0
M  V30 4455 H 424.821 -0.787165 -5.1856 0
M  V30 4456 H 426.295 0.903143 -5.44562 0
M  V30 4457 H 426.772 1.80031 -4.00606 0
M  V30 4458 H 427.378 0.146069 -4.25049 0
M  V30 4459 N 425.693 1.55336 -0.266172 0
M  V30 4460 C 426.921 2.03801 0.356756 0
M  V30 4461 C 427.336 1.14485 1.50129 0
M  V30 4462 O 426.693 0.163121 1.8177 0
M  V30 4463 C 426.744 3.51455 0.846281 0
M  V30 4464 O 426.465 4.37371 -0.252663 0
M  V30 4465 C 427.966 4.15767 1.53794 0
M  V30 4466 H 425.186 0.665906 0.0825218 0
M  V30 4467 H 427.73 2.00636 -0.39566 0
M  V30 4468 H 425.885 3.55092 1.54881 0
M  V30 4469 H 426.299 5.24358 0.122173 0
M  V30 4470 H 427.773 5.20714 1.83198 0
M  V30 4471 H 428.25 3.63404 2.46646 0
M  V30 4472 H 428.856 4.16107 0.879488 0
M  V30 4473 N 427.171 -0.0066808 1.57599 0
M  V30 4474 C 428.448 -0.729586 1.81484 0
M  V30 4475 C 428.828 -1.92359 0.869558 0
M  V30 4476 O 428.176 -2.28348 -0.0832533 0
M  V30 4477 C 428.386 -1.1416 3.29801 0
M  V30 4478 C 429.734 -1.54823 3.95367 0
M  V30 4479 O 430.758 -1.23558 3.34084 0
M  V30 4480 O 429.617 -2.12937 5.03309 0
M  V30 4481 H 426.711 -0.354674 0.747085 0
M  V30 4482 H 429.257 0.0182609 1.6969 0
M  V30 4483 H 428.029 -0.290231 3.90222 0
M  V30 4484 H 427.652 -1.94876 3.46568 0
M  V30 4485 N 428.649 -1.55105 -0.279332 0
M  V30 4486 C 429.889 -1.7716 -1.01949 0
M  V30 4487 C 430.253 -0.557511 -1.83728 0
M  V30 4488 O 431.454 -0.656198 -2.60667 0
M  V30 4489 C 429.725 -3.0372 -1.88385 0
M  V30 4490 S 431.284 -3.46868 -2.68752 0
M  V30 4491 H 428.102 -0.62253 -0.343478 0
M  V30 4492 H 430.704 -1.93329 -0.290572 0
M  V30 4493 H 429.408 -3.90184 -1.2722 0
M  V30 4494 H 428.939 -2.902 -2.65608 0
M  V30 4495 H 430.954 -3.05643 -3.90892 0
M  V30 4496 N 430.127 0.543554 -1.4793 0
M  V30 4497 C 431.057 1.65888 -1.64327 0
M  V30 4498 C 432.038 1.62818 -0.492383 0
M  V30 4499 O 433.223 1.80226 -0.723338 0
M  V30 4500 C 430.353 3.04506 -1.67013 0
M  V30 4501 C 429.307 3.2243 -2.81466 0
M  V30 4502 C 428.633 4.61972 -2.69233 0
M  V30 4503 C 429.933 3.06496 -4.22915 0
M  V30 4504 H 431.627 1.52421 -2.57698 0
M  V30 4505 H 429.173 0.731849 -1.24016 0
M  V30 4506 H 431.126 3.82391 -1.77074 0
M  V30 4507 H 429.85 3.18964 -0.70212 0
M  V30 4508 H 428.509 2.46957 -2.70938 0
M  V30 4509 H 428.157 4.73247 -1.7043 0
M  V30 4510 H 427.857 4.74911 -3.46025 0
M  V30 4511 H 429.381 5.41974 -2.81242 0
M  V30 4512 H 430.795 3.74186 -4.34348 0
M  V30 4513 H 429.192 3.30938 -5.006 0
M  V30 4514 H 430.262 2.03077 -4.40327 0
M  V30 4515 N 431.605 1.3629 0.791371 0
M  V30 4516 C 432.537 1.26321 1.91248 0
M  V30 4517 C 433.55 0.18313 1.61767 0
M  V30 4518 O 434.739 0.437682 1.73051 0
M  V30 4519 C 431.839 0.925901 3.26007 0
M  V30 4520 C 431.012 2.10746 3.83281 0
M  V30 4521 C 430.071 1.74352 4.96475 0
M  V30 4522 O 429.097 2.46416 5.13096 0
M  V30 4523 N 430.299 0.676058 5.7655 0
M  V30 4524 H 433.064 2.22915 2.00323 0
M  V30 4525 H 430.625 1.29659 0.969546 0
M  V30 4526 H 432.617 0.663636 3.99222 0
M  V30 4527 H 431.187 0.0491581 3.12561 0
M  V30 4528 H 430.407 2.53264 3.02077 0
M  V30 4529 H 431.695 2.8969 4.18279 0
M  V30 4530 H 431.093 0.0776467 5.65647 0
M  V30 4531 H 429.65 0.473612 6.50077 0
M  V30 4532 N 433.083 -1.0153 1.20538 0
M  V30 4533 C 434.013 -2.11972 0.979295 0
M  V30 4534 C 434.994 -1.6985 -0.0921787 0
M  V30 4535 O 436.179 -1.94089 0.0655932 0
M  V30 4536 C 433.309 -3.43201 0.531984 0
M  V30 4537 C 432.263 -3.9907 1.54685 0
M  V30 4538 C 431.589 -5.26082 0.956127 0
M  V30 4539 C 432.889 -4.32313 2.93092 0
M  V30 4540 H 434.583 -2.31143 1.90298 0
M  V30 4541 H 432.129 -1.11079 0.916372 0
M  V30 4542 H 434.082 -4.1985 0.361044 0
M  V30 4543 H 432.806 -3.23792 -0.427327 0
M  V30 4544 H 431.465 -3.2453 1.70517 0
M  V30 4545 H 431.113 -5.02999 -0.0111538 0
M  V30 4546 H 430.813 -5.64426 1.63393 0
M  V30 4547 H 432.337 -6.05386 0.796284 0
M  V30 4548 H 433.751 -4.99845 2.80763 0
M  V30 4549 H 432.148 -4.81774 3.57791 0
M  V30 4550 H 433.218 -3.41025 3.44717 0
M  V30 4551 N 434.561 -1.01147 -1.20859 0
M  V30 4552 C 435.491 -0.597663 -2.25722 0
M  V30 4553 C 436.472 0.384744 -1.65692 0
M  V30 4554 O 437.657 0.271303 -1.92296 0
M  V30 4555 C 434.787 0.0700149 -3.47229 0
M  V30 4556 C 433.741 -0.832843 -4.19819 0
M  V30 4557 C 433.067 -0.0312202 -5.34691 0
M  V30 4558 C 434.367 -2.1385 -4.76514 0
M  V30 4559 H 436.061 -1.47423 -2.60589 0
M  V30 4560 H 433.607 -0.710301 -1.25263 0
M  V30 4561 H 435.56 0.37103 -4.19763 0
M  V30 4562 H 434.284 0.981259 -3.11511 0
M  V30 4563 H 432.943 -1.11778 -3.49144 0
M  V30 4564 H 432.591 0.881515 -4.95215 0
M  V30 4565 H 432.291 -0.632434 -5.84187 0
M  V30 4566 H 433.815 0.26346 -6.10031 0
M  V30 4567 H 435.229 -1.9002 -5.40893 0
M  V30 4568 H 433.626 -2.69012 -5.36426 0
M  V30 4569 H 434.696 -2.80495 -3.95538 0
M  V30 4570 N 436.039 1.36541 -0.78704 0
M  V30 4571 C 437.002 2.28413 -0.189778 0
M  V30 4572 C 438.002 1.48719 0.611499 0
M  V30 4573 O 439.192 1.68737 0.432842 0
M  V30 4574 C 436.324 3.32824 0.737638 0
M  V30 4575 H 437.517 2.82743 -0.999831 0
M  V30 4576 H 435.07 1.46065 -0.556298 0
M  V30 4577 H 435.805 2.83646 1.57212 0
M  V30 4578 H 435.59 3.91752 0.165044 0
M  V30 4579 H 437.08 4.0144 1.15047 0
M  V30 4580 N 437.518 0.538854 1.48102 0
M  V30 4581 C 438.748 0.0122958 2.06596 0
M  V30 4582 C 439.156 -1.27861 1.39457 0
M  V30 4583 O 438.499 -1.77348 0.478907 0
M  V30 4584 C 438.561 -0.273131 3.58461 0
M  V30 4585 C 438.225 0.92561 4.47528 0
M  V30 4586 C 439.222 1.82637 4.86765 0
M  V30 4587 C 436.907 1.13511 4.89306 0
M  V30 4588 C 438.901 2.92047 5.66558 0
M  V30 4589 C 436.588 2.23233 5.68868 0
M  V30 4590 C 437.586 3.12333 6.07402 0
M  V30 4591 O 437.274 4.20155 6.85365 0
M  V30 4592 H 437.006 0.0344283 0.675123 0
M  V30 4593 H 439.56 0.746494 1.91355 0
M  V30 4594 H 437.79 -1.06141 3.71848 0
M  V30 4595 H 439.479 -0.742842 3.99045 0
M  V30 4596 H 440.245 1.67649 4.55103 0
M  V30 4597 H 436.124 0.450835 4.5879 0
M  V30 4598 H 439.668 3.6162 5.96554 0
M  V30 4599 H 435.565 2.38201 5.99942 0
M  V30 4600 H 436.333 4.17975 7.03732 0
M  V30 4601 N 438.996 -1.55193 0.274407 0
M  V30 4602 C 440.244 -1.99187 -0.341902 0
M  V30 4603 C 440.565 -1.16422 -1.56431 0
M  V30 4604 O 439.835 -0.253573 -1.94252 0
M  V30 4605 H 438.415 -0.735721 -0.129317 0
M  V30 4606 H 441.077 -1.91168 0.379578 0
M  V30 4607 H 440.173 -3.05629 -0.632253 0
M  V30 4608 N 440.474 -0.00167713 -1.576 0
M  V30 4609 C 441.422 1.0074 -2.09652 0
M  V30 4610 C 442.416 1.35483 -1.01689 0
M  V30 4611 O 443.622 1.34028 -1.20152 0
M  V30 4612 H 439.997 0.342537 -0.669457 0
M  V30 4613 H 441.968 0.542841 -2.93421 0
M  V30 4614 C 440.717 2.2899 -2.61647 0
M  V30 4615 H 440.04 2.03124 -3.44355 0
M  V30 4616 H 441.48 2.9787 -3.01744 0
M  V30 4617 C 439.939 3.00085 -1.53136 0
M  V30 4618 O 440.469 3.91135 -0.91524 0
M  V30 4619 N 438.675 2.6194 -1.25841 0
M  V30 4620 H 438.222 1.8798 -1.76129 0
M  V30 4621 H 438.18 3.09822 -0.534576 0
M  V30 4622 N 441.952 1.55251 0.271103 0
M  V30 4623 C 442.884 1.84675 1.35749 0
M  V30 4624 C 443.897 0.731366 1.45447 0
M  V30 4625 O 445.086 1.00924 1.4723 0
M  V30 4626 C 442.186 1.99638 2.73857 0
M  V30 4627 C 441.359 3.30312 2.86727 0
M  V30 4628 C 440.418 3.35318 4.05522 0
M  V30 4629 O 439.444 4.08682 3.96191 0
M  V30 4630 N 440.646 2.62857 5.17577 0
M  V30 4631 H 443.411 2.78445 1.10853 0
M  V30 4632 H 440.972 1.55191 0.461218 0
M  V30 4633 H 442.964 2.00355 3.51625 0
M  V30 4634 H 441.534 1.12725 2.91568 0
M  V30 4635 H 440.754 3.42118 1.95829 0
M  V30 4636 H 442.042 4.16488 2.92258 0
M  V30 4637 H 441.44 2.02939 5.28046 0
M  V30 4638 H 439.997 2.69295 5.93568 0
M  V30 4639 N 443.43 -0.535701 1.48216 0
M  V30 4640 C 444.34 -1.66785 1.64985 0
M  V30 4641 C 445.356 -1.65654 0.532414 0
M  V30 4642 O 446.532 -1.8471 0.80275 0
M  V30 4643 C 443.597 -3.0326 1.68031 0
M  V30 4644 C 442.658 -3.1529 2.9136 0
M  V30 4645 C 441.891 -4.45255 2.94252 0
M  V30 4646 O 442.114 -5.32011 2.05719 0
M  V30 4647 O 441.048 -4.6153 3.86359 0
M  V30 4648 H 444.874 -1.55576 2.60825 0
M  V30 4649 H 442.459 -0.70815 1.31551 0
M  V30 4650 H 444.341 -3.84436 1.72589 0
M  V30 4651 H 443.016 -3.14805 0.753628 0
M  V30 4652 H 441.923 -2.3343 2.92337 0
M  V30 4653 H 443.256 -3.08658 3.83394 0
M  V30 4654 N 444.908 -1.36708 -0.784132 0
M  V30 4655 C 446.133 -1.34565 -1.5782 0
M  V30 4656 C 446.558 0.0695257 -1.87971 0
M  V30 4657 O 445.916 1.04302 -1.48293 0
M  V30 4658 C 445.964 -2.17952 -2.87279 0
M  V30 4659 O 445.068 -1.57563 -3.81114 0
M  V30 4660 H 444.409 -0.460337 -0.478524 0
M  V30 4661 H 446.939 -1.80064 -0.971495 0
M  V30 4662 H 446.949 -2.30721 -3.365 0
M  V30 4663 H 445.624 -3.20823 -2.64661 0
M  V30 4664 H 444.201 -1.53764 -3.39722 0
M  V30 4665 N 446.386 1.0089 -1.21074 0
M  V30 4666 C 447.333 2.09588 -0.966512 0
M  V30 4667 C 448.303 1.65761 0.106089 0
M  V30 4668 O 449.488 1.90758 -0.0402287 0
M  V30 4669 C 446.628 3.40958 -0.533058 0
M  V30 4670 C 445.741 3.9822 -1.67467 0
M  V30 4671 C 444.876 5.17682 -1.19076 0
M  V30 4672 C 443.915 5.67043 -2.30496 0
M  V30 4673 N 443.052 6.77759 -1.83267 0
M  V30 4674 H 447.892 2.29815 -1.89708 0
M  V30 4675 H 445.429 1.12689 -0.945489 0
M  V30 4676 H 447.387 4.1637 -0.263019 0
M  V30 4677 H 446.017 3.20781 0.360505 0
M  V30 4678 H 445.069 3.1983 -2.05944 0
M  V30 4679 H 446.381 4.3085 -2.51336 0
M  V30 4680 H 445.535 6.00326 -0.877151 0
M  V30 4681 H 444.274 4.86635 -0.322066 0
M  V30 4682 H 443.279 4.82999 -2.62664 0
M  V30 4683 H 444.504 6.00121 -3.17855 0
M  V30 4684 H 442.45 6.48527 -0.987356 0
M  V30 4685 H 442.367 7.09624 -2.60711 0
M  V30 4686 H 443.635 7.63949 -1.54928 0
M  V30 4687 N 447.864 1.01787 1.20321 0
M  V30 4688 C 448.794 0.609625 2.25401 0
M  V30 4689 C 449.775 -0.375951 1.65893 0
M  V30 4690 O 450.96 -0.261101 1.92437 0
M  V30 4691 C 448.09 -0.0515995 3.47262 0
M  V30 4692 C 447.044 0.855095 4.19371 0
M  V30 4693 C 446.37 0.0595757 5.34667 0
M  V30 4694 C 447.67 2.16374 4.75373 0
M  V30 4695 H 449.364 1.48803 2.59804 0
M  V30 4696 H 446.91 0.716934 1.24884 0
M  V30 4697 H 448.863 -0.348764 4.19954 0
M  V30 4698 H 447.587 -0.964726 3.12027 0
M  V30 4699 H 446.246 1.13628 3.48546 0
M  V30 4700 H 445.894 -0.85524 4.95676 0
M  V30 4701 H 445.594 0.663406 5.83843 0
M  V30 4702 H 447.118 -0.231105 6.10162 0
M  V30 4703 H 448.532 1.92885 5.39878 0
M  V30 4704 H 446.929 2.71853 5.34991 0
M  V30 4705 H 447.999 2.82589 3.94045 0
M  V30 4706 N 449.342 -1.36122 0.79427 0
M  V30 4707 C 450.591 -1.98361 0.365464 0
M  V30 4708 C 450.904 -1.6374 -1.06997 0
M  V30 4709 O 452.11 -2.19251 -1.60129 0
M  V30 4710 C 450.566 -3.54821 0.602496 0
M  V30 4711 C 450.174 -3.98362 2.04967 0
M  V30 4712 C 451.918 -4.2383 0.238437 0
M  V30 4713 C 449.825 -5.47619 2.2331 0
M  V30 4714 H 448.755 -0.742193 0.13291 0
M  V30 4715 H 451.406 -1.55354 0.976589 0
M  V30 4716 H 449.788 -3.95922 -0.078409 0
M  V30 4717 H 450.962 -3.68447 2.76737 0
M  V30 4718 H 449.277 -3.42206 2.37243 0
M  V30 4719 H 451.874 -5.33529 0.353705 0
M  V30 4720 H 452.217 -4.08264 -0.814006 0
M  V30 4721 H 452.75 -3.88108 0.872769 0
M  V30 4722 H 449.489 -5.68138 3.26955 0
M  V30 4723 H 449.009 -5.79145 1.5605 0
M  V30 4724 H 450.688 -6.13911 2.0426 0
M  V30 4725 N 450.82 -0.546701 -1.47814 0
M  V30 4726 C 452.069 -0.0166497 -2.01693 0
M  V30 4727 C 452.382 1.33721 -1.42752 0
M  V30 4728 O 453.588 1.95658 -1.8823 0
M  V30 4729 C 452.044 0.0206769 -3.59894 0
M  V30 4730 C 451.652 -1.3293 -4.27824 0
M  V30 4731 C 453.396 0.498674 -4.21561 0
M  V30 4732 C 451.303 -1.25165 -5.78003 0
M  V30 4733 H 450.233 -0.0024541 -0.753996 0
M  V30 4734 H 452.884 -0.692984 -1.69912 0
M  V30 4735 H 451.266 0.76244 -3.88591 0
M  V30 4736 H 452.44 -2.08795 -4.10781 0
M  V30 4737 H 450.755 -1.74438 -3.78101 0
M  V30 4738 H 453.352 0.575 -5.31599 0
M  V30 4739 H 453.695 1.5083 -3.88016 0
M  V30 4740 H 454.228 -0.18791 -3.97356 0
M  V30 4741 H 450.967 -2.23695 -6.1615 0
M  V30 4742 H 450.487 -0.53464 -5.97412 0
M  V30 4743 H 452.166 -0.949299 -6.39998 0
M  V30 4744 N 452.299 1.55045 -0.282633 0
M  V30 4745 C 453.229 2.2579 0.595066 0
M  V30 4746 C 454.21 1.25074 1.15284 0
M  V30 4747 O 455.395 1.5381 1.18559 0
M  V30 4748 C 452.525 2.98472 1.77572 0
M  V30 4749 C 451.479 4.0618 1.34914 0
M  V30 4750 C 450.805 4.66477 2.6135 0
M  V30 4751 C 452.105 5.1996 0.493821 0
M  V30 4752 H 453.799 2.994 0.00505653 0
M  V30 4753 H 451.345 1.44 0.000992001 0
M  V30 4754 H 453.298 3.46677 2.39568 0
M  V30 4755 H 452.022 2.2241 2.39168 0
M  V30 4756 H 450.681 3.58797 0.752338 0
M  V30 4757 H 450.329 3.87074 3.2122 0
M  V30 4758 H 450.029 5.39207 2.33516 0
M  V30 4759 H 451.553 5.17435 3.24181 0
M  V30 4760 H 452.967 5.64172 1.01898 0
M  V30 4761 H 451.364 5.99299 0.310047 0
M  V30 4762 H 452.434 4.82462 -0.485593 0
M  V30 4763 N 453.777 0.010035 1.57597 0
M  V30 4764 C 454.74 -0.963029 2.07986 0
M  V30 4765 C 455.74 -1.26619 0.991173 0
M  V30 4766 O 456.93 -1.2097 1.25347 0
M  V30 4767 C 454.062 -2.2851 2.52974 0
M  V30 4768 H 455.255 -0.526971 2.95234 0
M  V30 4769 H 452.808 -0.237639 1.54483 0
M  V30 4770 H 453.543 -2.76784 1.69 0
M  V30 4771 H 453.328 -2.07824 3.32493 0
M  V30 4772 H 454.818 -2.98294 2.9225 0
M  V30 4773 N 455.255 -1.55392 -0.262866 0
M  V30 4774 C 456.203 -1.8977 -1.345 0
M  V30 4775 C 457.197 -0.775063 -1.50629 0
M  V30 4776 O 458.403 -0.959519 -1.52293 0
M  V30 4777 H 454.778 -0.602467 -0.450041 0
M  V30 4778 H 456.749 -2.80147 -1.02762 0
M  V30 4779 C 455.498 -2.19501 -2.69657 0
M  V30 4780 H 454.821 -3.05378 -2.5804 0
M  V30 4781 H 456.261 -2.47469 -3.44289 0
M  V30 4782 C 454.72 -1.00597 -3.21531 0
M  V30 4783 O 455.25 -0.245768 -4.00947 0
M  V30 4784 N 453.456 -0.800911 -2.79345 0
M  V30 4785 H 453.003 -1.42079 -2.14875 0
M  V30 4786 H 452.961 -0.00697996 -3.14399 0
M  V30 4787 N 456.733 0.527833 -1.48498 0
M  V30 4788 C 457.981 1.28101 -1.56316 0
M  V30 4789 C 458.302 1.9352 -0.239781 0
M  V30 4790 O 457.572 1.81433 0.738849 0
M  V30 4791 H 456.152 0.475793 -0.575873 0
M  V30 4792 H 458.814 0.614052 -1.84974 0
M  V30 4793 H 457.91 2.05916 -2.34532 0
M  V30 4794 N 458.211 1.37122 0.776871 0
M  V30 4795 C 459.459 1.31787 1.53221 0
M  V30 4796 C 459.78 -0.0987589 1.9475 0
M  V30 4797 O 459.05 -1.0417 1.65908 0
M  V30 4798 H 457.63 0.484839 0.568278 0
M  V30 4799 H 460.292 1.71556 0.924917 0
M  V30 4800 H 459.388 1.95355 2.43398 0
M  V30 4801 N 459.689 -1.00246 1.21608 0
M  V30 4802 C 461.1 -1.55511 1.03312 0
M  V30 4803 C 461.451 -1.91946 -0.406332 0
M  V30 4804 O 460.576 -1.73753 -1.28992 0
M  V30 4805 C 461.171 -2.82576 1.86913 0
M  V30 4806 C 459.73 -3.34318 1.72941 0
M  V30 4807 C 458.877 -2.07487 1.83968 0
M  V30 4808 H 461.828 -0.824638 1.35593 0
M  V30 4809 H 461.849 -3.54559 1.38087 0
M  V30 4810 H 461.361 -2.56026 2.91672 0
M  V30 4811 H 459.462 -3.65797 0.70877 0
M  V30 4812 H 459.575 -4.05566 2.55055 0
M  V30 4813 H 457.939 -2.20603 1.27304 0
M  V30 4814 H 458.722 -1.83346 2.9024 0
M  V30 4815 N 461.167 -1.02423 -1.1978 0
M  V30 4816 C 462.099 -0.559152 -2.22275 0
M  V30 4817 C 463.112 0.36251 -1.58713 0
M  V30 4818 O 464.301 0.159641 -1.77785 0
M  V30 4819 C 461.401 0.205094 -3.38279 0
M  V30 4820 C 460.574 -0.720361 -4.31427 0
M  V30 4821 C 459.633 -0.00234368 -5.262 0
M  V30 4822 O 458.659 -0.627378 -5.65732 0
M  V30 4823 N 459.861 1.26996 -5.66438 0
M  V30 4824 H 462.626 -1.44064 -2.62804 0
M  V30 4825 H 460.187 -0.902692 -1.34399 0
M  V30 4826 H 462.179 0.694868 -3.9869 0
M  V30 4827 H 460.749 0.987947 -2.96578 0
M  V30 4828 H 459.969 -1.39031 -3.68869 0
M  V30 4829 H 461.257 -1.3495 -4.90577 0
M  V30 4830 H 460.655 1.79858 -5.36347 0
M  V30 4831 H 459.212 1.70432 -6.29123 0
M  V30 4832 N 462.645 1.35699 -0.801477 0
M  V30 4833 C 463.608 2.28199 -0.213994 0
M  V30 4834 C 464.608 1.49359 0.595691 0
M  V30 4835 O 465.798 1.69186 0.414921 0
M  V30 4836 C 462.93 3.33587 0.702297 0
M  V30 4837 H 464.123 2.81666 -1.02976 0
M  V30 4838 H 461.676 1.45467 -0.571759 0
M  V30 4839 H 462.411 2.85297 1.54195 0
M  V30 4840 H 462.196 3.91906 0.123484 0
M  V30 4841 H 463.686 4.02638 1.10783 0
M  V30 4842 N 464.123 0.554532 1.47522 0
M  V30 4843 C 465.053 -0.182974 2.32782 0
M  V30 4844 C 466.034 -0.911377 1.43624 0
M  V30 4845 O 467.219 -0.892366 1.72483 0
M  V30 4846 C 464.349 -1.21513 3.25349 0
M  V30 4847 C 463.303 -0.603355 4.23726 0
M  V30 4848 C 462.629 -1.73995 5.05598 0
M  V30 4849 C 463.929 0.441121 5.20434 0
M  V30 4850 H 465.623 0.52882 2.94693 0
M  V30 4851 H 463.169 0.255759 1.41711 0
M  V30 4852 H 465.122 -1.73922 3.83835 0
M  V30 4853 H 463.846 -1.95683 2.61487 0
M  V30 4854 H 462.505 -0.10059 3.66462 0
M  V30 4855 H 462.153 -2.47063 4.38143 0
M  V30 4856 H 461.853 -1.3364 5.72201 0
M  V30 4857 H 463.377 -2.26735 5.66942 0
M  V30 4858 H 464.791 0.00319931 5.733 0
M  V30 4859 H 463.188 0.763402 5.95224 0
M  V30 4860 H 464.258 1.33799 4.66075 0
M  V30 4861 N 465.601 -1.54893 0.290851 0
M  V30 4862 C 466.847 -2.0023 -0.321867 0
M  V30 4863 C 467.18 -1.179 -1.54316 0
M  V30 4864 O 466.455 -0.25293 -1.92848 0
M  V30 4865 C 466.738 -3.53456 -0.688515 0
M  V30 4866 C 466.591 -4.46532 0.541209 0
M  V30 4867 C 467.91 -4.13057 -1.51895 0
M  V30 4868 H 465.029 -0.727891 -0.115515 0
M  V30 4869 H 467.671 -1.85722 0.400931 0
M  V30 4870 H 465.821 -3.6595 -1.30433 0
M  V30 4871 H 467.493 -4.4596 1.17973 0
M  V30 4872 H 465.736 -4.17545 1.17636 0
M  V30 4873 H 466.407 -5.51475 0.240675 0
M  V30 4874 H 468.883 -4.03937 -0.99872 0
M  V30 4875 H 467.759 -5.20448 -1.74429 0
M  V30 4876 H 468.02 -3.64284 -2.50498 0
M  V30 4877 N 467.08 -0.0183926 -1.57589 0
M  V30 4878 C 468.012 0.995557 -2.06449 0
M  V30 4879 C 469.025 1.29556 -0.985849 0
M  V30 4880 O 470.214 1.2621 -1.26227 0
M  V30 4881 C 467.314 2.32572 -2.46502 0
M  V30 4882 C 466.487 2.21245 -3.77319 0
M  V30 4883 C 465.546 3.37104 -4.04039 0
M  V30 4884 O 464.572 3.14468 -4.74445 0
M  V30 4885 N 465.774 4.60553 -3.53372 0
M  V30 4886 H 468.539 0.578746 -2.94059 0
M  V30 4887 H 466.1 0.168603 -1.6102 0
M  V30 4888 H 468.092 3.08887 -2.61478 0
M  V30 4889 H 466.662 2.65931 -1.64315 0
M  V30 4890 H 465.882 1.29723 -3.72244 0
M  V30 4891 H 467.17 2.10868 -4.63047 0
M  V30 4892 H 466.568 4.81839 -2.96391 0
M  V30 4893 H 465.125 5.34072 -3.73644 0
M  V30 4894 N 468.558 1.5553 0.254621 0
M  V30 4895 C 469.807 1.76202 0.981612 0
M  V30 4896 C 470.12 0.580883 1.86776 0
M  V30 4897 O 471.326 0.670448 2.63092 0
M  V30 4898 C 469.782 3.11921 1.79537 0
M  V30 4899 C 469.39 4.37659 0.956991 0
M  V30 4900 C 471.134 3.41936 2.51555 0
M  V30 4901 C 469.041 5.64411 1.76619 0
M  V30 4902 H 467.971 0.656841 0.370237 0
M  V30 4903 H 470.622 1.81969 0.236556 0
M  V30 4904 H 469.004 3.00241 2.58208 0
M  V30 4905 H 470.178 4.60307 0.21315 0
M  V30 4906 H 468.493 4.14922 0.350497 0
M  V30 4907 H 471.09 4.33849 3.12536 0
M  V30 4908 H 471.433 2.62905 3.22779 0
M  V30 4909 H 471.966 3.54797 1.799 0
M  V30 4910 H 468.705 6.46241 1.09783 0
M  V30 4911 H 468.225 5.45877 2.48551 0
M  V30 4912 H 469.904 6.03386 2.33527 0
M  V30 4913 N 470.036 -0.519951 1.48776 0
M  V30 4914 C 470.969 -1.64053 1.58625 0
M  V30 4915 C 471.947 -1.5664 0.43618 0
M  V30 4916 O 473.131 -1.76969 0.649159 0
M  V30 4917 C 470.258 -3.02497 1.52359 0
M  V30 4918 C 469.304 -3.28235 2.72331 0
M  V30 4919 S 470.137 -3.13414 4.34203 0
M  V30 4920 C 471.293 -4.54287 4.30551 0
M  V30 4921 H 471.526 -1.5545 2.53422 0
M  V30 4922 H 469.059 -0.703681 1.37433 0
M  V30 4923 H 471.017 -3.82336 1.4943 0
M  V30 4924 H 469.678 -3.08531 0.588824 0
M  V30 4925 H 468.871 -4.29256 2.64113 0
M  V30 4926 H 468.473 -2.56085 2.72574 0
M  V30 4927 H 470.765 -5.46006 4.01103 0
M  V30 4928 H 471.708 -4.67558 5.31785 0
M  V30 4929 H 472.116 -4.34079 3.60881 0
M  V30 4930 N 471.514 -1.37532 -0.769588 0
M  V30 4931 C 472.93 -1.18379 -1.07045 0
M  V30 4932 C 473.13 -0.0214312 -2.01489 0
M  V30 4933 O 472.186 0.637809 -2.44312 0
M  V30 4934 C 473.499 -2.50338 -1.66588 0
M  V30 4935 C 475.047 -2.56879 -1.78835 0
M  V30 4936 C 475.522 -3.88974 -2.41792 0
M  V30 4937 N 477.013 -3.90428 -2.4924 0
M  V30 4938 C 477.748 -4.89388 -2.98809 0
M  V30 4939 N 477.244 -5.98745 -3.48535 0
M  V30 4940 N 479.037 -4.76791 -2.97703 0
M  V30 4941 H 471.188 -2.11921 -0.142541 0
M  V30 4942 H 473.451 -0.939608 -0.125863 0
M  V30 4943 H 473.157 -3.35767 -1.0466 0
M  V30 4944 H 473.031 -2.67583 -2.65856 0
M  V30 4945 H 475.418 -1.71856 -2.39895 0
M  V30 4946 H 475.499 -2.43516 -0.783166 0
M  V30 4947 H 475.143 -4.74412 -1.81371 0
M  V30 4948 H 475.073 -3.99641 -3.4292 0
M  V30 4949 H 477.564 -3.11433 -2.14052 0
M  V30 4950 H 477.877 -6.70205 -3.84767 0
M  V30 4951 H 476.222 -6.02387 -3.46634 0
M  V30 4952 H 479.413 -3.90478 -2.58157 0
M  V30 4953 H 479.586 -5.54069 -3.36024 0
M  V30 4954 N 472.992 0.995999 -1.22138 0
M  V30 4955 C 473.94 2.10673 -0.985876 0
M  V30 4956 C 474.934 1.69255 0.0699553 0
M  V30 4957 O 476.14 1.79812 -0.0822176 0
M  V30 4958 H 472.515 0.688865 -0.30161 0
M  V30 4959 H 474.486 2.27711 -1.92848 0
M  V30 4960 C 473.235 3.42881 -0.576909 0
M  V30 4961 H 472.558 3.75191 -1.38101 0
M  V30 4962 H 473.998 4.21589 -0.451518 0
M  V30 4963 C 472.457 3.29265 0.713196 0
M  V30 4964 O 472.987 3.60777 1.76643 0
M  V30 4965 N 471.193 2.82456 0.683162 0
M  V30 4966 H 470.74 2.5701 -0.174242 0
M  V30 4967 H 470.698 2.73727 1.54663 0
M  V30 4968 N 474.47 1.03057 1.19235 0
M  V30 4969 C 475.7 0.746613 1.92638 0
M  V30 4970 C 476.108 -0.698708 1.75826 0
M  V30 4971 O 475.451 -1.487 1.07861 0
M  V30 4972 C 475.513 1.02024 3.44719 0
M  V30 4973 C 475.177 2.45745 3.85303 0
M  V30 4974 C 476.174 3.43887 3.8992 0
M  V30 4975 C 473.859 2.8019 4.16892 0
M  V30 4976 C 475.853 4.74529 4.2556 0
M  V30 4977 C 473.54 4.1104 4.52205 0
M  V30 4978 C 474.538 5.0802 4.56513 0
M  V30 4979 O 474.226 6.36527 4.91008 0
M  V30 4980 H 473.958 0.272401 0.618687 0
M  V30 4981 H 476.512 1.37853 1.52269 0
M  V30 4982 H 474.742 0.331184 3.85279 0
M  V30 4983 H 476.431 0.725677 3.9936 0
M  V30 4984 H 477.197 3.18614 3.65664 0
M  V30 4985 H 473.076 2.05382 4.12722 0
M  V30 4986 H 476.62 5.50222 4.28838 0
M  V30 4987 H 472.517 4.36086 4.7592 0
M  V30 4988 H 473.285 6.41025 5.08949 0
M  V30 4989 N 475.948 -1.35272 0.808662 0
M  V30 4990 C 477.173 -2.03477 0.401475 0
M  V30 4991 C 477.598 -1.60537 -0.980279 0
M  V30 4992 O 476.956 -0.78304 -1.63518 0
M  V30 4993 C 477.004 -3.57181 0.495354 0
M  V30 4994 O 476.108 -4.09474 -0.490397 0
M  V30 4995 H 475.449 -0.642561 0.167366 0
M  V30 4996 H 477.979 -1.72824 1.09512 0
M  V30 4997 H 477.989 -4.06356 0.365912 0
M  V30 4998 H 476.664 -3.87784 1.5032 0
M  V30 4999 H 475.241 -3.71516 -0.321023 0
M  V30 5000 N 477.426 -0.562348 -1.47226 0
M  V30 5001 C 478.656 -0.0451619 -2.06551 0
M  V30 5002 C 479.064 1.25626 -1.41473 0
M  V30 5003 O 478.407 1.76563 -0.507061 0
M  V30 5004 C 478.469 0.216068 -3.5885 0
M  V30 5005 C 478.133 -0.996691 -4.45999 0
M  V30 5006 C 479.13 -1.90358 -4.83797 0
M  V30 5007 C 476.815 -1.21281 -4.87438 0
M  V30 5008 C 478.809 -3.01023 -5.6184 0
M  V30 5009 C 476.496 -2.32255 -5.65244 0
M  V30 5010 C 477.494 -3.21956 -6.02356 0
M  V30 5011 O 477.182 -4.31005 -6.78594 0
M  V30 5012 H 476.914 -0.0451646 -0.67449 0
M  V30 5013 H 479.468 -0.776842 -1.90143 0
M  V30 5014 H 477.698 1.00212 -3.7349 0
M  V30 5015 H 479.387 0.679264 -4.00176 0
M  V30 5016 H 480.153 -1.74868 -4.52378 0
M  V30 5017 H 476.032 -0.523767 -4.58015 0
M  V30 5018 H 479.576 -3.71064 -5.90726 0
M  V30 5019 H 475.473 -2.47715 -5.96077 0
M  V30 5020 H 476.241 -4.29118 -6.96994 0
M  V30 5021 N 478.904 1.54736 -0.299062 0
M  V30 5022 C 479.814 2.27127 0.587413 0
M  V30 5023 C 480.83 1.30575 1.15005 0
M  V30 5024 O 482.006 1.63554 1.17525 0
M  V30 5025 C 479.071 2.99645 1.74395 0
M  V30 5026 C 478.132 4.11731 1.21559 0
M  V30 5027 C 477.365 4.80781 2.317 0
M  V30 5028 O 477.588 4.4918 3.51558 0
M  V30 5029 O 476.522 5.68226 1.98501 0
M  V30 5030 H 480.348 3.037 0.000250109 0
M  V30 5031 H 477.933 1.49256 -0.0655919 0
M  V30 5032 H 479.815 3.45138 2.4178 0
M  V30 5033 H 478.49 2.25969 2.31775 0
M  V30 5034 H 477.397 3.70641 0.507514 0
M  V30 5035 H 478.73 4.87379 0.687233 0
M  V30 5036 N 480.382 0.0267497 1.57577 0
M  V30 5037 C 481.329 -0.955894 2.10075 0
M  V30 5038 C 482.299 -1.32453 1.00226 0
M  V30 5039 O 483.484 -1.41826 1.27632 0
M  V30 5040 C 480.624 -2.2338 2.6305 0
M  V30 5041 C 479.737 -1.92183 3.86898 0
M  V30 5042 C 478.872 -3.14251 4.28275 0
M  V30 5043 C 477.911 -2.78862 5.44888 0
M  V30 5044 N 477.048 -3.93548 5.81433 0
M  V30 5045 H 481.888 -0.501303 2.93753 0
M  V30 5046 H 479.425 -0.235847 1.45197 0
M  V30 5047 H 481.383 -2.98124 2.91853 0
M  V30 5048 H 480.013 -2.6646 1.82205 0
M  V30 5049 H 479.065 -1.07692 3.64838 0
M  V30 5050 H 480.377 -1.62117 4.7172 0
M  V30 5051 H 479.531 -3.97317 4.58502 0
M  V30 5052 H 478.27 -3.47476 3.42215 0
M  V30 5053 H 477.275 -1.94208 5.14357 0
M  V30 5054 H 478.5 -2.46855 6.32645 0
M  V30 5055 H 476.446 -4.2662 4.98328 0
M  V30 5056 H 476.363 -3.67098 6.6089 0
M  V30 5057 H 477.631 -4.77325 6.16264 0
M  V30 5058 N 481.861 -1.55662 -0.24637 0
M  V30 5059 C 482.791 -1.93377 -1.30873 0
M  V30 5060 C 483.772 -0.798773 -1.50179 0
M  V30 5061 O 484.957 -1.0591 -1.62778 0
M  V30 5062 C 482.087 -2.22893 -2.66338 0
M  V30 5063 C 481.041 -3.38649 -2.61727 0
M  V30 5064 C 480.367 -3.53708 -4.00992 0
M  V30 5065 C 481.667 -4.74323 -2.18666 0
M  V30 5066 H 483.361 -2.82363 -0.995552 0
M  V30 5067 H 480.907 -1.35854 -0.477464 0
M  V30 5068 H 482.86 -2.47866 -3.40794 0
M  V30 5069 H 481.584 -1.30733 -2.99293 0
M  V30 5070 H 480.243 -3.13685 -1.89729 0
M  V30 5071 H 479.891 -2.58967 -4.31214 0
M  V30 5072 H 479.591 -4.31551 -3.98795 0
M  V30 5073 H 481.115 -3.81003 -4.77147 0
M  V30 5074 H 482.529 -4.98665 -2.82854 0
M  V30 5075 H 480.926 -5.55273 -2.27579 0
M  V30 5076 H 481.996 -4.71349 -1.13834 0
M  V30 5077 N 483.339 0.512053 -1.4905 0
M  V30 5078 C 484.269 1.62365 -1.67809 0
M  V30 5079 C 485.25 1.61737 -0.526809 0
M  V30 5080 O 486.435 1.78651 -0.761404 0
M  V30 5081 C 483.565 3.00895 -1.73435 0
M  V30 5082 C 482.519 3.16387 -2.88242 0
M  V30 5083 C 481.845 4.56157 -2.78971 0
M  V30 5084 C 483.145 2.97457 -4.29321 0
M  V30 5085 H 484.839 1.46921 -2.60873 0
M  V30 5086 H 482.385 0.705379 -1.2554 0
M  V30 5087 H 484.338 3.78549 -1.85145 0
M  V30 5088 H 483.062 3.17403 -0.769619 0
M  V30 5089 H 481.721 2.41155 -2.76116 0
M  V30 5090 H 481.369 4.69525 -1.8043 0
M  V30 5091 H 481.069 4.67465 -3.5602 0
M  V30 5092 H 482.593 5.35886 -2.92675 0
M  V30 5093 H 484.007 3.64888 -4.42187 0
M  V30 5094 H 482.404 3.20245 -5.07507 0
M  V30 5095 H 483.474 1.93692 -4.44535 0
M  V30 5096 N 484.817 1.37938 0.762283 0
M  V30 5097 C 486.063 1.34873 1.52253 0
M  V30 5098 C 486.418 -0.0635972 1.92295 0
M  V30 5099 O 485.711 -1.02434 1.61919 0
M  V30 5100 C 485.905 2.23042 2.79261 0
M  V30 5101 C 485.734 3.72706 2.51635 0
M  V30 5102 C 484.504 4.41771 2.45289 0
M  V30 5103 C 486.702 4.65345 2.18994 0
M  V30 5104 N 484.684 5.76921 2.09846 0
M  V30 5105 C 486.055 5.88943 1.9377 0
M  V30 5106 C 488.11 4.53636 2.0523 0
M  V30 5107 C 486.813 7.02142 1.5617 0
M  V30 5108 C 488.839 5.6673 1.69031 0
M  V30 5109 C 488.201 6.89383 1.44673 0
M  V30 5110 H 484.3 0.548818 0.557067 0
M  V30 5111 H 486.884 1.73247 0.888458 0
M  V30 5112 H 485.055 1.8687 3.40491 0
M  V30 5113 H 486.787 2.11165 3.45241 0
M  V30 5114 H 483.542 3.94883 2.61465 0
M  V30 5115 H 483.966 6.4837 1.94794 0
M  V30 5116 H 488.608 3.5937 2.2274 0
M  V30 5117 H 486.326 7.96334 1.37399 0
M  V30 5118 H 489.912 5.59645 1.59026 0
M  V30 5119 H 488.792 7.75411 1.17079 0
M  V30 5120 N 486.295 -0.989507 1.22664 0
M  V30 5121 C 487.523 -1.76496 1.07967 0
M  V30 5122 C 487.938 -1.85148 -0.369543 0
M  V30 5123 O 487.295 -1.32408 -1.25596 0
M  V30 5124 C 487.346 -3.19642 1.68853 0
M  V30 5125 O 487.067 -3.11453 3.08105 0
M  V30 5126 C 488.568 -4.13621 1.59475 0
M  V30 5127 H 485.788 -0.55418 0.378319 0
M  V30 5128 H 488.332 -1.24378 1.62328 0
M  V30 5129 H 486.487 -3.68816 1.18547 0
M  V30 5130 H 486.901 -4.01499 3.37489 0
M  V30 5131 H 488.375 -5.11801 2.06795 0
M  V30 5132 H 488.852 -4.35718 0.55191 0
M  V30 5133 H 489.458 -3.70346 2.09103 0
M  V30 5134 N 487.773 -1.03688 -1.18687 0
M  V30 5135 C 489.001 -0.757918 -1.92518 0
M  V30 5136 C 489.416 0.684398 -1.75959 0
M  V30 5137 O 488.773 1.46617 -1.08673 0
M  V30 5138 C 488.824 -1.10985 -3.44042 0
M  V30 5139 O 488.545 -2.49554 -3.60076 0
M  V30 5140 C 490.046 -0.854844 -4.3498 0
M  V30 5141 H 487.266 -0.276699 -0.611293 0
M  V30 5142 H 489.81 -1.38352 -1.50595 0
M  V30 5143 H 487.965 -0.529279 -3.83767 0
M  V30 5144 H 488.379 -2.6291 -4.53849 0
M  V30 5145 H 489.853 -1.15098 -5.39867 0
M  V30 5146 H 490.33 0.210507 -4.38695 0
M  V30 5147 H 490.936 -1.41853 -4.00946 0
M  V30 5148 N 489.251 1.34841 -0.815825 0
M  V30 5149 C 490.476 2.03261 -0.41226 0
M  V30 5150 C 490.901 1.61055 0.971751 0
M  V30 5151 O 490.259 0.7917 1.63101 0
M  V30 5152 C 490.307 3.56914 -0.514289 0
M  V30 5153 O 489.411 4.09728 0.468675 0
M  V30 5154 H 488.752 0.641664 -0.170771 0
M  V30 5155 H 491.282 1.72241 -1.10427 0
M  V30 5156 H 491.292 4.06156 -0.387457 0
M  V30 5157 H 489.967 3.86982 -1.52375 0
M  V30 5158 H 488.544 3.71681 0.301316 0
M  V30 5159 N 490.729 0.570148 1.46925 0
M  V30 5160 C 492.145 0.23087 1.57921 0
M  V30 5161 C 492.345 -1.26676 1.56702 0
M  V30 5162 O 491.401 -2.04774 1.47729 0
M  V30 5163 C 492.714 0.868973 2.8787 0
M  V30 5164 C 494.262 0.841397 3.01479 0
M  V30 5165 C 494.737 1.45881 4.34146 0
M  V30 5166 N 496.228 1.42258 4.40814 0
M  V30 5167 C 496.963 1.8698 5.42057 0
M  V30 5168 N 496.459 2.39618 6.50042 0
M  V30 5169 N 498.252 1.77972 5.33181 0
M  V30 5170 H 490.403 1.54301 1.45962 0
M  V30 5171 H 492.666 0.644224 0.69547 0
M  V30 5172 H 492.372 1.922 2.94537 0
M  V30 5173 H 492.246 0.369682 3.75384 0
M  V30 5174 H 494.633 -0.202973 2.94401 0
M  V30 5175 H 494.714 1.37858 2.15474 0
M  V30 5176 H 494.358 2.50231 4.4198 0
M  V30 5177 H 494.288 0.896958 5.18905 0
M  V30 5178 H 496.779 1.03768 3.63374 0
M  V30 5179 H 497.092 2.71633 7.23488 0
M  V30 5180 H 495.437 2.43636 6.50897 0
M  V30 5181 H 498.628 1.36617 4.4772 0
M  V30 5182 H 498.801 2.13143 6.11943 0
M  V30 5183 N 492.207 -1.54576 0.307264 0
M  V30 5184 C 493.453 -2.0056 -0.300612 0
M  V30 5185 C 493.786 -1.1953 -1.53057 0
M  V30 5186 O 493.061 -0.27337 -1.92569 0
M  V30 5187 C 493.344 -3.54167 -0.650987 0
M  V30 5188 C 493.197 -4.45933 0.588539 0
M  V30 5189 C 494.516 -4.14645 -1.47506 0
M  V30 5190 H 491.635 -0.729075 -0.107788 0
M  V30 5191 H 494.277 -1.85286 0.420606 0
M  V30 5192 H 492.427 -3.67313 -1.26544 0
M  V30 5193 H 494.099 -4.44683 1.22697 0
M  V30 5194 H 492.342 -4.16274 1.22058 0
M  V30 5195 H 493.013 -5.51189 0.299153 0
M  V30 5196 H 495.489 -4.04973 -0.955821 0
M  V30 5197 H 494.365 -5.22269 -1.68899 0
M  V30 5198 H 494.626 -3.66921 -2.4662 0
M  V30 5199 N 493.685 -0.035106 -1.57561 0
M  V30 5200 C 494.615 0.942993 -2.13612 0
M  V30 5201 C 495.596 1.33531 -1.05373 0
M  V30 5202 O 496.781 1.41287 -1.33235 0
M  V30 5203 C 493.911 2.22332 -2.66807 0
M  V30 5204 C 492.865 1.97156 -3.79886 0
M  V30 5205 C 492.191 3.31506 -4.19533 0
M  V30 5206 C 493.491 1.30596 -5.05709 0
M  V30 5207 H 495.185 0.476179 -2.95589 0
M  V30 5208 H 492.731 0.227602 -1.4219 0
M  V30 5209 H 494.684 2.91142 -3.04654 0
M  V30 5210 H 493.408 2.7119 -1.81999 0
M  V30 5211 H 492.067 1.30763 -3.42486 0
M  V30 5212 H 491.715 3.78134 -3.31698 0
M  V30 5213 H 491.415 3.15465 -4.95738 0
M  V30 5214 H 492.939 4.01574 -4.59968 0
M  V30 5215 H 494.353 1.89416 -5.41105 0
M  V30 5216 H 492.75 1.24934 -5.86951 0
M  V30 5217 H 493.82 0.279742 -4.84092 0
M  V30 5218 N 495.163 1.55791 0.238111 0
M  V30 5219 C 496.11 1.9105 1.29493 0
M  V30 5220 C 497.08 0.765733 1.47397 0
M  V30 5221 O 498.265 1.02017 1.61236 0
M  V30 5222 C 495.405 2.21826 2.64362 0
M  V30 5223 C 494.518 3.49153 2.54394 0
M  V30 5224 C 493.653 3.69455 3.81676 0
M  V30 5225 C 492.692 4.90353 3.66361 0
M  V30 5226 N 491.829 5.07131 4.85554 0
M  V30 5227 H 496.669 2.81172 0.987233 0
M  V30 5228 H 494.206 1.39179 0.476203 0
M  V30 5229 H 496.164 2.37675 3.4288 0
M  V30 5230 H 494.794 1.34897 2.93262 0
M  V30 5231 H 493.846 3.41587 1.67399 0
M  V30 5232 H 495.158 4.37818 2.38991 0
M  V30 5233 H 494.312 3.85311 4.68636 0
M  V30 5234 H 493.051 2.7904 3.99985 0
M  V30 5235 H 492.056 4.74464 2.77784 0
M  V30 5236 H 493.281 5.82237 3.49538 0
M  V30 5237 H 491.227 4.19654 5.04209 0
M  V30 5238 H 491.144 5.89899 4.72816 0
M  V30 5239 H 492.412 5.27407 5.73988 0
M  V30 5240 N 496.642 -0.504142 1.49319 0
M  V30 5241 C 497.888 -1.26033 1.58882 0
M  V30 5242 C 498.221 -1.92268 0.273274 0
M  V30 5243 O 497.496 -1.80567 -0.72291 0
M  V30 5244 C 497.779 -2.32976 2.7458 0
M  V30 5245 C 497.632 -1.71263 4.1592 0
M  V30 5246 C 498.951 -3.34561 2.85932 0
M  V30 5247 H 496.07 -0.456863 0.578312 0
M  V30 5248 H 498.712 -0.558965 1.81592 0
M  V30 5249 H 496.862 -2.92796 2.55348 0
M  V30 5250 H 498.534 -1.15294 4.4666 0
M  V30 5251 H 496.777 -1.01686 4.21714 0
M  V30 5252 H 497.448 -2.48816 4.92742 0
M  V30 5253 H 499.924 -2.84727 3.0343 0
M  V30 5254 H 498.8 -4.06754 3.68568 0
M  V30 5255 H 499.061 -3.96695 1.95154 0
M  V30 5256 N 498.12 -1.38341 -0.754957 0
M  V30 5257 C 499.05 -1.38176 -1.88227 0
M  V30 5258 C 500.031 -0.247873 -1.68284 0
M  V30 5259 O 501.216 -0.45075 -1.88896 0
M  V30 5260 C 498.346 -1.20471 -3.25736 0
M  V30 5261 C 497.3 -2.3105 -3.60278 0
M  V30 5262 C 496.626 -1.98452 -4.96509 0
M  V30 5263 C 497.926 -3.73305 -3.65295 0
M  V30 5264 H 499.62 -2.32512 -1.88622 0
M  V30 5265 H 497.166 -1.1192 -0.906082 0
M  V30 5266 H 499.119 -1.18982 -4.04254 0
M  V30 5267 H 497.843 -0.225965 -3.25817 0
M  V30 5268 H 496.502 -2.31723 -2.84078 0
M  V30 5269 H 496.15 -0.990641 -4.93148 0
M  V30 5270 H 495.85 -2.7251 -5.20588 0
M  V30 5271 H 497.374 -1.98578 -5.77407 0
M  V30 5272 H 498.788 -3.7467 -4.3393 0
M  V30 5273 H 497.185 -4.46557 -4.00883 0
M  V30 5274 H 498.255 -4.05719 -2.65556 0
M  V30 5275 N 499.598 0.982988 -1.23187 0
M  V30 5276 C 500.823 1.76455 -1.08988 0
M  V30 5277 C 501.248 1.84726 0.354691 0
M  V30 5278 O 500.606 1.30699 1.25649 0
M  V30 5279 C 500.654 3.17094 -1.71708 0
M  V30 5280 O 499.758 4.00648 -0.977477 0
M  V30 5281 H 499.099 0.542988 -0.382177 0
M  V30 5282 H 501.629 1.23413 -1.63188 0
M  V30 5283 H 501.639 3.67684 -1.76841 0
M  V30 5284 H 500.314 3.10389 -2.76823 0
M  V30 5285 H 498.891 3.59161 -1.0029 0
M  V30 5286 N 501.076 1.04316 1.18135 0
M  V30 5287 C 502.322 0.749128 1.88457 0
M  V30 5288 C 502.655 -0.72149 1.803 0
M  V30 5289 O 501.93 -1.52676 1.205 0
M  V30 5290 C 502.213 1.21905 3.38838 0
M  V30 5291 C 502.066 2.75195 3.55792 0
M  V30 5292 C 503.385 0.811085 4.32561 0
M  V30 5293 H 500.504 0.273611 0.684329 0
M  V30 5294 H 503.146 1.29561 1.38975 0
M  V30 5295 H 501.296 0.754137 3.8111 0
M  V30 5296 H 502.968 3.29743 3.22595 0
M  V30 5297 H 501.211 3.14899 2.98364 0
M  V30 5298 H 501.882 3.03135 4.61317 0
M  V30 5299 H 504.358 1.21118 3.98082 0
M  V30 5300 H 503.234 1.16761 5.36338 0
M  V30 5301 H 503.495 -0.285596 4.41177 0
M  V30 5302 N 502.554 -1.34406 0.822964 0
M  V30 5303 C 503.794 -2.00103 0.416915 0
M  V30 5304 C 504.158 -1.63826 -1.00125 0
M  V30 5305 O 505.359 -2.22367 -1.51018 0
M  V30 5306 C 503.63 -3.52101 0.613151 0
M  V30 5307 S 505.189 -4.37774 0.299956 0
M  V30 5308 H 502.007 -0.69333 0.157527 0
M  V30 5309 H 504.609 -1.63698 1.06879 0
M  V30 5310 H 503.313 -3.75991 1.64496 0
M  V30 5311 H 502.844 -3.93364 -0.0534554 0
M  V30 5312 H 504.859 -4.8822 -0.886336 0
M  V30 5313 N 504.032 -0.577932 -1.46621 0
M  V30 5314 C 505.443 -0.150071 -1.86096 0
M  V30 5315 C 505.794 1.28563 -1.48209 0
M  V30 5316 O 504.919 1.97036 -0.894754 0
M  V30 5317 C 505.514 -0.265576 -3.37758 0
M  V30 5318 C 504.073 0.10738 -3.76247 0
M  V30 5319 C 503.22 -0.603711 -2.70649 0
M  V30 5320 H 506.171 -0.786438 -1.37844 0
M  V30 5321 H 506.192 0.510352 -3.77062 0
M  V30 5322 H 505.704 -1.3106 -3.65301 0
M  V30 5323 H 503.805 1.15272 -3.54321 0
M  V30 5324 H 503.918 -0.26561 -4.78363 0
M  V30 5325 H 502.282 -0.0444884 -2.54661 0
M  V30 5326 H 503.065 -1.65029 -3.01032 0
M  V30 5327 N 505.51 1.54411 -0.315457 0
M  V30 5328 C 506.735 2.05299 0.294496 0
M  V30 5329 C 507.16 1.19052 1.4563 0
M  V30 5330 O 506.518 0.197804 1.80218 0
M  V30 5331 C 506.566 3.5345 0.714549 0
M  V30 5332 O 505.67 3.70175 1.81781 0
M  V30 5333 H 505.011 0.661743 0.0547019 0
M  V30 5334 H 507.541 1.99327 -0.461508 0
M  V30 5335 H 507.551 3.9557 0.999426 0
M  V30 5336 H 506.226 4.1568 -0.135244 0
M  V30 5337 H 504.803 3.3996 1.53236 0
M  V30 5338 N 506.988 0.0434614 1.5754 0
M  V30 5339 C 507.936 -0.951465 2.1225 0
M  V30 5340 C 508.93 -1.3274 1.05245 0
M  V30 5341 O 510.136 -1.30795 1.23663 0
M  V30 5342 H 506.511 -0.324667 0.678303 0
M  V30 5343 H 508.482 -0.464855 2.94757 0
M  V30 5344 C 507.231 -2.21972 2.67626 0
M  V30 5345 H 506.554 -1.93923 3.4962 0
M  V30 5346 H 507.994 -2.89765 3.09536 0
M  V30 5347 C 506.453 -2.95919 1.61038 0
M  V30 5348 O 506.983 -3.8857 1.01862 0
M  V30 5349 N 505.189 -2.58511 1.32741 0
M  V30 5350 H 504.736 -1.83244 1.81051 0
M  V30 5351 H 504.694 -3.08296 0.616531 0
M  V30 5352 N 508.466 -1.55915 -0.229846 0
M  V30 5353 C 509.413 -1.91734 -1.28478 0
M  V30 5354 C 510.383 -0.773539 -1.46988 0
M  V30 5355 O 511.568 -1.02871 -1.60693 0
M  V30 5356 C 508.708 -2.23224 -2.63182 0
M  V30 5357 C 507.821 -3.50497 -2.52539 0
M  V30 5358 C 506.956 -3.71474 -3.79711 0
M  V30 5359 C 505.995 -4.92289 -3.63755 0
M  V30 5360 N 505.132 -5.09698 -4.82858 0
M  V30 5361 H 509.972 -2.81692 -0.972308 0
M  V30 5362 H 507.509 -1.39429 -0.468815 0
M  V30 5363 H 509.467 -2.3949 -3.41614 0
M  V30 5364 H 508.097 -1.36451 -2.92542 0
M  V30 5365 H 507.149 -3.4247 -1.65585 0
M  V30 5366 H 508.461 -4.39079 -2.36666 0
M  V30 5367 H 507.615 -3.87791 -4.66586 0
M  V30 5368 H 506.354 -2.81157 -3.985 0
M  V30 5369 H 505.359 -4.7593 -2.75264 0
M  V30 5370 H 506.584 -5.84083 -3.46445 0
M  V30 5371 H 504.53 -4.22322 -5.01976 0
M  V30 5372 H 504.447 -5.92399 -4.69681 0
M  V30 5373 H 505.715 -5.30443 -5.71183 0
M  V30 5374 N 509.944 0.496216 -1.49584 0
M  V30 5375 C 511.355 1.07765 -1.52459 0
M  V30 5376 C 511.706 1.93679 -0.31353 0
M  V30 5377 O 510.831 2.08588 0.576186 0
M  V30 5378 C 511.426 1.96111 -2.76271 0
M  V30 5379 C 509.985 2.49409 -2.81908 0
M  V30 5380 C 509.132 1.27142 -2.46435 0
M  V30 5381 H 512.083 0.279914 -1.56212 0
M  V30 5382 H 512.104 2.80862 -2.56704 0
M  V30 5383 H 511.616 1.33555 -3.64396 0
M  V30 5384 H 509.717 3.1559 -1.98074 0
M  V30 5385 H 509.83 2.86234 -3.84196 0
M  V30 5386 H 508.194 1.59818 -1.98319 0
M  V30 5387 H 508.977 0.662866 -3.3684 0
M  V30 5388 N 511.423 1.38739 0.74761 0
M  V30 5389 C 512.386 1.36241 1.84312 0
M  V30 5390 C 513.386 0.261811 1.58654 0
M  V30 5391 O 514.576 0.519031 1.66288 0
M  V30 5392 C 511.708 1.12253 3.21888 0
M  V30 5393 H 512.901 2.33712 1.87933 0
M  V30 5394 H 510.454 1.2412 0.949946 0
M  V30 5395 H 511.189 0.154133 3.23934 0
M  V30 5396 H 510.974 1.91943 3.41907 0
M  V30 5397 H 512.464 1.13215 4.0196 0
M  V30 5398 N 512.901 -0.976442 1.23707 0
M  V30 5399 C 514.15 -1.71254 1.06559 0
M  V30 5400 C 514.463 -1.91528 -0.397024 0
M  V30 5401 O 515.669 -2.62625 -0.688518 0
M  V30 5402 C 514.125 -3.08207 1.8584 0
M  V30 5403 C 513.733 -2.95806 3.36456 0
M  V30 5404 C 515.477 -3.85749 1.77194 0
M  V30 5405 C 513.384 -4.28015 4.08114 0
M  V30 5406 H 512.314 -0.642171 0.395136 0
M  V30 5407 H 514.965 -1.08877 1.4771 0
M  V30 5408 H 513.347 -3.71363 1.37498 0
M  V30 5409 H 514.521 -2.41716 3.92314 0
M  V30 5410 H 512.836 -2.31736 3.45959 0
M  V30 5411 H 515.433 -4.83633 2.28041 0
M  V30 5412 H 515.776 -4.09752 0.735477 0
M  V30 5413 H 516.309 -3.29303 2.23169 0
M  V30 5414 H 513.048 -4.09208 5.12083 0
M  V30 5415 H 512.568 -4.81955 3.57043 0
M  V30 5416 H 514.247 -4.96681 4.14629 0
M  V30 5417 N 514.379 -1.04941 -1.1758 0
M  V30 5418 C 515.625 -0.759112 -1.88057 0
M  V30 5419 C 515.958 0.711918 -1.8068 0
M  V30 5420 O 515.233 1.52035 -1.21308 0
M  V30 5421 C 515.516 -1.237 -3.38187 0
M  V30 5422 C 515.369 -2.77078 -3.54327 0
M  V30 5423 C 516.688 -0.834014 -4.32125 0
M  V30 5424 H 513.807 -0.277237 -0.682868 0
M  V30 5425 H 516.449 -1.30296 -1.38286 0
M  V30 5426 H 514.599 -0.774337 -3.80705 0
M  V30 5427 H 516.271 -3.31449 -3.20842 0
M  V30 5428 H 514.514 -3.16477 -2.96689 0
M  V30 5429 H 515.185 -3.05577 -4.59703 0
M  V30 5430 H 517.661 -1.23228 -3.97434 0
M  V30 5431 H 516.537 -1.19603 -5.35711 0
M  V30 5432 H 516.798 0.262195 -4.41322 0
M  V30 5433 N 515.857 1.33968 -0.830081 0
M  V30 5434 C 516.767 2.33164 -0.259207 0
M  V30 5435 C 517.783 1.62951 0.610164 0
M  V30 5436 O 518.959 1.94668 0.516369 0
M  V30 5437 C 516.024 3.42088 0.563598 0
M  V30 5438 C 515.085 4.28037 -0.329014 0
M  V30 5439 C 514.318 5.3176 0.454616 0
M  V30 5440 O 514.541 5.44876 1.6872 0
M  V30 5441 O 513.475 6.01669 -0.166794 0
M  V30 5442 H 517.301 2.83832 -1.08041 0
M  V30 5443 H 514.886 1.37154 -0.59239 0
M  V30 5444 H 516.768 4.08581 1.03147 0
M  V30 5445 H 515.443 2.93651 1.36201 0
M  V30 5446 H 514.35 3.64443 -0.844538 0
M  V30 5447 H 515.683 4.79934 -1.09196 0
M  V30 5448 N 517.335 0.585699 1.46312 0
M  V30 5449 C 518.298 -0.135673 2.28798 0
M  V30 5450 C 519.298 -0.815988 1.38558 0
M  V30 5451 O 520.488 -0.667487 1.60904 0
M  V30 5452 C 517.62 -1.20163 3.1902 0
M  V30 5453 H 518.813 0.589257 2.94054 0
M  V30 5454 H 516.366 0.343794 1.52472 0
M  V30 5455 H 517.101 -1.95804 2.58517 0
M  V30 5456 H 516.886 -0.718282 3.85465 0
M  V30 5457 H 518.376 -1.70749 3.81096 0
M  V30 5458 N 518.813 -1.54241 0.323641 0
M  V30 5459 C 520.061 -2.00174 -0.278359 0
M  V30 5460 C 520.382 -1.2134 -1.52648 0
M  V30 5461 O 519.652 -0.315244 -1.93347 0
M  V30 5462 H 518.232 -0.739463 -0.105845 0
M  V30 5463 H 520.894 -1.89864 0.440204 0
M  V30 5464 H 519.99 -3.07486 -0.5347 0
M  V30 5465 N 520.291 -0.0518155 -1.57515 0
M  V30 5466 C 521.539 0.620595 -1.92336 0
M  V30 5467 C 521.86 1.71345 -0.930907 0
M  V30 5468 O 521.13 1.95885 0.0241341 0
M  V30 5469 H 519.71 0.232226 -0.709986 0
M  V30 5470 H 522.372 -0.104969 -1.94617 0
M  V30 5471 H 521.468 1.05879 -2.93592 0
M  V30 5472 N 521.769 1.56035 0.221574 0
M  V30 5473 C 522.702 1.87427 1.30178 0
M  V30 5474 C 523.68 0.731658 1.45209 0
M  V30 5475 O 524.864 0.980016 1.61022 0
M  V30 5476 C 521.991 2.08127 2.67209 0
M  V30 5477 C 521.037 3.30813 2.69194 0
M  V30 5478 S 521.87 4.86738 2.23263 0
M  V30 5479 C 523.026 5.10474 3.62171 0
M  V30 5480 H 523.259 2.78756 1.03355 0
M  V30 5481 H 520.792 1.48469 0.423813 0
M  V30 5482 H 522.75 2.20736 3.46101 0
M  V30 5483 H 521.411 1.17595 2.91256 0
M  V30 5484 H 520.604 3.42341 3.6989 0
M  V30 5485 H 520.206 3.1706 1.98366 0
M  V30 5486 H 522.498 4.9937 4.5786 0
M  V30 5487 H 523.441 6.12359 3.55558 0
M  V30 5488 H 523.849 4.38208 3.55857 0
M  V30 5489 N 523.247 -0.488276 1.49845 0
M  V30 5490 C 524.179 -1.60539 1.63584 0
M  V30 5491 C 525.192 -1.5434 0.517972 0
M  V30 5492 O 526.381 -1.60041 0.790516 0
M  V30 5493 C 523.481 -2.99374 1.58835 0
M  V30 5494 C 522.654 -3.30624 2.86368 0
M  V30 5495 C 521.713 -4.4893 2.74496 0
M  V30 5496 O 520.739 -4.50085 3.48443 0
M  V30 5497 N 521.941 -5.49591 1.86894 0
M  V30 5498 H 524.706 -1.49176 2.59936 0
M  V30 5499 H 522.267 -0.67639 1.47094 0
M  V30 5500 H 524.259 -3.76459 1.48529 0
M  V30 5501 H 522.829 -3.04595 0.702892 0
M  V30 5502 H 522.049 -2.42314 3.1093 0
M  V30 5503 H 523.337 -3.48305 3.70892 0
M  V30 5504 H 522.735 -5.51467 1.26097 0
M  V30 5505 H 521.292 -6.25728 1.82503 0
M  V30 5506 N 524.725 -1.39134 -0.740242 0
M  V30 5507 C 525.688 -1.37217 -1.83587 0
M  V30 5508 C 526.688 -0.270221 -1.58513 0
M  V30 5509 O 527.878 -0.527843 -1.6601 0
M  V30 5510 C 525.01 -1.13959 -3.21288 0
M  V30 5511 H 526.203 -2.34705 -1.86691 0
M  V30 5512 H 523.756 -1.24622 -0.94335 0
M  V30 5513 H 524.491 -0.17131 -3.23847 0
M  V30 5514 H 524.276 -1.93754 -3.40884 0
M  V30 5515 H 525.766 -1.15346 -4.01354 0
M  V30 5516 N 526.204 0.969867 -1.24223 0
M  V30 5517 C 527.134 2.08191 -1.05729 0
M  V30 5518 C 528.115 1.70075 0.0290765 0
M  V30 5519 O 529.3 1.93712 -0.137583 0
M  V30 5520 C 526.43 3.40991 -0.658995 0
M  V30 5521 C 525.384 3.93054 -1.69389 0
M  V30 5522 C 524.71 5.22171 -1.15072 0
M  V30 5523 C 526.01 4.21137 -3.08935 0
M  V30 5524 H 527.704 2.23921 -1.98746 0
M  V30 5525 H 525.25 1.07602 -0.956967 0
M  V30 5526 H 527.203 4.18221 -0.51662 0
M  V30 5527 H 525.927 3.25155 0.30686 0
M  V30 5528 H 524.586 3.17977 -1.82444 0
M  V30 5529 H 524.234 5.02694 -0.175539 0
M  V30 5530 H 523.934 5.57973 -1.84229 0
M  V30 5531 H 525.458 6.02013 -1.02042 0
M  V30 5532 H 526.872 4.8908 -2.99121 0
M  V30 5533 H 525.269 4.68163 -3.75425 0
M  V30 5534 H 526.339 3.27996 -3.57137 0
M  V30 5535 N 527.682 1.05563 1.17022 0
M  V30 5536 C 528.93 0.76642 1.87004 0
M  V30 5537 C 529.251 -0.708854 1.8166 0
M  V30 5538 O 528.521 -1.51242 1.2451 0
M  V30 5539 H 527.101 0.280516 0.692329 0
M  V30 5540 H 529.763 1.33557 1.41945 0
M  V30 5541 H 528.859 1.08472 2.92644 0
M  V30 5542 N 529.16 -1.33526 0.837174 0
M  V30 5543 C 530.107 -2.29248 0.267169 0
M  V30 5544 C 531.077 -1.54252 -0.616071 0
M  V30 5545 O 532.262 -1.82559 -0.554699 0
M  V30 5546 C 529.402 -3.40638 -0.553152 0
M  V30 5547 C 528.515 -4.30548 0.353921 0
M  V30 5548 C 527.65 -5.29051 -0.477339 0
M  V30 5549 C 526.689 -6.106 0.42823 0
M  V30 5550 N 525.826 -7.01152 -0.364801 0
M  V30 5551 H 530.666 -2.77398 1.08877 0
M  V30 5552 H 528.203 -1.36496 0.54838 0
M  V30 5553 H 530.161 -4.03921 -1.04422 0
M  V30 5554 H 528.791 -2.93685 -1.33973 0
M  V30 5555 H 527.843 -3.68001 0.963289 0
M  V30 5556 H 529.155 -4.87631 1.04964 0
M  V30 5557 H 528.309 -5.97853 -1.0323 0
M  V30 5558 H 527.048 -4.72541 -1.2065 0
M  V30 5559 H 526.053 -5.40718 0.995219 0
M  V30 5560 H 527.278 -6.69193 1.15573 0
M  V30 5561 H 525.224 -6.47092 -1.07738 0
M  V30 5562 H 525.141 -7.5551 0.272238 0
M  V30 5563 H 526.409 -7.74263 -0.902054 0
M  V30 5564 N 530.638 -0.59345 -1.46 0
M  V30 5565 C 531.588 0.154751 -2.27474 0
M  V30 5566 C 532.572 0.851849 -1.365 0
M  V30 5567 O 533.764 0.744171 -1.60596 0
M  V30 5568 C 530.893 1.16079 -3.2308 0
M  V30 5569 C 529.979 0.465256 -4.2154 0
M  V30 5570 N 530.37 -0.485197 -5.03467 0
M  V30 5571 C 528.668 0.714634 -4.40237 0
M  V30 5572 C 529.369 -0.892709 -5.74809 0
M  V30 5573 N 528.345 -0.239511 -5.43072 0
M  V30 5574 H 532.147 -0.57546 -2.88211 0
M  V30 5575 H 529.661 -0.416046 -1.5698 0
M  V30 5576 H 531.658 1.71108 -3.80168 0
M  V30 5577 H 530.318 1.89171 -2.63903 0
M  V30 5578 H 531.329 -0.861258 -5.10689 0
M  V30 5579 H 528.006 1.43131 -3.92199 0
M  V30 5580 H 529.396 -1.67581 -6.50666 0
M  V30 5581 N 532.116 1.54067 -0.331816 0
M  V30 5582 C 533.046 2.27569 0.522932 0
M  V30 5583 C 534.027 1.28679 1.11247 0
M  V30 5584 O 535.212 1.57504 1.13605 0
M  V30 5585 C 532.342 3.0397 1.67987 0
M  V30 5586 C 531.296 4.10267 1.21924 0
M  V30 5587 C 530.622 4.74555 2.46377 0
M  V30 5588 C 531.922 5.21268 0.32815 0
M  V30 5589 H 533.616 2.99264 -0.0901977 0
M  V30 5590 H 531.162 1.4393 -0.044821 0
M  V30 5591 H 533.115 3.54123 2.28418 0
M  V30 5592 H 531.839 2.29906 2.31971 0
M  V30 5593 H 530.498 3.61009 0.637809 0
M  V30 5594 H 530.146 3.97098 3.08743 0
M  V30 5595 H 529.846 5.46363 2.16243 0
M  V30 5596 H 531.37 5.27487 3.07555 0
M  V30 5597 H 532.784 5.67128 0.838978 0
M  V30 5598 H 531.181 5.99982 0.119228 0
M  V30 5599 H 532.251 4.80673 -0.638839 0
M  V30 5600 N 533.594 0.0601682 1.57485 0
M  V30 5601 C 534.822 -0.620937 1.97363 0
M  V30 5602 C 535.237 -1.63846 0.938082 0
M  V30 5603 O 534.594 -1.82339 -0.0766578 0
M  V30 5604 C 534.645 -1.29987 3.37321 0
M  V30 5605 O 534.366 -0.323081 4.36907 0
M  V30 5606 C 535.867 -2.06989 3.92008 0
M  V30 5607 H 533.087 -0.169135 0.649334 0
M  V30 5608 H 535.631 0.129132 2.04092 0
M  V30 5609 H 533.786 -2.0011 3.31715 0
M  V30 5610 H 534.2 -0.808754 5.18227 0
M  V30 5611 H 535.674 -2.49901 4.92192 0
M  V30 5612 H 536.151 -2.92173 3.2792 0
M  V30 5613 H 536.757 -1.41757 4.0098 0
M  V30 5614 N 535.072 -1.5615 -0.213296 0
M  V30 5615 C 536.297 -1.83986 -0.957282 0
M  V30 5616 C 536.722 -0.641526 -1.76822 0
M  V30 5617 O 536.08 0.409722 -1.7661 0
M  V30 5618 C 536.128 -3.09889 -1.84393 0
M  V30 5619 O 535.232 -2.89163 -2.94038 0
M  V30 5620 H 534.573 -0.606357 -0.270605 0
M  V30 5621 H 537.103 -2.03369 -0.224111 0
M  V30 5622 H 537.113 -3.40209 -2.25215 0
M  V30 5623 H 535.788 -3.96735 -1.24795 0
M  V30 5624 H 534.365 -2.70097 -2.57103 0
M  V30 5625 N 536.55 0.480323 -1.50102 0
M  V30 5626 C 537.498 1.60024 -1.68805 0
M  V30 5627 C 538.492 1.60089 -0.553888 0
M  V30 5628 O 539.698 1.64349 -0.734127 0
M  V30 5629 H 536.073 0.530841 -0.532646 0
M  V30 5630 H 538.044 1.41408 -2.62767 0
M  V30 5631 C 536.793 2.98029 -1.79092 0
M  V30 5632 H 536.116 2.98694 -2.65748 0
M  V30 5633 H 537.556 3.75871 -1.96206 0
M  V30 5634 C 536.015 3.32538 -0.540388 0
M  V30 5635 O 536.545 4.00386 0.324637 0
M  V30 5636 N 534.751 2.87873 -0.397154 0
M  V30 5637 H 534.298 2.32834 -1.1021 0
M  V30 5638 H 534.256 3.11328 0.438425 0
M  V30 5639 N 538.028 1.39524 0.732853 0
M  V30 5640 C 539.253 1.40329 1.52717 0
M  V30 5641 C 539.678 0.000286574 1.881 0
M  V30 5642 O 539.036 -0.987262 1.52062 0
M  V30 5643 C 539.084 2.28464 2.78992 0
M  V30 5644 O 538.188 1.716 3.75003 0
M  V30 5645 H 537.529 0.47778 0.461109 0
M  V30 5646 H 540.059 1.83546 0.903996 0
M  V30 5647 H 540.069 2.43051 3.27705 0
M  V30 5648 H 538.744 3.30425 2.52572 0
M  V30 5649 H 537.321 1.66267 3.33781 0
M  V30 5650 N 539.506 -0.963266 1.24736 0
M  V30 5651 C 540.917 -1.52145 1.08207 0
M  V30 5652 C 541.268 -1.93142 -0.345061 0
M  V30 5653 O 540.393 -1.77769 -1.23399 0
M  V30 5654 C 540.988 -2.76486 1.95808 0
M  V30 5655 C 539.547 -3.28646 1.8349 0
M  V30 5656 C 538.694 -2.01529 1.90476 0
M  V30 5657 H 541.645 -0.781083 1.38148 0
M  V30 5658 H 541.666 -3.49986 1.49297 0
M  V30 5659 H 541.178 -2.46617 2.99669 0
M  V30 5660 H 539.279 -3.63357 0.824787 0
M  V30 5661 H 539.392 -3.97246 2.67829 0
M  V30 5662 H 537.756 -2.16442 1.34258 0
M  V30 5663 H 538.539 -1.7402 2.95926 0
M  V30 5664 N 540.985 -1.06182 -1.16461 0
M  V30 5665 C 542.401 -0.785065 -1.38956 0
M  V30 5666 C 542.601 0.616103 -1.9185 0
M  V30 5667 O 541.657 1.37686 -2.11657 0
M  V30 5668 C 542.97 -1.84902 -2.37132 0
M  V30 5669 C 544.518 -1.8724 -2.50819 0
M  V30 5670 C 544.993 -2.92686 -3.52277 0
M  V30 5671 N 546.484 -2.91712 -3.59803 0
M  V30 5672 C 547.219 -3.69949 -4.38093 0
M  V30 5673 N 546.715 -4.58 -5.19815 0
M  V30 5674 N 548.508 -3.58346 -4.33064 0
M  V30 5675 H 540.659 -1.96569 -0.804634 0
M  V30 5676 H 542.922 -0.851747 -0.416211 0
M  V30 5677 H 542.628 -2.85518 -2.0536 0
M  V30 5678 H 542.502 -1.69908 -3.36766 0
M  V30 5679 H 544.889 -0.872827 -2.81897 0
M  V30 5680 H 544.97 -2.06311 -1.51226 0
M  V30 5681 H 544.614 -3.92835 -3.21937 0
M  V30 5682 H 544.544 -2.70864 -4.51598 0
M  V30 5683 H 547.035 -2.27876 -3.01464 0
M  V30 5684 H 547.348 -5.14357 -5.76764 0
M  V30 5685 H 545.693 -4.62056 -5.19162 0
M  V30 5686 H 548.884 -2.88943 -3.68279 0
M  V30 5687 H 549.057 -4.19563 -4.93833 0
M  V30 5688 N 542.463 1.3308 -0.844243 0
M  V30 5689 C 543.393 2.3161 -0.296493 0
M  V30 5690 C 544.374 1.59215 0.598707 0
M  V30 5691 O 545.559 1.87077 0.521134 0
M  V30 5692 C 542.689 3.43313 0.524762 0
M  V30 5693 C 541.643 4.27115 -0.275106 0
M  V30 5694 C 540.969 5.30483 0.670236 0
M  V30 5695 C 542.269 5.00443 -1.49514 0
M  V30 5696 H 543.963 2.77672 -1.11976 0
M  V30 5697 H 541.509 1.33496 -0.539899 0
M  V30 5698 H 543.462 4.11273 0.918298 0
M  V30 5699 H 542.186 2.95952 1.3813 0
M  V30 5700 H 540.845 3.60787 -0.650267 0
M  V30 5701 H 540.493 4.79379 1.52332 0
M  V30 5702 H 540.193 5.87435 0.139123 0
M  V30 5703 H 541.717 6.01308 1.06117 0
M  V30 5704 H 543.131 5.61141 -1.17447 0
M  V30 5705 H 541.528 5.67071 -1.96343 0
M  V30 5706 H 542.598 4.28906 -2.26202 0
M  V30 5707 N 543.941 0.601185 1.45683 0
M  V30 5708 C 545.187 0.0940202 2.02582 0
M  V30 5709 C 545.52 -1.26972 1.46941 0
M  V30 5710 O 544.795 -1.83613 0.641612 0
M  V30 5711 C 545.078 0.0481715 3.60068 0
M  V30 5712 C 544.931 1.44212 4.26055 0
M  V30 5713 C 546.25 -0.642975 4.35378 0
M  V30 5714 H 543.369 0.0356404 0.736138 0
M  V30 5715 H 546.011 0.771929 1.73612 0
M  V30 5716 H 544.161 -0.529128 3.8488 0
M  V30 5717 H 545.833 2.06601 4.12449 0
M  V30 5718 H 544.076 2.00465 3.84703 0
M  V30 5719 H 544.747 1.36234 5.34925 0
M  V30 5720 H 547.223 -0.152351 4.15821 0
M  V30 5721 H 546.099 -0.644141 5.45107 0
M  V30 5722 H 546.36 -1.70785 4.0778 0
M  V30 5723 N 545.419 -1.53889 0.339982 0
M  V30 5724 C 546.351 -2.22435 -0.55275 0
M  V30 5725 C 547.364 -1.22975 -1.06681 0
M  V30 5726 O 548.553 -1.49351 -0.977575 0
M  V30 5727 C 545.653 -2.8882 -1.77302 0
M  V30 5728 C 544.826 -4.14563 -1.39486 0
M  V30 5729 C 543.885 -4.64391 -2.47442 0
M  V30 5730 O 542.911 -5.28687 -2.10899 0
M  V30 5731 N 544.113 -4.40015 -3.78639 0
M  V30 5732 H 546.878 -2.9968 0.0342669 0
M  V30 5733 H 544.439 -1.61068 0.16394 0
M  V30 5734 H 546.431 -3.19072 -2.48948 0
M  V30 5735 H 545.001 -2.15182 -2.26749 0
M  V30 5736 H 544.221 -3.90896 -0.509321 0
M  V30 5737 H 545.509 -4.96362 -1.11813 0
M  V30 5738 H 544.907 -3.88586 -4.11118 0
M  V30 5739 H 543.464 -4.74881 -4.46465 0
M  V30 5740 N 546.897 -0.0685191 -1.57451 0
M  V30 5741 C 547.845 0.917577 -2.13736 0
M  V30 5742 C 548.839 1.31049 -1.07344 0
M  V30 5743 O 550.045 1.28811 -1.25728 0
M  V30 5744 H 546.42 0.313835 -0.683382 0
M  V30 5745 H 548.391 0.417903 -2.95459 0
M  V30 5746 C 547.14 2.17686 -2.71123 0
M  V30 5747 H 546.463 1.88336 -3.52661 0
M  V30 5748 H 547.903 2.84803 -3.14107 0
M  V30 5749 C 546.362 2.9332 -1.65726 0
M  V30 5750 O 546.892 3.86901 -1.08031 0
M  V30 5751 N 545.098 2.56367 -1.36837 0
M  V30 5752 H 544.645 1.80341 -1.83943 0
M  V30 5753 H 544.603 3.07276 -0.665501 0
M  V30 5754 N 548.375 1.56261 0.205012 0
M  V30 5755 C 549.615 1.81823 0.933806 0
M  V30 5756 C 549.979 0.644534 1.80858 0
M  V30 5757 O 551.18 0.779819 2.5724 0
M  V30 5758 C 549.451 3.12362 1.7368 0
M  V30 5759 S 551.01 3.59296 2.51897 0
M  V30 5760 H 547.828 0.638209 0.313386 0
M  V30 5761 H 550.43 1.94495 0.198001 0
M  V30 5762 H 549.134 3.95809 1.08459 0
M  V30 5763 H 548.665 3.02542 2.5146 0
M  V30 5764 H 550.68 3.23945 3.75864 0
M  V30 5765 N 549.853 -0.472356 1.50355 0
M  V30 5766 C 550.783 -1.57859 1.72055 0
M  V30 5767 C 551.764 -1.60283 0.569505 0
M  V30 5768 O 552.949 -1.7657 0.808503 0
M  V30 5769 C 550.079 -2.96191 1.81351 0
M  V30 5770 C 549.033 -3.08633 2.96529 0
M  V30 5771 C 548.359 -4.486 2.90968 0
M  V30 5772 C 549.659 -2.85969 4.37057 0
M  V30 5773 H 551.353 -1.39953 2.64676 0
M  V30 5774 H 548.899 -0.671846 1.27367 0
M  V30 5775 H 550.852 -3.73507 1.95117 0
M  V30 5776 H 549.576 -3.15251 0.853502 0
M  V30 5777 H 548.235 -2.33749 2.82413 0
M  V30 5778 H 547.883 -4.64577 1.92815 0
M  V30 5779 H 547.583 -4.57861 3.68289 0
M  V30 5780 H 549.107 -5.27938 3.0678 0
M  V30 5781 H 550.521 -3.53036 4.51706 0
M  V30 5782 H 548.918 -3.06677 5.15819 0
M  V30 5783 H 549.988 -1.81838 4.49514 0
M  V30 5784 N 551.331 -1.39911 -0.725443 0
M  V30 5785 C 552.577 -1.38862 -1.48624 0
M  V30 5786 C 552.932 0.0125913 -1.92396 0
M  V30 5787 O 552.225 0.981046 -1.64578 0
M  V30 5788 C 552.419 -2.30368 -2.7325 0
M  V30 5789 C 552.248 -3.79247 -2.41665 0
M  V30 5790 C 551.018 -4.48119 -2.3349 0
M  V30 5791 C 553.216 -4.70988 -2.06579 0
M  V30 5792 N 551.198 -5.82282 -1.94476 0
M  V30 5793 C 552.569 -5.93873 -1.78087 0
M  V30 5794 C 554.624 -4.58917 -1.9313 0
M  V30 5795 C 553.327 -7.06036 -1.37499 0
M  V30 5796 C 555.353 -5.71012 -1.53946 0
M  V30 5797 C 554.715 -6.92976 -1.26345 0
M  V30 5798 H 550.814 -0.563394 -0.54232 0
M  V30 5799 H 553.398 -1.75542 -0.842213 0
M  V30 5800 H 551.569 -1.95831 -3.35417 0
M  V30 5801 H 553.301 -2.20245 -3.39521 0
M  V30 5802 H 550.056 -4.01677 -2.50904 0
M  V30 5803 H 550.48 -6.53307 -1.77535 0
M  V30 5804 H 555.122 -3.65149 -2.13134 0
M  V30 5805 H 552.84 -7.99697 -1.16237 0
M  V30 5806 H 556.426 -5.63664 -1.44132 0
M  V30 5807 H 555.306 -7.78243 -0.964787 0
M  V30 5808 N 552.809 0.956637 -1.25245 0
M  V30 5809 C 554.037 1.73571 -1.12608 0
M  V30 5810 C 554.452 1.86063 0.320324 0
M  V30 5811 O 553.809 1.35691 1.22042 0
M  V30 5812 C 553.86 3.15053 -1.77268 0
M  V30 5813 O 553.581 3.03174 -3.16255 0
M  V30 5814 C 555.082 4.09248 -1.70386 0
M  V30 5815 H 552.302 0.543955 -0.392879 0
M  V30 5816 H 554.846 1.20031 -1.65568 0
M  V30 5817 H 553.001 3.65543 -1.28284 0
M  V30 5818 H 553.415 3.9241 -3.48015 0
M  V30 5819 H 554.889 5.06138 -2.20291 0
M  V30 5820 H 555.366 4.34102 -0.667239 0
M  V30 5821 H 555.972 3.64672 -2.18849 0
M  V30 5822 N 554.287 1.06798 1.15896 0
M  V30 5823 C 555.217 0.704677 2.22613 0
M  V30 5824 C 556.198 -0.305252 1.67339 0
M  V30 5825 O 557.383 -0.179247 1.93371 0
M  V30 5826 C 554.513 0.0957325 3.47168 0
M  V30 5827 C 553.467 1.0322 4.15367 0
M  V30 5828 C 552.793 0.286293 5.33933 0
M  V30 5829 C 554.093 2.36341 4.65768 0
M  V30 5830 H 555.787 1.59688 2.53259 0
M  V30 5831 H 553.333 0.769257 1.21731 0
M  V30 5832 H 555.286 -0.170333 4.21056 0
M  V30 5833 H 554.01 -0.831516 3.15838 0
M  V30 5834 H 552.669 1.28309 3.43413 0
M  V30 5835 H 552.317 -0.644237 4.98857 0
M  V30 5836 H 552.017 0.910436 5.80504 0
M  V30 5837 H 553.541 0.0278938 6.10594 0
M  V30 5838 H 554.955 2.1561 5.31211 0
M  V30 5839 H 553.352 2.94299 5.2298 0
M  V30 5840 H 554.422 2.99047 3.81705 0
M  V30 5841 N 555.766 -1.3263 0.851289 0
M  V30 5842 C 557.182 -1.50162 0.5407 0
M  V30 5843 C 557.382 -1.78788 -0.929369 0
M  V30 5844 O 556.438 -1.85545 -1.71258 0
M  V30 5845 C 557.751 -2.64803 1.42478 0
M  V30 5846 C 559.299 -2.78688 1.42485 0
M  V30 5847 C 559.774 -3.96405 2.29407 0
M  V30 5848 N 561.265 -4.0366 2.27184 0
M  V30 5849 C 562 -4.93971 2.9117 0
M  V30 5850 N 561.496 -5.89313 3.64256 0
M  V30 5851 N 563.289 -4.87066 2.80576 0
M  V30 5852 H 555.44 -1.12315 1.80275 0
M  V30 5853 H 557.703 -0.553266 0.769806 0
M  V30 5854 H 557.409 -2.50368 2.46999 0
M  V30 5855 H 557.283 -3.60506 1.10974 0
M  V30 5856 H 559.67 -2.92547 0.387304 0
M  V30 5857 H 559.751 -1.83708 1.78002 0
M  V30 5858 H 559.395 -3.83304 3.33228 0
M  V30 5859 H 559.325 -4.90654 1.91224 0
M  V30 5860 H 561.816 -3.35435 1.74045 0
M  V30 5861 H 562.129 -6.54913 4.10255 0
M  V30 5862 H 560.474 -5.8935 3.68364 0
M  V30 5863 H 563.665 -4.11552 2.23031 0
M  V30 5864 H 563.838 -5.57248 3.30725 0
M  V30 5865 N 557.244 -0.608902 -1.45362 0
M  V30 5866 C 558.192 0.121639 -2.32282 0
M  V30 5867 C 559.186 0.858301 -1.46046 0
M  V30 5868 O 560.392 0.773718 -1.62523 0
M  V30 5869 H 556.767 0.058086 -0.749753 0
M  V30 5870 H 558.738 -0.629866 -2.91677 0
M  V30 5871 C 557.487 1.1047 -3.29684 0
M  V30 5872 H 556.81 0.547278 -3.96036 0
M  V30 5873 H 558.25 1.58576 -3.9323 0
M  V30 5874 C 556.709 2.17891 -2.56954 0
M  V30 5875 O 557.239 3.25652 -2.35189 0
M  V30 5876 N 555.445 1.93211 -2.17066 0
M  V30 5877 H 554.992 1.05584 -2.34967 0
M  V30 5878 H 554.95 2.6529 -1.68727 0
M  V30 5879 N 558.722 1.53707 -0.348139 0
M  V30 5880 C 559.652 2.28111 0.498766 0
M  V30 5881 C 560.633 1.29851 1.09876 0
M  V30 5882 O 561.818 1.587 1.11928 0
M  V30 5883 C 558.948 3.05735 1.64753 0
M  V30 5884 C 557.902 4.11537 1.17565 0
M  V30 5885 C 557.228 4.77142 2.4133 0
M  V30 5886 C 558.528 5.21587 0.272844 0
M  V30 5887 H 560.222 2.99152 -0.121934 0
M  V30 5888 H 557.768 1.43875 -0.0600842 0
M  V30 5889 H 559.721 3.56526 2.24649 0
M  V30 5890 H 558.445 2.32354 2.2952 0
M  V30 5891 H 557.104 3.61665 0.599483 0
M  V30 5892 H 556.752 4.0035 3.04514 0
M  V30 5893 H 556.452 5.48626 2.10436 0
M  V30 5894 H 557.976 5.30719 3.01943 0
M  V30 5895 H 559.39 5.67986 0.778779 0
M  V30 5896 H 557.787 6.00074 0.0555849 0
M  V30 5897 H 558.857 4.79969 -0.689785 0
M  V30 5898 N 560.2 0.0768682 1.57412 0
M  V30 5899 C 561.425 -0.603404 1.98428 0
M  V30 5900 C 561.85 -1.62047 0.955108 0
M  V30 5901 O 561.208 -1.81129 -0.0786778 0
M  V30 5902 C 561.256 -1.24396 3.38464 0
M  V30 5903 O 560.36 -2.35982 3.3821 0
M  V30 5904 H 559.701 -0.154741 0.645718 0
M  V30 5905 H 562.231 0.152885 2.04028 0
M  V30 5906 H 562.241 -1.5896 3.7576 0
M  V30 5907 H 560.916 -0.498735 4.12899 0
M  V30 5908 H 559.493 -2.03173 3.1269 0
M  V30 5909 N 561.678 -1.56367 -0.196722 0
M  V30 5910 C 562.955 -1.71359 -0.943159 0
M  V30 5911 C 563.335 -0.631192 -2.01443 0
M  V30 5912 O 562.683 0.358071 -2.25677 0
M  V30 5913 C 562.893 -3.13623 -1.53106 0
M  V30 5914 C 564.241 -3.73806 -2.01381 0
M  V30 5915 O 565.265 -3.16742 -1.62951 0
M  V30 5916 O 564.124 -4.73951 -2.7209 0
M  V30 5917 H 561.218 -0.698851 -0.442195 0
M  V30 5918 H 563.764 -1.68672 -0.186547 0
M  V30 5919 H 562.536 -3.83873 -0.758785 0
M  V30 5920 H 562.159 -3.20532 -2.35255 0
M  V30 5921 N 563.156 0.464375 -1.50603 0
M  V30 5922 C 564.402 1.21776 -1.62168 0
M  V30 5923 C 564.735 1.91476 -0.324154 0
M  V30 5924 O 564.01 1.8242 0.674782 0
M  V30 5925 C 564.293 2.25614 -2.80661 0
M  V30 5926 C 564.146 1.60175 -4.20314 0
M  V30 5927 C 565.465 3.26862 -2.94702 0
M  V30 5928 H 562.584 0.44137 -0.590222 0
M  V30 5929 H 565.226 0.510623 -1.8301 0
M  V30 5930 H 563.376 2.85923 -2.63021 0
M  V30 5931 H 565.048 1.03411 -4.4956 0
M  V30 5932 H 563.291 0.904697 -4.24261 0
M  V30 5933 H 563.962 2.35665 -4.99165 0
M  V30 5934 H 566.438 2.76582 -3.10872 0
M  V30 5935 H 565.314 3.96839 -3.79223 0
M  V30 5936 H 565.575 3.91382 -2.05603 0
M  V30 5937 N 564.634 1.40294 0.718013 0
M  V30 5938 C 565.597 1.4012 1.81381 0
M  V30 5939 C 566.597 0.295405 1.58063 0
M  V30 5940 O 567.787 0.554187 1.6515 0
M  V30 5941 C 564.919 1.19056 3.19435 0
M  V30 5942 H 566.112 2.37645 1.82933 0
M  V30 5943 H 563.665 1.26107 0.923405 0
M  V30 5944 H 564.4 0.222809 3.23534 0
M  V30 5945 H 564.185 1.99152 3.37758 0
M  V30 5946 H 565.675 1.21716 3.99468 0
M  V30 5947 N 566.112 -0.949982 1.2575 0
M  V30 5948 C 567.34 -1.72972 1.13527 0
M  V30 5949 C 567.755 -1.8623 -0.310453 0
M  V30 5950 O 567.112 -1.36336 -1.2132 0
M  V30 5951 C 567.163 -3.14108 1.78936 0
M  V30 5952 O 566.884 -3.01493 3.17858 0
M  V30 5953 C 568.385 -4.08338 1.72554 0
M  V30 5954 H 565.605 -0.541864 0.395758 0
M  V30 5955 H 568.149 -1.19151 1.66202 0
M  V30 5956 H 566.304 -3.64858 1.30221 0
M  V30 5957 H 566.718 -3.90559 3.50092 0
M  V30 5958 H 568.192 -5.04963 2.22973 0
M  V30 5959 H 568.669 -4.33742 0.690251 0
M  V30 5960 H 569.275 -3.63506 2.2078 0
M  V30 5961 N 567.59 -1.07411 -1.15328 0
M  V30 5962 C 568.537 -0.694995 -2.20087 0
M  V30 5963 C 569.507 0.313904 -1.63107 0
M  V30 5964 O 570.692 0.200216 -1.89747 0
M  V30 5965 C 567.832 -0.0996218 -3.44956 0
M  V30 5966 C 566.945 -1.16007 -4.16133 0
M  V30 5967 C 566.08 -0.529636 -5.28553 0
M  V30 5968 C 565.119 -1.57283 -5.91548 0
M  V30 5969 N 564.256 -0.964932 -6.95438 0
M  V30 5970 H 569.096 -1.5927 -2.51867 0
M  V30 5971 H 566.633 -0.796115 -1.23695 0
M  V30 5972 H 568.591 0.263197 -4.16369 0
M  V30 5973 H 567.221 0.761435 -3.13691 0
M  V30 5974 H 566.273 -1.64045 -3.4321 0
M  V30 5975 H 567.585 -1.95101 -4.59061 0
M  V30 5976 H 566.739 -0.114487 -6.06592 0
M  V30 5977 H 565.478 0.29307 -4.86819 0
M  V30 5978 H 564.483 -1.99775 -5.12221 0
M  V30 5979 H 565.708 -2.39783 -6.35359 0
M  V30 5980 H 563.654 -0.16314 -6.55797 0
M  V30 5981 H 563.571 -1.69311 -7.36797 0
M  V30 5982 H 564.839 -0.575305 -7.77374 0
M  V30 5983 N 569.068 1.32177 -0.85831 0
M  V30 5984 C 570 2.27688 -0.262835 0
M  V30 5985 C 571.013 1.52588 0.567513 0
M  V30 5986 O 572.202 1.74156 0.391407 0
M  V30 5987 C 569.302 3.32668 0.646937 0
M  V30 5988 C 568.475 4.37148 -0.148372 0
M  V30 5989 C 567.534 5.21686 0.687728 0
M  V30 5990 O 566.56 5.69074 0.119934 0
M  V30 5991 N 567.762 5.44892 2.00182 0
M  V30 5992 H 570.527 2.79426 -1.08356 0
M  V30 5993 H 568.088 1.45076 -0.718647 0
M  V30 5994 H 570.08 3.86134 1.2117 0
M  V30 5995 H 568.65 2.81061 1.36834 0
M  V30 5996 H 567.87 3.83915 -0.894572 0
M  V30 5997 H 569.158 5.04038 -0.694514 0
M  V30 5998 H 568.556 5.08128 2.4864 0
M  V30 5999 H 567.113 6.0134 2.51463 0
M  V30 6000 N 570.547 0.616602 1.45037 0
M  V30 6001 C 571.457 -0.0985401 2.34393 0
M  V30 6002 C 572.473 -0.850971 1.51771 0
M  V30 6003 O 573.649 -0.806521 1.84546 0
M  V30 6004 C 570.714 -1.07748 3.29532 0
M  V30 6005 C 569.775 -0.326022 4.2806 0
M  V30 6006 C 569.008 -1.25833 5.18654 0
M  V30 6007 O 569.231 -2.49652 5.12864 0
M  V30 6008 O 568.165 -0.750512 5.97203 0
M  V30 6009 H 571.991 0.636016 2.96966 0
M  V30 6010 H 569.576 0.376832 1.44569 0
M  V30 6011 H 571.458 -1.64107 3.88133 0
M  V30 6012 H 570.133 -1.79291 2.69512 0
M  V30 6013 H 569.04 0.280253 3.73049 0
M  V30 6014 H 570.373 0.349091 4.9096 0
M  V30 6015 N 572.025 -1.5352 0.356285 0
M  V30 6016 C 573.273 -2.00719 -0.235837 0
M  V30 6017 C 573.594 -1.24551 -1.5004 0
M  V30 6018 O 572.864 -0.356185 -1.92635 0
M  V30 6019 H 571.444 -0.741542 -0.0901366 0
M  V30 6020 H 574.106 -1.88887 0.480378 0
M  V30 6021 H 573.202 -3.08551 -0.469357 0
M  V30 6022 N 573.503 -0.0852151 -1.57369 0
M  V30 6023 C 574.433 0.874556 -2.16503 0
M  V30 6024 C 575.414 1.30111 -1.09568 0
M  V30 6025 O 576.599 1.36977 -1.37662 0
M  V30 6026 C 573.729 2.13731 -2.73745 0
M  V30 6027 C 572.683 1.84971 -3.85966 0
M  V30 6028 C 572.009 3.17991 -4.29867 0
M  V30 6029 C 573.309 1.14442 -5.09608 0
M  V30 6030 H 575.003 0.381899 -2.96954 0
M  V30 6031 H 572.549 0.18225 -1.42842 0
M  V30 6032 H 574.502 2.81302 -3.13763 0
M  V30 6033 H 573.226 2.65263 -1.90534 0
M  V30 6034 H 571.885 1.19801 -3.46473 0
M  V30 6035 H 571.533 3.6739 -3.4356 0
M  V30 6036 H 571.233 2.99534 -5.05523 0
M  V30 6037 H 572.757 3.86737 -4.72511 0
M  V30 6038 H 574.171 1.72105 -5.46857 0
M  V30 6039 H 572.568 1.06197 -5.90629 0
M  V30 6040 H 573.638 0.12559 -4.84737 0
M  V30 6041 N 574.981 1.5647 0.188427 0
M  V30 6042 C 575.891 1.98285 1.2538 0
M  V30 6043 C 576.907 0.891535 1.49424 0
M  V30 6044 O 578.083 1.19782 1.61908 0
M  V30 6045 C 575.148 2.31965 2.57669 0
M  V30 6046 C 574.209 3.54838 2.41638 0
M  V30 6047 C 573.442 3.86901 3.67618 0
M  V30 6048 O 573.665 3.20163 4.72072 0
M  V30 6049 O 572.599 4.80309 3.62749 0
M  V30 6050 H 576.425 2.89145 0.928912 0
M  V30 6051 H 574.01 1.44112 0.393955 0
M  V30 6052 H 575.892 2.54673 3.35737 0
M  V30 6053 H 574.567 1.44271 2.89771 0
M  V30 6054 H 573.474 3.37369 1.61658 0
M  V30 6055 H 574.807 4.43019 2.14465 0
M  V30 6056 N 576.459 -0.456382 1.50847 0
M  V30 6057 C 577.684 -1.2349 1.66628 0
M  V30 6058 C 578.109 -1.84715 0.355254 0
M  V30 6059 O 577.467 -1.67961 -0.682559 0
M  V30 6060 C 577.515 -2.30865 2.77009 0
M  V30 6061 O 576.619 -3.35882 2.39285 0
M  V30 6062 H 575.96 -0.36266 0.556214 0
M  V30 6063 H 578.49 -0.541374 1.97308 0
M  V30 6064 H 578.5 -2.75949 3.00526 0
M  V30 6065 H 577.175 -1.85677 3.72152 0
M  V30 6066 H 575.752 -2.96406 2.26269 0
M  V30 6067 N 577.937 -1.40673 -0.710563 0
M  V30 6068 C 579.183 -1.39428 -1.47267 0
M  V30 6069 C 579.516 0.00182129 -1.942 0
M  V30 6070 O 578.791 0.971387 -1.68506 0
M  V30 6071 C 579.074 -2.38812 -2.6952 0
M  V30 6072 C 578.927 -3.87467 -2.28449 0
M  V30 6073 C 580.246 -2.3566 -3.71689 0
M  V30 6074 H 577.365 -0.507768 -0.534173 0
M  V30 6075 H 580.007 -1.71843 -0.810547 0
M  V30 6076 H 578.157 -2.113 -3.26013 0
M  V30 6077 H 579.829 -4.25825 -1.77399 0
M  V30 6078 H 578.072 -4.03058 -1.60395 0
M  V30 6079 H 578.743 -4.5253 -3.16103 0
M  V30 6080 H 581.219 -2.6004 -3.24836 0
M  V30 6081 H 580.095 -3.07237 -4.54859 0
M  V30 6082 H 580.356 -1.36996 -4.20339 0
M  V30 6083 N 579.415 0.9433 -1.26252 0
M  V30 6084 C 580.345 2.05902 -1.10122 0
M  V30 6085 C 581.326 1.70099 -0.00700552 0
M  V30 6086 O 582.511 1.93377 -0.178641 0
M  V30 6087 C 579.641 3.39516 -0.731175 0
M  V30 6088 C 578.595 3.89372 -1.77688 0
M  V30 6089 C 577.921 5.19613 -1.26122 0
M  V30 6090 C 579.221 4.14489 -3.17799 0
M  V30 6091 H 580.915 2.19655 -2.03451 0
M  V30 6092 H 578.461 1.05548 -0.979576 0
M  V30 6093 H 580.414 4.17031 -0.605215 0
M  V30 6094 H 579.138 3.25733 0.23782 0
M  V30 6095 H 577.797 3.14036 -1.89148 0
M  V30 6096 H 577.445 5.02208 -0.282128 0
M  V30 6097 H 577.145 5.53939 -1.96023 0
M  V30 6098 H 578.669 5.99713 -1.14789 0
M  V30 6099 H 580.083 4.82625 -3.09428 0
M  V30 6100 H 578.48 4.60094 -3.85271 0
M  V30 6101 H 579.55 3.20347 -3.64014 0
M  V30 6102 N 580.893 1.08022 1.14757 0
M  V30 6103 C 581.84 0.706657 2.19716 0
M  V30 6104 C 582.81 -0.30525 1.63271 0
M  V30 6105 O 583.995 -0.19015 1.8985 0
M  V30 6106 C 581.135 0.117914 3.44898 0
M  V30 6107 C 580.248 1.18212 4.15512 0
M  V30 6108 C 579.383 0.557659 5.28265 0
M  V30 6109 C 578.422 1.60418 5.90705 0
M  V30 6110 N 577.559 1.0018 6.94916 0
M  V30 6111 H 582.399 1.60603 2.51019 0
M  V30 6112 H 579.936 0.802664 1.23271 0
M  V30 6113 H 581.894 -0.241112 4.16503 0
M  V30 6114 H 580.524 -0.744788 3.1409 0
M  V30 6115 H 579.576 1.65863 3.42335 0
M  V30 6116 H 580.888 1.97533 4.5802 0
M  V30 6117 H 580.042 0.146654 6.06523 0
M  V30 6118 H 578.781 -0.267249 4.86967 0
M  V30 6119 H 577.786 2.02489 5.11154 0
M  V30 6120 H 579.011 2.43149 6.34078 0
M  V30 6121 H 576.957 0.197917 6.55701 0
M  V30 6122 H 576.874 1.73216 7.35889 0
M  V30 6123 H 578.142 0.616523 7.77058 0
M  V30 6124 N 582.371 -1.3172 0.865308 0
M  V30 6125 C 583.62 -1.96145 0.470098 0
M  V30 6126 C 583.933 -1.69182 -0.981674 0
M  V30 6127 O 585.139 -2.27431 -1.48281 0
M  V30 6128 C 583.595 -3.51129 0.789732 0
M  V30 6129 C 583.203 -3.86938 2.25795 0
M  V30 6130 C 584.947 -4.2197 0.462765 0
M  V30 6131 C 582.854 -5.35012 2.52024 0
M  V30 6132 H 581.784 -0.734105 0.172065 0
M  V30 6133 H 584.435 -1.49959 1.05757 0
M  V30 6134 H 582.817 -3.95781 0.131571 0
M  V30 6135 H 583.991 -3.5326 2.95879 0
M  V30 6136 H 582.306 -3.29149 2.55049 0
M  V30 6137 H 584.903 -5.30904 0.636019 0
M  V30 6138 H 585.246 -4.12005 -0.59645 0
M  V30 6139 H 585.779 -3.82936 1.07727 0
M  V30 6140 H 582.518 -5.50008 3.56611 0
M  V30 6141 H 582.038 -5.70058 1.8653 0
M  V30 6142 H 583.717 -6.0222 2.36515 0
M  V30 6143 N 583.85 -0.624285 -1.44708 0
M  V30 6144 C 584.779 0.0717025 -2.3339 0
M  V30 6145 C 585.76 0.841814 -1.47809 0
M  V30 6146 O 586.946 0.809056 -1.76544 0
M  V30 6147 C 584.076 1.05852 -3.30776 0
M  V30 6148 C 583.029 0.400503 -4.26122 0
M  V30 6149 C 582.356 1.49674 -5.13324 0
M  V30 6150 C 583.656 -0.688924 -5.17737 0
M  V30 6151 H 585.35 -0.668819 -2.91834 0
M  V30 6152 H 582.896 -0.32308 -1.40329 0
M  V30 6153 H 584.849 1.5541 -3.91696 0
M  V30 6154 H 583.572 1.82984 -2.70526 0
M  V30 6155 H 582.231 -0.0743687 -3.66525 0
M  V30 6156 H 581.88 2.25877 -4.49431 0
M  V30 6157 H 581.58 1.06188 -5.77926 0
M  V30 6158 H 583.104 1.99427 -5.77115 0
M  V30 6159 H 584.518 -0.276724 -5.72632 0
M  V30 6160 H 582.915 -1.04652 -5.90904 0
M  V30 6161 H 583.985 -1.55884 -4.5916 0
M  V30 6162 N 585.328 1.53329 -0.364422 0
M  V30 6163 C 586.574 2.01537 0.225969 0
M  V30 6164 C 586.907 1.25128 1.48515 0
M  V30 6165 O 586.182 0.344653 1.91422 0
M  V30 6166 C 586.465 3.56339 0.519092 0
M  V30 6167 C 586.318 4.43441 -0.753639 0
M  V30 6168 C 587.637 4.19833 1.32015 0
M  V30 6169 H 584.756 0.732573 0.0806548 0
M  V30 6170 H 587.398 1.83597 -0.489084 0
M  V30 6171 H 585.548 3.71756 1.12825 0
M  V30 6172 H 587.22 4.39823 -1.39116 0
M  V30 6173 H 585.463 4.11457 -1.37424 0
M  V30 6174 H 586.134 5.49699 -0.503517 0
M  V30 6175 H 588.61 4.08242 0.804859 0
M  V30 6176 H 587.486 5.28177 1.49399 0
M  V30 6177 H 587.747 3.75821 2.32832 0
M  V30 6178 N 586.806 0.0935595 1.57322 0
M  V30 6179 C 587.754 -0.883457 2.15169 0
M  V30 6180 C 588.748 -1.29324 1.09415 0
M  V30 6181 O 589.954 -1.26795 1.27762 0
M  V30 6182 H 586.329 -0.302923 0.688289 0
M  V30 6183 H 588.3 -0.370845 2.96087 0
M  V30 6184 C 587.049 -2.13345 2.74552 0
M  V30 6185 H 586.372 -1.82702 3.55612 0
M  V30 6186 H 587.812 -2.7977 3.18598 0
M  V30 6187 C 586.271 -2.90646 1.70371 0
M  V30 6188 O 586.801 -3.85133 1.14173 0
M  V30 6189 N 585.007 -2.54157 1.40899 0
M  V30 6190 H 584.554 -1.77391 1.86789 0
M  V30 6191 H 584.512 -3.06178 0.714301 0
M  V30 6192 N 588.284 -1.56567 -0.180126 0
M  V30 6193 C 589.216 -1.92275 -1.24751 0
M  V30 6194 C 590.229 -0.814922 -1.40936 0
M  V30 6195 O 591.418 -1.09336 -1.41095 0
M  V30 6196 C 588.518 -2.15265 -2.61752 0
M  V30 6197 C 587.691 -3.46467 -2.66981 0
M  V30 6198 C 586.75 -3.58391 -3.85283 0
M  V30 6199 O 585.776 -4.31086 -3.7169 0
M  V30 6200 N 586.978 -2.92587 -5.01371 0
M  V30 6201 H 589.743 -2.84435 -0.944302 0
M  V30 6202 H 587.304 -1.57617 -0.369952 0
M  V30 6203 H 589.296 -2.20515 -3.39345 0
M  V30 6204 H 587.866 -1.29533 -2.845 0
M  V30 6205 H 587.086 -3.52953 -1.75549 0
M  V30 6206 H 588.374 -4.32819 -2.67479 0
M  V30 6207 H 587.772 -2.3338 -5.15316 0
M  V30 6208 H 586.329 -3.03444 -5.76858 0
M  V30 6209 N 589.762 0.448376 -1.51087 0
M  V30 6210 C 590.692 1.55102 -1.74544 0
M  V30 6211 C 591.673 1.59357 -0.594932 0
M  V30 6212 O 592.858 1.75261 -0.836491 0
M  V30 6213 C 589.988 2.93268 -1.86041 0
M  V30 6214 C 588.942 3.03877 -3.01402 0
M  V30 6215 C 588.268 4.43914 -2.98068 0
M  V30 6216 C 589.568 2.7898 -4.41551 0
M  V30 6217 H 591.262 1.35724 -2.66869 0
M  V30 6218 H 588.808 0.651498 -1.28419 0
M  V30 6219 H 590.761 3.70356 -2.01034 0
M  V30 6220 H 589.485 3.13853 -0.903548 0
M  V30 6221 H 588.144 2.29227 -2.86096 0
M  V30 6222 H 587.792 4.6145 -2.00182 0
M  V30 6223 H 587.492 4.51944 -3.75527 0
M  V30 6224 H 589.016 5.22991 -3.1514 0
M  V30 6225 H 590.43 3.45805 -4.57265 0
M  V30 6226 H 588.827 2.98431 -5.20633 0
M  V30 6227 H 589.897 1.74663 -4.5235 0
M  V30 6228 N 591.24 1.41047 0.703093 0
M  V30 6229 C 592.465 1.43537 1.49706 0
M  V30 6230 C 592.89 0.0401853 1.88057 0
M  V30 6231 O 592.248 -0.954785 1.54122 0
M  V30 6232 C 592.296 2.3433 2.74084 0
M  V30 6233 O 591.4 1.79515 3.71279 0
M  V30 6234 H 590.741 0.487454 0.450871 0
M  V30 6235 H 593.271 1.85422 0.86486 0
M  V30 6236 H 593.281 2.49947 3.22476 0
M  V30 6237 H 591.956 3.35708 2.45506 0
M  V30 6238 H 590.533 1.7331 3.30179 0
M  V30 6239 N 592.718 -0.936591 1.26751 0
M  V30 6240 C 593.964 -1.6858 1.12733 0
M  V30 6241 C 594.297 -1.91414 -0.327745 0
M  V30 6242 O 593.572 -1.49812 -1.24043 0
M  V30 6243 C 593.855 -3.05779 1.90187 0
M  V30 6244 C 593.708 -2.90242 3.43627 0
M  V30 6245 C 595.027 -4.0597 1.69931 0
M  V30 6246 H 592.146 -0.61182 0.410908 0
M  V30 6247 H 594.788 -1.08747 1.55801 0
M  V30 6248 H 592.938 -3.56853 1.53584 0
M  V30 6249 H 594.61 -2.46354 3.9001 0
M  V30 6250 H 592.853 -2.2577 3.70419 0
M  V30 6251 H 593.524 -3.87572 3.93055 0
M  V30 6252 H 596 -3.63874 2.0183 0
M  V30 6253 H 594.876 -4.99974 2.26534 0
M  V30 6254 H 595.137 -4.37369 0.64502 0
M  V30 6255 N 594.196 -1.08629 -1.14182 0
M  V30 6256 C 595.473 -0.73002 -1.81466 0
M  V30 6257 C 595.853 0.785996 -1.95922 0
M  V30 6258 O 595.201 1.70535 -1.52086 0
M  V30 6259 C 595.411 -1.45957 -3.17014 0
M  V30 6260 C 596.759 -1.62008 -3.92477 0
M  V30 6261 O 597.783 -1.42141 -3.26611 0
M  V30 6262 O 596.642 -1.94806 -5.106 0
M  V30 6263 H 593.736 -0.261307 -0.784632 0
M  V30 6264 H 596.282 -1.188 -1.2118 0
M  V30 6265 H 595.054 -2.49221 -3.01669 0
M  V30 6266 H 594.677 -0.993222 -3.84995 0
M  V30 6267 N 595.674 1.31259 -0.872281 0
M  V30 6268 C 596.951 1.91362 -0.404943 0
M  V30 6269 C 597.331 1.79362 1.11321 0
M  V30 6270 O 596.679 1.20277 1.94283 0
M  V30 6271 C 596.889 3.3749 -0.888893 0
M  V30 6272 C 598.237 4.14593 -0.916384 0
M  V30 6273 O 599.261 3.46282 -0.834701 0
M  V30 6274 O 598.12 5.3661 -1.03498 0
M  V30 6275 H 595.214 0.818016 -0.121569 0
M  V30 6276 H 597.76 1.39912 -0.960346 0
M  V30 6277 H 596.532 3.40249 -1.93251 0
M  V30 6278 H 596.155 3.96375 -0.311932 0
M  V30 6279 N 597.152 0.631951 1.44375 0
M  V30 6280 C 598.398 0.13697 2.02337 0
M  V30 6281 C 598.731 -1.23826 1.49602 0
M  V30 6282 O 598.006 -1.8221 0.680415 0
M  V30 6283 C 598.289 0.124536 3.59885 0
M  V30 6284 C 598.142 1.53217 4.229 0
M  V30 6285 C 599.461 -0.550481 4.36644 0
M  V30 6286 H 596.58 0.051247 0.735216 0
M  V30 6287 H 599.222 0.808581 1.71936 0
M  V30 6288 H 597.372 -0.44737 3.85916 0
M  V30 6289 H 599.044 2.15303 4.07973 0
M  V30 6290 H 597.287 2.0858 3.80364 0
M  V30 6291 H 597.958 1.4755 5.31914 0
M  V30 6292 H 600.434 -0.0641154 4.16051 0
M  V30 6293 H 599.31 -0.528371 5.46351 0
M  V30 6294 H 599.571 -1.62097 4.11311 0
M  V30 6295 N 598.631 -1.53133 0.372548 0
M  V30 6296 C 599.579 -2.27473 -0.485681 0
M  V30 6297 C 600.573 -1.30719 -1.07745 0
M  V30 6298 O 601.779 -1.48321 -1.01985 0
M  V30 6299 H 598.154 -0.731269 -0.175356 0
M  V30 6300 H 600.125 -2.97955 0.162986 0
M  V30 6301 C 598.874 -3.08191 -1.60978 0
M  V30 6302 H 598.197 -3.82488 -1.16373 0
M  V30 6303 H 599.637 -3.63373 -2.18485 0
M  V30 6304 C 598.096 -2.19461 -2.55614 0
M  V30 6305 O 598.626 -1.81008 -3.58607 0
M  V30 6306 N 596.832 -1.83955 -2.24965 0
M  V30 6307 H 596.379 -2.15423 -1.41247 0
M  V30 6308 H 596.337 -1.24874 -2.88538 0
M  V30 6309 N 600.109 -0.101901 -1.5727 0
M  V30 6310 C 601.355 0.561027 -1.94885 0
M  V30 6311 C 601.688 1.6741 -0.984258 0
M  V30 6312 O 600.963 1.94491 -0.0184767 0
M  V30 6313 C 601.246 1.10982 -3.42571 0
M  V30 6314 C 601.099 0.00133418 -4.498 0
M  V30 6315 C 602.418 2.00608 -3.9172 0
M  V30 6316 H 599.537 0.202467 -0.708644 0
M  V30 6317 H 602.179 -0.173992 -1.89202 0
M  V30 6318 H 600.329 1.73621 -3.47546 0
M  V30 6319 H 602.001 -0.63322 -4.56933 0
M  V30 6320 H 600.244 -0.664143 -4.28686 0
M  V30 6321 H 600.915 0.426253 -5.50352 0
M  V30 6322 H 603.391 1.47864 -3.88941 0
M  V30 6323 H 602.267 2.3593 -4.95609 0
M  V30 6324 H 602.528 2.92608 -3.3141 0
M  V30 6325 N 601.587 1.56661 0.17182 0
M  V30 6326 C 602.517 1.99401 1.21498 0
M  V30 6327 C 603.498 0.869516 1.46197 0
M  V30 6328 O 604.683 1.13556 1.57539 0
M  V30 6329 C 601.813 2.35346 2.55401 0
M  V30 6330 C 600.767 3.5075 2.45272 0
M  V30 6331 C 600.093 3.72437 3.8366 0
M  V30 6332 C 601.393 4.84216 1.95787 0
M  V30 6333 H 603.087 2.86792 0.859699 0
M  V30 6334 H 600.633 1.37977 0.412103 0
M  V30 6335 H 602.586 2.63843 3.2858 0
M  V30 6336 H 601.31 1.44864 2.92715 0
M  V30 6337 H 599.969 3.2238 1.74547 0
M  V30 6338 H 599.617 2.79246 4.18367 0
M  V30 6339 H 599.317 4.50087 3.77751 0
M  V30 6340 H 600.841 4.03334 4.58426 0
M  V30 6341 H 602.255 5.11592 2.5874 0
M  V30 6342 H 600.652 5.65498 2.00827 0
M  V30 6343 H 601.722 4.76243 0.912159 0
M  V30 6344 N 603.065 -0.440357 1.51323 0
M  V30 6345 C 604.293 -1.21255 1.67645 0
M  V30 6346 C 604.708 -1.85088 0.37252 0
M  V30 6347 O 604.065 -1.70582 -0.648683 0
M  V30 6348 C 604.116 -2.29881 2.78993 0
M  V30 6349 O 603.837 -1.68659 4.04334 0
M  V30 6350 C 605.338 -3.20214 3.06558 0
M  V30 6351 H 602.558 -0.36558 0.562666 0
M  V30 6352 H 605.102 -0.52214 1.97722 0
M  V30 6353 H 603.257 -2.94643 2.51524 0
M  V30 6354 H 603.671 -2.40426 4.6615 0
M  V30 6355 H 605.145 -3.92575 3.88058 0
M  V30 6356 H 605.622 -3.80794 2.18844 0
M  V30 6357 H 606.228 -2.61156 3.35675 0
M  V30 6358 N 604.543 -1.41418 -0.695603 0
M  V30 6359 C 605.783 -1.42241 -1.46788 0
M  V30 6360 C 606.147 -0.0300827 -1.91976 0
M  V30 6361 O 607.348 0.0868914 -2.6866 0
M  V30 6362 C 605.619 -2.4011 -2.6473 0
M  V30 6363 S 607.178 -2.59462 -3.53871 0
M  V30 6364 H 603.996 -0.503893 -0.50161 0
M  V30 6365 H 606.598 -1.77855 -0.811654 0
M  V30 6366 H 605.302 -3.40073 -2.29736 0
M  V30 6367 H 604.833 -2.05849 -3.35246 0
M  V30 6368 H 606.848 -1.862 -4.59939 0
M  V30 6369 N 606.021 0.929856 -1.27246 0
M  V30 6370 C 606.984 2.01172 -1.09829 0
M  V30 6371 C 607.984 1.60743 -0.0429687 0
M  V30 6372 O 609.174 1.71813 -0.287373 0
M  V30 6373 C 606.306 3.34191 -0.673003 0
M  V30 6374 H 607.499 2.18054 -2.05895 0
M  V30 6375 H 605.052 1.11036 -1.10003 0
M  V30 6376 H 605.787 3.23009 0.289134 0
M  V30 6377 H 605.572 3.64892 -1.43515 0
M  V30 6378 H 607.062 4.13646 -0.573323 0
M  V30 6379 N 607.499 1.09233 1.13605 0
M  V30 6380 C 608.727 0.848908 1.88683 0
M  V30 6381 C 609.142 -0.599667 1.79024 0
M  V30 6382 O 608.499 -1.41265 1.15544 0
M  V30 6383 C 608.55 1.27273 3.38355 0
M  V30 6384 O 608.271 2.66449 3.47759 0
M  V30 6385 C 609.772 1.0614 4.30406 0
M  V30 6386 H 606.992 0.305549 0.597395 0
M  V30 6387 H 609.536 1.4538 1.43823 0
M  V30 6388 H 607.691 0.711776 3.80805 0
M  V30 6389 H 608.105 2.84264 4.40788 0
M  V30 6390 H 609.579 1.40725 5.33761 0
M  V30 6391 H 610.056 -0.000960332 4.392 0
M  V30 6392 H 610.662 1.60821 3.93722 0
M  V30 6393 N 608.977 -1.30795 0.87923 0
M  V30 6394 C 610.225 -1.95974 0.493809 0
M  V30 6395 C 610.546 -1.69787 -0.959021 0
M  V30 6396 O 609.816 -1.01832 -1.67353 0
M  V30 6397 H 608.396 -0.725083 0.179622 0
M  V30 6398 H 611.058 -1.59432 1.12105 0
M  V30 6399 H 610.154 -3.05058 0.659263 0
M  V30 6400 N 610.455 -0.639598 -1.44038 0
M  V30 6401 C 611.683 -0.154811 -2.0632 0
M  V30 6402 C 612.098 1.17406 -1.47856 0
M  V30 6403 O 611.455 1.72193 -0.604638 0
M  V30 6404 C 611.506 -0.0429958 -3.61474 0
M  V30 6405 O 611.227 -1.31932 -4.17763 0
M  V30 6406 C 612.728 0.469486 -4.40807 0
M  V30 6407 H 609.948 -0.0835862 -0.665773 0
M  V30 6408 H 612.492 -0.876397 -1.84769 0
M  V30 6409 H 610.647 0.629075 -3.82258 0
M  V30 6410 H 611.061 -1.16965 -5.11292 0
M  V30 6411 H 612.535 0.496712 -5.49761 0
M  V30 6412 H 613.012 1.49819 -4.12857 0
M  V30 6413 H 613.618 -0.169624 -4.24962 0
M  V30 6414 N 611.933 1.52934 -0.380664 0
M  V30 6415 C 612.863 2.29118 0.450268 0
M  V30 6416 C 613.844 1.32153 1.07096 0
M  V30 6417 O 615.029 1.61038 1.08537 0
M  V30 6418 C 612.159 3.09161 1.58231 0
M  V30 6419 C 611.113 4.13938 1.0881 0
M  V30 6420 C 610.439 4.82153 2.31155 0
M  V30 6421 C 611.739 5.22048 0.162146 0
M  V30 6422 H 613.433 2.98826 -0.185361 0
M  V30 6423 H 610.979 1.43715 -0.0905886 0
M  V30 6424 H 612.932 3.61211 2.17036 0
M  V30 6425 H 611.656 2.3717 2.2454 0
M  V30 6426 H 610.315 3.62855 0.522633 0
M  V30 6427 H 609.963 4.06719 2.95953 0
M  V30 6428 H 609.663 5.52966 1.98752 0
M  V30 6429 H 611.187 5.37004 2.90618 0
M  V30 6430 H 612.601 5.6951 0.658126 0
M  V30 6431 H 610.998 6.00057 -0.0717122 0
M  V30 6432 H 612.068 4.78398 -0.791438 0
M  V30 6433 N 613.412 0.11024 1.57214 0
M  V30 6434 C 614.637 -0.561179 1.99664 0
M  V30 6435 C 615.062 -1.59985 0.989266 0
M  V30 6436 O 614.42 -1.81255 -0.0402399 0
M  V30 6437 C 614.468 -1.17189 3.41027 0
M  V30 6438 O 613.572 -2.28755 3.4314 0
M  V30 6439 H 612.913 -0.14101 0.648855 0
M  V30 6440 H 615.443 0.196128 2.03658 0
M  V30 6441 H 615.453 -1.50954 3.79047 0
M  V30 6442 H 614.128 -0.411041 4.13864 0
M  V30 6443 H 612.705 -1.96495 3.16929 0
M  V30 6444 N 614.89 -1.56749 -0.16351 0
M  V30 6445 C 615.838 -1.97939 -1.22159 0
M  V30 6446 C 616.832 -0.869288 -1.45395 0
M  V30 6447 O 618.038 -1.05443 -1.45883 0
M  V30 6448 H 614.413 -0.629869 -0.410815 0
M  V30 6449 H 616.384 -2.86115 -0.847381 0
M  V30 6450 C 615.133 -2.36206 -2.55151 0
M  V30 6451 H 614.456 -3.2117 -2.38097 0
M  V30 6452 H 615.896 -2.68863 -3.27854 0
M  V30 6453 C 614.355 -1.20841 -3.14482 0
M  V30 6454 O 614.885 -0.500258 -3.98573 0
M  V30 6455 N 613.091 -0.976943 -2.73686 0
M  V30 6456 H 612.638 -1.55457 -2.05404 0
M  V30 6457 H 612.596 -0.206912 -3.13718 0
M  V30 6458 N 616.368 0.432326 -1.51554 0
M  V30 6459 C 617.298 1.53242 -1.76179 0
M  V30 6460 C 618.279 1.58717 -0.611801 0
M  V30 6461 O 619.464 1.74364 -0.855033 0
M  V30 6462 C 616.594 2.91278 -1.89141 0
M  V30 6463 C 615.548 3.00663 -3.04608 0
M  V30 6464 C 614.874 4.40728 -3.02759 0
M  V30 6465 C 616.174 2.74281 -4.44485 0
M  V30 6466 H 617.868 1.32886 -2.68294 0
M  V30 6467 H 615.414 0.637841 -1.29103 0
M  V30 6468 H 617.367 3.68203 -2.04951 0
M  V30 6469 H 616.091 3.12877 -0.936785 0
M  V30 6470 H 614.75 2.26179 -2.88511 0
M  V30 6471 H 614.398 4.59301 -2.05065 0
M  V30 6472 H 614.098 4.47936 -3.80299 0
M  V30 6473 H 615.622 5.19619 -3.20669 0
M  V30 6474 H 617.036 3.40936 -4.60907 0
M  V30 6475 H 615.433 2.92893 -5.23769 0
M  V30 6476 H 616.503 1.69856 -4.54177 0
M  V30 6477 N 617.846 1.41785 0.688094 0
M  V30 6478 C 619.074 1.44915 1.47673 0
M  V30 6479 C 619.489 0.0565786 1.88715 0
M  V30 6480 O 618.846 -0.92579 1.57275 0
M  V30 6481 C 618.897 2.36452 2.73446 0
M  V30 6482 O 618.618 3.7029 2.34131 0
M  V30 6483 C 620.119 2.48463 3.67125 0
M  V30 6484 H 617.339 0.493324 0.454832 0
M  V30 6485 H 619.883 1.86153 0.846594 0
M  V30 6486 H 618.038 1.98502 3.3268 0
M  V30 6487 H 618.452 4.19183 3.15255 0
M  V30 6488 H 619.926 3.16662 4.52138 0
M  V30 6489 H 620.403 1.51826 4.12123 0
M  V30 6490 H 621.009 2.8708 3.13792 0
M  V30 6491 N 619.324 -0.923095 1.27737 0
M  V30 6492 C 620.564 -1.6858 1.15586 0
M  V30 6493 C 620.928 -1.89758 -0.292562 0
M  V30 6494 O 622.129 -2.6339 -0.536583 0
M  V30 6495 C 620.4 -3.01275 1.92271 0
M  V30 6496 S 621.959 -3.924 1.96387 0
M  V30 6497 H 618.777 -0.579069 0.412554 0
M  V30 6498 H 621.379 -1.09866 1.61709 0
M  V30 6499 H 620.083 -2.83556 2.96689 0
M  V30 6500 H 619.614 -3.6504 1.46661 0
M  V30 6501 H 621.629 -4.84667 1.06361 0
M  V30 6502 N 620.802 -1.09834 -1.13024 0
M  V30 6503 C 621.75 -0.736283 -2.20639 0
M  V30 6504 C 622.744 0.264725 -1.67319 0
M  V30 6505 O 623.95 0.125745 -1.7956 0
M  V30 6506 H 620.325 -0.220136 -0.719058 0
M  V30 6507 H 622.296 -1.65295 -2.48436 0
M  V30 6508 C 621.045 -0.177544 -3.47246 0
M  V30 6509 H 620.368 -0.939009 -3.88616 0
M  V30 6510 H 621.808 0.0378007 -4.23983 0
M  V30 6511 C 620.267 1.08824 -3.1884 0
M  V30 6512 O 620.797 2.1708 -3.37993 0
M  V30 6513 N 619.003 1.00442 -2.7269 0
M  V30 6514 H 618.55 0.123383 -2.57304 0
M  V30 6515 H 618.508 1.85206 -2.5406 0
M  V30 6516 N 622.28 1.30327 -0.886154 0
M  V30 6517 C 623.228 2.30052 -0.343317 0
M  V30 6518 C 624.222 1.60212 0.550305 0
M  V30 6519 O 625.428 1.74674 0.434609 0
M  V30 6520 H 621.803 0.746306 -0.0923681 0
M  V30 6521 H 623.774 2.73294 -1.19804 0
M  V30 6522 C 622.523 3.45079 0.426107 0
M  V30 6523 H 621.846 3.99003 -0.25227 0
M  V30 6524 H 623.286 4.16931 0.771009 0
M  V30 6525 C 621.745 2.95195 1.62363 0
M  V30 6526 O 622.275 2.95323 2.723 0
M  V30 6527 N 620.481 2.51192 1.4612 0
M  V30 6528 H 620.028 2.51286 0.566832 0
M  V30 6529 H 619.986 2.18173 2.2638 0
M  V30 6530 N 623.758 0.647228 1.43697 0
M  V30 6531 C 624.983 0.164083 2.0675 0
M  V30 6532 C 625.408 -1.15892 1.48158 0
M  V30 6533 O 624.766 -1.71459 0.589194 0
M  V30 6534 C 624.814 0.0800368 3.60511 0
M  V30 6535 O 623.918 -0.959453 4.01084 0
M  V30 6536 H 623.259 0.0921288 0.657578 0
M  V30 6537 H 625.789 0.88846 1.84303 0
M  V30 6538 H 625.799 -0.105263 4.07864 0
M  V30 6539 H 624.474 1.04586 4.02535 0
M  V30 6540 H 623.051 -0.747425 3.65333 0
M  V30 6541 N 625.236 -1.5273 0.388769 0
M  V30 6542 C 626.183 -2.26437 -0.446639 0
M  V30 6543 C 627.153 -1.28025 -1.05824 0
M  V30 6544 O 628.338 -1.56852 -1.08637 0
M  V30 6545 C 625.478 -3.07407 -1.56828 0
M  V30 6546 C 624.591 -4.20747 -0.979589 0
M  V30 6547 C 623.726 -4.89113 -2.07224 0
M  V30 6548 C 622.765 -5.94447 -1.45942 0
M  V30 6549 N 621.902 -6.56411 -2.49135 0
M  V30 6550 H 626.742 -2.97404 0.18837 0
M  V30 6551 H 624.279 -1.46727 0.104725 0
M  V30 6552 H 626.237 -3.52642 -2.22934 0
M  V30 6553 H 624.867 -2.3865 -2.17361 0
M  V30 6554 H 623.919 -3.7983 -0.208151 0
M  V30 6555 H 625.231 -4.9637 -0.491747 0
M  V30 6556 H 624.385 -5.3765 -2.81101 0
M  V30 6557 H 623.124 -4.13013 -2.59368 0
M  V30 6558 H 622.129 -5.4525 -0.705894 0
M  V30 6559 H 623.354 -6.7248 -0.945932 0
M  V30 6560 H 621.3 -5.83152 -3.00449 0
M  V30 6561 H 621.217 -7.27645 -2.05105 0
M  V30 6562 H 622.485 -7.09592 -3.22644 0
M  V30 6563 N 626.714 -0.118576 -1.57153 0
M  V30 6564 C 627.662 0.849114 -2.16547 0
M  V30 6565 C 628.656 1.27567 -1.11458 0
M  V30 6566 O 629.862 1.24746 -1.29763 0
M  V30 6567 H 626.237 0.291935 -0.693021 0
M  V30 6568 H 628.208 0.323693 -2.96639 0
M  V30 6569 C 626.957 2.08951 -2.77912 0
M  V30 6570 H 626.28 1.77021 -3.58474 0
M  V30 6571 H 627.72 2.74666 -3.23008 0
M  V30 6572 C 626.179 2.87899 -1.74974 0
M  V30 6573 O 626.709 3.83268 -1.20285 0
M  V30 6574 N 624.915 2.51884 -1.44924 0
M  V30 6575 H 624.462 1.74397 -1.89587 0
M  V30 6576 H 624.42 3.05003 -0.762921 0
M  V30 6577 N 628.193 1.56834 0.155195 0
M  V30 6578 C 629.14 1.97646 1.19184 0
M  V30 6579 C 630.11 0.842788 1.4313 0
M  V30 6580 O 631.295 1.1042 1.55602 0
M  V30 6581 C 628.435 2.35527 2.52232 0
M  V30 6582 C 627.548 3.62147 2.35529 0
M  V30 6583 C 626.683 3.89167 3.61555 0
M  V30 6584 C 625.722 5.09084 3.39853 0
M  V30 6585 N 624.859 5.32156 4.5799 0
M  V30 6586 H 629.699 2.8601 0.836802 0
M  V30 6587 H 627.236 1.41507 0.401758 0
M  V30 6588 H 629.194 2.55516 3.29799 0
M  V30 6589 H 627.824 1.50253 2.85699 0
M  V30 6590 H 626.876 3.4998 1.49057 0
M  V30 6591 H 628.188 4.49871 2.15448 0
M  V30 6592 H 627.342 4.09611 4.47553 0
M  V30 6593 H 626.081 2.9985 3.84632 0
M  V30 6594 H 625.086 4.88522 2.52243 0
M  V30 6595 H 626.311 5.99947 3.18183 0
M  V30 6596 H 624.257 4.45791 4.81255 0
M  V30 6597 H 624.174 6.14133 4.40882 0
M  V30 6598 H 625.442 5.57091 5.45225 0
M  V30 6599 N 629.671 -0.424282 1.51781 0
M  V30 6600 C 630.899 -1.1947 1.68921 0
M  V30 6601 C 631.314 -1.84683 0.39213 0
M  V30 6602 O 630.671 -1.71261 -0.630554 0
M  V30 6603 C 630.722 -2.26909 2.81416 0
M  V30 6604 O 630.443 -1.64361 4.061 0
M  V30 6605 C 631.944 -3.16945 3.09937 0
M  V30 6606 H 629.164 -0.359591 0.566511 0
M  V30 6607 H 631.708 -0.501139 1.98265 0
M  V30 6608 H 629.863 -2.91959 2.54635 0
M  V30 6609 H 630.277 -2.35468 4.68674 0
M  V30 6610 H 631.751 -3.88437 3.922 0
M  V30 6611 H 632.228 -3.78451 2.22871 0
M  V30 6612 H 632.834 -2.57581 3.38426 0
M  V30 6613 N 631.149 -1.42148 -0.680565 0
M  V30 6614 C 632.079 -1.4796 -1.80638 0
M  V30 6615 C 633.06 -0.336728 -1.66734 0
M  V30 6616 O 634.245 -0.550247 -1.86242 0
M  V30 6617 C 631.375 -1.37569 -3.18892 0
M  V30 6618 C 630.329 -2.49823 -3.47524 0
M  V30 6619 C 629.655 -2.24491 -4.85291 0
M  V30 6620 C 630.955 -3.92144 -3.44994 0
M  V30 6621 H 632.649 -2.42184 -1.76032 0
M  V30 6622 H 630.195 -1.16566 -0.845481 0
M  V30 6623 H 632.148 -1.40243 -3.97379 0
M  V30 6624 H 630.872 -0.398357 -3.24162 0
M  V30 6625 H 629.531 -2.46455 -2.71395 0
M  V30 6626 H 629.179 -1.25066 -4.87204 0
M  V30 6627 H 628.879 -2.99722 -5.05411 0
M  V30 6628 H 630.403 -2.28906 -5.66069 0
M  V30 6629 H 631.817 -3.97145 -4.13459 0
M  V30 6630 H 630.214 -4.67179 -3.76648 0
M  V30 6631 H 631.284 -4.19225 -2.43676 0
M  V30 6632 N 632.627 0.916307 -1.28225 0
M  V30 6633 C 633.873 1.66765 -1.154 0
M  V30 6634 C 634.206 1.91912 0.297251 0
M  V30 6635 O 633.481 1.51766 1.21644 0
M  V30 6636 C 633.764 3.02715 -1.95028 0
M  V30 6637 C 633.617 2.84738 -3.48201 0
M  V30 6638 C 634.936 4.03215 -1.76369 0
M  V30 6639 H 632.055 0.605205 -0.42059 0
M  V30 6640 H 634.697 1.06255 -1.57512 0
M  V30 6641 H 632.847 3.54365 -1.59242 0
M  V30 6642 H 634.519 2.40118 -3.9388 0
M  V30 6643 H 632.762 2.19848 -3.73964 0
M  V30 6644 H 633.433 3.8127 -3.99171 0
M  V30 6645 H 635.909 3.60617 -2.07593 0
M  V30 6646 H 634.785 4.96306 -2.34459 0
M  V30 6647 H 635.046 4.36288 -0.71452 0
M  V30 6648 N 634.105 1.10431 1.1244 0
M  V30 6649 C 635.333 0.868872 1.87772 0
M  V30 6650 C 635.748 -0.580645 1.7965 0
M  V30 6651 O 635.105 -1.40031 1.17036 0
M  V30 6652 C 635.156 1.30855 3.36986 0
M  V30 6653 O 634.877 2.70123 3.44914 0
M  V30 6654 C 636.378 1.107 4.29256 0
M  V30 6655 H 633.598 0.311868 0.59412 0
M  V30 6656 H 636.142 1.46897 1.42273 0
M  V30 6657 H 634.297 0.752126 3.80029 0
M  V30 6658 H 634.711 2.88923 4.37748 0
M  V30 6659 H 636.185 1.46378 5.32238 0
M  V30 6660 H 636.662 0.0456228 4.39176 0
M  V30 6661 H 637.268 1.64988 3.91994 0
M  V30 6662 N 635.583 -1.29855 0.893053 0
M  V30 6663 C 636.515 -2.26911 0.32311 0
M  V30 6664 C 637.528 -1.54039 -0.526858 0
M  V30 6665 O 638.717 -1.75132 -0.345095 0
M  V30 6666 C 635.817 -3.34266 -0.558509 0
M  V30 6667 C 634.99 -4.36601 0.264222 0
M  V30 6668 C 634.049 -5.23326 -0.549171 0
M  V30 6669 O 633.075 -5.69192 0.0309883 0
M  V30 6670 N 634.277 -5.50008 -1.85664 0
M  V30 6671 H 637.042 -2.76455 1.15726 0
M  V30 6672 H 634.603 -1.4312 0.756859 0
M  V30 6673 H 636.595 -3.89211 -1.1089 0
M  V30 6674 H 635.165 -2.8459 -1.29334 0
M  V30 6675 H 634.385 -3.81409 0.996046 0
M  V30 6676 H 635.673 -5.02019 0.827906 0
M  V30 6677 H 635.071 -5.14542 -2.35081 0
M  V30 6678 H 633.628 -6.07796 -2.35431 0
M  V30 6679 N 637.061 -0.65484 -1.43351 0
M  V30 6680 C 638.009 0.0476784 -2.32551 0
M  V30 6681 C 639.003 0.811403 -1.48703 0
M  V30 6682 O 640.209 0.721621 -1.64902 0
M  V30 6683 H 636.584 0.0342038 -0.751222 0
M  V30 6684 H 638.555 -0.722342 -2.89525 0
M  V30 6685 C 637.304 0.999251 -3.33032 0
M  V30 6686 H 636.627 0.421005 -3.97577 0
M  V30 6687 H 638.067 1.45986 -3.98076 0
M  V30 6688 C 636.526 2.09606 -2.63756 0
M  V30 6689 O 637.056 3.18004 -2.4543 0
M  V30 6690 N 635.262 1.86207 -2.23103 0
M  V30 6691 H 634.809 0.980555 -2.38208 0
M  V30 6692 H 634.767 2.59787 -1.77081 0
M  V30 6693 N 638.539 1.52521 -0.396863 0
M  V30 6694 C 639.764 2.06571 0.185258 0
M  V30 6695 C 640.189 1.26605 1.39115 0
M  V30 6696 O 639.547 0.293055 1.78916 0
M  V30 6697 C 639.595 3.5674 0.526189 0
M  V30 6698 O 638.699 3.7929 1.61903 0
M  V30 6699 H 638.04 0.663712 0.0195474 0
M  V30 6700 H 640.57 1.966 -0.566519 0
M  V30 6701 H 640.58 4.00311 0.788338 0
M  V30 6702 H 639.255 4.14379 -0.355397 0
M  V30 6703 H 637.832 3.47605 1.35 0
M  V30 6704 N 640.017 0.126909 1.57088 0
M  V30 6705 C 641.265 -0.528123 1.95078 0
M  V30 6706 C 641.586 -1.66708 1.0116 0
M  V30 6707 O 640.856 -1.95777 0.0693527 0
M  V30 6708 H 639.436 -0.198087 0.720257 0
M  V30 6709 H 642.098 0.197703 1.93895 0
M  V30 6710 H 641.194 -0.917507 2.98309 0
M  V30 6711 N 641.495 -1.56914 -0.146875 0
M  V30 6712 C 642.741 -1.83628 -0.860741 0
M  V30 6713 C 643.074 -0.708528 -1.80813 0
M  V30 6714 O 642.349 0.287838 -1.92358 0
M  V30 6715 C 642.632 -3.20836 -1.63511 0
M  V30 6716 C 642.485 -4.44174 -0.709199 0
M  V30 6717 C 643.804 -3.55268 -2.59756 0
M  V30 6718 H 640.923 -0.667949 -0.311468 0
M  V30 6719 H 643.565 -1.89582 -0.125936 0
M  V30 6720 H 641.715 -3.15891 -2.26153 0
M  V30 6721 H 643.387 -4.61205 -0.0937781 0
M  V30 6722 H 641.63 -4.33796 -0.0187856 0
M  V30 6723 H 642.301 -5.36785 -1.28707 0
M  V30 6724 H 644.777 -3.60824 -2.07232 0
M  V30 6725 H 643.653 -4.52303 -3.10987 0
M  V30 6726 H 643.914 -2.81231 -3.41118 0
M  V30 6727 N 642.974 0.416227 -1.52004 0
M  V30 6728 C 643.884 1.53147 -1.77717 0
M  V30 6729 C 644.9 1.609 -0.662368 0
M  V30 6730 O 646.076 1.77747 -0.946991 0
M  V30 6731 C 643.141 2.88948 -1.91598 0
M  V30 6732 C 642.202 2.9114 -3.15493 0
M  V30 6733 C 641.435 4.20464 -3.28703 0
M  V30 6734 O 641.658 5.13981 -2.47345 0
M  V30 6735 O 640.592 4.29368 -4.21813 0
M  V30 6736 H 644.418 1.34357 -2.72363 0
M  V30 6737 H 642.003 0.601373 -1.36762 0
M  V30 6738 H 643.885 3.69505 -2.02593 0
M  V30 6739 H 642.56 3.07821 -1.00141 0
M  V30 6740 H 641.467 2.09461 -3.09962 0
M  V30 6741 H 642.8 2.77216 -4.06709 0
M  V30 6742 N 644.452 1.42507 0.673017 0
M  V30 6743 C 645.415 1.4582 1.76831 0
M  V30 6744 C 646.415 0.345542 1.57043 0
M  V30 6745 O 647.605 0.606447 1.63303 0
M  V30 6746 C 644.737 1.29158 3.15485 0
M  V30 6747 H 645.93 2.43345 1.7528 0
M  V30 6748 H 643.483 1.28981 0.882817 0
M  V30 6749 H 644.218 0.325626 3.22661 0
M  V30 6750 H 644.003 2.09797 3.31252 0
M  V30 6751 H 645.493 1.34363 3.95394 0
M  V30 6752 N 645.93 -0.909495 1.28709 0
M  V30 6753 C 646.86 -2.0291 1.15542 0
M  V30 6754 C 647.841 -1.7002 0.0521017 0
M  V30 6755 O 649.026 -1.92835 0.229849 0
M  V30 6756 C 646.156 -3.37458 0.820935 0
M  V30 6757 C 645.11 -3.84524 1.87949 0
M  V30 6758 C 644.436 -5.16086 1.39854 0
M  V30 6759 C 645.736 -4.05918 3.28676 0
M  V30 6760 H 647.43 -2.14183 2.09203 0
M  V30 6761 H 644.976 -1.02913 1.00722 0
M  V30 6762 H 646.929 -4.1528 0.715571 0
M  V30 6763 H 645.653 -3.26249 -0.151374 0
M  V30 6764 H 644.312 -3.08911 1.97408 0
M  V30 6765 H 643.96 -5.01284 0.41518 0
M  V30 6766 H 643.66 -5.48547 2.1064 0
M  V30 6767 H 645.184 -5.96459 1.30649 0
M  V30 6768 H 646.598 -4.74252 3.22115 0
M  V30 6769 H 644.995 -4.49717 3.97334 0
M  V30 6770 H 646.065 -3.10583 3.72379 0
M  V30 6771 N 647.408 -1.11026 -1.11852 0
M  V30 6772 C 648.657 -0.851249 -1.82857 0
M  V30 6773 C 648.97 0.62514 -1.85341 0
M  V30 6774 O 650.176 1.00026 -2.52403 0
M  V30 6775 C 648.632 -1.47309 -3.28372 0
M  V30 6776 C 648.24 -2.9832 -3.34229 0
M  V30 6777 C 649.984 -1.29373 -4.04306 0
M  V30 6778 C 647.891 -3.53509 -4.74115 0
M  V30 6779 H 646.821 -0.314794 -0.685143 0
M  V30 6780 H 649.472 -1.33499 -1.25898 0
M  V30 6781 H 647.854 -0.917017 -3.85236 0
M  V30 6782 H 649.028 -3.60295 -2.87271 0
M  V30 6783 H 647.343 -3.15482 -2.71772 0
M  V30 6784 H 649.94 -1.68042 -5.07608 0
M  V30 6785 H 650.283 -0.235879 -4.15631 0
M  V30 6786 H 650.816 -1.8182 -3.53817 0
M  V30 6787 H 647.555 -4.58987 -4.67986 0
M  V30 6788 H 647.075 -2.96305 -5.21501 0
M  V30 6789 H 648.754 -3.51693 -5.43066 0
M  V30 6790 N 648.886 1.2938 -0.899927 0
M  V30 6791 C 649.836 2.25311 -0.349165 0
M  V30 6792 C 650.82 1.51889 0.530892 0
M  V30 6793 O 652.012 1.73028 0.372872 0
M  V30 6794 C 649.141 3.40696 0.422055 0
M  V30 6795 C 648.227 4.21455 -0.472935 0
M  V30 6796 N 648.618 4.8048 -1.58026 0
M  V30 6797 C 646.916 4.45177 -0.270767 0
M  V30 6798 C 647.617 5.41117 -2.13465 0
M  V30 6799 N 646.593 5.24518 -1.42766 0
M  V30 6800 H 650.395 2.68507 -1.19505 0
M  V30 6801 H 647.909 1.43992 -0.751006 0
M  V30 6802 H 649.906 4.08486 0.833369 0
M  V30 6803 H 648.566 2.99037 1.2652 0
M  V30 6804 H 649.577 4.79257 -1.96299 0
M  V30 6805 H 646.254 4.14071 0.533988 0
M  V30 6806 H 647.644 5.979 -3.06537 0
M  V30 6807 N 650.364 0.662433 1.43002 0
M  V30 6808 C 651.327 -0.0142016 2.29196 0
M  V30 6809 C 652.327 -0.741394 1.42688 0
M  V30 6810 O 653.517 -0.581257 1.64216 0
M  V30 6811 C 650.649 -1.03084 3.24941 0
M  V30 6812 H 651.842 0.7443 2.90517 0
M  V30 6813 H 649.395 0.424133 1.50435 0
M  V30 6814 H 650.13 -1.81826 2.68533 0
M  V30 6815 H 649.915 -0.512946 3.8873 0
M  V30 6816 H 651.405 -1.50308 3.89612 0
M  V30 6817 N 651.842 -1.52309 0.404946 0
M  V30 6818 C 653.091 -2.00952 -0.173529 0
M  V30 6819 C 653.404 -1.29512 -1.46581 0
M  V30 6820 O 654.61 -1.6895 -2.12528 0
M  V30 6821 C 653.066 -3.58097 -0.359801 0
M  V30 6822 C 652.674 -4.38449 0.920138 0
M  V30 6823 C 654.418 -4.14984 -0.893794 0
M  V30 6824 C 652.325 -5.87227 0.701285 0
M  V30 6825 H 651.255 -0.750871 -0.0686244 0
M  V30 6826 H 653.906 -1.75687 0.529749 0
M  V30 6827 H 652.288 -3.79675 -1.12531 0
M  V30 6828 H 653.462 -4.28633 1.69147 0
M  V30 6829 H 651.777 -3.92859 1.38024 0
M  V30 6830 H 654.374 -5.23813 -1.0735 0
M  V30 6831 H 654.717 -3.72072 -1.8673 0
M  V30 6832 H 655.25 -3.97358 -0.187453 0
M  V30 6833 H 651.989 -6.34491 1.64624 0
M  V30 6834 H 651.509 -5.99792 -0.0308288 0
M  V30 6835 H 653.188 -6.46096 0.341846 0
M  V30 6836 N 653.32 -0.135238 -1.57019 0
M  V30 6837 C 654.25 0.805235 -2.19176 0
M  V30 6838 C 655.231 1.2656 -1.13651 0
M  V30 6839 O 656.416 1.32528 -1.4195 0
M  V30 6840 C 653.546 2.04914 -2.80406 0
M  V30 6841 C 652.5 1.72598 -3.91655 0
M  V30 6842 C 651.826 3.04154 -4.39766 0
M  V30 6843 C 653.126 0.981709 -5.12991 0
M  V30 6844 H 654.82 0.287232 -2.98019 0
M  V30 6845 H 652.366 0.136714 -1.4335 0
M  V30 6846 H 654.319 2.71178 -3.22553 0
M  V30 6847 H 653.043 2.59067 -1.98877 0
M  V30 6848 H 651.702 1.08717 -3.50109 0
M  V30 6849 H 651.35 3.56274 -3.55075 0
M  V30 6850 H 651.05 2.83299 -5.14796 0
M  V30 6851 H 652.574 3.71509 -4.84576 0
M  V30 6852 H 653.988 1.5462 -5.52056 0
M  V30 6853 H 652.385 0.873533 -5.93708 0
M  V30 6854 H 653.455 -0.0286887 -4.84892 0
M  V30 6855 N 654.798 1.5699 0.138552 0
M  V30 6856 C 656.214 1.51844 0.491472 0
M  V30 6857 C 656.414 0.845063 1.82923 0
M  V30 6858 O 655.47 0.419143 2.48997 0
M  V30 6859 C 656.783 2.96615 0.493987 0
M  V30 6860 C 658.331 3.076 0.578913 0
M  V30 6861 C 658.806 4.53893 0.612009 0
M  V30 6862 N 660.297 4.5827 0.673997 0
M  V30 6863 C 661.032 5.68852 0.720729 0
M  V30 6864 N 660.528 6.88982 0.726292 0
M  V30 6865 N 662.321 5.56908 0.762253 0
M  V30 6866 H 654.472 1.99158 -0.738228 0
M  V30 6867 H 656.735 0.908693 -0.270149 0
M  V30 6868 H 656.441 3.49172 -0.420933 0
M  V30 6869 H 656.315 3.53017 1.32887 0
M  V30 6870 H 658.702 2.55057 1.48425 0
M  V30 6871 H 658.783 2.54227 -0.283286 0
M  V30 6872 H 658.427 5.07076 -0.289208 0
M  V30 6873 H 658.357 5.05057 1.49082 0
M  V30 6874 H 660.848 3.71793 0.676654 0
M  V30 6875 H 661.161 7.69014 0.764032 0
M  V30 6876 H 659.506 6.91526 0.69403 0
M  V30 6877 H 662.697 4.61969 0.755135 0
M  V30 6878 H 662.87 6.43102 0.795207 0
M  V30 6879 N 656.276 -0.40816 1.52223 0
M  V30 6880 C 657.239 -1.48 1.7501 0
M  V30 6881 C 658.239 -1.48367 0.619996 0
M  V30 6882 O 659.429 -1.49874 0.887881 0
M  V30 6883 C 656.561 -2.87403 1.83336 0
M  V30 6884 H 657.754 -1.29086 2.70697 0
M  V30 6885 H 655.307 -0.638715 1.42654 0
M  V30 6886 H 656.042 -3.11686 0.895677 0
M  V30 6887 H 655.827 -2.8854 2.65494 0
M  V30 6888 H 657.317 -3.65103 2.02705 0
M  V30 6889 N 657.755 -1.42862 -0.66545 0
M  V30 6890 C 659.003 -1.43546 -1.42264 0
M  V30 6891 C 659.324 -0.0563116 -1.94919 0
M  V30 6892 O 658.594 0.906568 -1.73661 0
M  V30 6893 H 657.174 -0.528464 -0.527953 0
M  V30 6894 H 659.836 -1.78363 -0.785665 0
M  V30 6895 H 658.932 -2.14079 -2.27105 0
M  V30 6896 N 659.233 0.902656 -1.29189 0
M  V30 6897 C 660.51 1.63296 -1.07674 0
M  V30 6898 C 660.89 2.07649 0.380137 0
M  V30 6899 O 660.238 1.82997 1.36837 0
M  V30 6900 C 660.448 2.81603 -2.06158 0
M  V30 6901 C 661.796 3.52359 -2.36914 0
M  V30 6902 O 662.82 2.91767 -2.04329 0
M  V30 6903 O 661.679 4.61586 -2.92576 0
M  V30 6904 H 658.773 0.716889 -0.41231 0
M  V30 6905 H 661.319 0.950984 -1.4055 0
M  V30 6906 H 660.091 2.46004 -3.04299 0
M  V30 6907 H 659.714 3.57508 -1.73993 0
M  V30 6908 N 660.711 1.11618 1.11262 0
M  V30 6909 C 661.658 0.7762 2.17356 0
M  V30 6910 C 662.628 -0.253152 1.6416 0
M  V30 6911 O 663.813 -0.129655 1.90359 0
M  V30 6912 C 660.953 0.227581 3.44349 0
M  V30 6913 C 660.066 1.31372 4.1154 0
M  V30 6914 C 659.201 0.72544 5.26223 0
M  V30 6915 C 658.24 1.7913 5.85302 0
M  V30 6916 N 657.377 1.22237 6.91377 0
M  V30 6917 H 662.217 1.68508 2.45783 0
M  V30 6918 H 659.754 0.841475 1.20655 0
M  V30 6919 H 661.712 -0.108483 4.17059 0
M  V30 6920 H 660.342 -0.644486 3.16301 0
M  V30 6921 H 659.394 1.7667 3.36885 0
M  V30 6922 H 660.706 2.12005 4.51504 0
M  V30 6923 H 659.86 0.339541 6.05749 0
M  V30 6924 H 658.599 -0.112188 4.87571 0
M  V30 6925 H 657.604 2.18648 5.04453 0
M  V30 6926 H 658.829 2.63199 6.26022 0
M  V30 6927 H 656.775 0.406423 6.5474 0
M  V30 6928 H 656.692 1.9654 7.30006 0
M  V30 6929 H 657.96 0.863426 7.74703 0
M  V30 6930 N 662.189 -1.289 0.906776 0
M  V30 6931 C 663.466 -1.90221 0.455537 0
M  V30 6932 C 663.846 -1.82251 -1.06527 0
M  V30 6933 O 663.194 -1.25385 -1.91026 0
M  V30 6934 C 663.404 -3.35015 0.97806 0
M  V30 6935 C 664.752 -4.12018 1.02598 0
M  V30 6936 O 665.776 -3.43947 0.926218 0
M  V30 6937 O 664.635 -5.33677 1.17689 0
M  V30 6938 H 661.729 -0.814505 0.143214 0
M  V30 6939 H 664.275 -1.37317 0.997104 0
M  V30 6940 H 663.047 -3.35006 2.02204 0
M  V30 6941 H 662.67 -3.95408 0.416914 0
M  V30 6942 N 663.667 -0.670007 -1.42649 0
M  V30 6943 C 664.944 -0.119451 -1.95235 0
M  V30 6944 C 665.324 1.36461 -1.61064 0
M  V30 6945 O 664.672 2.09843 -0.904329 0
M  V30 6946 C 664.882 -0.383498 -3.46887 0
M  V30 6947 C 666.23 -0.297431 -4.23557 0
M  V30 6948 O 667.254 -0.31698 -3.54787 0
M  V30 6949 O 666.113 -0.235507 -5.45992 0
M  V30 6950 H 663.207 -8.85474e-05 -0.827 0
M  V30 6951 H 665.753 -0.744406 -1.52501 0
M  V30 6952 H 664.525 -1.41174 -3.64946 0
M  V30 6953 H 664.148 0.273702 -3.96657 0
M  V30 6954 N 665.145 1.52092 -0.413018 0
M  V30 6955 C 666.394 2.01041 0.16287 0
M  V30 6956 C 666.707 1.30288 1.45892 0
M  V30 6957 O 667.913 1.70075 2.11629 0
M  V30 6958 C 666.369 3.58283 0.340806 0
M  V30 6959 C 665.977 4.37955 -0.943377 0
M  V30 6960 C 667.721 4.15452 0.871774 0
M  V30 6961 C 665.628 5.86847 -0.732417 0
M  V30 6962 H 664.558 0.751224 0.0646414 0
M  V30 6963 H 667.209 1.75404 -0.539059 0
M  V30 6964 H 665.591 3.80266 1.10516 0
M  V30 6965 H 666.765 4.2773 -1.71418 0
M  V30 6966 H 665.08 3.92122 -1.40105 0
M  V30 6967 H 667.677 5.24375 1.0457 0
M  V30 6968 H 668.02 3.73057 1.84755 0
M  V30 6969 H 668.553 3.97452 0.166377 0
M  V30 6970 H 665.292 6.33609 -1.67986 0
M  V30 6971 H 664.812 5.998 -0.000980058 0
M  V30 6972 H 666.491 6.45906 -0.376105 0
M  V30 6973 N 666.623 0.143563 1.56945 0
M  V30 6974 C 667.851 -0.515447 2.00377 0
M  V30 6975 C 668.266 -1.58643 1.02361 0
M  V30 6976 O 667.623 -1.82489 0.0201039 0
M  V30 6977 C 667.674 -1.11923 3.43737 0
M  V30 6978 O 667.395 -0.0910318 4.38005 0
M  V30 6979 C 668.896 -1.85918 4.02429 0
M  V30 6980 H 666.116 -0.134478 0.657386 0
M  V30 6981 H 668.66 0.237135 2.0312 0
M  V30 6982 H 666.815 -1.82245 3.41856 0
M  V30 6983 H 667.229 -0.532916 5.21786 0
M  V30 6984 H 668.703 -2.2346 5.04747 0
M  V30 6985 H 669.18 -2.7438 3.42947 0
M  V30 6986 H 669.786 -1.20303 4.07931 0
M  V30 6987 N 668.101 -1.57061 -0.130224 0
M  V30 6988 C 669.011 -2.02802 -1.17934 0
M  V30 6989 C 670.027 -0.946378 -1.46013 0
M  V30 6990 O 671.203 -1.25708 -1.57351 0
M  V30 6991 C 668.268 -2.41368 -2.48882 0
M  V30 6992 C 667.329 -3.63561 -2.28301 0
M  V30 6993 C 666.562 -4.00279 -3.53005 0
M  V30 6994 O 666.785 -3.37463 -4.59864 0
M  V30 6995 O 665.719 -4.93441 -3.44673 0
M  V30 6996 H 669.545 -2.92394 -0.820958 0
M  V30 6997 H 667.13 -1.45475 -0.340197 0
M  V30 6998 H 669.012 -2.66958 -3.26054 0
M  V30 6999 H 667.687 -1.54926 -2.84217 0
M  V30 7000 H 666.594 -3.43136 -1.49025 0
M  V30 7001 H 667.927 -4.50673 -1.97875 0
M  V30 7002 N 669.579 0.400081 -1.52437 0
M  V30 7003 C 670.99 0.97851 -1.59003 0
M  V30 7004 C 671.341 1.91293 -0.436068 0
M  V30 7005 O 670.466 2.1183 0.442365 0
M  V30 7006 C 671.061 1.78145 -2.88184 0
M  V30 7007 C 669.62 2.30976 -2.97199 0
M  V30 7008 C 668.767 1.11212 -2.54022 0
M  V30 7009 H 671.718 0.180002 -1.57676 0
M  V30 7010 H 671.739 2.63968 -2.74046 0
M  V30 7011 H 671.251 1.1011 -3.72152 0
M  V30 7012 H 669.352 3.02355 -2.17744 0
M  V30 7013 H 669.465 2.61221 -4.01622 0
M  V30 7014 H 667.829 1.46882 -2.08081 0
M  V30 7015 H 668.612 0.447307 -3.40373 0
M  V30 7016 N 671.057 1.43213 0.657864 0
M  V30 7017 C 672.02 1.47687 1.75275 0
M  V30 7018 C 673.02 0.362179 1.56668 0
M  V30 7019 O 674.21 0.623734 1.62651 0
M  V30 7020 C 671.342 1.32497 3.14098 0
M  V30 7021 H 672.535 2.4519 1.7269 0
M  V30 7022 H 670.088 1.2991 0.869087 0
M  V30 7023 H 670.823 0.359831 3.22298 0
M  V30 7024 H 670.608 2.13299 3.29008 0
M  V30 7025 H 672.098 1.38549 3.93946 0
M  V30 7026 N 672.536 -0.895792 1.29666 0
M  V30 7027 C 673.782 -1.64908 1.18039 0
M  V30 7028 C 674.115 -1.9236 -0.266682 0
M  V30 7029 O 673.39 -1.53682 -1.19214 0
M  V30 7030 C 673.673 -2.99574 1.99819 0
M  V30 7031 C 673.526 -2.79163 3.52687 0
M  V30 7032 C 674.845 -4.00358 1.82761 0
M  V30 7033 H 671.964 -0.598437 0.430165 0
M  V30 7034 H 674.606 -1.03736 1.59182 0
M  V30 7035 H 672.756 -3.51786 1.64859 0
M  V30 7036 H 674.428 -2.33821 3.9765 0
M  V30 7037 H 672.671 -2.13871 3.77414 0
M  V30 7038 H 673.342 -3.74871 4.05186 0
M  V30 7039 H 675.818 -3.57268 2.13304 0
M  V30 7040 H 674.694 -4.92514 2.42325 0
M  V30 7041 H 674.955 -4.35096 0.783839 0
M  V30 7042 N 674.014 -1.12206 -1.10668 0
M  V30 7043 C 675.254 -0.885935 -1.84202 0
M  V30 7044 C 675.618 0.577849 -1.83098 0
M  V30 7045 O 676.819 0.931051 -2.5216 0
M  V30 7046 C 675.09 -1.44197 -3.2702 0
M  V30 7047 S 676.649 -1.34402 -4.1771 0
M  V30 7048 H 673.467 -0.319653 -0.635093 0
M  V30 7049 H 676.069 -1.43112 -1.33189 0
M  V30 7050 H 674.773 -2.50096 -3.25392 0
M  V30 7051 H 674.304 -0.894173 -3.83103 0
M  V30 7052 H 676.319 -0.313873 -4.95206 0
M  V30 7053 N 675.492 1.28418 -0.913599 0
M  V30 7054 C 676.455 2.25564 -0.406624 0
M  V30 7055 C 677.455 1.5387 0.466965 0
M  V30 7056 O 678.645 1.72094 0.270042 0
M  V30 7057 C 675.777 3.38339 0.417053 0
M  V30 7058 H 676.97 2.71926 -1.26477 0
M  V30 7059 H 674.523 1.40098 -0.692986 0
M  V30 7060 H 675.258 2.97339 1.29461 0
M  V30 7061 H 675.043 3.91542 -0.209102 0
M  V30 7062 H 676.533 4.10578 0.762602 0
M  V30 7063 N 676.97 0.677563 1.42291 0
M  V30 7064 C 677.9 0.014968 2.33495 0
M  V30 7065 C 678.881 -0.786376 1.50831 0
M  V30 7066 O 680.066 -0.742975 1.79426 0
M  V30 7067 C 677.196 -0.935023 3.34477 0
M  V30 7068 C 676.15 -0.242074 4.27315 0
M  V30 7069 C 675.476 -1.30519 5.18526 0
M  V30 7070 C 676.776 0.880604 5.14823 0
M  V30 7071 H 678.47 0.776671 2.89151 0
M  V30 7072 H 676.016 0.37494 1.39033 0
M  V30 7073 H 677.969 -1.40766 3.97194 0
M  V30 7074 H 676.693 -1.72818 2.77131 0
M  V30 7075 H 675.352 0.210351 3.65996 0
M  V30 7076 H 675 -2.09041 4.57505 0
M  V30 7077 H 674.7 -0.846652 5.81468 0
M  V30 7078 H 676.224 -1.7787 5.84119 0
M  V30 7079 H 677.638 0.489062 5.7121 0
M  V30 7080 H 676.035 1.26511 5.86613 0
M  V30 7081 H 677.105 1.72818 4.53059 0
M  V30 7082 N 678.448 -1.51871 0.421078 0
M  V30 7083 C 679.864 -1.59435 0.0725398 0
M  V30 7084 C 680.064 -1.43315 -1.41644 0
M  V30 7085 O 679.12 -1.26614 -2.18461 0
M  V30 7086 C 680.433 -2.9509 0.578132 0
M  V30 7087 C 681.981 -3.08356 0.537149 0
M  V30 7088 C 682.456 -4.4651 1.01945 0
M  V30 7089 N 683.947 -4.52784 0.976758 0
M  V30 7090 C 684.682 -5.57976 1.32099 0
M  V30 7091 N 684.178 -6.70664 1.73727 0
M  V30 7092 N 685.971 -5.48248 1.2402 0
M  V30 7093 H 678.122 -1.60595 1.39007 0
M  V30 7094 H 680.385 -0.756138 0.571803 0
M  V30 7095 H 680.091 -3.12205 1.61929 0
M  V30 7096 H 679.965 -3.772 -0.00578374 0
M  V30 7097 H 682.352 -2.90919 -0.494991 0
M  V30 7098 H 682.433 -2.28125 1.15727 0
M  V30 7099 H 682.077 -4.64692 2.04997 0
M  V30 7100 H 682.007 -5.25256 0.376023 0
M  V30 7101 H 684.498 -3.71898 0.670851 0
M  V30 7102 H 684.811 -7.46932 1.98274 0
M  V30 7103 H 683.156 -6.71914 1.77641 0
M  V30 7104 H 686.347 -4.59095 0.913756 0
M  V30 7105 H 686.52 -6.30119 1.51176 0
M  V30 7106 N 679.926 -0.151884 -1.56866 0
M  V30 7107 C 680.876 0.797799 -2.13586 0
M  V30 7108 C 681.86 1.20613 -1.06496 0
M  V30 7109 O 683.052 1.17173 -1.32663 0
M  V30 7110 C 680.181 2.03493 -2.76488 0
M  V30 7111 C 679.267 1.64948 -3.90708 0
M  V30 7112 N 679.658 0.972513 -4.96363 0
M  V30 7113 C 677.956 1.94186 -4.01507 0
M  V30 7114 C 678.657 0.785661 -5.7637 0
M  V30 7115 N 677.633 1.32105 -5.27304 0
M  V30 7116 H 681.435 0.271403 -2.92644 0
M  V30 7117 H 678.949 0.049487 -1.62325 0
M  V30 7118 H 680.946 2.72532 -3.15487 0
M  V30 7119 H 679.606 2.56646 -1.98904 0
M  V30 7120 H 680.617 0.632724 -5.1402 0
M  V30 7121 H 677.294 2.49154 -3.35005 0
M  V30 7122 H 678.684 0.251749 -6.71428 0
M  V30 7123 N 681.404 1.57128 0.121893 0
M  V30 7124 C 682.334 2.03165 1.15092 0
M  V30 7125 C 683.315 0.915587 1.43356 0
M  V30 7126 O 684.5 1.1851 1.53847 0
M  V30 7127 C 681.63 2.43352 2.47784 0
M  V30 7128 C 680.584 3.58376 2.33989 0
M  V30 7129 C 679.91 3.84454 3.71617 0
M  V30 7130 C 681.21 4.90199 1.80283 0
M  V30 7131 H 682.904 2.89382 0.768023 0
M  V30 7132 H 680.45 1.39218 0.367998 0
M  V30 7133 H 682.403 2.74163 3.20019 0
M  V30 7134 H 681.127 1.54103 2.87958 0
M  V30 7135 H 679.786 3.2777 1.64202 0
M  V30 7136 H 679.434 2.92414 4.09271 0
M  V30 7137 H 679.134 4.61877 3.6324 0
M  V30 7138 H 680.658 4.17714 4.45362 0
M  V30 7139 H 682.072 5.19565 2.42333 0
M  V30 7140 H 680.469 5.71601 1.82735 0
M  V30 7141 H 681.539 4.78904 0.760184 0
M  V30 7142 N 682.882 -0.391992 1.52647 0
M  V30 7143 C 684.11 -1.1586 1.71418 0
M  V30 7144 C 684.525 -1.8381 0.431216 0
M  V30 7145 O 683.882 -1.7256 -0.594085 0
M  V30 7146 C 683.933 -2.20888 2.86165 0
M  V30 7147 O 683.654 -1.5571 4.09495 0
M  V30 7148 C 685.155 -3.103 3.1659 0
M  V30 7149 H 682.375 -0.347494 0.574011 0
M  V30 7150 H 684.919 -0.458972 1.99283 0
M  V30 7151 H 683.074 -2.86492 2.6077 0
M  V30 7152 H 683.488 -2.25474 4.73563 0
M  V30 7153 H 684.962 -3.8003 4.00351 0
M  V30 7154 H 685.439 -3.73639 2.30848 0
M  V30 7155 H 686.045 -2.50345 3.43813 0
M  V30 7156 N 684.36 -1.4356 -0.65026 0
M  V30 7157 C 685.585 -1.48995 -1.44275 0
M  V30 7158 C 686.01 -0.109954 -1.87778 0
M  V30 7159 O 685.368 0.896926 -1.57559 0
M  V30 7160 C 685.416 -2.44341 -2.65198 0
M  V30 7161 O 684.52 -1.93172 -3.6436 0
M  V30 7162 H 683.861 -0.503852 -0.432469 0
M  V30 7163 H 686.391 -1.88504 -0.795446 0
M  V30 7164 H 686.401 -2.61743 -3.12977 0
M  V30 7165 H 685.076 -3.44588 -2.32877 0
M  V30 7166 H 683.653 -1.85445 -3.23519 0
M  V30 7167 N 685.838 0.888903 -1.30139 0
M  V30 7168 C 687.254 1.17153 -1.08385 0
M  V30 7169 C 687.454 2.0088 0.157925 0
M  V30 7170 O 686.51 2.37668 0.852652 0
M  V30 7171 C 687.823 1.882 -2.34523 0
M  V30 7172 C 689.371 2.00981 -2.39949 0
M  V30 7173 C 689.846 2.75441 -3.65918 0
M  V30 7174 N 691.337 2.82989 -3.66704 0
M  V30 7175 C 692.072 3.41167 -4.60861 0
M  V30 7176 N 691.568 4.00425 -5.6536 0
M  V30 7177 N 693.361 3.38944 -4.48412 0
M  V30 7178 H 685.512 0.33053 -2.09812 0
M  V30 7179 H 687.775 0.208964 -0.924683 0
M  V30 7180 H 687.481 1.34119 -3.25123 0
M  V30 7181 H 687.355 2.88609 -2.42868 0
M  V30 7182 H 689.742 2.54234 -1.4983 0
M  V30 7183 H 689.823 0.996725 -2.35582 0
M  V30 7184 H 689.467 2.22861 -4.56394 0
M  V30 7185 H 689.397 3.77118 -3.67546 0
M  V30 7186 H 691.888 2.40912 -2.91153 0
M  V30 7187 H 692.201 4.42871 -6.33313 0
M  V30 7188 H 690.546 3.98856 -5.69157 0
M  V30 7189 H 693.737 2.91875 -3.6596 0
M  V30 7190 H 693.91 3.83989 -5.21974 0
M  V30 7191 N 687.317 1.12792 1.10072 0
M  V30 7192 C 688.267 0.768086 2.14673 0
M  V30 7193 C 689.251 -0.234716 1.59179 0
M  V30 7194 O 690.443 -0.039643 1.76956 0
M  V30 7195 C 687.572 0.228472 3.42539 0
M  V30 7196 C 686.658 1.25979 4.04957 0
M  V30 7197 N 687.049 2.4586 4.42025 0
M  V30 7198 C 685.347 1.10602 4.32069 0
M  V30 7199 C 686.048 3.11747 4.9111 0
M  V30 7200 N 685.024 2.39185 4.88151 0
M  V30 7201 H 688.826 1.68029 2.4113 0
M  V30 7202 H 686.34 1.00925 1.27232 0
M  V30 7203 H 688.337 -0.0475216 4.16873 0
M  V30 7204 H 686.997 -0.678136 3.1754 0
M  V30 7205 H 688.008 2.83215 4.33601 0
M  V30 7206 H 684.685 0.257021 4.16708 0
M  V30 7207 H 686.075 4.13862 5.29309 0
M  V30 7208 N 688.795 -1.27931 0.920396 0
M  V30 7209 C 690.206 -1.76707 0.602616 0
M  V30 7210 C 690.557 -1.75249 -0.882159 0
M  V30 7211 O 689.682 -1.35135 -1.69019 0
M  V30 7212 C 690.277 -3.20884 1.08714 0
M  V30 7213 C 688.836 -3.67356 0.820157 0
M  V30 7214 C 687.983 -2.47525 1.25006 0
M  V30 7215 H 690.934 -1.14301 1.10095 0
M  V30 7216 H 690.955 -3.78045 0.431535 0
M  V30 7217 H 690.467 -3.21913 2.1678 0
M  V30 7218 H 688.568 -3.7178 -0.247012 0
M  V30 7219 H 688.681 -4.57181 1.43257 0
M  V30 7220 H 687.045 -2.45765 0.668698 0
M  V30 7221 H 687.828 -2.51269 2.3392 0
M  V30 7222 N 690.273 -0.685099 -1.4193 0
M  V30 7223 C 691.183 -0.013404 -2.34596 0
M  V30 7224 C 692.199 0.777589 -1.55658 0
M  V30 7225 O 693.375 0.717553 -1.88184 0
M  V30 7226 C 690.44 0.919031 -3.34297 0
M  V30 7227 C 689.501 0.121417 -4.29128 0
M  V30 7228 C 688.734 1.00944 -5.24067 0
M  V30 7229 O 688.957 2.24898 -5.24192 0
M  V30 7230 O 687.891 0.464724 -6.00103 0
M  V30 7231 H 691.717 -0.776978 -2.93593 0
M  V30 7232 H 689.302 -0.445379 -1.42607 0
M  V30 7233 H 691.184 1.45402 -3.9552 0
M  V30 7234 H 689.859 1.66228 -2.77759 0
M  V30 7235 H 688.766 -0.45792 -3.71287 0
M  V30 7236 H 690.099 -0.582937 -4.88736 0
M  V30 7237 N 691.751 1.51645 -0.429126 0
M  V30 7238 C 692.714 2.26116 0.374726 0
M  V30 7239 C 693.714 1.29242 0.956714 0
M  V30 7240 O 694.904 1.53022 0.832452 0
M  V30 7241 C 692.036 3.04669 1.52937 0
M  V30 7242 H 693.229 2.9861 -0.277818 0
M  V30 7243 H 690.782 1.55236 -0.182097 0
M  V30 7244 H 691.517 2.36571 2.21821 0
M  V30 7245 H 691.302 3.75814 1.11833 0
M  V30 7246 H 692.792 3.61102 2.09751 0
M  V30 7247 N 693.229 0.160201 1.56784 0
M  V30 7248 C 694.139 -0.787167 2.21 0
M  V30 7249 C 695.155 -1.26167 1.19825 0
M  V30 7250 O 696.331 -1.31611 1.52448 0
M  V30 7251 C 693.396 -2.00364 2.8294 0
M  V30 7252 C 692.457 -1.5771 3.99282 0
M  V30 7253 C 691.69 -2.73558 4.58259 0
M  V30 7254 O 691.913 -3.90129 4.16119 0
M  V30 7255 O 690.847 -2.48271 5.48311 0
M  V30 7256 H 694.673 -0.270462 3.02493 0
M  V30 7257 H 692.258 -0.0674666 1.49248 0
M  V30 7258 H 694.14 -2.71529 3.22257 0
M  V30 7259 H 692.815 -2.50961 2.04451 0
M  V30 7260 H 691.722 -0.835274 3.64656 0
M  V30 7261 H 693.055 -1.11815 4.79331 0
M  V30 7262 N 694.707 -1.5719 -0.113559 0
M  V30 7263 C 695.64 -1.9595 -1.16957 0
M  V30 7264 C 696.618 -0.829951 -1.39823 0
M  V30 7265 O 697.802 -1.08861 -1.53888 0
M  V30 7266 C 694.929 -2.2604 -2.52237 0
M  V30 7267 C 693.975 -3.48571 -2.45765 0
M  V30 7268 S 694.808 -5.00962 -1.89203 0
M  V30 7269 C 695.964 -5.3421 -3.26145 0
M  V30 7270 H 696.197 -2.85214 -0.839069 0
M  V30 7271 H 693.73 -1.51036 -0.320529 0
M  V30 7272 H 695.688 -2.44054 -3.30073 0
M  V30 7273 H 694.349 -1.3738 -2.82463 0
M  V30 7274 H 693.542 -3.67008 -3.45429 0
M  V30 7275 H 693.144 -3.29972 -1.76053 0
M  V30 7276 H 695.436 -5.29725 -4.22371 0
M  V30 7277 H 696.379 -6.35398 -3.12529 0
M  V30 7278 H 696.787 -4.61681 -3.24825 0
M  V30 7279 N 696.185 0.383891 -1.52853 0
M  V30 7280 C 697.148 1.45197 -1.77343 0
M  V30 7281 C 698.148 1.47362 -0.643522 0
M  V30 7282 O 699.338 1.48443 -0.911613 0
M  V30 7283 C 696.47 2.8445 -1.87885 0
M  V30 7284 H 697.663 1.24764 -2.72716 0
M  V30 7285 H 695.216 0.615939 -1.43652 0
M  V30 7286 H 695.951 3.10222 -0.94515 0
M  V30 7287 H 695.736 2.8428 -2.70051 0
M  V30 7288 H 697.226 3.61832 -2.08488 0
M  V30 7289 N 697.663 1.43903 0.642637 0
M  V30 7290 C 698.595 1.45857 1.768 0
M  V30 7291 C 699.608 0.353358 1.58919 0
M  V30 7292 O 700.797 0.618426 1.67445 0
M  V30 7293 C 697.897 1.26583 3.14372 0
M  V30 7294 C 697.07 2.50139 3.58817 0
M  V30 7295 C 696.129 2.25933 4.75227 0
M  V30 7296 O 695.155 2.99351 4.84125 0
M  V30 7297 N 696.357 1.28263 5.66153 0
M  V30 7298 H 699.122 2.42869 1.75598 0
M  V30 7299 H 696.683 1.39194 0.826832 0
M  V30 7300 H 698.675 1.08255 3.89953 0
M  V30 7301 H 697.245 0.37978 3.10284 0
M  V30 7302 H 696.465 2.83821 2.73568 0
M  V30 7303 H 697.753 3.32344 3.8526 0
M  V30 7304 H 697.151 0.676041 5.61646 0
M  V30 7305 H 695.708 1.15916 6.4141 0
M  V30 7306 N 699.141 -0.881989 1.30609 0
M  V30 7307 C 700.089 -2.00942 1.17155 0
M  V30 7308 C 701.083 -1.69198 0.0827154 0
M  V30 7309 O 702.289 -1.78342 0.243775 0
M  V30 7310 H 698.664 -0.658913 0.362406 0
M  V30 7311 H 700.635 -2.09423 2.12567 0
M  V30 7312 C 699.384 -3.36294 0.883273 0
M  V30 7313 H 698.707 -3.61233 1.7132 0
M  V30 7314 H 700.147 -4.15812 0.829255 0
M  V30 7315 C 698.606 -3.34348 -0.413851 0
M  V30 7316 O 699.136 -3.75216 -1.43444 0
M  V30 7317 N 697.342 -2.87459 -0.426082 0
M  V30 7318 H 696.889 -2.54397 0.40493 0
M  V30 7319 H 696.847 -2.8654 -1.29391 0
M  V30 7320 N 700.619 -1.13374 -1.09472 0
M  V30 7321 C 701.844 -0.918711 -1.85942 0
M  V30 7322 C 702.269 0.527225 -1.8056 0
M  V30 7323 O 701.627 1.37408 -1.18274 0
M  V30 7324 C 701.675 -1.41056 -3.31867 0
M  V30 7325 O 700.779 -0.595496 -4.08078 0
M  V30 7326 H 700.12 -0.329297 -0.576593 0
M  V30 7327 H 702.65 -1.50829 -1.38245 0
M  V30 7328 H 702.66 -1.41398 -3.82715 0
M  V30 7329 H 701.335 -2.46335 -3.35099 0
M  V30 7330 H 699.912 -0.659911 -3.67014 0
M  V30 7331 N 702.098 1.27442 -0.927168 0
M  V30 7332 C 703.344 1.94679 -0.568164 0
M  V30 7333 C 703.677 1.72697 0.888219 0
M  V30 7334 O 702.952 1.05573 1.63354 0
M  V30 7335 C 703.235 3.4882 -0.894253 0
M  V30 7336 C 703.088 3.80146 -2.40435 0
M  V30 7337 C 704.407 4.38281 -0.399766 0
M  V30 7338 H 701.526 0.707071 -0.207892 0
M  V30 7339 H 704.168 1.50568 -1.15885 0
M  V30 7340 H 702.318 3.86522 -0.391566 0
M  V30 7341 H 703.99 3.52238 -2.97869 0
M  V30 7342 H 702.233 3.26716 -2.85375 0
M  V30 7343 H 702.904 4.87835 -2.58304 0
M  V30 7344 H 705.38 4.07726 -0.83058 0
M  V30 7345 H 704.256 5.44955 -0.656885 0
M  V30 7346 H 704.517 4.36521 0.700153 0
M  V30 7347 N 703.576 0.692616 1.41565 0
M  V30 7348 C 704.992 0.363878 1.55397 0
M  V30 7349 C 705.192 -1.1294 1.66874 0
M  V30 7350 O 704.248 -1.91517 1.64552 0
M  V30 7351 C 705.561 1.10982 2.7947 0
M  V30 7352 C 707.109 1.09387 2.93263 0
M  V30 7353 C 707.584 1.8215 4.20221 0
M  V30 7354 N 709.075 1.79105 4.27172 0
M  V30 7355 C 709.81 2.32247 5.2426 0
M  V30 7356 N 709.306 2.93847 6.27396 0
M  V30 7357 N 711.099 2.22519 5.1618 0
M  V30 7358 H 703.25 1.66116 1.3236 0
M  V30 7359 H 705.513 0.700848 0.63837 0
M  V30 7360 H 705.219 2.1647 2.77188 0
M  V30 7361 H 705.093 0.686492 3.709 0
M  V30 7362 H 707.48 0.0472638 2.95062 0
M  V30 7363 H 707.561 1.55623 2.03015 0
M  V30 7364 H 707.205 2.86789 4.19183 0
M  V30 7365 H 707.135 1.33351 5.09436 0
M  V30 7366 H 709.626 1.34191 3.53272 0
M  V30 7367 H 709.939 3.31972 6.97864 0
M  V30 7368 H 708.284 2.97924 6.27906 0
M  V30 7369 H 711.475 1.7407 4.34531 0
M  V30 7370 H 711.648 2.64239 5.91677 0
M  V30 7371 N 705.054 -1.51416 0.437162 0
M  V30 7372 C 705.984 -2.30631 -0.364922 0
M  V30 7373 C 706.965 -1.36037 -1.02118 0
M  V30 7374 O 708.15 -1.64956 -1.02485 0
M  V30 7375 C 705.28 -3.1482 -1.46648 0
M  V30 7376 C 704.234 -4.17691 -0.933717 0
M  V30 7377 C 703.56 -4.904 -2.13101 0
M  V30 7378 C 704.86 -5.2229 0.0317201 0
M  V30 7379 H 706.554 -2.97932 0.29614 0
M  V30 7380 H 704.1 -1.4328 0.143865 0
M  V30 7381 H 706.053 -3.69017 -2.03481 0
M  V30 7382 H 704.777 -2.4534 -2.15583 0
M  V30 7383 H 703.436 -3.64545 -0.387602 0
M  V30 7384 H 703.084 -4.17423 -2.80654 0
M  V30 7385 H 702.784 -5.59962 -1.78092 0
M  V30 7386 H 704.308 -5.4742 -2.70487 0
M  V30 7387 H 705.722 -5.7156 -0.446302 0
M  V30 7388 H 704.119 -5.99378 0.29437 0
M  V30 7389 H 705.189 -4.75131 0.968447 0
M  V30 7390 N 706.532 -0.168513 -1.56696 0
M  V30 7391 C 707.48 0.779791 -2.19139 0
M  V30 7392 C 708.474 1.23957 -1.1546 0
M  V30 7393 O 709.68 1.20555 -1.33666 0
M  V30 7394 H 706.055 0.269739 -0.701958 0
M  V30 7395 H 708.026 0.229156 -2.97519 0
M  V30 7396 C 706.775 2.00003 -2.84419 0
M  V30 7397 H 706.098 1.65527 -3.63924 0
M  V30 7398 H 707.538 2.64251 -3.31583 0
M  V30 7399 C 705.997 2.82187 -1.84044 0
M  V30 7400 O 706.527 3.79247 -1.32418 0
M  V30 7401 N 704.733 2.47145 -1.52864 0
M  V30 7402 H 704.28 1.68277 -1.9504 0
M  V30 7403 H 704.238 3.02422 -0.859569 0
M  V30 7404 N 708.01 1.57248 0.105221 0
M  V30 7405 C 709.24 1.89492 0.823175 0
M  V30 7406 C 709.648 0.75934 1.73294 0
M  V30 7407 O 708.991 -0.278182 1.81581 0
M  V30 7408 C 709.053 3.16891 1.69765 0
M  V30 7409 C 708.717 4.46787 0.960769 0
M  V30 7410 C 709.714 5.19061 0.295218 0
M  V30 7411 C 707.399 4.93467 0.937854 0
M  V30 7412 C 709.393 6.36246 -0.383393 0
M  V30 7413 C 707.08 6.10566 0.255452 0
M  V30 7414 C 708.078 6.81804 -0.404003 0
M  V30 7415 O 707.766 7.96673 -1.07549 0
M  V30 7416 H 707.498 0.631512 0.24118 0
M  V30 7417 H 710.052 2.05203 0.0899655 0
M  V30 7418 H 708.282 2.973 2.47285 0
M  V30 7419 H 709.971 3.35046 2.29126 0
M  V30 7420 H 710.737 4.84044 0.304448 0
M  V30 7421 H 706.616 4.37913 1.44058 0
M  V30 7422 H 710.16 6.91787 -0.898696 0
M  V30 7423 H 706.057 6.45039 0.244032 0
M  V30 7424 H 706.825 8.12596 -0.981355 0
M  V30 7425 N 709.488 -0.375779 1.53054 0
M  V30 7426 C 710.736 -1.11727 1.68409 0
M  V30 7427 C 711.057 -1.90127 0.43323 0
M  V30 7428 O 710.327 -1.87945 -0.552595 0
M  V30 7429 H 708.907 -0.415451 0.620813 0
M  V30 7430 H 711.569 -0.424869 1.90213 0
M  V30 7431 H 710.665 -1.8128 2.54055 0
M  V30 7432 N 710.966 -1.44241 -0.634997 0
M  V30 7433 C 712.215 -1.46102 -1.39058 0
M  V30 7434 C 712.528 -0.0959909 -1.95364 0
M  V30 7435 O 713.734 0.00788751 -2.71499 0
M  V30 7436 C 712.19 -2.57195 -2.51751 0
M  V30 7437 C 711.798 -3.99888 -2.01974 0
M  V30 7438 C 713.542 -2.68272 -3.28984 0
M  V30 7439 C 711.449 -5.02412 -3.11987 0
M  V30 7440 H 710.379 -0.543556 -0.522554 0
M  V30 7441 H 713.03 -1.70294 -0.683538 0
M  V30 7442 H 711.412 -2.26237 -3.25012 0
M  V30 7443 H 712.586 -4.40396 -1.35604 0
M  V30 7444 H 710.901 -3.93019 -1.37568 0
M  V30 7445 H 713.498 -3.42042 -4.10988 0
M  V30 7446 H 713.841 -1.73957 -3.78212 0
M  V30 7447 H 714.374 -2.98622 -2.62812 0
M  V30 7448 H 711.113 -5.98342 -2.67707 0
M  V30 7449 H 710.633 -4.66501 -3.77011 0
M  V30 7450 H 712.312 -5.25939 -3.76825 0
M  V30 7451 N 712.444 0.87505 -1.31075 0
M  V30 7452 C 713.855 1.4433 -1.18431 0
M  V30 7453 C 714.206 1.9506 0.211189 0
M  V30 7454 O 713.331 1.85847 1.10859 0
M  V30 7455 C 713.926 2.62341 -2.14389 0
M  V30 7456 C 712.485 3.15225 -2.05694 0
M  V30 7457 C 711.632 1.87929 -2.03907 0
M  V30 7458 H 714.583 0.684061 -1.432 0
M  V30 7459 H 714.604 3.3887 -1.73053 0
M  V30 7460 H 714.116 2.25388 -3.15946 0
M  V30 7461 H 712.217 3.56812 -1.07314 0
M  V30 7462 H 712.33 3.77853 -2.94558 0
M  V30 7463 H 710.694 2.06679 -1.48849 0
M  V30 7464 H 711.477 1.53221 -3.07211 0
M  V30 7465 N 713.922 1.13953 1.08869 0
M  V30 7466 C 714.885 0.824991 2.13838 0
M  V30 7467 C 715.885 -0.168198 1.59918 0
M  V30 7468 O 717.075 0.0595778 1.74098 0
M  V30 7469 C 714.207 0.228938 3.4013 0
M  V30 7470 H 715.4 1.75521 2.43171 0
M  V30 7471 H 712.953 0.94492 1.24503 0
M  V30 7472 H 713.688 -0.710227 3.16427 0
M  V30 7473 H 713.473 0.944243 3.80561 0
M  V30 7474 H 714.963 0.0259223 4.17592 0
M  V30 7475 N 715.4 -1.26948 0.933913 0
M  V30 7476 C 716.649 -1.93378 0.573409 0
M  V30 7477 C 716.962 -1.74148 -0.890614 0
M  V30 7478 O 718.168 -2.34971 -1.36017 0
M  V30 7479 C 716.624 -3.46449 0.974747 0
M  V30 7480 C 716.232 -3.74425 2.45988 0
M  V30 7481 C 717.976 -4.18924 0.685791 0
M  V30 7482 C 715.883 -5.209 2.8003 0
M  V30 7483 H 714.813 -0.723952 0.210736 0
M  V30 7484 H 717.464 -1.44143 1.13557 0
M  V30 7485 H 715.846 -3.94528 0.341181 0
M  V30 7486 H 717.02 -3.37079 3.14188 0
M  V30 7487 H 715.335 -3.15167 2.72138 0
M  V30 7488 H 717.932 -5.26786 0.916546 0
M  V30 7489 H 718.275 -4.14587 -0.377217 0
M  V30 7490 H 718.808 -3.76687 1.27874 0
M  V30 7491 H 715.547 -5.30332 3.85264 0
M  V30 7492 H 715.067 -5.59369 2.16485 0
M  V30 7493 H 716.746 -5.88837 2.68105 0
M  V30 7494 N 716.879 -0.700114 -1.41195 0
M  V30 7495 C 718.125 -0.233351 -2.01453 0
M  V30 7496 C 718.458 1.16548 -1.55339 0
M  V30 7497 O 717.733 1.78756 -0.766575 0
M  V30 7498 C 718.016 -0.2961 -3.58881 0
M  V30 7499 C 717.869 -1.7322 -4.15108 0
M  V30 7500 C 719.188 0.341525 -4.38773 0
M  V30 7501 H 716.307 -0.0862667 -0.731934 0
M  V30 7502 H 718.949 -0.889693 -1.67882 0
M  V30 7503 H 717.099 0.262736 -3.87611 0
M  V30 7504 H 718.771 -2.34523 -3.97236 0
M  V30 7505 H 717.014 -2.2649 -3.69979 0
M  V30 7506 H 717.685 -1.7276 -5.24269 0
M  V30 7507 H 720.161 -0.134461 -4.15883 0
M  V30 7508 H 719.037 0.267098 -5.4825 0
M  V30 7509 H 719.298 1.42289 -4.18577 0
M  V30 7510 N 718.357 1.51182 -0.445186 0
M  V30 7511 C 719.304 2.27939 0.362291 0
M  V30 7512 C 720.274 1.31864 1.01 0
M  V30 7513 O 721.459 1.60776 1.02741 0
M  V30 7514 C 718.599 3.13016 1.45311 0
M  V30 7515 C 717.712 4.24093 0.822757 0
M  V30 7516 C 716.847 4.96467 1.88928 0
M  V30 7517 C 715.886 5.99454 1.23778 0
M  V30 7518 N 715.023 6.65206 2.24602 0
M  V30 7519 H 719.863 2.965 -0.29862 0
M  V30 7520 H 717.4 1.46237 -0.15911 0
M  V30 7521 H 719.358 3.60673 2.09692 0
M  V30 7522 H 717.988 2.46553 2.08354 0
M  V30 7523 H 717.04 3.80341 0.0670364 0
M  V30 7524 H 718.352 4.97853 0.307184 0
M  V30 7525 H 717.506 5.47712 2.60953 0
M  V30 7526 H 716.245 4.22355 2.4386 0
M  V30 7527 H 715.25 5.47494 0.503042 0
M  V30 7528 H 716.475 6.75527 0.695694 0
M  V30 7529 H 714.421 5.93901 2.78599 0
M  V30 7530 H 714.338 7.34756 1.77958 0
M  V30 7531 H 715.606 7.21078 2.96085 0
M  V30 7532 N 719.835 0.176821 1.56605 0
M  V30 7533 C 720.765 -0.746841 2.21234 0
M  V30 7534 C 721.746 -1.23502 1.16967 0
M  V30 7535 O 722.931 -1.28718 1.45414 0
M  V30 7536 C 720.061 -1.97407 2.8574 0
M  V30 7537 C 719.015 -1.62153 3.96094 0
M  V30 7538 C 718.341 -2.92387 4.47676 0
M  V30 7539 C 719.641 -0.845353 5.15413 0
M  V30 7540 H 721.335 -0.208116 2.98676 0
M  V30 7541 H 718.881 -0.0986594 1.43662 0
M  V30 7542 H 720.834 -2.62531 3.2963 0
M  V30 7543 H 719.558 -2.53703 2.05676 0
M  V30 7544 H 718.217 -0.993964 3.52868 0
M  V30 7545 H 717.865 -3.46734 3.64396 0
M  V30 7546 H 717.565 -2.69551 5.22127 0
M  V30 7547 H 719.089 -3.5853 4.94255 0
M  V30 7548 H 720.503 -1.39929 5.55961 0
M  V30 7549 H 718.9 -0.715814 5.95815 0
M  V30 7550 H 719.97 0.157239 4.84645 0
M  V30 7551 N 721.313 -1.57302 -0.09688 0
M  V30 7552 C 722.243 -2.0497 -1.11846 0
M  V30 7553 C 723.224 -0.938278 -1.41882 0
M  V30 7554 O 724.409 -1.20943 -1.51942 0
M  V30 7555 C 721.539 -2.47264 -2.43881 0
M  V30 7556 C 720.493 -3.62053 -2.28257 0
M  V30 7557 C 719.819 -3.90318 -3.65453 0
M  V30 7558 C 721.119 -4.93005 -1.72461 0
M  V30 7559 H 722.813 -2.90567 -0.721888 0
M  V30 7560 H 720.359 -1.39786 -0.345803 0
M  V30 7561 H 722.312 -2.7922 -3.15617 0
M  V30 7562 H 721.036 -1.58664 -2.8547 0
M  V30 7563 H 719.695 -3.30341 -1.58967 0
M  V30 7564 H 719.343 -2.98889 -4.04567 0
M  V30 7565 H 719.043 -4.67597 -3.55846 0
M  V30 7566 H 720.567 -4.24747 -4.3866 0
M  V30 7567 H 721.981 -5.23354 -2.34036 0
M  V30 7568 H 720.378 -5.74436 -1.73618 0
M  V30 7569 H 721.448 -4.80053 -0.683898 0
M  V30 7570 N 722.791 0.367657 -1.53252 0
M  V30 7571 C 723.739 1.47061 -1.8021 0
M  V30 7572 C 724.733 1.55539 -0.671112 0
M  V30 7573 O 725.939 1.58451 -0.854014 0
M  V30 7574 H 722.314 0.489868 -0.570555 0
M  V30 7575 H 724.285 1.21527 -2.72532 0
M  V30 7576 C 723.034 2.83924 -2.00706 0
M  V30 7577 H 722.357 2.78158 -2.87172 0
M  V30 7578 H 723.797 3.60281 -2.23547 0
M  V30 7579 C 722.256 3.27613 -0.785568 0
M  V30 7580 O 722.786 4.01691 0.0267459 0
M  V30 7581 N 720.992 2.84134 -0.609597 0
M  V30 7582 H 720.539 2.24017 -1.27178 0
M  V30 7583 H 720.497 3.13723 0.206281 0
M  V30 7584 N 724.269 1.44576 0.627338 0
M  V30 7585 C 725.201 1.47724 1.75243 0
M  V30 7586 C 726.214 0.370193 1.58535 0
M  V30 7587 O 727.403 0.636151 1.66779 0
M  V30 7588 C 724.503 1.2991 3.13012 0
M  V30 7589 C 723.676 2.5393 3.56143 0
M  V30 7590 C 722.735 2.30961 4.72804 0
M  V30 7591 O 721.761 3.04469 4.80923 0
M  V30 7592 N 722.963 1.34261 5.6476 0
M  V30 7593 H 725.728 2.44718 1.73012 0
M  V30 7594 H 723.289 1.40064 0.812022 0
M  V30 7595 H 725.281 1.12385 3.88782 0
M  V30 7596 H 723.851 0.412668 3.09864 0
M  V30 7597 H 723.071 2.86707 2.70542 0
M  V30 7598 H 724.359 3.36411 3.81713 0
M  V30 7599 H 723.757 0.735573 5.60897 0
M  V30 7600 H 722.314 1.22713 6.40144 0
M  V30 7601 N 725.747 -0.868086 1.31537 0
M  V30 7602 C 727.158 -1.437 1.19195 0
M  V30 7603 C 727.509 -1.95169 -0.200842 0
M  V30 7604 O 726.634 -1.86432 -1.09872 0
M  V30 7605 C 727.229 -2.612 2.15778 0
M  V30 7606 C 725.788 -3.1413 2.07363 0
M  V30 7607 C 724.935 -1.86845 2.049 0
M  V30 7608 H 727.886 -0.676457 1.43561 0
M  V30 7609 H 727.907 -3.37948 1.74847 0
M  V30 7610 H 727.419 -2.23709 3.17137 0
M  V30 7611 H 725.52 -3.56238 1.09204 0
M  V30 7612 H 725.633 -3.76285 2.96557 0
M  V30 7613 H 723.997 -2.05886 1.49943 0
M  V30 7614 H 724.78 -1.51589 3.08019 0
M  V30 7615 N 727.225 -1.14528 -1.08264 0
M  V30 7616 C 728.173 -0.829201 -2.17318 0
M  V30 7617 C 729.167 0.193521 -1.68291 0
M  V30 7618 O 730.373 0.0494744 -1.79932 0
M  V30 7619 H 726.748 -0.250435 -0.709074 0
M  V30 7620 H 728.719 -1.75683 -2.41201 0
M  V30 7621 C 727.468 -0.324663 -3.46181 0
M  V30 7622 H 726.791 -1.10299 -3.84284 0
M  V30 7623 H 728.231 -0.142059 -4.23762 0
M  V30 7624 C 726.69 0.952033 -3.23169 0
M  V30 7625 O 727.22 2.02549 -3.46896 0
M  V30 7626 N 725.426 0.887854 -2.76705 0
M  V30 7627 H 724.973 0.0141402 -2.57596 0
M  V30 7628 H 724.931 1.74263 -2.61686 0
M  V30 7629 N 728.703 1.26451 -0.940633 0
M  V30 7630 C 729.635 2.25556 -0.407104 0
M  V30 7631 C 730.648 1.55888 0.469324 0
M  V30 7632 O 731.837 1.76292 0.279858 0
M  V30 7633 C 728.937 3.36109 0.434064 0
M  V30 7634 C 728.11 4.3532 -0.426082 0
M  V30 7635 C 727.169 5.25004 0.354563 0
M  V30 7636 O 726.195 5.68684 -0.242219 0
M  V30 7637 N 727.397 5.5652 1.65123 0
M  V30 7638 H 730.162 2.7197 -1.25907 0
M  V30 7639 H 727.723 1.40212 -0.809456 0
M  V30 7640 H 729.715 3.93059 0.963684 0
M  V30 7641 H 728.285 2.89194 1.18683 0
M  V30 7642 H 727.505 3.77449 -1.13692 0
M  V30 7643 H 728.793 4.986 -1.01366 0
M  V30 7644 H 728.191 5.22912 2.15822 0
M  V30 7645 H 726.748 6.16115 2.12711 0
M  V30 7646 N 730.181 0.707592 1.40822 0
M  V30 7647 C 731.427 0.252828 2.01823 0
M  V30 7648 C 731.782 -1.13876 1.55081 0
M  V30 7649 O 731.075 -1.75993 0.757439 0
M  V30 7650 C 731.269 0.262892 3.56432 0
M  V30 7651 C 731.098 1.65392 4.18181 0
M  V30 7652 C 729.868 2.25966 4.5196 0
M  V30 7653 C 732.066 2.60272 4.4358 0
M  V30 7654 N 730.048 3.57508 4.9906 0
M  V30 7655 C 731.419 3.76509 4.92586 0
M  V30 7656 C 733.474 2.58386 4.25607 0
M  V30 7657 C 732.177 4.91157 5.25507 0
M  V30 7658 C 734.203 3.72155 4.59625 0
M  V30 7659 C 733.565 4.87123 5.08813 0
M  V30 7660 H 729.664 0.138172 0.769696 0
M  V30 7661 H 732.248 0.927667 1.7118 0
M  V30 7662 H 730.419 -0.381479 3.86522 0
M  V30 7663 H 732.151 -0.20783 4.04166 0
M  V30 7664 H 728.906 1.78138 4.38821 0
M  V30 7665 H 729.33 4.24968 5.27002 0
M  V30 7666 H 733.972 1.7071 3.86805 0
M  V30 7667 H 731.69 5.79483 5.63227 0
M  V30 7668 H 735.276 3.71961 4.47366 0
M  V30 7669 H 734.156 5.73698 5.3464 0
M  V30 7670 N 731.66 -1.50943 0.453197 0
M  V30 7671 C 733.071 -1.86699 -0.00619892 0
M  V30 7672 C 733.422 -1.3693 -1.40515 0
M  V30 7673 O 732.547 -0.726715 -2.03833 0
M  V30 7674 C 733.142 -3.38795 -0.018025 0
M  V30 7675 C 731.701 -3.74028 -0.421885 0
M  V30 7676 C 730.848 -2.74752 0.375087 0
M  V30 7677 H 733.799 -1.43942 0.668317 0
M  V30 7678 H 733.82 -3.71468 -0.824125 0
M  V30 7679 H 733.332 -3.74988 1.00028 0
M  V30 7680 H 731.433 -3.43431 -1.44521 0
M  V30 7681 H 731.546 -4.78908 -0.135664 0
M  V30 7682 H 729.91 -2.5414 -0.168794 0
M  V30 7683 H 730.693 -3.13787 1.39256 0
M  V30 7684 N 733.138 -0.185124 -1.56509 0
M  V30 7685 C 734.068 0.735098 -2.21627 0
M  V30 7686 C 735.049 1.2288 -1.1762 0
M  V30 7687 O 736.234 1.27945 -1.46095 0
M  V30 7688 C 733.364 1.95889 -2.86783 0
M  V30 7689 C 732.318 1.6005 -3.96948 0
M  V30 7690 C 731.644 2.90009 -4.4922 0
M  V30 7691 C 732.944 0.818008 -5.15855 0
M  V30 7692 H 734.638 0.192274 -2.98782 0
M  V30 7693 H 732.184 0.0910393 -1.43712 0
M  V30 7694 H 734.137 2.60779 -3.31017 0
M  V30 7695 H 732.861 2.52608 -2.07018 0
M  V30 7696 H 731.52 0.975237 -3.5339 0
M  V30 7697 H 731.168 3.44797 -3.6623 0
M  V30 7698 H 730.868 2.66778 -5.23549 0
M  V30 7699 H 732.392 3.55904 -4.9615 0
M  V30 7700 H 733.806 1.36979 -5.56695 0
M  V30 7701 H 732.203 0.684207 -5.96187 0
M  V30 7702 H 733.273 -0.182939 -4.84555 0
M  V30 7703 N 734.616 1.57351 0.0885366 0
M  V30 7704 C 735.862 1.86696 0.791996 0
M  V30 7705 C 736.195 0.775148 1.78059 0
M  V30 7706 O 735.47 -0.216247 1.93294 0
M  V30 7707 C 735.753 3.26684 1.51491 0
M  V30 7708 C 735.606 4.465 0.543858 0
M  V30 7709 C 736.925 3.64664 2.46391 0
M  V30 7710 H 734.044 0.679049 0.286463 0
M  V30 7711 H 736.686 1.89919 0.0554866 0
M  V30 7712 H 734.836 3.24067 2.14273 0
M  V30 7713 H 736.508 4.61235 -0.0774597 0
M  V30 7714 H 734.751 4.33567 -0.142228 0
M  V30 7715 H 735.422 5.41192 1.08696 0
M  V30 7716 H 737.898 3.68267 1.93698 0
M  V30 7717 H 736.774 4.63534 2.93986 0
M  V30 7718 H 737.035 2.93698 3.30445 0
M  V30 7719 N 736.094 -0.359525 1.53444 0
M  V30 7720 C 737.041 -1.44073 1.8031 0
M  V30 7721 C 738.011 -1.52946 0.647811 0
M  V30 7722 O 739.196 -1.68739 0.890614 0
M  V30 7723 C 736.336 -2.80941 2.00416 0
M  V30 7724 C 735.449 -2.80986 3.28132 0
M  V30 7725 C 734.584 -4.09468 3.38393 0
M  V30 7726 C 733.623 -4.03679 4.60119 0
M  V30 7727 N 732.76 -5.23821 4.675 0
M  V30 7728 H 737.6 -1.20464 2.72566 0
M  V30 7729 H 735.137 -0.583859 1.35017 0
M  V30 7730 H 737.095 -3.60459 2.1006 0
M  V30 7731 H 735.725 -3.02936 1.11489 0
M  V30 7732 H 734.777 -1.93666 3.27411 0
M  V30 7733 H 736.089 -2.72583 4.17732 0
M  V30 7734 H 735.243 -4.97404 3.47382 0
M  V30 7735 H 733.982 -4.20632 2.4682 0
M  V30 7736 H 732.987 -3.14129 4.51224 0
M  V30 7737 H 734.212 -3.94112 5.5304 0
M  V30 7738 H 732.158 -5.35559 3.7883 0
M  V30 7739 H 732.075 -5.17611 5.51013 0
M  V30 7740 H 733.343 -6.13572 4.8078 0
M  V30 7741 N 737.572 -1.44907 -0.619662 0
M  V30 7742 C 738.535 -1.52282 -1.71297 0
M  V30 7743 C 739.535 -0.40359 -1.55653 0
M  V30 7744 O 740.725 -0.666638 -1.6094 0
M  V30 7745 C 737.857 -1.40778 -3.10474 0
M  V30 7746 H 739.05 -2.49683 -1.66128 0
M  V30 7747 H 736.603 -1.32168 -0.834339 0
M  V30 7748 H 737.338 -0.445156 -3.2123 0
M  V30 7749 H 737.123 -2.21947 -3.23237 0
M  V30 7750 H 738.613 -1.48946 -3.90135 0
M  V30 7751 N 739.05 0.861098 -1.31996 0
M  V30 7752 C 740.278 1.6474 -1.25173 0
M  V30 7753 C 740.693 1.87926 0.181425 0
M  V30 7754 O 740.05 1.4437 1.1164 0
M  V30 7755 C 740.101 3.01036 -2.0015 0
M  V30 7756 O 739.822 2.7888 -3.37872 0
M  V30 7757 C 741.323 3.95481 -2.00273 0
M  V30 7758 H 738.543 0.513314 -0.432146 0
M  V30 7759 H 741.087 1.07419 -1.74016 0
M  V30 7760 H 739.242 3.55021 -1.55046 0
M  V30 7761 H 739.656 3.65514 -3.76165 0
M  V30 7762 H 741.13 4.88403 -2.57229 0
M  V30 7763 H 741.607 4.27957 -0.987407 0
M  V30 7764 H 742.213 3.47433 -2.45296 0
M  V30 7765 N 740.528 1.15101 1.07655 0
M  V30 7766 C 741.777 0.918528 1.79572 0
M  V30 7767 C 742.09 -0.555922 1.87534 0
M  V30 7768 O 743.296 -0.905893 2.55941 0
M  V30 7769 C 741.752 1.59394 3.22679 0
M  V30 7770 C 741.36 3.1052 3.22927 0
M  V30 7771 C 743.104 1.44289 3.99225 0
M  V30 7772 C 741.011 3.70862 4.60668 0
M  V30 7773 H 739.941 0.340006 0.672987 0
M  V30 7774 H 742.592 1.38079 1.20857 0
M  V30 7775 H 740.974 1.05936 3.81567 0
M  V30 7776 H 742.148 3.70708 2.737 0
M  V30 7777 H 740.463 3.25351 2.59876 0
M  V30 7778 H 743.06 1.86766 5.01022 0
M  V30 7779 H 743.403 0.389975 4.14469 0
M  V30 7780 H 743.936 1.94826 3.46825 0
M  V30 7781 H 740.675 4.7604 4.50628 0
M  V30 7782 H 740.195 3.15456 5.10145 0
M  V30 7783 H 741.874 3.71607 5.29639 0
M  V30 7784 N 742.006 -1.2595 0.947325 0
M  V30 7785 C 743.254 -1.93081 0.596996 0
M  V30 7786 C 743.575 -1.74632 -0.867672 0
M  V30 7787 O 742.845 -1.1056 -1.6172 0
M  V30 7788 H 741.425 -0.714542 0.217805 0
M  V30 7789 H 744.087 -1.53265 1.20398 0
M  V30 7790 H 743.183 -3.01134 0.82004 0
M  V30 7791 N 743.484 -0.715051 -1.40445 0
M  V30 7792 C 744.414 -0.0768699 -2.33373 0
M  V30 7793 C 745.395 0.746109 -1.52863 0
M  V30 7794 O 746.58 0.695142 -1.81332 0
M  V30 7795 C 743.71 0.846014 -3.36838 0
M  V30 7796 C 742.664 0.128694 -4.27806 0
M  V30 7797 C 741.99 1.16726 -5.21804 0
M  V30 7798 C 743.29 -1.01679 -5.12307 0
M  V30 7799 H 744.984 -0.853061 -2.8699 0
M  V30 7800 H 742.53 -0.41167 -1.3799 0
M  V30 7801 H 744.483 1.30185 -4.00786 0
M  V30 7802 H 743.207 1.6541 -2.81615 0
M  V30 7803 H 741.866 -0.307314 -3.6531 0
M  V30 7804 H 741.514 1.96838 -4.62887 0
M  V30 7805 H 741.214 0.692188 -5.83509 0
M  V30 7806 H 742.738 1.62321 -5.88629 0
M  V30 7807 H 744.152 -0.640337 -5.69713 0
M  V30 7808 H 742.549 -1.4202 -5.83053 0
M  V30 7809 H 743.619 -1.84769 -4.48317 0
M  V30 7810 N 744.962 1.50701 -0.461195 0
M  V30 7811 C 746.211 2.01458 0.0988277 0
M  V30 7812 C 746.524 1.34863 1.41673 0
M  V30 7813 O 747.73 1.76721 2.06111 0
M  V30 7814 C 746.186 3.59186 0.226648 0
M  V30 7815 C 745.794 4.34732 -1.08223 0
M  V30 7816 C 747.538 4.18015 0.73916 0
M  V30 7817 C 745.445 5.8422 -0.918747 0
M  V30 7818 H 744.375 0.7529 0.040709 0
M  V30 7819 H 747.026 1.736 -0.594589 0
M  V30 7820 H 745.408 3.83589 0.983621 0
M  V30 7821 H 746.582 4.22059 -1.84939 0
M  V30 7822 H 744.897 3.87466 -1.52509 0
M  V30 7823 H 747.494 5.27436 0.878347 0
M  V30 7824 H 747.837 3.78746 1.72793 0
M  V30 7825 H 748.37 3.9778 0.0398469 0
M  V30 7826 H 745.109 6.27944 -1.88059 0
M  V30 7827 H 744.629 5.99493 -0.191801 0
M  V30 7828 H 746.308 6.44382 -0.581405 0
M  V30 7829 N 746.441 0.193421 1.56409 0
M  V30 7830 C 747.857 -0.162447 1.58771 0
M  V30 7831 C 748.057 -1.6116 1.20954 0
M  V30 7832 O 747.113 -2.3469 0.931497 0
M  V30 7833 C 748.426 0.138391 3.00381 0
M  V30 7834 C 749.974 0.0783649 3.12902 0
M  V30 7835 C 750.449 0.352491 4.56642 0
M  V30 7836 N 751.94 0.30105 4.62221 0
M  V30 7837 C 752.675 0.487028 5.71328 0
M  V30 7838 N 752.171 0.733265 6.88909 0
M  V30 7839 N 753.964 0.4214 5.60518 0
M  V30 7840 H 746.115 1.13909 1.79272 0
M  V30 7841 H 748.378 0.454528 0.83193 0
M  V30 7842 H 748.084 1.14312 3.32604 0
M  V30 7843 H 747.958 -0.559804 3.73023 0
M  V30 7844 H 750.345 -0.916963 2.80492 0
M  V30 7845 H 750.426 0.809611 2.4265 0
M  V30 7846 H 750.07 1.34513 4.89764 0
M  V30 7847 H 750 -0.399624 5.25081 0
M  V30 7848 H 752.491 0.117279 3.77718 0
M  V30 7849 H 752.804 0.86403 7.67955 0
M  V30 7850 H 751.149 0.770138 6.9072 0
M  V30 7851 H 754.34 0.229461 4.67537 0
M  V30 7852 H 754.513 0.569758 6.4549 0
M  V30 7853 N 747.919 -1.57396 -0.0801906 0
M  V30 7854 C 748.867 -2.04136 -1.11495 0
M  V30 7855 C 749.861 -0.945137 -1.40583 0
M  V30 7856 O 751.067 -1.13028 -1.40088 0
M  V30 7857 H 747.442 -0.65076 -0.37685 0
M  V30 7858 H 749.413 -2.90205 -0.694526 0
M  V30 7859 C 748.162 -2.49399 -2.42272 0
M  V30 7860 H 747.485 -3.33339 -2.20737 0
M  V30 7861 H 748.925 -2.85864 -3.13142 0
M  V30 7862 C 747.384 -1.37341 -3.07635 0
M  V30 7863 O 747.914 -0.710829 -3.95361 0
M  V30 7864 N 746.12 -1.12064 -2.68123 0
M  V30 7865 H 745.667 -1.66126 -1.96875 0
M  V30 7866 H 745.625 -0.372916 -3.12181 0
M  V30 7867 N 749.397 0.351382 -1.53633 0
M  V30 7868 C 750.327 1.43688 -1.84055 0
M  V30 7869 C 751.308 1.55251 -0.695073 0
M  V30 7870 O 752.493 1.69587 -0.946257 0
M  V30 7871 C 749.623 2.80843 -2.04315 0
M  V30 7872 C 748.577 2.84094 -3.20117 0
M  V30 7873 C 747.903 4.2406 -3.25696 0
M  V30 7874 C 749.203 2.50334 -4.58399 0
M  V30 7875 H 750.897 1.18478 -2.74961 0
M  V30 7876 H 748.443 0.568509 -1.32303 0
M  V30 7877 H 750.396 3.56821 -2.2418 0
M  V30 7878 H 749.12 3.07471 -1.10132 0
M  V30 7879 H 747.779 2.10568 -3.00094 0
M  V30 7880 H 747.427 4.47785 -2.29123 0
M  V30 7881 H 747.127 4.27147 -4.03509 0
M  V30 7882 H 748.651 5.0189 -3.47762 0
M  V30 7883 H 750.065 3.16025 -4.78332 0
M  V30 7884 H 748.462 2.64717 -5.38558 0
M  V30 7885 H 749.532 1.45542 -4.62543 0
M  V30 7886 N 750.875 1.45233 0.611969 0
M  V30 7887 C 751.838 1.53189 1.70487 0
M  V30 7888 C 752.838 0.411839 1.55437 0
M  V30 7889 O 754.028 0.675164 1.60584 0
M  V30 7890 C 751.16 1.42422 3.09723 0
M  V30 7891 H 752.353 2.5056 1.64802 0
M  V30 7892 H 749.906 1.32609 0.827318 0
M  V30 7893 H 750.641 0.462185 3.2099 0
M  V30 7894 H 750.426 2.23658 3.22055 0
M  V30 7895 H 751.916 1.51012 3.89339 0
M  V30 7896 N 752.353 -0.854086 1.3245 0
M  V30 7897 C 753.283 -1.97827 1.24044 0
M  V30 7898 C 754.264 -1.69646 0.124166 0
M  V30 7899 O 755.449 -1.91687 0.31143 0
M  V30 7900 C 752.579 -3.33673 0.963324 0
M  V30 7901 C 751.533 -3.76207 2.04089 0
M  V30 7902 C 750.859 -5.0969 1.61618 0
M  V30 7903 C 752.159 -3.91612 3.45597 0
M  V30 7904 H 753.853 -2.05118 2.18099 0
M  V30 7905 H 751.399 -0.985489 1.04996 0
M  V30 7906 H 753.352 -4.11871 0.891061 0
M  V30 7907 H 752.076 -3.26597 -0.0128649 0
M  V30 7908 H 750.735 -3.0026 2.10332 0
M  V30 7909 H 750.383 -4.99072 0.627418 0
M  V30 7910 H 750.083 -5.3912 2.33717 0
M  V30 7911 H 751.607 -5.90381 1.55829 0
M  V30 7912 H 753.021 -4.60163 3.4194 0
M  V30 7913 H 751.418 -4.3246 4.16051 0
M  V30 7914 H 752.488 -2.9451 3.85217 0
M  V30 7915 N 753.831 -1.1567 -1.07043 0
M  V30 7916 C 755.071 -0.944089 -1.81291 0
M  V30 7917 C 755.435 0.519305 -1.84844 0
M  V30 7918 O 756.636 0.850357 -2.54995 0
M  V30 7919 C 754.907 -1.54528 -3.22267 0
M  V30 7920 S 756.466 -1.47623 -4.13223 0
M  V30 7921 H 753.284 -0.339696 -0.624602 0
M  V30 7922 H 755.886 -1.47277 -1.28568 0
M  V30 7923 H 754.59 -2.60321 -3.17271 0
M  V30 7924 H 754.121 -1.0156 -3.80065 0
M  V30 7925 H 756.136 -0.471261 -4.93957 0
M  V30 7926 N 755.309 1.25446 -0.953992 0
M  V30 7927 C 756.72 1.75047 -0.649255 0
M  V30 7928 C 757.071 1.77527 0.835385 0
M  V30 7929 O 756.196 1.39569 1.65377 0
M  V30 7930 C 756.791 3.17889 -1.17183 0
M  V30 7931 C 755.35 3.65052 -0.917267 0
M  V30 7932 C 754.497 2.44124 -1.31525 0
M  V30 7933 H 757.448 1.11342 -1.13087 0
M  V30 7934 H 757.469 3.76768 -0.531616 0
M  V30 7935 H 756.981 3.16052 -2.25239 0
M  V30 7936 H 755.082 3.72305 0.148354 0
M  V30 7937 H 755.195 4.53222 -1.55328 0
M  V30 7938 H 753.559 2.43906 -0.733624 0
M  V30 7939 H 754.342 2.44979 -2.405 0
M  V30 7940 N 756.787 0.722489 1.40064 0
M  V30 7941 C 757.75 0.0830209 2.2905 0
M  V30 7942 C 758.75 -0.680208 1.45705 0
M  V30 7943 O 759.94 -0.511084 1.66534 0
M  V30 7944 C 757.072 -0.892092 3.29021 0
M  V30 7945 H 758.265 0.866848 2.87099 0
M  V30 7946 H 755.818 0.487556 1.48501 0
M  V30 7947 H 756.553 -1.70273 2.76003 0
M  V30 7948 H 756.338 -0.34761 3.90556 0
M  V30 7949 H 757.828 -1.33648 3.95636 0
M  V30 7950 N 758.265 -1.50454 0.469181 0
M  V30 7951 C 759.213 -2.30101 -0.340033 0
M  V30 7952 C 760.207 -1.37306 -0.992135 0
M  V30 7953 O 761.413 -1.54506 -0.923458 0
M  V30 7954 H 757.788 -0.740941 -0.128495 0
M  V30 7955 H 759.759 -2.96315 0.352144 0
M  V30 7956 C 758.508 -3.17804 -1.41052 0
M  V30 7957 H 757.831 -3.89115 -0.918124 0
M  V30 7958 H 759.271 -3.76533 -1.94934 0
M  V30 7959 C 757.73 -2.35272 -2.4114 0
M  V30 7960 O 758.26 -2.03448 -3.4637 0
M  V30 7961 N 756.466 -1.97889 -2.1281 0
M  V30 7962 H 756.013 -2.2397 -1.27261 0
M  V30 7963 H 755.971 -1.42971 -2.80012 0
M  V30 7964 N 759.743 -0.201713 -1.56304 0
M  V30 7965 C 760.693 0.729444 -2.16016 0
M  V30 7966 C 761.677 1.17164 -1.10279 0
M  V30 7967 O 762.869 1.12893 -1.36324 0
M  V30 7968 C 759.998 1.94594 -2.82822 0
M  V30 7969 C 759.084 1.52434 -3.95758 0
M  V30 7970 N 759.475 0.814106 -4.99205 0
M  V30 7971 C 757.773 1.81314 -4.07481 0
M  V30 7972 C 758.474 0.601896 -5.78578 0
M  V30 7973 N 757.45 1.15263 -5.3124 0
M  V30 7974 H 761.252 0.178163 -2.93359 0
M  V30 7975 H 758.766 -0.00218038 -1.624 0
M  V30 7976 H 760.763 2.62357 -3.23998 0
M  V30 7977 H 759.423 2.50188 -2.06969 0
M  V30 7978 H 760.434 0.468872 -5.15773 0
M  V30 7979 H 757.111 2.3837 -3.42762 0
M  V30 7980 H 758.501 0.0380119 -6.71889 0
M  V30 7981 N 761.222 1.57436 0.0718424 0
M  V30 7982 C 762.185 2.02703 1.06977 0
M  V30 7983 C 763.185 0.924062 1.31597 0
M  V30 7984 O 764.375 1.18894 1.27318 0
M  V30 7985 C 761.507 2.40763 2.41342 0
M  V30 7986 H 762.7 2.92098 0.679619 0
M  V30 7987 H 760.253 1.5304 0.317565 0
M  V30 7988 H 760.988 1.54394 2.8519 0
M  V30 7989 H 760.773 3.21249 2.24814 0
M  V30 7990 H 762.263 2.76361 3.13073 0
M  V30 7991 N 762.7 -0.34323 1.53817 0
M  V30 7992 C 764.111 -0.918823 1.62525 0
M  V30 7993 C 764.462 -1.89542 0.506765 0
M  V30 7994 O 763.587 -2.13326 -0.363441 0
M  V30 7995 C 764.182 -1.67326 2.94597 0
M  V30 7996 C 762.741 -2.19786 3.05567 0
M  V30 7997 C 761.888 -1.01708 2.57974 0
M  V30 7998 H 764.839 -0.121358 1.58235 0
M  V30 7999 H 764.86 -2.53615 2.83654 0
M  V30 8000 H 764.372 -0.962223 3.75983 0
M  V30 8001 H 762.473 -2.94065 2.28816 0
M  V30 8002 H 762.586 -2.46135 4.1104 0
M  V30 8003 H 760.95 -1.39058 2.13389 0
M  V30 8004 H 761.733 -0.320671 3.41799 0
M  V30 8005 N 764.178 -1.45556 -0.604258 0
M  V30 8006 C 765.108 -1.57327 -1.72541 0
M  V30 8007 C 766.089 -0.424637 -1.64714 0
M  V30 8008 O 767.274 -0.648196 -1.83063 0
M  V30 8009 C 764.404 -1.54279 -3.11152 0
M  V30 8010 C 763.358 -2.67893 -3.33792 0
M  V30 8011 C 762.684 -2.499 -4.72709 0
M  V30 8012 C 763.984 -4.0988 -3.23722 0
M  V30 8013 H 765.678 -2.51175 -1.62947 0
M  V30 8014 H 763.224 -1.20884 -0.782504 0
M  V30 8015 H 765.177 -1.6111 -3.89386 0
M  V30 8016 H 763.901 -0.569627 -3.21594 0
M  V30 8017 H 762.56 -2.60495 -2.57949 0
M  V30 8018 H 762.208 -1.50715 -4.79889 0
M  V30 8019 H 761.908 -3.26091 -4.88813 0
M  V30 8020 H 763.432 -2.5859 -5.5314 0
M  V30 8021 H 764.846 -4.18503 -3.91826 0
M  V30 8022 H 763.243 -4.86487 -3.51355 0
M  V30 8023 H 764.313 -4.31553 -2.21111 0
M  V30 8024 N 765.656 0.84705 -1.32902 0
M  V30 8025 C 766.588 1.96308 -1.18304 0
M  V30 8026 C 767.601 1.62386 -0.116082 0
M  V30 8027 O 768.79 1.74713 -0.365751 0
M  V30 8028 C 765.89 3.29556 -0.790305 0
M  V30 8029 C 765.063 3.91668 -1.94717 0
M  V30 8030 C 764.122 5.0326 -1.53674 0
M  V30 8031 O 763.148 5.22847 -2.24989 0
M  V30 8032 N 764.35 5.78852 -0.437075 0
M  V30 8033 H 767.115 2.09369 -2.14441 0
M  V30 8034 H 764.676 1.02233 -1.25539 0
M  V30 8035 H 766.668 4.01624 -0.49799 0
M  V30 8036 H 765.238 3.12497 0.0801286 0
M  V30 8037 H 764.458 3.12292 -2.40557 0
M  V30 8038 H 765.746 4.299 -2.72146 0
M  V30 8039 H 765.144 5.65484 0.156316 0
M  V30 8040 H 763.701 6.51479 -0.204399 0
M  V30 8041 N 767.134 1.16236 1.06428 0
M  V30 8042 C 768.044 0.881976 2.1739 0
M  V30 8043 C 769.06 -0.145259 1.73393 0
M  V30 8044 O 770.236 0.0310558 2.01376 0
M  V30 8045 C 767.301 0.385496 3.4455 0
M  V30 8046 C 766.362 1.47779 4.03063 0
M  V30 8047 C 765.595 1.0049 5.24154 0
M  V30 8048 O 765.818 -0.145889 5.70213 0
M  V30 8049 O 764.752 1.79265 5.74585 0
M  V30 8050 H 768.578 1.80983 2.43883 0
M  V30 8051 H 766.163 0.942226 1.15942 0
M  V30 8052 H 768.045 0.115536 4.21242 0
M  V30 8053 H 766.72 -0.514369 3.19587 0
M  V30 8054 H 765.627 1.80147 3.27869 0
M  V30 8055 H 766.96 2.35291 4.32318 0
M  V30 8056 N 768.612 -1.24939 0.960631 0
M  V30 8057 C 769.575 -2.239 0.49006 0
M  V30 8058 C 770.575 -1.55497 -0.409535 0
M  V30 8059 O 771.765 -1.72978 -0.205984 0
M  V30 8060 C 768.897 -3.39654 -0.291193 0
M  V30 8061 H 770.09 -2.67044 1.36482 0
M  V30 8062 H 767.643 -1.37429 0.744505 0
M  V30 8063 H 768.378 -3.01939 -1.18336 0
M  V30 8064 H 768.163 -3.90496 0.354276 0
M  V30 8065 H 769.653 -4.13125 -0.609693 0
M  V30 8066 N 770.09 -0.729906 -1.39679 0
M  V30 8067 C 771.053 -0.0951668 -2.29002 0
M  V30 8068 C 772.053 0.672471 -1.46063 0
M  V30 8069 O 773.243 0.502245 -1.66803 0
M  V30 8070 C 770.375 0.874631 -3.29489 0
M  V30 8071 H 771.568 -0.882062 -2.86635 0
M  V30 8072 H 769.121 -0.495424 -1.4824 0
M  V30 8073 H 769.856 1.68807 -2.76902 0
M  V30 8074 H 769.641 0.326893 -3.90735 0
M  V30 8075 H 771.131 1.31548 -3.96339 0
M  V30 8076 N 771.568 1.50203 -0.477153 0
M  V30 8077 C 772.814 2.02658 0.0758507 0
M  V30 8078 C 773.147 1.358 1.38824 0
M  V30 8079 O 772.422 0.485696 1.88338 0
M  V30 8080 C 772.705 3.59208 0.253339 0
M  V30 8081 C 772.558 4.36629 -1.0805 0
M  V30 8082 C 773.877 4.28469 1.00509 0
M  V30 8083 H 770.996 0.736538 0.0260921 0
M  V30 8084 H 773.638 1.79464 -0.623925 0
M  V30 8085 H 771.788 3.79101 0.849378 0
M  V30 8086 H 773.46 4.28292 -1.71358 0
M  V30 8087 H 771.703 4.0013 -1.67566 0
M  V30 8088 H 772.374 5.44449 -0.909883 0
M  V30 8089 H 774.85 4.13087 0.499818 0
M  V30 8090 H 773.726 5.37804 1.09808 0
M  V30 8091 H 773.987 3.92057 2.04314 0
M  V30 8092 N 773.046 0.209999 1.56195 0
M  V30 8093 C 774.295 -0.425106 1.97169 0
M  V30 8094 C 774.608 -1.61718 1.10031 0
M  V30 8095 O 775.814 -2.32105 1.40853 0
M  V30 8096 C 774.27 -0.80771 3.50719 0
M  V30 8097 C 773.878 0.360902 4.46544 0
M  V30 8098 C 775.622 -1.40906 4.00432 0
M  V30 8099 C 773.529 -0.0434919 5.91384 0
M  V30 8100 H 772.459 -0.162598 0.736259 0
M  V30 8101 H 775.11 0.304382 1.80958 0
M  V30 8102 H 773.492 -1.59429 3.62489 0
M  V30 8103 H 774.666 1.13846 4.46515 0
M  V30 8104 H 772.981 0.874729 4.07109 0
M  V30 8105 H 775.578 -1.72433 5.06133 0
M  V30 8106 H 775.921 -2.32081 3.45607 0
M  V30 8107 H 776.454 -0.686154 3.91838 0
M  V30 8108 H 773.193 0.834448 6.50167 0
M  V30 8109 H 772.713 -0.785598 5.94633 0
M  V30 8110 H 774.392 -0.474176 6.4526 0
M  V30 8111 N 774.524 -1.57472 -0.0634922 0
M  V30 8112 C 775.935 -1.76303 -0.614337 0
M  V30 8113 C 776.286 -0.836578 -1.77471 0
M  V30 8114 O 775.411 -0.0227184 -2.16388 0
M  V30 8115 C 776.006 -3.19709 -1.12122 0
M  V30 8116 C 774.565 -3.39856 -1.61786 0
M  V30 8117 C 773.712 -2.71975 -0.540845 0
M  V30 8118 H 776.663 -1.57864 0.162702 0
M  V30 8119 H 776.684 -3.24326 -1.98979 0
M  V30 8120 H 776.196 -3.87114 -0.276472 0
M  V30 8121 H 774.297 -2.77578 -2.48558 0
M  V30 8122 H 774.41 -4.48338 -1.68908 0
M  V30 8123 H 772.774 -2.34763 -0.987854 0
M  V30 8124 H 773.557 -3.4204 0.293856 0
M  V30 8125 N 776.003 0.335068 -1.53997 0
M  V30 8126 C 777.419 0.678704 -1.4445 0
M  V30 8127 C 777.619 1.92106 -0.608078 0
M  V30 8128 O 776.675 2.52292 -0.102373 0
M  V30 8129 C 777.988 0.863435 -2.88037 0
M  V30 8130 C 779.536 0.961513 -2.97866 0
M  V30 8131 C 780.011 1.1785 -4.42578 0
M  V30 8132 N 781.502 1.2455 -4.46141 0
M  V30 8133 C 782.237 1.43106 -5.55255 0
M  V30 8134 N 781.733 1.5878 -6.74359 0
M  V30 8135 N 783.526 1.45722 -5.42883 0
M  V30 8136 H 775.677 -0.481656 -2.06867 0
M  V30 8137 H 777.94 -0.153615 -0.935471 0
M  V30 8138 H 777.646 0.0219511 -3.51693 0
M  V30 8139 H 777.52 1.76268 -3.33481 0
M  V30 8140 H 779.907 1.79351 -2.34344 0
M  V30 8141 H 779.988 0.0389862 -2.5577 0
M  V30 8142 H 779.632 0.351397 -5.06683 0
M  V30 8143 H 779.562 2.11472 -4.82273 0
M  V30 8144 H 782.053 1.13928 -3.60318 0
M  V30 8145 H 782.366 1.72599 -7.53279 0
M  V30 8146 H 780.711 1.559 -6.77289 0
M  V30 8147 H 783.902 1.33065 -4.48789 0
M  V30 8148 H 784.075 1.59841 -6.27977 0
M  V30 8149 N 777.481 1.45874 0.596531 0
M  V30 8150 C 778.411 1.5824 1.71705 0
M  V30 8151 C 779.392 0.433366 1.64487 0
M  V30 8152 O 780.577 0.657895 1.82717 0
M  V30 8153 C 777.707 1.55927 3.10329 0
M  V30 8154 C 776.661 2.69659 3.32367 0
M  V30 8155 C 775.987 2.52403 4.71377 0
M  V30 8156 C 777.287 4.11591 3.21544 0
M  V30 8157 H 778.981 2.52035 1.61613 0
M  V30 8158 H 776.527 1.21297 0.776082 0
M  V30 8159 H 778.48 1.63173 3.88526 0
M  V30 8160 H 777.204 0.586674 3.21288 0
M  V30 8161 H 775.863 2.61859 2.56564 0
M  V30 8162 H 775.511 1.53258 4.79083 0
M  V30 8163 H 775.211 3.28679 4.87077 0
M  V30 8164 H 776.735 2.6152 5.5176 0
M  V30 8165 H 778.149 4.20576 3.89601 0
M  V30 8166 H 776.546 4.88344 3.4877 0
M  V30 8167 H 777.616 4.32719 2.1882 0
M  V30 8168 N 778.959 -0.83999 1.33349 0
M  V30 8169 C 780.205 -1.59753 1.24927 0
M  V30 8170 C 780.538 -1.93318 -0.184855 0
M  V30 8171 O 779.813 -1.586 -1.12589 0
M  V30 8172 C 780.096 -2.90829 2.12345 0
M  V30 8173 C 779.949 -2.63953 3.6421 0
M  V30 8174 C 781.268 -3.92246 1.99577 0
M  V30 8175 H 778.387 -0.579654 0.45516 0
M  V30 8176 H 781.029 -0.968909 1.63439 0
M  V30 8177 H 779.179 -3.44478 1.79631 0
M  V30 8178 H 780.851 -2.16745 4.07209 0
M  V30 8179 H 779.094 -1.97671 3.86146 0
M  V30 8180 H 779.765 -3.57348 4.20721 0
M  V30 8181 H 782.241 -3.479 2.28265 0
M  V30 8182 H 781.117 -4.81793 2.62996 0
M  V30 8183 H 781.378 -4.3138 0.967673 0
M  V30 8184 N 780.437 -1.16799 -1.0581 0
M  V30 8185 C 781.369 -0.836774 -2.13379 0
M  V30 8186 C 782.382 0.158116 -1.6203 0
M  V30 8187 O 783.571 -0.0673211 -1.78373 0
M  V30 8188 C 780.671 -0.225959 -3.38146 0
M  V30 8189 C 779.844 -1.26217 -4.18794 0
M  V30 8190 C 778.903 -0.670257 -5.21914 0
M  V30 8191 O 777.929 -1.34042 -5.53192 0
M  V30 8192 N 779.131 0.540683 -5.77977 0
M  V30 8193 H 781.896 -1.76257 -2.42391 0
M  V30 8194 H 779.457 -1.06599 -1.21853 0
M  V30 8195 H 781.449 0.18317 -4.04285 0
M  V30 8196 H 780.019 0.603494 -3.06719 0
M  V30 8197 H 779.239 -1.84729 -3.48237 0
M  V30 8198 H 780.527 -1.9613 -4.69479 0
M  V30 8199 H 779.925 1.10322 -5.54838 0
M  V30 8200 H 778.482 0.891958 -6.45668 0
M  V30 8201 N 781.915 1.24427 -0.967243 0
M  V30 8202 C 782.845 2.2773 -0.515899 0
M  V30 8203 C 783.826 1.64197 0.444227 0
M  V30 8204 O 785.011 1.91193 0.340451 0
M  V30 8205 C 782.141 3.46751 0.195149 0
M  V30 8206 C 781.095 4.22548 -0.680953 0
M  V30 8207 C 780.421 5.34456 0.161561 0
M  V30 8208 C 781.721 4.83914 -1.96532 0
M  V30 8209 H 783.415 2.65735 -1.37933 0
M  V30 8210 H 780.961 1.27742 -0.664681 0
M  V30 8211 H 782.914 4.18153 0.522117 0
M  V30 8212 H 781.638 3.07771 1.09292 0
M  V30 8213 H 780.297 3.52946 -0.991186 0
M  V30 8214 H 779.945 4.91716 1.05947 0
M  V30 8215 H 779.645 5.86087 -0.421418 0
M  V30 8216 H 781.169 6.08685 0.483211 0
M  V30 8217 H 782.583 5.47392 -1.70396 0
M  V30 8218 H 780.98 5.45775 -2.49499 0
M  V30 8219 H 782.05 4.05393 -2.66053 0
M  V30 8220 N 783.393 0.737304 1.3929 0
M  V30 8221 C 784.323 0.113988 2.33222 0
M  V30 8222 C 785.304 -0.721695 1.54031 0
M  V30 8223 O 786.489 -0.666206 1.82415 0
M  V30 8224 C 783.619 -0.792319 3.38141 0
M  V30 8225 C 782.573 -0.0606178 4.27957 0
M  V30 8226 C 781.899 -1.08409 5.23595 0
M  V30 8227 C 783.199 1.09817 5.10625 0
M  V30 8228 H 784.893 0.898611 2.85596 0
M  V30 8229 H 782.439 0.433571 1.37318 0
M  V30 8230 H 784.392 -1.23793 4.02807 0
M  V30 8231 H 783.116 -1.60908 2.84211 0
M  V30 8232 H 781.775 0.365393 3.64775 0
M  V30 8233 H 781.423 -1.89449 4.6596 0
M  V30 8234 H 781.123 -0.599269 5.84536 0
M  V30 8235 H 782.647 -1.52936 5.91137 0
M  V30 8236 H 784.061 0.730892 5.68622 0
M  V30 8237 H 782.458 1.51278 5.80719 0
M  V30 8238 H 783.528 1.91878 4.45321 0
M  V30 8239 N 784.871 -1.49948 0.485112 0
M  V30 8240 C 786.117 -2.02695 -0.0651022 0
M  V30 8241 C 786.45 -1.36534 -1.38102 0
M  V30 8242 O 785.725 -0.495677 -1.88078 0
M  V30 8243 C 786.008 -3.59337 -0.234285 0
M  V30 8244 C 785.861 -4.3605 1.10364 0
M  V30 8245 C 787.18 -4.28996 -0.982351 0
M  V30 8246 H 784.299 -0.736666 -0.0221856 0
M  V30 8247 H 786.941 -1.7913 0.633433 0
M  V30 8248 H 785.091 -3.79546 -0.829262 0
M  V30 8249 H 786.763 -4.27377 1.73627 0
M  V30 8250 H 785.006 -3.99236 1.69686 0
M  V30 8251 H 785.677 -5.43959 0.938743 0
M  V30 8252 H 788.153 -4.13346 -0.477904 0
M  V30 8253 H 787.029 -5.38379 -1.06955 0
M  V30 8254 H 787.29 -3.93135 -2.02231 0
M  V30 8255 N 786.349 -0.21828 -1.56081 0
M  V30 8256 C 787.296 0.693189 -2.20144 0
M  V30 8257 C 788.266 1.19274 -1.15598 0
M  V30 8258 O 789.451 1.25243 -1.4394 0
M  V30 8259 C 786.591 1.89715 -2.88275 0
M  V30 8260 C 785.704 1.4368 -4.07407 0
M  V30 8261 C 784.839 2.59807 -4.63329 0
M  V30 8262 C 783.878 2.10492 -5.74769 0
M  V30 8263 N 783.015 3.1988 -6.24997 0
M  V30 8264 H 787.855 0.14016 -2.9767 0
M  V30 8265 H 785.392 0.0574292 -1.46988 0
M  V30 8266 H 787.35 2.60398 -3.25958 0
M  V30 8267 H 785.98 2.42311 -2.13273 0
M  V30 8268 H 785.032 0.625007 -3.7523 0
M  V30 8269 H 786.344 1.03517 -4.8794 0
M  V30 8270 H 785.498 3.38577 -5.03438 0
M  V30 8271 H 784.237 3.03256 -3.81951 0
M  V30 8272 H 783.242 1.30182 -5.34165 0
M  V30 8273 H 784.467 1.68045 -6.5798 0
M  V30 8274 H 782.413 3.62817 -5.46534 0
M  V30 8275 H 782.33 2.83958 -7.00645 0
M  V30 8276 H 783.598 3.98796 -6.69763 0
M  V30 8277 N 787.827 1.57504 0.0551401 0
M  V30 8278 C 788.79 2.03826 1.04821 0
M  V30 8279 C 789.79 0.937968 1.30609 0
M  V30 8280 O 790.98 1.20237 1.2605 0
M  V30 8281 C 788.112 2.43309 2.38775 0
M  V30 8282 H 789.305 2.92802 0.6486 0
M  V30 8283 H 786.858 1.53368 0.301315 0
M  V30 8284 H 787.593 1.5741 2.83536 0
M  V30 8285 H 787.378 3.23615 2.21395 0
M  V30 8286 H 788.868 2.79666 3.10124 0
M  V30 8287 N 789.305 -0.326896 1.54172 0
M  V30 8288 C 790.255 -1.40319 1.79707 0
M  V30 8289 C 791.239 -1.47056 0.652938 0
M  V30 8290 O 792.431 -1.51645 0.91284 0
M  V30 8291 C 789.56 -2.77222 2.02491 0
M  V30 8292 C 788.646 -2.74811 3.23016 0
M  V30 8293 N 789.037 -2.42022 4.44138 0
M  V30 8294 C 787.335 -3.05943 3.24522 0
M  V30 8295 C 788.036 -2.48263 5.26061 0
M  V30 8296 N 787.012 -2.84567 4.63166 0
M  V30 8297 H 790.814 -1.13892 2.70935 0
M  V30 8298 H 788.328 -0.53536 1.53322 0
M  V30 8299 H 790.325 -3.54793 2.18923 0
M  V30 8300 H 788.985 -3.04582 1.12515 0
M  V30 8301 H 789.996 -2.14926 4.71197 0
M  V30 8302 H 786.673 -3.38367 2.44569 0
M  V30 8303 H 788.063 -2.2593 6.32776 0
M  V30 8304 N 790.784 -1.46188 -0.588786 0
M  V30 8305 C 791.716 -1.52319 -1.71265 0
M  V30 8306 C 792.729 -0.412096 -1.57498 0
M  V30 8307 O 793.918 -0.680146 -1.65034 0
M  V30 8308 C 791.018 -1.38164 -3.09458 0
M  V30 8309 C 790.191 -2.63284 -3.49286 0
M  V30 8310 C 789.25 -2.43415 -4.66514 0
M  V30 8311 O 788.276 -3.17113 -4.72682 0
M  V30 8312 N 789.478 -1.49187 -5.61002 0
M  V30 8313 H 792.243 -2.49219 -1.66463 0
M  V30 8314 H 789.804 -1.42167 -0.774601 0
M  V30 8315 H 791.796 -1.22653 -3.85666 0
M  V30 8316 H 790.366 -0.494678 -3.08661 0
M  V30 8317 H 789.586 -2.93779 -2.62845 0
M  V30 8318 H 790.874 -3.46413 -3.7266 0
M  V30 8319 H 790.272 -0.884027 -5.5875 0
M  V30 8320 H 788.829 -1.39642 -6.36666 0
M  V30 8321 N 792.262 0.832906 -1.33792 0
M  V30 8322 C 793.539 1.57359 -1.16178 0
M  V30 8323 C 793.919 2.09372 0.269532 0
M  V30 8324 O 793.267 1.89993 1.26944 0
M  V30 8325 C 793.477 2.70279 -2.20795 0
M  V30 8326 C 794.825 3.39305 -2.55259 0
M  V30 8327 O 795.849 2.80526 -2.19508 0
M  V30 8328 O 794.708 4.45428 -3.16632 0
M  V30 8329 H 791.802 0.694025 -0.449731 0
M  V30 8330 H 794.348 0.875144 -1.45394 0
M  V30 8331 H 793.12 2.29527 -3.16911 0
M  V30 8332 H 792.743 3.47782 -1.927 0
M  V30 8333 N 793.74 1.17359 1.05189 0
M  V30 8334 C 794.703 0.892604 2.11105 0
M  V30 8335 C 795.703 -0.117236 1.60372 0
M  V30 8336 O 796.893 0.114936 1.7382 0
M  V30 8337 C 794.025 0.337032 3.3923 0
M  V30 8338 H 795.218 1.83169 2.37464 0
M  V30 8339 H 792.771 0.984051 1.21434 0
M  V30 8340 H 793.506 -0.609198 3.18527 0
M  V30 8341 H 793.291 1.06484 3.77364 0
M  V30 8342 H 794.781 0.158763 4.17298 0
M  V30 8343 N 795.218 -1.23913 0.973828 0
M  V30 8344 C 796.15 -2.24397 0.466763 0
M  V30 8345 C 797.163 -1.57078 -0.427828 0
M  V30 8346 O 798.352 -1.76973 -0.233019 0
M  V30 8347 C 795.452 -3.37141 -0.344798 0
M  V30 8348 C 794.625 -4.34037 0.541349 0
M  V30 8349 C 793.684 -5.2576 -0.215243 0
M  V30 8350 O 792.71 -5.67842 0.39291 0
M  V30 8351 N 793.912 -5.60702 -1.5031 0
M  V30 8352 H 796.677 -2.68536 1.33074 0
M  V30 8353 H 794.238 -1.38017 0.846346 0
M  V30 8354 H 796.23 -3.95476 -0.859133 0
M  V30 8355 H 794.8 -2.92239 -1.10974 0
M  V30 8356 H 794.02 -3.74302 1.23659 0
M  V30 8357 H 795.308 -4.95738 1.1455 0
M  V30 8358 H 794.706 -5.28451 -2.01882 0
M  V30 8359 H 793.263 -6.21538 -1.96301 0
M  V30 8360 N 796.696 -0.74468 -1.38897 0
M  V30 8361 C 798.112 -0.421302 -1.53939 0
M  V30 8362 C 798.312 1.06668 -1.70951 0
M  V30 8363 O 797.368 1.85278 -1.71547 0
M  V30 8364 C 798.681 -1.21278 -2.75159 0
M  V30 8365 C 800.229 -1.20196 -2.89001 0
M  V30 8366 C 800.704 -1.97621 -4.13171 0
M  V30 8367 N 802.195 -1.94836 -4.2023 0
M  V30 8368 C 802.93 -2.51545 -5.15279 0
M  V30 8369 N 802.426 -3.1693 -6.16058 0
M  V30 8370 N 804.219 -2.41524 -5.07565 0
M  V30 8371 H 796.37 -1.70914 -1.26103 0
M  V30 8372 H 798.633 -0.724058 -0.611919 0
M  V30 8373 H 798.339 -2.26609 -2.68963 0
M  V30 8374 H 798.213 -0.823677 -3.68097 0
M  V30 8375 H 800.6 -0.156742 -2.94683 0
M  V30 8376 H 800.681 -1.63051 -1.97099 0
M  V30 8377 H 800.325 -3.02149 -4.0825 0
M  V30 8378 H 800.255 -1.52166 -5.04136 0
M  V30 8379 H 802.746 -1.4721 -3.48048 0
M  V30 8380 H 803.059 -3.57644 -6.85062 0
M  V30 8381 H 801.404 -3.21023 -6.16417 0
M  V30 8382 H 804.595 -1.90077 -4.27771 0
M  V30 8383 H 804.768 -2.86016 -5.81462 0
M  V30 8384 N 798.174 1.49689 -0.493057 0
M  V30 8385 C 799.124 2.25901 0.308682 0
M  V30 8386 C 800.108 1.30408 0.94247 0
M  V30 8387 O 801.3 1.55179 0.851384 0
M  V30 8388 C 798.429 3.14463 1.37725 0
M  V30 8389 C 797.515 4.17414 0.7501 0
M  V30 8390 N 797.906 5.05599 -0.142597 0
M  V30 8391 C 796.204 4.34377 1.01159 0
M  V30 8392 C 796.905 5.7954 -0.500782 0
M  V30 8393 N 795.881 5.43446 0.129386 0
M  V30 8394 H 799.683 2.91451 -0.378652 0
M  V30 8395 H 797.197 1.59441 -0.308614 0
M  V30 8396 H 799.194 3.67687 1.965 0
M  V30 8397 H 797.854 2.50464 2.06635 0
M  V30 8398 H 798.865 5.15354 -0.512894 0
M  V30 8399 H 795.542 3.81588 1.69402 0
M  V30 8400 H 796.932 6.60534 -1.23063 0
M  V30 8401 N 799.652 0.226554 1.55963 0
M  V30 8402 C 800.898 -0.404387 1.98727 0
M  V30 8403 C 801.231 -1.59059 1.11418 0
M  V30 8404 O 800.506 -1.93729 0.172971 0
M  V30 8405 C 800.789 -0.834081 3.50307 0
M  V30 8406 C 800.642 0.356104 4.48388 0
M  V30 8407 C 801.961 -1.68845 4.06423 0
M  V30 8408 H 799.08 -0.145515 0.722492 0
M  V30 8409 H 801.722 0.323791 1.87221 0
M  V30 8410 H 799.872 -1.45454 3.60244 0
M  V30 8411 H 801.544 0.99432 4.50456 0
M  V30 8412 H 799.787 1.0027 4.22053 0
M  V30 8413 H 800.458 0.0124333 5.51999 0
M  V30 8414 H 802.934 -1.16489 3.99461 0
M  V30 8415 H 801.81 -1.958 5.1279 0
M  V30 8416 H 802.071 -2.65347 3.53615 0
M  V30 8417 N 801.13 -1.57531 -0.0467866 0
M  V30 8418 C 802.093 -2.04379 -1.03738 0
M  V30 8419 C 803.093 -0.944881 -1.3011 0
M  V30 8420 O 804.283 -1.20904 -1.25411 0
M  V30 8421 C 801.415 -2.44572 -2.37482 0
M  V30 8422 H 802.608 -2.93142 -0.633063 0
M  V30 8423 H 800.161 -1.53526 -0.293177 0
M  V30 8424 H 800.896 -1.58911 -2.82697 0
M  V30 8425 H 800.681 -3.24785 -2.19675 0
M  V30 8426 H 802.171 -2.81307 -3.08636 0
M  V30 8427 N 802.608 0.318715 -1.54344 0
M  V30 8428 C 803.571 1.37545 -1.83342 0
M  V30 8429 C 804.571 1.445 -0.705444 0
M  V30 8430 O 805.761 1.44443 -0.973752 0
M  V30 8431 C 802.893 2.76225 -1.99781 0
M  V30 8432 H 804.086 1.13084 -2.77762 0
M  V30 8433 H 801.639 0.554457 -1.46135 0
M  V30 8434 H 802.374 3.05934 -1.07588 0
M  V30 8435 H 802.159 2.7257 -2.81865 0
M  V30 8436 H 803.649 3.52664 -2.23647 0
M  V30 8437 N 804.086 1.46499 0.581025 0
M  V30 8438 C 805.334 1.51596 1.33653 0
M  V30 8439 C 805.655 0.169859 1.94259 0
M  V30 8440 O 804.925 -0.803776 1.78651 0
M  V30 8441 H 803.505 0.558346 0.496244 0
M  V30 8442 H 806.167 1.8264 0.680338 0
M  V30 8443 H 805.263 2.26956 2.14237 0
M  V30 8444 N 805.565 -0.825799 1.34232 0
M  V30 8445 C 806.793 -1.61363 1.29497 0
M  V30 8446 C 807.208 -1.88341 -0.131536 0
M  V30 8447 O 806.565 -1.47279 -1.07773 0
M  V30 8448 C 806.616 -2.95623 2.08061 0
M  V30 8449 O 806.337 -2.69824 3.45147 0
M  V30 8450 C 807.838 -3.90032 2.10688 0
M  V30 8451 H 805.058 -0.501676 0.445603 0
M  V30 8452 H 807.602 -1.02767 1.76803 0
M  V30 8453 H 805.757 -3.50785 1.64404 0
M  V30 8454 H 806.171 -3.55412 3.85723 0
M  V30 8455 H 807.645 -4.81411 2.70087 0
M  V30 8456 H 808.122 -4.25188 1.10052 0
M  V30 8457 H 808.728 -3.40807 2.54422 0
M  V30 8458 N 807.043 -1.17915 -1.04565 0
M  V30 8459 C 807.975 -0.859359 -2.1248 0
M  V30 8460 C 808.988 0.140922 -1.62189 0
M  V30 8461 O 810.177 -0.0862361 -1.78292 0
M  V30 8462 C 807.277 -0.261811 -3.37887 0
M  V30 8463 C 806.45 -1.30651 -4.17431 0
M  V30 8464 C 805.509 -0.725575 -5.21174 0
M  V30 8465 O 804.535 -1.39901 -5.51739 0
M  V30 8466 N 805.737 0.479351 -5.78517 0
M  V30 8467 H 808.502 -1.78818 -2.40508 0
M  V30 8468 H 806.063 -1.07885 -1.20716 0
M  V30 8469 H 808.055 0.14028 -4.04457 0
M  V30 8470 H 806.625 0.570929 -3.07342 0
M  V30 8471 H 805.845 -1.88412 -3.46258 0
M  V30 8472 H 807.133 -2.01099 -4.67372 0
M  V30 8473 H 806.531 1.04431 -5.55977 0
M  V30 8474 H 805.088 0.823427 -6.46578 0
M  V30 8475 N 808.521 1.23394 -0.980386 0
M  V30 8476 C 809.453 2.24146 -0.478657 0
M  V30 8477 C 810.466 1.57303 0.419492 0
M  V30 8478 O 811.655 1.77094 0.223631 0
M  V30 8479 C 808.755 3.3732 0.326913 0
M  V30 8480 C 807.928 4.33744 -0.56436 0
M  V30 8481 C 806.987 5.25866 0.187358 0
M  V30 8482 O 806.013 5.67626 -0.423019 0
M  V30 8483 N 807.215 5.61492 1.47335 0
M  V30 8484 H 809.98 2.67826 -1.34496 0
M  V30 8485 H 807.541 1.37566 -0.853653 0
M  V30 8486 H 809.533 3.95926 0.838148 0
M  V30 8487 H 808.103 2.92823 1.09422 0
M  V30 8488 H 807.323 3.73641 -1.25642 0
M  V30 8489 H 808.611 4.95123 -1.17177 0
M  V30 8490 H 808.009 5.29514 1.99077 0
M  V30 8491 H 806.566 6.2257 1.93002 0
M  V30 8492 N 809.999 0.752036 1.385 0
M  V30 8493 C 811.41 0.375385 1.82887 0
M  V30 8494 C 811.761 -1.09575 1.62751 0
M  V30 8495 O 810.886 -1.84685 1.12785 0
M  V30 8496 C 811.481 0.674563 3.32017 0
M  V30 8497 C 810.04 0.351208 3.74758 0
M  V30 8498 C 809.187 0.928531 2.61292 0
M  V30 8499 H 812.138 0.948313 1.27251 0
M  V30 8500 H 812.159 -0.0477781 3.8047 0
M  V30 8501 H 811.671 1.74533 3.46641 0
M  V30 8502 H 809.772 -0.713042 3.65714 0
M  V30 8503 H 809.885 0.845675 4.71577 0
M  V30 8504 H 808.249 0.354012 2.52228 0
M  V30 8505 H 809.032 2.0043 2.78716 0
M  V30 8506 N 811.477 -1.49425 0.500989 0
M  V30 8507 C 812.707 -2.06561 -0.0402858 0
M  V30 8508 C 813.115 -1.36157 -1.31369 0
M  V30 8509 O 812.458 -0.433618 -1.78509 0
M  V30 8510 C 812.52 -3.5765 -0.364269 0
M  V30 8511 C 812.184 -4.49739 0.811417 0
M  V30 8512 C 813.181 -4.91255 1.7019 0
M  V30 8513 C 810.866 -4.92036 1.01022 0
M  V30 8514 C 812.86 -5.73806 2.77534 0
M  V30 8515 C 810.547 -5.74364 2.08683 0
M  V30 8516 C 811.545 -6.15154 2.96774 0
M  V30 8517 O 811.233 -6.95836 4.02577 0
M  V30 8518 H 810.965 -0.67578 0.0172357 0
M  V30 8519 H 813.519 -1.93193 0.697553 0
M  V30 8520 H 811.749 -3.69026 -1.1557 0
M  V30 8521 H 813.438 -3.97025 -0.844156 0
M  V30 8522 H 814.204 -4.59222 1.56013 0
M  V30 8523 H 810.083 -4.59789 0.333929 0
M  V30 8524 H 813.627 -6.05564 3.4632 0
M  V30 8525 H 809.524 -6.0581 2.22855 0
M  V30 8526 H 810.292 -7.14142 3.9993 0
M  V30 8527 N 812.955 -0.234822 -1.55841 0
M  V30 8528 C 814.183 0.397745 -2.03041 0
M  V30 8529 C 814.598 1.52405 -1.11437 0
M  V30 8530 O 813.955 1.82061 -0.126466 0
M  V30 8531 C 814.006 0.916919 -3.49678 0
M  V30 8532 O 813.727 -0.164493 -4.37791 0
M  V30 8533 C 815.228 1.62139 -4.12584 0
M  V30 8534 H 812.448 0.0959214 -0.664108 0
M  V30 8535 H 814.992 -0.355156 -2.01392 0
M  V30 8536 H 813.147 1.62004 -3.519 0
M  V30 8537 H 813.561 0.227794 -5.24005 0
M  V30 8538 H 815.035 1.93651 -5.16917 0
M  V30 8539 H 815.512 2.53918 -3.58361 0
M  V30 8540 H 816.118 0.963145 -4.14251 0
M  V30 8541 N 814.433 1.57553 0.0384317 0
M  V30 8542 C 815.71 1.79977 0.766002 0
M  V30 8543 C 816.09 0.830625 1.94072 0
M  V30 8544 O 815.438 -0.129243 2.28134 0
M  V30 8545 C 815.648 3.27434 1.20781 0
M  V30 8546 C 816.996 3.92167 1.62758 0
M  V30 8547 O 818.02 3.31527 1.30263 0
M  V30 8548 O 816.879 4.98917 2.23035 0
M  V30 8549 H 813.973 0.739787 0.369654 0
M  V30 8550 H 816.519 1.69693 0.0159312 0
M  V30 8551 H 815.291 3.89558 0.368792 0
M  V30 8552 H 814.914 3.42571 2.01819 0
M  V30 8553 N 815.911 -0.310526 1.54511 0
M  V30 8554 C 817.159 -1.04484 1.72996 0
M  V30 8555 C 817.48 -1.88118 0.513479 0
M  V30 8556 O 816.75 -1.90119 -0.472384 0
M  V30 8557 H 815.33 -0.388747 0.637875 0
M  V30 8558 H 817.992 -0.343811 1.91844 0
M  V30 8559 H 817.088 -1.70341 2.61515 0
M  V30 8560 N 817.389 -1.46805 -0.573248 0
M  V30 8561 C 818.635 -1.5283 -1.33307 0
M  V30 8562 C 818.968 -0.183287 -1.93333 0
M  V30 8563 O 818.243 0.806354 -1.76998 0
M  V30 8564 C 818.526 -2.63414 -2.45531 0
M  V30 8565 C 818.379 -4.07478 -1.90478 0
M  V30 8566 C 819.698 -2.70014 -3.47535 0
M  V30 8567 H 816.817 -0.556371 -0.483343 0
M  V30 8568 H 819.459 -1.78787 -0.643066 0
M  V30 8569 H 817.609 -2.41412 -3.04389 0
M  V30 8570 H 819.281 -4.40795 -1.36004 0
M  V30 8571 H 817.524 -4.16511 -1.21248 0
M  V30 8572 H 818.195 -4.80598 -2.71531 0
M  V30 8573 H 820.671 -2.89817 -2.98572 0
M  V30 8574 H 819.547 -3.49192 -4.23504 0
M  V30 8575 H 819.808 -1.76436 -4.05367 0
M  V30 8576 N 818.867 0.818669 -1.34668 0
M  V30 8577 C 820.283 1.11243 -1.14443 0
M  V30 8578 C 820.483 2.01435 0.0512212 0
M  V30 8579 O 819.539 2.41854 0.725471 0
M  V30 8580 C 820.852 1.75504 -2.4417 0
M  V30 8581 C 822.4 1.8798 -2.50265 0
M  V30 8582 C 822.875 2.55657 -3.80004 0
M  V30 8583 N 824.366 2.63153 -3.81189 0
M  V30 8584 C 825.101 3.16258 -4.78298 0
M  V30 8585 N 824.597 3.69893 -5.85791 0
M  V30 8586 N 826.39 3.14698 -4.65748 0
M  V30 8587 H 818.541 0.218848 -2.1127 0
M  V30 8588 H 820.804 0.159655 -0.934459 0
M  V30 8589 H 820.51 1.16697 -3.31775 0
M  V30 8590 H 820.384 2.75329 -2.57825 0
M  V30 8591 H 822.771 2.45934 -1.63096 0
M  V30 8592 H 822.852 0.870447 -2.40535 0
M  V30 8593 H 822.496 1.98356 -4.67565 0
M  V30 8594 H 822.426 3.57105 -3.87019 0
M  V30 8595 H 824.917 2.2514 -3.03513 0
M  V30 8596 H 825.23 4.08678 -6.55898 0
M  V30 8597 H 823.575 3.68125 -5.89499 0
M  V30 8598 H 826.766 2.72066 -3.80917 0
M  V30 8599 H 826.939 3.5578 -5.41594 0
M  V30 8600 N 820.346 1.18468 1.03938 0
M  V30 8601 C 821.279 0.856251 2.11527 0
M  V30 8602 C 822.257 -0.182323 1.61575 0
M  V30 8603 O 823.441 -0.061 1.88401 0
M  V30 8604 C 820.568 0.279562 3.37544 0
M  V30 8605 C 819.614 1.29552 4.06348 0
M  V30 8606 S 820.447 2.85191 4.5324 0
M  V30 8607 C 821.603 2.29037 5.82489 0
M  V30 8608 H 821.836 1.76742 2.39059 0
M  V30 8609 H 819.369 1.01068 1.16725 0
M  V30 8610 H 821.327 -0.0466579 4.10473 0
M  V30 8611 H 819.988 -0.60975 3.08125 0
M  V30 8612 H 819.181 0.840922 4.96935 0
M  V30 8613 H 818.783 1.56804 3.39541 0
M  V30 8614 H 821.075 1.67376 6.565 0
M  V30 8615 H 822.018 3.17929 6.32714 0
M  V30 8616 H 822.426 1.72009 5.37655 0
M  V30 8617 N 821.824 -1.22873 0.986916 0
M  V30 8618 C 822.734 -2.28277 0.540978 0
M  V30 8619 C 823.75 -1.69164 -0.407363 0
M  V30 8620 O 824.926 -1.99504 -0.275674 0
M  V30 8621 C 821.991 -3.46404 -0.143181 0
M  V30 8622 C 821.052 -4.20854 0.847375 0
M  V30 8623 C 820.285 -5.33341 0.19577 0
M  V30 8624 O 820.508 -5.61356 -1.0117 0
M  V30 8625 O 819.442 -5.95169 0.897623 0
M  V30 8626 H 823.268 -2.68578 1.41773 0
M  V30 8627 H 820.853 -1.28927 0.754867 0
M  V30 8628 H 822.735 -4.18096 -0.526676 0
M  V30 8629 H 821.41 -3.08041 -0.994593 0
M  V30 8630 H 820.317 -3.51459 1.28169 0
M  V30 8631 H 821.65 -4.63082 1.6678 0
M  V30 8632 N 823.302 -0.75937 -1.38099 0
M  V30 8633 C 824.212 -0.13774 -2.34195 0
M  V30 8634 C 825.228 0.693985 -1.59561 0
M  V30 8635 O 826.404 0.616792 -1.91723 0
M  V30 8636 C 823.469 0.740535 -3.38699 0
M  V30 8637 C 822.53 -0.106225 -4.29169 0
M  V30 8638 C 821.763 0.730225 -5.28681 0
M  V30 8639 O 821.986 1.96796 -5.35376 0
M  V30 8640 O 820.92 0.145969 -6.01723 0
M  V30 8641 H 824.746 -0.931512 -2.89061 0
M  V30 8642 H 822.331 -0.520345 -1.40046 0
M  V30 8643 H 824.213 1.24232 -4.02672 0
M  V30 8644 H 822.888 1.51271 -2.8618 0
M  V30 8645 H 821.795 -0.654088 -3.68337 0
M  V30 8646 H 823.128 -0.841186 -4.84959 0
M  V30 8647 N 824.78 1.49157 -0.508906 0
M  V30 8648 C 826.029 2.0167 0.0346854 0
M  V30 8649 C 826.342 1.39302 1.37311 0
M  V30 8650 O 827.548 1.83189 2.00385 0
M  V30 8651 C 826.004 3.59725 0.112261 0
M  V30 8652 C 825.612 4.31069 -1.21999 0
M  V30 8653 C 827.356 4.20155 0.605798 0
M  V30 8654 C 825.263 5.81001 -1.10415 0
M  V30 8655 H 824.193 0.753814 0.0167355 0
M  V30 8656 H 826.844 1.7162 -0.649518 0
M  V30 8657 H 825.226 3.86525 0.861087 0
M  V30 8658 H 826.4 4.15962 -1.98273 0
M  V30 8659 H 824.715 3.82418 -1.64759 0
M  V30 8660 H 827.312 5.29964 0.710102 0
M  V30 8661 H 827.655 3.84051 1.60656 0
M  V30 8662 H 828.188 3.97705 -0.0867239 0
M  V30 8663 H 824.927 6.21643 -2.07941 0
M  V30 8664 H 824.447 5.9858 -0.382428 0
M  V30 8665 H 826.126 6.42207 -0.786116 0
M  V30 8666 N 826.258 0.243083 1.55714 0
M  V30 8667 C 827.504 -0.383287 1.99145 0
M  V30 8668 C 827.837 -1.57868 1.13098 0
M  V30 8669 O 827.112 -1.93535 0.193509 0
M  V30 8670 C 827.395 -0.796879 3.51172 0
M  V30 8671 C 827.248 0.403642 4.47985 0
M  V30 8672 C 828.567 -1.64525 4.08191 0
M  V30 8673 H 825.686 -0.137843 0.723995 0
M  V30 8674 H 828.328 0.343631 1.86867 0
M  V30 8675 H 826.478 -1.41625 3.61766 0
M  V30 8676 H 828.15 1.04204 4.49376 0
M  V30 8677 H 826.393 1.04741 4.20965 0
M  V30 8678 H 827.064 0.0709794 5.51954 0
M  V30 8679 H 829.54 -1.12246 4.00674 0
M  V30 8680 H 828.416 -1.9035 5.14838 0
M  V30 8681 H 828.677 -2.61582 3.56409 0
M  V30 8682 N 827.736 -1.57571 -0.0300757 0
M  V30 8683 C 828.646 -2.09892 -1.04798 0
M  V30 8684 C 829.662 -1.03732 -1.39698 0
M  V30 8685 O 830.838 -1.35461 -1.49038 0
M  V30 8686 C 827.903 -2.56707 -2.33028 0
M  V30 8687 C 826.964 -3.77345 -2.04718 0
M  V30 8688 C 826.197 -4.21918 -3.26834 0
M  V30 8689 O 826.42 -3.66025 -4.37472 0
M  V30 8690 O 825.354 -5.14362 -3.12594 0
M  V30 8691 H 829.18 -2.97023 -0.633344 0
M  V30 8692 H 826.765 -1.47344 -0.246991 0
M  V30 8693 H 828.647 -2.87154 -3.08417 0
M  V30 8694 H 827.322 -1.72688 -2.73789 0
M  V30 8695 H 826.229 -3.51919 -1.26901 0
M  V30 8696 H 827.562 -4.62345 -1.68813 0
M  V30 8697 N 829.214 0.302327 -1.54673 0
M  V30 8698 C 830.462 1.03565 -1.73547 0
M  V30 8699 C 830.783 1.87843 -0.523448 0
M  V30 8700 O 830.053 1.90367 0.462295 0
M  V30 8701 H 828.633 0.385358 -0.639928 0
M  V30 8702 H 831.295 0.333632 -1.92023 0
M  V30 8703 H 830.391 1.68952 -2.62415 0
M  V30 8704 N 830.692 1.47107 0.565454 0
M  V30 8705 C 831.932 1.5488 1.33385 0
M  V30 8706 C 832.296 0.202804 1.90926 0
M  V30 8707 O 833.497 0.155345 2.68351 0
M  V30 8708 C 831.768 2.62969 2.42037 0
M  V30 8709 S 833.327 2.90269 3.29074 0
M  V30 8710 H 830.145 0.547008 0.454206 0
M  V30 8711 H 832.747 1.8444 0.648228 0
M  V30 8712 H 831.451 3.59376 1.98185 0
M  V30 8713 H 830.982 2.35197 3.15351 0
M  V30 8714 H 832.997 2.26854 4.41307 0
M  V30 8715 N 832.17 -0.811516 1.35101 0
M  V30 8716 C 833.398 -1.59981 1.31201 0
M  V30 8717 C 833.813 -1.8847 -0.111552 0
M  V30 8718 O 833.17 -1.48414 -1.06205 0
M  V30 8719 C 833.221 -2.934 2.11184 0
M  V30 8720 O 832.942 -2.66148 3.4799 0
M  V30 8721 C 834.443 -3.87776 2.14813 0
M  V30 8722 H 831.663 -0.496921 0.450899 0
M  V30 8723 H 834.207 -1.00886 1.77883 0
M  V30 8724 H 832.362 -3.49022 1.68115 0
M  V30 8725 H 832.776 -3.51301 3.89471 0
M  V30 8726 H 834.25 -4.7852 2.75178 0
M  V30 8727 H 834.727 -4.23997 1.14556 0
M  V30 8728 H 835.333 -3.3809 2.58022 0
M  V30 8729 N 833.648 -1.19017 -1.03309 0
M  V30 8730 C 834.896 -0.988258 -1.76289 0
M  V30 8731 C 835.217 0.482557 -1.88935 0
M  V30 8732 O 834.487 1.34969 -1.41987 0
M  V30 8733 H 833.067 -0.36267 -0.653054 0
M  V30 8734 H 835.729 -1.49836 -1.2464 0
M  V30 8735 H 834.825 -1.43273 -2.77271 0
M  V30 8736 N 835.127 1.22348 -0.993418 0
M  V30 8737 C 836.09 2.22522 -0.549251 0
M  V30 8738 C 837.09 1.56529 0.368164 0
M  V30 8739 O 838.28 1.73463 0.16005 0
M  V30 8740 C 835.412 3.40307 0.201037 0
M  V30 8741 H 836.605 2.63332 -1.43515 0
M  V30 8742 H 834.158 1.35407 -0.78068 0
M  V30 8743 H 834.893 3.0497 1.10289 0
M  V30 8744 H 834.678 3.8942 -0.457685 0
M  V30 8745 H 836.168 4.14597 0.499946 0
M  V30 8746 N 836.605 0.766683 1.37694 0
M  V30 8747 C 837.535 0.163432 2.32927 0
M  V30 8748 C 838.516 -0.688861 1.55527 0
M  V30 8749 O 839.701 -0.627363 1.83787 0
M  V30 8750 C 836.831 -0.720416 3.39746 0
M  V30 8751 C 835.785 0.0301718 4.27989 0
M  V30 8752 C 835.111 -0.972788 5.25776 0
M  V30 8753 C 836.411 1.20623 5.0818 0
M  V30 8754 H 838.105 0.958988 2.83626 0
M  V30 8755 H 835.651 0.462601 1.36367 0
M  V30 8756 H 837.604 -1.15221 4.05342 0
M  V30 8757 H 836.328 -1.54844 2.8756 0
M  V30 8758 H 834.987 0.442685 3.63917 0
M  V30 8759 H 834.635 -1.79522 4.69873 0
M  V30 8760 H 834.335 -0.475145 5.85676 0
M  V30 8761 H 835.859 -1.40362 5.94248 0
M  V30 8762 H 837.273 0.851341 5.66944 0
M  V30 8763 H 835.67 1.63561 5.7738 0
M  V30 8764 H 836.74 2.01281 4.41151 0
M  V30 8765 N 838.083 -1.48885 0.516809 0
M  V30 8766 C 839.033 -2.26363 -0.272704 0
M  V30 8767 C 840.017 -1.31891 -0.921604 0
M  V30 8768 O 841.209 -1.56514 -0.826589 0
M  V30 8769 C 838.338 -3.16614 -1.32705 0
M  V30 8770 C 837.424 -4.18554 -0.683598 0
M  V30 8771 N 837.815 -5.05308 0.223015 0
M  V30 8772 C 836.113 -4.35931 -0.942351 0
M  V30 8773 C 836.814 -5.7867 0.592918 0
M  V30 8774 N 835.79 -5.43583 -0.042912 0
M  V30 8775 H 839.592 -2.90811 0.424971 0
M  V30 8776 H 837.106 -1.5893 0.333941 0
M  V30 8777 H 839.103 -3.70766 -1.90625 0
M  V30 8778 H 837.763 -2.5372 -2.02624 0
M  V30 8779 H 838.774 -5.14473 0.594818 0
M  V30 8780 H 835.451 -3.84234 -1.6331 0
M  V30 8781 H 836.841 -6.58493 1.33556 0
M  V30 8782 N 839.561 -0.251338 -1.55583 0
M  V30 8783 C 840.81 0.372681 -1.98227 0
M  V30 8784 C 841.123 1.58743 -1.1428 0
M  V30 8785 O 842.329 2.28289 -1.46957 0
M  V30 8786 C 840.785 0.714439 -3.52738 0
M  V30 8787 C 840.393 -0.479168 -4.4543 0
M  V30 8788 C 842.137 1.3024 -4.04027 0
M  V30 8789 C 840.044 -0.113318 -5.91291 0
M  V30 8790 H 838.974 0.14302 -0.740312 0
M  V30 8791 H 841.625 -0.352253 -1.80087 0
M  V30 8792 H 840.007 1.49762 -3.66589 0
M  V30 8793 H 841.181 -1.25644 -4.4334 0
M  V30 8794 H 839.496 -0.982359 -4.04646 0
M  V30 8795 H 842.093 1.58953 -5.10527 0
M  V30 8796 H 842.436 2.22837 -3.51638 0
M  V30 8797 H 842.969 0.582024 -3.93519 0
M  V30 8798 H 839.708 -1.00654 -6.47726 0
M  V30 8799 H 839.228 0.627666 -5.96507 0
M  V30 8800 H 840.907 0.30293 -6.4629 0
M  V30 8801 N 841.039 1.57585 0.0217189 0
M  V30 8802 C 841.969 2.10073 1.01939 0
M  V30 8803 C 842.95 1.0049 1.37243 0
M  V30 8804 O 844.135 1.28055 1.45999 0
M  V30 8805 C 841.265 2.58618 2.31806 0
M  V30 8806 C 840.219 3.72531 2.10724 0
M  V30 8807 C 839.545 4.07309 3.46415 0
M  V30 8808 C 840.845 5.00672 1.48743 0
M  V30 8809 H 842.539 2.9368 0.582432 0
M  V30 8810 H 840.085 1.41277 0.278715 0
M  V30 8811 H 842.038 2.9396 3.01936 0
M  V30 8812 H 840.762 1.72104 2.77575 0
M  V30 8813 H 839.421 3.37549 1.43025 0
M  V30 8814 H 839.069 3.17851 3.89846 0
M  V30 8815 H 838.769 4.84042 3.33132 0
M  V30 8816 H 840.293 4.45192 4.17895 0
M  V30 8817 H 841.707 5.33925 2.088 0
M  V30 8818 H 840.104 5.82065 1.46013 0
M  V30 8819 H 841.174 4.82769 0.45408 0
M  V30 8820 N 842.517 -0.29412 1.54831 0
M  V30 8821 C 843.48 -1.3461 1.85507 0
M  V30 8822 C 844.48 -1.43359 0.728343 0
M  V30 8823 O 845.67 -1.42875 0.996609 0
M  V30 8824 C 842.802 -2.73012 2.0415 0
M  V30 8825 H 843.995 -1.08651 2.79526 0
M  V30 8826 H 841.548 -0.531138 1.46999 0
M  V30 8827 H 842.283 -3.04183 1.12441 0
M  V30 8828 H 842.068 -2.68051 2.86166 0
M  V30 8829 H 843.558 -3.49061 2.29229 0
M  V30 8830 N 843.995 -1.47404 -0.557645 0
M  V30 8831 C 845.411 -1.32913 -0.88353 0
M  V30 8832 C 845.611 -0.31929 -1.98954 0
M  V30 8833 O 844.667 0.26934 -2.51059 0
M  V30 8834 C 845.98 -2.72229 -1.27718 0
M  V30 8835 C 847.528 -2.8051 -1.38863 0
M  V30 8836 C 848.003 -4.20466 -1.81583 0
M  V30 8837 N 849.494 -4.23005 -1.88735 0
M  V30 8838 C 850.229 -5.2821 -2.23118 0
M  V30 8839 N 849.725 -6.4372 -2.56117 0
M  V30 8840 N 851.518 -5.15588 -2.23888 0
M  V30 8841 H 843.669 -2.11698 0.172557 0
M  V30 8842 H 845.932 -0.947889 0.0145334 0
M  V30 8843 H 845.638 -3.47556 -0.538329 0
M  V30 8844 H 845.512 -3.03971 -2.23342 0
M  V30 8845 H 847.899 -2.05457 -2.11829 0
M  V30 8846 H 847.98 -2.52423 -0.414274 0
M  V30 8847 H 847.624 -4.96025 -1.09187 0
M  V30 8848 H 847.554 -4.45977 -2.80021 0
M  V30 8849 H 850.045 -3.39674 -1.65621 0
M  V30 8850 H 850.358 -7.19754 -2.81378 0
M  V30 8851 H 848.703 -6.47041 -2.53698 0
M  V30 8852 H 851.894 -4.24374 -1.97546 0
M  V30 8853 H 852.067 -5.97685 -2.50353 0
M  V30 8854 N 845.473 0.80434 -1.35529 0
M  V30 8855 C 846.75 1.5486 -1.1949 0
M  V30 8856 C 847.13 2.09897 0.22506 0
M  V30 8857 O 846.478 1.92643 1.22886 0
M  V30 8858 C 846.688 2.65535 -2.26478 0
M  V30 8859 C 848.036 3.33814 -2.62399 0
M  V30 8860 O 849.06 2.75807 -2.25409 0
M  V30 8861 O 847.919 4.38612 -3.26009 0
M  V30 8862 H 845.013 0.68433 -0.464351 0
M  V30 8863 H 847.559 0.844107 -1.47217 0
M  V30 8864 H 846.331 2.22754 -3.21709 0
M  V30 8865 H 845.954 3.43617 -2.00033 0
M  V30 8866 N 846.951 1.19563 1.02676 0
M  V30 8867 C 848.362 1.00158 1.57561 0
M  V30 8868 C 848.713 -0.444922 1.91089 0
M  V30 8869 O 847.838 -1.32466 1.71119 0
M  V30 8870 C 848.433 1.81181 2.86284 0
M  V30 8871 C 846.992 1.66171 3.37734 0
M  V30 8872 C 846.139 1.7975 2.11152 0
M  V30 8873 H 849.09 1.33904 0.85179 0
M  V30 8874 H 849.111 1.30916 3.57269 0
M  V30 8875 H 848.623 2.86454 2.6185 0
M  V30 8876 H 846.724 0.634927 3.6715 0
M  V30 8877 H 846.837 2.46832 4.10622 0
M  V30 8878 H 845.201 1.22833 2.23123 0
M  V30 8879 H 845.984 2.86487 1.89157 0
M  V30 8880 N 848.429 -1.21819 0.999893 0
M  V30 8881 C 849.362 -2.22635 0.500887 0
M  V30 8882 C 850.34 -1.56459 -0.442636 0
M  V30 8883 O 851.524 -1.84902 -0.366551 0
M  V30 8884 C 848.651 -3.37598 -0.273046 0
M  V30 8885 C 847.697 -4.22006 0.617511 0
M  V30 8886 S 848.53 -4.93583 2.07693 0
M  V30 8887 C 849.686 -6.1198 1.31269 0
M  V30 8888 H 849.919 -2.64618 1.35516 0
M  V30 8889 H 847.452 -1.31606 0.807419 0
M  V30 8890 H 849.41 -4.04251 -0.713515 0
M  V30 8891 H 848.071 -2.94108 -1.10268 0
M  V30 8892 H 847.264 -5.03995 0.0216543 0
M  V30 8893 H 846.866 -3.6052 0.99504 0
M  V30 8894 H 849.158 -6.74979 0.583933 0
M  V30 8895 H 850.101 -6.75991 2.10811 0
M  V30 8896 H 850.509 -5.5847 0.822901 0
M  V30 8897 N 849.908 -0.773975 -1.37286 0
M  V30 8898 C 850.856 -0.149581 -2.32119 0
M  V30 8899 C 851.85 0.682457 -1.55045 0
M  V30 8900 O 853.056 0.579269 -1.70424 0
M  V30 8901 H 849.431 -0.0295857 -0.751418 0
M  V30 8902 H 851.402 -0.965117 -2.82362 0
M  V30 8903 C 850.151 0.713409 -3.40302 0
M  V30 8904 H 849.474 0.0825416 -3.99715 0
M  V30 8905 H 850.914 1.11723 -4.09016 0
M  V30 8906 C 849.373 1.86498 -2.80571 0
M  V30 8907 O 849.903 2.9606 -2.71498 0
M  V30 8908 N 848.109 1.66629 -2.38082 0
M  V30 8909 H 847.656 0.775145 -2.45661 0
M  V30 8910 H 847.614 2.43845 -1.98461 0
M  V30 8911 N 851.386 1.48609 -0.524698 0
M  V30 8912 C 852.802 1.58557 -0.182199 0
M  V30 8913 C 853.002 1.52732 1.31435 0
M  V30 8914 O 852.058 1.41362 2.0922 0
M  V30 8915 C 853.371 2.90406 -0.78004 0
M  V30 8916 C 854.919 3.03924 -0.748293 0
M  V30 8917 C 855.394 4.38427 -1.32462 0
M  V30 8918 N 856.885 4.4498 -1.28635 0
M  V30 8919 C 857.62 5.47551 -1.70223 0
M  V30 8920 N 857.116 6.57103 -2.19515 0
M  V30 8921 N 858.909 5.38402 -1.61493 0
M  V30 8922 H 851.06 1.50638 -1.4974 0
M  V30 8923 H 853.323 0.714952 -0.622533 0
M  V30 8924 H 853.029 3.00308 -1.83052 0
M  V30 8925 H 852.903 3.76343 -0.254075 0
M  V30 8926 H 855.29 2.93638 0.293407 0
M  V30 8927 H 855.371 2.19611 -1.31167 0
M  V30 8928 H 855.015 4.49466 -2.36522 0
M  V30 8929 H 854.945 5.21418 -0.736967 0
M  V30 8930 H 857.436 3.66393 -0.92545 0
M  V30 8931 H 857.749 7.31499 -2.49257 0
M  V30 8932 H 856.094 6.58081 -2.23506 0
M  V30 8933 H 859.285 4.5171 -1.22785 0
M  V30 8934 H 859.458 6.18208 -1.94225 0
M  V30 8935 N 852.864 0.259585 1.55447 0
M  V30 8936 C 853.797 -0.675542 2.17972 0
M  V30 8937 C 854.775 -1.16362 1.13572 0
M  V30 8938 O 855.959 -1.23944 1.42021 0
M  V30 8939 C 853.086 -1.91952 2.79056 0
M  V30 8940 C 852.132 -1.56824 3.96621 0
M  V30 8941 S 852.965 -0.659846 5.31419 0
M  V30 8942 C 854.121 -1.91255 5.95963 0
M  V30 8943 H 854.354 -0.144236 2.9695 0
M  V30 8944 H 851.887 0.0439448 1.54337 0
M  V30 8945 H 853.845 -2.63362 3.14882 0
M  V30 8946 H 852.506 -2.42196 2 0
M  V30 8947 H 851.699 -2.49348 4.37997 0
M  V30 8948 H 851.301 -0.934472 3.62138 0
M  V30 8949 H 853.593 -2.85834 6.14252 0
M  V30 8950 H 854.536 -1.54207 6.91105 0
M  V30 8951 H 854.944 -2.07042 5.25161 0
M  V30 8952 N 854.342 -1.57594 -0.0133615 0
M  V30 8953 C 855.252 -2.10991 -1.02566 0
M  V30 8954 C 856.268 -1.05208 -1.3859 0
M  V30 8955 O 857.444 -1.37034 -1.47593 0
M  V30 8956 C 854.509 -2.59165 -2.30292 0
M  V30 8957 C 853.57 -3.79495 -2.00704 0
M  V30 8958 C 852.803 -4.25361 -3.22341 0
M  V30 8959 O 853.026 -3.70645 -4.33565 0
M  V30 8960 O 851.96 -5.17649 -3.07121 0
M  V30 8961 H 855.786 -2.97678 -0.601806 0
M  V30 8962 H 853.371 -1.47598 -0.23135 0
M  V30 8963 H 855.253 -2.90409 -3.05354 0
M  V30 8964 H 853.928 -1.75582 -2.71942 0
M  V30 8965 H 852.835 -3.53245 -1.23161 0
M  V30 8966 H 854.168 -4.64109 -1.639 0
M  V30 8967 N 855.82 0.285905 -1.54985 0
M  V30 8968 C 857.069 1.01691 -1.74189 0
M  V30 8969 C 857.382 1.87908 -0.543135 0
M  V30 8970 O 858.588 2.64389 -0.617305 0
M  V30 8971 C 857.044 1.85785 -3.0824 0
M  V30 8972 C 856.652 1.04497 -4.35642 0
M  V30 8973 C 858.396 2.58393 -3.36798 0
M  V30 8974 C 856.303 1.87955 -5.60738 0
M  V30 8975 H 855.233 0.383396 -0.649248 0
M  V30 8976 H 857.884 0.27317 -1.81455 0
M  V30 8977 H 856.266 2.64205 -2.94978 0
M  V30 8978 H 857.44 0.305847 -4.59784 0
M  V30 8979 H 855.755 0.434023 -4.14132 0
M  V30 8980 H 858.352 3.21214 -4.27464 0
M  V30 8981 H 858.695 3.28011 -2.56349 0
M  V30 8982 H 859.228 1.87012 -3.511 0
M  V30 8983 H 855.967 1.22781 -6.43898 0
M  V30 8984 H 855.487 2.59499 -5.40759 0
M  V30 8985 H 857.166 2.45636 -5.98558 0
M  V30 8986 N 857.298 1.47698 0.54982 0
M  V30 8987 C 858.545 1.54702 1.30665 0
M  V30 8988 C 858.873 0.212418 1.93337 0
M  V30 8989 O 858.128 -0.79543 1.78805 0
M  V30 8990 C 858.427 2.61903 2.4319 0
M  V30 8991 C 858.093 4.04953 1.98302 0
M  V30 8992 C 856.755 4.43893 1.85776 0
M  V30 8993 C 859.107 4.94682 1.64133 0
M  V30 8994 C 856.435 5.70387 1.37388 0
M  V30 8995 C 858.787 6.21646 1.17214 0
M  V30 8996 C 857.451 6.5946 1.0329 0
M  V30 8997 H 856.721 0.566096 0.478139 0
M  V30 8998 H 859.368 1.8133 0.615767 0
M  V30 8999 H 857.673 2.2906 3.17866 0
M  V30 9000 H 859.37 2.64543 3.0136 0
M  V30 9001 H 855.96 3.74191 2.08995 0
M  V30 9002 H 860.144 4.65291 1.72679 0
M  V30 9003 H 855.4 5.98427 1.25278 0
M  V30 9004 H 859.574 6.90581 0.898391 0
M  V30 9005 H 857.201 7.57367 0.655735 0
M  V30 9006 N 858.776 -0.797141 1.35954 0
M  V30 9007 C 860.192 -1.09408 1.16198 0
M  V30 9008 C 860.392 -2.01491 -0.0191682 0
M  V30 9009 O 859.448 -2.42977 -0.686902 0
M  V30 9010 C 860.761 -1.71597 2.46931 0
M  V30 9011 C 862.309 -1.83974 2.53224 0
M  V30 9012 C 862.784 -2.49579 3.84024 0
M  V30 9013 N 864.275 -2.57055 3.85327 0
M  V30 9014 C 865.01 -3.08608 4.83268 0
M  V30 9015 N 864.506 -3.60527 5.91601 0
M  V30 9016 N 866.299 -3.07249 4.70696 0
M  V30 9017 H 858.45 -0.185209 2.11591 0
M  V30 9018 H 860.713 -0.144768 0.936881 0
M  V30 9019 H 860.419 -1.11404 3.3359 0
M  V30 9020 H 860.293 -2.71193 2.62172 0
M  V30 9021 H 862.68 -2.43308 1.66988 0
M  V30 9022 H 862.761 -0.83207 2.41889 0
M  V30 9023 H 862.405 -1.90892 4.70662 0
M  V30 9024 H 862.335 -3.50902 3.92651 0
M  V30 9025 H 864.826 -2.20283 3.07057 0
M  V30 9026 H 865.139 -3.98192 6.62317 0
M  V30 9027 H 863.484 -3.587 5.95281 0
M  V30 9028 H 866.675 -2.65972 3.85197 0
M  V30 9029 H 866.848 -3.47119 5.47186 0
M  V30 9030 N 860.254 -1.20106 -1.0204 0
M  V30 9031 C 861.184 -0.970301 -2.12385 0
M  V30 9032 C 862.165 0.099378 -1.69809 0
M  V30 9033 O 863.35 -0.057365 -1.94115 0
M  V30 9034 C 860.48 -0.517431 -3.43424 0
M  V30 9035 C 859.434 -1.52992 -3.99722 0
M  V30 9036 C 858.76 -0.933817 -5.26483 0
M  V30 9037 C 860.06 -2.91257 -4.33551 0
M  V30 9038 H 861.754 -1.89316 -2.31948 0
M  V30 9039 H 859.3 -0.911655 -1.11467 0
M  V30 9040 H 861.253 -0.343243 -4.2 0
M  V30 9041 H 859.977 0.441049 -3.23608 0
M  V30 9042 H 858.636 -1.6914 -3.2525 0
M  V30 9043 H 858.284 0.0324763 -5.0299 0
M  V30 9044 H 857.984 -1.60999 -5.65113 0
M  V30 9045 H 859.508 -0.770614 -6.05718 0
M  V30 9046 H 860.922 -2.78642 -5.0103 0
M  V30 9047 H 859.319 -3.55745 -4.83286 0
M  V30 9048 H 860.389 -3.43269 -3.42483 0
M  V30 9049 N 861.732 1.21287 -1.00634 0
M  V30 9050 C 862.68 2.25733 -0.561026 0
M  V30 9051 C 863.674 1.64728 0.395095 0
M  V30 9052 O 864.88 1.78022 0.266141 0
M  V30 9053 H 861.255 0.734104 -0.163081 0
M  V30 9054 H 863.226 2.60631 -1.45307 0
M  V30 9055 C 861.975 3.47569 0.0952587 0
M  V30 9056 H 861.298 3.94782 -0.631427 0
M  V30 9057 H 862.738 4.22382 0.370105 0
M  V30 9058 C 861.197 3.09326 1.33488 0
M  V30 9059 O 861.727 3.19933 2.42912 0
M  V30 9060 N 859.933 2.63976 1.21512 0
M  V30 9061 H 859.48 2.55545 0.324741 0
M  V30 9062 H 859.438 2.38757 2.04555 0
M  V30 9063 N 863.21 0.781244 1.36873 0
M  V30 9064 C 864.438 0.361566 2.03716 0
M  V30 9065 C 864.853 -1.01937 1.58916 0
M  V30 9066 O 864.21 -1.65237 0.774783 0
M  V30 9067 C 864.261 0.406391 3.59208 0
M  V30 9068 O 863.982 1.73286 4.02372 0
M  V30 9069 C 865.483 -0.0236894 4.43294 0
M  V30 9070 H 862.703 0.150133 0.653988 0
M  V30 9071 H 865.247 1.05781 1.75016 0
M  V30 9072 H 863.402 -0.241364 3.86647 0
M  V30 9073 H 863.816 1.67804 4.96933 0
M  V30 9074 H 865.29 0.0588205 5.51969 0
M  V30 9075 H 865.767 -1.07529 4.25833 0
M  V30 9076 H 866.373 0.59624 4.211 0
M  V30 9077 N 864.689 -1.48329 0.532571 0
M  V30 9078 C 865.938 -2.017 -0.00259705 0
M  V30 9079 C 866.251 -1.41469 -1.35077 0
M  V30 9080 O 867.457 -1.86354 -1.97445 0
M  V30 9081 C 865.913 -3.59858 -0.0550179 0
M  V30 9082 C 865.521 -4.29073 1.28842 0
M  V30 9083 C 867.265 -4.21066 -0.538878 0
M  V30 9084 C 865.172 -5.79171 1.19644 0
M  V30 9085 H 864.102 -0.753985 -0.00474081 0
M  V30 9086 H 866.753 -1.70565 0.676739 0
M  V30 9087 H 865.135 -3.87846 -0.799486 0
M  V30 9088 H 866.309 -4.12755 2.04865 0
M  V30 9089 H 864.624 -3.79748 1.70822 0
M  V30 9090 H 867.221 -5.31026 -0.6257 0
M  V30 9091 H 867.564 -3.86559 -1.54525 0
M  V30 9092 H 868.097 -3.97517 0.149984 0
M  V30 9093 H 864.836 -6.18257 2.17805 0
M  V30 9094 H 864.356 -5.97895 0.477609 0
M  V30 9095 H 866.035 -6.40875 0.888186 0
M  V30 9096 N 866.167 -0.267825 -1.55308 0
M  V30 9097 C 867.578 0.231344 -1.85261 0
M  V30 9098 C 867.929 1.56006 -1.18982 0
M  V30 9099 O 867.054 2.1111 -0.475554 0
M  V30 9100 C 867.649 0.426537 -3.36104 0
M  V30 9101 C 866.208 0.869945 -3.66209 0
M  V30 9102 C 865.355 -0.0409522 -2.7727 0
M  V30 9103 H 868.306 -0.489821 -1.50952 0
M  V30 9104 H 868.327 1.26616 -3.58816 0
M  V30 9105 H 867.839 -0.540678 -3.84315 0
M  V30 9106 H 865.94 1.84889 -3.23492 0
M  V30 9107 H 866.053 0.712316 -4.73775 0
M  V30 9108 H 864.417 0.474097 -2.50249 0
M  V30 9109 H 865.2 -1.00392 -3.28293 0
M  V30 9110 N 867.645 1.57599 0.00500368 0
M  V30 9111 C 868.575 2.11143 0.99705 0
M  V30 9112 C 869.556 1.0194 1.3617 0
M  V30 9113 O 870.741 1.29596 1.44632 0
M  V30 9114 C 867.871 2.61062 2.2905 0
M  V30 9115 C 866.825 3.74745 2.0676 0
M  V30 9116 C 866.151 4.10961 3.42075 0
M  V30 9117 C 867.451 5.02222 1.43424 0
M  V30 9118 H 869.145 2.94281 0.551251 0
M  V30 9119 H 866.691 1.41565 0.263715 0
M  V30 9120 H 868.644 2.97146 2.98801 0
M  V30 9121 H 867.368 1.75038 2.75734 0
M  V30 9122 H 866.027 3.39047 1.39436 0
M  V30 9123 H 865.675 3.21968 3.86453 0
M  V30 9124 H 865.375 4.87549 3.27979 0
M  V30 9125 H 866.899 4.49599 4.1315 0
M  V30 9126 H 868.313 5.36109 2.03125 0
M  V30 9127 H 866.71 5.83581 1.39831 0
M  V30 9128 H 867.78 4.83224 0.40285 0
M  V30 9129 N 869.123 -0.277682 1.55134 0
M  V30 9130 C 870.37 -1.0099 1.7552 0
M  V30 9131 C 870.698 -1.86452 0.553712 0
M  V30 9132 O 869.953 -1.90122 -0.463896 0
M  V30 9133 C 870.252 -1.92599 3.01065 0
M  V30 9134 C 869.918 -1.22926 4.3382 0
M  V30 9135 C 868.58 -1.03659 4.69902 0
M  V30 9136 C 870.932 -0.733071 5.16019 0
M  V30 9137 C 868.26 -0.334933 5.85743 0
M  V30 9138 C 870.612 -0.0450319 6.32584 0
M  V30 9139 C 869.276 0.159393 6.6731 0
M  V30 9140 H 868.546 -0.36955 0.642273 0
M  V30 9141 H 871.193 -0.282611 1.89403 0
M  V30 9142 H 869.498 -2.71934 2.82062 0
M  V30 9143 H 871.195 -2.49367 3.14034 0
M  V30 9144 H 867.785 -1.38933 4.05457 0
M  V30 9145 H 871.969 -0.869565 4.88623 0
M  V30 9146 H 867.225 -0.165783 6.11175 0
M  V30 9147 H 871.399 0.34723 6.95534 0
M  V30 9148 H 869.026 0.70507 7.56923 0
M  V30 9149 N 870.601 -1.47988 -0.541979 0
M  V30 9150 C 871.847 -1.55623 -1.30036 0
M  V30 9151 C 872.18 -0.224254 -1.92901 0
M  V30 9152 O 871.455 0.768629 -1.78668 0
M  V30 9153 C 871.738 -2.68562 -2.39888 0
M  V30 9154 C 871.591 -4.11426 -1.81792 0
M  V30 9155 C 872.91 -2.77325 -3.41729 0
M  V30 9156 H 870.029 -0.566498 -0.471433 0
M  V30 9157 H 872.671 -1.8011 -0.604998 0
M  V30 9158 H 870.821 -2.47814 -2.992 0
M  V30 9159 H 872.493 -4.43581 -1.26624 0
M  V30 9160 H 870.736 -4.18989 -1.12386 0
M  V30 9161 H 871.407 -4.8625 -2.61276 0
M  V30 9162 H 873.883 -2.96085 -2.92357 0
M  V30 9163 H 872.759 -3.58097 -4.16002 0
M  V30 9164 H 873.02 -1.84995 -4.01534 0
M  V30 9165 N 872.079 0.78992 -1.36375 0
M  V30 9166 C 873.011 1.91113 -1.26524 0
M  V30 9167 C 874.024 1.61747 -0.184851 0
M  V30 9168 O 875.213 1.73004 -0.439524 0
M  V30 9169 C 872.313 3.25908 -0.92937 0
M  V30 9170 C 871.486 3.83057 -2.11154 0
M  V30 9171 C 870.545 4.96289 -1.74881 0
M  V30 9172 O 869.571 5.12834 -2.46962 0
M  V30 9173 N 870.773 5.76478 -0.682193 0
M  V30 9174 H 873.538 2.00085 -2.23128 0
M  V30 9175 H 871.099 0.968165 -1.29762 0
M  V30 9176 H 873.091 3.99151 -0.667884 0
M  V30 9177 H 871.661 3.12556 -0.0524843 0
M  V30 9178 H 870.881 3.01808 -2.53586 0
M  V30 9179 H 872.169 4.1797 -2.90135 0
M  V30 9180 H 871.567 5.65638 -0.0836661 0
M  V30 9181 H 870.124 6.50026 -0.480529 0
M  V30 9182 N 873.557 1.20646 1.01402 0
M  V30 9183 C 874.487 0.98155 2.11867 0
M  V30 9184 C 875.468 -0.0903712 1.6986 0
M  V30 9185 O 876.653 0.0676586 1.94082 0
M  V30 9186 C 873.783 0.535636 3.43145 0
M  V30 9187 C 872.737 1.55109 3.98905 0
M  V30 9188 C 872.063 0.961725 5.2598 0
M  V30 9189 C 873.363 2.93552 4.32001 0
M  V30 9190 H 875.057 1.90544 2.3094 0
M  V30 9191 H 872.603 0.917554 1.10982 0
M  V30 9192 H 874.556 0.365512 4.19812 0
M  V30 9193 H 873.28 -0.423882 3.23838 0
M  V30 9194 H 871.939 1.70862 3.24348 0
M  V30 9195 H 871.587 -0.00580108 5.03 0
M  V30 9196 H 871.287 1.63993 5.64252 0
M  V30 9197 H 872.811 0.802726 6.053 0
M  V30 9198 H 874.225 2.81295 4.99546 0
M  V30 9199 H 872.622 3.58303 4.81393 0
M  V30 9200 H 873.692 3.4508 3.40658 0
M  V30 9201 N 875.035 -1.20752 1.01276 0
M  V30 9202 C 875.965 -2.25658 0.600064 0
M  V30 9203 C 876.946 -1.65733 -0.38298 0
M  V30 9204 O 878.131 -1.92324 -0.269256 0
M  V30 9205 C 875.261 -3.47237 -0.0663197 0
M  V30 9206 C 874.215 -4.1973 0.83731 0
M  V30 9207 C 873.541 -5.34687 0.0369102 0
M  V30 9208 C 874.841 -4.76286 2.14357 0
M  V30 9209 H 876.535 -2.60432 1.477 0
M  V30 9210 H 874.081 -1.25187 0.711634 0
M  V30 9211 H 876.034 -4.19803 -0.366563 0
M  V30 9212 H 874.758 -3.11615 -0.977944 0
M  V30 9213 H 873.417 -3.49024 1.1215 0
M  V30 9214 H 873.065 -4.95309 -0.876244 0
M  V30 9215 H 872.765 -5.84119 0.63865 0
M  V30 9216 H 874.289 -6.10059 -0.256968 0
M  V30 9217 H 875.703 -5.40691 1.90595 0
M  V30 9218 H 874.1 -5.36139 2.69583 0
M  V30 9219 H 875.17 -3.9524 2.80916 0
M  V30 9220 N 876.513 -0.788492 -1.36457 0
M  V30 9221 C 877.743 -0.371825 -2.03227 0
M  V30 9222 C 878.151 1.01627 -1.59589 0
M  V30 9223 O 877.494 1.663 -0.780382 0
M  V30 9224 C 877.556 -0.355179 -3.57741 0
M  V30 9225 C 877.22 -1.69069 -4.24576 0
M  V30 9226 C 878.217 -2.64601 -4.47529 0
M  V30 9227 C 875.902 -1.96973 -4.62068 0
M  V30 9228 C 877.896 -3.86232 -5.07054 0
M  V30 9229 C 875.583 -3.18872 -5.2131 0
M  V30 9230 C 876.581 -4.1332 -5.43742 0
M  V30 9231 O 876.269 -5.3307 -6.0174 0
M  V30 9232 H 876.001 -0.151452 -0.658816 0
M  V30 9233 H 878.555 -1.06827 -1.75434 0
M  V30 9234 H 876.785 0.397753 -3.84649 0
M  V30 9235 H 878.474 0.0366955 -4.05883 0
M  V30 9236 H 879.24 -2.44329 -4.18961 0
M  V30 9237 H 875.119 -1.24277 -4.43933 0
M  V30 9238 H 878.663 -4.59965 -5.24478 0
M  V30 9239 H 874.56 -3.39022 -5.49304 0
M  V30 9240 H 875.328 -5.34121 -6.20207 0
M  V30 9241 N 877.991 1.48044 -0.54043 0
M  V30 9242 C 879.216 2.07396 -0.0124765 0
M  V30 9243 C 879.641 1.39288 1.26414 0
M  V30 9244 O 878.999 0.462252 1.75308 0
M  V30 9245 C 879.047 3.60131 0.18377 0
M  V30 9246 O 878.151 3.92995 1.25014 0
M  V30 9247 H 877.492 0.662554 -0.0438026 0
M  V30 9248 H 880.022 1.90306 -0.751327 0
M  V30 9249 H 880.032 4.06003 0.403197 0
M  V30 9250 H 878.707 4.09105 -0.74874 0
M  V30 9251 H 877.284 3.5889 1.01254 0
M  V30 9252 N 879.47 0.276058 1.55163 0
M  V30 9253 C 880.695 -0.346648 2.04483 0
M  V30 9254 C 881.12 -1.48613 1.15308 0
M  V30 9255 O 880.478 -1.80663 0.151875 0
M  V30 9256 C 880.526 -0.804268 3.51517 0
M  V30 9257 O 879.63 -1.91143 3.65429 0
M  V30 9258 H 878.971 -0.0715251 0.660136 0
M  V30 9259 H 881.501 0.410631 2.00437 0
M  V30 9260 H 881.511 -1.09977 3.92898 0
M  V30 9261 H 880.186 0.0294123 4.1589 0
M  V30 9262 H 878.763 -1.61839 3.3595 0
M  V30 9263 N 880.948 -1.576 0.00335426 0
M  V30 9264 C 882.194 -1.90996 -0.681799 0
M  V30 9265 C 882.527 -0.877643 -1.73237 0
M  V30 9266 O 881.802 0.103183 -1.94226 0
M  V30 9267 C 882.085 -3.34961 -1.32187 0
M  V30 9268 C 881.938 -4.48911 -0.28261 0
M  V30 9269 C 883.257 -3.78408 -2.24711 0
M  V30 9270 H 880.376 -0.694596 -0.246386 0
M  V30 9271 H 883.018 -1.89919 0.055336 0
M  V30 9272 H 881.168 -3.36008 -1.95014 0
M  V30 9273 H 882.84 -4.59999 0.346241 0
M  V30 9274 H 881.083 -4.32 0.394768 0
M  V30 9275 H 881.754 -5.46609 -0.769576 0
M  V30 9276 H 884.23 -3.78934 -1.71897 0
M  V30 9277 H 883.106 -4.79885 -2.66461 0
M  V30 9278 H 883.367 -3.12464 -3.1276 0
M  V30 9279 N 882.426 0.269451 -1.5528 0
M  V30 9280 C 883.336 1.35511 -1.91505 0
M  V30 9281 C 884.352 1.53854 -0.812712 0
M  V30 9282 O 885.528 1.67912 -1.1121 0
M  V30 9283 C 882.593 2.6937 -2.18267 0
M  V30 9284 C 881.654 2.59743 -3.41807 0
M  V30 9285 C 880.887 3.87219 -3.67283 0
M  V30 9286 O 881.11 4.88066 -2.95208 0
M  V30 9287 O 880.044 3.87209 -4.60818 0
M  V30 9288 H 883.87 1.07785 -2.8393 0
M  V30 9289 H 881.455 0.468282 -1.41871 0
M  V30 9290 H 883.337 3.48513 -2.36889 0
M  V30 9291 H 882.012 2.96874 -1.29024 0
M  V30 9292 H 880.919 1.78964 -3.28516 0
M  V30 9293 H 882.252 2.37188 -4.3128 0
M  V30 9294 N 883.904 1.48273 0.534124 0
M  V30 9295 C 884.852 1.62926 1.66005 0
M  V30 9296 C 885.846 0.495814 1.61982 0
M  V30 9297 O 887.052 0.6744 1.66889 0
M  V30 9298 H 883.427 0.513163 0.549698 0
M  V30 9299 H 885.398 2.57498 1.50789 0
M  V30 9300 C 884.147 1.68231 3.04292 0
M  V30 9301 H 883.47 2.54807 3.0808 0
M  V30 9302 H 884.91 1.82528 3.827 0
M  V30 9303 C 883.369 0.420154 3.3427 0
M  V30 9304 O 883.899 -0.468769 3.98955 0
M  V30 9305 N 882.105 0.293115 2.89118 0
M  V30 9306 H 881.652 1.01745 2.36655 0
M  V30 9307 H 881.61 -0.550376 3.09545 0
M  V30 9308 N 885.382 -0.782676 1.36792 0
M  V30 9309 C 886.631 -1.53605 1.30723 0
M  V30 9310 C 886.944 -1.95294 -0.109296 0
M  V30 9311 O 888.15 -2.69921 -0.292398 0
M  V30 9312 C 886.606 -2.77321 2.29393 0
M  V30 9313 C 886.214 -2.42774 3.76517 0
M  V30 9314 C 887.958 -3.55289 2.32314 0
M  V30 9315 C 885.865 -3.62926 4.66947 0
M  V30 9316 H 884.795 -0.576646 0.485794 0
M  V30 9317 H 887.446 -0.858255 1.62192 0
M  V30 9318 H 885.828 -3.46934 1.90927 0
M  V30 9319 H 887.002 -1.81014 4.23758 0
M  V30 9320 H 885.317 -1.78002 3.76436 0
M  V30 9321 H 887.914 -4.44573 2.97083 0
M  V30 9322 H 888.257 -3.94361 1.3336 0
M  V30 9323 H 888.79 -2.92662 2.69432 0
M  V30 9324 H 885.529 -3.28944 5.66989 0
M  V30 9325 H 885.049 -4.23828 4.24418 0
M  V30 9326 H 886.728 -4.29873 4.83548 0
M  V30 9327 N 886.86 -1.21182 -1.00761 0
M  V30 9328 C 887.792 -0.926523 -2.09638 0
M  V30 9329 C 888.805 0.0892511 -1.62555 0
M  V30 9330 O 889.994 -0.142915 -1.77927 0
M  V30 9331 C 887.094 -0.369175 -3.36883 0
M  V30 9332 C 886.267 -1.43866 -4.13063 0
M  V30 9333 C 885.326 -0.891015 -5.18601 0
M  V30 9334 O 884.352 -1.57384 -5.47009 0
M  V30 9335 N 885.554 0.295057 -5.7975 0
M  V30 9336 H 888.319 -1.8638 -2.34697 0
M  V30 9337 H 885.88 -1.11671 -1.17223 0
M  V30 9338 H 887.872 0.011534 -4.04698 0
M  V30 9339 H 886.442 0.472861 -3.09003 0
M  V30 9340 H 885.662 -1.99332 -3.40089 0
M  V30 9341 H 886.95 -2.15866 -4.60738 0
M  V30 9342 H 886.348 0.8669 -5.59018 0
M  V30 9343 H 884.905 0.617306 -6.4887 0
M  V30 9344 N 888.338 1.20213 -1.01915 0
M  V30 9345 C 889.754 1.41696 -0.734459 0
M  V30 9346 C 889.954 1.89504 0.684867 0
M  V30 9347 O 889.01 2.06556 1.45227 0
M  V30 9348 C 890.323 2.43644 -1.76233 0
M  V30 9349 C 891.871 2.57406 -1.78076 0
M  V30 9350 C 892.346 3.626 -2.79796 0
M  V30 9351 N 893.837 3.70086 -2.78551 0
M  V30 9352 C 894.572 4.51145 -3.53915 0
M  V30 9353 N 894.068 5.35988 -4.38963 0
M  V30 9354 N 895.861 4.45702 -3.425 0
M  V30 9355 H 888.012 0.874976 -1.93541 0
M  V30 9356 H 890.275 0.446647 -0.836188 0
M  V30 9357 H 889.981 2.15519 -2.77929 0
M  V30 9358 H 889.855 3.42672 -1.57657 0
M  V30 9359 H 892.242 2.8486 -0.770634 0
M  V30 9360 H 892.323 1.58565 -2.00725 0
M  V30 9361 H 891.967 3.35889 -3.80973 0
M  V30 9362 H 891.897 4.61069 -2.54407 0
M  V30 9363 H 894.388 3.09484 -2.1686 0
M  V30 9364 H 894.701 5.94932 -4.9323 0
M  V30 9365 H 893.046 5.35482 -4.4304 0
M  V30 9366 H 896.237 3.78456 -2.75478 0
M  V30 9367 H 896.41 5.08637 -4.01487 0
M  V30 9368 N 889.816 0.795718 1.36037 0
M  V30 9369 C 891.062 0.371574 1.99367 0
M  V30 9370 C 891.395 -1.0557 1.62999 0
M  V30 9371 O 890.67 -1.73051 0.887895 0
M  V30 9372 C 890.953 0.542622 3.55988 0
M  V30 9373 C 890.806 2.01404 4.0219 0
M  V30 9374 C 892.125 -0.0384527 4.40083 0
M  V30 9375 H 889.244 0.136483 0.724252 0
M  V30 9376 H 891.886 1.00323 1.61355 0
M  V30 9377 H 890.036 0.0049053 3.885 0
M  V30 9378 H 891.708 2.6133 3.80137 0
M  V30 9379 H 889.951 2.51439 3.53498 0
M  V30 9380 H 890.622 2.08466 5.11122 0
M  V30 9381 H 893.098 0.420634 4.13968 0
M  V30 9382 H 891.974 0.111214 5.48787 0
M  V30 9383 H 892.235 -1.13116 4.27384 0
M  V30 9384 N 891.294 -1.47756 0.548274 0
M  V30 9385 C 892.257 -2.28379 -0.193857 0
M  V30 9386 C 893.257 -1.36436 -0.850986 0
M  V30 9387 O 894.447 -1.59154 -0.70822 0
M  V30 9388 C 891.579 -3.15858 -1.28243 0
M  V30 9389 H 892.772 -2.95458 0.514231 0
M  V30 9390 H 890.325 -1.53298 0.304879 0
M  V30 9391 H 891.06 -2.5345 -2.0232 0
M  V30 9392 H 890.845 -3.83512 -0.816148 0
M  V30 9393 H 892.335 -3.76627 -1.80393 0
M  V30 9394 N 892.772 -0.284283 -1.55015 0
M  V30 9395 C 893.735 0.586182 -2.21577 0
M  V30 9396 C 894.735 1.07427 -1.1965 0
M  V30 9397 O 895.925 0.972977 -1.44495 0
M  V30 9398 C 893.057 1.80973 -2.88897 0
M  V30 9399 H 894.25 0.00487253 -2.999 0
M  V30 9400 H 891.803 -0.0349696 -1.56261 0
M  V30 9401 H 892.538 2.43131 -2.14611 0
M  V30 9402 H 892.323 1.46757 -3.636 0
M  V30 9403 H 893.813 2.42853 -3.39724 0
M  V30 9404 N 894.251 1.57596 -0.0117121 0
M  V30 9405 C 895.499 1.90694 0.669342 0
M  V30 9406 C 895.82 0.886999 1.73659 0
M  V30 9407 O 895.09 -0.0739779 1.9576 0
M  V30 9408 H 893.67 0.703846 0.250219 0
M  V30 9409 H 896.332 1.94821 -0.0554057 0
M  V30 9410 H 895.428 2.90802 1.13316 0
M  V30 9411 N 895.729 -0.261212 1.5542 0
M  V30 9412 C 896.975 -0.992699 1.76843 0
M  V30 9413 C 897.308 -1.8551 0.574428 0
M  V30 9414 O 896.583 -1.89739 -0.427713 0
M  V30 9415 C 896.866 -1.86532 3.08022 0
M  V30 9416 C 896.719 -1.03206 4.378 0
M  V30 9417 C 898.038 -2.85036 3.35324 0
M  V30 9418 H 895.157 -0.359473 0.643388 0
M  V30 9419 H 897.799 -0.264214 1.88154 0
M  V30 9420 H 895.949 -2.48644 2.9851 0
M  V30 9421 H 897.621 -0.430743 4.59285 0
M  V30 9422 H 895.864 -0.335911 4.32497 0
M  V30 9423 H 896.535 -1.6761 5.25938 0
M  V30 9424 H 899.011 -2.3306 3.44706 0
M  V30 9425 H 897.887 -3.43226 4.28354 0
M  V30 9426 H 898.148 -3.60768 2.55537 0
M  V30 9427 N 897.207 -1.48554 -0.526253 0
M  V30 9428 C 898.137 -1.66252 -1.63959 0
M  V30 9429 C 899.118 -0.511351 -1.62232 0
M  V30 9430 O 900.303 -0.744322 -1.7937 0
M  V30 9431 C 897.433 -1.70556 -3.02536 0
M  V30 9432 C 896.387 -2.8521 -3.19123 0
M  V30 9433 C 895.713 -2.74606 -4.58798 0
M  V30 9434 C 897.013 -4.26463 -3.0154 0
M  V30 9435 H 898.707 -2.59459 -1.49404 0
M  V30 9436 H 896.253 -1.24862 -0.717326 0
M  V30 9437 H 898.206 -1.81524 -3.80298 0
M  V30 9438 H 896.93 -0.739297 -3.18123 0
M  V30 9439 H 895.589 -2.73802 -2.43779 0
M  V30 9440 H 895.237 -1.75941 -4.71226 0
M  V30 9441 H 894.937 -3.51544 -4.70841 0
M  V30 9442 H 896.461 -2.87548 -5.38655 0
M  V30 9443 H 897.875 -4.38685 -3.69091 0
M  V30 9444 H 896.272 -5.04428 -3.25073 0
M  V30 9445 H 897.342 -4.42667 -1.97925 0
M  V30 9446 N 898.685 0.775411 -1.37205 0
M  V30 9447 C 899.925 1.54689 -1.33606 0
M  V30 9448 C 900.289 1.91834 0.0798549 0
M  V30 9449 O 901.49 2.67722 0.240531 0
M  V30 9450 C 899.761 2.7804 -2.24563 0
M  V30 9451 S 901.32 3.68143 -2.38781 0
M  V30 9452 H 898.138 0.529631 -0.474355 0
M  V30 9453 H 900.74 0.912128 -1.72918 0
M  V30 9454 H 899.444 2.48825 -3.26365 0
M  V30 9455 H 898.975 3.46479 -1.86322 0
M  V30 9456 H 900.99 4.69843 -1.59568 0
M  V30 9457 N 900.163 1.21714 1.00117 0
M  V30 9458 C 901.073 0.99597 2.12409 0
M  V30 9459 C 902.089 -0.0531431 1.73919 0
M  V30 9460 O 903.265 0.137757 2.00928 0
M  V30 9461 C 900.33 0.567593 3.42022 0
M  V30 9462 C 899.391 1.68936 3.94663 0
M  V30 9463 C 898.624 1.28133 5.1809 0
M  V30 9464 O 898.847 0.156574 5.70185 0
M  V30 9465 O 897.781 2.0947 5.64275 0
M  V30 9466 H 901.607 1.93657 2.33946 0
M  V30 9467 H 899.192 1.00236 1.10784 0
M  V30 9468 H 901.074 0.338664 4.20037 0
M  V30 9469 H 899.749 -0.34424 3.21864 0
M  V30 9470 H 898.656 1.97274 3.17858 0
M  V30 9471 H 899.989 2.57876 4.19238 0
M  V30 9472 N 901.641 -1.19671 1.02551 0
M  V30 9473 C 902.571 -2.25009 0.623965 0
M  V30 9474 C 903.552 -1.66129 -0.36538 0
M  V30 9475 O 904.737 -1.92599 -0.248842 0
M  V30 9476 C 901.867 -3.47287 -0.0294869 0
M  V30 9477 C 900.821 -4.18818 0.881781 0
M  V30 9478 C 900.147 -5.34618 0.0936189 0
M  V30 9479 C 901.447 -4.73986 2.19396 0
M  V30 9480 H 903.141 -2.58851 1.50454 0
M  V30 9481 H 900.687 -1.24425 0.724872 0
M  V30 9482 H 902.64 -4.20168 -0.322016 0
M  V30 9483 H 901.364 -3.12635 -0.944838 0
M  V30 9484 H 900.023 -3.47815 1.15845 0
M  V30 9485 H 899.671 -4.9621 -0.823661 0
M  V30 9486 H 899.371 -5.83409 0.700568 0
M  V30 9487 H 900.895 -6.10297 -0.192249 0
M  V30 9488 H 902.309 -5.38639 1.96319 0
M  V30 9489 H 900.706 -5.3325 2.75254 0
M  V30 9490 H 901.776 -3.92238 2.85092 0
M  V30 9491 N 903.119 -0.802921 -1.35613 0
M  V30 9492 C 904.082 -0.216422 -2.28176 0
M  V30 9493 C 905.082 0.594101 -1.49422 0
M  V30 9494 O 906.272 0.41312 -1.6923 0
M  V30 9495 C 903.404 0.698746 -3.33662 0
M  V30 9496 H 904.597 -1.03276 -2.81557 0
M  V30 9497 H 902.15 -0.573307 -1.45406 0
M  V30 9498 H 902.885 1.53891 -2.85461 0
M  V30 9499 H 902.67 0.119314 -3.91918 0
M  V30 9500 H 904.16 1.10354 -4.02755 0
M  V30 9501 N 904.597 1.47463 -0.556102 0
M  V30 9502 C 905.529 2.28046 0.22968 0
M  V30 9503 C 906.542 1.3694 0.880409 0
M  V30 9504 O 907.731 1.61773 0.754447 0
M  V30 9505 C 904.831 3.11165 1.34273 0
M  V30 9506 C 904.004 4.30225 0.789004 0
M  V30 9507 C 903.063 4.94948 1.78641 0
M  V30 9508 O 902.089 5.53372 1.33297 0
M  V30 9509 N 903.291 4.89543 3.11974 0
M  V30 9510 H 906.056 2.96125 -0.461558 0
M  V30 9511 H 903.617 1.5708 -0.392105 0
M  V30 9512 H 905.609 3.51331 2.00869 0
M  V30 9513 H 904.179 2.45337 1.93722 0
M  V30 9514 H 903.399 3.94163 -0.0536971 0
M  V30 9515 H 904.687 5.07238 0.398378 0
M  V30 9516 H 904.085 4.43275 3.51459 0
M  V30 9517 H 902.642 5.33732 3.74131 0
M  V30 9518 N 906.075 0.2925 1.54862 0
M  V30 9519 C 907.352 -0.371946 1.92031 0
M  V30 9520 C 907.732 -1.72363 1.21878 0
M  V30 9521 O 907.08 -2.25779 0.351573 0
M  V30 9522 C 907.29 -0.495027 3.45471 0
M  V30 9523 C 908.638 -0.769855 4.17562 0
M  V30 9524 O 909.662 -0.579168 3.5146 0
M  V30 9525 O 908.521 -1.13561 5.34571 0
M  V30 9526 H 905.615 -0.206463 0.800813 0
M  V30 9527 H 908.161 0.339933 1.6626 0
M  V30 9528 H 906.933 0.455528 3.88639 0
M  V30 9529 H 906.556 -1.2557 3.7725 0
M  V30 9530 N 907.553 -1.57587 0.0200696 0
M  V30 9531 C 908.5 -2.09667 -0.964791 0
M  V30 9532 C 909.47 -0.99664 -1.32877 0
M  V30 9533 O 910.655 -1.2703 -1.42366 0
M  V30 9534 C 907.795 -2.62101 -2.24493 0
M  V30 9535 C 906.908 -3.8608 -1.93821 0
M  V30 9536 C 906.043 -4.26939 -3.16064 0
M  V30 9537 C 905.082 -5.43701 -2.81169 0
M  V30 9538 N 904.219 -5.79759 -3.9601 0
M  V30 9539 H 909.059 -2.93538 -0.513751 0
M  V30 9540 H 906.596 -1.45096 -0.242 0
M  V30 9541 H 908.554 -2.90587 -2.99358 0
M  V30 9542 H 907.184 -1.81074 -2.6723 0
M  V30 9543 H 906.236 -3.64378 -1.09237 0
M  V30 9544 H 907.548 -4.71028 -1.64115 0
M  V30 9545 H 906.702 -4.56814 -3.99257 0
M  V30 9546 H 905.441 -3.40739 -3.48924 0
M  V30 9547 H 904.446 -5.13529 -1.96387 0
M  V30 9548 H 905.671 -6.31593 -2.49535 0
M  V30 9549 H 903.617 -4.96516 -4.28729 0
M  V30 9550 H 903.534 -6.59327 -3.69896 0
M  V30 9551 H 904.802 -6.14235 -4.79933 0
M  V30 9552 N 909.032 0.252966 -1.55557 0
M  V30 9553 C 909.942 1.33472 -1.92931 0
M  V30 9554 C 910.958 1.52983 -0.828985 0
M  V30 9555 O 912.134 1.66723 -1.12984 0
M  V30 9556 C 909.199 2.6704 -2.21112 0
M  V30 9557 C 908.26 2.56103 -3.44542 0
M  V30 9558 C 907.493 3.83302 -3.71369 0
M  V30 9559 O 907.716 4.84907 -3.00368 0
M  V30 9560 O 906.65 3.823 -4.64898 0
M  V30 9561 H 910.476 1.04768 -2.85057 0
M  V30 9562 H 908.061 0.453208 -1.4236 0
M  V30 9563 H 909.943 3.45981 -2.40572 0
M  V30 9564 H 908.618 2.95489 -1.32166 0
M  V30 9565 H 907.525 1.7547 -3.30396 0
M  V30 9566 H 908.858 2.32601 -4.33772 0
M  V30 9567 N 910.51 1.48831 0.518367 0
M  V30 9568 C 911.473 1.63721 1.604 0
M  V30 9569 C 912.473 0.509857 1.52503 0
M  V30 9570 O 913.663 0.775922 1.55965 0
M  V30 9571 C 910.795 1.61831 3.00039 0
M  V30 9572 H 911.988 2.60534 1.48533 0
M  V30 9573 H 909.541 1.37602 0.741309 0
M  V30 9574 H 910.276 0.665387 3.17401 0
M  V30 9575 H 910.061 2.43686 3.0718 0
M  V30 9576 H 911.551 1.75467 3.78947 0
M  V30 9577 N 911.988 -0.768124 1.37614 0
M  V30 9578 C 912.951 -1.86314 1.3349 0
M  V30 9579 C 913.951 -1.59025 0.23823 0
M  V30 9580 O 915.141 -1.6704 0.494288 0
M  V30 9581 C 912.273 -3.23519 1.07462 0
M  V30 9582 H 913.466 -1.91382 2.30896 0
M  V30 9583 H 911.019 -0.968267 1.22696 0
M  V30 9584 H 911.754 -3.24127 0.106028 0
M  V30 9585 H 911.539 -3.44719 1.86846 0
M  V30 9586 H 913.029 -4.03597 1.07236 0
M  V30 9587 N 913.466 -1.22244 -0.994698 0
M  V30 9588 C 914.743 -0.954459 -1.70732 0
M  V30 9589 C 915.123 0.530945 -2.04314 0
M  V30 9590 O 914.471 1.49851 -1.72502 0
M  V30 9591 C 914.681 -1.85016 -2.95922 0
M  V30 9592 C 916.029 -2.10517 -3.68738 0
M  V30 9593 O 917.053 -1.82449 -3.05926 0
M  V30 9594 O 915.912 -2.58044 -4.81742 0
M  V30 9595 H 913.006 -0.35879 -0.745116 0
M  V30 9596 H 915.552 -1.33221 -1.0512 0
M  V30 9597 H 914.324 -2.85498 -2.67594 0
M  V30 9598 H 913.947 -1.47388 -3.69273 0
M  V30 9599 N 914.944 1.19125 -1.03184 0
M  V30 9600 C 915.907 2.20662 -0.619766 0
M  V30 9601 C 916.907 1.57621 0.318179 0
M  V30 9602 O 918.097 1.73885 0.104783 0
M  V30 9603 C 915.229 3.40774 0.0926696 0
M  V30 9604 H 916.422 2.58633 -1.5182 0
M  V30 9605 H 913.975 1.32855 -0.823364 0
M  V30 9606 H 914.71 3.08324 1.00531 0
M  V30 9607 H 914.495 3.87766 -0.581344 0
M  V30 9608 H 915.985 4.15977 0.367792 0
M  V30 9609 N 916.422 0.810101 1.35185 0
M  V30 9610 C 917.671 0.388589 1.97921 0
M  V30 9611 C 917.984 -1.05079 1.64978 0
M  V30 9612 O 919.19 -1.57559 2.21105 0
M  V30 9613 C 917.646 0.643864 3.54094 0
M  V30 9614 C 917.254 2.09602 3.95943 0
M  V30 9615 C 918.998 0.287883 4.23523 0
M  V30 9616 C 916.905 2.29686 5.44976 0
M  V30 9617 H 915.835 0.141562 0.740592 0
M  V30 9618 H 918.486 0.994653 1.54204 0
M  V30 9619 H 916.868 -0.0321978 3.95987 0
M  V30 9620 H 918.042 2.81018 3.65192 0
M  V30 9621 H 916.357 2.4122 3.39414 0
M  V30 9622 H 918.954 0.415946 5.3308 0
M  V30 9623 H 919.297 -0.766305 4.09186 0
M  V30 9624 H 919.83 0.918004 3.87063 0
M  V30 9625 H 916.569 3.33563 5.64284 0
M  V30 9626 H 916.089 1.62798 5.77284 0
M  V30 9627 H 917.768 2.11411 6.11485 0
M  V30 9628 N 917.9 -1.47166 0.563914 0
M  V30 9629 C 919.177 -1.95586 -0.0236172 0
M  V30 9630 C 919.557 -1.50655 -1.47872 0
M  V30 9631 O 918.905 -0.748479 -2.15894 0
M  V30 9632 C 919.115 -3.48762 0.128841 0
M  V30 9633 C 920.463 -4.24598 -0.0130544 0
M  V30 9634 O 921.487 -3.56155 0.0567242 0
M  V30 9635 O 920.346 -5.46253 -0.164332 0
M  V30 9636 H 917.44 -0.824793 -0.0603789 0
M  V30 9637 H 919.986 -1.57536 0.63091 0
M  V30 9638 H 918.758 -3.74291 1.14113 0
M  V30 9639 H 918.381 -3.93594 -0.56299 0
M  V30 9640 N 919.378 -0.300708 -1.54705 0
M  V30 9641 C 920.341 0.562648 -2.22187 0
M  V30 9642 C 921.341 1.06152 -1.20782 0
M  V30 9643 O 922.531 0.957596 -1.45519 0
M  V30 9644 C 919.663 1.77899 -2.908 0
M  V30 9645 H 920.856 -0.0269361 -2.99888 0
M  V30 9646 H 918.409 -0.0515412 -1.56215 0
M  V30 9647 H 919.144 2.40841 -2.17177 0
M  V30 9648 H 918.929 1.42892 -3.65136 0
M  V30 9649 H 920.419 2.39236 -3.42281 0
M  V30 9650 N 920.856 1.57574 -0.0284266 0
M  V30 9651 C 921.766 2.13637 0.96936 0
M  V30 9652 C 922.782 1.08845 1.35752 0
M  V30 9653 O 923.958 1.40899 1.43908 0
M  V30 9654 C 921.023 2.65179 2.2334 0
M  V30 9655 C 920.084 3.84683 1.90572 0
M  V30 9656 C 919.317 4.33758 3.1095 0
M  V30 9657 O 919.54 3.82009 4.23586 0
M  V30 9658 O 918.474 5.2561 2.93288 0
M  V30 9659 H 922.3 2.99169 0.52267 0
M  V30 9660 H 919.885 1.48159 0.192135 0
M  V30 9661 H 921.767 2.98402 2.97547 0
M  V30 9662 H 920.442 1.82731 2.67191 0
M  V30 9663 H 919.349 3.56386 1.13753 0
M  V30 9664 H 920.682 4.68292 1.51538 0
M  V30 9665 N 922.334 -0.244713 1.55689 0
M  V30 9666 C 923.582 -0.970525 1.77272 0
M  V30 9667 C 923.903 -1.85771 0.592804 0
M  V30 9668 O 923.173 -1.91952 -0.391323 0
M  V30 9669 H 921.753 -0.361342 0.653789 0
M  V30 9670 H 924.415 -0.262134 1.93129 0
M  V30 9671 H 923.511 -1.59096 2.68505 0
M  V30 9672 N 923.813 -1.49104 -0.510467 0
M  V30 9673 C 924.776 -1.64569 -1.59529 0
M  V30 9674 C 925.776 -0.517937 -1.5223 0
M  V30 9675 O 926.966 -0.784183 -1.55551 0
M  V30 9676 C 924.098 -1.6342 -2.99177 0
M  V30 9677 H 925.291 -2.61318 -1.4715 0
M  V30 9678 H 922.844 -1.37993 -0.734001 0
M  V30 9679 H 923.579 -0.68221 -3.17043 0
M  V30 9680 H 923.364 -2.45312 -3.05883 0
M  V30 9681 H 924.854 -1.77474 -3.78011 0
M  V30 9682 N 925.291 0.760815 -1.38019 0
M  V30 9683 C 926.516 1.55513 -1.37224 0
M  V30 9684 C 926.941 1.88062 0.037611 0
M  V30 9685 O 926.299 1.50042 1.0177 0
M  V30 9686 C 926.347 2.83539 -2.22796 0
M  V30 9687 O 925.451 3.78384 -1.64009 0
M  V30 9688 H 924.792 0.470642 -0.468393 0
M  V30 9689 H 927.322 0.940792 -1.81687 0
M  V30 9690 H 927.332 3.32535 -2.36399 0
M  V30 9691 H 926.007 2.59178 -3.25269 0
M  V30 9692 H 924.584 3.37063 -1.59508 0
M  V30 9693 N 926.769 1.22769 0.988202 0
M  V30 9694 C 927.732 1.00325 2.06076 0
M  V30 9695 C 928.732 -0.0320618 1.60768 0
M  V30 9696 O 929.922 0.206912 1.72967 0
M  V30 9697 C 927.054 0.516376 3.36966 0
M  V30 9698 H 928.247 1.95499 2.27421 0
M  V30 9699 H 925.8 1.04704 1.16047 0
M  V30 9700 H 926.535 -0.439498 3.21308 0
M  V30 9701 H 926.32 1.26337 3.71189 0
M  V30 9702 H 927.81 0.37974 4.1587 0
M  V30 9703 N 928.247 -1.18576 1.03814 0
M  V30 9704 C 929.658 -1.70159 0.768299 0
M  V30 9705 C 930.009 -1.8286 -0.711106 0
M  V30 9706 O 929.134 -1.5063 -1.55369 0
M  V30 9707 C 929.729 -3.09062 1.38804 0
M  V30 9708 C 928.288 -3.57866 1.16656 0
M  V30 9709 C 927.435 -2.34484 1.48029 0
M  V30 9710 H 930.386 -1.03287 1.20488 0
M  V30 9711 H 930.407 -3.72211 0.7899 0
M  V30 9712 H 929.919 -2.99785 2.46476 0
M  V30 9713 H 928.02 -3.72442 0.108471 0
M  V30 9714 H 928.133 -4.41445 1.8618 0
M  V30 9715 H 926.497 -2.38273 0.899902 0
M  V30 9716 H 927.28 -2.27829 2.56805 0
M  V30 9717 N 929.725 -0.817259 -1.34754 0
M  V30 9718 C 930.655 -0.249769 -2.3216 0
M  V30 9719 C 931.636 0.630663 -1.57977 0
M  V30 9720 O 932.821 0.558719 -1.85989 0
M  V30 9721 C 929.951 0.593825 -3.42186 0
M  V30 9722 C 928.905 -0.188997 -4.27583 0
M  V30 9723 C 928.231 0.776979 -5.29025 0
M  V30 9724 C 929.531 -1.39401 -5.03354 0
M  V30 9725 H 931.225 -1.06359 -2.79872 0
M  V30 9726 H 928.771 -0.512894 -1.34556 0
M  V30 9727 H 930.724 1.00097 -4.09339 0
M  V30 9728 H 929.448 1.44064 -2.93109 0
M  V30 9729 H 928.107 -0.577445 -3.62024 0
M  V30 9730 H 927.755 1.61959 -4.76212 0
M  V30 9731 H 927.455 0.257448 -5.87036 0
M  V30 9732 H 928.979 1.18211 -5.99048 0
M  V30 9733 H 930.393 -1.06117 -5.63393 0
M  V30 9734 H 928.79 -1.84878 -5.70912 0
M  V30 9735 H 929.86 -2.17515 -4.33377 0
M  V30 9736 N 931.203 1.46865 -0.571711 0
M  V30 9737 C 932.136 2.27176 0.215944 0
M  V30 9738 C 933.114 1.34951 0.907035 0
M  V30 9739 O 934.298 1.64349 0.923127 0
M  V30 9740 C 931.425 3.12388 1.30888 0
M  V30 9741 C 930.471 4.20296 0.724804 0
M  V30 9742 S 931.304 5.33691 -0.439839 0
M  V30 9743 C 932.46 6.22468 0.654564 0
M  V30 9744 H 932.693 2.93633 -0.465518 0
M  V30 9745 H 930.226 1.50184 -0.358351 0
M  V30 9746 H 932.184 3.62049 1.93471 0
M  V30 9747 H 930.845 2.45265 1.96224 0
M  V30 9748 H 930.038 4.79703 1.54599 0
M  V30 9749 H 929.64 3.73591 0.174861 0
M  V30 9750 H 931.932 6.59694 1.54304 0
M  V30 9751 H 932.875 7.08033 0.0975111 0
M  V30 9752 H 933.283 5.56384 0.953762 0
M  V30 9753 N 932.681 0.308908 1.54543 0
M  V30 9754 C 933.591 -0.572939 2.27496 0
M  V30 9755 C 934.607 -1.14171 1.31305 0
M  V30 9756 O 935.783 -1.16481 1.64299 0
M  V30 9757 C 932.848 -1.72483 3.0075 0
M  V30 9758 C 931.909 -1.18934 4.12496 0
M  V30 9759 C 931.142 -2.28634 4.82247 0
M  V30 9760 O 931.365 -3.48691 4.5141 0
M  V30 9761 O 930.299 -1.94879 5.69478 0
M  V30 9762 H 934.125 0.0190877 3.03694 0
M  V30 9763 H 931.71 0.0750943 1.49211 0
M  V30 9764 H 933.592 -2.39578 3.46671 0
M  V30 9765 H 932.267 -2.30332 2.2744 0
M  V30 9766 H 931.174 -0.483904 3.70957 0
M  V30 9767 H 932.507 -0.656185 4.87806 0
M  V30 9768 N 934.159 -1.57557 0.0367827 0
M  V30 9769 C 935.089 -2.13712 -0.940719 0
M  V30 9770 C 936.07 -1.05515 -1.33419 0
M  V30 9771 O 937.255 -1.33385 -1.41146 0
M  V30 9772 C 934.385 -2.67043 -2.22048 0
M  V30 9773 C 933.339 -3.80096 -1.96752 0
M  V30 9774 C 932.665 -4.19886 -3.31059 0
M  V30 9775 C 933.965 -5.05848 -1.30058 0
M  V30 9776 H 935.659 -2.9564 -0.473033 0
M  V30 9777 H 933.205 -1.42214 -0.226089 0
M  V30 9778 H 935.158 -3.04964 -2.90818 0
M  V30 9779 H 933.882 -1.82287 -2.70996 0
M  V30 9780 H 932.541 -3.42625 -1.30398 0
M  V30 9781 H 932.189 -3.32101 -3.77781 0
M  V30 9782 H 931.889 -4.96073 -3.14937 0
M  V30 9783 H 933.413 -4.60395 -4.01084 0
M  V30 9784 H 934.827 -5.41306 -1.8884 0
M  V30 9785 H 933.224 -5.87084 -1.24309 0
M  V30 9786 H 934.294 -4.84122 -0.274591 0
M  V30 9787 N 935.637 0.236453 -1.55816 0
M  V30 9788 C 936.567 1.29639 -1.94206 0
M  V30 9789 C 937.548 1.49667 -0.808319 0
M  V30 9790 O 938.733 1.621 -1.06945 0
M  V30 9791 C 935.863 2.64914 -2.24584 0
M  V30 9792 C 934.817 2.59565 -3.40308 0
M  V30 9793 C 934.143 3.98732 -3.56254 0
M  V30 9794 C 935.443 2.15642 -4.75706 0
M  V30 9795 H 937.137 0.977552 -2.82992 0
M  V30 9796 H 934.683 0.468804 -1.36155 0
M  V30 9797 H 936.636 3.39209 -2.50031 0
M  V30 9798 H 935.36 2.98455 -1.32636 0
M  V30 9799 H 934.019 1.87728 -3.14887 0
M  V30 9800 H 933.667 4.29556 -2.61707 0
M  V30 9801 H 933.367 3.96039 -4.34082 0
M  V30 9802 H 934.891 4.74711 -3.84033 0
M  V30 9803 H 936.305 2.79673 -5.00456 0
M  V30 9804 H 934.702 2.24039 -5.56711 0
M  V30 9805 H 935.772 1.10831 -4.72064 0
M  V30 9806 N 937.115 1.49373 0.502552 0
M  V30 9807 C 938.065 1.62321 1.60112 0
M  V30 9808 C 939.049 0.47895 1.53606 0
M  V30 9809 O 940.241 0.731824 1.61162 0
M  V30 9810 C 937.37 1.69162 2.98729 0
M  V30 9811 C 936.456 2.89161 3.10237 0
M  V30 9812 N 936.847 4.13256 2.91638 0
M  V30 9813 C 935.145 2.87065 3.41335 0
M  V30 9814 C 935.846 4.93913 3.07287 0
M  V30 9815 N 934.822 4.27249 3.36094 0
M  V30 9816 H 938.624 2.55989 1.44384 0
M  V30 9817 H 936.138 1.46123 0.708644 0
M  V30 9818 H 938.135 1.76536 3.77678 0
M  V30 9819 H 936.795 0.766301 3.15528 0
M  V30 9820 H 937.806 4.4326 2.67844 0
M  V30 9821 H 934.483 2.03905 3.6432 0
M  V30 9822 H 935.873 6.02491 2.97413 0
M  V30 9823 N 938.594 -0.753485 1.38421 0
M  V30 9824 C 939.819 -1.54783 1.38047 0
M  V30 9825 C 940.244 -1.8808 -0.0276371 0
M  V30 9826 O 939.602 -1.5058 -1.00973 0
M  V30 9827 C 939.65 -2.82353 2.24297 0
M  V30 9828 O 938.754 -3.77509 1.66014 0
M  V30 9829 H 938.095 -0.468151 0.470883 0
M  V30 9830 H 940.625 -0.931144 1.82184 0
M  V30 9831 H 940.635 -3.31277 2.38159 0
M  V30 9832 H 939.31 -2.57449 3.26639 0
M  V30 9833 H 937.887 -3.36212 1.61294 0
M  V30 9834 N 940.072 -1.23292 -0.981677 0
M  V30 9835 C 941.488 -0.995295 -1.24764 0
M  V30 9836 C 941.688 0.304379 -1.99188 0
M  V30 9837 O 940.744 1.02414 -2.30798 0
M  V30 9838 C 942.057 -2.20135 -2.04844 0
M  V30 9839 C 943.605 -2.24612 -2.17988 0
M  V30 9840 C 944.08 -3.448 -3.01458 0
M  V30 9841 N 945.571 -3.45031 -3.09044 0
M  V30 9842 C 946.306 -4.34683 -3.7395 0
M  V30 9843 N 945.802 -5.34569 -4.4069 0
M  V30 9844 N 947.595 -4.22429 -3.70823 0
M  V30 9845 H 939.746 -2.06834 -0.483052 0
M  V30 9846 H 942.009 -0.906929 -0.276014 0
M  V30 9847 H 941.715 -3.14446 -1.57532 0
M  V30 9848 H 941.589 -2.21115 -3.05594 0
M  V30 9849 H 943.976 -1.30841 -2.64508 0
M  V30 9850 H 944.057 -2.27664 -1.16631 0
M  V30 9851 H 943.701 -4.38877 -2.55635 0
M  V30 9852 H 943.631 -3.38988 -4.02982 0
M  V30 9853 H 946.122 -2.72759 -2.61555 0
M  V30 9854 H 946.435 -5.99236 -4.87991 0
M  V30 9855 H 944.78 -5.3847 -4.39403 0
M  V30 9856 H 947.971 -3.43639 -3.17851 0
M  V30 9857 H 948.144 -4.92501 -4.21126 0
M  V30 9858 N 941.55 1.18024 -1.04442 0
M  V30 9859 C 942.498 2.23834 -0.632557 0
M  V30 9860 C 943.492 1.65902 0.342488 0
M  V30 9861 O 944.698 1.78778 0.20937 0
M  V30 9862 H 941.073 0.728544 -0.186353 0
M  V30 9863 H 943.044 2.55876 -1.53526 0
M  V30 9864 C 941.793 3.47697 -0.0153661 0
M  V30 9865 H 941.116 3.92574 -0.756704 0
M  V30 9866 H 942.556 4.23345 0.235541 0
M  V30 9867 C 941.015 3.13416 1.23579 0
M  V30 9868 O 941.545 3.27499 2.3261 0
M  V30 9869 N 939.751 2.67708 1.13053 0
M  V30 9870 H 939.298 2.56449 0.243277 0
M  V30 9871 H 939.256 2.45143 1.96855 0
M  V30 9872 N 943.028 0.824394 1.34319 0
M  V30 9873 C 943.938 0.24932 2.33271 0
M  V30 9874 C 944.954 -0.617066 1.62691 0
M  V30 9875 O 946.13 -0.524616 1.94447 0
M  V30 9876 C 943.195 -0.578094 3.41846 0
M  V30 9877 C 942.256 0.310866 4.28173 0
M  V30 9878 C 941.489 -0.477153 5.31563 0
M  V30 9879 O 941.712 -1.71028 5.44156 0
M  V30 9880 O 940.646 0.141287 6.01734 0
M  V30 9881 H 944.472 1.06837 2.84288 0
M  V30 9882 H 942.057 0.58657 1.37403 0
M  V30 9883 H 943.939 -1.04878 4.0814 0
M  V30 9884 H 942.614 -1.37444 2.93071 0
M  V30 9885 H 941.521 0.829081 3.64797 0
M  V30 9886 H 942.854 1.07161 4.80393 0
M  V30 9887 N 944.506 -1.46559 0.579492 0
M  V30 9888 C 945.754 -2.02 0.0637157 0
M  V30 9889 C 946.075 -1.45378 -1.29962 0
M  V30 9890 O 945.345 -0.637262 -1.85245 0
M  V30 9891 H 943.925 -0.746717 0.0205638 0
M  V30 9892 H 946.587 -1.79702 0.754544 0
M  V30 9893 H 945.683 -3.12099 -0.00770254 0
M  V30 9894 N 945.984 -0.3171 -1.54377 0
M  V30 9895 C 947.212 0.289558 -2.04864 0
M  V30 9896 C 947.627 1.46284 -1.19359 0
M  V30 9897 O 946.984 1.81135 -0.222795 0
M  V30 9898 C 947.035 0.730273 -3.54047 0
M  V30 9899 O 946.756 -0.396325 -4.36304 0
M  V30 9900 C 948.257 1.40041 -4.20599 0
M  V30 9901 H 945.477 0.0605836 -0.668259 0
M  V30 9902 H 948.021 -0.461411 -1.99227 0
M  V30 9903 H 946.176 1.43123 -3.59992 0
M  V30 9904 H 946.59 -0.0502901 -5.24476 0
M  V30 9905 H 948.064 1.65979 -5.26455 0
M  V30 9906 H 948.541 2.34565 -3.71316 0
M  V30 9907 H 949.147 0.742206 -4.18774 0
M  V30 9908 N 947.462 1.57535 -0.0451378 0
M  V30 9909 C 948.425 2.1008 0.916461 0
M  V30 9910 C 949.425 1.01913 1.2438 0
M  V30 9911 O 950.615 1.2801 1.18148 0
M  V30 9912 C 947.747 2.58001 2.22818 0
M  V30 9913 H 948.94 2.96334 0.461076 0
M  V30 9914 H 946.493 1.54974 0.203169 0
M  V30 9915 H 947.228 1.75123 2.72951 0
M  V30 9916 H 947.013 3.3704 2.00366 0
M  V30 9917 H 948.503 2.98822 2.9171 0
M  V30 9918 N 948.94 -0.228186 1.55939 0
M  V30 9919 C 950.168 -0.970618 1.8272 0
M  V30 9920 C 950.583 -1.78212 0.623385 0
M  V30 9921 O 949.94 -1.77879 -0.408063 0
M  V30 9922 C 949.991 -1.89352 3.07942 0
M  V30 9923 O 949.712 -1.11483 4.23678 0
M  V30 9924 C 951.213 -2.75039 3.47661 0
M  V30 9925 H 948.433 -0.284772 0.607574 0
M  V30 9926 H 950.977 -0.245419 2.03022 0
M  V30 9927 H 949.132 -2.57275 2.89635 0
M  V30 9928 H 949.546 -1.74073 4.94772 0
M  V30 9929 H 951.02 -3.35511 4.38334 0
M  V30 9930 H 951.497 -3.471 2.69106 0
M  V30 9931 H 952.103 -2.1254 3.68384 0
M  V30 9932 N 950.418 -1.49637 -0.494624 0
M  V30 9933 C 951.648 -1.62928 -1.27036 0
M  V30 9934 C 952.056 -0.302464 -1.86767 0
M  V30 9935 O 951.399 0.722878 -1.68879 0
M  V30 9936 C 951.461 -2.64449 -2.43531 0
M  V30 9937 C 951.125 -4.08632 -2.0462 0
M  V30 9938 C 952.122 -4.95238 -1.58225 0
M  V30 9939 C 949.807 -4.54405 -2.1406 0
M  V30 9940 C 951.801 -6.25658 -1.21782 0
M  V30 9941 C 949.488 -5.84836 -1.77228 0
M  V30 9942 C 950.486 -6.70287 -1.31165 0
M  V30 9943 O 950.174 -7.98287 -0.948339 0
M  V30 9944 H 949.906 -0.551263 -0.391261 0
M  V30 9945 H 952.46 -1.96453 -0.599621 0
M  V30 9946 H 950.69 -2.26117 -3.137 0
M  V30 9947 H 952.379 -2.67203 -3.05545 0
M  V30 9948 H 953.145 -4.611 -1.50373 0
M  V30 9949 H 949.024 -3.88056 -2.48865 0
M  V30 9950 H 952.568 -6.92309 -0.857566 0
M  V30 9951 H 948.465 -6.18502 -1.84732 0
M  V30 9952 H 949.233 -8.11353 -1.07925 0
M  V30 9953 N 951.896 0.746133 -1.38819 0
M  V30 9954 C 952.859 1.84167 -1.36437 0
M  V30 9955 C 953.859 1.58626 -0.263499 0
M  V30 9956 O 955.049 1.66233 -0.520801 0
M  V30 9957 C 952.181 3.21769 -1.12596 0
M  V30 9958 H 953.374 1.87684 -2.33912 0
M  V30 9959 H 950.927 0.948625 -1.24221 0
M  V30 9960 H 951.662 3.23917 -0.15758 0
M  V30 9961 H 951.447 3.41702 -1.92307 0
M  V30 9962 H 952.937 4.0184 -1.13643 0
M  V30 9963 N 953.375 1.23811 0.975125 0
M  V30 9964 C 954.338 1.02505 2.05001 0
M  V30 9965 C 955.338 -0.0150084 1.60793 0
M  V30 9966 O 956.528 0.225246 1.72738 0
M  V30 9967 C 953.66 0.552087 3.364 0
M  V30 9968 H 954.853 1.979 2.25335 0
M  V30 9969 H 952.406 1.05929 1.1493 0
M  V30 9970 H 953.141 -0.405394 3.21756 0
M  V30 9971 H 952.926 1.30267 3.69828 0
M  V30 9972 H 954.416 0.423828 4.15444 0
M  V30 9973 N 954.853 -1.17469 1.05066 0
M  V30 9974 C 955.816 -2.19648 0.654793 0
M  V30 9975 C 956.816 -1.58107 -0.293063 0
M  V30 9976 O 958.006 -1.74029 -0.077106 0
M  V30 9977 C 955.138 -3.40878 -0.0384437 0
M  V30 9978 H 956.331 -2.56184 1.55915 0
M  V30 9979 H 953.884 -1.31528 0.844396 0
M  V30 9980 H 954.619 -3.09885 -0.956133 0
M  V30 9981 H 954.404 -3.86792 0.642961 0
M  V30 9982 H 955.894 -4.1651 -0.301568 0
M  V30 9983 N 956.331 -0.831506 -1.3388 0
M  V30 9984 C 957.577 -0.424302 -1.98312 0
M  V30 9985 C 957.91 1.01211 -1.65741 0
M  V30 9986 O 957.185 1.70636 -0.933464 0
M  V30 9987 C 957.468 -0.636815 -3.54424 0
M  V30 9988 C 957.321 -2.11997 -3.96708 0
M  V30 9989 C 958.64 -0.0782411 -4.4003 0
M  V30 9990 H 955.759 -0.155637 -0.720379 0
M  V30 9991 H 958.401 -1.04566 -1.58638 0
M  V30 9992 H 956.551 -0.107907 -3.8835 0
M  V30 9993 H 958.223 -2.71317 -3.73075 0
M  V30 9994 H 956.466 -2.60723 -3.46707 0
M  V30 9995 H 957.137 -2.21944 -5.05416 0
M  V30 9996 H 959.613 -0.530243 -4.12708 0
M  V30 9997 H 958.489 -0.256676 -5.483 0
M  V30 9998 H 958.75 1.01745 -4.30233 0
M  V30 9999 N 957.809 1.4625 -0.587256 0
M  V30 10000 C 958.739 2.33132 0.131076 0
M  V30 10001 C 959.72 1.45619 0.879158 0
M  V30 10002 O 960.905 1.74428 0.853723 0
M  V30 10003 C 958.035 3.27975 1.14236 0
M  V30 10004 C 956.989 4.24965 0.508819 0
M  V30 10005 C 956.315 5.09349 1.62689 0
M  V30 10006 C 957.615 5.19322 -0.55694 0
M  V30 10007 H 959.309 2.93442 -0.594333 0
M  V30 10008 H 956.855 1.41106 -0.287263 0
M  V30 10009 H 958.808 3.87614 1.65328 0
M  V30 10010 H 957.532 2.65781 1.8981 0
M  V30 10011 H 956.191 3.66595 0.0189337 0
M  V30 10012 H 955.839 4.43537 2.37242 0
M  V30 10013 H 955.539 5.75036 1.20861 0
M  V30 10014 H 957.063 5.71852 2.14049 0
M  V30 10015 H 958.477 5.73151 -0.130903 0
M  V30 10016 H 956.874 5.93376 -0.895801 0
M  V30 10017 H 957.944 4.62979 -1.44148 0
M  V30 10018 N 959.287 0.325282 1.54207 0
M  V30 10019 C 960.534 -0.276775 2.006 0
M  V30 10020 C 960.862 -1.52007 1.21343 0
M  V30 10021 O 960.117 -1.93627 0.284104 0
M  V30 10022 C 960.416 -0.654292 3.5136 0
M  V30 10023 C 960.082 0.490023 4.48229 0
M  V30 10024 C 958.744 0.804104 4.74434 0
M  V30 10025 C 961.096 1.2586 5.05775 0
M  V30 10026 C 958.424 1.88945 5.55443 0
M  V30 10027 C 960.776 2.33405 5.87967 0
M  V30 10028 C 959.44 2.65393 6.12473 0
M  V30 10029 H 958.71 -0.101279 0.734046 0
M  V30 10030 H 961.357 0.449416 1.86152 0
M  V30 10031 H 959.662 -1.46093 3.63544 0
M  V30 10032 H 961.359 -1.13171 3.84699 0
M  V30 10033 H 957.949 0.235147 4.27954 0
M  V30 10034 H 962.133 1.02921 4.85511 0
M  V30 10035 H 957.389 2.14174 5.7266 0
M  V30 10036 H 961.563 2.93402 6.31576 0
M  V30 10037 H 959.19 3.49622 6.75032 0
M  V30 10038 N 960.765 -1.57509 0.0534917 0
M  V30 10039 C 962.181 -1.56696 -0.303067 0
M  V30 10040 C 962.381 -1.06135 -1.71282 0
M  V30 10041 O 961.437 -0.71899 -2.42047 0
M  V30 10042 C 962.75 -3.00421 -0.129418 0
M  V30 10043 C 964.298 -3.12358 -0.200346 0
M  V30 10044 C 964.773 -4.57967 -0.0551971 0
M  V30 10045 N 966.264 -4.63066 -0.111398 0
M  V30 10046 C 966.999 -5.73395 -0.0232344 0
M  V30 10047 N 966.495 -6.92701 0.11741 0
M  V30 10048 N 968.288 -5.62045 -0.078984 0
M  V30 10049 H 960.439 -1.88696 0.975064 0
M  V30 10050 H 962.702 -0.869072 0.378706 0
M  V30 10051 H 962.408 -3.41456 0.842653 0
M  V30 10052 H 962.282 -3.66563 -0.889476 0
M  V30 10053 H 964.669 -2.71221 -1.16289 0
M  V30 10054 H 964.75 -2.48891 0.590506 0
M  V30 10055 H 964.394 -4.9979 0.904034 0
M  V30 10056 H 964.324 -5.19443 -0.865223 0
M  V30 10057 H 966.815 -3.77263 -0.219256 0
M  V30 10058 H 967.128 -7.72597 0.177326 0
M  V30 10059 H 965.473 -6.94833 0.152526 0
M  V30 10060 H 968.664 -4.67725 -0.187434 0
M  V30 10061 H 968.837 -6.48 -0.00681731 0
M  V30 10062 N 962.243 0.219913 -1.56058 0
M  V30 10063 C 963.492 0.942119 -1.78345 0
M  V30 10064 C 963.805 1.85435 -0.622344 0
M  V30 10065 O 965.011 2.61533 -0.728886 0
M  V30 10066 C 963.467 1.72544 -3.15843 0
M  V30 10067 C 963.075 0.859263 -4.39682 0
M  V30 10068 C 964.819 2.43876 -3.47455 0
M  V30 10069 C 962.726 1.64003 -5.68205 0
M  V30 10070 H 961.656 0.355514 -0.664925 0
M  V30 10071 H 964.307 0.195963 -1.82451 0
M  V30 10072 H 962.689 2.51456 -3.05918 0
M  V30 10073 H 963.863 0.110562 -4.60667 0
M  V30 10074 H 962.178 0.257985 -4.156 0
M  V30 10075 H 964.775 3.02794 -4.40704 0
M  V30 10076 H 965.118 3.16843 -2.7003 0
M  V30 10077 H 965.651 1.71952 -3.58716 0
M  V30 10078 H 962.39 0.953606 -6.48526 0
M  V30 10079 H 961.91 2.3633 -5.51279 0
M  V30 10080 H 963.589 2.20028 -6.08438 0
M  V30 10081 N 963.721 1.49897 0.486681 0
M  V30 10082 C 964.946 1.64106 1.26823 0
M  V30 10083 C 965.371 0.317967 1.85393 0
M  V30 10084 O 964.729 -0.71626 1.66551 0
M  V30 10085 C 964.777 2.72301 2.36399 0
M  V30 10086 O 963.881 2.32469 3.40634 0
M  V30 10087 H 963.222 0.548794 0.373793 0
M  V30 10088 H 965.752 1.96177 0.581017 0
M  V30 10089 H 965.762 2.94906 2.81948 0
M  V30 10090 H 964.437 3.68335 1.93137 0
M  V30 10091 H 963.014 2.20251 3.00905 0
M  V30 10092 N 965.199 -0.738761 1.39212 0
M  V30 10093 C 966.109 -1.88324 1.39897 0
M  V30 10094 C 967.125 -1.71494 0.294229 0
M  V30 10095 O 968.301 -1.94162 0.535087 0
M  V30 10096 C 965.366 -3.23871 1.23726 0
M  V30 10097 C 964.427 -3.53121 2.44139 0
M  V30 10098 C 963.66 -4.82202 2.2873 0
M  V30 10099 O 963.883 -5.55649 1.28879 0
M  V30 10100 O 962.817 -5.11265 3.17634 0
M  V30 10101 H 966.643 -1.90701 2.36362 0
M  V30 10102 H 964.228 -0.886067 1.20288 0
M  V30 10103 H 966.11 -4.04882 1.16826 0
M  V30 10104 H 964.785 -3.22274 0.303551 0
M  V30 10105 H 963.692 -2.72212 2.56615 0
M  V30 10106 H 965.025 -3.59495 3.36191 0
M  V30 10107 N 966.677 -1.24326 -0.968545 0
M  V30 10108 C 967.954 -0.990459 -1.68669 0
M  V30 10109 C 968.334 0.487487 -2.05394 0
M  V30 10110 O 967.682 1.46158 -1.75642 0
M  V30 10111 C 967.892 -1.91251 -2.91931 0
M  V30 10112 C 969.24 -2.18291 -3.6419 0
M  V30 10113 O 970.264 -1.88897 -3.01987 0
M  V30 10114 O 969.123 -2.68204 -4.76161 0
M  V30 10115 H 966.217 -0.374515 -0.737338 0
M  V30 10116 H 968.763 -1.35421 -1.02271 0
M  V30 10117 H 967.535 -2.9111 -2.61478 0
M  V30 10118 H 967.158 -1.55188 -3.66064 0
M  V30 10119 N 968.156 1.1691 -1.05688 0
M  V30 10120 C 969.103 2.21095 -0.662246 0
M  V30 10121 C 970.073 1.62623 0.338083 0
M  V30 10122 O 971.258 1.89428 0.228362 0
M  V30 10123 C 968.398 3.45066 -0.0484018 0
M  V30 10124 C 967.511 4.17809 -1.09817 0
M  V30 10125 C 966.646 5.29281 -0.451114 0
M  V30 10126 C 965.685 5.93817 -1.48484 0
M  V30 10127 N 964.822 6.96793 -0.861588 0
M  V30 10128 H 969.662 2.54204 -1.55513 0
M  V30 10129 H 967.199 1.24863 -0.777665 0
M  V30 10130 H 969.157 4.15932 0.324978 0
M  V30 10131 H 967.787 3.12526 0.807918 0
M  V30 10132 H 966.839 3.45608 -1.58932 0
M  V30 10133 H 968.151 4.61907 -1.88265 0
M  V30 10134 H 967.305 6.06695 -0.0244251 0
M  V30 10135 H 966.044 4.8633 0.365306 0
M  V30 10136 H 965.049 5.1513 -1.92149 0
M  V30 10137 H 966.274 6.38848 -2.30325 0
M  V30 10138 H 964.22 6.55967 -0.0657688 0
M  V30 10139 H 964.137 7.39229 -1.58354 0
M  V30 10140 H 965.405 7.78142 -0.45984 0
M  V30 10141 N 969.634 0.838594 1.33437 0
M  V30 10142 C 970.582 0.260158 2.31141 0
M  V30 10143 C 971.576 -0.607706 1.58124 0
M  V30 10144 O 972.782 -0.497298 1.72994 0
M  V30 10145 H 969.157 0.0654031 0.74915 0
M  V30 10146 H 971.128 1.09874 2.77435 0
M  V30 10147 C 969.877 -0.550234 3.43319 0
M  V30 10148 H 969.2 0.108262 3.99653 0
M  V30 10149 H 970.64 -0.920815 4.1388 0
M  V30 10150 C 969.099 -1.729 2.89149 0
M  V30 10151 O 969.629 -2.82769 2.85315 0
M  V30 10152 N 967.835 -1.5508 2.45761 0
M  V30 10153 H 967.382 -0.657055 2.49079 0
M  V30 10154 H 967.34 -2.34099 2.0987 0
M  V30 10155 N 971.112 -1.45937 0.595003 0
M  V30 10156 C 972.523 -1.85908 0.171779 0
M  V30 10157 C 972.874 -1.497 -1.26824 0
M  V30 10158 O 971.999 -0.917688 -1.95978 0
M  V30 10159 C 972.594 -3.37425 0.304976 0
M  V30 10160 C 971.153 -3.76346 -0.0634635 0
M  V30 10161 C 970.3 -2.69926 0.635255 0
M  V30 10162 H 973.251 -1.36916 0.802471 0
M  V30 10163 H 973.272 -3.77632 -0.466313 0
M  V30 10164 H 972.784 -3.63747 1.35314 0
M  V30 10165 H 970.885 -3.55642 -1.11129 0
M  V30 10166 H 970.998 -4.78021 0.321419 0
M  V30 10167 H 969.362 -2.54592 0.0742054 0
M  V30 10168 H 970.145 -2.99086 1.68531 0
M  V30 10169 N 972.59 -0.333456 -1.54032 0
M  V30 10170 C 973.867 0.320902 -1.9295 0
M  V30 10171 C 974.247 1.69071 -1.26405 0
M  V30 10172 O 973.595 2.24768 -0.411311 0
M  V30 10173 C 973.805 0.403257 -3.46662 0
M  V30 10174 C 975.153 0.658875 -4.19457 0
M  V30 10175 O 976.177 0.485781 -3.52872 0
M  V30 10176 O 975.036 0.993475 -5.37394 0
M  V30 10177 H 972.13 0.185158 -0.806006 0
M  V30 10178 H 974.676 -0.383895 -1.65301 0
M  V30 10179 H 973.448 -0.558409 -3.87295 0
M  V30 10180 H 973.071 1.15524 -3.80447 0
M  V30 10181 N 974.068 1.57479 -0.061844 0
M  V30 10182 C 975.298 1.97142 0.61794 0
M  V30 10183 C 975.706 0.938533 1.64281 0
M  V30 10184 O 975.049 -0.084385 1.83506 0
M  V30 10185 C 975.111 3.33083 1.35263 0
M  V30 10186 C 974.775 4.54447 0.482372 0
M  V30 10187 C 975.772 5.1927 -0.255954 0
M  V30 10188 C 973.457 5.00623 0.410167 0
M  V30 10189 C 975.451 6.28612 -1.05481 0
M  V30 10190 C 973.138 6.09839 -0.392369 0
M  V30 10191 C 974.136 6.73696 -1.12354 0
M  V30 10192 O 973.824 7.80811 -1.91285 0
M  V30 10193 H 973.556 0.653497 0.172969 0
M  V30 10194 H 976.11 2.05002 -0.127781 0
M  V30 10195 H 974.34 3.21808 2.14421 0
M  V30 10196 H 976.029 3.5742 1.92368 0
M  V30 10197 H 976.795 4.84546 -0.209703 0
M  V30 10198 H 972.674 4.50704 0.968883 0
M  V30 10199 H 976.218 6.78385 -1.62602 0
M  V30 10200 H 972.115 6.43997 -0.44022 0
M  V30 10201 H 972.883 7.9764 -1.83611 0
M  V30 10202 N 975.546 -0.211634 1.56173 0
M  V30 10203 C 976.962 -0.56177 1.49386 0
M  V30 10204 C 977.162 -1.86666 0.758813 0
M  V30 10205 O 976.218 -2.50681 0.302534 0
M  V30 10206 C 977.531 -0.631815 2.93987 0
M  V30 10207 C 979.079 -0.721773 3.04564 0
M  V30 10208 C 979.554 -0.823075 4.50544 0
M  V30 10209 N 981.045 -0.887038 4.54627 0
M  V30 10210 C 981.78 -0.985304 5.64871 0
M  V30 10211 N 981.276 -1.0469 6.84844 0
M  V30 10212 N 983.069 -1.02121 5.52746 0
M  V30 10213 H 975.22 0.64452 2.02385 0
M  V30 10214 H 977.483 0.227466 0.920306 0
M  V30 10215 H 977.189 0.257592 3.50755 0
M  V30 10216 H 977.063 -1.4921 3.46433 0
M  V30 10217 H 979.45 -1.60162 2.47855 0
M  V30 10218 H 979.531 0.164385 2.55271 0
M  V30 10219 H 979.175 0.0523511 5.07873 0
M  V30 10220 H 979.105 -1.72479 4.97552 0
M  V30 10221 H 981.596 -0.849352 3.68231 0
M  V30 10222 H 981.909 -1.12193 7.64613 0
M  V30 10223 H 980.254 -1.01586 6.87536 0
M  V30 10224 H 983.445 -0.969814 4.57943 0
M  V30 10225 H 983.618 -1.09434 6.38693 0
M  V30 10226 N 977.024 -1.50153 -0.478725 0
M  V30 10227 C 977.971 -1.68458 -1.57767 0
M  V30 10228 C 978.941 -0.5259 -1.57555 0
M  V30 10229 O 980.126 -0.755574 -1.75202 0
M  V30 10230 C 977.266 -1.77772 -2.95789 0
M  V30 10231 C 976.379 -3.05092 -3.05848 0
M  V30 10232 C 975.514 -3.05247 -4.34739 0
M  V30 10233 C 974.553 -4.27053 -4.38512 0
M  V30 10234 N 973.69 -4.24991 -5.58862 0
M  V30 10235 H 978.53 -2.62282 -1.41464 0
M  V30 10236 H 976.067 -1.30023 -0.687921 0
M  V30 10237 H 978.025 -1.81152 -3.75819 0
M  V30 10238 H 976.655 -0.873944 -3.10744 0
M  V30 10239 H 975.707 -3.11219 -2.1874 0
M  V30 10240 H 977.019 -3.95075 -3.04495 0
M  V30 10241 H 976.173 -3.07314 -5.23109 0
M  V30 10242 H 974.912 -2.13081 -4.38689 0
M  V30 10243 H 973.917 -4.25206 -3.4854 0
M  V30 10244 H 975.142 -5.20437 -4.36259 0
M  V30 10245 H 973.088 -3.35674 -5.63612 0
M  V30 10246 H 973.005 -5.08734 -5.59219 0
M  V30 10247 H 974.273 -4.31193 -6.49379 0
M  V30 10248 N 978.502 0.731368 -1.39602 0
M  V30 10249 C 979.918 1.03739 -1.21286 0
M  V30 10250 C 980.118 2.01353 -0.0769875 0
M  V30 10251 O 979.174 2.45978 0.570193 0
M  V30 10252 C 980.487 1.59621 -2.54837 0
M  V30 10253 C 982.035 1.71683 -2.61713 0
M  V30 10254 C 982.51 2.30973 -3.95494 0
M  V30 10255 N 984.001 2.38378 -3.97153 0
M  V30 10256 C 984.736 2.852 -4.97442 0
M  V30 10257 N 984.232 3.31891 -6.08129 0
M  V30 10258 N 986.025 2.84441 -4.84819 0
M  V30 10259 H 978.176 0.0840456 -2.12234 0
M  V30 10260 H 980.439 0.0999038 -0.942721 0
M  V30 10261 H 980.145 0.953608 -3.38525 0
M  V30 10262 H 980.019 2.58375 -2.74813 0
M  V30 10263 H 982.406 2.35064 -1.78406 0
M  V30 10264 H 982.487 0.715714 -2.45583 0
M  V30 10265 H 982.131 1.68219 -4.79234 0
M  V30 10266 H 982.061 3.31769 -4.08946 0
M  V30 10267 H 984.552 2.05382 -3.17217 0
M  V30 10268 H 984.865 3.66138 -6.8056 0
M  V30 10269 H 983.21 3.2989 -6.11717 0
M  V30 10270 H 986.401 2.4729 -3.97448 0
M  V30 10271 H 986.574 3.20616 -5.63124 0
M  V30 10272 N 979.98 1.24838 0.961938 0
M  V30 10273 C 981.226 1.09313 1.70817 0
M  V30 10274 C 981.559 -0.366244 1.90715 0
M  V30 10275 O 980.834 -1.27036 1.47282 0
M  V30 10276 C 981.117 1.83988 3.09549 0
M  V30 10277 C 980.97 3.3771 2.97106 0
M  V30 10278 C 982.289 1.61718 4.09311 0
M  V30 10279 H 979.408 0.398498 0.619974 0
M  V30 10280 H 982.05 1.53579 1.11864 0
M  V30 10281 H 980.2 1.46363 3.59875 0
M  V30 10282 H 981.872 3.84967 2.54161 0
M  V30 10283 H 980.115 3.65795 2.33187 0
M  V30 10284 H 980.786 3.85166 3.95412 0
M  V30 10285 H 983.262 1.94458 3.67866 0
M  V30 10286 H 982.138 2.16415 5.04436 0
M  V30 10287 H 982.399 0.55677 4.3858 0
M  V30 10288 N 981.458 -1.16348 1.06306 0
M  V30 10289 C 982.683 -1.91323 0.800636 0
M  V30 10290 C 983.108 -1.7691 -0.639105 0
M  V30 10291 O 982.466 -1.0945 -1.44535 0
M  V30 10292 C 982.514 -3.40038 1.20027 0
M  V30 10293 O 981.618 -4.11003 0.339142 0
M  V30 10294 H 980.959 -0.596057 0.292595 0
M  V30 10295 H 983.489 -1.47406 1.41889 0
M  V30 10296 H 983.499 -3.90808 1.17188 0
M  V30 10297 H 982.174 -3.49848 2.24898 0
M  V30 10298 H 980.751 -3.70423 0.42911 0
M  V30 10299 N 982.937 -0.845659 -1.3299 0
M  V30 10300 C 984.183 -0.445311 -1.9785 0
M  V30 10301 C 984.516 0.994476 -1.66805 0
M  V30 10302 O 983.791 1.69636 -0.95151 0
M  V30 10303 C 984.074 -0.674371 -3.53729 0
M  V30 10304 C 983.927 -2.16192 -3.94437 0
M  V30 10305 C 985.246 -0.124908 -4.39923 0
M  V30 10306 H 982.365 -0.163269 -0.718688 0
M  V30 10307 H 985.007 -1.06242 -1.5752 0
M  V30 10308 H 983.157 -0.149091 -3.88214 0
M  V30 10309 H 984.829 -2.75259 -3.70176 0
M  V30 10310 H 983.072 -2.64386 -3.43922 0
M  V30 10311 H 983.743 -2.27292 -5.03033 0
M  V30 10312 H 986.219 -0.573986 -4.12122 0
M  V30 10313 H 985.095 -0.314816 -5.47996 0
M  V30 10314 H 985.356 0.971758 -4.31288 0
M  V30 10315 N 984.415 1.45619 -0.602734 0
M  V30 10316 C 985.325 2.34288 0.120902 0
M  V30 10317 C 986.341 1.50952 0.865414 0
M  V30 10318 O 987.517 1.83768 0.824094 0
M  V30 10319 C 984.582 3.28489 1.10888 0
M  V30 10320 C 983.643 4.2773 0.366853 0
M  V30 10321 C 982.876 5.17429 1.30776 0
M  V30 10322 O 983.099 5.10459 2.54535 0
M  V30 10323 O 982.033 5.96459 0.807464 0
M  V30 10324 H 985.859 2.97559 -0.60765 0
M  V30 10325 H 983.444 1.44922 -0.363019 0
M  V30 10326 H 985.326 3.86549 1.67803 0
M  V30 10327 H 984.001 2.67789 1.81854 0
M  V30 10328 H 982.908 3.73299 -0.244643 0
M  V30 10329 H 984.241 4.91271 -0.302226 0
M  V30 10330 N 985.893 0.34162 1.53853 0
M  V30 10331 C 986.823 -0.508431 2.27897 0
M  V30 10332 C 987.804 -1.10425 1.29384 0
M  V30 10333 O 988.989 -1.126 1.58224 0
M  V30 10334 C 986.119 -1.66048 3.05034 0
M  V30 10335 C 985.073 -1.19309 4.11035 0
M  V30 10336 C 984.399 -2.4335 4.76114 0
M  V30 10337 C 985.699 -0.294952 5.21467 0
M  V30 10338 H 987.393 0.109251 2.99201 0
M  V30 10339 H 984.939 0.0539847 1.43899 0
M  V30 10340 H 986.892 -2.26158 3.5557 0
M  V30 10341 H 985.616 -2.30503 2.31379 0
M  V30 10342 H 984.275 -0.614809 3.61408 0
M  V30 10343 H 983.923 -3.06208 3.99056 0
M  V30 10344 H 983.623 -2.1276 5.47729 0
M  V30 10345 H 985.147 -3.0419 5.29434 0
M  V30 10346 H 986.561 -0.80285 5.67651 0
M  V30 10347 H 984.958 -0.0810221 6.00045 0
M  V30 10348 H 986.028 0.669433 4.80257 0
M  V30 10349 N 987.371 -1.57444 0.0701946 0
M  V30 10350 C 988.599 -1.97754 -0.608358 0
M  V30 10351 C 989.014 -0.948496 -1.63245 0
M  V30 10352 O 988.371 0.065046 -1.82384 0
M  V30 10353 C 988.422 -3.38142 -1.27836 0
M  V30 10354 O 988.143 -4.37104 -0.295255 0
M  V30 10355 C 989.644 -3.93318 -2.04489 0
M  V30 10356 H 986.864 -0.650398 -0.164997 0
M  V30 10357 H 989.408 -2.04006 0.142124 0
M  V30 10358 H 987.563 -3.32982 -1.97994 0
M  V30 10359 H 987.977 -5.18732 -0.77574 0
M  V30 10360 H 989.451 -4.93774 -2.46762 0
M  V30 10361 H 989.928 -3.29774 -2.90079 0
M  V30 10362 H 990.534 -4.01875 -1.39201 0
M  V30 10363 N 988.849 0.203349 -1.56283 0
M  V30 10364 C 989.797 1.27157 -1.94766 0
M  V30 10365 C 990.791 1.4756 -0.832005 0
M  V30 10366 O 991.997 1.48519 -1.01696 0
M  V30 10367 H 988.372 0.426712 -0.61921 0
M  V30 10368 H 990.343 0.919921 -2.83866 0
M  V30 10369 C 989.092 2.6108 -2.29636 0
M  V30 10370 H 988.415 2.46193 -3.15006 0
M  V30 10371 H 989.855 3.34591 -2.60433 0
M  V30 10372 C 988.314 3.17456 -1.12799 0
M  V30 10373 O 988.844 3.99717 -0.398661 0
M  V30 10374 N 987.05 2.76084 -0.906975 0
M  V30 10375 H 986.597 2.09294 -1.50179 0
M  V30 10376 H 986.555 3.14143 -0.127005 0
M  V30 10377 N 990.327 1.50405 0.470755 0
M  V30 10378 C 991.552 1.65442 1.25075 0
M  V30 10379 C 991.977 0.337612 1.85045 0
M  V30 10380 O 991.335 -0.698555 1.67302 0
M  V30 10381 C 991.383 2.74793 2.33498 0
M  V30 10382 O 990.487 2.36069 3.3815 0
M  V30 10383 H 989.828 0.552728 0.367951 0
M  V30 10384 H 992.358 1.96782 0.560177 0
M  V30 10385 H 992.368 2.97879 2.78804 0
M  V30 10386 H 991.043 3.70363 1.8922 0
M  V30 10387 H 989.62 2.2343 2.98552 0
M  V30 10388 N 991.805 -0.723954 1.39988 0
M  V30 10389 C 992.735 -1.85103 1.42335 0
M  V30 10390 C 993.716 -1.6769 0.285297 0
M  V30 10391 O 994.901 -1.87846 0.492716 0
M  V30 10392 C 992.031 -3.22972 1.27697 0
M  V30 10393 C 990.985 -3.55041 2.39018 0
M  V30 10394 C 990.311 -4.91965 2.09462 0
M  V30 10395 C 991.611 -3.56889 3.8135 0
M  V30 10396 H 993.305 -1.83396 2.36656 0
M  V30 10397 H 990.851 -0.880926 1.13911 0
M  V30 10398 H 992.804 -4.01503 1.27958 0
M  V30 10399 H 991.528 -3.25233 0.298487 0
M  V30 10400 H 990.187 -2.78845 2.37993 0
M  V30 10401 H 989.835 -4.90819 1.10025 0
M  V30 10402 H 989.535 -5.14389 2.84038 0
M  V30 10403 H 991.059 -5.7284 2.11391 0
M  V30 10404 H 992.473 -4.25476 3.84243 0
M  V30 10405 H 990.87 -3.90836 4.55376 0
M  V30 10406 H 991.94 -2.56452 4.11534 0
M  V30 10407 N 993.283 -1.25346 -0.955304 0
M  V30 10408 C 994.53 -1.10055 -1.69983 0
M  V30 10409 C 994.858 0.358586 -1.91166 0
M  V30 10410 O 994.113 1.28071 -1.47974 0
M  V30 10411 C 994.412 -1.7993 -3.08804 0
M  V30 10412 C 994.078 -3.29851 -3.07424 0
M  V30 10413 C 992.74 -3.7075 -3.06754 0
M  V30 10414 C 995.092 -4.25636 -3.00805 0
M  V30 10415 C 992.42 -5.05847 -2.97214 0
M  V30 10416 C 994.772 -5.60756 -2.92806 0
M  V30 10417 C 993.436 -6.00984 -2.90472 0
M  V30 10418 H 992.706 -0.402718 -0.622012 0
M  V30 10419 H 995.353 -1.5561 -1.11614 0
M  V30 10420 H 993.658 -1.26803 -3.70713 0
M  V30 10421 H 995.355 -1.65551 -3.65231 0
M  V30 10422 H 991.945 -2.97308 -3.08716 0
M  V30 10423 H 996.129 -3.9503 -3.00441 0
M  V30 10424 H 991.385 -5.36196 -2.93775 0
M  V30 10425 H 995.559 -6.34671 -2.86645 0
M  V30 10426 H 993.186 -7.05626 -2.82835 0
M  V30 10427 N 994.761 1.15782 -1.06922 0
M  V30 10428 C 995.708 2.2038 -0.685659 0
M  V30 10429 C 996.678 1.62972 0.320816 0
M  V30 10430 O 997.863 1.8966 0.208258 0
M  V30 10431 C 995.003 3.44995 -0.084998 0
M  V30 10432 C 994.116 4.16621 -1.14242 0
M  V30 10433 C 993.251 5.28773 -0.507226 0
M  V30 10434 C 992.29 5.92209 -1.54774 0
M  V30 10435 N 991.427 6.9584 -0.935443 0
M  V30 10436 H 996.267 2.5254 -1.58201 0
M  V30 10437 H 993.804 1.24031 -0.790864 0
M  V30 10438 H 995.762 4.16254 0.280845 0
M  V30 10439 H 994.392 3.13365 0.774725 0
M  V30 10440 H 993.444 3.43903 -1.62589 0
M  V30 10441 H 994.756 4.59884 -1.93154 0
M  V30 10442 H 993.91 6.06635 -0.0887719 0
M  V30 10443 H 992.649 4.8669 0.313704 0
M  V30 10444 H 991.654 5.13063 -1.97602 0
M  V30 10445 H 992.879 6.3637 -2.37088 0
M  V30 10446 H 990.825 6.5586 -0.135339 0
M  V30 10447 H 990.742 7.37508 -1.66186 0
M  V30 10448 H 992.01 7.77611 -0.542346 0
M  V30 10449 N 996.239 0.8527 1.3254 0
M  V30 10450 C 997.189 0.267711 2.26423 0
M  V30 10451 C 998.173 -0.585305 1.49877 0
M  V30 10452 O 999.365 -0.435008 1.71571 0
M  V30 10453 C 996.494 -0.544605 3.38953 0
M  V30 10454 C 995.58 0.32069 4.22886 0
M  V30 10455 N 995.971 1.40601 4.85865 0
M  V30 10456 C 994.269 0.110101 4.45864 0
M  V30 10457 C 994.97 1.93819 5.48461 0
M  V30 10458 N 993.946 1.23764 5.29324 0
M  V30 10459 H 997.748 1.09747 2.7264 0
M  V30 10460 H 995.262 0.698607 1.46606 0
M  V30 10461 H 997.259 -0.98009 4.05216 0
M  V30 10462 H 995.919 -1.37218 2.94281 0
M  V30 10463 H 996.93 1.78894 4.86022 0
M  V30 10464 H 993.607 -0.682917 4.11877 0
M  V30 10465 H 994.997 2.84783 6.08562 0
M  V30 10466 N 997.718 -1.45297 0.610449 0
M  V30 10467 C 998.995 -1.95562 0.0386189 0
M  V30 10468 C 999.375 -1.55284 -1.43004 0
M  V30 10469 O 998.723 -0.816785 -2.13403 0
M  V30 10470 C 998.933 -3.48176 0.239731 0
M  V30 10471 C 1000.28 -4.24425 0.122035 0
M  V30 10472 O 1001.3 -3.55794 0.170003 0
M  V30 10473 O 1000.16 -5.46499 0.00953695 0
M  V30 10474 H 997.258 -0.826296 -0.0341081 0
M  V30 10475 H 999.804 -1.55449 0.68071 0
M  V30 10476 H 998.576 -3.70471 1.25963 0
M  V30 10477 H 998.199 -3.95186 -0.437486 0
M  V30 10478 N 999.196 -0.349774 -1.5367 0
M  V30 10479 C 1000.61 0.132815 -1.86227 0
M  V30 10480 C 1000.96 1.49479 -1.27084 0
M  V30 10481 O 1000.08 2.08292 -0.58679 0
M  V30 10482 C 1000.68 0.247775 -3.37893 0
M  V30 10483 C 999.237 0.674603 -3.70305 0
M  V30 10484 C 998.384 -0.187869 -2.76663 0
M  V30 10485 H 1001.33 -0.569148 -1.48143 0
M  V30 10486 H 1001.36 1.07418 -3.65023 0
M  V30 10487 H 1000.87 -0.743635 -3.80909 0
M  V30 10488 H 998.969 1.67481 -3.32837 0
M  V30 10489 H 999.082 0.460177 -4.76885 0
M  V30 10490 H 997.446 0.340779 -2.5241 0
M  V30 10491 H 998.229 -1.17653 -3.2251 0
M  V30 10492 N 1000.67 1.57404 -0.0785433 0
M  V30 10493 C 1001.64 2.11977 0.871693 0
M  V30 10494 C 1002.64 1.04529 1.2219 0
M  V30 10495 O 1003.83 1.30488 1.15406 0
M  V30 10496 C 1000.96 2.6267 2.17296 0
M  V30 10497 H 1002.15 2.97246 0.398115 0
M  V30 10498 H 999.705 1.5537 0.170251 0
M  V30 10499 H 1000.44 1.80873 2.69175 0
M  V30 10500 H 1000.22 3.41214 1.93171 0
M  V30 10501 H 1001.71 3.04943 2.85306 0
M  V30 10502 N 1002.15 -0.195058 1.56388 0
M  V30 10503 C 1003.11 -1.2254 1.93692 0
M  V30 10504 C 1004.11 -1.38437 0.81804 0
M  V30 10505 O 1005.3 -1.36248 1.08545 0
M  V30 10506 C 1002.44 -2.59476 2.21099 0
M  V30 10507 H 1003.63 -0.906544 2.8587 0
M  V30 10508 H 1001.18 -0.436577 1.50079 0
M  V30 10509 H 1001.92 -2.96417 1.31558 0
M  V30 10510 H 1001.7 -2.4931 3.02634 0
M  V30 10511 H 1003.19 -3.33777 2.50964 0
M  V30 10512 N 1003.63 -1.50653 -0.462772 0
M  V30 10513 C 1004.88 -1.63264 -1.21311 0
M  V30 10514 C 1005.23 -0.332647 -1.89503 0
M  V30 10515 O 1004.52 0.669994 -1.79504 0
M  V30 10516 C 1004.72 -2.75637 -2.27507 0
M  V30 10517 C 1004.55 -4.16438 -1.69734 0
M  V30 10518 C 1003.32 -4.82727 -1.49341 0
M  V30 10519 C 1005.51 -5.00399 -1.18765 0
M  V30 10520 N 1003.5 -6.07718 -0.868991 0
M  V30 10521 C 1004.87 -6.16182 -0.68697 0
M  V30 10522 C 1006.92 -4.86112 -1.07699 0
M  V30 10523 C 1005.63 -7.19248 -0.0865268 0
M  V30 10524 C 1007.65 -5.89363 -0.490473 0
M  V30 10525 C 1007.01 -7.044 -0.000208479 0
M  V30 10526 H 1003.11 -0.651518 -0.432491 0
M  V30 10527 H 1005.7 -1.878 -0.51375 0
M  V30 10528 H 1003.87 -2.52809 -2.9486 0
M  V30 10529 H 1005.6 -2.77562 -2.94519 0
M  V30 10530 H 1002.35 -4.40161 -1.74801 0
M  V30 10531 H 1002.78 -6.74554 -0.574957 0
M  V30 10532 H 1007.42 -3.97452 -1.44194 0
M  V30 10533 H 1005.14 -8.07577 0.290614 0
M  V30 10534 H 1008.72 -5.80374 -0.407099 0
M  V30 10535 H 1007.6 -7.82928 0.44652 0
M  V30 10536 N 1005.11 0.71652 -1.4037 0
M  V30 10537 C 1006.02 1.86074 -1.42876 0
M  V30 10538 C 1007.03 1.71005 -0.321475 0
M  V30 10539 O 1008.21 1.93286 -0.565909 0
M  V30 10540 C 1005.28 3.21862 -1.28863 0
M  V30 10541 C 1004.34 3.49193 -2.49726 0
M  V30 10542 C 1003.57 4.78502 -2.36372 0
M  V30 10543 O 1003.79 5.53529 -1.37703 0
M  V30 10544 O 1002.73 5.06147 -3.25728 0
M  V30 10545 H 1006.55 1.86916 -2.39366 0
M  V30 10546 H 1004.14 0.866818 -1.21683 0
M  V30 10547 H 1006.02 4.02972 -1.23253 0
M  V30 10548 H 1004.69 3.2175 -0.354783 0
M  V30 10549 H 1003.6 2.68095 -2.60913 0
M  V30 10550 H 1004.93 3.54101 -3.41868 0
M  V30 10551 N 1006.59 1.25851 0.948643 0
M  V30 10552 C 1007.55 1.0683 2.0278 0
M  V30 10553 C 1008.55 0.0191016 1.60789 0
M  V30 10554 O 1009.74 0.261836 1.72221 0
M  V30 10555 C 1006.87 0.623318 3.35153 0
M  V30 10556 H 1008.06 2.02635 2.21086 0
M  V30 10557 H 1005.62 1.08343 1.12657 0
M  V30 10558 H 1006.35 -0.337053 3.22544 0
M  V30 10559 H 1006.14 1.38082 3.66982 0
M  V30 10560 H 1007.63 0.511854 4.14451 0
M  V30 10561 N 1008.06 -1.15214 1.07534 0
M  V30 10562 C 1009.03 -2.18209 0.701237 0
M  V30 10563 C 1010.03 -1.58693 -0.25946 0
M  V30 10564 O 1011.22 -1.74154 -0.0401744 0
M  V30 10565 C 1008.35 -3.40883 0.0338703 0
M  V30 10566 H 1009.54 -2.5282 1.61314 0
M  V30 10567 H 1007.1 -1.29707 0.872105 0
M  V30 10568 H 1007.83 -3.11843 -0.890187 0
M  V30 10569 H 1007.62 -3.85342 0.72486 0
M  V30 10570 H 1009.11 -4.17056 -0.213152 0
M  V30 10571 N 1009.54 -0.859717 -1.32086 0
M  V30 10572 C 1010.47 -0.265258 -2.2766 0
M  V30 10573 C 1011.49 0.565889 -1.52648 0
M  V30 10574 O 1012.68 0.389554 -1.74197 0
M  V30 10575 C 1009.78 0.643397 -3.32737 0
M  V30 10576 C 1008.95 -0.153024 -4.37132 0
M  V30 10577 C 1008.01 0.682176 -5.21759 0
M  V30 10578 O 1007.03 0.113878 -5.69086 0
M  V30 10579 N 1008.24 1.99602 -5.45105 0
M  V30 10580 H 1011 -1.08653 -2.79311 0
M  V30 10581 H 1008.56 -0.720191 -1.45 0
M  V30 10582 H 1010.55 1.20759 -3.86263 0
M  V30 10583 H 1009.12 1.36535 -2.81206 0
M  V30 10584 H 1008.34 -0.898657 -3.8382 0
M  V30 10585 H 1009.63 -0.699877 -5.03963 0
M  V30 10586 H 1009.03 2.481 -5.08393 0
M  V30 10587 H 1007.59 2.50823 -6.01607 0
M  V30 10588 N 1011.02 1.44971 -0.618145 0
M  V30 10589 C 1012.25 2.07039 -0.122395 0
M  V30 10590 C 1012.67 1.45793 1.18853 0
M  V30 10591 O 1012.03 0.55453 1.72611 0
M  V30 10592 C 1012.08 3.60599 -0.0073864 0
M  V30 10593 O 1011.18 3.99069 1.04007 0
M  V30 10594 H 1010.52 0.6593 -0.0788615 0
M  V30 10595 H 1013.05 1.86055 -0.851147 0
M  V30 10596 H 1013.06 4.07569 0.187417 0
M  V30 10597 H 1011.74 4.04561 -0.964544 0
M  V30 10598 H 1010.31 3.63753 0.820879 0
M  V30 10599 N 1012.5 0.357919 1.53482 0
M  V30 10600 C 1013.43 -0.535553 2.21827 0
M  V30 10601 C 1014.41 -1.08904 1.20742 0
M  V30 10602 O 1015.59 -1.14661 1.49616 0
M  V30 10603 C 1012.72 -1.73817 2.90698 0
M  V30 10604 C 1011.77 -1.31283 4.05792 0
M  V30 10605 S 1012.6 -0.320548 5.3454 0
M  V30 10606 C 1013.76 -1.52967 6.0692 0
M  V30 10607 H 1013.99 0.0449045 2.97266 0
M  V30 10608 H 1011.52 0.142009 1.53746 0
M  V30 10609 H 1013.48 -2.42803 3.30994 0
M  V30 10610 H 1012.14 -2.28987 2.14998 0
M  V30 10611 H 1011.33 -2.20989 4.52968 0
M  V30 10612 H 1010.94 -0.702275 3.67347 0
M  V30 10613 H 1013.23 -2.46191 6.31186 0
M  V30 10614 H 1014.17 -1.09943 6.99513 0
M  V30 10615 H 1014.58 -1.73224 5.37265 0
M  V30 10616 N 1013.98 -1.5736 0.0868897 0
M  V30 10617 C 1015.23 -1.93229 -0.578387 0
M  V30 10618 C 1015.54 -0.970127 -1.69847 0
M  V30 10619 O 1016.74 -1.22222 -2.42434 0
M  V30 10620 C 1015.2 -3.43307 -1.0802 0
M  V30 10621 C 1014.81 -4.47999 0.00968135 0
M  V30 10622 C 1016.55 -3.88151 -1.71868 0
M  V30 10623 C 1014.46 -5.89223 -0.507029 0
M  V30 10624 H 1013.39 -0.721245 -0.219823 0
M  V30 10625 H 1016.04 -1.82787 0.161566 0
M  V30 10626 H 1014.42 -3.48873 -1.87359 0
M  V30 10627 H 1015.6 -4.54067 0.784865 0
M  V30 10628 H 1013.91 -4.12714 0.552845 0
M  V30 10629 H 1016.51 -4.91056 -2.11585 0
M  V30 10630 H 1016.85 -3.26347 -2.58464 0
M  V30 10631 H 1017.38 -3.85252 -0.991259 0
M  V30 10632 H 1014.12 -6.54708 0.322121 0
M  V30 10633 H 1013.64 -5.86643 -1.2494 0
M  V30 10634 H 1015.32 -6.39556 -0.978628 0
M  V30 10635 N 1015.45 0.186762 -1.56489 0
M  V30 10636 C 1016.87 0.750675 -1.70944 0
M  V30 10637 C 1017.22 1.83483 -0.694858 0
M  V30 10638 O 1016.34 2.159 0.147009 0
M  V30 10639 C 1016.94 1.36843 -3.09934 0
M  V30 10640 C 1015.5 1.87934 -3.26125 0
M  V30 10641 C 1014.64 0.75242 -2.66897 0
M  V30 10642 H 1017.59 -0.0384292 -1.58653 0
M  V30 10643 H 1017.61 2.23795 -3.07727 0
M  V30 10644 H 1017.13 0.579135 -3.83755 0
M  V30 10645 H 1015.23 2.69556 -2.57235 0
M  V30 10646 H 1015.34 2.0354 -4.33715 0
M  V30 10647 H 1013.7 1.16888 -2.26295 0
M  V30 10648 H 1014.49 -0.0247769 -3.43291 0
M  V30 10649 N 1016.93 1.50896 0.454776 0
M  V30 10650 C 1018.18 1.61936 1.20248 0
M  V30 10651 C 1018.49 0.332983 1.92745 0
M  V30 10652 O 1019.7 0.322512 2.69578 0
M  V30 10653 C 1018.16 2.85916 2.18587 0
M  V30 10654 C 1017.76 4.21492 1.51818 0
M  V30 10655 C 1019.51 3.06307 2.93898 0
M  V30 10656 C 1017.42 5.3664 2.48539 0
M  V30 10657 H 1016.35 0.603098 0.452536 0
M  V30 10658 H 1019 1.77345 0.471257 0
M  V30 10659 H 1017.38 2.64101 2.95071 0
M  V30 10660 H 1018.55 4.53623 0.810123 0
M  V30 10661 H 1016.87 4.06837 0.887265 0
M  V30 10662 H 1019.46 3.89507 3.66317 0
M  V30 10663 H 1019.81 2.18683 3.54236 0
M  V30 10664 H 1020.34 3.2838 2.24525 0
M  V30 10665 H 1017.08 6.26469 1.92916 0
M  V30 10666 H 1016.6 5.08907 3.17449 0
M  V30 10667 H 1018.28 5.67881 3.10033 0
M  V30 10668 N 1018.41 -0.709066 1.40748 0
M  V30 10669 C 1019.36 -1.84445 1.41714 0
M  V30 10670 C 1020.35 -1.66779 0.296818 0
M  V30 10671 O 1021.56 -1.73805 0.468181 0
M  V30 10672 H 1017.93 -0.607581 0.443114 0
M  V30 10673 H 1019.9 -1.80747 2.3743 0
M  V30 10674 C 1018.65 -3.22362 1.303 0
M  V30 10675 H 1017.98 -3.36565 2.15787 0
M  V30 10676 H 1019.42 -4.01922 1.35036 0
M  V30 10677 C 1017.88 -3.36897 0.0139015 0
M  V30 10678 O 1018.41 -3.90389 -0.946553 0
M  V30 10679 N 1016.61 -2.90543 -0.0577491 0
M  V30 10680 H 1016.16 -2.472 0.724574 0
M  V30 10681 H 1016.12 -3.00647 -0.919721 0
M  V30 10682 N 1019.89 -1.26353 -0.941956 0
M  V30 10683 C 1020.8 -1.09618 -2.07415 0
M  V30 10684 C 1021.82 -0.0298963 -1.73974 0
M  V30 10685 O 1022.99 -0.233466 -2.00042 0
M  V30 10686 C 1020.06 -0.73013 -3.38925 0
M  V30 10687 C 1019.12 -1.87574 -3.86153 0
M  V30 10688 C 1018.35 -1.52706 -5.11387 0
M  V30 10689 O 1018.57 -0.428438 -5.68789 0
M  V30 10690 O 1017.51 -2.36154 -5.53638 0
M  V30 10691 H 1021.33 -2.04598 -2.2444 0
M  V30 10692 H 1018.92 -1.05407 -1.05876 0
M  V30 10693 H 1020.8 -0.538684 -4.17943 0
M  V30 10694 H 1019.48 0.190282 -3.2314 0
M  V30 10695 H 1018.38 -2.12214 -3.08084 0
M  V30 10696 H 1019.72 -2.77585 -4.06457 0
M  V30 10697 N 1021.37 1.14642 -1.08144 0
M  V30 10698 C 1022.78 1.6719 -0.830923 0
M  V30 10699 C 1023.13 1.85373 0.642749 0
M  V30 10700 O 1022.25 1.56293 1.49671 0
M  V30 10701 C 1022.85 3.03697 -1.50179 0
M  V30 10702 C 1021.41 3.5329 -1.29858 0
M  V30 10703 C 1020.56 2.28828 -1.5663 0
M  V30 10704 H 1023.51 0.987441 -1.24239 0
M  V30 10705 H 1023.53 3.69023 -0.9275 0
M  V30 10706 H 1023.04 2.90431 -2.57432 0
M  V30 10707 H 1021.14 3.71783 -0.246626 0
M  V30 10708 H 1021.25 4.34231 -2.02436 0
M  V30 10709 H 1019.62 2.34769 -0.987716 0
M  V30 10710 H 1020.4 2.18141 -2.65084 0
M  V30 10711 N 1022.85 0.866709 1.31628 0
M  V30 10712 C 1024.08 0.489679 2.00713 0
M  V30 10713 C 1024.48 -0.921492 1.65243 0
M  V30 10714 O 1023.83 -1.61467 0.876012 0
M  V30 10715 C 1023.89 0.563148 3.55062 0
M  V30 10716 C 1023.55 1.93535 4.13996 0
M  V30 10717 C 1024.55 2.90243 4.31341 0
M  V30 10718 C 1022.23 2.23578 4.49798 0
M  V30 10719 C 1024.23 4.15138 4.83673 0
M  V30 10720 C 1021.92 3.48723 5.01832 0
M  V30 10721 C 1022.91 4.44319 5.18719 0
M  V30 10722 O 1022.6 5.67247 5.69637 0
M  V30 10723 H 1022.33 0.189605 0.648865 0
M  V30 10724 H 1024.89 1.16874 1.68907 0
M  V30 10725 H 1023.12 -0.172815 3.86314 0
M  V30 10726 H 1024.81 0.200009 4.05407 0
M  V30 10727 H 1025.57 2.6834 4.04003 0
M  V30 10728 H 1021.45 1.49949 4.35932 0
M  V30 10729 H 1025 4.89762 4.96769 0
M  V30 10730 H 1020.89 3.70471 5.28603 0
M  V30 10731 H 1021.66 5.69372 5.88011 0
M  V30 10732 N 1024.32 -1.44642 0.625825 0
M  V30 10733 C 1025.57 -2.01695 0.127948 0
M  V30 10734 C 1025.89 -1.49439 -1.25271 0
M  V30 10735 O 1025.16 -0.695873 -1.83124 0
M  V30 10736 H 1023.74 -0.745685 0.0443096 0
M  V30 10737 H 1026.4 -1.7721 0.811332 0
M  V30 10738 H 1025.5 -3.11966 0.0915933 0
M  V30 10739 N 1025.8 -0.366053 -1.5329 0
M  V30 10740 C 1027.08 0.279902 -1.93587 0
M  V30 10741 C 1027.46 1.66352 -1.29963 0
M  V30 10742 O 1026.81 2.23845 -0.458895 0
M  V30 10743 C 1027.02 0.329634 -3.4744 0
M  V30 10744 C 1028.36 0.569754 -4.2076 0
M  V30 10745 O 1029.39 0.410823 -3.53823 0
M  V30 10746 O 1028.25 0.879262 -5.3938 0
M  V30 10747 H 1025.34 0.16802 -0.809752 0
M  V30 10748 H 1027.89 -0.418871 -1.64449 0
M  V30 10749 H 1026.66 -0.640434 -3.86023 0
M  V30 10750 H 1026.28 1.07428 -3.82812 0
M  V30 10751 N 1027.28 1.57312 -0.0952337 0
M  V30 10752 C 1028.56 1.85822 0.610715 0
M  V30 10753 C 1028.94 0.992114 1.86334 0
M  V30 10754 O 1028.28 0.0645669 2.28409 0
M  V30 10755 C 1028.49 3.36492 0.925967 0
M  V30 10756 C 1029.84 4.0455 1.28936 0
M  V30 10757 O 1030.87 3.41374 1.01698 0
M  V30 10758 O 1029.73 5.16024 1.79949 0
M  V30 10759 H 1026.82 0.768454 0.305626 0
M  V30 10760 H 1029.37 1.69217 -0.127941 0
M  V30 10761 H 1028.14 3.91282 0.0373127 0
M  V30 10762 H 1027.76 3.58443 1.7206 0
M  V30 10763 N 1028.76 -0.17846 1.56586 0
M  V30 10764 C 1029.69 -1.2496 1.90946 0
M  V30 10765 C 1030.67 -1.43136 0.771424 0
M  V30 10766 O 1031.85 -1.58258 1.02405 0
M  V30 10767 C 1028.98 -2.61368 2.15417 0
M  V30 10768 C 1028.03 -2.59969 3.3811 0
M  V30 10769 S 1028.86 -2.09756 4.9271 0
M  V30 10770 C 1030.01 -3.47956 5.20267 0
M  V30 10771 H 1030.25 -0.956287 2.815 0
M  V30 10772 H 1027.78 -0.382709 1.49582 0
M  V30 10773 H 1029.74 -3.39882 2.30197 0
M  V30 10774 H 1028.4 -2.87903 1.25582 0
M  V30 10775 H 1027.59 -3.60309 3.52411 0
M  V30 10776 H 1027.19 -1.89547 3.2241 0
M  V30 10777 H 1029.49 -4.43914 5.11807 0
M  V30 10778 H 1030.43 -3.38536 6.21932 0
M  V30 10779 H 1030.84 -3.43637 4.47855 0
M  V30 10780 N 1030.24 -1.51135 -0.446768 0
M  V30 10781 C 1031.51 -1.5387 -1.20762 0
M  V30 10782 C 1031.89 -0.297446 -2.08994 0
M  V30 10783 O 1031.24 0.717975 -2.16927 0
M  V30 10784 C 1031.45 -2.84767 -2.01764 0
M  V30 10785 C 1032.8 -3.3636 -2.59128 0
M  V30 10786 O 1033.82 -2.86254 -2.11984 0
M  V30 10787 O 1032.68 -4.23765 -3.45088 0
M  V30 10788 H 1029.78 -0.618228 -0.549293 0
M  V30 10789 H 1032.32 -1.63442 -0.456605 0
M  V30 10790 H 1031.09 -3.6657 -1.36901 0
M  V30 10791 H 1030.72 -2.78313 -2.8395 0
M  V30 10792 N 1031.71 0.701592 -1.41122 0
M  V30 10793 C 1032.68 1.79733 -1.42227 0
M  V30 10794 C 1033.68 1.57708 -0.313831 0
M  V30 10795 O 1034.87 1.64492 -0.573423 0
M  V30 10796 C 1032 3.18024 -1.22775 0
M  V30 10797 H 1033.19 1.80148 -2.39764 0
M  V30 10798 H 1030.74 0.908624 -1.27176 0
M  V30 10799 H 1031.48 3.23252 -0.260552 0
M  V30 10800 H 1031.26 3.35411 -2.0308 0
M  V30 10801 H 1032.75 3.98021 -1.2637 0
M  V30 10802 N 1033.19 1.2685 0.935242 0
M  V30 10803 C 1034.42 1.15538 1.71635 0
M  V30 10804 C 1034.83 -0.288698 1.8658 0
M  V30 10805 O 1034.19 -1.19721 1.37743 0
M  V30 10806 C 1034.24 1.8259 3.11999 0
M  V30 10807 O 1033.96 3.21355 2.97763 0
M  V30 10808 C 1035.46 1.77307 4.06297 0
M  V30 10809 H 1032.68 0.402055 0.537208 0
M  V30 10810 H 1035.23 1.67582 1.17203 0
M  V30 10811 H 1033.38 1.3447 3.63313 0
M  V30 10812 H 1033.8 3.54626 3.86446 0
M  V30 10813 H 1035.27 2.28851 5.02326 0
M  V30 10814 H 1035.75 0.740823 4.32907 0
M  V30 10815 H 1036.35 2.25007 3.60904 0
M  V30 10816 N 1034.67 -1.14067 1.0875 0
M  V30 10817 C 1035.9 -1.88767 0.839682 0
M  V30 10818 C 1036.31 -1.79024 -0.612119 0
M  V30 10819 O 1035.65 -1.14986 -1.43262 0
M  V30 10820 C 1035.71 -3.39333 1.18716 0
M  V30 10821 C 1035.38 -3.72858 2.64245 0
M  V30 10822 C 1036.37 -3.72683 3.62496 0
M  V30 10823 C 1034.06 -4.0273 3.0019 0
M  V30 10824 C 1036.05 -4.01909 4.9472 0
M  V30 10825 C 1033.74 -4.31618 4.32607 0
M  V30 10826 C 1034.74 -4.31192 5.29682 0
M  V30 10827 O 1034.43 -4.59377 6.59718 0
M  V30 10828 H 1034.16 -0.604665 0.302253 0
M  V30 10829 H 1036.71 -1.45364 1.45115 0
M  V30 10830 H 1034.94 -3.83205 0.518707 0
M  V30 10831 H 1036.63 -3.95346 0.919599 0
M  V30 10832 H 1037.4 -3.49688 3.3607 0
M  V30 10833 H 1033.28 -4.02213 2.25268 0
M  V30 10834 H 1036.82 -4.01491 5.70483 0
M  V30 10835 H 1032.72 -4.54083 4.58779 0
M  V30 10836 H 1033.49 -4.77078 6.65086 0
M  V30 10837 N 1036.15 -0.873678 -1.31166 0
M  V30 10838 C 1037.56 -0.566109 -1.49223 0
M  V30 10839 C 1037.76 0.898889 -1.80339 0
M  V30 10840 O 1036.82 1.68084 -1.88425 0
M  V30 10841 C 1038.13 -1.46952 -2.62346 0
M  V30 10842 C 1039.68 -1.47195 -2.76229 0
M  V30 10843 C 1040.16 -2.36102 -3.92454 0
M  V30 10844 N 1041.65 -2.34003 -3.99746 0
M  V30 10845 C 1042.38 -2.99513 -4.88958 0
M  V30 10846 N 1041.88 -3.74206 -5.83045 0
M  V30 10847 N 1043.67 -2.88802 -4.82234 0
M  V30 10848 H 1035.82 -1.82156 -1.09239 0
M  V30 10849 H 1038.09 -0.779086 -0.54012 0
M  V30 10850 H 1037.79 -2.51213 -2.4614 0
M  V30 10851 H 1037.67 -1.17077 -3.5857 0
M  V30 10852 H 1040.05 -0.436902 -2.91848 0
M  V30 10853 H 1040.13 -1.81095 -1.80661 0
M  V30 10854 H 1039.78 -3.39685 -3.77593 0
M  V30 10855 H 1039.71 -1.99524 -4.87337 0
M  V30 10856 H 1042.2 -1.79713 -3.32433 0
M  V30 10857 H 1042.51 -4.21312 -6.47855 0
M  V30 10858 H 1040.86 -3.78314 -5.83012 0
M  V30 10859 H 1044.05 -2.29984 -4.07707 0
M  V30 10860 H 1044.22 -3.40136 -5.51554 0
M  V30 10861 N 1037.63 1.44308 -0.633487 0
M  V30 10862 C 1039.04 1.85387 -0.221009 0
M  V30 10863 C 1039.39 1.5301 1.22811 0
M  V30 10864 O 1038.51 0.969325 1.93476 0
M  V30 10865 C 1039.11 3.36497 -0.394331 0
M  V30 10866 C 1037.67 3.76382 -0.0363405 0
M  V30 10867 C 1036.81 2.68146 -0.706598 0
M  V30 10868 H 1039.77 1.34741 -0.83849 0
M  V30 10869 H 1039.79 3.78735 0.366026 0
M  V30 10870 H 1039.3 3.60031 -1.44911 0
M  V30 10871 H 1037.4 3.58463 1.01661 0
M  V30 10872 H 1037.51 4.77 -0.448045 0
M  V30 10873 H 1035.88 2.54306 -0.14168 0
M  V30 10874 H 1036.66 2.94512 -1.76401 0
M  V30 10875 N 1039.1 0.374177 1.53094 0
M  V30 10876 C 1040.04 -0.511995 2.22382 0
M  V30 10877 C 1041.02 -1.07617 1.2189 0
M  V30 10878 O 1042.2 -1.13068 1.50824 0
M  V30 10879 C 1039.33 -1.70724 2.92525 0
M  V30 10880 C 1038.37 -1.26972 4.07161 0
M  V30 10881 S 1039.21 -0.263835 5.3485 0
M  V30 10882 C 1040.36 -1.46521 6.08508 0
M  V30 10883 H 1040.59 0.0764311 2.97202 0
M  V30 10884 H 1038.13 0.158307 1.53586 0
M  V30 10885 H 1040.09 -2.39279 3.3355 0
M  V30 10886 H 1038.75 -2.26693 2.17414 0
M  V30 10887 H 1037.94 -2.16172 4.55286 0
M  V30 10888 H 1037.54 -0.663273 3.68072 0
M  V30 10889 H 1039.83 -2.39483 6.33762 0
M  V30 10890 H 1040.78 -1.02517 7.0064 0
M  V30 10891 H 1041.18 -1.67516 5.39072 0
M  V30 10892 N 1040.58 -1.57259 0.103575 0
M  V30 10893 C 1041.81 -1.98711 -0.565454 0
M  V30 10894 C 1042.22 -0.981759 -1.61735 0
M  V30 10895 O 1041.56 0.0357019 -1.83665 0
M  V30 10896 C 1041.63 -3.36552 -1.26384 0
M  V30 10897 C 1041.29 -4.55566 -0.361714 0
M  V30 10898 C 1042.29 -5.18408 0.393539 0
M  V30 10899 C 1039.97 -5.01534 -0.277292 0
M  V30 10900 C 1041.97 -6.25594 1.2211 0
M  V30 10901 C 1039.65 -6.08584 0.553919 0
M  V30 10902 C 1040.65 -6.7048 1.30176 0
M  V30 10903 O 1040.34 -7.75464 2.1192 0
M  V30 10904 H 1040.07 -0.657853 -0.155582 0
M  V30 10905 H 1042.62 -2.04591 0.182089 0
M  V30 10906 H 1040.85 -3.2738 -2.05813 0
M  V30 10907 H 1042.54 -3.62395 -1.82824 0
M  V30 10908 H 1043.31 -4.8382 0.338098 0
M  V30 10909 H 1039.19 -4.53114 -0.849047 0
M  V30 10910 H 1042.73 -6.73836 1.80531 0
M  V30 10911 H 1038.63 -6.42604 0.610809 0
M  V30 10912 H 1039.4 -7.92491 2.04694 0
M  V30 10913 N 1042.06 0.170153 -1.56679 0
M  V30 10914 C 1043.29 0.90618 -1.86556 0
M  V30 10915 C 1043.71 1.74986 -0.690044 0
M  V30 10916 O 1043.07 1.77672 0.360862 0
M  V30 10917 C 1043.12 1.75777 -3.14857 0
M  V30 10918 O 1042.22 2.85952 -2.97162 0
M  V30 10919 H 1041.56 0.253781 -0.613589 0
M  V30 10920 H 1044.09 0.167943 -2.0391 0
M  V30 10921 H 1044.1 2.15747 -3.46291 0
M  V30 10922 H 1042.78 1.13807 -4.00026 0
M  V30 10923 H 1041.35 2.49557 -2.77084 0
M  V30 10924 N 1043.54 1.5137 0.438746 0
M  V30 10925 C 1044.76 1.68058 1.21537 0
M  V30 10926 C 1045.19 0.376787 1.84288 0
M  V30 10927 O 1044.55 -0.662911 1.68746 0
M  V30 10928 C 1044.59 2.79684 2.27616 0
M  V30 10929 O 1043.7 2.43189 3.33066 0
M  V30 10930 H 1043.04 0.560408 0.356144 0
M  V30 10931 H 1045.57 1.97926 0.518311 0
M  V30 10932 H 1045.58 3.03726 2.72423 0
M  V30 10933 H 1044.25 3.74293 1.81321 0
M  V30 10934 H 1042.83 2.29713 2.93746 0
M  V30 10935 N 1045.02 -0.694098 1.41492 0
M  V30 10936 C 1046.29 -1.44875 1.31418 0
M  V30 10937 C 1046.67 -2.11022 -0.0575538 0
M  V30 10938 O 1046.02 -2.01799 -1.07188 0
M  V30 10939 C 1046.23 -2.46698 2.46863 0
M  V30 10940 C 1047.58 -3.11907 2.88095 0
M  V30 10941 O 1048.6 -2.57022 2.46613 0
M  V30 10942 O 1047.46 -4.11318 3.59833 0
M  V30 10943 H 1044.56 -0.645266 0.517263 0
M  V30 10944 H 1047.1 -0.724452 1.53459 0
M  V30 10945 H 1045.87 -1.96485 3.38392 0
M  V30 10946 H 1045.5 -3.26634 2.26706 0
M  V30 10947 N 1046.49 -1.27344 -0.928501 0
M  V30 10948 C 1047.74 -1.13804 -1.67859 0
M  V30 10949 C 1048.07 0.31555 -1.91619 0
M  V30 10950 O 1047.35 1.23087 -1.50599 0
M  V30 10951 C 1047.63 -1.9213 -3.04562 0
M  V30 10952 C 1047.48 -3.45468 -2.88048 0
M  V30 10953 C 1048.8 -1.72513 -4.04879 0
M  V30 10954 H 1045.92 -0.414796 -0.609191 0
M  V30 10955 H 1048.56 -1.5649 -1.07753 0
M  V30 10956 H 1046.71 -1.55853 -3.55868 0
M  V30 10957 H 1048.39 -3.9157 -2.43865 0
M  V30 10958 H 1046.63 -3.71849 -2.23407 0
M  V30 10959 H 1047.3 -3.95515 -3.85061 0
M  V30 10960 H 1049.78 -2.04143 -3.62581 0
M  V30 10961 H 1048.65 -2.29713 -4.98521 0
M  V30 10962 H 1048.91 -0.672856 -4.3695 0
M  V30 10963 N 1047.97 1.13488 -1.09353 0
M  V30 10964 C 1049.38 1.66299 -0.848609 0
M  V30 10965 C 1049.73 1.86044 0.623051 0
M  V30 10966 O 1048.86 1.57871 1.48005 0
M  V30 10967 C 1049.45 3.02087 -1.53391 0
M  V30 10968 C 1048.01 3.51893 -1.33598 0
M  V30 10969 C 1047.16 2.27154 -1.59048 0
M  V30 10970 H 1050.11 0.974208 -1.25279 0
M  V30 10971 H 1050.13 3.68018 -0.966587 0
M  V30 10972 H 1049.64 2.87684 -2.60498 0
M  V30 10973 H 1047.75 3.715 -0.286045 0
M  V30 10974 H 1047.86 4.32059 -2.0703 0
M  V30 10975 H 1046.22 2.33708 -1.01256 0
M  V30 10976 H 1047.01 2.15317 -2.67383 0
M  V30 10977 N 1049.45 0.880621 1.30701 0
M  V30 10978 C 1050.38 0.360251 2.30704 0
M  V30 10979 C 1051.36 -0.554572 1.60806 0
M  V30 10980 O 1052.55 -0.469345 1.88443 0
M  V30 10981 C 1049.68 -0.429888 3.44629 0
M  V30 10982 C 1048.63 0.392786 4.26194 0
M  V30 10983 C 1047.96 -0.52369 5.32129 0
M  V30 10984 C 1049.26 1.63258 4.96129 0
M  V30 10985 H 1050.95 1.19591 2.74478 0
M  V30 10986 H 1048.5 0.576508 1.31956 0
M  V30 10987 H 1050.45 -0.804532 4.13649 0
M  V30 10988 H 1049.17 -1.29916 2.99649 0
M  V30 10989 H 1047.83 0.749514 3.58856 0
M  V30 10990 H 1047.48 -1.39054 4.83397 0
M  V30 10991 H 1047.18 0.0229272 5.87596 0
M  V30 10992 H 1048.71 -0.894946 6.04006 0
M  V30 10993 H 1050.12 1.32877 5.57689 0
M  V30 10994 H 1048.52 2.11906 5.61441 0
M  V30 10995 H 1049.59 2.37944 4.22505 0
M  V30 10996 N 1050.93 -1.4397 0.641131 0
M  V30 10997 C 1052.21 -1.95436 0.0800918 0
M  V30 10998 C 1052.59 -1.58282 -1.39678 0
M  V30 10999 O 1051.93 -0.861867 -2.11623 0
M  V30 11000 C 1052.14 -3.47589 0.313531 0
M  V30 11001 C 1053.49 -4.2407 0.212034 0
M  V30 11002 O 1054.52 -3.55353 0.245434 0
M  V30 11003 O 1053.38 -5.46356 0.125455 0
M  V30 11004 H 1050.47 -0.826834 -0.0165735 0
M  V30 11005 H 1053.02 -1.5397 0.71353 0
M  V30 11006 H 1051.79 -3.67716 1.33793 0
M  V30 11007 H 1051.41 -3.96025 -0.353563 0
M  V30 11008 N 1052.41 -0.382291 -1.52893 0
M  V30 11009 C 1053.82 0.0932841 -1.86467 0
M  V30 11010 C 1054.17 1.4675 -1.30226 0
M  V30 11011 O 1053.29 2.07001 -0.63084 0
M  V30 11012 C 1053.89 0.176048 -3.38342 0
M  V30 11013 C 1052.45 0.595904 -3.71653 0
M  V30 11014 C 1051.6 -0.246511 -2.76202 0
M  V30 11015 H 1054.55 -0.600443 -1.46903 0
M  V30 11016 H 1054.57 0.996512 -3.67219 0
M  V30 11017 H 1054.08 -0.824264 -3.79246 0
M  V30 11018 H 1052.18 1.60384 -3.36315 0
M  V30 11019 H 1052.29 0.358919 -4.77754 0
M  V30 11020 H 1050.66 0.287162 -2.53076 0
M  V30 11021 H 1051.44 -1.24467 -3.19942 0
M  V30 11022 N 1053.89 1.57202 -0.111913 0
M  V30 11023 C 1054.82 2.17957 0.837683 0
M  V30 11024 C 1055.8 1.1176 1.28233 0
M  V30 11025 O 1056.98 1.39967 1.34621 0
M  V30 11026 C 1054.11 2.77333 2.09054 0
M  V30 11027 C 1053.07 3.8905 1.78393 0
M  V30 11028 C 1052.39 4.35203 3.10649 0
M  V30 11029 C 1053.69 5.11477 1.05775 0
M  V30 11030 H 1055.39 2.9756 0.331441 0
M  V30 11031 H 1052.93 1.43131 0.157979 0
M  V30 11032 H 1054.88 3.18492 2.75936 0
M  V30 11033 H 1053.61 1.95009 2.6199 0
M  V30 11034 H 1052.27 3.48456 1.13903 0
M  V30 11035 H 1051.92 3.49747 3.61506 0
M  V30 11036 H 1051.62 5.10534 2.9091 0
M  V30 11037 H 1053.14 4.79007 3.78661 0
M  V30 11038 H 1054.55 5.497 1.62798 0
M  V30 11039 H 1052.95 5.92346 0.961573 0
M  V30 11040 H 1054.02 4.84881 0.043297 0
M  V30 11041 N 1055.36 -0.161842 1.56767 0
M  V30 11042 C 1056.27 -1.21996 2.00385 0
M  V30 11043 C 1057.29 -1.4789 0.916768 0
M  V30 11044 O 1058.47 -1.59852 1.22513 0
M  V30 11045 C 1055.53 -2.53695 2.36305 0
M  V30 11046 C 1054.59 -2.3558 3.58888 0
M  V30 11047 C 1053.82 -3.60998 3.93085 0
M  V30 11048 O 1054.05 -4.6657 3.28129 0
M  V30 11049 O 1052.98 -3.54544 4.86397 0
M  V30 11050 H 1056.81 -0.879701 2.9068 0
M  V30 11051 H 1054.39 -0.369437 1.4476 0
M  V30 11052 H 1056.27 -3.31366 2.60335 0
M  V30 11053 H 1054.95 -2.87281 1.49169 0
M  V30 11054 H 1053.86 -1.55908 3.40064 0
M  V30 11055 H 1055.19 -2.06915 4.46595 0
M  V30 11056 N 1056.84 -1.516 -0.430713 0
M  V30 11057 C 1057.77 -1.68084 -1.54347 0
M  V30 11058 C 1058.75 -0.528401 -1.53775 0
M  V30 11059 O 1059.94 -0.753072 -1.72804 0
M  V30 11060 C 1057.06 -1.70048 -2.92919 0
M  V30 11061 C 1056.11 -2.91336 -3.11489 0
M  V30 11062 S 1056.94 -4.52043 -2.87084 0
M  V30 11063 C 1058.1 -4.56761 -4.27926 0
M  V30 11064 H 1058.33 -2.62203 -1.40131 0
M  V30 11065 H 1055.86 -1.41368 -0.620853 0
M  V30 11066 H 1057.82 -1.71864 -3.72791 0
M  V30 11067 H 1056.48 -0.770946 -3.04492 0
M  V30 11068 H 1055.68 -2.8913 -4.1282 0
M  V30 11069 H 1055.28 -2.87296 -2.39451 0
M  V30 11070 H 1057.57 -4.32809 -5.21232 0
M  V30 11071 H 1058.51 -5.58604 -4.35163 0
M  V30 11072 H 1058.92 -3.86014 -4.1189 0
M  V30 11073 N 1058.32 0.686584 -1.41858 0
M  V30 11074 C 1059.27 1.79271 -1.40875 0
M  V30 11075 C 1060.25 1.58413 -0.281782 0
M  V30 11076 O 1061.45 1.69093 -0.523132 0
M  V30 11077 C 1058.57 3.17647 -1.30213 0
M  V30 11078 C 1057.66 3.44168 -2.47808 0
M  V30 11079 N 1058.05 3.41339 -3.73258 0
M  V30 11080 C 1056.35 3.74755 -2.41815 0
M  V30 11081 C 1057.05 3.67016 -4.51303 0
M  V30 11082 N 1056.03 3.87203 -3.81543 0
M  V30 11083 H 1059.83 1.75459 -2.35778 0
M  V30 11084 H 1057.34 0.886946 -1.36041 0
M  V30 11085 H 1059.34 3.96896 -1.2759 0
M  V30 11086 H 1058 3.22664 -0.363021 0
M  V30 11087 H 1059.01 3.21511 -4.06018 0
M  V30 11088 H 1055.69 3.87089 -1.56423 0
M  V30 11089 H 1057.08 3.70888 -5.6026 0
M  V30 11090 N 1059.8 1.27835 0.921735 0
M  V30 11091 C 1060.73 1.05397 2.02402 0
M  V30 11092 C 1061.71 -0.0274904 1.62577 0
M  V30 11093 O 1062.89 0.11885 1.88125 0
M  V30 11094 C 1060.02 0.600016 3.33343 0
M  V30 11095 C 1059.07 1.67693 3.9215 0
M  V30 11096 S 1059.9 3.27093 4.23994 0
M  V30 11097 C 1061.05 2.83513 5.58006 0
M  V30 11098 H 1061.29 1.98723 2.21125 0
M  V30 11099 H 1058.82 1.11733 1.0656 0
M  V30 11100 H 1060.78 0.344793 4.09049 0
M  V30 11101 H 1059.44 -0.313288 3.12534 0
M  V30 11102 H 1058.63 1.31074 4.86658 0
M  V30 11103 H 1058.23 1.88454 3.2305 0
M  V30 11104 H 1060.53 2.29187 6.37557 0
M  V30 11105 H 1061.47 3.76788 5.9953 0
M  V30 11106 H 1061.88 2.22472 5.18813 0
M  V30 11107 N 1061.28 -1.12907 1.09954 0
M  V30 11108 C 1062.55 -1.80602 0.751148 0
M  V30 11109 C 1062.93 -1.96826 -0.763077 0
M  V30 11110 O 1062.28 -1.54066 -1.68749 0
M  V30 11111 C 1062.49 -3.15289 1.49646 0
M  V30 11112 C 1063.84 -3.9056 1.66578 0
M  V30 11113 O 1064.86 -3.24929 1.45943 0
M  V30 11114 O 1063.72 -5.08292 2.00752 0
M  V30 11115 H 1060.82 -0.781529 0.270446 0
M  V30 11116 H 1063.36 -1.19786 1.20206 0
M  V30 11117 H 1062.13 -2.9874 2.52725 0
M  V30 11118 H 1061.76 -3.83809 1.03808 0
M  V30 11119 N 1062.75 -0.88754 -1.30232 0
M  V30 11120 C 1063.69 -0.300814 -2.26209 0
M  V30 11121 C 1064.66 0.580088 -1.519 0
M  V30 11122 O 1065.85 0.529611 -1.80907 0
M  V30 11123 C 1062.98 0.572336 -3.33829 0
M  V30 11124 C 1062.02 -0.239589 -4.25827 0
M  V30 11125 S 1062.85 -1.62953 -5.10104 0
M  V30 11126 C 1064.01 -0.762979 -6.21232 0
M  V30 11127 H 1064.24 -1.11435 -2.75626 0
M  V30 11128 H 1061.78 -0.687123 -1.38268 0
M  V30 11129 H 1063.73 1.07036 -3.963 0
M  V30 11130 H 1062.4 1.35999 -2.83131 0
M  V30 11131 H 1061.59 0.426854 -5.02189 0
M  V30 11132 H 1061.19 -0.670325 -3.67944 0
M  V30 11133 H 1063.48 0.0189354 -6.77497 0
M  V30 11134 H 1064.43 -1.49829 -6.92067 0
M  V30 11135 H 1064.83 -0.322747 -5.63577 0
M  V30 11136 N 1064.23 1.43628 -0.648757 0
M  V30 11137 C 1065.51 1.95391 -0.0904551 0
M  V30 11138 C 1065.89 1.59021 1.38837 0
M  V30 11139 O 1065.24 0.873078 2.11163 0
M  V30 11140 C 1065.45 3.47418 -0.33196 0
M  V30 11141 C 1066.8 4.23952 -0.234521 0
M  V30 11142 O 1067.82 3.55218 -0.264276 0
M  V30 11143 O 1066.68 5.46282 -0.154428 0
M  V30 11144 H 1063.77 0.82691 0.0121884 0
M  V30 11145 H 1066.32 1.5359 -0.721685 0
M  V30 11146 H 1065.09 3.67001 -1.35741 0
M  V30 11147 H 1064.71 3.96207 0.332556 0
M  V30 11148 N 1065.71 0.390394 1.52688 0
M  V30 11149 C 1066.96 -0.191067 2.01195 0
M  V30 11150 C 1067.28 -1.47229 1.27862 0
M  V30 11151 O 1066.55 -1.91793 0.399007 0
M  V30 11152 H 1065.13 -0.073596 0.743366 0
M  V30 11153 H 1067.79 0.522334 1.8777 0
M  V30 11154 H 1066.89 -0.40051 3.0952 0
M  V30 11155 N 1067.19 -1.57141 0.120249 0
M  V30 11156 C 1068.47 -1.8677 -0.581075 0
M  V30 11157 C 1068.85 -1.02163 -1.84732 0
M  V30 11158 O 1068.19 -0.100897 -2.28277 0
M  V30 11159 C 1068.4 -3.37923 -0.872316 0
M  V30 11160 C 1069.75 -4.0655 -1.22483 0
M  V30 11161 O 1070.78 -3.42948 -0.962539 0
M  V30 11162 O 1069.63 -5.18821 -1.71717 0
M  V30 11163 H 1066.73 -0.773219 -0.293362 0
M  V30 11164 H 1069.27 -1.68992 0.154846 0
M  V30 11165 H 1068.05 -3.91292 0.0249416 0
M  V30 11166 H 1067.67 -3.61135 -1.66335 0
M  V30 11167 N 1068.67 0.153526 -1.5685 0
M  V30 11168 C 1069.9 0.881055 -1.86872 0
M  V30 11169 C 1070.3 1.75547 -0.705692 0
M  V30 11170 O 1069.65 1.8064 0.333888 0
M  V30 11171 C 1069.71 1.79429 -3.11521 0
M  V30 11172 C 1069.37 1.0977 -4.43621 0
M  V30 11173 C 1070.37 0.454693 -5.17908 0
M  V30 11174 C 1068.06 1.08915 -4.9035 0
M  V30 11175 C 1070.05 -0.187562 -6.37124 0
M  V30 11176 C 1067.74 0.443084 -6.09492 0
M  V30 11177 C 1068.73 -0.194154 -6.82724 0
M  V30 11178 O 1068.42 -0.829995 -7.99604 0
M  V30 11179 H 1068.15 0.260486 -0.623797 0
M  V30 11180 H 1070.71 0.153024 -2.04829 0
M  V30 11181 H 1068.94 2.5631 -2.89555 0
M  V30 11182 H 1070.63 2.39321 -3.27842 0
M  V30 11183 H 1071.39 0.453151 -4.82878 0
M  V30 11184 H 1067.27 1.57456 -4.33276 0
M  V30 11185 H 1070.82 -0.685542 -6.94223 0
M  V30 11186 H 1066.71 0.44227 -6.43983 0
M  V30 11187 H 1067.48 -0.731013 -8.15229 0
M  V30 11188 N 1070.14 1.51827 0.422667 0
M  V30 11189 C 1071.56 1.57533 1.00201 0
M  V30 11190 C 1071.91 0.407623 1.91919 0
M  V30 11191 O 1071.03 -0.473763 2.1115 0
M  V30 11192 C 1071.63 2.85508 1.82403 0
M  V30 11193 C 1070.19 2.93737 2.35362 0
M  V30 11194 C 1069.33 2.52343 1.14971 0
M  V30 11195 H 1072.28 1.57391 0.20339 0
M  V30 11196 H 1072.3 2.70097 2.68007 0
M  V30 11197 H 1071.82 3.70477 1.15623 0
M  V30 11198 H 1069.92 2.13231 3.05554 0
M  V30 11199 H 1070.03 3.977 2.67155 0
M  V30 11200 H 1068.39 2.05878 1.49955 0
M  V30 11201 H 1069.18 3.39672 0.497786 0
M  V30 11202 N 1071.62 -0.679052 1.4222 0
M  V30 11203 C 1072.87 -1.43485 1.41757 0
M  V30 11204 C 1073.18 -1.95567 0.0358698 0
M  V30 11205 O 1074.39 -2.71346 -0.0913713 0
M  V30 11206 C 1072.85 -2.59541 2.49332 0
M  V30 11207 C 1072.45 -2.14176 3.93488 0
M  V30 11208 C 1074.2 -3.37078 2.58029 0
M  V30 11209 C 1072.11 -3.27289 4.92581 0
M  V30 11210 H 1071.04 -0.539022 0.52723 0
M  V30 11211 H 1073.69 -0.735581 1.68111 0
M  V30 11212 H 1072.07 -3.31815 2.16135 0
M  V30 11213 H 1073.24 -1.49082 4.36017 0
M  V30 11214 H 1071.56 -1.49589 3.88603 0
M  V30 11215 H 1074.15 -4.21312 3.29242 0
M  V30 11216 H 1074.5 -3.83383 1.62245 0
M  V30 11217 H 1075.03 -2.7187 2.90399 0
M  V30 11218 H 1071.77 -2.8598 5.89827 0
M  V30 11219 H 1071.29 -3.91178 4.54687 0
M  V30 11220 H 1072.97 -3.9282 5.14103 0
M  V30 11221 N 1073.1 -1.28322 -0.914942 0
M  V30 11222 C 1074.38 -1.06111 -1.64316 0
M  V30 11223 C 1074.76 0.399934 -2.07277 0
M  V30 11224 O 1074.11 1.38577 -1.81683 0
M  V30 11225 C 1074.32 -2.03461 -2.83557 0
M  V30 11226 C 1075.66 -2.33541 -3.54604 0
M  V30 11227 O 1076.69 -2.01536 -2.93704 0
M  V30 11228 O 1075.55 -2.88158 -4.64357 0
M  V30 11229 H 1072.64 -0.405451 -0.72079 0
M  V30 11230 H 1075.19 -1.39636 -0.964352 0
M  V30 11231 H 1073.96 -3.01938 -2.48896 0
M  V30 11232 H 1073.58 -1.70574 -3.59152 0
M  V30 11233 N 1074.58 1.12322 -1.10551 0
M  V30 11234 C 1075.81 1.87679 -0.87087 0
M  V30 11235 C 1076.22 1.79711 0.578733 0
M  V30 11236 O 1075.58 1.17185 1.39907 0
M  V30 11237 C 1075.63 3.36846 -1.31213 0
M  V30 11238 O 1075.35 3.44626 -2.70489 0
M  V30 11239 C 1076.85 4.29138 -1.11156 0
M  V30 11240 H 1074.07 0.593788 -0.3125 0
M  V30 11241 H 1076.62 1.42116 -1.47048 0
M  V30 11242 H 1074.77 3.79948 -0.756169 0
M  V30 11243 H 1075.18 4.37441 -2.89389 0
M  V30 11244 H 1076.66 5.32082 -1.46944 0
M  V30 11245 H 1077.14 4.39171 -0.0502963 0
M  V30 11246 H 1077.74 3.91818 -1.65405 0
M  V30 11247 N 1076.06 0.894434 1.2976 0
M  V30 11248 C 1077.29 0.532143 1.99629 0
M  V30 11249 C 1077.69 -0.886234 1.6716 0
M  V30 11250 O 1077.04 -1.59573 0.910065 0
M  V30 11251 C 1077.1 0.638335 3.53787 0
M  V30 11252 C 1076.76 2.02273 4.09798 0
M  V30 11253 C 1077.76 2.99327 4.25087 0
M  V30 11254 C 1075.45 2.33069 4.44954 0
M  V30 11255 C 1077.44 4.25304 4.74758 0
M  V30 11256 C 1075.13 3.59289 4.94322 0
M  V30 11257 C 1076.12 4.55222 5.09178 0
M  V30 11258 O 1075.81 5.79202 5.57477 0
M  V30 11259 H 1075.54 0.203326 0.644697 0
M  V30 11260 H 1078.1 1.2043 1.6639 0
M  V30 11261 H 1076.33 -0.0908338 3.86593 0
M  V30 11262 H 1078.02 0.285956 4.04891 0
M  V30 11263 H 1078.78 2.76849 3.9822 0
M  V30 11264 H 1074.66 1.59162 4.32653 0
M  V30 11265 H 1078.21 5.00189 4.86269 0
M  V30 11266 H 1074.1 3.816 5.20626 0
M  V30 11267 H 1074.87 5.81717 5.75802 0
M  V30 11268 N 1077.53 -1.43282 0.656365 0
M  V30 11269 C 1078.76 -2.06641 0.177245 0
M  V30 11270 C 1079.18 -1.48893 -1.14946 0
M  V30 11271 O 1078.54 -0.600099 -1.7108 0
M  V30 11272 C 1078.59 -3.60453 0.10299 0
M  V30 11273 O 1077.69 -4.01687 -0.933895 0
M  V30 11274 H 1077.04 -0.656978 0.096314 0
M  V30 11275 H 1079.57 -1.83733 0.900178 0
M  V30 11276 H 1079.58 -4.07923 -0.079291 0
M  V30 11277 H 1078.25 -4.01861 1.07147 0
M  V30 11278 H 1076.83 -3.65801 -0.724148 0
M  V30 11279 N 1079.01 -0.398486 -1.52479 0
M  V30 11280 C 1080.29 0.238776 -1.94137 0
M  V30 11281 C 1080.67 1.63558 -1.33462 0
M  V30 11282 O 1080.02 2.22821 -0.506272 0
M  V30 11283 C 1080.23 0.255863 -3.48061 0
M  V30 11284 C 1081.58 0.480376 -4.21874 0
M  V30 11285 O 1082.6 0.335679 -3.54615 0
M  V30 11286 O 1081.46 0.764654 -5.41124 0
M  V30 11287 H 1078.55 0.150806 -0.813134 0
M  V30 11288 H 1081.1 -0.453659 -1.63524 0
M  V30 11289 H 1079.87 -0.722171 -3.84578 0
M  V30 11290 H 1079.49 0.99284 -3.85004 0
M  V30 11291 N 1080.49 1.57075 -0.12858 0
M  V30 11292 C 1081.74 1.95134 0.526046 0
M  V30 11293 C 1082.06 1.01337 1.66601 0
M  V30 11294 O 1081.33 0.0714361 1.9577 0
M  V30 11295 H 1079.91 0.720468 0.19732 0
M  V30 11296 H 1082.57 1.93874 -0.199767 0
M  V30 11297 H 1081.67 2.98406 0.914332 0
M  V30 11298 N 1081.97 -0.145205 1.5693 0
M  V30 11299 C 1082.9 -1.18096 2.01434 0
M  V30 11300 C 1083.88 -1.447 0.894204 0
M  V30 11301 O 1085.07 -1.55589 1.16214 0
M  V30 11302 C 1082.2 -2.51369 2.39647 0
M  V30 11303 C 1081.15 -2.39283 3.54863 0
M  V30 11304 C 1080.48 -3.77283 3.78895 0
M  V30 11305 C 1081.78 -1.8754 4.87469 0
M  V30 11306 H 1083.47 -0.810897 2.8821 0
M  V30 11307 H 1081.02 -0.388624 1.38657 0
M  V30 11308 H 1082.97 -3.24054 2.69382 0
M  V30 11309 H 1081.69 -2.90214 1.49811 0
M  V30 11310 H 1080.35 -1.6905 3.25296 0
M  V30 11311 H 1080 -4.13567 2.86307 0
M  V30 11312 H 1079.7 -3.70057 4.56433 0
M  V30 11313 H 1081.22 -4.51514 4.11057 0
M  V30 11314 H 1082.64 -2.50019 5.1591 0
M  V30 11315 H 1081.03 -1.912 5.68826 0
M  V30 11316 H 1082.1 -0.831194 4.77723 0
M  V30 11317 N 1083.45 -1.52049 -0.414609 0
M  V30 11318 C 1084.86 -1.40729 -0.752822 0
M  V30 11319 C 1085.06 -0.507468 -1.95005 0
M  V30 11320 O 1084.12 0.0288189 -2.52484 0
M  V30 11321 C 1085.43 -2.83163 -1.01189 0
M  V30 11322 C 1086.98 -2.92469 -1.11494 0
M  V30 11323 C 1087.46 -4.35859 -1.4068 0
M  V30 11324 N 1088.95 -4.39069 -1.47557 0
M  V30 11325 C 1089.68 -5.47072 -1.71756 0
M  V30 11326 N 1089.18 -6.65201 -1.93595 0
M  V30 11327 N 1090.97 -5.3458 -1.73726 0
M  V30 11328 H 1083.12 -2.09089 0.373549 0
M  V30 11329 H 1085.38 -0.942188 0.104814 0
M  V30 11330 H 1085.09 -3.51104 -0.204609 0
M  V30 11331 H 1084.96 -3.23874 -1.93353 0
M  V30 11332 H 1087.35 -2.24711 -1.91282 0
M  V30 11333 H 1087.43 -2.55222 -0.171794 0
M  V30 11334 H 1087.08 -5.04174 -0.614119 0
M  V30 11335 H 1087.01 -4.70637 -2.36238 0
M  V30 11336 H 1089.5 -3.53913 -1.32491 0
M  V30 11337 H 1089.81 -7.43297 -2.11495 0
M  V30 11338 H 1088.16 -6.68276 -1.90871 0
M  V30 11339 H 1091.35 -4.41271 -1.56198 0
M  V30 11340 H 1091.52 -6.18826 -1.92246 0
M  V30 11341 N 1084.93 0.6715 -1.42579 0
M  V30 11342 C 1086.34 1.2522 -1.38481 0
M  V30 11343 C 1086.69 1.96038 -0.079719 0
M  V30 11344 O 1085.81 2.00203 0.821441 0
M  V30 11345 C 1086.41 2.27736 -2.50842 0
M  V30 11346 C 1084.97 2.81325 -2.50067 0
M  V30 11347 C 1084.11 1.55694 -2.29466 0
M  V30 11348 H 1087.06 0.464673 -1.51745 0
M  V30 11349 H 1087.09 3.09539 -2.21283 0
M  V30 11350 H 1086.6 1.76164 -3.45815 0
M  V30 11351 H 1084.7 3.37008 -1.58922 0
M  V30 11352 H 1084.81 3.30116 -3.47218 0
M  V30 11353 H 1083.18 1.82383 -1.77788 0
M  V30 11354 H 1083.96 1.06084 -3.26498 0
M  V30 11355 N 1086.4 1.28806 0.908124 0
M  V30 11356 C 1087.81 1.14719 1.47297 0
M  V30 11357 C 1088.17 -0.260763 1.94459 0
M  V30 11358 O 1087.29 -1.15553 1.82966 0
M  V30 11359 C 1087.89 2.07643 2.67712 0
M  V30 11360 C 1086.44 1.97605 3.20358 0
M  V30 11361 C 1085.59 1.99058 1.93058 0
M  V30 11362 H 1088.54 1.41413 0.720283 0
M  V30 11363 H 1088.56 1.64372 3.43165 0
M  V30 11364 H 1088.08 3.10108 2.33355 0
M  V30 11365 H 1086.18 0.981982 3.59427 0
M  V30 11366 H 1086.29 2.84846 3.85226 0
M  V30 11367 H 1084.65 1.43541 2.104 0
M  V30 11368 H 1085.44 3.03212 1.60989 0
M  V30 11369 N 1087.88 -1.11734 1.11145 0
M  V30 11370 C 1089.11 -1.86943 0.879534 0
M  V30 11371 C 1089.52 -1.80283 -0.574007 0
M  V30 11372 O 1088.86 -1.17998 -1.40791 0
M  V30 11373 C 1088.92 -3.36738 1.25887 0
M  V30 11374 C 1088.59 -3.67169 2.72095 0
M  V30 11375 C 1089.59 -3.6491 3.7032 0
M  V30 11376 C 1087.27 -3.96272 3.08665 0
M  V30 11377 C 1089.26 -3.91325 5.03134 0
M  V30 11378 C 1086.95 -4.22345 4.41665 0
M  V30 11379 C 1087.95 -4.19859 5.38709 0
M  V30 11380 O 1087.64 -4.4528 6.69314 0
M  V30 11381 H 1087.37 -0.598117 0.315011 0
M  V30 11382 H 1089.92 -1.42253 1.48166 0
M  V30 11383 H 1088.15 -3.82019 0.599873 0
M  V30 11384 H 1089.84 -3.93306 1.00325 0
M  V30 11385 H 1090.61 -3.42481 3.43412 0
M  V30 11386 H 1086.49 -3.97344 2.33749 0
M  V30 11387 H 1090.03 -3.893 5.78871 0
M  V30 11388 H 1085.93 -4.4425 4.68308 0
M  V30 11389 H 1086.7 -4.62863 6.75056 0
M  V30 11390 N 1089.36 -0.901303 -1.29284 0
M  V30 11391 C 1090.77 -0.576317 -1.77582 0
M  V30 11392 C 1091.12 0.908078 -1.73921 0
M  V30 11393 O 1090.25 1.71006 -1.32611 0
M  V30 11394 C 1090.84 -1.03938 -3.22463 0
M  V30 11395 C 1089.4 -0.765533 -3.68533 0
M  V30 11396 C 1088.55 -1.21318 -2.49354 0
M  V30 11397 H 1091.5 -1.08386 -1.15923 0
M  V30 11398 H 1091.52 -0.375367 -3.78644 0
M  V30 11399 H 1091.03 -2.11977 -3.25096 0
M  V30 11400 H 1089.13 0.302176 -3.71373 0
M  V30 11401 H 1089.25 -1.36454 -4.59257 0
M  V30 11402 H 1087.61 -0.632141 -2.46731 0
M  V30 11403 H 1088.39 -2.30165 -2.54714 0
M  V30 11404 N 1090.84 1.42931 -0.663954 0
M  V30 11405 C 1092.07 2.06028 -0.189808 0
M  V30 11406 C 1092.48 1.49827 1.14879 0
M  V30 11407 O 1091.84 0.633778 1.71142 0
M  V30 11408 C 1091.89 3.61349 -0.104343 0
M  V30 11409 O 1091.61 4.15463 -1.39004 0
M  V30 11410 C 1093.11 4.4154 0.394599 0
M  V30 11411 H 1090.33 0.664259 -0.0948744 0
M  V30 11412 H 1092.87 1.83255 -0.907632 0
M  V30 11413 H 1091.03 3.83271 0.564103 0
M  V30 11414 H 1091.44 5.09233 -1.25626 0
M  V30 11415 H 1092.92 5.50525 0.403329 0
M  V30 11416 H 1093.39 4.1534 1.4279 0
M  V30 11417 H 1094 4.24612 -0.241729 0
M  V30 11418 N 1092.32 0.406567 1.52266 0
M  V30 11419 C 1093.28 -0.408251 2.25535 0
M  V30 11420 C 1094.28 -0.975795 1.27808 0
M  V30 11421 O 1095.47 -0.855077 1.5177 0
M  V30 11422 C 1092.6 -1.57443 3.02365 0
M  V30 11423 H 1093.79 0.233459 2.9899 0
M  V30 11424 H 1091.35 0.159032 1.55489 0
M  V30 11425 H 1092.08 -2.25308 2.33252 0
M  V30 11426 H 1091.87 -1.17399 3.74112 0
M  V30 11427 H 1093.36 -2.15088 3.57948 0
M  V30 11428 N 1093.79 -1.57004 0.136909 0
M  V30 11429 C 1095.07 -1.87375 -0.561233 0
M  V30 11430 C 1095.45 -1.04117 -1.83638 0
M  V30 11431 O 1094.8 -0.125103 -2.28157 0
M  V30 11432 C 1095.01 -3.38829 -0.836426 0
M  V30 11433 C 1096.36 -4.07826 -1.18164 0
M  V30 11434 O 1097.38 -3.4395 -0.92611 0
M  V30 11435 O 1096.24 -5.20614 -1.66204 0
M  V30 11436 H 1093.33 -0.776287 -0.285145 0
M  V30 11437 H 1095.88 -1.68818 0.172761 0
M  V30 11438 H 1094.65 -3.91244 0.066442 0
M  V30 11439 H 1094.28 -3.62879 -1.62496 0
M  V30 11440 N 1095.27 0.136881 -1.57004 0
M  V30 11441 C 1096.22 1.17411 -1.95445 0
M  V30 11442 C 1097.21 1.38019 -0.827015 0
M  V30 11443 O 1098.4 1.39412 -1.09057 0
M  V30 11444 C 1095.53 2.50525 -2.34717 0
M  V30 11445 C 1094.61 2.33467 -3.54054 0
M  V30 11446 N 1095 1.86184 -4.70286 0
M  V30 11447 C 1093.3 2.64185 -3.59336 0
M  V30 11448 C 1094 1.82411 -5.5236 0
M  V30 11449 N 1092.98 2.26098 -4.94349 0
M  V30 11450 H 1096.78 0.8008 -2.8278 0
M  V30 11451 H 1094.3 0.344831 -1.58697 0
M  V30 11452 H 1096.29 3.2552 -2.60465 0
M  V30 11453 H 1094.95 2.8863 -1.48738 0
M  V30 11454 H 1095.96 1.55998 -4.93847 0
M  V30 11455 H 1092.64 3.06096 -2.83922 0
M  V30 11456 H 1094.03 1.4726 -6.55564 0
M  V30 11457 N 1096.75 1.52266 0.40654 0
M  V30 11458 C 1097.68 1.70519 1.51653 0
M  V30 11459 C 1098.66 0.552798 1.52915 0
M  V30 11460 O 1099.85 0.780468 1.71584 0
M  V30 11461 C 1096.97 1.74686 2.90176 0
M  V30 11462 C 1096.02 2.96255 3.06815 0
M  V30 11463 S 1096.85 4.56553 2.79856 0
M  V30 11464 C 1098.01 4.63511 4.20605 0
M  V30 11465 H 1098.24 2.64399 1.35942 0
M  V30 11466 H 1095.77 1.42337 0.598284 0
M  V30 11467 H 1097.73 1.77773 3.7001 0
M  V30 11468 H 1096.39 0.819291 3.03227 0
M  V30 11469 H 1095.59 2.95661 4.08167 0
M  V30 11470 H 1095.19 2.91069 2.34851 0
M  V30 11471 H 1097.48 4.41047 5.1428 0
M  V30 11472 H 1098.42 5.65456 4.26222 0
M  V30 11473 H 1098.83 3.92518 4.05697 0
M  V30 11474 N 1098.23 -0.663929 1.42933 0
M  V30 11475 C 1099.16 -1.78899 1.50058 0
M  V30 11476 C 1100.14 -1.66329 0.356164 0
M  V30 11477 O 1101.32 -1.85587 0.571944 0
M  V30 11478 C 1098.45 -3.17265 1.41281 0
M  V30 11479 C 1097.41 -3.44584 2.53861 0
M  V30 11480 C 1096.73 -4.82638 2.3014 0
M  V30 11481 C 1098.03 -3.40394 3.96143 0
M  V30 11482 H 1099.73 -1.73194 2.44222 0
M  V30 11483 H 1097.27 -0.83182 1.17545 0
M  V30 11484 H 1099.23 -3.95715 1.44872 0
M  V30 11485 H 1097.95 -3.23675 0.43616 0
M  V30 11486 H 1096.61 -2.685 2.49606 0
M  V30 11487 H 1096.26 -4.85711 1.30743 0
M  V30 11488 H 1095.96 -5.01879 3.056 0
M  V30 11489 H 1097.48 -5.63359 2.35497 0
M  V30 11490 H 1098.9 -4.08796 4.01943 0
M  V30 11491 H 1097.29 -3.7117 4.71543 0
M  V30 11492 H 1098.36 -2.38767 4.22041 0
M  V30 11493 N 1099.71 -1.29285 -0.901281 0
M  V30 11494 C 1100.67 -1.14283 -1.98676 0
M  V30 11495 C 1101.67 -0.0787641 -1.60607 0
M  V30 11496 O 1102.86 -0.325574 -1.71131 0
M  V30 11497 C 1099.99 -0.747279 -3.32609 0
M  V30 11498 H 1101.18 -2.10701 -2.13413 0
M  V30 11499 H 1098.74 -1.12449 -1.08558 0
M  V30 11500 H 1099.47 0.217111 -3.23572 0
M  V30 11501 H 1099.26 -1.51608 -3.61604 0
M  V30 11502 H 1100.75 -0.665322 -4.12266 0
M  V30 11503 O 1101.22 1.0367 -1.23834 0
M  V30 11504 H 1101.91 1.65154 -1.01211 0
M  V30 END ATOM
M  V30 BEGIN BOND
M  V30 END BOND
M  V30 END CTAB
M  END
$$$$
