drugbank_target|P15336 Cyclic AMP-dependent transcription factor ATF-2 (DB00852)
 OpenBabel12092121013D

  0  0  0     0  0            999 V3000
M  V30 BEGIN CTAB
M  V30 COUNTS 7655 7737 0 0 0
M  V30 BEGIN ATOM
M  V30 1 H -0.908 1.98254 -0.117106 0
M  V30 2 N 0 1.576 0 0
M  V30 3 C 0.933 2.03868 1.02534 0
M  V30 4 C 1.911 0.928543 1.3348 0
M  V30 5 O 3.095 1.19667 1.45644 0
M  V30 6 C 0.222 2.43627 2.35294 0
M  V30 7 C -0.732 3.65373 2.2001 0
M  V30 8 S 0.101 5.13292 1.52614 0
M  V30 9 C 1.257 5.56322 2.86805 0
M  V30 10 H 1.49 2.90518 0.631377 0
M  V30 11 H -0.977 1.52953 0.210867 0
M  V30 12 H 0.981 2.67203 3.11629 0
M  V30 13 H -0.358 1.57376 2.7183 0
M  V30 14 H -1.165 3.90944 3.18086 0
M  V30 15 H -1.563 3.418 1.51819 0
M  V30 16 H 0.729 5.58782 3.83104 0
M  V30 17 H 1.672 6.56266 2.65933 0
M  V30 18 H 2.08 4.83886 2.90714 0
M  V30 19 N 1.4781 -0.272755 1.55222 0
M  V30 20 C 2.4251 -1.33716 1.88119 0
M  V30 21 C 3.3951 -1.49066 0.73271 0
M  V30 22 O 4.5801 -1.63469 0.984002 0
M  V30 23 C 1.7201 -2.69238 2.15882 0
M  V30 24 C 0.8331 -2.62108 3.43399 0
M  V30 25 C -0.0319 -3.89811 3.60861 0
M  V30 26 C -0.9929 -3.77193 4.8207 0
M  V30 27 N -1.8559 -4.9673 4.96189 0
M  V30 28 H 2.9841 -1.04962 2.78903 0
M  V30 29 H 0.5211 -0.507088 1.38083 0
M  V30 30 H 2.4791 -3.48089 2.29978 0
M  V30 31 H 1.1091 -2.96194 1.28331 0
M  V30 32 H 0.1611 -1.74967 3.37773 0
M  V30 33 H 1.4731 -2.48685 4.32386 0
M  V30 34 H 0.6271 -4.77103 3.74777 0
M  V30 35 H -0.6339 -4.06102 2.7006 0
M  V30 36 H -1.6289 -2.88284 4.68159 0
M  V30 37 H -0.4039 -3.62421 5.74307 0
M  V30 38 H -2.4579 -5.13431 4.08319 0
M  V30 39 H -2.5409 -4.85839 5.79221 0
M  V30 40 H -1.2729 -5.85594 5.1449 0
M  V30 41 N 2.9562 -1.48159 -0.537278 0
M  V30 42 C 4.2032 -1.55804 -1.29349 0
M  V30 43 C 4.5312 -0.228802 -1.9315 0
M  V30 44 O 3.7862 0.780242 -1.79473 0
M  V30 45 C 4.0852 -2.63956 -2.40961 0
M  V30 46 C 3.7512 -4.0662 -1.94861 0
M  V30 47 C 2.4132 -4.45452 -1.82006 0
M  V30 48 C 4.7652 -4.96055 -1.59933 0
M  V30 49 C 2.0932 -5.71531 -1.32547 0
M  V30 50 C 4.4452 -6.22617 -1.11939 0
M  V30 51 C 3.1092 -6.60312 -0.976951 0
M  V30 52 H 2.3792 -0.570129 -0.473322 0
M  V30 53 H 5.0262 -1.81845 -0.600372 0
M  V30 54 H 3.3312 -2.31747 -3.15912 0
M  V30 55 H 5.0282 -2.67089 -2.99107 0
M  V30 56 H 1.6182 -3.75949 -2.05815 0
M  V30 57 H 5.8022 -4.66738 -1.68728 0
M  V30 58 H 1.0582 -5.99468 -1.202 0
M  V30 59 H 5.2322 -6.91318 -0.839811 0
M  V30 60 H 2.8592 -7.57895 -0.591501 0
M  V30 61 N 4.4343 0.785586 -1.36625 0
M  V30 62 C 5.3813 1.89838 -1.31264 0
M  V30 63 C 6.3513 1.65115 -0.180633 0
M  V30 64 O 7.5363 1.87222 -0.36777 0
M  V30 65 C 4.6763 3.26706 -1.11163 0
M  V30 66 C 3.7893 3.63476 -2.33472 0
M  V30 67 C 2.9243 4.89481 -2.06353 0
M  V30 68 C 1.9633 5.18941 -3.24602 0
M  V30 69 N 1.1003 6.36131 -2.97123 0
M  V30 70 H 5.9403 1.93756 -2.26413 0
M  V30 71 H 3.4773 0.947454 -1.12524 0
M  V30 72 H 5.4353 4.05639 -0.975337 0
M  V30 73 H 4.0653 3.222 -0.196674 0
M  V30 74 H 3.1173 2.79636 -2.57891 0
M  V30 75 H 4.4293 3.81193 -3.21704 0
M  V30 76 H 3.5833 5.76288 -1.89675 0
M  V30 77 H 2.3223 4.73841 -1.15437 0
M  V30 78 H 1.3273 4.30615 -3.41834 0
M  V30 79 H 2.5523 5.36498 -4.16349 0
M  V30 80 H 0.4983 6.21875 -2.08823 0
M  V30 81 H 0.4153 6.54198 -3.78894 0
M  V30 82 H 1.6833 7.2591 -2.84033 0
M  V30 83 N 5.9124 1.20967 1.01018 0
M  V30 84 C 6.8424 0.988272 2.11555 0
M  V30 85 C 7.8234 -0.0849778 1.69888 0
M  V30 86 O 9.0084 0.0738202 1.9406 0
M  V30 87 C 6.1384 0.546528 3.42973 0
M  V30 88 C 5.0924 1.56375 3.9841 0
M  V30 89 C 4.4184 0.97842 5.25672 0
M  V30 90 C 5.7184 2.94922 4.31066 0
M  V30 91 H 7.4124 1.91276 2.30334 0
M  V30 92 H 4.9584 0.921073 1.1069 0
M  V30 93 H 6.9114 0.378839 4.19694 0
M  V30 94 H 5.6354 -0.413598 3.23971 0
M  V30 95 H 4.2944 1.71891 3.23804 0
M  V30 96 H 3.9424 0.0101688 5.02999 0
M  V30 97 H 3.6424 1.65784 5.63728 0
M  V30 98 H 5.1664 0.821939 6.05043 0
M  V30 99 H 6.5804 2.8288 4.9865 0
M  V30 100 H 4.9774 3.5983 4.80253 0
M  V30 101 H 6.0474 3.4616 3.39561 0
M  V30 102 N 7.3905 -1.2043 1.01659 0
M  V30 103 C 8.3405 -2.21076 0.557623 0
M  V30 104 C 9.3245 -1.56176 -0.387029 0
M  V30 105 O 10.5165 -1.7575 -0.209996 0
M  V30 106 C 7.6455 -3.43146 -0.102707 0
M  V30 107 C 6.7315 -4.15213 0.863652 0
M  V30 108 N 7.1225 -4.63662 2.02117 0
M  V30 109 C 5.4205 -4.40716 0.684472 0
M  V30 110 C 6.1215 -5.18868 2.62966 0
M  V30 111 N 5.0975 -5.0893 1.91027 0
M  V30 112 H 8.8995 -2.56201 1.44008 0
M  V30 113 H 6.4135 -1.36366 0.881931 0
M  V30 114 H 8.4105 -4.14475 -0.449054 0
M  V30 115 H 7.0705 -3.09526 -0.981003 0
M  V30 116 H 8.0815 -4.58877 2.40109 0
M  V30 117 H 4.7585 -4.17245 -0.14577 0
M  V30 118 H 6.1485 -5.6673 3.60924 0
M  V30 119 N 8.8686 -0.792821 -1.36206 0
M  V30 120 C 10.1146 -0.36733 -1.99446 0
M  V30 121 C 10.4476 1.05917 -1.62774 0
M  V30 122 O 9.7226 1.7324 -0.88421 0
M  V30 123 C 10.0056 -0.535044 -3.56103 0
M  V30 124 C 9.8586 -2.00548 -4.02617 0
M  V30 125 C 11.1776 0.0478191 -4.40074 0
M  V30 126 H 8.2966 -0.134941 -0.724541 0
M  V30 127 H 10.9386 -0.999794 -1.61568 0
M  V30 128 H 9.0886 0.00336329 -3.885 0
M  V30 129 H 10.7606 -2.60521 -3.80692 0
M  V30 130 H 9.0036 -2.50686 -3.54032 0
M  V30 131 H 9.6746 -2.07377 -5.11565 0
M  V30 132 H 12.1506 -0.411822 -4.14057 0
M  V30 133 H 11.0266 -0.0995336 -5.4881 0
M  V30 134 H 11.2876 1.14025 -4.27142 0
M  V30 135 N 10.3467 1.47872 -0.545128 0
M  V30 136 C 11.2947 2.31533 0.222512 0
M  V30 137 C 12.2887 1.42177 0.920985 0
M  V30 138 O 13.4947 1.59005 0.843645 0
M  V30 139 H 9.8697 0.746519 0.0906278 0
M  V30 140 H 11.8407 2.94139 -0.50246 0
M  V30 141 C 10.5897 3.2457 1.24699 0
M  V30 142 H 9.9127 3.93283 0.718944 0
M  V30 143 H 11.3527 3.85963 1.75523 0
M  V30 144 C 9.8117 2.47237 2.28856 0
M  V30 145 O 10.3417 2.20808 3.35569 0
M  V30 146 N 8.5477 2.08461 2.02466 0
M  V30 147 H 8.0947 2.30155 1.157 0
M  V30 148 H 8.0527 1.57033 2.72375 0
M  V30 149 N 11.8248 0.280983 1.55075 0
M  V30 150 C 13.0498 -0.340154 2.04592 0
M  V30 151 C 13.4748 -1.48246 1.15779 0
M  V30 152 O 12.8328 -1.80614 0.15761 0
M  V30 153 C 12.8808 -0.793104 3.5177 0
M  V30 154 O 11.9848 -1.89981 3.66034 0
M  V30 155 H 11.3258 -0.0694289 0.66036 0
M  V30 156 H 13.8558 0.416993 2.00306 0
M  V30 157 H 13.8658 -1.08729 3.93245 0
M  V30 158 H 12.5408 0.0426163 4.15878 0
M  V30 159 H 11.1178 -1.60771 3.36463 0
M  V30 160 N 13.3029 -1.57598 0.00835791 0
M  V30 161 C 14.2659 -2.07884 -0.965242 0
M  V30 162 C 15.2659 -0.989825 -1.26725 0
M  V30 163 O 16.4559 -1.25218 -1.21104 0
M  V30 164 C 13.5879 -2.52731 -2.28779 0
M  V30 165 H 14.7809 -2.95178 -0.530112 0
M  V30 166 H 12.3339 -1.54458 -0.239283 0
M  V30 167 H 13.0689 -1.68705 -2.76964 0
M  V30 168 H 12.8539 -3.32272 -2.08177 0
M  V30 169 H 14.3439 -2.91933 -2.98605 0
M  V30 170 N 14.781 0.264519 -1.55364 0
M  V30 171 C 16.197 0.61215 -1.47394 0
M  V30 172 C 16.397 1.89134 -0.695018 0
M  V30 173 O 15.453 2.51563 -0.217275 0
M  V30 174 C 16.766 0.731235 -2.91674 0
M  V30 175 C 18.314 0.82473 -3.01939 0
M  V30 176 C 18.789 0.975522 -4.4749 0
M  V30 177 N 20.28 1.04083 -4.51354 0
M  V30 178 C 21.015 1.17646 -5.61201 0
M  V30 179 N 20.511 1.27874 -6.80896 0
M  V30 180 N 22.304 1.20823 -5.48961 0
M  V30 181 H 14.455 -0.575456 -2.04456 0
M  V30 182 H 16.718 -0.196099 -0.927496 0
M  V30 183 H 16.424 -0.138392 -3.51428 0
M  V30 184 H 16.298 1.60883 -3.41169 0
M  V30 185 H 18.685 1.68482 -2.42276 0
M  V30 186 H 18.766 -0.0776479 -2.55682 0
M  V30 187 H 18.41 0.120058 -5.07758 0
M  V30 188 H 18.34 1.89268 -4.91412 0
M  V30 189 H 20.831 0.973846 -3.65136 0
M  V30 190 H 21.144 1.38081 -7.60364 0
M  V30 191 H 19.489 1.24863 -6.83692 0
M  V30 192 H 22.68 1.12469 -4.54388 0
M  V30 193 H 22.853 1.31049 -6.3461 0
M  V30 194 N 16.2591 1.48442 0.529413 0
M  V30 195 C 17.1911 1.59095 1.64989 0
M  V30 196 C 18.2041 0.475212 1.5571 0
M  V30 197 O 19.3931 0.746081 1.6216 0
M  V30 198 C 16.4931 1.50518 3.0364 0
M  V30 199 C 15.6661 2.77142 3.38395 0
M  V30 200 C 14.7251 2.62012 4.56329 0
M  V30 201 O 13.7511 3.35898 4.59522 0
M  V30 202 N 14.9531 1.71667 5.54536 0
M  V30 203 H 17.7181 2.55723 1.56287 0
M  V30 204 H 15.2791 1.45173 0.716697 0
M  V30 205 H 17.2711 1.38091 3.80412 0
M  V30 206 H 15.8411 0.618627 3.06418 0
M  V30 207 H 15.0611 3.0413 2.50796 0
M  V30 208 H 16.3491 3.61146 3.58401 0
M  V30 209 H 15.7471 1.10841 5.54735 0
M  V30 210 H 14.3041 1.65178 6.30523 0
M  V30 211 N 17.7372 -0.778329 1.37039 0
M  V30 212 C 18.9672 -1.56507 1.34868 0
M  V30 213 C 19.3752 -1.89072 -0.0694802 0
M  V30 214 O 18.7182 -1.51434 -1.03987 0
M  V30 215 C 18.7802 -2.90641 2.11585 0
M  V30 216 C 18.4442 -2.80746 3.60598 0
M  V30 217 C 19.4412 -2.52226 4.54618 0
M  V30 218 C 17.1262 -2.98974 4.03633 0
M  V30 219 C 19.1202 -2.42054 5.89651 0
M  V30 220 C 16.8072 -2.88423 5.38754 0
M  V30 221 C 17.8052 -2.60002 6.31576 0
M  V30 222 O 17.4932 -2.49465 7.64214 0
M  V30 223 H 17.2252 -0.491723 0.463879 0
M  V30 224 H 19.7792 -0.973053 1.80889 0
M  V30 225 H 18.0092 -3.51936 1.60243 0
M  V30 226 H 19.6982 -3.51992 2.0213 0
M  V30 227 H 20.4642 -2.37835 4.22681 0
M  V30 228 H 16.3432 -3.20099 3.31749 0
M  V30 229 H 19.8872 -2.19791 6.62071 0
M  V30 230 H 15.7842 -3.0238 5.70295 0
M  V30 231 H 16.5522 -2.64864 7.74461 0
M  V30 232 N 19.2153 -1.21501 -1.00376 0
M  V30 233 C 20.1623 -0.975387 -2.09177 0
M  V30 234 C 21.1323 0.0990615 -1.65804 0
M  V30 235 O 22.3173 -0.0483147 -1.90739 0
M  V30 236 C 19.4573 -0.547507 -3.40729 0
M  V30 237 C 18.5703 -1.69153 -3.97506 0
M  V30 238 C 17.7053 -1.2127 -5.17172 0
M  V30 239 C 16.7443 -2.32897 -5.66061 0
M  V30 240 N 15.8813 -1.86138 -6.76976 0
M  V30 241 H 20.7213 -1.9068 -2.29009 0
M  V30 242 H 18.2583 -0.950257 -1.12288 0
M  V30 243 H 20.2163 -0.280667 -4.16255 0
M  V30 244 H 18.8463 0.346904 -3.20931 0
M  V30 245 H 17.8983 -2.07298 -3.18954 0
M  V30 246 H 19.2103 -2.5316 -4.29781 0
M  V30 247 H 18.3643 -0.902591 -5.99948 0
M  V30 248 H 17.1033 -0.342692 -4.86495 0
M  V30 249 H 16.1083 -2.64709 -4.81881 0
M  V30 250 H 17.3333 -3.20396 -5.98768 0
M  V30 251 H 15.2793 -1.01484 -6.48103 0
M  V30 252 H 15.1963 -2.63717 -7.08512 0
M  V30 253 H 16.4643 -1.58165 -7.63285 0
M  V30 254 N 20.6934 1.19889 -1.02296 0
M  V30 255 C 21.9704 1.85148 -0.630832 0
M  V30 256 C 22.3504 1.91385 0.890782 0
M  V30 257 O 21.6984 1.42642 1.78509 0
M  V30 258 C 21.9084 3.24442 -1.28602 0
M  V30 259 C 23.2564 4.00663 -1.4055 0
M  V30 260 O 24.2804 3.33818 -1.24273 0
M  V30 261 O 23.1394 5.20387 -1.66913 0
M  V30 262 H 20.2334 0.797613 -0.218499 0
M  V30 263 H 22.7794 1.27427 -1.12074 0
M  V30 264 H 21.5514 3.14704 -2.32545 0
M  V30 265 H 21.1744 3.89802 -0.7836 0
M  V30 266 N 22.1715 0.800033 1.35784 0
M  V30 267 C 23.1015 0.220184 2.3246 0
M  V30 268 C 24.0825 -0.65073 1.57161 0
M  V30 269 O 25.2675 -0.582359 1.85263 0
M  V30 270 C 22.3975 -0.637353 3.41402 0
M  V30 271 C 21.3515 0.134531 4.27789 0
M  V30 272 C 20.6775 -0.844285 5.27992 0
M  V30 273 C 21.9775 1.32979 5.05088 0
M  V30 274 H 23.6715 1.02787 2.81203 0
M  V30 275 H 21.2175 0.495717 1.35199 0
M  V30 276 H 23.1705 -1.05302 4.08031 0
M  V30 277 H 21.8945 -1.47785 2.91251 0
M  V30 278 H 20.5535 0.531296 3.6273 0
M  V30 279 H 20.2015 -1.68011 4.74111 0
M  V30 280 H 19.9015 -0.332184 5.8666 0
M  V30 281 H 21.4255 -1.2583 5.97494 0
M  V30 282 H 22.8395 0.98934 5.64699 0
M  V30 283 H 21.2365 1.77593 5.7322 0
M  V30 284 H 22.3065 2.11978 4.36111 0
M  V30 285 N 23.6496 -1.47581 0.552962 0
M  V30 286 C 24.8956 -2.03369 0.0355807 0
M  V30 287 C 25.2506 -1.42016 -1.29805 0
M  V30 288 O 24.5436 -0.564917 -1.83083 0
M  V30 289 C 24.7376 -3.57199 -0.119728 0
M  V30 290 C 24.5666 -4.33468 1.1973 0
M  V30 291 C 23.3366 -4.7353 1.76345 0
M  V30 292 C 25.5346 -4.68866 2.11351 0
M  V30 293 N 23.5166 -5.34426 3.02097 0
M  V30 294 C 24.8876 -5.3002 3.21681 0
M  V30 295 C 26.9426 -4.50795 2.11397 0
M  V30 296 C 25.6456 -5.75011 4.32151 0
M  V30 297 C 27.6716 -4.96782 3.20876 0
M  V30 298 C 27.0336 -5.57981 4.29926 0
M  V30 299 H 23.1326 -0.780058 0.0550806 0
M  V30 300 H 25.7166 -1.80117 0.739315 0
M  V30 301 H 23.8876 -3.80227 -0.792579 0
M  V30 302 H 25.6196 -3.99627 -0.638792 0
M  V30 303 H 22.3746 -4.55352 1.30196 0
M  V30 304 H 22.7986 -5.69421 3.66182 0
M  V30 305 H 27.4406 -4.0284 1.28372 0
M  V30 306 H 25.1586 -6.21959 5.15938 0
M  V30 307 H 28.7446 -4.84573 3.21994 0
M  V30 308 H 27.6246 -5.92918 5.13243 0
M  V30 309 N 25.1277 -0.289203 -1.54924 0
M  V30 310 C 26.0757 0.607966 -2.24514 0
M  V30 311 C 27.0697 1.14655 -1.24702 0
M  V30 312 O 28.2757 1.09856 -1.4259 0
M  V30 313 H 24.6507 0.21464 -0.720718 0
M  V30 314 H 26.6217 -0.00164182 -2.984 0
M  V30 315 C 25.3707 1.77406 -2.99036 0
M  V30 316 H 24.6937 1.36884 -3.75637 0
M  V30 317 H 26.1337 2.37814 -3.51028 0
M  V30 318 C 24.5927 2.67107 -2.05318 0
M  V30 319 O 25.1227 3.6787 -1.61353 0
M  V30 320 N 23.3287 2.34582 -1.71521 0
M  V30 321 H 22.8757 1.52688 -2.07471 0
M  V30 322 H 22.8337 2.94867 -1.0909 0
M  V30 323 N 26.6058 1.57591 -0.0167156 0
M  V30 324 C 27.5388 2.04944 1.00366 0
M  V30 325 C 28.5168 0.942648 1.32487 0
M  V30 326 O 29.7008 1.21205 1.44367 0
M  V30 327 C 26.8278 2.46109 2.32697 0
M  V30 328 C 25.8738 3.67686 2.16123 0
M  V30 329 S 26.7068 5.14882 1.47161 0
M  V30 330 C 27.8628 5.59332 2.80888 0
M  V30 331 H 28.0958 2.91172 0.600528 0
M  V30 332 H 25.6288 1.53168 0.194632 0
M  V30 333 H 27.5868 2.70493 3.08778 0
M  V30 334 H 26.2478 1.6025 2.70146 0
M  V30 335 H 25.4408 3.94296 3.13922 0
M  V30 336 H 25.0428 3.43391 1.48185 0
M  V30 337 H 27.3348 5.62814 3.77156 0
M  V30 338 H 28.2778 6.5905 2.58958 0
M  V30 339 H 28.6858 4.86942 2.85565 0
M  V30 340 N 28.0839 -0.256276 1.55502 0
M  V30 341 C 29.3089 -1.00766 1.81276 0
M  V30 342 C 29.7339 -1.78524 0.59252 0
M  V30 343 O 29.0919 -1.75413 -0.45827 0
M  V30 344 C 29.1399 -1.92869 3.04687 0
M  V30 345 O 28.2439 -3.019 2.80945 0
M  V30 346 H 27.5849 -0.287224 0.598664 0
M  V30 347 H 30.1149 -0.280109 2.02674 0
M  V30 348 H 30.1249 -2.34511 3.33869 0
M  V30 349 H 28.7999 -1.35689 3.93143 0
M  V30 350 H 27.3769 -2.64454 2.62904 0
M  V30 351 N 29.562 -1.4872 -0.521534 0
M  V30 352 C 30.839 -1.4766 -1.2828 0
M  V30 353 C 31.219 -0.19292 -2.10217 0
M  V30 354 O 30.567 0.825193 -2.13079 0
M  V30 355 C 30.777 -2.74358 -2.15705 0
M  V30 356 C 32.125 -3.23028 -2.75569 0
M  V30 357 O 33.149 -2.75333 -2.25987 0
M  V30 358 O 32.008 -4.0604 -3.65778 0
M  V30 359 H 29.102 -0.590085 -0.579421 0
M  V30 360 H 31.648 -1.60963 -0.537492 0
M  V30 361 H 30.42 -3.59292 -1.54999 0
M  V30 362 H 30.043 -2.63816 -2.97467 0
M  V30 363 N 31.0401 0.771051 -1.3745 0
M  V30 364 C 32.3171 1.519 -1.23231 0
M  V30 365 C 32.6971 2.10383 0.173809 0
M  V30 366 O 32.0451 1.95583 1.18151 0
M  V30 367 C 32.2551 2.59933 -2.32886 0
M  V30 368 C 33.6031 3.27316 -2.70461 0
M  V30 369 O 34.6271 2.70228 -2.32068 0
M  V30 370 O 33.4861 4.30531 -3.36608 0
M  V30 371 H 30.5801 0.672803 -0.480901 0
M  V30 372 H 33.1261 0.807957 -1.49232 0
M  V30 373 H 31.8981 2.14842 -3.27045 0
M  V30 374 H 31.5211 3.38637 -2.08353 0
M  V30 375 N 32.5182 1.22032 0.997298 0
M  V30 376 C 33.4652 0.986467 2.08656 0
M  V30 377 C 34.4352 -0.0902671 1.65855 0
M  V30 378 O 35.6202 0.0584294 1.90711 0
M  V30 379 C 32.7602 0.565569 3.40434 0
M  V30 380 C 31.8732 1.71259 3.96604 0
M  V30 381 C 31.0082 1.24011 5.16522 0
M  V30 382 C 30.0472 2.35896 5.64818 0
M  V30 383 N 29.1842 1.89726 6.7598 0
M  V30 384 H 34.0242 1.91892 2.27994 0
M  V30 385 H 31.5612 0.956199 1.11782 0
M  V30 386 H 33.5192 0.302738 4.161 0
M  V30 387 H 32.1492 -0.329879 3.2111 0
M  V30 388 H 31.2012 2.08986 3.17851 0
M  V30 389 H 32.5132 2.55436 4.28432 0
M  V30 390 H 31.6672 0.934395 5.99461 0
M  V30 391 H 30.4062 0.368487 4.86306 0
M  V30 392 H 29.4112 2.67261 4.8047 0
M  V30 393 H 30.6362 3.23567 5.97061 0
M  V30 394 H 28.5822 1.0492 6.47555 0
M  V30 395 H 28.4992 2.67471 7.07103 0
M  V30 396 H 29.7672 1.62211 7.62435 0
M  V30 397 N 33.9963 -1.19345 1.0293 0
M  V30 398 C 35.4073 -1.70725 0.755633 0
M  V30 399 C 35.7583 -1.82326 -0.724676 0
M  V30 400 O 34.8833 -1.49471 -1.56484 0
M  V30 401 C 35.4783 -3.10084 1.36503 0
M  V30 402 C 34.0373 -3.58723 1.13994 0
M  V30 403 C 33.1843 -2.35577 1.46283 0
M  V30 404 H 36.1353 -1.0418 1.19718 0
M  V30 405 H 36.1563 -3.72787 0.762217 0
M  V30 406 H 35.6683 -3.01609 2.44241 0
M  V30 407 H 33.7693 -3.72512 0.0807901 0
M  V30 408 H 33.8823 -4.42816 1.82894 0
M  V30 409 H 32.2463 -2.38935 0.88217 0
M  V30 410 H 33.0293 -2.29731 2.55105 0
M  V30 411 N 35.4744 -0.807222 -1.35358 0
M  V30 412 C 36.7214 -0.387888 -1.9875 0
M  V30 413 C 37.0494 1.04509 -1.64037 0
M  V30 414 O 36.3044 1.73986 -0.895946 0
M  V30 415 C 36.6034 -0.519036 -3.53611 0
M  V30 416 C 36.2694 -1.91542 -4.08194 0
M  V30 417 C 34.9314 -2.29745 -4.22813 0
M  V30 418 C 37.2834 -2.82896 -4.37744 0
M  V30 419 C 34.6114 -3.58668 -4.643 0
M  V30 420 C 36.9634 -4.11265 -4.8067 0
M  V30 421 C 35.6274 -4.49466 -4.93494 0
M  V30 422 H 34.8974 -0.141938 -0.727279 0
M  V30 423 H 37.5444 -1.02814 -1.6156 0
M  V30 424 H 35.8494 0.204658 -3.91265 0
M  V30 425 H 37.5464 -0.175345 -4.00616 0
M  V30 426 H 34.1364 -1.60862 -3.97268 0
M  V30 427 H 38.3204 -2.54629 -4.26002 0
M  V30 428 H 33.5764 -3.88113 -4.72418 0
M  V30 429 H 37.7504 -4.82153 -5.02496 0
M  V30 430 H 35.3774 -5.49418 -5.25399 0
M  V30 431 N 36.9525 1.47285 -0.560781 0
M  V30 432 C 37.8825 2.32857 0.173105 0
M  V30 433 C 38.8635 1.44009 0.905281 0
M  V30 434 O 40.0485 1.7286 0.885046 0
M  V30 435 C 37.1785 3.25861 1.20133 0
M  V30 436 C 36.1325 4.23978 0.585388 0
M  V30 437 C 35.4585 5.06332 1.7185 0
M  V30 438 C 36.7585 5.20242 -0.463178 0
M  V30 439 H 38.4525 2.94466 -0.541307 0
M  V30 440 H 35.9985 1.41601 -0.261764 0
M  V30 441 H 37.9515 3.84569 1.72293 0
M  V30 442 H 36.6755 2.62315 1.94573 0
M  V30 443 H 35.3345 3.66501 0.085054 0
M  V30 444 H 34.9825 4.39186 2.45203 0
M  V30 445 H 34.6825 5.72762 1.31213 0
M  V30 446 H 36.2065 5.67899 2.24329 0
M  V30 447 H 37.6205 5.73293 -0.027502 0
M  V30 448 H 36.0175 5.94896 -0.788627 0
M  V30 449 H 37.0875 4.65504 -1.35773 0
M  V30 450 N 38.4306 0.297415 1.54768 0
M  V30 451 C 39.6706 -0.313829 2.01976 0
M  V30 452 C 40.0346 -1.51366 1.1812 0
M  V30 453 O 41.2356 -2.19603 1.5501 0
M  V30 454 C 39.5066 -0.664964 3.51159 0
M  V30 455 S 41.0656 -1.25958 4.20333 0
M  V30 456 H 37.8836 -0.0965014 0.704421 0
M  V30 457 H 40.4856 0.424451 1.90837 0
M  V30 458 H 39.1896 0.21681 4.09827 0
M  V30 459 H 38.7206 -1.43413 3.66328 0
M  V30 460 H 40.7356 -2.54751 4.25813 0
M  V30 461 N 39.9087 -1.5758 0.0250728 0
M  V30 462 C 41.1367 -1.9593 -0.664747 0
M  V30 463 C 41.5517 -0.901352 -1.65895 0
M  V30 464 O 40.9087 0.117255 -1.82123 0
M  V30 465 C 40.9597 -3.34342 -1.37468 0
M  V30 466 O 40.6807 -4.36079 -0.420324 0
M  V30 467 C 42.1817 -3.873 -2.1567 0
M  V30 468 H 39.4017 -0.645405 -0.183557 0
M  V30 469 H 41.9457 -2.04329 0.0836372 0
M  V30 470 H 40.1007 -3.27175 -2.0745 0
M  V30 471 H 40.5147 -5.16297 -0.923991 0
M  V30 472 H 41.9887 -4.86504 -2.60803 0
M  V30 473 H 42.4657 -3.21331 -2.99405 0
M  V30 474 H 43.0717 -3.97723 -1.50654 0
M  V30 475 N 41.3868 0.248026 -1.55636 0
M  V30 476 C 42.3498 1.29044 -1.89421 0
M  V30 477 C 43.3498 1.41134 -0.770581 0
M  V30 478 O 44.5398 1.39854 -1.03858 0
M  V30 479 C 41.6718 2.66831 -2.12165 0
M  V30 480 H 42.8648 1.00305 -2.82629 0
M  V30 481 H 40.4178 0.487265 -1.48511 0
M  V30 482 H 41.1528 3.00711 -1.21422 0
M  V30 483 H 40.9378 2.59438 -2.93997 0
M  V30 484 H 42.4278 3.42103 -2.3949 0
M  V30 485 N 42.8649 1.48995 0.513639 0
M  V30 486 C 44.2759 1.5119 1.09537 0
M  V30 487 C 44.6269 0.290906 1.94031 0
M  V30 488 O 43.7519 -0.60049 2.07902 0
M  V30 489 C 44.3469 2.73964 1.99322 0
M  V30 490 C 42.9059 2.78978 2.52682 0
M  V30 491 C 42.0529 2.44934 1.30009 0
M  V30 492 H 45.0039 1.55875 0.298125 0
M  V30 493 H 45.0249 2.53409 2.83838 0
M  V30 494 H 44.5369 3.62813 1.37799 0
M  V30 495 H 42.6379 1.94378 3.1788 0
M  V30 496 H 42.7509 3.8083 2.90698 0
M  V30 497 H 41.1149 1.9644 1.62122 0
M  V30 498 H 41.8979 3.36043 0.702131 0
M  V30 499 N 44.343 -0.763751 1.37857 0
M  V30 500 C 45.591 -1.51957 1.33243 0
M  V30 501 C 45.912 -1.94835 -0.0801709 0
M  V30 502 O 45.182 -1.66894 -1.02582 0
M  V30 503 H 43.762 -0.563626 0.49024 0
M  V30 504 H 46.424 -0.908504 1.7243 0
M  V30 505 H 45.52 -2.41523 1.97669 0
M  V30 506 N 45.8211 -1.22559 -0.990812 0
M  V30 507 C 47.0611 -1.06302 -1.74583 0
M  V30 508 C 47.4251 0.394737 -1.87898 0
M  V30 509 O 48.6261 0.678214 -2.60103 0
M  V30 510 C 46.8971 -1.75699 -3.11231 0
M  V30 511 S 48.4561 -1.74882 -4.02445 0
M  V30 512 H 45.2741 -0.380639 -0.600529 0
M  V30 513 H 47.8761 -1.55532 -1.18449 0
M  V30 514 H 46.5801 -2.80923 -2.99183 0
M  V30 515 H 46.1111 -1.26708 -3.72436 0
M  V30 516 H 48.1261 -0.799997 -4.89709 0
M  V30 517 N 47.2992 1.18797 -1.03562 0
M  V30 518 C 48.5472 1.88278 -0.734569 0
M  V30 519 C 48.8682 1.8043 0.739586 0
M  V30 520 O 48.1382 1.21925 1.53333 0
M  V30 521 H 46.7182 0.696991 -0.268725 0
M  V30 522 H 49.3802 1.44192 -1.31129 0
M  V30 523 H 48.4762 2.94443 -1.03489 0
M  V30 524 N 48.7773 0.814389 1.34928 0
M  V30 525 C 49.7093 0.187834 2.28429 0
M  V30 526 C 50.7223 -0.617374 1.5064 0
M  V30 527 O 51.9113 -0.448454 1.72775 0
M  V30 528 C 49.0113 -0.755962 3.30361 0
M  V30 529 C 48.1843 0.00456686 4.374 0
M  V30 530 C 47.2433 -0.858876 5.19143 0
M  V30 531 O 46.2693 -0.306968 5.68372 0
M  V30 532 N 47.4713 -2.17988 5.38016 0
M  V30 533 H 50.2363 0.991105 2.82838 0
M  V30 534 H 47.7973 0.670561 1.4736 0
M  V30 535 H 49.7893 -1.338 3.81942 0
M  V30 536 H 48.3593 -1.46001 2.7641 0
M  V30 537 H 47.5793 0.767865 3.86649 0
M  V30 538 H 48.8673 0.528422 5.06049 0
M  V30 539 H 48.2653 -2.65212 4.99679 0
M  V30 540 H 46.8223 -2.71098 5.92747 0
M  V30 541 N 50.2554 -1.46986 0.568584 0
M  V30 542 C 51.6714 -1.57946 0.229189 0
M  V30 543 C 51.8714 -1.56567 -1.26843 0
M  V30 544 O 50.9274 -1.47511 -2.04931 0
M  V30 545 C 52.2404 -2.87963 0.865909 0
M  V30 546 C 53.7884 -3.01568 0.838188 0
M  V30 547 C 54.2634 -4.34301 1.45419 0
M  V30 548 N 55.7544 -4.40965 1.41788 0
M  V30 549 C 56.4894 -5.42256 1.86403 0
M  V30 550 N 55.9854 -6.50297 2.38926 0
M  V30 551 N 57.7784 -5.3337 1.77405 0
M  V30 552 H 49.9294 -1.46126 1.54146 0
M  V30 553 H 52.1924 -0.696156 0.643484 0
M  V30 554 H 51.8984 -2.94742 1.91886 0
M  V30 555 H 51.7724 -3.75423 0.365687 0
M  V30 556 H 54.1594 -2.94379 -0.206106 0
M  V30 557 H 54.2404 -2.1562 1.37629 0
M  V30 558 H 53.8844 -4.42247 2.49761 0
M  V30 559 H 53.8144 -5.19 0.891435 0
M  V30 560 H 56.3054 -3.63484 1.03381 0
M  V30 561 H 56.6184 -7.23777 2.70863 0
M  V30 562 H 54.9634 -6.51155 2.42944 0
M  V30 563 H 58.1544 -4.47865 1.3614 0
M  V30 564 H 58.3274 -6.12169 2.12492 0
M  V30 565 N 51.7335 -0.305618 -1.54608 0
M  V30 566 C 52.9805 0.302298 -2.00231 0
M  V30 567 C 53.3085 1.5354 -1.19398 0
M  V30 568 O 52.5635 1.93973 -0.259423 0
M  V30 569 C 52.8625 0.698983 -3.50498 0
M  V30 570 C 52.5285 -0.432903 -4.48817 0
M  V30 571 C 51.1905 -0.743622 -4.75419 0
M  V30 572 C 53.5425 -1.19409 -5.07337 0
M  V30 573 C 50.8705 -1.81857 -5.57804 0
M  V30 574 C 53.2225 -2.25899 -5.90891 0
M  V30 575 C 51.8865 -2.57572 -6.15803 0
M  V30 576 H 51.1565 0.110619 -0.732697 0
M  V30 577 H 53.8035 -0.425674 -1.86709 0
M  V30 578 H 52.1085 1.50711 -3.61654 0
M  V30 579 H 53.8055 1.1806 -3.83227 0
M  V30 580 H 50.3955 -0.18063 -4.28219 0
M  V30 581 H 54.5795 -0.967295 -4.86782 0
M  V30 582 H 49.8355 -2.06864 -5.75341 0
M  V30 583 H 54.0095 -2.85335 -6.35261 0
M  V30 584 H 51.6365 -3.40998 -6.7943 0
M  V30 585 N 53.2116 1.57565 -0.0334293 0
M  V30 586 C 54.4396 1.9628 0.654347 0
M  V30 587 C 54.8546 0.910138 1.65414 0
M  V30 588 O 54.2116 -0.107595 1.82183 0
M  V30 589 C 54.2626 3.35067 1.35693 0
M  V30 590 O 53.9836 4.36296 0.397191 0
M  V30 591 C 55.4846 3.88439 2.13613 0
M  V30 592 H 52.7046 0.646369 0.180132 0
M  V30 593 H 55.2486 2.04282 -0.0944721 0
M  V30 594 H 53.4036 3.2827 2.05712 0
M  V30 595 H 53.8176 5.1678 0.896597 0
M  V30 596 H 55.2916 4.8788 2.58219 0
M  V30 597 H 55.7686 3.22914 2.97696 0
M  V30 598 H 56.3746 3.98516 1.48543 0
M  V30 599 N 54.6897 -0.239769 1.55765 0
M  V30 600 C 55.6377 -1.31668 1.91745 0
M  V30 601 C 56.6317 -1.49462 0.797338 0
M  V30 602 O 57.8377 -1.50852 0.982021 0
M  V30 603 H 54.2127 -0.441048 0.609082 0
M  V30 604 H 56.1837 -0.985923 2.81642 0
M  V30 605 C 54.9327 -2.66368 2.2348 0
M  V30 606 H 54.2557 -2.53478 3.09175 0
M  V30 607 H 55.6957 -3.40578 2.52553 0
M  V30 608 C 54.1547 -3.20002 1.05359 0
M  V30 609 O 54.6847 -4.00538 0.305261 0
M  V30 610 N 52.8907 -2.78126 0.842292 0
M  V30 611 H 52.4377 -2.12742 1.45253 0
M  V30 612 H 52.3957 -3.14354 0.053652 0
M  V30 613 N 56.1678 -1.49265 -0.50573 0
M  V30 614 C 57.0778 -1.68312 -1.63427 0
M  V30 615 C 58.0938 -0.565682 -1.64548 0
M  V30 616 O 59.2698 -0.839801 -1.83055 0
M  V30 617 C 56.3348 -1.74107 -2.99813 0
M  V30 618 C 55.3958 -2.97653 -3.09356 0
M  V30 619 C 54.6288 -3.03163 -4.39236 0
M  V30 620 O 54.8518 -2.16396 -5.27758 0
M  V30 621 O 53.7858 -3.9558 -4.53652 0
M  V30 622 H 57.6118 -2.63907 -1.50289 0
M  V30 623 H 55.1968 -1.32951 -0.681502 0
M  V30 624 H 57.0788 -1.803 -3.80881 0
M  V30 625 H 55.7538 -0.816901 -3.13223 0
M  V30 626 H 54.6608 -2.96981 -2.27493 0
M  V30 627 H 55.9938 -3.89535 -3.00871 0
M  V30 628 N 57.6459 0.756429 -1.3826 0
M  V30 629 C 58.9229 1.50584 -1.24835 0
M  V30 630 C 59.3029 2.10556 0.151485 0
M  V30 631 O 58.6509 1.96825 1.1607 0
M  V30 632 C 58.8609 2.57448 -2.3563 0
M  V30 633 C 60.2089 3.24429 -2.73917 0
M  V30 634 O 61.2329 2.67751 -2.34921 0
M  V30 635 O 60.0919 4.26937 -3.41156 0
M  V30 636 H 57.1859 0.667664 -0.48801 0
M  V30 637 H 59.7319 0.792083 -1.5008 0
M  V30 638 H 58.5039 2.11362 -3.29305 0
M  V30 639 H 58.1269 3.36408 -2.11933 0
M  V30 640 N 59.124 1.23083 0.984299 0
M  V30 641 C 60.074 0.975749 2.06066 0
M  V30 642 C 61.058 -0.0768251 1.60716 0
M  V30 643 O 62.25 0.134805 1.76486 0
M  V30 644 C 59.379 0.564673 3.38624 0
M  V30 645 C 58.465 1.65244 3.90583 0
M  V30 646 N 58.856 2.88193 4.15666 0
M  V30 647 C 57.154 1.52612 4.19077 0
M  V30 648 C 57.855 3.58593 4.58024 0
M  V30 649 N 56.831 2.86093 4.62225 0
M  V30 650 H 60.633 1.90957 2.23411 0
M  V30 651 H 58.147 1.12963 1.16675 0
M  V30 652 H 60.144 0.36322 4.15315 0
M  V30 653 H 58.804 -0.362147 3.22674 0
M  V30 654 H 59.815 3.24537 4.03604 0
M  V30 655 H 56.492 0.666121 4.12152 0
M  V30 656 H 57.882 4.63974 4.85982 0
M  V30 657 N 60.6021 -1.18246 1.0419 0
M  V30 658 C 61.5321 -2.24127 0.654914 0
M  V30 659 C 62.5131 -1.66617 -0.342451 0
M  V30 660 O 63.6981 -1.92924 -0.222277 0
M  V30 661 C 60.8281 -3.47295 0.0183757 0
M  V30 662 C 59.7821 -4.17563 0.939414 0
M  V30 663 C 59.1081 -5.34438 0.167286 0
M  V30 664 C 60.4081 -4.70917 2.25908 0
M  V30 665 H 62.1021 -2.56753 1.54007 0
M  V30 666 H 59.6481 -1.23414 0.74195 0
M  V30 667 H 61.6011 -4.20572 -0.264082 0
M  V30 668 H 60.3251 -3.13907 -0.901664 0
M  V30 669 H 58.9841 -3.46186 1.20628 0
M  V30 670 H 58.6321 -4.97298 -0.7552 0
M  V30 671 H 58.3321 -5.82388 0.780901 0
M  V30 672 H 59.8561 -6.10504 -0.108125 0
M  V30 673 H 61.2701 -5.35882 2.03724 0
M  V30 674 H 59.6671 -5.29406 2.82577 0
M  V30 675 H 60.7371 -3.88272 2.9047 0
M  V30 676 N 62.0802 -0.821533 -1.34494 0
M  V30 677 C 63.0432 -0.247847 -2.27856 0
M  V30 678 C 64.0432 0.573453 -1.50227 0
M  V30 679 O 65.2332 0.389759 -1.69784 0
M  V30 680 C 62.3652 0.652698 -3.34593 0
M  V30 681 H 63.5582 -1.07146 -2.80107 0
M  V30 682 H 61.1112 -0.593291 -1.44602 0
M  V30 683 H 61.8462 1.49943 -2.87555 0
M  V30 684 H 61.6312 0.065292 -3.92046 0
M  V30 685 H 63.1212 1.04793 -4.04238 0
M  V30 686 N 63.5583 1.46682 -0.576371 0
M  V30 687 C 64.8043 2.02712 -0.0596221 0
M  V30 688 C 65.1373 1.44765 1.29448 0
M  V30 689 O 64.4123 0.610355 1.84675 0
M  V30 690 C 64.6953 3.60098 0.0129503 0
M  V30 691 C 64.5483 4.28441 -1.3696 0
M  V30 692 C 65.8673 4.34224 0.71678 0
M  V30 693 H 62.9863 0.736637 -0.0231407 0
M  V30 694 H 65.6283 1.74898 -0.742351 0
M  V30 695 H 63.7783 3.83926 0.594378 0
M  V30 696 H 65.4503 4.15896 -1.9957 0
M  V30 697 H 63.6933 3.8805 -1.93907 0
M  V30 698 H 64.3643 5.3716 -1.27135 0
M  V30 699 H 66.8403 4.15503 0.222908 0
M  V30 700 H 65.7163 5.43936 0.73657 0
M  V30 701 H 65.9773 4.04823 1.77682 0
M  V30 702 N 65.0364 0.313813 1.54444 0
M  V30 703 C 65.9864 -0.571898 2.20711 0
M  V30 704 C 66.9704 -1.08913 1.18435 0
M  V30 705 O 68.1624 -1.02777 1.44104 0
M  V30 706 C 65.2914 -1.7371 2.96108 0
M  V30 707 C 64.3774 -1.23522 4.05713 0
M  V30 708 N 64.7684 -0.452288 5.03774 0
M  V30 709 C 63.0664 -1.51482 4.19487 0
M  V30 710 C 63.7674 -0.183438 5.81411 0
M  V30 711 N 62.7434 -0.766845 5.38164 0
M  V30 712 H 66.5454 0.0336802 2.93881 0
M  V30 713 H 64.0594 0.119192 1.61962 0
M  V30 714 H 66.0564 -2.38329 3.4206 0
M  V30 715 H 64.7164 -2.34625 2.24458 0
M  V30 716 H 65.7274 -0.0960131 5.17811 0
M  V30 717 H 62.4044 -2.13053 3.59047 0
M  V30 718 H 63.7944 0.446216 6.70417 0
M  V30 719 N 66.5145 -1.57545 0.0417849 0
M  V30 720 C 67.4615 -2.10977 -0.935805 0
M  V30 721 C 68.4315 -1.01486 -1.31491 0
M  V30 722 O 69.6165 -1.2898 -1.40602 0
M  V30 723 C 66.7565 -2.65169 -2.2086 0
M  V30 724 C 65.8695 -3.88714 -1.88482 0
M  V30 725 C 65.0045 -4.31254 -3.1015 0
M  V30 726 C 64.0435 -5.47524 -2.7365 0
M  V30 727 N 63.1805 -5.85162 -3.87982 0
M  V30 728 H 68.0205 -2.94218 -0.473249 0
M  V30 729 H 65.5575 -1.45415 -0.221981 0
M  V30 730 H 67.5155 -2.94685 -2.95325 0
M  V30 731 H 66.1455 -1.8474 -2.64709 0
M  V30 732 H 65.1975 -3.65849 -1.04205 0
M  V30 733 H 66.5095 -4.73245 -1.57608 0
M  V30 734 H 65.6635 -4.62273 -3.92923 0
M  V30 735 H 64.4025 -3.45516 -3.44195 0
M  V30 736 H 63.4075 -5.16187 -1.89291 0
M  V30 737 H 64.6325 -6.34971 -2.40807 0
M  V30 738 H 62.5785 -5.02377 -4.21846 0
M  V30 739 H 62.4955 -6.64362 -3.60775 0
M  V30 740 H 63.7635 -6.20791 -4.71422 0
M  V30 741 N 67.9926 0.231505 -1.5589 0
M  V30 742 C 68.9426 1.29007 -1.87993 0
M  V30 743 C 69.9266 1.42764 -0.742102 0
M  V30 744 O 71.1186 1.45747 -1.00433 0
M  V30 745 C 68.2476 2.6425 -2.1915 0
M  V30 746 C 67.3336 2.54435 -3.39299 0
M  V30 747 N 67.7246 2.14262 -4.58176 0
M  V30 748 C 66.0226 2.85416 -3.42715 0
M  V30 749 C 66.7236 2.15455 -5.40328 0
M  V30 750 N 65.6996 2.55558 -4.79783 0
M  V30 751 H 69.5016 0.970213 -2.77424 0
M  V30 752 H 67.0156 0.440097 -1.56323 0
M  V30 753 H 69.0126 3.40665 -2.40319 0
M  V30 754 H 67.6726 2.9709 -1.31025 0
M  V30 755 H 68.6836 1.85554 -4.83518 0
M  V30 756 H 65.3606 3.22693 -2.64906 0
M  V30 757 H 66.7506 1.86605 -6.45467 0
M  V30 758 N 69.4707 1.49531 0.497807 0
M  V30 759 C 70.4177 1.66436 1.59899 0
M  V30 760 C 71.3877 0.505793 1.58212 0
M  V30 761 O 72.5727 0.733202 1.7615 0
M  V30 762 C 69.7127 1.7399 2.98029 0
M  V30 763 C 68.8257 3.01172 3.09708 0
M  V30 764 C 67.9607 2.99686 4.38591 0
M  V30 765 C 66.9997 4.21434 4.43914 0
M  V30 766 N 66.1367 4.1784 5.64229 0
M  V30 767 H 70.9767 2.60459 1.44793 0
M  V30 768 H 68.5137 1.29137 0.704423 0
M  V30 769 H 70.4717 1.76352 3.78095 0
M  V30 770 H 69.1017 0.834301 3.11832 0
M  V30 771 H 68.1537 3.08408 2.22685 0
M  V30 772 H 69.4657 3.91165 3.09502 0
M  V30 773 H 68.6197 3.00628 5.2698 0
M  V30 774 H 67.3587 2.07477 4.41367 0
M  V30 775 H 66.3637 4.20733 3.53926 0
M  V30 776 H 67.5887 5.14839 4.42851 0
M  V30 777 H 65.5347 3.28469 5.67841 0
M  V30 778 H 65.4517 5.01571 5.65652 0
M  V30 779 H 66.7197 4.22889 6.54817 0
M  V30 780 N 70.9488 -0.749086 1.3866 0
M  V30 781 C 71.8988 -1.85368 1.32751 0
M  V30 782 C 72.8828 -1.59511 0.210945 0
M  V30 783 O 74.0748 -1.71255 0.447299 0
M  V30 784 C 71.2038 -3.23131 1.15935 0
M  V30 785 C 70.2898 -3.54864 2.32233 0
M  V30 786 N 70.6808 -3.57625 3.57684 0
M  V30 787 C 68.9788 -3.85154 2.24883 0
M  V30 788 C 69.6798 -3.86753 4.34508 0
M  V30 789 N 68.6558 -4.03812 3.63918 0
M  V30 790 H 72.4578 -1.85787 2.27729 0
M  V30 791 H 69.9718 -0.946658 1.31955 0
M  V30 792 H 71.9688 -4.02185 1.09786 0
M  V30 793 H 70.6288 -3.23961 0.218947 0
M  V30 794 H 71.6398 -3.39276 3.91295 0
M  V30 795 H 68.3168 -3.93672 1.39027 0
M  V30 796 H 69.7068 -3.95474 5.43185 0
M  V30 797 N 72.4269 -1.23603 -0.977757 0
M  V30 798 C 73.3369 -1.03632 -2.1047 0
M  V30 799 C 74.3529 0.0199435 -1.73989 0
M  V30 800 O 75.5289 -0.176076 -2.00629 0
M  V30 801 C 72.5939 -0.63276 -3.40877 0
M  V30 802 C 71.6549 -1.76437 -3.91367 0
M  V30 803 C 70.8879 -1.37997 -5.15551 0
M  V30 804 O 71.1109 -0.265357 -5.69782 0
M  V30 805 O 70.0449 -2.20201 -5.60174 0
M  V30 806 H 73.8709 -1.98086 -2.30208 0
M  V30 807 H 71.4559 -1.02332 -1.08851 0
M  V30 808 H 73.3379 -0.418761 -4.19314 0
M  V30 809 H 72.0129 0.282754 -3.22463 0
M  V30 810 H 70.9199 -2.03304 -3.14036 0
M  V30 811 H 72.2529 -2.6583 -4.14241 0
M  V30 812 N 73.905 1.17692 -1.04816 0
M  V30 813 C 74.838 2.20436 -0.590173 0
M  V30 814 C 75.816 1.58115 0.379244 0
M  V30 815 O 77 1.86228 0.291762 0
M  V30 816 C 74.127 3.38424 0.136817 0
M  V30 817 C 73.173 4.19176 -0.787023 0
M  V30 818 S 74.006 4.84815 -2.27409 0
M  V30 819 C 75.162 6.06195 -1.55817 0
M  V30 820 H 75.395 2.58944 -1.46067 0
M  V30 821 H 72.928 1.28246 -0.859784 0
M  V30 822 H 74.886 4.06798 0.550076 0
M  V30 823 H 73.547 2.98312 0.983299 0
M  V30 824 H 72.74 5.03499 -0.224681 0
M  V30 825 H 72.342 3.56219 -1.13947 0
M  V30 826 H 74.634 6.72078 -0.855387 0
M  V30 827 H 75.577 6.6695 -2.37873 0
M  V30 828 H 75.985 5.54701 -1.04722 0
M  V30 829 N 75.3831 0.828654 1.34056 0
M  V30 830 C 76.6111 0.43262 2.02326 0
M  V30 831 C 77.0261 -0.963147 1.62385 0
M  V30 832 O 76.3831 -1.62425 0.832121 0
M  V30 833 C 76.4341 0.53182 3.57567 0
M  V30 834 O 76.1551 1.87258 3.96063 0
M  V30 835 C 77.6561 0.131422 4.43105 0
M  V30 836 H 74.8761 0.172923 0.648335 0
M  V30 837 H 77.4201 1.1184 1.71208 0
M  V30 838 H 75.5751 -0.105938 3.87255 0
M  V30 839 H 75.9891 1.85087 4.90758 0
M  V30 840 H 77.4631 0.251904 5.51425 0
M  V30 841 H 77.9401 -0.925645 4.29335 0
M  V30 842 H 78.5461 0.743207 4.18756 0
M  V30 843 N 76.8612 -1.46375 0.584142 0
M  V30 844 C 77.7912 -2.33103 -0.136037 0
M  V30 845 C 78.7722 -1.45431 -0.882255 0
M  V30 846 O 79.9572 -1.74246 -0.857434 0
M  V30 847 C 77.0872 -3.27731 -1.14933 0
M  V30 848 C 76.0412 -4.24855 -0.517862 0
M  V30 849 C 75.3672 -5.09001 -1.63773 0
M  V30 850 C 76.6672 -5.19439 0.545886 0
M  V30 851 H 78.3612 -2.93568 0.588086 0
M  V30 852 H 75.9072 -1.41166 0.284259 0
M  V30 853 H 77.8602 -3.87261 -1.66153 0
M  V30 854 H 76.5842 -2.65377 -1.90375 0
M  V30 855 H 75.2432 -3.6659 -0.0267361 0
M  V30 856 H 74.8912 -4.43031 -2.38185 0
M  V30 857 H 74.5912 -5.74777 -1.22085 0
M  V30 858 H 76.1152 -5.71396 -2.15266 0
M  V30 859 H 77.5292 -5.73177 0.118704 0
M  V30 860 H 75.9262 -5.93566 0.88317 0
M  V30 861 H 76.9962 -4.63285 1.43162 0
M  V30 862 N 78.3393 -0.321999 -1.54275 0
M  V30 863 C 79.2863 0.544664 -2.24281 0
M  V30 864 C 80.2563 1.1129 -1.23303 0
M  V30 865 O 81.4413 1.15354 -1.51981 0
M  V30 866 C 78.5813 1.70045 -3.00298 0
M  V30 867 C 77.6943 1.16159 -4.1609 0
M  V30 868 C 76.8293 2.28293 -4.79641 0
M  V30 869 C 75.8683 1.71648 -5.8754 0
M  V30 870 N 75.0053 2.77438 -6.44959 0
M  V30 871 H 79.8453 -0.0588907 -2.97942 0
M  V30 872 H 77.3823 -0.0408345 -1.47043 0
M  V30 873 H 79.3403 2.38054 -3.42616 0
M  V30 874 H 77.9703 2.27531 -2.28975 0
M  V30 875 H 77.0223 0.373092 -3.78566 0
M  V30 876 H 78.3343 0.707087 -4.93763 0
M  V30 877 H 77.4883 3.0421 -5.2492 0
M  V30 878 H 76.2273 2.77079 -4.01346 0
M  V30 879 H 75.2323 0.942282 -5.41665 0
M  V30 880 H 76.4573 1.23741 -6.67731 0
M  V30 881 H 74.4033 3.25519 -5.69538 0
M  V30 882 H 74.3203 2.36547 -7.1804 0
M  V30 883 H 75.5883 3.53189 -6.94894 0
M  V30 884 N 79.8174 1.5752 -0.0501392 0
M  V30 885 C 81.0644 1.9265 0.623874 0
M  V30 886 C 81.3924 0.928411 1.70912 0
M  V30 887 O 80.6474 -0.0594525 1.9561 0
M  V30 888 C 80.9464 3.34467 1.25963 0
M  V30 889 C 80.6124 4.49883 0.302689 0
M  V30 890 C 79.2744 4.81184 0.0393636 0
M  V30 891 C 81.6264 5.20002 -0.353205 0
M  V30 892 C 78.9544 5.79951 -0.887308 0
M  V30 893 C 81.3064 6.1976 -1.26806 0
M  V30 894 C 79.9704 6.49491 -1.54007 0
M  V30 895 H 79.2404 0.704957 0.228292 0
M  V30 896 H 81.8874 1.91146 -0.116398 0
M  V30 897 H 80.1924 3.32333 2.07514 0
M  V30 898 H 81.8894 3.58928 1.78806 0
M  V30 899 H 78.4794 4.25457 0.518109 0
M  V30 900 H 82.6634 4.96033 -0.162854 0
M  V30 901 H 77.9194 6.01322 -1.10553 0
M  V30 902 H 82.0934 6.73205 -1.78236 0
M  V30 903 H 79.7204 7.25837 -2.25976 0
M  V30 904 N 81.2955 -0.223234 1.56011 0
M  V30 905 C 82.5435 -0.946003 1.78592 0
M  V30 906 C 82.8645 -1.84936 0.618349 0
M  V30 907 O 82.1345 -1.92473 -0.364833 0
M  V30 908 H 80.7145 -0.352298 0.658707 0
M  V30 909 H 83.3765 -0.235494 1.93472 0
M  V30 910 H 82.4725 -1.55381 2.70672 0
M  V30 911 N 82.7736 -1.49793 -0.48987 0
M  V30 912 C 84.1846 -1.52914 -1.07118 0
M  V30 913 C 84.5356 -0.321738 -1.93544 0
M  V30 914 O 83.6606 0.567338 -2.08831 0
M  V30 915 C 84.2556 -2.771 -1.94938 0
M  V30 916 C 82.8146 -2.82963 -2.48212 0
M  V30 917 C 81.9616 -2.46972 -1.26096 0
M  V30 918 H 84.9126 -1.56329 -0.273289 0
M  V30 919 H 84.9336 -2.57892 -2.79771 0
M  V30 920 H 84.4456 -3.64959 -1.32009 0
M  V30 921 H 82.5466 -1.99411 -3.14748 0
M  V30 922 H 82.6596 -3.85406 -2.84603 0
M  V30 923 H 81.0236 -1.98994 -1.58976 0
M  V30 924 H 81.8066 -3.37118 -0.648581 0
M  V30 925 N 84.2517 0.741722 -1.39055 0
M  V30 926 C 85.2147 1.83733 -1.37021 0
M  V30 927 C 86.2147 1.58542 -0.268534 0
M  V30 928 O 87.4047 1.66067 -0.526076 0
M  V30 929 C 84.5367 3.2141 -1.13617 0
M  V30 930 H 85.7297 1.86941 -2.34506 0
M  V30 931 H 83.2827 0.944676 -1.24521 0
M  V30 932 H 84.0177 3.23865 -0.167863 0
M  V30 933 H 83.8027 3.4109 -1.93391 0
M  V30 934 H 85.2927 4.01477 -1.14918 0
M  V30 935 N 85.7298 1.2412 0.971189 0
M  V30 936 C 87.1458 1.00584 1.23916 0
M  V30 937 C 87.3458 -0.287481 1.99439 0
M  V30 938 O 86.4018 -1.00454 2.31658 0
M  V30 939 C 87.7148 2.21864 2.0297 0
M  V30 940 C 89.2628 2.26452 2.16076 0
M  V30 941 C 89.7378 3.47343 2.98524 0
M  V30 942 N 91.2288 3.47639 3.06107 0
M  V30 943 C 91.9638 4.37837 3.70251 0
M  V30 944 N 91.4598 5.38286 4.36142 0
M  V30 945 N 93.2528 4.25558 3.67228 0
M  V30 946 H 85.4038 2.07236 0.465499 0
M  V30 947 H 87.6668 0.909236 0.268315 0
M  V30 948 H 87.3728 3.15771 1.54861 0
M  V30 949 H 87.2468 2.23698 3.03709 0
M  V30 950 H 89.6338 1.33078 2.6339 0
M  V30 951 H 89.7148 2.28645 1.14696 0
M  V30 952 H 89.3588 4.41029 2.51905 0
M  V30 953 H 89.2888 3.42393 4.00093 0
M  V30 954 H 91.7798 2.74966 2.59233 0
M  V30 955 H 92.0928 6.03352 4.82894 0
M  V30 956 H 90.4378 5.42176 4.34822 0
M  V30 957 H 93.6288 3.46322 3.14927 0
M  V30 958 H 93.8018 4.96054 4.16935 0
M  V30 959 N 87.2079 -1.17134 1.05439 0
M  V30 960 C 88.1559 -2.23289 0.651511 0
M  V30 961 C 89.1499 -1.66186 -0.328411 0
M  V30 962 O 90.3559 -1.78949 -0.194206 0
M  V30 963 H 86.7309 -0.726938 0.192523 0
M  V30 964 H 88.7019 -2.54565 1.55689 0
M  V30 965 C 87.4509 -3.47671 0.0448436 0
M  V30 966 H 86.7739 -3.91918 0.78996 0
M  V30 967 H 88.2139 -4.2353 -0.19964 0
M  V30 968 C 86.6729 -3.14453 -1.20918 0
M  V30 969 O 87.2029 -3.29459 -2.29825 0
M  V30 970 N 85.4089 -2.68657 -1.10779 0
M  V30 971 H 84.9559 -2.56646 -0.221526 0
M  V30 972 H 84.9139 -2.46804 -1.9477 0
M  V30 973 N 88.686 -0.835752 -1.33615 0
M  V30 974 C 89.963 -0.352017 -1.92406 0
M  V30 975 C 90.343 1.16225 -1.76224 0
M  V30 976 O 89.691 1.97526 -1.14873 0
M  V30 977 C 89.901 -0.795485 -3.39813 0
M  V30 978 C 91.249 -0.801703 -4.16963 0
M  V30 979 O 92.273 -0.738889 -3.48452 0
M  V30 980 O 91.132 -0.886607 -5.3926 0
M  V30 981 H 88.226 -0.0989641 -0.821057 0
M  V30 982 H 90.772 -0.921397 -1.42507 0
M  V30 983 H 89.544 -1.83795 -3.45449 0
M  V30 984 H 89.167 -0.202505 -3.97084 0
M  V30 985 N 90.1641 1.46063 -0.591896 0
M  V30 986 C 91.3891 2.07226 -0.0850314 0
M  V30 987 C 91.8141 1.43625 1.21463 0
M  V30 988 O 91.1721 0.523305 1.73583 0
M  V30 989 C 91.2201 3.60554 0.0576567 0
M  V30 990 O 90.3241 3.97128 1.11188 0
M  V30 991 H 89.6651 0.660615 -0.0669568 0
M  V30 992 H 92.1951 1.8756 -0.81745 0
M  V30 993 H 92.2051 4.07165 0.2609 0
M  V30 994 H 90.8801 4.06235 -0.891416 0
M  V30 995 H 89.4571 3.62213 0.886356 0
M  V30 996 N 91.6422 0.330177 1.54103 0
M  V30 997 C 92.8882 -0.270806 2.00984 0
M  V30 998 C 93.2212 -1.51265 1.21789 0
M  V30 999 O 92.4962 -1.92142 0.301927 0
M  V30 1000 C 92.7792 -0.598339 3.55094 0
M  V30 1001 C 92.6322 0.654674 4.4501 0
M  V30 1002 C 93.9512 -1.41334 4.16789 0
M  V30 1003 H 91.0702 -0.0969531 0.730595 0
M  V30 1004 H 93.7122 0.448066 1.84641 0
M  V30 1005 H 91.8622 -1.21078 3.69151 0
M  V30 1006 H 93.5342 1.29285 4.42813 0
M  V30 1007 H 91.7772 1.28224 4.14416 0
M  V30 1008 H 92.4482 0.380944 5.50684 0
M  V30 1009 H 94.9242 -0.895597 4.06347 0
M  V30 1010 H 93.8002 -1.61127 5.24718 0
M  V30 1011 H 94.0612 -2.41146 3.70541 0
M  V30 1012 N 93.1203 -1.57491 0.0584922 0
M  V30 1013 C 94.3693 -1.92155 -0.613146 0
M  V30 1014 C 94.6823 -0.939334 -1.71569 0
M  V30 1015 O 95.8883 -1.17829 -2.44599 0
M  V30 1016 C 94.3443 -3.41303 -1.14195 0
M  V30 1017 C 93.9523 -4.47944 -0.0711265 0
M  V30 1018 C 95.6963 -3.84988 -1.78841 0
M  V30 1019 C 93.6033 -5.88212 -0.613225 0
M  V30 1020 H 92.5333 -0.717162 -0.232796 0
M  V30 1021 H 95.1843 -1.83049 0.12857 0
M  V30 1022 H 93.5663 -3.45437 -1.93621 0
M  V30 1023 H 94.7403 -4.55408 0.702836 0
M  V30 1024 H 93.0553 -4.13644 0.478313 0
M  V30 1025 H 95.6523 -4.87159 -2.20408 0
M  V30 1026 H 95.9953 -3.21632 -2.64308 0
M  V30 1027 H 96.5283 -3.83401 -1.06059 0
M  V30 1028 H 93.2673 -6.55183 0.203978 0
M  V30 1029 H 92.7873 -5.84294 -1.35501 0
M  V30 1030 H 94.4663 -6.37687 -1.09383 0
M  V30 1031 N 94.5984 0.214957 -1.56127 0
M  V30 1032 C 95.8444 0.939762 -1.79712 0
M  V30 1033 C 96.1774 1.83723 -0.629247 0
M  V30 1034 O 95.4524 1.90925 0.371197 0
M  V30 1035 C 95.7354 1.77306 -3.13424 0
M  V30 1036 C 95.5884 0.90164 -4.40671 0
M  V30 1037 C 96.9074 2.74956 -3.43638 0
M  V30 1038 H 94.0264 0.340214 -0.653776 0
M  V30 1039 H 96.6684 0.20824 -1.88855 0
M  V30 1040 H 94.8184 2.39673 -3.0576 0
M  V30 1041 H 96.4904 0.294206 -4.60361 0
M  V30 1042 H 94.7334 0.207368 -4.33304 0
M  V30 1043 H 95.4044 1.51923 -5.30682 0
M  V30 1044 H 97.8804 2.22724 -3.51473 0
M  V30 1045 H 96.7564 3.30358 -4.38355 0
M  V30 1046 H 97.0174 3.53023 -2.66134 0
M  V30 1047 N 96.0765 1.50051 0.48192 0
M  V30 1048 C 97.0395 1.67584 1.5636 0
M  V30 1049 C 98.0395 0.546894 1.51214 0
M  V30 1050 O 99.2295 0.813725 1.54026 0
M  V30 1051 C 96.3615 1.691 2.96003 0
M  V30 1052 H 97.5545 2.64078 1.42136 0
M  V30 1053 H 95.1075 1.39369 0.707533 0
M  V30 1054 H 95.8425 0.742589 3.15684 0
M  V30 1055 H 95.6275 2.51105 3.01146 0
M  V30 1056 H 97.1175 1.84656 3.74556 0
M  V30 1057 N 97.5546 -0.734337 1.39446 0
M  V30 1058 C 98.8316 -1.48579 1.27215 0
M  V30 1059 C 99.2116 -2.1077 -0.117968 0
M  V30 1060 O 98.5596 -1.98646 -1.12924 0
M  V30 1061 C 98.7696 -2.53667 2.39696 0
M  V30 1062 C 100.118 -3.20031 2.79044 0
M  V30 1063 O 101.142 -2.6398 2.39151 0
M  V30 1064 O 100.001 -4.21455 3.47905 0
M  V30 1065 H 97.0946 -0.659816 0.49857 0
M  V30 1066 H 99.6406 -0.768106 1.51322 0
M  V30 1067 H 98.4126 -2.06096 3.32626 0
M  V30 1068 H 98.0356 -3.32994 2.17258 0
M  V30 1069 N 99.0327 -1.24633 -0.964593 0
M  V30 1070 C 99.9647 -0.999302 -2.06268 0
M  V30 1071 C 100.978 0.0323226 -1.62768 0
M  V30 1072 O 102.167 -0.205079 -1.77318 0
M  V30 1073 C 99.2667 -0.486816 -3.35385 0
M  V30 1074 C 98.4397 -1.5823 -4.07777 0
M  V30 1075 C 97.4987 -1.07191 -5.15166 0
M  V30 1076 O 96.5247 -1.76426 -5.41168 0
M  V30 1077 N 97.7267 0.0920373 -5.80427 0
M  V30 1078 H 100.492 -1.94477 -2.28033 0
M  V30 1079 H 98.0527 -1.15704 -1.13244 0
M  V30 1080 H 100.045 -0.130066 -4.04491 0
M  V30 1081 H 98.6147 0.364459 -3.10468 0
M  V30 1082 H 97.8347 -2.11109 -3.32906 0
M  V30 1083 H 99.1227 -2.31854 -4.52903 0
M  V30 1084 H 98.5207 0.670784 -5.61709 0
M  V30 1085 H 97.0777 0.389905 -6.50633 0
M  V30 1086 N 100.511 1.16574 -1.06058 0
M  V30 1087 C 101.739 1.90952 -0.796552 0
M  V30 1088 C 102.154 1.77302 0.648808 0
M  V30 1089 O 101.511 1.11605 1.44397 0
M  V30 1090 C 101.562 3.41736 -1.17894 0
M  V30 1091 O 101.283 3.54975 -2.56758 0
M  V30 1092 C 102.784 4.33169 -0.942308 0
M  V30 1093 H 100.004 0.605594 -0.288959 0
M  V30 1094 H 102.548 1.47777 -1.41358 0
M  V30 1095 H 100.703 3.82623 -0.606491 0
M  V30 1096 H 101.117 4.4846 -2.72 0
M  V30 1097 H 102.591 5.37439 -1.25952 0
M  V30 1098 H 103.068 4.3903 0.122078 0
M  V30 1099 H 103.674 3.98007 -1.49902 0
M  V30 1100 N 101.989 0.842826 1.3317 0
M  V30 1101 C 103.4 0.496651 1.79973 0
M  V30 1102 C 103.751 -0.984641 1.69703 0
M  V30 1103 O 102.876 -1.76743 1.24863 0
M  V30 1104 C 103.471 0.894727 3.26772 0
M  V30 1105 C 102.03 0.600629 3.71577 0
M  V30 1106 C 101.177 1.10091 2.5451 0
M  V30 1107 H 104.128 1.03116 1.20635 0
M  V30 1108 H 104.149 0.206347 3.7994 0
M  V30 1109 H 103.661 1.97287 3.34215 0
M  V30 1110 H 101.762 -0.467284 3.69658 0
M  V30 1111 H 101.875 1.15863 4.64879 0
M  V30 1112 H 100.239 0.52162 2.49301 0
M  V30 1113 H 101.022 2.18591 2.64713 0
M  V30 1114 N 103.467 -1.45747 0.599634 0
M  V30 1115 C 104.695 -2.06668 0.0978551 0
M  V30 1116 C 105.11 -1.44562 -1.21439 0
M  V30 1117 O 104.467 -0.556923 -1.73795 0
M  V30 1118 C 104.518 -3.61456 -0.0567044 0
M  V30 1119 O 104.239 -4.21242 1.20361 0
M  V30 1120 C 105.74 -4.39345 -0.590869 0
M  V30 1121 H 102.96 -0.667825 0.0651943 0
M  V30 1122 H 105.504 -1.87115 0.82511 0
M  V30 1123 H 103.659 -3.80378 -0.734251 0
M  V30 1124 H 104.073 -5.14323 1.02821 0
M  V30 1125 H 105.547 -5.48182 -0.648131 0
M  V30 1126 H 106.024 -4.08568 -1.61147 0
M  V30 1127 H 106.63 -4.25268 0.0523679 0
M  V30 1128 N 104.945 -0.338344 -1.53925 0
M  V30 1129 C 106.356 0.146651 -1.86123 0
M  V30 1130 C 106.707 1.5042 -1.2597 0
M  V30 1131 O 105.832 2.08723 -0.571294 0
M  V30 1132 C 106.427 0.272879 -3.37699 0
M  V30 1133 C 104.986 0.702103 -3.69794 0
M  V30 1134 C 104.133 -0.167304 -2.76795 0
M  V30 1135 H 107.084 -0.558123 -1.48562 0
M  V30 1136 H 107.105 1.10128 -3.64214 0
M  V30 1137 H 106.617 -0.715307 -3.81451 0
M  V30 1138 H 104.718 1.6995 -3.31584 0
M  V30 1139 H 104.831 0.495604 -4.7653 0
M  V30 1140 H 103.195 0.359527 -2.5215 0
M  V30 1141 H 103.978 -1.15253 -3.23375 0
M  V30 1142 N 106.423 1.57458 -0.0668435 0
M  V30 1143 C 107.651 1.97624 0.612565 0
M  V30 1144 C 108.066 0.94502 1.63447 0
M  V30 1145 O 107.423 -0.0689276 1.8237 0
M  V30 1146 C 107.474 3.37869 1.28555 0
M  V30 1147 O 107.195 4.3704 0.304557 0
M  V30 1148 C 108.696 3.92882 2.05325 0
M  V30 1149 H 105.916 0.650045 0.166381 0
M  V30 1150 H 108.46 2.04035 -0.137782 0
M  V30 1151 H 106.615 3.3256 1.98702 0
M  V30 1152 H 107.029 5.18565 0.786779 0
M  V30 1153 H 108.503 4.93247 2.47812 0
M  V30 1154 H 108.98 3.29156 2.9078 0
M  V30 1155 H 109.586 4.01577 1.40056 0
M  V30 1156 N 107.901 -0.206675 1.56239 0
M  V30 1157 C 109.317 -0.557025 1.49564 0
M  V30 1158 C 109.517 -1.86424 0.764735 0
M  V30 1159 O 108.573 -2.50584 0.310491 0
M  V30 1160 C 109.886 -0.622478 2.94186 0
M  V30 1161 C 111.434 -0.712099 3.04792 0
M  V30 1162 C 111.909 -0.808767 4.50803 0
M  V30 1163 N 113.4 -0.8726 4.54907 0
M  V30 1164 C 114.135 -0.967365 5.65181 0
M  V30 1165 N 113.631 -1.02515 6.85173 0
M  V30 1166 N 115.424 -1.00366 5.53067 0
M  V30 1167 H 107.575 0.650943 2.02179 0
M  V30 1168 H 109.838 0.230387 0.919579 0
M  V30 1169 H 109.544 0.268727 3.50672 0
M  V30 1170 H 109.418 -1.4811 3.46905 0
M  V30 1171 H 111.805 -1.59374 2.48363 0
M  V30 1172 H 111.886 0.172489 2.55218 0
M  V30 1173 H 111.53 0.0684754 5.07854 0
M  V30 1174 H 111.46 -1.70899 4.98098 0
M  V30 1175 H 113.951 -0.837657 3.68499 0
M  V30 1176 H 114.264 -1.09765 7.64965 0
M  V30 1177 H 112.609 -0.994026 6.87855 0
M  V30 1178 H 115.8 -0.95527 4.58249 0
M  V30 1179 H 115.973 -1.07405 6.39037 0
M  V30 1180 N 109.379 -1.50304 -0.473955 0
M  V30 1181 C 110.626 -1.6115 -1.22625 0
M  V30 1182 C 110.954 -0.310517 -1.92005 0
M  V30 1183 O 110.209 0.703419 -1.82621 0
M  V30 1184 C 110.508 -2.73938 -2.29549 0
M  V30 1185 C 110.174 -4.14519 -1.7744 0
M  V30 1186 C 108.836 -4.5277 -1.62949 0
M  V30 1187 C 111.188 -5.02392 -1.3875 0
M  V30 1188 C 108.516 -5.76639 -1.08187 0
M  V30 1189 C 110.868 -6.26805 -0.854309 0
M  V30 1190 C 109.532 -6.63861 -0.696011 0
M  V30 1191 H 108.802 -0.589691 -0.448715 0
M  V30 1192 H 111.449 -1.84228 -0.522705 0
M  V30 1193 H 109.754 -2.44937 -3.05799 0
M  V30 1194 H 111.451 -2.79534 -2.87509 0
M  V30 1195 H 108.041 -3.8434 -1.89685 0
M  V30 1196 H 112.225 -4.73474 -1.4878 0
M  V30 1197 H 107.481 -6.04027 -0.946666 0
M  V30 1198 H 111.655 -6.94258 -0.545843 0
M  V30 1199 H 109.282 -7.59722 -0.26952 0
M  V30 1200 N 110.857 0.726932 -1.39834 0
M  V30 1201 C 111.787 1.85405 -1.41941 0
M  V30 1202 C 112.768 1.67751 -0.281728 0
M  V30 1203 O 113.953 1.8795 -0.488717 0
M  V30 1204 C 111.083 3.23243 -1.2701 0
M  V30 1205 C 110.037 3.55549 -2.38262 0
M  V30 1206 C 109.363 4.9241 -2.08415 0
M  V30 1207 C 110.663 3.577 -3.80589 0
M  V30 1208 H 112.357 1.83899 -2.36266 0
M  V30 1209 H 109.903 0.883349 -1.13723 0
M  V30 1210 H 111.856 4.01775 -1.27103 0
M  V30 1211 H 110.58 3.25296 -0.291564 0
M  V30 1212 H 109.239 2.79351 -2.37399 0
M  V30 1213 H 108.887 4.91052 -1.0898 0
M  V30 1214 H 108.587 5.14992 -2.82943 0
M  V30 1215 H 110.111 5.73289 -2.10171 0
M  V30 1216 H 111.525 4.26293 -3.83337 0
M  V30 1217 H 109.922 3.91804 -4.54543 0
M  V30 1218 H 110.992 2.57328 -4.10987 0
M  V30 1219 N 112.336 1.25143 0.95797 0
M  V30 1220 C 113.283 1.05235 2.05412 0
M  V30 1221 C 114.253 -0.0374561 1.66058 0
M  V30 1222 O 115.438 0.119073 1.90428 0
M  V30 1223 C 112.578 0.673589 3.38462 0
M  V30 1224 C 111.691 1.8379 3.90954 0
M  V30 1225 C 110.826 1.40381 5.12315 0
M  V30 1226 C 109.865 2.53746 5.57027 0
M  V30 1227 N 109.002 2.11136 6.69601 0
M  V30 1228 H 113.842 1.99048 2.21774 0
M  V30 1229 H 111.379 0.991277 1.08683 0
M  V30 1230 H 113.337 0.434964 4.14926 0
M  V30 1231 H 111.967 -0.227554 3.21997 0
M  V30 1232 H 111.019 2.18992 3.11041 0
M  V30 1233 H 112.331 2.68937 4.20089 0
M  V30 1234 H 111.485 1.12464 5.96185 0
M  V30 1235 H 110.224 0.523015 4.84887 0
M  V30 1236 H 109.229 2.82412 4.71724 0
M  V30 1237 H 110.454 3.42398 5.86464 0
M  V30 1238 H 108.4 1.25468 6.4389 0
M  V30 1239 H 108.317 2.89832 6.98236 0
M  V30 1240 H 109.585 1.86385 7.56889 0
M  V30 1241 N 113.814 -1.1601 1.06675 0
M  V30 1242 C 114.762 -2.22586 0.675157 0
M  V30 1243 C 115.756 -1.66525 -0.310766 0
M  V30 1244 O 116.962 -1.79145 -0.175215 0
M  V30 1245 H 113.337 -0.724855 0.200223 0
M  V30 1246 H 115.308 -2.52899 1.58381 0
M  V30 1247 C 114.057 -3.47604 0.0817162 0
M  V30 1248 H 113.38 -3.91058 0.831484 0
M  V30 1249 H 114.82 -4.23718 -0.154708 0
M  V30 1250 C 113.279 -3.15718 -1.17576 0
M  V30 1251 O 113.809 -3.31878 -2.26318 0
M  V30 1252 N 112.015 -2.69816 -1.07923 0
M  V30 1253 H 111.562 -2.56866 -0.194293 0
M  V30 1254 H 111.52 -2.48855 -1.92141 0
M  V30 1255 N 115.292 -0.849877 -1.32721 0
M  V30 1256 C 116.532 -0.457146 -1.99222 0
M  V30 1257 C 116.896 0.968038 -1.6581 0
M  V30 1258 O 118.097 1.46507 -2.25364 0
M  V30 1259 C 116.368 -0.683966 -3.50794 0
M  V30 1260 S 117.927 -0.388095 -4.3708 0
M  V30 1261 H 114.745 -0.171464 -0.690015 0
M  V30 1262 H 117.347 -1.10155 -1.61512 0
M  V30 1263 H 116.051 -1.72038 -3.726 0
M  V30 1264 H 115.582 -0.0258086 -3.93392 0
M  V30 1265 H 117.597 0.787791 -4.89906 0
M  V30 1266 N 116.77 1.45427 -0.607355 0
M  V30 1267 C 117.68 2.34325 0.113463 0
M  V30 1268 C 118.696 1.51226 0.860617 0
M  V30 1269 O 119.872 1.84029 0.818255 0
M  V30 1270 C 116.937 3.28839 1.09844 0
M  V30 1271 C 115.998 4.27844 0.353271 0
M  V30 1272 C 115.231 5.17842 1.29133 0
M  V30 1273 O 115.454 5.11264 2.52913 0
M  V30 1274 O 114.388 5.96713 0.788523 0
M  V30 1275 H 118.214 2.97364 -0.617094 0
M  V30 1276 H 115.799 1.44807 -0.367619 0
M  V30 1277 H 117.681 3.8708 1.66575 0
M  V30 1278 H 116.356 2.68365 1.81003 0
M  V30 1279 H 115.263 3.7322 -0.256494 0
M  V30 1280 H 116.596 4.91173 -0.317822 0
M  V30 1281 N 118.248 0.346503 1.53744 0
M  V30 1282 C 119.158 -0.517293 2.28826 0
M  V30 1283 C 120.174 -1.10935 1.3405 0
M  V30 1284 O 121.35 -1.1244 1.6709 0
M  V30 1285 C 118.415 -1.65098 3.04866 0
M  V30 1286 C 117.476 -1.0884 4.15274 0
M  V30 1287 C 116.709 -2.16806 4.87679 0
M  V30 1288 O 116.932 -3.3758 4.59778 0
M  V30 1289 O 115.866 -1.80934 5.74061 0
M  V30 1290 H 119.692 0.0931396 3.03557 0
M  V30 1291 H 117.277 0.111458 1.48984 0
M  V30 1292 H 119.159 -2.31053 3.5241 0
M  V30 1293 H 117.834 -2.24717 2.32989 0
M  V30 1294 H 116.741 -0.3933 3.72027 0
M  V30 1295 H 118.074 -0.537036 4.89261 0
M  V30 1296 N 119.726 -1.57421 0.075193 0
M  V30 1297 C 120.972 -1.93905 -0.594025 0
M  V30 1298 C 121.305 -0.955701 -1.69056 0
M  V30 1299 O 120.58 0.0145373 -1.94495 0
M  V30 1300 C 120.863 -3.40638 -1.1678 0
M  V30 1301 C 120.716 -4.49733 -0.0776792 0
M  V30 1302 C 122.035 -3.88259 -2.07228 0
M  V30 1303 H 119.154 -0.705105 -0.214466 0
M  V30 1304 H 121.796 -1.8947 0.141854 0
M  V30 1305 H 119.946 -3.44549 -1.79494 0
M  V30 1306 H 121.618 -4.57942 0.555573 0
M  V30 1307 H 119.861 -4.29751 0.591286 0
M  V30 1308 H 120.532 -5.49549 -0.519603 0
M  V30 1309 H 123.008 -3.86376 -1.54445 0
M  V30 1310 H 121.884 -4.91533 -2.44308 0
M  V30 1311 H 122.145 -3.26396 -2.98191 0
M  V30 1312 N 121.204 0.198386 -1.56346 0
M  V30 1313 C 122.452 0.91747 -1.80075 0
M  V30 1314 C 122.773 1.83929 -0.647692 0
M  V30 1315 O 122.043 1.93029 0.334166 0
M  V30 1316 H 120.623 0.341774 -0.664228 0
M  V30 1317 H 123.285 0.204684 -1.93822 0
M  V30 1318 H 122.381 1.51055 -2.7311 0
M  V30 1319 N 122.682 1.50554 0.465978 0
M  V30 1320 C 123.612 1.72722 1.57128 0
M  V30 1321 C 124.593 0.576294 1.6004 0
M  V30 1322 O 125.778 0.81598 1.76225 0
M  V30 1323 C 122.908 1.82605 2.95419 0
M  V30 1324 C 121.862 2.97835 3.07373 0
M  V30 1325 C 121.188 2.92867 4.47363 0
M  V30 1326 C 122.488 4.38265 2.84114 0
M  V30 1327 H 124.182 2.65267 1.38829 0
M  V30 1328 H 121.728 1.2765 0.666441 0
M  V30 1329 H 123.681 1.96698 3.72677 0
M  V30 1330 H 122.405 0.866858 3.14886 0
M  V30 1331 H 121.064 2.83401 2.3255 0
M  V30 1332 H 120.712 1.94783 4.63755 0
M  V30 1333 H 120.412 3.70227 4.56296 0
M  V30 1334 H 121.936 3.09015 5.26633 0
M  V30 1335 H 123.35 4.53198 3.51118 0
M  V30 1336 H 121.747 5.17115 3.04487 0
M  V30 1337 H 122.817 4.50281 1.7993 0
M  V30 1338 N 124.16 -0.719506 1.40217 0
M  V30 1339 C 125.407 -1.47933 1.38283 0
M  V30 1340 C 125.735 -1.94493 -0.0161536 0
M  V30 1341 O 124.99 -1.68224 -0.999956 0
M  V30 1342 C 125.289 -2.72271 2.31524 0
M  V30 1343 C 124.955 -2.44496 3.78857 0
M  V30 1344 C 123.617 -2.36631 4.18998 0
M  V30 1345 C 125.969 -2.21104 4.71977 0
M  V30 1346 C 123.297 -2.03437 5.503 0
M  V30 1347 C 125.649 -1.89423 6.03574 0
M  V30 1348 C 124.313 -1.80038 6.42762 0
M  V30 1349 H 123.583 -0.541325 0.506012 0
M  V30 1350 H 126.23 -0.824502 1.72842 0
M  V30 1351 H 124.535 -3.42572 1.90137 0
M  V30 1352 H 126.232 -3.30348 2.27313 0
M  V30 1353 H 122.822 -2.51503 3.47051 0
M  V30 1354 H 127.006 -2.26139 4.41786 0
M  V30 1355 H 122.262 -1.94705 5.79569 0
M  V30 1356 H 126.436 -1.70336 6.75247 0
M  V30 1357 H 124.063 -1.54083 7.44421 0
M  V30 1358 N 125.638 -1.25649 -0.95132 0
M  V30 1359 C 126.586 -1.06118 -2.06982 0
M  V30 1360 C 127.58 0.00889169 -1.69398 0
M  V30 1361 O 128.786 -0.146988 -1.79399 0
M  V30 1362 H 125.161 -0.326248 -0.677544 0
M  V30 1363 H 127.132 -2.00932 -2.2061 0
M  V30 1364 C 125.881 -0.700145 -3.40578 0
M  V30 1365 H 125.204 -1.51537 -3.69968 0
M  V30 1366 H 126.644 -0.603211 -4.19687 0
M  V30 1367 C 125.103 0.59403 -3.31622 0
M  V30 1368 O 125.633 1.63522 -3.66911 0
M  V30 1369 N 123.839 0.58089 -2.84735 0
M  V30 1370 H 123.386 -0.266783 -2.56215 0
M  V30 1371 H 123.344 1.44695 -2.79125 0
M  V30 1372 N 127.117 1.15442 -1.07289 0
M  V30 1373 C 128.027 2.23786 -0.704057 0
M  V30 1374 C 129.043 1.7166 0.284413 0
M  V30 1375 O 130.219 2.00972 0.131205 0
M  V30 1376 C 127.284 3.46535 -0.106792 0
M  V30 1377 C 126.345 4.13654 -1.14842 0
M  V30 1378 C 125.578 5.30544 -0.57956 0
M  V30 1379 O 125.801 5.67187 0.604585 0
M  V30 1380 O 124.735 5.87154 -1.32414 0
M  V30 1381 H 128.561 2.57664 -1.60757 0
M  V30 1382 H 126.146 1.23152 -0.845803 0
M  V30 1383 H 128.028 4.20804 0.224048 0
M  V30 1384 H 126.703 3.14407 0.770049 0
M  V30 1385 H 125.61 3.4131 -1.5316 0
M  V30 1386 H 126.943 4.49861 -1.99714 0
M  V30 1387 N 128.595 0.856903 1.32268 0
M  V30 1388 C 129.525 0.31858 2.31316 0
M  V30 1389 C 130.506 -0.583487 1.59779 0
M  V30 1390 O 131.691 -0.503259 1.87566 0
M  V30 1391 C 128.821 -0.491979 3.43798 0
M  V30 1392 C 127.775 0.315849 4.26833 0
M  V30 1393 C 127.101 -0.619586 5.31098 0
M  V30 1394 C 128.401 1.54282 4.98993 0
M  V30 1395 H 130.095 1.14621 2.76591 0
M  V30 1396 H 127.641 0.552613 1.32974 0
M  V30 1397 H 129.594 -0.879012 4.1213 0
M  V30 1398 H 128.318 -1.35299 2.97257 0
M  V30 1399 H 126.977 0.684664 3.6015 0
M  V30 1400 H 126.625 -1.47751 4.8081 0
M  V30 1401 H 126.325 -0.0830621 5.87541 0
M  V30 1402 H 127.849 -1.00375 6.02293 0
M  V30 1403 H 129.263 1.22796 5.59995 0
M  V30 1404 H 127.66 2.01745 5.65172 0
M  V30 1405 H 128.73 2.30285 4.26728 0
M  V30 1406 N 130.073 -1.45103 0.615059 0
M  V30 1407 C 131.036 -2.29025 -0.0895485 0
M  V30 1408 C 132.036 -1.40174 -0.787906 0
M  V30 1409 O 133.226 -1.62217 -0.634933 0
M  V30 1410 C 130.358 -3.21376 -1.13711 0
M  V30 1411 H 131.551 -2.92807 0.648382 0
M  V30 1412 H 129.104 -1.51749 0.374444 0
M  V30 1413 H 129.839 -2.6241 -1.90556 0
M  V30 1414 H 129.624 -3.86834 -0.640475 0
M  V30 1415 H 131.114 -3.84459 -1.63036 0
M  V30 1416 N 131.551 -0.354651 -1.53558 0
M  V30 1417 C 132.776 0.242153 -2.05981 0
M  V30 1418 C 133.201 1.42553 -1.2272 0
M  V30 1419 O 132.559 1.79656 -0.243604 0
M  V30 1420 C 132.607 0.624367 -3.55154 0
M  V30 1421 O 131.711 1.72301 -3.74681 0
M  V30 1422 H 131.052 0.0378432 -0.662921 0
M  V30 1423 H 133.582 -0.512087 -1.98088 0
M  V30 1424 H 133.592 0.898433 -3.97985 0
M  V30 1425 H 132.267 -0.240989 -4.15201 0
M  V30 1426 H 130.844 1.44535 -3.4375 0
M  V30 1427 N 133.029 1.57378 -0.0835403 0
M  V30 1428 C 134.44 1.81261 0.447358 0
M  V30 1429 C 134.791 0.998331 1.68902 0
M  V30 1430 O 133.916 0.224282 2.15235 0
M  V30 1431 C 134.511 3.28767 0.818386 0
M  V30 1432 C 133.07 3.53455 1.29409 0
M  V30 1433 C 132.217 2.75831 0.285024 0
M  V30 1434 H 135.168 1.5566 -0.309115 0
M  V30 1435 H 135.189 3.41459 1.67887 0
M  V30 1436 H 134.701 3.88006 -0.0855019 0
M  V30 1437 H 132.802 2.99534 2.21608 0
M  V30 1438 H 132.915 4.62128 1.2639 0
M  V30 1439 H 131.279 2.42947 0.764767 0
M  V30 1440 H 132.062 3.37813 -0.611341 0
M  V30 1441 N 134.507 -0.190092 1.56449 0
M  V30 1442 C 135.754 -0.909705 1.80916 0
M  V30 1443 C 136.082 -1.83047 0.657583 0
M  V30 1444 O 135.337 -1.92428 -0.356356 0
M  V30 1445 C 135.636 -1.75382 3.1141 0
M  V30 1446 C 135.302 -0.983606 4.40041 0
M  V30 1447 C 133.964 -0.770967 4.74984 0
M  V30 1448 C 136.316 -0.442024 5.19322 0
M  V30 1449 C 133.644 -0.0053448 5.867 0
M  V30 1450 C 135.996 0.310412 6.31838 0
M  V30 1451 C 134.66 0.534023 6.6536 0
M  V30 1452 H 133.93 -0.332885 0.662019 0
M  V30 1453 H 136.577 -0.175762 1.90692 0
M  V30 1454 H 134.882 -2.55659 2.96893 0
M  V30 1455 H 136.579 -2.31331 3.27547 0
M  V30 1456 H 133.169 -1.15936 4.12622 0
M  V30 1457 H 137.353 -0.593693 4.92736 0
M  V30 1458 H 132.609 0.177825 6.11141 0
M  V30 1459 H 136.783 0.737419 6.92485 0
M  V30 1460 H 134.41 1.12918 7.51767 0
M  V30 1461 N 135.985 -1.50799 -0.457987 0
M  V30 1462 C 136.895 -1.73426 -1.57989 0
M  V30 1463 C 137.911 -0.617745 -1.62665 0
M  V30 1464 O 139.087 -0.897614 -1.80291 0
M  V30 1465 C 136.152 -1.83557 -2.94122 0
M  V30 1466 C 135.213 -3.07345 -2.99729 0
M  V30 1467 C 134.446 -3.16983 -4.29368 0
M  V30 1468 O 134.669 -2.33077 -5.20607 0
M  V30 1469 O 133.603 -4.09812 -4.40837 0
M  V30 1470 H 137.429 -2.68555 -1.41817 0
M  V30 1471 H 135.014 -1.35052 -0.638859 0
M  V30 1472 H 136.896 -1.92326 -3.74952 0
M  V30 1473 H 135.571 -0.916137 -3.10465 0
M  V30 1474 H 134.478 -3.04068 -2.1793 0
M  V30 1475 H 135.811 -3.9891 -2.88326 0
M  V30 1476 N 137.463 0.71206 -1.40597 0
M  V30 1477 C 138.411 1.84746 -1.41321 0
M  V30 1478 C 139.405 1.66842 -0.293268 0
M  V30 1479 O 140.611 1.73904 -0.464481 0
M  V30 1480 H 136.986 0.608522 -0.441819 0
M  V30 1481 H 138.957 1.81252 -2.37045 0
M  V30 1482 C 137.706 3.22638 -1.29614 0
M  V30 1483 H 137.029 3.37023 -2.15071 0
M  V30 1484 H 138.469 4.02209 -1.3418 0
M  V30 1485 C 136.928 3.36899 -0.00673121 0
M  V30 1486 O 137.458 3.90186 0.954859 0
M  V30 1487 N 135.664 2.9053 0.0639327 0
M  V30 1488 H 135.211 2.47353 -0.719311 0
M  V30 1489 H 135.169 3.0045 0.926118 0
M  V30 1490 N 138.941 1.26152 0.944643 0
M  V30 1491 C 139.851 1.09176 2.07648 0
M  V30 1492 C 140.867 0.0261935 1.7398 0
M  V30 1493 O 142.043 0.229208 2.00091 0
M  V30 1494 C 139.108 0.722915 3.39079 0
M  V30 1495 C 138.169 1.86752 3.86552 0
M  V30 1496 C 137.402 1.51617 5.11711 0
M  V30 1497 O 137.625 0.416331 5.68879 0
M  V30 1498 O 136.559 2.34975 5.54139 0
M  V30 1499 H 140.385 2.0412 2.24875 0
M  V30 1500 H 137.97 1.05182 1.061 0
M  V30 1501 H 139.852 0.529787 4.18056 0
M  V30 1502 H 138.527 -0.197159 3.23099 0
M  V30 1503 H 137.434 2.11558 3.08535 0
M  V30 1504 H 138.767 2.76719 4.07047 0
M  V30 1505 N 140.419 -1.14872 1.07899 0
M  V30 1506 C 141.666 -1.85789 0.805532 0
M  V30 1507 C 141.994 -1.82649 -0.668561 0
M  V30 1508 O 141.249 -1.24858 -1.50695 0
M  V30 1509 C 141.548 -3.34223 1.26609 0
M  V30 1510 C 141.214 -3.57555 2.74709 0
M  V30 1511 C 139.876 -3.63631 3.1516 0
M  V30 1512 C 142.228 -3.66803 3.70277 0
M  V30 1513 C 139.556 -3.76473 4.49983 0
M  V30 1514 C 141.908 -3.8117 5.04869 0
M  V30 1515 C 140.572 -3.85494 5.44932 0
M  V30 1516 H 139.842 -0.679849 0.294765 0
M  V30 1517 H 142.489 -1.3572 1.35101 0
M  V30 1518 H 140.794 -3.86536 0.640103 0
M  V30 1519 H 142.491 -3.87511 1.03132 0
M  V30 1520 H 139.081 -3.5347 2.42398 0
M  V30 1521 H 143.265 -3.61404 3.40149 0
M  V30 1522 H 138.521 -3.7808 4.80484 0
M  V30 1523 H 142.695 -3.87268 5.78789 0
M  V30 1524 H 140.322 -3.95197 6.49403 0
M  V30 1525 N 141.898 -0.863906 -1.31812 0
M  V30 1526 C 142.845 -0.313303 -2.28664 0
M  V30 1527 C 143.815 0.584868 -1.55462 0
M  V30 1528 O 145 0.517805 -1.83639 0
M  V30 1529 C 142.14 0.48441 -3.41683 0
M  V30 1530 C 141.253 -0.440594 -4.29747 0
M  V30 1531 C 140.388 0.370652 -5.29905 0
M  V30 1532 C 139.427 -0.551164 -6.09613 0
M  V30 1533 N 138.564 0.223462 -7.01744 0
M  V30 1534 H 143.404 -1.14444 -2.75148 0
M  V30 1535 H 140.941 -0.575769 -1.35364 0
M  V30 1536 H 142.899 0.962627 -4.05943 0
M  V30 1537 H 141.529 1.28029 -2.96325 0
M  V30 1538 H 140.581 -1.03724 -3.65986 0
M  V30 1539 H 141.893 -1.14767 -4.85417 0
M  V30 1540 H 141.047 0.911638 -5.99812 0
M  V30 1541 H 139.786 1.11105 -4.74876 0
M  V30 1542 H 138.791 -1.10396 -5.38603 0
M  V30 1543 H 140.016 -1.29032 -6.66729 0
M  V30 1544 H 137.962 0.946787 -6.49132 0
M  V30 1545 H 137.879 -0.424399 -7.54808 0
M  V30 1546 H 139.147 0.745876 -7.75923 0
M  V30 1547 N 143.376 1.44774 -0.622745 0
M  V30 1548 C 144.323 2.30635 0.0871679 0
M  V30 1549 C 145.293 1.42994 0.845097 0
M  V30 1550 O 146.478 1.71907 0.827812 0
M  V30 1551 C 143.618 3.28144 1.06844 0
M  V30 1552 C 142.731 4.30888 0.309809 0
M  V30 1553 C 141.866 5.15494 1.28215 0
M  V30 1554 C 140.905 6.09953 0.512198 0
M  V30 1555 N 140.042 6.87287 1.43458 0
M  V30 1556 H 144.882 2.90803 -0.650974 0
M  V30 1557 H 142.419 1.43286 -0.33281 0
M  V30 1558 H 144.377 3.83157 1.65066 0
M  V30 1559 H 143.007 2.69695 1.77382 0
M  V30 1560 H 142.059 3.78414 -0.388181 0
M  V30 1561 H 143.371 4.97955 -0.290254 0
M  V30 1562 H 142.525 5.74983 1.93596 0
M  V30 1563 H 141.264 4.48481 1.91614 0
M  V30 1564 H 140.269 5.49581 -0.155151 0
M  V30 1565 H 141.494 6.78999 -0.116958 0
M  V30 1566 H 139.44 6.2295 2.05594 0
M  V30 1567 H 139.357 7.50763 0.888335 0
M  V30 1568 H 140.625 7.51306 2.07749 0
M  V30 1569 N 144.854 0.36279 1.53368 0
M  V30 1570 C 145.817 -0.472679 2.24273 0
M  V30 1571 C 146.817 -1.012 1.24961 0
M  V30 1572 O 148.007 -0.898194 1.49259 0
M  V30 1573 C 145.139 -1.66039 2.97731 0
M  V30 1574 H 146.332 0.14773 2.99536 0
M  V30 1575 H 143.885 0.114434 1.55881 0
M  V30 1576 H 144.62 -2.31896 2.26704 0
M  V30 1577 H 144.405 -1.28066 3.70596 0
M  V30 1578 H 145.895 -2.25252 3.51641 0
M  V30 1579 N 146.332 -1.57332 0.0918853 0
M  V30 1580 C 147.557 -1.98995 -0.584442 0
M  V30 1581 C 147.982 -0.970528 -1.61128 0
M  V30 1582 O 147.34 0.0613904 -1.81196 0
M  V30 1583 C 147.388 -3.39636 -1.21161 0
M  V30 1584 O 146.492 -3.40447 -2.32744 0
M  V30 1585 H 145.833 -0.647165 -0.148572 0
M  V30 1586 H 148.363 -2.03873 0.172347 0
M  V30 1587 H 148.373 -3.7726 -1.55367 0
M  V30 1588 H 147.048 -4.13356 -0.459313 0
M  V30 1589 H 145.625 -3.14614 -2.0018 0
M  V30 1590 N 147.81 0.181792 -1.56548 0
M  V30 1591 C 148.72 1.24538 -1.98815 0
M  V30 1592 C 149.736 1.49045 -0.897861 0
M  V30 1593 O 150.912 1.61399 -1.20467 0
M  V30 1594 C 147.977 2.56683 -2.33055 0
M  V30 1595 C 147.038 2.40131 -3.55859 0
M  V30 1596 C 146.271 3.65975 -3.88456 0
M  V30 1597 O 146.494 4.70711 -3.22161 0
M  V30 1598 O 145.428 3.6071 -4.81842 0
M  V30 1599 H 149.254 0.916647 -2.89536 0
M  V30 1600 H 146.839 0.387842 -1.44278 0
M  V30 1601 H 148.721 3.34655 -2.56094 0
M  V30 1602 H 147.396 2.89157 -1.45498 0
M  V30 1603 H 146.303 1.60226 -3.38051 0
M  V30 1604 H 147.636 2.12585 -4.43924 0
M  V30 1605 N 149.288 1.51039 0.449983 0
M  V30 1606 C 150.565 1.53612 1.21089 0
M  V30 1607 C 150.945 0.292997 2.09057 0
M  V30 1608 O 150.293 -0.72259 2.16774 0
M  V30 1609 C 150.503 2.84337 2.0237 0
M  V30 1610 C 151.851 3.35807 2.59843 0
M  V30 1611 O 152.875 2.85802 2.12593 0
M  V30 1612 O 151.734 4.23029 3.45989 0
M  V30 1613 H 148.828 0.617057 0.550608 0
M  V30 1614 H 151.374 1.63344 0.460082 0
M  V30 1615 H 150.146 3.66278 1.37681 0
M  V30 1616 H 149.769 2.77708 2.84542 0
M  V30 1617 N 150.766 -0.704594 1.40972 0
M  V30 1618 C 152.043 -1.45847 1.30338 0
M  V30 1619 C 152.423 -2.10973 -0.0732344 0
M  V30 1620 O 151.771 -2.00997 -1.08685 0
M  V30 1621 C 151.981 -2.48525 2.45023 0
M  V30 1622 C 153.329 -3.1404 2.8577 0
M  V30 1623 O 154.353 -2.58848 2.44696 0
M  V30 1624 O 153.212 -4.13981 3.56766 0
M  V30 1625 H 150.306 -0.649092 0.512454 0
M  V30 1626 H 152.852 -0.735836 1.52917 0
M  V30 1627 H 151.624 -1.98994 3.36923 0
M  V30 1628 H 151.247 -3.2831 2.24272 0
M  V30 1629 N 152.244 -1.26651 -0.937939 0
M  V30 1630 C 153.493 -1.11775 -1.67897 0
M  V30 1631 C 153.806 0.33794 -1.92659 0
M  V30 1632 O 155.012 0.607434 -2.64618 0
M  V30 1633 C 153.468 -1.9523 -3.02346 0
M  V30 1634 C 153.076 -3.45393 -2.8532 0
M  V30 1635 C 154.82 -1.88972 -3.80118 0
M  V30 1636 C 152.727 -4.21083 -4.15263 0
M  V30 1637 H 151.657 -0.414696 -0.629717 0
M  V30 1638 H 154.308 -1.50988 -1.04283 0
M  V30 1639 H 152.69 -1.48853 -3.66959 0
M  V30 1640 H 153.864 -3.99561 -2.29537 0
M  V30 1641 H 152.179 -3.52921 -2.20988 0
M  V30 1642 H 154.776 -2.42805 -4.76392 0
M  V30 1643 H 155.119 -0.86113 -4.07296 0
M  V30 1644 H 155.652 -2.33189 -3.22285 0
M  V30 1645 H 152.391 -5.24425 -3.93267 0
M  V30 1646 H 151.911 -3.71695 -4.70747 0
M  V30 1647 H 153.59 -4.29706 -4.83696 0
M  V30 1648 N 153.722 1.14298 -1.08507 0
M  V30 1649 C 154.669 2.19414 -0.715965 0
M  V30 1650 C 155.639 1.63399 0.298326 0
M  V30 1651 O 156.824 1.89929 0.182101 0
M  V30 1652 C 153.964 3.44845 -0.132534 0
M  V30 1653 C 153.077 4.15007 -1.19973 0
M  V30 1654 C 152.212 5.28024 -0.580048 0
M  V30 1655 C 151.251 5.9002 -1.62921 0
M  V30 1656 N 150.388 6.94485 -1.03125 0
M  V30 1657 H 155.228 2.50336 -1.61666 0
M  V30 1658 H 152.765 1.2293 -0.807882 0
M  V30 1659 H 154.723 4.16601 0.223454 0
M  V30 1660 H 153.353 3.14403 0.731467 0
M  V30 1661 H 152.405 3.41629 -1.67313 0
M  V30 1662 H 153.717 4.57178 -1.99473 0
M  V30 1663 H 152.871 6.06455 -0.172364 0
M  V30 1664 H 151.61 4.87076 0.246603 0
M  V30 1665 H 150.615 5.10291 -2.04654 0
M  V30 1666 H 151.84 6.33042 -2.45835 0
M  V30 1667 H 149.786 6.55612 -0.225711 0
M  V30 1668 H 149.703 7.35148 -1.76334 0
M  V30 1669 H 150.971 7.7679 -0.649458 0
M  V30 1670 N 155.201 0.870884 1.31352 0
M  V30 1671 C 156.148 0.325425 2.28494 0
M  V30 1672 C 157.118 -0.576615 1.5577 0
M  V30 1673 O 158.303 -0.508059 1.83911 0
M  V30 1674 C 155.443 -0.466283 3.41935 0
M  V30 1675 C 154.556 0.463378 4.29508 0
M  V30 1676 C 153.691 -0.342544 5.30094 0
M  V30 1677 C 152.73 0.583486 6.09313 0
M  V30 1678 N 151.867 -0.186244 7.01853 0
M  V30 1679 H 156.707 1.15901 2.74538 0
M  V30 1680 H 154.244 0.58294 1.35056 0
M  V30 1681 H 156.202 -0.941085 4.06447 0
M  V30 1682 H 154.832 -1.26456 2.97 0
M  V30 1683 H 153.884 1.05663 3.65431 0
M  V30 1684 H 155.196 1.1734 4.84802 0
M  V30 1685 H 154.35 -0.879816 6.00287 0
M  V30 1686 H 153.089 -1.08585 4.75458 0
M  V30 1687 H 152.094 1.13251 5.3801 0
M  V30 1688 H 153.319 1.32566 6.66035 0
M  V30 1689 H 151.265 -0.912348 6.49625 0
M  V30 1690 H 151.182 0.464422 7.54572 0
M  V30 1691 H 152.45 -0.704716 7.76308 0
M  V30 1692 N 156.679 -1.44442 0.630414 0
M  V30 1693 C 157.612 -2.27862 -0.124247 0
M  V30 1694 C 158.59 -1.38495 -0.851931 0
M  V30 1695 O 159.774 -1.67935 -0.856166 0
M  V30 1696 C 156.901 -3.17407 -1.18197 0
M  V30 1697 C 155.947 -4.22875 -0.554892 0
M  V30 1698 S 156.78 -5.31485 0.654489 0
M  V30 1699 C 157.936 -6.246 -0.40326 0
M  V30 1700 H 158.169 -2.91519 0.583435 0
M  V30 1701 H 155.702 -1.48618 0.418565 0
M  V30 1702 H 157.66 -3.69549 -1.78728 0
M  V30 1703 H 156.321 -2.52971 -1.86184 0
M  V30 1704 H 155.514 -4.85542 -1.35148 0
M  V30 1705 H 155.116 -3.73992 -0.0242105 0
M  V30 1706 H 157.408 -6.65375 -1.27602 0
M  V30 1707 H 158.351 -7.07851 0.187813 0
M  V30 1708 H 158.759 -5.59775 -0.728837 0
M  V30 1709 N 158.157 -0.370918 -1.53173 0
M  V30 1710 C 159.568 0.107139 -1.86392 0
M  V30 1711 C 159.919 1.47714 -1.29132 0
M  V30 1712 O 159.044 2.07464 -0.615439 0
M  V30 1713 C 159.639 0.201187 -3.38202 0
M  V30 1714 C 158.198 0.623507 -3.712 0
M  V30 1715 C 157.345 -0.225978 -2.76378 0
M  V30 1716 H 160.296 -0.58951 -1.47345 0
M  V30 1717 H 160.317 1.02377 -3.66468 0
M  V30 1718 H 159.829 -0.796058 -3.79848 0
M  V30 1719 H 157.93 1.62879 -3.35114 0
M  V30 1720 H 158.043 0.394414 -4.77474 0
M  V30 1721 H 156.407 0.305962 -2.52856 0
M  V30 1722 H 157.19 -1.22086 -3.20858 0
M  V30 1723 N 159.635 1.57281 -0.100228 0
M  V30 1724 C 160.565 2.17328 0.853857 0
M  V30 1725 C 161.546 1.10804 1.2906 0
M  V30 1726 O 162.731 1.38963 1.35657 0
M  V30 1727 C 159.861 2.75772 2.11109 0
M  V30 1728 C 158.815 3.87713 1.81279 0
M  V30 1729 C 158.141 4.32882 3.13874 0
M  V30 1730 C 159.441 5.10677 1.09574 0
M  V30 1731 H 161.135 2.97305 0.353545 0
M  V30 1732 H 158.681 1.43009 0.168612 0
M  V30 1733 H 160.634 3.16433 2.78296 0
M  V30 1734 H 159.358 1.93057 2.63432 0
M  V30 1735 H 158.017 3.476 1.16489 0
M  V30 1736 H 157.665 3.47051 3.64095 0
M  V30 1737 H 157.365 5.08358 2.94696 0
M  V30 1738 H 158.889 4.7618 3.82211 0
M  V30 1739 H 160.303 5.48474 1.66879 0
M  V30 1740 H 158.7 5.91615 1.00557 0
M  V30 1741 H 159.77 4.84835 0.0793299 0
M  V30 1742 N 161.113 -0.173488 1.56642 0
M  V30 1743 C 162.39 -0.917617 1.7274 0
M  V30 1744 C 162.77 -2.00484 0.661027 0
M  V30 1745 O 162.118 -2.26184 -0.32453 0
M  V30 1746 C 162.328 -1.48433 3.15862 0
M  V30 1747 C 163.676 -1.95809 3.76754 0
M  V30 1748 O 164.7 -1.58231 3.19126 0
M  V30 1749 O 163.559 -2.65024 4.77938 0
M  V30 1750 H 160.653 -0.431772 0.705338 0
M  V30 1751 H 163.199 -0.161487 1.6893 0
M  V30 1752 H 161.971 -0.701715 3.84957 0
M  V30 1753 H 161.594 -2.30471 3.23989 0
M  V30 1754 N 162.591 -1.51276 -0.441967 0
M  V30 1755 C 163.521 -1.752 -1.54361 0
M  V30 1756 C 164.502 -0.601682 -1.59103 0
M  V30 1757 O 165.687 -0.843913 -1.74905 0
M  V30 1758 C 162.817 -1.87282 -2.92477 0
M  V30 1759 C 161.771 -3.02687 -3.02596 0
M  V30 1760 C 161.097 -2.99947 -4.42647 0
M  V30 1761 C 162.397 -4.4273 -2.77106 0
M  V30 1762 H 164.091 -2.67442 -1.34592 0
M  V30 1763 H 161.637 -1.28694 -0.646048 0
M  V30 1764 H 163.59 -2.02602 -3.695 0
M  V30 1765 H 162.314 -0.916844 -3.13467 0
M  V30 1766 H 160.973 -2.87065 -2.28012 0
M  V30 1767 H 160.621 -2.02136 -4.60597 0
M  V30 1768 H 160.321 -3.77439 -4.50348 0
M  V30 1769 H 161.845 -3.17354 -5.2165 0
M  V30 1770 H 163.259 -4.58727 -3.43864 0
M  V30 1771 H 161.656 -5.21893 -2.96222 0
M  V30 1772 H 162.726 -4.53087 -1.72744 0
M  V30 1773 N 164.069 0.697108 -1.41344 0
M  V30 1774 C 165.294 1.49096 -1.44171 0
M  V30 1775 C 165.719 1.88038 -0.0481568 0
M  V30 1776 O 165.077 1.54525 0.948243 0
M  V30 1777 C 165.125 2.73088 -2.3549 0
M  V30 1778 O 164.229 3.70514 -1.81088 0
M  V30 1779 H 163.57 0.448801 -0.489361 0
M  V30 1780 H 166.1 0.856992 -1.85787 0
M  V30 1781 H 166.11 3.21413 -2.51312 0
M  V30 1782 H 164.785 2.44081 -3.36745 0
M  V30 1783 H 163.362 3.29441 -1.74708 0
M  V30 1784 N 165.547 1.27147 0.931209 0
M  V30 1785 C 166.958 1.12044 1.49342 0
M  V30 1786 C 167.309 -0.295795 1.93957 0
M  V30 1787 O 166.434 -1.18835 1.80852 0
M  V30 1788 C 167.029 2.02781 2.71414 0
M  V30 1789 C 165.588 1.91794 3.2387 0
M  V30 1790 C 164.735 1.95543 1.96617 0
M  V30 1791 H 167.686 1.40091 0.745672 0
M  V30 1792 H 167.707 1.58156 3.46074 0
M  V30 1793 H 167.219 3.05848 2.38911 0
M  V30 1794 H 165.32 0.916992 3.6114 0
M  V30 1795 H 165.433 2.77852 3.90302 0
M  V30 1796 H 163.797 1.39722 2.12955 0
M  V30 1797 H 164.58 3.00259 1.66432 0
M  V30 1798 N 167.025 -1.13721 1.09112 0
M  V30 1799 C 167.955 -2.21148 0.749385 0
M  V30 1800 C 168.936 -1.6792 -0.271475 0
M  V30 1801 O 170.121 -1.93693 -0.140251 0
M  V30 1802 C 167.251 -3.46905 0.165659 0
M  V30 1803 C 166.205 -4.13203 1.11567 0
M  V30 1804 C 165.531 -5.33248 0.393809 0
M  V30 1805 C 166.831 -4.60912 2.45678 0
M  V30 1806 H 168.525 -2.4999 1.64758 0
M  V30 1807 H 166.071 -1.20156 0.793626 0
M  V30 1808 H 168.024 -4.21313 -0.085466 0
M  V30 1809 H 166.748 -3.17449 -0.767714 0
M  V30 1810 H 165.407 -3.40758 1.35202 0
M  V30 1811 H 165.055 -5.00054 -0.543599 0
M  V30 1812 H 164.755 -5.78552 1.02721 0
M  V30 1813 H 166.279 -6.10413 0.150908 0
M  V30 1814 H 167.693 -5.26759 2.26269 0
M  V30 1815 H 166.09 -5.16944 3.04776 0
M  V30 1816 H 167.16 -3.75603 3.06677 0
M  V30 1817 N 168.503 -0.877838 -1.30888 0
M  V30 1818 C 169.466 -0.344265 -2.266 0
M  V30 1819 C 170.466 0.50922 -1.52524 0
M  V30 1820 O 171.656 0.317398 -1.71284 0
M  V30 1821 C 168.788 0.510198 -3.37061 0
M  V30 1822 H 169.981 -1.1893 -2.7531 0
M  V30 1823 H 167.534 -0.654088 -1.41956 0
M  V30 1824 H 168.269 1.37612 -2.93655 0
M  V30 1825 H 168.054 -0.101047 -3.9197 0
M  V30 1826 H 169.544 0.875537 -4.08319 0
M  V30 1827 N 169.982 1.44106 -0.638065 0
M  V30 1828 C 171.21 2.06336 -0.152615 0
M  V30 1829 C 171.625 1.47731 1.17563 0
M  V30 1830 O 170.982 0.602806 1.72257 0
M  V30 1831 C 171.033 3.61479 -0.0391491 0
M  V30 1832 O 170.754 4.17903 -1.31487 0
M  V30 1833 C 172.255 4.40757 0.474176 0
M  V30 1834 H 169.475 0.665862 -0.0828776 0
M  V30 1835 H 172.019 1.84862 -0.87443 0
M  V30 1836 H 170.174 3.82191 0.633142 0
M  V30 1837 H 170.588 5.11416 -1.16421 0
M  V30 1838 H 172.062 5.49707 0.502562 0
M  V30 1839 H 172.539 4.12697 1.50258 0
M  V30 1840 H 173.145 4.24979 -0.165102 0
M  V30 1841 N 171.46 0.379036 1.52974 0
M  V30 1842 C 172.871 -0.0972525 1.86447 0
M  V30 1843 C 173.222 -1.47027 1.29914 0
M  V30 1844 O 172.347 -2.07135 0.626433 0
M  V30 1845 C 172.942 -0.183248 3.38304 0
M  V30 1846 C 171.501 -0.603812 3.71525 0
M  V30 1847 C 170.648 0.240632 2.76254 0
M  V30 1848 H 173.599 0.597316 1.4703 0
M  V30 1849 H 173.62 -1.00432 3.67006 0
M  V30 1850 H 173.132 0.816191 3.79421 0
M  V30 1851 H 171.233 -1.61099 3.35973 0
M  V30 1852 H 171.346 -0.369086 4.77676 0
M  V30 1853 H 169.71 -0.292548 2.53014 0
M  V30 1854 H 170.493 1.23786 3.20206 0
M  V30 1855 N 172.938 -1.57226 0.108567 0
M  V30 1856 C 174.187 -1.94008 -0.551703 0
M  V30 1857 C 174.5 -0.993442 -1.68494 0
M  V30 1858 O 175.706 -1.25551 -2.40726 0
M  V30 1859 C 174.162 -3.44763 -1.03279 0
M  V30 1860 C 173.77 -4.47943 0.0714193 0
M  V30 1861 C 175.514 -3.90483 -1.66503 0
M  V30 1862 C 173.421 -5.89865 -0.425779 0
M  V30 1863 H 172.351 -0.724206 -0.209863 0
M  V30 1864 H 175.002 -1.82547 0.186741 0
M  V30 1865 H 173.384 -3.51422 -1.82533 0
M  V30 1866 H 174.558 -4.52942 0.847365 0
M  V30 1867 H 172.873 -4.11913 0.609669 0
M  V30 1868 H 175.47 -4.93925 -2.04798 0
M  V30 1869 H 175.813 -3.29877 -2.53942 0
M  V30 1870 H 176.346 -3.86581 -0.938074 0
M  V30 1871 H 173.085 -6.54202 0.412316 0
M  V30 1872 H 172.605 -5.88309 -1.16843 0
M  V30 1873 H 174.284 -6.40844 -0.890397 0
M  V30 1874 N 174.416 0.165178 -1.56732 0
M  V30 1875 C 175.665 0.879143 -1.81532 0
M  V30 1876 C 175.978 1.83144 -0.686842 0
M  V30 1877 O 177.184 2.58823 -0.819944 0
M  V30 1878 C 175.64 1.61388 -3.21686 0
M  V30 1879 C 175.248 0.704904 -4.4242 0
M  V30 1880 C 176.992 2.3157 -3.55774 0
M  V30 1881 C 174.899 1.44022 -5.73595 0
M  V30 1882 H 173.829 0.332033 -0.676957 0
M  V30 1883 H 176.48 0.132008 -1.83025 0
M  V30 1884 H 174.862 2.40599 -3.14529 0
M  V30 1885 H 176.036 -0.0506815 -4.60772 0
M  V30 1886 H 174.351 0.112419 -4.16248 0
M  V30 1887 H 176.948 2.8719 -4.51028 0
M  V30 1888 H 177.291 3.07201 -2.8095 0
M  V30 1889 H 177.824 1.59297 -3.64513 0
M  V30 1890 H 174.563 0.72612 -6.51466 0
M  V30 1891 H 174.083 2.16898 -5.5921 0
M  V30 1892 H 175.762 1.98606 -6.15764 0
M  V30 1893 N 175.894 1.51508 0.433938 0
M  V30 1894 C 177.31 1.39759 0.770682 0
M  V30 1895 C 177.51 0.482594 1.95636 0
M  V30 1896 O 176.566 -0.0609691 2.52426 0
M  V30 1897 C 177.879 2.81851 1.04787 0
M  V30 1898 C 179.427 2.91025 1.1521 0
M  V30 1899 C 179.902 4.34032 1.46219 0
M  V30 1900 N 181.393 4.37154 1.53136 0
M  V30 1901 C 182.128 5.4484 1.78709 0
M  V30 1902 N 181.624 6.62682 2.02051 0
M  V30 1903 N 183.417 5.32324 1.80519 0
M  V30 1904 H 175.568 2.09548 -0.346892 0
M  V30 1905 H 177.831 0.943446 -0.0928074 0
M  V30 1906 H 177.537 3.50815 0.249304 0
M  V30 1907 H 177.411 3.21386 1.97461 0
M  V30 1908 H 179.798 2.22257 1.94128 0
M  V30 1909 H 179.879 2.54983 0.204281 0
M  V30 1910 H 179.523 5.03351 0.678274 0
M  V30 1911 H 179.453 4.6759 2.42212 0
M  V30 1912 H 181.944 3.52197 1.36987 0
M  V30 1913 H 182.257 7.40543 2.20943 0
M  V30 1914 H 180.602 6.65791 1.99366 0
M  V30 1915 H 183.793 4.39246 1.61805 0
M  V30 1916 H 183.966 6.16328 2.00111 0
M  V30 1917 N 177.372 -0.689602 1.41712 0
M  V30 1918 C 178.597 -1.48329 1.44959 0
M  V30 1919 C 179.022 -1.8801 0.0581283 0
M  V30 1920 O 178.38 -1.55026 -0.940035 0
M  V30 1921 C 178.428 -2.71835 2.36935 0
M  V30 1922 O 177.532 -3.69549 1.8305 0
M  V30 1923 H 176.873 -0.446199 0.491734 0
M  V30 1924 H 179.403 -0.847127 1.86239 0
M  V30 1925 H 179.413 -3.20076 2.53013 0
M  V30 1926 H 178.088 -2.42291 3.38035 0
M  V30 1927 H 176.665 -3.2851 1.76452 0
M  V30 1928 N 178.85 -1.27639 -0.924453 0
M  V30 1929 C 179.797 -1.10644 -2.0255 0
M  V30 1930 C 180.767 -0.00658438 -1.66099 0
M  V30 1931 O 181.952 -0.16952 -1.90045 0
M  V30 1932 C 179.092 -0.76309 -3.36557 0
M  V30 1933 C 178.205 -1.94091 -3.85944 0
M  V30 1934 C 177.34 -1.53914 -5.08413 0
M  V30 1935 C 176.379 -2.68425 -5.50104 0
M  V30 1936 N 175.516 -2.28815 -6.63768 0
M  V30 1937 H 180.356 -2.04858 -2.16419 0
M  V30 1938 H 177.893 -1.01974 -1.06017 0
M  V30 1939 H 179.851 -0.544822 -4.13627 0
M  V30 1940 H 178.481 0.142102 -3.22487 0
M  V30 1941 H 177.533 -2.27162 -3.05125 0
M  V30 1942 H 178.845 -2.7998 -4.12811 0
M  V30 1943 H 177.999 -1.28231 -5.92994 0
M  V30 1944 H 176.738 -0.651391 -4.8333 0
M  V30 1945 H 175.743 -2.94819 -4.64071 0
M  V30 1946 H 176.968 -3.57826 -5.7718 0
M  V30 1947 H 174.914 -1.42495 -6.40337 0
M  V30 1948 H 174.831 -3.08242 -6.90306 0
M  V30 1949 H 176.099 -2.06387 -7.51681 0
M  V30 1950 N 180.328 1.1314 -1.09713 0
M  V30 1951 C 181.577 1.83838 -0.829851 0
M  V30 1952 C 181.89 1.84599 0.646728 0
M  V30 1953 O 183.096 2.51218 1.02965 0
M  V30 1954 C 181.552 3.30069 -1.43466 0
M  V30 1955 C 181.16 3.37688 -2.94399 0
M  V30 1956 C 182.904 4.05788 -1.24645 0
M  V30 1957 C 180.811 4.78209 -3.47952 0
M  V30 1958 H 179.741 0.68877 -0.306777 0
M  V30 1959 H 182.392 1.27448 -1.3202 0
M  V30 1960 H 180.774 3.8628 -0.871996 0
M  V30 1961 H 181.948 2.91456 -3.56918 0
M  V30 1962 H 180.263 2.75436 -3.12289 0
M  V30 1963 H 182.86 5.09535 -1.62107 0
M  V30 1964 H 183.203 4.15878 -0.187357 0
M  V30 1965 H 183.736 3.55915 -1.77678 0
M  V30 1966 H 180.475 4.73311 -4.53495 0
M  V30 1967 H 179.995 5.24924 -2.90198 0
M  V30 1968 H 181.674 5.47133 -3.45332 0
M  V30 1969 N 181.806 0.884767 1.30421 0
M  V30 1970 C 182.716 0.355398 2.31892 0
M  V30 1971 C 183.732 -0.542261 1.65335 0
M  V30 1972 O 184.908 -0.435432 1.96637 0
M  V30 1973 C 181.973 -0.421661 3.44126 0
M  V30 1974 C 181.034 0.505727 4.26311 0
M  V30 1975 C 180.267 -0.234343 5.33185 0
M  V30 1976 O 180.49 -1.46045 5.51386 0
M  V30 1977 O 179.424 0.415443 6.00465 0
M  V30 1978 H 183.25 1.19685 2.79122 0
M  V30 1979 H 180.835 0.648596 1.34587 0
M  V30 1980 H 182.717 -0.861641 4.12497 0
M  V30 1981 H 181.392 -1.23942 2.99032 0
M  V30 1982 H 180.299 0.994513 3.60639 0
M  V30 1983 H 181.632 1.28948 4.75009 0
M  V30 1984 N 183.284 -1.43765 0.645699 0
M  V30 1985 C 184.194 -2.34544 -0.0512957 0
M  V30 1986 C 185.21 -1.53455 -0.82022 0
M  V30 1987 O 186.386 -1.86133 -0.769176 0
M  V30 1988 C 183.451 -3.31636 -1.01087 0
M  V30 1989 C 182.512 -4.2863 -0.239712 0
M  V30 1990 C 181.745 -5.21084 -1.15358 0
M  V30 1991 O 181.968 -5.1779 -2.39269 0
M  V30 1992 O 180.902 -5.98593 -0.630038 0
M  V30 1993 H 184.728 -2.95624 0.695718 0
M  V30 1994 H 182.313 -1.43781 0.405882 0
M  V30 1995 H 184.195 -3.9136 -1.56254 0
M  V30 1996 H 182.87 -2.73069 -1.73824 0
M  V30 1997 H 181.777 -3.72408 0.355356 0
M  V30 1998 H 183.11 -4.90157 0.447936 0
M  V30 1999 N 184.763 -0.387143 -1.52771 0
M  V30 2000 C 186.174 0.0873634 -1.86495 0
M  V30 2001 C 186.525 1.46336 -1.30691 0
M  V30 2002 O 185.65 2.068 -0.637409 0
M  V30 2003 C 186.245 0.165305 -3.38396 0
M  V30 2004 C 184.804 0.584101 -3.7184 0
M  V30 2005 C 183.951 -0.255279 -2.76122 0
M  V30 2006 H 186.902 -0.605104 -1.46711 0
M  V30 2007 H 186.923 0.984848 -3.67534 0
M  V30 2008 H 186.435 -0.836301 -3.78982 0
M  V30 2009 H 184.536 1.59315 -3.36823 0
M  V30 2010 H 184.649 0.343749 -4.77865 0
M  V30 2011 H 183.013 0.279126 -2.53166 0
M  V30 2012 H 183.796 -1.25482 -3.19545 0
M  V30 2013 N 186.241 1.57166 -0.116904 0
M  V30 2014 C 187.466 1.999 0.55271 0
M  V30 2015 C 187.891 0.996039 1.59564 0
M  V30 2016 O 187.249 -0.032556 1.81271 0
M  V30 2017 C 187.297 3.4152 1.15742 0
M  V30 2018 O 186.401 3.44106 2.27299 0
M  V30 2019 H 185.742 0.649447 0.138258 0
M  V30 2020 H 188.272 2.03573 -0.204759 0
M  V30 2021 H 188.282 3.79684 1.49346 0
M  V30 2022 H 186.957 4.14034 0.393493 0
M  V30 2023 H 185.534 3.17759 1.9515 0
M  V30 2024 N 187.719 -0.156864 1.56817 0
M  V30 2025 C 188.965 -0.872416 1.83076 0
M  V30 2026 C 189.298 -1.81261 0.697001 0
M  V30 2027 O 188.573 -1.92171 -0.30008 0
M  V30 2028 C 188.856 -1.65551 3.19789 0
M  V30 2029 C 188.709 -0.737467 4.43713 0
M  V30 2030 C 190.028 -2.62012 3.53606 0
M  V30 2031 H 187.147 -0.315715 0.665953 0
M  V30 2032 H 189.789 -0.138004 1.89498 0
M  V30 2033 H 187.939 -2.28159 3.14445 0
M  V30 2034 H 189.611 -0.123143 4.61136 0
M  V30 2035 H 187.854 -0.0464067 4.33775 0
M  V30 2036 H 188.525 -1.32122 5.35955 0
M  V30 2037 H 191.001 -2.09525 3.59497 0
M  V30 2038 H 189.877 -3.13861 4.50314 0
M  V30 2039 H 190.138 -3.42902 2.79053 0
M  V30 2040 N 189.197 -1.51736 -0.425897 0
M  V30 2041 C 190.443 -1.65214 -1.1761 0
M  V30 2042 C 190.776 -0.372778 -1.90589 0
M  V30 2043 O 190.051 0.628139 -1.84078 0
M  V30 2044 C 190.334 -2.86312 -2.18398 0
M  V30 2045 C 190.187 -4.24254 -1.49426 0
M  V30 2046 C 191.506 -3.02925 -3.19256 0
M  V30 2047 H 188.625 -0.601263 -0.426206 0
M  V30 2048 H 191.267 -1.8425 -0.463882 0
M  V30 2049 H 189.417 -2.70213 -2.79137 0
M  V30 2050 H 191.089 -4.52046 -0.919362 0
M  V30 2051 H 189.332 -4.26426 -0.796432 0
M  V30 2052 H 190.003 -5.05001 -2.22885 0
M  V30 2053 H 192.479 -3.1781 -2.68581 0
M  V30 2054 H 191.355 -3.89199 -3.8706 0
M  V30 2055 H 191.616 -2.15497 -3.86023 0
M  V30 2056 N 190.675 0.682077 -1.42076 0
M  V30 2057 C 191.585 1.82535 -1.47371 0
M  V30 2058 C 192.601 1.7017 -0.363079 0
M  V30 2059 O 193.777 1.91848 -0.612875 0
M  V30 2060 C 190.842 3.18624 -1.36674 0
M  V30 2061 C 189.903 3.42999 -2.58167 0
M  V30 2062 C 189.136 4.72595 -2.4797 0
M  V30 2063 O 189.359 5.50006 -1.5116 0
M  V30 2064 O 188.293 4.98054 -3.37974 0
M  V30 2065 H 192.119 1.81023 -2.43853 0
M  V30 2066 H 189.704 0.836887 -1.2376 0
M  V30 2067 H 191.586 3.99847 -1.33043 0
M  V30 2068 H 190.261 3.20789 -0.433138 0
M  V30 2069 H 189.168 2.61653 -2.67373 0
M  V30 2070 H 190.501 3.45659 -3.50401 0
M  V30 2071 N 192.153 1.28127 0.917671 0
M  V30 2072 C 193.381 1.17892 1.70026 0
M  V30 2073 C 193.796 -0.262958 1.8696 0
M  V30 2074 O 193.153 -1.17811 1.3938 0
M  V30 2075 C 193.204 1.86872 3.09453 0
M  V30 2076 O 192.925 3.25428 2.93306 0
M  V30 2077 C 194.426 1.8289 4.03815 0
M  V30 2078 H 191.646 0.40942 0.531617 0
M  V30 2079 H 194.19 1.69181 1.14883 0
M  V30 2080 H 192.345 1.39464 3.61426 0
M  V30 2081 H 192.759 3.59918 3.81523 0
M  V30 2082 H 194.233 2.35751 4.99125 0
M  V30 2083 H 194.71 0.800412 4.31845 0
M  V30 2084 H 195.316 2.29959 3.57769 0
M  V30 2085 N 193.631 -1.12557 1.10312 0
M  V30 2086 C 194.859 -1.87864 0.866873 0
M  V30 2087 C 195.274 -1.79588 -0.582557 0
M  V30 2088 O 194.631 -1.16887 -1.40156 0
M  V30 2089 C 194.682 -3.37125 1.30496 0
M  V30 2090 O 194.403 -3.45201 2.69755 0
M  V30 2091 C 195.904 -4.29373 1.10243 0
M  V30 2092 H 193.124 -0.594452 0.311236 0
M  V30 2093 H 195.668 -1.42429 1.46745 0
M  V30 2094 H 193.823 -3.80109 0.748081 0
M  V30 2095 H 194.237 -4.38056 2.88457 0
M  V30 2096 H 195.711 -5.32394 1.45811 0
M  V30 2097 H 196.188 -4.39181 0.0409492 0
M  V30 2098 H 196.794 -3.92169 1.64571 0
M  V30 2099 N 195.109 -0.891671 -1.2995 0
M  V30 2100 C 196.059 -0.334811 -2.25528 0
M  V30 2101 C 197.043 0.540553 -1.51548 0
M  V30 2102 O 198.235 0.383882 -1.72787 0
M  V30 2103 C 195.364 0.44374 -3.4042 0
M  V30 2104 C 194.45 -0.44609 -4.21747 0
M  V30 2105 N 194.841 -1.54963 -4.81477 0
M  V30 2106 C 193.139 -0.242415 -4.45341 0
M  V30 2107 C 193.84 -2.10015 -5.42465 0
M  V30 2108 N 192.816 -1.39423 -5.25416 0
M  V30 2109 H 196.618 -1.17792 -2.69262 0
M  V30 2110 H 194.132 -0.741822 -1.44467 0
M  V30 2111 H 196.129 0.859362 -4.07947 0
M  V30 2112 H 194.789 1.28421 -2.98225 0
M  V30 2113 H 195.8 -1.93244 -4.80497 0
M  V30 2114 H 192.477 0.560342 -4.13723 0
M  V30 2115 H 193.867 -3.02724 -5.9984 0
M  V30 2116 N 196.587 1.43421 -0.653314 0
M  V30 2117 C 197.519 2.29071 0.0769134 0
M  V30 2118 C 198.532 1.42513 0.787017 0
M  V30 2119 O 199.721 1.66449 0.644757 0
M  V30 2120 C 196.821 3.19436 1.13199 0
M  V30 2121 C 195.994 4.34533 0.500006 0
M  V30 2122 C 195.053 5.05771 1.45198 0
M  V30 2123 O 194.079 5.61037 0.960538 0
M  V30 2124 N 195.281 5.0928 2.78594 0
M  V30 2125 H 198.046 2.92382 -0.658235 0
M  V30 2126 H 195.607 1.54112 -0.496104 0
M  V30 2127 H 197.599 3.63958 1.76964 0
M  V30 2128 H 196.169 2.57724 1.7691 0
M  V30 2129 H 195.389 3.92925 -0.316738 0
M  V30 2130 H 196.677 5.08766 0.0588345 0
M  V30 2131 H 196.075 4.65751 3.2108 0
M  V30 2132 H 194.632 5.57519 3.37662 0
M  V30 2133 N 198.065 0.39524 1.52563 0
M  V30 2134 C 199.342 -0.242908 1.94086 0
M  V30 2135 C 199.722 -1.63841 1.33114 0
M  V30 2136 O 199.07 -2.22928 0.501529 0
M  V30 2137 C 199.28 -0.26327 3.48006 0
M  V30 2138 C 200.628 -0.489354 4.21771 0
M  V30 2139 O 201.652 -0.343226 3.54543 0
M  V30 2140 O 200.511 -0.776169 5.4096 0
M  V30 2141 H 197.605 -0.152536 0.812811 0
M  V30 2142 H 200.151 0.450178 1.6362 0
M  V30 2143 H 198.923 0.713985 3.84731 0
M  V30 2144 H 198.546 -1.00103 3.84792 0
M  V30 2145 N 199.544 -1.57102 0.125237 0
M  V30 2146 C 200.769 -2.0019 -0.542101 0
M  V30 2147 C 201.194 -1.00449 -1.59034 0
M  V30 2148 O 200.552 0.0229423 -1.81285 0
M  V30 2149 C 200.6 -3.42129 -1.13929 0
M  V30 2150 O 199.704 -3.45307 -2.2547 0
M  V30 2151 H 199.045 -0.650171 -0.134812 0
M  V30 2152 H 201.575 -2.03461 0.215553 0
M  V30 2153 H 201.585 -3.80471 -1.4733 0
M  V30 2154 H 200.26 -4.14237 -0.371531 0
M  V30 2155 H 198.837 -3.1879 -1.93462 0
M  V30 2156 N 201.022 0.148545 -1.56898 0
M  V30 2157 C 202.433 0.708766 -1.72723 0
M  V30 2158 C 202.784 1.81734 -0.739395 0
M  V30 2159 O 201.909 2.16194 0.0943169 0
M  V30 2160 C 202.504 1.29245 -3.13179 0
M  V30 2161 C 201.063 1.79925 -3.30611 0
M  V30 2162 C 200.21 0.687111 -2.68652 0
M  V30 2163 H 203.161 -0.0771063 -1.58513 0
M  V30 2164 H 203.182 2.16224 -3.13093 0
M  V30 2165 H 202.694 0.485382 -3.85053 0
M  V30 2166 H 200.795 2.63203 -2.63732 0
M  V30 2167 H 200.908 1.92903 -4.38549 0
M  V30 2168 H 199.272 1.11335 -2.29078 0
M  V30 2169 H 200.055 -0.108483 -3.43129 0
M  V30 2170 N 202.5 1.5196 0.417844 0
M  V30 2171 C 203.43 1.77634 1.51554 0
M  V30 2172 C 204.411 0.626918 1.58126 0
M  V30 2173 O 205.596 0.871632 1.7354 0
M  V30 2174 C 202.726 1.91911 2.8946 0
M  V30 2175 C 201.68 3.07463 2.97743 0
M  V30 2176 C 201.006 3.06951 4.37819 0
M  V30 2177 C 202.306 4.47082 2.70027 0
M  V30 2178 H 204 2.6955 1.3032 0
M  V30 2179 H 201.546 1.29706 0.625492 0
M  V30 2180 H 203.499 2.08455 3.6623 0
M  V30 2181 H 202.223 0.966598 3.11969 0
M  V30 2182 H 200.882 2.90656 2.23416 0
M  V30 2183 H 200.53 2.09438 4.57323 0
M  V30 2184 H 200.23 3.84556 4.44286 0
M  V30 2185 H 201.754 3.25613 5.16535 0
M  V30 2186 H 203.168 4.6414 3.36522 0
M  V30 2187 H 201.565 5.2654 2.87881 0
M  V30 2188 H 202.635 4.55777 1.65514 0
M  V30 2189 N 203.978 -0.674533 1.42435 0
M  V30 2190 C 205.389 -1.25514 1.38214 0
M  V30 2191 C 205.74 -1.96055 0.0755464 0
M  V30 2192 O 204.865 -2.00028 -0.8257 0
M  V30 2193 C 205.46 -2.28269 2.50357 0
M  V30 2194 C 204.019 -2.81856 2.49467 0
M  V30 2195 C 203.166 -1.56182 2.29134 0
M  V30 2196 H 206.117 -0.467902 1.51646 0
M  V30 2197 H 206.138 -3.10009 2.20624 0
M  V30 2198 H 205.65 -1.769 3.45439 0
M  V30 2199 H 203.751 -3.37346 1.58204 0
M  V30 2200 H 203.864 -3.30854 3.46515 0
M  V30 2201 H 202.228 -1.82761 1.774 0
M  V30 2202 H 203.011 -1.06778 3.26272 0
M  V30 2203 N 205.456 -1.28612 -0.910864 0
M  V30 2204 C 206.406 -1.09423 -2.00026 0
M  V30 2205 C 207.39 -0.0170079 -1.60891 0
M  V30 2206 O 208.582 -0.237472 -1.754 0
M  V30 2207 C 205.711 -0.76114 -3.34756 0
M  V30 2208 C 204.797 -1.87735 -3.80285 0
M  V30 2209 N 205.188 -3.11938 -3.98156 0
M  V30 2210 C 203.486 -1.76786 -4.09467 0
M  V30 2211 C 204.187 -3.84687 -4.36338 0
M  V30 2212 N 203.163 -3.12555 -4.44759 0
M  V30 2213 H 206.965 -2.03658 -2.11898 0
M  V30 2214 H 204.479 -1.19573 -1.09891 0
M  V30 2215 H 206.476 -0.604743 -4.12491 0
M  V30 2216 H 205.136 0.173403 -3.24237 0
M  V30 2217 H 206.147 -3.47516 -3.83996 0
M  V30 2218 H 202.824 -0.905284 -4.07567 0
M  V30 2219 H 204.214 -4.91518 -4.58104 0
M  V30 2220 N 206.934 1.1197 -1.10907 0
M  V30 2221 C 208.345 1.65114 -0.871446 0
M  V30 2222 C 208.696 1.86885 0.597353 0
M  V30 2223 O 207.821 1.59896 1.45816 0
M  V30 2224 C 208.416 2.99944 -1.5754 0
M  V30 2225 C 206.975 3.50018 -1.38435 0
M  V30 2226 C 206.122 2.24941 -1.62164 0
M  V30 2227 H 209.073 0.956851 -1.2661 0
M  V30 2228 H 209.094 3.66651 -1.01721 0
M  V30 2229 H 208.606 2.84067 -2.64438 0
M  V30 2230 H 206.707 3.71071 -0.337214 0
M  V30 2231 H 206.82 4.29165 -2.12965 0
M  V30 2232 H 205.184 2.3229 -1.04467 0
M  V30 2233 H 205.967 2.11612 -2.70324 0
M  V30 2234 N 208.412 0.89855 1.29475 0
M  V30 2235 C 209.322 0.379974 2.31502 0
M  V30 2236 C 210.338 -0.524695 1.659 0
M  V30 2237 O 211.514 -0.414551 1.97087 0
M  V30 2238 C 208.579 -0.385138 3.44554 0
M  V30 2239 C 207.64 0.550914 4.2575 0
M  V30 2240 C 206.873 -0.177778 5.33404 0
M  V30 2241 O 207.096 -1.40189 5.52904 0
M  V30 2242 O 206.03 0.479106 5.9999 0
M  V30 2243 H 209.856 1.22639 2.77837 0
M  V30 2244 H 207.441 0.662834 1.33891 0
M  V30 2245 H 209.323 -0.817841 4.13388 0
M  V30 2246 H 207.998 -1.20763 3.0033 0
M  V30 2247 H 206.905 1.03271 3.59564 0
M  V30 2248 H 208.238 1.33979 4.73614 0
M  V30 2249 N 209.89 -1.43072 0.660911 0
M  V30 2250 C 211.115 -2.06584 0.183805 0
M  V30 2251 C 211.54 -1.49257 -1.14472 0
M  V30 2252 O 210.898 -0.605528 -1.70889 0
M  V30 2253 C 210.946 -3.60418 0.114434 0
M  V30 2254 O 210.05 -4.01981 -0.921137 0
M  V30 2255 H 209.391 -0.656669 0.0983994 0
M  V30 2256 H 211.921 -1.83447 0.906006 0
M  V30 2257 H 211.931 -4.07946 -0.0663394 0
M  V30 2258 H 210.606 -4.01519 1.08422 0
M  V30 2259 H 209.183 -3.66029 -0.71253 0
M  V30 2260 N 211.368 -0.403325 -1.52352 0
M  V30 2261 C 212.596 0.174012 -2.06167 0
M  V30 2262 C 213.011 1.39347 -1.27388 0
M  V30 2263 O 212.368 1.79597 -0.324201 0
M  V30 2264 C 212.419 0.530223 -3.5759 0
M  V30 2265 O 212.14 -0.640806 -4.33388 0
M  V30 2266 C 213.641 1.16192 -4.27802 0
M  V30 2267 H 210.861 0.0229464 -0.670608 0
M  V30 2268 H 213.405 -0.572604 -1.9632 0
M  V30 2269 H 211.56 1.22673 -3.67464 0
M  V30 2270 H 211.974 -0.344851 -5.23365 0
M  V30 2271 H 213.448 1.36141 -5.34948 0
M  V30 2272 H 213.925 2.13335 -3.83907 0
M  V30 2273 H 214.531 0.505775 -4.22282 0
M  V30 2274 N 212.846 1.57033 -0.133567 0
M  V30 2275 C 214.074 2.00044 0.528195 0
M  V30 2276 C 214.489 1.01349 1.59291 0
M  V30 2277 O 213.846 0.00848369 1.82498 0
M  V30 2278 C 213.897 3.43018 1.1411 0
M  V30 2279 O 213.618 4.37939 0.11892 0
M  V30 2280 C 215.119 4.01237 1.88477 0
M  V30 2281 H 212.339 0.656517 0.138661 0
M  V30 2282 H 214.883 2.03267 -0.224196 0
M  V30 2283 H 213.038 3.40688 1.84418 0
M  V30 2284 H 213.452 5.21436 0.56613 0
M  V30 2285 H 214.926 5.03314 2.26669 0
M  V30 2286 H 215.403 3.41193 2.76558 0
M  V30 2287 H 216.009 4.07156 1.22898 0
M  V30 2288 N 214.325 -0.140222 1.56975 0
M  V30 2289 C 215.55 -0.870414 1.88251 0
M  V30 2290 C 215.975 -1.73637 0.723312 0
M  V30 2291 O 215.333 -1.78329 -0.32689 0
M  V30 2292 C 215.381 -1.69737 3.18154 0
M  V30 2293 O 214.485 -2.80229 3.02565 0
M  V30 2294 H 213.826 -0.242025 0.61832 0
M  V30 2295 H 216.356 -0.128999 2.04193 0
M  V30 2296 H 216.366 -2.09099 3.50345 0
M  V30 2297 H 215.041 -1.06152 4.02125 0
M  V30 2298 H 213.618 -2.44224 2.81796 0
M  V30 2299 N 215.803 -1.52179 -0.40978 0
M  V30 2300 C 217.08 -1.56769 -1.16974 0
M  V30 2301 C 217.46 -0.348322 -2.08206 0
M  V30 2302 O 216.808 0.664862 -2.18613 0
M  V30 2303 C 217.018 -2.89603 -1.9476 0
M  V30 2304 C 218.366 -3.42579 -2.50849 0
M  V30 2305 O 219.39 -2.91338 -2.04941 0
M  V30 2306 O 218.249 -4.32054 -3.34652 0
M  V30 2307 H 215.343 -0.631439 -0.534054 0
M  V30 2308 H 217.889 -1.64507 -0.416613 0
M  V30 2309 H 216.661 -3.698 -1.27921 0
M  V30 2310 H 216.284 -2.85155 -2.77079 0
M  V30 2311 N 217.281 0.66697 -1.42791 0
M  V30 2312 C 218.191 1.80962 -1.49299 0
M  V30 2313 C 219.207 1.69775 -0.381108 0
M  V30 2314 O 220.383 1.91188 -0.633188 0
M  V30 2315 C 217.448 3.17156 -1.40045 0
M  V30 2316 C 216.509 3.40242 -2.6179 0
M  V30 2317 C 215.742 4.69939 -2.52969 0
M  V30 2318 O 215.965 5.48372 -1.56985 0
M  V30 2319 O 214.899 4.94441 -3.43237 0
M  V30 2320 H 218.725 1.78427 -2.45759 0
M  V30 2321 H 216.31 0.823713 -1.24641 0
M  V30 2322 H 218.192 3.98413 -1.37276 0
M  V30 2323 H 216.867 3.20312 -0.467138 0
M  V30 2324 H 215.774 2.58802 -2.70134 0
M  V30 2325 H 217.107 3.41923 -3.54047 0
M  V30 2326 N 218.759 1.29093 0.90403 0
M  V30 2327 C 219.706 1.13853 2.00764 0
M  V30 2328 C 220.676 0.0330084 1.66067 0
M  V30 2329 O 221.861 0.199733 1.89752 0
M  V30 2330 C 219.001 0.816537 3.35301 0
M  V30 2331 C 218.114 2.00206 3.82807 0
M  V30 2332 C 217.249 1.61983 5.059 0
M  V30 2333 C 216.288 2.77143 5.45764 0
M  V30 2334 N 215.425 2.39346 6.60044 0
M  V30 2335 H 220.265 2.08276 2.13132 0
M  V30 2336 H 217.802 1.03648 1.04381 0
M  V30 2337 H 219.76 0.610557 4.12708 0
M  V30 2338 H 218.39 -0.090779 3.22672 0
M  V30 2339 H 217.442 2.31988 3.01473 0
M  V30 2340 H 218.754 2.86512 4.08304 0
M  V30 2341 H 217.908 1.37649 5.90879 0
M  V30 2342 H 216.647 0.728202 4.82233 0
M  V30 2343 H 215.652 3.02165 4.59322 0
M  V30 2344 H 216.877 3.66964 5.71414 0
M  V30 2345 H 214.823 1.52665 6.37989 0
M  V30 2346 H 214.74 3.19185 6.85315 0
M  V30 2347 H 216.008 2.1832 7.48303 0
M  V30 2348 N 220.237 -1.11381 1.11499 0
M  V30 2349 C 221.147 -2.21019 0.786628 0
M  V30 2350 C 222.163 -1.72597 -0.220507 0
M  V30 2351 O 223.339 -2.01321 -0.0565251 0
M  V30 2352 C 220.404 -3.459 0.235333 0
M  V30 2353 C 219.465 -4.09107 1.30115 0
M  V30 2354 C 218.698 -5.28027 0.776068 0
M  V30 2355 O 218.921 -5.6904 -0.393661 0
M  V30 2356 O 217.855 -5.81835 1.54114 0
M  V30 2357 H 221.681 -2.51521 1.70209 0
M  V30 2358 H 219.266 -1.19928 0.890928 0
M  V30 2359 H 221.148 -4.21346 -0.067715 0
M  V30 2360 H 219.823 -3.17049 -0.652828 0
M  V30 2361 H 218.73 -3.35391 1.65722 0
M  V30 2362 H 220.063 -4.42139 2.16273 0
M  V30 2363 N 221.715 -0.905404 -1.28997 0
M  V30 2364 C 222.961 -0.535039 -1.95615 0
M  V30 2365 C 223.294 0.917404 -1.71165 0
M  V30 2366 O 222.569 1.65123 -1.02785 0
M  V30 2367 C 222.852 -0.834918 -3.50287 0
M  V30 2368 C 222.705 -2.33948 -3.84172 0
M  V30 2369 C 224.024 -0.325318 -4.38896 0
M  V30 2370 H 221.143 -0.195861 -0.710498 0
M  V30 2371 H 223.785 -1.13313 -1.52513 0
M  V30 2372 H 221.935 -0.325904 -3.87131 0
M  V30 2373 H 223.607 -2.91847 -3.57243 0
M  V30 2374 H 221.85 -2.79789 -3.31513 0
M  V30 2375 H 222.521 -2.49987 -4.92149 0
M  V30 2376 H 224.997 -0.761256 -4.09077 0
M  V30 2377 H 223.873 -0.564295 -5.45992 0
M  V30 2378 H 224.134 0.774144 -4.35269 0
M  V30 2379 N 223.193 1.4272 -0.668489 0
M  V30 2380 C 224.604 1.84793 -0.266151 0
M  V30 2381 C 224.955 1.55959 1.19043 0
M  V30 2382 O 224.08 1.01622 1.91055 0
M  V30 2383 C 224.675 3.35436 -0.476271 0
M  V30 2384 C 223.234 3.76182 -0.128113 0
M  V30 2385 C 222.381 2.66344 -0.771777 0
M  V30 2386 H 225.332 1.32656 -0.871098 0
M  V30 2387 H 225.353 3.79515 0.273561 0
M  V30 2388 H 224.865 3.5639 -1.53647 0
M  V30 2389 H 222.966 3.60836 0.928891 0
M  V30 2390 H 223.079 4.75766 -0.564231 0
M  V30 2391 H 221.443 2.53885 -0.203652 0
M  V30 2392 H 222.226 2.90123 -1.83531 0
M  V30 2393 N 224.671 0.411399 1.52136 0
M  V30 2394 C 225.601 -0.404015 2.29978 0
M  V30 2395 C 226.582 -1.04412 1.34284 0
M  V30 2396 O 227.767 -1.0527 1.63192 0
M  V30 2397 C 224.897 -1.5197 3.12286 0
M  V30 2398 C 223.851 -1.00448 4.16046 0
M  V30 2399 C 223.177 -2.21393 4.86712 0
M  V30 2400 C 224.477 -0.0569336 5.22269 0
M  V30 2401 H 226.171 0.245529 2.98392 0
M  V30 2402 H 223.717 0.119525 1.43503 0
M  V30 2403 H 225.67 -2.09715 3.6551 0
M  V30 2404 H 224.394 -2.19716 2.41646 0
M  V30 2405 H 223.053 -0.449421 3.63835 0
M  V30 2406 H 222.701 -2.87699 4.12599 0
M  V30 2407 H 222.401 -1.87571 5.56858 0
M  V30 2408 H 223.925 -2.7974 5.4275 0
M  V30 2409 H 225.339 -0.54325 5.7072 0
M  V30 2410 H 223.736 0.192594 5.99791 0
M  V30 2411 H 224.806 0.887663 4.76706 0
M  V30 2412 N 226.149 -1.5696 0.141893 0
M  V30 2413 C 227.112 -2.15316 -0.785587 0
M  V30 2414 C 228.112 -1.09366 -1.1788 0
M  V30 2415 O 229.302 -1.35031 -1.10056 0
M  V30 2416 C 226.434 -2.71211 -2.06537 0
M  V30 2417 H 227.627 -2.98608 -0.278041 0
M  V30 2418 H 225.18 -1.5593 -0.107519 0
M  V30 2419 H 225.915 -1.91571 -2.6167 0
M  V30 2420 H 225.7 -3.4872 -1.79268 0
M  V30 2421 H 227.19 -3.16189 -2.72789 0
M  V30 2422 N 227.627 0.131896 -1.57047 0
M  V30 2423 C 228.559 1.1878 -1.9602 0
M  V30 2424 C 229.572 1.38363 -0.857875 0
M  V30 2425 O 230.761 1.37666 -1.13623 0
M  V30 2426 C 227.861 2.55008 -2.23213 0
M  V30 2427 C 227.034 2.56201 -3.54513 0
M  V30 2428 C 226.093 3.7408 -3.70069 0
M  V30 2429 O 225.119 3.58258 -4.42312 0
M  V30 2430 N 226.321 4.92137 -3.07866 0
M  V30 2431 H 229.086 0.85639 -2.87204 0
M  V30 2432 H 226.647 0.321309 -1.5868 0
M  V30 2433 H 228.639 3.32404 -2.30846 0
M  V30 2434 H 227.209 2.80382 -1.3822 0
M  V30 2435 H 226.429 1.64613 -3.58185 0
M  V30 2436 H 227.717 2.54043 -4.4084 0
M  V30 2437 H 227.115 5.07895 -2.49116 0
M  V30 2438 H 225.672 5.67254 -3.21039 0
M  V30 2439 N 229.106 1.52395 0.401703 0
M  V30 2440 C 230.334 1.70676 1.16949 0
M  V30 2441 C 230.749 0.419503 1.8408 0
M  V30 2442 O 230.106 -0.605061 1.72178 0
M  V30 2443 C 230.157 2.84753 2.22706 0
M  V30 2444 O 229.878 4.08495 1.58314 0
M  V30 2445 C 231.379 3.14608 3.12309 0
M  V30 2446 H 228.599 0.571787 0.351142 0
M  V30 2447 H 231.143 1.98987 0.471652 0
M  V30 2448 H 229.298 2.58941 2.88147 0
M  V30 2449 H 229.712 4.72117 2.28485 0
M  V30 2450 H 231.186 3.97923 3.82572 0
M  V30 2451 H 231.663 2.28464 3.75101 0
M  V30 2452 H 232.269 3.42212 2.52529 0
M  V30 2453 N 230.584 -0.659388 1.43143 0
M  V30 2454 C 231.547 -1.75432 1.47501 0
M  V30 2455 C 232.547 -1.56707 0.360512 0
M  V30 2456 O 233.737 -1.62717 0.622002 0
M  V30 2457 C 230.869 -3.14239 1.32162 0
M  V30 2458 H 232.062 -1.7295 2.45006 0
M  V30 2459 H 229.615 -0.870469 1.29817 0
M  V30 2460 H 230.35 -3.22336 0.356401 0
M  V30 2461 H 230.135 -3.29235 2.12948 0
M  V30 2462 H 231.625 -3.94094 1.3813 0
M  V30 2463 N 232.062 -1.29571 -0.897171 0
M  V30 2464 C 232.994 -1.10724 -2.00681 0
M  V30 2465 C 234.007 -0.0540026 -1.6271 0
M  V30 2466 O 235.196 -0.298783 -1.75982 0
M  V30 2467 C 232.296 -0.663912 -3.32333 0
M  V30 2468 C 231.469 -1.79622 -3.98816 0
M  V30 2469 C 230.528 -1.34349 -5.0876 0
M  V30 2470 O 229.554 -2.04864 -5.31055 0
M  V30 2471 N 230.756 -0.215764 -5.80099 0
M  V30 2472 H 233.521 -2.06291 -2.17403 0
M  V30 2473 H 231.082 -1.21544 -1.06951 0
M  V30 2474 H 233.074 -0.344295 -4.03233 0
M  V30 2475 H 231.644 0.199375 -3.11964 0
M  V30 2476 H 230.864 -2.28459 -3.21248 0
M  V30 2477 H 232.152 -2.55535 -4.39976 0
M  V30 2478 H 231.55 0.372091 -5.64475 0
M  V30 2479 H 230.107 0.0444707 -6.51785 0
M  V30 2480 N 233.54 1.10788 -1.12088 0
M  V30 2481 C 234.951 1.64181 -0.88891 0
M  V30 2482 C 235.302 1.87508 0.577498 0
M  V30 2483 O 234.427 1.61434 1.44112 0
M  V30 2484 C 235.022 2.98257 -1.60712 0
M  V30 2485 C 233.581 3.4853 -1.42139 0
M  V30 2486 C 232.728 2.23208 -1.6454 0
M  V30 2487 H 235.679 0.943368 -1.27618 0
M  V30 2488 H 235.7 3.65552 -1.05604 0
M  V30 2489 H 235.212 2.81246 -2.67436 0
M  V30 2490 H 233.313 3.70692 -0.376552 0
M  V30 2491 H 233.426 4.26882 -2.17505 0
M  V30 2492 H 231.79 2.31169 -1.06925 0
M  V30 2493 H 232.573 2.08733 -2.72554 0
M  V30 2494 N 235.018 0.912232 1.28515 0
M  V30 2495 C 236.246 0.560416 1.99166 0
M  V30 2496 C 236.661 -0.857927 1.68182 0
M  V30 2497 O 236.018 -1.56805 0.933733 0
M  V30 2498 C 236.069 0.758142 3.53461 0
M  V30 2499 O 235.79 2.12067 3.83352 0
M  V30 2500 C 237.291 0.412954 4.41372 0
M  V30 2501 H 234.511 0.213805 0.636026 0
M  V30 2502 H 237.055 1.22502 1.63749 0
M  V30 2503 H 235.21 0.140556 3.87145 0
M  V30 2504 H 235.624 2.15923 4.77993 0
M  V30 2505 H 237.098 0.60208 5.48707 0
M  V30 2506 H 237.575 -0.65073 4.34353 0
M  V30 2507 H 238.181 1.00802 4.13182 0
M  V30 2508 N 236.496 -1.42363 0.676048 0
M  V30 2509 C 237.721 -2.06377 0.205705 0
M  V30 2510 C 238.146 -1.50463 -1.12883 0
M  V30 2511 O 237.504 -0.623619 -1.70237 0
M  V30 2512 C 237.552 -3.60277 0.152655 0
M  V30 2513 O 236.656 -4.02935 -0.87845 0
M  V30 2514 H 235.997 -0.655588 0.105359 0
M  V30 2515 H 238.527 -1.82475 0.925412 0
M  V30 2516 H 238.537 -4.07993 -0.0230675 0
M  V30 2517 H 237.212 -4.00346 1.12675 0
M  V30 2518 H 235.789 -3.66764 -0.673668 0
M  V30 2519 N 237.974 -0.419461 -1.51915 0
M  V30 2520 C 238.937 0.389116 -2.25873 0
M  V30 2521 C 239.937 0.964924 -1.28631 0
M  V30 2522 O 241.127 0.842179 -1.52489 0
M  V30 2523 C 238.259 1.54874 -3.03689 0
M  V30 2524 H 239.452 -0.258799 -2.98781 0
M  V30 2525 H 237.005 -0.172209 -1.55348 0
M  V30 2526 H 237.74 2.23323 -2.35154 0
M  V30 2527 H 237.525 1.14223 -3.75094 0
M  V30 2528 H 239.015 2.12046 -3.59759 0
M  V30 2529 N 239.452 1.56882 -0.150215 0
M  V30 2530 C 240.701 1.95403 0.500071 0
M  V30 2531 C 241.014 1.03777 1.658 0
M  V30 2532 O 242.22 1.31889 2.37313 0
M  V30 2533 C 240.676 3.4738 0.941018 0
M  V30 2534 C 240.284 4.47596 -0.190158 0
M  V30 2535 C 242.028 3.9476 1.56091 0
M  V30 2536 C 239.935 5.90787 0.269237 0
M  V30 2537 H 238.865 0.729515 0.190588 0
M  V30 2538 H 241.516 1.81988 -0.235074 0
M  V30 2539 H 239.898 3.56138 1.73152 0
M  V30 2540 H 241.072 4.50536 -0.967157 0
M  V30 2541 H 239.387 4.10151 -0.718666 0
M  V30 2542 H 241.984 4.99181 1.9163 0
M  V30 2543 H 242.327 3.36494 2.45107 0
M  V30 2544 H 242.86 3.88932 0.835249 0
M  V30 2545 H 239.599 6.52879 -0.585621 0
M  V30 2546 H 239.119 5.912 1.01204 0
M  V30 2547 H 240.798 6.42979 0.720176 0
M  V30 2548 N 240.93 -0.123565 1.57115 0
M  V30 2549 C 242.176 -0.833386 1.84885 0
M  V30 2550 C 242.509 -1.79742 0.735292 0
M  V30 2551 O 241.784 -1.92764 -0.25925 0
M  V30 2552 C 242.067 -1.5873 3.23228 0
M  V30 2553 C 241.92 -0.643183 4.45178 0
M  V30 2554 C 243.239 -2.54453 3.59085 0
M  V30 2555 H 240.358 -0.301518 0.6725 0
M  V30 2556 H 243 -0.097778 1.89748 0
M  V30 2557 H 241.15 -2.21438 3.19214 0
M  V30 2558 H 242.822 -0.0253015 4.61293 0
M  V30 2559 H 241.065 0.0456139 4.33776 0
M  V30 2560 H 241.736 -1.20724 5.38637 0
M  V30 2561 H 244.212 -2.01853 3.63861 0
M  V30 2562 H 243.088 -3.04238 4.5687 0
M  V30 2563 H 243.349 -3.36906 2.86264 0
M  V30 2564 N 242.408 -1.52605 -0.393616 0
M  V30 2565 C 243.824 -1.41753 -0.733357 0
M  V30 2566 C 244.024 -0.534293 -1.94287 0
M  V30 2567 O 243.08 -0.0059787 -2.52499 0
M  V30 2568 C 244.393 -2.84531 -0.972772 0
M  V30 2569 C 245.941 -2.93978 -1.07453 0
M  V30 2570 C 246.416 -4.37756 -1.3466 0
M  V30 2571 N 247.907 -4.4106 -1.41492 0
M  V30 2572 C 248.642 -5.49387 -1.642 0
M  V30 2573 N 248.138 -6.67806 -1.8441 0
M  V30 2574 N 249.931 -5.36923 -1.66342 0
M  V30 2575 H 242.082 -2.08555 0.402328 0
M  V30 2576 H 244.345 -0.940654 0.117789 0
M  V30 2577 H 244.051 -3.51353 -0.156204 0
M  V30 2578 H 243.925 -3.26508 -1.88871 0
M  V30 2579 H 246.312 -2.27326 -1.88167 0
M  V30 2580 H 246.393 -2.55435 -0.136605 0
M  V30 2581 H 246.037 -5.04972 -0.544581 0
M  V30 2582 H 245.967 -4.73848 -2.2973 0
M  V30 2583 H 248.458 -3.55705 -1.27601 0
M  V30 2584 H 248.771 -7.46141 -2.01231 0
M  V30 2585 H 247.116 -6.70843 -1.81644 0
M  V30 2586 H 250.307 -4.43381 -1.50102 0
M  V30 2587 H 250.48 -6.21416 -1.837 0
M  V30 2588 N 243.887 0.651787 -1.4349 0
M  V30 2589 C 245.298 1.233 -1.40193 0
M  V30 2590 C 245.649 1.9591 -0.106727 0
M  V30 2591 O 244.774 2.01316 0.793773 0
M  V30 2592 C 245.369 2.24257 -2.53957 0
M  V30 2593 C 243.928 2.77852 -2.5392 0
M  V30 2594 C 243.075 1.52517 -2.3159 0
M  V30 2595 H 246.026 0.443717 -1.52371 0
M  V30 2596 H 246.047 3.0646 -2.25528 0
M  V30 2597 H 245.559 1.71382 -3.4821 0
M  V30 2598 H 243.66 3.34786 -1.63551 0
M  V30 2599 H 243.773 3.25299 -3.51735 0
M  V30 2600 H 242.137 1.79915 -1.80285 0
M  V30 2601 H 242.92 1.01574 -3.27929 0
M  V30 2602 N 245.365 1.30045 0.890287 0
M  V30 2603 C 246.328 1.15963 1.977 0
M  V30 2604 C 247.328 0.0923777 1.60534 0
M  V30 2605 O 248.518 0.340071 1.70848 0
M  V30 2606 C 245.65 0.775451 3.31963 0
M  V30 2607 H 246.843 2.12502 2.11619 0
M  V30 2608 H 244.396 1.13366 1.07601 0
M  V30 2609 H 245.131 -0.189671 3.23745 0
M  V30 2610 H 244.916 1.54668 3.60306 0
M  V30 2611 H 246.406 0.700251 4.11687 0
M  V30 2612 N 246.843 -1.10192 1.12674 0
M  V30 2613 C 248.068 -1.86523 0.906853 0
M  V30 2614 C 248.493 -1.80221 -0.538711 0
M  V30 2615 O 247.851 -1.17396 -1.38158 0
M  V30 2616 C 247.899 -3.32758 1.3894 0
M  V30 2617 O 247.003 -4.08449 0.5695 0
M  V30 2618 H 246.344 -0.578678 0.325619 0
M  V30 2619 H 248.874 -1.39203 1.49946 0
M  V30 2620 H 248.884 -3.83608 1.38958 0
M  V30 2621 H 247.559 -3.36661 2.44197 0
M  V30 2622 H 246.136 -3.67427 0.636528 0
M  V30 2623 N 248.321 -0.919034 -1.28029 0
M  V30 2624 C 249.251 -0.428581 -2.29533 0
M  V30 2625 C 250.232 0.50659 -1.62381 0
M  V30 2626 O 251.417 0.413195 -1.89753 0
M  V30 2627 C 248.547 0.327388 -3.45753 0
M  V30 2628 C 247.501 -0.519137 -4.2484 0
M  V30 2629 C 246.827 0.365486 -5.33449 0
M  V30 2630 C 248.127 -1.77914 -4.91064 0
M  V30 2631 H 249.821 -1.27687 -2.70807 0
M  V30 2632 H 247.367 -0.615428 -1.30186 0
M  V30 2633 H 249.32 0.681378 -4.15855 0
M  V30 2634 H 248.044 1.20963 -3.03374 0
M  V30 2635 H 246.703 -0.855717 -3.56473 0
M  V30 2636 H 246.351 1.24642 -4.87312 0
M  V30 2637 H 246.051 -0.197356 -5.87268 0
M  V30 2638 H 247.575 0.715241 -6.06396 0
M  V30 2639 H 248.989 -1.49374 -5.53498 0
M  V30 2640 H 247.386 -2.2848 -5.54903 0
M  V30 2641 H 248.456 -2.50382 -4.15255 0
M  V30 2642 N 249.799 1.42003 -0.683588 0
M  V30 2643 C 250.731 2.29183 0.0283068 0
M  V30 2644 C 251.744 1.4415 0.756611 0
M  V30 2645 O 252.933 1.67779 0.609306 0
M  V30 2646 C 250.033 3.21765 1.06398 0
M  V30 2647 C 249.206 4.35496 0.407723 0
M  V30 2648 C 248.265 5.08737 1.34437 0
M  V30 2649 O 247.291 5.62948 0.841318 0
M  V30 2650 N 248.493 5.15075 2.67728 0
M  V30 2651 H 251.258 2.9092 -0.720105 0
M  V30 2652 H 248.819 1.53025 -0.528682 0
M  V30 2653 H 250.811 3.6763 1.69204 0
M  V30 2654 H 249.381 2.61418 1.71404 0
M  V30 2655 H 248.601 3.92165 -0.400012 0
M  V30 2656 H 249.889 5.08776 -0.0490956 0
M  V30 2657 H 249.287 4.72457 3.11129 0
M  V30 2658 H 247.844 5.64556 3.2576 0
M  V30 2659 N 251.277 0.427512 1.51691 0
M  V30 2660 C 252.523 -0.142439 2.02299 0
M  V30 2661 C 252.856 -1.43214 1.31162 0
M  V30 2662 O 252.131 -1.89833 0.423511 0
M  V30 2663 C 252.414 -0.371301 3.58181 0
M  V30 2664 C 252.267 0.936358 4.39946 0
M  V30 2665 C 253.586 -1.14542 4.24933 0
M  V30 2666 H 250.705 -0.0502937 0.735282 0
M  V30 2667 H 253.347 0.564584 1.81418 0
M  V30 2668 H 251.497 -0.973559 3.76104 0
M  V30 2669 H 253.169 1.57184 4.33694 0
M  V30 2670 H 251.412 1.5432 4.05423 0
M  V30 2671 H 252.083 0.730388 5.47147 0
M  V30 2672 H 254.559 -0.635362 4.11221 0
M  V30 2673 H 253.435 -1.27431 5.33903 0
M  V30 2674 H 253.696 -2.17093 3.85127 0
M  V30 2675 N 252.755 -1.56801 0.158532 0
M  V30 2676 C 254.166 -1.83189 -0.360366 0
M  V30 2677 C 254.517 -1.07778 -1.63946 0
M  V30 2678 O 253.642 -0.326718 -2.13919 0
M  V30 2679 C 254.237 -3.32297 -0.660595 0
M  V30 2680 C 252.796 -3.59227 -1.12398 0
M  V30 2681 C 251.943 -2.76877 -0.153097 0
M  V30 2682 H 254.894 -1.54008 0.383031 0
M  V30 2683 H 254.915 -3.4908 -1.51405 0
M  V30 2684 H 254.427 -3.87156 0.270527 0
M  V30 2685 H 252.528 -3.09766 -2.07064 0
M  V30 2686 H 252.641 -4.67632 -1.04197 0
M  V30 2687 H 251.005 -2.46319 -0.647983 0
M  V30 2688 H 251.788 -3.34511 0.77182 0
M  V30 2689 N 254.233 0.115231 -1.57178 0
M  V30 2690 C 255.181 1.16014 -2.01602 0
M  V30 2691 C 256.175 1.42653 -0.913587 0
M  V30 2692 O 257.381 1.42571 -1.09879 0
M  V30 2693 H 253.756 0.391252 -0.642204 0
M  V30 2694 H 255.727 0.758998 -2.88586 0
M  V30 2695 C 254.476 2.47767 -2.4394 0
M  V30 2696 H 253.799 2.28108 -3.28339 0
M  V30 2697 H 255.239 3.19432 -2.78818 0
M  V30 2698 C 253.698 3.10617 -1.30455 0
M  V30 2699 O 254.228 3.96846 -0.622585 0
M  V30 2700 N 252.434 2.70553 -1.06064 0
M  V30 2701 H 251.981 2.00527 -1.61699 0
M  V30 2702 H 251.939 3.12934 -0.303284 0
M  V30 2703 N 255.711 1.52812 0.385517 0
M  V30 2704 C 256.957 1.68275 1.13188 0
M  V30 2705 C 257.29 0.423179 1.89533 0
M  V30 2706 O 256.565 -0.579113 1.85679 0
M  V30 2707 C 256.848 2.92001 2.1073 0
M  V30 2708 C 256.701 4.28067 1.38125 0
M  V30 2709 C 258.02 3.11283 3.11113 0
M  V30 2710 H 255.139 0.612352 0.410115 0
M  V30 2711 H 257.781 1.85415 0.414869 0
M  V30 2712 H 255.931 2.77519 2.71874 0
M  V30 2713 H 257.603 4.54324 0.799187 0
M  V30 2714 H 255.846 4.28388 0.683092 0
M  V30 2715 H 256.517 5.10733 2.09417 0
M  V30 2716 H 258.993 3.2482 2.6006 0
M  V30 2717 H 257.869 3.99325 3.76605 0
M  V30 2718 H 258.13 2.25656 3.80173 0
M  V30 2719 N 257.189 -0.644168 1.43834 0
M  V30 2720 C 258.119 -1.76814 1.52509 0
M  V30 2721 C 259.1 -1.65823 0.379052 0
M  V30 2722 O 260.285 -1.84781 0.597466 0
M  V30 2723 C 257.415 -3.15288 1.4564 0
M  V30 2724 C 256.369 -3.41053 2.58586 0
M  V30 2725 C 255.695 -4.79421 2.36769 0
M  V30 2726 C 256.995 -3.34902 4.00797 0
M  V30 2727 H 258.689 -1.69812 2.46586 0
M  V30 2728 H 256.235 -0.815542 1.1868 0
M  V30 2729 H 258.188 -3.93681 1.50311 0
M  V30 2730 H 256.912 -3.23043 0.480725 0
M  V30 2731 H 255.571 -2.65035 2.53282 0
M  V30 2732 H 255.219 -4.83863 1.37424 0
M  V30 2733 H 254.919 -4.9762 3.12487 0
M  V30 2734 H 256.443 -5.6006 2.43238 0
M  V30 2735 H 257.857 -4.03218 4.07539 0
M  V30 2736 H 256.254 -3.64637 4.76613 0
M  V30 2737 H 257.324 -2.32928 4.25291 0
M  V30 2738 N 258.668 -1.30515 -0.883378 0
M  V30 2739 C 259.598 -1.19607 -2.00541 0
M  V30 2740 C 260.579 -0.086346 -1.69881 0
M  V30 2741 O 261.764 -0.268654 -1.92333 0
M  V30 2742 C 258.894 -0.888758 -3.35736 0
M  V30 2743 C 257.848 -1.95659 -3.8066 0
M  V30 2744 C 257.174 -1.50224 -5.13164 0
M  V30 2745 C 258.474 -3.36788 -3.99213 0
M  V30 2746 H 260.168 -2.13476 -2.09925 0
M  V30 2747 H 257.714 -1.02775 -1.00863 0
M  V30 2748 H 259.667 -0.799094 -4.13754 0
M  V30 2749 H 258.391 0.0856125 -3.26488 0
M  V30 2750 H 257.05 -2.03591 -3.04871 0
M  V30 2751 H 256.698 -0.516092 -5.00345 0
M  V30 2752 H 256.398 -2.2165 -5.44192 0
M  V30 2753 H 257.922 -1.42639 -5.93706 0
M  V30 2754 H 259.336 -3.31605 -4.67665 0
M  V30 2755 H 257.733 -4.06314 -4.41621 0
M  V30 2756 H 258.803 -3.78561 -3.03017 0
M  V30 2757 N 260.146 1.09593 -1.13257 0
M  V30 2758 C 261.374 1.855 -0.916378 0
M  V30 2759 C 261.789 1.81069 0.534738 0
M  V30 2760 O 261.146 1.20562 1.37007 0
M  V30 2761 C 261.197 3.33546 -1.39388 0
M  V30 2762 O 260.918 3.37927 -2.78813 0
M  V30 2763 C 262.419 4.26299 -1.21588 0
M  V30 2764 H 259.639 0.585991 -0.326887 0
M  V30 2765 H 262.183 1.38488 -1.5047 0
M  V30 2766 H 260.338 3.77992 -0.848597 0
M  V30 2767 H 260.752 4.30254 -2.9997 0
M  V30 2768 H 262.226 5.28341 -1.59876 0
M  V30 2769 H 262.703 4.38918 -0.157376 0
M  V30 2770 H 263.309 3.87668 -1.7491 0
M  V30 2771 N 261.624 0.925811 1.2754 0
M  V30 2772 C 262.849 0.580924 1.99098 0
M  V30 2773 C 263.274 -0.833555 1.68622 0
M  V30 2774 O 262.632 -1.55903 0.925422 0
M  V30 2775 C 262.68 0.811186 3.51358 0
M  V30 2776 O 261.784 -0.124129 4.12213 0
M  V30 2777 H 261.125 0.223873 0.625122 0
M  V30 2778 H 263.655 1.24455 1.62395 0
M  V30 2779 H 263.665 0.72601 4.01489 0
M  V30 2780 H 262.34 1.84227 3.72872 0
M  V30 2781 H 260.917 0.0108006 3.72898 0
M  V30 2782 N 263.102 -1.41638 0.69111 0
M  V30 2783 C 264.327 -2.06148 0.227583 0
M  V30 2784 C 264.752 -1.51652 -1.11281 0
M  V30 2785 O 264.11 -0.64164 -1.69566 0
M  V30 2786 C 264.158 -3.60095 0.190858 0
M  V30 2787 O 263.262 -4.03845 -0.835664 0
M  V30 2788 H 262.603 -0.654434 0.112306 0
M  V30 2789 H 265.133 -1.81484 0.944714 0
M  V30 2790 H 265.143 -4.07995 0.020207 0
M  V30 2791 H 263.818 -3.99129 1.16915 0
M  V30 2792 H 262.395 -3.67458 -0.63473 0
M  V30 2793 N 264.58 -0.43555 -1.51462 0
M  V30 2794 C 265.857 0.191364 -1.94662 0
M  V30 2795 C 266.237 1.60254 -1.37411 0
M  V30 2796 O 265.585 2.2152 -0.560458 0
M  V30 2797 C 265.795 0.17091 -3.48581 0
M  V30 2798 C 267.143 0.377357 -4.2292 0
M  V30 2799 O 268.167 0.249104 -3.55328 0
M  V30 2800 O 267.026 0.63247 -5.42828 0
M  V30 2801 H 264.12 0.130932 -0.816569 0
M  V30 2802 H 266.666 -0.4934 -1.62369 0
M  V30 2803 H 265.438 -0.815738 -3.82703 0
M  V30 2804 H 265.061 0.898659 -3.87311 0
M  V30 2805 N 266.058 1.56714 -0.166846 0
M  V30 2806 C 267.283 2.01557 0.488833 0
M  V30 2807 C 267.708 1.0463 1.56314 0
M  V30 2808 O 267.066 0.0251304 1.81283 0
M  V30 2809 C 267.114 3.4503 1.04818 0
M  V30 2810 O 266.218 3.51163 2.16236 0
M  V30 2811 H 265.559 0.653516 0.117526 0
M  V30 2812 H 268.089 2.02818 -0.269421 0
M  V30 2813 H 268.099 3.84243 1.37191 0
M  V30 2814 H 266.774 4.15077 0.261572 0
M  V30 2815 H 265.351 3.23807 1.84942 0
M  V30 2816 N 267.536 -0.106894 1.57237 0
M  V30 2817 C 268.761 -0.830287 1.90055 0
M  V30 2818 C 269.186 -1.72064 0.75998 0
M  V30 2819 O 268.544 -1.78982 -0.288991 0
M  V30 2820 C 268.592 -1.6295 3.21683 0
M  V30 2821 O 267.696 -2.73748 3.08441 0
M  V30 2822 H 267.037 -0.228855 0.623315 0
M  V30 2823 H 269.567 -0.085658 2.04421 0
M  V30 2824 H 269.577 -2.01621 3.54701 0
M  V30 2825 H 268.252 -0.975989 4.04286 0
M  V30 2826 H 266.829 -2.38192 2.86913 0
M  V30 2827 N 269.014 -1.53014 -0.377408 0
M  V30 2828 C 270.26 -1.68872 -1.12294 0
M  V30 2829 C 270.593 -0.433224 -1.89306 0
M  V30 2830 O 269.868 0.569258 -1.85983 0
M  V30 2831 C 270.151 -2.93115 -2.09179 0
M  V30 2832 C 270.004 -4.28794 -1.35853 0
M  V30 2833 C 271.323 -3.12928 -3.09458 0
M  V30 2834 H 268.442 -0.614518 -0.406862 0
M  V30 2835 H 271.084 -1.85633 -0.40503 0
M  V30 2836 H 269.234 -2.78956 -2.70399 0
M  V30 2837 H 270.906 -4.54742 -0.775082 0
M  V30 2838 H 269.149 -4.28744 -0.660364 0
M  V30 2839 H 269.82 -5.11837 -2.06706 0
M  V30 2840 H 272.296 -3.26194 -2.58334 0
M  V30 2841 H 271.172 -4.01316 -3.74482 0
M  V30 2842 H 271.433 -2.27669 -3.78971 0
M  V30 2843 N 270.492 0.636531 -1.44174 0
M  V30 2844 C 271.741 1.39213 -1.45954 0
M  V30 2845 C 272.054 1.95374 -0.0939119 0
M  V30 2846 O 273.26 2.71498 0.0107767 0
M  V30 2847 C 271.716 2.52025 -2.56927 0
M  V30 2848 C 271.324 2.024 -3.99673 0
M  V30 2849 C 273.068 3.29269 -2.67922 0
M  V30 2850 C 270.975 3.12521 -5.0208 0
M  V30 2851 H 269.905 0.523132 -0.542999 0
M  V30 2852 H 272.556 0.685349 -1.70221 0
M  V30 2853 H 270.938 3.25253 -2.25891 0
M  V30 2854 H 272.112 1.36073 -4.40251 0
M  V30 2855 H 270.427 1.37987 -3.92872 0
M  V30 2856 H 273.024 4.11352 -3.41605 0
M  V30 2857 H 273.367 3.78397 -1.73555 0
M  V30 2858 H 273.9 2.63129 -2.98342 0
M  V30 2859 H 270.639 2.68343 -5.98057 0
M  V30 2860 H 270.159 3.77507 -4.66099 0
M  V30 2861 H 271.838 3.77385 -5.25538 0
M  V30 2862 N 271.97 1.30982 0.876444 0
M  V30 2863 C 273.219 1.19658 1.62373 0
M  V30 2864 C 273.532 -0.245636 1.94052 0
M  V30 2865 O 274.738 -0.48049 2.67214 0
M  V30 2866 C 273.194 2.09433 2.92687 0
M  V30 2867 C 272.802 3.58613 2.68516 0
M  V30 2868 C 274.546 2.06893 3.70669 0
M  V30 2869 C 272.453 4.40416 3.94699 0
M  V30 2870 H 271.383 0.444268 0.609214 0
M  V30 2871 H 274.034 1.55791 0.969605 0
M  V30 2872 H 272.416 1.66191 3.59439 0
M  V30 2873 H 273.59 4.10058 2.10212 0
M  V30 2874 H 271.905 3.63063 2.03898 0
M  V30 2875 H 274.502 2.65258 4.64265 0
M  V30 2876 H 274.845 1.05448 4.02724 0
M  V30 2877 H 275.378 2.48301 3.10792 0
M  V30 2878 H 272.117 5.42591 3.67798 0
M  V30 2879 H 271.637 3.93731 4.52477 0
M  V30 2880 H 273.316 4.52294 4.62644 0
M  V30 2881 N 273.449 -1.08991 1.13837 0
M  V30 2882 C 274.381 -2.15606 0.777612 0
M  V30 2883 C 275.394 -1.61533 -0.202739 0
M  V30 2884 O 276.583 -1.78491 0.0181055 0
M  V30 2885 C 273.683 -3.3864 0.132623 0
M  V30 2886 C 272.856 -4.22115 1.1462 0
M  V30 2887 C 271.915 -5.23564 0.526074 0
M  V30 2888 O 270.941 -5.56678 1.18735 0
M  V30 2889 N 272.143 -5.76266 -0.699866 0
M  V30 2890 H 274.908 -2.47159 1.69506 0
M  V30 2891 H 272.469 -1.24747 1.03198 0
M  V30 2892 H 274.461 -4.03626 -0.29459 0
M  V30 2893 H 273.031 -3.04938 -0.687849 0
M  V30 2894 H 272.251 -3.53199 1.75055 0
M  V30 2895 H 273.539 -4.74709 1.83109 0
M  V30 2896 H 272.937 -5.51585 -1.25581 0
M  V30 2897 H 271.494 -6.42963 -1.06968 0
M  V30 2898 N 274.927 -0.932562 -1.27047 0
M  V30 2899 C 275.859 -0.392734 -2.2581 0
M  V30 2900 C 276.872 0.479241 -1.55586 0
M  V30 2901 O 278.061 0.291078 -1.76111 0
M  V30 2902 C 275.161 0.455456 -3.35826 0
M  V30 2903 C 274.334 -0.398355 -4.35582 0
M  V30 2904 C 273.393 0.387985 -5.24768 0
M  V30 2905 O 272.419 -0.206003 -5.68827 0
M  V30 2906 N 273.621 1.68664 -5.55457 0
M  V30 2907 H 276.386 -1.24173 -2.72766 0
M  V30 2908 H 273.947 -0.800511 -1.40725 0
M  V30 2909 H 275.939 0.988692 -3.92437 0
M  V30 2910 H 274.509 1.20522 -2.88432 0
M  V30 2911 H 273.729 -1.11286 -3.78165 0
M  V30 2912 H 275.017 -0.981889 -4.99236 0
M  V30 2913 H 274.415 2.19147 -5.21528 0
M  V30 2914 H 272.972 2.1663 -6.14748 0
M  V30 2915 N 276.405 1.4127 -0.698611 0
M  V30 2916 C 277.368 2.29158 -0.044132 0
M  V30 2917 C 278.368 1.44529 0.704841 0
M  V30 2918 O 279.558 1.65643 0.539276 0
M  V30 2919 C 276.69 3.27459 0.947809 0
M  V30 2920 H 277.883 2.88529 -0.817994 0
M  V30 2921 H 275.436 1.49307 -0.46228 0
M  V30 2922 H 276.171 2.73073 1.74933 0
M  V30 2923 H 275.956 3.8991 0.41385 0
M  V30 2924 H 277.446 3.93311 1.40344 0
M  V30 2925 N 277.883 0.443576 1.51229 0
M  V30 2926 C 279.129 -0.120975 2.02439 0
M  V30 2927 C 279.462 -1.41815 1.32674 0
M  V30 2928 O 278.737 -1.89373 0.443622 0
M  V30 2929 C 279.02 -0.333291 3.58554 0
M  V30 2930 C 278.873 0.982968 4.38928 0
M  V30 2931 C 280.192 -1.10028 4.26124 0
M  V30 2932 H 277.311 -0.0424923 0.735774 0
M  V30 2933 H 279.953 0.583794 1.80809 0
M  V30 2934 H 278.103 -0.933614 3.77115 0
M  V30 2935 H 279.775 1.61775 4.32003 0
M  V30 2936 H 278.018 1.58611 4.03763 0
M  V30 2937 H 278.689 0.788379 5.46341 0
M  V30 2938 H 281.165 -0.591711 4.11871 0
M  V30 2939 H 280.041 -1.21761 5.35225 0
M  V30 2940 H 280.302 -2.12996 3.87408 0
M  V30 2941 N 279.361 -1.56624 0.175154 0
M  V30 2942 C 280.772 -1.83561 -0.340916 0
M  V30 2943 C 281.123 -1.09511 -1.62794 0
M  V30 2944 O 280.248 -0.349389 -2.13561 0
M  V30 2945 C 280.843 -3.32979 -0.625313 0
M  V30 2946 C 279.402 -3.60399 -1.08581 0
M  V30 2947 C 278.549 -2.77024 -0.123722 0
M  V30 2948 H 281.5 -1.53593 0.399344 0
M  V30 2949 H 281.521 -3.50666 -1.47694 0
M  V30 2950 H 281.033 -3.86847 0.311575 0
M  V30 2951 H 279.134 -3.11945 -2.03767 0
M  V30 2952 H 279.247 -4.68711 -0.992317 0
M  V30 2953 H 277.611 -2.46993 -0.621821 0
M  V30 2954 H 278.394 -3.33674 0.807256 0
M  V30 2955 N 280.839 0.0985539 -1.57292 0
M  V30 2956 C 282.064 0.820196 -1.90493 0
M  V30 2957 C 282.489 1.71658 -0.769094 0
M  V30 2958 O 281.847 1.79133 0.279495 0
M  V30 2959 C 281.895 1.61242 -3.22542 0
M  V30 2960 O 280.999 2.72108 -3.09888 0
M  V30 2961 H 280.34 0.225547 -0.62452 0
M  V30 2962 H 282.87 0.0748159 -2.04463 0
M  V30 2963 H 282.88 1.99737 -3.55766 0
M  V30 2964 H 281.555 0.954535 -4.04798 0
M  V30 2965 H 280.132 2.36667 -2.88172 0
M  V30 2966 N 282.317 1.53212 0.369288 0
M  V30 2967 C 283.728 1.60943 0.946276 0
M  V30 2968 C 284.079 0.47452 1.90375 0
M  V30 2969 O 283.204 -0.399597 2.12679 0
M  V30 2970 C 283.799 2.91715 1.72302 0
M  V30 2971 C 282.358 3.01792 2.24941 0
M  V30 2972 C 281.505 2.56211 1.06072 0
M  V30 2973 H 284.456 1.58007 0.148198 0
M  V30 2974 H 284.477 2.79309 2.58393 0
M  V30 2975 H 283.989 3.74295 1.0259 0
M  V30 2976 H 282.09 2.23791 2.97906 0
M  V30 2977 H 282.203 4.06803 2.53077 0
M  V30 2978 H 280.567 2.10998 1.4266 0
M  V30 2979 H 281.35 3.41206 0.378639 0
M  V30 2980 N 283.795 -0.628877 1.44509 0
M  V30 2981 C 285.023 -1.41554 1.50897 0
M  V30 2982 C 285.438 -1.8832 0.134564 0
M  V30 2983 O 284.795 -1.60969 -0.859965 0
M  V30 2984 C 284.846 -2.63435 2.47556 0
M  V30 2985 O 284.567 -2.18619 3.79654 0
M  V30 2986 C 286.068 -3.56537 2.63431 0
M  V30 2987 H 283.288 -0.434044 0.511709 0
M  V30 2988 H 285.832 -0.768895 1.89495 0
M  V30 2989 H 283.987 -3.24187 2.12089 0
M  V30 2990 H 284.401 -2.97652 4.31861 0
M  V30 2991 H 285.875 -4.38657 3.35088 0
M  V30 2992 H 286.352 -4.05493 1.68738 0
M  V30 2993 H 286.958 -3.01653 2.9981 0
M  V30 2994 N 285.273 -1.31445 -0.869486 0
M  V30 2995 C 286.498 -1.24256 -1.66058 0
M  V30 2996 C 286.923 0.188928 -1.87149 0
M  V30 2997 O 286.281 1.13522 -1.4136 0
M  V30 2998 C 286.329 -1.9924 -3.00559 0
M  V30 2999 O 285.433 -1.33007 -3.90362 0
M  V30 3000 H 284.774 -0.428973 -0.506831 0
M  V30 3001 H 287.304 -1.73521 -1.08404 0
M  V30 3002 H 287.314 -2.08854 -3.50491 0
M  V30 3003 H 285.989 -3.03342 -2.84528 0
M  V30 3004 H 284.566 -1.31848 -3.48813 0
M  V30 3005 N 286.751 1.08385 -1.14413 0
M  V30 3006 C 287.976 1.85057 -0.936413 0
M  V30 3007 C 288.401 1.81055 0.509971 0
M  V30 3008 O 287.759 1.1958 1.36273 0
M  V30 3009 C 287.807 3.30505 -1.44217 0
M  V30 3010 O 286.911 4.07491 -0.634409 0
M  V30 3011 H 286.252 0.573425 -0.334784 0
M  V30 3012 H 288.782 1.36799 -1.52142 0
M  V30 3013 H 288.792 3.81348 -1.45043 0
M  V30 3014 H 287.467 3.32734 -2.49522 0
M  V30 3015 H 286.044 3.66368 -0.694902 0
M  V30 3016 N 288.23 0.939286 1.26551 0
M  V30 3017 C 289.458 0.602536 1.97932 0
M  V30 3018 C 289.873 -0.82206 1.69964 0
M  V30 3019 O 289.23 -1.54789 0.966784 0
M  V30 3020 C 289.281 0.832946 3.51773 0
M  V30 3021 O 289.002 2.20151 3.78768 0
M  V30 3022 C 290.503 0.506483 4.40397 0
M  V30 3023 H 287.723 0.227248 0.631347 0
M  V30 3024 H 290.267 1.25948 1.61113 0
M  V30 3025 H 288.422 0.222644 3.8676 0
M  V30 3026 H 288.836 2.26013 4.73306 0
M  V30 3027 H 290.31 0.718333 5.47306 0
M  V30 3028 H 290.787 -0.558451 4.35635 0
M  V30 3029 H 291.393 1.09543 4.10951 0
M  V30 3030 N 289.708 -1.40897 0.706093 0
M  V30 3031 C 290.954 -2.01352 0.241889 0
M  V30 3032 C 291.287 -1.55832 -1.15888 0
M  V30 3033 O 290.562 -0.774145 -1.7843 0
M  V30 3034 C 290.845 -3.58752 0.311311 0
M  V30 3035 C 290.698 -4.1437 1.74978 0
M  V30 3036 C 292.017 -4.38914 -0.322922 0
M  V30 3037 H 289.136 -0.731562 0.0893687 0
M  V30 3038 H 291.778 -1.67504 0.896802 0
M  V30 3039 H 289.928 -3.87718 -0.246302 0
M  V30 3040 H 291.6 -3.96239 2.36205 0
M  V30 3041 H 289.843 -3.69016 2.28057 0
M  V30 3042 H 290.514 -5.23532 1.74981 0
M  V30 3043 H 292.99 -4.15822 0.152089 0
M  V30 3044 H 291.866 -5.48358 -0.243855 0
M  V30 3045 H 292.127 -4.19176 -1.40513 0
M  V30 3046 N 291.186 -0.45159 -1.50991 0
M  V30 3047 C 292.435 0.111653 -2.01391 0
M  V30 3048 C 292.748 1.42529 -1.33959 0
M  V30 3049 O 293.954 2.07232 -1.75405 0
M  V30 3050 C 292.41 0.249514 -3.59034 0
M  V30 3051 C 292.018 -1.05453 -4.35412 0
M  V30 3052 C 293.762 0.765762 -4.17536 0
M  V30 3053 C 291.669 -0.881529 -5.84793 0
M  V30 3054 H 290.599 0.0455022 -0.752626 0
M  V30 3055 H 293.25 -0.583524 -1.73975 0
M  V30 3056 H 291.632 1.00803 -3.82955 0
M  V30 3057 H 292.806 -1.82248 -4.23229 0
M  V30 3058 H 291.121 -1.50039 -3.88429 0
M  V30 3059 H 293.718 0.911913 -5.26866 0
M  V30 3060 H 294.061 1.75201 -3.77638 0
M  V30 3061 H 294.594 0.0651744 -3.97747 0
M  V30 3062 H 291.333 -1.84057 -6.29129 0
M  V30 3063 H 290.853 -0.153625 -5.99603 0
M  V30 3064 H 292.532 -0.540363 -6.4474 0
M  V30 3065 N 292.664 1.56529 -0.183458 0
M  V30 3066 C 293.892 2.01623 0.464285 0
M  V30 3067 C 294.307 1.06366 1.55986 0
M  V30 3068 O 293.664 0.0665398 1.82379 0
M  V30 3069 C 293.715 3.46475 1.03139 0
M  V30 3070 O 293.436 4.38095 -0.0204675 0
M  V30 3071 C 294.937 4.0703 1.75617 0
M  V30 3072 H 292.157 0.660596 0.117704 0
M  V30 3073 H 294.701 2.02451 -0.288751 0
M  V30 3074 H 292.856 3.46383 1.73486 0
M  V30 3075 H 293.27 5.22973 0.399952 0
M  V30 3076 H 294.744 5.10271 2.10542 0
M  V30 3077 H 295.221 3.49819 2.65563 0
M  V30 3078 H 295.827 4.1086 1.09882 0
M  V30 3079 N 294.142 -0.090211 1.57342 0
M  V30 3080 C 295.074 -1.13541 1.99101 0
M  V30 3081 C 296.087 -1.3604 0.894258 0
M  V30 3082 O 297.276 -1.34606 1.17233 0
M  V30 3083 C 294.376 -2.49001 2.29895 0
M  V30 3084 C 293.549 -2.46712 3.61182 0
M  V30 3085 C 292.608 -3.64136 3.79857 0
M  V30 3086 O 291.634 -3.46405 4.51655 0
M  V30 3087 N 292.836 -4.83802 3.20806 0
M  V30 3088 H 295.601 -0.779942 2.89373 0
M  V30 3089 H 293.162 -0.279125 1.59476 0
M  V30 3090 H 295.154 -3.26166 2.39578 0
M  V30 3091 H 293.724 -2.76619 1.45605 0
M  V30 3092 H 292.944 -1.55058 3.62423 0
M  V30 3093 H 294.232 -2.42265 4.4742 0
M  V30 3094 H 293.63 -5.01112 2.62494 0
M  V30 3095 H 292.187 -5.58543 3.35966 0
M  V30 3096 N 295.62 -1.53406 -0.361157 0
M  V30 3097 C 296.583 -1.79479 -1.42548 0
M  V30 3098 C 297.583 -0.665327 -1.4639 0
M  V30 3099 O 298.773 -0.933549 -1.47073 0
M  V30 3100 C 295.905 -1.92087 -2.8163 0
M  V30 3101 H 297.098 -2.74538 -1.20701 0
M  V30 3102 H 294.651 -1.4455 -0.594546 0
M  V30 3103 H 295.386 -0.991099 -3.08784 0
M  V30 3104 H 295.171 -2.74241 -2.80239 0
M  V30 3105 H 296.661 -2.13836 -3.58697 0
M  V30 3106 N 297.098 0.621204 -1.44841 0
M  V30 3107 C 298.509 1.20298 -1.42777 0
M  V30 3108 C 298.86 1.95639 -0.148259 0
M  V30 3109 O 297.985 2.02955 0.750892 0
M  V30 3110 C 298.58 2.1882 -2.58657 0
M  V30 3111 C 297.139 2.72403 -2.59756 0
M  V30 3112 C 296.286 1.4757 -2.34773 0
M  V30 3113 H 299.237 0.411297 -1.53278 0
M  V30 3114 H 299.258 3.01607 -2.31977 0
M  V30 3115 H 298.77 1.63957 -3.51766 0
M  V30 3116 H 296.871 3.31242 -1.70615 0
M  V30 3117 H 296.984 3.17765 -3.58556 0
M  V30 3118 H 295.348 1.76051 -1.8406 0
M  V30 3119 H 296.131 0.945954 -3.3001 0
M  V30 3120 N 298.576 1.31904 0.862503 0
M  V30 3121 C 299.801 1.25135 1.65397 0
M  V30 3122 C 300.226 -0.179 1.87246 0
M  V30 3123 O 299.584 -1.1277 1.4196 0
M  V30 3124 C 299.632 2.00832 2.99498 0
M  V30 3125 O 298.736 1.35075 3.89652 0
M  V30 3126 H 298.077 0.431655 0.504549 0
M  V30 3127 H 300.607 1.74094 1.07483 0
M  V30 3128 H 300.617 2.10709 3.49379 0
M  V30 3129 H 299.292 3.04847 2.82916 0
M  V30 3130 H 297.869 1.33696 3.48109 0
M  V30 3131 N 300.054 -1.07777 1.14986 0
M  V30 3132 C 301.279 -1.84558 0.946213 0
M  V30 3133 C 301.704 -1.81323 -0.500362 0
M  V30 3134 O 301.062 -1.20301 -1.35637 0
M  V30 3135 C 301.11 -3.29736 1.45968 0
M  V30 3136 O 300.214 -4.07149 0.65601 0
M  V30 3137 H 299.555 -0.571641 0.33782 0
M  V30 3138 H 302.085 -1.35991 1.52865 0
M  V30 3139 H 302.095 -3.80574 1.47063 0
M  V30 3140 H 300.77 -3.31406 2.51283 0
M  V30 3141 H 299.347 -3.65994 0.714322 0
M  V30 3142 N 301.532 -0.945985 -1.26051 0
M  V30 3143 C 302.48 -0.450259 -2.282 0
M  V30 3144 C 303.474 0.47497 -1.62605 0
M  V30 3145 O 304.68 0.352653 -1.76512 0
M  V30 3146 H 301.055 -0.127081 -0.741184 0
M  V30 3147 H 303.026 -1.32422 -2.67408 0
M  V30 3148 C 301.775 0.26467 -3.46691 0
M  V30 3149 H 301.098 -0.438123 -3.97392 0
M  V30 3150 H 302.538 0.575678 -4.20074 0
M  V30 3151 C 300.997 1.48416 -3.02447 0
M  V30 3152 O 301.527 2.58227 -3.07704 0
M  V30 3153 N 299.733 1.34243 -2.57735 0
M  V30 3154 H 299.28 0.448994 -2.53657 0
M  V30 3155 H 299.238 2.15957 -2.28495 0
M  V30 3156 N 303.011 1.40521 -0.713556 0
M  V30 3157 C 304.427 1.54839 -0.386907 0
M  V30 3158 C 304.627 1.68532 1.1045 0
M  V30 3159 O 303.683 1.67377 1.89053 0
M  V30 3160 C 304.996 2.77792 -1.15118 0
M  V30 3161 C 306.544 2.91607 -1.13729 0
M  V30 3162 C 307.019 4.1747 -1.88368 0
M  V30 3163 N 308.51 4.24466 -1.85427 0
M  V30 3164 C 309.245 5.20755 -2.40004 0
M  V30 3165 N 308.741 6.22965 -3.03129 0
M  V30 3166 N 310.534 5.1282 -2.30158 0
M  V30 3167 H 302.685 1.29879 -1.68063 0
M  V30 3168 H 304.948 0.627896 -0.710247 0
M  V30 3169 H 304.654 2.73944 -2.20561 0
M  V30 3170 H 304.528 3.6984 -0.741477 0
M  V30 3171 H 306.915 2.94959 -0.0910608 0
M  V30 3172 H 306.996 2.00682 -1.5862 0
M  V30 3173 H 306.64 4.1488 -2.9298 0
M  V30 3174 H 306.57 5.074 -1.40898 0
M  V30 3175 H 309.061 3.51241 -1.3942 0
M  V30 3176 H 309.374 6.92859 -3.42295 0
M  V30 3177 H 307.719 6.23415 -3.07212 0
M  V30 3178 H 310.91 4.31899 -1.80501 0
M  V30 3179 H 311.083 5.87689 -2.72993 0
M  V30 3180 N 304.489 0.459591 1.5075 0
M  V30 3181 C 305.9 0.00171547 1.867 0
M  V30 3182 C 306.251 -1.39934 1.37525 0
M  V30 3183 O 305.376 -2.03523 0.735349 0
M  V30 3184 C 305.971 -0.00366298 3.388 0
M  V30 3185 C 304.53 -0.406026 3.74204 0
M  V30 3186 C 303.677 0.38673 2.7459 0
M  V30 3187 H 306.628 0.674413 1.43657 0
M  V30 3188 H 306.649 -0.808371 3.71814 0
M  V30 3189 H 306.161 1.01617 3.74561 0
M  V30 3190 H 304.262 -1.43063 3.4404 0
M  V30 3191 H 304.375 -0.115362 4.78961 0
M  V30 3192 H 302.739 -0.158019 2.54209 0
M  V30 3193 H 303.522 1.40585 3.13194 0
M  V30 3194 N 305.967 -1.56429 0.191757 0
M  V30 3195 C 307.216 -1.9666 -0.448088 0
M  V30 3196 C 307.529 -1.08136 -1.62991 0
M  V30 3197 O 308.735 -1.38135 -2.33733 0
M  V30 3198 C 307.191 -3.49753 -0.848585 0
M  V30 3199 C 306.799 -4.46935 0.308764 0
M  V30 3200 C 308.543 -3.9876 -1.4557 0
M  V30 3201 C 306.45 -5.91293 -0.112506 0
M  V30 3202 H 305.38 -0.734312 -0.171179 0
M  V30 3203 H 308.031 -1.81301 0.283242 0
M  V30 3204 H 306.413 -3.60604 -1.63649 0
M  V30 3205 H 307.587 -4.47813 1.08627 0
M  V30 3206 H 305.902 -4.08102 0.827158 0
M  V30 3207 H 308.499 -5.04086 -1.78328 0
M  V30 3208 H 308.842 -3.42875 -2.36099 0
M  V30 3209 H 309.375 -3.9101 -0.731836 0
M  V30 3210 H 306.114 -6.51097 0.758514 0
M  V30 3211 H 305.634 -5.93676 -0.854941 0
M  V30 3212 H 307.313 -6.44663 -0.549448 0
M  V30 3213 N 307.445 0.0818655 -1.57387 0
M  V30 3214 C 308.691 0.784074 -1.8703 0
M  V30 3215 C 309.024 1.77729 -0.782689 0
M  V30 3216 O 308.299 1.93384 0.208051 0
M  V30 3217 C 308.582 1.50105 -3.27323 0
M  V30 3218 C 308.435 0.524925 -4.46727 0
M  V30 3219 C 309.754 2.44843 -3.65705 0
M  V30 3220 H 306.873 0.283582 -0.680257 0
M  V30 3221 H 309.515 0.0474352 -1.89941 0
M  V30 3222 H 307.665 2.12897 -3.24972 0
M  V30 3223 H 309.337 -0.0970111 -4.61198 0
M  V30 3224 H 307.58 -0.160606 -4.33503 0
M  V30 3225 H 308.251 1.064 -5.41648 0
M  V30 3226 H 310.727 1.92135 -3.69085 0
M  V30 3227 H 309.603 2.92018 -4.64776 0
M  V30 3228 H 309.864 3.29197 -2.95096 0
M  V30 3229 N 308.923 1.53595 0.353017 0
M  V30 3230 C 310.334 1.61937 0.929153 0
M  V30 3231 C 310.685 0.494686 1.89861 0
M  V30 3232 O 309.81 -0.377017 2.1309 0
M  V30 3233 C 310.405 2.93526 1.69199 0
M  V30 3234 C 308.964 3.04161 2.21727 0
M  V30 3235 C 308.111 2.57322 1.03348 0
M  V30 3236 H 311.062 1.58155 0.131431 0
M  V30 3237 H 311.083 2.82034 2.55416 0
M  V30 3238 H 310.595 3.75362 0.986144 0
M  V30 3239 H 308.696 2.26938 2.95516 0
M  V30 3240 H 308.809 4.09465 2.48748 0
M  V30 3241 H 307.173 2.12499 1.40414 0
M  V30 3242 H 307.956 3.41588 0.342428 0
M  V30 3243 N 310.401 -0.613514 1.45168 0
M  V30 3244 C 311.647 -1.37471 1.49096 0
M  V30 3245 C 311.98 -1.93765 0.129901 0
M  V30 3246 O 311.255 -1.74707 -0.854858 0
M  V30 3247 C 311.538 -2.52701 2.56542 0
M  V30 3248 C 311.391 -2.01643 4.0207 0
M  V30 3249 C 312.71 -3.54849 2.60327 0
M  V30 3250 H 309.829 -0.498502 0.54283 0
M  V30 3251 H 312.471 -0.692125 1.76945 0
M  V30 3252 H 310.621 -3.10931 2.32926 0
M  V30 3253 H 312.293 -1.48108 4.36877 0
M  V30 3254 H 310.536 -1.32688 4.13009 0
M  V30 3255 H 311.207 -2.84681 4.72928 0
M  V30 3256 H 313.683 -3.0645 2.81474 0
M  V30 3257 H 312.559 -4.32973 3.37381 0
M  V30 3258 H 312.82 -4.10079 1.6519 0
M  V30 3259 N 311.879 -1.3236 -0.855495 0
M  V30 3260 C 313.29 -1.2056 -1.42556 0
M  V30 3261 C 313.641 0.182209 -1.95352 0
M  V30 3262 O 312.766 1.08088 -1.87472 0
M  V30 3263 C 313.361 -2.1826 -2.59129 0
M  V30 3264 C 311.92 -2.10351 -3.12137 0
M  V30 3265 C 311.067 -2.06674 -1.84882 0
M  V30 3266 H 314.018 -1.442 -0.662727 0
M  V30 3267 H 314.039 -1.78064 -3.36264 0
M  V30 3268 H 313.551 -3.19257 -2.20673 0
M  V30 3269 H 311.652 -1.12599 -3.55179 0
M  V30 3270 H 311.765 -3.00135 -3.73438 0
M  V30 3271 H 310.129 -1.51901 -2.04446 0
M  V30 3272 H 310.912 -3.09451 -1.48643 0
M  V30 3273 N 313.357 1.07166 -1.15556 0
M  V30 3274 C 314.605 1.79443 -0.929764 0
M  V30 3275 C 314.926 1.87246 0.544414 0
M  V30 3276 O 314.196 1.37473 1.39564 0
M  V30 3277 H 312.776 0.664625 -0.341003 0
M  V30 3278 H 315.438 1.29499 -1.45657 0
M  V30 3279 H 314.534 2.81832 -1.34079 0
M  V30 3280 N 314.835 0.952656 1.25548 0
M  V30 3281 C 316.246 0.647392 1.75116 0
M  V30 3282 C 316.597 -0.837274 1.77438 0
M  V30 3283 O 315.722 -1.65525 1.39393 0
M  V30 3284 C 316.317 1.16845 3.18014 0
M  V30 3285 C 314.876 0.913382 3.6515 0
M  V30 3286 C 314.023 1.31265 2.44264 0
M  V30 3287 H 316.974 1.12968 1.11462 0
M  V30 3288 H 316.995 0.527606 3.76824 0
M  V30 3289 H 316.507 2.24902 3.16292 0
M  V30 3290 H 314.608 -0.152316 3.72289 0
M  V30 3291 H 314.721 1.54845 4.53387 0
M  V30 3292 H 313.085 0.731028 2.43984 0
M  V30 3293 H 313.868 2.40239 2.45234 0
M  V30 3294 N 316.313 -1.40141 0.720998 0
M  V30 3295 C 317.56 -2.00787 0.262842 0
M  V30 3296 C 317.888 -1.5718 -1.14563 0
M  V30 3297 O 317.143 -0.785391 -1.79249 0
M  V30 3298 C 317.442 -3.56165 0.296892 0
M  V30 3299 C 317.108 -4.19373 1.65641 0
M  V30 3300 C 315.77 -4.36352 2.02855 0
M  V30 3301 C 318.122 -4.54578 2.54968 0
M  V30 3302 C 315.45 -4.8582 3.28931 0
M  V30 3303 C 317.802 -5.05447 3.80402 0
M  V30 3304 C 316.466 -5.20635 4.17726 0
M  V30 3305 H 315.736 -0.734731 0.0961807 0
M  V30 3306 H 318.383 -1.67673 0.925093 0
M  V30 3307 H 316.688 -3.8922 -0.448932 0
M  V30 3308 H 318.385 -4.00929 -0.0755208 0
M  V30 3309 H 314.975 -4.06549 1.35704 0
M  V30 3310 H 319.159 -4.41091 2.27491 0
M  V30 3311 H 314.415 -4.95764 3.57811 0
M  V30 3312 H 318.589 -5.31663 4.49786 0
M  V30 3313 H 316.216 -5.58728 5.15487 0
M  V30 3314 N 317.792 -0.46758 -1.50504 0
M  V30 3315 C 319.203 -0.0116166 -1.86696 0
M  V30 3316 C 319.554 1.39202 -1.38265 0
M  V30 3317 O 318.679 2.0313 -0.746132 0
M  V30 3318 C 319.274 -0.0143044 -3.38797 0
M  V30 3319 C 317.833 0.386175 -3.74414 0
M  V30 3320 C 316.98 -0.401287 -2.74381 0
M  V30 3321 H 319.931 -0.682022 -1.43297 0
M  V30 3322 H 319.952 0.788641 -3.72237 0
M  V30 3323 H 319.464 -1.03602 -3.74016 0
M  V30 3324 H 317.565 1.41237 -3.44794 0
M  V30 3325 H 317.678 0.0899596 -4.79016 0
M  V30 3326 H 316.042 0.144536 -2.5429 0
M  V30 3327 H 316.825 -1.42244 -3.12444 0
M  V30 3328 N 319.27 1.56325 -0.20005 0
M  V30 3329 C 320.2 2.22318 0.713916 0
M  V30 3330 C 321.181 1.18788 1.21752 0
M  V30 3331 O 322.366 1.47309 1.26545 0
M  V30 3332 C 319.496 2.88639 1.93144 0
M  V30 3333 C 318.45 3.98457 1.56255 0
M  V30 3334 C 317.776 4.51967 2.85709 0
M  V30 3335 C 319.076 5.16612 0.768747 0
M  V30 3336 H 320.77 2.98952 0.163755 0
M  V30 3337 H 318.316 1.43792 0.0773219 0
M  V30 3338 H 320.269 3.33491 2.57608 0
M  V30 3339 H 318.993 2.09419 2.50621 0
M  V30 3340 H 317.652 3.54305 0.941471 0
M  V30 3341 H 317.3 3.69503 3.41287 0
M  V30 3342 H 317 5.26071 2.6177 0
M  V30 3343 H 318.524 4.99523 3.51154 0
M  V30 3344 H 319.938 5.57977 1.3166 0
M  V30 3345 H 318.335 5.96812 0.627286 0
M  V30 3346 H 319.405 4.84358 -0.229168 0
M  V30 3347 N 320.748 -0.0735177 1.57428 0
M  V30 3348 C 321.678 -1.0879 2.06608 0
M  V30 3349 C 322.659 -1.40473 0.959237 0
M  V30 3350 O 323.844 -1.5013 1.23185 0
M  V30 3351 C 320.974 -2.40183 2.50857 0
M  V30 3352 C 319.928 -2.22858 3.65402 0
M  V30 3353 C 319.254 -3.59619 3.957 0
M  V30 3354 C 320.554 -1.65123 4.95511 0
M  V30 3355 H 322.248 -0.678673 2.91607 0
M  V30 3356 H 319.794 -0.325013 1.40284 0
M  V30 3357 H 321.747 -3.11437 2.83874 0
M  V30 3358 H 320.471 -2.83083 1.62885 0
M  V30 3359 H 319.13 -1.54045 3.32664 0
M  V30 3360 H 318.778 -4.00086 3.04861 0
M  V30 3361 H 318.478 -3.48866 4.72828 0
M  V30 3362 H 320.002 -4.32306 4.31212 0
M  V30 3363 H 321.416 -2.26241 5.26771 0
M  V30 3364 H 319.813 -1.65071 5.7695 0
M  V30 3365 H 320.883 -0.612559 4.81015 0
M  V30 3366 N 322.226 -1.5378 -0.344866 0
M  V30 3367 C 323.156 -1.84662 -1.42906 0
M  V30 3368 C 324.137 -0.701648 -1.54955 0
M  V30 3369 O 325.322 -0.953438 -1.69184 0
M  V30 3370 C 322.452 -2.05503 -2.79974 0
M  V30 3371 C 321.406 -3.21318 -2.82734 0
M  V30 3372 C 320.732 -3.2749 -4.22675 0
M  V30 3373 C 322.032 -4.59456 -2.48389 0
M  V30 3374 H 323.726 -2.75461 -1.17311 0
M  V30 3375 H 321.272 -1.32542 -0.562896 0
M  V30 3376 H 323.225 -2.25691 -3.55867 0
M  V30 3377 H 321.949 -1.11434 -3.07002 0
M  V30 3378 H 320.608 -3.00984 -2.09294 0
M  V30 3379 H 320.256 -2.31019 -4.4681 0
M  V30 3380 H 319.956 -4.05316 -4.25433 0
M  V30 3381 H 321.48 -3.49887 -5.00412 0
M  V30 3382 H 322.894 -4.79667 -3.13995 0
M  V30 3383 H 321.291 -5.39675 -2.62432 0
M  V30 3384 H 322.361 -4.63155 -1.4358 0
M  V30 3385 N 323.704 0.605807 -1.45491 0
M  V30 3386 C 324.654 1.71074 -1.50724 0
M  V30 3387 C 325.638 1.5658 -0.37033 0
M  V30 3388 O 326.83 1.65887 -0.617299 0
M  V30 3389 C 323.959 3.0983 -1.47852 0
M  V30 3390 C 323.045 3.29704 -2.66751 0
M  V30 3391 N 323.436 3.19831 -3.91844 0
M  V30 3392 C 321.734 3.60579 -2.62486 0
M  V30 3393 C 322.435 3.41083 -4.71208 0
M  V30 3394 N 321.411 3.65157 -4.02693 0
M  V30 3395 H 325.213 1.61937 -2.45263 0
M  V30 3396 H 322.727 0.80912 -1.40808 0
M  V30 3397 H 324.724 3.89101 -1.49686 0
M  V30 3398 H 323.384 3.20115 -0.543714 0
M  V30 3399 H 324.395 2.98194 -4.23439 0
M  V30 3400 H 321.072 3.7769 -1.77922 0
M  V30 3401 H 322.462 3.38828 -5.80211 0
M  V30 3402 N 325.182 1.32811 0.848464 0
M  V30 3403 C 326.112 1.24882 1.97299 0
M  V30 3404 C 327.093 0.131357 1.69592 0
M  V30 3405 O 328.278 0.319553 1.91553 0
M  V30 3406 C 325.408 0.97746 3.33261 0
M  V30 3407 C 324.362 2.05682 3.75338 0
M  V30 3408 C 323.688 1.63777 5.09 0
M  V30 3409 C 324.988 3.47254 3.90144 0
M  V30 3410 H 326.682 2.18966 2.04191 0
M  V30 3411 H 324.228 1.05413 0.981029 0
M  V30 3412 H 326.181 0.908513 4.1149 0
M  V30 3413 H 324.905 0.000980011 3.266 0
M  V30 3414 H 323.564 2.11603 2.99366 0
M  V30 3415 H 323.212 0.648569 4.98801 0
M  V30 3416 H 322.912 2.36 5.38124 0
M  V30 3417 H 324.436 1.5833 5.89715 0
M  V30 3418 H 325.85 3.43888 4.58709 0
M  V30 3419 H 324.247 4.1788 4.30693 0
M  V30 3420 H 325.317 3.86462 2.92874 0
M  V30 3421 N 326.66 -1.06551 1.16123 0
M  V30 3422 C 328.071 -1.60768 0.949232 0
M  V30 3423 C 328.422 -1.89523 -0.507508 0
M  V30 3424 O 327.547 -1.66671 -1.38021 0
M  V30 3425 C 328.142 -2.92086 1.71671 0
M  V30 3426 C 326.701 -3.43015 1.54977 0
M  V30 3427 C 325.848 -2.16947 1.72711 0
M  V30 3428 H 328.799 -0.895354 1.31031 0
M  V30 3429 H 328.82 -3.6138 1.19099 0
M  V30 3430 H 328.332 -2.71127 2.7769 0
M  V30 3431 H 326.433 -3.69039 0.513873 0
M  V30 3432 H 326.546 -4.18516 2.33198 0
M  V30 3433 H 324.91 -2.27041 1.15431 0
M  V30 3434 H 325.693 -1.98473 2.80113 0
M  V30 3435 N 328.138 -0.959301 -1.25041 0
M  V30 3436 C 329.086 -0.474437 -2.2771 0
M  V30 3437 C 330.08 0.457697 -1.631 0
M  V30 3438 O 331.286 0.333912 -1.76876 0
M  V30 3439 H 327.661 -0.134936 -0.739795 0
M  V30 3440 H 329.632 -1.35251 -2.65988 0
M  V30 3441 C 328.381 0.227884 -3.46952 0
M  V30 3442 H 327.704 -0.480248 -3.96905 0
M  V30 3443 H 329.144 0.531091 -4.20661 0
M  V30 3444 C 327.603 1.452 -3.04004 0
M  V30 3445 O 328.133 2.54949 -3.10426 0
M  V30 3446 N 326.339 1.31502 -2.59144 0
M  V30 3447 H 325.886 0.422065 -2.54119 0
M  V30 3448 H 325.844 2.13521 -2.30773 0
M  V30 3449 N 329.616 1.39756 -0.72842 0
M  V30 3450 C 330.864 2.00248 -0.272946 0
M  V30 3451 C 331.185 1.58077 1.14178 0
M  V30 3452 O 330.455 0.826014 1.77634 0
M  V30 3453 H 329.035 0.740554 -0.0979247 0
M  V30 3454 H 331.697 1.70903 -0.936912 0
M  V30 3455 H 330.793 3.10495 -0.316142 0
M  V30 3456 N 331.094 0.475555 1.50254 0
M  V30 3457 C 332.026 -0.352649 2.26471 0
M  V30 3458 C 333.039 -0.953165 1.3198 0
M  V30 3459 O 334.228 -0.840815 1.57457 0
M  V30 3460 C 331.328 -1.50902 3.0345 0
M  V30 3461 C 330.501 -1.02047 4.25329 0
M  V30 3462 C 329.56 -2.05142 4.84565 0
M  V30 3463 O 328.586 -1.63023 5.45355 0
M  V30 3464 N 329.788 -3.37987 4.71959 0
M  V30 3465 H 332.553 0.300767 2.98187 0
M  V30 3466 H 330.114 0.306598 1.5897 0
M  V30 3467 H 332.106 -2.19572 3.39956 0
M  V30 3468 H 330.676 -2.06705 2.34504 0
M  V30 3469 H 329.896 -0.159507 3.93877 0
M  V30 3470 H 331.184 -0.672061 5.04342 0
M  V30 3471 H 330.582 -3.74913 4.23623 0
M  V30 3472 H 329.139 -4.02443 5.12721 0
M  V30 3473 N 332.573 -1.56217 0.208337 0
M  V30 3474 C 333.801 -2.02337 -0.43215 0
M  V30 3475 C 334.216 -1.08834 -1.54275 0
M  V30 3476 O 333.573 -0.0955462 -1.8225 0
M  V30 3477 C 333.624 -3.48072 -0.976138 0
M  V30 3478 O 333.345 -4.38007 0.0901621 0
M  V30 3479 C 334.846 -4.09773 -1.69119 0
M  V30 3480 H 332.066 -0.662385 -0.10718 0
M  V30 3481 H 334.61 -2.01966 0.320923 0
M  V30 3482 H 332.765 -3.49099 -1.67954 0
M  V30 3483 H 333.179 -5.23543 -0.316701 0
M  V30 3484 H 334.653 -5.13556 -2.02397 0
M  V30 3485 H 335.13 -3.53999 -2.59964 0
M  V30 3486 H 335.736 -4.12556 -1.03332 0
M  V30 3487 N 334.051 0.0651679 -1.57465 0
M  V30 3488 C 334.984 1.10876 -1.99453 0
M  V30 3489 C 335.962 1.37205 -0.872555 0
M  V30 3490 O 337.146 1.50468 -1.13542 0
M  V30 3491 C 334.273 2.45167 -2.3369 0
M  V30 3492 C 333.319 2.3493 -3.55964 0
M  V30 3493 S 334.152 1.73708 -5.06543 0
M  V30 3494 C 335.308 3.09563 -5.43987 0
M  V30 3495 H 335.541 0.750967 -2.87659 0
M  V30 3496 H 333.074 0.273933 -1.51951 0
M  V30 3497 H 335.032 3.22412 -2.54088 0
M  V30 3498 H 333.693 2.78105 -1.46001 0
M  V30 3499 H 332.886 3.3398 -3.77457 0
M  V30 3500 H 332.488 1.65823 -3.3523 0
M  V30 3501 H 334.78 4.05882 -5.42463 0
M  V30 3502 H 335.723 2.92843 -6.44708 0
M  V30 3503 H 336.131 3.10474 -4.71451 0
M  V30 3504 N 335.529 1.53961 0.336706 0
M  V30 3505 C 336.94 1.62914 0.911925 0
M  V30 3506 C 337.291 0.514795 1.89326 0
M  V30 3507 O 336.416 -0.354395 2.13478 0
M  V30 3508 C 337.011 2.95304 1.66076 0
M  V30 3509 C 335.57 3.06496 2.18489 0
M  V30 3510 C 334.717 2.58403 1.00613 0
M  V30 3511 H 337.668 1.58285 0.114649 0
M  V30 3512 H 337.689 2.84727 2.5241 0
M  V30 3513 H 337.201 3.76387 0.946276 0
M  V30 3514 H 335.302 2.3006 2.93092 0
M  V30 3515 H 335.415 4.1208 2.44391 0
M  V30 3516 H 333.779 2.13977 1.38152 0
M  V30 3517 H 334.562 3.41932 0.306179 0
M  V30 3518 N 337.007 -0.598083 1.45811 0
M  V30 3519 C 338.253 -1.35882 1.50545 0
M  V30 3520 C 338.586 -1.93616 0.150445 0
M  V30 3521 O 337.861 -1.75604 -0.83628 0
M  V30 3522 C 338.144 -2.49966 2.59208 0
M  V30 3523 C 337.997 -1.97367 4.04186 0
M  V30 3524 C 339.316 -3.52068 2.64076 0
M  V30 3525 H 336.435 -0.492717 0.548087 0
M  V30 3526 H 339.077 -0.673319 1.77669 0
M  V30 3527 H 337.227 -3.08443 2.3621 0
M  V30 3528 H 338.899 -1.43466 4.38423 0
M  V30 3529 H 337.142 -1.283 4.14393 0
M  V30 3530 H 337.813 -2.79649 4.75921 0
M  V30 3531 H 340.289 -3.03448 2.84708 0
M  V30 3532 H 339.165 -4.2937 3.41954 0
M  V30 3533 H 339.426 -4.08304 1.69531 0
M  V30 3534 N 338.485 -1.33259 -0.841409 0
M  V30 3535 C 339.448 -1.23221 -1.9326 0
M  V30 3536 C 340.448 -0.151895 -1.60081 0
M  V30 3537 O 341.638 -0.403246 -1.69468 0
M  V30 3538 C 338.77 -0.898123 -3.28856 0
M  V30 3539 H 339.963 -2.2021 -2.03587 0
M  V30 3540 H 337.516 -1.17281 -1.03319 0
M  V30 3541 H 338.251 0.0693841 -3.24226 0
M  V30 3542 H 338.036 -1.67934 -3.54317 0
M  V30 3543 H 339.526 -0.852563 -4.08805 0
M  V30 3544 N 339.963 1.05934 -1.16686 0
M  V30 3545 C 341.212 1.78188 -0.945085 0
M  V30 3546 C 341.525 1.88338 0.528021 0
M  V30 3547 O 342.731 2.57258 0.867799 0
M  V30 3548 C 341.187 3.20277 -1.64167 0
M  V30 3549 C 340.795 3.18281 -3.15279 0
M  V30 3550 C 342.539 3.97039 -1.502 0
M  V30 3551 C 340.446 4.55112 -3.7766 0
M  V30 3552 H 339.376 0.667866 -0.349959 0
M  V30 3553 H 342.027 1.18794 -1.39858 0
M  V30 3554 H 340.409 3.79952 -1.11589 0
M  V30 3555 H 341.583 2.68167 -3.74731 0
M  V30 3556 H 339.898 2.55018 -3.29173 0
M  V30 3557 H 342.495 4.98194 -1.94183 0
M  V30 3558 H 342.838 4.13845 -0.451461 0
M  V30 3559 H 343.371 3.43894 -1.99954 0
M  V30 3560 H 340.11 4.43512 -4.82677 0
M  V30 3561 H 339.63 5.05406 -3.22994 0
M  V30 3562 H 341.309 5.24064 -3.79428 0
M  V30 3563 N 341.441 0.965919 1.2453 0
M  V30 3564 C 342.852 0.665929 1.7442 0
M  V30 3565 C 343.203 -0.818407 1.78316 0
M  V30 3566 O 342.328 -1.64037 1.41141 0
M  V30 3567 C 342.923 1.20211 3.16757 0
M  V30 3568 C 341.482 0.952059 3.6416 0
M  V30 3569 C 340.629 1.33848 2.42858 0
M  V30 3570 H 343.58 1.14144 1.10258 0
M  V30 3571 H 343.601 0.567544 3.76244 0
M  V30 3572 H 343.113 2.28244 3.13889 0
M  V30 3573 H 341.214 -0.112821 3.72429 0
M  V30 3574 H 341.327 1.59645 4.51719 0
M  V30 3575 H 339.691 0.756864 2.43195 0
M  V30 3576 H 340.474 2.42827 2.42673 0
M  V30 3577 N 342.919 -1.39368 0.735821 0
M  V30 3578 C 343.882 -2.2896 0.104874 0
M  V30 3579 C 344.882 -1.46347 -0.666274 0
M  V30 3580 O 346.072 -1.67014 -0.49517 0
M  V30 3581 C 343.204 -3.29857 -0.860656 0
M  V30 3582 H 344.397 -2.86259 0.894205 0
M  V30 3583 H 341.95 -1.48029 0.501704 0
M  V30 3584 H 342.685 -2.77615 -1.67631 0
M  V30 3585 H 342.47 -3.9087 -0.310327 0
M  V30 3586 H 343.96 -3.96893 -1.29867 0
M  V30 3587 N 344.397 -0.483516 -1.5 0
M  V30 3588 C 345.622 0.0667119 -2.07293 0
M  V30 3589 C 346.047 1.3164 -1.3436 0
M  V30 3590 O 345.405 1.76945 -0.394987 0
M  V30 3591 C 345.453 0.321126 -3.59167 0
M  V30 3592 O 344.557 1.39927 -3.87936 0
M  V30 3593 H 343.898 -0.0184758 -0.663743 0
M  V30 3594 H 346.428 -0.678125 -1.93035 0
M  V30 3595 H 346.438 0.557906 -4.04168 0
M  V30 3596 H 345.113 -0.592007 -4.11665 0
M  V30 3597 H 343.69 1.14882 -3.54763 0
M  V30 3598 N 345.875 1.56104 -0.216619 0
M  V30 3599 C 347.124 1.97348 0.416744 0
M  V30 3600 C 347.437 1.10715 1.6125 0
M  V30 3601 O 348.643 1.41836 2.31506 0
M  V30 3602 C 347.099 3.51059 0.792835 0
M  V30 3603 C 346.707 4.46387 -0.379828 0
M  V30 3604 C 348.451 4.01026 1.39208 0
M  V30 3605 C 346.358 5.91397 0.0184223 0
M  V30 3606 H 345.288 0.736942 0.159475 0
M  V30 3607 H 347.939 1.80827 -0.31205 0
M  V30 3608 H 346.321 3.63162 1.57891 0
M  V30 3609 H 347.495 4.46029 -1.15737 0
M  V30 3610 H 345.81 4.06734 -0.891979 0
M  V30 3611 H 348.407 5.0686 1.70286 0
M  V30 3612 H 348.75 3.46587 2.30614 0
M  V30 3613 H 349.283 3.92125 0.669537 0
M  V30 3614 H 346.022 6.49807 -0.862002 0
M  V30 3615 H 345.542 5.94961 0.760384 0
M  V30 3616 H 347.221 6.45455 0.446818 0
M  V30 3617 N 347.353 -0.0568162 1.57498 0
M  V30 3618 C 348.581 -0.765626 1.92213 0
M  V30 3619 C 348.996 -1.70353 0.813961 0
M  V30 3620 O 348.353 -1.81268 -0.211701 0
M  V30 3621 C 348.404 -1.5465 3.2675 0
M  V30 3622 O 348.125 -0.646278 4.33307 0
M  V30 3623 C 349.626 -2.35497 3.75574 0
M  V30 3624 H 346.846 -0.216835 0.634999 0
M  V30 3625 H 349.39 -0.0226146 2.04487 0
M  V30 3626 H 347.545 -2.24165 3.15957 0
M  V30 3627 H 347.959 -1.19093 5.108 0
M  V30 3628 H 349.433 -2.85722 4.72299 0
M  V30 3629 H 349.91 -3.15692 3.05344 0
M  V30 3630 H 350.516 -1.7111 3.8936 0
M  V30 3631 N 348.832 -1.54138 -0.328536 0
M  V30 3632 C 350.057 -1.76378 -1.09112 0
M  V30 3633 C 350.482 -0.508596 -1.81094 0
M  V30 3634 O 349.84 0.539598 -1.73084 0
M  V30 3635 C 349.888 -2.95358 -2.06872 0
M  V30 3636 O 348.992 -2.66556 -3.14677 0
M  V30 3637 H 348.333 -0.584614 -0.314838 0
M  V30 3638 H 350.863 -2.01146 -0.374348 0
M  V30 3639 H 350.873 -3.22566 -2.4983 0
M  V30 3640 H 349.548 -3.86385 -1.5388 0
M  V30 3641 H 348.125 -2.50282 -2.7643 0
M  V30 3642 N 350.31 0.590341 -1.46126 0
M  V30 3643 C 351.535 1.37991 -1.54833 0
M  V30 3644 C 351.96 1.87163 -0.187506 0
M  V30 3645 O 351.318 1.61133 0.831008 0
M  V30 3646 C 351.366 2.54867 -2.55098 0
M  V30 3647 O 350.47 3.56061 -2.08073 0
M  V30 3648 H 349.811 0.411265 -0.521303 0
M  V30 3649 H 352.341 0.716819 -1.91632 0
M  V30 3650 H 352.351 3.01886 -2.74461 0
M  V30 3651 H 351.026 2.18429 -3.53923 0
M  V30 3652 H 349.603 3.15574 -1.98664 0
M  V30 3653 N 351.788 1.33704 0.83433 0
M  V30 3654 C 352.736 1.24323 1.96587 0
M  V30 3655 C 353.73 0.143659 1.6879 0
M  V30 3656 O 354.936 0.30791 1.77347 0
M  V30 3657 H 351.311 0.385925 0.645419 0
M  V30 3658 H 353.282 2.19978 2.01624 0
M  V30 3659 C 352.031 1.00394 3.32891 0
M  V30 3660 H 351.354 1.84231 3.54822 0
M  V30 3661 H 352.794 0.97862 4.12552 0
M  V30 3662 C 351.253 -0.293047 3.35623 0
M  V30 3663 O 351.783 -1.29823 3.80143 0
M  V30 3664 N 349.989 -0.322174 2.88809 0
M  V30 3665 H 349.536 0.496379 2.52772 0
M  V30 3666 H 349.494 -1.18977 2.91019 0
M  V30 3667 N 353.266 -1.05314 1.17247 0
M  V30 3668 C 354.512 -1.78557 0.961513 0
M  V30 3669 C 354.845 -1.87419 -0.508697 0
M  V30 3670 O 354.12 -1.37307 -1.37757 0
M  V30 3671 C 354.403 -3.22514 1.60176 0
M  V30 3672 C 354.256 -3.21673 3.14399 0
M  V30 3673 C 355.575 -4.20318 1.30463 0
M  V30 3674 H 352.694 -0.6482 0.350723 0
M  V30 3675 H 355.336 -1.23102 1.44727 0
M  V30 3676 H 353.486 -3.69867 1.18871 0
M  V30 3677 H 355.158 -2.82405 3.64753 0
M  V30 3678 H 353.401 -2.60048 3.47214 0
M  V30 3679 H 354.072 -4.23271 3.54324 0
M  V30 3680 H 356.548 -3.81454 1.66229 0
M  V30 3681 H 355.424 -5.19289 1.77848 0
M  V30 3682 H 355.685 -4.41526 0.22521 0
M  V30 3683 N 354.744 -0.972509 -1.24016 0
M  V30 3684 C 355.694 -0.477561 -2.22942 0
M  V30 3685 C 356.678 0.44308 -1.54679 0
M  V30 3686 O 357.87 0.273219 -1.74879 0
M  V30 3687 C 354.999 0.226348 -3.42553 0
M  V30 3688 C 354.085 -0.713403 -4.18057 0
M  V30 3689 N 354.476 -1.8527 -4.70647 0
M  V30 3690 C 352.774 -0.525145 -4.42898 0
M  V30 3691 C 353.475 -2.44089 -5.28011 0
M  V30 3692 N 352.451 -1.72556 -5.15486 0
M  V30 3693 H 356.253 -1.34678 -2.61226 0
M  V30 3694 H 353.767 -0.832196 -1.39457 0
M  V30 3695 H 355.764 0.598184 -4.12586 0
M  V30 3696 H 354.424 1.09195 -3.05788 0
M  V30 3697 H 355.435 -2.2341 -4.67235 0
M  V30 3698 H 352.112 0.296096 -4.16449 0
M  V30 3699 H 353.502 -3.40259 -5.79374 0
M  V30 3700 N 356.222 1.38976 -0.743202 0
M  V30 3701 C 357.468 2.0064 -0.295189 0
M  V30 3702 C 357.801 1.5885 1.11716 0
M  V30 3703 O 357.076 0.821181 1.76315 0
M  V30 3704 C 357.359 3.578 -0.406318 0
M  V30 3705 C 357.212 4.09586 -1.85903 0
M  V30 3706 C 358.531 4.39616 0.206439 0
M  V30 3707 H 355.65 0.728935 -0.108733 0
M  V30 3708 H 358.292 1.65067 -0.940897 0
M  V30 3709 H 356.442 3.88235 0.143419 0
M  V30 3710 H 358.114 3.89837 -2.46627 0
M  V30 3711 H 356.357 3.6284 -2.3776 0
M  V30 3712 H 357.028 5.18708 -1.888 0
M  V30 3713 H 359.504 4.15273 -0.262283 0
M  V30 3714 H 358.38 5.48812 0.0983819 0
M  V30 3715 H 358.641 4.22754 1.2935 0
M  V30 3716 N 357.7 0.491464 1.49741 0
M  V30 3717 C 359.111 0.0413169 1.86654 0
M  V30 3718 C 359.462 -1.36985 1.40462 0
M  V30 3719 O 358.587 -2.01917 0.778354 0
M  V30 3720 C 359.182 0.0682023 3.38731 0
M  V30 3721 C 357.741 -0.32656 3.74981 0
M  V30 3722 C 356.888 0.444888 2.73708 0
M  V30 3723 H 359.839 0.704733 1.42194 0
M  V30 3724 H 359.86 -0.729322 3.73445 0
M  V30 3725 H 359.372 1.09539 3.72321 0
M  V30 3726 H 357.473 -1.35734 3.46997 0
M  V30 3727 H 357.586 -0.013741 4.79098 0
M  V30 3728 H 355.95 -0.104062 2.54487 0
M  V30 3729 H 356.733 1.47197 3.10142 0
M  V30 3730 N 359.178 -1.55987 0.224894 0
M  V30 3731 C 360.141 -2.19178 -0.670348 0
M  V30 3732 C 361.141 -1.15461 -1.11917 0
M  V30 3733 O 362.331 -1.40675 -1.02743 0
M  V30 3734 C 359.463 -2.81777 -1.9187 0
M  V30 3735 H 360.656 -2.99662 -0.119364 0
M  V30 3736 H 358.209 -1.5628 -0.0247128 0
M  V30 3737 H 358.944 -2.05172 -2.51147 0
M  V30 3738 H 358.729 -3.57732 -1.60531 0
M  V30 3739 H 360.219 -3.30205 -2.55645 0
M  V30 3740 N 360.656 0.0484629 -1.57525 0
M  V30 3741 C 361.619 1.03956 -2.04269 0
M  V30 3742 C 362.619 1.30211 -0.943496 0
M  V30 3743 O 363.809 1.25539 -1.20771 0
M  V30 3744 C 360.941 2.37742 -2.44319 0
M  V30 3745 H 362.134 0.636182 -2.93075 0
M  V30 3746 H 359.687 0.294811 -1.53494 0
M  V30 3747 H 360.422 2.82866 -1.5861 0
M  V30 3748 H 360.207 2.20021 -3.24551 0
M  V30 3749 H 361.697 3.08936 -2.80978 0
M  V30 3750 N 362.134 1.5431 0.320358 0
M  V30 3751 C 363.38 1.72924 1.05949 0
M  V30 3752 C 363.713 0.503185 1.87568 0
M  V30 3753 O 362.988 -0.499839 1.87968 0
M  V30 3754 C 363.271 3.00676 1.98156 0
M  V30 3755 C 363.124 4.3354 1.19845 0
M  V30 3756 C 364.443 3.24198 2.9763 0
M  V30 3757 H 361.562 0.629195 0.383774 0
M  V30 3758 H 364.204 1.87008 0.335854 0
M  V30 3759 H 362.354 2.888 2.59859 0
M  V30 3760 H 364.026 4.57305 0.605773 0
M  V30 3761 H 362.269 4.309 0.500784 0
M  V30 3762 H 362.94 5.19156 1.87567 0
M  V30 3763 H 365.416 3.35557 2.4605 0
M  V30 3764 H 364.292 4.14938 3.59329 0
M  V30 3765 H 364.553 2.41577 3.7026 0
M  V30 3766 N 363.613 -0.582584 1.46437 0
M  V30 3767 C 365.024 -1.1647 1.45916 0
M  V30 3768 C 365.375 -1.95177 0.200077 0
M  V30 3769 O 364.5 -2.04874 -0.696819 0
M  V30 3770 C 365.095 -2.11885 2.64367 0
M  V30 3771 C 363.654 -2.65421 2.66887 0
M  V30 3772 C 362.801 -1.41294 2.38603 0
M  V30 3773 H 365.752 -0.370514 1.54314 0
M  V30 3774 H 365.773 -2.9535 2.39892 0
M  V30 3775 H 365.285 -1.54573 3.5599 0
M  V30 3776 H 363.386 -3.26602 1.79338 0
M  V30 3777 H 363.499 -3.08147 3.66854 0
M  V30 3778 H 361.863 -1.71109 1.88663 0
M  V30 3779 H 362.646 -0.858125 3.32402 0
M  V30 3780 N 365.091 -1.34144 -0.827227 0
M  V30 3781 C 366.021 -1.28005 -1.95287 0
M  V30 3782 C 367.002 -0.158321 -1.69362 0
M  V30 3783 O 368.187 -0.349987 -1.9102 0
M  V30 3784 C 365.317 -1.03036 -3.31664 0
M  V30 3785 C 364.271 -2.11628 -3.72019 0
M  V30 3786 C 363.597 -1.71854 -5.0633 0
M  V30 3787 C 364.897 -3.53417 -3.8457 0
M  V30 3788 H 366.591 -2.22187 -2.00682 0
M  V30 3789 H 364.137 -1.0696 -0.964135 0
M  V30 3790 H 366.09 -0.973863 -4.09993 0
M  V30 3791 H 364.814 -0.0529391 -3.26557 0
M  V30 3792 H 363.473 -2.16339 -2.95961 0
M  V30 3793 H 363.121 -0.727841 -4.97706 0
M  V30 3794 H 362.821 -2.44531 -5.34302 0
M  V30 3795 H 364.345 -1.67692 -5.87122 0
M  V30 3796 H 365.759 -3.51142 -4.5318 0
M  V30 3797 H 364.156 -4.24679 -4.2399 0
M  V30 3798 H 365.226 -3.91072 -2.86689 0
M  V30 3799 N 366.569 1.04691 -1.17803 0
M  V30 3800 C 367.815 1.78045 -0.970969 0
M  V30 3801 C 368.148 1.87686 0.498751 0
M  V30 3802 O 367.423 1.38035 1.37027 0
M  V30 3803 C 367.706 3.2166 -1.61884 0
M  V30 3804 C 367.559 3.20001 -3.161 0
M  V30 3805 C 368.878 4.1962 -1.3269 0
M  V30 3806 H 365.997 0.64633 -0.354155 0
M  V30 3807 H 368.639 1.22333 -1.45378 0
M  V30 3808 H 366.789 3.69232 -1.20831 0
M  V30 3809 H 368.461 2.80467 -3.66246 0
M  V30 3810 H 366.704 2.58203 -3.48588 0
M  V30 3811 H 367.375 4.21386 -3.56564 0
M  V30 3812 H 369.851 3.80567 -1.68249 0
M  V30 3813 H 368.727 5.18339 -1.80599 0
M  V30 3814 H 368.988 4.414 -0.248622 0
M  V30 3815 N 368.047 0.979072 1.23499 0
M  V30 3816 C 369.463 0.687475 1.44034 0
M  V30 3817 C 369.663 -0.746801 1.8715 0
M  V30 3818 O 368.719 -1.51939 2.0167 0
M  V30 3819 C 370.032 1.68127 2.49307 0
M  V30 3820 C 371.58 1.69516 2.63122 0
M  V30 3821 C 372.055 2.67723 3.71603 0
M  V30 3822 N 373.546 2.66233 3.79044 0
M  V30 3823 C 374.281 3.38891 4.62537 0
M  V30 3824 N 373.777 4.21103 5.50131 0
M  V30 3825 N 375.57 3.27661 4.56721 0
M  V30 3826 H 367.721 1.90559 0.938135 0
M  V30 3827 H 369.984 0.821051 0.473897 0
M  V30 3828 H 369.69 2.70693 2.2454 0
M  V30 3829 H 369.564 1.46306 3.4767 0
M  V30 3830 H 371.951 0.676561 2.8724 0
M  V30 3831 H 372.032 1.95404 1.65079 0
M  V30 3832 H 371.676 3.69724 3.48233 0
M  V30 3833 H 371.606 2.39111 4.69184 0
M  V30 3834 H 374.097 2.06568 3.16446 0
M  V30 3835 H 374.41 4.73403 6.10827 0
M  V30 3836 H 372.755 4.25195 5.49759 0
M  V30 3837 H 375.946 2.62887 3.87309 0
M  V30 3838 H 376.119 3.84547 5.21562 0
M  V30 3839 N 369.525 -1.3858 0.750561 0
M  V30 3840 C 370.936 -1.82927 0.373438 0
M  V30 3841 C 371.287 -1.62634 -1.09748 0
M  V30 3842 O 370.412 -1.12588 -1.84805 0
M  V30 3843 C 371.007 -3.32088 0.671029 0
M  V30 3844 C 369.566 -3.74795 0.34722 0
M  V30 3845 C 368.713 -2.61391 0.92575 0
M  V30 3846 H 371.664 -1.27351 0.946958 0
M  V30 3847 H 371.685 -3.80465 -0.0518269 0
M  V30 3848 H 371.197 -3.46826 1.74164 0
M  V30 3849 H 369.298 -3.65638 -0.716933 0
M  V30 3850 H 369.411 -4.71667 0.840656 0
M  V30 3851 H 367.775 -2.52265 0.351327 0
M  V30 3852 H 368.558 -2.78929 2.00133 0
M  V30 3853 N 371.003 -0.499398 -1.49478 0
M  V30 3854 C 372.249 0.0457576 -2.02748 0
M  V30 3855 C 372.582 1.36793 -1.37846 0
M  V30 3856 O 371.857 1.87596 -0.513601 0
M  V30 3857 C 372.14 0.199986 -3.59544 0
M  V30 3858 C 371.993 -1.1452 -4.34977 0
M  V30 3859 C 373.312 0.94137 -4.29914 0
M  V30 3860 H 370.431 0.0151552 -0.736844 0
M  V30 3861 H 373.073 -0.650498 -1.78518 0
M  V30 3862 H 371.223 0.793007 -3.8032 0
M  V30 3863 H 372.895 -1.77697 -4.25701 0
M  V30 3864 H 371.138 -1.73488 -3.97598 0
M  V30 3865 H 371.809 -0.990607 -5.43039 0
M  V30 3866 H 374.285 0.43844 -4.13784 0
M  V30 3867 H 373.161 1.01812 -5.39375 0
M  V30 3868 H 373.422 1.98471 -3.95046 0
M  V30 3869 N 372.481 1.55866 -0.233164 0
M  V30 3870 C 373.709 2.02998 0.399905 0
M  V30 3871 C 374.124 1.11274 1.52524 0
M  V30 3872 O 373.481 0.124528 1.82075 0
M  V30 3873 C 373.532 3.4958 0.920639 0
M  V30 3874 O 373.253 4.37808 -0.159834 0
M  V30 3875 C 374.754 4.12411 1.62578 0
M  V30 3876 H 371.974 0.664006 0.0966281 0
M  V30 3877 H 374.518 2.0143 -0.353013 0
M  V30 3878 H 372.673 3.51727 1.62379 0
M  V30 3879 H 373.087 5.23981 0.23337 0
M  V30 3880 H 374.561 5.16711 1.94201 0
M  V30 3881 H 375.038 3.5809 2.54299 0
M  V30 3882 H 375.644 4.14148 0.967553 0
M  V30 3883 N 373.959 -0.0401083 1.57549 0
M  V30 3884 C 374.892 -1.07689 2.01192 0
M  V30 3885 C 375.87 -1.358 0.894273 0
M  V30 3886 O 377.054 -1.48642 1.15921 0
M  V30 3887 C 374.181 -2.41418 2.3756 0
M  V30 3888 C 373.227 -2.29237 3.59656 0
M  V30 3889 S 374.06 -1.65628 5.09242 0
M  V30 3890 C 375.216 -3.0087 5.48843 0
M  V30 3891 H 375.449 -0.705108 2.88817 0
M  V30 3892 H 372.982 -0.249724 1.52367 0
M  V30 3893 H 374.94 -3.18329 2.59186 0
M  V30 3894 H 373.601 -2.75747 1.50407 0
M  V30 3895 H 372.794 -3.27932 3.82722 0
M  V30 3896 H 372.396 -1.60469 3.37825 0
M  V30 3897 H 374.688 -3.97201 5.48851 0
M  V30 3898 H 375.631 -2.82549 6.49286 0
M  V30 3899 H 376.039 -3.02934 4.76331 0
M  V30 3900 N 375.437 -1.54477 -0.31217 0
M  V30 3901 C 376.683 -1.73483 -1.0503 0
M  V30 3902 C 377.016 -0.513125 -1.87298 0
M  V30 3903 O 376.291 0.489864 -1.8823 0
M  V30 3904 C 376.574 -3.01723 -1.96558 0
M  V30 3905 C 376.427 -4.3417 -1.17545 0
M  V30 3906 C 377.746 -3.25772 -2.95907 0
M  V30 3907 H 374.865 -0.631222 -0.380432 0
M  V30 3908 H 377.507 -1.87184 -0.325932 0
M  V30 3909 H 375.657 -2.90174 -2.58324 0
M  V30 3910 H 377.329 -4.5762 -0.581513 0
M  V30 3911 H 375.572 -4.31159 -0.477925 0
M  V30 3912 H 376.243 -5.20143 -1.84811 0
M  V30 3913 H 378.719 -3.36857 -2.44267 0
M  V30 3914 H 377.595 -4.16838 -3.57123 0
M  V30 3915 H 377.856 -2.43537 -3.68974 0
M  V30 3916 N 376.915 0.57481 -1.46744 0
M  V30 3917 C 378.326 1.15695 -1.46532 0
M  V30 3918 C 378.677 1.95068 -0.210425 0
M  V30 3919 O 377.802 2.05241 0.685944 0
M  V30 3920 C 378.397 2.1048 -2.65487 0
M  V30 3921 C 376.956 2.64002 -2.68291 0
M  V30 3922 C 376.103 1.40026 -2.39349 0
M  V30 3923 H 379.054 0.362325 -1.54509 0
M  V30 3924 H 379.075 2.94074 -2.41455 0
M  V30 3925 H 378.587 1.52683 -3.56805 0
M  V30 3926 H 376.688 3.25646 -1.81067 0
M  V30 3927 H 376.801 3.06197 -3.68483 0
M  V30 3928 H 375.165 1.70106 -1.89568 0
M  V30 3929 H 375.948 0.840485 -3.32852 0
M  V30 3930 N 378.394 1.34581 0.820102 0
M  V30 3931 C 379.619 1.30333 1.61332 0
M  V30 3932 C 380.044 -0.119339 1.87721 0
M  V30 3933 O 379.402 -1.08197 1.45475 0
M  V30 3934 C 379.45 2.10258 2.92957 0
M  V30 3935 O 378.554 1.47404 3.85157 0
M  V30 3936 H 377.895 0.447488 0.490561 0
M  V30 3937 H 380.425 1.77425 1.01889 0
M  V30 3938 H 380.435 2.21718 3.42498 0
M  V30 3939 H 379.11 3.13693 2.73074 0
M  V30 3940 H 377.687 1.44703 3.43679 0
M  V30 3941 N 379.872 -1.04064 1.18357 0
M  V30 3942 C 381.118 -1.77528 0.980397 0
M  V30 3943 C 381.451 -1.87948 -0.48879 0
M  V30 3944 O 380.726 -1.3876 -1.36293 0
M  V30 3945 C 381.009 -3.20797 1.63588 0
M  V30 3946 C 380.862 -3.1832 3.17793 0
M  V30 3947 C 382.181 -4.18911 1.34914 0
M  V30 3948 H 379.3 -0.644443 0.357578 0
M  V30 3949 H 381.942 -1.2156 1.46024 0
M  V30 3950 H 380.092 -3.68586 1.22788 0
M  V30 3951 H 381.764 -2.78521 3.67728 0
M  V30 3952 H 380.007 -2.56351 3.49952 0
M  V30 3953 H 380.678 -4.19489 3.58794 0
M  V30 3954 H 383.154 -3.7967 1.70265 0
M  V30 3955 H 382.03 -5.17374 1.83346 0
M  V30 3956 H 382.291 -4.41262 0.272027 0
M  V30 3957 N 381.35 -0.985608 -1.22978 0
M  V30 3958 C 382.761 -0.693593 -1.73338 0
M  V30 3959 C 383.112 0.789935 -1.79595 0
M  V30 3960 O 382.237 1.61771 -1.43733 0
M  V30 3961 C 382.832 -1.25235 -3.14804 0
M  V30 3962 C 381.391 -1.00987 -3.626 0
M  V30 3963 C 380.538 -1.37695 -2.40698 0
M  V30 3964 H 383.489 -1.15884 -1.08428 0
M  V30 3965 H 383.51 -0.627329 -3.75293 0
M  V30 3966 H 383.022 -2.33209 -3.10218 0
M  V30 3967 H 381.123 0.0535565 -3.72562 0
M  V30 3968 H 381.236 -1.66812 -4.49122 0
M  V30 3969 H 379.6 -0.795459 -2.4196 0
M  V30 3970 H 380.383 -2.46657 -2.38779 0
M  V30 3971 N 382.828 1.3818 -0.7579 0
M  V30 3972 C 384.076 1.99624 -0.315361 0
M  V30 3973 C 384.397 1.60464 1.10799 0
M  V30 3974 O 383.667 0.863507 1.75842 0
M  V30 3975 H 382.247 0.73831 -0.113611 0
M  V30 3976 H 384.909 1.68878 -0.972952 0
M  V30 3977 H 384.005 3.09754 -0.381931 0
M  V30 3978 N 384.306 0.507319 1.49211 0
M  V30 3979 C 385.555 -0.0368315 2.01666 0
M  V30 3980 C 385.868 -1.37459 1.39156 0
M  V30 3981 O 387.074 -2.00579 1.82976 0
M  V30 3982 C 385.53 -0.116089 3.59713 0
M  V30 3983 C 385.138 1.2154 4.31198 0
M  V30 3984 C 386.882 -0.610268 4.2009 0
M  V30 3985 C 384.789 1.09796 5.81119 0
M  V30 3986 H 383.719 -0.0175376 0.753796 0
M  V30 3987 H 386.37 0.647691 1.71689 0
M  V30 3988 H 384.752 -0.8652 3.86433 0
M  V30 3989 H 385.926 1.9783 4.16173 0
M  V30 3990 H 384.241 1.64352 3.82593 0
M  V30 3991 H 386.838 -0.715742 5.29888 0
M  V30 3992 H 387.181 -1.61064 3.8388 0
M  V30 3993 H 387.714 0.0824916 3.97714 0
M  V30 3994 H 384.453 2.0728 6.21864 0
M  V30 3995 H 383.973 0.376058 5.9862 0
M  V30 3996 H 385.652 0.779281 6.4229 0
M  V30 3997 N 385.784 -1.5574 0.241426 0
M  V30 3998 C 387.195 -1.84842 -0.262755 0
M  V30 3999 C 387.546 -1.16317 -1.58003 0
M  V30 4000 O 386.671 -0.439653 -2.11887 0
M  V30 4001 C 387.266 -3.35332 -0.483523 0
M  V30 4002 C 385.825 -3.6468 -0.931977 0
M  V30 4003 C 384.972 -2.77299 -0.0061151 0
M  V30 4004 H 387.923 -1.51761 0.464129 0
M  V30 4005 H 387.944 -3.56615 -1.32688 0
M  V30 4006 H 387.456 -3.85178 0.47537 0
M  V30 4007 H 385.557 -3.20307 -1.90353 0
M  V30 4008 H 385.67 -4.72498 -0.792628 0
M  V30 4009 H 384.034 -2.49408 -0.516503 0
M  V30 4010 H 384.817 -3.2995 0.948052 0
M  V30 4011 N 387.262 0.0317525 -1.57568 0
M  V30 4012 C 388.51 0.721676 -1.88776 0
M  V30 4013 C 388.831 1.76039 -0.838772 0
M  V30 4014 O 388.101 1.95482 0.127935 0
M  V30 4015 H 386.681 0.269534 -0.696678 0
M  V30 4016 H 389.343 -0.00165879 -1.949 0
M  V30 4017 H 388.439 1.21293 -2.87566 0
M  V30 4018 N 388.74 1.54641 0.303973 0
M  V30 4019 C 390.151 1.64811 0.877163 0
M  V30 4020 C 390.502 0.554838 1.88191 0
M  V30 4021 O 389.627 -0.309033 2.14182 0
M  V30 4022 C 390.222 2.9876 1.59775 0
M  V30 4023 C 388.781 3.11061 2.11938 0
M  V30 4024 C 387.928 2.60479 0.951097 0
M  V30 4025 H 390.879 1.58493 0.0810486 0
M  V30 4026 H 390.9 2.90017 2.46314 0
M  V30 4027 H 390.412 3.7831 0.866226 0
M  V30 4028 H 388.513 2.36225 2.88146 0
M  V30 4029 H 388.626 4.17171 2.35595 0
M  V30 4030 H 386.99 2.16859 1.33583 0
M  V30 4031 H 387.773 3.42504 0.233581 0
M  V30 4032 N 390.218 -0.567019 1.47046 0
M  V30 4033 C 391.443 -1.3551 1.57009 0
M  V30 4034 C 391.868 -1.86841 0.217259 0
M  V30 4035 O 391.226 -1.62435 -0.805268 0
M  V30 4036 C 391.274 -2.50777 2.5912 0
M  V30 4037 O 390.378 -3.52706 2.13711 0
M  V30 4038 H 389.719 -0.402919 0.52778 0
M  V30 4039 H 392.249 -0.686241 1.92748 0
M  V30 4040 H 392.259 -2.97481 2.79229 0
M  V30 4041 H 390.934 -2.12771 3.57353 0
M  V30 4042 H 389.511 -3.12374 2.03659 0
M  V30 4043 N 391.696 -1.35014 -0.812953 0
M  V30 4044 C 392.921 -1.31187 -1.60639 0
M  V30 4045 C 393.346 0.109382 -1.87782 0
M  V30 4046 O 392.704 1.07424 -1.46047 0
M  V30 4047 C 392.752 -2.11809 -2.91838 0
M  V30 4048 O 391.856 -1.49444 -3.8437 0
M  V30 4049 H 391.197 -0.450084 -0.488181 0
M  V30 4050 H 393.727 -1.77963 -1.00947 0
M  V30 4051 H 393.737 -2.23531 -3.41318 0
M  V30 4052 H 392.412 -3.15137 -2.71407 0
M  V30 4053 H 390.989 -1.46524 -3.42907 0
M  V30 4054 N 393.175 1.03435 -1.18907 0
M  V30 4055 C 394.586 1.58195 -0.991523 0
M  V30 4056 C 394.937 1.90801 0.457081 0
M  V30 4057 O 394.062 1.70272 1.33553 0
M  V30 4058 C 394.657 2.87432 -1.79355 0
M  V30 4059 C 393.216 3.38785 -1.64017 0
M  V30 4060 C 392.363 2.12292 -1.78402 0
M  V30 4061 H 395.314 0.860299 -1.33359 0
M  V30 4062 H 395.335 3.58096 -1.28638 0
M  V30 4063 H 394.847 2.63669 -2.84781 0
M  V30 4064 H 392.948 3.67547 -0.611536 0
M  V30 4065 H 393.061 4.12186 -2.44212 0
M  V30 4066 H 391.425 2.23901 -1.2141 0
M  V30 4067 H 392.208 1.90977 -2.85277 0
M  V30 4068 N 394.653 0.992116 1.22453 0
M  V30 4069 C 395.585 0.500024 2.23679 0
M  V30 4070 C 396.598 -0.404463 1.57696 0
M  V30 4071 O 397.787 -0.206722 1.77299 0
M  V30 4072 C 394.887 -0.294711 3.37616 0
M  V30 4073 C 394.06 0.605723 4.33186 0
M  V30 4074 C 393.119 -0.13717 5.26021 0
M  V30 4075 O 392.145 0.477164 5.67196 0
M  V30 4076 N 393.347 -1.4197 5.62872 0
M  V30 4077 H 396.112 1.37045 2.66531 0
M  V30 4078 H 393.673 0.866741 1.36745 0
M  V30 4079 H 395.665 -0.800329 3.96707 0
M  V30 4080 H 394.235 -1.06623 2.93854 0
M  V30 4081 H 393.455 1.29202 3.72425 0
M  V30 4082 H 394.743 1.21896 4.93983 0
M  V30 4083 H 394.141 -1.94015 5.31389 0
M  V30 4084 H 392.698 -1.87052 6.24383 0
M  V30 4085 N 396.131 -1.37776 0.765217 0
M  V30 4086 C 397.542 -1.82521 0.392819 0
M  V30 4087 C 397.893 -1.63789 -1.08017 0
M  V30 4088 O 397.018 -1.14542 -1.83601 0
M  V30 4089 C 397.613 -3.31358 0.706214 0
M  V30 4090 C 396.172 -3.74406 0.386952 0
M  V30 4091 C 395.319 -2.60394 0.953422 0
M  V30 4092 H 398.27 -1.2634 0.960412 0
M  V30 4093 H 398.291 -3.80498 -0.0114706 0
M  V30 4094 H 397.803 -3.44959 1.77833 0
M  V30 4095 H 395.904 -3.66377 -0.678112 0
M  V30 4096 H 396.017 -4.70749 0.890636 0
M  V30 4097 H 394.381 -2.51878 0.378064 0
M  V30 4098 H 395.164 -2.76791 2.03081 0
M  V30 4099 N 397.609 -0.515225 -1.4894 0
M  V30 4100 C 398.855 0.0242508 -2.02785 0
M  V30 4101 C 399.188 1.35323 -1.39289 0
M  V30 4102 O 398.463 1.87041 -0.533469 0
M  V30 4103 C 398.746 0.16184 -3.59736 0
M  V30 4104 C 398.599 -1.19127 -4.33738 0
M  V30 4105 C 399.918 0.895719 -4.30888 0
M  V30 4106 H 397.037 0.00733914 -0.736963 0
M  V30 4107 H 399.679 -0.669395 -1.77818 0
M  V30 4108 H 397.829 0.752624 -3.8114 0
M  V30 4109 H 399.501 -1.82202 -4.23792 0
M  V30 4110 H 397.744 -1.77695 -3.95736 0
M  V30 4111 H 398.415 -1.04815 -5.41957 0
M  V30 4112 H 400.891 0.394528 -4.14225 0
M  V30 4113 H 399.767 0.960859 -5.40425 0
M  V30 4114 H 400.028 1.9427 -3.97129 0
M  V30 4115 N 399.087 1.5561 -0.249682 0
M  V30 4116 C 400.019 2.18834 0.681496 0
M  V30 4117 C 401.032 1.16546 1.1367 0
M  V30 4118 O 402.221 1.43397 1.06299 0
M  V30 4119 C 399.321 2.77992 1.9384 0
M  V30 4120 C 398.494 4.05725 1.63419 0
M  V30 4121 C 397.553 4.49174 2.74096 0
M  V30 4122 O 396.579 5.15492 2.41364 0
M  V30 4123 N 397.781 4.17191 4.03649 0
M  V30 4124 H 400.546 2.9937 0.140514 0
M  V30 4125 H 398.107 1.6175 -0.0697541 0
M  V30 4126 H 400.099 3.04015 2.67127 0
M  V30 4127 H 398.669 2.01596 2.38909 0
M  V30 4128 H 397.889 3.87261 0.736358 0
M  V30 4129 H 399.177 4.88999 1.40562 0
M  V30 4130 H 398.575 3.63955 4.33074 0
M  V30 4131 H 397.132 4.48043 4.73393 0
M  V30 4132 N 400.565 -0.0233959 1.57583 0
M  V30 4133 C 401.79 -0.728376 1.94189 0
M  V30 4134 C 402.215 -1.67793 0.850119 0
M  V30 4135 O 401.573 -1.80262 -0.19371 0
M  V30 4136 C 401.621 -1.45669 3.29868 0
M  V30 4137 O 400.725 -2.57013 3.22518 0
M  V30 4138 H 400.066 -0.195493 0.63457 0
M  V30 4139 H 402.596 0.0228214 2.04587 0
M  V30 4140 H 402.606 -1.82535 3.6489 0
M  V30 4141 H 401.281 -0.760314 4.08891 0
M  V30 4142 H 399.858 -2.22648 2.99136 0
M  V30 4143 N 402.043 -1.548 -0.295768 0
M  V30 4144 C 402.953 -1.89177 -1.38742 0
M  V30 4145 C 403.969 -0.786481 -1.55211 0
M  V30 4146 O 405.145 -1.08344 -1.69775 0
M  V30 4147 C 402.21 -2.13663 -2.73036 0
M  V30 4148 C 401.271 -3.37349 -2.65508 0
M  V30 4149 C 400.504 -3.60658 -3.93398 0
M  V30 4150 O 400.727 -2.86882 -4.93006 0
M  V30 4151 O 399.661 -4.54179 -3.94975 0
M  V30 4152 H 403.487 -2.82059 -1.12589 0
M  V30 4153 H 401.072 -1.41056 -0.492295 0
M  V30 4154 H 402.954 -2.3094 -3.52484 0
M  V30 4155 H 401.629 -1.23967 -2.99022 0
M  V30 4156 H 400.536 -3.25431 -1.84514 0
M  V30 4157 H 401.869 -4.27192 -2.44474 0
M  V30 4158 N 403.521 0.559213 -1.47345 0
M  V30 4159 C 404.484 1.64854 -1.59235 0
M  V30 4160 C 405.484 1.53851 -0.467607 0
M  V30 4161 O 406.674 1.58045 -0.732617 0
M  V30 4162 C 403.806 3.04388 -1.53496 0
M  V30 4163 H 404.999 1.55662 -2.56339 0
M  V30 4164 H 402.552 0.778973 -1.35505 0
M  V30 4165 H 403.287 3.19115 -0.577604 0
M  V30 4166 H 403.072 3.13783 -2.35123 0
M  V30 4167 H 404.562 3.83642 -1.6495 0
M  V30 4168 N 404.999 1.35443 0.805782 0
M  V30 4169 C 405.946 1.28431 1.91766 0
M  V30 4170 C 406.916 0.156102 1.65365 0
M  V30 4171 O 408.101 0.339936 1.87747 0
M  V30 4172 C 405.241 1.06301 3.2832 0
M  V30 4173 C 404.354 2.2805 3.66902 0
M  V30 4174 C 403.489 1.99064 4.92491 0
M  V30 4175 C 402.528 3.16863 5.23703 0
M  V30 4176 N 401.665 2.87647 6.40471 0
M  V30 4177 H 406.505 2.23511 1.97096 0
M  V30 4178 H 404.042 1.11105 0.964054 0
M  V30 4179 H 406 0.915012 4.07042 0
M  V30 4180 H 404.63 0.148822 3.22457 0
M  V30 4181 H 403.682 2.53711 2.83434 0
M  V30 4182 H 404.994 3.1601 3.85927 0
M  V30 4183 H 404.148 1.81099 5.7904 0
M  V30 4184 H 402.887 1.0839 4.75503 0
M  V30 4185 H 401.892 3.35404 4.35642 0
M  V30 4186 H 403.117 4.08339 5.4262 0
M  V30 4187 H 401.063 1.99568 6.24907 0
M  V30 4188 H 400.98 3.69141 6.59751 0
M  V30 4189 H 402.248 2.73226 7.30047 0
M  V30 4190 N 406.477 -1.02803 1.19454 0
M  V30 4191 C 407.41 -2.107 0.876396 0
M  V30 4192 C 408.388 -1.61741 -0.166897 0
M  V30 4193 O 409.572 -1.88451 -0.0430195 0
M  V30 4194 C 406.699 -3.37262 0.311758 0
M  V30 4195 C 405.745 -4.05093 1.33424 0
M  V30 4196 S 406.578 -4.50498 2.89503 0
M  V30 4197 C 407.734 -5.80277 2.34584 0
M  V30 4198 H 407.967 -2.37362 1.79016 0
M  V30 4199 H 405.5 -1.15755 1.02177 0
M  V30 4200 H 407.458 -4.10499 -0.00748752 0
M  V30 4201 H 406.119 -3.08693 -0.58032 0
M  V30 4202 H 405.312 -4.9611 0.888302 0
M  V30 4203 H 404.914 -3.3803 1.60037 0
M  V30 4204 H 407.206 -6.54873 1.73633 0
M  V30 4205 H 408.149 -6.29651 3.23952 0
M  V30 4206 H 408.557 -5.3599 1.77131 0
M  V30 4207 N 407.956 -0.998596 -1.21925 0
M  V30 4208 C 409.372 -0.710303 -1.42923 0
M  V30 4209 C 409.572 0.716933 -1.88314 0
M  V30 4210 O 408.628 1.48712 -2.04062 0
M  V30 4211 C 409.941 -1.72072 -2.466 0
M  V30 4212 C 411.489 -1.73681 -2.60392 0
M  V30 4213 C 411.964 -2.73601 -3.67296 0
M  V30 4214 N 413.455 -2.7223 -3.7476 0
M  V30 4215 C 414.19 -3.46206 -4.57087 0
M  V30 4216 N 413.686 -4.29802 -5.43362 0
M  V30 4217 N 415.479 -3.34886 -4.51451 0
M  V30 4218 H 407.63 -1.92028 -0.9077 0
M  V30 4219 H 409.893 -0.828487 -0.460775 0
M  V30 4220 H 409.599 -2.74231 -2.20206 0
M  V30 4221 H 409.473 -1.51818 -3.45299 0
M  V30 4222 H 411.86 -0.722173 -2.86127 0
M  V30 4223 H 411.941 -1.98005 -1.61949 0
M  V30 4224 H 411.585 -3.75217 -3.42307 0
M  V30 4225 H 411.515 -2.46545 -4.65321 0
M  V30 4226 H 414.006 -2.11576 -3.1312 0
M  V30 4227 H 414.319 -4.83061 -6.03218 0
M  V30 4228 H 412.664 -4.33887 -5.42925 0
M  V30 4229 H 415.855 -2.69015 -3.83078 0
M  V30 4230 H 416.028 -3.92796 -5.15379 0
M  V30 4231 N 409.434 1.37368 -0.772513 0
M  V30 4232 C 410.364 2.32856 -0.173304 0
M  V30 4233 C 411.345 1.55818 0.682262 0
M  V30 4234 O 412.53 1.84052 0.619566 0
M  V30 4235 C 409.66 3.40048 0.706007 0
M  V30 4236 C 408.614 4.27973 -0.0483144 0
M  V30 4237 C 407.94 5.26184 0.950491 0
M  V30 4238 C 409.24 5.07665 -1.22776 0
M  V30 4239 H 410.934 2.83217 -0.971002 0
M  V30 4240 H 408.48 1.3617 -0.468377 0
M  V30 4241 H 410.433 4.05827 1.13501 0
M  V30 4242 H 409.157 2.88214 1.53623 0
M  V30 4243 H 407.816 3.63726 -0.458107 0
M  V30 4244 H 407.464 4.7063 1.77529 0
M  V30 4245 H 407.164 5.85872 0.450314 0
M  V30 4246 H 408.688 5.94838 1.37842 0
M  V30 4247 H 410.102 5.66578 -0.875366 0
M  V30 4248 H 408.499 5.76681 -1.66007 0
M  V30 4249 H 409.569 4.40294 -2.03149 0
M  V30 4250 N 410.912 0.523116 1.48665 0
M  V30 4251 C 411.859 -0.243398 2.29513 0
M  V30 4252 C 412.829 -0.940139 1.36933 0
M  V30 4253 O 414.014 -0.942503 1.65896 0
M  V30 4254 C 411.154 -1.28855 3.20141 0
M  V30 4255 C 410.267 -0.60135 4.27794 0
M  V30 4256 C 409.402 -1.62884 5.05611 0
M  V30 4257 C 408.441 -0.924726 6.05075 0
M  V30 4258 N 407.578 -1.89744 6.75975 0
M  V30 4259 H 412.418 0.452234 2.94549 0
M  V30 4260 H 409.955 0.234858 1.45213 0
M  V30 4261 H 411.913 -1.90674 3.71079 0
M  V30 4262 H 410.543 -1.95266 2.57043 0
M  V30 4263 H 409.595 0.130623 3.80176 0
M  V30 4264 H 410.907 -0.0481585 4.98777 0
M  V30 4265 H 410.061 -2.32149 5.60528 0
M  V30 4266 H 408.8 -2.21592 4.34452 0
M  V30 4267 H 407.805 -0.217966 5.49368 0
M  V30 4268 H 409.03 -0.343851 6.78229 0
M  V30 4269 H 406.976 -2.47373 6.07571 0
M  V30 4270 H 406.893 -1.3955 7.43009 0
M  V30 4271 H 408.161 -2.58229 7.35485 0
M  V30 4272 N 412.39 -1.55475 0.257931 0
M  V30 4273 C 413.353 -2.20551 -0.623706 0
M  V30 4274 C 414.353 -1.17809 -1.09443 0
M  V30 4275 O 415.543 -1.42823 -0.997362 0
M  V30 4276 C 412.675 -2.85784 -1.8585 0
M  V30 4277 H 413.868 -2.99848 -0.0557743 0
M  V30 4278 H 411.421 -1.56298 0.0084422 0
M  V30 4279 H 412.156 -2.10453 -2.46739 0
M  V30 4280 H 411.941 -3.61057 -1.52907 0
M  V30 4281 H 413.431 -3.35553 -2.48584 0
M  V30 4282 N 413.868 0.0150385 -1.57593 0
M  V30 4283 C 414.831 0.995996 -2.06428 0
M  V30 4284 C 415.831 1.2818 -0.970903 0
M  V30 4285 O 417.021 1.22949 -1.23406 0
M  V30 4286 C 414.153 2.32506 -2.49307 0
M  V30 4287 H 415.346 0.573873 -2.94358 0
M  V30 4288 H 412.899 0.262186 -1.54085 0
M  V30 4289 H 413.634 2.79438 -1.64575 0
M  V30 4290 H 413.419 2.13087 -3.29145 0
M  V30 4291 H 414.909 3.02906 -2.87468 0
M  V30 4292 N 415.346 1.54954 0.287554 0
M  V30 4293 C 416.276 1.89839 1.35954 0
M  V30 4294 C 417.257 0.758675 1.52244 0
M  V30 4295 O 418.442 1.01557 1.65529 0
M  V30 4296 C 415.572 2.15753 2.72154 0
M  V30 4297 C 414.526 3.3159 2.70614 0
M  V30 4298 C 413.852 3.42952 4.10229 0
M  V30 4299 C 415.152 4.68359 2.31165 0
M  V30 4300 H 416.846 2.79625 1.07007 0
M  V30 4301 H 414.392 1.3454 0.513316 0
M  V30 4302 H 416.345 2.38743 3.47246 0
M  V30 4303 H 415.069 1.22752 3.02654 0
M  V30 4304 H 413.728 3.08545 1.97979 0
M  V30 4305 H 413.376 2.47443 4.37928 0
M  V30 4306 H 413.076 4.20826 4.10097 0
M  V30 4307 H 414.6 3.68218 4.87081 0
M  V30 4308 H 416.014 4.9099 2.95976 0
M  V30 4309 H 414.411 5.49044 2.42221 0
M  V30 4310 H 415.481 4.68165 1.26291 0
M  V30 4311 N 416.824 -0.551391 1.4764 0
M  V30 4312 C 418.052 -1.33357 1.58189 0
M  V30 4313 C 418.467 -1.87342 0.234199 0
M  V30 4314 O 417.824 -1.65301 -0.77343 0
M  V30 4315 C 417.875 -2.49942 2.61173 0
M  V30 4316 O 417.596 -1.98187 3.90709 0
M  V30 4317 C 419.097 -3.42072 2.8196 0
M  V30 4318 H 416.317 -0.40631 0.533998 0
M  V30 4319 H 418.861 -0.667367 1.93304 0
M  V30 4320 H 417.016 -3.12489 2.28975 0
M  V30 4321 H 417.43 -2.74342 4.47031 0
M  V30 4322 H 418.904 -4.20278 3.57869 0
M  V30 4323 H 419.381 -3.95978 1.89995 0
M  V30 4324 H 419.987 -2.85336 3.15378 0
M  V30 4325 N 418.302 -1.35869 -0.798587 0
M  V30 4326 C 419.234 -1.25305 -1.91915 0
M  V30 4327 C 420.247 -0.174548 -1.61862 0
M  V30 4328 O 421.436 -0.428499 -1.73281 0
M  V30 4329 C 418.536 -0.9086 -3.26493 0
M  V30 4330 C 417.709 -2.08711 -3.84394 0
M  V30 4331 C 416.768 -1.71717 -4.97393 0
M  V30 4332 O 415.794 -2.43692 -5.14396 0
M  V30 4333 N 416.996 -0.645473 -5.769 0
M  V30 4334 H 419.761 -2.21849 -2.01502 0
M  V30 4335 H 417.322 -1.29143 -0.976408 0
M  V30 4336 H 419.314 -0.642455 -3.99568 0
M  V30 4337 H 417.884 -0.0325815 -3.12583 0
M  V30 4338 H 417.104 -2.51659 -3.03416 0
M  V30 4339 H 418.392 -2.87468 -4.19809 0
M  V30 4340 H 417.79 -0.047648 -5.6568 0
M  V30 4341 H 416.347 -0.43913 -6.50319 0
M  V30 4342 N 419.78 1.02168 -1.19998 0
M  V30 4343 C 420.712 2.10705 -0.901994 0
M  V30 4344 C 421.725 1.6244 0.108216 0
M  V30 4345 O 422.914 1.78082 -0.12214 0
M  V30 4346 C 420.014 3.37291 -0.329834 0
M  V30 4347 C 419.187 4.14714 -1.39035 0
M  V30 4348 C 418.246 5.19606 -0.830432 0
M  V30 4349 O 417.272 5.48809 -1.50989 0
M  V30 4350 N 418.474 5.79366 0.362696 0
M  V30 4351 H 421.239 2.36856 -1.83628 0
M  V30 4352 H 418.8 1.18518 -1.10296 0
M  V30 4353 H 420.792 4.04657 0.0587633 0
M  V30 4354 H 419.362 3.0843 0.508891 0
M  V30 4355 H 418.582 3.42392 -1.9535 0
M  V30 4356 H 419.87 4.63226 -2.10474 0
M  V30 4357 H 419.268 5.57968 0.932081 0
M  V30 4358 H 417.825 6.48106 0.69299 0
M  V30 4359 N 421.258 1.00505 1.21394 0
M  V30 4360 C 422.208 0.536503 2.21598 0
M  V30 4361 C 423.192 -0.401914 1.55799 0
M  V30 4362 O 424.384 -0.226757 1.75541 0
M  V30 4363 C 421.513 -0.135446 3.43033 0
M  V30 4364 C 420.599 0.823992 4.16018 0
M  V30 4365 N 420.99 1.97683 4.6557 0
M  V30 4366 C 419.288 0.642387 4.4135 0
M  V30 4367 C 419.989 2.58003 5.21354 0
M  V30 4368 N 418.965 1.86162 5.1073 0
M  V30 4369 H 422.767 1.41557 2.57563 0
M  V30 4370 H 420.281 0.868878 1.37202 0
M  V30 4371 H 422.278 -0.488584 4.14027 0
M  V30 4372 H 420.938 -1.01049 3.08576 0
M  V30 4373 H 421.949 2.3572 4.61147 0
M  V30 4374 H 418.626 -0.185578 4.17087 0
M  V30 4375 H 420.016 3.555 5.70149 0
M  V30 4376 N 422.737 -1.36956 0.779787 0
M  V30 4377 C 424.148 -1.82094 0.412156 0
M  V30 4378 C 424.499 -1.64926 -1.06273 0
M  V30 4379 O 423.624 -1.16483 -1.82375 0
M  V30 4380 C 424.219 -3.3059 0.741319 0
M  V30 4381 C 422.778 -3.73974 0.426641 0
M  V30 4382 C 421.925 -2.59368 0.980987 0
M  V30 4383 H 424.876 -1.25314 0.973758 0
M  V30 4384 H 424.897 -3.80489 0.028887 0
M  V30 4385 H 424.409 -3.43054 1.81482 0
M  V30 4386 H 422.51 -3.67076 -0.639215 0
M  V30 4387 H 422.623 -4.69778 0.940515 0
M  V30 4388 H 420.987 -2.51463 0.404757 0
M  V30 4389 H 421.77 -2.74621 2.06005 0
M  V30 4390 N 424.215 -0.530993 -1.48385 0
M  V30 4391 C 425.626 -0.0907905 -1.86479 0
M  V30 4392 C 425.977 1.33213 -1.44044 0
M  V30 4393 O 425.102 1.99783 -0.831615 0
M  V30 4394 C 425.697 -0.157987 -3.38431 0
M  V30 4395 C 424.256 0.227026 -3.75715 0
M  V30 4396 C 423.403 -0.5173 -2.72432 0
M  V30 4397 H 426.354 -0.742186 -1.40276 0
M  V30 4398 H 426.375 0.630053 -3.75247 0
M  V30 4399 H 425.887 -1.19372 -3.69286 0
M  V30 4400 H 423.988 1.26486 -3.50474 0
M  V30 4401 H 424.101 -0.113288 -4.78966 0
M  V30 4402 H 422.465 0.0365527 -2.54674 0
M  V30 4403 H 423.248 -1.55368 -3.0613 0
M  V30 4404 N 425.693 1.55336 -0.266172 0
M  V30 4405 C 426.939 1.99692 0.353681 0
M  V30 4406 C 427.272 1.1543 1.56172 0
M  V30 4407 O 426.547 0.222218 1.93226 0
M  V30 4408 C 426.83 3.52316 0.74466 0
M  V30 4409 C 426.683 4.47337 -0.470101 0
M  V30 4410 C 428.002 4.10588 1.58447 0
M  V30 4411 H 425.121 0.725961 0.12708 0
M  V30 4412 H 427.763 1.86336 -0.371333 0
M  V30 4413 H 425.913 3.63829 1.36239 0
M  V30 4414 H 427.585 4.4778 -1.10864 0
M  V30 4415 H 425.828 4.19364 -1.10978 0
M  V30 4416 H 426.499 5.51788 -0.15291 0
M  V30 4417 H 428.975 4.02297 1.06286 0
M  V30 4418 H 427.851 5.17607 1.82686 0
M  V30 4419 H 428.112 3.60253 2.56262 0
M  V30 4420 N 427.171 -0.0066808 1.57599 0
M  V30 4421 C 428.399 -0.704087 1.94551 0
M  V30 4422 C 428.814 -1.67677 0.867746 0
M  V30 4423 O 428.171 -1.8185 -0.153925 0
M  V30 4424 C 428.222 -1.44177 3.31505 0
M  V30 4425 O 427.943 -0.508097 4.35144 0
M  V30 4426 C 429.444 -2.23429 3.82876 0
M  V30 4427 H 426.664 -0.196523 0.641576 0
M  V30 4428 H 429.208 0.042453 2.04456 0
M  V30 4429 H 427.363 -2.13999 3.22929 0
M  V30 4430 H 427.777 -1.02782 5.14331 0
M  V30 4431 H 429.251 -2.70552 4.8115 0
M  V30 4432 H 429.728 -3.05818 3.15233 0
M  V30 4433 H 430.334 -1.58636 3.94607 0
M  V30 4434 N 428.649 -1.55105 -0.279332 0
M  V30 4435 C 429.597 -1.88333 -1.36505 0
M  V30 4436 C 430.591 -0.759043 -1.51443 0
M  V30 4437 O 431.797 -0.943312 -1.53302 0
M  V30 4438 H 428.172 -0.59766 -0.456406 0
M  V30 4439 H 430.143 -2.79041 -1.05728 0
M  V30 4440 C 428.892 -2.16628 -2.7197 0
M  V30 4441 H 428.215 -3.02624 -2.61264 0
M  V30 4442 H 429.655 -2.43803 -3.46895 0
M  V30 4443 C 428.114 -0.971807 -3.22579 0
M  V30 4444 O 428.644 -0.203228 -4.01186 0
M  V30 4445 N 426.85 -0.771238 -2.80179 0
M  V30 4446 H 426.397 -1.39792 -2.1637 0
M  V30 4447 H 426.355 0.0263667 -3.14389 0
M  V30 4448 N 430.127 0.543554 -1.4793 0
M  V30 4449 C 431.375 1.29752 -1.54948 0
M  V30 4450 C 431.696 1.93764 -0.219242 0
M  V30 4451 O 430.966 1.80639 0.75805 0
M  V30 4452 H 429.546 0.481874 -0.570795 0
M  V30 4453 H 432.208 0.633636 -1.84312 0
M  V30 4454 H 431.304 2.08392 -2.32334 0
M  V30 4455 N 431.605 1.3629 0.791371 0
M  V30 4456 C 432.882 1.20962 1.53712 0
M  V30 4457 C 433.262 -0.205021 2.10102 0
M  V30 4458 O 432.61 -1.21042 1.93807 0
M  V30 4459 C 432.82 2.29002 2.63361 0
M  V30 4460 C 434.168 2.65572 3.31295 0
M  V30 4461 O 435.192 2.2803 2.73643 0
M  V30 4462 O 434.051 3.3018 4.35481 0
M  V30 4463 H 431.145 0.47086 0.679867 0
M  V30 4464 H 433.691 1.48016 0.830021 0
M  V30 4465 H 432.463 3.2382 2.19674 0
M  V30 4466 H 432.086 2.03303 3.41692 0
M  V30 4467 N 433.083 -1.0153 1.20538 0
M  V30 4468 C 434.311 -1.78746 1.04199 0
M  V30 4469 C 434.726 -1.84323 -0.408733 0
M  V30 4470 O 434.083 -1.29714 -1.28377 0
M  V30 4471 C 434.134 -3.23152 1.62035 0
M  V30 4472 O 433.855 -3.17918 3.0143 0
M  V30 4473 C 435.356 -4.16911 1.50666 0
M  V30 4474 H 432.576 -0.56208 0.366479 0
M  V30 4475 H 435.12 -1.27794 1.59653 0
M  V30 4476 H 433.275 -3.71248 1.10697 0
M  V30 4477 H 433.689 -4.08567 3.28897 0
M  V30 4478 H 435.163 -5.16072 1.95892 0
M  V30 4479 H 435.64 -4.36791 0.459363 0
M  V30 4480 H 436.246 -3.74698 2.01201 0
M  V30 4481 N 434.561 -1.01147 -1.20859 0
M  V30 4482 C 435.807 -0.698899 -1.90377 0
M  V30 4483 C 436.14 0.76904 -1.78324 0
M  V30 4484 O 435.415 1.55817 -1.16409 0
M  V30 4485 C 435.698 -1.12878 -3.41951 0
M  V30 4486 C 435.551 -2.65665 -3.62963 0
M  V30 4487 C 436.87 -0.696114 -4.3456 0
M  V30 4488 H 433.989 -0.255372 -0.691342 0
M  V30 4489 H 436.631 -1.25831 -1.42361 0
M  V30 4490 H 434.781 -0.652827 -3.82976 0
M  V30 4491 H 436.453 -3.21074 -3.31224 0
M  V30 4492 H 434.696 -3.06878 -3.06608 0
M  V30 4493 H 435.367 -2.90797 -4.69192 0
M  V30 4494 H 437.843 -1.10521 -4.01154 0
M  V30 4495 H 436.719 -1.025 -5.39245 0
M  V30 4496 H 436.98 0.402465 -4.40264 0
M  V30 4497 N 436.039 1.36541 -0.78704 0
M  V30 4498 C 436.986 2.30082 -0.181901 0
M  V30 4499 C 437.956 1.5186 0.672896 0
M  V30 4500 O 439.141 1.80374 0.622072 0
M  V30 4501 C 436.281 3.3835 0.679197 0
M  V30 4502 C 435.394 4.31565 -0.193882 0
M  V30 4503 C 434.529 5.26915 0.673364 0
M  V30 4504 C 433.568 6.11769 -0.201315 0
M  V30 4505 N 432.705 6.99315 0.624777 0
M  V30 4506 H 437.545 2.81248 -0.985064 0
M  V30 4507 H 435.082 1.38437 -0.497342 0
M  V30 4508 H 437.04 3.99767 1.19341 0
M  V30 4509 H 435.67 2.8851 1.44781 0
M  V30 4510 H 434.722 3.71323 -0.826044 0
M  V30 4511 H 436.034 4.91191 -0.867937 0
M  V30 4512 H 435.188 5.9361 1.25348 0
M  V30 4513 H 433.927 4.67737 1.38105 0
M  V30 4514 H 432.932 5.44039 -0.793849 0
M  V30 4515 H 434.157 6.73022 -0.906568 0
M  V30 4516 H 432.103 6.42648 1.3168 0
M  V30 4517 H 432.02 7.56 0.00835237 0
M  V30 4518 H 433.288 7.70382 1.18879 0
M  V30 4519 N 437.518 0.538854 1.48102 0
M  V30 4520 C 438.766 0.00798599 2.02098 0
M  V30 4521 C 439.087 -1.33922 1.41739 0
M  V30 4522 O 438.357 -1.86932 0.585934 0
M  V30 4523 H 436.937 -3.62179e-05 0.747 0
M  V30 4524 H 439.599 0.7047 1.81714 0
M  V30 4525 H 438.695 -0.0937672 3.11959 0
M  V30 4526 N 438.996 -1.55193 0.274407 0
M  V30 4527 C 439.946 -2.19184 -0.627882 0
M  V30 4528 C 440.93 -1.15625 -1.11892 0
M  V30 4529 O 442.122 -1.41441 -1.06411 0
M  V30 4530 C 439.251 -2.91591 -1.81189 0
M  V30 4531 C 438.337 -4.02438 -1.33807 0
M  V30 4532 N 438.728 -5.0246 -0.580349 0
M  V30 4533 C 437.026 -4.15496 -1.62109 0
M  V30 4534 C 437.727 -5.80756 -0.331344 0
M  V30 4535 N 436.703 -5.36038 -0.903556 0
M  V30 4536 H 440.505 -2.93871 -0.0411216 0
M  V30 4537 H 438.019 -1.62213 0.0779348 0
M  V30 4538 H 440.016 -3.35883 -2.46957 0
M  V30 4539 H 438.676 -2.18414 -2.40261 0
M  V30 4540 H 439.687 -5.17399 -0.227762 0
M  V30 4541 H 436.364 -3.53509 -2.22121 0
M  V30 4542 H 437.754 -6.71335 0.275454 0
M  V30 4543 N 440.474 -0.00167713 -1.576 0
M  V30 4544 C 441.722 0.681471 -1.90264 0
M  V30 4545 C 442.043 1.7422 -0.875924 0
M  V30 4546 O 441.313 1.95709 0.0864412 0
M  V30 4547 H 439.893 0.254696 -0.702239 0
M  V30 4548 H 442.555 -0.0429996 -1.94853 0
M  V30 4549 H 441.651 1.15166 -2.90075 0
M  V30 4550 N 441.952 1.55251 0.271103 0
M  V30 4551 C 443.177 1.80306 1.02491 0
M  V30 4552 C 443.602 0.575457 1.79081 0
M  V30 4553 O 442.96 -0.474987 1.74967 0
M  V30 4554 C 443.008 3.02832 1.95768 0
M  V30 4555 O 442.112 2.78051 3.04568 0
M  V30 4556 H 441.453 0.595896 0.292923 0
M  V30 4557 H 443.983 2.02397 0.299436 0
M  V30 4558 H 443.993 3.31616 2.37686 0
M  V30 4559 H 442.668 3.9183 1.39434 0
M  V30 4560 H 441.245 2.60369 2.66951 0
M  V30 4561 N 443.43 -0.535701 1.48216 0
M  V30 4562 C 444.678 -1.28928 1.55634 0
M  V30 4563 C 444.999 -1.93645 0.229514 0
M  V30 4564 O 444.269 -1.81038 -0.74846 0
M  V30 4565 H 442.849 -0.47884 0.573342 0
M  V30 4566 H 445.511 -0.623853 1.84646 0
M  V30 4567 H 444.607 -2.07157 2.33436 0
M  V30 4568 N 444.908 -1.36708 -0.784132 0
M  V30 4569 C 445.838 -1.34153 -1.91116 0
M  V30 4570 C 446.819 -0.212121 -1.68772 0
M  V30 4571 O 448.004 -0.410581 -1.8981 0
M  V30 4572 C 445.134 -1.13535 -3.28218 0
M  V30 4573 C 444.088 -2.23356 -3.65097 0
M  V30 4574 C 443.414 -1.87875 -5.00607 0
M  V30 4575 C 444.714 -3.65473 -3.73131 0
M  V30 4576 H 446.408 -2.28459 -1.93512 0
M  V30 4577 H 443.954 -1.09973 -0.929618 0
M  V30 4578 H 445.907 -1.10381 -4.06687 0
M  V30 4579 H 444.631 -0.156804 -3.26223 0
M  V30 4580 H 443.29 -2.25645 -2.88929 0
M  V30 4581 H 442.938 -0.885814 -4.95139 0
M  V30 4582 H 442.638 -2.61406 -5.26252 0
M  V30 4583 H 444.162 -1.86286 -5.81489 0
M  V30 4584 H 445.576 -3.65382 -4.41779 0
M  V30 4585 H 443.973 -4.37953 -4.10265 0
M  V30 4586 H 445.043 -3.99995 -2.74102 0
M  V30 4587 N 446.386 1.0089 -1.21074 0
M  V30 4588 C 447.632 1.74866 -1.02712 0
M  V30 4589 C 447.965 1.89178 0.438787 0
M  V30 4590 O 447.24 1.42325 1.32567 0
M  V30 4591 C 447.523 3.16347 -1.72036 0
M  V30 4592 C 447.376 3.09782 -3.26121 0
M  V30 4593 C 448.695 4.15187 -1.45973 0
M  V30 4594 H 445.814 0.634736 -0.374539 0
M  V30 4595 H 448.456 1.17646 -1.49196 0
M  V30 4596 H 446.606 3.65201 -1.32517 0
M  V30 4597 H 448.278 2.68673 -3.74983 0
M  V30 4598 H 446.521 2.46982 -3.56626 0
M  V30 4599 H 447.192 4.09829 -3.6979 0
M  V30 4600 H 449.668 3.75022 -1.80272 0
M  V30 4601 H 448.544 5.12331 -1.96999 0
M  V30 4602 H 448.805 4.40386 -0.388924 0
M  V30 4603 N 447.864 1.01787 1.20321 0
M  V30 4604 C 449.28 0.732951 1.41774 0
M  V30 4605 C 449.48 -0.686883 1.89431 0
M  V30 4606 O 448.536 -1.45446 2.06402 0
M  V30 4607 C 449.849 1.75973 2.43832 0
M  V30 4608 C 451.397 1.77802 2.57596 0
M  V30 4609 C 451.872 2.7941 3.62897 0
M  V30 4610 N 453.363 2.78157 3.70382 0
M  V30 4611 C 454.098 3.53434 4.51521 0
M  V30 4612 N 453.594 4.38392 5.36455 0
M  V30 4613 N 455.387 3.42026 4.46066 0
M  V30 4614 H 447.538 1.93447 0.877035 0
M  V30 4615 H 449.801 0.835712 0.447536 0
M  V30 4616 H 449.507 2.77699 2.15815 0
M  V30 4617 H 449.381 1.57292 3.4284 0
M  V30 4618 H 451.768 0.767602 2.84942 0
M  V30 4619 H 451.849 2.00557 1.58779 0
M  V30 4620 H 451.493 3.80616 3.36295 0
M  V30 4621 H 451.423 2.53916 4.61339 0
M  V30 4622 H 453.914 2.16531 3.09714 0
M  V30 4623 H 454.227 4.92596 5.95457 0
M  V30 4624 H 452.572 4.4247 5.35953 0
M  V30 4625 H 455.763 2.75075 3.78749 0
M  V30 4626 H 455.936 4.00946 5.09064 0
M  V30 4627 N 449.342 -1.36122 0.79427 0
M  V30 4628 C 450.57 -2.03362 0.380989 0
M  V30 4629 C 450.985 -1.59881 -1.00416 0
M  V30 4630 O 450.342 -0.790515 -1.6449 0
M  V30 4631 C 450.393 -3.58804 0.440649 0
M  V30 4632 O 450.114 -4.007 1.77118 0
M  V30 4633 C 451.615 -4.43296 0.0186117 0
M  V30 4634 H 448.835 -0.652526 0.156367 0
M  V30 4635 H 451.379 -1.73998 1.07447 0
M  V30 4636 H 449.534 -3.8686 -0.204458 0
M  V30 4637 H 449.948 -4.95309 1.72538 0
M  V30 4638 H 451.422 -5.51887 0.111488 0
M  V30 4639 H 451.899 -4.2684 -1.03461 0
M  V30 4640 H 452.505 -4.20512 0.636395 0
M  V30 4641 N 450.82 -0.546701 -1.47814 0
M  V30 4642 C 451.752 0.244196 -2.27895 0
M  V30 4643 C 452.765 0.88911 -1.36377 0
M  V30 4644 O 453.954 0.764733 -1.61289 0
M  V30 4645 C 451.054 1.36252 -3.10304 0
M  V30 4646 C 450.227 0.816382 -4.29714 0
M  V30 4647 C 449.286 1.81789 -4.93801 0
M  V30 4648 O 448.312 1.36818 -5.52512 0
M  V30 4649 N 449.514 3.15085 -4.87547 0
M  V30 4650 H 452.279 -0.442694 -2.96412 0
M  V30 4651 H 449.84 -0.382095 -1.57327 0
M  V30 4652 H 451.832 2.03102 -3.50045 0
M  V30 4653 H 450.402 1.95281 -2.44099 0
M  V30 4654 H 449.622 -0.0285981 -3.9419 0
M  V30 4655 H 450.91 0.430668 -5.06974 0
M  V30 4656 H 450.308 3.54275 -4.41028 0
M  V30 4657 H 448.865 3.77522 -5.31339 0
M  V30 4658 N 452.299 1.55045 -0.282633 0
M  V30 4659 C 453.524 2.04628 0.337977 0
M  V30 4660 C 453.949 1.15937 1.48123 0
M  V30 4661 O 453.307 0.159532 1.80597 0
M  V30 4662 C 453.355 3.51854 0.78936 0
M  V30 4663 O 452.459 3.66236 1.89592 0
M  V30 4664 H 451.8 0.660434 0.0687261 0
M  V30 4665 H 454.33 2.00261 -0.419124 0
M  V30 4666 H 454.34 3.93361 1.08311 0
M  V30 4667 H 453.015 4.15873 -0.0470419 0
M  V30 4668 H 451.592 3.36633 1.60413 0
M  V30 4669 N 453.777 0.010035 1.57597 0
M  V30 4670 C 454.687 -0.994226 2.12491 0
M  V30 4671 C 455.703 -1.37013 1.07254 0
M  V30 4672 O 456.879 -1.45542 1.3921 0
M  V30 4673 C 453.944 -2.2642 2.62555 0
M  V30 4674 C 453.005 -1.95049 3.82432 0
M  V30 4675 C 452.238 -3.15991 4.30099 0
M  V30 4676 O 452.461 -4.28015 3.7704 0
M  V30 4677 O 451.395 -2.99403 5.22151 0
M  V30 4678 H 455.221 -0.557549 2.98538 0
M  V30 4679 H 452.806 -0.209413 1.47925 0
M  V30 4680 H 454.688 -3.01009 2.9491 0
M  V30 4681 H 453.363 -2.69306 1.796 0
M  V30 4682 H 452.27 -1.17904 3.55034 0
M  V30 4683 H 453.603 -1.56992 4.66491 0
M  V30 4684 N 455.255 -1.55392 -0.262866 0
M  V30 4685 C 456.165 -1.92077 -1.34698 0
M  V30 4686 C 457.181 -0.819227 -1.53508 0
M  V30 4687 O 458.357 -1.11921 -1.67439 0
M  V30 4688 C 455.422 -2.19407 -2.68443 0
M  V30 4689 C 454.483 -3.42905 -2.58292 0
M  V30 4690 C 453.716 -3.68921 -3.85659 0
M  V30 4691 O 453.939 -2.97275 -4.8681 0
M  V30 4692 O 452.873 -4.62455 -3.85252 0
M  V30 4693 H 456.699 -2.84384 -1.06581 0
M  V30 4694 H 454.284 -1.42069 -0.462264 0
M  V30 4695 H 456.166 -2.38365 -3.47506 0
M  V30 4696 H 454.841 -1.30282 -2.96325 0
M  V30 4697 H 453.748 -3.29272 -1.7757 0
M  V30 4698 H 455.081 -4.32282 -2.35358 0
M  V30 4699 N 456.733 0.527833 -1.48498 0
M  V30 4700 C 457.958 1.313 -1.60546 0
M  V30 4701 C 458.383 1.86199 -0.26672 0
M  V30 4702 O 457.741 1.64513 0.761918 0
M  V30 4703 C 457.789 2.43818 -2.65678 0
M  V30 4704 O 456.893 3.46916 -2.22987 0
M  V30 4705 H 456.234 0.388784 -0.538277 0
M  V30 4706 H 458.764 0.634896 -1.945 0
M  V30 4707 H 458.774 2.89973 -2.87018 0
M  V30 4708 H 457.449 2.03222 -3.62869 0
M  V30 4709 H 456.026 3.06864 -2.11869 0
M  V30 4710 N 458.211 1.37122 0.776871 0
M  V30 4711 C 459.627 1.1781 1.07671 0
M  V30 4712 C 459.827 0.0107454 2.01497 0
M  V30 4713 O 458.883 -0.650756 2.4397 0
M  V30 4714 C 460.196 2.49451 1.67913 0
M  V30 4715 C 461.744 2.55927 1.80195 0
M  V30 4716 C 462.219 3.87686 2.43851 0
M  V30 4717 N 463.71 3.891 2.51307 0
M  V30 4718 C 464.445 4.87797 3.014 0
M  V30 4719 N 463.941 5.96888 3.51705 0
M  V30 4720 N 465.734 4.75205 3.00227 0
M  V30 4721 H 457.885 2.11843 0.153778 0
M  V30 4722 H 460.148 0.938927 0.130844 0
M  V30 4723 H 459.854 3.35207 1.06439 0
M  V30 4724 H 459.728 2.66169 2.67271 0
M  V30 4725 H 462.115 1.70582 2.40803 0
M  V30 4726 H 462.196 2.43097 0.796069 0
M  V30 4727 H 461.84 4.73444 1.83884 0
M  V30 4728 H 461.77 3.97817 3.45035 0
M  V30 4729 H 464.261 3.10293 2.157 0
M  V30 4730 H 464.574 6.68155 3.88316 0
M  V30 4731 H 462.919 6.0054 3.49824 0
M  V30 4732 H 466.11 3.89103 2.60224 0
M  V30 4733 H 466.283 5.52279 3.38957 0
M  V30 4734 N 459.689 -1.00246 1.21608 0
M  V30 4735 C 461.1 -1.55511 1.03312 0
M  V30 4736 C 461.451 -1.91946 -0.406332 0
M  V30 4737 O 460.576 -1.73753 -1.28992 0
M  V30 4738 C 461.171 -2.82576 1.86913 0
M  V30 4739 C 459.73 -3.34318 1.72941 0
M  V30 4740 C 458.877 -2.07487 1.83968 0
M  V30 4741 H 461.828 -0.824638 1.35593 0
M  V30 4742 H 461.849 -3.54559 1.38087 0
M  V30 4743 H 461.361 -2.56026 2.91672 0
M  V30 4744 H 459.462 -3.65797 0.70877 0
M  V30 4745 H 459.575 -4.05566 2.55055 0
M  V30 4746 H 457.939 -2.20603 1.27304 0
M  V30 4747 H 458.722 -1.83346 2.9024 0
M  V30 4748 N 461.167 -1.02423 -1.1978 0
M  V30 4749 C 462.099 -0.559152 -2.22275 0
M  V30 4750 C 463.112 0.36251 -1.58713 0
M  V30 4751 O 464.301 0.159641 -1.77785 0
M  V30 4752 C 461.401 0.205094 -3.38279 0
M  V30 4753 C 460.574 -0.720361 -4.31427 0
M  V30 4754 C 459.633 -0.00234368 -5.262 0
M  V30 4755 O 458.659 -0.627378 -5.65732 0
M  V30 4756 N 459.861 1.26996 -5.66438 0
M  V30 4757 H 462.626 -1.44064 -2.62804 0
M  V30 4758 H 460.187 -0.902692 -1.34399 0
M  V30 4759 H 462.179 0.694868 -3.9869 0
M  V30 4760 H 460.749 0.987947 -2.96578 0
M  V30 4761 H 459.969 -1.39031 -3.68869 0
M  V30 4762 H 461.257 -1.3495 -4.90577 0
M  V30 4763 H 460.655 1.79858 -5.36347 0
M  V30 4764 H 459.212 1.70432 -6.29123 0
M  V30 4765 N 462.645 1.35699 -0.801477 0
M  V30 4766 C 463.87 2.03687 -0.390678 0
M  V30 4767 C 464.295 1.60015 0.988778 0
M  V30 4768 O 463.653 0.774357 1.63931 0
M  V30 4769 C 463.701 3.57439 -0.476404 0
M  V30 4770 O 462.805 4.09208 0.512106 0
M  V30 4771 H 462.146 0.64344 -0.163956 0
M  V30 4772 H 464.676 1.73403 -1.08594 0
M  V30 4773 H 464.686 4.06544 -0.344357 0
M  V30 4774 H 463.361 3.88576 -1.48262 0
M  V30 4775 H 461.938 3.7134 0.340721 0
M  V30 4776 N 464.123 0.554532 1.47522 0
M  V30 4777 C 465.053 -0.182974 2.32782 0
M  V30 4778 C 466.034 -0.911377 1.43624 0
M  V30 4779 O 467.219 -0.892366 1.72483 0
M  V30 4780 C 464.349 -1.21513 3.25349 0
M  V30 4781 C 463.303 -0.603355 4.23726 0
M  V30 4782 C 462.629 -1.73995 5.05598 0
M  V30 4783 C 463.929 0.441121 5.20434 0
M  V30 4784 H 465.623 0.52882 2.94693 0
M  V30 4785 H 463.169 0.255759 1.41711 0
M  V30 4786 H 465.122 -1.73922 3.83835 0
M  V30 4787 H 463.846 -1.95683 2.61487 0
M  V30 4788 H 462.505 -0.10059 3.66462 0
M  V30 4789 H 462.153 -2.47063 4.38143 0
M  V30 4790 H 461.853 -1.3364 5.72201 0
M  V30 4791 H 463.377 -2.26735 5.66942 0
M  V30 4792 H 464.791 0.00319931 5.733 0
M  V30 4793 H 463.188 0.763402 5.95224 0
M  V30 4794 H 464.258 1.33799 4.66075 0
M  V30 4795 N 465.601 -1.54893 0.290851 0
M  V30 4796 C 466.533 -2.20564 -0.623236 0
M  V30 4797 C 467.546 -1.19519 -1.1054 0
M  V30 4798 O 468.735 -1.46165 -1.02459 0
M  V30 4799 C 465.835 -2.83033 -1.86401 0
M  V30 4800 C 465.008 -4.09916 -1.52604 0
M  V30 4801 C 464.067 -4.56284 -2.62091 0
M  V30 4802 O 463.093 -5.2171 -2.27612 0
M  V30 4803 N 464.295 -4.27746 -3.92446 0
M  V30 4804 H 467.06 -2.99638 -0.0610915 0
M  V30 4805 H 464.621 -1.61508 0.112615 0
M  V30 4806 H 466.613 -3.1099 -2.58973 0
M  V30 4807 H 465.183 -2.0786 -2.33481 0
M  V30 4808 H 464.403 -3.89078 -0.633424 0
M  V30 4809 H 465.691 -4.92554 -1.27547 0
M  V30 4810 H 465.089 -3.7531 -4.23272 0
M  V30 4811 H 463.646 -4.60437 -4.61347 0
M  V30 4812 N 467.08 -0.0183926 -1.57589 0
M  V30 4813 C 468.012 0.995557 -2.06449 0
M  V30 4814 C 469.025 1.29556 -0.985849 0
M  V30 4815 O 470.214 1.2621 -1.26227 0
M  V30 4816 C 467.314 2.32572 -2.46502 0
M  V30 4817 C 466.487 2.21245 -3.77319 0
M  V30 4818 C 465.546 3.37104 -4.04039 0
M  V30 4819 O 464.572 3.14468 -4.74445 0
M  V30 4820 N 465.774 4.60553 -3.53372 0
M  V30 4821 H 468.539 0.578746 -2.94059 0
M  V30 4822 H 466.1 0.168603 -1.6102 0
M  V30 4823 H 468.092 3.08887 -2.61478 0
M  V30 4824 H 466.662 2.65931 -1.64315 0
M  V30 4825 H 465.882 1.29723 -3.72244 0
M  V30 4826 H 467.17 2.10868 -4.63047 0
M  V30 4827 H 466.568 4.81839 -2.96391 0
M  V30 4828 H 465.125 5.34072 -3.73644 0
M  V30 4829 N 468.558 1.5553 0.254621 0
M  V30 4830 C 469.969 1.67518 0.824286 0
M  V30 4831 C 470.32 0.614429 1.86331 0
M  V30 4832 O 469.445 -0.240736 2.15057 0
M  V30 4833 C 470.04 3.03692 1.50189 0
M  V30 4834 C 468.599 3.17646 2.01935 0
M  V30 4835 C 467.746 2.63373 0.867746 0
M  V30 4836 H 470.697 1.58671 0.0305843 0
M  V30 4837 H 470.718 2.97706 2.36962 0
M  V30 4838 H 470.23 3.80874 0.745431 0
M  V30 4839 H 468.331 2.45273 2.80485 0
M  V30 4840 H 468.444 4.24455 2.22204 0
M  V30 4841 H 466.808 2.20999 1.26616 0
M  V30 4842 H 467.591 3.43074 0.124498 0
M  V30 4843 N 470.036 -0.519951 1.48776 0
M  V30 4844 C 470.999 -1.60574 1.6355 0
M  V30 4845 C 471.999 -1.52557 0.508234 0
M  V30 4846 O 473.189 -1.56047 0.774262 0
M  V30 4847 C 470.321 -3.00211 1.61512 0
M  V30 4848 H 471.514 -1.4881 2.60376 0
M  V30 4849 H 469.067 -0.742772 1.37523 0
M  V30 4850 H 469.802 -3.17471 0.662009 0
M  V30 4851 H 469.587 -3.07439 2.43359 0
M  V30 4852 H 471.077 -3.79134 1.75064 0
M  V30 4853 N 471.514 -1.37532 -0.769588 0
M  V30 4854 C 472.742 -1.36059 -1.55871 0
M  V30 4855 C 473.157 0.053544 -1.88724 0
M  V30 4856 O 472.514 1.01591 -1.5161 0
M  V30 4857 C 472.565 -2.20107 -2.86767 0
M  V30 4858 O 472.286 -3.56009 -2.55321 0
M  V30 4859 C 473.787 -2.26636 -3.80987 0
M  V30 4860 H 471.007 -0.465967 -0.482821 0
M  V30 4861 H 473.551 -1.80901 -0.953686 0
M  V30 4862 H 471.706 -1.78768 -3.43687 0
M  V30 4863 H 472.12 -4.0009 -3.39158 0
M  V30 4864 H 473.594 -2.89763 -4.69831 0
M  V30 4865 H 474.071 -1.2754 -4.20274 0
M  V30 4866 H 474.677 -2.68296 -3.29996 0
M  V30 4867 N 472.992 0.995999 -1.22138 0
M  V30 4868 C 474.217 1.77601 -1.0711 0
M  V30 4869 C 474.642 1.84339 0.374264 0
M  V30 4870 O 474 1.29359 1.27028 0
M  V30 4871 C 474.048 3.18897 -1.68336 0
M  V30 4872 O 473.152 4.01663 -0.934928 0
M  V30 4873 H 472.493 0.547011 -0.376397 0
M  V30 4874 H 475.023 1.25137 -1.6187 0
M  V30 4875 H 475.033 3.69539 -1.72931 0
M  V30 4876 H 473.708 3.13308 -2.73516 0
M  V30 4877 H 472.285 3.60204 -0.964751 0
M  V30 4878 N 474.47 1.03057 1.19235 0
M  V30 4879 C 475.698 0.747697 1.92917 0
M  V30 4880 C 476.113 -0.69372 1.75593 0
M  V30 4881 O 475.47 -1.47191 1.07894 0
M  V30 4882 C 475.521 1.09159 3.44625 0
M  V30 4883 O 475.242 2.47641 3.61394 0
M  V30 4884 C 476.743 0.831763 4.35427 0
M  V30 4885 H 473.963 0.273453 0.612751 0
M  V30 4886 H 476.507 1.37552 1.51327 0
M  V30 4887 H 474.662 0.508919 3.84043 0
M  V30 4888 H 475.076 2.60499 4.55237 0
M  V30 4889 H 476.55 1.12233 5.4047 0
M  V30 4890 H 477.027 -0.233769 4.38577 0
M  V30 4891 H 477.633 1.39725 4.01693 0
M  V30 4892 N 475.948 -1.35272 0.808662 0
M  V30 4893 C 477.176 -2.02946 0.402537 0
M  V30 4894 C 477.591 -1.60937 -0.987147 0
M  V30 4895 O 476.948 -0.807917 -1.63643 0
M  V30 4896 C 476.999 -3.58317 0.47868 0
M  V30 4897 O 476.72 -3.98799 1.81358 0
M  V30 4898 C 478.221 -4.43251 0.0656281 0
M  V30 4899 H 475.441 -0.650831 0.163279 0
M  V30 4900 H 477.985 -1.72849 1.09286 0
M  V30 4901 H 476.14 -3.87055 -0.163415 0
M  V30 4902 H 476.554 -4.93451 1.77781 0
M  V30 4903 H 478.028 -5.51738 0.170017 0
M  V30 4904 H 478.505 -4.27913 -0.989278 0
M  V30 4905 H 479.111 -4.19813 0.68096 0
M  V30 4906 N 477.426 -0.562348 -1.47226 0
M  V30 4907 C 478.336 0.185466 -2.33866 0
M  V30 4908 C 479.352 0.906713 -1.48508 0
M  V30 4909 O 480.528 0.874458 -1.81425 0
M  V30 4910 C 477.593 1.19904 -3.25306 0
M  V30 4911 C 476.654 0.484669 -4.26555 0
M  V30 4912 C 475.887 1.44996 -5.13626 0
M  V30 4913 O 476.11 2.68515 -5.03245 0
M  V30 4914 O 475.044 0.971642 -5.94006 0
M  V30 4915 H 478.87 -0.525361 -2.99121 0
M  V30 4916 H 476.455 -0.322916 -1.45868 0
M  V30 4917 H 478.337 1.78399 -3.81774 0
M  V30 4918 H 477.012 1.8917 -2.62672 0
M  V30 4919 H 475.919 -0.141605 -3.73832 0
M  V30 4920 H 477.252 -0.166634 -4.91918 0
M  V30 4921 N 478.904 1.54736 -0.299062 0
M  V30 4922 C 480.132 2.04512 0.313447 0
M  V30 4923 C 480.547 1.17643 1.47667 0
M  V30 4924 O 479.904 0.20164 1.81383 0
M  V30 4925 C 479.955 3.53171 0.771542 0
M  V30 4926 O 479.676 4.36736 -0.345379 0
M  V30 4927 C 481.177 4.18936 1.4494 0
M  V30 4928 H 478.397 0.667507 0.0683784 0
M  V30 4929 H 480.941 1.99752 -0.438129 0
M  V30 4930 H 479.096 3.58298 1.47314 0
M  V30 4931 H 479.51 5.24499 0.0109219 0
M  V30 4932 H 480.984 5.24482 1.72111 0
M  V30 4933 H 481.461 3.68554 2.38883 0
M  V30 4934 H 482.067 4.17879 0.791028 0
M  V30 4935 N 480.382 0.0267497 1.57577 0
M  V30 4936 C 481.793 -0.512413 1.79531 0
M  V30 4937 C 482.144 -1.72391 0.936791 0
M  V30 4938 O 481.269 -2.15903 0.146543 0
M  V30 4939 C 481.864 -0.936378 3.25603 0
M  V30 4940 C 480.423 -1.42067 3.4856 0
M  V30 4941 C 479.57 -0.384278 2.74624 0
M  V30 4942 H 482.521 0.252797 1.56674 0
M  V30 4943 H 482.542 -1.80088 3.35184 0
M  V30 4944 H 482.054 -0.0544332 3.88062 0
M  V30 4945 H 480.155 -2.32262 2.9135 0
M  V30 4946 H 480.268 -1.42968 4.57271 0
M  V30 4947 H 478.632 -0.851855 2.40032 0
M  V30 4948 H 479.415 0.489159 3.39797 0
M  V30 4949 N 481.861 -1.55662 -0.24637 0
M  V30 4950 C 482.824 -1.89558 -1.28842 0
M  V30 4951 C 483.824 -0.772082 -1.41052 0
M  V30 4952 O 485.014 -1.04007 -1.39743 0
M  V30 4953 C 482.146 -2.12449 -2.66605 0
M  V30 4954 H 483.339 -2.82735 -1.00004 0
M  V30 4955 H 480.892 -1.48562 -0.485684 0
M  V30 4956 H 481.627 -1.21742 -3.00582 0
M  V30 4957 H 481.412 -2.94273 -2.59125 0
M  V30 4958 H 482.902 -2.39854 -3.41847 0
M  V30 4959 N 483.339 0.512053 -1.4905 0
M  V30 4960 C 484.564 1.2959 -1.6193 0
M  V30 4961 C 484.989 1.85906 -0.286454 0
M  V30 4962 O 484.347 1.65312 0.744426 0
M  V30 4963 C 484.395 2.40987 -2.68249 0
M  V30 4964 O 483.499 3.44531 -2.26654 0
M  V30 4965 H 482.84 0.383053 -0.542371 0
M  V30 4966 H 485.37 0.614231 -1.95162 0
M  V30 4967 H 485.38 2.86913 -2.90078 0
M  V30 4968 H 484.055 1.99361 -3.65004 0
M  V30 4969 H 482.632 3.046 -2.15112 0
M  V30 4970 N 484.817 1.37938 0.762283 0
M  V30 4971 C 486.228 1.30094 1.33912 0
M  V30 4972 C 486.579 -0.0472026 1.96143 0
M  V30 4973 O 485.704 -0.94917 1.94473 0
M  V30 4974 C 486.299 2.35592 2.43478 0
M  V30 4975 C 484.858 2.31353 2.96905 0
M  V30 4976 C 484.005 2.18919 1.70205 0
M  V30 4977 H 486.956 1.48423 0.561816 0
M  V30 4978 H 486.977 2.00806 3.23199 0
M  V30 4979 H 486.489 3.33701 1.98155 0
M  V30 4980 H 484.59 1.36799 3.46579 0
M  V30 4981 H 484.703 3.25147 3.51875 0
M  V30 4982 H 483.067 1.65624 1.93496 0
M  V30 4983 H 483.85 3.18956 1.26973 0
M  V30 4984 N 486.295 -0.989507 1.22664 0
M  V30 4985 C 487.258 -2.06183 1.00106 0
M  V30 4986 C 488.258 -1.60765 -0.0337726 0
M  V30 4987 O 489.448 -1.72989 0.205072 0
M  V30 4988 C 486.58 -3.37021 0.51279 0
M  V30 4989 H 487.773 -2.27629 1.95256 0
M  V30 4990 H 485.326 -1.16158 1.0458 0
M  V30 4991 H 486.061 -3.21261 -0.442917 0
M  V30 4992 H 485.846 -3.71323 1.25942 0
M  V30 4993 H 487.336 -4.1591 0.375315 0
M  V30 4994 N 487.773 -1.03688 -1.18687 0
M  V30 4995 C 488.723 -0.595067 -2.20098 0
M  V30 4996 C 489.707 0.360465 -1.5681 0
M  V30 4997 O 490.899 0.180136 -1.76081 0
M  V30 4998 C 488.028 0.0444495 -3.43271 0
M  V30 4999 C 487.114 -0.934002 -4.13687 0
M  V30 5000 N 487.505 -2.09957 -4.60165 0
M  V30 5001 C 485.803 -0.759177 -4.39491 0
M  V30 5002 C 486.504 -2.71735 -5.1433 0
M  V30 5003 N 485.48 -1.99638 -5.05614 0
M  V30 5004 H 489.282 -1.48336 -2.5372 0
M  V30 5005 H 486.796 -0.904949 -1.3485 0
M  V30 5006 H 488.793 0.37864 -4.15177 0
M  V30 5007 H 487.453 0.928325 -3.11147 0
M  V30 5008 H 488.464 -2.47863 -4.54735 0
M  V30 5009 H 485.141 0.0749292 -4.17433 0
M  V30 5010 H 486.531 -3.70492 -5.60523 0
M  V30 5011 N 489.251 1.34841 -0.815825 0
M  V30 5012 C 490.479 2.0273 -0.413294 0
M  V30 5013 C 490.894 1.61459 0.978599 0
M  V30 5014 O 490.251 0.816584 1.63212 0
M  V30 5015 C 490.302 3.58058 -0.497676 0
M  V30 5016 O 490.023 3.97832 -1.8347 0
M  V30 5017 C 491.524 4.4321 -0.0891339 0
M  V30 5018 H 488.744 0.649956 -0.166728 0
M  V30 5019 H 491.288 1.72267 -1.10201 0
M  V30 5020 H 489.443 3.87136 0.142886 0
M  V30 5021 H 489.857 4.92501 -1.80396 0
M  V30 5022 H 491.331 5.5164 -0.199274 0
M  V30 5023 H 491.808 4.28432 0.966571 0
M  V30 5024 H 492.414 4.19446 -0.703214 0
M  V30 5025 N 490.729 0.570148 1.46925 0
M  V30 5026 C 491.957 0.0561966 2.06824 0
M  V30 5027 C 492.372 -1.24326 1.42086 0
M  V30 5028 O 491.729 -1.74882 0.521794 0
M  V30 5029 C 491.78 -0.129517 3.61268 0
M  V30 5030 O 491.501 1.1185 4.23581 0
M  V30 5031 C 493.002 -0.679266 4.38065 0
M  V30 5032 H 490.222 0.0517261 0.669003 0
M  V30 5033 H 492.766 0.787243 1.8874 0
M  V30 5034 H 490.921 -0.810739 3.78822 0
M  V30 5035 H 491.335 0.924375 5.1629 0
M  V30 5036 H 492.809 -0.758445 5.46765 0
M  V30 5037 H 493.286 -1.69346 4.05239 0
M  V30 5038 H 493.892 -0.0333237 4.25287 0
M  V30 5039 N 492.207 -1.54576 0.307264 0
M  V30 5040 C 493.618 -1.8579 -0.184121 0
M  V30 5041 C 493.969 -1.22914 -1.52927 0
M  V30 5042 O 493.094 -0.529126 -2.09831 0
M  V30 5043 C 493.689 -3.37081 -0.340862 0
M  V30 5044 C 492.248 -3.68304 -0.776465 0
M  V30 5045 C 491.395 -2.77076 0.111503 0
M  V30 5046 H 494.346 -1.49656 0.528078 0
M  V30 5047 H 494.367 -3.61922 -1.17443 0
M  V30 5048 H 493.879 -3.82815 0.638309 0
M  V30 5049 H 491.98 -3.28092 -1.76596 0
M  V30 5050 H 492.093 -4.75434 -0.591512 0
M  V30 5051 H 490.457 -2.51374 -0.410256 0
M  V30 5052 H 491.24 -3.25632 1.08714 0
M  V30 5053 N 493.685 -0.035106 -1.57561 0
M  V30 5054 C 494.617 0.973604 -2.07494 0
M  V30 5055 C 495.63 1.28504 -0.999534 0
M  V30 5056 O 496.819 1.24864 -1.27559 0
M  V30 5057 C 493.919 2.29945 -2.48955 0
M  V30 5058 C 493.092 2.1723 -3.79644 0
M  V30 5059 C 492.151 3.328 -4.07592 0
M  V30 5060 O 491.177 3.09418 -4.77754 0
M  V30 5061 N 492.379 4.56779 -3.58236 0
M  V30 5062 H 495.144 0.547525 -2.94656 0
M  V30 5063 H 492.705 0.151515 -1.61189 0
M  V30 5064 H 494.697 3.06097 -2.64739 0
M  V30 5065 H 493.267 2.64173 -1.67126 0
M  V30 5066 H 492.487 1.25768 -3.73599 0
M  V30 5067 H 493.775 2.05945 -4.65257 0
M  V30 5068 H 493.173 4.78668 -3.01485 0
M  V30 5069 H 491.73 5.30079 -3.79288 0
M  V30 5070 N 495.163 1.55791 0.238111 0
M  V30 5071 C 496.391 1.82098 0.982233 0
M  V30 5072 C 496.806 0.612025 1.78605 0
M  V30 5073 O 496.163 -0.419381 1.77616 0
M  V30 5074 C 496.214 3.0673 1.91309 0
M  V30 5075 O 495.935 4.2296 1.14179 0
M  V30 5076 C 497.436 3.45903 2.77248 0
M  V30 5077 H 494.656 0.605748 0.288635 0
M  V30 5078 H 497.2 2.02862 0.258341 0
M  V30 5079 H 495.355 2.87991 2.59114 0
M  V30 5080 H 495.769 4.93653 1.7722 0
M  V30 5081 H 497.243 4.36189 3.38295 0
M  V30 5082 H 497.72 2.66891 3.48806 0
M  V30 5083 H 498.326 3.67024 2.14881 0
M  V30 5084 N 496.642 -0.504142 1.49319 0
M  V30 5085 C 497.574 -1.62265 1.61872 0
M  V30 5086 C 498.587 -1.54881 0.501573 0
M  V30 5087 O 499.776 -1.6087 0.773497 0
M  V30 5088 C 496.876 -3.01042 1.55651 0
M  V30 5089 C 496.049 -3.33642 2.82845 0
M  V30 5090 C 495.108 -4.51816 2.69719 0
M  V30 5091 O 494.134 -4.53755 3.4365 0
M  V30 5092 N 495.336 -5.51543 1.81055 0
M  V30 5093 H 498.101 -1.51924 2.58339 0
M  V30 5094 H 495.662 -0.691954 1.46368 0
M  V30 5095 H 497.654 -3.78013 1.44528 0
M  V30 5096 H 496.224 -3.05323 0.670546 0
M  V30 5097 H 495.444 -2.45598 3.08343 0
M  V30 5098 H 496.732 -3.5222 3.67177 0
M  V30 5099 H 496.13 -5.52774 1.20241 0
M  V30 5100 H 494.687 -6.27629 1.75856 0
M  V30 5101 N 498.12 -1.38341 -0.754957 0
M  V30 5102 C 499.345 -1.37882 -1.5493 0
M  V30 5103 C 499.77 0.0296385 -1.88077 0
M  V30 5104 O 499.128 1.01133 -1.50472 0
M  V30 5105 C 499.176 -2.23996 -2.82592 0
M  V30 5106 O 498.28 -1.65612 -3.77686 0
M  V30 5107 H 497.621 -0.470384 -0.468652 0
M  V30 5108 H 500.151 -1.82084 -0.933082 0
M  V30 5109 H 500.161 -2.37806 -3.3153 0
M  V30 5110 H 498.836 -3.26365 -2.57796 0
M  V30 5111 H 497.413 -1.60936 -3.36384 0
M  V30 5112 N 499.598 0.982988 -1.23187 0
M  V30 5113 C 500.826 1.75921 -1.08901 0
M  V30 5114 C 501.241 1.85341 0.359719 0
M  V30 5115 O 500.598 1.33072 1.24892 0
M  V30 5116 C 500.649 3.18742 -1.70545 0
M  V30 5117 O 500.37 3.09814 -3.09753 0
M  V30 5118 C 501.871 4.1277 -1.61667 0
M  V30 5119 H 499.091 0.552166 -0.381252 0
M  V30 5120 H 501.635 1.23516 -1.62985 0
M  V30 5121 H 499.79 3.68182 -1.20501 0
M  V30 5122 H 500.204 3.99703 -3.39614 0
M  V30 5123 H 501.678 5.10697 -2.09506 0
M  V30 5124 H 502.155 4.3542 -0.575009 0
M  V30 5125 H 502.761 3.69232 -2.11064 0
M  V30 5126 N 501.076 1.04316 1.18135 0
M  V30 5127 C 502.301 0.768047 1.92655 0
M  V30 5128 C 502.726 -0.66904 1.758 0
M  V30 5129 O 502.084 -1.46372 1.06981 0
M  V30 5130 C 502.132 1.14239 3.42026 0
M  V30 5131 O 501.236 0.269333 4.1152 0
M  V30 5132 H 500.577 0.282436 0.600937 0
M  V30 5133 H 503.107 1.39367 1.49793 0
M  V30 5134 H 503.117 1.10538 3.92741 0
M  V30 5135 H 501.792 2.18928 3.53615 0
M  V30 5136 H 500.369 0.366175 3.71098 0
M  V30 5137 N 502.554 -1.34406 0.822964 0
M  V30 5138 C 503.802 -1.97892 0.410245 0
M  V30 5139 C 504.123 -1.65567 -1.03017 0
M  V30 5140 O 503.393 -0.94642 -1.71522 0
M  V30 5141 H 501.973 -0.732049 0.148707 0
M  V30 5142 H 504.635 -1.64043 1.05242 0
M  V30 5143 H 503.731 -3.07579 0.529284 0
M  V30 5144 N 504.032 -0.577932 -1.46621 0
M  V30 5145 C 505.448 -0.239242 -1.57797 0
M  V30 5146 C 505.648 1.25843 -1.57371 0
M  V30 5147 O 504.704 2.03988 -1.48813 0
M  V30 5148 C 506.017 -0.884227 -2.87405 0
M  V30 5149 C 507.565 -0.857373 -3.01028 0
M  V30 5150 C 508.04 -1.48181 -4.33366 0
M  V30 5151 N 509.531 -1.44593 -4.40053 0
M  V30 5152 C 510.266 -1.89852 -5.41058 0
M  V30 5153 N 509.762 -2.43062 -6.48762 0
M  V30 5154 N 511.555 -1.80797 -5.3223 0
M  V30 5155 H 503.706 -1.55073 -1.45142 0
M  V30 5156 H 505.969 -0.647903 -0.692044 0
M  V30 5157 H 505.675 -1.93759 -2.93514 0
M  V30 5158 H 505.549 -0.389585 -3.75183 0
M  V30 5159 H 507.936 0.187357 -2.94505 0
M  V30 5160 H 508.017 -1.38999 -2.14739 0
M  V30 5161 H 507.661 -2.52572 -4.40647 0
M  V30 5162 H 507.591 -0.924464 -5.18422 0
M  V30 5163 H 510.082 -1.05694 -3.62819 0
M  V30 5164 H 510.395 -2.75466 -7.22038 0
M  V30 5165 H 508.74 -2.47085 -6.49595 0
M  V30 5166 H 511.931 -1.38989 -4.46989 0
M  V30 5167 H 512.104 -2.16385 -6.10804 0
M  V30 5168 N 505.51 1.54411 -0.315457 0
M  V30 5169 C 506.926 1.59556 0.037464 0
M  V30 5170 C 507.126 1.33217 1.5118 0
M  V30 5171 O 506.182 1.11264 2.26664 0
M  V30 5172 C 507.495 2.98372 -0.373477 0
M  V30 5173 C 509.043 3.11324 -0.323452 0
M  V30 5174 C 509.518 4.52472 -0.709433 0
M  V30 5175 N 511.009 4.58437 -0.662524 0
M  V30 5176 C 511.744 5.65751 -0.933474 0
M  V30 5177 N 511.24 6.81039 -1.27114 0
M  V30 5178 N 513.033 5.55489 -0.859573 0
M  V30 5179 H 505.184 1.6979 -1.27614 0
M  V30 5180 H 507.447 0.793732 -0.518356 0
M  V30 5181 H 507.153 3.22618 -1.40037 0
M  V30 5182 H 507.027 3.76264 0.265615 0
M  V30 5183 H 509.414 2.86818 0.694223 0
M  V30 5184 H 509.495 2.35555 -0.997367 0
M  V30 5185 H 509.139 4.7771 -1.72498 0
M  V30 5186 H 509.069 5.26598 -0.0132923 0
M  V30 5187 H 511.56 3.75636 -0.413065 0
M  V30 5188 H 511.873 7.58816 -1.46348 0
M  V30 5189 H 510.218 6.82555 -1.30932 0
M  V30 5190 H 513.409 4.64299 -0.595324 0
M  V30 5191 H 513.582 6.39036 -1.0741 0
M  V30 5192 N 506.988 0.0434614 1.5754 0
M  V30 5193 C 508.404 -0.313039 1.565 0
M  V30 5194 C 508.604 -1.71954 1.05043 0
M  V30 5195 O 507.66 -2.425 0.703564 0
M  V30 5196 C 508.973 -0.148544 3.00333 0
M  V30 5197 C 510.521 -0.220231 3.12224 0
M  V30 5198 C 510.996 -0.0843565 4.57922 0
M  V30 5199 N 512.487 -0.140881 4.62986 0
M  V30 5200 C 513.222 -0.0597443 5.73369 0
M  V30 5201 N 512.718 0.0733004 6.92761 0
M  V30 5202 N 514.511 -0.11477 5.61983 0
M  V30 5203 H 506.662 0.96303 1.89313 0
M  V30 5204 H 508.925 0.373164 0.871466 0
M  V30 5205 H 508.631 0.820894 3.41986 0
M  V30 5206 H 508.505 -0.912798 3.65989 0
M  V30 5207 H 510.892 -1.18014 2.70475 0
M  V30 5208 H 510.973 0.574646 2.49262 0
M  V30 5209 H 510.617 0.872192 5.00355 0
M  V30 5210 H 510.547 -0.898281 5.18882 0
M  V30 5211 H 513.038 -0.243273 3.77116 0
M  V30 5212 H 513.351 0.128128 7.72694 0
M  V30 5213 H 511.696 0.10828 6.94916 0
M  V30 5214 H 514.887 -0.217212 4.67596 0
M  V30 5215 H 515.06 -0.0480779 6.47982 0
M  V30 5216 N 508.466 -1.55915 -0.229846 0
M  V30 5217 C 509.882 -1.48721 -0.579166 0
M  V30 5218 C 510.082 -0.736976 -1.87539 0
M  V30 5219 O 509.138 -0.273258 -2.51017 0
M  V30 5220 C 510.451 -2.9323 -0.666082 0
M  V30 5221 C 511.999 -3.03701 -0.757267 0
M  V30 5222 C 512.474 -4.49552 -0.8756 0
M  V30 5223 N 513.965 -4.53561 -0.940035 0
M  V30 5224 C 514.7 -5.63683 -1.05116 0
M  V30 5225 N 514.196 -6.83576 -1.12675 0
M  V30 5226 N 515.989 -5.51516 -1.08565 0
M  V30 5227 H 508.14 -2.03123 0.620857 0
M  V30 5228 H 510.403 -0.922898 0.21671 0
M  V30 5229 H 510.109 -3.51032 0.21664 0
M  V30 5230 H 509.983 -3.44668 -1.53243 0
M  V30 5231 H 512.37 -2.45969 -1.63043 0
M  V30 5232 H 512.451 -2.55446 0.134583 0
M  V30 5233 H 512.095 -5.079 -0.00692351 0
M  V30 5234 H 512.025 -4.95506 -1.78274 0
M  V30 5235 H 514.516 -3.67215 -0.892269 0
M  V30 5236 H 514.829 -7.63251 -1.21109 0
M  V30 5237 H 513.174 -6.86303 -1.09603 0
M  V30 5238 H 516.365 -4.5678 -1.02319 0
M  V30 5239 H 516.538 -6.37372 -1.1688 0
M  V30 5240 N 509.944 0.496216 -1.49584 0
M  V30 5241 C 510.907 1.57952 -1.66084 0
M  V30 5242 C 511.907 1.51729 -0.53244 0
M  V30 5243 O 513.097 1.54796 -0.79899 0
M  V30 5244 C 510.229 2.97604 -1.66268 0
M  V30 5245 H 511.422 1.44649 -2.6271 0
M  V30 5246 H 508.975 0.7208 -1.38687 0
M  V30 5247 H 509.71 3.16378 -0.712432 0
M  V30 5248 H 509.495 3.03528 -2.4822 0
M  V30 5249 H 510.985 3.76301 -1.81073 0
M  V30 5250 N 511.423 1.38739 0.74761 0
M  V30 5251 C 512.386 1.36241 1.84312 0
M  V30 5252 C 513.386 0.261811 1.58654 0
M  V30 5253 O 514.576 0.519031 1.66288 0
M  V30 5254 C 511.708 1.12253 3.21888 0
M  V30 5255 H 512.901 2.33712 1.87933 0
M  V30 5256 H 510.454 1.2412 0.949946 0
M  V30 5257 H 511.189 0.154133 3.23934 0
M  V30 5258 H 510.974 1.91943 3.41907 0
M  V30 5259 H 512.464 1.13215 4.0196 0
M  V30 5260 N 512.901 -0.976442 1.23707 0
M  V30 5261 C 513.849 -2.09078 1.01927 0
M  V30 5262 C 514.843 -1.69345 -0.0430193 0
M  V30 5263 O 516.049 -1.79659 0.110814 0
M  V30 5264 H 512.424 -0.68398 0.312531 0
M  V30 5265 H 514.395 -2.24614 1.96447 0
M  V30 5266 C 513.144 -3.41919 0.631385 0
M  V30 5267 H 512.467 -3.72946 1.44053 0
M  V30 5268 H 513.907 -4.20817 0.518532 0
M  V30 5269 C 512.366 -3.30357 -0.660723 0
M  V30 5270 O 512.896 -3.63542 -1.70881 0
M  V30 5271 N 511.102 -2.83507 -0.638139 0
M  V30 5272 H 510.649 -2.567 0.215108 0
M  V30 5273 H 510.607 -2.76153 -1.50289 0
M  V30 5274 N 514.379 -1.04941 -1.1758 0
M  V30 5275 C 515.289 -0.658826 -2.25159 0
M  V30 5276 C 516.305 0.318941 -1.71052 0
M  V30 5277 O 517.481 0.171669 -2.00667 0
M  V30 5278 C 514.546 -0.0369522 -3.4668 0
M  V30 5279 C 513.607 -1.06484 -4.15884 0
M  V30 5280 C 512.84 -0.472551 -5.31604 0
M  V30 5281 O 513.063 0.718736 -5.65854 0
M  V30 5282 O 511.997 -1.20557 -5.89703 0
M  V30 5283 H 515.823 -1.55533 -2.60851 0
M  V30 5284 H 513.408 -0.820819 -1.24832 0
M  V30 5285 H 515.29 0.308784 -4.20267 0
M  V30 5286 H 513.965 0.833238 -3.12792 0
M  V30 5287 H 512.872 -1.46253 -3.44327 0
M  V30 5288 H 514.205 -1.9061 -4.53794 0
M  V30 5289 N 515.857 1.33968 -0.830081 0
M  V30 5290 C 517.134 1.92554 -0.343858 0
M  V30 5291 C 517.514 1.7573 1.16971 0
M  V30 5292 O 516.862 1.14035 1.98011 0
M  V30 5293 C 517.072 3.40147 -0.781073 0
M  V30 5294 C 518.42 4.17299 -0.78402 0
M  V30 5295 O 519.444 3.48762 -0.724112 0
M  V30 5296 O 518.303 5.39631 -0.863739 0
M  V30 5297 H 515.397 0.821469 -0.0954827 0
M  V30 5298 H 517.943 1.42897 -0.915348 0
M  V30 5299 H 516.715 3.46225 -1.82329 0
M  V30 5300 H 516.338 3.97166 -0.18567 0
M  V30 5301 N 517.335 0.585699 1.46312 0
M  V30 5302 C 518.746 0.159938 1.86014 0
M  V30 5303 C 519.097 -1.27775 1.48889 0
M  V30 5304 O 518.222 -1.96559 0.90519 0
M  V30 5305 C 518.817 0.283485 3.37612 0
M  V30 5306 C 517.376 -0.0874256 3.76298 0
M  V30 5307 C 516.523 0.618055 2.70325 0
M  V30 5308 H 519.474 0.793737 1.37425 0
M  V30 5309 H 519.495 -0.490348 3.77327 0
M  V30 5310 H 519.007 1.32995 3.64601 0
M  V30 5311 H 517.108 -1.13391 3.54927 0
M  V30 5312 H 517.221 0.290975 4.78216 0
M  V30 5313 H 515.585 0.057993 2.54634 0
M  V30 5314 H 516.368 1.66623 3.00153 0
M  V30 5315 N 518.813 -1.54241 0.323641 0
M  V30 5316 C 520.09 -1.92741 -0.333181 0
M  V30 5317 C 520.47 -1.25326 -1.69872 0
M  V30 5318 O 519.818 -0.396991 -2.25025 0
M  V30 5319 C 520.028 -3.46399 -0.425322 0
M  V30 5320 C 521.376 -4.19029 -0.68557 0
M  V30 5321 O 522.4 -3.52555 -0.50824 0
M  V30 5322 O 521.259 -5.36751 -1.02767 0
M  V30 5323 H 518.353 -0.804811 -0.190286 0
M  V30 5324 H 520.899 -1.65542 0.373361 0
M  V30 5325 H 519.671 -3.87643 0.533737 0
M  V30 5326 H 519.294 -3.79704 -1.17944 0
M  V30 5327 N 520.291 -0.0518155 -1.57515 0
M  V30 5328 C 521.201 0.937539 -2.15052 0
M  V30 5329 C 522.217 1.34121 -1.10849 0
M  V30 5330 O 523.393 1.418 -1.4302 0
M  V30 5331 C 520.458 2.19379 -2.68466 0
M  V30 5332 C 519.519 1.84841 -3.87469 0
M  V30 5333 C 518.752 3.04477 -4.38326 0
M  V30 5334 O 518.975 4.17868 -3.88256 0
M  V30 5335 O 517.909 2.85453 -5.29906 0
M  V30 5336 H 521.735 0.478201 -2.99912 0
M  V30 5337 H 519.32 0.17012 -1.48428 0
M  V30 5338 H 521.202 2.93084 -3.02787 0
M  V30 5339 H 519.877 2.64449 -1.86677 0
M  V30 5340 H 518.784 1.08449 -3.58036 0
M  V30 5341 H 520.117 1.44569 -4.7049 0
M  V30 5342 N 521.769 1.56035 0.221574 0
M  V30 5343 C 522.716 1.92413 1.27459 0
M  V30 5344 C 523.686 0.781323 1.46576 0
M  V30 5345 O 524.871 1.03721 1.60145 0
M  V30 5346 C 522.011 2.24617 2.61995 0
M  V30 5347 C 521.124 3.51831 2.50677 0
M  V30 5348 C 520.259 3.73482 3.77736 0
M  V30 5349 C 519.298 4.94211 3.6114 0
M  V30 5350 N 518.435 5.12252 4.80148 0
M  V30 5351 H 523.275 2.82203 0.957355 0
M  V30 5352 H 520.812 1.39676 0.461415 0
M  V30 5353 H 522.77 2.41298 3.40339 0
M  V30 5354 H 521.4 1.38 2.91815 0
M  V30 5355 H 520.452 3.43343 1.63767 0
M  V30 5356 H 521.764 4.40328 2.34334 0
M  V30 5357 H 520.918 3.9026 4.64523 0
M  V30 5358 H 519.657 2.83266 3.97003 0
M  V30 5359 H 518.662 4.77384 2.72736 0
M  V30 5360 H 519.887 5.85912 3.43343 0
M  V30 5361 H 517.833 4.24978 4.99729 0
M  V30 5362 H 517.75 5.94881 4.66532 0
M  V30 5363 H 519.018 5.33465 5.68362 0
M  V30 5364 N 523.247 -0.488276 1.49845 0
M  V30 5365 C 524.663 -0.820566 1.3689 0
M  V30 5366 C 524.863 -1.97248 0.411752 0
M  V30 5367 O 523.919 -2.52042 -0.151931 0
M  V30 5368 C 525.232 -1.1488 2.77891 0
M  V30 5369 C 526.78 -1.25626 2.86683 0
M  V30 5370 C 527.255 -1.61772 4.28479 0
M  V30 5371 N 528.746 -1.68797 4.31349 0
M  V30 5372 C 529.481 -1.98235 5.38043 0
M  V30 5373 N 528.977 -2.2581 6.54967 0
M  V30 5374 N 530.77 -1.99593 5.2547 0
M  V30 5375 H 522.921 0.271123 2.10662 0
M  V30 5376 H 525.184 0.058735 0.946179 0
M  V30 5377 H 524.89 -0.375614 3.49688 0
M  V30 5378 H 524.764 -2.08919 3.14058 0
M  V30 5379 H 527.151 -2.02014 2.15114 0
M  V30 5380 H 527.232 -0.296072 2.54081 0
M  V30 5381 H 526.876 -0.859295 5.00578 0
M  V30 5382 H 526.806 -2.58912 4.58554 0
M  V30 5383 H 529.297 -1.49595 3.4703 0
M  V30 5384 H 529.61 -2.47497 7.32096 0
M  V30 5385 H 527.955 -2.23239 6.58171 0
M  V30 5386 H 531.146 -1.77535 4.33127 0
M  V30 5387 H 531.319 -2.222 6.08713 0
M  V30 5388 N 524.725 -1.39134 -0.740242 0
M  V30 5389 C 526.141 -1.20623 -1.0451 0
M  V30 5390 C 526.341 -0.0641651 -2.01398 0
M  V30 5391 O 525.397 0.585843 -2.4561 0
M  V30 5392 C 526.71 -2.53815 -1.6124 0
M  V30 5393 C 528.258 -2.60615 -1.73346 0
M  V30 5394 C 528.733 -3.94015 -2.33486 0
M  V30 5395 N 530.224 -3.95627 -2.40902 0
M  V30 5396 C 530.959 -4.95616 -2.88361 0
M  V30 5397 N 530.455 -6.06003 -3.35756 0
M  V30 5398 N 532.248 -4.82998 -2.87523 0
M  V30 5399 H 524.399 -2.12176 -0.0975576 0
M  V30 5400 H 526.662 -0.942066 -0.105904 0
M  V30 5401 H 526.368 -3.37911 -0.975144 0
M  V30 5402 H 526.242 -2.73162 -2.6012 0
M  V30 5403 H 528.629 -1.76906 -2.36195 0
M  V30 5404 H 528.71 -2.45123 -0.731336 0
M  V30 5405 H 528.354 -4.78153 -1.71267 0
M  V30 5406 H 528.284 -4.06825 -3.34366 0
M  V30 5407 H 530.775 -3.15903 -2.07398 0
M  V30 5408 H 531.088 -6.78215 -3.70464 0
M  V30 5409 H 529.433 -6.09604 -3.33778 0
M  V30 5410 H 532.624 -3.95866 -2.49816 0
M  V30 5411 H 532.797 -5.61072 -3.24196 0
M  V30 5412 N 526.204 0.969867 -1.24223 0
M  V30 5413 C 527.151 2.06407 -1.0327 0
M  V30 5414 C 528.121 1.66014 0.0533 0
M  V30 5415 O 529.306 1.90533 -0.100896 0
M  V30 5416 C 526.446 3.3909 -0.641262 0
M  V30 5417 C 525.559 3.9269 -1.80051 0
M  V30 5418 C 524.694 5.13631 -1.35486 0
M  V30 5419 C 523.733 5.59423 -2.48419 0
M  V30 5420 N 522.87 6.71586 -2.04737 0
M  V30 5421 H 527.71 2.23663 -1.96923 0
M  V30 5422 H 525.247 1.09624 -0.980862 0
M  V30 5423 H 527.205 4.15323 -0.395351 0
M  V30 5424 H 525.835 3.21765 0.258269 0
M  V30 5425 H 524.887 3.13116 -2.16014 0
M  V30 5426 H 526.199 4.22636 -2.64916 0
M  V30 5427 H 525.353 5.97231 -1.0677 0
M  V30 5428 H 524.092 4.85364 -0.476722 0
M  V30 5429 H 523.097 4.74398 -2.77897 0
M  V30 5430 H 524.322 5.89705 -3.36786 0
M  V30 5431 H 522.268 6.45058 -1.19318 0
M  V30 5432 H 522.185 7.0097 -2.83156 0
M  V30 5433 H 523.453 7.58633 -1.79154 0
M  V30 5434 N 527.682 1.05563 1.17022 0
M  V30 5435 C 528.929 0.767937 1.87374 0
M  V30 5436 C 529.257 -0.705224 1.81265 0
M  V30 5437 O 528.512 -1.5318 1.21796 0
M  V30 5438 C 528.811 1.19849 3.36706 0
M  V30 5439 C 528.477 2.6745 3.63017 0
M  V30 5440 C 527.139 3.0777 3.69907 0
M  V30 5441 C 529.491 3.62811 3.74189 0
M  V30 5442 C 526.819 4.42307 3.85463 0
M  V30 5443 C 529.171 4.97087 3.91264 0
M  V30 5444 C 527.835 5.37055 3.96394 0
M  V30 5445 H 527.105 0.281008 0.68565 0
M  V30 5446 H 529.752 1.32339 1.38415 0
M  V30 5447 H 528.057 0.562096 3.87747 0
M  V30 5448 H 529.754 0.953038 3.8951 0
M  V30 5449 H 526.344 2.35228 3.58282 0
M  V30 5450 H 530.528 3.32798 3.68183 0
M  V30 5451 H 525.784 4.72769 3.87684 0
M  V30 5452 H 529.958 5.70869 3.9885 0
M  V30 5453 H 527.585 6.41308 4.082 0
M  V30 5454 N 529.16 -1.33526 0.837174 0
M  V30 5455 C 530.09 -2.31764 0.284206 0
M  V30 5456 C 531.071 -1.58896 -0.607142 0
M  V30 5457 O 532.256 -1.86798 -0.531047 0
M  V30 5458 C 529.386 -3.43029 -0.542962 0
M  V30 5459 C 528.34 -4.27255 0.252451 0
M  V30 5460 C 527.666 -5.3012 -0.69836 0
M  V30 5461 C 528.966 -5.01229 1.46858 0
M  V30 5462 H 530.66 -2.78262 1.10502 0
M  V30 5463 H 528.206 -1.3378 0.532812 0
M  V30 5464 H 530.159 -4.1078 -0.940096 0
M  V30 5465 H 528.883 -2.95216 -1.39697 0
M  V30 5466 H 527.542 -3.61127 0.631124 0
M  V30 5467 H 527.19 -4.78564 -1.54872 0
M  V30 5468 H 526.89 -5.87353 -0.170274 0
M  V30 5469 H 528.414 -6.00737 -1.09305 0
M  V30 5470 H 529.828 -5.61756 1.14469 0
M  V30 5471 H 528.225 -5.68104 1.93333 0
M  V30 5472 H 529.295 -4.301 2.23924 0
M  V30 5473 N 530.638 -0.59345 -1.46 0
M  V30 5474 C 531.548 0.135817 -2.34207 0
M  V30 5475 C 532.564 0.875008 -1.50398 0
M  V30 5476 O 533.74 0.835778 -1.83239 0
M  V30 5477 C 530.805 1.12977 -3.27776 0
M  V30 5478 C 529.866 0.394081 -4.27487 0
M  V30 5479 C 529.099 1.34068 -5.16586 0
M  V30 5480 O 529.322 2.5778 -5.08828 0
M  V30 5481 O 528.256 0.845426 -5.95933 0
M  V30 5482 H 532.082 -0.588691 -2.9794 0
M  V30 5483 H 529.667 -0.353784 -1.45151 0
M  V30 5484 H 531.549 1.70261 -3.85473 0
M  V30 5485 H 530.224 1.83556 -2.66625 0
M  V30 5486 H 529.131 -0.220869 -3.73447 0
M  V30 5487 H 530.464 -0.270939 -4.91454 0
M  V30 5488 N 532.116 1.54067 -0.331816 0
M  V30 5489 C 533.532 1.59587 0.0205388 0
M  V30 5490 C 533.732 1.34813 1.49759 0
M  V30 5491 O 532.788 1.13661 2.25471 0
M  V30 5492 C 534.101 2.97959 -0.405103 0
M  V30 5493 C 535.649 3.10964 -0.356454 0
M  V30 5494 C 536.124 4.51694 -0.757384 0
M  V30 5495 N 537.615 4.57709 -0.71111 0
M  V30 5496 C 538.35 5.64729 -0.993427 0
M  V30 5497 N 537.846 6.79652 -1.3433 0
M  V30 5498 N 539.639 5.54546 -0.918442 0
M  V30 5499 H 531.79 1.68426 -1.29407 0
M  V30 5500 H 534.053 0.78819 -0.526745 0
M  V30 5501 H 533.759 3.21115 -1.43451 0
M  V30 5502 H 533.633 3.76524 0.225692 0
M  V30 5503 H 536.02 2.87538 0.663763 0
M  V30 5504 H 536.101 2.34484 -1.02229 0
M  V30 5505 H 535.745 4.75853 -1.77555 0
M  V30 5506 H 535.675 5.26555 -0.0691444 0
M  V30 5507 H 538.166 3.75176 -0.452883 0
M  V30 5508 H 538.479 7.57221 -1.54388 0
M  V30 5509 H 536.824 6.81128 -1.38164 0
M  V30 5510 H 540.015 4.63641 -0.644536 0
M  V30 5511 H 540.188 6.37861 -1.14181 0
M  V30 5512 N 533.594 0.0601682 1.57485 0
M  V30 5513 C 534.542 -0.928899 2.13247 0
M  V30 5514 C 535.536 -1.31616 1.06647 0
M  V30 5515 O 536.742 -1.29476 1.25043 0
M  V30 5516 H 533.117 -0.317455 0.681708 0
M  V30 5517 H 535.088 -0.433566 2.95233 0
M  V30 5518 C 533.837 -2.19121 2.69965 0
M  V30 5519 H 533.16 -1.90204 3.51657 0
M  V30 5520 H 534.6 -2.86465 3.12592 0
M  V30 5521 C 533.059 -2.94195 1.64168 0
M  V30 5522 O 533.589 -3.87468 1.05978 0
M  V30 5523 N 531.795 -2.57089 1.35476 0
M  V30 5524 H 531.342 -1.81314 1.82984 0
M  V30 5525 H 531.3 -3.07624 0.649196 0
M  V30 5526 N 535.072 -1.5615 -0.213296 0
M  V30 5527 C 536.488 -1.49327 -0.56336 0
M  V30 5528 C 536.688 -0.756826 -1.86747 0
M  V30 5529 O 535.744 -0.299866 -2.50713 0
M  V30 5530 C 537.057 -2.9392 -0.634944 0
M  V30 5531 C 538.605 -3.04487 -0.725013 0
M  V30 5532 C 539.08 -4.50456 -0.82787 0
M  V30 5533 N 540.571 -4.54533 -0.891876 0
M  V30 5534 C 541.306 -5.64766 -0.991315 0
M  V30 5535 N 540.802 -6.84733 -1.05419 0
M  V30 5536 N 542.595 -5.52637 -1.02709 0
M  V30 5537 H 534.746 -2.02453 0.642366 0
M  V30 5538 H 537.009 -0.920548 0.226487 0
M  V30 5539 H 536.715 -3.50783 0.253859 0
M  V30 5540 H 536.589 -3.46274 -1.49579 0
M  V30 5541 H 538.976 -2.47685 -1.60425 0
M  V30 5542 H 539.057 -2.55289 0.161669 0
M  V30 5543 H 538.701 -5.07878 0.0469464 0
M  V30 5544 H 538.631 -4.97369 -1.73009 0
M  V30 5545 H 541.122 -3.68141 -0.85327 0
M  V30 5546 H 541.435 -7.64493 -1.13007 0
M  V30 5547 H 539.78 -6.87427 -1.02318 0
M  V30 5548 H 542.971 -4.5784 -0.974687 0
M  V30 5549 H 543.144 -6.38576 -1.10113 0
M  V30 5550 N 536.55 0.480323 -1.50102 0
M  V30 5551 C 537.513 1.56181 -1.6775 0
M  V30 5552 C 538.513 1.51156 -0.548503 0
M  V30 5553 O 539.703 1.5394 -0.815363 0
M  V30 5554 C 536.835 2.95823 -1.69415 0
M  V30 5555 H 538.028 1.41855 -2.6423 0
M  V30 5556 H 535.581 0.70605 -1.39444 0
M  V30 5557 H 536.316 3.15604 -0.745948 0
M  V30 5558 H 536.101 3.00878 -2.51425 0
M  V30 5559 H 537.591 3.74359 -1.85054 0
M  V30 5560 N 538.028 1.39524 0.732853 0
M  V30 5561 C 538.991 1.38189 1.82857 0
M  V30 5562 C 539.991 0.278624 1.58368 0
M  V30 5563 O 541.181 0.536639 1.65728 0
M  V30 5564 C 538.313 1.15661 3.2068 0
M  V30 5565 H 539.506 2.35692 1.85444 0
M  V30 5566 H 537.059 1.2512 0.936728 0
M  V30 5567 H 537.794 0.188482 3.23752 0
M  V30 5568 H 537.579 1.95559 3.39852 0
M  V30 5569 H 539.069 1.17472 4.00737 0
M  V30 5570 N 539.506 -0.963266 1.24736 0
M  V30 5571 C 540.469 -2.04013 1.04457 0
M  V30 5572 C 541.469 -1.608 0.000335555 0
M  V30 5573 O 542.659 -1.72515 0.241719 0
M  V30 5574 C 539.791 -3.35858 0.584162 0
M  V30 5575 H 540.984 -2.23436 2.00041 0
M  V30 5576 H 538.537 -1.13914 1.07021 0
M  V30 5577 H 539.272 -3.22128 -0.374673 0
M  V30 5578 H 539.057 -3.68568 1.3379 0
M  V30 5579 H 540.547 -4.1502 0.463451 0
M  V30 5580 N 540.985 -1.06182 -1.16461 0
M  V30 5581 C 542.21 -0.798599 -1.91408 0
M  V30 5582 C 542.635 0.640987 -1.76842 0
M  V30 5583 O 541.993 1.44652 -1.09296 0
M  V30 5584 C 542.041 -1.19665 -3.40165 0
M  V30 5585 O 541.145 -0.334768 -4.11039 0
M  V30 5586 H 540.486 -0.291961 -0.596368 0
M  V30 5587 H 543.016 -1.41732 -1.47557 0
M  V30 5588 H 543.026 -1.16772 -3.90933 0
M  V30 5589 H 541.701 -2.24526 -3.50087 0
M  V30 5590 H 540.278 -0.425168 -3.70468 0
M  V30 5591 N 542.463 1.3308 -0.844243 0
M  V30 5592 C 543.879 1.50447 -0.532729 0
M  V30 5593 C 544.079 1.78292 0.938837 0
M  V30 5594 O 543.135 1.84635 1.72239 0
M  V30 5595 C 544.448 2.65555 -1.41072 0
M  V30 5596 C 545.996 2.7944 -1.41005 0
M  V30 5597 C 546.471 3.97616 -2.27301 0
M  V30 5598 N 547.962 4.0486 -2.2504 0
M  V30 5599 C 548.697 4.95508 -2.88547 0
M  V30 5600 N 548.193 5.91236 -3.61126 0
M  V30 5601 N 549.986 4.88548 -2.77989 0
M  V30 5602 H 542.137 1.13269 -1.79677 0
M  V30 5603 H 544.4 0.55734 -0.766861 0
M  V30 5604 H 544.106 2.51675 -2.45668 0
M  V30 5605 H 543.98 3.61089 -1.09061 0
M  V30 5606 H 546.367 2.92749 -0.371784 0
M  V30 5607 H 546.448 1.8465 -1.77026 0
M  V30 5608 H 546.092 3.85066 -3.3119 0
M  V30 5609 H 546.022 4.91661 -1.88619 0
M  V30 5610 H 548.513 3.36353 -1.72264 0
M  V30 5611 H 548.826 6.57079 -4.06776 0
M  V30 5612 H 547.171 5.91295 -3.65234 0
M  V30 5613 H 550.362 4.12729 -2.20846 0
M  V30 5614 H 550.535 5.58994 -3.27765 0
M  V30 5615 N 543.941 0.601185 1.45683 0
M  V30 5616 C 545.181 0.0968037 2.04171 0
M  V30 5617 C 545.545 -1.2466 1.46027 0
M  V30 5618 O 546.746 -1.84132 1.95829 0
M  V30 5619 C 545.017 0.051384 3.57363 0
M  V30 5620 S 546.576 -0.392737 4.37039 0
M  V30 5621 H 543.394 0.0464504 0.709481 0
M  V30 5622 H 545.996 0.797846 1.78479 0
M  V30 5623 H 544.7 1.03274 3.97193 0
M  V30 5624 H 544.231 -0.671853 3.87621 0
M  V30 5625 H 546.246 -1.64364 4.68187 0
M  V30 5626 N 545.419 -1.53889 0.339982 0
M  V30 5627 C 546.835 -1.59595 -0.0120752 0
M  V30 5628 C 547.035 -1.35605 -1.49042 0
M  V30 5629 O 546.091 -1.14856 -2.24865 0
M  V30 5630 C 547.404 -2.9774 0.420898 0
M  V30 5631 C 548.952 -3.1077 0.37294 0
M  V30 5632 C 549.427 -4.51286 0.781327 0
M  V30 5633 N 550.918 -4.57325 0.735374 0
M  V30 5634 C 551.653 -5.64194 1.02336 0
M  V30 5635 N 551.149 -6.7893 1.37933 0
M  V30 5636 N 552.942 -5.54051 0.947838 0
M  V30 5637 H 545.093 -1.67738 1.30299 0
M  V30 5638 H 547.356 -0.785385 0.530918 0
M  V30 5639 H 547.062 -3.20349 1.45152 0
M  V30 5640 H 546.936 -3.76639 -0.205721 0
M  V30 5641 H 549.323 -2.87886 -0.648505 0
M  V30 5642 H 549.404 -2.33939 1.03472 0
M  V30 5643 H 549.048 -4.74905 1.80077 0
M  V30 5644 H 548.978 -5.26511 0.0970679 0
M  V30 5645 H 551.469 -3.74931 0.472773 0
M  V30 5646 H 551.782 -7.56392 1.58402 0
M  V30 5647 H 550.127 -6.80386 1.41774 0
M  V30 5648 H 553.318 -4.63293 0.669115 0
M  V30 5649 H 553.491 -6.37246 1.17563 0
M  V30 5650 N 546.897 -0.0685191 -1.57451 0
M  V30 5651 C 547.829 0.929372 -2.09512 0
M  V30 5652 C 548.842 1.26354 -1.02657 0
M  V30 5653 O 550.031 1.2213 -1.30179 0
M  V30 5654 C 547.131 2.24612 -2.53777 0
M  V30 5655 C 546.304 2.09128 -3.84167 0
M  V30 5656 C 545.363 3.24079 -4.14559 0
M  V30 5657 O 544.389 2.99215 -4.8421 0
M  V30 5658 N 545.591 4.49077 -3.67845 0
M  V30 5659 H 548.356 0.484901 -2.95751 0
M  V30 5660 H 545.917 0.11729 -1.61475 0
M  V30 5661 H 547.909 3.00412 -2.71172 0
M  V30 5662 H 546.479 2.60569 -1.72692 0
M  V30 5663 H 545.699 1.17815 -3.76182 0
M  V30 5664 H 546.987 1.9603 -4.69521 0
M  V30 5665 H 546.385 4.72165 -3.11571 0
M  V30 5666 H 544.942 5.21915 -3.90446 0
M  V30 5667 N 548.375 1.56261 0.205012 0
M  V30 5668 C 549.322 1.93754 1.25411 0
M  V30 5669 C 550.292 0.796826 1.45739 0
M  V30 5670 O 551.477 1.05414 1.59036 0
M  V30 5671 C 548.617 2.27383 2.59598 0
M  V30 5672 C 547.73 3.5447 2.46931 0
M  V30 5673 C 546.865 3.77468 3.73753 0
M  V30 5674 C 545.904 4.98014 3.55877 0
M  V30 5675 N 545.041 5.17316 4.74688 0
M  V30 5676 H 549.881 2.83203 0.92737 0
M  V30 5677 H 547.418 1.40158 0.446574 0
M  V30 5678 H 549.376 2.44895 3.37761 0
M  V30 5679 H 548.006 1.41088 2.90335 0
M  V30 5680 H 547.058 3.45061 1.60116 0
M  V30 5681 H 548.37 4.42789 2.29651 0
M  V30 5682 H 547.524 3.95165 4.60358 0
M  V30 5683 H 546.263 2.87461 3.93976 0
M  V30 5684 H 545.268 4.80249 2.67657 0
M  V30 5685 H 546.493 5.8952 3.37109 0
M  V30 5686 H 544.439 4.30255 4.95194 0
M  V30 5687 H 544.356 5.99796 4.60197 0
M  V30 5688 H 545.624 5.39463 5.62672 0
M  V30 5689 N 549.853 -0.472356 1.50355 0
M  V30 5690 C 551.269 -0.806001 1.37753 0
M  V30 5691 C 551.469 -1.968 0.432649 0
M  V30 5692 O 550.525 -2.52189 -0.12519 0
M  V30 5693 C 551.838 -1.11926 2.79093 0
M  V30 5694 C 553.386 -1.22579 2.87999 0
M  V30 5695 C 553.861 -1.57218 4.3017 0
M  V30 5696 N 555.352 -1.64212 4.33115 0
M  V30 5697 C 556.087 -1.92517 5.40116 0
M  V30 5698 N 555.583 -2.1885 6.57325 0
M  V30 5699 N 557.376 -1.94008 5.27558 0
M  V30 5700 H 549.527 0.293451 2.10363 0
M  V30 5701 H 551.79 0.0687672 0.945503 0
M  V30 5702 H 551.496 -0.338504 3.50067 0
M  V30 5703 H 551.37 -2.05577 3.16256 0
M  V30 5704 H 553.757 -1.99722 2.17245 0
M  V30 5705 H 553.838 -0.269107 2.54381 0
M  V30 5706 H 553.482 -0.806154 5.01461 0
M  V30 5707 H 553.412 -2.54034 4.61275 0
M  V30 5708 H 555.903 -1.45906 3.48597 0
M  V30 5709 H 556.216 -2.39718 7.3468 0
M  V30 5710 H 554.561 -2.16245 6.60502 0
M  V30 5711 H 557.752 -1.72931 4.34986 0
M  V30 5712 H 557.925 -2.15731 6.11035 0
M  V30 5713 N 551.331 -1.39911 -0.725443 0
M  V30 5714 C 552.278 -1.39393 -1.83952 0
M  V30 5715 C 553.248 -0.252249 -1.64173 0
M  V30 5716 O 554.433 -0.44882 -1.85446 0
M  V30 5717 C 551.573 -1.25262 -3.21564 0
M  V30 5718 C 550.686 -2.49054 -3.52982 0
M  V30 5719 C 549.821 -2.27439 -4.80047 0
M  V30 5720 C 548.86 -3.46857 -5.04338 0
M  V30 5721 N 547.997 -3.24499 -6.22611 0
M  V30 5722 H 552.837 -2.34622 -1.83729 0
M  V30 5723 H 550.374 -1.16537 -0.897636 0
M  V30 5724 H 552.332 -1.15077 -4.01015 0
M  V30 5725 H 550.962 -0.33657 -3.21041 0
M  V30 5726 H 550.014 -2.69805 -2.6816 0
M  V30 5727 H 551.326 -3.37973 -3.66846 0
M  V30 5728 H 550.48 -2.14551 -5.67497 0
M  V30 5729 H 549.219 -1.35929 -4.68374 0
M  V30 5730 H 548.224 -3.60232 -4.15346 0
M  V30 5731 H 549.449 -4.3928 -5.17889 0
M  V30 5732 H 547.395 -2.35663 -6.12208 0
M  V30 5733 H 547.312 -4.06978 -6.37106 0
M  V30 5734 H 548.58 -3.15325 -7.12875 0
M  V30 5735 N 552.809 0.956637 -1.25245 0
M  V30 5736 C 554.055 1.70352 -1.10036 0
M  V30 5737 C 554.388 1.90869 0.358156 0
M  V30 5738 O 553.663 1.47819 1.26411 0
M  V30 5739 C 553.946 3.08766 -1.85298 0
M  V30 5740 C 553.799 2.95672 -3.38966 0
M  V30 5741 C 555.118 4.08622 -1.63451 0
M  V30 5742 H 552.237 0.618279 -0.401123 0
M  V30 5743 H 554.879 1.11212 -1.54051 0
M  V30 5744 H 553.029 3.59252 -1.47887 0
M  V30 5745 H 554.701 2.52527 -3.86041 0
M  V30 5746 H 552.944 2.31634 -3.6678 0
M  V30 5747 H 553.615 3.93776 -3.86839 0
M  V30 5748 H 556.091 3.67038 -1.96015 0
M  V30 5749 H 554.967 5.03514 -2.18551 0
M  V30 5750 H 555.228 4.3834 -0.575357 0
M  V30 5751 N 554.287 1.06798 1.15896 0
M  V30 5752 C 555.533 0.798757 1.8706 0
M  V30 5753 C 555.888 -0.667739 1.80441 0
M  V30 5754 O 555.181 -1.48334 1.21274 0
M  V30 5755 C 555.375 1.23414 3.35416 0
M  V30 5756 C 555.204 2.74142 3.56478 0
M  V30 5757 C 553.974 3.41675 3.72272 0
M  V30 5758 C 556.172 3.72348 3.5477 0
M  V30 5759 N 554.154 4.81101 3.81333 0
M  V30 5760 C 555.525 4.97585 3.69877 0
M  V30 5761 C 557.58 3.65585 3.38011 0
M  V30 5762 C 556.283 6.16866 3.69959 0
M  V30 5763 C 558.309 4.84323 3.39389 0
M  V30 5764 C 557.671 6.08391 3.5502 0
M  V30 5765 H 553.77 0.344761 0.7019 0
M  V30 5766 H 556.354 1.36314 1.3902 0
M  V30 5767 H 554.525 0.697522 3.82085 0
M  V30 5768 H 556.257 0.91304 3.94266 0
M  V30 5769 H 553.012 2.92078 3.7281 0
M  V30 5770 H 553.436 5.53647 3.8962 0
M  V30 5771 H 558.078 2.70615 3.2485 0
M  V30 5772 H 555.796 7.12164 3.819 0
M  V30 5773 H 559.382 4.80762 3.27658 0
M  V30 5774 H 558.262 6.98731 3.56012 0
M  V30 5775 N 555.766 -1.3263 0.851289 0
M  V30 5776 C 557.012 -1.9766 0.453694 0
M  V30 5777 C 557.345 -1.67225 -0.987396 0
M  V30 5778 O 556.62 -0.958693 -1.69232 0
M  V30 5779 C 556.903 -3.5344 0.68936 0
M  V30 5780 C 556.756 -3.93517 2.17862 0
M  V30 5781 C 558.075 -4.39866 0.143555 0
M  V30 5782 H 555.194 -0.717989 0.166314 0
M  V30 5783 H 557.836 -1.57068 1.06909 0
M  V30 5784 H 555.986 -3.88147 0.165546 0
M  V30 5785 H 557.658 -3.69006 2.76826 0
M  V30 5786 H 555.901 -3.42798 2.65841 0
M  V30 5787 H 556.572 -5.02065 2.29422 0
M  V30 5788 H 559.048 -4.11875 0.591451 0
M  V30 5789 H 557.924 -5.47858 0.338043 0
M  V30 5790 H 558.185 -4.31696 -0.953466 0
M  V30 5791 N 557.244 -0.608902 -1.45362 0
M  V30 5792 C 558.176 0.147318 -2.28726 0
M  V30 5793 C 559.189 0.830468 -1.40025 0
M  V30 5794 O 560.378 0.695636 -1.64387 0
M  V30 5795 C 557.478 1.22968 -3.15804 0
M  V30 5796 C 556.651 0.633391 -4.3279 0
M  V30 5797 C 555.71 1.60682 -5.01067 0
M  V30 5798 O 554.736 1.13261 -5.57818 0
M  V30 5799 N 555.938 2.94123 -5.00472 0
M  V30 5800 H 558.703 -0.568014 -2.94268 0
M  V30 5801 H 556.264 -0.448479 -1.55564 0
M  V30 5802 H 558.256 1.88072 -3.58345 0
M  V30 5803 H 556.826 1.84752 -2.52162 0
M  V30 5804 H 556.046 -0.195762 -3.93714 0
M  V30 5805 H 557.334 0.215255 -5.08344 0
M  V30 5806 H 556.732 3.3525 -4.55657 0
M  V30 5807 H 555.289 3.54646 -5.46872 0
M  V30 5808 N 558.722 1.53707 -0.348139 0
M  V30 5809 C 559.947 2.05877 0.250883 0
M  V30 5810 C 560.372 1.22115 1.43072 0
M  V30 5811 O 559.73 0.235986 1.79758 0
M  V30 5812 C 559.778 3.54886 0.639416 0
M  V30 5813 O 558.882 3.73948 1.73888 0
M  V30 5814 H 558.223 0.662754 0.040653 0
M  V30 5815 H 560.753 1.98303 -0.503685 0
M  V30 5816 H 560.763 3.97601 0.915295 0
M  V30 5817 H 559.438 4.153 -0.223386 0
M  V30 5818 H 558.015 3.43134 1.45991 0
M  V30 5819 N 560.2 0.0768682 1.57412 0
M  V30 5820 C 561.13 -0.886026 2.16037 0
M  V30 5821 C 562.111 -1.30691 1.08876 0
M  V30 5822 O 563.296 -1.37705 1.36934 0
M  V30 5823 C 560.426 -2.1518 2.72608 0
M  V30 5824 C 559.38 -1.87015 3.8498 0
M  V30 5825 C 558.706 -3.20266 4.28175 0
M  V30 5826 C 560.006 -1.17143 5.08994 0
M  V30 5827 H 561.7 -0.397642 2.96748 0
M  V30 5828 H 559.246 -0.189823 1.42743 0
M  V30 5829 H 561.199 -2.82962 3.12266 0
M  V30 5830 H 559.923 -2.66269 1.89125 0
M  V30 5831 H 558.582 -1.21636 3.45833 0
M  V30 5832 H 558.23 -3.69207 3.41607 0
M  V30 5833 H 557.93 -3.0221 5.03927 0
M  V30 5834 H 559.454 -3.89237 4.70454 0
M  V30 5835 H 560.868 -1.75003 5.45937 0
M  V30 5836 H 559.265 -1.09328 5.90057 0
M  V30 5837 H 560.335 -0.151295 4.84664 0
M  V30 5838 N 561.678 -1.56367 -0.196722 0
M  V30 5839 C 562.588 -1.97617 -1.2643 0
M  V30 5840 C 563.604 -0.883598 -1.49895 0
M  V30 5841 O 564.78 -1.18921 -1.62541 0
M  V30 5842 C 561.845 -2.30595 -2.58895 0
M  V30 5843 C 560.906 -3.53551 -2.43516 0
M  V30 5844 C 560.139 -3.84946 -3.69665 0
M  V30 5845 O 560.362 -3.17655 -4.73763 0
M  V30 5846 O 559.296 -4.78379 -3.65291 0
M  V30 5847 H 563.122 -2.88648 -0.944233 0
M  V30 5848 H 560.707 -1.43901 -0.401592 0
M  V30 5849 H 562.589 -2.52889 -3.37083 0
M  V30 5850 H 561.264 -1.42732 -2.90533 0
M  V30 5851 H 560.171 -3.36507 -1.63445 0
M  V30 5852 H 561.504 -4.41875 -2.16812 0
M  V30 5853 N 563.156 0.464375 -1.50603 0
M  V30 5854 C 564.103 1.56152 -1.69956 0
M  V30 5855 C 565.073 1.57046 -0.54091 0
M  V30 5856 O 566.258 1.74473 -0.772258 0
M  V30 5857 C 563.398 2.94079 -1.80586 0
M  V30 5858 C 562.511 3.02923 -3.07996 0
M  V30 5859 C 561.646 4.31806 -3.09382 0
M  V30 5860 C 560.685 4.34417 -4.31218 0
M  V30 5861 N 559.822 5.54782 -4.30304 0
M  V30 5862 H 564.662 1.38955 -2.6362 0
M  V30 5863 H 562.199 0.675482 -1.30674 0
M  V30 5864 H 564.157 3.74073 -1.8473 0
M  V30 5865 H 562.787 3.09896 -0.903556 0
M  V30 5866 H 561.839 2.1576 -3.13292 0
M  V30 5867 H 563.151 3.00712 -3.97962 0
M  V30 5868 H 562.305 5.20153 -3.12292 0
M  V30 5869 H 561.044 4.36636 -2.17257 0
M  V30 5870 H 560.049 3.44467 -4.28512 0
M  V30 5871 H 561.274 4.31273 -5.24576 0
M  V30 5872 H 559.22 5.60384 -3.41037 0
M  V30 5873 H 559.137 5.54339 -5.14047 0
M  V30 5874 H 560.405 6.45235 -4.3737 0
M  V30 5875 N 564.634 1.40294 0.718013 0
M  V30 5876 C 565.581 1.40367 1.8321 0
M  V30 5877 C 566.551 0.260952 1.64037 0
M  V30 5878 O 567.736 0.458648 1.85205 0
M  V30 5879 C 564.876 1.26965 3.20895 0
M  V30 5880 C 563.989 2.50922 3.51656 0
M  V30 5881 C 563.124 2.29981 4.78834 0
M  V30 5882 C 562.163 3.49527 5.02491 0
M  V30 5883 N 561.3 3.27796 6.20882 0
M  V30 5884 H 566.14 2.35593 1.82482 0
M  V30 5885 H 563.677 1.17012 0.891444 0
M  V30 5886 H 565.635 1.17202 4.00399 0
M  V30 5887 H 564.265 0.353591 3.20858 0
M  V30 5888 H 563.317 2.71223 2.66725 0
M  V30 5889 H 564.629 3.39913 3.65048 0
M  V30 5890 H 563.783 2.17558 5.66351 0
M  V30 5891 H 562.522 1.38411 4.67647 0
M  V30 5892 H 561.527 3.6243 4.1343 0
M  V30 5893 H 562.752 4.42021 5.15553 0
M  V30 5894 H 560.698 2.38906 6.1095 0
M  V30 5895 H 560.615 4.10351 6.34939 0
M  V30 5896 H 561.883 3.19101 7.11193 0
M  V30 5897 N 566.112 -0.949982 1.2575 0
M  V30 5898 C 567.075 -2.02894 1.06615 0
M  V30 5899 C 568.075 -1.60791 0.0173905 0
M  V30 5900 O 569.265 -1.72249 0.260003 0
M  V30 5901 C 566.397 -3.35219 0.619751 0
M  V30 5902 H 567.59 -2.21302 2.02399 0
M  V30 5903 H 565.143 -1.12772 1.08223 0
M  V30 5904 H 565.878 -3.22508 -0.340486 0
M  V30 5905 H 565.663 -3.67129 1.37692 0
M  V30 5906 H 567.153 -4.14505 0.507443 0
M  V30 5907 N 567.59 -1.07411 -1.15328 0
M  V30 5908 C 568.5 -0.706438 -2.23711 0
M  V30 5909 C 569.516 0.282586 -1.7169 0
M  V30 5910 O 570.692 0.129066 -2.00986 0
M  V30 5911 C 567.757 -0.11048 -3.46524 0
M  V30 5912 C 566.818 -1.15282 -4.13532 0
M  V30 5913 C 566.051 -0.585205 -5.30482 0
M  V30 5914 O 566.274 0.598549 -5.67251 0
M  V30 5915 O 565.208 -1.33039 -5.87013 0
M  V30 5916 H 569.034 -1.61031 -2.57493 0
M  V30 5917 H 566.619 -0.847113 -1.23062 0
M  V30 5918 H 568.501 0.21957 -4.20828 0
M  V30 5919 H 567.176 0.766703 -3.14489 0
M  V30 5920 H 566.083 -1.53523 -3.41147 0
M  V30 5921 H 567.416 -2.00192 -4.49649 0
M  V30 5922 N 569.068 1.32177 -0.85831 0
M  V30 5923 C 570.345 1.91781 -0.384624 0
M  V30 5924 C 570.725 1.78171 1.13217 0
M  V30 5925 O 570.073 1.18209 1.95548 0
M  V30 5926 C 570.283 3.38414 -0.853047 0
M  V30 5927 C 571.631 4.15542 -0.872359 0
M  V30 5928 O 572.655 3.47148 -0.797926 0
M  V30 5929 O 571.514 5.37678 -0.978009 0
M  V30 5930 H 568.608 0.819259 -0.112886 0
M  V30 5931 H 571.154 1.40923 -0.945453 0
M  V30 5932 H 569.926 3.4228 -1.89632 0
M  V30 5933 H 569.549 3.96683 -0.269874 0
M  V30 5934 N 570.547 0.616602 1.45037 0
M  V30 5935 C 571.477 -0.0840787 2.33349 0
M  V30 5936 C 572.458 -0.849641 1.4736 0
M  V30 5937 O 573.643 -0.818407 1.76113 0
M  V30 5938 C 570.773 -1.07604 3.3021 0
M  V30 5939 C 569.727 -0.423096 4.25904 0
M  V30 5940 C 569.053 -1.52394 5.12523 0
M  V30 5941 C 570.353 0.661457 5.18095 0
M  V30 5942 H 572.047 0.653333 2.92185 0
M  V30 5943 H 569.593 0.315634 1.40498 0
M  V30 5944 H 571.546 -1.57485 3.90866 0
M  V30 5945 H 570.27 -1.84416 2.69552 0
M  V30 5946 H 568.929 0.05493 3.66559 0
M  V30 5947 H 568.577 -2.28257 4.48227 0
M  V30 5948 H 568.277 -1.09251 5.77354 0
M  V30 5949 H 569.801 -2.02485 5.76049 0
M  V30 5950 H 571.215 0.246353 5.7277 0
M  V30 5951 H 569.612 1.01517 5.91451 0
M  V30 5952 H 570.682 1.53446 4.59981 0
M  V30 5953 N 572.025 -1.5352 0.356285 0
M  V30 5954 C 573.25 -2.06007 -0.239961 0
M  V30 5955 C 573.675 -1.22872 -1.42422 0
M  V30 5956 O 573.033 -0.245516 -1.7963 0
M  V30 5957 C 573.081 -3.5522 -0.620587 0
M  V30 5958 O 572.185 -3.74864 -1.71902 0
M  V30 5959 H 571.526 -0.662961 -0.0371377 0
M  V30 5960 H 574.056 -1.98033 0.514194 0
M  V30 5961 H 574.066 -3.98081 -0.894197 0
M  V30 5962 H 572.741 -4.15175 0.245407 0
M  V30 5963 H 571.318 -3.43904 -1.44169 0
M  V30 5964 N 573.503 -0.0852151 -1.57369 0
M  V30 5965 C 574.728 0.592872 -1.98746 0
M  V30 5966 C 575.153 1.61538 -0.963689 0
M  V30 5967 O 574.511 1.81168 0.069071 0
M  V30 5968 C 574.559 1.22599 -3.39119 0
M  V30 5969 O 573.663 2.34185 -3.39457 0
M  V30 5970 H 573.004 0.151314 -0.646529 0
M  V30 5971 H 575.534 -0.163703 -2.03944 0
M  V30 5972 H 575.544 1.56965 -3.76598 0
M  V30 5973 H 574.219 0.476831 -4.13158 0
M  V30 5974 H 572.796 2.01512 -3.13763 0
M  V30 5975 N 574.981 1.5647 0.188427 0
M  V30 5976 C 575.911 1.98101 1.23606 0
M  V30 5977 C 576.892 0.853961 1.47111 0
M  V30 5978 O 578.077 1.11879 1.58735 0
M  V30 5979 C 575.207 2.32624 2.57882 0
M  V30 5980 C 574.161 3.48129 2.48978 0
M  V30 5981 C 573.487 3.68347 3.87588 0
M  V30 5982 C 574.787 4.82112 2.00911 0
M  V30 5983 H 576.481 2.85864 0.890068 0
M  V30 5984 H 574.027 1.37532 0.426714 0
M  V30 5985 H 575.98 2.60343 3.3136 0
M  V30 5986 H 574.704 1.41751 2.94235 0
M  V30 5987 H 573.363 3.20511 1.77956 0
M  V30 5988 H 573.011 2.74793 4.21305 0
M  V30 5989 H 572.711 4.46055 3.82503 0
M  V30 5990 H 574.235 3.98449 4.62678 0
M  V30 5991 H 575.649 5.08819 2.64151 0
M  V30 5992 H 574.046 5.63337 2.06814 0
M  V30 5993 H 575.116 4.75249 0.96262 0
M  V30 5994 N 576.459 -0.456382 1.50847 0
M  V30 5995 C 577.407 -1.57318 1.71329 0
M  V30 5996 C 578.401 -1.59187 0.579287 0
M  V30 5997 O 579.607 -1.6316 0.76018 0
M  V30 5998 H 575.982 -0.5223 0.541024 0
M  V30 5999 H 577.953 -1.3721 2.64983 0
M  V30 6000 C 576.702 -2.95142 1.83811 0
M  V30 6001 H 576.025 -2.94428 2.70467 0
M  V30 6002 H 577.465 -3.72702 2.02161 0
M  V30 6003 C 575.924 -3.31636 0.593224 0
M  V30 6004 O 576.454 -4.00852 -0.260898 0
M  V30 6005 N 574.66 -2.87205 0.442902 0
M  V30 6006 H 574.207 -2.31051 1.13901 0
M  V30 6007 H 574.165 -3.11986 -0.38884 0
M  V30 6008 N 577.937 -1.40673 -0.710563 0
M  V30 6009 C 579.185 -1.38947 -1.46759 0
M  V30 6010 C 579.506 0.00572879 -1.94999 0
M  V30 6011 O 578.776 0.961358 -1.70689 0
M  V30 6012 H 577.356 -0.5114 -0.544499 0
M  V30 6013 H 580.018 -1.75773 -0.842012 0
M  V30 6014 H 579.114 -2.06745 -2.33801 0
M  V30 6015 N 579.415 0.9433 -1.26252 0
M  V30 6016 C 580.347 2.04542 -1.03417 0
M  V30 6017 C 581.36 1.62799 0.0046911 0
M  V30 6018 O 582.549 1.76944 -0.235146 0
M  V30 6019 C 579.649 3.34511 -0.543671 0
M  V30 6020 C 578.822 4.05033 -1.65128 0
M  V30 6021 C 577.881 5.13273 -1.1592 0
M  V30 6022 O 576.907 5.38095 -1.85586 0
M  V30 6023 N 578.109 5.805 -0.00649279 0
M  V30 6024 H 580.874 2.24699 -1.98319 0
M  V30 6025 H 578.435 1.11264 -1.1761 0
M  V30 6026 H 580.427 4.04212 -0.198703 0
M  V30 6027 H 578.997 3.11042 0.311711 0
M  V30 6028 H 578.217 3.29275 -2.16729 0
M  V30 6029 H 579.505 4.48903 -2.39508 0
M  V30 6030 H 578.903 5.62767 0.575347 0
M  V30 6031 H 577.46 6.51201 0.279416 0
M  V30 6032 N 580.893 1.08022 1.14757 0
M  V30 6033 C 581.823 0.728248 2.21853 0
M  V30 6034 C 582.804 -0.287486 1.67653 0
M  V30 6035 O 583.989 -0.158727 1.9355 0
M  V30 6036 C 581.119 0.132549 3.47047 0
M  V30 6037 C 580.073 1.07619 4.14249 0
M  V30 6038 C 579.399 0.342907 5.33599 0
M  V30 6039 C 580.699 2.41268 4.63235 0
M  V30 6040 H 582.393 1.62365 2.51551 0
M  V30 6041 H 579.939 0.782125 1.20908 0
M  V30 6042 H 581.892 -0.125665 4.21213 0
M  V30 6043 H 580.616 -0.797971 3.16702 0
M  V30 6044 H 579.275 1.31944 3.42033 0
M  V30 6045 H 578.923 -0.59129 4.99513 0
M  V30 6046 H 578.623 0.971955 5.79506 0
M  V30 6047 H 580.147 0.0926538 6.1053 0
M  V30 6048 H 581.561 2.21232 5.28894 0
M  V30 6049 H 579.958 2.9983 5.19829 0
M  V30 6050 H 581.028 3.03079 3.78512 0
M  V30 6051 N 582.371 -1.3172 0.865308 0
M  V30 6052 C 583.303 -2.27545 0.274906 0
M  V30 6053 C 584.316 -1.52887 -0.559413 0
M  V30 6054 O 585.505 -1.74361 -0.382166 0
M  V30 6055 C 582.605 -3.33006 -0.629286 0
M  V30 6056 C 581.778 -4.37063 0.171553 0
M  V30 6057 C 580.837 -5.22044 -0.660052 0
M  V30 6058 O 579.863 -5.69129 -0.0897527 0
M  V30 6059 N 581.065 -5.45946 -1.97289 0
M  V30 6060 H 583.83 -2.78848 1.09836 0
M  V30 6061 H 581.391 -1.44693 0.726331 0
M  V30 6062 H 583.383 -3.86772 -1.19121 0
M  V30 6063 H 581.953 -2.81782 -1.35342 0
M  V30 6064 H 581.173 -3.83436 0.914919 0
M  V30 6065 H 582.461 -5.03662 0.721235 0
M  V30 6066 H 581.859 -5.0944 -2.45942 0
M  V30 6067 H 580.416 -6.02665 -2.4827 0
M  V30 6068 N 583.85 -0.624285 -1.44708 0
M  V30 6069 C 585.075 -0.131171 -2.06985 0
M  V30 6070 C 585.5 1.18234 -1.46295 0
M  V30 6071 O 584.858 1.72375 -0.561842 0
M  V30 6072 C 584.906 -0.0226724 -3.60593 0
M  V30 6073 O 584.01 1.02314 -3.99507 0
M  V30 6074 H 583.351 -0.0816556 -0.65896 0
M  V30 6075 H 585.88 -0.859027 -1.85693 0
M  V30 6076 H 585.891 0.170138 -4.07645 0
M  V30 6077 H 584.566 -0.981685 -4.04148 0
M  V30 6078 H 583.143 0.805452 -3.64097 0
M  V30 6079 N 585.328 1.53329 -0.364422 0
M  V30 6080 C 586.238 2.29414 0.490552 0
M  V30 6081 C 587.254 1.35335 1.09363 0
M  V30 6082 O 588.43 1.68391 1.10483 0
M  V30 6083 C 585.495 3.06772 1.61529 0
M  V30 6084 C 584.556 4.16516 1.03986 0
M  V30 6085 C 583.789 4.90176 2.111 0
M  V30 6086 O 584.012 4.63687 3.32191 0
M  V30 6087 O 582.946 5.76134 1.74222 0
M  V30 6088 H 586.772 3.03428 -0.12856 0
M  V30 6089 H 584.357 1.48843 -0.128837 0
M  V30 6090 H 586.239 3.55082 2.26924 0
M  V30 6091 H 584.914 2.35596 2.21983 0
M  V30 6092 H 583.821 3.7246 0.349856 0
M  V30 6093 H 585.154 4.89855 0.4799 0
M  V30 6094 N 586.806 0.0935595 1.57322 0
M  V30 6095 C 588.052 -0.571355 1.94585 0
M  V30 6096 C 588.385 -1.67929 0.975366 0
M  V30 6097 O 587.66 -1.94498 0.00816206 0
M  V30 6098 C 587.943 -1.12797 3.41978 0
M  V30 6099 C 587.796 -0.0251881 4.49793 0
M  V30 6100 C 589.115 -2.02682 3.90651 0
M  V30 6101 H 586.234 -0.206223 0.70756 0
M  V30 6102 H 588.876 0.163956 1.89291 0
M  V30 6103 H 587.026 -1.75461 3.4662 0
M  V30 6104 H 588.698 0.608979 4.57263 0
M  V30 6105 H 586.941 0.641399 4.29032 0
M  V30 6106 H 587.612 -0.455433 5.50118 0
M  V30 6107 H 590.088 -1.49925 3.88152 0
M  V30 6108 H 588.964 -2.38555 4.94351 0
M  V30 6109 H 589.225 -2.94362 3.29854 0
M  V30 6110 N 588.284 -1.56567 -0.180126 0
M  V30 6111 C 589.512 -1.85618 -0.913972 0
M  V30 6112 C 589.927 -0.677892 -1.7621 0
M  V30 6113 O 589.284 0.353171 -1.7905 0
M  V30 6114 C 589.335 -3.13619 -1.79793 0
M  V30 6115 O 589.056 -4.26906 -0.98402 0
M  V30 6116 C 590.557 -3.55954 -2.64219 0
M  V30 6117 H 587.777 -0.616043 -0.265954 0
M  V30 6118 H 590.321 -2.03681 -0.182872 0
M  V30 6119 H 588.476 -2.97409 -2.48247 0
M  V30 6120 H 588.89 -4.9989 -1.58776 0
M  V30 6121 H 590.364 -4.48444 -3.21873 0
M  V30 6122 H 590.841 -2.79653 -3.38661 0
M  V30 6123 H 591.447 -3.74746 -2.01111 0
M  V30 6124 N 589.762 0.448376 -1.51087 0
M  V30 6125 C 590.692 1.55102 -1.74544 0
M  V30 6126 C 591.673 1.59357 -0.594932 0
M  V30 6127 O 592.858 1.75261 -0.836491 0
M  V30 6128 C 589.988 2.93268 -1.86041 0
M  V30 6129 C 588.942 3.03877 -3.01402 0
M  V30 6130 C 588.268 4.43914 -2.98068 0
M  V30 6131 C 589.568 2.7898 -4.41551 0
M  V30 6132 H 591.262 1.35724 -2.66869 0
M  V30 6133 H 588.808 0.651498 -1.28419 0
M  V30 6134 H 590.761 3.70356 -2.01034 0
M  V30 6135 H 589.485 3.13853 -0.903548 0
M  V30 6136 H 588.144 2.29227 -2.86096 0
M  V30 6137 H 587.792 4.6145 -2.00182 0
M  V30 6138 H 587.492 4.51944 -3.75527 0
M  V30 6139 H 589.016 5.22991 -3.1514 0
M  V30 6140 H 590.43 3.45805 -4.57265 0
M  V30 6141 H 588.827 2.98431 -5.20633 0
M  V30 6142 H 589.897 1.74663 -4.5235 0
M  V30 6143 N 591.24 1.41047 0.703093 0
M  V30 6144 C 592.17 1.45067 1.82969 0
M  V30 6145 C 593.151 0.31016 1.67248 0
M  V30 6146 O 594.336 0.520548 1.87093 0
M  V30 6147 C 591.466 1.32478 3.2104 0
M  V30 6148 C 590.42 2.44262 3.51454 0
M  V30 6149 C 589.746 2.16742 4.88801 0
M  V30 6150 C 591.046 3.86606 3.51189 0
M  V30 6151 H 592.74 2.39353 1.79863 0
M  V30 6152 H 590.286 1.15206 0.863919 0
M  V30 6153 H 592.239 1.33904 3.99559 0
M  V30 6154 H 590.963 0.346735 3.24754 0
M  V30 6155 H 589.622 2.42107 2.75282 0
M  V30 6156 H 589.27 1.17299 4.89132 0
M  V30 6157 H 588.97 2.91643 5.10116 0
M  V30 6158 H 590.494 2.19872 5.69639 0
M  V30 6159 H 591.908 3.90517 4.19725 0
M  V30 6160 H 590.305 4.61128 3.84033 0
M  V30 6161 H 591.375 4.15296 2.50315 0
M  V30 6162 N 592.718 -0.936591 1.26751 0
M  V30 6163 C 594.134 -1.21095 1.03963 0
M  V30 6164 C 594.334 -2.00156 -0.232372 0
M  V30 6165 O 593.39 -2.3434 -0.940274 0
M  V30 6166 C 594.703 -1.96775 2.27377 0
M  V30 6167 C 596.251 -2.09749 2.32324 0
M  V30 6168 C 596.726 -2.88832 3.55443 0
M  V30 6169 N 598.217 -2.96404 3.55948 0
M  V30 6170 C 598.952 -3.58036 4.47881 0
M  V30 6171 N 598.448 -4.21132 5.50109 0
M  V30 6172 N 600.241 -3.55353 4.35523 0
M  V30 6173 H 592.392 -0.408173 2.08441 0
M  V30 6174 H 594.655 -0.243139 0.91629 0
M  V30 6175 H 594.361 -1.46094 3.19921 0
M  V30 6176 H 594.235 -2.97424 2.31989 0
M  V30 6177 H 596.622 -2.5962 1.40291 0
M  V30 6178 H 596.703 -1.08347 2.31721 0
M  V30 6179 H 596.347 -2.39647 4.47808 0
M  V30 6180 H 596.277 -3.90499 3.53296 0
M  V30 6181 H 598.768 -2.51552 2.82011 0
M  V30 6182 H 599.081 -4.66071 6.16439 0
M  V30 6183 H 597.426 -4.19705 5.53961 0
M  V30 6184 H 600.617 -3.05256 3.54875 0
M  V30 6185 H 600.79 -4.03097 5.07363 0
M  V30 6186 N 594.196 -1.08629 -1.14182 0
M  V30 6187 C 595.144 -0.71284 -2.21408 0
M  V30 6188 C 596.138 0.282457 -1.67029 0
M  V30 6189 O 597.344 0.144783 -1.79417 0
M  V30 6190 H 593.719 -0.212497 -0.721352 0
M  V30 6191 H 595.69 -1.6265 -2.50175 0
M  V30 6192 C 594.439 -0.140704 -3.47415 0
M  V30 6193 H 593.762 -0.897739 -3.8959 0
M  V30 6194 H 595.202 0.0827677 -4.23919 0
M  V30 6195 C 593.661 1.122 -3.17668 0
M  V30 6196 O 594.191 2.20652 -3.35672 0
M  V30 6197 N 592.397 1.03328 -2.71609 0
M  V30 6198 H 591.944 0.150666 -2.57159 0
M  V30 6199 H 591.902 1.8789 -2.52081 0
M  V30 6200 N 595.674 1.31259 -0.872281 0
M  V30 6201 C 596.584 2.32221 -0.333255 0
M  V30 6202 C 597.6 1.6481 0.558013 0
M  V30 6203 O 598.776 1.96212 0.454175 0
M  V30 6204 C 595.841 3.43708 0.454479 0
M  V30 6205 C 594.902 4.26774 -0.465024 0
M  V30 6206 C 594.135 5.32937 0.28521 0
M  V30 6207 O 594.358 5.49968 1.513 0
M  V30 6208 O 593.292 6.00834 -0.358126 0
M  V30 6209 H 597.118 2.80252 -1.17016 0
M  V30 6210 H 594.703 1.352 -0.635724 0
M  V30 6211 H 596.585 4.11656 0.900963 0
M  V30 6212 H 595.26 2.97836 1.26789 0
M  V30 6213 H 594.167 3.61571 -0.960055 0
M  V30 6214 H 595.5 4.76217 -1.2441 0
M  V30 6215 N 597.152 0.631951 1.44375 0
M  V30 6216 C 598.398 0.13697 2.02337 0
M  V30 6217 C 598.731 -1.23826 1.49602 0
M  V30 6218 O 598.006 -1.8221 0.680415 0
M  V30 6219 C 598.289 0.124536 3.59885 0
M  V30 6220 C 598.142 1.53217 4.229 0
M  V30 6221 C 599.461 -0.550481 4.36644 0
M  V30 6222 H 596.58 0.051247 0.735216 0
M  V30 6223 H 599.222 0.808581 1.71936 0
M  V30 6224 H 597.372 -0.44737 3.85916 0
M  V30 6225 H 599.044 2.15303 4.07973 0
M  V30 6226 H 597.287 2.0858 3.80364 0
M  V30 6227 H 597.958 1.4755 5.31914 0
M  V30 6228 H 600.434 -0.0641154 4.16051 0
M  V30 6229 H 599.31 -0.528371 5.46351 0
M  V30 6230 H 599.571 -1.62097 4.11311 0
M  V30 6231 N 598.631 -1.53133 0.372548 0
M  V30 6232 C 599.594 -2.24569 -0.458389 0
M  V30 6233 C 600.594 -1.25603 -1.00402 0
M  V30 6234 O 601.784 -1.49827 -0.888672 0
M  V30 6235 C 598.916 -2.98783 -1.6414 0
M  V30 6236 H 600.109 -2.99436 0.166799 0
M  V30 6237 H 597.662 -1.55805 0.124357 0
M  V30 6238 H 598.397 -2.28176 -2.30448 0
M  V30 6239 H 598.182 -3.71404 -1.25704 0
M  V30 6240 H 599.672 -3.53068 -2.23008 0
M  V30 6241 N 600.109 -0.101901 -1.5727 0
M  V30 6242 C 601.041 0.884723 -2.11436 0
M  V30 6243 C 602.054 1.24149 -1.05314 0
M  V30 6244 O 603.243 1.19341 -1.3274 0
M  V30 6245 C 600.343 2.19179 -2.58484 0
M  V30 6246 C 599.516 2.00933 -3.88516 0
M  V30 6247 C 598.575 3.15213 -4.2134 0
M  V30 6248 O 597.601 2.88877 -4.90448 0
M  V30 6249 N 598.803 4.41174 -3.77288 0
M  V30 6250 H 601.568 0.422058 -2.96713 0
M  V30 6251 H 599.129 0.0830128 -1.61687 0
M  V30 6252 H 601.121 2.94593 -2.77484 0
M  V30 6253 H 599.691 2.56847 -1.7818 0
M  V30 6254 H 598.911 1.09809 -3.78597 0
M  V30 6255 H 600.199 1.86026 -4.73573 0
M  V30 6256 H 599.597 4.6545 -3.21516 0
M  V30 6257 H 598.154 5.13515 -4.01429 0
M  V30 6258 N 601.587 1.56661 0.17182 0
M  V30 6259 C 602.517 1.99401 1.21498 0
M  V30 6260 C 603.498 0.869516 1.46197 0
M  V30 6261 O 604.683 1.13556 1.57539 0
M  V30 6262 C 601.813 2.35346 2.55401 0
M  V30 6263 C 600.767 3.5075 2.45272 0
M  V30 6264 C 600.093 3.72437 3.8366 0
M  V30 6265 C 601.393 4.84216 1.95787 0
M  V30 6266 H 603.087 2.86792 0.859699 0
M  V30 6267 H 600.633 1.37977 0.412103 0
M  V30 6268 H 602.586 2.63843 3.2858 0
M  V30 6269 H 601.31 1.44864 2.92715 0
M  V30 6270 H 599.969 3.2238 1.74547 0
M  V30 6271 H 599.617 2.79246 4.18367 0
M  V30 6272 H 599.317 4.50087 3.77751 0
M  V30 6273 H 600.841 4.03334 4.58426 0
M  V30 6274 H 602.255 5.11592 2.5874 0
M  V30 6275 H 600.652 5.65498 2.00827 0
M  V30 6276 H 601.722 4.76243 0.912159 0
M  V30 6277 N 603.065 -0.440357 1.51323 0
M  V30 6278 C 604.012 -1.53429 1.72419 0
M  V30 6279 C 604.982 -1.56165 0.565826 0
M  V30 6280 O 606.167 -1.73222 0.799917 0
M  V30 6281 C 603.307 -2.91169 1.85242 0
M  V30 6282 C 602.42 -2.97985 3.12777 0
M  V30 6283 C 601.555 -4.26829 3.16212 0
M  V30 6284 C 600.594 -4.27501 4.38074 0
M  V30 6285 N 599.731 -5.47866 4.39076 0
M  V30 6286 H 604.571 -1.34743 2.65797 0
M  V30 6287 H 602.108 -0.654608 1.31732 0
M  V30 6288 H 604.066 -3.71087 1.90658 0
M  V30 6289 H 602.696 -3.0842 0.952744 0
M  V30 6290 H 601.748 -2.10749 3.16685 0
M  V30 6291 H 603.06 -2.94342 4.02696 0
M  V30 6292 H 602.214 -5.15118 3.20527 0
M  V30 6293 H 600.953 -4.33124 2.24176 0
M  V30 6294 H 599.958 -3.37606 4.33938 0
M  V30 6295 H 601.183 -4.22873 5.31371 0
M  V30 6296 H 599.129 -5.54887 3.49909 0
M  V30 6297 H 599.046 -5.46091 5.22801 0
M  V30 6298 H 600.314 -6.38195 4.4758 0
M  V30 6299 N 604.543 -1.41418 -0.695603 0
M  V30 6300 C 605.475 -1.39195 -1.82092 0
M  V30 6301 C 606.488 -0.294132 -1.60121 0
M  V30 6302 O 607.677 -0.555854 -1.69625 0
M  V30 6303 C 604.777 -1.14828 -3.18854 0
M  V30 6304 C 603.95 -2.36649 -3.67853 0
M  V30 6305 C 603.009 -2.08139 -4.83285 0
M  V30 6306 O 602.035 -2.81177 -4.94902 0
M  V30 6307 N 603.237 -1.07162 -5.70523 0
M  V30 6308 H 606.002 -2.36185 -1.84491 0
M  V30 6309 H 603.563 -1.3603 -0.877923 0
M  V30 6310 H 605.555 -0.937075 -3.93702 0
M  V30 6311 H 604.125 -0.264358 -3.1148 0
M  V30 6312 H 603.345 -2.73472 -2.83913 0
M  V30 6313 H 604.633 -3.17816 -3.97329 0
M  V30 6314 H 604.031 -0.467124 -5.63768 0
M  V30 6315 H 602.588 -0.920311 -6.4527 0
M  V30 6316 N 606.021 0.929856 -1.27246 0
M  V30 6317 C 606.951 2.04722 -1.12299 0
M  V30 6318 C 607.932 1.70082 -0.0250464 0
M  V30 6319 O 609.117 1.93176 -0.199141 0
M  V30 6320 C 606.247 3.38721 -0.767145 0
M  V30 6321 C 605.201 3.87466 -1.81808 0
M  V30 6322 C 604.527 5.18246 -1.31626 0
M  V30 6323 C 605.827 4.11095 -3.22177 0
M  V30 6324 H 607.521 2.17485 -2.05769 0
M  V30 6325 H 605.067 1.04503 -0.990715 0
M  V30 6326 H 607.02 4.16366 -0.649413 0
M  V30 6327 H 605.744 3.25967 0.203259 0
M  V30 6328 H 604.403 3.12012 -1.92468 0
M  V30 6329 H 604.051 5.01881 -0.335378 0
M  V30 6330 H 603.751 5.51829 -2.01887 0
M  V30 6331 H 605.275 5.98462 -1.21143 0
M  V30 6332 H 606.689 4.79316 -3.1453 0
M  V30 6333 H 605.086 4.55982 -3.90129 0
M  V30 6334 H 606.156 3.16468 -3.67391 0
M  V30 6335 N 607.499 1.09233 1.13605 0
M  V30 6336 C 608.429 0.751738 2.21068 0
M  V30 6337 C 609.41 -0.269688 1.67948 0
M  V30 6338 O 610.595 -0.13819 1.93708 0
M  V30 6339 C 607.725 0.16935 3.46887 0
M  V30 6340 C 606.679 1.12007 4.13084 0
M  V30 6341 C 606.005 0.399483 5.33206 0
M  V30 6342 C 607.305 2.46168 4.6065 0
M  V30 6343 H 608.999 1.65024 2.49815 0
M  V30 6344 H 606.545 0.794905 1.20072 0
M  V30 6345 H 608.498 -0.0809824 4.21322 0
M  V30 6346 H 607.222 -0.764335 3.1753 0
M  V30 6347 H 605.881 1.35564 3.40614 0
M  V30 6348 H 605.529 -0.538277 5.00112 0
M  V30 6349 H 605.229 1.03337 5.78442 0
M  V30 6350 H 606.753 0.157403 6.10397 0
M  V30 6351 H 608.167 2.26829 5.26518 0
M  V30 6352 H 606.564 3.05326 5.1662 0
M  V30 6353 H 607.634 3.07076 3.75276 0
M  V30 6354 N 608.977 -1.30795 0.87923 0
M  V30 6355 C 609.907 -2.30742 0.357796 0
M  V30 6356 C 610.888 -1.60747 -0.556283 0
M  V30 6357 O 612.073 -1.88393 -0.47135 0
M  V30 6358 C 609.203 -3.44583 -0.433555 0
M  V30 6359 C 608.157 -4.26235 0.388251 0
M  V30 6360 C 607.483 -5.32073 -0.529352 0
M  V30 6361 C 608.783 -4.96303 1.62729 0
M  V30 6362 H 610.477 -2.74605 1.19299 0
M  V30 6363 H 608.023 -1.32017 0.575104 0
M  V30 6364 H 609.976 -4.13563 -0.808934 0
M  V30 6365 H 608.7 -2.99511 -1.30234 0
M  V30 6366 H 607.359 -3.58936 0.745695 0
M  V30 6367 H 607.007 -4.83249 -1.39569 0
M  V30 6368 H 606.707 -5.87598 0.0166741 0
M  V30 6369 H 608.231 -6.0391 -0.901373 0
M  V30 6370 H 609.645 -5.5783 1.32283 0
M  V30 6371 H 608.042 -5.61666 2.11309 0
M  V30 6372 H 609.112 -4.22758 2.37494 0
M  V30 6373 N 610.455 -0.639598 -1.44038 0
M  V30 6374 C 611.418 0.0506628 -2.29144 0
M  V30 6375 C 612.418 0.764001 -1.41491 0
M  V30 6376 O 613.608 0.607309 -1.63271 0
M  V30 6377 C 610.74 1.0824 -3.2326 0
M  V30 6378 H 611.933 -0.697987 -2.91664 0
M  V30 6379 H 609.486 -0.400146 -1.51091 0
M  V30 6380 H 610.221 1.86075 -2.65606 0
M  V30 6381 H 610.006 0.574725 -3.87865 0
M  V30 6382 H 611.496 1.56487 -3.87171 0
M  V30 6383 N 611.933 1.52934 -0.380664 0
M  V30 6384 C 612.883 2.22989 0.475399 0
M  V30 6385 C 613.867 1.23058 1.03661 0
M  V30 6386 O 615.059 1.48436 0.964146 0
M  V30 6387 C 612.188 3.0338 1.60671 0
M  V30 6388 C 611.274 4.107 1.05766 0
M  V30 6389 N 611.665 5.05264 0.232837 0
M  V30 6390 C 609.963 4.25676 1.33101 0
M  V30 6391 C 610.664 5.81658 -0.0695134 0
M  V30 6392 N 609.64 5.40989 0.532144 0
M  V30 6393 H 613.442 2.93456 -0.161418 0
M  V30 6394 H 610.956 1.61291 -0.189495 0
M  V30 6395 H 612.953 3.52098 2.23232 0
M  V30 6396 H 611.613 2.34446 2.24644 0
M  V30 6397 H 612.624 5.17739 -0.129204 0
M  V30 6398 H 609.301 3.6797 1.97241 0
M  V30 6399 H 610.691 6.67843 -0.737269 0
M  V30 6400 N 613.412 0.11024 1.57214 0
M  V30 6401 C 614.359 -0.843195 2.14846 0
M  V30 6402 C 615.329 -1.26954 1.07107 0
M  V30 6403 O 616.514 -1.34861 1.34971 0
M  V30 6404 C 613.654 -2.09123 2.74521 0
M  V30 6405 C 612.767 -1.71404 3.96541 0
M  V30 6406 C 611.902 -2.91107 4.44331 0
M  V30 6407 C 610.941 -2.49586 5.58903 0
M  V30 6408 N 610.078 -3.62175 6.01477 0
M  V30 6409 H 614.918 -0.344886 2.95998 0
M  V30 6410 H 612.455 -0.15855 1.46243 0
M  V30 6411 H 614.413 -2.82234 3.07246 0
M  V30 6412 H 613.043 -2.56427 1.96074 0
M  V30 6413 H 612.095 -0.88201 3.70033 0
M  V30 6414 H 613.407 -1.36884 4.7965 0
M  V30 6415 H 612.561 -3.72454 4.78919 0
M  V30 6416 H 611.3 -3.28848 3.60153 0
M  V30 6417 H 610.305 -1.6667 5.23929 0
M  V30 6418 H 611.53 -2.12973 6.4484 0
M  V30 6419 H 609.476 -3.99605 5.20242 0
M  V30 6420 H 609.393 -3.3155 6.79419 0
M  V30 6421 H 610.661 -4.43987 6.407 0
M  V30 6422 N 614.89 -1.56749 -0.16351 0
M  V30 6423 C 616.167 -1.73321 -0.906599 0
M  V30 6424 C 616.547 -0.673779 -2.00059 0
M  V30 6425 O 615.895 0.310121 -2.26386 0
M  V30 6426 C 616.105 -3.168 -1.46419 0
M  V30 6427 C 617.453 -3.77993 -1.93407 0
M  V30 6428 O 618.477 -3.20127 -1.56196 0
M  V30 6429 O 617.336 -4.79615 -2.61976 0
M  V30 6430 H 614.43 -0.708073 -0.427272 0
M  V30 6431 H 616.976 -1.69029 -0.150727 0
M  V30 6432 H 615.748 -3.85396 -0.677189 0
M  V30 6433 H 615.371 -3.2545 -2.28403 0
M  V30 6434 N 616.368 0.432326 -1.51554 0
M  V30 6435 C 617.608 1.19076 -1.66133 0
M  V30 6436 C 617.972 1.88364 -0.371873 0
M  V30 6437 O 619.173 2.65904 -0.39349 0
M  V30 6438 C 617.444 2.1768 -2.83461 0
M  V30 6439 S 619.003 3.01943 -3.18396 0
M  V30 6440 H 615.821 0.403735 -0.585251 0
M  V30 6441 H 618.423 0.481554 -1.89476 0
M  V30 6442 H 617.127 1.65424 -3.75583 0
M  V30 6443 H 616.658 2.93174 -2.62322 0
M  V30 6444 H 618.673 4.19373 -2.65219 0
M  V30 6445 N 617.846 1.41785 0.688094 0
M  V30 6446 C 619.257 1.3701 1.26828 0
M  V30 6447 C 619.608 0.056835 1.96118 0
M  V30 6448 O 618.733 -0.84475 1.99231 0
M  V30 6449 C 619.328 2.48168 2.30648 0
M  V30 6450 C 617.887 2.46766 2.84224 0
M  V30 6451 C 617.034 2.27633 1.58361 0
M  V30 6452 H 619.985 1.51192 0.482351 0
M  V30 6453 H 620.006 2.17655 3.121 0
M  V30 6454 H 619.518 3.43735 1.80188 0
M  V30 6455 H 617.619 1.54978 3.3884 0
M  V30 6456 H 617.732 3.43342 3.34145 0
M  V30 6457 H 616.096 1.75648 1.84445 0
M  V30 6458 H 616.879 3.25238 1.09887 0
M  V30 6459 N 619.324 -0.923095 1.27737 0
M  V30 6460 C 620.57 -1.67375 1.14514 0
M  V30 6461 C 620.903 -1.91751 -0.307424 0
M  V30 6462 O 620.178 -1.51119 -1.22447 0
M  V30 6463 C 620.461 -3.03745 1.9342 0
M  V30 6464 C 620.314 -2.86581 3.46686 0
M  V30 6465 C 621.633 -4.04144 1.74228 0
M  V30 6466 H 618.752 -0.607427 0.417374 0
M  V30 6467 H 621.394 -1.07089 1.56946 0
M  V30 6468 H 619.544 -3.55204 1.5736 0
M  V30 6469 H 621.216 -2.42203 3.92601 0
M  V30 6470 H 619.459 -2.21829 3.72793 0
M  V30 6471 H 620.13 -3.83381 3.97143 0
M  V30 6472 H 622.606 -3.61712 2.05678 0
M  V30 6473 H 621.482 -4.97543 2.31824 0
M  V30 6474 H 621.743 -4.36661 0.691373 0
M  V30 6475 N 620.802 -1.09834 -1.13024 0
M  V30 6476 C 622.03 -0.858902 -1.8823 0
M  V30 6477 C 622.445 0.590164 -1.79339 0
M  V30 6478 O 621.802 1.4065 -1.16292 0
M  V30 6479 C 621.853 -1.29066 -3.37675 0
M  V30 6480 O 621.574 -2.6829 -3.46341 0
M  V30 6481 C 623.075 -1.08421 -4.29837 0
M  V30 6482 H 620.295 -0.308713 -0.595766 0
M  V30 6483 H 622.839 -1.4614 -1.4305 0
M  V30 6484 H 620.994 -0.731961 -3.80422 0
M  V30 6485 H 621.408 -2.86598 -4.39274 0
M  V30 6486 H 622.882 -1.43553 -5.33007 0
M  V30 6487 H 623.359 -0.0223315 -4.39194 0
M  V30 6488 H 623.965 -1.62907 -3.92863 0
M  V30 6489 N 622.28 1.30327 -0.886154 0
M  V30 6490 C 623.243 2.26376 -0.358687 0
M  V30 6491 C 624.243 1.52845 0.499498 0
M  V30 6492 O 625.433 1.71483 0.306485 0
M  V30 6493 C 622.565 3.37379 0.488726 0
M  V30 6494 H 623.758 2.74547 -1.20681 0
M  V30 6495 H 621.311 1.41536 -0.663113 0
M  V30 6496 H 622.046 2.94526 1.35739 0
M  V30 6497 H 621.831 3.91897 -0.126003 0
M  V30 6498 H 623.321 4.08868 0.84952 0
M  V30 6499 N 623.758 0.647228 1.43697 0
M  V30 6500 C 624.691 -0.097646 2.27991 0
M  V30 6501 C 625.669 -0.83571 1.3948 0
M  V30 6502 O 626.853 -0.836509 1.68922 0
M  V30 6503 C 623.98 -1.14484 3.18765 0
M  V30 6504 C 623.026 -0.505503 4.23494 0
M  V30 6505 S 623.859 0.716471 5.30685 0
M  V30 6506 C 625.015 -0.330339 6.25028 0
M  V30 6507 H 625.248 0.617417 2.90818 0
M  V30 6508 H 622.781 0.435881 1.4812 0
M  V30 6509 H 624.739 -1.74403 3.7161 0
M  V30 6510 H 623.4 -1.83219 2.55127 0
M  V30 6511 H 622.593 -1.29473 4.87086 0
M  V30 6512 H 622.195 0.0194377 3.73995 0
M  V30 6513 H 624.487 -1.19828 6.66819 0
M  V30 6514 H 625.43 0.270409 7.07583 0
M  V30 6515 H 625.838 -0.663459 5.60588 0
M  V30 6516 N 625.236 -1.5273 0.388769 0
M  V30 6517 C 626.168 -2.24081 -0.481704 0
M  V30 6518 C 627.181 -1.26307 -1.02715 0
M  V30 6519 O 628.37 -1.52386 -0.929565 0
M  V30 6520 C 625.47 -2.94315 -1.68024 0
M  V30 6521 C 624.643 -4.18791 -1.26226 0
M  V30 6522 C 623.702 -4.72028 -2.32542 0
M  V30 6523 O 622.728 -5.35129 -1.93972 0
M  V30 6524 N 623.93 -4.51838 -3.64448 0
M  V30 6525 H 626.695 -2.9942 0.129591 0
M  V30 6526 H 624.256 -1.60465 0.2151 0
M  V30 6527 H 626.248 -3.26831 -2.38671 0
M  V30 6528 H 624.818 -2.22287 -2.19789 0
M  V30 6529 H 624.038 -3.92318 -0.384703 0
M  V30 6530 H 625.326 -4.99668 -0.959647 0
M  V30 6531 H 624.724 -4.01468 -3.98547 0
M  V30 6532 H 623.281 -4.88845 -4.31131 0
M  V30 6533 N 626.714 -0.118576 -1.57153 0
M  V30 6534 C 627.661 0.831789 -2.1529 0
M  V30 6535 C 628.631 1.26385 -1.07778 0
M  V30 6536 O 629.816 1.34144 -1.35684 0
M  V30 6537 C 626.956 2.07664 -2.75626 0
M  V30 6538 C 626.069 1.69298 -3.97444 0
M  V30 6539 C 625.204 2.88747 -4.45868 0
M  V30 6540 C 624.243 2.46619 -5.60219 0
M  V30 6541 N 623.38 3.5898 -6.03389 0
M  V30 6542 H 628.22 0.329183 -2.96176 0
M  V30 6543 H 625.757 0.150792 -1.46325 0
M  V30 6544 H 627.715 2.80601 -3.08738 0
M  V30 6545 H 626.345 2.55384 -1.97431 0
M  V30 6546 H 625.397 0.862374 -3.70496 0
M  V30 6547 H 626.709 1.34338 -4.80369 0
M  V30 6548 H 625.863 3.69909 -4.80887 0
M  V30 6549 H 624.602 3.26933 -3.61892 0
M  V30 6550 H 623.607 1.63889 -5.24805 0
M  V30 6551 H 624.832 2.0955 -6.45961 0
M  V30 6552 H 622.778 3.9684 -5.22354 0
M  V30 6553 H 622.695 3.27942 -6.81168 0
M  V30 6554 H 623.963 4.40583 -6.43045 0
M  V30 6555 N 628.193 1.56834 0.155195 0
M  V30 6556 C 629.14 1.97646 1.19184 0
M  V30 6557 C 630.11 0.842788 1.4313 0
M  V30 6558 O 631.295 1.1042 1.55602 0
M  V30 6559 C 628.435 2.35527 2.52232 0
M  V30 6560 C 627.548 3.62147 2.35529 0
M  V30 6561 C 626.683 3.89167 3.61555 0
M  V30 6562 C 625.722 5.09084 3.39853 0
M  V30 6563 N 624.859 5.32156 4.5799 0
M  V30 6564 H 629.699 2.8601 0.836802 0
M  V30 6565 H 627.236 1.41507 0.401758 0
M  V30 6566 H 629.194 2.55516 3.29799 0
M  V30 6567 H 627.824 1.50253 2.85699 0
M  V30 6568 H 626.876 3.4998 1.49057 0
M  V30 6569 H 628.188 4.49871 2.15448 0
M  V30 6570 H 627.342 4.09611 4.47553 0
M  V30 6571 H 626.081 2.9985 3.84632 0
M  V30 6572 H 625.086 4.88522 2.52243 0
M  V30 6573 H 626.311 5.99947 3.18183 0
M  V30 6574 H 624.257 4.45791 4.81255 0
M  V30 6575 H 624.174 6.14133 4.40882 0
M  V30 6576 H 625.442 5.57091 5.45225 0
M  V30 6577 N 629.671 -0.424282 1.51781 0
M  V30 6578 C 630.896 -1.19928 1.6921 0
M  V30 6579 C 631.321 -1.8392 0.394355 0
M  V30 6580 O 630.679 -1.69371 -0.646778 0
M  V30 6581 C 630.727 -2.24937 2.81843 0
M  V30 6582 O 629.831 -3.3073 2.46356 0
M  V30 6583 H 629.172 -0.35078 0.563781 0
M  V30 6584 H 631.702 -0.499401 1.98412 0
M  V30 6585 H 631.712 -2.69512 3.06312 0
M  V30 6586 H 630.387 -1.77742 3.76006 0
M  V30 6587 H 628.964 -2.9154 2.32505 0
M  V30 6588 N 631.149 -1.42148 -0.680565 0
M  V30 6589 C 632.397 -1.42029 -1.43779 0
M  V30 6590 C 632.718 -0.0356347 -1.94967 0
M  V30 6591 O 631.988 0.924936 -1.7269 0
M  V30 6592 H 630.568 -0.522835 -0.533529 0
M  V30 6593 H 633.23 -1.7752 -0.804538 0
M  V30 6594 H 632.326 -2.11658 -2.29363 0
M  V30 6595 N 632.627 0.916307 -1.28225 0
M  V30 6596 C 633.857 1.69654 -1.17902 0
M  V30 6597 C 634.265 1.87331 0.265268 0
M  V30 6598 O 633.608 1.39828 1.19137 0
M  V30 6599 C 633.67 3.11024 -1.80289 0
M  V30 6600 C 633.334 3.16643 -3.29525 0
M  V30 6601 C 634.331 2.98032 -4.25997 0
M  V30 6602 C 632.016 3.39238 -3.70436 0
M  V30 6603 C 634.01 3.01924 -5.61356 0
M  V30 6604 C 631.697 3.42762 -5.05922 0
M  V30 6605 C 632.695 3.24125 -6.01192 0
M  V30 6606 O 632.383 3.27406 -7.34208 0
M  V30 6607 H 632.115 0.537197 -0.41036 0
M  V30 6608 H 634.669 1.15547 -1.69817 0
M  V30 6609 H 632.899 3.66662 -1.22865 0
M  V30 6610 H 634.588 3.71063 -1.6452 0
M  V30 6611 H 635.354 2.80405 -3.95725 0
M  V30 6612 H 631.233 3.52791 -2.96749 0
M  V30 6613 H 634.777 2.87295 -6.35694 0
M  V30 6614 H 630.674 3.59916 -5.35846 0
M  V30 6615 H 631.442 3.43784 -7.42802 0
M  V30 6616 N 634.105 1.10431 1.1244 0
M  V30 6617 C 635.055 0.722378 2.16254 0
M  V30 6618 C 636.039 -0.268427 1.58645 0
M  V30 6619 O 637.231 -0.077169 1.76832 0
M  V30 6620 C 634.36 0.155763 3.42946 0
M  V30 6621 C 633.446 1.17361 4.07538 0
M  V30 6622 N 633.837 2.36429 4.47141 0
M  V30 6623 C 632.135 1.01412 4.34317 0
M  V30 6624 C 632.836 3.01259 4.97612 0
M  V30 6625 N 631.812 2.28777 4.93115 0
M  V30 6626 H 635.614 1.62876 2.4464 0
M  V30 6627 H 633.128 0.982031 1.29344 0
M  V30 6628 H 635.125 -0.135936 4.16678 0
M  V30 6629 H 633.785 -0.745339 3.1603 0
M  V30 6630 H 634.796 2.73954 4.39511 0
M  V30 6631 H 631.473 0.168574 4.1716 0
M  V30 6632 H 632.863 4.02541 5.37968 0
M  V30 6633 N 635.583 -1.29855 0.893053 0
M  V30 6634 C 636.811 -1.99976 0.530788 0
M  V30 6635 C 637.226 -1.66889 -0.882799 0
M  V30 6636 O 636.583 -0.910352 -1.58173 0
M  V30 6637 C 636.634 -3.54547 0.705587 0
M  V30 6638 O 636.355 -3.86458 2.06353 0
M  V30 6639 C 637.856 -4.41937 0.347387 0
M  V30 6640 H 635.076 -0.639129 0.204339 0
M  V30 6641 H 637.62 -1.65549 1.20057 0
M  V30 6642 H 635.775 -3.87311 0.0830685 0
M  V30 6643 H 636.189 -4.81146 2.08803 0
M  V30 6644 H 637.663 -5.4954 0.520557 0
M  V30 6645 H 638.14 -4.33339 -0.715139 0
M  V30 6646 H 638.746 -4.14633 0.946567 0
M  V30 6647 N 637.061 -0.65484 -1.43351 0
M  V30 6648 C 638.024 0.0263562 -2.29185 0
M  V30 6649 C 639.024 0.748951 -1.42293 0
M  V30 6650 O 640.214 0.589957 -1.63906 0
M  V30 6651 C 637.346 1.04806 -3.2439 0
M  V30 6652 H 638.539 -0.728883 -2.90908 0
M  V30 6653 H 636.092 -0.416149 -1.50658 0
M  V30 6654 H 636.827 1.83247 -2.67565 0
M  V30 6655 H 636.612 0.533554 -3.88453 0
M  V30 6656 H 638.102 1.52372 -3.88809 0
M  V30 6657 N 638.539 1.52521 -0.396863 0
M  V30 6658 C 639.816 1.94112 0.240842 0
M  V30 6659 C 640.196 1.33288 1.637 0
M  V30 6660 O 639.544 0.503901 2.22875 0
M  V30 6661 C 639.754 3.48033 0.259567 0
M  V30 6662 C 641.102 4.21822 0.484866 0
M  V30 6663 O 642.126 3.54579 0.339453 0
M  V30 6664 O 640.985 5.41042 0.770412 0
M  V30 6665 H 638.079 0.812973 0.151671 0
M  V30 6666 H 640.625 1.63572 -0.451918 0
M  V30 6667 H 639.397 3.84655 -0.718078 0
M  V30 6668 H 639.02 3.84899 0.996937 0
M  V30 6669 N 640.017 0.126909 1.57088 0
M  V30 6670 C 640.964 -0.82036 2.15728 0
M  V30 6671 C 641.934 -1.25811 1.08447 0
M  V30 6672 O 643.119 -1.33422 1.36393 0
M  V30 6673 C 640.259 -2.06199 2.76724 0
M  V30 6674 C 639.372 -1.67188 3.98337 0
M  V30 6675 C 638.507 -2.86378 4.47393 0
M  V30 6676 C 637.546 -2.43644 5.61519 0
M  V30 6677 N 636.683 -3.55775 6.05284 0
M  V30 6678 H 641.523 -0.313472 2.96347 0
M  V30 6679 H 639.06 -0.14303 1.46403 0
M  V30 6680 H 641.018 -2.78959 3.10222 0
M  V30 6681 H 639.648 -2.54333 1.98782 0
M  V30 6682 H 638.7 -0.842714 3.70948 0
M  V30 6683 H 640.012 -1.31789 4.81075 0
M  V30 6684 H 639.166 -3.67353 4.82842 0
M  V30 6685 H 637.905 -3.25009 3.63621 0
M  V30 6686 H 636.91 -1.61104 5.25667 0
M  V30 6687 H 638.135 -2.06122 6.47063 0
M  V30 6688 H 636.081 -3.94065 5.24451 0
M  V30 6689 H 635.998 -3.24325 6.82898 0
M  V30 6690 H 637.266 -4.37166 6.45373 0
M  V30 6691 N 641.495 -1.56914 -0.146875 0
M  V30 6692 C 642.772 -1.74273 -0.888165 0
M  V30 6693 C 643.152 -0.69496 -1.99333 0
M  V30 6694 O 642.5 0.286093 -2.26702 0
M  V30 6695 C 642.71 -3.18336 -1.43051 0
M  V30 6696 C 644.058 -3.80024 -1.89387 0
M  V30 6697 O 645.082 -3.21765 -1.52792 0
M  V30 6698 O 643.941 -4.82367 -2.56874 0
M  V30 6699 H 641.035 -0.712565 -0.419738 0
M  V30 6700 H 643.581 -1.6918 -0.132791 0
M  V30 6701 H 642.353 -3.86092 -0.636274 0
M  V30 6702 H 641.976 -3.27854 -2.24938 0
M  V30 6703 N 642.974 0.416227 -1.52004 0
M  V30 6704 C 644.251 1.17637 -1.56272 0
M  V30 6705 C 644.631 2.08352 -0.339493 0
M  V30 6706 O 643.979 2.1833 0.674124 0
M  V30 6707 C 644.189 1.95986 -2.88774 0
M  V30 6708 C 645.537 2.52299 -3.41512 0
M  V30 6709 O 646.561 2.06174 -2.90467 0
M  V30 6710 O 645.42 3.3648 -4.30631 0
M  V30 6711 H 642.514 0.536726 -0.629169 0
M  V30 6712 H 645.06 0.423583 -1.64329 0
M  V30 6713 H 643.832 1.29487 -3.69254 0
M  V30 6714 H 643.455 2.78285 -2.83978 0
M  V30 6715 N 644.452 1.42507 0.673017 0
M  V30 6716 C 645.677 1.4668 1.46627 0
M  V30 6717 C 646.102 0.080066 1.8793 0
M  V30 6718 O 645.46 -0.921879 1.56112 0
M  V30 6719 C 645.508 2.40091 2.69051 0
M  V30 6720 O 644.612 1.8735 3.67387 0
M  V30 6721 H 643.953 0.496908 0.44043 0
M  V30 6722 H 646.483 1.87215 0.825334 0
M  V30 6723 H 646.493 2.56731 3.17101 0
M  V30 6724 H 645.168 3.4084 2.3833 0
M  V30 6725 H 643.745 1.80274 3.26429 0
M  V30 6726 N 645.93 -0.909495 1.28709 0
M  V30 6727 C 647.155 -1.69801 1.1909 0
M  V30 6728 C 647.58 -1.86479 -0.246388 0
M  V30 6729 O 646.938 -1.37802 -1.17815 0
M  V30 6730 C 646.986 -3.06543 1.89904 0
M  V30 6731 O 646.09 -3.94268 1.2094 0
M  V30 6732 H 645.431 -0.519783 0.413185 0
M  V30 6733 H 647.961 -1.13689 1.70106 0
M  V30 6734 H 647.971 -3.56748 1.97977 0
M  V30 6735 H 646.646 -2.93722 2.94449 0
M  V30 6736 H 645.223 -3.52702 1.2106 0
M  V30 6737 N 647.408 -1.11026 -1.11852 0
M  V30 6738 C 648.318 -0.777252 -2.2135 0
M  V30 6739 C 649.334 0.227821 -1.72502 0
M  V30 6740 O 650.51 0.0650587 -2.01295 0
M  V30 6741 C 647.575 -0.220668 -3.45997 0
M  V30 6742 C 646.636 -1.2838 -4.09655 0
M  V30 6743 C 645.869 -0.753678 -5.28352 0
M  V30 6744 O 646.092 0.417779 -5.68868 0
M  V30 6745 O 645.026 -1.51647 -5.82483 0
M  V30 6746 H 648.852 -1.69141 -2.5224 0
M  V30 6747 H 646.437 -0.885836 -1.20305 0
M  V30 6748 H 648.319 0.0855756 -4.21313 0
M  V30 6749 H 646.994 0.666262 -3.16769 0
M  V30 6750 H 645.901 -1.64299 -3.3609 0
M  V30 6751 H 647.234 -2.14396 -4.43052 0
M  V30 6752 N 648.886 1.2938 -0.899927 0
M  V30 6753 C 650.163 1.9046 -0.445443 0
M  V30 6754 C 650.543 1.81683 1.07492 0
M  V30 6755 O 649.891 1.24371 1.91688 0
M  V30 6756 C 650.101 3.35529 -0.960279 0
M  V30 6757 C 651.449 4.12556 -1.00412 0
M  V30 6758 O 652.473 3.44434 -0.907965 0
M  V30 6759 O 651.332 5.34294 -1.14857 0
M  V30 6760 H 648.426 0.815253 -0.138893 0
M  V30 6761 H 650.972 1.37844 -0.989808 0
M  V30 6762 H 649.744 3.36074 -2.00425 0
M  V30 6763 H 649.367 3.95624 -0.395939 0
M  V30 6764 N 650.364 0.662433 1.43002 0
M  V30 6765 C 651.613 0.176873 2.00923 0
M  V30 6766 C 651.926 -1.21954 1.52927 0
M  V30 6767 O 653.132 -1.80081 2.03182 0
M  V30 6768 C 651.588 0.265379 3.5892 0
M  V30 6769 C 651.196 1.66507 4.15908 0
M  V30 6770 C 652.94 -0.162103 4.2419 0
M  V30 6771 C 650.847 1.707 5.66229 0
M  V30 6772 H 649.777 0.0623627 0.751417 0
M  V30 6773 H 652.428 0.825813 1.63868 0
M  V30 6774 H 650.81 -0.451235 3.93421 0
M  V30 6775 H 651.984 2.40777 3.92891 0
M  V30 6776 H 650.299 2.03932 3.63044 0
M  V30 6777 H 652.896 -0.150745 5.34487 0
M  V30 6778 H 653.239 -1.19519 3.98774 0
M  V30 6779 H 653.772 0.503075 3.94606 0
M  V30 6780 H 650.511 2.7195 5.96426 0
M  V30 6781 H 650.031 1.00768 5.91275 0
M  V30 6782 H 651.71 1.45487 6.3043 0
M  V30 6783 N 651.842 -1.52309 0.404946 0
M  V30 6784 C 653.067 -2.06666 -0.1743 0
M  V30 6785 C 653.492 -1.27341 -1.38441 0
M  V30 6786 O 652.85 -0.302539 -1.78758 0
M  V30 6787 C 652.898 -3.57014 -0.507262 0
M  V30 6788 O 652.002 -3.80144 -1.59889 0
M  V30 6789 H 651.343 -0.663807 -0.0160273 0
M  V30 6790 H 653.873 -1.96297 0.576937 0
M  V30 6791 H 653.883 -4.00724 -0.767098 0
M  V30 6792 H 652.558 -4.14184 0.377368 0
M  V30 6793 H 651.135 -3.48316 -1.33155 0
M  V30 6794 N 653.32 -0.135238 -1.57019 0
M  V30 6795 C 654.566 0.519563 -1.96032 0
M  V30 6796 C 654.899 1.65284 -1.01955 0
M  V30 6797 O 654.174 1.94408 -0.059727 0
M  V30 6798 C 654.457 1.0369 -3.44848 0
M  V30 6799 C 654.31 -0.0940754 -4.49702 0
M  V30 6800 C 655.629 1.92254 -3.95887 0
M  V30 6801 H 652.748 0.18739 -0.712779 0
M  V30 6802 H 655.39 -0.214086 -1.8879 0
M  V30 6803 H 653.54 1.66209 -3.5115 0
M  V30 6804 H 655.212 -0.73 -4.55487 0
M  V30 6805 H 653.455 -0.754924 -4.27181 0
M  V30 6806 H 654.126 0.309419 -5.51132 0
M  V30 6807 H 656.602 1.39581 -3.9199 0
M  V30 6808 H 655.478 2.25364 -5.00502 0
M  V30 6809 H 655.739 2.85513 -3.37543 0
M  V30 6810 N 654.798 1.5699 0.138552 0
M  V30 6811 C 656.209 1.73171 0.697754 0
M  V30 6812 C 656.56 0.750952 1.8126 0
M  V30 6813 O 655.685 -0.080549 2.1625 0
M  V30 6814 C 656.28 3.13996 1.27248 0
M  V30 6815 C 654.839 3.3175 1.77816 0
M  V30 6816 C 653.986 2.69084 0.669991 0
M  V30 6817 H 656.937 1.5846 -0.0871979 0
M  V30 6818 H 656.958 3.14463 2.14227 0
M  V30 6819 H 656.47 3.85354 0.460855 0
M  V30 6820 H 654.571 2.65403 2.61519 0
M  V30 6821 H 654.684 4.39768 1.90107 0
M  V30 6822 H 653.048 2.29782 1.09874 0
M  V30 6823 H 653.831 3.43053 -0.130329 0
M  V30 6824 N 656.276 -0.40816 1.52223 0
M  V30 6825 C 657.501 -1.18127 1.70472 0
M  V30 6826 C 657.926 -1.83491 0.41384 0
M  V30 6827 O 657.284 -1.70047 -0.628778 0
M  V30 6828 C 657.332 -2.21935 2.84213 0
M  V30 6829 O 656.436 -3.28099 2.4985 0
M  V30 6830 H 655.777 -0.344781 0.56747 0
M  V30 6831 H 658.307 -0.478328 1.9893 0
M  V30 6832 H 658.317 -2.66248 3.09153 0
M  V30 6833 H 656.992 -1.73744 3.7787 0
M  V30 6834 H 655.569 -2.89058 2.35584 0
M  V30 6835 N 657.755 -1.42862 -0.66545 0
M  V30 6836 C 658.98 -1.47456 -1.45848 0
M  V30 6837 C 659.405 -0.0900312 -1.87884 0
M  V30 6838 O 658.763 0.913587 -1.56599 0
M  V30 6839 C 658.811 -2.41514 -2.67774 0
M  V30 6840 O 657.915 -1.89296 -3.66389 0
M  V30 6841 H 657.256 -0.499236 -0.437789 0
M  V30 6842 H 659.786 -1.8765 -0.815394 0
M  V30 6843 H 659.796 -2.58409 -3.15735 0
M  V30 6844 H 658.471 -3.42099 -2.36519 0
M  V30 6845 H 657.048 -1.82003 -3.25468 0
M  V30 6846 N 659.233 0.902656 -1.29189 0
M  V30 6847 C 660.644 1.46809 -1.15343 0
M  V30 6848 C 660.995 1.94568 0.252517 0
M  V30 6849 O 660.12 1.83454 1.14777 0
M  V30 6850 C 660.715 2.66829 -2.08776 0
M  V30 6851 C 659.274 3.19518 -1.98961 0
M  V30 6852 C 658.421 1.92212 -1.99874 0
M  V30 6853 H 661.372 0.714282 -1.41717 0
M  V30 6854 H 661.393 3.42465 -1.65826 0
M  V30 6855 H 660.905 2.32039 -3.11094 0
M  V30 6856 H 659.006 3.59008 -0.99721 0
M  V30 6857 H 659.119 3.84016 -2.86477 0
M  V30 6858 H 657.483 2.0979 -1.44431 0
M  V30 6859 H 658.266 1.59702 -3.03891 0
M  V30 6860 N 660.711 1.11618 1.11262 0
M  V30 6861 C 661.661 0.745274 2.15475 0
M  V30 6862 C 662.645 -0.251585 1.58921 0
M  V30 6863 O 663.837 -0.0584093 1.76904 0
M  V30 6864 C 660.966 0.192128 3.42762 0
M  V30 6865 C 660.052 1.21676 4.0627 0
M  V30 6866 N 660.443 2.41158 4.44608 0
M  V30 6867 C 658.741 1.06013 4.33217 0
M  V30 6868 C 659.442 3.0652 4.94389 0
M  V30 6869 N 658.418 2.33994 4.9066 0
M  V30 6870 H 662.22 1.65462 2.42898 0
M  V30 6871 H 659.734 0.995695 1.28295 0
M  V30 6872 H 661.731 -0.0917339 4.16799 0
M  V30 6873 H 660.391 -0.711778 3.16802 0
M  V30 6874 H 661.402 2.786 4.3658 0
M  V30 6875 H 658.079 0.212809 4.16957 0
M  V30 6876 H 659.469 4.08225 5.33669 0
M  V30 6877 N 662.189 -1.289 0.906776 0
M  V30 6878 C 663.417 -1.99401 0.551969 0
M  V30 6879 C 663.832 -1.67816 -0.865048 0
M  V30 6880 O 663.189 -0.927078 -1.57199 0
M  V30 6881 C 663.24 -3.53779 0.743152 0
M  V30 6882 O 662.961 -3.84248 2.1044 0
M  V30 6883 C 664.462 -4.41543 0.39424 0
M  V30 6884 H 661.682 -0.636926 0.211106 0
M  V30 6885 H 664.226 -1.64266 1.21807 0
M  V30 6886 H 662.381 -3.87201 0.124143 0
M  V30 6887 H 662.795 -4.78904 2.13895 0
M  V30 6888 H 664.269 -5.48957 0.578814 0
M  V30 6889 H 664.746 -4.34073 -0.669137 0
M  V30 6890 H 665.352 -4.13605 0.990491 0
M  V30 6891 N 663.667 -0.670007 -1.42649 0
M  V30 6892 C 664.577 0.0114788 -2.34597 0
M  V30 6893 C 665.593 0.794055 -1.54825 0
M  V30 6894 O 666.769 0.737472 -1.87412 0
M  V30 6895 C 663.834 0.954436 -3.33304 0
M  V30 6896 C 662.895 0.166925 -4.28975 0
M  V30 6897 C 662.128 1.06497 -5.22967 0
M  V30 6898 O 662.351 2.30446 -5.21777 0
M  V30 6899 O 661.285 0.528347 -5.99577 0
M  V30 6900 H 665.111 -0.745794 -2.944 0
M  V30 6901 H 662.696 -0.430228 -1.43071 0
M  V30 6902 H 664.578 1.49589 -3.93956 0
M  V30 6903 H 663.253 1.69164 -2.7598 0
M  V30 6904 H 662.16 -0.418515 -3.71752 0
M  V30 6905 H 663.493 -0.531067 -4.89327 0
M  V30 6906 N 665.145 1.52092 -0.413018 0
M  V30 6907 C 666.108 2.25706 0.398687 0
M  V30 6908 C 667.108 1.28221 0.970368 0
M  V30 6909 O 668.298 1.52131 0.848635 0
M  V30 6910 C 665.43 3.03029 1.5616 0
M  V30 6911 H 666.623 2.98888 -0.246131 0
M  V30 6912 H 664.176 1.5542 -0.165622 0
M  V30 6913 H 664.911 2.34205 2.24317 0
M  V30 6914 H 664.696 3.74606 1.15812 0
M  V30 6915 H 666.186 3.58857 2.13569 0
M  V30 6916 N 666.623 0.143563 1.56945 0
M  V30 6917 C 667.872 -0.50835 1.95189 0
M  V30 6918 C 668.185 -1.66239 1.03073 0
M  V30 6919 O 669.391 -2.3787 1.30882 0
M  V30 6920 C 667.847 -0.955735 3.46978 0
M  V30 6921 C 667.455 0.171183 4.47673 0
M  V30 6922 C 669.199 -1.57763 3.94095 0
M  V30 6923 C 667.106 -0.294279 5.90667 0
M  V30 6924 H 666.036 -0.193679 0.728701 0
M  V30 6925 H 668.687 0.227357 1.82086 0
M  V30 6926 H 667.069 -1.7466 3.55401 0
M  V30 6927 H 668.243 0.948049 4.50942 0
M  V30 6928 H 666.558 0.701273 4.10452 0
M  V30 6929 H 669.155 -1.93745 4.98364 0
M  V30 6930 H 669.498 -2.46531 3.35452 0
M  V30 6931 H 670.031 -0.851728 3.88575 0
M  V30 6932 H 666.77 0.557939 6.53121 0
M  V30 6933 H 666.29 -1.0371 5.90766 0
M  V30 6934 H 667.969 -0.747426 6.42668 0
M  V30 6935 N 668.101 -1.57061 -0.130224 0
M  V30 6936 C 669.033 -1.96147 -1.18571 0
M  V30 6937 C 670.046 -0.859347 -1.38272 0
M  V30 6938 O 671.235 -1.13769 -1.37545 0
M  V30 6939 C 668.335 -2.23484 -2.54771 0
M  V30 6940 C 667.508 -3.54786 -2.55824 0
M  V30 6941 C 666.567 -3.70467 -3.73686 0
M  V30 6942 O 665.593 -4.42693 -3.57787 0
M  V30 6943 N 666.795 -3.08389 -4.91809 0
M  V30 6944 H 669.56 -2.87295 -0.853333 0
M  V30 6945 H 667.121 -1.58714 -0.319621 0
M  V30 6946 H 669.113 -2.312 -3.32158 0
M  V30 6947 H 667.683 -1.38518 -2.80235 0
M  V30 6948 H 666.903 -3.5836 -1.64232 0
M  V30 6949 H 668.191 -4.4111 -2.53573 0
M  V30 6950 H 667.589 -2.49656 -5.0763 0
M  V30 6951 H 666.146 -3.21642 -5.66912 0
M  V30 6952 N 669.579 0.400081 -1.52437 0
M  V30 6953 C 670.529 1.48734 -1.72807 0
M  V30 6954 C 671.513 1.50004 -0.582032 0
M  V30 6955 O 672.705 1.55828 -0.839449 0
M  V30 6956 C 669.834 2.86568 -1.89034 0
M  V30 6957 C 668.92 2.8991 -3.09537 0
M  V30 6958 N 669.311 2.62937 -4.32086 0
M  V30 6959 C 667.609 3.21078 -3.09556 0
M  V30 6960 C 668.31 2.73079 -5.13617 0
M  V30 6961 N 667.286 3.06342 -4.49061 0
M  V30 6962 H 671.088 1.26689 -2.65193 0
M  V30 6963 H 668.602 0.607902 -1.50593 0
M  V30 6964 H 670.599 3.64834 -2.01746 0
M  V30 6965 H 669.259 3.09604 -0.978547 0
M  V30 6966 H 670.27 2.37163 -4.60406 0
M  V30 6967 H 666.947 3.49651 -2.28146 0
M  V30 6968 H 668.337 2.55863 -6.21276 0
M  V30 6969 N 671.057 1.43213 0.657864 0
M  V30 6970 C 672.282 1.48227 1.45064 0
M  V30 6971 C 672.707 0.0999939 1.87834 0
M  V30 6972 O 672.065 -0.905269 1.57081 0
M  V30 6973 C 672.113 2.42931 2.6649 0
M  V30 6974 O 671.217 1.91237 3.6538 0
M  V30 6975 H 670.558 0.501551 0.435135 0
M  V30 6976 H 673.088 1.8808 0.805431 0
M  V30 6977 H 673.098 2.6008 3.1436 0
M  V30 6978 H 671.773 3.43348 2.34701 0
M  V30 6979 H 670.35 1.83726 3.24498 0
M  V30 6980 N 672.536 -0.895792 1.29666 0
M  V30 6981 C 673.761 -1.68528 1.20885 0
M  V30 6982 C 674.186 -1.8673 -0.226595 0
M  V30 6983 O 673.544 -1.39044 -1.16347 0
M  V30 6984 C 673.592 -3.04512 1.93144 0
M  V30 6985 O 672.696 -3.92963 1.25115 0
M  V30 6986 H 672.037 -0.515371 0.418675 0
M  V30 6987 H 674.567 -1.11878 1.71302 0
M  V30 6988 H 674.577 -3.54628 2.0175 0
M  V30 6989 H 673.252 -2.90582 2.97548 0
M  V30 6990 H 671.829 -3.51399 1.24794 0
M  V30 6991 N 674.014 -1.12206 -1.10668 0
M  V30 6992 C 675.26 -0.877172 -1.82848 0
M  V30 6993 C 675.593 0.595571 -1.84842 0
M  V30 6994 O 674.868 1.44013 -1.30731 0
M  V30 6995 C 675.151 -1.44957 -3.29635 0
M  V30 6996 C 675.004 -2.99051 -3.35989 0
M  V30 6997 C 676.323 -1.10714 -4.25946 0
M  V30 6998 H 673.442 -0.320103 -0.663854 0
M  V30 6999 H 676.084 -1.38827 -1.2972 0
M  V30 7000 H 674.234 -1.01488 -3.7501 0
M  V30 7001 H 675.906 -3.51182 -2.99113 0
M  V30 7002 H 674.149 -3.34705 -2.75962 0
M  V30 7003 H 674.82 -3.34194 -4.39339 0
M  V30 7004 H 677.296 -1.48254 -3.88793 0
M  V30 7005 H 676.172 -1.5343 -5.2702 0
M  V30 7006 H 676.433 -0.019 -4.42096 0
M  V30 7007 N 675.492 1.28418 -0.913599 0
M  V30 7008 C 676.717 1.99643 -0.561899 0
M  V30 7009 C 677.142 1.67819 0.849608 0
M  V30 7010 O 676.5 0.910503 1.56779 0
M  V30 7011 C 676.548 3.52116 -0.777622 0
M  V30 7012 O 675.652 4.12076 0.163457 0
M  V30 7013 H 674.993 0.627229 -0.217898 0
M  V30 7014 H 677.523 1.63575 -1.229 0
M  V30 7015 H 677.533 4.02163 -0.687666 0
M  V30 7016 H 676.208 3.74613 -1.8066 0
M  V30 7017 H 674.785 3.72892 0.0247827 0
M  V30 7018 N 676.97 0.677563 1.42291 0
M  V30 7019 C 678.198 0.209459 2.05837 0
M  V30 7020 C 678.613 -1.13444 1.50917 0
M  V30 7021 O 677.97 -1.70529 0.65008 0
M  V30 7022 C 678.021 0.138819 3.61233 0
M  V30 7023 O 677.742 1.42962 4.14118 0
M  V30 7024 C 679.243 -0.352449 4.41897 0
M  V30 7025 H 676.463 0.101209 0.663323 0
M  V30 7026 H 679.007 0.925077 1.8238 0
M  V30 7027 H 677.162 -0.527505 3.83792 0
M  V30 7028 H 677.576 1.3048 5.08011 0
M  V30 7029 H 679.05 -0.350778 5.50884 0
M  V30 7030 H 679.527 -1.3882 4.16684 0
M  V30 7031 H 680.133 0.282236 4.24362 0
M  V30 7032 N 678.448 -1.51871 0.421078 0
M  V30 7033 C 679.673 -2.0684 -0.152371 0
M  V30 7034 C 680.098 -1.28802 -1.37083 0
M  V30 7035 O 679.456 -0.321482 -1.78427 0
M  V30 7036 C 679.504 -3.57532 -0.469368 0
M  V30 7037 O 678.608 -3.81818 -1.55848 0
M  V30 7038 H 677.949 -0.663939 -0.00898586 0
M  V30 7039 H 680.479 -1.95674 0.597724 0
M  V30 7040 H 680.489 -4.01515 -0.724553 0
M  V30 7041 H 679.164 -4.13761 0.421276 0
M  V30 7042 H 677.741 -3.49709 -1.29453 0
M  V30 7043 N 679.926 -0.151884 -1.56866 0
M  V30 7044 C 680.874 0.80299 -2.183 0
M  V30 7045 C 681.868 1.25174 -1.14139 0
M  V30 7046 O 683.074 1.21966 -1.3238 0
M  V30 7047 H 679.449 0.277169 -0.699057 0
M  V30 7048 H 681.42 0.260699 -2.97259 0
M  V30 7049 C 680.169 2.03009 -2.82281 0
M  V30 7050 H 679.492 1.69377 -3.62148 0
M  V30 7051 H 680.932 2.67753 -3.28762 0
M  V30 7052 C 679.391 2.84123 -1.81041 0
M  V30 7053 O 679.921 3.8063 -1.28388 0
M  V30 7054 N 678.127 2.48753 -1.50234 0
M  V30 7055 H 677.674 1.70337 -1.93244 0
M  V30 7056 H 677.632 3.03316 -0.827445 0
M  V30 7057 N 681.404 1.57128 0.121893 0
M  V30 7058 C 682.652 1.84335 0.828548 0
M  V30 7059 C 682.973 0.736632 1.80551 0
M  V30 7060 O 682.243 -0.23962 1.94429 0
M  V30 7061 H 680.823 0.680108 0.30897 0
M  V30 7062 H 683.485 1.9459 0.109906 0
M  V30 7063 H 682.581 2.80152 1.37554 0
M  V30 7064 N 682.882 -0.391992 1.52647 0
M  V30 7065 C 684.128 -1.139 1.67793 0
M  V30 7066 C 684.461 -1.89711 0.41514 0
M  V30 7067 O 683.736 -1.85431 -0.586979 0
M  V30 7068 C 684.019 -2.11966 2.91105 0
M  V30 7069 C 683.872 -1.39939 4.27478 0
M  V30 7070 C 685.191 -3.1243 3.09961 0
M  V30 7071 H 682.31 -0.412707 0.610608 0
M  V30 7072 H 684.952 -0.422725 1.85238 0
M  V30 7073 H 683.102 -2.73048 2.76364 0
M  V30 7074 H 684.774 -0.818439 4.53982 0
M  V30 7075 H 683.017 -0.701246 4.28095 0
M  V30 7076 H 683.688 -2.1158 5.09841 0
M  V30 7077 H 686.164 -2.61435 3.23714 0
M  V30 7078 H 685.04 -3.78294 3.97725 0
M  V30 7079 H 685.301 -3.81127 2.24042 0
M  V30 7080 N 684.36 -1.4356 -0.65026 0
M  V30 7081 C 685.585 -1.48995 -1.44275 0
M  V30 7082 C 686.01 -0.109954 -1.87778 0
M  V30 7083 O 685.368 0.896926 -1.57559 0
M  V30 7084 C 685.416 -2.44341 -2.65198 0
M  V30 7085 O 684.52 -1.93172 -3.6436 0
M  V30 7086 H 683.861 -0.503852 -0.432469 0
M  V30 7087 H 686.391 -1.88504 -0.795446 0
M  V30 7088 H 686.401 -2.61743 -3.12977 0
M  V30 7089 H 685.076 -3.44588 -2.32877 0
M  V30 7090 H 683.653 -1.85445 -3.23519 0
M  V30 7091 N 685.838 0.888903 -1.30139 0
M  V30 7092 C 687.063 1.67884 -1.21777 0
M  V30 7093 C 687.488 1.86848 0.216689 0
M  V30 7094 O 686.846 1.39659 1.15608 0
M  V30 7095 C 686.894 3.03483 -1.94757 0
M  V30 7096 O 685.998 3.92294 -1.27198 0
M  V30 7097 H 685.339 0.513144 -0.421402 0
M  V30 7098 H 687.869 1.10968 -1.71893 0
M  V30 7099 H 687.879 3.53553 -2.03627 0
M  V30 7100 H 686.554 2.89 -2.99085 0
M  V30 7101 H 685.131 3.50732 -1.26655 0
M  V30 7102 N 687.317 1.12792 1.10072 0
M  V30 7103 C 688.545 0.908506 1.85886 0
M  V30 7104 C 688.96 -0.542408 1.80841 0
M  V30 7105 O 688.317 -1.37517 1.1998 0
M  V30 7106 C 688.368 1.37973 3.34134 0
M  V30 7107 O 688.089 2.77378 3.39106 0
M  V30 7108 C 689.59 1.1978 4.26811 0
M  V30 7109 H 686.81 0.3244 0.587372 0
M  V30 7110 H 689.354 1.49882 1.39125 0
M  V30 7111 H 687.509 0.832566 3.78348 0
M  V30 7112 H 687.923 2.98144 4.31521 0
M  V30 7113 H 689.397 1.57635 5.29014 0
M  V30 7114 H 689.874 0.138768 4.38981 0
M  V30 7115 H 690.48 1.73266 3.88406 0
M  V30 7116 N 688.795 -1.27931 0.920396 0
M  V30 7117 C 690.02 -1.99343 0.572478 0
M  V30 7118 C 690.445 -1.68267 -0.840696 0
M  V30 7119 O 689.803 -0.918805 -1.56294 0
M  V30 7120 C 689.851 -3.51698 0.796284 0
M  V30 7121 O 688.955 -4.12157 -0.141602 0
M  V30 7122 H 688.296 -0.626065 0.221221 0
M  V30 7123 H 690.826 -1.62921 1.23765 0
M  V30 7124 H 690.836 -4.01793 0.708984 0
M  V30 7125 H 689.511 -3.73649 1.82644 0
M  V30 7126 H 688.088 -3.729 -0.005007 0
M  V30 7127 N 690.273 -0.685099 -1.4193 0
M  V30 7128 C 691.22 -0.0131869 -2.30796 0
M  V30 7129 C 692.19 0.782129 -1.46533 0
M  V30 7130 O 693.375 0.75229 -1.75343 0
M  V30 7131 C 690.515 0.924768 -3.32479 0
M  V30 7132 C 689.628 0.122181 -4.31827 0
M  V30 7133 C 688.763 1.05682 -5.20581 0
M  V30 7134 C 687.802 0.246526 -6.11603 0
M  V30 7135 N 686.939 1.13442 -6.92875 0
M  V30 7136 H 691.779 -0.776789 -2.87698 0
M  V30 7137 H 689.316 -0.394791 -1.41703 0
M  V30 7138 H 691.274 1.48251 -3.89971 0
M  V30 7139 H 689.904 1.65488 -2.77152 0
M  V30 7140 H 688.956 -0.552335 -3.76369 0
M  V30 7141 H 690.268 -0.506473 -4.96222 0
M  V30 7142 H 689.422 1.68415 -5.82856 0
M  V30 7143 H 688.161 1.71935 -4.56388 0
M  V30 7144 H 687.166 -0.393944 -5.48387 0
M  V30 7145 H 688.391 -0.412053 -6.77849 0
M  V30 7146 H 686.337 1.78316 -6.313 0
M  V30 7147 H 686.254 0.561089 -7.53915 0
M  V30 7148 H 687.522 1.74889 -7.59628 0
M  V30 7149 N 691.751 1.51645 -0.429126 0
M  V30 7150 C 692.714 2.26116 0.374726 0
M  V30 7151 C 693.714 1.29242 0.956714 0
M  V30 7152 O 694.904 1.53022 0.832452 0
M  V30 7153 C 692.036 3.04669 1.52937 0
M  V30 7154 H 693.229 2.9861 -0.277818 0
M  V30 7155 H 690.782 1.55236 -0.182097 0
M  V30 7156 H 691.517 2.36571 2.21821 0
M  V30 7157 H 691.302 3.75814 1.11833 0
M  V30 7158 H 692.792 3.61102 2.09751 0
M  V30 7159 N 693.229 0.160201 1.56784 0
M  V30 7160 C 694.139 -0.787167 2.21 0
M  V30 7161 C 695.155 -1.26167 1.19825 0
M  V30 7162 O 696.331 -1.31611 1.52448 0
M  V30 7163 C 693.396 -2.00364 2.8294 0
M  V30 7164 C 692.457 -1.5771 3.99282 0
M  V30 7165 C 691.69 -2.73558 4.58259 0
M  V30 7166 O 691.913 -3.90129 4.16119 0
M  V30 7167 O 690.847 -2.48271 5.48311 0
M  V30 7168 H 694.673 -0.270462 3.02493 0
M  V30 7169 H 692.258 -0.0674666 1.49248 0
M  V30 7170 H 694.14 -2.71529 3.22257 0
M  V30 7171 H 692.815 -2.50961 2.04451 0
M  V30 7172 H 691.722 -0.835274 3.64656 0
M  V30 7173 H 693.055 -1.11815 4.79331 0
M  V30 7174 N 694.707 -1.5719 -0.113559 0
M  V30 7175 C 695.67 -1.99796 -1.12314 0
M  V30 7176 C 696.67 -0.888847 -1.34001 0
M  V30 7177 O 697.86 -1.15476 -1.30426 0
M  V30 7178 C 694.992 -2.34279 -2.47641 0
M  V30 7179 H 696.185 -2.90193 -0.756825 0
M  V30 7180 H 693.738 -1.52144 -0.358029 0
M  V30 7181 H 694.473 -1.46778 -2.89183 0
M  V30 7182 H 694.258 -3.15175 -2.33253 0
M  V30 7183 H 695.748 -2.67963 -3.2029 0
M  V30 7184 N 696.185 0.383891 -1.52853 0
M  V30 7185 C 697.431 1.13009 -1.68395 0
M  V30 7186 C 697.764 1.89488 -0.425195 0
M  V30 7187 O 697.039 1.8574 0.577136 0
M  V30 7188 C 697.322 2.10419 -2.92226 0
M  V30 7189 C 697.175 1.3767 -4.28214 0
M  V30 7190 C 698.494 3.10781 -3.11614 0
M  V30 7191 H 695.613 0.409463 -0.612788 0
M  V30 7192 H 698.255 0.412895 -1.85459 0
M  V30 7193 H 696.405 2.71579 -2.77808 0
M  V30 7194 H 698.077 0.794352 -4.54409 0
M  V30 7195 H 696.32 0.678533 -4.2846 0
M  V30 7196 H 696.991 2.08874 -5.10956 0
M  V30 7197 H 699.467 2.59715 -3.25096 0
M  V30 7198 H 698.343 3.76179 -3.99725 0
M  V30 7199 H 698.604 3.79933 -2.2606 0
M  V30 7200 N 697.663 1.43903 0.642637 0
M  V30 7201 C 698.626 1.49538 1.73698 0
M  V30 7202 C 699.626 0.378776 1.56275 0
M  V30 7203 O 700.816 0.64095 1.6198 0
M  V30 7204 C 697.948 1.35821 3.12675 0
M  V30 7205 H 699.141 2.47008 1.70079 0
M  V30 7206 H 696.694 1.30824 0.85526 0
M  V30 7207 H 697.429 0.393994 3.21898 0
M  V30 7208 H 697.214 2.16776 3.26727 0
M  V30 7209 H 698.704 1.4272 3.92455 0
M  V30 7210 N 699.141 -0.881989 1.30609 0
M  V30 7211 C 700.369 -1.66711 1.22536 0
M  V30 7212 C 700.784 -1.87614 -0.2113 0
M  V30 7213 O 700.141 -1.42576 -1.13923 0
M  V30 7214 C 700.192 -3.04182 1.95335 0
M  V30 7215 O 699.913 -2.8422 3.33393 0
M  V30 7216 C 701.414 -3.98617 1.93956 0
M  V30 7217 H 698.634 -0.520124 0.423925 0
M  V30 7218 H 701.178 -1.10174 1.72285 0
M  V30 7219 H 699.333 -3.57442 1.49378 0
M  V30 7220 H 699.747 -3.71452 3.70302 0
M  V30 7221 H 701.221 -4.92433 2.49426 0
M  V30 7222 H 701.698 -4.29473 0.919198 0
M  V30 7223 H 702.304 -3.51292 2.39738 0
M  V30 7224 N 700.619 -1.13374 -1.09472 0
M  V30 7225 C 701.844 -0.918711 -1.85942 0
M  V30 7226 C 702.269 0.527225 -1.8056 0
M  V30 7227 O 701.627 1.37408 -1.18274 0
M  V30 7228 C 701.675 -1.41056 -3.31867 0
M  V30 7229 O 700.779 -0.595496 -4.08078 0
M  V30 7230 H 700.12 -0.329297 -0.576593 0
M  V30 7231 H 702.65 -1.50829 -1.38245 0
M  V30 7232 H 702.66 -1.41398 -3.82715 0
M  V30 7233 H 701.335 -2.46335 -3.35099 0
M  V30 7234 H 699.912 -0.659911 -3.67014 0
M  V30 7235 N 702.098 1.27442 -0.927168 0
M  V30 7236 C 703.344 1.94679 -0.568164 0
M  V30 7237 C 703.677 1.72697 0.888219 0
M  V30 7238 O 702.952 1.05573 1.63354 0
M  V30 7239 C 703.235 3.4882 -0.894253 0
M  V30 7240 C 703.088 3.80146 -2.40435 0
M  V30 7241 C 704.407 4.38281 -0.399766 0
M  V30 7242 H 701.526 0.707071 -0.207892 0
M  V30 7243 H 704.168 1.50568 -1.15885 0
M  V30 7244 H 702.318 3.86522 -0.391566 0
M  V30 7245 H 703.99 3.52238 -2.97869 0
M  V30 7246 H 702.233 3.26716 -2.85375 0
M  V30 7247 H 702.904 4.87835 -2.58304 0
M  V30 7248 H 705.38 4.07726 -0.83058 0
M  V30 7249 H 704.256 5.44955 -0.656885 0
M  V30 7250 H 704.517 4.36521 0.700153 0
M  V30 7251 N 703.576 0.692616 1.41565 0
M  V30 7252 C 704.506 0.0397325 2.33466 0
M  V30 7253 C 705.487 -0.770334 1.51657 0
M  V30 7254 O 706.672 -0.723903 1.80203 0
M  V30 7255 C 703.802 -0.899495 3.3545 0
M  V30 7256 C 702.756 -0.196738 4.27548 0
M  V30 7257 C 702.082 -1.25012 5.19881 0
M  V30 7258 C 703.382 0.935158 5.1386 0
M  V30 7259 H 705.076 0.807296 2.88311 0
M  V30 7260 H 702.622 0.389665 1.38628 0
M  V30 7261 H 704.575 -1.36545 3.98665 0
M  V30 7262 H 703.299 -1.69869 2.78948 0
M  V30 7263 H 701.958 0.249158 3.65752 0
M  V30 7264 H 701.606 -2.04177 4.59696 0
M  V30 7265 H 701.306 -0.784931 5.82334 0
M  V30 7266 H 702.83 -1.71665 5.85972 0
M  V30 7267 H 704.244 0.549619 5.70659 0
M  V30 7268 H 702.641 1.32726 5.85238 0
M  V30 7269 H 703.711 1.77613 4.512 0
M  V30 7270 N 705.054 -1.51416 0.437162 0
M  V30 7271 C 706.282 -2.06503 -0.128045 0
M  V30 7272 C 706.697 -1.30461 -1.36475 0
M  V30 7273 O 706.054 -0.364127 -1.78831 0
M  V30 7274 C 706.105 -3.58683 -0.450437 0
M  V30 7275 O 705.826 -4.31853 0.737186 0
M  V30 7276 C 707.327 -4.30284 -1.06633 0
M  V30 7277 H 704.547 -0.670952 -0.00800269 0
M  V30 7278 H 707.091 -1.94996 0.616193 0
M  V30 7279 H 705.246 -3.70106 -1.14457 0
M  V30 7280 H 705.66 -5.22467 0.461347 0
M  V30 7281 H 707.134 -5.37848 -1.24191 0
M  V30 7282 H 707.611 -3.88564 -2.0473 0
M  V30 7283 H 708.217 -4.23304 -0.411585 0
M  V30 7284 N 706.532 -0.168513 -1.56696 0
M  V30 7285 C 707.464 0.794249 -2.14998 0
M  V30 7286 C 708.477 1.1957 -1.10485 0
M  V30 7287 O 709.666 1.13604 -1.37682 0
M  V30 7288 C 706.766 2.08018 -2.67547 0
M  V30 7289 C 705.939 1.84274 -3.96689 0
M  V30 7290 C 704.998 2.97059 -4.3433 0
M  V30 7291 O 704.024 2.67815 -5.02259 0
M  V30 7292 N 705.226 4.24775 -3.9566 0
M  V30 7293 H 707.991 0.295832 -2.98236 0
M  V30 7294 H 705.552 0.0143611 -1.61894 0
M  V30 7295 H 707.544 2.82559 -2.89729 0
M  V30 7296 H 706.114 2.49059 -1.88914 0
M  V30 7297 H 705.334 0.936528 -3.82914 0
M  V30 7298 H 706.622 1.65773 -4.81037 0
M  V30 7299 H 706.02 4.51395 -3.40968 0
M  V30 7300 H 704.577 4.96027 -4.22848 0
M  V30 7301 N 708.01 1.57248 0.105221 0
M  V30 7302 C 708.943 1.96567 1.15916 0
M  V30 7303 C 709.921 0.837355 1.39381 0
M  V30 7304 O 711.105 1.09676 1.53308 0
M  V30 7305 C 708.232 2.27375 2.51035 0
M  V30 7306 C 707.278 3.49869 2.43913 0
M  V30 7307 S 708.111 5.01958 1.86543 0
M  V30 7308 C 709.267 5.35932 3.23307 0
M  V30 7309 H 709.5 2.85655 0.823931 0
M  V30 7310 H 707.033 1.51204 0.312515 0
M  V30 7311 H 708.991 2.45801 3.28774 0
M  V30 7312 H 707.652 1.38876 2.81731 0
M  V30 7313 H 706.845 3.68835 3.43477 0
M  V30 7314 H 706.447 3.30901 1.743 0
M  V30 7315 H 708.739 5.31958 4.19556 0
M  V30 7316 H 709.682 6.37047 3.09155 0
M  V30 7317 H 710.09 4.63397 3.22372 0
M  V30 7318 N 709.488 -0.375779 1.53054 0
M  V30 7319 C 710.451 -1.44254 1.7811 0
M  V30 7320 C 711.451 -1.47018 0.651328 0
M  V30 7321 O 712.641 -1.47957 0.919472 0
M  V30 7322 C 709.773 -2.8345 1.89391 0
M  V30 7323 H 710.966 -1.23316 2.73374 0
M  V30 7324 H 708.519 -0.608312 1.43977 0
M  V30 7325 H 709.254 -3.09716 0.961589 0
M  V30 7326 H 709.039 -2.82844 2.71555 0
M  V30 7327 H 710.529 -3.60722 2.10404 0
M  V30 7328 N 710.966 -1.44241 -0.634997 0
M  V30 7329 C 712.243 -1.37296 -1.39317 0
M  V30 7330 C 712.623 -0.0297532 -2.11079 0
M  V30 7331 O 711.971 0.987524 -2.06059 0
M  V30 7332 C 712.181 -2.56853 -2.36279 0
M  V30 7333 C 713.529 -3.00747 -2.99728 0
M  V30 7334 O 714.553 -2.5703 -2.46605 0
M  V30 7335 O 713.412 -3.76533 -3.96087 0
M  V30 7336 H 710.506 -0.543503 -0.623325 0
M  V30 7337 H 713.052 -1.56324 -0.660376 0
M  V30 7338 H 711.824 -3.46228 -1.82324 0
M  V30 7339 H 711.447 -2.40019 -3.16981 0
M  V30 7340 N 712.444 0.87505 -1.31075 0
M  V30 7341 C 713.376 1.98773 -1.14114 0
M  V30 7342 C 714.389 1.62595 -0.0816119 0
M  V30 7343 O 715.578 1.75449 -0.32861 0
M  V30 7344 C 712.678 3.31159 -0.720224 0
M  V30 7345 C 711.851 3.9571 -1.86366 0
M  V30 7346 C 710.91 5.06407 -1.42965 0
M  V30 7347 O 709.936 5.27501 -2.13848 0
M  V30 7348 N 711.138 5.79649 -0.314194 0
M  V30 7349 H 713.903 2.1387 -2.09951 0
M  V30 7350 H 711.464 1.04873 -1.23342 0
M  V30 7351 H 713.456 4.0259 -0.412687 0
M  V30 7352 H 712.026 3.12257 0.146396 0
M  V30 7353 H 711.246 3.17324 -2.33879 0
M  V30 7354 H 712.534 4.35576 -2.62966 0
M  V30 7355 H 711.932 5.65025 0.276228 0
M  V30 7356 H 710.489 6.51766 -0.0661641 0
M  V30 7357 N 713.922 1.13953 1.08869 0
M  V30 7358 C 715.147 0.928559 1.85452 0
M  V30 7359 C 715.572 -0.517642 1.80837 0
M  V30 7360 O 714.93 -1.36779 1.19001 0
M  V30 7361 C 714.978 1.42814 3.31114 0
M  V30 7362 O 714.082 0.617129 4.07756 0
M  V30 7363 H 713.423 0.33235 0.574839 0
M  V30 7364 H 715.953 1.5156 1.37443 0
M  V30 7365 H 715.963 1.43425 3.8196 0
M  V30 7366 H 714.638 2.48109 3.33788 0
M  V30 7367 H 713.215 0.679365 3.66659 0
M  V30 7368 N 715.4 -1.26948 0.933913 0
M  V30 7369 C 716.628 -1.98186 0.59414 0
M  V30 7370 C 717.043 -1.69614 -0.829257 0
M  V30 7371 O 716.4 -0.960213 -1.55197 0
M  V30 7372 C 716.451 -3.52123 0.818026 0
M  V30 7373 O 716.172 -3.79698 2.18543 0
M  V30 7374 C 717.673 -4.40608 0.48781 0
M  V30 7375 H 714.893 -0.632305 0.224569 0
M  V30 7376 H 717.437 -1.61646 1.25263 0
M  V30 7377 H 715.592 -3.86851 0.206246 0
M  V30 7378 H 716.006 -4.7426 2.24005 0
M  V30 7379 H 717.48 -5.47606 0.695126 0
M  V30 7380 H 717.957 -4.35394 -0.576913 0
M  V30 7381 H 718.563 -4.11411 1.078 0
M  V30 7382 N 716.879 -0.700114 -1.41195 0
M  V30 7383 C 717.789 -0.0382854 -2.34569 0
M  V30 7384 C 718.805 0.761036 -1.56474 0
M  V30 7385 O 719.981 0.697553 -1.88934 0
M  V30 7386 C 717.046 0.883522 -3.35253 0
M  V30 7387 C 716.107 0.0758957 -4.29233 0
M  V30 7388 C 715.34 0.9538 -5.25108 0
M  V30 7389 O 715.563 2.19326 -5.26547 0
M  V30 7390 O 714.497 0.401049 -6.00562 0
M  V30 7391 H 718.323 -0.808073 -2.92752 0
M  V30 7392 H 715.908 -0.460479 -1.42127 0
M  V30 7393 H 717.79 1.41199 -3.9704 0
M  V30 7394 H 716.465 1.63272 -2.79506 0
M  V30 7395 H 715.372 -0.497274 -3.7078 0
M  V30 7396 H 716.705 -0.634741 -4.8809 0
M  V30 7397 N 718.357 1.51182 -0.445186 0
M  V30 7398 C 719.768 1.86693 0.0160999 0
M  V30 7399 C 720.119 1.36183 1.4124 0
M  V30 7400 O 719.244 0.715895 2.04215 0
M  V30 7401 C 719.839 3.38781 0.0359918 0
M  V30 7402 C 718.398 3.73799 0.441715 0
M  V30 7403 C 717.545 2.74947 -0.360511 0
M  V30 7404 H 720.496 1.44294 -0.660674 0
M  V30 7405 H 720.517 3.71026 0.843813 0
M  V30 7406 H 720.029 3.75513 -0.980378 0
M  V30 7407 H 718.13 3.42659 1.4634 0
M  V30 7408 H 718.243 4.78829 0.16106 0
M  V30 7409 H 716.607 2.54047 0.182269 0
M  V30 7410 H 717.39 3.14521 -1.3759 0
M  V30 7411 N 719.835 0.176821 1.56605 0
M  V30 7412 C 720.798 -0.737429 2.17013 0
M  V30 7413 C 721.798 -1.15414 1.11965 0
M  V30 7414 O 722.988 -1.0702 1.37449 0
M  V30 7415 C 720.12 -2.00445 2.75744 0
M  V30 7416 H 721.313 -0.211455 2.99154 0
M  V30 7417 H 718.866 -0.0727582 1.56131 0
M  V30 7418 H 719.601 -2.57338 1.97352 0
M  V30 7419 H 719.386 -1.71456 3.52626 0
M  V30 7420 H 720.876 -2.65679 3.22187 0
M  V30 7421 N 721.313 -1.57302 -0.09688 0
M  V30 7422 C 722.243 -2.0497 -1.11846 0
M  V30 7423 C 723.224 -0.938278 -1.41882 0
M  V30 7424 O 724.409 -1.20943 -1.51942 0
M  V30 7425 C 721.539 -2.47264 -2.43881 0
M  V30 7426 C 720.493 -3.62053 -2.28257 0
M  V30 7427 C 719.819 -3.90318 -3.65453 0
M  V30 7428 C 721.119 -4.93005 -1.72461 0
M  V30 7429 H 722.813 -2.90567 -0.721888 0
M  V30 7430 H 720.359 -1.39786 -0.345803 0
M  V30 7431 H 722.312 -2.7922 -3.15617 0
M  V30 7432 H 721.036 -1.58664 -2.8547 0
M  V30 7433 H 719.695 -3.30341 -1.58967 0
M  V30 7434 H 719.343 -2.98889 -4.04567 0
M  V30 7435 H 719.043 -4.67597 -3.55846 0
M  V30 7436 H 720.567 -4.24747 -4.3866 0
M  V30 7437 H 721.981 -5.23354 -2.34036 0
M  V30 7438 H 720.378 -5.74436 -1.73618 0
M  V30 7439 H 721.448 -4.80053 -0.683898 0
M  V30 7440 N 722.791 0.367657 -1.53252 0
M  V30 7441 C 724.016 1.13566 -1.73544 0
M  V30 7442 C 724.441 1.82329 -0.462344 0
M  V30 7443 O 723.799 1.71655 0.583472 0
M  V30 7444 C 723.847 2.14322 -2.89997 0
M  V30 7445 O 722.951 3.21359 -2.58461 0
M  V30 7446 H 722.292 0.329614 -0.576412 0
M  V30 7447 H 724.822 0.425417 -2.00128 0
M  V30 7448 H 724.832 2.57958 -3.16104 0
M  V30 7449 H 723.507 1.63664 -3.82344 0
M  V30 7450 H 722.084 2.8271 -2.43165 0
M  V30 7451 N 724.269 1.44576 0.627338 0
M  V30 7452 C 725.201 1.47724 1.75243 0
M  V30 7453 C 726.214 0.370193 1.58535 0
M  V30 7454 O 727.403 0.636151 1.66779 0
M  V30 7455 C 724.503 1.2991 3.13012 0
M  V30 7456 C 723.676 2.5393 3.56143 0
M  V30 7457 C 722.735 2.30961 4.72804 0
M  V30 7458 O 721.761 3.04469 4.80923 0
M  V30 7459 N 722.963 1.34261 5.6476 0
M  V30 7460 H 725.728 2.44718 1.73012 0
M  V30 7461 H 723.289 1.40064 0.812022 0
M  V30 7462 H 725.281 1.12385 3.88782 0
M  V30 7463 H 723.851 0.412668 3.09864 0
M  V30 7464 H 723.071 2.86707 2.70542 0
M  V30 7465 H 724.359 3.36411 3.81713 0
M  V30 7466 H 723.757 0.735573 5.60897 0
M  V30 7467 H 722.314 1.22713 6.40144 0
M  V30 7468 N 725.747 -0.868086 1.31537 0
M  V30 7469 C 726.996 -1.61607 1.20689 0
M  V30 7470 C 727.309 -1.94204 -0.233275 0
M  V30 7471 O 728.515 -2.67515 -0.463465 0
M  V30 7472 C 726.971 -2.91348 2.11292 0
M  V30 7473 C 726.579 -2.66227 3.60315 0
M  V30 7474 C 728.323 -3.69344 2.09249 0
M  V30 7475 C 726.23 -3.91887 4.42921 0
M  V30 7476 H 725.16 -0.606373 0.448138 0
M  V30 7477 H 727.811 -0.959666 1.56405 0
M  V30 7478 H 726.193 -3.58374 1.68477 0
M  V30 7479 H 727.367 -2.07597 4.11388 0
M  V30 7480 H 725.682 -2.01582 3.64354 0
M  V30 7481 H 728.279 -4.62567 2.68209 0
M  V30 7482 H 728.622 -4.02044 1.0801 0
M  V30 7483 H 729.155 -3.09205 2.50274 0
M  V30 7484 H 725.894 -3.64336 5.44922 0
M  V30 7485 H 725.414 -4.49961 3.96605 0
M  V30 7486 H 727.093 -4.59754 4.55231 0
M  V30 7487 N 727.225 -1.14528 -1.08264 0
M  V30 7488 C 728.471 -0.91576 -1.80947 0
M  V30 7489 C 728.804 0.55623 -1.86064 0
M  V30 7490 O 728.079 1.41207 -1.33756 0
M  V30 7491 C 728.362 -1.51917 -3.26486 0
M  V30 7492 C 728.215 -3.06111 -3.2957 0
M  V30 7493 C 729.534 -1.19724 -4.23502 0
M  V30 7494 H 726.653 -0.334113 -0.656915 0
M  V30 7495 H 729.295 -1.41547 -1.26746 0
M  V30 7496 H 727.445 -1.0942 -3.72773 0
M  V30 7497 H 729.117 -3.57448 -2.91597 0
M  V30 7498 H 727.36 -3.40483 -2.688 0
M  V30 7499 H 728.031 -3.43438 -4.32151 0
M  V30 7500 H 730.507 -1.56467 -3.85561 0
M  V30 7501 H 729.383 -1.64575 -5.23647 0
M  V30 7502 H 729.644 -0.112771 -4.41956 0
M  V30 7503 N 728.703 1.26451 -0.940633 0
M  V30 7504 C 729.636 2.24771 -0.394094 0
M  V30 7505 C 730.614 1.54169 0.516781 0
M  V30 7506 O 731.798 1.82942 0.454352 0
M  V30 7507 C 728.925 3.3591 0.433807 0
M  V30 7508 C 727.971 4.24472 -0.415464 0
M  V30 7509 S 728.804 5.0293 -1.83907 0
M  V30 7510 C 729.96 6.17546 -1.01921 0
M  V30 7511 H 730.193 2.70782 -1.22737 0
M  V30 7512 H 727.726 1.35308 -0.743709 0
M  V30 7513 H 729.684 4.00387 0.905576 0
M  V30 7514 H 728.345 2.88512 1.24175 0
M  V30 7515 H 727.538 5.03525 0.218833 0
M  V30 7516 H 727.14 3.64857 -0.821897 0
M  V30 7517 H 729.432 6.76996 -0.261227 0
M  V30 7518 H 730.375 6.8528 -1.78318 0
M  V30 7519 H 730.783 5.6176 -0.555511 0
M  V30 7520 N 730.181 0.707592 1.40822 0
M  V30 7521 C 731.144 0.0587224 2.29125 0
M  V30 7522 C 732.144 -0.695624 1.44975 0
M  V30 7523 O 733.334 -0.528718 1.65983 0
M  V30 7524 C 730.466 -0.926939 3.28056 0
M  V30 7525 H 731.659 0.836349 2.88002 0
M  V30 7526 H 729.212 0.471778 1.4901 0
M  V30 7527 H 729.947 -1.7319 2.74182 0
M  V30 7528 H 729.732 -0.389015 3.90165 0
M  V30 7529 H 731.222 -1.37837 3.94196 0
M  V30 7530 N 731.66 -1.50943 0.453197 0
M  V30 7531 C 733.071 -1.86699 -0.00619892 0
M  V30 7532 C 733.422 -1.3693 -1.40515 0
M  V30 7533 O 732.547 -0.726715 -2.03833 0
M  V30 7534 C 733.142 -3.38795 -0.018025 0
M  V30 7535 C 731.701 -3.74028 -0.421885 0
M  V30 7536 C 730.848 -2.74752 0.375087 0
M  V30 7537 H 733.799 -1.43942 0.668317 0
M  V30 7538 H 733.82 -3.71468 -0.824125 0
M  V30 7539 H 733.332 -3.74988 1.00028 0
M  V30 7540 H 731.433 -3.43431 -1.44521 0
M  V30 7541 H 731.546 -4.78908 -0.135664 0
M  V30 7542 H 729.91 -2.5414 -0.168794 0
M  V30 7543 H 730.693 -3.13787 1.39256 0
M  V30 7544 N 733.138 -0.185124 -1.56509 0
M  V30 7545 C 734.363 0.465278 -2.02114 0
M  V30 7546 C 734.788 1.55083 -1.06447 0
M  V30 7547 O 734.146 1.81241 -0.0462852 0
M  V30 7548 C 734.194 1.00784 -3.46229 0
M  V30 7549 O 733.298 2.12123 -3.53663 0
M  V30 7550 H 732.639 0.109891 -0.654843 0
M  V30 7551 H 735.169 -0.293072 -2.0249 0
M  V30 7552 H 735.179 1.32697 -3.85818 0
M  V30 7553 H 733.854 0.213113 -4.15354 0
M  V30 7554 H 732.431 1.8115 -3.25943 0
M  V30 7555 N 734.616 1.57351 0.0885366 0
M  V30 7556 C 735.841 1.91011 0.80805 0
M  V30 7557 C 736.266 0.780009 1.71165 0
M  V30 7558 O 735.624 -0.268083 1.79307 0
M  V30 7559 C 735.672 3.23562 1.59185 0
M  V30 7560 O 734.776 3.11615 2.7013 0
M  V30 7561 H 734.117 0.625943 0.221565 0
M  V30 7562 H 736.647 2.04507 0.0617954 0
M  V30 7563 H 736.657 3.5703 1.97468 0
M  V30 7564 H 735.332 4.05398 0.928741 0
M  V30 7565 H 733.909 2.89673 2.34827 0
M  V30 7566 N 736.094 -0.359525 1.53444 0
M  V30 7567 C 737.026 -1.46098 1.76602 0
M  V30 7568 C 738.039 -1.49395 0.646912 0
M  V30 7569 O 739.228 -1.52765 0.923307 0
M  V30 7570 C 736.328 -2.84836 1.83635 0
M  V30 7571 C 735.501 -3.05164 3.13358 0
M  V30 7572 C 734.56 -4.24051 3.11556 0
M  V30 7573 O 733.586 -4.18935 3.85334 0
M  V30 7574 N 734.788 -5.31775 2.328 0
M  V30 7575 H 737.553 -1.2661 2.71643 0
M  V30 7576 H 735.114 -0.549294 1.52297 0
M  V30 7577 H 737.106 -3.62516 1.799 0
M  V30 7578 H 735.676 -2.97542 0.958509 0
M  V30 7579 H 734.896 -2.15091 3.30348 0
M  V30 7580 H 736.184 -3.15619 3.99076 0
M  V30 7581 H 735.582 -5.38796 1.7238 0
M  V30 7582 H 734.139 -6.0801 2.34877 0
M  V30 7583 N 737.572 -1.44907 -0.619662 0
M  V30 7584 C 738.797 -1.52021 -1.41083 0
M  V30 7585 C 739.222 -0.14976 -1.87503 0
M  V30 7586 O 738.58 0.863303 -1.59426 0
M  V30 7587 C 738.628 -2.49911 -2.59955 0
M  V30 7588 O 737.732 -2.00857 -3.60181 0
M  V30 7589 H 737.073 -0.512912 -0.421684 0
M  V30 7590 H 739.603 -1.90149 -0.755282 0
M  V30 7591 H 739.613 -2.68323 -3.07354 0
M  V30 7592 H 738.288 -3.4945 -2.25516 0
M  V30 7593 H 736.865 -1.92265 -3.19513 0
M  V30 7594 N 739.05 0.861098 -1.31996 0
M  V30 7595 C 739.982 1.97551 -1.16216 0
M  V30 7596 C 740.995 1.625 -0.0988527 0
M  V30 7597 O 742.184 1.75091 -0.3472 0
M  V30 7598 C 739.284 3.30376 -0.755307 0
M  V30 7599 C 738.457 3.93711 -1.90552 0
M  V30 7600 C 737.516 5.04862 -1.48328 0
M  V30 7601 O 736.542 5.25204 -2.19431 0
M  V30 7602 N 737.744 5.79283 -0.375656 0
M  V30 7603 H 740.509 2.11632 -2.12208 0
M  V30 7604 H 738.07 1.03559 -1.24448 0
M  V30 7605 H 740.062 4.0213 -0.455364 0
M  V30 7606 H 738.632 3.12395 0.113269 0
M  V30 7607 H 737.852 3.14825 -2.37231 0
M  V30 7608 H 739.14 4.32762 -2.67571 0
M  V30 7609 H 738.538 5.65286 0.216284 0
M  V30 7610 H 737.095 6.5166 -0.135289 0
M  V30 7611 N 740.528 1.15101 1.07655 0
M  V30 7612 C 741.939 0.933848 1.61667 0
M  V30 7613 C 742.29 -0.525569 1.8903 0
M  V30 7614 O 741.415 -1.39605 1.65346 0
M  V30 7615 C 742.01 1.68876 2.93711 0
M  V30 7616 C 740.569 1.51697 3.44478 0
M  V30 7617 C 739.716 1.70633 2.18586 0
M  V30 7618 H 742.667 1.30171 0.907816 0
M  V30 7619 H 742.688 1.15645 3.625 0
M  V30 7620 H 742.2 2.7509 2.73764 0
M  V30 7621 H 740.301 0.478635 3.69513 0
M  V30 7622 H 740.414 2.29194 4.20722 0
M  V30 7623 H 738.778 1.13259 2.28132 0
M  V30 7624 H 739.561 2.78206 2.01137 0
M  V30 7625 N 742.006 -1.2595 0.947325 0
M  V30 7626 C 743.231 -1.98083 0.614633 0
M  V30 7627 C 743.656 -1.70013 -0.804815 0
M  V30 7628 O 743.014 -0.95175 -1.54309 0
M  V30 7629 C 743.062 -3.4993 0.870706 0
M  V30 7630 O 742.166 -4.12364 -0.0541451 0
M  V30 7631 H 741.507 -0.621232 0.234451 0
M  V30 7632 H 744.037 -1.60259 1.27193 0
M  V30 7633 H 744.047 -4.00198 0.794051 0
M  V30 7634 H 742.722 -3.69691 1.90529 0
M  V30 7635 H 741.299 -3.72826 0.0740917 0
M  V30 7636 N 743.484 -0.715051 -1.40445 0
M  V30 7637 C 744.732 -0.253826 -2.005 0
M  V30 7638 C 745.053 1.15681 -1.5698 0
M  V30 7639 O 744.323 1.78414 -0.809027 0
M  V30 7640 H 742.903 -0.0908537 -0.741454 0
M  V30 7641 H 745.565 -0.920561 -1.7179 0
M  V30 7642 H 744.661 -0.286499 -3.10782 0
M  V30 7643 N 744.962 1.50701 -0.461195 0
M  V30 7644 C 746.187 2.07171 0.0974773 0
M  V30 7645 C 746.612 1.32391 1.3362 0
M  V30 7646 O 745.97 0.368676 1.77512 0
M  V30 7647 C 746.018 3.58651 0.374409 0
M  V30 7648 O 745.122 3.85816 1.4567 0
M  V30 7649 H 744.463 0.663944 -0.00862047 0
M  V30 7650 H 746.993 1.94021 -0.649394 0
M  V30 7651 H 747.003 4.03295 0.617843 0
M  V30 7652 H 745.678 4.12498 -0.530829 0
M  V30 7653 H 744.255 3.53018 1.20136 0
M  V30 7654 O 746.479 0.334734 1.57993 0
M  V30 7655 H 747.17 -0.222689 1.92416 0
M  V30 END ATOM
M  V30 BEGIN BOND
M  V30 END BOND
M  V30 END CTAB
M  END
$$$$
