drugbank_target|P15313 V-type proton ATPase subunit B, kidney isoform (DB01133)
 OpenBabel12092121233D

  0  0  0     0  0            999 V3000
M  V30 BEGIN CTAB
M  V30 COUNTS 7971 8050 0 0 0
M  V30 BEGIN ATOM
M  V30 1 H -0.908 1.98254 -0.117106 0
M  V30 2 N 0 1.576 0 0
M  V30 3 C 0.933 2.03868 1.02534 0
M  V30 4 C 1.911 0.928543 1.3348 0
M  V30 5 O 3.095 1.19667 1.45644 0
M  V30 6 C 0.222 2.43627 2.35294 0
M  V30 7 C -0.732 3.65373 2.2001 0
M  V30 8 S 0.101 5.13292 1.52614 0
M  V30 9 C 1.257 5.56322 2.86805 0
M  V30 10 H 1.49 2.90518 0.631377 0
M  V30 11 H -0.977 1.52953 0.210867 0
M  V30 12 H 0.981 2.67203 3.11629 0
M  V30 13 H -0.358 1.57376 2.7183 0
M  V30 14 H -1.165 3.90944 3.18086 0
M  V30 15 H -1.563 3.418 1.51819 0
M  V30 16 H 0.729 5.58782 3.83104 0
M  V30 17 H 1.672 6.56266 2.65933 0
M  V30 18 H 2.08 4.83886 2.90714 0
M  V30 19 N 1.4781 -0.272755 1.55222 0
M  V30 20 C 2.4411 -1.32041 1.87344 0
M  V30 21 C 3.4411 -1.42342 0.74803 0
M  V30 22 O 4.6311 -1.41488 1.0162 0
M  V30 23 C 1.7631 -2.70173 2.07893 0
M  V30 24 H 2.9561 -1.04789 2.80997 0
M  V30 25 H 0.5091 -0.51083 1.47717 0
M  V30 26 H 1.2441 -3.02605 1.16622 0
M  V30 27 H 1.0291 -2.64082 2.89833 0
M  V30 28 H 2.5191 -3.45869 2.34017 0
M  V30 29 N 2.9562 -1.48159 -0.537278 0
M  V30 30 C 3.8892 -1.567 -1.65893 0
M  V30 31 C 4.8672 -0.41787 -1.57139 0
M  V30 32 O 6.0512 -0.628461 -1.77715 0
M  V30 33 C 3.1782 -1.48818 -3.04255 0
M  V30 34 C 2.2242 -2.68482 -3.31391 0
M  V30 35 S 3.0572 -4.30516 -3.1846 0
M  V30 36 C 4.2132 -4.2522 -4.59281 0
M  V30 37 H 4.4462 -2.5159 -1.58397 0
M  V30 38 H 1.9792 -1.36602 -0.719672 0
M  V30 39 H 3.9372 -1.44958 -3.84054 0
M  V30 40 H 2.5982 -0.552777 -3.09198 0
M  V30 41 H 1.7912 -2.59085 -4.32309 0
M  V30 42 H 1.3932 -2.69567 -2.59248 0
M  V30 43 H 3.6852 -3.94703 -5.5065 0
M  V30 44 H 4.6282 -5.26292 -4.73732 0
M  V30 45 H 5.0362 -3.55791 -4.38261 0
M  V30 46 N 4.4343 0.785586 -1.36625 0
M  V30 47 C 5.3443 1.92964 -1.33425 0
M  V30 48 C 6.3603 1.72394 -0.235851 0
M  V30 49 O 7.5363 1.95866 -0.468878 0
M  V30 50 C 4.6013 3.27884 -1.12662 0
M  V30 51 C 3.6623 3.61204 -2.32013 0
M  V30 52 C 2.8953 4.89687 -2.12231 0
M  V30 53 O 3.1183 5.59704 -1.09945 0
M  V30 54 O 2.0523 5.21752 -3.00098 0
M  V30 55 H 5.8783 1.98613 -2.29753 0
M  V30 56 H 3.4633 0.926384 -1.17211 0
M  V30 57 H 5.3453 4.08614 -1.03016 0
M  V30 58 H 4.0203 3.23118 -0.193991 0
M  V30 59 H 2.9273 2.80765 -2.47228 0
M  V30 60 H 4.2603 3.70698 -3.23796 0
M  V30 61 N 5.9124 1.20967 1.01018 0
M  V30 62 C 7.1614 1.01796 1.74128 0
M  V30 63 C 7.4744 -0.449691 1.90361 0
M  V30 64 O 8.6804 -0.76068 2.60626 0
M  V30 65 C 7.1364 1.7727 3.13215 0
M  V30 66 C 6.7444 3.28171 3.04972 0
M  V30 67 C 8.4884 1.66489 3.90489 0
M  V30 68 C 6.3954 3.96156 4.39107 0
M  V30 69 H 5.3254 0.377276 0.652824 0
M  V30 70 H 7.9764 1.44651 1.12909 0
M  V30 71 H 6.3584 1.27205 3.75013 0
M  V30 72 H 7.5324 3.85499 2.52443 0
M  V30 73 H 5.8474 3.39437 2.41188 0
M  V30 74 H 8.4444 2.14617 4.89738 0
M  V30 75 H 8.7874 0.6222 4.11624 0
M  V30 76 H 9.3204 2.14003 3.35332 0
M  V30 77 H 6.0594 5.00604 4.23174 0
M  V30 78 H 5.5794 3.43617 4.91617 0
M  V30 79 H 7.2584 4.00774 5.07926 0
M  V30 80 N 7.3905 -1.2043 1.01659 0
M  V30 81 C 8.6675 -1.8548 0.621004 0
M  V30 82 C 9.0475 -1.9091 -0.900919 0
M  V30 83 O 8.3955 -1.41694 -1.79263 0
M  V30 84 C 8.6055 -3.25119 1.2688 0
M  V30 85 C 9.9535 -4.01403 1.38423 0
M  V30 86 O 10.9775 -3.34473 1.22501 0
M  V30 87 O 9.8365 -5.21265 1.64151 0
M  V30 88 H 6.9305 -0.798761 0.214266 0
M  V30 89 H 9.4765 -1.28019 1.11396 0
M  V30 90 H 8.2485 -3.15932 2.30873 0
M  V30 91 H 7.8715 -3.90212 0.762917 0
M  V30 92 N 8.8686 -0.792821 -1.36206 0
M  V30 93 C 10.0936 -0.377701 -2.03932 0
M  V30 94 C 10.5186 0.998947 -1.59382 0
M  V30 95 O 9.8766 1.64421 -0.763903 0
M  V30 96 C 9.9246 -0.453635 -3.57735 0
M  V30 97 O 9.0286 0.538151 -4.08874 0
M  V30 98 H 8.3696 -0.159855 -0.644471 0
M  V30 99 H 10.8996 -1.07488 -1.7409 0
M  V30 100 H 10.9096 -0.318464 -4.06755 0
M  V30 101 H 9.5846 -1.45784 -3.89512 0
M  V30 102 H 8.1616 0.364359 -3.71116 0
M  V30 103 N 10.3467 1.47872 -0.545128 0
M  V30 104 C 11.7627 1.5829 -0.204032 0
M  V30 105 C 11.9627 1.54529 1.29317 0
M  V30 106 O 11.0187 1.44232 2.07252 0
M  V30 107 C 12.3317 2.89304 -0.819987 0
M  V30 108 C 13.8797 3.02864 -0.790105 0
M  V30 109 C 14.3547 4.3656 -1.38491 0
M  V30 110 N 15.8457 4.43165 -1.34755 0
M  V30 111 C 16.5807 5.45153 -1.77753 0
M  V30 112 N 16.0767 6.54016 -2.2855 0
M  V30 113 N 17.8697 5.36125 -1.68897 0
M  V30 114 H 10.0207 1.4856 -1.51802 0
M  V30 115 H 12.2837 0.706305 -0.632327 0
M  V30 116 H 11.9897 2.97757 -1.87173 0
M  V30 117 H 11.8637 3.75957 -0.305915 0
M  V30 118 H 14.2507 2.94014 0.252913 0
M  V30 119 H 14.3317 2.17782 -1.34181 0
M  V30 120 H 13.9757 4.46164 -2.42693 0
M  V30 121 H 13.9057 5.20353 -0.808754 0
M  V30 122 H 16.3967 3.65083 -0.975855 0
M  V30 123 H 16.7097 7.27994 -2.59314 0
M  V30 124 H 15.0547 6.54938 -2.32553 0
M  V30 125 H 18.2457 4.49975 -1.28998 0
M  V30 126 H 18.4187 6.15472 -2.02726 0
M  V30 127 N 11.8248 0.280983 1.55075 0
M  V30 128 C 13.2358 -0.215629 1.85451 0
M  V30 129 C 13.5868 -1.54991 1.203 0
M  V30 130 O 12.7118 -2.10699 0.493435 0
M  V30 131 C 13.3068 -0.398026 3.36454 0
M  V30 132 C 11.8658 -0.838866 3.66933 0
M  V30 133 C 11.0128 0.064458 2.77225 0
M  V30 134 H 13.9638 0.502601 1.50531 0
M  V30 135 H 13.9848 -1.23569 3.59876 0
M  V30 136 H 13.4968 0.573241 3.83843 0
M  V30 137 H 11.5978 -1.8214 3.25048 0
M  V30 138 H 11.7108 -0.672123 4.74362 0
M  V30 139 H 10.0748 -0.452863 2.50642 0
M  V30 140 H 10.8578 1.03172 3.2743 0
M  V30 141 N 13.3029 -1.57598 0.00835791 0
M  V30 142 C 14.5509 -1.90551 -0.6734 0
M  V30 143 C 14.8719 -0.883301 -1.73847 0
M  V30 144 O 14.1419 0.0781442 -1.95744 0
M  V30 145 H 12.7219 -0.703312 -0.251717 0
M  V30 146 H 15.3839 -1.94833 0.0512592 0
M  V30 147 H 14.4799 -2.9056 -1.13935 0
M  V30 148 N 14.781 0.264519 -1.55364 0
M  V30 149 C 16.029 0.993021 -1.76021 0
M  V30 150 C 16.35 1.86511 -0.569099 0
M  V30 151 O 15.62 1.91438 0.415735 0
M  V30 152 H 14.2 0.369639 -0.649135 0
M  V30 153 H 16.862 0.286707 -1.9278 0
M  V30 154 H 15.958 1.62502 -2.66457 0
M  V30 155 N 16.2591 1.48442 0.529413 0
M  V30 156 C 17.1891 1.65902 1.64313 0
M  V30 157 C 18.1701 0.507897 1.6234 0
M  V30 158 O 19.3551 0.740503 1.79528 0
M  V30 159 C 16.4851 1.69911 3.02898 0
M  V30 160 C 15.4391 2.8453 3.19729 0
M  V30 161 C 14.7651 2.73629 4.59381 0
M  V30 162 C 16.0651 4.25821 3.02447 0
M  V30 163 H 17.7591 2.5914 1.49955 0
M  V30 164 H 15.3051 1.24709 0.719982 0
M  V30 165 H 17.2581 1.80715 3.80684 0
M  V30 166 H 15.9821 0.732524 3.18279 0
M  V30 167 H 14.6411 2.73283 2.44361 0
M  V30 168 H 14.2891 1.74938 4.71599 0
M  V30 169 H 13.9891 3.50541 4.71588 0
M  V30 170 H 15.5131 2.86401 5.39265 0
M  V30 171 H 16.9271 4.37898 3.70024 0
M  V30 172 H 15.3241 5.03735 3.26146 0
M  V30 173 H 16.3941 4.42244 1.98867 0
M  V30 174 N 17.7372 -0.778329 1.37039 0
M  V30 175 C 19.1482 -1.35421 1.28523 0
M  V30 176 C 19.4992 -1.96075 -0.0700901 0
M  V30 177 O 18.6242 -1.93352 -0.971801 0
M  V30 178 C 19.2192 -2.46211 2.32735 0
M  V30 179 C 17.7782 -2.99585 2.27873 0
M  V30 180 C 16.9252 -1.72748 2.16918 0
M  V30 181 H 19.8762 -0.5791 1.47757 0
M  V30 182 H 19.8972 -3.2552 1.9702 0
M  V30 183 H 19.4092 -2.02036 3.31365 0
M  V30 184 H 17.5102 -3.48152 1.32745 0
M  V30 185 H 17.6232 -3.55646 3.21018 0
M  V30 186 H 15.9872 -1.95416 1.63354 0
M  V30 187 H 16.7702 -1.30686 3.17452 0
M  V30 188 N 19.2153 -1.21501 -1.00376 0
M  V30 189 C 20.4633 -1.03095 -1.73827 0
M  V30 190 C 20.7843 0.436341 -1.90055 0
M  V30 191 O 20.0543 1.31466 -1.45236 0
M  V30 192 H 18.6343 -0.378487 -0.644016 0
M  V30 193 H 21.2963 -1.52831 -1.20949 0
M  V30 194 H 20.3923 -1.49991 -2.73695 0
M  V30 195 N 20.6934 1.19889 -1.02296 0
M  V30 196 C 21.9184 1.9393 -0.735237 0
M  V30 197 C 22.3434 1.74639 0.698782 0
M  V30 198 O 21.7014 1.04481 1.48167 0
M  V30 199 C 21.7494 3.43916 -1.08417 0
M  V30 200 O 20.8534 4.11917 -0.199446 0
M  V30 201 H 20.1944 0.605645 -0.272196 0
M  V30 202 H 22.7244 1.52137 -1.36804 0
M  V30 203 H 22.7344 3.9456 -1.03856 0
M  V30 204 H 21.4094 3.5728 -2.12894 0
M  V30 205 H 19.9864 3.71666 -0.303136 0
M  V30 206 N 22.1715 0.800033 1.35784 0
M  V30 207 C 23.3965 0.388511 2.03729 0
M  V30 208 C 23.8215 -0.990481 1.5991 0
M  V30 209 O 23.1795 -1.64013 0.772612 0
M  V30 210 C 23.2275 0.4726 3.5749 0
M  V30 211 O 22.3315 -0.51646 4.09153 0
M  V30 212 H 21.6725 0.163271 0.643614 0
M  V30 213 H 24.2025 1.0841 1.73518 0
M  V30 214 H 24.2125 0.34003 4.06581 0
M  V30 215 H 22.8875 1.47848 3.88734 0
M  V30 216 H 21.4645 -0.344673 3.71304 0
M  V30 217 N 23.6496 -1.47581 0.552962 0
M  V30 218 C 24.8896 -2.04379 0.0296245 0
M  V30 219 C 25.2536 -1.4185 -1.29393 0
M  V30 220 O 26.4546 -1.89669 -1.90471 0
M  V30 221 C 24.7256 -3.57339 -0.0661371 0
M  V30 222 S 26.2846 -4.35511 -0.536213 0
M  V30 223 H 23.1026 -0.710625 0.0230991 0
M  V30 224 H 25.7046 -1.81005 0.738734 0
M  V30 225 H 24.4086 -4.00374 0.901596 0
M  V30 226 H 23.9396 -3.85202 -0.798931 0
M  V30 227 H 25.9546 -4.6253 -1.79668 0
M  V30 228 N 25.1277 -0.289203 -1.54924 0
M  V30 229 C 26.0757 0.607966 -2.24514 0
M  V30 230 C 27.0697 1.14655 -1.24702 0
M  V30 231 O 28.2757 1.09856 -1.4259 0
M  V30 232 H 24.6507 0.21464 -0.720718 0
M  V30 233 H 26.6217 -0.00164182 -2.984 0
M  V30 234 C 25.3707 1.77406 -2.99036 0
M  V30 235 H 24.6937 1.36884 -3.75637 0
M  V30 236 H 26.1337 2.37814 -3.51028 0
M  V30 237 C 24.5927 2.67107 -2.05318 0
M  V30 238 O 25.1227 3.6787 -1.61353 0
M  V30 239 N 23.3287 2.34582 -1.71521 0
M  V30 240 H 22.8757 1.52688 -2.07471 0
M  V30 241 H 22.8337 2.94867 -1.0909 0
M  V30 242 N 26.6058 1.57591 -0.0167156 0
M  V30 243 C 27.5358 2.12496 0.967858 0
M  V30 244 C 28.5168 1.03807 1.34752 0
M  V30 245 O 29.7018 1.31577 1.42833 0
M  V30 246 C 26.8318 2.64194 2.25431 0
M  V30 247 C 25.7858 3.77559 2.01576 0
M  V30 248 C 25.1118 4.15636 3.36379 0
M  V30 249 C 26.4118 5.04151 1.36489 0
M  V30 250 H 28.1058 2.95013 0.510643 0
M  V30 251 H 25.6518 1.41915 0.244181 0
M  V30 252 H 27.6048 3.01236 2.94678 0
M  V30 253 H 26.3288 1.78821 2.73296 0
M  V30 254 H 24.9878 3.40937 1.34751 0
M  V30 255 H 24.6358 3.27263 3.81979 0
M  V30 256 H 24.3358 4.92022 3.21229 0
M  V30 257 H 25.8598 4.5525 4.06915 0
M  V30 258 H 27.2738 5.38857 1.95718 0
M  V30 259 H 25.6708 5.85453 1.31776 0
M  V30 260 H 26.7408 4.83733 0.336219 0
M  V30 261 N 28.0839 -0.256276 1.55502 0
M  V30 262 C 29.3319 -0.983672 1.76545 0
M  V30 263 C 29.6529 -1.86206 0.578982 0
M  V30 264 O 28.9229 -1.91656 -0.405577 0
M  V30 265 H 27.5029 -0.366191 0.651086 0
M  V30 266 H 30.1649 -0.276479 1.92929 0
M  V30 267 H 29.2609 -1.61087 2.67315 0
M  V30 268 N 29.562 -1.4872 -0.521534 0
M  V30 269 C 30.525 -1.63379 -1.60748 0
M  V30 270 C 31.525 -0.50661 -1.52611 0
M  V30 271 O 32.715 -0.772601 -1.5613 0
M  V30 272 C 29.847 -1.61192 -3.00383 0
M  V30 273 H 31.04 -2.60217 -1.49087 0
M  V30 274 H 28.593 -1.37444 -0.744235 0
M  V30 275 H 29.328 -0.65863 -3.17541 0
M  V30 276 H 29.113 -2.43032 -3.07698 0
M  V30 277 H 30.603 -1.7466 -3.7932 0
M  V30 278 N 31.0401 0.771051 -1.3745 0
M  V30 279 C 32.0031 1.86598 -1.33093 0
M  V30 280 C 33.0031 1.59076 -0.234845 0
M  V30 281 O 34.1931 1.67145 -0.490732 0
M  V30 282 C 31.3251 3.23747 -1.06773 0
M  V30 283 H 32.5181 1.91873 -2.30488 0
M  V30 284 H 30.0711 0.970876 -1.2249 0
M  V30 285 H 30.8061 3.24148 -0.099129 0
M  V30 286 H 30.5911 3.45115 -1.86112 0
M  V30 287 H 32.0811 4.03824 -1.06377 0
M  V30 288 N 32.5182 1.22032 0.997298 0
M  V30 289 C 33.9342 0.979326 1.26021 0
M  V30 290 C 34.1342 -0.32972 1.98784 0
M  V30 291 O 33.1902 -1.05345 2.29475 0
M  V30 292 C 34.5032 2.17509 2.07631 0
M  V30 293 C 36.0512 2.21817 2.2083 0
M  V30 294 C 36.5262 3.40933 3.05825 0
M  V30 295 N 38.0172 3.41067 3.13412 0
M  V30 296 C 38.7522 4.29885 3.79455 0
M  V30 297 N 38.2482 5.28914 4.47462 0
M  V30 298 N 40.0412 4.17673 3.76173 0
M  V30 299 H 32.1922 2.06202 0.509352 0
M  V30 300 H 34.4552 0.90334 0.287541 0
M  V30 301 H 34.1612 3.12415 1.61524 0
M  V30 302 H 34.0352 2.17206 3.08385 0
M  V30 303 H 36.4222 1.27462 2.66153 0
M  V30 304 H 36.5032 2.2616 1.1952 0
M  V30 305 H 36.1472 4.35586 2.61203 0
M  V30 306 H 36.0772 3.33829 4.07266 0
M  V30 307 H 38.5682 2.69406 2.65007 0
M  V30 308 H 38.8812 5.92973 4.95583 0
M  V30 309 H 37.2262 5.32831 4.46224 0
M  V30 310 H 40.4172 3.39564 3.22202 0
M  V30 311 H 40.5902 4.87098 4.27363 0
M  V30 312 N 33.9963 -1.19345 1.0293 0
M  V30 313 C 34.9063 -2.26245 0.620515 0
M  V30 314 C 35.9223 -1.70486 -0.347928 0
M  V30 315 O 37.0983 -2.00347 -0.205704 0
M  V30 316 C 34.1633 -3.46693 -0.0218957 0
M  V30 317 C 33.2243 -4.17632 0.994102 0
M  V30 318 C 32.4573 -5.32329 0.382253 0
M  V30 319 O 32.6803 -5.64552 -0.814676 0
M  V30 320 O 31.6143 -5.91664 1.10531 0
M  V30 321 H 35.4403 -2.63453 1.51083 0
M  V30 322 H 33.0253 -1.26207 0.799513 0
M  V30 323 H 34.9073 -4.19683 -0.380072 0
M  V30 324 H 33.5823 -3.11333 -0.886209 0
M  V30 325 H 32.4893 -3.4676 1.40387 0
M  V30 326 H 33.8223 -4.56964 1.8288 0
M  V30 327 N 35.4744 -0.807222 -1.35358 0
M  V30 328 C 36.4244 -0.190706 -2.27201 0
M  V30 329 C 37.4084 0.635838 -1.47804 0
M  V30 330 O 38.6004 0.492991 -1.69996 0
M  V30 331 C 35.7294 0.659337 -3.36909 0
M  V30 332 C 34.8154 -0.176971 -4.23731 0
M  V30 333 N 35.2064 -1.24029 -4.90357 0
M  V30 334 C 33.5044 0.0412953 -4.45981 0
M  V30 335 C 34.2054 -1.75092 -5.54723 0
M  V30 336 N 33.1814 -1.05727 -5.33219 0
M  V30 337 H 36.9834 -1.0043 -2.76208 0
M  V30 338 H 34.4974 -0.648445 -1.48892 0
M  V30 339 H 36.4944 1.11706 -4.01656 0
M  V30 340 H 35.1544 1.47127 -2.89454 0
M  V30 341 H 36.1654 -1.62295 -4.91814 0
M  V30 342 H 32.8424 0.82232 -4.09322 0
M  V30 343 H 34.2324 -2.63963 -6.17878 0
M  V30 344 N 36.9525 1.47285 -0.560781 0
M  V30 345 C 37.8855 2.27009 0.232821 0
M  V30 346 C 38.8635 1.34273 0.917039 0
M  V30 347 O 40.0475 1.63659 0.935315 0
M  V30 348 C 37.1745 3.11406 1.33206 0
M  V30 349 C 36.2205 4.19746 0.756019 0
M  V30 350 S 37.0535 5.34003 -0.400165 0
M  V30 351 C 38.2095 6.21964 0.700805 0
M  V30 352 H 38.4425 2.93971 -0.443683 0
M  V30 353 H 35.9755 1.50446 -0.347181 0
M  V30 354 H 37.9335 3.60601 1.96156 0
M  V30 355 H 36.5945 2.438 1.98041 0
M  V30 356 H 35.7875 4.78541 1.5816 0
M  V30 357 H 35.3895 3.73451 0.202619 0
M  V30 358 H 37.6815 6.58529 1.59202 0
M  V30 359 H 38.6245 7.07941 0.150126 0
M  V30 360 H 39.0325 5.5566 0.995083 0
M  V30 361 N 38.4306 0.297415 1.54768 0
M  V30 362 C 39.3626 -0.613881 2.20826 0
M  V30 363 C 40.3756 -1.10032 1.19987 0
M  V30 364 O 41.5646 -1.01839 1.46598 0
M  V30 365 C 38.6646 -1.852 2.83821 0
M  V30 366 C 37.8376 -1.50865 4.10559 0
M  V30 367 C 36.8966 -2.60154 4.57391 0
M  V30 368 O 35.9226 -2.25398 5.2267 0
M  V30 369 N 37.1246 -3.90629 4.29406 0
M  V30 370 H 39.8896 -0.048389 2.99661 0
M  V30 371 H 37.4506 0.11946 1.61459 0
M  V30 372 H 39.4426 -2.57652 3.12086 0
M  V30 373 H 38.0126 -2.32597 2.08847 0
M  V30 374 H 37.2326 -0.616925 3.89343 0
M  V30 375 H 38.5206 -1.25458 4.9309 0
M  V30 376 H 37.9186 -4.21677 3.77101 0
M  V30 377 H 36.4756 -4.59391 4.62388 0
M  V30 378 N 39.9087 -1.5758 0.0250728 0
M  V30 379 C 40.8717 -2.08896 -0.943139 0
M  V30 380 C 41.8717 -1.00321 -1.25668 0
M  V30 381 O 43.0617 -1.26495 -1.19769 0
M  V30 382 C 40.1937 -2.55143 -2.26086 0
M  V30 383 H 41.3867 -2.95723 -0.498775 0
M  V30 384 H 38.9397 -1.54703 -0.222888 0
M  V30 385 H 39.6747 -1.71633 -2.75159 0
M  V30 386 H 39.4597 -3.34461 -2.04641 0
M  V30 387 H 40.9497 -2.95083 -2.95492 0
M  V30 388 N 41.3868 0.248026 -1.55636 0
M  V30 389 C 42.6328 0.97767 -1.77678 0
M  V30 390 C 42.9658 1.85016 -0.590135 0
M  V30 391 O 42.2408 1.90095 0.411611 0
M  V30 392 C 42.5238 1.83914 -3.09593 0
M  V30 393 C 42.3768 0.99491 -4.38659 0
M  V30 394 C 43.6958 2.82183 -3.37729 0
M  V30 395 H 40.8148 0.354005 -0.646413 0
M  V30 396 H 43.4568 0.248253 -1.88371 0
M  V30 397 H 41.6068 2.46104 -3.00608 0
M  V30 398 H 43.2788 0.391789 -4.59633 0
M  V30 399 H 41.5218 0.299231 -4.32767 0
M  V30 400 H 42.1928 1.63145 -5.2734 0
M  V30 401 H 44.6688 2.30129 -3.4667 0
M  V30 402 H 43.5448 3.39582 -4.31249 0
M  V30 403 H 43.8058 3.58588 -2.58586 0
M  V30 404 N 42.8649 1.48995 0.513639 0
M  V30 405 C 44.0929 1.61531 1.29288 0
M  V30 406 C 44.5079 0.281801 1.86685 0
M  V30 407 O 43.8649 -0.731111 1.67215 0
M  V30 408 C 43.9159 2.67449 2.43215 0
M  V30 409 O 43.6369 3.95626 1.88179 0
M  V30 410 C 45.1379 2.90575 3.34785 0
M  V30 411 H 42.3579 0.544165 0.392588 0
M  V30 412 H 44.9019 1.9494 0.617956 0
M  V30 413 H 43.0569 2.36853 3.0656 0
M  V30 414 H 43.4709 4.53868 2.62876 0
M  V30 415 H 44.9449 3.68449 4.11035 0
M  V30 416 H 45.4219 2.00011 3.91015 0
M  V30 417 H 46.0279 3.22538 2.77218 0
M  V30 418 N 44.343 -0.763751 1.37857 0
M  V30 419 C 45.759 -1.06542 1.18832 0
M  V30 420 C 45.959 -2.01478 0.0299722 0
M  V30 421 O 45.015 -2.4458 -0.627447 0
M  V30 422 C 46.328 -1.65525 2.51042 0
M  V30 423 C 47.876 -1.77745 2.57635 0
M  V30 424 C 48.351 -2.4014 3.89996 0
M  V30 425 N 49.842 -2.47582 3.91481 0
M  V30 426 C 50.577 -2.96732 4.9065 0
M  V30 427 N 50.073 -3.45993 6.00217 0
M  V30 428 N 51.866 -2.95679 4.78048 0
M  V30 429 H 44.017 -0.133556 2.1198 0
M  V30 430 H 46.28 -0.121879 0.940133 0
M  V30 431 H 45.986 -1.03236 3.36207 0
M  V30 432 H 45.86 -2.64719 2.68707 0
M  V30 433 H 48.247 -2.39164 1.72872 0
M  V30 434 H 48.328 -0.772836 2.43846 0
M  V30 435 H 47.972 -1.79358 4.75177 0
M  V30 436 H 47.902 -3.41223 4.01092 0
M  V30 437 H 50.393 -2.1273 3.12337 0
M  V30 438 H 50.706 -3.81922 6.7183 0
M  V30 439 H 49.051 -3.44077 6.03851 0
M  V30 440 H 52.242 -2.56499 3.91568 0
M  V30 441 H 52.415 -3.33672 5.55488 0
M  V30 442 N 45.8211 -1.22559 -0.990812 0
M  V30 443 C 46.7691 -0.994798 -2.10253 0
M  V30 444 C 47.7631 0.0627798 -1.69284 0
M  V30 445 O 48.9691 -0.0898392 -1.79776 0
M  V30 446 H 45.3441 -0.304527 -0.687581 0
M  V30 447 H 47.3151 -1.93812 -2.26891 0
M  V30 448 C 46.0641 -0.591439 -3.42633 0
M  V30 449 H 45.3871 -1.3969 -3.74602 0
M  V30 450 H 46.8271 -0.469385 -4.21394 0
M  V30 451 C 45.2861 0.699232 -3.29564 0
M  V30 452 O 45.8161 1.75112 -3.61523 0
M  V30 453 N 44.0221 0.671182 -2.82743 0
M  V30 454 H 43.5691 -0.185136 -2.56934 0
M  V30 455 H 43.5271 1.53502 -2.7438 0
M  V30 456 N 47.2992 1.18797 -1.03562 0
M  V30 457 C 48.5292 1.92319 -0.754773 0
M  V30 458 C 48.9372 1.7612 0.691248 0
M  V30 459 O 48.2802 1.08491 1.48241 0
M  V30 460 C 48.3422 3.44284 -1.03484 0
M  V30 461 C 48.0062 3.84258 -2.47376 0
M  V30 462 C 49.0032 3.88459 -3.45537 0
M  V30 463 C 46.6882 4.15701 -2.81954 0
M  V30 464 C 48.6822 4.23545 -4.76328 0
M  V30 465 C 46.3692 4.50458 -4.12954 0
M  V30 466 C 47.3672 4.54356 -5.09951 0
M  V30 467 O 47.0552 4.88305 -6.38603 0
M  V30 468 H 46.7872 0.617527 -0.275021 0
M  V30 469 H 49.3412 1.51683 -1.38497 0
M  V30 470 H 47.5712 3.85135 -0.347513 0
M  V30 471 H 49.2602 3.99049 -0.7426 0
M  V30 472 H 50.0262 3.6431 -3.20162 0
M  V30 473 H 45.9052 4.11847 -2.0713 0
M  V30 474 H 49.4492 4.26502 -5.52035 0
M  V30 475 H 45.3462 4.74067 -4.38099 0
M  V30 476 H 46.1142 5.06227 -6.43177 0
M  V30 477 N 48.7773 0.814389 1.34928 0
M  V30 478 C 50.0263 0.394871 1.97797 0
M  V30 479 C 50.3393 -1.04555 1.65311 0
M  V30 480 O 51.5453 -1.56856 2.21604 0
M  V30 481 C 50.0013 0.655103 3.53888 0
M  V30 482 C 49.6093 2.10858 3.95276 0
M  V30 483 C 51.3533 0.301329 4.23429 0
M  V30 484 C 49.2603 2.31415 5.44244 0
M  V30 485 H 48.1903 0.143913 0.740139 0
M  V30 486 H 50.8413 0.999544 1.53888 0
M  V30 487 H 49.2233 -0.0196253 3.95995 0
M  V30 488 H 50.3973 2.82176 3.64298 0
M  V30 489 H 48.7123 2.42297 3.38646 0
M  V30 490 H 51.3093 0.432869 5.32945 0
M  V30 491 H 51.6523 -0.75331 4.09428 0
M  V30 492 H 52.1853 0.930288 3.86769 0
M  V30 493 H 48.9243 3.35353 5.63222 0
M  V30 494 H 48.4443 1.6463 5.76764 0
M  V30 495 H 50.1233 2.13352 6.10811 0
M  V30 496 N 50.2554 -1.46986 0.568584 0
M  V30 497 C 51.4834 -2.0683 0.0539956 0
M  V30 498 C 51.8984 -1.41953 -1.24478 0
M  V30 499 O 51.2554 -0.519933 -1.74937 0
M  V30 500 C 51.3064 -3.61254 -0.133362 0
M  V30 501 O 51.0274 -4.237 1.11399 0
M  V30 502 C 52.5284 -4.37992 -0.683927 0
M  V30 503 H 49.7484 -0.669058 0.0510141 0
M  V30 504 H 52.2924 -1.88824 0.785234 0
M  V30 505 H 50.4474 -3.78735 -0.81477 0
M  V30 506 H 50.8614 -5.16388 0.91888 0
M  V30 507 H 52.3354 -5.46684 -0.764263 0
M  V30 508 H 52.8124 -4.05058 -1.69778 0
M  V30 509 H 53.4184 -4.25283 -0.0378494 0
M  V30 510 N 51.7335 -0.305618 -1.54608 0
M  V30 511 C 52.6835 0.583595 -2.20405 0
M  V30 512 C 53.6675 1.09539 -1.17856 0
M  V30 513 O 54.8595 1.0354 -1.43557 0
M  V30 514 C 51.9885 1.75277 -2.95183 0
M  V30 515 C 51.0745 1.25672 -4.05052 0
M  V30 516 N 51.4655 0.478998 -5.03527 0
M  V30 517 C 49.7635 1.53704 -4.18678 0
M  V30 518 C 50.4645 0.214269 -5.81305 0
M  V30 519 N 49.4405 0.795374 -5.3775 0
M  V30 520 H 53.2425 -0.0180946 -2.93894 0
M  V30 521 H 50.7565 -0.110601 -1.62023 0
M  V30 522 H 52.7535 2.4014 -3.40791 0
M  V30 523 H 51.4135 2.35812 -2.23211 0
M  V30 524 H 52.4245 0.123473 -5.17753 0
M  V30 525 H 49.1015 2.14954 -3.57912 0
M  V30 526 H 50.4915 -0.410656 -6.70644 0
M  V30 527 N 53.2116 1.57565 -0.0334293 0
M  V30 528 C 54.6226 1.79746 0.504798 0
M  V30 529 C 54.9736 0.944091 1.71992 0
M  V30 530 O 54.0986 0.155694 2.15839 0
M  V30 531 C 54.6936 3.25997 0.922567 0
M  V30 532 C 53.2526 3.49159 1.40588 0
M  V30 533 C 52.3996 2.74785 0.372633 0
M  V30 534 H 55.3506 1.56565 -0.259436 0
M  V30 535 H 55.3716 3.35945 1.78666 0
M  V30 536 H 54.8836 3.88081 0.0379825 0
M  V30 537 H 52.9846 2.92332 2.31025 0
M  V30 538 H 53.0976 4.57873 1.41028 0
M  V30 539 H 51.4616 2.40391 0.841672 0
M  V30 540 H 52.2446 3.39587 -0.503559 0
M  V30 541 N 54.6897 -0.239769 1.55765 0
M  V30 542 C 56.1057 -0.588624 1.48349 0
M  V30 543 C 56.3057 -1.88005 0.72502 0
M  V30 544 O 55.3617 -2.51186 0.257269 0
M  V30 545 C 56.6747 -0.68474 2.928 0
M  V30 546 C 58.2227 -0.77659 3.03213 0
M  V30 547 C 58.6977 -0.904207 4.48986 0
M  V30 548 N 60.1887 -0.968896 4.52953 0
M  V30 549 C 60.9237 -1.08703 5.63002 0
M  V30 550 N 60.4197 -1.17026 6.82845 0
M  V30 551 N 62.2127 -1.12074 5.50814 0
M  V30 552 H 54.3637 0.607911 2.03515 0
M  V30 553 H 56.6267 0.21083 0.924259 0
M  V30 554 H 56.3327 0.194284 3.51163 0
M  V30 555 H 56.2067 -1.55435 3.43686 0
M  V30 556 H 58.5937 -1.64606 2.44926 0
M  V30 557 H 58.6747 0.118315 2.55526 0
M  V30 558 H 58.3187 -0.0392633 5.07885 0
M  V30 559 H 58.2487 -1.81426 4.9436 0
M  V30 560 H 60.7397 -0.915633 3.6664 0
M  V30 561 H 61.0527 -1.25966 7.62465 0
M  V30 562 H 59.3977 -1.13971 6.85591 0
M  V30 563 H 62.5887 -1.05226 4.5612 0
M  V30 564 H 62.7617 -1.20936 6.36615 0
M  V30 565 N 56.1678 -1.49265 -0.50573 0
M  V30 566 C 57.4138 -1.58748 -1.26202 0
M  V30 567 C 57.7468 -0.271227 -1.92297 0
M  V30 568 O 57.0218 0.724831 -1.80489 0
M  V30 569 C 57.3048 -2.74332 -2.33268 0
M  V30 570 C 57.1578 -4.15737 -1.71705 0
M  V30 571 C 58.4768 -2.85576 -3.34865 0
M  V30 572 H 55.5958 -0.577826 -0.457478 0
M  V30 573 H 58.2378 -1.81532 -0.560897 0
M  V30 574 H 56.3878 -2.55036 -2.93068 0
M  V30 575 H 58.0598 -4.46537 -1.15769 0
M  V30 576 H 56.3028 -4.21605 -1.02135 0
M  V30 577 H 56.9738 -4.92477 -2.49341 0
M  V30 578 H 59.4498 -3.03127 -2.8505 0
M  V30 579 H 58.3258 -3.68135 -4.07146 0
M  V30 580 H 58.5868 -1.94732 -3.96903 0
M  V30 581 N 57.6459 0.756429 -1.3826 0
M  V30 582 C 58.8739 1.54565 -1.3754 0
M  V30 583 C 59.2889 1.88767 0.0355331 0
M  V30 584 O 58.6459 1.52572 1.0014 0
M  V30 585 C 58.6969 2.84654 -2.22833 0
M  V30 586 O 58.4179 2.51912 -3.5843 0
M  V30 587 C 59.9189 3.78807 -2.30261 0
M  V30 588 H 57.1389 0.478353 -0.470553 0
M  V30 589 H 59.6829 0.936381 -1.81803 0
M  V30 590 H 57.8379 3.41965 -1.8204 0
M  V30 591 H 58.2519 3.35325 -4.03308 0
M  V30 592 H 59.7259 4.67045 -2.94233 0
M  V30 593 H 60.2029 4.19038 -1.31545 0
M  V30 594 H 60.8089 3.2742 -2.71433 0
M  V30 595 N 59.124 1.23083 0.984299 0
M  V30 596 C 60.354 1.08556 1.75781 0
M  V30 597 C 60.762 -0.366171 1.85623 0
M  V30 598 O 60.105 -1.26524 1.33182 0
M  V30 599 C 60.167 1.63208 3.20318 0
M  V30 600 C 59.831 3.11922 3.33997 0
M  V30 601 C 60.828 4.09259 3.2063 0
M  V30 602 C 58.513 3.51552 3.58771 0
M  V30 603 C 60.507 5.4421 3.31835 0
M  V30 604 C 58.194 4.86649 3.69616 0
M  V30 605 C 59.192 5.82787 3.56157 0
M  V30 606 O 58.88 7.15431 3.66626 0
M  V30 607 H 58.612 0.380713 0.5586 0
M  V30 608 H 61.166 1.63321 1.2456 0
M  V30 609 H 59.396 1.0286 3.72769 0
M  V30 610 H 61.085 1.44216 3.79416 0
M  V30 611 H 61.851 3.79984 3.01392 0
M  V30 612 H 57.73 2.77239 3.6832 0
M  V30 613 H 61.274 6.1923 3.21247 0
M  V30 614 H 57.171 5.15601 3.88363 0
M  V30 615 H 57.939 7.23127 3.83445 0
M  V30 616 N 60.6021 -1.18246 1.0419 0
M  V30 617 C 62.0181 -1.40269 0.761366 0
M  V30 618 C 62.2181 -1.90777 -0.648578 0
M  V30 619 O 61.2741 -2.0929 -1.41258 0
M  V30 620 C 62.5871 -2.40237 1.8085 0
M  V30 621 C 64.1351 -2.53961 1.82955 0
M  V30 622 C 64.6101 -3.57194 2.86664 0
M  V30 623 N 66.1011 -3.64702 2.85563 0
M  V30 624 C 66.8361 -4.44309 3.6246 0
M  V30 625 N 66.3321 -5.27514 4.49111 0
M  V30 626 N 68.1251 -4.39084 3.50944 0
M  V30 627 H 60.2761 -0.837882 1.95175 0
M  V30 628 H 62.5391 -0.430608 0.84456 0
M  V30 629 H 62.2451 -2.10176 2.81991 0
M  V30 630 H 62.1191 -3.39601 1.64168 0
M  V30 631 H 64.5061 -2.83338 0.824855 0
M  V30 632 H 64.5871 -1.54706 2.03715 0
M  V30 633 H 64.2311 -3.28558 3.87314 0
M  V30 634 H 64.1611 -4.5613 2.6316 0
M  V30 635 H 66.6521 -3.05289 2.22727 0
M  V30 636 H 66.9651 -5.85411 5.04493 0
M  V30 637 H 65.3101 -5.2693 4.53178 0
M  V30 638 H 68.5011 -3.7313 2.82651 0
M  V30 639 H 68.6741 -5.00883 4.11121 0
M  V30 640 N 62.0802 -0.821533 -1.34494 0
M  V30 641 C 63.3082 -0.421884 -2.02553 0
M  V30 642 C 63.7232 0.971745 -1.61872 0
M  V30 643 O 63.0802 1.62864 -0.823496 0
M  V30 644 C 63.1312 -0.51285 -3.57844 0
M  V30 645 O 62.8522 -1.85155 -3.97051 0
M  V30 646 C 64.3532 -0.107921 -4.43169 0
M  V30 647 H 61.5732 -0.169482 -0.649243 0
M  V30 648 H 64.1172 -1.1093 -1.71798 0
M  V30 649 H 62.2722 0.126474 -3.87193 0
M  V30 650 H 62.6862 -1.82482 -4.91732 0
M  V30 651 H 64.1602 -0.222657 -5.51551 0
M  V30 652 H 64.6372 0.948401 -4.28838 0
M  V30 653 H 65.2432 -0.720989 -4.19144 0
M  V30 654 N 63.5583 1.46682 -0.576371 0
M  V30 655 C 64.8043 2.02712 -0.0596221 0
M  V30 656 C 65.1373 1.44765 1.29448 0
M  V30 657 O 64.4123 0.610355 1.84675 0
M  V30 658 C 64.6953 3.60098 0.0129503 0
M  V30 659 C 64.5483 4.28441 -1.3696 0
M  V30 660 C 65.8673 4.34224 0.71678 0
M  V30 661 H 62.9863 0.736637 -0.0231407 0
M  V30 662 H 65.6283 1.74898 -0.742351 0
M  V30 663 H 63.7783 3.83926 0.594378 0
M  V30 664 H 65.4503 4.15896 -1.9957 0
M  V30 665 H 63.6933 3.8805 -1.93907 0
M  V30 666 H 64.3643 5.3716 -1.27135 0
M  V30 667 H 66.8403 4.15503 0.222908 0
M  V30 668 H 65.7163 5.43936 0.73657 0
M  V30 669 H 65.9773 4.04823 1.77682 0
M  V30 670 N 65.0364 0.313813 1.54444 0
M  V30 671 C 66.2764 -0.292389 2.02298 0
M  V30 672 C 66.6404 -1.50105 1.19719 0
M  V30 673 O 67.8414 -2.17947 1.5733 0
M  V30 674 C 66.1124 -0.627682 3.51845 0
M  V30 675 S 67.6714 -1.21493 4.21646 0
M  V30 676 H 64.4894 -0.0890247 0.705405 0
M  V30 677 H 67.0914 0.444668 1.90376 0
M  V30 678 H 65.7954 0.260265 4.09574 0
M  V30 679 H 65.3264 -1.39519 3.67829 0
M  V30 680 H 67.3414 -2.5022 4.28491 0
M  V30 681 N 66.5145 -1.57545 0.0417849 0
M  V30 682 C 67.7395 -1.97035 -0.647455 0
M  V30 683 C 68.1645 -0.918775 -1.64135 0
M  V30 684 O 67.5225 0.119006 -1.80909 0
M  V30 685 C 67.5705 -3.35609 -1.31905 0
M  V30 686 O 66.6745 -3.3287 -2.43457 0
M  V30 687 H 66.0155 -0.64211 -0.169086 0
M  V30 688 H 68.5455 -2.04318 0.107399 0
M  V30 689 H 68.5555 -3.72126 -1.67291 0
M  V30 690 H 67.2305 -4.11685 -0.590586 0
M  V30 691 H 65.8075 -3.08087 -2.10088 0
M  V30 692 N 67.9926 0.231505 -1.5589 0
M  V30 693 C 69.2386 0.95877 -1.78705 0
M  V30 694 C 69.5716 1.8438 -0.609725 0
M  V30 695 O 68.8466 1.90521 0.391426 0
M  V30 696 C 69.1296 1.8062 -3.11526 0
M  V30 697 C 68.9826 0.948328 -4.39689 0
M  V30 698 C 70.3016 2.78585 -3.40703 0
M  V30 699 H 67.4206 0.347129 -0.650131 0
M  V30 700 H 70.0626 0.228259 -1.88624 0
M  V30 701 H 68.2126 2.42902 -3.03201 0
M  V30 702 H 69.8846 0.343016 -4.60023 0
M  V30 703 H 68.1276 0.253314 -4.3306 0
M  V30 704 H 68.7986 1.57543 -5.29041 0
M  V30 705 H 71.2746 2.26439 -3.49091 0
M  V30 706 H 70.1506 3.34988 -4.34826 0
M  V30 707 H 70.4116 3.55825 -2.62375 0
M  V30 708 N 69.4707 1.49531 0.497807 0
M  V30 709 C 70.4187 1.66926 1.61983 0
M  V30 710 C 71.4127 0.535167 1.60724 0
M  V30 711 O 72.6187 0.714896 1.65195 0
M  V30 712 H 68.9937 0.526415 0.537021 0
M  V30 713 H 70.9647 2.61098 1.44465 0
M  V30 714 C 69.7137 1.75602 3.00099 0
M  V30 715 H 69.0367 2.62244 3.01775 0
M  V30 716 H 70.4767 1.91807 3.78135 0
M  V30 717 C 68.9357 0.501543 3.33146 0
M  V30 718 O 69.4657 -0.371342 3.9998 0
M  V30 719 N 67.6717 0.363531 2.88317 0
M  V30 720 H 67.2187 1.07485 2.34104 0
M  V30 721 H 67.1767 -0.474728 3.10795 0
M  V30 722 N 70.9488 -0.749086 1.3866 0
M  V30 723 C 72.1968 -1.50535 1.34847 0
M  V30 724 C 72.5178 -1.94909 -0.0595016 0
M  V30 725 O 71.7878 -1.67973 -1.00806 0
M  V30 726 H 70.3678 -0.558395 0.49619 0
M  V30 727 H 73.0298 -0.890165 1.73384 0
M  V30 728 H 72.1258 -2.39413 2.00219 0
M  V30 729 N 72.4269 -1.23603 -0.977757 0
M  V30 730 C 73.8379 -1.06424 -1.53398 0
M  V30 731 C 74.1889 0.367578 -1.92726 0
M  V30 732 O 73.3139 1.25465 -1.76316 0
M  V30 733 C 73.9089 -1.92568 -2.78753 0
M  V30 734 C 72.4679 -1.79642 -3.30765 0
M  V30 735 C 71.6149 -1.88111 -2.03739 0
M  V30 736 H 74.5659 -1.37227 -0.797152 0
M  V30 737 H 74.5869 -1.45203 -3.51705 0
M  V30 738 H 74.0989 -2.96771 -2.50098 0
M  V30 739 H 72.1999 -0.782325 -3.64294 0
M  V30 740 H 72.3129 -2.63174 -4.00345 0
M  V30 741 H 70.6769 -1.31723 -2.17994 0
M  V30 742 H 71.4599 -2.93875 -1.77461 0
M  V30 743 N 73.905 1.17692 -1.04816 0
M  V30 744 C 74.835 2.23777 -0.666791 0
M  V30 745 C 75.816 1.66796 0.33361 0
M  V30 746 O 77.001 1.93039 0.212042 0
M  V30 747 C 74.131 3.47281 -0.0367933 0
M  V30 748 C 73.085 4.17059 -0.961546 0
M  V30 749 C 72.411 5.34342 -0.195626 0
M  V30 750 C 73.711 4.69713 -2.28402 0
M  V30 751 H 75.405 2.55933 -1.55367 0
M  V30 752 H 72.951 1.23019 -0.748484 0
M  V30 753 H 74.904 4.20706 0.241775 0
M  V30 754 H 73.628 3.14381 0.885004 0
M  V30 755 H 72.287 3.45541 -1.22462 0
M  V30 756 H 71.935 4.97692 0.728816 0
M  V30 757 H 71.635 5.81966 -0.811775 0
M  V30 758 H 73.159 6.10553 0.0757473 0
M  V30 759 H 74.573 5.34794 -2.06563 0
M  V30 760 H 72.97 5.279 -2.8538 0
M  V30 761 H 74.04 3.86726 -2.92525 0
M  V30 762 N 75.3831 0.828654 1.34056 0
M  V30 763 C 76.6291 0.42008 1.98402 0
M  V30 764 C 76.9621 -1.01564 1.65525 0
M  V30 765 O 76.2371 -1.70834 0.929831 0
M  V30 766 C 76.5201 0.62927 3.54559 0
M  V30 767 C 76.3731 2.11152 3.97159 0
M  V30 768 C 77.6921 0.0688756 4.40046 0
M  V30 769 H 74.8111 0.154104 0.720709 0
M  V30 770 H 77.4531 1.04228 1.5886 0
M  V30 771 H 75.6031 0.0996418 3.88372 0
M  V30 772 H 77.2751 2.70522 3.73651 0
M  V30 773 H 75.5181 2.59985 3.47261 0
M  V30 774 H 76.1891 2.20868 5.05887 0
M  V30 775 H 78.6651 0.521458 4.1282 0
M  V30 776 H 77.5411 0.245006 5.48353 0
M  V30 777 H 77.8021 -1.0266 4.30015 0
M  V30 778 N 76.8612 -1.46375 0.584142 0
M  V30 779 C 78.1072 -2.02678 0.0703716 0
M  V30 780 C 78.4402 -1.4545 -1.28678 0
M  V30 781 O 77.7152 -0.62014 -1.84349 0
M  V30 782 C 77.9982 -3.60099 0.00614674 0
M  V30 783 C 77.8512 -4.27709 1.3923 0
M  V30 784 C 79.1702 -4.34598 -0.693742 0
M  V30 785 H 76.2892 -0.736504 0.027047 0
M  V30 786 H 78.9312 -1.74501 0.751615 0
M  V30 787 H 77.0812 -3.84236 -0.574009 0
M  V30 788 H 78.7532 -4.14832 2.01773 0
M  V30 789 H 76.9962 -3.87016 1.95962 0
M  V30 790 H 77.6672 -5.36478 1.29982 0
M  V30 791 H 80.1432 -4.15615 -0.200869 0
M  V30 792 H 79.0192 -5.44318 -0.707714 0
M  V30 793 H 79.2802 -4.05759 -1.75533 0
M  V30 794 N 78.3393 -0.321999 -1.54275 0
M  V30 795 C 79.2693 0.537411 -2.27231 0
M  V30 796 C 80.2503 1.12064 -1.27968 0
M  V30 797 O 81.4353 1.14606 -1.56777 0
M  V30 798 C 78.5653 1.69919 -3.02894 0
M  V30 799 C 77.5193 1.24534 -4.09482 0
M  V30 800 C 76.8453 2.49394 -4.72977 0
M  V30 801 C 78.1453 0.361335 -5.21049 0
M  V30 802 H 79.8393 -0.0711406 -2.99315 0
M  V30 803 H 77.3853 -0.0356555 -1.43956 0
M  V30 804 H 79.3383 2.30668 -3.52662 0
M  V30 805 H 78.0623 2.33431 -2.28424 0
M  V30 806 H 76.7213 0.660782 -3.60596 0
M  V30 807 H 76.3693 3.11265 -3.95124 0
M  V30 808 H 76.0693 2.19718 -5.44975 0
M  V30 809 H 77.5933 3.10908 -5.25517 0
M  V30 810 H 79.0073 0.875072 -5.66582 0
M  V30 811 H 77.4043 0.157428 -5.99893 0
M  V30 812 H 78.4743 -0.60822 -4.8107 0
M  V30 813 N 79.8174 1.5752 -0.0501392 0
M  V30 814 C 81.0944 1.83996 0.663685 0
M  V30 815 C 81.4744 0.938339 1.89099 0
M  V30 816 O 80.8224 -0.00087759 2.285 0
M  V30 817 C 81.0324 3.33702 1.02196 0
M  V30 818 C 82.3804 4.00691 1.40469 0
M  V30 819 O 83.4044 3.38321 1.11433 0
M  V30 820 O 82.2634 5.10658 1.94654 0
M  V30 821 H 79.3574 0.759385 0.32751 0
M  V30 822 H 81.9034 1.69514 -0.0794238 0
M  V30 823 H 80.6754 3.91015 0.149364 0
M  V30 824 H 80.2984 3.53368 1.82255 0
M  V30 825 N 81.2955 -0.223234 1.56011 0
M  V30 826 C 82.7115 -0.572856 1.48965 0
M  V30 827 C 82.9115 -1.87225 0.74492 0
M  V30 828 O 81.9675 -2.50899 0.283896 0
M  V30 829 C 83.2805 -0.653646 2.9351 0
M  V30 830 C 84.8285 -0.744386 3.0402 0
M  V30 831 C 85.3035 -0.856535 4.49919 0
M  V30 832 N 86.7945 -0.9208 4.53955 0
M  V30 833 C 87.5295 -1.02726 5.64123 0
M  V30 834 N 87.0255 -1.09777 6.84047 0
M  V30 835 N 88.8185 -1.06226 5.51971 0
M  V30 836 H 80.9695 0.629462 2.02858 0
M  V30 837 H 83.2325 0.220621 0.921971 0
M  V30 838 H 82.9385 0.231518 3.50937 0
M  V30 839 H 82.8125 -1.51781 3.45315 0
M  V30 840 H 85.1995 -1.61999 2.46658 0
M  V30 841 H 85.2805 0.14541 2.55386 0
M  V30 842 H 84.9245 0.0146069 5.07898 0
M  V30 843 H 84.8545 -1.76172 4.96257 0
M  V30 844 H 87.3455 -0.876694 3.6759 0
M  V30 845 H 87.6585 -1.17872 7.63758 0
M  V30 846 H 86.0035 -1.06693 6.86762 0
M  V30 847 H 89.1945 -1.00382 4.5721 0
M  V30 848 H 89.3675 -1.14177 6.37862 0
M  V30 849 N 82.7736 -1.49793 -0.48987 0
M  V30 850 C 84.0196 -1.60078 -1.24511 0
M  V30 851 C 84.3526 -0.291608 -1.91998 0
M  V30 852 O 83.6276 0.705647 -1.81248 0
M  V30 853 C 83.9106 -2.76791 -2.30345 0
M  V30 854 C 83.7636 -4.17535 -1.67286 0
M  V30 855 C 85.0826 -2.89111 -3.31817 0
M  V30 856 H 82.2016 -0.582645 -0.451324 0
M  V30 857 H 84.8436 -1.82117 -0.541612 0
M  V30 858 H 82.9936 -2.5813 -2.90346 0
M  V30 859 H 84.6656 -4.4774 -1.11026 0
M  V30 860 H 82.9086 -4.22665 -0.976577 0
M  V30 861 H 83.5796 -4.95094 -2.44103 0
M  V30 862 H 86.0556 -3.06133 -2.81819 0
M  V30 863 H 84.9316 -3.72433 -4.03219 0
M  V30 864 H 85.1926 -1.9893 -3.94815 0
M  V30 865 N 84.2517 0.741722 -1.39055 0
M  V30 866 C 85.1987 1.85566 -1.37237 0
M  V30 867 C 86.1687 1.64457 -0.233072 0
M  V30 868 O 87.3537 1.85957 -0.427147 0
M  V30 869 C 84.4937 3.23004 -1.215 0
M  V30 870 C 83.6067 3.55864 -2.44918 0
M  V30 871 C 82.7417 4.82669 -2.21821 0
M  V30 872 C 81.7807 5.08351 -3.40948 0
M  V30 873 N 80.9177 6.26356 -3.17211 0
M  V30 874 H 85.7577 1.86455 -2.32462 0
M  V30 875 H 83.2947 0.911176 -1.15482 0
M  V30 876 H 85.2527 4.02331 -1.10389 0
M  V30 877 H 83.8827 3.21411 -0.29908 0
M  V30 878 H 82.9347 2.7129 -2.66657 0
M  V30 879 H 84.2467 3.70765 -3.33668 0
M  V30 880 H 83.4007 5.69962 -2.07914 0
M  V30 881 H 82.1397 4.69929 -1.30454 0
M  V30 882 H 81.1447 4.19522 -3.55361 0
M  V30 883 H 82.3697 5.22981 -4.33207 0
M  V30 884 H 80.3157 6.14917 -2.28502 0
M  V30 885 H 80.2327 6.41813 -3.99515 0
M  V30 886 H 81.5007 7.16506 -3.06984 0
M  V30 887 N 85.7298 1.2412 0.971189 0
M  V30 888 C 86.9768 1.07881 1.71371 0
M  V30 889 C 87.3048 -0.382901 1.90694 0
M  V30 890 O 86.5598 -1.29945 1.46331 0
M  V30 891 C 86.8588 1.75983 3.11071 0
M  V30 892 C 86.5248 3.25909 3.11599 0
M  V30 893 C 85.1868 3.66813 3.11451 0
M  V30 894 C 87.5388 4.21771 3.062 0
M  V30 895 C 84.8668 5.02021 3.03631 0
M  V30 896 C 87.2188 5.56982 2.99923 0
M  V30 897 C 85.8828 5.97237 2.98102 0
M  V30 898 H 85.1528 0.394764 0.62709 0
M  V30 899 H 87.7998 1.54176 1.13587 0
M  V30 900 H 86.1048 1.22072 3.72298 0
M  V30 901 H 87.8018 1.60887 3.6731 0
M  V30 902 H 84.3918 2.93353 3.12477 0
M  V30 903 H 88.5758 3.91172 3.05447 0
M  V30 904 H 83.8318 5.32411 3.0058 0
M  V30 905 H 88.0058 6.30969 2.94704 0
M  V30 906 H 85.6328 7.01967 2.91798 0
M  V30 907 N 87.2079 -1.17134 1.05439 0
M  V30 908 C 88.1709 -2.19439 0.661764 0
M  V30 909 C 89.1709 -1.58199 -0.288042 0
M  V30 910 O 90.3609 -1.74053 -0.0715803 0
M  V30 911 C 87.4929 -3.40889 -0.0276209 0
M  V30 912 H 88.6859 -2.55688 1.56728 0
M  V30 913 H 86.2389 -1.31259 0.848567 0
M  V30 914 H 86.9739 -3.10187 -0.94629 0
M  V30 915 H 86.7589 -3.86586 0.655238 0
M  V30 916 H 88.2489 -4.16603 -0.288342 0
M  V30 917 N 88.686 -0.835752 -1.33615 0
M  V30 918 C 89.618 -0.224151 -2.28101 0
M  V30 919 C 90.631 0.593331 -1.51603 0
M  V30 920 O 91.82 0.420911 -1.73466 0
M  V30 921 C 88.92 0.703309 -3.31522 0
M  V30 922 C 88.093 -0.0741528 -4.37337 0
M  V30 923 C 87.152 0.776176 -5.20444 0
M  V30 924 O 86.178 0.216506 -5.68788 0
M  V30 925 N 87.38 2.09401 -5.41416 0
M  V30 926 H 90.145 -1.03598 -2.81225 0
M  V30 927 H 87.706 -0.69392 -1.46275 0
M  V30 928 H 89.698 1.27707 -3.84022 0
M  V30 929 H 88.268 1.41585 -2.78698 0
M  V30 930 H 87.488 -0.82928 -3.85378 0
M  V30 931 H 88.776 -0.608863 -5.05144 0
M  V30 932 H 88.174 2.57229 -5.03835 0
M  V30 933 H 86.731 2.61633 -5.96985 0
M  V30 934 N 90.1641 1.46063 -0.591896 0
M  V30 935 C 91.3941 2.06418 -0.0867676 0
M  V30 936 C 91.8021 1.43975 1.22751 0
M  V30 937 O 91.1451 0.542531 1.75506 0
M  V30 938 C 91.2071 3.59213 0.143725 0
M  V30 939 C 90.8711 4.439 -1.08635 0
M  V30 940 C 91.8681 4.79864 -2.00067 0
M  V30 941 C 89.5531 4.84896 -1.31077 0
M  V30 942 C 91.5471 5.55661 -3.12282 0
M  V30 943 C 89.2341 5.6045 -2.43596 0
M  V30 944 C 90.2321 5.95747 -3.34027 0
M  V30 945 O 89.9201 6.69772 -4.4459 0
M  V30 946 H 89.6521 0.673443 -0.0587447 0
M  V30 947 H 92.2061 1.88539 -0.814994 0
M  V30 948 H 90.4361 3.75433 0.926668 0
M  V30 949 H 92.1251 4.01463 0.5985 0
M  V30 950 H 92.8911 4.48763 -1.83947 0
M  V30 951 H 88.7701 4.56867 -0.61594 0
M  V30 952 H 92.3141 5.8313 -3.82891 0
M  V30 953 H 88.2111 5.90965 -2.59674 0
M  V30 954 H 88.9791 6.88207 -4.43073 0
M  V30 955 N 91.6422 0.330177 1.54103 0
M  V30 956 C 92.6052 -0.520144 2.2322 0
M  V30 957 C 93.6052 -1.03828 1.22786 0
M  V30 958 O 94.7952 -0.929652 1.4732 0
M  V30 959 C 91.9272 -1.72317 2.94142 0
M  V30 960 H 93.1202 0.0841605 2.99782 0
M  V30 961 H 90.6732 0.0813433 1.56088 0
M  V30 962 H 91.4082 -2.36653 2.21734 0
M  V30 963 H 91.1932 -1.35898 3.67796 0
M  V30 964 H 92.6832 -2.3266 3.46784 0
M  V30 965 N 93.1203 -1.57491 0.0584922 0
M  V30 966 C 94.0303 -2.15448 -0.928414 0
M  V30 967 C 95.0463 -1.11416 -1.3365 0
M  V30 968 O 96.2223 -1.4362 -1.41193 0
M  V30 969 C 93.2873 -2.69393 -2.18239 0
M  V30 970 C 92.3483 -3.88249 -1.83196 0
M  V30 971 C 91.5813 -4.39613 -3.02616 0
M  V30 972 O 91.8043 -3.90023 -4.16219 0
M  V30 973 O 90.7383 -5.31111 -2.83204 0
M  V30 974 H 94.5643 -3.00112 -0.465483 0
M  V30 975 H 92.1493 -1.48499 -0.163826 0
M  V30 976 H 94.0313 -3.04026 -2.91798 0
M  V30 977 H 92.7063 -1.87796 -2.63656 0
M  V30 978 H 91.6133 -3.58492 -1.06931 0
M  V30 979 H 92.9463 -4.71098 -1.42573 0
M  V30 980 N 94.5984 0.214957 -1.56127 0
M  V30 981 C 95.8474 0.936451 -1.78643 0
M  V30 982 C 96.1604 1.85237 -0.628229 0
M  V30 983 O 97.3664 2.613 -0.737186 0
M  V30 984 C 95.8224 1.7154 -3.16389 0
M  V30 985 C 95.4304 0.845299 -4.39953 0
M  V30 986 C 97.1744 2.42772 -3.48227 0
M  V30 987 C 95.0814 1.62198 -5.68723 0
M  V30 988 H 94.0114 0.353401 -0.666051 0
M  V30 989 H 96.6624 0.190169 -1.82512 0
M  V30 990 H 95.0444 2.50484 -3.06715 0
M  V30 991 H 96.2184 0.0959353 -4.607 0
M  V30 992 H 94.5334 0.244789 -4.1568 0
M  V30 993 H 97.1304 3.01394 -4.41663 0
M  V30 994 H 97.4734 3.15984 -2.71035 0
M  V30 995 H 98.0064 1.70813 -3.5926 0
M  V30 996 H 94.7454 0.933011 -6.48826 0
M  V30 997 H 94.2654 2.34579 -5.52026 0
M  V30 998 H 95.9444 2.18095 -6.09133 0
M  V30 999 N 96.0765 1.50051 0.48192 0
M  V30 1000 C 97.3225 1.60736 1.2366 0
M  V30 1001 C 97.6555 0.301786 1.91841 0
M  V30 1002 O 96.9305 -0.696025 1.8162 0
M  V30 1003 C 97.2135 2.78009 2.28874 0
M  V30 1004 C 97.0665 4.18416 1.65069 0
M  V30 1005 C 98.3855 2.90867 3.30279 0
M  V30 1006 H 95.5045 0.585031 0.448228 0
M  V30 1007 H 98.1465 1.82402 0.531946 0
M  V30 1008 H 96.2965 2.59667 2.88973 0
M  V30 1009 H 97.9685 4.48322 1.0865 0
M  V30 1010 H 96.2115 4.23177 0.954148 0
M  V30 1011 H 96.8825 4.96381 2.41474 0
M  V30 1012 H 99.3585 3.07623 2.80191 0
M  V30 1013 H 98.2345 3.74566 4.01238 0
M  V30 1014 H 98.4955 2.01021 3.93755 0
M  V30 1015 N 97.5546 -0.734337 1.39446 0
M  V30 1016 C 98.5046 -1.83949 1.34709 0
M  V30 1017 C 99.4886 -1.59279 0.227851 0
M  V30 1018 O 100.681 -1.70771 0.465438 0
M  V30 1019 C 97.8096 -3.21884 1.19356 0
M  V30 1020 C 96.8956 -3.52381 2.35984 0
M  V30 1021 N 97.2866 -3.53811 3.61457 0
M  V30 1022 C 95.5846 -3.82747 2.28956 0
M  V30 1023 C 96.2856 -3.82122 4.38586 0
M  V30 1024 N 95.2616 -3.9993 3.68181 0
M  V30 1025 H 99.0636 -1.83361 2.29687 0
M  V30 1026 H 96.5776 -0.932609 1.32952 0
M  V30 1027 H 98.5746 -4.00998 1.14046 0
M  V30 1028 H 97.2346 -3.23711 0.253295 0
M  V30 1029 H 98.2456 -3.35107 3.94872 0
M  V30 1030 H 94.9226 -3.92175 1.43194 0
M  V30 1031 H 96.3126 -3.89691 5.47349 0
M  V30 1032 N 99.0327 -1.24633 -0.964593 0
M  V30 1033 C 100.28 -1.08788 -1.70796 0
M  V30 1034 C 100.608 0.372783 -1.90894 0
M  V30 1035 O 99.8627 1.29167 -1.47018 0
M  V30 1036 C 100.162 -1.7763 -3.10133 0
M  V30 1037 C 99.8277 -3.27557 -3.09866 0
M  V30 1038 C 98.4897 -3.6846 -3.09501 0
M  V30 1039 C 100.842 -4.23389 -3.03959 0
M  V30 1040 C 98.1697 -5.03624 -3.00965 0
M  V30 1041 C 100.522 -5.58565 -2.96965 0
M  V30 1042 C 99.1857 -5.98809 -2.9493 0
M  V30 1043 H 98.4557 -0.398084 -0.624988 0
M  V30 1044 H 101.103 -1.54777 -1.12767 0
M  V30 1045 H 99.4077 -1.24044 -3.71645 0
M  V30 1046 H 101.105 -1.62832 -3.66451 0
M  V30 1047 H 97.6947 -2.95006 -3.10917 0
M  V30 1048 H 101.879 -3.92787 -3.03368 0
M  V30 1049 H 97.1347 -5.33998 -2.97752 0
M  V30 1050 H 101.309 -6.32523 -2.91354 0
M  V30 1051 H 98.9357 -7.03505 -2.88071 0
M  V30 1052 N 100.511 1.16574 -1.06058 0
M  V30 1053 C 101.739 1.90952 -0.796552 0
M  V30 1054 C 102.154 1.77302 0.648808 0
M  V30 1055 O 101.511 1.11605 1.44397 0
M  V30 1056 C 101.562 3.41736 -1.17894 0
M  V30 1057 O 101.283 3.54975 -2.56758 0
M  V30 1058 C 102.784 4.33169 -0.942308 0
M  V30 1059 H 100.004 0.605594 -0.288959 0
M  V30 1060 H 102.548 1.47777 -1.41358 0
M  V30 1061 H 100.703 3.82623 -0.606491 0
M  V30 1062 H 101.117 4.4846 -2.72 0
M  V30 1063 H 102.591 5.37439 -1.25952 0
M  V30 1064 H 103.068 4.3903 0.122078 0
M  V30 1065 H 103.674 3.98007 -1.49902 0
M  V30 1066 N 101.989 0.842826 1.3317 0
M  V30 1067 C 102.919 0.294028 2.31641 0
M  V30 1068 C 103.9 -0.600401 1.59151 0
M  V30 1069 O 105.085 -0.523124 1.87022 0
M  V30 1070 C 102.215 -0.528416 3.43257 0
M  V30 1071 C 101.169 0.27056 4.27144 0
M  V30 1072 C 100.495 -0.675881 5.30411 0
M  V30 1073 C 101.795 1.48981 5.00602 0
M  V30 1074 H 103.489 1.11681 2.77791 0
M  V30 1075 H 101.035 0.538478 1.33553 0
M  V30 1076 H 102.988 -0.922674 4.11175 0
M  V30 1077 H 101.712 -1.38445 2.95805 0
M  V30 1078 H 100.371 0.646427 3.60856 0
M  V30 1079 H 100.019 -1.52842 4.79216 0
M  V30 1080 H 99.7189 -0.145374 5.8742 0
M  V30 1081 H 101.243 -1.06757 6.01195 0
M  V30 1082 H 102.657 1.16849 5.61266 0
M  V30 1083 H 101.054 1.95739 5.6728 0
M  V30 1084 H 102.124 2.25746 4.29147 0
M  V30 1085 N 103.467 -1.45747 0.599634 0
M  V30 1086 C 104.878 -1.85853 0.177681 0
M  V30 1087 C 105.229 -1.50102 -1.26348 0
M  V30 1088 O 104.354 -0.923905 -1.95686 0
M  V30 1089 C 104.949 -3.37326 0.315688 0
M  V30 1090 C 103.508 -3.76365 -0.0515144 0
M  V30 1091 C 102.655 -2.69722 0.643822 0
M  V30 1092 H 105.606 -1.36661 0.806814 0
M  V30 1093 H 105.627 -3.77778 -0.454321 0
M  V30 1094 H 105.139 -3.63315 1.36468 0
M  V30 1095 H 103.24 -3.55993 -1.09999 0
M  V30 1096 H 103.353 -4.77916 0.336594 0
M  V30 1097 H 101.717 -2.54567 0.0822881 0
M  V30 1098 H 102.5 -2.98549 1.6948 0
M  V30 1099 N 104.945 -0.338344 -1.53925 0
M  V30 1100 C 106.222 0.314774 -1.93051 0
M  V30 1101 C 106.602 1.68669 -1.26941 0
M  V30 1102 O 105.95 2.24636 -0.418445 0
M  V30 1103 C 106.16 0.392249 -3.46789 0
M  V30 1104 C 107.508 0.645554 -4.19664 0
M  V30 1105 O 108.532 0.474575 -3.53024 0
M  V30 1106 O 107.391 0.976408 -5.37707 0
M  V30 1107 H 104.485 0.182598 -0.80659 0
M  V30 1108 H 107.031 -0.389141 -1.65178 0
M  V30 1109 H 105.803 -0.570702 -3.87116 0
M  V30 1110 H 105.426 1.14316 -3.80812 0
M  V30 1111 N 106.423 1.57458 -0.0668435 0
M  V30 1112 C 107.671 1.92919 0.602214 0
M  V30 1113 C 107.992 0.947215 1.70449 0
M  V30 1114 O 107.262 -0.00544117 1.95899 0
M  V30 1115 H 105.842 0.71217 0.22544 0
M  V30 1116 H 108.504 1.94508 -0.123535 0
M  V30 1117 H 107.6 2.94589 1.03073 0
M  V30 1118 N 107.901 -0.206675 1.56239 0
M  V30 1119 C 109.129 -0.945345 1.8404 0
M  V30 1120 C 109.544 -1.77336 0.647885 0
M  V30 1121 O 108.901 -1.78425 -0.383511 0
M  V30 1122 C 108.952 -1.8509 3.10522 0
M  V30 1123 O 108.673 -1.05634 4.25174 0
M  V30 1124 C 110.174 -2.70222 3.51418 0
M  V30 1125 H 107.394 -0.276372 0.61144 0
M  V30 1126 H 109.938 -0.217417 2.03341 0
M  V30 1127 H 108.093 -2.53259 2.93153 0
M  V30 1128 H 108.507 -1.67238 4.97124 0
M  V30 1129 H 109.981 -3.29438 4.42916 0
M  V30 1130 H 110.458 -3.43358 2.73864 0
M  V30 1131 H 111.064 -2.07443 3.71278 0
M  V30 1132 N 109.379 -1.50304 -0.473955 0
M  V30 1133 C 110.311 -1.65109 -1.58971 0
M  V30 1134 C 111.324 -0.532676 -1.53839 0
M  V30 1135 O 112.513 -0.805751 -1.59279 0
M  V30 1136 C 109.613 -1.61684 -2.97845 0
M  V30 1137 C 108.786 -2.8951 -3.27876 0
M  V30 1138 C 107.845 -2.78768 -4.4629 0
M  V30 1139 O 106.871 -3.52722 -4.46739 0
M  V30 1140 N 108.073 -1.9213 -5.47783 0
M  V30 1141 H 110.838 -2.61347 -1.46689 0
M  V30 1142 H 108.399 -1.47732 -0.662324 0
M  V30 1143 H 110.391 -1.52114 -3.75024 0
M  V30 1144 H 108.961 -0.731925 -3.03911 0
M  V30 1145 H 108.181 -3.13228 -2.39336 0
M  V30 1146 H 109.469 -3.74199 -3.4475 0
M  V30 1147 H 108.867 -1.31353 -5.50239 0
M  V30 1148 H 107.424 -1.88466 -6.23958 0
M  V30 1149 N 110.857 0.726932 -1.39834 0
M  V30 1150 C 112.273 1.03354 -1.21615 0
M  V30 1151 C 112.473 2.01327 -0.08338 0
M  V30 1152 O 111.529 2.46158 0.56238 0
M  V30 1153 C 112.842 1.58811 -2.55342 0
M  V30 1154 C 114.39 1.70851 -2.62257 0
M  V30 1155 C 114.865 2.29716 -3.96225 0
M  V30 1156 N 116.356 2.37116 -3.97907 0
M  V30 1157 C 117.091 2.83619 -4.98345 0
M  V30 1158 N 116.587 3.29958 -6.09179 0
M  V30 1159 N 118.38 2.82901 -4.8572 0
M  V30 1160 H 110.531 0.0773069 -2.12259 0
M  V30 1161 H 112.794 0.0969102 -0.943034 0
M  V30 1162 H 112.5 0.942855 -3.38826 0
M  V30 1163 H 112.374 2.57502 -2.75632 0
M  V30 1164 H 114.761 2.34497 -1.79152 0
M  V30 1165 H 114.842 0.707913 -2.45809 0
M  V30 1166 H 114.486 1.66696 -4.79765 0
M  V30 1167 H 114.416 3.30469 -4.09997 0
M  V30 1168 H 116.907 2.04374 -3.17868 0
M  V30 1169 H 117.22 3.63976 -6.8172 0
M  V30 1170 H 115.565 3.27946 -6.12761 0
M  V30 1171 H 118.756 2.46027 -3.98231 0
M  V30 1172 H 118.929 3.18827 -5.6414 0
M  V30 1173 N 112.336 1.25143 0.95797 0
M  V30 1174 C 113.561 1.12521 1.74223 0
M  V30 1175 C 113.986 -0.317402 1.85403 0
M  V30 1176 O 113.344 -1.2299 1.33204 0
M  V30 1177 C 113.392 1.78062 3.1357 0
M  V30 1178 O 112.496 1.058 3.98598 0
M  V30 1179 H 111.837 0.39304 0.535178 0
M  V30 1180 H 114.367 1.65641 1.201 0
M  V30 1181 H 114.377 1.84213 3.64046 0
M  V30 1182 H 113.052 2.83021 3.04749 0
M  V30 1183 H 111.629 1.07506 3.57067 0
M  V30 1184 N 113.814 -1.1601 1.06675 0
M  V30 1185 C 115.062 -1.86264 0.784229 0
M  V30 1186 C 115.383 -1.82328 -0.691488 0
M  V30 1187 O 114.653 -1.25947 -1.50047 0
M  V30 1188 H 113.233 -0.689621 0.28711 0
M  V30 1189 H 115.895 -1.40664 1.34906 0
M  V30 1190 H 114.991 -2.91595 1.11259 0
M  V30 1191 N 115.292 -0.849877 -1.32721 0
M  V30 1192 C 116.224 -0.248332 -2.27851 0
M  V30 1193 C 117.237 0.577218 -1.52224 0
M  V30 1194 O 118.426 0.402489 -1.73903 0
M  V30 1195 C 115.526 0.668107 -3.32249 0
M  V30 1196 C 114.699 -0.120534 -4.37234 0
M  V30 1197 C 113.758 0.720932 -5.21238 0
M  V30 1198 O 112.784 0.156166 -5.68986 0
M  V30 1199 N 113.986 2.03647 -5.43607 0
M  V30 1200 H 116.751 -1.06575 -2.80111 0
M  V30 1201 H 114.312 -0.709395 -1.45531 0
M  V30 1202 H 116.304 1.23627 -3.85355 0
M  V30 1203 H 114.874 1.38621 -2.80184 0
M  V30 1204 H 114.094 -0.870108 -3.84477 0
M  V30 1205 H 115.382 -0.662406 -5.0447 0
M  V30 1206 H 114.78 2.51871 -5.06535 0
M  V30 1207 H 113.337 2.55287 -5.99727 0
M  V30 1208 N 116.77 1.45427 -0.607355 0
M  V30 1209 C 118.016 2.0254 -0.102607 0
M  V30 1210 C 118.349 1.47478 1.26348 0
M  V30 1211 O 117.624 0.64939 1.83339 0
M  V30 1212 C 117.907 3.60044 -0.0634347 0
M  V30 1213 C 117.76 4.2544 -1.46017 0
M  V30 1214 C 119.079 4.35646 0.624514 0
M  V30 1215 H 116.198 0.73598 -0.0387607 0
M  V30 1216 H 118.84 1.73284 -0.779282 0
M  V30 1217 H 116.99 3.85101 0.512808 0
M  V30 1218 H 118.662 4.11569 -2.08347 0
M  V30 1219 H 116.905 3.83849 -2.02094 0
M  V30 1220 H 117.576 5.34342 -1.385 0
M  V30 1221 H 120.052 4.15882 0.134723 0
M  V30 1222 H 118.928 5.45376 0.621028 0
M  V30 1223 H 119.189 4.08501 1.69055 0
M  V30 1224 N 118.248 0.346503 1.53744 0
M  V30 1225 C 119.178 -0.501193 2.28058 0
M  V30 1226 C 120.159 -1.10014 1.29734 0
M  V30 1227 O 121.344 -1.12097 1.58581 0
M  V30 1228 C 118.474 -1.65078 3.05559 0
M  V30 1229 C 117.428 -1.18003 4.11411 0
M  V30 1230 C 116.754 -2.41837 4.76884 0
M  V30 1231 C 118.054 -0.278394 5.21558 0
M  V30 1232 H 119.748 0.11875 2.99164 0
M  V30 1233 H 117.294 0.0585531 1.43881 0
M  V30 1234 H 119.247 -2.25028 3.56287 0
M  V30 1235 H 117.971 -2.29767 2.32109 0
M  V30 1236 H 116.63 -0.603331 3.61601 0
M  V30 1237 H 116.278 -3.0494 4.00026 0
M  V30 1238 H 115.978 -2.1102 5.48402 0
M  V30 1239 H 117.502 -3.02508 5.30397 0
M  V30 1240 H 118.916 -0.784823 5.67903 0
M  V30 1241 H 117.313 -0.0619707 6.00068 0
M  V30 1242 H 118.383 0.684677 4.80042 0
M  V30 1243 N 119.726 -1.57421 0.075193 0
M  V30 1244 C 120.636 -2.1642 -0.905511 0
M  V30 1245 C 121.652 -1.12828 -1.32461 0
M  V30 1246 O 122.828 -1.45109 -1.39661 0
M  V30 1247 C 119.893 -2.71693 -2.15369 0
M  V30 1248 C 118.954 -3.90171 -1.79068 0
M  V30 1249 C 118.187 -4.42798 -2.97936 0
M  V30 1250 O 118.41 -3.94416 -4.12058 0
M  V30 1251 O 117.344 -5.34085 -2.77555 0
M  V30 1252 H 121.17 -3.00588 -0.433626 0
M  V30 1253 H 118.755 -1.48664 -0.148067 0
M  V30 1254 H 120.637 -3.07104 -2.88557 0
M  V30 1255 H 119.312 -1.90582 -2.61649 0
M  V30 1256 H 118.219 -3.59606 -1.03122 0
M  V30 1257 H 119.552 -4.72584 -1.37569 0
M  V30 1258 N 121.204 0.198386 -1.56346 0
M  V30 1259 C 122.45 0.920648 -1.80698 0
M  V30 1260 C 122.783 1.83045 -0.648697 0
M  V30 1261 O 122.058 1.91308 0.350925 0
M  V30 1262 C 122.341 1.73971 -3.15287 0
M  V30 1263 C 122.194 0.85485 -4.41602 0
M  V30 1264 C 123.513 2.71296 -3.46535 0
M  V30 1265 H 120.632 0.333261 -0.657348 0
M  V30 1266 H 123.274 0.188198 -1.89066 0
M  V30 1267 H 121.424 2.36416 -3.08285 0
M  V30 1268 H 123.096 0.245362 -4.60647 0
M  V30 1269 H 121.339 0.161398 -4.335 0
M  V30 1270 H 122.01 1.46286 -5.32264 0
M  V30 1271 H 124.486 2.18983 -3.53816 0
M  V30 1272 H 123.362 3.2569 -4.41834 0
M  V30 1273 H 123.623 3.5018 -2.69864 0
M  V30 1274 N 122.682 1.50554 0.465978 0
M  V30 1275 C 123.645 1.69233 1.54574 0
M  V30 1276 C 124.645 0.562901 1.50626 0
M  V30 1277 O 125.835 0.830016 1.53155 0
M  V30 1278 C 122.967 1.7223 2.94193 0
M  V30 1279 H 124.16 2.65571 1.39327 0
M  V30 1280 H 121.713 1.40111 0.692711 0
M  V30 1281 H 122.448 0.77603 3.14878 0
M  V30 1282 H 122.233 2.54285 2.98466 0
M  V30 1283 H 123.723 1.88618 3.72576 0
M  V30 1284 N 124.16 -0.719506 1.40217 0
M  V30 1285 C 125.408 -1.47641 1.3801 0
M  V30 1286 C 125.729 -1.94992 -0.018145 0
M  V30 1287 O 124.999 -1.70073 -0.972207 0
M  V30 1288 H 123.579 -0.547744 0.507923 0
M  V30 1289 H 126.241 -0.853187 1.75233 0
M  V30 1290 H 125.337 -2.35112 2.05253 0
M  V30 1291 N 125.638 -1.25649 -0.95132 0
M  V30 1292 C 126.866 -1.13343 -1.73092 0
M  V30 1293 C 127.281 0.312434 -1.86197 0
M  V30 1294 O 126.638 1.21465 -1.36207 0
M  V30 1295 C 126.689 -1.78602 -3.14299 0
M  V30 1296 O 126.41 -3.17537 -3.01831 0
M  V30 1297 C 127.911 -1.72119 -4.08522 0
M  V30 1298 H 125.131 -0.395181 -0.542285 0
M  V30 1299 H 127.675 -1.66076 -1.19328 0
M  V30 1300 H 125.83 -1.29832 -3.64996 0
M  V30 1301 H 126.244 -3.49676 -3.90931 0
M  V30 1302 H 127.718 -2.22435 -5.052 0
M  V30 1303 H 128.195 -0.685635 -4.33815 0
M  V30 1304 H 128.801 -2.20393 -3.63741 0
M  V30 1305 N 127.117 1.15442 -1.07289 0
M  V30 1306 C 128.064 2.20161 -0.692653 0
M  V30 1307 C 129.034 1.63073 0.31564 0
M  V30 1308 O 130.219 1.89725 0.202235 0
M  V30 1309 C 127.359 3.44967 -0.0959509 0
M  V30 1310 C 126.472 4.16256 -1.15564 0
M  V30 1311 C 125.607 5.28609 -0.524011 0
M  V30 1312 C 124.646 5.91715 -1.56653 0
M  V30 1313 N 123.783 6.9554 -0.957531 0
M  V30 1314 H 128.623 2.52037 -1.59002 0
M  V30 1315 H 126.16 1.2378 -0.794798 0
M  V30 1316 H 128.118 4.16341 0.267628 0
M  V30 1317 H 126.748 3.1361 0.764772 0
M  V30 1318 H 125.8 3.43385 -1.6368 0
M  V30 1319 H 127.112 4.59268 -1.94613 0
M  V30 1320 H 126.266 6.06604 -0.108032 0
M  V30 1321 H 125.005 4.86787 0.29825 0
M  V30 1322 H 124.01 5.12433 -1.9923 0
M  V30 1323 H 125.235 6.35614 -2.39107 0
M  V30 1324 H 123.181 6.55814 -0.156162 0
M  V30 1325 H 123.098 7.36977 -1.68526 0
M  V30 1326 H 124.366 7.77435 -0.567032 0
M  V30 1327 N 128.595 0.856903 1.32268 0
M  V30 1328 C 129.558 0.308171 2.27119 0
M  V30 1329 C 130.558 -0.533421 1.51695 0
M  V30 1330 O 131.748 -0.344607 1.70757 0
M  V30 1331 C 128.88 -0.563757 3.36206 0
M  V30 1332 H 130.073 1.14535 2.77167 0
M  V30 1333 H 127.626 0.631421 1.42978 0
M  V30 1334 H 128.361 -1.42266 2.91429 0
M  V30 1335 H 128.146 0.0386749 3.92081 0
M  V30 1336 H 129.636 -0.940386 4.06874 0
M  V30 1337 N 130.073 -1.45103 0.615059 0
M  V30 1338 C 131.322 -2.01396 0.110718 0
M  V30 1339 C 131.635 -1.48834 -1.26916 0
M  V30 1340 O 132.841 -1.97152 -1.86664 0
M  V30 1341 C 131.297 -3.59599 0.14723 0
M  V30 1342 C 130.905 -4.21158 1.52743 0
M  V30 1343 C 132.649 -4.23428 -0.30148 0
M  V30 1344 C 130.556 -5.71535 1.51992 0
M  V30 1345 H 129.486 -0.753061 0.0376241 0
M  V30 1346 H 132.137 -1.66494 0.77149 0
M  V30 1347 H 130.519 -3.91724 -0.580339 0
M  V30 1348 H 131.693 -4.00594 2.2773 0
M  V30 1349 H 130.008 -3.69552 1.91886 0
M  V30 1350 H 132.605 -5.33703 -0.326392 0
M  V30 1351 H 132.948 -3.94629 -1.32565 0
M  V30 1352 H 133.481 -3.96047 0.373065 0
M  V30 1353 H 130.22 -6.05044 2.52193 0
M  V30 1354 H 129.74 -5.94268 0.81274 0
M  V30 1355 H 131.419 -6.34873 1.24681 0
M  V30 1356 N 131.551 -0.354651 -1.53558 0
M  V30 1357 C 132.797 0.238797 -2.01389 0
M  V30 1358 C 133.13 1.49309 -1.2418 0
M  V30 1359 O 132.405 1.91638 -0.332457 0
M  V30 1360 C 132.688 0.541771 -3.56001 0
M  V30 1361 C 132.541 -0.725388 -4.43912 0
M  V30 1362 C 133.86 1.34685 -4.18984 0
M  V30 1363 H 130.979 0.0853177 -0.732045 0
M  V30 1364 H 133.621 -0.477384 -1.83905 0
M  V30 1365 H 131.771 1.15189 -3.71031 0
M  V30 1366 H 133.443 -1.36313 -4.407 0
M  V30 1367 H 131.686 -1.34801 -4.12324 0
M  V30 1368 H 132.357 -0.468505 -5.50008 0
M  V30 1369 H 134.833 0.830837 -4.07721 0
M  V30 1370 H 133.709 1.52759 -5.27215 0
M  V30 1371 H 133.97 2.35221 -3.74331 0
M  V30 1372 N 133.029 1.57378 -0.0835403 0
M  V30 1373 C 133.961 2.10389 0.909338 0
M  V30 1374 C 134.974 1.03858 1.25369 0
M  V30 1375 O 136.163 1.31338 1.20882 0
M  V30 1376 C 133.263 2.55908 2.2218 0
M  V30 1377 C 132.436 3.86145 2.05453 0
M  V30 1378 C 131.495 4.17633 3.20108 0
M  V30 1379 O 130.521 4.87043 2.94581 0
M  V30 1380 N 131.723 3.72113 4.45547 0
M  V30 1381 H 134.488 2.962 0.456657 0
M  V30 1382 H 132.049 1.61579 0.101877 0
M  V30 1383 H 134.041 2.74027 2.97811 0
M  V30 1384 H 132.611 1.75171 2.58909 0
M  V30 1385 H 131.831 3.7729 1.1422 0
M  V30 1386 H 133.119 4.7137 1.91541 0
M  V30 1387 H 132.517 3.16062 4.69171 0
M  V30 1388 H 131.074 3.95409 5.18165 0
M  V30 1389 N 134.507 -0.190092 1.56449 0
M  V30 1390 C 135.753 -0.911052 1.81184 0
M  V30 1391 C 136.086 -1.82699 0.658396 0
M  V30 1392 O 135.361 -1.91491 -0.340775 0
M  V30 1393 C 135.644 -1.72297 3.16205 0
M  V30 1394 C 135.497 -0.831419 4.42049 0
M  V30 1395 C 136.816 -2.69454 3.47969 0
M  V30 1396 H 133.935 -0.32977 0.659106 0
M  V30 1397 H 136.577 -0.178169 1.89163 0
M  V30 1398 H 134.727 -2.34778 3.09534 0
M  V30 1399 H 136.399 -0.220929 4.60771 0
M  V30 1400 H 134.642 -0.138406 4.33579 0
M  V30 1401 H 135.313 -1.43461 5.33032 0
M  V30 1402 H 137.789 -2.17104 3.54972 0
M  V30 1403 H 136.665 -3.23342 4.43555 0
M  V30 1404 H 136.926 -3.48744 2.71717 0
M  V30 1405 N 135.985 -1.50799 -0.457987 0
M  V30 1406 C 137.232 -1.62442 -1.20908 0
M  V30 1407 C 137.56 -0.330865 -1.91665 0
M  V30 1408 O 136.815 0.68401 -1.83357 0
M  V30 1409 C 137.114 -2.76358 -2.2663 0
M  V30 1410 C 136.78 -4.16378 -1.73033 0
M  V30 1411 C 135.442 -4.54473 -1.58138 0
M  V30 1412 C 137.794 -5.03836 -1.33413 0
M  V30 1413 C 135.122 -5.77754 -1.02065 0
M  V30 1414 C 137.474 -6.27676 -0.78778 0
M  V30 1415 C 136.138 -6.64562 -0.625561 0
M  V30 1416 H 135.408 -0.594417 -0.442435 0
M  V30 1417 H 138.055 -1.84772 -0.503136 0
M  V30 1418 H 136.36 -2.48167 -3.03184 0
M  V30 1419 H 138.057 -2.82568 -2.84528 0
M  V30 1420 H 134.647 -3.86331 -1.85598 0
M  V30 1421 H 138.831 -4.75026 -1.4375 0
M  V30 1422 H 134.087 -6.04997 -0.882547 0
M  V30 1423 H 138.261 -6.94797 -0.472177 0
M  V30 1424 H 135.888 -7.59965 -0.188926 0
M  V30 1425 N 137.463 0.71206 -1.40597 0
M  V30 1426 C 138.373 1.8562 -1.43466 0
M  V30 1427 C 139.389 1.70902 -0.326902 0
M  V30 1428 O 140.565 1.93105 -0.572043 0
M  V30 1429 C 137.63 3.21451 -1.29884 0
M  V30 1430 C 136.691 3.48398 -2.50833 0
M  V30 1431 C 135.924 4.77749 -2.3789 0
M  V30 1432 O 136.147 5.53089 -1.39459 0
M  V30 1433 O 135.081 5.05111 -3.27333 0
M  V30 1434 H 138.907 1.86155 -2.39958 0
M  V30 1435 H 136.492 0.86295 -1.21957 0
M  V30 1436 H 138.374 4.02579 -1.24531 0
M  V30 1437 H 137.049 3.21636 -0.364997 0
M  V30 1438 H 135.956 2.67265 -2.61763 0
M  V30 1439 H 137.289 3.53014 -3.4299 0
M  V30 1440 N 138.941 1.26152 0.944643 0
M  V30 1441 C 140.189 1.11271 1.6871 0
M  V30 1442 C 140.51 -0.345166 1.91921 0
M  V30 1443 O 139.78 -1.24387 1.51343 0
M  V30 1444 H 138.36 0.408783 0.625224 0
M  V30 1445 H 141.022 1.58427 1.1352 0
M  V30 1446 H 140.118 1.62879 2.66227 0
M  V30 1447 N 140.419 -1.14872 1.07899 0
M  V30 1448 C 141.647 -1.89661 0.82683 0
M  V30 1449 C 142.062 -1.78312 -0.620519 0
M  V30 1450 O 141.419 -1.13888 -1.42604 0
M  V30 1451 C 141.47 -3.39817 1.23316 0
M  V30 1452 O 141.191 -3.50845 2.62372 0
M  V30 1453 C 142.692 -4.31615 1.0111 0
M  V30 1454 H 139.912 -0.60092 0.298557 0
M  V30 1455 H 142.456 -1.4551 1.43691 0
M  V30 1456 H 140.611 -3.8161 0.667286 0
M  V30 1457 H 141.025 -4.44076 2.79101 0
M  V30 1458 H 142.499 -5.35367 1.34486 0
M  V30 1459 H 142.976 -4.39169 -0.0522168 0
M  V30 1460 H 143.582 -3.95572 1.56215 0
M  V30 1461 N 141.898 -0.863906 -1.31812 0
M  V30 1462 C 143.123 -0.48527 -2.01643 0
M  V30 1463 C 143.548 0.913058 -1.64453 0
M  V30 1464 O 142.906 1.6014 -0.849985 0
M  V30 1465 C 142.954 -0.642625 -3.54828 0
M  V30 1466 O 142.058 0.320659 -4.11151 0
M  V30 1467 H 141.399 -0.193793 -0.635091 0
M  V30 1468 H 143.929 -1.16565 -1.68148 0
M  V30 1469 H 143.939 -0.533628 -4.04495 0
M  V30 1470 H 142.614 -1.66227 -3.81237 0
M  V30 1471 H 141.191 0.167126 -3.72525 0
M  V30 1472 N 143.376 1.44774 -0.622745 0
M  V30 1473 C 144.624 2.01721 -0.123655 0
M  V30 1474 C 144.945 1.49172 1.25589 0
M  V30 1475 O 144.215 0.691974 1.83272 0
M  V30 1476 H 142.795 0.745777 -0.0427225 0
M  V30 1477 H 145.457 1.77382 -0.807559 0
M  V30 1478 H 144.553 3.11984 -0.0849534 0
M  V30 1479 N 144.854 0.36279 1.53368 0
M  V30 1480 C 146.103 -0.22888 2.00397 0
M  V30 1481 C 146.416 -1.50096 1.25421 0
M  V30 1482 O 147.622 -2.17106 1.63025 0
M  V30 1483 C 146.078 -0.458417 3.56969 0
M  V30 1484 C 145.686 0.798877 4.4082 0
M  V30 1485 C 147.43 -1.00789 4.12361 0
M  V30 1486 C 145.337 0.539078 5.88938 0
M  V30 1487 H 144.267 -0.089305 0.748693 0
M  V30 1488 H 146.918 0.481099 1.77081 0
M  V30 1489 H 145.3 -1.22959 3.76427 0
M  V30 1490 H 146.474 1.57262 4.33134 0
M  V30 1491 H 144.789 1.27137 3.96516 0
M  V30 1492 H 147.386 -1.21754 5.20653 0
M  V30 1493 H 147.729 -1.9692 3.66781 0
M  V30 1494 H 148.262 -0.296961 3.9669 0
M  V30 1495 H 145.001 1.47064 6.3879 0
M  V30 1496 H 144.521 -0.196222 5.99479 0
M  V30 1497 H 146.2 0.163542 6.46793 0
M  V30 1498 N 146.332 -1.57332 0.0918853 0
M  V30 1499 C 147.609 -1.85691 -0.614668 0
M  V30 1500 C 147.989 -0.988146 -1.86545 0
M  V30 1501 O 147.337 -0.0597055 -2.28422 0
M  V30 1502 C 147.547 -3.36294 -0.933126 0
M  V30 1503 C 148.895 -4.04275 -1.29796 0
M  V30 1504 O 149.919 -3.41157 -1.02424 0
M  V30 1505 O 148.778 -5.1564 -1.81047 0
M  V30 1506 H 145.872 -0.767802 -0.307261 0
M  V30 1507 H 148.418 -1.69244 0.12434 0
M  V30 1508 H 147.19 -3.91273 -0.0456404 0
M  V30 1509 H 146.813 -3.58076 -1.72822 0
M  V30 1510 N 147.81 0.181792 -1.56548 0
M  V30 1511 C 148.773 1.20894 -1.94724 0
M  V30 1512 C 149.773 1.37738 -0.829747 0
M  V30 1513 O 150.963 1.35323 -1.09697 0
M  V30 1514 C 148.095 2.57593 -2.23291 0
M  V30 1515 H 149.288 0.882275 -2.86629 0
M  V30 1516 H 146.841 0.423838 -1.50444 0
M  V30 1517 H 147.576 2.95291 -1.34067 0
M  V30 1518 H 147.361 2.46735 -3.04736 0
M  V30 1519 H 148.851 3.31637 -2.53785 0
M  V30 1520 N 149.288 1.51039 0.449983 0
M  V30 1521 C 150.704 1.38934 0.785462 0
M  V30 1522 C 150.904 0.461817 1.96136 0
M  V30 1523 O 149.96 -0.0877389 2.52348 0
M  V30 1524 C 151.273 2.80724 1.0777 0
M  V30 1525 C 152.821 2.89787 1.1829 0
M  V30 1526 C 153.296 4.32457 1.50815 0
M  V30 1527 N 154.787 4.35505 1.57764 0
M  V30 1528 C 155.522 5.42914 1.84477 0
M  V30 1529 N 155.018 6.60502 2.09068 0
M  V30 1530 N 156.811 5.3038 1.86155 0
M  V30 1531 H 148.962 2.09904 -0.324647 0
M  V30 1532 H 151.225 0.944378 -0.0827957 0
M  V30 1533 H 150.931 3.50531 0.286498 0
M  V30 1534 H 150.805 3.19273 2.00859 0
M  V30 1535 H 153.192 2.20186 1.96474 0
M  V30 1536 H 153.273 2.54752 0.231314 0
M  V30 1537 H 152.917 5.02603 0.731622 0
M  V30 1538 H 152.847 4.64995 2.47158 0
M  V30 1539 H 155.338 3.50724 1.40715 0
M  V30 1540 H 155.651 7.38158 2.28785 0
M  V30 1541 H 153.996 6.63639 2.06416 0
M  V30 1542 H 157.187 4.37505 1.66454 0
M  V30 1543 H 157.36 6.1417 2.06637 0
M  V30 1544 N 150.766 -0.704594 1.40972 0
M  V30 1545 C 151.713 -1.81862 1.42109 0
M  V30 1546 C 152.683 -1.63781 0.276593 0
M  V30 1547 O 153.868 -1.84759 0.4763 0
M  V30 1548 C 151.008 -3.19669 1.30022 0
M  V30 1549 C 150.121 -3.49246 2.54267 0
M  V30 1550 C 149.256 -4.76618 2.3454 0
M  V30 1551 C 148.295 -4.99133 3.54306 0
M  V30 1552 N 147.432 -6.17726 3.33706 0
M  V30 1553 H 152.272 -1.80226 2.37324 0
M  V30 1554 H 149.809 -0.880238 1.17857 0
M  V30 1555 H 151.767 -3.99263 1.21018 0
M  V30 1556 H 150.397 -3.20506 0.384192 0
M  V30 1557 H 149.449 -2.64125 2.73756 0
M  V30 1558 H 150.761 -3.61788 3.43381 0
M  V30 1559 H 149.915 -5.64249 2.22952 0
M  V30 1560 H 148.654 -4.66305 1.42867 0
M  V30 1561 H 147.659 -4.09953 3.66359 0
M  V30 1562 H 148.884 -5.11311 4.4692 0
M  V30 1563 H 146.83 -6.08642 2.44725 0
M  V30 1564 H 146.747 -6.30995 4.16391 0
M  V30 1565 H 148.015 -7.08115 3.25873 0
M  V30 1566 N 152.244 -1.26651 -0.937939 0
M  V30 1567 C 153.472 -1.15173 -1.7188 0
M  V30 1568 C 153.887 0.292668 -1.86518 0
M  V30 1569 O 153.244 1.20014 -1.37488 0
M  V30 1570 C 153.295 -1.81925 -3.12387 0
M  V30 1571 O 153.016 -3.2072 -2.98446 0
M  V30 1572 C 154.517 -1.76442 -4.06673 0
M  V30 1573 H 151.737 -0.400911 -0.538063 0
M  V30 1574 H 154.281 -1.67332 -1.1756 0
M  V30 1575 H 152.436 -1.33696 -3.63599 0
M  V30 1576 H 152.85 -3.53802 -3.872 0
M  V30 1577 H 154.324 -2.27781 -5.02812 0
M  V30 1578 H 154.801 -0.731608 -4.33064 0
M  V30 1579 H 155.407 -2.24238 -3.61382 0
M  V30 1580 N 153.722 1.14298 -1.08507 0
M  V30 1581 C 154.95 1.89219 -0.836876 0
M  V30 1582 C 155.365 1.78638 0.611054 0
M  V30 1583 O 154.722 1.14643 1.41998 0
M  V30 1584 C 154.773 3.39158 -1.25116 0
M  V30 1585 O 154.494 3.49449 -2.64229 0
M  V30 1586 C 155.995 4.31073 -1.03398 0
M  V30 1587 H 153.215 0.599328 -0.301739 0
M  V30 1588 H 155.759 1.44746 -1.44461 0
M  V30 1589 H 153.914 3.81251 -0.687514 0
M  V30 1590 H 154.328 4.42589 -2.81452 0
M  V30 1591 H 155.802 5.34646 -1.37323 0
M  V30 1592 H 156.279 4.3919 0.0289259 0
M  V30 1593 H 156.885 3.94738 -1.58311 0
M  V30 1594 N 155.201 0.870884 1.31352 0
M  V30 1595 C 156.441 0.488783 1.9847 0
M  V30 1596 C 156.805 -0.941536 1.67329 0
M  V30 1597 O 158.006 -1.42903 2.27667 0
M  V30 1598 C 156.277 0.739688 3.49662 0
M  V30 1599 S 157.836 0.457582 4.36408 0
M  V30 1600 H 154.654 0.18242 0.6872 0
M  V30 1601 H 157.256 1.12711 1.59739 0
M  V30 1602 H 155.96 1.77944 3.69816 0
M  V30 1603 H 155.491 0.0883905 3.93301 0
M  V30 1604 H 157.506 -0.709752 4.91098 0
M  V30 1605 N 156.679 -1.44442 0.630414 0
M  V30 1606 C 157.589 -2.34476 -0.0761693 0
M  V30 1607 C 158.605 -1.52576 -0.836449 0
M  V30 1608 O 159.781 -1.85307 -0.788874 0
M  V30 1609 C 156.846 -3.30545 -1.04599 0
M  V30 1610 C 155.907 -4.28352 -0.28516 0
M  V30 1611 C 155.14 -5.19831 -1.20878 0
M  V30 1612 O 155.363 -5.15223 -2.44747 0
M  V30 1613 O 154.297 -5.97892 -0.693491 0
M  V30 1614 H 158.123 -2.96345 0.664324 0
M  V30 1615 H 155.708 -1.44203 0.39061 0
M  V30 1616 H 157.59 -3.89681 -1.60396 0
M  V30 1617 H 156.265 -2.7121 -1.76711 0
M  V30 1618 H 155.172 -3.72764 0.315837 0
M  V30 1619 H 156.505 -4.90605 0.395924 0
M  V30 1620 N 158.157 -0.370918 -1.53173 0
M  V30 1621 C 159.404 0.217102 -2.01333 0
M  V30 1622 C 159.732 1.48338 -1.25802 0
M  V30 1623 O 158.987 1.92698 -0.34146 0
M  V30 1624 C 159.286 0.549696 -3.53147 0
M  V30 1625 C 158.952 -0.622872 -4.46577 0
M  V30 1626 C 157.614 -0.944595 -4.71838 0
M  V30 1627 C 159.966 -1.40819 -5.01816 0
M  V30 1628 C 157.294 -2.05351 -5.49589 0
M  V30 1629 C 159.646 -2.50757 -5.80778 0
M  V30 1630 C 158.31 -2.83458 -6.04324 0
M  V30 1631 H 157.58 0.0794431 -0.736729 0
M  V30 1632 H 160.227 -0.504481 -1.84736 0
M  V30 1633 H 158.532 1.35237 -3.6772 0
M  V30 1634 H 160.229 1.017 -3.87889 0
M  V30 1635 H 156.819 -0.36209 -4.27068 0
M  V30 1636 H 161.003 -1.17289 -4.82242 0
M  V30 1637 H 156.259 -2.3108 -5.6605 0
M  V30 1638 H 160.433 -3.12022 -6.22588 0
M  V30 1639 H 158.06 -3.69508 -6.64355 0
M  V30 1640 N 159.635 1.57281 -0.100228 0
M  V30 1641 C 160.863 1.98879 0.570509 0
M  V30 1642 C 161.278 0.979476 1.61405 0
M  V30 1643 O 160.635 -0.0302288 1.82475 0
M  V30 1644 C 160.686 3.4052 1.2136 0
M  V30 1645 O 160.407 4.37588 0.211786 0
M  V30 1646 C 161.908 3.97149 1.96945 0
M  V30 1647 H 159.128 0.653428 0.152555 0
M  V30 1648 H 161.672 2.03697 -0.18103 0
M  V30 1649 H 159.827 3.367 1.91603 0
M  V30 1650 H 160.241 5.20118 0.676607 0
M  V30 1651 H 161.715 4.98393 2.37294 0
M  V30 1652 H 162.192 3.3525 2.83733 0
M  V30 1653 H 162.798 4.04458 1.31506 0
M  V30 1654 N 161.113 -0.173488 1.56642 0
M  V30 1655 C 162.361 -0.888706 1.81512 0
M  V30 1656 C 162.682 -1.82875 0.676872 0
M  V30 1657 O 161.952 -1.93536 -0.303414 0
M  V30 1658 H 160.532 -0.331164 0.669582 0
M  V30 1659 H 163.194 -0.173823 1.94123 0
M  V30 1660 H 162.29 -1.46691 2.75478 0
M  V30 1661 N 162.591 -1.51276 -0.441967 0
M  V30 1662 C 163.868 -1.54252 -1.20273 0
M  V30 1663 C 164.248 -0.30408 -2.08898 0
M  V30 1664 O 163.596 0.711084 -2.17154 0
M  V30 1665 C 163.806 -2.85406 -2.00859 0
M  V30 1666 C 165.154 -3.37181 -2.58059 0
M  V30 1667 O 166.178 -2.86925 -2.11074 0
M  V30 1668 O 165.037 -4.24858 -3.43741 0
M  V30 1669 H 162.131 -0.619969 -0.547328 0
M  V30 1670 H 164.677 -1.63586 -0.451413 0
M  V30 1671 H 163.449 -3.67003 -1.35736 0
M  V30 1672 H 163.072 -2.79213 -2.83065 0
M  V30 1673 N 164.069 0.697108 -1.41344 0
M  V30 1674 C 165.318 1.45279 -1.39918 0
M  V30 1675 C 165.631 1.95597 -0.0109624 0
M  V30 1676 O 166.837 2.71208 0.125919 0
M  V30 1677 C 165.293 2.62695 -2.46007 0
M  V30 1678 C 164.901 2.19169 -3.90729 0
M  V30 1679 C 166.645 3.40336 -2.53715 0
M  V30 1680 C 164.552 3.33535 -4.88373 0
M  V30 1681 H 163.482 0.545692 -0.520323 0
M  V30 1682 H 166.133 0.756929 -1.67161 0
M  V30 1683 H 164.515 3.34541 -2.11892 0
M  V30 1684 H 165.689 1.54623 -4.34083 0
M  V30 1685 H 164.004 1.54525 -3.86666 0
M  V30 1686 H 166.601 4.2547 -3.2385 0
M  V30 1687 H 166.944 3.85418 -1.5735 0
M  V30 1688 H 167.477 2.75546 -2.86913 0
M  V30 1689 H 164.216 2.93468 -5.86137 0
M  V30 1690 H 163.736 3.96936 -4.49668 0
M  V30 1691 H 165.415 3.99335 -5.09059 0
M  V30 1692 N 165.547 1.27147 0.931209 0
M  V30 1693 C 166.477 1.12081 2.04842 0
M  V30 1694 C 167.458 0.0232364 1.70084 0
M  V30 1695 O 168.643 0.197085 1.93197 0
M  V30 1696 C 165.773 0.76354 3.38803 0
M  V30 1697 C 164.727 1.81396 3.87659 0
M  V30 1698 C 164.053 1.31075 5.18385 0
M  V30 1699 C 165.353 3.21739 4.11438 0
M  V30 1700 H 167.047 2.05537 2.17703 0
M  V30 1701 H 164.593 0.989603 1.04608 0
M  V30 1702 H 166.546 0.644982 4.16435 0
M  V30 1703 H 165.27 -0.206727 3.25945 0
M  V30 1704 H 163.929 1.92136 3.12217 0
M  V30 1705 H 163.577 0.330037 5.01916 0
M  V30 1706 H 163.277 2.013 5.52044 0
M  V30 1707 H 164.801 1.20506 5.98591 0
M  V30 1708 H 166.215 3.14019 4.79651 0
M  V30 1709 H 164.612 3.89644 4.56397 0
M  V30 1710 H 165.682 3.67054 3.16859 0
M  V30 1711 N 167.025 -1.13721 1.09112 0
M  V30 1712 C 168.441 -1.36914 0.820174 0
M  V30 1713 C 168.641 -1.93356 -0.567079 0
M  V30 1714 O 167.697 -2.15093 -1.32255 0
M  V30 1715 C 169.01 -2.3235 1.90877 0
M  V30 1716 C 170.558 -2.45973 1.93562 0
M  V30 1717 C 171.033 -3.44714 3.01556 0
M  V30 1718 N 172.524 -3.52263 3.00775 0
M  V30 1719 C 173.259 -4.28536 3.80978 0
M  V30 1720 N 172.755 -5.07991 4.71081 0
M  V30 1721 N 174.548 -4.23804 3.69251 0
M  V30 1722 H 166.699 -0.754348 1.98553 0
M  V30 1723 H 168.962 -0.3944 0.862063 0
M  V30 1724 H 168.668 -1.98027 2.90651 0
M  V30 1725 H 168.542 -3.32332 1.78424 0
M  V30 1726 H 170.929 -2.79584 0.944286 0
M  V30 1727 H 171.01 -1.45926 2.10093 0
M  V30 1728 H 170.654 -3.11835 4.00901 0
M  V30 1729 H 170.584 -4.44558 2.82269 0
M  V30 1730 H 173.075 -2.95567 2.35475 0
M  V30 1731 H 173.388 -5.63487 5.28869 0
M  V30 1732 H 171.733 -5.07235 4.75119 0
M  V30 1733 H 174.924 -3.60806 2.98222 0
M  V30 1734 H 175.097 -4.82995 4.31995 0
M  V30 1735 N 168.503 -0.877838 -1.30888 0
M  V30 1736 C 169.731 -0.507414 -2.00581 0
M  V30 1737 C 170.146 0.902216 -1.65848 0
M  V30 1738 O 169.503 1.59225 -0.891831 0
M  V30 1739 C 169.554 -0.664162 -3.55347 0
M  V30 1740 O 169.275 -2.01829 -3.8884 0
M  V30 1741 C 170.776 -0.295787 -4.42312 0
M  V30 1742 H 167.996 -0.196866 -0.641471 0
M  V30 1743 H 170.54 -1.18117 -1.66939 0
M  V30 1744 H 168.695 -0.0378619 -3.87381 0
M  V30 1745 H 169.109 -2.03174 -4.8355 0
M  V30 1746 H 170.583 -0.456388 -5.5011 0
M  V30 1747 H 171.06 0.765663 -4.32475 0
M  V30 1748 H 171.666 -0.898113 -4.15709 0
M  V30 1749 N 169.982 1.44106 -0.638065 0
M  V30 1750 C 171.393 1.85316 -0.226894 0
M  V30 1751 C 171.744 1.53399 1.22324 0
M  V30 1752 O 170.869 0.975463 1.93167 0
M  V30 1753 C 171.464 3.3637 -0.405013 0
M  V30 1754 C 170.023 3.76369 -0.0482902 0
M  V30 1755 C 169.17 2.67921 -0.715108 0
M  V30 1756 H 172.121 1.34474 -0.842764 0
M  V30 1757 H 172.142 3.7885 0.354 0
M  V30 1758 H 171.654 3.59569 -1.46053 0
M  V30 1759 H 169.755 3.58784 1.00522 0
M  V30 1760 H 169.868 4.76856 -0.463187 0
M  V30 1761 H 168.232 2.54259 -0.149753 0
M  V30 1762 H 169.015 2.93951 -1.77335 0
M  V30 1763 N 171.46 0.379036 1.52974 0
M  V30 1764 C 172.706 -0.206727 2.01744 0
M  V30 1765 C 173.039 -1.47314 1.26539 0
M  V30 1766 O 172.314 -1.91084 0.362903 0
M  V30 1767 C 172.597 -0.485066 3.56818 0
M  V30 1768 C 172.45 0.795919 4.42702 0
M  V30 1769 C 173.769 -1.28003 4.21074 0
M  V30 1770 H 170.888 -0.0736607 0.73331 0
M  V30 1771 H 173.53 0.506581 1.83122 0
M  V30 1772 H 171.68 -1.09272 3.72816 0
M  V30 1773 H 173.352 1.43307 4.38476 0
M  V30 1774 H 171.595 1.41344 4.10127 0
M  V30 1775 H 172.266 0.555947 5.49193 0
M  V30 1776 H 174.742 -0.765867 4.08991 0
M  V30 1777 H 173.618 -1.44352 5.29579 0
M  V30 1778 H 173.879 -2.29236 3.78026 0
M  V30 1779 N 172.938 -1.57226 0.108567 0
M  V30 1780 C 174.163 -1.99604 -0.563303 0
M  V30 1781 C 174.588 -0.987563 -1.6009 0
M  V30 1782 O 173.946 0.0421687 -1.81251 0
M  V30 1783 C 173.994 -3.40902 -1.17552 0
M  V30 1784 O 173.098 -3.42896 -2.2912 0
M  V30 1785 H 172.439 -0.648704 -0.1417 0
M  V30 1786 H 174.969 -2.03679 0.193961 0
M  V30 1787 H 174.979 -3.78886 -1.51357 0
M  V30 1788 H 173.654 -4.1382 -0.415445 0
M  V30 1789 H 172.231 -3.1672 -1.96832 0
M  V30 1790 N 174.416 0.165178 -1.56732 0
M  V30 1791 C 175.326 1.22423 -2.00125 0
M  V30 1792 C 176.342 1.48084 -0.913619 0
M  V30 1793 O 177.518 1.60112 -1.22172 0
M  V30 1794 C 174.583 2.54197 -2.35764 0
M  V30 1795 C 173.644 2.36343 -3.58386 0
M  V30 1796 C 172.877 3.61834 -3.92316 0
M  V30 1797 O 173.1 4.67267 -3.27135 0
M  V30 1798 O 172.034 3.55579 -4.85641 0
M  V30 1799 H 175.86 0.885886 -2.90492 0
M  V30 1800 H 173.445 0.372518 -1.44681 0
M  V30 1801 H 175.327 3.3192 -2.59629 0
M  V30 1802 H 174.002 2.87598 -1.48557 0
M  V30 1803 H 172.909 1.56632 -3.39731 0
M  V30 1804 H 174.242 2.07865 -4.46154 0
M  V30 1805 N 175.894 1.51508 0.433938 0
M  V30 1806 C 177.171 1.54888 1.19453 0
M  V30 1807 C 177.551 0.315154 2.08734 0
M  V30 1808 O 176.899 -0.699558 2.17528 0
M  V30 1809 C 177.109 2.86467 1.99342 0
M  V30 1810 C 178.457 3.38545 2.56267 0
M  V30 1811 O 179.481 2.88041 2.0955 0
M  V30 1812 O 178.34 4.26675 3.41483 0
M  V30 1813 H 175.434 0.622863 0.544032 0
M  V30 1814 H 177.98 1.63823 0.442732 0
M  V30 1815 H 176.752 3.67718 1.33788 0
M  V30 1816 H 176.375 2.8071 2.8158 0
M  V30 1817 N 177.372 -0.689602 1.41712 0
M  V30 1818 C 178.305 -1.81403 1.3845 0
M  V30 1819 C 179.283 -1.60653 0.250874 0
M  V30 1820 O 180.467 -1.83323 0.43874 0
M  V30 1821 C 177.594 -3.18176 1.1611 0
M  V30 1822 C 176.64 -3.57705 2.3227 0
M  V30 1823 S 177.473 -3.61827 3.94767 0
M  V30 1824 C 178.629 -5.01318 3.74742 0
M  V30 1825 H 178.862 -1.83893 2.33603 0
M  V30 1826 H 176.395 -0.858878 1.28307 0
M  V30 1827 H 178.353 -3.97132 1.03907 0
M  V30 1828 H 177.014 -3.13288 0.225668 0
M  V30 1829 H 176.207 -4.57082 2.12349 0
M  V30 1830 H 175.809 -2.86073 2.40911 0
M  V30 1831 H 178.101 -5.88986 3.34817 0
M  V30 1832 H 179.044 -5.26283 4.73743 0
M  V30 1833 H 179.452 -4.73138 3.07898 0
M  V30 1834 N 178.85 -1.27639 -0.924453 0
M  V30 1835 C 179.78 -1.13166 -2.04244 0
M  V30 1836 C 180.761 -0.032256 -1.70069 0
M  V30 1837 O 181.946 -0.207328 -1.9309 0
M  V30 1838 C 179.076 -0.781496 -3.38393 0
M  V30 1839 C 178.03 -1.83449 -3.86692 0
M  V30 1840 C 177.356 -1.33822 -5.17683 0
M  V30 1841 C 178.656 -3.23917 -4.09726 0
M  V30 1842 H 180.35 -2.06689 -2.1661 0
M  V30 1843 H 177.896 -0.995136 -1.04082 0
M  V30 1844 H 179.849 -0.667057 -4.16087 0
M  V30 1845 H 178.573 0.189439 -3.2605 0
M  V30 1846 H 177.232 -1.93789 -3.11193 0
M  V30 1847 H 176.88 -0.35665 -5.01734 0
M  V30 1848 H 176.58 -2.04224 -5.50968 0
M  V30 1849 H 178.104 -1.23679 -5.97943 0
M  V30 1850 H 179.518 -3.16559 -4.77978 0
M  V30 1851 H 177.915 -3.92059 -4.54324 0
M  V30 1852 H 178.985 -3.68729 -3.14908 0
M  V30 1853 N 180.328 1.1314 -1.09713 0
M  V30 1854 C 181.576 1.84119 -0.833338 0
M  V30 1855 C 181.897 1.84097 0.642904 0
M  V30 1856 O 181.167 1.29881 1.46655 0
M  V30 1857 H 179.747 0.681766 -0.305293 0
M  V30 1858 H 182.409 1.37038 -1.38588 0
M  V30 1859 H 181.505 2.88543 -1.18951 0
M  V30 1860 N 181.806 0.884767 1.30421 0
M  V30 1861 C 183.222 0.57874 1.48737 0
M  V30 1862 C 183.422 -0.883567 1.81095 0
M  V30 1863 O 182.478 -1.6648 1.89844 0
M  V30 1864 C 183.791 1.49171 2.61091 0
M  V30 1865 C 185.339 1.49532 2.74971 0
M  V30 1866 C 185.814 2.39421 3.90438 0
M  V30 1867 N 187.305 2.37383 3.97748 0
M  V30 1868 C 188.04 3.03647 4.86401 0
M  V30 1869 N 187.536 3.79136 5.79852 0
M  V30 1870 N 189.329 2.9288 4.79768 0
M  V30 1871 H 181.48 1.83075 1.0769 0
M  V30 1872 H 183.743 0.783637 0.533495 0
M  V30 1873 H 183.449 2.53291 2.44001 0
M  V30 1874 H 183.323 1.20113 3.57565 0
M  V30 1875 H 185.71 0.46163 2.91467 0
M  V30 1876 H 185.791 1.8262 1.79119 0
M  V30 1877 H 185.435 3.42874 3.74699 0
M  V30 1878 H 185.365 2.03649 4.85628 0
M  V30 1879 H 187.856 1.82525 3.30897 0
M  V30 1880 H 188.169 4.26789 6.4426 0
M  V30 1881 H 186.514 3.83243 5.79784 0
M  V30 1882 H 189.705 2.33433 4.05742 0
M  V30 1883 H 189.878 3.448 5.4865 0
M  V30 1884 N 183.284 -1.43765 0.645699 0
M  V30 1885 C 184.53 -2.02197 0.156271 0
M  V30 1886 C 184.863 -1.50776 -1.22393 0
M  V30 1887 O 184.138 -0.697771 -1.81553 0
M  V30 1888 C 184.421 -3.59749 0.158872 0
M  V30 1889 C 184.274 -4.21419 1.57245 0
M  V30 1890 C 185.593 -4.37149 -0.50879 0
M  V30 1891 H 182.712 -0.734694 0.0582602 0
M  V30 1892 H 185.354 -1.71157 0.824951 0
M  V30 1893 H 183.504 -3.86325 -0.410525 0
M  V30 1894 H 185.176 -4.059 2.19186 0
M  V30 1895 H 183.419 -3.78356 2.122 0
M  V30 1896 H 184.09 -5.30482 1.52619 0
M  V30 1897 H 186.566 -4.16093 -0.024412 0
M  V30 1898 H 185.442 -5.4683 -0.476213 0
M  V30 1899 H 185.703 -4.12839 -1.58165 0
M  V30 1900 N 184.763 -0.387143 -1.52771 0
M  V30 1901 C 186.01 0.195735 -2.01552 0
M  V30 1902 C 186.338 1.46995 -1.27369 0
M  V30 1903 O 185.593 1.92325 -0.361879 0
M  V30 1904 C 185.892 0.512209 -3.53711 0
M  V30 1905 C 185.558 -0.670202 -4.45891 0
M  V30 1906 C 184.22 -0.994586 -4.70809 0
M  V30 1907 C 186.572 -1.46134 -5.00294 0
M  V30 1908 C 183.9 -2.11169 -5.4738 0
M  V30 1909 C 186.252 -2.56903 -5.78086 0
M  V30 1910 C 184.916 -2.89852 -6.01284 0
M  V30 1911 H 184.186 0.0716246 -0.73753 0
M  V30 1912 H 186.833 -0.524046 -1.8419 0
M  V30 1913 H 185.138 1.31329 -3.69134 0
M  V30 1914 H 186.835 0.975804 -3.88946 0
M  V30 1915 H 183.425 -0.407366 -4.2666 0
M  V30 1916 H 187.609 -1.22397 -4.80971 0
M  V30 1917 H 182.865 -2.3707 -5.63567 0
M  V30 1918 H 187.039 -3.18608 -6.19243 0
M  V30 1919 H 184.666 -3.76533 -6.60399 0
M  V30 1920 N 186.241 1.57166 -0.116904 0
M  V30 1921 C 187.189 2.16457 0.851418 0
M  V30 1922 C 188.183 1.11323 1.27686 0
M  V30 1923 O 189.389 1.2963 1.24884 0
M  V30 1924 H 185.764 0.69271 0.292672 0
M  V30 1925 H 187.735 2.96605 0.32685 0
M  V30 1926 C 186.484 2.77689 2.09246 0
M  V30 1927 H 185.807 3.58285 1.77402 0
M  V30 1928 H 187.247 3.22716 2.7501 0
M  V30 1929 C 185.706 1.74667 2.88085 0
M  V30 1930 O 186.236 1.19877 3.83396 0
M  V30 1931 N 184.442 1.44656 2.52038 0
M  V30 1932 H 183.989 1.89402 1.74599 0
M  V30 1933 H 183.947 0.759675 3.05084 0
M  V30 1934 N 187.719 -0.156864 1.56817 0
M  V30 1935 C 188.967 -0.869404 1.82444 0
M  V30 1936 C 189.288 -1.82147 0.69623 0
M  V30 1937 O 188.558 -1.93847 -0.28287 0
M  V30 1938 H 187.138 -0.324043 0.673056 0
M  V30 1939 H 189.8 -0.153224 1.94297 0
M  V30 1940 H 188.896 -1.43761 2.77019 0
M  V30 1941 N 189.197 -1.51736 -0.425897 0
M  V30 1942 C 190.422 -1.69082 -1.20108 0
M  V30 1943 C 190.847 -0.392398 -1.83962 0
M  V30 1944 O 190.205 0.64858 -1.69302 0
M  V30 1945 C 190.253 -2.81604 -2.25237 0
M  V30 1946 O 189.357 -2.46004 -3.30992 0
M  V30 1947 H 188.698 -0.563408 -0.35138 0
M  V30 1948 H 191.228 -1.98358 -0.501512 0
M  V30 1949 H 191.238 -3.06025 -2.69838 0
M  V30 1950 H 189.913 -3.75817 -1.78142 0
M  V30 1951 H 188.49 -2.32195 -2.91787 0
M  V30 1952 N 190.675 0.682077 -1.42076 0
M  V30 1953 C 191.923 1.4393 -1.41876 0
M  V30 1954 C 192.244 1.94971 -0.0335599 0
M  V30 1955 O 191.514 1.72591 0.926773 0
M  V30 1956 H 190.094 0.534085 -0.522267 0
M  V30 1957 H 192.756 0.806427 -1.77434 0
M  V30 1958 H 191.852 2.29588 -2.11414 0
M  V30 1959 N 192.153 1.28127 0.917671 0
M  V30 1960 C 193.1 1.11717 2.0196 0
M  V30 1961 C 194.07 0.0153929 1.66093 0
M  V30 1962 O 195.255 0.179596 1.89953 0
M  V30 1963 C 192.395 0.780927 3.36148 0
M  V30 1964 C 191.508 1.96135 3.84909 0
M  V30 1965 C 190.643 1.56609 5.0759 0
M  V30 1966 C 189.682 2.71339 5.48673 0
M  V30 1967 N 188.819 2.32332 6.62545 0
M  V30 1968 H 193.659 2.06003 2.15329 0
M  V30 1969 H 191.196 1.02535 1.05475 0
M  V30 1970 H 193.154 0.56675 4.13333 0
M  V30 1971 H 191.784 -0.124998 3.22558 0
M  V30 1972 H 190.836 2.28777 3.03916 0
M  V30 1973 H 192.148 2.82165 4.1132 0
M  V30 1974 H 191.302 1.31374 5.92305 0
M  V30 1975 H 190.041 0.677014 4.82978 0
M  V30 1976 H 189.046 2.97276 4.62501 0
M  V30 1977 H 190.271 3.60882 5.75274 0
M  V30 1978 H 188.217 1.45889 6.39572 0
M  V30 1979 H 188.134 3.11899 6.88662 0
M  V30 1980 H 189.402 2.10371 7.50576 0
M  V30 1981 N 193.631 -1.12557 1.10312 0
M  V30 1982 C 195.042 -1.65574 0.862678 0
M  V30 1983 C 195.393 -1.86566 -0.607256 0
M  V30 1984 O 194.518 -1.59121 -1.46662 0
M  V30 1985 C 195.113 -3.00776 1.55947 0
M  V30 1986 C 193.672 -3.50748 1.36576 0
M  V30 1987 C 192.819 -2.25797 1.60968 0
M  V30 1988 H 195.77 -0.963552 1.26101 0
M  V30 1989 H 195.791 -3.67185 0.997753 0
M  V30 1990 H 195.303 -2.85465 2.62928 0
M  V30 1991 H 193.404 -3.71245 0.317531 0
M  V30 1992 H 193.517 -4.30289 2.10686 0
M  V30 1993 H 191.881 -2.32841 1.03234 0
M  V30 1994 H 192.664 -2.13043 2.69198 0
M  V30 1995 N 195.109 -0.891671 -1.2995 0
M  V30 1996 C 196.358 -0.509521 -1.95158 0
M  V30 1997 C 196.671 0.947388 -1.71125 0
M  V30 1998 O 197.877 1.43669 -2.30372 0
M  V30 1999 C 196.333 -0.860315 -3.49466 0
M  V30 2000 C 195.941 -2.33545 -3.8231 0
M  V30 2001 C 197.685 -0.547687 -4.20952 0
M  V30 2002 C 195.592 -2.62752 -5.29826 0
M  V30 2003 H 194.522 -0.18682 -0.730489 0
M  V30 2004 H 197.173 -1.08756 -1.47798 0
M  V30 2005 H 195.555 -0.211285 -3.95436 0
M  V30 2006 H 196.729 -3.02936 -3.47227 0
M  V30 2007 H 195.044 -2.61629 -3.23944 0
M  V30 2008 H 197.641 -0.742854 -5.29515 0
M  V30 2009 H 197.984 0.51332 -4.13123 0
M  V30 2010 H 198.517 -1.1542 -3.80688 0
M  V30 2011 H 195.256 -3.6762 -5.42712 0
M  V30 2012 H 194.776 -1.97977 -5.66185 0
M  V30 2013 H 196.455 -2.48601 -5.97333 0
M  V30 2014 N 196.587 1.43421 -0.653314 0
M  V30 2015 C 197.864 1.95361 -0.0966581 0
M  V30 2016 C 198.244 1.59461 1.38331 0
M  V30 2017 O 197.592 0.879777 2.10884 0
M  V30 2018 C 197.802 3.47311 -0.342988 0
M  V30 2019 C 199.15 4.23875 -0.24798 0
M  V30 2020 O 200.174 3.55133 -0.275553 0
M  V30 2021 O 199.033 5.4623 -0.171771 0
M  V30 2022 H 196.127 0.826945 0.00956291 0
M  V30 2023 H 198.673 1.5336 -0.726558 0
M  V30 2024 H 197.445 3.66569 -1.36906 0
M  V30 2025 H 197.068 3.9631 0.319975 0
M  V30 2026 N 198.065 0.39524 1.52563 0
M  V30 2027 C 199.012 -0.437036 2.26624 0
M  V30 2028 C 199.982 -1.05281 1.28472 0
M  V30 2029 O 201.167 -1.07971 1.57311 0
M  V30 2030 C 198.307 -1.55524 3.08069 0
M  V30 2031 C 197.42 -0.961745 4.21158 0
M  V30 2032 C 196.555 -2.05149 4.89987 0
M  V30 2033 C 195.594 -1.4342 5.95061 0
M  V30 2034 N 194.731 -2.46351 6.57462 0
M  V30 2035 H 199.571 0.200976 2.97322 0
M  V30 2036 H 197.108 0.110944 1.46681 0
M  V30 2037 H 199.066 -2.21437 3.53584 0
M  V30 2038 H 197.696 -2.16348 2.3957 0
M  V30 2039 H 196.748 -0.192048 3.79915 0
M  V30 2040 H 198.06 -0.470701 4.96574 0
M  V30 2041 H 197.214 -2.78819 5.38837 0
M  V30 2042 H 195.953 -2.57615 4.14109 0
M  V30 2043 H 194.958 -0.682774 5.45544 0
M  V30 2044 H 196.183 -0.917416 6.72875 0
M  V30 2045 H 194.129 -2.97975 5.8442 0
M  V30 2046 H 194.046 -2.02019 7.28508 0
M  V30 2047 H 195.314 -3.19633 7.10954 0
M  V30 2048 N 199.544 -1.57102 0.125237 0
M  V30 2049 C 200.792 -1.95021 -0.530198 0
M  V30 2050 C 201.113 -1.00982 -1.66816 0
M  V30 2051 O 200.383 -0.0672693 -1.95784 0
M  V30 2052 H 198.963 -0.720046 -0.198853 0
M  V30 2053 H 201.625 -1.93916 0.19564 0
M  V30 2054 H 200.721 -2.98211 -0.920681 0
M  V30 2055 N 201.022 0.148545 -1.56898 0
M  V30 2056 C 202.433 0.708766 -1.72723 0
M  V30 2057 C 202.784 1.81734 -0.739395 0
M  V30 2058 O 201.909 2.16194 0.0943169 0
M  V30 2059 C 202.504 1.29245 -3.13179 0
M  V30 2060 C 201.063 1.79925 -3.30611 0
M  V30 2061 C 200.21 0.687111 -2.68652 0
M  V30 2062 H 203.161 -0.0771063 -1.58513 0
M  V30 2063 H 203.182 2.16224 -3.13093 0
M  V30 2064 H 202.694 0.485382 -3.85053 0
M  V30 2065 H 200.795 2.63203 -2.63732 0
M  V30 2066 H 200.908 1.92903 -4.38549 0
M  V30 2067 H 199.272 1.11335 -2.29078 0
M  V30 2068 H 200.055 -0.108483 -3.43129 0
M  V30 2069 N 202.5 1.5196 0.417844 0
M  V30 2070 C 203.746 1.65836 1.16732 0
M  V30 2071 C 204.079 0.382881 1.90388 0
M  V30 2072 O 203.354 -0.618368 1.84408 0
M  V30 2073 C 203.637 2.87466 2.16876 0
M  V30 2074 C 203.49 4.25041 1.47174 0
M  V30 2075 C 204.809 3.04613 3.17646 0
M  V30 2076 H 201.928 0.603515 0.423011 0
M  V30 2077 H 204.57 1.84494 0.454105 0
M  V30 2078 H 202.72 2.71689 2.777 0
M  V30 2079 H 204.392 4.52527 0.895376 0
M  V30 2080 H 202.635 4.26843 0.773806 0
M  V30 2081 H 203.306 5.06176 2.20204 0
M  V30 2082 H 205.782 3.1923 2.66892 0
M  V30 2083 H 204.658 3.91247 3.8499 0
M  V30 2084 H 204.919 2.17541 3.84874 0
M  V30 2085 N 203.978 -0.674533 1.42435 0
M  V30 2086 C 205.224 -1.43671 1.43131 0
M  V30 2087 C 205.557 -1.94142 0.0476021 0
M  V30 2088 O 204.832 -1.70924 -0.928188 0
M  V30 2089 C 205.115 -2.63355 2.45594 0
M  V30 2090 C 204.968 -2.18514 3.93156 0
M  V30 2091 C 206.287 -3.65571 2.45043 0
M  V30 2092 H 203.406 -0.521077 0.521198 0
M  V30 2093 H 206.048 -0.766551 1.7385 0
M  V30 2094 H 204.198 -3.2053 2.19528 0
M  V30 2095 H 205.87 -1.66504 4.30202 0
M  V30 2096 H 204.113 -1.50086 4.07009 0
M  V30 2097 H 204.784 -3.04484 4.60428 0
M  V30 2098 H 207.26 -3.18113 2.68223 0
M  V30 2099 H 206.136 -4.46893 3.18713 0
M  V30 2100 H 206.397 -4.16716 1.47649 0
M  V30 2101 N 205.456 -1.28612 -0.910864 0
M  V30 2102 C 206.389 -1.07109 -2.01502 0
M  V30 2103 C 207.367 0.013706 -1.62594 0
M  V30 2104 O 208.551 -0.134796 -1.88017 0
M  V30 2105 C 205.678 -0.628255 -3.32822 0
M  V30 2106 C 204.724 -1.71012 -3.90714 0
M  V30 2107 S 205.557 -3.30676 -4.21205 0
M  V30 2108 C 206.713 -2.88234 -5.55583 0
M  V30 2109 H 206.946 -2.00591 -2.19432 0
M  V30 2110 H 204.479 -1.12633 -1.05609 0
M  V30 2111 H 206.437 -0.37946 -4.08742 0
M  V30 2112 H 205.098 0.28678 -3.12788 0
M  V30 2113 H 204.291 -1.35195 -4.85529 0
M  V30 2114 H 203.893 -1.91186 -3.21441 0
M  V30 2115 H 206.185 -2.34584 -6.35591 0
M  V30 2116 H 207.128 -3.81857 -5.96314 0
M  V30 2117 H 207.536 -2.26862 -5.16908 0
M  V30 2118 N 206.934 1.1197 -1.10907 0
M  V30 2119 C 207.897 2.16031 -0.765707 0
M  V30 2120 C 208.897 1.59393 0.212235 0
M  V30 2121 O 210.087 1.74196 -0.0115441 0
M  V30 2122 C 207.219 3.40632 -0.135053 0
M  V30 2123 H 208.412 2.47919 -1.68748 0
M  V30 2124 H 205.965 1.27061 -0.910226 0
M  V30 2125 H 206.7 3.14348 0.797218 0
M  V30 2126 H 206.485 3.8302 -0.838937 0
M  V30 2127 H 207.975 4.17505 0.0892469 0
M  V30 2128 N 208.412 0.89855 1.29475 0
M  V30 2129 C 209.322 0.379974 2.31502 0
M  V30 2130 C 210.338 -0.524695 1.659 0
M  V30 2131 O 211.514 -0.414551 1.97087 0
M  V30 2132 C 208.579 -0.385138 3.44554 0
M  V30 2133 C 207.64 0.550914 4.2575 0
M  V30 2134 C 206.873 -0.177778 5.33404 0
M  V30 2135 O 207.096 -1.40189 5.52904 0
M  V30 2136 O 206.03 0.479106 5.9999 0
M  V30 2137 H 209.856 1.22639 2.77837 0
M  V30 2138 H 207.441 0.662834 1.33891 0
M  V30 2139 H 209.323 -0.817841 4.13388 0
M  V30 2140 H 207.998 -1.20763 3.0033 0
M  V30 2141 H 206.905 1.03271 3.59564 0
M  V30 2142 H 208.238 1.33979 4.73614 0
M  V30 2143 N 209.89 -1.43072 0.660911 0
M  V30 2144 C 211.167 -1.95307 0.107017 0
M  V30 2145 C 211.547 -1.60192 -1.37484 0
M  V30 2146 O 210.895 -0.890949 -2.10415 0
M  V30 2147 C 211.105 -3.47124 0.361402 0
M  V30 2148 C 212.453 -4.23738 0.270455 0
M  V30 2149 O 213.477 -3.54981 0.294382 0
M  V30 2150 O 212.336 -5.46131 0.200737 0
M  V30 2151 H 209.43 -0.826984 -0.00517729 0
M  V30 2152 H 211.976 -1.52972 0.734681 0
M  V30 2153 H 210.748 -3.65837 1.38848 0
M  V30 2154 H 210.371 -3.96475 -0.298953 0
M  V30 2155 N 211.368 -0.403325 -1.52352 0
M  V30 2156 C 212.615 0.174347 -2.01748 0
M  V30 2157 C 212.943 1.45636 -1.2892 0
M  V30 2158 O 212.198 1.9193 -0.382258 0
M  V30 2159 C 212.497 0.474665 -3.54234 0
M  V30 2160 C 212.163 -0.717458 -4.45155 0
M  V30 2161 C 210.825 -1.04447 -4.69728 0
M  V30 2162 C 213.177 -1.51432 -4.98716 0
M  V30 2163 C 210.505 -2.16963 -5.45109 0
M  V30 2164 C 212.857 -2.6302 -5.75329 0
M  V30 2165 C 211.521 -2.96213 -5.98175 0
M  V30 2166 H 210.791 0.0637981 -0.738248 0
M  V30 2167 H 213.438 -0.543553 -1.83624 0
M  V30 2168 H 211.743 1.27406 -3.70506 0
M  V30 2169 H 213.44 0.934496 -3.89959 0
M  V30 2170 H 210.03 -0.452596 -4.26204 0
M  V30 2171 H 214.214 -1.27491 -4.79645 0
M  V30 2172 H 209.47 -2.43034 -5.61021 0
M  V30 2173 H 213.644 -3.25158 -6.15829 0
M  V30 2174 H 211.271 -3.83516 -6.56368 0
M  V30 2175 N 212.846 1.57033 -0.133567 0
M  V30 2176 C 213.776 2.1909 0.807567 0
M  V30 2177 C 214.757 1.13517 1.26681 0
M  V30 2178 O 215.942 1.41809 1.32679 0
M  V30 2179 C 213.072 2.80188 2.05212 0
M  V30 2180 C 212.026 3.91471 1.73015 0
M  V30 2181 C 211.352 4.39443 3.04622 0
M  V30 2182 C 212.652 5.12886 0.987168 0
M  V30 2183 H 214.346 2.97988 0.290403 0
M  V30 2184 H 211.892 1.43335 0.138239 0
M  V30 2185 H 213.845 3.22264 2.71521 0
M  V30 2186 H 212.569 1.98601 2.59278 0
M  V30 2187 H 211.228 3.49993 1.0909 0
M  V30 2188 H 210.876 3.54695 3.56651 0
M  V30 2189 H 210.576 5.14495 2.83847 0
M  V30 2190 H 212.1 4.8418 3.72024 0
M  V30 2191 H 213.514 5.51891 1.55208 0
M  V30 2192 H 211.911 5.93615 0.87985 0
M  V30 2193 H 212.981 4.84894 -0.0235286 0
M  V30 2194 N 214.325 -0.140222 1.56975 0
M  V30 2195 C 215.602 -0.880769 1.74648 0
M  V30 2196 C 215.982 -1.99036 0.703404 0
M  V30 2197 O 215.33 -2.26821 -0.27648 0
M  V30 2198 C 215.54 -1.417 3.18939 0
M  V30 2199 C 216.888 -1.87774 3.80823 0
M  V30 2200 O 217.912 -1.51427 3.2241 0
M  V30 2201 O 216.771 -2.54827 4.83452 0
M  V30 2202 H 213.865 -0.416713 0.714338 0
M  V30 2203 H 216.411 -0.125618 1.69234 0
M  V30 2204 H 215.183 -0.619902 3.86359 0
M  V30 2205 H 214.806 -2.23546 3.28805 0
M  V30 2206 N 215.803 -1.52179 -0.40978 0
M  V30 2207 C 217.052 -1.65434 -1.15388 0
M  V30 2208 C 217.365 -0.390056 -1.91671 0
M  V30 2209 O 218.571 -0.402399 -2.68501 0
M  V30 2210 C 217.027 -2.92279 -2.10003 0
M  V30 2211 C 216.635 -4.25813 -1.39239 0
M  V30 2212 C 218.379 -3.14897 -2.84675 0
M  V30 2213 C 216.286 -5.43782 -2.32498 0
M  V30 2214 H 215.216 -0.616267 -0.434432 0
M  V30 2215 H 217.867 -1.78666 -0.418401 0
M  V30 2216 H 216.249 -2.72744 -2.871 0
M  V30 2217 H 217.423 -4.55828 -0.675099 0
M  V30 2218 H 215.738 -4.09292 -0.766097 0
M  V30 2219 H 218.335 -4.0021 -3.54593 0
M  V30 2220 H 218.678 -2.29103 -3.47588 0
M  V30 2221 H 219.211 -3.34901 -2.14677 0
M  V30 2222 H 215.95 -6.3192 -1.74233 0
M  V30 2223 H 215.47 -5.18106 -3.02201 0
M  V30 2224 H 217.149 -5.76834 -2.93038 0
M  V30 2225 N 217.281 0.66697 -1.42791 0
M  V30 2226 C 218.229 1.80157 -1.47127 0
M  V30 2227 C 219.223 1.65825 -0.346199 0
M  V30 2228 O 220.429 1.72338 -0.519572 0
M  V30 2229 H 216.804 0.594158 -0.460956 0
M  V30 2230 H 218.775 1.73619 -2.42692 0
M  V30 2231 C 217.524 3.18351 -1.39813 0
M  V30 2232 H 216.847 3.3001 -2.25684 0
M  V30 2233 H 218.287 3.97736 -1.46908 0
M  V30 2234 C 216.746 3.36707 -0.11391 0
M  V30 2235 O 217.276 3.93027 0.830241 0
M  V30 2236 N 215.482 2.90586 -0.0285295 0
M  V30 2237 H 215.029 2.4494 -0.79764 0
M  V30 2238 H 214.987 3.03245 0.830063 0
M  V30 2239 N 218.759 1.29093 0.90403 0
M  V30 2240 C 220.007 1.16583 1.65085 0
M  V30 2241 C 220.328 -0.283933 1.92922 0
M  V30 2242 O 219.598 -1.19509 1.55224 0
M  V30 2243 H 218.178 0.428467 0.611903 0
M  V30 2244 H 220.84 1.61959 1.08422 0
M  V30 2245 H 219.936 1.71266 2.6091 0
M  V30 2246 N 220.237 -1.11381 1.11499 0
M  V30 2247 C 221.169 -2.17207 0.731704 0
M  V30 2248 C 222.182 -1.61066 -0.236957 0
M  V30 2249 O 223.371 -1.78489 -0.0197591 0
M  V30 2250 C 220.471 -3.38846 0.0607624 0
M  V30 2251 C 219.644 -4.24451 1.0564 0
M  V30 2252 C 218.703 -5.24562 0.4149 0
M  V30 2253 O 217.729 -5.59071 1.069 0
M  V30 2254 N 218.931 -5.74651 -0.821943 0
M  V30 2255 H 221.696 -2.50699 1.64225 0
M  V30 2256 H 219.257 -1.26908 1.00529 0
M  V30 2257 H 221.249 -4.02911 -0.380139 0
M  V30 2258 H 219.819 -3.03411 -0.752376 0
M  V30 2259 H 219.039 -3.56833 1.67524 0
M  V30 2260 H 220.327 -4.78486 1.72998 0
M  V30 2261 H 219.725 -5.48797 -1.37252 0
M  V30 2262 H 218.282 -6.40549 -1.20582 0
M  V30 2263 N 221.715 -0.905404 -1.28997 0
M  V30 2264 C 223.126 -0.581953 -1.77398 0
M  V30 2265 C 223.477 0.902552 -1.74208 0
M  V30 2266 O 222.602 1.70584 -1.33154 0
M  V30 2267 C 223.197 -1.04961 -3.22131 0
M  V30 2268 C 221.756 -0.777229 -3.68288 0
M  V30 2269 C 220.903 -1.22109 -2.48967 0
M  V30 2270 H 223.854 -1.08754 -1.15578 0
M  V30 2271 H 223.875 -0.387387 -3.78523 0
M  V30 2272 H 223.387 -2.13008 -3.24421 0
M  V30 2273 H 221.488 0.290383 -3.71467 0
M  V30 2274 H 221.601 -1.37911 -4.58822 0
M  V30 2275 H 219.965 -0.639971 -2.46529 0
M  V30 2276 H 220.748 -2.30972 -2.53982 0
M  V30 2277 N 223.193 1.4272 -0.668489 0
M  V30 2278 C 224.442 2.00846 -0.185389 0
M  V30 2279 C 224.755 1.53442 1.21305 0
M  V30 2280 O 225.961 2.03944 1.79218 0
M  V30 2281 C 224.417 3.58805 -0.280591 0
M  V30 2282 C 224.025 4.15198 -1.68268 0
M  V30 2283 C 225.769 4.24255 0.14412 0
M  V30 2284 C 223.676 5.655 -1.73099 0
M  V30 2285 H 222.606 0.751145 -0.0655475 0
M  V30 2286 H 225.257 1.63516 -0.832752 0
M  V30 2287 H 223.639 3.93608 0.434553 0
M  V30 2288 H 224.813 3.91866 -2.42441 0
M  V30 2289 H 223.128 3.62176 -2.05469 0
M  V30 2290 H 225.725 5.34547 0.128086 0
M  V30 2291 H 226.068 3.99277 1.17827 0
M  V30 2292 H 226.601 3.94389 -0.519798 0
M  V30 2293 H 223.34 5.95268 -2.74475 0
M  V30 2294 H 222.86 5.90842 -1.03274 0
M  V30 2295 H 224.539 6.29808 -1.48158 0
M  V30 2296 N 224.671 0.411399 1.52136 0
M  V30 2297 C 225.619 -0.427633 2.28635 0
M  V30 2298 C 226.613 -1.04383 1.33419 0
M  V30 2299 O 227.819 -0.981772 1.50868 0
M  V30 2300 H 224.194 -0.156689 0.735495 0
M  V30 2301 H 226.165 0.238761 2.97443 0
M  V30 2302 C 224.914 -1.53082 3.12188 0
M  V30 2303 H 224.237 -1.06601 3.85326 0
M  V30 2304 H 225.677 -2.09167 3.68816 0
M  V30 2305 C 224.136 -2.49946 2.25895 0
M  V30 2306 O 224.666 -3.53884 1.90076 0
M  V30 2307 N 222.872 -2.2021 1.8962 0
M  V30 2308 H 222.419 -1.35719 2.18948 0
M  V30 2309 H 222.377 -2.85266 1.32176 0
M  V30 2310 N 226.149 -1.5696 0.141893 0
M  V30 2311 C 227.56 -1.82797 -0.379776 0
M  V30 2312 C 227.911 -1.06033 -1.6508 0
M  V30 2313 O 227.036 -0.304011 -2.14254 0
M  V30 2314 C 227.631 -3.31578 -0.695802 0
M  V30 2315 C 226.19 -3.58014 -1.16201 0
M  V30 2316 C 225.337 -2.76699 -0.182455 0
M  V30 2317 H 228.288 -1.54406 0.366675 0
M  V30 2318 H 228.309 -3.47454 -1.55099 0
M  V30 2319 H 227.821 -3.87421 0.229449 0
M  V30 2320 H 225.922 -3.07553 -2.10338 0
M  V30 2321 H 226.035 -4.66501 -1.09151 0
M  V30 2322 H 224.399 -2.45618 -0.674072 0
M  V30 2323 H 225.182 -3.35311 0.736297 0
M  V30 2324 N 227.627 0.131896 -1.57047 0
M  V30 2325 C 228.577 1.1679 -1.95816 0
M  V30 2326 C 229.561 1.37756 -0.831393 0
M  V30 2327 O 230.753 1.39065 -1.09499 0
M  V30 2328 C 227.882 2.49778 -2.35512 0
M  V30 2329 C 226.968 2.32342 -3.54793 0
M  V30 2330 N 227.359 1.8469 -4.70875 0
M  V30 2331 C 225.657 2.63043 -3.60173 0
M  V30 2332 C 226.358 1.80656 -5.52936 0
M  V30 2333 N 225.334 2.24528 -4.95064 0
M  V30 2334 H 229.136 0.791818 -2.83033 0
M  V30 2335 H 226.65 0.339791 -1.58805 0
M  V30 2336 H 228.647 3.24692 -2.61498 0
M  V30 2337 H 227.307 2.88156 -1.49654 0
M  V30 2338 H 228.318 1.54429 -4.9434 0
M  V30 2339 H 224.995 3.05193 -2.84892 0
M  V30 2340 H 226.385 1.45178 -6.56028 0
M  V30 2341 N 229.106 1.52395 0.401703 0
M  V30 2342 C 230.331 1.70972 1.17403 0
M  V30 2343 C 230.756 0.421615 1.83314 0
M  V30 2344 O 230.114 -0.621564 1.70312 0
M  V30 2345 C 230.162 2.85151 2.20728 0
M  V30 2346 O 229.266 2.51238 3.27037 0
M  V30 2347 H 228.607 0.568927 0.342372 0
M  V30 2348 H 231.137 1.99131 0.469891 0
M  V30 2349 H 231.147 3.10279 2.64936 0
M  V30 2350 H 229.822 3.78603 1.7214 0
M  V30 2351 H 228.399 2.36808 2.88057 0
M  V30 2352 N 230.584 -0.659388 1.43143 0
M  V30 2353 C 232 -0.974337 1.26407 0
M  V30 2354 C 232.2 -2.007 0.179341 0
M  V30 2355 O 231.256 -2.4856 -0.444295 0
M  V30 2356 C 232.569 -1.46447 2.62628 0
M  V30 2357 C 234.117 -1.58144 2.7011 0
M  V30 2358 C 234.592 -2.1055 4.06734 0
M  V30 2359 N 236.083 -2.17861 4.08767 0
M  V30 2360 C 236.818 -2.59519 5.1131 0
M  V30 2361 N 236.314 -3.00518 6.24228 0
M  V30 2362 N 238.107 -2.59404 4.98664 0
M  V30 2363 H 230.258 0.0240528 2.12386 0
M  V30 2364 H 232.521 -0.0518065 0.946583 0
M  V30 2365 H 232.227 -0.780123 3.42939 0
M  V30 2366 H 232.101 -2.44058 2.87603 0
M  V30 2367 H 234.488 -2.25682 1.90136 0
M  V30 2368 H 234.569 -0.589828 2.48907 0
M  V30 2369 H 234.213 -1.43616 4.87172 0
M  V30 2370 H 234.143 -3.10531 4.25298 0
M  V30 2371 H 236.634 -1.88975 3.27257 0
M  V30 2372 H 236.947 -3.31036 6.98309 0
M  V30 2373 H 235.292 -2.98337 6.2771 0
M  V30 2374 H 238.483 -2.26747 4.09516 0
M  V30 2375 H 238.656 -2.91548 5.78709 0
M  V30 2376 N 232.062 -1.29571 -0.897171 0
M  V30 2377 C 233.311 -1.1706 -1.64256 0
M  V30 2378 C 233.624 0.276476 -1.93636 0
M  V30 2379 O 234.83 0.52294 -2.66416 0
M  V30 2380 C 233.286 -2.0475 -2.95982 0
M  V30 2381 C 232.894 -3.54295 -2.74187 0
M  V30 2382 C 234.638 -2.0097 -3.73914 0
M  V30 2383 C 232.545 -4.34081 -4.01656 0
M  V30 2384 H 231.475 -0.43452 -0.616205 0
M  V30 2385 H 234.126 -1.54229 -0.994268 0
M  V30 2386 H 232.508 -1.60452 -3.62038 0
M  V30 2387 H 233.682 -4.06662 -2.1671 0
M  V30 2388 H 231.997 -3.59773 -2.09648 0
M  V30 2389 H 234.594 -2.57838 -4.68427 0
M  V30 2390 H 234.937 -0.990273 -4.0435 0
M  V30 2391 H 235.47 -2.43325 -3.14703 0
M  V30 2392 H 232.209 -5.36671 -3.76384 0
M  V30 2393 H 231.729 -3.86483 -4.58684 0
M  V30 2394 H 233.408 -4.44877 -4.69781 0
M  V30 2395 N 233.54 1.10788 -1.12088 0
M  V30 2396 C 234.77 1.86191 -0.895351 0
M  V30 2397 C 235.178 1.80763 0.558702 0
M  V30 2398 O 234.521 1.19188 1.39785 0
M  V30 2399 C 234.583 3.35659 -1.28737 0
M  V30 2400 C 234.247 3.64849 -2.75198 0
M  V30 2401 C 235.244 3.61757 -3.734 0
M  V30 2402 C 232.929 3.93641 -3.12013 0
M  V30 2403 C 234.923 3.87045 -5.06434 0
M  V30 2404 C 232.61 4.18585 -4.4523 0
M  V30 2405 C 233.608 4.15277 -5.42249 0
M  V30 2406 O 233.296 4.3959 -6.73065 0
M  V30 2407 H 233.028 0.595425 -0.32007 0
M  V30 2408 H 235.582 1.40992 -1.49367 0
M  V30 2409 H 233.812 3.81497 -0.63224 0
M  V30 2410 H 235.501 3.92441 -1.03656 0
M  V30 2411 H 236.267 3.39557 -3.46303 0
M  V30 2412 H 232.146 3.95348 -2.37109 0
M  V30 2413 H 235.69 3.84378 -5.82151 0
M  V30 2414 H 231.587 4.40264 -4.72057 0
M  V30 2415 H 232.355 4.57123 -6.78956 0
M  V30 2416 N 235.018 0.912232 1.28515 0
M  V30 2417 C 236.429 0.591352 1.77087 0
M  V30 2418 C 236.78 -0.8933 1.74684 0
M  V30 2419 O 235.905 -1.69876 1.34056 0
M  V30 2420 C 236.5 1.06668 3.2157 0
M  V30 2421 C 235.059 0.79675 3.67871 0
M  V30 2422 C 234.206 1.23427 2.48316 0
M  V30 2423 H 237.157 1.09365 1.15 0
M  V30 2424 H 237.178 0.407455 3.78312 0
M  V30 2425 H 236.69 2.14726 3.23287 0
M  V30 2426 H 234.791 -0.270679 3.71616 0
M  V30 2427 H 234.904 1.40343 4.58084 0
M  V30 2428 H 233.268 0.653036 2.46186 0
M  V30 2429 H 234.051 2.32316 2.52753 0
M  V30 2430 N 236.496 -1.42363 0.676048 0
M  V30 2431 C 237.406 -2.346 -0.00153389 0
M  V30 2432 C 238.422 -1.5516 -0.787485 0
M  V30 2433 O 239.598 -1.87723 -0.729521 0
M  V30 2434 C 236.663 -3.33705 -0.940298 0
M  V30 2435 C 235.724 -4.29042 -0.148739 0
M  V30 2436 C 234.957 -5.23413 -1.04279 0
M  V30 2437 O 235.18 -5.22749 -2.28232 0
M  V30 2438 O 234.114 -5.99795 -0.502925 0
M  V30 2439 H 237.94 -2.94082 0.758268 0
M  V30 2440 H 235.525 -1.42888 0.436289 0
M  V30 2441 H 237.407 -3.94586 -1.47917 0
M  V30 2442 H 236.082 -2.76695 -1.67993 0
M  V30 2443 H 234.989 -3.71571 0.43427 0
M  V30 2444 H 236.322 -4.89097 0.551805 0
M  V30 2445 N 237.974 -0.419461 -1.51915 0
M  V30 2446 C 238.884 0.407528 -2.31033 0
M  V30 2447 C 239.9 1.04413 -1.3919 0
M  V30 2448 O 241.076 1.0434 -1.72265 0
M  V30 2449 C 238.141 1.50365 -3.12396 0
M  V30 2450 C 237.202 0.889029 -4.19994 0
M  V30 2451 C 236.435 1.93291 -4.97468 0
M  V30 2452 O 236.658 3.15259 -4.75361 0
M  V30 2453 O 235.592 1.53339 -5.8204 0
M  V30 2454 H 239.418 -0.237865 -3.02767 0
M  V30 2455 H 237.003 -0.182413 -1.48282 0
M  V30 2456 H 238.885 2.13975 -3.63032 0
M  V30 2457 H 237.56 2.13345 -2.43445 0
M  V30 2458 H 236.467 0.215353 -3.7348 0
M  V30 2459 H 237.8 0.302991 -4.91267 0
M  V30 2460 N 239.452 1.56882 -0.150215 0
M  V30 2461 C 240.385 2.12712 0.826358 0
M  V30 2462 C 241.363 1.05154 1.24022 0
M  V30 2463 O 242.547 1.33004 1.33575 0
M  V30 2464 C 239.674 2.64945 2.11002 0
M  V30 2465 C 238.72 3.8468 1.84183 0
M  V30 2466 S 239.553 5.25502 1.02995 0
M  V30 2467 C 240.709 5.81125 2.32474 0
M  V30 2468 H 240.942 2.95214 0.351598 0
M  V30 2469 H 238.475 1.54267 0.0641211 0
M  V30 2470 H 240.433 2.95689 2.84742 0
M  V30 2471 H 239.094 1.82568 2.55593 0
M  V30 2472 H 238.287 4.19482 2.79375 0
M  V30 2473 H 237.889 3.54714 1.1855 0
M  V30 2474 H 240.181 5.92753 3.281 0
M  V30 2475 H 241.124 6.78625 2.02171 0
M  V30 2476 H 241.532 5.09392 2.43269 0
M  V30 2477 N 240.93 -0.123565 1.57115 0
M  V30 2478 C 242.179 -0.830704 1.83799 0
M  V30 2479 C 242.492 -1.81259 0.735158 0
M  V30 2480 O 243.698 -2.56558 0.888278 0
M  V30 2481 C 242.154 -1.52802 3.25852 0
M  V30 2482 C 241.762 -0.587356 4.44133 0
M  V30 2483 C 243.506 -2.22056 3.61789 0
M  V30 2484 C 241.413 -1.28764 5.77212 0
M  V30 2485 H 240.343 -0.313967 0.685522 0
M  V30 2486 H 242.994 -0.0834359 1.8331 0
M  V30 2487 H 241.376 -2.32175 3.20797 0
M  V30 2488 H 242.55 0.172829 4.60476 0
M  V30 2489 H 240.865 -0.00201892 4.164 0
M  V30 2490 H 243.462 -2.75131 4.58483 0
M  V30 2491 H 243.805 -2.99644 2.88997 0
M  V30 2492 H 244.338 -1.49576 3.68608 0
M  V30 2493 H 241.077 -0.55314 6.53162 0
M  V30 2494 H 240.597 -2.01995 5.64764 0
M  V30 2495 H 242.276 -1.8221 6.20813 0
M  V30 2496 N 242.408 -1.52605 -0.393616 0
M  V30 2497 C 243.34 -1.73303 -1.49995 0
M  V30 2498 C 244.353 -0.613473 -1.50799 0
M  V30 2499 O 245.542 -0.889049 -1.54784 0
M  V30 2500 C 242.642 -1.77245 -2.88855 0
M  V30 2501 C 241.815 -3.06483 -3.12069 0
M  V30 2502 C 240.874 -3.02033 -4.30886 0
M  V30 2503 O 239.9 -3.75907 -4.27414 0
M  V30 2504 N 241.102 -2.20897 -5.36828 0
M  V30 2505 H 243.867 -2.68756 -1.32629 0
M  V30 2506 H 241.428 -1.51036 -0.583083 0
M  V30 2507 H 243.42 -1.7178 -3.66434 0
M  V30 2508 H 241.99 -0.891993 -2.99603 0
M  V30 2509 H 241.21 -3.25474 -2.22396 0
M  V30 2510 H 242.498 -3.91947 -3.2443 0
M  V30 2511 H 241.896 -1.60336 -5.42502 0
M  V30 2512 H 240.453 -2.21275 -6.13091 0
M  V30 2513 N 243.887 0.651787 -1.4349 0
M  V30 2514 C 245.115 1.43937 -1.48626 0
M  V30 2515 C 245.53 1.8851 -0.104587 0
M  V30 2516 O 244.887 1.5958 0.885464 0
M  V30 2517 C 244.938 2.6734 -2.43334 0
M  V30 2518 O 244.659 2.24631 -3.76128 0
M  V30 2519 C 246.16 3.60683 -2.57726 0
M  V30 2520 H 243.38 0.44213 -0.504739 0
M  V30 2521 H 245.924 0.798944 -1.88248 0
M  V30 2522 H 244.079 3.2752 -2.06904 0
M  V30 2523 H 244.493 3.04485 -4.2707 0
M  V30 2524 H 245.967 4.43933 -3.28067 0
M  V30 2525 H 246.444 4.08126 -1.62265 0
M  V30 2526 H 247.05 3.06384 -2.94973 0
M  V30 2527 N 245.365 1.30045 0.890287 0
M  V30 2528 C 246.613 1.18327 1.63839 0
M  V30 2529 C 246.934 -0.263455 1.93212 0
M  V30 2530 O 246.204 -1.17856 1.56482 0
M  V30 2531 H 244.784 0.434933 0.607324 0
M  V30 2532 H 247.446 1.631 1.06698 0
M  V30 2533 H 246.542 1.74024 2.59079 0
M  V30 2534 N 246.843 -1.10192 1.12674 0
M  V30 2535 C 248.092 -1.81573 0.8783 0
M  V30 2536 C 248.405 -1.86249 -0.597557 0
M  V30 2537 O 249.611 -2.5386 -0.962681 0
M  V30 2538 C 248.067 -3.26149 1.52167 0
M  V30 2539 C 247.675 -3.29763 3.03249 0
M  V30 2540 C 249.419 -4.0234 1.3536 0
M  V30 2541 C 247.326 -4.68815 3.60508 0
M  V30 2542 H 246.256 -0.680394 0.324931 0
M  V30 2543 H 248.907 -1.23902 1.35353 0
M  V30 2544 H 247.289 -3.83832 0.974104 0
M  V30 2545 H 248.463 -2.8189 3.6452 0
M  V30 2546 H 246.778 -2.67059 3.19481 0
M  V30 2547 H 249.375 -5.05058 1.75559 0
M  V30 2548 H 249.718 -4.15235 0.297554 0
M  V30 2549 H 250.251 -3.51079 1.87052 0
M  V30 2550 H 246.99 -4.61121 4.65884 0
M  V30 2551 H 246.51 -5.17045 3.04014 0
M  V30 2552 H 248.189 -5.37785 3.59717 0
M  V30 2553 N 248.321 -0.919034 -1.28029 0
M  V30 2554 C 249.546 -0.570357 -1.99403 0
M  V30 2555 C 249.971 0.842486 -1.68178 0
M  V30 2556 O 249.329 1.56391 -0.917141 0
M  V30 2557 C 249.377 -0.792541 -3.51783 0
M  V30 2558 O 248.481 0.145988 -4.12142 0
M  V30 2559 H 247.822 -0.220555 -0.6263 0
M  V30 2560 H 250.352 -1.23592 -1.63053 0
M  V30 2561 H 250.362 -0.704708 -4.01868 0
M  V30 2562 H 249.037 -1.82247 -3.73844 0
M  V30 2563 H 247.614 0.00897528 -3.72899 0
M  V30 2564 N 249.799 1.42003 -0.683588 0
M  V30 2565 C 251.21 1.84501 -0.285736 0
M  V30 2566 C 251.561 1.57213 1.17382 0
M  V30 2567 O 250.686 1.03642 1.89966 0
M  V30 2568 C 251.281 3.34912 -0.511821 0
M  V30 2569 C 249.84 3.76025 -0.168005 0
M  V30 2570 C 248.987 2.6551 -0.799983 0
M  V30 2571 H 251.938 1.31724 -0.885119 0
M  V30 2572 H 251.959 3.79784 0.233292 0
M  V30 2573 H 251.471 3.54741 -1.57418 0
M  V30 2574 H 249.572 3.61801 0.890567 0
M  V30 2575 H 249.685 4.75141 -0.614661 0
M  V30 2576 H 248.049 2.53654 -0.230568 0
M  V30 2577 H 248.832 2.8816 -1.86597 0
M  V30 2578 N 251.277 0.427512 1.51691 0
M  V30 2579 C 252.526 -0.143679 2.01188 0
M  V30 2580 C 252.839 -1.44642 1.31674 0
M  V30 2581 O 254.045 -2.09997 1.72086 0
M  V30 2582 C 252.501 -0.306602 3.58592 0
M  V30 2583 C 252.109 0.985125 4.37035 0
M  V30 2584 C 253.853 -0.832091 4.16265 0
M  V30 2585 C 251.76 0.788382 5.86122 0
M  V30 2586 H 250.69 -0.0574701 0.751807 0
M  V30 2587 H 253.341 0.555772 1.74881 0
M  V30 2588 H 251.723 -1.06882 3.81303 0
M  V30 2589 H 252.897 1.75492 4.26074 0
M  V30 2590 H 251.212 1.4384 3.90767 0
M  V30 2591 H 253.809 -0.995617 5.25349 0
M  V30 2592 H 254.152 -1.81186 3.74803 0
M  V30 2593 H 254.685 -0.128444 3.97593 0
M  V30 2594 H 251.424 1.74025 6.31978 0
M  V30 2595 H 250.944 0.0582143 5.99772 0
M  V30 2596 H 252.623 0.437722 6.45518 0
M  V30 2597 N 252.755 -1.56801 0.158532 0
M  V30 2598 C 254.032 -1.88131 -0.535357 0
M  V30 2599 C 254.412 -1.06638 -1.82186 0
M  V30 2600 O 253.76 -0.156533 -2.27963 0
M  V30 2601 C 253.97 -3.39949 -0.789653 0
M  V30 2602 C 255.318 -4.09416 -1.12533 0
M  V30 2603 O 256.342 -3.45194 -0.878622 0
M  V30 2604 O 255.201 -5.22855 -1.59014 0
M  V30 2605 H 252.295 -0.780143 -0.27442 0
M  V30 2606 H 254.841 -1.68564 0.19601 0
M  V30 2607 H 253.613 -3.91115 0.120353 0
M  V30 2608 H 253.236 -3.65084 -1.57479 0
M  V30 2609 N 254.233 0.115231 -1.57178 0
M  V30 2610 C 255.479 0.82357 -1.85325 0
M  V30 2611 C 255.812 1.79349 -0.744814 0
M  V30 2612 O 255.087 1.92899 0.249024 0
M  V30 2613 C 255.37 1.57014 -3.24066 0
M  V30 2614 C 255.223 0.619565 -4.45513 0
M  V30 2615 C 256.542 2.52545 -3.60429 0
M  V30 2616 H 253.661 0.297948 -0.674089 0
M  V30 2617 H 256.303 0.0877138 -1.89797 0
M  V30 2618 H 254.453 2.19742 -3.20383 0
M  V30 2619 H 256.125 0.000837639 -4.613 0
M  V30 2620 H 254.368 -0.0686174 -4.33746 0
M  V30 2621 H 255.039 1.17866 -5.3927 0
M  V30 2622 H 257.515 1.9992 -3.64926 0
M  V30 2623 H 256.391 3.01811 -4.58477 0
M  V30 2624 H 256.652 3.35383 -2.88047 0
M  V30 2625 N 255.711 1.52812 0.385517 0
M  V30 2626 C 256.644 1.72592 1.49289 0
M  V30 2627 C 257.622 0.573819 1.52138 0
M  V30 2628 O 258.806 0.80404 1.70492 0
M  V30 2629 C 255.933 1.78669 2.87741 0
M  V30 2630 C 254.979 3.00455 3.02703 0
M  V30 2631 S 255.812 4.60366 2.73538 0
M  V30 2632 C 256.968 4.69263 4.14177 0
M  V30 2633 H 257.201 2.66248 1.32285 0
M  V30 2634 H 254.734 1.43148 0.578611 0
M  V30 2635 H 256.692 1.82855 3.67524 0
M  V30 2636 H 255.353 0.861 3.02069 0
M  V30 2637 H 254.546 3.01258 4.04054 0
M  V30 2638 H 254.148 2.94278 2.30817 0
M  V30 2639 H 256.44 4.48092 5.08153 0
M  V30 2640 H 257.383 5.71276 4.18388 0
M  V30 2641 H 257.791 3.98072 4.00249 0
M  V30 2642 N 257.189 -0.644168 1.43834 0
M  V30 2643 C 258.137 -1.77793 1.49974 0
M  V30 2644 C 259.131 -1.65253 0.372536 0
M  V30 2645 O 260.337 -1.7149 0.546924 0
M  V30 2646 H 256.712 -0.58675 0.47035 0
M  V30 2647 H 258.683 -1.69736 2.45423 0
M  V30 2648 C 257.432 -3.16087 1.4486 0
M  V30 2649 H 256.755 -3.26378 2.30905 0
M  V30 2650 H 258.195 -3.95349 1.53217 0
M  V30 2651 C 256.654 -3.36484 0.167463 0
M  V30 2652 O 257.184 -3.94298 -0.767609 0
M  V30 2653 N 255.39 -2.90504 0.0747556 0
M  V30 2654 H 254.937 -2.4364 0.836507 0
M  V30 2655 H 254.895 -3.04527 -0.781714 0
M  V30 2656 N 258.668 -1.30515 -0.883378 0
M  V30 2657 C 259.893 -1.22487 -1.67367 0
M  V30 2658 C 260.318 0.208767 -1.86938 0
M  V30 2659 O 259.676 1.15015 -1.40148 0
M  V30 2660 C 259.724 -1.96041 -3.02655 0
M  V30 2661 O 258.828 -1.28859 -3.91751 0
M  V30 2662 H 258.169 -0.423573 -0.511353 0
M  V30 2663 H 260.699 -1.72362 -1.10239 0
M  V30 2664 H 260.709 -2.05124 -3.52687 0
M  V30 2665 H 259.384 -3.00307 -2.8773 0
M  V30 2666 H 257.961 -1.28141 -3.50192 0
M  V30 2667 N 260.146 1.09593 -1.13257 0
M  V30 2668 C 261.395 1.81105 -0.887917 0
M  V30 2669 C 261.708 1.86563 0.587672 0
M  V30 2670 O 262.914 2.54367 0.949204 0
M  V30 2671 C 261.37 3.25338 -1.53895 0
M  V30 2672 C 260.978 3.28151 -3.04994 0
M  V30 2673 C 262.722 4.01617 -1.37492 0
M  V30 2674 C 260.629 4.66897 -3.6299 0
M  V30 2675 H 259.559 0.678661 -0.328534 0
M  V30 2676 H 262.21 1.23183 -1.36008 0
M  V30 2677 H 260.592 3.8331 -0.994446 0
M  V30 2678 H 261.766 2.79953 -3.66009 0
M  V30 2679 H 260.081 2.65361 -3.20893 0
M  V30 2680 H 262.678 5.04119 -1.78235 0
M  V30 2681 H 263.021 4.15072 -0.31957 0
M  V30 2682 H 263.554 3.50082 -1.88912 0
M  V30 2683 H 260.293 4.58643 -4.68323 0
M  V30 2684 H 259.813 5.15426 -3.06752 0
M  V30 2685 H 261.492 5.3587 -3.62563 0
M  V30 2686 N 261.624 0.925811 1.2754 0
M  V30 2687 C 262.587 0.428129 2.25166 0
M  V30 2688 C 263.587 -0.452261 1.54309 0
M  V30 2689 O 264.777 -0.253608 1.72344 0
M  V30 2690 C 261.909 -0.384749 3.38722 0
M  V30 2691 H 263.102 1.29066 2.70706 0
M  V30 2692 H 260.655 0.706323 1.3943 0
M  V30 2693 H 261.39 -1.26618 2.98561 0
M  V30 2694 H 261.175 0.246454 3.91325 0
M  V30 2695 H 262.665 -0.723389 4.11287 0
M  V30 2696 N 263.102 -1.41638 0.69111 0
M  V30 2697 C 264.518 -1.55435 0.362224 0
M  V30 2698 C 264.718 -1.66754 -1.13117 0
M  V30 2699 O 263.774 -1.64348 -1.91692 0
M  V30 2700 C 265.087 -2.79588 1.10684 0
M  V30 2701 C 266.635 -2.9338 1.09075 0
M  V30 2702 C 267.11 -4.20414 1.81703 0
M  V30 2703 N 268.601 -4.27362 1.7865 0
M  V30 2704 C 269.336 -5.24507 2.31689 0
M  V30 2705 N 268.832 -6.27708 2.93179 0
M  V30 2706 N 270.625 -5.16416 2.2197 0
M  V30 2707 H 262.776 -1.32536 1.65976 0
M  V30 2708 H 265.039 -0.639115 0.700168 0
M  V30 2709 H 264.745 -2.77419 2.16175 0
M  V30 2710 H 264.619 -3.70973 0.682545 0
M  V30 2711 H 267.006 -2.95067 0.0441238 0
M  V30 2712 H 267.087 -2.0318 1.55407 0
M  V30 2713 H 266.731 -4.19488 2.86343 0
M  V30 2714 H 266.661 -5.09578 1.32808 0
M  V30 2715 H 269.152 -3.53415 1.33815 0
M  V30 2716 H 269.465 -6.98217 3.31229 0
M  V30 2717 H 267.81 -6.28223 2.97255 0
M  V30 2718 H 271.001 -4.34716 1.73607 0
M  V30 2719 H 271.174 -5.91958 2.63609 0
M  V30 2720 N 264.58 -0.43555 -1.51462 0
M  V30 2721 C 265.828 0.131254 -2.01673 0
M  V30 2722 C 266.149 1.43368 -1.32177 0
M  V30 2723 O 265.419 1.90524 -0.455769 0
M  V30 2724 H 263.999 0.0514954 -0.745223 0
M  V30 2725 H 266.661 -0.577847 -1.86137 0
M  V30 2726 H 265.757 0.308446 -3.10572 0
M  V30 2727 N 266.058 1.56714 -0.166846 0
M  V30 2728 C 266.99 2.14914 0.796537 0
M  V30 2729 C 268.003 1.10357 1.19688 0
M  V30 2730 O 269.192 1.37561 1.13751 0
M  V30 2731 C 266.292 2.67326 2.08303 0
M  V30 2732 C 265.465 3.96493 1.84696 0
M  V30 2733 C 264.524 4.34014 2.97521 0
M  V30 2734 O 263.55 5.01973 2.6835 0
M  V30 2735 N 264.752 3.95208 4.25196 0
M  V30 2736 H 267.517 2.98205 0.299006 0
M  V30 2737 H 265.078 1.61892 0.0160839 0
M  V30 2738 H 267.07 2.89428 2.82867 0
M  V30 2739 H 265.64 1.88649 2.4926 0
M  V30 2740 H 264.86 3.82814 0.940602 0
M  V30 2741 H 266.148 4.8086 1.66285 0
M  V30 2742 H 265.546 3.40487 4.51758 0
M  V30 2743 H 264.103 4.2232 4.96477 0
M  V30 2744 N 267.536 -0.106894 1.57237 0
M  V30 2745 C 268.483 -1.13049 2.01217 0
M  V30 2746 C 269.453 -1.40471 0.886403 0
M  V30 2747 O 270.638 -1.52133 1.15153 0
M  V30 2748 C 267.778 -2.4487 2.43172 0
M  V30 2749 C 266.891 -2.24281 3.69218 0
M  V30 2750 C 266.026 -3.49417 4.00101 0
M  V30 2751 C 265.065 -3.24038 5.19294 0
M  V30 2752 N 264.202 -4.41409 5.45988 0
M  V30 2753 H 269.042 -0.748456 2.88448 0
M  V30 2754 H 266.579 -0.358054 1.42676 0
M  V30 2755 H 268.537 -3.21786 2.65537 0
M  V30 2756 H 267.167 -2.80944 1.58967 0
M  V30 2757 H 266.219 -1.38224 3.54398 0
M  V30 2758 H 267.531 -2.01512 4.56283 0
M  V30 2759 H 266.685 -4.34746 4.2318 0
M  V30 2760 H 265.424 -3.75229 3.11535 0
M  V30 2761 H 264.429 -2.37102 4.96047 0
M  V30 2762 H 265.654 -2.99584 6.09447 0
M  V30 2763 H 263.6 -4.67319 4.60379 0
M  V30 2764 H 263.517 -4.21788 6.274 0
M  V30 2765 H 264.785 -5.27836 5.73593 0
M  V30 2766 N 269.014 -1.53014 -0.377408 0
M  V30 2767 C 270.263 -1.67845 -1.11853 0
M  V30 2768 C 270.576 -0.430625 -1.90801 0
M  V30 2769 O 271.782 -0.459261 -2.67587 0
M  V30 2770 C 270.238 -2.96668 -2.03756 0
M  V30 2771 C 269.846 -4.28671 -1.30175 0
M  V30 2772 C 271.59 -3.20865 -2.77932 0
M  V30 2773 C 269.497 -5.48591 -2.20911 0
M  V30 2774 H 268.427 -0.625343 -0.421263 0
M  V30 2775 H 271.078 -1.79514 -0.380409 0
M  V30 2776 H 269.46 -2.78773 -2.8125 0
M  V30 2777 H 270.634 -4.57157 -0.578259 0
M  V30 2778 H 268.949 -4.10825 -0.679108 0
M  V30 2779 H 271.546 -4.07642 -3.46024 0
M  V30 2780 H 271.889 -2.36424 -3.4265 0
M  V30 2781 H 272.422 -3.39379 -2.07525 0
M  V30 2782 H 269.161 -6.35474 -1.6079 0
M  V30 2783 H 268.681 -5.244 -2.91144 0
M  V30 2784 H 270.36 -5.8292 -2.80736 0
M  V30 2785 N 270.492 0.636531 -1.44174 0
M  V30 2786 C 271.903 1.21806 -1.41493 0
M  V30 2787 C 272.254 1.95785 -0.1275 0
M  V30 2788 O 271.379 2.02147 0.772376 0
M  V30 2789 C 271.974 2.21551 -2.56321 0
M  V30 2790 C 270.533 2.75143 -2.56853 0
M  V30 2791 C 269.68 1.50052 -2.33195 0
M  V30 2792 H 272.631 0.427531 -1.52833 0
M  V30 2793 H 272.652 3.0405 -2.28765 0
M  V30 2794 H 272.164 1.67679 -3.50008 0
M  V30 2795 H 270.265 3.33033 -1.67093 0
M  V30 2796 H 270.378 3.2155 -3.55165 0
M  V30 2797 H 268.742 1.77993 -1.82183 0
M  V30 2798 H 269.525 0.980903 -3.28988 0
M  V30 2799 N 271.97 1.30982 0.876444 0
M  V30 2800 C 273.219 1.19658 1.62373 0
M  V30 2801 C 273.532 -0.245636 1.94052 0
M  V30 2802 O 274.738 -0.48049 2.67214 0
M  V30 2803 C 273.194 2.09433 2.92687 0
M  V30 2804 C 272.802 3.58613 2.68516 0
M  V30 2805 C 274.546 2.06893 3.70669 0
M  V30 2806 C 272.453 4.40416 3.94699 0
M  V30 2807 H 271.383 0.444268 0.609214 0
M  V30 2808 H 274.034 1.55791 0.969605 0
M  V30 2809 H 272.416 1.66191 3.59439 0
M  V30 2810 H 273.59 4.10058 2.10212 0
M  V30 2811 H 271.905 3.63063 2.03898 0
M  V30 2812 H 274.502 2.65258 4.64265 0
M  V30 2813 H 274.845 1.05448 4.02724 0
M  V30 2814 H 275.378 2.48301 3.10792 0
M  V30 2815 H 272.117 5.42591 3.67798 0
M  V30 2816 H 271.637 3.93731 4.52477 0
M  V30 2817 H 273.316 4.52294 4.62644 0
M  V30 2818 N 273.449 -1.08991 1.13837 0
M  V30 2819 C 274.696 -1.81258 0.902882 0
M  V30 2820 C 275.024 -1.85936 -0.570803 0
M  V30 2821 O 274.279 -1.3267 -1.43865 0
M  V30 2822 C 274.578 -3.27042 1.44147 0
M  V30 2823 C 274.244 -3.4249 2.93276 0
M  V30 2824 C 272.906 -3.46414 3.33992 0
M  V30 2825 C 275.258 -3.4666 3.892 0
M  V30 2826 C 272.586 -3.52091 4.69307 0
M  V30 2827 C 274.938 -3.53872 5.24364 0
M  V30 2828 C 273.602 -3.56066 5.646 0
M  V30 2829 H 272.872 -0.663268 0.330388 0
M  V30 2830 H 275.519 -1.28368 1.42105 0
M  V30 2831 H 273.824 -3.82599 0.844097 0
M  V30 2832 H 275.521 -3.81499 1.23528 0
M  V30 2833 H 272.111 -3.40124 2.60794 0
M  V30 2834 H 276.295 -3.42865 3.58828 0
M  V30 2835 H 271.551 -3.52079 4.9985 0
M  V30 2836 H 275.725 -3.56043 5.98503 0
M  V30 2837 H 273.352 -3.60218 6.69438 0
M  V30 2838 N 274.927 -0.932562 -1.27047 0
M  V30 2839 C 276.152 -0.591474 -1.98787 0
M  V30 2840 C 276.577 0.824601 -1.69062 0
M  V30 2841 O 275.935 1.5541 -0.933677 0
M  V30 2842 C 275.983 -0.829808 -3.50922 0
M  V30 2843 O 275.087 0.102266 -4.12273 0
M  V30 2844 H 274.428 -0.227185 -0.623926 0
M  V30 2845 H 276.958 -1.25314 -1.61733 0
M  V30 2846 H 276.968 -0.747292 -4.01098 0
M  V30 2847 H 275.643 -1.86201 -3.7189 0
M  V30 2848 H 274.22 -0.0305761 -3.72887 0
M  V30 2849 N 276.405 1.4127 -0.698611 0
M  V30 2850 C 277.368 2.29158 -0.044132 0
M  V30 2851 C 278.368 1.44529 0.704841 0
M  V30 2852 O 279.558 1.65643 0.539276 0
M  V30 2853 C 276.69 3.27459 0.947809 0
M  V30 2854 H 277.883 2.88529 -0.817994 0
M  V30 2855 H 275.436 1.49307 -0.46228 0
M  V30 2856 H 276.171 2.73073 1.74933 0
M  V30 2857 H 275.956 3.8991 0.41385 0
M  V30 2858 H 277.446 3.93311 1.40344 0
M  V30 2859 N 277.883 0.443576 1.51229 0
M  V30 2860 C 278.846 -0.353132 2.26463 0
M  V30 2861 C 279.846 -0.944338 1.3015 0
M  V30 2862 O 281.036 -0.817813 1.5381 0
M  V30 2863 C 278.168 -1.50023 3.06114 0
M  V30 2864 H 279.361 0.3063 2.98332 0
M  V30 2865 H 276.914 0.196902 1.55055 0
M  V30 2866 H 277.649 -2.19553 2.38677 0
M  V30 2867 H 277.434 -1.08241 3.76864 0
M  V30 2868 H 278.924 -2.06296 3.63087 0
M  V30 2869 N 279.361 -1.56624 0.175154 0
M  V30 2870 C 280.609 -1.96609 -0.467885 0
M  V30 2871 C 280.93 -1.06238 -1.63519 0
M  V30 2872 O 280.2 -0.129523 -1.95471 0
M  V30 2873 H 278.78 -0.726008 -0.175845 0
M  V30 2874 H 281.442 -1.93195 0.257234 0
M  V30 2875 H 280.538 -3.00989 -0.825342 0
M  V30 2876 N 280.839 0.0985539 -1.57292 0
M  V30 2877 C 281.769 1.12064 -2.04851 0
M  V30 2878 C 282.75 1.41981 -0.936767 0
M  V30 2879 O 283.935 1.52071 -1.20781 0
M  V30 2880 C 281.065 2.44144 -2.47004 0
M  V30 2881 C 280.019 2.28643 -3.6181 0
M  V30 2882 C 279.345 3.65869 -3.89929 0
M  V30 2883 C 280.645 1.72986 -4.92822 0
M  V30 2884 H 282.339 0.724979 -2.9049 0
M  V30 2885 H 279.885 0.34729 -1.39749 0
M  V30 2886 H 281.838 3.15914 -2.78884 0
M  V30 2887 H 280.562 2.85639 -1.5836 0
M  V30 2888 H 279.221 1.59318 -3.30172 0
M  V30 2889 H 278.869 4.04885 -2.98458 0
M  V30 2890 H 278.569 3.56344 -4.67218 0
M  V30 2891 H 280.093 4.39112 -4.2428 0
M  V30 2892 H 281.507 2.34593 -5.23105 0
M  V30 2893 H 279.904 1.74229 -5.74251 0
M  V30 2894 H 280.974 0.689007 -4.7998 0
M  V30 2895 N 282.317 1.53212 0.369288 0
M  V30 2896 C 283.728 1.60943 0.946276 0
M  V30 2897 C 284.079 0.47452 1.90375 0
M  V30 2898 O 283.204 -0.399597 2.12679 0
M  V30 2899 C 283.799 2.91715 1.72302 0
M  V30 2900 C 282.358 3.01792 2.24941 0
M  V30 2901 C 281.505 2.56211 1.06072 0
M  V30 2902 H 284.456 1.58007 0.148198 0
M  V30 2903 H 284.477 2.79309 2.58393 0
M  V30 2904 H 283.989 3.74295 1.0259 0
M  V30 2905 H 282.09 2.23791 2.97906 0
M  V30 2906 H 282.203 4.06803 2.53077 0
M  V30 2907 H 280.567 2.10998 1.4266 0
M  V30 2908 H 281.35 3.41206 0.378639 0
M  V30 2909 N 283.795 -0.628877 1.44509 0
M  V30 2910 C 284.745 -1.7345 1.47983 0
M  V30 2911 C 285.729 -1.5715 0.345373 0
M  V30 2912 O 286.921 -1.66848 0.590829 0
M  V30 2913 C 284.05 -3.12143 1.42904 0
M  V30 2914 C 283.136 -3.33906 2.61472 0
M  V30 2915 N 283.527 -3.26024 3.86706 0
M  V30 2916 C 281.825 -3.64709 2.56716 0
M  V30 2917 C 282.526 -3.48536 4.65722 0
M  V30 2918 N 281.502 -3.71517 3.96832 0
M  V30 2919 H 285.304 -1.65818 2.42655 0
M  V30 2920 H 282.818 -0.831419 1.39503 0
M  V30 2921 H 284.815 -3.91433 1.43476 0
M  V30 2922 H 283.475 -3.2094 0.492717 0
M  V30 2923 H 284.486 -3.04893 4.18641 0
M  V30 2924 H 281.163 -3.80473 1.71891 0
M  V30 2925 H 282.553 -3.48016 5.74747 0
M  V30 2926 N 285.273 -1.31445 -0.869486 0
M  V30 2927 C 286.221 -1.19067 -1.99814 0
M  V30 2928 C 287.215 -0.0988569 -1.69111 0
M  V30 2929 O 288.421 -0.260781 -1.78101 0
M  V30 2930 H 284.796 -0.368677 -0.655425 0
M  V30 2931 H 286.767 -2.14555 -2.07385 0
M  V30 2932 C 285.516 -0.915323 -3.35436 0
M  V30 2933 H 284.839 -1.74759 -3.59582 0
M  V30 2934 H 286.279 -0.868895 -4.15001 0
M  V30 2935 C 284.738 0.381928 -3.34728 0
M  V30 2936 O 285.268 1.39857 -3.76567 0
M  V30 2937 N 283.474 0.398633 -2.87853 0
M  V30 2938 H 283.021 -0.429186 -2.54 0
M  V30 2939 H 282.979 1.26651 -2.87762 0
M  V30 2940 N 286.751 1.08385 -1.14413 0
M  V30 2941 C 287.661 2.18856 -0.844951 0
M  V30 2942 C 288.677 1.73121 0.174668 0
M  V30 2943 O 289.853 2.014 0.00312857 0
M  V30 2944 C 286.918 3.45155 -0.32696 0
M  V30 2945 C 285.979 4.05513 -1.40916 0
M  V30 2946 C 285.212 5.25784 -0.915793 0
M  V30 2947 O 285.435 5.69884 0.242651 0
M  V30 2948 O 284.369 5.77545 -1.69487 0
M  V30 2949 H 288.195 2.46919 -1.76818 0
M  V30 2950 H 285.78 1.17524 -0.922411 0
M  V30 2951 H 287.662 4.21377 -0.0440211 0
M  V30 2952 H 286.337 3.18668 0.568539 0
M  V30 2953 H 285.244 3.30879 -1.74556 0
M  V30 2954 H 286.577 4.3625 -2.27919 0
M  V30 2955 N 288.23 0.939286 1.26551 0
M  V30 2956 C 289.479 0.581601 1.93133 0
M  V30 2957 C 289.792 -0.883224 1.74524 0
M  V30 2958 O 290.998 -1.3502 2.35546 0
M  V30 2959 C 289.454 0.989425 3.46032 0
M  V30 2960 C 289.062 2.47573 3.73379 0
M  V30 2961 C 290.806 0.703544 4.18629 0
M  V30 2962 C 288.713 2.82235 5.19709 0
M  V30 2963 H 287.643 0.213803 0.723052 0
M  V30 2964 H 290.294 1.14167 1.4366 0
M  V30 2965 H 288.676 0.357902 3.94379 0
M  V30 2966 H 289.85 3.15614 3.35744 0
M  V30 2967 H 288.165 2.73471 3.1401 0
M  V30 2968 H 290.762 0.938869 5.26393 0
M  V30 2969 H 291.105 -0.359639 4.14744 0
M  V30 2970 H 291.638 1.2947 3.76141 0
M  V30 2971 H 288.377 3.87509 5.28694 0
M  V30 2972 H 287.897 2.18854 5.58447 0
M  V30 2973 H 289.576 2.70599 5.87695 0
M  V30 2974 N 289.708 -1.40897 0.706093 0
M  V30 2975 C 290.671 -2.29131 0.0562841 0
M  V30 2976 C 291.671 -1.44901 -0.697166 0
M  V30 2977 O 292.861 -1.65926 -0.530484 0
M  V30 2978 C 289.993 -3.27957 -0.93043 0
M  V30 2979 H 291.186 -2.88091 0.833284 0
M  V30 2980 H 288.739 -1.4906 0.470192 0
M  V30 2981 H 289.474 -2.73997 -1.73482 0
M  V30 2982 H 289.259 -3.90124 -0.393166 0
M  V30 2983 H 290.749 -3.94049 -1.38256 0
M  V30 2984 N 291.186 -0.45159 -1.50991 0
M  V30 2985 C 292.149 0.341117 -2.26647 0
M  V30 2986 C 293.149 0.937422 -1.30649 0
M  V30 2987 O 294.339 0.809644 -1.54241 0
M  V30 2988 C 291.471 1.48398 -3.06905 0
M  V30 2989 H 292.664 -0.322117 -2.98165 0
M  V30 2990 H 290.217 -0.205122 -1.54948 0
M  V30 2991 H 290.952 2.18284 -2.39838 0
M  V30 2992 H 290.737 1.06241 -3.77432 0
M  V30 2993 H 292.227 2.04367 -3.64176 0
M  V30 2994 N 292.664 1.56529 -0.183458 0
M  V30 2995 C 293.596 2.15747 0.773697 0
M  V30 2996 C 294.609 1.1162 1.1851 0
M  V30 2997 O 295.798 1.3876 1.12285 0
M  V30 2998 C 292.898 2.6952 2.05456 0
M  V30 2999 C 292.071 3.98429 1.8048 0
M  V30 3000 C 291.13 4.37145 2.92901 0
M  V30 3001 O 290.156 5.04791 2.6301 0
M  V30 3002 N 291.358 3.99695 4.2098 0
M  V30 3003 H 294.123 2.98505 0.26736 0
M  V30 3004 H 291.684 1.619 -0.0010878 0
M  V30 3005 H 293.676 2.92412 2.79781 0
M  V30 3006 H 292.246 1.91282 2.47245 0
M  V30 3007 H 291.466 3.8379 0.899947 0
M  V30 3008 H 292.754 4.82597 1.61175 0
M  V30 3009 H 292.152 3.4526 4.48121 0
M  V30 3010 H 290.709 4.27562 4.9197 0
M  V30 3011 N 294.142 -0.090211 1.57342 0
M  V30 3012 C 295.391 -0.791531 1.8552 0
M  V30 3013 C 295.704 -1.79659 0.773441 0
M  V30 3014 O 296.91 -2.54616 0.942497 0
M  V30 3015 C 295.366 -1.45856 3.2902 0
M  V30 3016 C 294.974 -0.493017 4.45279 0
M  V30 3017 C 296.718 -2.14332 3.66418 0
M  V30 3018 C 294.625 -1.16491 5.79814 0
M  V30 3019 H 293.555 -0.299356 0.692027 0
M  V30 3020 H 296.206 -0.0445343 1.83446 0
M  V30 3021 H 294.588 -2.25318 3.2565 0
M  V30 3022 H 295.762 0.270464 4.60006 0
M  V30 3023 H 294.077 0.0863061 4.16311 0
M  V30 3024 H 296.674 -2.65344 4.64216 0
M  V30 3025 H 297.017 -2.93447 2.95287 0
M  V30 3026 H 297.55 -1.41724 3.71698 0
M  V30 3027 H 294.289 -0.41447 6.54188 0
M  V30 3028 H 293.809 -1.8997 5.68921 0
M  V30 3029 H 295.488 -1.69001 6.24538 0
M  V30 3030 N 295.62 -1.53406 -0.361157 0
M  V30 3031 C 296.86 -1.71507 -1.11197 0
M  V30 3032 C 297.224 -0.459337 -1.86425 0
M  V30 3033 O 298.425 -0.517102 -2.63779 0
M  V30 3034 C 296.696 -2.93307 -2.0422 0
M  V30 3035 S 298.255 -3.32135 -2.86761 0
M  V30 3036 H 295.073 -0.603448 -0.375995 0
M  V30 3037 H 297.675 -1.91516 -0.392642 0
M  V30 3038 H 296.379 -3.82891 -1.47724 0
M  V30 3039 H 295.91 -2.75712 -2.80618 0
M  V30 3040 H 297.925 -2.84493 -4.06544 0
M  V30 3041 N 297.098 0.621204 -1.44841 0
M  V30 3042 C 298.514 0.94048 -1.28946 0
M  V30 3043 C 298.714 2.00154 -0.23249 0
M  V30 3044 O 297.77 2.49651 0.378237 0
M  V30 3045 C 299.083 1.39433 -2.66419 0
M  V30 3046 C 300.631 1.50927 -2.74208 0
M  V30 3047 C 301.106 1.99692 -4.12174 0
M  V30 3048 N 302.597 2.06947 -4.144 0
M  V30 3049 C 303.332 2.45871 -5.1801 0
M  V30 3050 N 302.828 2.83862 -6.31977 0
M  V30 3051 N 304.621 2.46092 -5.05366 0
M  V30 3052 H 296.772 -0.0803548 -2.12248 0
M  V30 3053 H 299.035 0.0266913 -0.947624 0
M  V30 3054 H 298.741 0.688925 -3.44887 0
M  V30 3055 H 298.615 2.36347 -2.93973 0
M  V30 3056 H 301.002 2.20561 -1.96053 0
M  V30 3057 H 301.083 0.523627 -2.50383 0
M  V30 3058 H 300.727 1.30649 -4.90809 0
M  V30 3059 H 300.657 2.99146 -4.33381 0
M  V30 3060 H 303.148 1.80232 -3.32152 0
M  V30 3061 H 303.461 3.12405 -7.0684 0
M  V30 3062 H 301.806 2.8159 -6.35399 0
M  V30 3063 H 304.997 2.1581 -4.15384 0
M  V30 3064 H 305.17 2.76102 -5.86235 0
M  V30 3065 N 298.576 1.31904 0.862503 0
M  V30 3066 C 299.508 1.16005 1.97675 0
M  V30 3067 C 300.521 0.0971234 1.6251 0
M  V30 3068 O 301.71 0.345337 1.75128 0
M  V30 3069 C 298.81 0.751791 3.30456 0
M  V30 3070 C 297.983 1.90133 3.93914 0
M  V30 3071 C 297.042 1.4779 5.05019 0
M  V30 3072 O 296.068 2.18872 5.25437 0
M  V30 3073 N 297.27 0.369491 5.79323 0
M  V30 3074 H 300.035 2.11982 2.11857 0
M  V30 3075 H 297.596 1.24337 1.03691 0
M  V30 3076 H 299.588 0.451084 4.02178 0
M  V30 3077 H 298.158 -0.116593 3.12382 0
M  V30 3078 H 297.378 2.36896 3.15078 0
M  V30 3079 H 298.666 2.67111 4.33047 0
M  V30 3080 H 298.064 -0.222299 5.65263 0
M  V30 3081 H 296.621 0.128354 6.51674 0
M  V30 3082 N 300.054 -1.07777 1.14986 0
M  V30 3083 C 301.017 -2.13041 0.845358 0
M  V30 3084 C 302.017 -1.60071 -0.152931 0
M  V30 3085 O 303.207 -1.74033 0.0761879 0
M  V30 3086 C 300.339 -3.39896 0.261383 0
M  V30 3087 H 301.532 -2.41485 1.77834 0
M  V30 3088 H 299.085 -1.23595 0.956757 0
M  V30 3089 H 299.82 -3.17091 -0.68 0
M  V30 3090 H 299.605 -3.79642 0.980514 0
M  V30 3091 H 301.095 -4.17548 0.0657687 0
M  V30 3092 N 301.532 -0.945985 -1.26051 0
M  V30 3093 C 302.78 -0.594941 -1.93145 0
M  V30 3094 C 303.101 0.86953 -1.7454 0
M  V30 3095 O 302.371 1.61838 -1.10387 0
M  V30 3096 H 300.951 -0.217044 -0.714773 0
M  V30 3097 H 303.613 -1.20235 -1.53393 0
M  V30 3098 H 302.709 -0.816835 -3.01221 0
M  V30 3099 N 303.011 1.40521 -0.713556 0
M  V30 3100 C 303.941 2.33381 -0.0743864 0
M  V30 3101 C 304.922 1.52784 0.747735 0
M  V30 3102 O 306.107 1.81258 0.697071 0
M  V30 3103 C 303.237 3.36748 0.849598 0
M  V30 3104 C 302.191 4.27793 0.133247 0
M  V30 3105 C 301.517 5.21679 1.17281 0
M  V30 3106 C 302.817 5.12415 -1.01134 0
M  V30 3107 H 304.511 2.87081 -0.850007 0
M  V30 3108 H 302.057 1.38034 -0.410201 0
M  V30 3109 H 304.01 4.00648 1.30612 0
M  V30 3110 H 302.734 2.81439 1.65709 0
M  V30 3111 H 301.393 3.65342 -0.303426 0
M  V30 3112 H 301.041 4.62677 1.9733 0
M  V30 3113 H 300.741 5.83435 0.698397 0
M  V30 3114 H 302.265 5.88456 1.62947 0
M  V30 3115 H 303.679 5.69781 -0.634274 0
M  V30 3116 H 302.076 5.83203 -1.41399 0
M  V30 3117 H 303.146 4.48514 -1.84292 0
M  V30 3118 N 304.489 0.459591 1.5075 0
M  V30 3119 C 305.735 -0.0994966 2.02556 0
M  V30 3120 C 306.068 -1.40399 1.3417 0
M  V30 3121 O 305.343 -1.88892 0.463683 0
M  V30 3122 C 305.626 -0.295242 3.58888 0
M  V30 3123 C 305.479 1.02947 4.37861 0
M  V30 3124 C 306.798 -1.05502 4.27267 0
M  V30 3125 H 303.917 -0.034686 0.736183 0
M  V30 3126 H 306.559 0.602938 1.8018 0
M  V30 3127 H 304.709 -0.893563 3.78084 0
M  V30 3128 H 306.381 1.66348 4.30263 0
M  V30 3129 H 304.624 1.62885 4.02058 0
M  V30 3130 H 305.295 0.846281 5.45474 0
M  V30 3131 H 307.771 -0.547993 4.12476 0
M  V30 3132 H 306.647 -1.16077 5.36486 0
M  V30 3133 H 306.908 -2.08875 3.89645 0
M  V30 3134 N 305.967 -1.56429 0.191757 0
M  V30 3135 C 306.914 -2.18936 -0.730454 0
M  V30 3136 C 307.884 -1.13557 -1.21219 0
M  V30 3137 O 309.069 -1.41794 -1.27668 0
M  V30 3138 C 306.209 -2.85013 -1.9458 0
M  V30 3139 C 305.322 -4.04909 -1.50574 0
M  V30 3140 C 304.457 -4.58853 -2.67634 0
M  V30 3141 C 303.496 -5.71114 -2.20217 0
M  V30 3142 N 302.633 -6.19478 -3.30442 0
M  V30 3143 H 307.473 -2.97389 -0.190664 0
M  V30 3144 H 305.01 -1.46869 -0.0823694 0
M  V30 3145 H 306.968 -3.21492 -2.65893 0
M  V30 3146 H 305.598 -2.09129 -2.45896 0
M  V30 3147 H 304.65 -3.74115 -0.688605 0
M  V30 3148 H 305.962 -4.86113 -1.11784 0
M  V30 3149 H 305.116 -4.97619 -3.47074 0
M  V30 3150 H 303.855 -3.76749 -3.09696 0
M  V30 3151 H 302.86 -5.31879 -1.3923 0
M  V30 3152 H 304.085 -6.55033 -1.79189 0
M  V30 3153 H 302.031 -5.40297 -3.72041 0
M  V30 3154 H 301.948 -6.95725 -2.9581 0
M  V30 3155 H 303.216 -6.62898 -4.10106 0
M  V30 3156 N 307.445 0.0818655 -1.57387 0
M  V30 3157 C 308.392 1.09834 -2.0299 0
M  V30 3158 C 309.362 1.39043 -0.908639 0
M  V30 3159 O 310.547 1.50282 -1.17559 0
M  V30 3160 C 307.687 2.40971 -2.47037 0
M  V30 3161 C 306.8 2.18379 -3.7274 0
M  V30 3162 C 305.935 3.43008 -4.0561 0
M  V30 3163 C 304.974 3.15736 -5.24383 0
M  V30 3164 N 304.111 4.32667 -5.52941 0
M  V30 3165 H 308.951 0.702472 -2.89602 0
M  V30 3166 H 306.488 0.33531 -1.43227 0
M  V30 3167 H 308.446 3.1752 -2.70623 0
M  V30 3168 H 307.076 2.78379 -1.63417 0
M  V30 3169 H 306.128 1.32569 -3.56552 0
M  V30 3170 H 307.44 1.94227 -4.59431 0
M  V30 3171 H 306.594 4.27958 -4.30043 0
M  V30 3172 H 305.333 3.70225 -3.17466 0
M  V30 3173 H 304.338 2.2918 -4.99757 0
M  V30 3174 H 305.563 2.8985 -6.14136 0
M  V30 3175 H 303.509 4.59935 -4.67756 0
M  V30 3176 H 303.426 4.11753 -6.34031 0
M  V30 3177 H 304.694 5.18644 -5.81918 0
M  V30 3178 N 308.923 1.53595 0.353017 0
M  V30 3179 C 310.148 1.7462 1.11904 0
M  V30 3180 C 310.573 0.479721 1.8188 0
M  V30 3181 O 309.931 -0.567066 1.72204 0
M  V30 3182 C 309.979 2.92029 2.11545 0
M  V30 3183 O 309.083 2.61516 3.18878 0
M  V30 3184 H 308.424 0.579531 0.324099 0
M  V30 3185 H 310.954 2.00525 0.406301 0
M  V30 3186 H 310.964 3.18551 2.5493 0
M  V30 3187 H 309.639 3.83888 1.60008 0
M  V30 3188 H 308.216 2.45852 2.80377 0
M  V30 3189 N 310.401 -0.613514 1.45168 0
M  V30 3190 C 311.348 -1.72456 1.53387 0
M  V30 3191 C 312.318 -1.6169 0.380191 0
M  V30 3192 O 313.503 -1.81356 0.592836 0
M  V30 3193 C 310.643 -3.10753 1.50088 0
M  V30 3194 C 309.756 -3.32368 2.75963 0
M  V30 3195 C 308.891 -4.60737 2.64376 0
M  V30 3196 C 307.93 -4.7559 3.85332 0
M  V30 3197 N 307.067 -5.95253 3.72315 0
M  V30 3198 H 311.907 -1.64768 2.48305 0
M  V30 3199 H 309.444 -0.803503 1.23216 0
M  V30 3200 H 311.402 -3.90758 1.46164 0
M  V30 3201 H 310.032 -3.17413 0.587243 0
M  V30 3202 H 309.084 -2.4618 2.89999 0
M  V30 3203 H 310.396 -3.39218 3.65695 0
M  V30 3204 H 309.55 -5.48928 2.58385 0
M  V30 3205 H 308.289 -4.56275 1.72233 0
M  V30 3206 H 307.294 -3.85824 3.91688 0
M  V30 3207 H 308.519 -4.81854 4.78533 0
M  V30 3208 H 306.465 -5.91847 2.82937 0
M  V30 3209 H 306.382 -6.03236 4.55677 0
M  V30 3210 H 307.65 -6.85958 3.70246 0
M  V30 3211 N 311.879 -1.3236 -0.855495 0
M  V30 3212 C 312.842 -1.21164 -1.94556 0
M  V30 3213 C 313.842 -0.134908 -1.60233 0
M  V30 3214 O 315.032 -0.385249 -1.69887 0
M  V30 3215 C 312.164 -0.863192 -3.29791 0
M  V30 3216 H 313.357 -2.18038 -2.05911 0
M  V30 3217 H 310.91 -1.16179 -1.04557 0
M  V30 3218 H 311.645 0.103769 -3.24134 0
M  V30 3219 H 311.43 -1.64166 -3.56078 0
M  V30 3220 H 312.92 -0.809156 -4.09686 0
M  V30 3221 N 313.357 1.07166 -1.15556 0
M  V30 3222 C 314.603 1.80065 -0.932984 0
M  V30 3223 C 314.936 1.86586 0.53845 0
M  V30 3224 O 314.211 1.35098 1.39924 0
M  V30 3225 C 314.494 3.25022 -1.55025 0
M  V30 3226 C 314.347 3.26634 -3.09242 0
M  V30 3227 C 315.666 4.22341 -1.2376 0
M  V30 3228 H 312.785 0.653697 -0.340366 0
M  V30 3229 H 315.427 1.25389 -1.4275 0
M  V30 3230 H 313.577 3.71712 -1.12972 0
M  V30 3231 H 315.249 2.88173 -3.60214 0
M  V30 3232 H 313.492 2.65539 -3.43033 0
M  V30 3233 H 314.163 4.28854 -3.47546 0
M  V30 3234 H 316.639 3.8405 -1.60139 0
M  V30 3235 H 315.515 5.22053 -1.69564 0
M  V30 3236 H 315.776 4.41828 -0.154938 0
M  V30 3237 N 314.835 0.952656 1.25548 0
M  V30 3238 C 315.765 0.489287 2.28316 0
M  V30 3239 C 316.746 -0.463359 1.63667 0
M  V30 3240 O 317.931 -0.36274 1.90782 0
M  V30 3241 C 315.061 -0.235603 3.465 0
M  V30 3242 C 314.015 0.631593 4.23314 0
M  V30 3243 C 313.341 -0.223923 5.34231 0
M  V30 3244 C 314.641 1.90871 4.86174 0
M  V30 3245 H 316.335 1.34822 2.67326 0
M  V30 3246 H 313.881 0.649728 1.28509 0
M  V30 3247 H 315.834 -0.570882 4.17515 0
M  V30 3248 H 314.558 -1.12877 3.06474 0
M  V30 3249 H 313.217 0.949929 3.54079 0
M  V30 3250 H 312.865 -1.11678 4.90446 0
M  V30 3251 H 312.565 0.35299 5.86539 0
M  V30 3252 H 314.089 -0.554214 6.0808 0
M  V30 3253 H 315.503 1.63997 5.49343 0
M  V30 3254 H 313.9 2.43112 5.4865 0
M  V30 3255 H 314.97 2.61304 4.08471 0
M  V30 3256 N 316.313 -1.40141 0.720998 0
M  V30 3257 C 317.59 -1.94677 0.189757 0
M  V30 3258 C 317.97 -1.65879 -1.30566 0
M  V30 3259 O 317.318 -0.979391 -2.06447 0
M  V30 3260 C 317.528 -3.45279 0.508304 0
M  V30 3261 C 318.876 -4.22209 0.449934 0
M  V30 3262 O 319.9 -3.53413 0.444677 0
M  V30 3263 O 318.759 -5.44788 0.432189 0
M  V30 3264 H 315.853 -0.826459 0.0299026 0
M  V30 3265 H 318.399 -1.49719 0.7989 0
M  V30 3266 H 317.171 -3.59619 1.54239 0
M  V30 3267 H 316.794 -3.97386 -0.130525 0
M  V30 3268 N 317.792 -0.46758 -1.50504 0
M  V30 3269 C 319.022 0.086288 -2.0642 0
M  V30 3270 C 319.43 1.34369 -1.33197 0
M  V30 3271 O 318.773 1.79431 -0.393747 0
M  V30 3272 C 318.835 0.443846 -3.5675 0
M  V30 3273 C 318.499 -0.711035 -4.51435 0
M  V30 3274 C 319.496 -1.59205 -4.94924 0
M  V30 3275 C 317.181 -0.900363 -4.94165 0
M  V30 3276 C 319.175 -2.64683 -5.79846 0
M  V30 3277 C 316.862 -1.95837 -5.7887 0
M  V30 3278 C 317.86 -2.82997 -6.21612 0
M  V30 3279 O 317.548 -3.86977 -7.0463 0
M  V30 3280 H 317.28 -0.00217814 -0.675996 0
M  V30 3281 H 319.834 -0.654346 -1.94698 0
M  V30 3282 H 318.064 1.23762 -3.6636 0
M  V30 3283 H 319.753 0.932386 -3.95046 0
M  V30 3284 H 320.519 -1.45745 -4.62583 0
M  V30 3285 H 316.398 -0.231427 -4.60419 0
M  V30 3286 H 319.942 -3.32745 -6.13128 0
M  V30 3287 H 315.839 -2.09305 -6.10624 0
M  V30 3288 H 316.607 -3.83923 -7.22873 0
M  V30 3289 N 319.27 1.56325 -0.20005 0
M  V30 3290 C 320.22 2.15939 0.731743 0
M  V30 3291 C 321.204 1.10154 1.17281 0
M  V30 3292 O 322.396 1.36203 1.13038 0
M  V30 3293 C 319.525 2.82614 1.94895 0
M  V30 3294 C 318.611 3.95596 1.52855 0
M  V30 3295 N 319.002 4.99118 0.819418 0
M  V30 3296 C 317.3 4.07288 1.81748 0
M  V30 3297 C 318.001 5.78513 0.608053 0
M  V30 3298 N 316.977 5.31117 1.15828 0
M  V30 3299 H 320.779 2.9334 0.181285 0
M  V30 3300 H 318.293 1.624 -0.000452172 0
M  V30 3301 H 320.29 3.23718 2.62702 0
M  V30 3302 H 318.95 2.06702 2.50408 0
M  V30 3303 H 319.961 5.15723 0.47436 0
M  V30 3304 H 316.638 3.42509 2.38734 0
M  V30 3305 H 318.028 6.71885 0.0451619 0
M  V30 3306 N 320.748 -0.0735177 1.57428 0
M  V30 3307 C 322.025 -0.805903 1.78226 0
M  V30 3308 C 322.405 -1.95874 0.787189 0
M  V30 3309 O 321.753 -2.2779 -0.180029 0
M  V30 3310 C 321.963 -1.28045 3.24662 0
M  V30 3311 C 323.311 -1.71453 3.88444 0
M  V30 3312 O 324.335 -1.37616 3.28543 0
M  V30 3313 O 323.194 -2.34093 4.93825 0
M  V30 3314 H 320.288 -0.386041 0.73137 0
M  V30 3315 H 322.834 -0.0537269 1.69615 0
M  V30 3316 H 321.606 -0.455476 3.8864 0
M  V30 3317 H 321.229 -2.094 3.37991 0
M  V30 3318 N 322.226 -1.5378 -0.344866 0
M  V30 3319 C 323.503 -1.61589 -1.10219 0
M  V30 3320 C 323.883 -0.436316 -2.06542 0
M  V30 3321 O 323.231 0.571543 -2.21237 0
M  V30 3322 C 323.441 -2.97602 -1.82301 0
M  V30 3323 C 324.789 -3.5291 -2.36093 0
M  V30 3324 O 325.813 -2.99768 -1.924 0
M  V30 3325 O 324.672 -4.45859 -3.16026 0
M  V30 3326 H 321.766 -0.653522 -0.506792 0
M  V30 3327 H 324.312 -1.66126 -0.346465 0
M  V30 3328 H 323.084 -3.74893 -1.12121 0
M  V30 3329 H 322.707 -2.9665 -2.64735 0
M  V30 3330 N 323.704 0.605807 -1.45491 0
M  V30 3331 C 324.652 1.73754 -1.54636 0
M  V30 3332 C 325.646 1.64207 -0.416219 0
M  V30 3333 O 326.852 1.69979 -0.592199 0
M  V30 3334 H 323.227 0.574073 -0.485741 0
M  V30 3335 H 325.198 1.63169 -2.49837 0
M  V30 3336 C 323.947 3.12135 -1.53189 0
M  V30 3337 H 323.27 3.20141 -2.39478 0
M  V30 3338 H 324.71 3.91147 -1.63645 0
M  V30 3339 C 323.169 3.35921 -0.256616 0
M  V30 3340 O 323.699 3.96194 0.662798 0
M  V30 3341 N 321.905 2.90204 -0.151751 0
M  V30 3342 H 321.452 2.41336 -0.90081 0
M  V30 3343 H 321.41 3.06492 0.700699 0
M  V30 3344 N 325.182 1.32811 0.848464 0
M  V30 3345 C 326.429 1.23724 1.60308 0
M  V30 3346 C 326.757 -0.1994 1.93475 0
M  V30 3347 O 326.012 -1.15406 1.5805 0
M  V30 3348 C 326.311 2.04831 2.92881 0
M  V30 3349 C 325.977 3.54125 2.79117 0
M  V30 3350 C 324.639 3.94829 2.7507 0
M  V30 3351 C 326.991 4.49036 2.64606 0
M  V30 3352 C 324.319 5.28675 2.544 0
M  V30 3353 C 326.671 5.83033 2.4547 0
M  V30 3354 C 325.335 6.22931 2.39819 0
M  V30 3355 H 324.605 0.452737 0.586609 0
M  V30 3356 H 327.252 1.64301 0.983743 0
M  V30 3357 H 325.557 1.57001 3.58968 0
M  V30 3358 H 327.254 1.95164 3.50303 0
M  V30 3359 H 323.844 3.21801 2.83094 0
M  V30 3360 H 328.028 4.18505 2.66772 0
M  V30 3361 H 323.284 5.58637 2.48465 0
M  V30 3362 H 327.458 6.56186 2.33222 0
M  V30 3363 H 325.085 7.26584 2.23562 0
M  V30 3364 N 326.66 -1.06551 1.16123 0
M  V30 3365 C 327.623 -2.12132 0.867906 0
M  V30 3366 C 328.623 -1.60224 -0.135944 0
M  V30 3367 O 329.813 -1.73943 0.0946422 0
M  V30 3368 C 326.945 -3.396 0.297419 0
M  V30 3369 H 328.138 -2.39586 1.80385 0
M  V30 3370 H 325.691 -1.22574 0.969812 0
M  V30 3371 H 326.426 -3.17794 -0.64633 0
M  V30 3372 H 326.211 -3.78581 1.02073 0
M  V30 3373 H 327.701 -4.17455 0.110052 0
M  V30 3374 N 328.138 -0.959301 -1.25041 0
M  V30 3375 C 329.387 -0.612254 -1.92183 0
M  V30 3376 C 329.7 0.855347 -1.75907 0
M  V30 3377 O 330.906 1.31256 -2.37664 0
M  V30 3378 C 329.362 -1.04435 -3.44414 0
M  V30 3379 C 328.97 -2.53482 -3.69393 0
M  V30 3380 C 330.714 -0.770055 -4.17457 0
M  V30 3381 C 328.621 -2.90468 -5.15153 0
M  V30 3382 H 327.551 -0.225279 -0.719559 0
M  V30 3383 H 330.202 -1.16438 -1.41825 0
M  V30 3384 H 328.584 -0.4206 -3.9376 0
M  V30 3385 H 329.758 -3.20916 -3.30681 0
M  V30 3386 H 328.073 -2.78432 -3.0962 0
M  V30 3387 H 330.67 -1.02249 -5.24832 0
M  V30 3388 H 331.013 0.293611 -4.15263 0
M  V30 3389 H 331.546 -1.35437 -3.74034 0
M  V30 3390 H 328.285 -3.95871 -5.22462 0
M  V30 3391 H 327.805 -2.27711 -5.54894 0
M  V30 3392 H 329.484 -2.79914 -5.83315 0
M  V30 3393 N 329.616 1.39756 -0.72842 0
M  V30 3394 C 330.862 2.00942 -0.273892 0
M  V30 3395 C 331.195 1.57656 1.13394 0
M  V30 3396 O 330.47 0.802434 1.77176 0
M  V30 3397 C 330.753 3.58211 -0.368346 0
M  V30 3398 C 330.606 4.11534 -1.81548 0
M  V30 3399 C 331.925 4.39372 0.253054 0
M  V30 3400 H 329.044 0.730047 -0.100996 0
M  V30 3401 H 331.686 1.66056 -0.923337 0
M  V30 3402 H 329.836 3.88061 0.184588 0
M  V30 3403 H 331.508 3.92431 -2.42478 0
M  V30 3404 H 329.751 3.65341 -2.33898 0
M  V30 3405 H 330.422 5.20682 -1.83288 0
M  V30 3406 H 332.898 4.15527 -0.218224 0
M  V30 3407 H 331.774 5.48677 0.156585 0
M  V30 3408 H 332.035 4.21358 1.33826 0
M  V30 3409 N 331.094 0.475555 1.50254 0
M  V30 3410 C 332.341 -0.0778919 2.0235 0
M  V30 3411 C 332.669 -1.39319 1.35722 0
M  V30 3412 O 331.924 -1.89888 0.473395 0
M  V30 3413 C 332.223 -0.305114 3.56095 0
M  V30 3414 C 331.889 0.92903 4.41225 0
M  V30 3415 C 330.551 1.26739 4.6421 0
M  V30 3416 C 332.903 1.75054 4.90923 0
M  V30 3417 C 330.231 2.42724 5.34137 0
M  V30 3418 C 332.583 2.9017 5.62125 0
M  V30 3419 C 331.247 3.24416 5.83362 0
M  V30 3420 H 330.517 -0.0285027 0.740452 0
M  V30 3421 H 333.164 0.630543 1.80821 0
M  V30 3422 H 331.469 -1.09584 3.76163 0
M  V30 3423 H 333.166 -0.747377 3.93974 0
M  V30 3424 H 329.756 0.655428 4.23559 0
M  V30 3425 H 333.94 1.50231 4.73016 0
M  V30 3426 H 329.196 2.69525 5.48786 0
M  V30 3427 H 333.37 3.54169 5.99614 0
M  V30 3428 H 330.997 4.14396 6.37323 0
M  V30 3429 N 332.573 -1.56217 0.208337 0
M  V30 3430 C 333.536 -2.18455 -0.693557 0
M  V30 3431 C 334.536 -1.14268 -1.13135 0
M  V30 3432 O 335.726 -1.39577 -1.0423 0
M  V30 3433 C 332.858 -2.79727 -1.94848 0
M  V30 3434 H 334.051 -2.99519 -0.15114 0
M  V30 3435 H 331.604 -1.56245 -0.041287 0
M  V30 3436 H 332.339 -2.02497 -2.53309 0
M  V30 3437 H 332.124 -3.56009 -1.64316 0
M  V30 3438 H 333.614 -3.27475 -2.59133 0
M  V30 3439 N 334.051 0.0651679 -1.57465 0
M  V30 3440 C 335.014 1.06117 -2.03155 0
M  V30 3441 C 336.014 1.31204 -0.929632 0
M  V30 3442 O 337.204 1.26813 -1.19432 0
M  V30 3443 C 334.336 2.4032 -2.41783 0
M  V30 3444 H 335.529 0.667231 -2.92383 0
M  V30 3445 H 333.082 0.311075 -1.53173 0
M  V30 3446 H 333.817 2.84532 -1.55601 0
M  V30 3447 H 333.602 2.23451 -3.22199 0
M  V30 3448 H 335.092 3.11898 -2.77685 0
M  V30 3449 N 335.529 1.53961 0.336706 0
M  V30 3450 C 336.462 1.77255 1.43722 0
M  V30 3451 C 337.44 0.62193 1.50236 0
M  V30 3452 O 338.624 0.857874 1.67847 0
M  V30 3453 C 335.751 1.87733 2.81912 0
M  V30 3454 C 334.797 3.09933 2.92991 0
M  V30 3455 S 335.63 4.68836 2.58753 0
M  V30 3456 C 336.786 4.82202 3.99039 0
M  V30 3457 H 337.019 2.70322 1.23748 0
M  V30 3458 H 334.552 1.44917 0.532777 0
M  V30 3459 H 336.51 1.94455 3.61521 0
M  V30 3460 H 335.171 0.956666 2.99177 0
M  V30 3461 H 334.364 3.1396 3.94265 0
M  V30 3462 H 333.966 3.01472 2.21338 0
M  V30 3463 H 336.258 4.64032 4.9364 0
M  V30 3464 H 337.201 5.84298 4.00002 0
M  V30 3465 H 337.609 4.10604 3.87382 0
M  V30 3466 N 337.007 -0.598083 1.45811 0
M  V30 3467 C 338.255 -1.35413 1.50026 0
M  V30 3468 C 338.576 -1.94444 0.147177 0
M  V30 3469 O 337.846 -1.77701 -0.824571 0
M  V30 3470 H 336.426 -0.502727 0.552517 0
M  V30 3471 H 339.088 -0.701606 1.81834 0
M  V30 3472 H 338.184 -2.16871 2.2444 0
M  V30 3473 N 338.485 -1.33259 -0.841409 0
M  V30 3474 C 339.731 -1.24757 -1.59886 0
M  V30 3475 C 340.064 0.186913 -1.93298 0
M  V30 3476 O 339.339 1.12757 -1.5848 0
M  V30 3477 C 339.622 -2.12036 -2.91055 0
M  V30 3478 C 339.475 -3.63929 -2.6434 0
M  V30 3479 C 340.794 -1.9916 -3.92458 0
M  V30 3480 H 337.913 -0.454542 -0.580138 0
M  V30 3481 H 340.555 -1.63335 -0.970647 0
M  V30 3482 H 338.705 -1.79265 -3.44669 0
M  V30 3483 H 340.377 -4.06978 -2.17178 0
M  V30 3484 H 338.62 -3.85935 -1.98082 0
M  V30 3485 H 339.291 -4.20341 -3.57796 0
M  V30 3486 H 341.767 -2.27895 -3.48143 0
M  V30 3487 H 340.643 -2.62484 -4.82072 0
M  V30 3488 H 340.904 -0.963082 -4.31482 0
M  V30 3489 N 339.963 1.05934 -1.16686 0
M  V30 3490 C 340.911 2.15603 -0.872817 0
M  V30 3491 C 341.905 1.68647 0.159576 0
M  V30 3492 O 343.111 1.79995 0.0132125 0
M  V30 3493 H 339.486 0.703885 -0.264671 0
M  V30 3494 H 341.457 2.37613 -1.80507 0
M  V30 3495 C 340.206 3.45457 -0.394344 0
M  V30 3496 H 339.529 3.81984 -1.18019 0
M  V30 3497 H 340.969 4.2339 -0.227408 0
M  V30 3498 C 339.428 3.25021 0.88673 0
M  V30 3499 O 339.958 3.50906 1.95519 0
M  V30 3500 N 338.164 2.78437 0.831925 0
M  V30 3501 H 337.711 2.57572 -0.0377619 0
M  V30 3502 H 337.669 2.65144 1.68956 0
M  V30 3503 N 341.441 0.965919 1.2453 0
M  V30 3504 C 342.374 0.4393 2.23932 0
M  V30 3505 C 343.352 -0.485615 1.55179 0
M  V30 3506 O 344.536 -0.417402 1.83821 0
M  V30 3507 C 341.663 -0.366042 3.36716 0
M  V30 3508 C 340.709 0.5009 4.23548 0
M  V30 3509 S 341.542 1.94002 4.99123 0
M  V30 3510 C 342.698 1.14342 6.15367 0
M  V30 3511 H 342.931 1.28167 2.68254 0
M  V30 3512 H 340.464 0.770819 1.33782 0
M  V30 3513 H 342.422 -0.824724 4.0213 0
M  V30 3514 H 341.083 -1.18337 2.90956 0
M  V30 3515 H 340.276 -0.117341 5.03863 0
M  V30 3516 H 339.878 0.89524 3.63127 0
M  V30 3517 H 342.17 0.397572 6.76332 0
M  V30 3518 H 343.113 1.92089 6.81548 0
M  V30 3519 H 343.521 0.668579 5.60527 0
M  V30 3520 N 342.919 -1.39368 0.735821 0
M  V30 3521 C 343.829 -2.34395 0.0979693 0
M  V30 3522 C 344.845 -1.58361 -0.720968 0
M  V30 3523 O 346.021 -1.90648 -0.649245 0
M  V30 3524 C 343.086 -3.37393 -0.797916 0
M  V30 3525 C 342.147 -4.29287 0.0333662 0
M  V30 3526 C 341.38 -5.27365 -0.819854 0
M  V30 3527 O 341.603 -5.31959 -2.05855 0
M  V30 3528 O 340.537 -6.01389 -0.248079 0
M  V30 3529 H 344.363 -2.90601 0.882315 0
M  V30 3530 H 341.948 -1.40909 0.4965 0
M  V30 3531 H 343.83 -4.00505 -1.31048 0
M  V30 3532 H 342.505 -2.83571 -1.56106 0
M  V30 3533 H 341.412 -3.69395 0.591475 0
M  V30 3534 H 342.745 -4.86317 0.758752 0
M  V30 3535 N 344.397 -0.483516 -1.5 0
M  V30 3536 C 345.625 0.0644831 -2.06799 0
M  V30 3537 C 346.04 1.32399 -1.34596 0
M  V30 3538 O 345.397 1.77626 -0.418946 0
M  V30 3539 C 345.448 0.339927 -3.59898 0
M  V30 3540 O 345.169 -0.869635 -4.29382 0
M  V30 3541 C 346.67 0.933515 -4.33359 0
M  V30 3542 H 343.89 -0.0126333 -0.670881 0
M  V30 3543 H 346.434 -0.675864 -1.93009 0
M  V30 3544 H 344.589 1.03022 -3.7345 0
M  V30 3545 H 345.003 -0.62179 -5.20801 0
M  V30 3546 H 346.477 1.07593 -5.41413 0
M  V30 3547 H 346.954 1.92685 -3.94676 0
M  V30 3548 H 347.56 0.281221 -4.24369 0
M  V30 3549 N 345.875 1.56104 -0.216619 0
M  V30 3550 C 346.838 2.18819 0.681962 0
M  V30 3551 C 347.838 1.14866 1.12528 0
M  V30 3552 O 349.028 1.40128 1.03488 0
M  V30 3553 C 346.16 2.80756 1.93362 0
M  V30 3554 H 347.353 2.99595 0.135254 0
M  V30 3555 H 344.906 1.56265 0.0330003 0
M  V30 3556 H 345.641 2.03837 2.52232 0
M  V30 3557 H 345.426 3.56876 1.62426 0
M  V30 3558 H 346.916 3.28844 2.57393 0
M  V30 3559 N 347.353 -0.0568162 1.57498 0
M  V30 3560 C 348.769 -0.411933 1.54192 0
M  V30 3561 C 348.969 -1.78287 0.938942 0
M  V30 3562 O 348.025 -2.46483 0.547919 0
M  V30 3563 C 349.338 -0.339244 2.9878 0
M  V30 3564 C 350.886 -0.418348 3.10192 0
M  V30 3565 C 351.361 -0.375407 4.56459 0
M  V30 3566 N 352.852 -0.435038 4.61153 0
M  V30 3567 C 353.587 -0.424265 5.71828 0
M  V30 3568 N 353.083 -0.367418 6.91825 0
M  V30 3569 N 354.876 -0.471938 5.60115 0
M  V30 3570 H 347.027 0.840684 1.95055 0
M  V30 3571 H 349.29 0.316987 0.893433 0
M  V30 3572 H 348.996 0.601742 3.46514 0
M  V30 3573 H 348.87 -1.14371 3.59443 0
M  V30 3574 H 351.257 -1.34976 2.62422 0
M  V30 3575 H 351.338 0.414962 2.52412 0
M  V30 3576 H 350.982 0.552219 5.04889 0
M  V30 3577 H 350.912 -1.22645 5.12119 0
M  V30 3578 H 353.403 -0.482612 3.74806 0
M  V30 3579 H 353.716 -0.363535 7.71944 0
M  V30 3580 H 352.061 -0.333879 6.94198 0
M  V30 3581 H 355.252 -0.514145 4.65268 0
M  V30 3582 H 355.425 -0.460073 6.46365 0
M  V30 3583 N 348.832 -1.54138 -0.328536 0
M  V30 3584 C 350.079 -1.72105 -1.06706 0
M  V30 3585 C 350.407 -0.492111 -1.88171 0
M  V30 3586 O 349.662 0.526153 -1.88494 0
M  V30 3587 C 349.961 -2.9457 -2.02393 0
M  V30 3588 C 349.627 -4.29544 -1.37122 0
M  V30 3589 C 348.289 -4.6624 -1.19052 0
M  V30 3590 C 350.641 -5.1333 -0.902331 0
M  V30 3591 C 347.969 -5.84325 -0.527331 0
M  V30 3592 C 350.321 -6.32094 -0.252988 0
M  V30 3593 C 348.985 -6.67473 -0.0600901 0
M  V30 3594 H 348.255 -0.629775 -0.390466 0
M  V30 3595 H 350.902 -1.88372 -0.34473 0
M  V30 3596 H 349.207 -2.72969 -2.81061 0
M  V30 3597 H 350.904 -3.05665 -2.59557 0
M  V30 3598 H 347.494 -4.0067 -1.52188 0
M  V30 3599 H 351.678 -4.855 -1.02974 0
M  V30 3600 H 346.934 -6.103 -0.366634 0
M  V30 3601 H 351.108 -6.96299 0.118366 0
M  V30 3602 H 348.735 -7.58832 0.455828 0
M  V30 3603 N 350.31 0.590341 -1.46126 0
M  V30 3604 C 351.557 1.34882 -1.5104 0
M  V30 3605 C 351.885 1.93849 -0.159021 0
M  V30 3606 O 351.14 1.76544 0.844436 0
M  V30 3607 C 351.439 2.5032 -2.55097 0
M  V30 3608 C 351.105 2.09394 -3.99331 0
M  V30 3609 C 349.767 1.97947 -4.38601 0
M  V30 3610 C 352.119 1.77712 -4.89967 0
M  V30 3611 C 349.447 1.53065 -5.66381 0
M  V30 3612 C 351.799 1.34312 -6.18177 0
M  V30 3613 C 350.463 1.21436 -6.56361 0
M  V30 3614 H 349.733 0.493568 -0.552695 0
M  V30 3615 H 352.38 0.665539 -1.79563 0
M  V30 3616 H 350.685 3.24062 -2.20207 0
M  V30 3617 H 352.382 3.08541 -2.56132 0
M  V30 3618 H 348.972 2.19235 -3.68285 0
M  V30 3619 H 353.156 1.85445 -4.60352 0
M  V30 3620 H 348.412 1.41733 -5.94745 0
M  V30 3621 H 352.586 1.08849 -6.87841 0
M  V30 3622 H 350.213 0.864345 -7.5527 0
M  V30 3623 N 351.788 1.33704 0.83433 0
M  V30 3624 C 352.735 1.24335 1.94447 0
M  V30 3625 C 353.705 0.120991 1.65659 0
M  V30 3626 O 354.89 0.300035 1.88426 0
M  V30 3627 C 352.03 0.993124 3.30501 0
M  V30 3628 C 351.143 2.20217 3.71657 0
M  V30 3629 C 350.278 1.88572 4.96602 0
M  V30 3630 C 349.317 3.05683 5.30306 0
M  V30 3631 N 348.454 2.73997 6.46429 0
M  V30 3632 H 353.294 2.1928 2.01792 0
M  V30 3633 H 350.831 1.09035 0.987404 0
M  V30 3634 H 352.789 0.828467 4.08892 0
M  V30 3635 H 351.419 0.0803902 3.227 0
M  V30 3636 H 350.471 2.47642 2.88752 0
M  V30 3637 H 351.783 3.07752 3.92543 0
M  V30 3638 H 350.937 1.68776 5.82752 0
M  V30 3639 H 349.676 0.982799 4.77695 0
M  V30 3640 H 348.681 3.26088 4.42659 0
M  V30 3641 H 349.906 3.96737 5.51159 0
M  V30 3642 H 347.852 1.86268 6.28999 0
M  V30 3643 H 347.769 3.55064 6.67432 0
M  V30 3644 H 349.037 2.57679 7.35678 0
M  V30 3645 N 353.266 -1.05314 1.17247 0
M  V30 3646 C 354.491 -1.82509 0.985148 0
M  V30 3647 C 354.916 -1.82343 -0.461788 0
M  V30 3648 O 354.274 -1.23151 -1.33055 0
M  V30 3649 C 354.322 -3.26566 1.52929 0
M  V30 3650 O 353.426 -4.05666 0.742225 0
M  V30 3651 H 352.767 -0.564347 0.349869 0
M  V30 3652 H 355.297 -1.32718 1.55715 0
M  V30 3653 H 355.307 -3.77369 1.55103 0
M  V30 3654 H 353.982 -3.26001 2.58256 0
M  V30 3655 H 352.559 -3.64397 0.791794 0
M  V30 3656 N 354.744 -0.972509 -1.24016 0
M  V30 3657 C 356.021 -0.553733 -1.87598 0
M  V30 3658 C 356.401 0.969158 -1.87538 0
M  V30 3659 O 355.749 1.84255 -1.35139 0
M  V30 3660 C 355.959 -1.15076 -3.29482 0
M  V30 3661 C 357.307 -1.23862 -4.06132 0
M  V30 3662 O 358.331 -1.10363 -3.38672 0
M  V30 3663 O 357.19 -1.45252 -5.26844 0
M  V30 3664 H 354.284 -0.185331 -0.805966 0
M  V30 3665 H 356.83 -1.06709 -1.31952 0
M  V30 3666 H 355.602 -2.19333 -3.2405 0
M  V30 3667 H 355.225 -0.621746 -3.92709 0
M  V30 3668 N 356.222 1.38976 -0.743202 0
M  V30 3669 C 357.469 2.00343 -0.294752 0
M  V30 3670 C 357.797 1.58983 1.12047 0
M  V30 3671 O 357.052 0.813809 1.77977 0
M  V30 3672 C 357.351 3.55647 -0.353517 0
M  V30 3673 C 357.017 4.16685 -1.72292 0
M  V30 3674 C 355.679 4.3307 -2.09771 0
M  V30 3675 C 358.031 4.50464 -2.62168 0
M  V30 3676 C 355.359 4.80526 -3.36618 0
M  V30 3677 C 357.711 4.99332 -3.88395 0
M  V30 3678 C 356.375 5.13924 -4.25956 0
M  V30 3679 H 355.645 0.733108 -0.107857 0
M  V30 3680 H 358.292 1.6618 -0.951651 0
M  V30 3681 H 356.597 3.89884 0.386954 0
M  V30 3682 H 358.294 4.00998 0.0117269 0
M  V30 3683 H 354.884 4.04339 -1.42155 0
M  V30 3684 H 359.068 4.37416 -2.3448 0
M  V30 3685 H 354.324 4.90008 -3.65653 0
M  V30 3686 H 358.498 5.2444 -4.58187 0
M  V30 3687 H 356.125 5.50457 -5.2431 0
M  V30 3688 N 357.7 0.491464 1.49741 0
M  V30 3689 C 358.61 -0.296835 2.32715 0
M  V30 3690 C 359.626 -0.976536 1.44013 0
M  V30 3691 O 360.802 -0.960023 1.77047 0
M  V30 3692 C 357.867 -1.35288 3.19215 0
M  V30 3693 C 356.928 -0.687632 4.23757 0
M  V30 3694 C 356.161 -1.69336 5.06123 0
M  V30 3695 O 356.384 -2.92219 4.89861 0
M  V30 3696 O 355.318 -1.25394 5.88693 0
M  V30 3697 H 359.144 0.382048 3.01287 0
M  V30 3698 H 356.729 0.252953 1.47243 0
M  V30 3699 H 358.611 -1.96411 3.72828 0
M  V30 3700 H 357.286 -2.01487 2.53347 0
M  V30 3701 H 356.193 -0.0369159 3.74082 0
M  V30 3702 H 357.526 -0.0682566 4.92153 0
M  V30 3703 N 359.178 -1.55987 0.224894 0
M  V30 3704 C 360.11 -2.17722 -0.716224 0
M  V30 3705 C 361.123 -1.14723 -1.15509 0
M  V30 3706 O 362.312 -1.41688 -1.08567 0
M  V30 3707 C 359.412 -2.74873 -1.98238 0
M  V30 3708 C 358.585 -4.03074 -1.69853 0
M  V30 3709 C 357.644 -4.44757 -2.81208 0
M  V30 3710 O 356.67 -5.11587 -2.49534 0
M  V30 3711 N 357.872 -4.10716 -4.10235 0
M  V30 3712 H 360.637 -2.99109 -0.188123 0
M  V30 3713 H 358.198 -1.6184 0.0440123 0
M  V30 3714 H 360.19 -2.99727 -2.7193 0
M  V30 3715 H 358.76 -1.9777 -2.42086 0
M  V30 3716 H 357.98 -3.86041 -0.797875 0
M  V30 3717 H 359.268 -4.86701 -1.48324 0
M  V30 3718 H 358.666 -3.57019 -4.38809 0
M  V30 3719 H 357.223 -4.40455 -4.80461 0
M  V30 3720 N 360.656 0.0484629 -1.57525 0
M  V30 3721 C 361.604 1.07359 -2.06341 0
M  V30 3722 C 362.598 1.3865 -0.973269 0
M  V30 3723 O 363.804 1.37783 -1.15827 0
M  V30 3724 H 360.179 0.363662 -0.65822 0
M  V30 3725 H 362.15 0.635916 -2.91545 0
M  V30 3726 C 360.899 2.37198 -2.54229 0
M  V30 3727 H 360.222 2.13977 -3.37719 0
M  V30 3728 H 361.662 3.07319 -2.92115 0
M  V30 3729 C 360.121 3.04805 -1.43511 0
M  V30 3730 O 360.651 3.93848 -0.79034 0
M  V30 3731 N 358.857 2.65811 -1.17444 0
M  V30 3732 H 358.404 1.93488 -1.70059 0
M  V30 3733 H 358.362 3.11366 -0.435737 0
M  V30 3734 N 362.134 1.5431 0.320358 0
M  V30 3735 C 363.382 1.72327 1.05583 0
M  V30 3736 C 363.703 0.50149 1.88441 0
M  V30 3737 O 362.973 -0.48448 1.89815 0
M  V30 3738 H 361.553 0.635387 0.3928 0
M  V30 3739 H 364.215 1.91621 0.356019 0
M  V30 3740 H 363.311 2.60426 1.72003 0
M  V30 3741 N 363.613 -0.582584 1.46437 0
M  V30 3742 C 364.841 -1.36682 1.55324 0
M  V30 3743 C 365.256 -1.87796 0.194409 0
M  V30 3744 O 364.613 -1.63623 -0.808318 0
M  V30 3745 C 364.664 -2.55426 2.55812 0
M  V30 3746 O 364.385 -2.0643 3.86417 0
M  V30 3747 C 365.886 -3.47976 2.74641 0
M  V30 3748 H 363.106 -0.417545 0.525259 0
M  V30 3749 H 365.65 -0.708219 1.91845 0
M  V30 3750 H 363.805 -3.17275 2.22295 0
M  V30 3751 H 364.219 -2.83762 4.41111 0
M  V30 3752 H 365.693 -4.27775 3.48874 0
M  V30 3753 H 366.17 -3.99919 1.81553 0
M  V30 3754 H 366.776 -2.91962 3.09255 0
M  V30 3755 N 365.091 -1.34144 -0.827227 0
M  V30 3756 C 366.024 -1.19707 -1.94282 0
M  V30 3757 C 367.002 -0.0897256 -1.62352 0
M  V30 3758 O 368.186 -0.254095 -1.8678 0
M  V30 3759 C 365.313 -0.838646 -3.28153 0
M  V30 3760 C 364.359 -1.95514 -3.79047 0
M  V30 3761 S 365.192 -3.56793 -3.99323 0
M  V30 3762 C 366.348 -3.22983 -5.36127 0
M  V30 3763 H 366.581 -2.1414 -2.06231 0
M  V30 3764 H 364.114 -1.19121 -0.982321 0
M  V30 3765 H 366.072 -0.638637 -4.05502 0
M  V30 3766 H 364.733 0.0872776 -3.13979 0
M  V30 3767 H 363.926 -1.658 -4.75948 0
M  V30 3768 H 363.528 -2.11241 -3.08631 0
M  V30 3769 H 365.82 -2.74531 -6.19386 0
M  V30 3770 H 366.763 -4.19008 -5.70822 0
M  V30 3771 H 367.171 -2.59276 -5.01434 0
M  V30 3772 N 366.569 1.04691 -1.17803 0
M  V30 3773 C 367.817 1.7743 -0.967617 0
M  V30 3774 C 368.138 1.88359 0.504574 0
M  V30 3775 O 367.408 1.40402 1.36617 0
M  V30 3776 H 365.988 0.657242 -0.355024 0
M  V30 3777 H 368.65 1.2638 -1.48371 0
M  V30 3778 H 367.746 2.78924 -1.40027 0
M  V30 3779 N 368.047 0.979072 1.23499 0
M  V30 3780 C 368.995 0.510604 2.26926 0
M  V30 3781 C 369.989 -0.431691 1.63807 0
M  V30 3782 O 371.195 -0.30573 1.77385 0
M  V30 3783 H 367.57 0.146688 0.737554 0
M  V30 3784 H 369.541 1.39466 2.63803 0
M  V30 3785 C 368.29 -0.172658 3.47271 0
M  V30 3786 H 367.613 0.543331 3.96091 0
M  V30 3787 H 369.053 -0.464101 4.21452 0
M  V30 3788 C 367.512 -1.40345 3.06276 0
M  V30 3789 O 368.042 -2.49978 3.14442 0
M  V30 3790 N 366.248 -1.27362 2.61203 0
M  V30 3791 H 365.795 -0.381584 2.54758 0
M  V30 3792 H 365.753 -2.09822 2.34141 0
M  V30 3793 N 369.525 -1.3858 0.750561 0
M  V30 3794 C 370.771 -2.00481 0.305825 0
M  V30 3795 C 371.104 -1.5944 -1.10872 0
M  V30 3796 O 370.379 -0.83052 -1.75877 0
M  V30 3797 C 370.662 -3.5758 0.425287 0
M  V30 3798 C 370.515 -4.08594 1.88072 0
M  V30 3799 C 371.834 -4.39719 -0.183122 0
M  V30 3800 H 368.953 -0.728348 0.112598 0
M  V30 3801 H 371.595 -1.64566 0.949638 0
M  V30 3802 H 369.745 -3.88306 -0.122828 0
M  V30 3803 H 371.417 -3.88523 2.48691 0
M  V30 3804 H 369.66 -3.61574 2.39681 0
M  V30 3805 H 370.331 -5.177 1.91548 0
M  V30 3806 H 372.807 -4.15128 0.284303 0
M  V30 3807 H 371.683 -5.48856 -0.0692757 0
M  V30 3808 H 371.944 -4.23434 -1.27106 0
M  V30 3809 N 371.003 -0.499398 -1.49478 0
M  V30 3810 C 372.243 0.0440751 -2.04352 0
M  V30 3811 C 372.607 1.34423 -1.37093 0
M  V30 3812 O 373.808 1.97184 -1.82679 0
M  V30 3813 C 372.079 0.194918 -3.56868 0
M  V30 3814 S 373.638 0.69287 -4.33295 0
M  V30 3815 H 370.456 0.00253458 -0.710995 0
M  V30 3816 H 373.058 -0.673 -1.83551 0
M  V30 3817 H 371.762 -0.756672 -4.03364 0
M  V30 3818 H 371.293 0.93728 -3.82071 0
M  V30 3819 H 373.308 1.96226 -4.55752 0
M  V30 3820 N 372.481 1.55866 -0.233164 0
M  V30 3821 C 373.411 2.23783 0.666599 0
M  V30 3822 C 374.392 1.21343 1.19205 0
M  V30 3823 O 375.577 1.4996 1.23392 0
M  V30 3824 C 372.707 2.92671 1.86978 0
M  V30 3825 C 371.661 4.01682 1.47768 0
M  V30 3826 C 370.987 4.57926 2.76058 0
M  V30 3827 C 372.287 5.18126 0.658993 0
M  V30 3828 H 373.981 2.99232 0.100306 0
M  V30 3829 H 371.527 1.43924 0.046804 0
M  V30 3830 H 373.48 3.3888 2.50476 0
M  V30 3831 H 372.204 2.14688 2.46123 0
M  V30 3832 H 370.863 3.56222 0.866106 0
M  V30 3833 H 370.511 3.76659 3.33372 0
M  V30 3834 H 370.211 5.31505 2.50552 0
M  V30 3835 H 371.735 5.06859 3.40479 0
M  V30 3836 H 373.149 5.60644 1.19795 0
M  V30 3837 H 371.546 5.98009 0.500552 0
M  V30 3838 H 372.616 4.83763 -0.331856 0
M  V30 3839 N 373.959 -0.0401083 1.57549 0
M  V30 3840 C 375.206 -0.733125 1.88763 0
M  V30 3841 C 375.534 -1.75946 0.829058 0
M  V30 3842 O 374.789 -1.94949 -0.171323 0
M  V30 3843 C 375.088 -1.44902 3.26708 0
M  V30 3844 C 374.754 -0.559707 4.47413 0
M  V30 3845 C 373.416 -0.314731 4.8017 0
M  V30 3846 C 375.768 0.0549743 5.21171 0
M  V30 3847 C 373.096 0.553886 5.8408 0
M  V30 3848 C 375.448 0.911229 6.26003 0
M  V30 3849 C 374.112 1.16577 6.57241 0
M  V30 3850 H 373.382 -0.268269 0.690733 0
M  V30 3851 H 376.029 0.00679408 1.91499 0
M  V30 3852 H 374.334 -2.26197 3.1991 0
M  V30 3853 H 376.031 -1.99058 3.48105 0
M  V30 3854 H 372.621 -0.760793 4.21794 0
M  V30 3855 H 376.805 -0.121344 4.96152 0
M  V30 3856 H 372.061 0.759518 6.06664 0
M  V30 3857 H 376.235 1.3941 6.82303 0
M  V30 3858 H 373.862 1.84058 7.37582 0
M  V30 3859 N 375.437 -1.54477 -0.31217 0
M  V30 3860 C 376.367 -1.87652 -1.38957 0
M  V30 3861 C 377.348 -0.734358 -1.53431 0
M  V30 3862 O 378.533 -0.98911 -1.67123 0
M  V30 3863 C 375.663 -2.11396 -2.75552 0
M  V30 3864 C 374.617 -3.27243 -2.75855 0
M  V30 3865 C 373.943 -3.36382 -4.15633 0
M  V30 3866 C 375.243 -4.64622 -2.38587 0
M  V30 3867 H 376.937 -2.77887 -1.11442 0
M  V30 3868 H 374.483 -1.33707 -0.534655 0
M  V30 3869 H 376.436 -2.33189 -3.51 0
M  V30 3870 H 375.16 -1.17921 -3.04569 0
M  V30 3871 H 373.819 -3.05356 -2.02863 0
M  V30 3872 H 373.467 -2.40445 -4.41809 0
M  V30 3873 H 373.167 -4.14249 -4.1674 0
M  V30 3874 H 374.691 -3.60422 -4.92877 0
M  V30 3875 H 376.105 -4.86219 -3.03749 0
M  V30 3876 H 374.502 -5.45121 -2.50925 0
M  V30 3877 H 375.572 -4.66097 -1.33723 0
M  V30 3878 N 376.915 0.57481 -1.46744 0
M  V30 3879 C 377.863 1.70435 -1.58286 0
M  V30 3880 C 378.857 1.63287 -0.450956 0
M  V30 3881 O 380.063 1.68685 -0.628121 0
M  V30 3882 H 376.438 0.56364 -0.497809 0
M  V30 3883 H 378.409 1.57833 -2.53242 0
M  V30 3884 C 377.158 3.08815 -1.59776 0
M  V30 3885 H 376.481 3.1499 -2.46214 0
M  V30 3886 H 377.921 3.87588 -1.71905 0
M  V30 3887 C 376.38 3.35301 -0.327812 0
M  V30 3888 O 376.91 3.97511 0.57861 0
M  V30 3889 N 375.116 2.89816 -0.213274 0
M  V30 3890 H 374.663 2.39371 -0.951798 0
M  V30 3891 H 374.621 3.0791 0.63553 0
M  V30 3892 N 378.394 1.34581 0.820102 0
M  V30 3893 C 379.324 1.29038 1.94606 0
M  V30 3894 C 380.305 0.1673 1.69275 0
M  V30 3895 O 381.49 0.360112 1.90832 0
M  V30 3896 C 378.62 1.04793 3.31113 0
M  V30 3897 C 377.574 2.13597 3.70891 0
M  V30 3898 C 376.9 1.74537 5.05412 0
M  V30 3899 C 378.2 3.55451 3.8269 0
M  V30 3900 H 379.894 2.23248 1.99501 0
M  V30 3901 H 377.44 1.0747 0.958449 0
M  V30 3902 H 379.393 0.995592 4.0947 0
M  V30 3903 H 378.117 0.0702565 3.26524 0
M  V30 3904 H 376.776 2.17905 2.9481 0
M  V30 3905 H 376.424 0.754226 4.97313 0
M  V30 3906 H 376.124 2.47361 5.32997 0
M  V30 3907 H 377.648 1.70803 5.86224 0
M  V30 3908 H 379.062 3.5354 4.51312 0
M  V30 3909 H 377.459 4.26922 4.21732 0
M  V30 3910 H 378.529 3.92587 2.84611 0
M  V30 3911 N 379.872 -1.04064 1.18357 0
M  V30 3912 C 380.835 -2.10243 0.912707 0
M  V30 3913 C 381.835 -1.60477 -0.101928 0
M  V30 3914 O 383.025 -1.73703 0.131517 0
M  V30 3915 C 380.157 -3.38893 0.369387 0
M  V30 3916 H 381.35 -2.35706 1.85426 0
M  V30 3917 H 378.903 -1.20489 0.995594 0
M  V30 3918 H 379.638 -3.19094 -0.578776 0
M  V30 3919 H 379.423 -3.76331 1.1008 0
M  V30 3920 H 380.913 -4.17128 0.198575 0
M  V30 3921 N 381.35 -0.985608 -1.22978 0
M  V30 3922 C 382.298 -0.522631 -2.26652 0
M  V30 3923 C 383.292 0.422998 -1.64034 0
M  V30 3924 O 384.498 0.296319 -1.77544 0
M  V30 3925 H 380.873 -0.150597 -0.736766 0
M  V30 3926 H 382.844 -1.40863 -2.63059 0
M  V30 3927 C 381.593 0.154238 -3.47358 0
M  V30 3928 H 380.916 -0.564329 -3.95797 0
M  V30 3929 H 382.356 0.441744 -4.21693 0
M  V30 3930 C 380.815 1.38719 -3.07016 0
M  V30 3931 O 381.345 2.48307 -3.15764 0
M  V30 3932 N 379.551 1.25975 -2.61875 0
M  V30 3933 H 379.098 0.368068 -2.54957 0
M  V30 3934 H 379.056 2.08578 -2.3525 0
M  V30 3935 N 382.828 1.3818 -0.7579 0
M  V30 3936 C 384.105 1.94106 -0.241306 0
M  V30 3937 C 384.485 1.69282 1.26122 0
M  V30 3938 O 383.833 1.03378 2.03777 0
M  V30 3939 C 384.043 3.43809 -0.59967 0
M  V30 3940 C 385.391 4.20868 -0.561717 0
M  V30 3941 O 386.415 3.5211 -0.538222 0
M  V30 3942 O 385.274 5.43451 -0.576478 0
M  V30 3943 H 382.368 0.825376 -0.0518042 0
M  V30 3944 H 384.914 1.47548 -0.838315 0
M  V30 3945 H 383.686 3.55403 -1.6372 0
M  V30 3946 H 383.309 3.97592 0.0251197 0
M  V30 3947 N 384.306 0.507319 1.49211 0
M  V30 3948 C 385.717 0.0611118 1.866 0
M  V30 3949 C 386.068 -1.35488 1.41907 0
M  V30 3950 O 385.193 -2.0108 0.799726 0
M  V30 3951 C 385.788 0.104125 3.3864 0
M  V30 3952 C 384.347 -0.28677 3.75306 0
M  V30 3953 C 383.494 0.473893 2.73221 0
M  V30 3954 H 386.445 0.719775 1.41439 0
M  V30 3955 H 386.466 -0.689672 3.74198 0
M  V30 3956 H 385.978 1.13482 3.71138 0
M  V30 3957 H 384.079 -1.32046 3.48417 0
M  V30 3958 H 384.192 0.0370745 4.79086 0
M  V30 3959 H 382.556 -0.0770644 2.54583 0
M  V30 3960 H 383.339 1.50478 3.08563 0
M  V30 3961 N 385.784 -1.5574 0.241426 0
M  V30 3962 C 387.012 -2.03208 -0.389134 0
M  V30 3963 C 387.427 -1.12082 -1.51931 0
M  V30 3964 O 386.784 -0.134183 -1.82006 0
M  V30 3965 C 386.835 -3.50064 -0.902087 0
M  V30 3966 O 386.556 -4.37717 0.18305 0
M  V30 3967 C 388.057 -4.13268 -1.60389 0
M  V30 3968 H 385.277 -0.664509 -0.0931053 0
M  V30 3969 H 387.821 -2.0124 0.36369 0
M  V30 3970 H 385.976 -3.52583 -1.60511 0
M  V30 3971 H 386.39 -5.24097 -0.205579 0
M  V30 3972 H 387.864 -5.17733 -1.91458 0
M  V30 3973 H 388.341 -3.59434 -2.52397 0
M  V30 3974 H 388.947 -4.14655 -0.945576 0
M  V30 3975 N 387.262 0.0317525 -1.57568 0
M  V30 3976 C 388.511 0.722131 -1.8833 0
M  V30 3977 C 388.824 1.76664 -0.839587 0
M  V30 3978 O 390.03 2.50942 -1.03635 0
M  V30 3979 C 388.486 1.33544 -3.34207 0
M  V30 3980 C 388.094 0.327415 -4.46802 0
M  V30 3981 C 389.838 2.00585 -3.7412 0
M  V30 3982 C 387.745 0.948915 -5.83738 0
M  V30 3983 H 386.675 0.273466 -0.702661 0
M  V30 3984 H 389.326 -0.0235811 -1.83485 0
M  V30 3985 H 387.708 2.13077 -3.33788 0
M  V30 3986 H 388.882 -0.441006 -4.58685 0
M  V30 3987 H 387.197 -0.240758 -4.15703 0
M  V30 3988 H 389.794 2.47932 -4.73744 0
M  V30 3989 H 390.137 2.82285 -3.05975 0
M  V30 3990 H 390.67 1.27831 -3.76702 0
M  V30 3991 H 387.409 0.171387 -6.55276 0
M  V30 3992 H 386.929 1.68724 -5.7558 0
M  V30 3993 H 388.608 1.45705 -6.3038 0
M  V30 3994 N 388.74 1.54641 0.303973 0
M  V30 3995 C 389.65 1.88439 1.39743 0
M  V30 3996 C 390.666 0.778239 1.55626 0
M  V30 3997 O 391.842 1.07442 1.70347 0
M  V30 3998 C 388.907 2.12212 2.74166 0
M  V30 3999 C 387.968 3.35936 2.67293 0
M  V30 4000 C 387.201 3.58566 3.95305 0
M  V30 4001 O 387.424 2.84263 4.9452 0
M  V30 4002 O 386.358 4.52078 3.97378 0
M  V30 4003 H 390.184 2.81458 1.14083 0
M  V30 4004 H 387.769 1.40793 0.499768 0
M  V30 4005 H 389.651 2.29067 3.53704 0
M  V30 4006 H 388.326 1.22379 2.99675 0
M  V30 4007 H 387.233 3.24448 1.86237 0
M  V30 4008 H 388.566 4.2589 2.46736 0
M  V30 4009 N 390.218 -0.567019 1.47046 0
M  V30 4010 C 391.634 -0.891975 1.32348 0
M  V30 4011 C 391.834 -1.99154 0.306616 0
M  V30 4012 O 390.89 -2.50883 -0.28532 0
M  V30 4013 C 392.203 -1.29449 2.7141 0
M  V30 4014 C 393.751 -1.40646 2.79621 0
M  V30 4015 C 394.226 -1.84257 4.19301 0
M  V30 4016 N 395.717 -1.91424 4.21795 0
M  V30 4017 C 396.452 -2.26476 5.26779 0
M  V30 4018 N 395.948 -2.60211 6.42077 0
M  V30 4019 N 397.741 -2.27166 5.14152 0
M  V30 4020 H 389.892 0.159074 2.11803 0
M  V30 4021 H 392.155 0.00849752 0.947962 0
M  V30 4022 H 391.861 -0.560448 3.47206 0
M  V30 4023 H 391.735 -2.25273 3.02542 0
M  V30 4024 H 394.122 -2.13133 2.04104 0
M  V30 4025 H 394.203 -0.430339 2.52154 0
M  V30 4026 H 393.847 -1.12343 4.95319 0
M  V30 4027 H 393.777 -2.82855 4.44185 0
M  V30 4028 H 396.268 -1.6778 3.38612 0
M  V30 4029 H 396.581 -2.85956 7.17948 0
M  V30 4030 H 394.926 -2.57813 6.45413 0
M  V30 4031 H 398.117 -2.00244 4.23107 0
M  V30 4032 H 398.29 -2.54154 5.96079 0
M  V30 4033 N 391.696 -1.35014 -0.812953 0
M  V30 4034 C 392.945 -1.27269 -1.56479 0
M  V30 4035 C 393.258 0.152771 -1.95002 0
M  V30 4036 O 394.464 0.352451 -2.69203 0
M  V30 4037 C 392.92 -2.23159 -2.82362 0
M  V30 4038 C 392.528 -3.71016 -2.511 0
M  V30 4039 C 394.272 -2.24342 -3.60376 0
M  V30 4040 C 392.179 -4.58746 -3.73237 0
M  V30 4041 H 391.109 -0.472829 -0.587324 0
M  V30 4042 H 393.76 -1.6024 -0.894171 0
M  V30 4043 H 392.142 -1.83151 -3.51101 0
M  V30 4044 H 393.316 -4.1962 -1.90409 0
M  V30 4045 H 391.631 -3.72378 -1.86343 0
M  V30 4046 H 394.228 -2.87107 -4.51081 0
M  V30 4047 H 394.571 -1.24542 -3.97234 0
M  V30 4048 H 395.104 -2.62846 -2.98591 0
M  V30 4049 H 391.843 -5.59521 -3.41492 0
M  V30 4050 H 391.363 -4.14871 -4.33176 0
M  V30 4051 H 393.042 -4.73852 -4.40537 0
M  V30 4052 N 393.175 1.03435 -1.18907 0
M  V30 4053 C 394.424 1.76143 -0.982669 0
M  V30 4054 C 394.737 1.89416 0.487953 0
M  V30 4055 O 395.943 2.59041 0.813036 0
M  V30 4056 C 394.399 3.16722 -1.70924 0
M  V30 4057 C 394.007 3.11522 -3.21959 0
M  V30 4058 C 395.751 3.93764 -1.58588 0
M  V30 4059 C 393.658 4.46999 -3.87228 0
M  V30 4060 H 392.588 0.660292 -0.364047 0
M  V30 4061 H 395.239 1.158 -1.42347 0
M  V30 4062 H 393.621 3.775 -1.19623 0
M  V30 4063 H 394.795 2.60158 -3.80335 0
M  V30 4064 H 393.11 2.47978 -3.34508 0
M  V30 4065 H 395.707 4.93963 -2.04707 0
M  V30 4066 H 396.05 4.12794 -0.539142 0
M  V30 4067 H 396.583 3.39576 -2.07203 0
M  V30 4068 H 393.322 4.33174 -4.91976 0
M  V30 4069 H 392.842 4.98441 -3.33642 0
M  V30 4070 H 394.521 5.15898 -3.90459 0
M  V30 4071 N 394.653 0.992116 1.22453 0
M  V30 4072 C 395.881 0.685944 1.95198 0
M  V30 4073 C 396.296 -0.749233 1.73297 0
M  V30 4074 O 395.653 -1.50549 1.03156 0
M  V30 4075 C 395.704 0.981395 3.47924 0
M  V30 4076 O 395.425 2.36018 3.6909 0
M  V30 4077 C 396.926 0.692815 4.37853 0
M  V30 4078 H 394.146 0.253821 0.621141 0
M  V30 4079 H 396.69 1.32668 1.55626 0
M  V30 4080 H 394.845 0.386481 3.85467 0
M  V30 4081 H 395.259 2.45884 4.63294 0
M  V30 4082 H 396.733 0.949818 5.43767 0
M  V30 4083 H 397.21 -0.373181 4.37612 0
M  V30 4084 H 397.816 1.26874 4.05935 0
M  V30 4085 N 396.131 -1.37776 0.765217 0
M  V30 4086 C 397.542 -1.82521 0.392819 0
M  V30 4087 C 397.893 -1.63789 -1.08017 0
M  V30 4088 O 397.018 -1.14542 -1.83601 0
M  V30 4089 C 397.613 -3.31358 0.706214 0
M  V30 4090 C 396.172 -3.74406 0.386952 0
M  V30 4091 C 395.319 -2.60394 0.953422 0
M  V30 4092 H 398.27 -1.2634 0.960412 0
M  V30 4093 H 398.291 -3.80498 -0.0114706 0
M  V30 4094 H 397.803 -3.44959 1.77833 0
M  V30 4095 H 395.904 -3.66377 -0.678112 0
M  V30 4096 H 396.017 -4.70749 0.890636 0
M  V30 4097 H 394.381 -2.51878 0.378064 0
M  V30 4098 H 395.164 -2.76791 2.03081 0
M  V30 4099 N 397.609 -0.515225 -1.4894 0
M  V30 4100 C 399.025 -0.172099 -1.58669 0
M  V30 4101 C 399.225 1.32405 -1.51892 0
M  V30 4102 O 398.281 2.10116 -1.40027 0
M  V30 4103 C 399.594 -0.761533 -2.90897 0
M  V30 4104 C 401.142 -0.728926 -3.04394 0
M  V30 4105 C 401.617 -1.29667 -4.39261 0
M  V30 4106 N 403.108 -1.25799 -4.4579 0
M  V30 4107 C 403.843 -1.66733 -5.48623 0
M  V30 4108 N 403.339 -2.15327 -6.58488 0
M  V30 4109 N 405.132 -1.58061 -5.39419 0
M  V30 4110 H 397.283 -1.48778 -1.51588 0
M  V30 4111 H 399.546 -0.617968 -0.718901 0
M  V30 4112 H 399.252 -1.81136 -3.01468 0
M  V30 4113 H 399.126 -0.230106 -3.76497 0
M  V30 4114 H 401.513 0.312098 -2.93445 0
M  V30 4115 H 401.594 -1.29766 -2.20442 0
M  V30 4116 H 401.238 -2.33655 -4.50963 0
M  V30 4117 H 401.168 -0.703752 -5.21876 0
M  V30 4118 H 403.659 -0.902102 -3.66975 0
M  V30 4119 H 403.972 -2.44594 -7.33071 0
M  V30 4120 H 402.317 -2.19311 -6.59491 0
M  V30 4121 H 405.508 -1.19906 -4.52482 0
M  V30 4122 H 405.681 -1.90284 -6.19432 0
M  V30 4123 N 399.087 1.5561 -0.249682 0
M  V30 4124 C 400.017 2.24477 0.642826 0
M  V30 4125 C 400.998 1.22601 1.17911 0
M  V30 4126 O 402.183 1.5126 1.21795 0
M  V30 4127 C 399.313 2.94638 1.83863 0
M  V30 4128 C 398.267 4.03227 1.435 0
M  V30 4129 C 397.593 4.60828 2.71186 0
M  V30 4130 C 398.893 5.18796 0.604002 0
M  V30 4131 H 400.587 2.99321 0.0685625 0
M  V30 4132 H 398.133 1.43965 0.0315363 0
M  V30 4133 H 400.086 3.41517 2.46868 0
M  V30 4134 H 398.81 2.17287 2.43832 0
M  V30 4135 H 397.469 3.57121 0.828275 0
M  V30 4136 H 397.117 3.80174 3.29358 0
M  V30 4137 H 396.817 5.34132 2.44901 0
M  V30 4138 H 398.341 5.10442 3.35084 0
M  V30 4139 H 399.755 5.61883 1.13842 0
M  V30 4140 H 398.152 5.98506 0.437097 0
M  V30 4141 H 399.222 4.83384 -0.383147 0
M  V30 4142 N 400.565 -0.0233959 1.57583 0
M  V30 4143 C 401.528 -1.00693 2.05897 0
M  V30 4144 C 402.528 -1.28693 0.964092 0
M  V30 4145 O 403.718 -1.23602 1.22753 0
M  V30 4146 C 400.85 -2.33825 2.4807 0
M  V30 4147 H 402.043 -0.589476 2.9405 0
M  V30 4148 H 399.596 -0.270354 1.53944 0
M  V30 4149 H 400.331 -2.80307 1.6309 0
M  V30 4150 H 400.116 -2.1483 3.2801 0
M  V30 4151 H 401.606 -3.04426 2.85857 0
M  V30 4152 N 402.043 -1.548 -0.295768 0
M  V30 4153 C 402.973 -1.89115 -1.36959 0
M  V30 4154 C 403.954 -0.75059 -1.52644 0
M  V30 4155 O 405.139 -1.00678 -1.66065 0
M  V30 4156 C 402.269 -2.14307 -2.73295 0
M  V30 4157 C 401.223 -3.30151 -2.72368 0
M  V30 4158 C 400.549 -3.40772 -4.12042 0
M  V30 4159 C 401.849 -4.67126 -2.33646 0
M  V30 4160 H 403.543 -2.79053 -1.08488 0
M  V30 4161 H 401.089 -1.34266 -0.520443 0
M  V30 4162 H 403.042 -2.36898 -3.48507 0
M  V30 4163 H 401.766 -1.21145 -3.03301 0
M  V30 4164 H 400.425 -3.0749 -1.99613 0
M  V30 4165 H 400.073 -2.45117 -4.39234 0
M  V30 4166 H 399.773 -4.18645 -4.12322 0
M  V30 4167 H 401.297 -3.6563 -4.89027 0
M  V30 4168 H 402.711 -4.89414 -2.98575 0
M  V30 4169 H 401.108 -5.47751 -2.45129 0
M  V30 4170 H 402.178 -4.67489 -1.28772 0
M  V30 4171 N 403.521 0.559213 -1.47345 0
M  V30 4172 C 404.749 1.34194 -1.57479 0
M  V30 4173 C 405.164 1.87463 -0.224261 0
M  V30 4174 O 404.521 1.64888 0.782185 0
M  V30 4175 C 404.572 2.51324 -2.59843 0
M  V30 4176 O 404.293 2.00256 -3.89653 0
M  V30 4177 C 405.794 3.43563 -2.80142 0
M  V30 4178 H 403.014 0.409136 -0.531835 0
M  V30 4179 H 405.558 0.677609 -1.92947 0
M  V30 4180 H 403.713 3.13699 -2.27314 0
M  V30 4181 H 404.127 2.76708 -4.4557 0
M  V30 4182 H 405.601 4.2217 -3.55635 0
M  V30 4183 H 406.078 3.9698 -1.87892 0
M  V30 4184 H 406.684 2.87005 -3.1386 0
M  V30 4185 N 404.999 1.35443 0.805782 0
M  V30 4186 C 406.227 1.31878 1.59423 0
M  V30 4187 C 406.642 -0.103562 1.88516 0
M  V30 4188 O 405.999 -1.05575 1.48863 0
M  V30 4189 C 406.05 2.12426 2.92502 0
M  V30 4190 O 405.771 3.49115 2.6467 0
M  V30 4191 C 407.272 2.16455 3.86862 0
M  V30 4192 H 404.492 0.453002 0.495005 0
M  V30 4193 H 407.036 1.78309 1.00131 0
M  V30 4194 H 405.191 1.69593 3.48306 0
M  V30 4195 H 405.605 3.90957 3.49647 0
M  V30 4196 H 407.079 2.77204 4.77349 0
M  V30 4197 H 407.556 1.16352 4.23508 0
M  V30 4198 H 408.162 2.59453 3.36993 0
M  V30 4199 N 406.477 -1.02803 1.19454 0
M  V30 4200 C 407.44 -2.09264 0.934955 0
M  V30 4201 C 408.44 -1.60576 -0.0849015 0
M  V30 4202 O 409.63 -1.73554 0.149933 0
M  V30 4203 C 406.762 -3.38482 0.40531 0
M  V30 4204 H 407.955 -2.33726 1.87916 0
M  V30 4205 H 405.508 -1.19426 1.00832 0
M  V30 4206 H 406.243 -3.19689 -0.544899 0
M  V30 4207 H 406.028 -3.75142 1.14065 0
M  V30 4208 H 407.518 -4.16894 0.242806 0
M  V30 4209 N 407.956 -0.998596 -1.21925 0
M  V30 4210 C 408.866 -0.562736 -2.27751 0
M  V30 4211 C 409.882 0.391203 -1.69545 0
M  V30 4212 O 411.058 0.256625 -1.99758 0
M  V30 4213 C 408.123 0.11012 -3.46525 0
M  V30 4214 C 407.184 -0.887495 -4.20026 0
M  V30 4215 C 406.417 -0.246654 -5.3313 0
M  V30 4216 O 406.64 0.958088 -5.62296 0
M  V30 4217 O 405.574 -0.954374 -5.94286 0
M  V30 4218 H 409.4 -1.44329 -2.67213 0
M  V30 4219 H 406.985 -0.767135 -1.28201 0
M  V30 4220 H 408.867 0.486756 -4.18579 0
M  V30 4221 H 407.542 0.965154 -3.08976 0
M  V30 4222 H 406.449 -1.31517 -3.5022 0
M  V30 4223 H 407.782 -1.71191 -4.6147 0
M  V30 4224 N 409.434 1.37368 -0.772513 0
M  V30 4225 C 410.681 1.99673 -0.337182 0
M  V30 4226 C 411.009 1.61324 1.0865 0
M  V30 4227 O 410.264 0.851377 1.7621 0
M  V30 4228 C 410.563 3.54817 -0.428876 0
M  V30 4229 C 410.229 4.12936 -1.81092 0
M  V30 4230 C 408.891 4.28523 -2.1891 0
M  V30 4231 C 411.243 4.44801 -2.71664 0
M  V30 4232 C 408.571 4.73277 -3.46735 0
M  V30 4233 C 410.923 4.90981 -3.98899 0
M  V30 4234 C 409.587 5.04773 -4.36761 0
M  V30 4235 H 408.857 0.730656 -0.123384 0
M  V30 4236 H 411.504 1.64124 -0.986686 0
M  V30 4237 H 409.809 3.90618 0.304167 0
M  V30 4238 H 411.506 4.00933 -0.0733334 0
M  V30 4239 H 408.096 4.01233 -1.50699 0
M  V30 4240 H 412.28 4.32344 -2.43706 0
M  V30 4241 H 407.536 4.82142 -3.75964 0
M  V30 4242 H 411.71 5.14603 -4.69208 0
M  V30 4243 H 409.337 5.39211 -5.35868 0
M  V30 4244 N 410.912 0.523116 1.48665 0
M  V30 4245 C 411.842 -0.23231 2.32342 0
M  V30 4246 C 412.823 -0.941637 1.41659 0
M  V30 4247 O 414.008 -0.928751 1.70552 0
M  V30 4248 C 411.138 -1.28387 3.22698 0
M  V30 4249 C 410.092 -0.693098 4.22351 0
M  V30 4250 C 409.418 -1.8468 5.01794 0
M  V30 4251 C 410.718 0.33063 5.21252 0
M  V30 4252 H 412.412 0.466192 2.95748 0
M  V30 4253 H 409.958 0.225643 1.42221 0
M  V30 4254 H 411.911 -1.82024 3.80059 0
M  V30 4255 H 410.635 -2.01186 2.57278 0
M  V30 4256 H 409.294 -0.178299 3.66166 0
M  V30 4257 H 408.942 -2.56301 4.32804 0
M  V30 4258 H 408.642 -1.45747 5.69238 0
M  V30 4259 H 410.166 -2.38709 5.62006 0
M  V30 4260 H 411.58 -0.118407 5.73178 0
M  V30 4261 H 409.977 0.636974 5.9671 0
M  V30 4262 H 411.047 1.23883 4.68808 0
M  V30 4263 N 412.39 -1.55475 0.257931 0
M  V30 4264 C 413.353 -2.20551 -0.623706 0
M  V30 4265 C 414.353 -1.17809 -1.09443 0
M  V30 4266 O 415.543 -1.42823 -0.997362 0
M  V30 4267 C 412.675 -2.85784 -1.8585 0
M  V30 4268 H 413.868 -2.99848 -0.0557743 0
M  V30 4269 H 411.421 -1.56298 0.0084422 0
M  V30 4270 H 412.156 -2.10453 -2.46739 0
M  V30 4271 H 411.941 -3.61057 -1.52907 0
M  V30 4272 H 413.431 -3.35553 -2.48584 0
M  V30 4273 N 413.868 0.0150385 -1.57593 0
M  V30 4274 C 415.098 0.713359 -1.93894 0
M  V30 4275 C 415.506 1.68663 -0.857289 0
M  V30 4276 O 414.849 1.82876 0.173788 0
M  V30 4277 C 414.911 1.51348 -3.26089 0
M  V30 4278 C 414.575 0.703451 -4.51554 0
M  V30 4279 C 415.572 -0.00237924 -5.199 0
M  V30 4280 C 413.257 0.653854 -4.98026 0
M  V30 4281 C 415.251 -0.746955 -6.33008 0
M  V30 4282 C 412.938 -0.0944578 -6.11027 0
M  V30 4283 C 413.936 -0.793609 -6.78374 0
M  V30 4284 O 413.624 -1.52974 -7.89211 0
M  V30 4285 H 413.356 0.204637 -0.644282 0
M  V30 4286 H 415.91 -0.0276411 -2.05381 0
M  V30 4287 H 414.14 2.29862 -3.10967 0
M  V30 4288 H 415.829 2.09572 -3.47612 0
M  V30 4289 H 416.595 0.0268803 -4.84993 0
M  V30 4290 H 412.474 1.18756 -4.45441 0
M  V30 4291 H 416.018 -1.2932 -6.85509 0
M  V30 4292 H 411.915 -0.125591 -6.45378 0
M  V30 4293 H 412.683 -1.44488 -8.05646 0
M  V30 4294 N 415.346 1.54954 0.287554 0
M  V30 4295 C 416.278 1.83224 1.37701 0
M  V30 4296 C 417.291 0.715898 1.46215 0
M  V30 4297 O 418.48 0.993565 1.48292 0
M  V30 4298 C 415.58 1.96723 2.75959 0
M  V30 4299 C 414.753 3.27253 2.90215 0
M  V30 4300 C 413.812 3.30998 4.09056 0
M  V30 4301 O 412.838 4.04457 4.00503 0
M  V30 4302 N 414.04 2.57353 5.20336 0
M  V30 4303 H 416.805 2.77254 1.138 0
M  V30 4304 H 414.366 1.54694 0.477652 0
M  V30 4305 H 416.358 1.96615 3.5373 0
M  V30 4306 H 414.928 1.09626 2.92747 0
M  V30 4307 H 414.148 3.40022 1.99447 0
M  V30 4308 H 415.436 4.13365 2.96659 0
M  V30 4309 H 414.834 1.97327 5.30169 0
M  V30 4310 H 413.391 2.62984 5.96391 0
M  V30 4311 N 416.824 -0.551391 1.4764 0
M  V30 4312 C 418.064 -1.31901 1.56145 0
M  V30 4313 C 418.428 -1.90724 0.221013 0
M  V30 4314 O 419.629 -2.6819 0.180945 0
M  V30 4315 C 417.9 -2.39517 2.65267 0
M  V30 4316 S 419.459 -3.26289 2.93395 0
M  V30 4317 H 416.277 -0.448965 0.551318 0
M  V30 4318 H 418.879 -0.630599 1.85051 0
M  V30 4319 H 417.583 -1.94747 3.6125 0
M  V30 4320 H 417.114 -3.13092 2.38195 0
M  V30 4321 H 419.129 -4.39122 2.31055 0
M  V30 4322 N 418.302 -1.35869 -0.798587 0
M  V30 4323 C 419.212 -1.31578 -1.94228 0
M  V30 4324 C 420.228 -0.21939 -1.72611 0
M  V30 4325 O 421.404 -0.450167 -1.96305 0
M  V30 4326 C 418.469 -1.09528 -3.28944 0
M  V30 4327 C 417.53 -2.28556 -3.63402 0
M  V30 4328 C 416.763 -2.07549 -4.9169 0
M  V30 4329 O 416.986 -1.046 -5.60727 0
M  V30 4330 O 415.92 -2.95106 -5.24591 0
M  V30 4331 H 419.746 -2.27847 -2.00796 0
M  V30 4332 H 417.331 -1.16322 -0.937526 0
M  V30 4333 H 419.213 -0.991127 -4.09579 0
M  V30 4334 H 417.888 -0.16315 -3.23289 0
M  V30 4335 H 416.795 -2.44538 -2.83112 0
M  V30 4336 H 418.128 -3.20244 -3.73771 0
M  V30 4337 N 419.78 1.02168 -1.19998 0
M  V30 4338 C 420.727 2.10601 -0.944228 0
M  V30 4339 C 421.697 1.65639 0.123664 0
M  V30 4340 O 422.882 1.9079 -0.0199941 0
M  V30 4341 C 420.022 3.41504 -0.496865 0
M  V30 4342 C 419.135 3.99973 -1.63234 0
M  V30 4343 C 418.27 5.18915 -1.13579 0
M  V30 4344 C 417.309 5.69456 -2.24468 0
M  V30 4345 N 416.446 6.79665 -1.76068 0
M  V30 4346 H 421.286 2.31814 -1.8726 0
M  V30 4347 H 418.823 1.13686 -0.933483 0
M  V30 4348 H 420.781 4.16626 -0.218843 0
M  V30 4349 H 419.411 3.2038 0.394508 0
M  V30 4350 H 418.463 3.21997 -2.0254 0
M  V30 4351 H 419.775 4.33492 -2.46752 0
M  V30 4352 H 418.929 6.01222 -0.813429 0
M  V30 4353 H 417.668 4.8695 -0.270434 0
M  V30 4354 H 416.673 4.85757 -2.57526 0
M  V30 4355 H 417.898 6.03459 -3.11472 0
M  V30 4356 H 415.844 6.49538 -0.918516 0
M  V30 4357 H 415.761 7.12349 -2.5317 0
M  V30 4358 H 417.029 7.65549 -1.46817 0
M  V30 4359 N 421.258 1.00505 1.21394 0
M  V30 4360 C 422.208 0.536503 2.21598 0
M  V30 4361 C 423.192 -0.401914 1.55799 0
M  V30 4362 O 424.384 -0.226757 1.75541 0
M  V30 4363 C 421.513 -0.135446 3.43033 0
M  V30 4364 C 420.599 0.823992 4.16018 0
M  V30 4365 N 420.99 1.97683 4.6557 0
M  V30 4366 C 419.288 0.642387 4.4135 0
M  V30 4367 C 419.989 2.58003 5.21354 0
M  V30 4368 N 418.965 1.86162 5.1073 0
M  V30 4369 H 422.767 1.41557 2.57563 0
M  V30 4370 H 420.281 0.868878 1.37202 0
M  V30 4371 H 422.278 -0.488584 4.14027 0
M  V30 4372 H 420.938 -1.01049 3.08576 0
M  V30 4373 H 421.949 2.3572 4.61147 0
M  V30 4374 H 418.626 -0.185578 4.17087 0
M  V30 4375 H 420.016 3.555 5.70149 0
M  V30 4376 N 422.737 -1.36956 0.779787 0
M  V30 4377 C 423.983 -1.99787 0.348281 0
M  V30 4378 C 424.316 -1.61756 -1.07465 0
M  V30 4379 O 423.591 -0.867639 -1.74075 0
M  V30 4380 C 423.874 -3.56597 0.50104 0
M  V30 4381 C 423.727 -4.04513 1.96697 0
M  V30 4382 C 425.046 -4.40008 -0.0898097 0
M  V30 4383 H 422.165 -0.725796 0.128022 0
M  V30 4384 H 424.807 -1.62514 0.984331 0
M  V30 4385 H 422.957 -3.88479 -0.0404347 0
M  V30 4386 H 424.629 -3.83161 2.56876 0
M  V30 4387 H 422.872 -3.56408 2.47297 0
M  V30 4388 H 423.543 -5.1352 2.02486 0
M  V30 4389 H 426.019 -4.14431 0.372293 0
M  V30 4390 H 424.895 -5.4888 0.0471605 0
M  V30 4391 H 425.156 -4.26035 -1.18096 0
M  V30 4392 N 424.215 -0.530993 -1.48385 0
M  V30 4393 C 425.145 0.219985 -2.32461 0
M  V30 4394 C 426.126 0.934111 -1.42156 0
M  V30 4395 O 427.311 0.919694 -1.71042 0
M  V30 4396 C 424.441 1.26674 -3.23375 0
M  V30 4397 C 423.395 0.67069 -4.22712 0
M  V30 4398 C 422.721 1.82017 -5.02766 0
M  V30 4399 C 424.021 -0.358268 -5.2107 0
M  V30 4400 H 425.715 -0.48187 -2.95497 0
M  V30 4401 H 423.261 -0.233182 -1.42099 0
M  V30 4402 H 425.214 1.80006 -3.81019 0
M  V30 4403 H 423.938 1.99818 -2.58341 0
M  V30 4404 H 422.597 0.158878 -3.66256 0
M  V30 4405 H 422.245 2.54002 -4.34157 0
M  V30 4406 H 421.945 1.42727 -5.70003 0
M  V30 4407 H 423.469 2.35725 -5.63264 0
M  V30 4408 H 424.883 0.0880081 -5.73232 0
M  V30 4409 H 423.28 -0.66861 -5.96364 0
M  V30 4410 H 424.35 -1.26367 -4.68145 0
M  V30 4411 N 425.693 1.55336 -0.266172 0
M  V30 4412 C 426.939 1.99692 0.353681 0
M  V30 4413 C 427.272 1.1543 1.56172 0
M  V30 4414 O 426.547 0.222218 1.93226 0
M  V30 4415 C 426.83 3.52316 0.74466 0
M  V30 4416 C 426.683 4.47337 -0.470101 0
M  V30 4417 C 428.002 4.10588 1.58447 0
M  V30 4418 H 425.121 0.725961 0.12708 0
M  V30 4419 H 427.763 1.86336 -0.371333 0
M  V30 4420 H 425.913 3.63829 1.36239 0
M  V30 4421 H 427.585 4.4778 -1.10864 0
M  V30 4422 H 425.828 4.19364 -1.10978 0
M  V30 4423 H 426.499 5.51788 -0.15291 0
M  V30 4424 H 428.975 4.02297 1.06286 0
M  V30 4425 H 427.851 5.17607 1.82686 0
M  V30 4426 H 428.112 3.60253 2.56262 0
M  V30 4427 N 427.171 -0.0066808 1.57599 0
M  V30 4428 C 428.42 -0.692078 1.89455 0
M  V30 4429 C 428.733 -1.75306 0.867586 0
M  V30 4430 O 429.939 -2.49262 1.07614 0
M  V30 4431 C 428.395 -1.2821 3.36289 0
M  V30 4432 C 428.003 -0.256291 4.47266 0
M  V30 4433 C 429.747 -1.94608 3.77264 0
M  V30 4434 C 427.654 -0.855927 5.85173 0
M  V30 4435 H 426.584 -0.262252 0.706923 0
M  V30 4436 H 429.235 0.052769 1.83424 0
M  V30 4437 H 427.617 -2.0774 3.37135 0
M  V30 4438 H 428.791 0.513923 4.57925 0
M  V30 4439 H 427.106 0.306862 4.15268 0
M  V30 4440 H 429.703 -2.40364 4.77629 0
M  V30 4441 H 430.046 -2.77382 3.10427 0
M  V30 4442 H 430.579 -1.21822 3.78688 0
M  V30 4443 H 427.318 -0.0671161 6.55466 0
M  V30 4444 H 426.838 -1.59546 5.78191 0
M  V30 4445 H 428.517 -1.35658 6.32618 0
M  V30 4446 N 428.649 -1.55105 -0.279332 0
M  V30 4447 C 429.579 -1.90557 -1.34945 0
M  V30 4448 C 430.56 -0.766738 -1.51839 0
M  V30 4449 O 431.745 -1.02434 -1.64988 0
M  V30 4450 C 428.875 -2.17193 -2.71006 0
M  V30 4451 C 427.829 -3.33021 -2.68851 0
M  V30 4452 C 427.155 -3.45123 -4.08405 0
M  V30 4453 C 428.455 -4.69578 -2.28678 0
M  V30 4454 H 430.149 -2.80188 -1.05522 0
M  V30 4455 H 427.695 -1.34811 -0.506173 0
M  V30 4456 H 429.648 -2.40581 -3.45975 0
M  V30 4457 H 428.372 -1.24355 -3.01999 0
M  V30 4458 H 427.031 -3.0959 -1.9634 0
M  V30 4459 H 426.679 -2.49762 -4.3661 0
M  V30 4460 H 426.379 -4.22995 -4.07859 0
M  V30 4461 H 427.903 -3.70796 -4.85121 0
M  V30 4462 H 429.317 -4.92553 -2.93368 0
M  V30 4463 H 427.714 -5.5032 -2.39306 0
M  V30 4464 H 428.784 -4.68828 -1.23807 0
M  V30 4465 N 430.127 0.543554 -1.4793 0
M  V30 4466 C 431.355 1.32516 -1.58894 0
M  V30 4467 C 431.77 1.87215 -0.244131 0
M  V30 4468 O 431.127 1.65709 0.764652 0
M  V30 4469 C 431.178 2.48554 -2.62494 0
M  V30 4470 O 430.899 1.96112 -3.91755 0
M  V30 4471 C 432.4 3.40572 -2.8377 0
M  V30 4472 H 429.62 0.403472 -0.536145 0
M  V30 4473 H 432.164 0.657106 -1.93655 0
M  V30 4474 H 430.319 3.1127 -2.30629 0
M  V30 4475 H 430.733 2.71967 -4.4848 0
M  V30 4476 H 432.207 4.18375 -3.60093 0
M  V30 4477 H 432.684 3.94965 -1.92092 0
M  V30 4478 H 433.29 2.8366 -3.16887 0
M  V30 4479 N 431.605 1.3629 0.791371 0
M  V30 4480 C 432.882 1.20962 1.53712 0
M  V30 4481 C 433.262 -0.205021 2.10102 0
M  V30 4482 O 432.61 -1.21042 1.93807 0
M  V30 4483 C 432.82 2.29002 2.63361 0
M  V30 4484 C 434.168 2.65572 3.31295 0
M  V30 4485 O 435.192 2.2803 2.73643 0
M  V30 4486 O 434.051 3.3018 4.35481 0
M  V30 4487 H 431.145 0.47086 0.679867 0
M  V30 4488 H 433.691 1.48016 0.830021 0
M  V30 4489 H 432.463 3.2382 2.19674 0
M  V30 4490 H 432.086 2.03303 3.41692 0
M  V30 4491 N 433.083 -1.0153 1.20538 0
M  V30 4492 C 434.016 -2.09759 0.898695 0
M  V30 4493 C 434.994 -1.61909 -0.149733 0
M  V30 4494 O 436.178 -1.88486 -0.0230293 0
M  V30 4495 C 433.305 -3.36913 0.347512 0
M  V30 4496 C 432.351 -4.03655 1.37713 0
M  V30 4497 S 433.184 -4.47402 2.94265 0
M  V30 4498 C 434.34 -5.77756 2.40726 0
M  V30 4499 H 434.573 -2.3545 1.81523 0
M  V30 4500 H 432.106 -1.14665 1.03399 0
M  V30 4501 H 434.064 -4.10484 0.0360518 0
M  V30 4502 H 432.725 -3.09291 -0.547546 0
M  V30 4503 H 431.918 -4.9514 0.940872 0
M  V30 4504 H 431.52 -3.36313 1.63614 0
M  V30 4505 H 433.812 -6.52994 1.80569 0
M  V30 4506 H 434.755 -6.2618 3.30612 0
M  V30 4507 H 435.163 -5.34081 1.82806 0
M  V30 4508 N 434.561 -1.01147 -1.20859 0
M  V30 4509 C 435.786 -0.716698 -1.94623 0
M  V30 4510 C 436.211 0.715415 -1.73964 0
M  V30 4511 O 435.569 1.49157 -1.03062 0
M  V30 4512 C 435.617 -1.0513 -3.44935 0
M  V30 4513 O 434.721 -0.160131 -4.12089 0
M  V30 4514 H 434.062 -0.266404 -0.608214 0
M  V30 4515 H 436.592 -1.35346 -1.53436 0
M  V30 4516 H 436.602 -1.00086 -3.95533 0
M  V30 4517 H 435.277 -2.09475 -3.59295 0
M  V30 4518 H 433.854 -0.267657 -3.71938 0
M  V30 4519 N 436.039 1.36541 -0.78704 0
M  V30 4520 C 437.264 2.0409 -0.369053 0
M  V30 4521 C 437.689 1.58957 1.00569 0
M  V30 4522 O 437.047 0.756926 1.64743 0
M  V30 4523 C 437.095 3.57924 -0.438466 0
M  V30 4524 O 436.199 4.08642 0.555479 0
M  V30 4525 H 435.54 0.645142 -0.157122 0
M  V30 4526 H 438.07 1.74545 -1.06749 0
M  V30 4527 H 438.08 4.06887 -0.301218 0
M  V30 4528 H 436.755 3.90127 -1.44132 0
M  V30 4529 H 435.332 3.70958 0.380088 0
M  V30 4530 N 437.518 0.538854 1.48102 0
M  V30 4531 C 438.748 0.0122958 2.06596 0
M  V30 4532 C 439.156 -1.27861 1.39457 0
M  V30 4533 O 438.499 -1.77348 0.478907 0
M  V30 4534 C 438.561 -0.273131 3.58461 0
M  V30 4535 C 438.225 0.92561 4.47528 0
M  V30 4536 C 439.222 1.82637 4.86765 0
M  V30 4537 C 436.907 1.13511 4.89306 0
M  V30 4538 C 438.901 2.92047 5.66558 0
M  V30 4539 C 436.588 2.23233 5.68868 0
M  V30 4540 C 437.586 3.12333 6.07402 0
M  V30 4541 O 437.274 4.20155 6.85365 0
M  V30 4542 H 437.006 0.0344283 0.675123 0
M  V30 4543 H 439.56 0.746494 1.91355 0
M  V30 4544 H 437.79 -1.06141 3.71848 0
M  V30 4545 H 439.479 -0.742842 3.99045 0
M  V30 4546 H 440.245 1.67649 4.55103 0
M  V30 4547 H 436.124 0.450835 4.5879 0
M  V30 4548 H 439.668 3.6162 5.96554 0
M  V30 4549 H 435.565 2.38201 5.99942 0
M  V30 4550 H 436.333 4.17975 7.03732 0
M  V30 4551 N 438.996 -1.55193 0.274407 0
M  V30 4552 C 439.959 -2.212 -0.600279 0
M  V30 4553 C 440.959 -1.18963 -1.08187 0
M  V30 4554 O 442.149 -1.43873 -0.982158 0
M  V30 4555 C 439.281 -2.87739 -1.82809 0
M  V30 4556 H 440.474 -2.9989 -0.0239682 0
M  V30 4557 H 438.027 -1.5628 0.0250192 0
M  V30 4558 H 438.762 -2.13058 -2.44493 0
M  V30 4559 H 438.547 -3.62658 -1.49069 0
M  V30 4560 H 440.037 -3.38171 -2.45011 0
M  V30 4561 N 440.474 -0.00167713 -1.576 0
M  V30 4562 C 441.384 1.00548 -2.1196 0
M  V30 4563 C 442.4 1.3758 -1.06526 0
M  V30 4564 O 443.576 1.46278 -1.38436 0
M  V30 4565 C 440.641 2.27809 -2.6135 0
M  V30 4566 C 439.702 1.97074 -3.81393 0
M  V30 4567 C 438.935 3.18267 -4.28417 0
M  V30 4568 O 439.158 4.30009 -3.74765 0
M  V30 4569 O 438.092 3.02167 -5.20556 0
M  V30 4570 H 441.918 0.573373 -2.98238 0
M  V30 4571 H 439.503 0.217255 -1.47812 0
M  V30 4572 H 441.385 3.02568 -2.93309 0
M  V30 4573 H 440.06 2.70254 -1.78169 0
M  V30 4574 H 438.967 1.19785 -3.54404 0
M  V30 4575 H 440.3 1.59464 -4.65652 0
M  V30 4576 N 441.952 1.55251 0.271103 0
M  V30 4577 C 442.915 1.87484 1.31842 0
M  V30 4578 C 443.915 0.749545 1.42262 0
M  V30 4579 O 445.105 1.01771 1.4138 0
M  V30 4580 C 442.237 2.0818 2.69951 0
M  V30 4581 H 443.43 2.81108 1.0449 0
M  V30 4582 H 440.983 1.47771 0.509258 0
M  V30 4583 H 441.718 1.16944 3.02481 0
M  V30 4584 H 441.503 2.90114 2.63774 0
M  V30 4585 H 442.993 2.34385 3.4562 0
M  V30 4586 N 443.43 -0.535701 1.48216 0
M  V30 4587 C 444.36 -1.65014 1.65204 0
M  V30 4588 C 445.341 -1.62554 0.501011 0
M  V30 4589 O 446.526 -1.7984 0.732886 0
M  V30 4590 C 443.656 -3.03616 1.68626 0
M  V30 4591 C 442.61 -3.20932 2.83172 0
M  V30 4592 C 441.936 -4.60537 2.71679 0
M  V30 4593 C 443.236 -3.04249 4.24535 0
M  V30 4594 H 444.93 -1.51053 2.58502 0
M  V30 4595 H 442.476 -0.725262 1.24402 0
M  V30 4596 H 444.429 -3.81446 1.79099 0
M  V30 4597 H 443.153 -3.18587 0.719026 0
M  V30 4598 H 441.812 -2.45517 2.72244 0
M  V30 4599 H 441.46 -4.72336 1.72937 0
M  V30 4600 H 441.16 -4.73069 3.48538 0
M  V30 4601 H 442.684 -5.40475 2.84112 0
M  V30 4602 H 444.098 -3.71877 4.36326 0
M  V30 4603 H 442.495 -3.28278 5.02348 0
M  V30 4604 H 443.565 -2.00739 4.41397 0
M  V30 4605 N 444.908 -1.36708 -0.784132 0
M  V30 4606 C 446.324 -1.17237 -1.08294 0
M  V30 4607 C 446.524 -5.93947e-05 -2.015 0
M  V30 4608 O 445.58 0.663686 -2.43622 0
M  V30 4609 C 446.893 -2.48557 -1.69233 0
M  V30 4610 C 448.441 -2.54968 -1.8155 0
M  V30 4611 C 448.916 -3.86388 -2.45904 0
M  V30 4612 N 450.407 -3.87762 -2.53367 0
M  V30 4613 C 451.142 -4.86191 -3.03983 0
M  V30 4614 N 450.638 -5.95015 -3.54866 0
M  V30 4615 N 452.431 -4.73606 -3.02743 0
M  V30 4616 H 444.582 -2.11758 -0.16501 0
M  V30 4617 H 446.845 -0.93822 -0.135822 0
M  V30 4618 H 446.551 -3.34638 -1.08215 0
M  V30 4619 H 446.425 -2.64748 -2.68679 0
M  V30 4620 H 448.812 -1.69302 -2.41704 0
M  V30 4621 H 448.893 -2.42672 -0.80895 0
M  V30 4622 H 448.537 -4.72462 -1.86392 0
M  V30 4623 H 448.467 -3.95982 -3.4714 0
M  V30 4624 H 450.958 -3.09145 -2.17343 0
M  V30 4625 H 451.271 -6.66086 -3.91854 0
M  V30 4626 H 449.616 -5.98676 -3.53003 0
M  V30 4627 H 452.807 -3.87717 -2.62284 0
M  V30 4628 H 452.98 -5.50473 -3.41881 0
M  V30 4629 N 446.386 1.0089 -1.21074 0
M  V30 4630 C 447.296 2.13039 -0.982425 0
M  V30 4631 C 448.312 1.73881 0.0642161 0
M  V30 4632 O 449.488 2.01012 -0.12496 0
M  V30 4633 C 446.553 3.42377 -0.545803 0
M  V30 4634 C 445.614 3.95731 -1.6642 0
M  V30 4635 C 444.847 5.18896 -1.24832 0
M  V30 4636 O 445.07 5.70273 -0.120265 0
M  V30 4637 O 444.004 5.65597 -2.05873 0
M  V30 4638 H 447.83 2.35175 -1.92163 0
M  V30 4639 H 445.415 1.1142 -0.995285 0
M  V30 4640 H 447.297 4.20244 -0.311912 0
M  V30 4641 H 445.972 3.21639 0.364727 0
M  V30 4642 H 444.879 3.19108 -1.95246 0
M  V30 4643 H 446.212 4.20872 -2.55201 0
M  V30 4644 N 447.864 1.01787 1.20321 0
M  V30 4645 C 449.11 0.708985 1.90003 0
M  V30 4646 C 449.443 -0.759572 1.78729 0
M  V30 4647 O 448.718 -1.55198 1.17234 0
M  V30 4648 C 449.001 1.1469 3.41348 0
M  V30 4649 C 448.854 2.67586 3.61549 0
M  V30 4650 C 450.173 0.71915 4.34185 0
M  V30 4651 H 447.292 0.259034 0.689978 0
M  V30 4652 H 449.934 1.26584 1.41692 0
M  V30 4653 H 448.084 0.673128 3.82624 0
M  V30 4654 H 449.756 3.22826 3.29517 0
M  V30 4655 H 447.999 3.085 3.04976 0
M  V30 4656 H 448.67 2.93281 4.67643 0
M  V30 4657 H 451.146 1.12647 4.00562 0
M  V30 4658 H 450.022 1.05358 5.38694 0
M  V30 4659 H 450.283 -0.379111 4.40472 0
M  V30 4660 N 449.342 -1.36122 0.79427 0
M  V30 4661 C 450.567 -2.03891 0.379871 0
M  V30 4662 C 450.992 -1.59488 -0.997251 0
M  V30 4663 O 450.35 -0.765652 -1.64339 0
M  V30 4664 C 450.398 -3.57687 0.457442 0
M  V30 4665 O 449.502 -4.08931 -0.5338 0
M  V30 4666 H 448.843 -0.6443 0.160541 0
M  V30 4667 H 451.373 -1.73976 1.07673 0
M  V30 4668 H 451.383 -4.06721 0.322792 0
M  V30 4669 H 450.058 -3.89357 1.46199 0
M  V30 4670 H 448.635 -3.71154 -0.360409 0
M  V30 4671 N 450.82 -0.546701 -1.47814 0
M  V30 4672 C 451.783 0.196287 -2.28358 0
M  V30 4673 C 452.783 0.852437 -1.36346 0
M  V30 4674 O 453.973 0.709913 -1.59078 0
M  V30 4675 C 451.105 1.28579 -3.15722 0
M  V30 4676 H 452.298 -0.511086 -2.95513 0
M  V30 4677 H 449.851 -0.303248 -1.5333 0
M  V30 4678 H 450.586 2.0259 -2.53235 0
M  V30 4679 H 450.371 0.820229 -3.83425 0
M  V30 4680 H 451.861 1.80793 -3.76435 0
M  V30 4681 N 452.299 1.55045 -0.282633 0
M  V30 4682 C 453.262 2.21515 0.588539 0
M  V30 4683 C 454.262 1.19535 1.07554 0
M  V30 4684 O 455.452 1.44391 0.974514 0
M  V30 4685 C 452.584 2.88704 1.8128 0
M  V30 4686 H 453.777 2.99899 0.00806397 0
M  V30 4687 H 451.33 1.56265 -0.0333067 0
M  V30 4688 H 452.065 2.14352 2.43359 0
M  V30 4689 H 451.85 3.63443 1.47144 0
M  V30 4690 H 453.34 3.39465 2.43214 0
M  V30 4691 N 453.777 0.010035 1.57597 0
M  V30 4692 C 455.193 -0.346164 1.55801 0
M  V30 4693 C 455.393 -1.74144 1.01371 0
M  V30 4694 O 454.449 -2.43938 0.651968 0
M  V30 4695 C 455.762 -0.212216 2.9995 0
M  V30 4696 C 457.31 -0.286409 3.11687 0
M  V30 4697 C 457.785 -0.18147 4.5764 0
M  V30 4698 N 459.276 -0.239056 4.62583 0
M  V30 4699 C 460.011 -0.181351 5.73113 0
M  V30 4700 N 459.507 -0.073661 6.92761 0
M  V30 4701 N 461.3 -0.233949 5.61613 0
M  V30 4702 H 453.451 0.922657 1.91313 0
M  V30 4703 H 455.714 0.354595 0.879185 0
M  V30 4704 H 455.42 0.748169 3.4365 0
M  V30 4705 H 455.294 -0.990224 3.6397 0
M  V30 4706 H 457.681 -1.23724 2.67911 0
M  V30 4707 H 457.762 0.521645 2.50425 0
M  V30 4708 H 457.406 0.765863 5.02093 0
M  V30 4709 H 457.336 -1.00814 5.1686 0
M  V30 4710 H 459.827 -0.32321 3.76515 0
M  V30 4711 H 460.14 -0.0358003 7.72792 0
M  V30 4712 H 458.485 -0.0391461 6.94989 0
M  V30 4713 H 461.676 -0.316347 4.6703 0
M  V30 4714 H 461.849 -0.185514 6.47734 0
M  V30 4715 N 455.255 -1.55392 -0.262866 0
M  V30 4716 C 456.165 -1.92077 -1.34698 0
M  V30 4717 C 457.181 -0.819227 -1.53508 0
M  V30 4718 O 458.357 -1.11921 -1.67439 0
M  V30 4719 C 455.422 -2.19407 -2.68443 0
M  V30 4720 C 454.483 -3.42905 -2.58292 0
M  V30 4721 C 453.716 -3.68921 -3.85659 0
M  V30 4722 O 453.939 -2.97275 -4.8681 0
M  V30 4723 O 452.873 -4.62455 -3.85252 0
M  V30 4724 H 456.699 -2.84384 -1.06581 0
M  V30 4725 H 454.284 -1.42069 -0.462264 0
M  V30 4726 H 456.166 -2.38365 -3.47506 0
M  V30 4727 H 454.841 -1.30282 -2.96325 0
M  V30 4728 H 453.748 -3.29272 -1.7757 0
M  V30 4729 H 455.081 -4.32282 -2.35358 0
M  V30 4730 N 456.733 0.527833 -1.48498 0
M  V30 4731 C 457.643 1.65907 -1.65867 0
M  V30 4732 C 458.659 1.6537 -0.541192 0
M  V30 4733 O 459.835 1.84282 -0.812534 0
M  V30 4734 C 456.9 3.02364 -1.69637 0
M  V30 4735 C 455.961 3.1374 -2.93028 0
M  V30 4736 C 455.194 4.43688 -2.96609 0
M  V30 4737 O 455.417 5.30913 -2.08538 0
M  V30 4738 O 454.351 4.59475 -3.88802 0
M  V30 4739 H 458.177 1.5419 -2.61647 0
M  V30 4740 H 455.762 0.701163 -1.31924 0
M  V30 4741 H 457.644 3.83515 -1.74625 0
M  V30 4742 H 456.319 3.14401 -0.770312 0
M  V30 4743 H 455.226 2.31877 -2.93571 0
M  V30 4744 H 456.559 3.06621 -3.85026 0
M  V30 4745 N 458.211 1.37122 0.776871 0
M  V30 4746 C 459.457 1.32243 1.53752 0
M  V30 4747 C 459.79 -0.0944745 1.9397 0
M  V30 4748 O 459.065 -1.05068 1.6368 0
M  V30 4749 C 459.348 2.25681 2.80607 0
M  V30 4750 C 459.201 3.76127 2.46676 0
M  V30 4751 C 460.52 2.17657 3.82509 0
M  V30 4752 H 457.639 0.481704 0.557791 0
M  V30 4753 H 460.281 1.6778 0.891612 0
M  V30 4754 H 458.431 1.95505 3.35723 0
M  V30 4755 H 460.103 4.16877 1.97513 0
M  V30 4756 H 458.346 3.94946 1.79443 0
M  V30 4757 H 459.017 4.36933 3.37333 0
M  V30 4758 H 461.493 2.44245 3.36873 0
M  V30 4759 H 460.369 2.85185 4.69 0
M  V30 4760 H 460.63 1.16785 4.26396 0
M  V30 4761 N 459.689 -1.00246 1.21608 0
M  V30 4762 C 461.1 -1.55511 1.03312 0
M  V30 4763 C 461.451 -1.91946 -0.406332 0
M  V30 4764 O 460.576 -1.73753 -1.28992 0
M  V30 4765 C 461.171 -2.82576 1.86913 0
M  V30 4766 C 459.73 -3.34318 1.72941 0
M  V30 4767 C 458.877 -2.07487 1.83968 0
M  V30 4768 H 461.828 -0.824638 1.35593 0
M  V30 4769 H 461.849 -3.54559 1.38087 0
M  V30 4770 H 461.361 -2.56026 2.91672 0
M  V30 4771 H 459.462 -3.65797 0.70877 0
M  V30 4772 H 459.575 -4.05566 2.55055 0
M  V30 4773 H 457.939 -2.20603 1.27304 0
M  V30 4774 H 458.722 -1.83346 2.9024 0
M  V30 4775 N 461.167 -1.02423 -1.1978 0
M  V30 4776 C 462.415 -0.716569 -1.8897 0
M  V30 4777 C 462.736 0.756769 -1.79716 0
M  V30 4778 O 462.006 1.5449 -1.20456 0
M  V30 4779 H 460.586 -0.262062 -0.699523 0
M  V30 4780 H 463.248 -1.29747 -1.45436 0
M  V30 4781 H 462.344 -1.00675 -2.95417 0
M  V30 4782 N 462.645 1.35699 -0.801477 0
M  V30 4783 C 464.061 1.52065 -0.484596 0
M  V30 4784 C 464.261 1.75215 0.995084 0
M  V30 4785 O 463.317 1.79061 1.78026 0
M  V30 4786 C 464.63 2.69908 -1.32552 0
M  V30 4787 C 466.178 2.83784 -1.32044 0
M  V30 4788 C 466.653 4.04646 -2.14536 0
M  V30 4789 N 468.144 4.11814 -2.12046 0
M  V30 4790 C 468.879 5.04437 -2.72636 0
M  V30 4791 N 468.375 6.02426 -3.42133 0
M  V30 4792 N 470.168 4.97144 -2.62305 0
M  V30 4793 H 462.319 1.18928 -1.75983 0
M  V30 4794 H 464.582 0.581455 -0.748741 0
M  V30 4795 H 464.288 2.59363 -2.37537 0
M  V30 4796 H 464.162 3.64376 -0.975181 0
M  V30 4797 H 466.549 2.93783 -0.27846 0
M  V30 4798 H 466.63 1.90188 -1.71062 0
M  V30 4799 H 466.274 3.95407 -3.18772 0
M  V30 4800 H 466.204 4.97413 -1.72882 0
M  V30 4801 H 468.695 3.41664 -1.61476 0
M  V30 4802 H 469.008 6.69688 -3.85666 0
M  V30 4803 H 467.353 6.02615 -3.46237 0
M  V30 4804 H 470.544 4.19546 -2.07603 0
M  V30 4805 H 470.717 5.69138 -3.09815 0
M  V30 4806 N 464.123 0.554532 1.47522 0
M  V30 4807 C 465.539 0.214107 1.58157 0
M  V30 4808 C 465.739 -1.28331 1.55349 0
M  V30 4809 O 464.795 -2.06329 1.45549 0
M  V30 4810 C 466.108 0.838391 2.88776 0
M  V30 4811 C 467.656 0.809374 3.02354 0
M  V30 4812 C 468.131 1.41268 4.35669 0
M  V30 4813 N 469.622 1.37574 4.42298 0
M  V30 4814 C 470.357 1.8122 5.4401 0
M  V30 4815 N 469.853 2.3271 6.52547 0
M  V30 4816 N 471.646 1.72307 5.35039 0
M  V30 4817 H 463.797 1.52744 1.4759 0
M  V30 4818 H 466.06 0.636812 0.702264 0
M  V30 4819 H 465.766 1.89065 2.96559 0
M  V30 4820 H 465.64 0.329847 3.75755 0
M  V30 4821 H 468.027 -0.234187 2.94169 0
M  V30 4822 H 468.108 1.35565 2.16924 0
M  V30 4823 H 467.752 2.45529 4.4461 0
M  V30 4824 H 467.682 0.841871 5.19827 0
M  V30 4825 H 470.173 0.999081 3.64454 0
M  V30 4826 H 470.486 2.63944 7.26329 0
M  V30 4827 H 468.831 2.36719 6.53444 0
M  V30 4828 H 472.022 1.3186 4.49144 0
M  V30 4829 H 472.195 2.06641 6.14169 0
M  V30 4830 N 465.601 -1.54893 0.290851 0
M  V30 4831 C 466.849 -1.99538 -0.320756 0
M  V30 4832 C 467.17 -1.18075 -1.55188 0
M  V30 4833 O 466.44 -0.274162 -1.93972 0
M  V30 4834 H 465.02 -0.737052 -0.121507 0
M  V30 4835 H 467.682 -1.90755 0.399832 0
M  V30 4836 H 466.778 -3.06282 -0.599802 0
M  V30 4837 N 467.08 -0.0183926 -1.57589 0
M  V30 4838 C 468.327 0.662562 -1.91354 0
M  V30 4839 C 468.655 1.72747 -0.893788 0
M  V30 4840 O 467.91 1.9545 0.0988509 0
M  V30 4841 C 468.209 1.32676 -3.31861 0
M  V30 4842 C 467.875 0.393267 -4.49182 0
M  V30 4843 C 466.537 0.136302 -4.81007 0
M  V30 4844 C 468.889 -0.248366 -5.20608 0
M  V30 4845 C 466.217 -0.770282 -5.81621 0
M  V30 4846 C 468.569 -1.14294 -6.22189 0
M  V30 4847 C 467.233 -1.4089 -6.52462 0
M  V30 4848 H 466.503 0.242448 -0.700214 0
M  V30 4849 H 469.15 -0.0778629 -1.91342 0
M  V30 4850 H 467.455 2.14168 -3.28084 0
M  V30 4851 H 469.152 1.86001 -3.55253 0
M  V30 4852 H 465.742 0.603723 -4.24327 0
M  V30 4853 H 469.926 -0.062883 -4.9626 0
M  V30 4854 H 465.182 -0.984154 -6.03427 0
M  V30 4855 H 469.356 -1.64637 -6.76659 0
M  V30 4856 H 466.983 -2.11306 -7.30242 0
M  V30 4857 N 468.558 1.5553 0.254621 0
M  V30 4858 C 469.969 1.67518 0.824286 0
M  V30 4859 C 470.32 0.614429 1.86331 0
M  V30 4860 O 469.445 -0.240736 2.15057 0
M  V30 4861 C 470.04 3.03692 1.50189 0
M  V30 4862 C 468.599 3.17646 2.01935 0
M  V30 4863 C 467.746 2.63373 0.867746 0
M  V30 4864 H 470.697 1.58671 0.0305843 0
M  V30 4865 H 470.718 2.97706 2.36962 0
M  V30 4866 H 470.23 3.80874 0.745431 0
M  V30 4867 H 468.331 2.45273 2.80485 0
M  V30 4868 H 468.444 4.24455 2.22204 0
M  V30 4869 H 466.808 2.20999 1.26616 0
M  V30 4870 H 467.591 3.43074 0.124498 0
M  V30 4871 N 470.036 -0.519951 1.48776 0
M  V30 4872 C 471.284 -1.2727 1.56993 0
M  V30 4873 C 471.605 -1.9339 0.25004 0
M  V30 4874 O 470.875 -1.81822 -0.729216 0
M  V30 4875 H 469.455 -0.472732 0.578389 0
M  V30 4876 H 472.117 -0.604234 1.85297 0
M  V30 4877 H 471.213 -2.04669 2.3562 0
M  V30 4878 N 471.514 -1.37532 -0.769588 0
M  V30 4879 C 472.744 -1.35861 -1.55645 0
M  V30 4880 C 473.152 0.0574398 -1.89113 0
M  V30 4881 O 472.495 1.03021 -1.52093 0
M  V30 4882 C 472.557 -2.13431 -2.89288 0
M  V30 4883 C 472.221 -3.62378 -2.78444 0
M  V30 4884 C 473.218 -4.56215 -2.49326 0
M  V30 4885 C 470.903 -4.05529 -2.96398 0
M  V30 4886 C 472.897 -5.91181 -2.38294 0
M  V30 4887 C 470.584 -5.40579 -2.84987 0
M  V30 4888 C 471.582 -6.33218 -2.55975 0
M  V30 4889 O 471.27 -7.65787 -2.44594 0
M  V30 4890 H 471.002 -0.467001 -0.48876 0
M  V30 4891 H 473.556 -1.81505 -0.961515 0
M  V30 4892 H 471.786 -1.62481 -3.50909 0
M  V30 4893 H 473.475 -2.04368 -3.50697 0
M  V30 4894 H 474.241 -4.24187 -2.35139 0
M  V30 4895 H 470.12 -3.33781 -3.1798 0
M  V30 4896 H 473.664 -6.63457 -2.15571 0
M  V30 4897 H 469.561 -5.72209 -2.98743 0
M  V30 4898 H 470.329 -7.76132 -2.59927 0
M  V30 4899 N 472.992 0.995999 -1.22138 0
M  V30 4900 C 473.925 2.08302 -0.931952 0
M  V30 4901 C 474.903 1.62127 0.123956 0
M  V30 4902 O 476.087 1.88499 -0.00696004 0
M  V30 4903 C 473.214 3.36317 -0.401068 0
M  V30 4904 C 472.26 4.01413 -1.44117 0
M  V30 4905 S 473.093 4.42664 -3.01345 0
M  V30 4906 C 474.249 5.73853 -2.49887 0
M  V30 4907 H 474.482 2.32532 -1.85246 0
M  V30 4908 H 472.015 1.13005 -1.0521 0
M  V30 4909 H 473.973 4.10375 -0.101352 0
M  V30 4910 H 472.634 3.10123 0.498272 0
M  V30 4911 H 471.827 4.9358 -1.01952 0
M  V30 4912 H 471.429 3.33668 -1.68943 0
M  V30 4913 H 473.721 6.50039 -1.90934 0
M  V30 4914 H 474.664 6.20841 -3.40532 0
M  V30 4915 H 475.072 5.31105 -1.9128 0
M  V30 4916 N 474.47 1.03057 1.19235 0
M  V30 4917 C 475.7 0.746613 1.92638 0
M  V30 4918 C 476.108 -0.698708 1.75826 0
M  V30 4919 O 475.451 -1.487 1.07861 0
M  V30 4920 C 475.513 1.02024 3.44719 0
M  V30 4921 C 475.177 2.45745 3.85303 0
M  V30 4922 C 476.174 3.43887 3.8992 0
M  V30 4923 C 473.859 2.8019 4.16892 0
M  V30 4924 C 475.853 4.74529 4.2556 0
M  V30 4925 C 473.54 4.1104 4.52205 0
M  V30 4926 C 474.538 5.0802 4.56513 0
M  V30 4927 O 474.226 6.36527 4.91008 0
M  V30 4928 H 473.958 0.272401 0.618687 0
M  V30 4929 H 476.512 1.37853 1.52269 0
M  V30 4930 H 474.742 0.331184 3.85279 0
M  V30 4931 H 476.431 0.725677 3.9936 0
M  V30 4932 H 477.197 3.18614 3.65664 0
M  V30 4933 H 473.076 2.05382 4.12722 0
M  V30 4934 H 476.62 5.50222 4.28838 0
M  V30 4935 H 472.517 4.36086 4.7592 0
M  V30 4936 H 473.285 6.41025 5.08949 0
M  V30 4937 N 475.948 -1.35272 0.808662 0
M  V30 4938 C 477.176 -2.02946 0.402537 0
M  V30 4939 C 477.591 -1.60937 -0.987147 0
M  V30 4940 O 476.948 -0.807917 -1.63643 0
M  V30 4941 C 476.999 -3.58317 0.47868 0
M  V30 4942 O 476.72 -3.98799 1.81358 0
M  V30 4943 C 478.221 -4.43251 0.0656281 0
M  V30 4944 H 475.441 -0.650831 0.163279 0
M  V30 4945 H 477.985 -1.72849 1.09286 0
M  V30 4946 H 476.14 -3.87055 -0.163415 0
M  V30 4947 H 476.554 -4.93451 1.77781 0
M  V30 4948 H 478.028 -5.51738 0.170017 0
M  V30 4949 H 478.505 -4.27913 -0.989278 0
M  V30 4950 H 479.111 -4.19813 0.68096 0
M  V30 4951 N 477.426 -0.562348 -1.47226 0
M  V30 4952 C 478.703 0.0256985 -1.95583 0
M  V30 4953 C 479.083 1.48032 -1.50498 0
M  V30 4954 O 478.431 2.15973 -0.746181 0
M  V30 4955 C 478.641 -0.125129 -3.48776 0
M  V30 4956 C 479.989 0.0175728 -4.24596 0
M  V30 4957 O 481.013 -0.0529341 -3.56161 0
M  V30 4958 O 479.872 0.170145 -5.46235 0
M  V30 4959 H 476.966 0.0612565 -0.824728 0
M  V30 4960 H 479.512 -0.629233 -1.57603 0
M  V30 4961 H 478.284 -1.13715 -3.74412 0
M  V30 4962 H 477.907 0.567178 -3.93534 0
M  V30 4963 N 478.904 1.54736 -0.299062 0
M  V30 4964 C 479.834 2.26409 0.571085 0
M  V30 4965 C 480.815 1.2629 1.13951 0
M  V30 4966 O 482 1.55059 1.16921 0
M  V30 4967 C 479.13 3.00338 1.74396 0
M  V30 4968 C 478.084 4.07588 1.30599 0
M  V30 4969 C 477.41 4.69222 2.56387 0
M  V30 4970 C 478.71 5.20455 0.438645 0
M  V30 4971 H 480.404 2.99388 -0.0266991 0
M  V30 4972 H 477.95 1.43993 -0.0142812 0
M  V30 4973 H 479.903 3.49198 2.35878 0
M  V30 4974 H 478.627 2.24934 2.36796 0
M  V30 4975 H 477.286 3.59575 0.71424 0
M  V30 4976 H 476.934 3.9046 3.17097 0
M  V30 4977 H 476.634 5.41653 2.27784 0
M  V30 4978 H 478.158 5.20844 3.18675 0
M  V30 4979 H 479.572 5.65221 0.959085 0
M  V30 4980 H 477.969 5.99594 0.246466 0
M  V30 4981 H 479.039 4.8192 -0.536738 0
M  V30 4982 N 480.382 0.0267497 1.57577 0
M  V30 4983 C 481.345 -0.940916 2.08996 0
M  V30 4984 C 482.345 -1.25561 1.00455 0
M  V30 4985 O 483.535 -1.19634 1.26623 0
M  V30 4986 C 480.667 -2.25814 2.55384 0
M  V30 4987 H 481.86 -0.495628 2.95776 0
M  V30 4988 H 479.413 -0.221241 1.54726 0
M  V30 4989 H 480.148 -2.74976 1.71926 0
M  V30 4990 H 479.933 -2.04285 3.34679 0
M  V30 4991 H 481.423 -2.95178 2.95398 0
M  V30 4992 N 481.861 -1.55662 -0.24637 0
M  V30 4993 C 483.089 -1.81575 -0.991876 0
M  V30 4994 C 483.504 -0.602545 -1.78927 0
M  V30 4995 O 482.861 0.428795 -1.77391 0
M  V30 4996 C 482.912 -3.05711 -1.92933 0
M  V30 4997 O 482.633 -4.22348 -1.1642 0
M  V30 4998 C 484.134 -3.44428 -2.79078 0
M  V30 4999 H 481.354 -0.604209 -0.291844 0
M  V30 5000 H 483.898 -2.02722 -0.269095 0
M  V30 5001 H 482.053 -2.86612 -2.60638 0
M  V30 5002 H 482.467 -4.92706 -1.79835 0
M  V30 5003 H 483.941 -4.34388 -3.40603 0
M  V30 5004 H 484.418 -2.65037 -3.50217 0
M  V30 5005 H 485.024 -3.65879 -2.16824 0
M  V30 5006 N 483.339 0.512053 -1.4905 0
M  V30 5007 C 484.588 1.26343 -1.57227 0
M  V30 5008 C 484.901 1.93876 -0.259155 0
M  V30 5009 O 486.107 2.70612 -0.219358 0
M  V30 5010 C 484.563 2.29343 -2.77362 0
M  V30 5011 C 484.171 1.67799 -4.15388 0
M  V30 5012 C 485.915 3.05378 -2.94864 0
M  V30 5013 C 483.822 2.68845 -5.2676 0
M  V30 5014 H 482.752 0.475231 -0.585382 0
M  V30 5015 H 485.403 0.53862 -1.75417 0
M  V30 5016 H 483.785 3.04938 -2.52643 0
M  V30 5017 H 484.959 0.982715 -4.50199 0
M  V30 5018 H 483.274 1.04194 -4.03153 0
M  V30 5019 H 485.871 3.80921 -3.75238 0
M  V30 5020 H 486.214 3.62327 -2.05 0
M  V30 5021 H 486.747 2.36898 -3.19569 0
M  V30 5022 H 483.486 2.16692 -6.18647 0
M  V30 5023 H 483.006 3.36647 -4.96416 0
M  V30 5024 H 484.685 3.31487 -5.5563 0
M  V30 5025 N 484.817 1.37938 0.762283 0
M  V30 5026 C 486.047 1.36685 1.54922 0
M  V30 5027 C 486.455 -0.0474099 1.89141 0
M  V30 5028 O 485.798 -1.02213 1.52638 0
M  V30 5029 C 485.86 2.14963 2.88152 0
M  V30 5030 C 485.524 3.6385 2.76518 0
M  V30 5031 C 486.521 4.57531 2.46904 0
M  V30 5032 C 484.206 4.07095 2.94243 0
M  V30 5033 C 486.2 5.92436 2.35156 0
M  V30 5034 C 483.887 5.42083 2.82116 0
M  V30 5035 C 484.885 6.34567 2.52614 0
M  V30 5036 O 484.573 7.67073 2.40529 0
M  V30 5037 H 484.305 0.469586 0.486276 0
M  V30 5038 H 486.859 1.82012 0.951876 0
M  V30 5039 H 485.089 1.6434 3.50042 0
M  V30 5040 H 486.778 2.06224 3.49609 0
M  V30 5041 H 487.544 4.25428 2.32886 0
M  V30 5042 H 483.423 3.35462 3.16206 0
M  V30 5043 H 486.967 6.64591 2.12049 0
M  V30 5044 H 482.864 5.73785 2.95704 0
M  V30 5045 H 483.632 7.77499 2.55807 0
M  V30 5046 N 486.295 -0.989507 1.22664 0
M  V30 5047 C 487.205 -2.11449 1.01619 0
M  V30 5048 C 488.221 -1.73962 -0.036545 0
M  V30 5049 O 489.397 -2.00788 0.156924 0
M  V30 5050 C 486.462 -3.41465 0.600204 0
M  V30 5051 C 485.523 -3.93033 1.72695 0
M  V30 5052 C 484.756 -5.16844 1.33071 0
M  V30 5053 O 484.979 -5.7001 0.210975 0
M  V30 5054 O 483.913 -5.6225 2.14845 0
M  V30 5055 H 487.739 -2.32088 1.9588 0
M  V30 5056 H 485.324 -1.09823 1.01289 0
M  V30 5057 H 487.206 -4.19695 0.37873 0
M  V30 5058 H 485.881 -3.22178 -0.313511 0
M  V30 5059 H 484.788 -3.15961 2.00298 0
M  V30 5060 H 486.121 -4.16758 2.61865 0
M  V30 5061 N 487.773 -1.03688 -1.18687 0
M  V30 5062 C 489.189 -0.755413 -1.4059 0
M  V30 5063 C 489.389 0.656659 -1.905 0
M  V30 5064 O 488.445 1.42144 -2.08689 0
M  V30 5065 C 489.758 -1.7983 -2.41001 0
M  V30 5066 C 491.306 -1.81877 -2.54735 0
M  V30 5067 C 491.781 -2.85148 -3.58406 0
M  V30 5068 N 493.272 -2.84015 -3.6591 0
M  V30 5069 C 494.007 -3.60573 -4.45841 0
M  V30 5070 N 493.503 -4.46871 -5.29413 0
M  V30 5071 N 495.296 -3.49079 -4.40568 0
M  V30 5072 H 487.447 -1.94818 -0.846148 0
M  V30 5073 H 489.71 -0.842727 -0.434184 0
M  V30 5074 H 489.416 -2.81097 -2.1137 0
M  V30 5075 H 489.29 -1.62727 -3.40294 0
M  V30 5076 H 491.677 -0.812836 -2.83685 0
M  V30 5077 H 491.758 -2.03057 -1.55568 0
M  V30 5078 H 491.402 -3.85918 -3.30197 0
M  V30 5079 H 491.332 -2.61224 -4.57241 0
M  V30 5080 H 493.823 -2.21431 -3.0623 0
M  V30 5081 H 494.136 -5.02007 -5.87545 0
M  V30 5082 H 492.481 -4.5094 -5.28846 0
M  V30 5083 H 495.672 -2.81066 -3.74325 0
M  V30 5084 H 495.845 -4.08994 -5.02621 0
M  V30 5085 N 489.251 1.34841 -0.815825 0
M  V30 5086 C 490.214 2.27959 -0.238185 0
M  V30 5087 C 491.214 1.49983 0.579816 0
M  V30 5088 O 492.404 1.69617 0.396953 0
M  V30 5089 C 489.536 3.34314 0.666876 0
M  V30 5090 H 490.729 2.80558 -1.05958 0
M  V30 5091 H 488.282 1.44852 -0.587156 0
M  V30 5092 H 489.017 2.86916 1.5116 0
M  V30 5093 H 488.802 3.92014 0.0819106 0
M  V30 5094 H 490.292 4.0379 1.06506 0
M  V30 5095 N 490.729 0.570148 1.46925 0
M  V30 5096 C 491.977 0.0508523 2.02036 0
M  V30 5097 C 492.298 -1.30885 1.44548 0
M  V30 5098 O 491.568 -1.85647 0.625453 0
M  V30 5099 H 490.148 0.0158088 0.746833 0
M  V30 5100 H 492.81 0.743086 1.80178 0
M  V30 5101 H 491.906 -0.027575 3.12088 0
M  V30 5102 N 492.207 -1.54576 0.307264 0
M  V30 5103 C 493.623 -1.59534 -0.0459251 0
M  V30 5104 C 493.823 -1.32414 -1.51884 0
M  V30 5105 O 492.879 -1.1006 -2.27251 0
M  V30 5106 C 494.192 -2.98566 0.357649 0
M  V30 5107 C 495.74 -3.11491 0.306937 0
M  V30 5108 C 496.215 -4.52842 0.685427 0
M  V30 5109 N 497.706 -4.58782 0.638203 0
M  V30 5110 C 498.441 -5.66238 0.903458 0
M  V30 5111 N 497.937 -6.81703 1.23501 0
M  V30 5112 N 499.73 -5.55937 0.830102 0
M  V30 5113 H 491.881 -1.70464 1.26712 0
M  V30 5114 H 494.144 -0.79647 0.514139 0
M  V30 5115 H 493.85 -3.23356 1.38325 0
M  V30 5116 H 493.724 -3.76117 -0.285565 0
M  V30 5117 H 496.111 -2.86446 -0.709424 0
M  V30 5118 H 496.192 -2.36081 0.984861 0
M  V30 5119 H 495.836 -4.78618 1.69963 0
M  V30 5120 H 495.766 -5.26598 -0.0146346 0
M  V30 5121 H 498.257 -3.75849 0.393138 0
M  V30 5122 H 498.57 -7.59582 1.42322 0
M  V30 5123 H 496.915 -6.8324 1.27311 0
M  V30 5124 H 500.106 -4.64608 0.570693 0
M  V30 5125 H 500.279 -6.39597 1.04019 0
M  V30 5126 N 493.685 -0.035106 -1.57561 0
M  V30 5127 C 494.931 0.64318 -1.92331 0
M  V30 5128 C 495.264 1.71434 -0.912368 0
M  V30 5129 O 494.539 1.94395 0.0640303 0
M  V30 5130 C 494.822 1.25411 -3.37556 0
M  V30 5131 C 494.675 0.192109 -4.4939 0
M  V30 5132 C 495.994 2.17041 -3.82859 0
M  V30 5133 H 493.113 0.232341 -0.699419 0
M  V30 5134 H 495.755 -0.0935889 -1.89769 0
M  V30 5135 H 493.905 1.88205 -3.39869 0
M  V30 5136 H 495.577 -0.438849 -4.59208 0
M  V30 5137 H 493.82 -0.481725 -4.31117 0
M  V30 5138 H 494.491 0.659292 -5.48049 0
M  V30 5139 H 496.967 1.64228 -3.8232 0
M  V30 5140 H 495.843 2.56738 -4.85157 0
M  V30 5141 H 496.104 3.06401 -3.18702 0
M  V30 5142 N 495.163 1.55791 0.238111 0
M  V30 5143 C 496.073 1.94196 1.31625 0
M  V30 5144 C 497.089 0.843545 1.52185 0
M  V30 5145 O 498.265 1.1457 1.65637 0
M  V30 5146 C 495.33 2.2365 2.64918 0
M  V30 5147 C 494.391 3.46971 2.52804 0
M  V30 5148 C 493.624 3.7501 3.79741 0
M  V30 5149 O 493.847 3.04982 4.82019 0
M  V30 5150 O 492.781 4.68525 3.77846 0
M  V30 5151 H 496.607 2.86044 1.02043 0
M  V30 5152 H 494.192 1.42786 0.439603 0
M  V30 5153 H 496.074 2.43863 3.4367 0
M  V30 5154 H 494.749 1.34979 2.94215 0
M  V30 5155 H 493.656 3.32055 1.72309 0
M  V30 5156 H 494.989 4.35971 2.28451 0
M  V30 5157 N 496.642 -0.504142 1.49319 0
M  V30 5158 C 497.89 -1.25598 1.58334 0
M  V30 5159 C 498.211 -1.93114 0.270538 0
M  V30 5160 O 497.481 -1.82585 -0.709891 0
M  V30 5161 H 496.061 -0.466571 0.58337 0
M  V30 5162 H 498.723 -0.584547 1.85928 0
M  V30 5163 H 497.819 -2.02159 2.37778 0
M  V30 5164 N 498.12 -1.38341 -0.754957 0
M  V30 5165 C 499.536 -1.19508 -1.05783 0
M  V30 5166 C 499.736 -0.0428005 -2.01455 0
M  V30 5167 O 498.792 0.611861 -2.44975 0
M  V30 5168 C 500.105 -2.52091 -1.63923 0
M  V30 5169 C 501.653 -2.58762 -1.76101 0
M  V30 5170 C 502.128 -3.91517 -2.37652 0
M  V30 5171 N 503.619 -3.93049 -2.45085 0
M  V30 5172 C 504.354 -4.9253 -2.93602 0
M  V30 5173 N 503.85 -6.02408 -3.42165 0
M  V30 5174 N 505.643 -4.79921 -2.92629 0
M  V30 5175 H 497.794 -2.1206 -0.120056 0
M  V30 5176 H 500.057 -0.94089 -0.11589 0
M  V30 5177 H 499.763 -3.36858 -1.01093 0
M  V30 5178 H 499.637 -2.70388 -2.63003 0
M  V30 5179 H 502.024 -1.74391 -2.38058 0
M  V30 5180 H 502.105 -2.44333 -0.757294 0
M  V30 5181 H 501.749 -4.76309 -1.76329 0
M  V30 5182 H 501.679 -4.03256 -3.38662 0
M  V30 5183 H 504.17 -3.13685 -2.10736 0
M  V30 5184 H 504.483 -6.74248 -3.77637 0
M  V30 5185 H 502.828 -6.0603 -3.40225 0
M  V30 5186 H 506.019 -3.93194 -2.54001 0
M  V30 5187 H 506.192 -5.57601 -3.30128 0
M  V30 5188 N 499.598 0.982988 -1.23187 0
M  V30 5189 C 500.846 1.72052 -1.06031 0
M  V30 5190 C 501.167 1.90769 0.404019 0
M  V30 5191 O 500.437 1.47446 1.28982 0
M  V30 5192 H 499.017 0.637499 -0.389363 0
M  V30 5193 H 501.679 1.18338 -1.54862 0
M  V30 5194 H 500.775 2.7111 -1.54615 0
M  V30 5195 N 501.076 1.04316 1.18135 0
M  V30 5196 C 502.324 0.746542 1.87806 0
M  V30 5197 C 502.645 -0.728082 1.80898 0
M  V30 5198 O 501.915 -1.52554 1.22899 0
M  V30 5199 H 500.495 0.273157 0.695265 0
M  V30 5200 H 503.157 1.32044 1.43354 0
M  V30 5201 H 502.253 1.05362 2.93778 0
M  V30 5202 N 502.554 -1.34406 0.822964 0
M  V30 5203 C 503.779 -2.0304 0.423034 0
M  V30 5204 C 504.204 -1.61568 -0.963196 0
M  V30 5205 O 503.562 -0.800339 -1.62678 0
M  V30 5206 C 503.61 -3.56636 0.53321 0
M  V30 5207 O 502.714 -4.09971 -0.446939 0
M  V30 5208 H 502.055 -0.64075 0.174171 0
M  V30 5209 H 504.585 -1.71653 1.11339 0
M  V30 5210 H 504.595 -4.05945 0.408991 0
M  V30 5211 H 503.27 -3.86168 1.54425 0
M  V30 5212 H 501.847 -3.71835 -0.281601 0
M  V30 5213 N 504.032 -0.577932 -1.46621 0
M  V30 5214 C 505.281 -0.0594281 -2.01612 0
M  V30 5215 C 505.594 1.30663 -1.45556 0
M  V30 5216 O 506.8 1.91621 -1.92337 0
M  V30 5217 C 505.256 -0.0556666 -3.59857 0
M  V30 5218 C 504.864 -1.41975 -4.24908 0
M  V30 5219 C 506.608 0.409143 -4.22524 0
M  V30 5220 C 504.515 -1.37397 -5.75218 0
M  V30 5221 H 503.445 -0.0184469 -0.753774 0
M  V30 5222 H 506.096 -0.728869 -1.68404 0
M  V30 5223 H 504.478 0.679843 -3.90121 0
M  V30 5224 H 505.652 -2.17461 -4.0626 0
M  V30 5225 H 503.967 -1.82419 -3.74316 0
M  V30 5226 H 506.564 0.46211 -5.32699 0
M  V30 5227 H 506.907 1.42565 -3.91128 0
M  V30 5228 H 507.44 -0.272152 -3.96868 0
M  V30 5229 H 504.179 -2.36714 -6.11267 0
M  V30 5230 H 503.699 -0.661239 -5.96144 0
M  V30 5231 H 505.378 -1.08484 -6.3784 0
M  V30 5232 N 505.51 1.54411 -0.315457 0
M  V30 5233 C 506.738 2.04833 0.291738 0
M  V30 5234 C 507.153 1.19203 1.46411 0
M  V30 5235 O 506.51 0.220867 1.81159 0
M  V30 5236 C 506.561 3.53969 0.73404 0
M  V30 5237 O 506.282 4.36346 -0.391682 0
M  V30 5238 C 507.783 4.2045 1.40489 0
M  V30 5239 H 505.003 0.668195 0.0612947 0
M  V30 5240 H 507.547 1.99276 -0.45929 0
M  V30 5241 H 505.702 3.5984 1.43506 0
M  V30 5242 H 506.116 5.24481 -0.0447088 0
M  V30 5243 H 507.59 5.26278 1.66539 0
M  V30 5244 H 508.067 3.71067 2.3496 0
M  V30 5245 H 508.673 4.18694 0.746662 0
M  V30 5246 N 506.988 0.0434614 1.5754 0
M  V30 5247 C 507.92 -0.962586 2.08007 0
M  V30 5248 C 508.933 -1.27972 1.00634 0
M  V30 5249 O 510.122 -1.24186 1.28219 0
M  V30 5250 C 507.222 -2.28621 2.50171 0
M  V30 5251 C 506.395 -2.15214 3.80791 0
M  V30 5252 C 505.454 -3.30633 4.09351 0
M  V30 5253 O 504.48 -3.0688 4.79388 0
M  V30 5254 N 505.682 -4.54873 3.60654 0
M  V30 5255 H 508.447 -0.531891 2.94942 0
M  V30 5256 H 506.008 -0.142965 1.61268 0
M  V30 5257 H 508 -3.04689 2.66359 0
M  V30 5258 H 506.57 -2.63283 1.68525 0
M  V30 5259 H 505.79 -1.23785 3.74261 0
M  V30 5260 H 507.078 -2.03475 4.66343 0
M  V30 5261 H 506.476 -4.77063 3.04019 0
M  V30 5262 H 505.033 -5.2806 3.82094 0
M  V30 5263 N 508.466 -1.55915 -0.229846 0
M  V30 5264 C 509.715 -1.77742 -0.953455 0
M  V30 5265 C 510.028 -0.610524 -1.85828 0
M  V30 5266 O 511.234 -0.712219 -2.61992 0
M  V30 5267 C 509.69 -3.14738 -1.74551 0
M  V30 5268 C 509.298 -4.39126 -0.887242 0
M  V30 5269 C 511.042 -3.45895 -2.46084 0
M  V30 5270 C 508.949 -5.67149 -1.67617 0
M  V30 5271 H 507.879 -0.662648 -0.359741 0
M  V30 5272 H 510.53 -1.82322 -0.207576 0
M  V30 5273 H 508.912 -3.04311 -2.53399 0
M  V30 5274 H 510.086 -4.60588 -0.139892 0
M  V30 5275 H 508.401 -4.15427 -0.284443 0
M  V30 5276 H 510.998 -4.38767 -3.05594 0
M  V30 5277 H 511.341 -2.68007 -3.18556 0
M  V30 5278 H 511.874 -3.57614 -1.74233 0
M  V30 5279 H 508.613 -6.47906 -0.994881 0
M  V30 5280 H 508.133 -5.49763 -2.39836 0
M  V30 5281 H 509.812 -6.07025 -2.23898 0
M  V30 5282 N 509.944 0.496216 -1.49584 0
M  V30 5283 C 511.355 1.07765 -1.52459 0
M  V30 5284 C 511.706 1.93679 -0.31353 0
M  V30 5285 O 510.831 2.08588 0.576186 0
M  V30 5286 C 511.426 1.96111 -2.76271 0
M  V30 5287 C 509.985 2.49409 -2.81908 0
M  V30 5288 C 509.132 1.27142 -2.46435 0
M  V30 5289 H 512.083 0.279914 -1.56212 0
M  V30 5290 H 512.104 2.80862 -2.56704 0
M  V30 5291 H 511.616 1.33555 -3.64396 0
M  V30 5292 H 509.717 3.1559 -1.98074 0
M  V30 5293 H 509.83 2.86234 -3.84196 0
M  V30 5294 H 508.194 1.59818 -1.98319 0
M  V30 5295 H 508.977 0.662866 -3.3684 0
M  V30 5296 N 511.423 1.38739 0.74761 0
M  V30 5297 C 512.672 1.3459 1.50228 0
M  V30 5298 C 512.985 -0.0595592 1.95509 0
M  V30 5299 O 514.191 -0.22361 2.70578 0
M  V30 5300 C 512.647 2.36377 2.71393 0
M  V30 5301 C 512.255 3.82573 2.33113 0
M  V30 5302 C 513.999 2.41281 3.49262 0
M  V30 5303 C 511.906 4.76032 3.50924 0
M  V30 5304 H 510.836 0.500312 0.564096 0
M  V30 5305 H 513.487 1.64324 0.8167 0
M  V30 5306 H 511.869 1.99694 3.41962 0
M  V30 5307 H 513.043 4.28227 1.70171 0
M  V30 5308 H 511.358 3.80844 1.68365 0
M  V30 5309 H 513.955 3.08301 4.36869 0
M  V30 5310 H 514.298 1.43353 3.9084 0
M  V30 5311 H 514.831 2.76793 2.85711 0
M  V30 5312 H 511.57 5.75177 3.14408 0
M  V30 5313 H 511.09 4.35066 4.12889 0
M  V30 5314 H 512.769 4.94331 4.17427 0
M  V30 5315 N 512.901 -0.976442 1.23707 0
M  V30 5316 C 513.831 -2.08749 1.04624 0
M  V30 5317 C 514.812 -1.70057 -0.0380956 0
M  V30 5318 O 515.997 -1.93782 0.127308 0
M  V30 5319 C 513.127 -3.41335 0.640902 0
M  V30 5320 C 512.081 -3.93947 1.67302 0
M  V30 5321 C 511.407 -5.22774 1.12301 0
M  V30 5322 C 512.707 -4.22769 3.06697 0
M  V30 5323 H 514.401 -2.24972 1.97555 0
M  V30 5324 H 511.947 -1.08108 0.951247 0
M  V30 5325 H 513.9 -4.18489 0.494434 0
M  V30 5326 H 512.624 -3.24988 -0.324099 0
M  V30 5327 H 511.283 -3.18941 1.80755 0
M  V30 5328 H 510.931 -5.0278 0.148877 0
M  V30 5329 H 510.631 -5.58942 1.81267 0
M  V30 5330 H 512.155 -6.02546 0.988479 0
M  V30 5331 H 513.569 -4.90659 2.96524 0
M  V30 5332 H 511.966 -4.70147 3.72937 0
M  V30 5333 H 513.036 -3.29885 3.55392 0
M  V30 5334 N 514.379 -1.04941 -1.1758 0
M  V30 5335 C 515.607 -0.778294 -1.91703 0
M  V30 5336 C 516.022 0.665697 -1.76675 0
M  V30 5337 O 515.379 1.45456 -1.10222 0
M  V30 5338 C 515.43 -1.14628 -3.42845 0
M  V30 5339 O 515.151 -2.53359 -3.57409 0
M  V30 5340 C 516.652 -0.900931 -4.34049 0
M  V30 5341 H 513.872 -0.283167 -0.608323 0
M  V30 5342 H 516.416 -1.39942 -1.49119 0
M  V30 5343 H 514.571 -0.569953 -3.83184 0
M  V30 5344 H 514.985 -2.67709 -4.51035 0
M  V30 5345 H 516.459 -1.20817 -5.38616 0
M  V30 5346 H 516.936 0.163966 -4.38894 0
M  V30 5347 H 517.542 -1.46097 -3.99419 0
M  V30 5348 N 515.857 1.33968 -0.830081 0
M  V30 5349 C 516.79 2.27303 -0.202182 0
M  V30 5350 C 517.768 1.49235 0.645581 0
M  V30 5351 O 518.952 1.78433 0.607762 0
M  V30 5352 C 516.079 3.31025 0.716932 0
M  V30 5353 C 515.125 4.26466 -0.0542271 0
M  V30 5354 S 515.958 5.16707 -1.40622 0
M  V30 5355 C 517.114 6.23962 -0.492167 0
M  V30 5356 H 517.347 2.8021 -0.99346 0
M  V30 5357 H 514.88 1.41124 -0.626359 0
M  V30 5358 H 516.838 3.91271 1.24165 0
M  V30 5359 H 515.499 2.76951 1.4818 0
M  V30 5360 H 514.692 4.99858 0.644785 0
M  V30 5361 H 514.294 3.7051 -0.509722 0
M  V30 5362 H 516.586 6.76774 0.31347 0
M  V30 5363 H 517.529 6.97927 -1.19599 0
M  V30 5364 H 517.937 5.64447 -0.0774176 0
M  V30 5365 N 517.335 0.585699 1.46312 0
M  V30 5366 C 518.746 0.159938 1.86014 0
M  V30 5367 C 519.097 -1.27775 1.48889 0
M  V30 5368 O 518.222 -1.96559 0.90519 0
M  V30 5369 C 518.817 0.283485 3.37612 0
M  V30 5370 C 517.376 -0.0874256 3.76298 0
M  V30 5371 C 516.523 0.618055 2.70325 0
M  V30 5372 H 519.474 0.793737 1.37425 0
M  V30 5373 H 519.495 -0.490348 3.77327 0
M  V30 5374 H 519.007 1.32995 3.64601 0
M  V30 5375 H 517.108 -1.13391 3.54927 0
M  V30 5376 H 517.221 0.290975 4.78216 0
M  V30 5377 H 515.585 0.057993 2.54634 0
M  V30 5378 H 516.368 1.66623 3.00153 0
M  V30 5379 N 518.813 -1.54241 0.323641 0
M  V30 5380 C 519.761 -2.25813 -0.557804 0
M  V30 5381 C 520.755 -1.27225 -1.11849 0
M  V30 5382 O 521.961 -1.45001 -1.06652 0
M  V30 5383 H 518.336 -0.72532 -0.198532 0
M  V30 5384 H 520.307 -2.98322 0.0681112 0
M  V30 5385 C 519.056 -3.02913 -1.70701 0
M  V30 5386 H 518.379 -3.78593 -1.28482 0
M  V30 5387 H 519.819 -3.56238 -2.29935 0
M  V30 5388 C 518.278 -2.11217 -2.62467 0
M  V30 5389 O 518.808 -1.69508 -3.64184 0
M  V30 5390 N 517.014 -1.76704 -2.30703 0
M  V30 5391 H 516.561 -2.1082 -1.48029 0
M  V30 5392 H 516.519 -1.15631 -2.92364 0
M  V30 5393 N 520.291 -0.0518155 -1.57515 0
M  V30 5394 C 521.568 0.661727 -1.84067 0
M  V30 5395 C 521.948 1.88999 -0.940351 0
M  V30 5396 O 521.296 2.285 -0.00155404 0
M  V30 5397 C 521.506 1.01841 -3.3381 0
M  V30 5398 C 522.854 1.40043 -4.00841 0
M  V30 5399 O 523.878 1.11073 -3.38439 0
M  V30 5400 O 522.737 1.94111 -5.10865 0
M  V30 5401 H 519.831 0.326702 -0.759733 0
M  V30 5402 H 522.377 -0.0812277 -1.69505 0
M  V30 5403 H 521.149 0.145202 -3.91031 0
M  V30 5404 H 520.772 1.81879 -3.53562 0
M  V30 5405 N 521.769 1.56035 0.221574 0
M  V30 5406 C 523.046 1.69837 0.970301 0
M  V30 5407 C 523.426 0.599065 2.02421 0
M  V30 5408 O 522.774 -0.393929 2.25079 0
M  V30 5409 C 522.984 3.11148 1.58076 0
M  V30 5410 C 524.332 3.70555 2.07302 0
M  V30 5411 O 525.356 3.14109 1.6797 0
M  V30 5412 O 524.215 4.69562 2.79596 0
M  V30 5413 H 521.309 0.691727 0.453257 0
M  V30 5414 H 523.855 1.68353 0.213358 0
M  V30 5415 H 522.627 3.82617 0.819759 0
M  V30 5416 H 522.25 3.16749 2.40324 0
M  V30 5417 N 523.247 -0.488276 1.49845 0
M  V30 5418 C 524.496 -1.23826 1.59217 0
M  V30 5419 C 524.809 -1.93439 0.289966 0
M  V30 5420 O 526.015 -2.70229 0.262382 0
M  V30 5421 C 524.471 -2.24902 2.80976 0
M  V30 5422 C 524.079 -1.6117 4.18005 0
M  V30 5423 C 525.823 -3.00648 2.99685 0
M  V30 5424 C 523.73 -2.60431 5.3097 0
M  V30 5425 H 522.66 -0.465858 0.592868 0
M  V30 5426 H 525.311 -0.510645 1.76252 0
M  V30 5427 H 523.693 -3.0088 2.57463 0
M  V30 5428 H 524.867 -0.910968 4.51706 0
M  V30 5429 H 523.182 -0.97767 4.0476 0
M  V30 5430 H 525.779 -3.74903 3.81251 0
M  V30 5431 H 526.122 -3.5902 2.10738 0
M  V30 5432 H 526.655 -2.31784 3.23297 0
M  V30 5433 H 523.394 -2.06823 6.22017 0
M  V30 5434 H 522.914 -3.28707 5.01709 0
M  V30 5435 H 524.593 -3.22606 5.60834 0
M  V30 5436 N 524.725 -1.39134 -0.740242 0
M  V30 5437 C 525.953 -1.39334 -1.5295 0
M  V30 5438 C 526.368 0.0135008 -1.88795 0
M  V30 5439 O 525.725 0.983524 -1.5373 0
M  V30 5440 C 525.776 -2.2614 -2.82034 0
M  V30 5441 O 525.497 -3.61345 -2.47712 0
M  V30 5442 C 526.998 -2.34666 -3.76094 0
M  V30 5443 H 524.218 -0.476103 -0.472828 0
M  V30 5444 H 526.762 -1.82883 -0.9151 0
M  V30 5445 H 524.917 -1.86018 -3.39818 0
M  V30 5446 H 525.331 -4.07194 -3.30595 0
M  V30 5447 H 526.805 -2.99663 -4.63579 0
M  V30 5448 H 527.282 -1.36426 -4.17474 0
M  V30 5449 H 527.888 -2.75236 -3.2423 0
M  V30 5450 N 526.204 0.969867 -1.24223 0
M  V30 5451 C 527.154 2.04913 -0.999732 0
M  V30 5452 C 528.138 1.60795 0.0580636 0
M  V30 5453 O 529.33 1.76317 -0.155392 0
M  V30 5454 C 526.459 3.37942 -0.604154 0
M  V30 5455 C 525.545 3.88628 -1.69791 0
M  V30 5456 N 525.936 4.12274 -2.93025 0
M  V30 5457 C 524.234 4.17268 -1.57492 0
M  V30 5458 C 524.935 4.53808 -3.63914 0
M  V30 5459 N 523.911 4.58855 -2.91468 0
M  V30 5460 H 527.713 2.21168 -1.93551 0
M  V30 5461 H 525.227 1.15349 -1.14317 0
M  V30 5462 H 527.224 4.14863 -0.411665 0
M  V30 5463 H 525.884 3.23075 0.324465 0
M  V30 5464 H 526.895 3.99789 -3.29225 0
M  V30 5465 H 523.572 4.11346 -0.714175 0
M  V30 5466 H 524.962 4.80534 -4.69614 0
M  V30 5467 N 527.682 1.05563 1.17022 0
M  V30 5468 C 529.093 0.793475 1.69 0
M  V30 5469 C 529.444 -0.683882 1.83895 0
M  V30 5470 O 528.569 -1.53116 1.5292 0
M  V30 5471 C 529.164 1.43376 3.06967 0
M  V30 5472 C 527.723 1.21956 3.56095 0
M  V30 5473 C 526.87 1.51494 2.3226 0
M  V30 5474 H 529.821 1.22008 1.01487 0
M  V30 5475 H 529.842 0.845068 3.70997 0
M  V30 5476 H 529.354 2.50899 2.96093 0
M  V30 5477 H 527.455 0.163749 3.7224 0
M  V30 5478 H 527.568 1.92713 4.38633 0
M  V30 5479 H 525.932 0.935175 2.3691 0
M  V30 5480 H 526.715 2.60159 2.23992 0
M  V30 5481 N 529.16 -1.33526 0.837174 0
M  V30 5482 C 530.409 -1.97098 0.428387 0
M  V30 5483 C 530.722 -1.67062 -1.01734 0
M  V30 5484 O 531.928 -2.24235 -1.53072 0
M  V30 5485 C 530.384 -3.52725 0.715075 0
M  V30 5486 C 529.992 -3.9164 2.17537 0
M  V30 5487 C 531.736 -4.22857 0.373154 0
M  V30 5488 C 529.643 -5.40237 2.40619 0
M  V30 5489 H 528.573 -0.737589 0.156455 0
M  V30 5490 H 531.224 -1.52169 1.02552 0
M  V30 5491 H 529.606 -3.95971 0.0475904 0
M  V30 5492 H 530.78 -3.59456 2.88319 0
M  V30 5493 H 529.095 -3.34485 2.4801 0
M  V30 5494 H 531.692 -5.32133 0.523264 0
M  V30 5495 H 532.035 -4.10647 -0.683708 0
M  V30 5496 H 532.568 -3.85135 0.995801 0
M  V30 5497 H 529.307 -5.57449 3.44864 0
M  V30 5498 H 528.827 -5.73887 1.74396 0
M  V30 5499 H 530.506 -6.07102 2.23688 0
M  V30 5500 N 530.638 -0.59345 -1.46 0
M  V30 5501 C 532.049 -0.169801 -1.85926 0
M  V30 5502 C 532.4 1.26984 -1.49565 0
M  V30 5503 O 531.525 1.96076 -0.915602 0
M  V30 5504 C 532.12 -0.301385 -3.37457 0
M  V30 5505 C 530.679 0.0674684 -3.7634 0
M  V30 5506 C 529.826 -0.632383 -2.69993 0
M  V30 5507 H 532.777 -0.801014 -1.37002 0
M  V30 5508 H 532.798 0.470331 -3.77582 0
M  V30 5509 H 532.31 -1.34927 -3.63891 0
M  V30 5510 H 530.411 1.11507 -3.55523 0
M  V30 5511 H 530.524 -0.316332 -4.78055 0
M  V30 5512 H 528.888 -0.0714961 -2.546 0
M  V30 5513 H 529.671 -1.68212 -2.99265 0
M  V30 5514 N 532.116 1.54067 -0.331816 0
M  V30 5515 C 533.393 1.92915 0.322955 0
M  V30 5516 C 533.773 1.26225 1.69205 0
M  V30 5517 O 533.121 0.408919 2.24811 0
M  V30 5518 C 533.331 3.46619 0.406946 0
M  V30 5519 C 534.679 4.19386 0.663339 0
M  V30 5520 O 535.703 3.5282 0.489536 0
M  V30 5521 O 534.562 5.37288 0.999193 0
M  V30 5522 H 531.656 0.805808 0.186016 0
M  V30 5523 H 534.202 1.65342 -0.382135 0
M  V30 5524 H 532.974 3.87354 -0.554287 0
M  V30 5525 H 532.597 3.80324 1.15929 0
M  V30 5526 N 533.594 0.0601682 1.57485 0
M  V30 5527 C 534.524 -0.90889 2.15085 0
M  V30 5528 C 535.505 -1.31838 1.07484 0
M  V30 5529 O 536.69 -1.3915 1.35466 0
M  V30 5530 C 533.82 -2.18059 2.7031 0
M  V30 5531 C 532.774 -1.91088 3.82974 0
M  V30 5532 C 532.1 -3.24789 4.24754 0
M  V30 5533 C 533.4 -1.22535 5.07723 0
M  V30 5534 H 535.094 -0.429093 2.96309 0
M  V30 5535 H 532.64 -0.204952 1.42534 0
M  V30 5536 H 534.593 -2.86258 3.09248 0
M  V30 5537 H 533.317 -2.6826 1.8629 0
M  V30 5538 H 531.976 -1.25297 3.44523 0
M  V30 5539 H 531.624 -3.72809 3.37672 0
M  V30 5540 H 531.324 -3.07538 5.00694 0
M  V30 5541 H 532.848 -3.94205 4.66299 0
M  V30 5542 H 534.262 -1.80783 5.4405 0
M  V30 5543 H 532.659 -1.1558 5.88864 0
M  V30 5544 H 533.729 -0.202692 4.84476 0
M  V30 5545 N 535.072 -1.5615 -0.213296 0
M  V30 5546 C 536.3 -1.83638 -0.953139 0
M  V30 5547 C 536.715 -0.640362 -1.77609 0
M  V30 5548 O 536.072 0.391071 -1.78261 0
M  V30 5549 C 536.123 -3.09735 -1.86405 0
M  V30 5550 O 535.844 -4.24723 -1.07435 0
M  V30 5551 C 537.345 -3.5027 -2.71709 0
M  V30 5552 H 534.565 -0.610263 -0.278962 0
M  V30 5553 H 537.109 -2.03247 -0.226035 0
M  V30 5554 H 535.264 -2.92077 -2.545 0
M  V30 5555 H 535.678 -4.9641 -1.69343 0
M  V30 5556 H 537.152 -4.41515 -3.31313 0
M  V30 5557 H 537.629 -2.72406 -3.44516 0
M  V30 5558 H 538.235 -3.70396 -2.09015 0
M  V30 5559 N 536.55 0.480323 -1.50102 0
M  V30 5560 C 537.798 1.23063 -1.60312 0
M  V30 5561 C 538.119 1.92659 -0.301226 0
M  V30 5562 O 537.389 1.83691 0.680753 0
M  V30 5563 H 535.969 0.457231 -0.590719 0
M  V30 5564 H 538.631 0.554893 -1.86834 0
M  V30 5565 H 537.727 1.9835 -2.40964 0
M  V30 5566 N 538.028 1.39524 0.732853 0
M  V30 5567 C 539.275 1.36865 1.49246 0
M  V30 5568 C 539.603 -0.0347118 1.94469 0
M  V30 5569 O 538.858 -1.01596 1.67262 0
M  V30 5570 C 539.157 2.28916 2.74468 0
M  V30 5571 C 538.823 3.76506 2.481 0
M  V30 5572 C 537.485 4.16721 2.40619 0
M  V30 5573 C 539.837 4.69846 2.25598 0
M  V30 5574 C 537.165 5.48334 2.08679 0
M  V30 5575 C 539.517 6.01739 1.95174 0
M  V30 5576 C 538.181 6.41015 1.86163 0
M  V30 5577 H 537.451 0.500824 0.546129 0
M  V30 5578 H 540.098 1.72047 0.840958 0
M  V30 5579 H 538.403 1.86859 3.4437 0
M  V30 5580 H 540.1 2.2415 3.32502 0
M  V30 5581 H 536.69 3.44635 2.54803 0
M  V30 5582 H 540.874 4.39608 2.30344 0
M  V30 5583 H 536.13 5.77685 2.00226 0
M  V30 5584 H 540.304 6.73591 1.76771 0
M  V30 5585 H 537.931 7.42917 1.61179 0
M  V30 5586 N 539.506 -0.963266 1.24736 0
M  V30 5587 C 540.755 -1.70115 1.08369 0
M  V30 5588 C 541.068 -1.91939 -0.376688 0
M  V30 5589 O 542.274 -2.6334 -0.660624 0
M  V30 5590 C 540.73 -3.06218 1.89099 0
M  V30 5591 C 540.338 -2.92221 3.39574 0
M  V30 5592 C 542.082 -3.83848 1.81275 0
M  V30 5593 C 539.989 -4.23662 4.12631 0
M  V30 5594 H 538.919 -0.637944 0.401924 0
M  V30 5595 H 541.57 -1.07304 1.48856 0
M  V30 5596 H 539.952 -3.69884 1.41429 0
M  V30 5597 H 541.126 -2.37541 3.94856 0
M  V30 5598 H 539.441 -2.28054 3.48397 0
M  V30 5599 H 542.038 -4.81188 2.33158 0
M  V30 5600 H 542.381 -4.08949 0.778895 0
M  V30 5601 H 542.914 -3.26918 2.26649 0
M  V30 5602 H 539.653 -4.03753 5.16395 0
M  V30 5603 H 539.173 -4.78141 3.62135 0
M  V30 5604 H 540.852 -4.92256 4.19873 0
M  V30 5605 N 540.985 -1.06182 -1.16461 0
M  V30 5606 C 542.213 -0.798583 -1.90867 0
M  V30 5607 C 542.628 0.646921 -1.77371 0
M  V30 5608 O 541.985 1.44279 -1.11758 0
M  V30 5609 C 542.036 -1.18258 -3.4161 0
M  V30 5610 O 541.757 -2.57135 -3.54701 0
M  V30 5611 C 543.258 -0.946917 -4.33069 0
M  V30 5612 H 540.478 -0.289603 -0.605286 0
M  V30 5613 H 543.022 -1.41515 -1.47627 0
M  V30 5614 H 541.177 -0.610562 -3.82558 0
M  V30 5615 H 541.591 -2.72477 -4.4817 0
M  V30 5616 H 543.065 -1.26523 -5.37304 0
M  V30 5617 H 543.542 0.117406 -4.39043 0
M  V30 5618 H 544.148 -1.50326 -3.97847 0
M  V30 5619 N 542.463 1.3308 -0.844243 0
M  V30 5620 C 543.373 2.32876 -0.283922 0
M  V30 5621 C 544.389 1.63589 0.592846 0
M  V30 5622 O 545.565 1.95205 0.495693 0
M  V30 5623 C 542.63 3.42667 0.527283 0
M  V30 5624 C 541.691 4.27664 -0.374394 0
M  V30 5625 C 540.924 5.32212 0.39819 0
M  V30 5626 O 541.147 5.46635 1.62932 0
M  V30 5627 O 540.081 6.01458 -0.2306 0
M  V30 5628 H 543.907 2.82671 -1.11045 0
M  V30 5629 H 541.492 1.36518 -0.606903 0
M  V30 5630 H 543.374 4.09652 0.988078 0
M  V30 5631 H 542.049 2.95079 1.33078 0
M  V30 5632 H 540.956 3.63526 -0.883144 0
M  V30 5633 H 542.289 4.78749 -1.1428 0
M  V30 5634 N 543.941 0.601185 1.45683 0
M  V30 5635 C 545.189 0.0936957 2.01883 0
M  V30 5636 C 545.51 -1.2779 1.47291 0
M  V30 5637 O 544.78 -1.84279 0.664691 0
M  V30 5638 H 543.36 0.0316466 0.746329 0
M  V30 5639 H 546.022 0.781137 1.78562 0
M  V30 5640 H 545.118 0.0386297 3.12076 0
M  V30 5641 N 545.419 -1.53889 0.339982 0
M  V30 5642 C 546.351 -2.22435 -0.55275 0
M  V30 5643 C 547.364 -1.22975 -1.06681 0
M  V30 5644 O 548.553 -1.49351 -0.977575 0
M  V30 5645 C 545.653 -2.8882 -1.77302 0
M  V30 5646 C 544.826 -4.14563 -1.39486 0
M  V30 5647 C 543.885 -4.64391 -2.47442 0
M  V30 5648 O 542.911 -5.28687 -2.10899 0
M  V30 5649 N 544.113 -4.40015 -3.78639 0
M  V30 5650 H 546.878 -2.9968 0.0342669 0
M  V30 5651 H 544.439 -1.61068 0.16394 0
M  V30 5652 H 546.431 -3.19072 -2.48948 0
M  V30 5653 H 545.001 -2.15182 -2.26749 0
M  V30 5654 H 544.221 -3.90896 -0.509321 0
M  V30 5655 H 545.509 -4.96362 -1.11813 0
M  V30 5656 H 544.907 -3.88586 -4.11118 0
M  V30 5657 H 543.464 -4.74881 -4.46465 0
M  V30 5658 N 546.897 -0.0685191 -1.57451 0
M  V30 5659 C 548.146 0.600898 -1.92541 0
M  V30 5660 C 548.459 1.70967 -0.950239 0
M  V30 5661 O 549.665 2.43844 -1.19384 0
M  V30 5662 C 548.121 1.12019 -3.42023 0
M  V30 5663 C 547.729 0.0426028 -4.4798 0
M  V30 5664 C 549.473 1.76386 -3.86119 0
M  V30 5665 C 547.38 0.575759 -5.88591 0
M  V30 5666 H 546.31 0.228225 -0.71863 0
M  V30 5667 H 548.961 -0.140223 -1.82963 0
M  V30 5668 H 547.343 1.91418 -3.46663 0
M  V30 5669 H 548.517 -0.73182 -4.54952 0
M  V30 5670 H 546.832 -0.504642 -4.13331 0
M  V30 5671 H 549.429 2.17302 -4.88553 0
M  V30 5672 H 549.772 2.62255 -3.23308 0
M  V30 5673 H 550.305 1.03615 -3.84069 0
M  V30 5674 H 547.044 -0.245691 -6.55039 0
M  V30 5675 H 546.564 1.31778 -5.85145 0
M  V30 5676 H 548.243 1.0532 -6.3837 0
M  V30 5677 N 548.375 1.56261 0.205012 0
M  V30 5678 C 549.605 1.83874 0.942018 0
M  V30 5679 C 550.013 0.647595 1.77772 0
M  V30 5680 O 549.356 -0.393098 1.79445 0
M  V30 5681 C 549.418 3.05453 1.89575 0
M  V30 5682 C 549.082 4.39772 1.24296 0
M  V30 5683 C 550.079 5.16133 0.624724 0
M  V30 5684 C 547.764 4.86504 1.24978 0
M  V30 5685 C 549.758 6.37396 0.0220117 0
M  V30 5686 C 547.445 6.07705 0.643232 0
M  V30 5687 C 548.443 6.82993 0.0304164 0
M  V30 5688 O 548.131 8.019 -0.566654 0
M  V30 5689 H 547.863 0.614896 0.280854 0
M  V30 5690 H 550.417 2.04215 0.220285 0
M  V30 5691 H 548.647 2.80972 2.65691 0
M  V30 5692 H 550.336 3.19797 2.4997 0
M  V30 5693 H 551.102 4.81127 0.611666 0
M  V30 5694 H 546.981 4.27865 1.71616 0
M  V30 5695 H 550.525 6.96102 -0.456926 0
M  V30 5696 H 546.422 6.42181 0.653759 0
M  V30 5697 H 547.19 8.17192 -0.462588 0
M  V30 5698 N 549.853 -0.472356 1.50355 0
M  V30 5699 C 551.099 -1.22634 1.6152 0
M  V30 5700 C 551.432 -1.91645 0.313995 0
M  V30 5701 O 550.707 -1.82059 -0.684446 0
M  V30 5702 C 550.99 -2.27099 2.7946 0
M  V30 5703 C 550.843 -1.62402 4.19459 0
M  V30 5704 C 552.162 -3.28421 2.92964 0
M  V30 5705 H 549.281 -0.444494 0.587873 0
M  V30 5706 H 551.923 -0.520321 1.82737 0
M  V30 5707 H 550.073 -2.87314 2.61501 0
M  V30 5708 H 551.745 -1.05793 4.49005 0
M  V30 5709 H 549.988 -0.927184 4.23776 0
M  V30 5710 H 550.659 -2.38309 4.97909 0
M  V30 5711 H 553.135 -2.78227 3.09401 0
M  V30 5712 H 552.011 -3.98845 3.77113 0
M  V30 5713 H 552.272 -3.92467 2.03525 0
M  V30 5714 N 551.331 -1.39911 -0.725443 0
M  V30 5715 C 552.608 -1.28158 -1.47766 0
M  V30 5716 C 552.988 0.104545 -2.10841 0
M  V30 5717 O 552.336 1.11657 -1.99361 0
M  V30 5718 C 552.546 -2.41306 -2.52135 0
M  V30 5719 C 553.894 -2.81076 -3.18247 0
M  V30 5720 O 554.918 -2.40827 -2.62452 0
M  V30 5721 O 553.777 -3.50581 -4.19231 0
M  V30 5722 H 550.871 -0.502761 -0.656628 0
M  V30 5723 H 553.417 -1.51808 -0.758456 0
M  V30 5724 H 552.189 -3.33932 -2.03974 0
M  V30 5725 H 551.812 -2.19374 -3.31603 0
M  V30 5726 N 552.809 0.956637 -1.25245 0
M  V30 5727 C 554.225 1.22733 -1.02023 0
M  V30 5728 C 554.425 1.99761 0.264186 0
M  V30 5729 O 553.481 2.32814 0.977436 0
M  V30 5730 C 554.794 2.00367 -2.24217 0
M  V30 5731 C 556.342 2.13418 -2.28958 0
M  V30 5732 C 556.817 2.9445 -3.50803 0
M  V30 5733 N 558.308 3.02029 -3.51187 0
M  V30 5734 C 559.043 3.65116 -4.42129 0
M  V30 5735 N 558.539 4.2983 -5.43339 0
M  V30 5736 N 560.332 3.62237 -4.29815 0
M  V30 5737 H 552.483 0.441282 -2.07765 0
M  V30 5738 H 554.746 0.257686 -0.912306 0
M  V30 5739 H 554.452 1.51165 -3.17556 0
M  V30 5740 H 554.326 3.01077 -2.27228 0
M  V30 5741 H 556.713 2.61819 -1.36143 0
M  V30 5742 H 556.794 1.1202 -2.29968 0
M  V30 5743 H 556.438 2.46741 -4.43939 0
M  V30 5744 H 556.368 3.9607 -3.47039 0
M  V30 5745 H 558.859 2.56007 -2.77973 0
M  V30 5746 H 559.172 4.75819 -6.08947 0
M  V30 5747 H 557.517 4.28465 -5.47214 0
M  V30 5748 H 560.708 3.10863 -3.49974 0
M  V30 5749 H 560.881 4.11117 -5.00886 0
M  V30 5750 N 554.287 1.06798 1.15896 0
M  V30 5751 C 555.219 0.641263 2.20046 0
M  V30 5752 C 556.232 -0.303355 1.59949 0
M  V30 5753 O 557.421 -0.0935478 1.78255 0
M  V30 5754 C 554.521 -0.0794029 3.38807 0
M  V30 5755 C 553.694 0.879986 4.28457 0
M  V30 5756 C 552.753 0.197638 5.25829 0
M  V30 5757 O 551.779 0.836913 5.63014 0
M  V30 5758 N 552.981 -1.05886 5.70761 0
M  V30 5759 H 555.746 1.53718 2.57276 0
M  V30 5760 H 553.307 0.951951 1.30956 0
M  V30 5761 H 555.299 -0.546418 4.00994 0
M  V30 5762 H 553.869 -0.877193 3.0004 0
M  V30 5763 H 553.089 1.52625 3.63454 0
M  V30 5764 H 554.377 1.53065 4.8523 0
M  V30 5765 H 553.775 -1.59828 5.42652 0
M  V30 5766 H 552.332 -1.46965 6.35015 0
M  V30 5767 N 555.766 -1.3263 0.851289 0
M  V30 5768 C 556.696 -2.31449 0.308771 0
M  V30 5769 C 557.677 -1.59531 -0.590255 0
M  V30 5770 O 558.862 -1.87351 -0.511205 0
M  V30 5771 C 555.992 -3.43586 -0.506548 0
M  V30 5772 C 554.946 -4.26963 0.297753 0
M  V30 5773 C 554.272 -5.30831 -0.642094 0
M  V30 5774 C 555.572 -4.99643 1.52166 0
M  V30 5775 H 557.266 -2.77074 1.13447 0
M  V30 5776 H 554.812 -1.33207 0.546971 0
M  V30 5777 H 556.765 -4.11754 -0.896474 0
M  V30 5778 H 555.489 -2.96681 -1.36558 0
M  V30 5779 H 554.148 -3.60437 0.669391 0
M  V30 5780 H 553.796 -4.8018 -1.49788 0
M  V30 5781 H 553.496 -5.87501 -0.107968 0
M  V30 5782 H 555.02 -6.01862 -1.02927 0
M  V30 5783 H 556.434 -5.6051 1.20421 0
M  V30 5784 H 554.831 -5.66022 1.99347 0
M  V30 5785 H 555.901 -4.27701 2.28474 0
M  V30 5786 N 557.244 -0.608902 -1.45362 0
M  V30 5787 C 558.194 0.130616 -2.27626 0
M  V30 5788 C 559.178 0.837323 -1.37396 0
M  V30 5789 O 560.37 0.727096 -1.61376 0
M  V30 5790 C 557.499 1.12646 -3.24293 0
M  V30 5791 C 556.585 0.42052 -4.2201 0
M  V30 5792 N 556.976 -0.538569 -5.02925 0
M  V30 5793 C 555.274 0.667901 -4.40971 0
M  V30 5794 C 555.975 -0.953625 -5.7383 0
M  V30 5795 N 554.951 -0.297097 -5.42788 0
M  V30 5796 H 558.753 -0.605996 -2.87585 0
M  V30 5797 H 556.267 -0.432672 -1.5653 0
M  V30 5798 H 558.264 1.67066 -3.81961 0
M  V30 5799 H 556.924 1.86361 -2.65894 0
M  V30 5800 H 557.935 -0.915375 -5.09746 0
M  V30 5801 H 554.612 1.38963 -3.93695 0
M  V30 5802 H 556.002 -1.74473 -6.48852 0
M  V30 5803 N 558.722 1.53707 -0.348139 0
M  V30 5804 C 559.67 2.26671 0.521808 0
M  V30 5805 C 560.664 1.28988 1.09811 0
M  V30 5806 O 561.87 1.4668 1.04332 0
M  V30 5807 H 558.245 0.728387 0.186968 0
M  V30 5808 H 560.216 2.98176 -0.115563 0
M  V30 5809 C 558.965 3.05591 1.6586 0
M  V30 5810 H 558.288 3.80589 1.22443 0
M  V30 5811 H 559.728 3.59851 2.24239 0
M  V30 5812 C 558.187 2.15366 2.59073 0
M  V30 5813 O 558.717 1.7528 3.61441 0
M  V30 5814 N 556.923 1.80352 2.27863 0
M  V30 5815 H 556.47 2.13149 1.44656 0
M  V30 5816 H 556.428 1.20268 2.90488 0
M  V30 5817 N 560.2 0.0768682 1.57412 0
M  V30 5818 C 561.616 -0.279772 1.57129 0
M  V30 5819 C 561.816 -1.69688 1.08666 0
M  V30 5820 O 560.872 -2.40953 0.754843 0
M  V30 5821 C 562.185 -0.0848055 3.0058 0
M  V30 5822 C 563.733 -0.153954 3.12621 0
M  V30 5823 C 564.208 0.0127946 4.57998 0
M  V30 5824 N 565.699 -0.0426435 4.6318 0
M  V30 5825 C 566.434 0.0618892 5.73367 0
M  V30 5826 N 565.93 0.220229 6.9245 0
M  V30 5827 N 567.723 0.00446072 5.621 0
M  V30 5828 H 559.874 1.00297 1.87228 0
M  V30 5829 H 562.137 0.391565 0.863354 0
M  V30 5830 H 561.843 0.89325 3.40168 0
M  V30 5831 H 561.717 -0.834961 3.67843 0
M  V30 5832 H 564.104 -1.1225 2.72917 0
M  V30 5833 H 564.185 0.627389 2.47987 0
M  V30 5834 H 563.829 0.978128 4.98392 0
M  V30 5835 H 563.759 -0.788016 5.20671 0
M  V30 5836 H 566.25 -0.163226 3.77547 0
M  V30 5837 H 566.563 0.291999 7.72248 0
M  V30 5838 H 564.908 0.255658 6.9453 0
M  V30 5839 H 568.099 -0.117979 4.67951 0
M  V30 5840 H 568.272 0.0893796 6.47938 0
M  V30 5841 N 561.678 -1.56367 -0.196722 0
M  V30 5842 C 562.61 -1.90941 -1.26784 0
M  V30 5843 C 563.623 -0.799928 -1.41792 0
M  V30 5844 O 564.812 -1.07833 -1.42247 0
M  V30 5845 C 561.912 -2.12477 -2.6402 0
M  V30 5846 C 561.085 -3.43616 -2.70641 0
M  V30 5847 C 560.144 -3.54284 -3.89062 0
M  V30 5848 O 559.17 -4.2712 -3.76241 0
M  V30 5849 N 560.372 -2.87252 -5.04447 0
M  V30 5850 H 563.137 -2.83417 -0.974417 0
M  V30 5851 H 560.698 -1.57215 -0.386649 0
M  V30 5852 H 562.69 -2.16904 -3.41665 0
M  V30 5853 H 561.26 -1.26508 -2.85857 0
M  V30 5854 H 560.48 -3.51072 -1.79283 0
M  V30 5855 H 561.768 -4.29958 -2.72054 0
M  V30 5856 H 561.166 -2.27901 -5.17762 0
M  V30 5857 H 559.723 -2.97308 -5.80044 0
M  V30 5858 N 563.156 0.464375 -1.50603 0
M  V30 5859 C 564.405 1.21277 -1.61167 0
M  V30 5860 C 564.718 1.92953 -0.320704 0
M  V30 5861 O 565.924 2.69778 -0.30534 0
M  V30 5862 C 564.38 2.20403 -2.84518 0
M  V30 5863 C 563.988 1.54499 -4.20516 0
M  V30 5864 C 565.732 2.95843 -3.0443 0
M  V30 5865 C 563.639 2.51951 -5.35047 0
M  V30 5866 H 562.569 0.456367 -0.600204 0
M  V30 5867 H 565.22 0.48254 -1.77042 0
M  V30 5868 H 563.602 2.96746 -2.62217 0
M  V30 5869 H 564.776 0.83899 -4.53098 0
M  V30 5870 H 563.091 0.913152 -4.06264 0
M  V30 5871 H 565.688 3.6879 -3.87167 0
M  V30 5872 H 566.031 3.55622 -2.16423 0
M  V30 5873 H 566.564 2.26611 -3.26944 0
M  V30 5874 H 563.303 1.96901 -6.25228 0
M  V30 5875 H 562.823 3.20683 -5.06875 0
M  V30 5876 H 564.502 3.13643 -5.65895 0
M  V30 5877 N 564.634 1.40294 0.718013 0
M  V30 5878 C 565.864 1.41544 1.50495 0
M  V30 5879 C 566.272 0.0127877 1.89196 0
M  V30 5880 O 565.615 -0.97305 1.55812 0
M  V30 5881 C 565.677 2.24021 2.81167 0
M  V30 5882 C 565.341 3.72463 2.64803 0
M  V30 5883 C 566.338 4.65154 2.32223 0
M  V30 5884 C 564.023 4.1625 2.81143 0
M  V30 5885 C 566.017 5.99618 2.16189 0
M  V30 5886 C 563.704 5.50784 2.64727 0
M  V30 5887 C 564.702 6.42283 2.32297 0
M  V30 5888 O 564.39 7.74337 2.16004 0
M  V30 5889 H 564.122 0.484819 0.471091 0
M  V30 5890 H 566.676 1.84948 0.893488 0
M  V30 5891 H 564.906 1.75393 3.44636 0
M  V30 5892 H 566.595 2.17243 3.42871 0
M  V30 5893 H 567.361 4.32622 2.19234 0
M  V30 5894 H 563.24 3.45352 3.05373 0
M  V30 5895 H 566.784 6.71 1.90799 0
M  V30 5896 H 562.681 5.82902 2.773 0
M  V30 5897 H 563.449 7.85244 2.30942 0
M  V30 5898 N 566.112 -0.949982 1.2575 0
M  V30 5899 C 567.523 -1.50989 1.09815 0
M  V30 5900 C 567.874 -1.93497 -0.324556 0
M  V30 5901 O 566.999 -1.79068 -1.21506 0
M  V30 5902 C 567.594 -2.74394 1.98729 0
M  V30 5903 C 566.153 -3.26682 1.86965 0
M  V30 5904 C 565.3 -1.99498 1.92603 0
M  V30 5905 H 568.251 -0.766387 1.38968 0
M  V30 5906 H 568.272 -3.48383 1.53001 0
M  V30 5907 H 567.784 -2.43425 3.02268 0
M  V30 5908 H 565.885 -3.62461 0.863279 0
M  V30 5909 H 565.998 -3.94383 2.72027 0
M  V30 5910 H 564.362 -2.15005 1.36546 0
M  V30 5911 H 565.145 -1.70871 2.97755 0
M  V30 5912 N 567.59 -1.07411 -1.15328 0
M  V30 5913 C 569.001 -0.820261 -1.67716 0
M  V30 5914 C 569.352 0.654539 -1.8496 0
M  V30 5915 O 568.477 1.50664 -1.55337 0
M  V30 5916 C 569.072 -1.48242 -3.04647 0
M  V30 5917 C 567.631 -1.27606 -3.5411 0
M  V30 5918 C 566.778 -1.5517 -2.29821 0
M  V30 5919 H 569.729 -1.23608 -0.995332 0
M  V30 5920 H 569.75 -0.903984 -3.69606 0
M  V30 5921 H 569.262 -2.55578 -2.92064 0
M  V30 5922 H 567.363 -0.222948 -3.71932 0
M  V30 5923 H 567.476 -1.99667 -4.35511 0
M  V30 5924 H 565.84 -0.972747 -2.35393 0
M  V30 5925 H 566.623 -2.63689 -2.19824 0
M  V30 5926 N 569.068 1.32177 -0.85831 0
M  V30 5927 C 570.317 1.96392 -0.459689 0
M  V30 5928 C 570.63 1.68659 0.990632 0
M  V30 5929 O 571.836 2.26641 1.49485 0
M  V30 5930 C 570.292 3.51542 -0.7711 0
M  V30 5931 C 569.9 3.8813 -2.2374 0
M  V30 5932 C 571.644 4.2221 -0.44038 0
M  V30 5933 C 569.551 5.36341 -2.49183 0
M  V30 5934 H 568.481 0.735007 -0.168169 0
M  V30 5935 H 571.132 1.50518 -1.0496 0
M  V30 5936 H 569.514 3.95846 -0.11058 0
M  V30 5937 H 570.688 3.54824 -2.94001 0
M  V30 5938 H 569.003 3.30497 -2.533 0
M  V30 5939 H 571.6 5.31234 -0.607855 0
M  V30 5940 H 571.943 4.11683 0.618291 0
M  V30 5941 H 572.476 3.83502 -1.05695 0
M  V30 5942 H 569.215 5.51892 -3.53689 0
M  V30 5943 H 568.735 5.7104 -1.83504 0
M  V30 5944 H 570.414 6.03466 -2.33318 0
M  V30 5945 N 570.547 0.616602 1.45037 0
M  V30 5946 C 571.495 -0.109318 2.32343 0
M  V30 5947 C 572.489 -0.850543 1.465 0
M  V30 5948 O 573.695 -0.765088 1.62931 0
M  V30 5949 H 570.07 -0.0541091 0.750051 0
M  V30 5950 H 572.041 0.645326 2.91338 0
M  V30 5951 C 570.79 -1.0872 3.30266 0
M  V30 5952 H 570.113 -0.526267 3.96321 0
M  V30 5953 H 571.553 -1.56489 3.94065 0
M  V30 5954 C 570.012 -2.16525 2.58105 0
M  V30 5955 O 570.542 -3.244 2.36913 0
M  V30 5956 N 568.748 -1.92057 2.18088 0
M  V30 5957 H 568.295 -1.04337 2.35524 0
M  V30 5958 H 568.253 -2.64391 1.70131 0
M  V30 5959 N 572.025 -1.5352 0.356285 0
M  V30 5960 C 573.271 -2.01414 -0.236653 0
M  V30 5961 C 573.604 -1.24339 -1.49176 0
M  V30 5962 O 572.879 -0.334496 -1.91602 0
M  V30 5963 C 573.162 -3.56059 -0.537982 0
M  V30 5964 C 573.015 -4.43835 0.730112 0
M  V30 5965 C 574.334 -4.19127 -1.34239 0
M  V30 5966 H 571.453 -0.732135 -0.0845386 0
M  V30 5967 H 574.095 -1.83854 0.479341 0
M  V30 5968 H 572.245 -3.71153 -1.14795 0
M  V30 5969 H 573.917 -4.40555 1.36782 0
M  V30 5970 H 572.16 -4.1218 1.3524 0
M  V30 5971 H 572.831 -5.49958 0.474358 0
M  V30 5972 H 575.307 -4.07809 -0.826498 0
M  V30 5973 H 574.183 -5.27378 -1.52198 0
M  V30 5974 H 574.444 -3.74581 -2.34822 0
M  V30 5975 N 573.503 -0.0852151 -1.57369 0
M  V30 5976 C 574.433 0.874556 -2.16503 0
M  V30 5977 C 575.414 1.30111 -1.09568 0
M  V30 5978 O 576.599 1.36977 -1.37662 0
M  V30 5979 C 573.729 2.13731 -2.73745 0
M  V30 5980 C 572.683 1.84971 -3.85966 0
M  V30 5981 C 572.009 3.17991 -4.29867 0
M  V30 5982 C 573.309 1.14442 -5.09608 0
M  V30 5983 H 575.003 0.381899 -2.96954 0
M  V30 5984 H 572.549 0.18225 -1.42842 0
M  V30 5985 H 574.502 2.81302 -3.13763 0
M  V30 5986 H 573.226 2.65263 -1.90534 0
M  V30 5987 H 571.885 1.19801 -3.46473 0
M  V30 5988 H 571.533 3.6739 -3.4356 0
M  V30 5989 H 571.233 2.99534 -5.05523 0
M  V30 5990 H 572.757 3.86737 -4.72511 0
M  V30 5991 H 574.171 1.72105 -5.46857 0
M  V30 5992 H 572.568 1.06197 -5.90629 0
M  V30 5993 H 573.638 0.12559 -4.84737 0
M  V30 5994 N 574.981 1.5647 0.188427 0
M  V30 5995 C 576.392 1.70864 0.752494 0
M  V30 5996 C 576.743 0.692905 1.83557 0
M  V30 5997 O 575.868 -0.149307 2.15884 0
M  V30 5998 C 576.463 3.09789 1.37173 0
M  V30 5999 C 575.022 3.25925 1.88281 0
M  V30 6000 C 574.169 2.66817 0.755259 0
M  V30 6001 H 577.12 1.58657 -0.0367408 0
M  V30 6002 H 577.141 3.07489 2.24122 0
M  V30 6003 H 576.653 3.83693 0.583219 0
M  V30 6004 H 574.754 2.56948 2.6983 0
M  V30 6005 H 574.867 4.33498 2.04001 0
M  V30 6006 H 573.231 2.2617 1.17128 0
M  V30 6007 H 574.014 3.43294 -0.0211237 0
M  V30 6008 N 576.459 -0.456382 1.50847 0
M  V30 6009 C 577.684 -1.2349 1.66628 0
M  V30 6010 C 578.109 -1.84715 0.355254 0
M  V30 6011 O 577.467 -1.67961 -0.682559 0
M  V30 6012 C 577.515 -2.30865 2.77009 0
M  V30 6013 O 576.619 -3.35882 2.39285 0
M  V30 6014 H 575.96 -0.36266 0.556214 0
M  V30 6015 H 578.49 -0.541374 1.97308 0
M  V30 6016 H 578.5 -2.75949 3.00526 0
M  V30 6017 H 577.175 -1.85677 3.72152 0
M  V30 6018 H 575.752 -2.96406 2.26269 0
M  V30 6019 N 577.937 -1.40673 -0.710563 0
M  V30 6020 C 578.867 -1.44095 -1.83736 0
M  V30 6021 C 579.848 -0.301286 -1.67411 0
M  V30 6022 O 581.033 -0.510618 -1.87367 0
M  V30 6023 C 578.163 -1.30773 -3.21738 0
M  V30 6024 C 577.117 -2.42395 -3.52745 0
M  V30 6025 C 576.443 -2.14147 -4.89944 0
M  V30 6026 C 577.743 -3.84738 -3.53234 0
M  V30 6027 H 579.437 -2.38396 -1.81129 0
M  V30 6028 H 576.983 -1.14746 -0.870017 0
M  V30 6029 H 578.936 -1.31783 -4.00264 0
M  V30 6030 H 577.66 -0.329507 -3.24934 0
M  V30 6031 H 576.319 -2.40643 -2.76562 0
M  V30 6032 H 575.967 -1.14703 -4.89747 0
M  V30 6033 H 575.667 -2.88934 -5.11655 0
M  V30 6034 H 577.191 -2.16848 -5.70797 0
M  V30 6035 H 578.605 -3.88286 -4.2179 0
M  V30 6036 H 577.002 -4.59085 -3.86473 0
M  V30 6037 H 578.072 -4.13962 -2.52514 0
M  V30 6038 N 579.415 0.9433 -1.26252 0
M  V30 6039 C 580.64 1.72898 -1.14547 0
M  V30 6040 C 581.065 1.85761 0.295743 0
M  V30 6041 O 580.423 1.3463 1.21427 0
M  V30 6042 C 580.471 3.11471 -1.8171 0
M  V30 6043 O 579.575 3.97336 -1.10445 0
M  V30 6044 H 578.916 0.530555 -0.399259 0
M  V30 6045 H 581.446 1.18159 -1.67032 0
M  V30 6046 H 581.456 3.61872 -1.88449 0
M  V30 6047 H 580.131 3.01425 -2.86558 0
M  V30 6048 H 578.708 3.55788 -1.11666 0
M  V30 6049 N 580.893 1.08022 1.14757 0
M  V30 6050 C 582.309 0.807072 1.3769 0
M  V30 6051 C 582.509 -0.585504 1.92806 0
M  V30 6052 O 581.565 -1.34301 2.13821 0
M  V30 6053 C 582.878 1.88651 2.34161 0
M  V30 6054 C 584.426 1.91206 2.47809 0
M  V30 6055 C 584.901 2.98253 3.47576 0
M  V30 6056 N 586.392 2.974 3.55117 0
M  V30 6057 C 587.127 3.76872 4.32152 0
M  V30 6058 N 586.623 4.66212 5.12463 0
M  V30 6059 N 588.416 3.6519 4.27309 0
M  V30 6060 H 580.567 1.97824 0.77326 0
M  V30 6061 H 582.83 0.85826 0.402608 0
M  V30 6062 H 582.536 2.88749 2.00791 0
M  V30 6063 H 582.41 1.75244 3.3402 0
M  V30 6064 H 584.797 0.917564 2.80472 0
M  V30 6065 H 584.878 2.08691 1.47925 0
M  V30 6066 H 584.522 3.97907 3.15646 0
M  V30 6067 H 584.452 2.78014 4.47231 0
M  V30 6068 H 586.943 2.32643 2.97801 0
M  V30 6069 H 587.256 5.23468 5.68508 0
M  V30 6070 H 585.601 4.70257 5.11745 0
M  V30 6071 H 588.792 2.94765 3.63636 0
M  V30 6072 H 588.965 4.27366 4.87095 0
M  V30 6073 N 582.371 -1.3172 0.865308 0
M  V30 6074 C 583.301 -2.31109 0.333302 0
M  V30 6075 C 584.282 -1.60148 -0.573301 0
M  V30 6076 O 585.467 -1.87882 -0.491305 0
M  V30 6077 C 582.597 -3.44104 -0.470078 0
M  V30 6078 C 581.551 -4.26623 0.343021 0
M  V30 6079 C 580.877 -5.31482 -0.585756 0
M  V30 6080 C 582.177 -4.98001 1.57456 0
M  V30 6081 H 583.871 -2.75855 1.1638 0
M  V30 6082 H 581.417 -1.3262 0.561069 0
M  V30 6083 H 583.37 -4.12682 -0.852752 0
M  V30 6084 H 582.094 -2.98112 -1.33404 0
M  V30 6085 H 580.753 -3.59707 0.707583 0
M  V30 6086 H 580.401 -4.81741 -1.44686 0
M  V30 6087 H 580.101 -5.87582 -0.0456494 0
M  V30 6088 H 581.625 -6.0292 -0.965375 0
M  V30 6089 H 583.039 -5.59201 1.26359 0
M  V30 6090 H 581.436 -5.63876 2.05339 0
M  V30 6091 H 582.506 -4.25253 2.32997 0
M  V30 6092 N 583.85 -0.624285 -1.44708 0
M  V30 6093 C 584.783 0.133905 -2.27807 0
M  V30 6094 C 585.76 0.857794 -1.38133 0
M  V30 6095 O 586.945 0.863277 -1.6757 0
M  V30 6096 C 584.072 1.19541 -3.16903 0
M  V30 6097 C 583.118 0.572813 -4.22636 0
M  V30 6098 S 583.951 -0.631953 -5.31758 0
M  V30 6099 C 585.106 0.429733 -6.24423 0
M  V30 6100 H 585.34 -0.571072 -2.91764 0
M  V30 6101 H 582.873 -0.412261 -1.48794 0
M  V30 6102 H 584.831 1.80293 -3.68788 0
M  V30 6103 H 583.492 1.87255 -2.5218 0
M  V30 6104 H 582.685 1.37205 -4.84965 0
M  V30 6105 H 582.287 0.0400641 -3.73979 0
M  V30 6106 H 584.579 1.30421 -6.64828 0
M  V30 6107 H 585.522 -0.157804 -7.07924 0
M  V30 6108 H 585.93 0.75256 -5.59461 0
M  V30 6109 N 585.328 1.53329 -0.364422 0
M  V30 6110 C 586.275 2.25698 0.482607 0
M  V30 6111 C 587.245 1.26325 1.07848 0
M  V30 6112 O 588.43 1.55104 1.11119 0
M  V30 6113 C 585.57 3.04873 1.61699 0
M  V30 6114 C 584.683 4.19135 1.0464 0
M  V30 6115 C 583.818 4.85754 2.14979 0
M  V30 6116 C 582.857 5.9205 1.5538 0
M  V30 6117 N 581.994 6.52365 2.59547 0
M  V30 6118 H 586.834 2.97666 -0.141032 0
M  V30 6119 H 584.371 1.46875 -0.0813692 0
M  V30 6120 H 586.329 3.49051 2.28516 0
M  V30 6121 H 584.959 2.35162 2.2113 0
M  V30 6122 H 584.011 3.79451 0.268553 0
M  V30 6123 H 585.323 4.95525 0.570653 0
M  V30 6124 H 584.477 5.3311 2.89619 0
M  V30 6125 H 583.216 4.08834 2.65906 0
M  V30 6126 H 582.221 5.44058 0.792549 0
M  V30 6127 H 583.446 6.7089 1.0528 0
M  V30 6128 H 581.392 5.78298 3.09689 0
M  V30 6129 H 581.309 7.2429 2.16655 0
M  V30 6130 H 582.577 7.0437 3.33892 0
M  V30 6131 N 586.806 0.0935595 1.57322 0
M  V30 6132 C 588.031 -0.582324 1.99057 0
M  V30 6133 C 588.456 -1.61025 0.972242 0
M  V30 6134 O 587.814 -1.81202 -0.0594622 0
M  V30 6135 C 587.862 -1.20799 3.39765 0
M  V30 6136 O 586.966 -2.32382 3.40694 0
M  V30 6137 H 586.307 -0.147884 0.647323 0
M  V30 6138 H 588.837 0.174516 2.03854 0
M  V30 6139 H 588.847 -1.54966 3.77425 0
M  V30 6140 H 587.522 -0.454914 4.13405 0
M  V30 6141 H 586.099 -1.99845 3.14827 0
M  V30 6142 N 588.284 -1.56567 -0.180126 0
M  V30 6143 C 589.247 -1.94852 -1.20686 0
M  V30 6144 C 590.247 -0.831212 -1.3765 0
M  V30 6145 O 591.437 -1.09841 -1.35206 0
M  V30 6146 C 588.569 -2.23565 -2.57355 0
M  V30 6147 H 589.762 -2.86722 -0.879225 0
M  V30 6148 H 587.315 -1.50489 -0.422237 0
M  V30 6149 H 588.05 -1.34381 -2.95148 0
M  V30 6150 H 587.835 -3.04999 -2.46411 0
M  V30 6151 H 589.325 -2.54137 -3.31367 0
M  V30 6152 N 589.762 0.448376 -1.51087 0
M  V30 6153 C 591.011 1.19561 -1.62444 0
M  V30 6154 C 591.324 1.92602 -0.341151 0
M  V30 6155 O 592.53 2.69439 -0.333936 0
M  V30 6156 C 590.986 2.17373 -2.8684 0
M  V30 6157 C 590.594 1.5003 -4.22131 0
M  V30 6158 C 592.338 2.92597 -3.0755 0
M  V30 6159 C 590.245 2.46262 -5.37689 0
M  V30 6160 H 589.175 0.449975 -0.605011 0
M  V30 6161 H 591.826 0.463735 -1.77544 0
M  V30 6162 H 590.208 2.93948 -2.65349 0
M  V30 6163 H 591.382 0.790886 -4.53962 0
M  V30 6164 H 589.697 0.870011 -4.0721 0
M  V30 6165 H 592.294 3.64663 -3.91056 0
M  V30 6166 H 592.637 3.53306 -2.20183 0
M  V30 6167 H 593.17 2.23131 -3.29329 0
M  V30 6168 H 589.909 1.90258 -6.27281 0
M  V30 6169 H 589.429 3.15289 -5.10248 0
M  V30 6170 H 591.108 3.07623 -5.6919 0
M  V30 6171 N 591.24 1.41047 0.703093 0
M  V30 6172 C 592.488 1.39723 1.4602 0
M  V30 6173 C 592.809 0.00461257 1.94999 0
M  V30 6174 O 592.079 -0.952292 1.71196 0
M  V30 6175 H 590.659 0.514281 0.541779 0
M  V30 6176 H 593.321 1.76217 0.832678 0
M  V30 6177 H 592.417 2.07982 2.32701 0
M  V30 6178 N 592.718 -0.936591 1.26751 0
M  V30 6179 C 593.628 -2.06949 1.10496 0
M  V30 6180 C 594.644 -1.7396 0.037271 0
M  V30 6181 O 595.82 -1.99941 0.241944 0
M  V30 6182 C 592.885 -3.38612 0.744491 0
M  V30 6183 C 591.946 -3.85355 1.89209 0
M  V30 6184 C 591.179 -5.10735 1.54873 0
M  V30 6185 O 591.402 -5.68602 0.452546 0
M  V30 6186 O 590.336 -5.52632 2.38499 0
M  V30 6187 H 594.162 -2.23571 2.05547 0
M  V30 6188 H 591.747 -1.05428 1.05855 0
M  V30 6189 H 593.629 -4.17711 0.556396 0
M  V30 6190 H 592.304 -3.23218 -0.176582 0
M  V30 6191 H 591.211 -3.07182 2.13518 0
M  V30 6192 H 592.544 -4.05277 2.79305 0
M  V30 6193 N 594.196 -1.08629 -1.14182 0
M  V30 6194 C 595.444 -0.815731 -1.84906 0
M  V30 6195 C 595.765 0.660441 -1.83475 0
M  V30 6196 O 595.035 1.47888 -1.28476 0
M  V30 6197 H 593.615 -0.298773 -0.684648 0
M  V30 6198 H 596.277 -1.37274 -1.38354 0
M  V30 6199 H 595.373 -1.16193 -2.89665 0
M  V30 6200 N 595.674 1.31259 -0.872281 0
M  V30 6201 C 596.607 2.26544 -0.274394 0
M  V30 6202 C 597.585 1.51213 0.597776 0
M  V30 6203 O 598.769 1.80277 0.550687 0
M  V30 6204 C 595.896 3.33139 0.611256 0
M  V30 6205 C 594.942 4.26077 -0.189876 0
M  V30 6206 S 595.775 5.11971 -1.56989 0
M  V30 6207 C 596.931 6.2208 -0.690427 0
M  V30 6208 H 597.164 2.76908 -1.0821 0
M  V30 6209 H 594.697 1.3906 -0.670939 0
M  V30 6210 H 596.655 3.95024 1.11654 0
M  V30 6211 H 595.316 2.81525 1.39294 0
M  V30 6212 H 594.509 5.01657 0.485433 0
M  V30 6213 H 594.111 3.68701 -0.627339 0
M  V30 6214 H 596.403 6.77429 0.098001 0
M  V30 6215 H 597.346 6.93768 -1.41742 0
M  V30 6216 H 597.754 5.63915 -0.256953 0
M  V30 6217 N 597.152 0.631951 1.44375 0
M  V30 6218 C 598.38 0.143867 2.06399 0
M  V30 6219 C 598.795 -1.18188 1.47231 0
M  V30 6220 O 598.152 -1.72511 0.595498 0
M  V30 6221 C 598.203 0.0238253 3.61492 0
M  V30 6222 O 597.924 1.29715 4.18456 0
M  V30 6223 C 599.425 -0.492856 4.40552 0
M  V30 6224 H 596.645 0.0800542 0.666207 0
M  V30 6225 H 599.189 0.866586 1.85231 0
M  V30 6226 H 597.344 -0.649338 3.81919 0
M  V30 6227 H 597.758 1.14252 5.11905 0
M  V30 6228 H 599.232 -0.525861 5.49489 0
M  V30 6229 H 599.709 -1.52006 4.12057 0
M  V30 6230 H 600.315 0.147085 4.25046 0
M  V30 6231 N 598.631 -1.53133 0.372548 0
M  V30 6232 C 600.047 -1.59585 0.02178 0
M  V30 6233 C 600.247 -1.38736 -1.46132 0
M  V30 6234 O 599.303 -1.19599 -2.22379 0
M  V30 6235 C 600.616 -2.9678 0.483959 0
M  V30 6236 C 602.164 -3.09909 0.438775 0
M  V30 6237 C 602.639 -4.49527 0.876876 0
M  V30 6238 N 604.13 -4.55663 0.832214 0
M  V30 6239 C 604.865 -5.61896 1.14281 0
M  V30 6240 N 604.361 -6.75852 1.52303 0
M  V30 6241 N 606.154 -5.51916 1.06515 0
M  V30 6242 H 598.305 -1.64936 1.33827 0
M  V30 6243 H 600.568 -0.773947 0.547458 0
M  V30 6244 H 600.274 -3.17198 1.51915 0
M  V30 6245 H 600.148 -3.7699 -0.125784 0
M  V30 6246 H 602.535 -2.89197 -0.587294 0
M  V30 6247 H 602.616 -2.31691 1.0841 0
M  V30 6248 H 602.26 -4.70979 1.90109 0
M  V30 6249 H 602.19 -5.26186 0.208727 0
M  V30 6250 H 604.681 -3.73844 0.552195 0
M  V30 6251 H 604.994 -7.52862 1.7441 0
M  V30 6252 H 603.339 -6.77226 1.56175 0
M  V30 6253 H 606.53 -4.6177 0.767235 0
M  V30 6254 H 606.703 -6.34609 1.31053 0
M  V30 6255 N 600.109 -0.101901 -1.5727 0
M  V30 6256 C 601.056 0.854577 -2.14396 0
M  V30 6257 C 602.026 1.27521 -1.06432 0
M  V30 6258 O 603.211 1.35575 -1.34253 0
M  V30 6259 C 600.351 2.10576 -2.73408 0
M  V30 6260 C 599.464 1.73504 -3.95626 0
M  V30 6261 C 598.599 2.9346 -4.42781 0
M  V30 6262 C 597.638 2.52547 -5.57572 0
M  V30 6263 N 596.775 3.65359 -5.99547 0
M  V30 6264 H 601.615 0.360578 -2.9581 0
M  V30 6265 H 599.152 0.166303 -1.46157 0
M  V30 6266 H 601.11 2.83859 -3.05745 0
M  V30 6267 H 599.74 2.57463 -1.94711 0
M  V30 6268 H 598.792 0.901622 -3.6956 0
M  V30 6269 H 600.104 1.39426 -4.78917 0
M  V30 6270 H 599.258 3.74988 -4.76937 0
M  V30 6271 H 597.997 3.30753 -3.58404 0
M  V30 6272 H 597.002 1.69446 -5.23037 0
M  V30 6273 H 598.227 2.1639 -6.43702 0
M  V30 6274 H 596.173 4.02358 -5.18116 0
M  V30 6275 H 596.09 3.35148 -6.77652 0
M  V30 6276 H 597.358 4.47378 -6.38336 0
M  V30 6277 N 601.587 1.56661 0.17182 0
M  V30 6278 C 602.864 1.72838 0.915778 0
M  V30 6279 C 603.244 0.66316 2.00413 0
M  V30 6280 O 602.592 -0.322123 2.26218 0
M  V30 6281 C 602.802 3.16019 1.48097 0
M  V30 6282 C 604.15 3.76962 1.95408 0
M  V30 6283 O 605.174 3.19294 1.57892 0
M  V30 6284 O 604.033 4.78219 2.64516 0
M  V30 6285 H 601.127 0.705797 0.431021 0
M  V30 6286 H 603.673 1.68947 0.159689 0
M  V30 6287 H 602.445 3.85031 0.697618 0
M  V30 6288 H 602.068 3.24234 2.30126 0
M  V30 6289 N 603.065 -0.440357 1.51323 0
M  V30 6290 C 604.015 -1.53263 1.68803 0
M  V30 6291 C 604.999 -1.51494 0.542057 0
M  V30 6292 O 606.191 -1.57999 0.797839 0
M  V30 6293 C 603.32 -2.91479 1.8137 0
M  V30 6294 C 602.406 -2.98015 3.01742 0
M  V30 6295 N 602.797 -2.743 4.24962 0
M  V30 6296 C 601.095 -3.29173 3.00934 0
M  V30 6297 C 601.796 -2.86601 5.06197 0
M  V30 6298 N 600.772 -3.1814 4.40781 0
M  V30 6299 H 604.574 -1.33675 2.61741 0
M  V30 6300 H 602.088 -0.647616 1.48929 0
M  V30 6301 H 604.085 -3.70055 1.92002 0
M  V30 6302 H 602.745 -3.12089 0.896117 0
M  V30 6303 H 603.756 -2.49287 4.53957 0
M  V30 6304 H 600.433 -3.55577 2.18796 0
M  V30 6305 H 601.823 -2.72246 6.14274 0
M  V30 6306 N 604.543 -1.41418 -0.695603 0
M  V30 6307 C 605.791 -1.40496 -1.45277 0
M  V30 6308 C 606.112 -0.0149538 -1.94994 0
M  V30 6309 O 605.382 0.9432 -1.71699 0
M  V30 6310 H 603.962 -0.517147 -0.539044 0
M  V30 6311 H 606.624 -1.76656 -0.823321 0
M  V30 6312 H 605.72 -2.09214 -2.31595 0
M  V30 6313 N 606.021 0.929856 -1.27246 0
M  V30 6314 C 607.298 1.65544 -1.04186 0
M  V30 6315 C 607.678 2.06796 0.424097 0
M  V30 6316 O 607.026 1.80053 1.40688 0
M  V30 6317 C 607.236 2.85912 -2.00138 0
M  V30 6318 C 608.584 3.57305 -2.29387 0
M  V30 6319 O 609.608 2.96036 -1.98094 0
M  V30 6320 O 608.467 4.67688 -2.82719 0
M  V30 6321 H 605.561 0.725473 -0.397011 0
M  V30 6322 H 608.107 0.980583 -1.38501 0
M  V30 6323 H 606.879 2.52403 -2.99013 0
M  V30 6324 H 606.502 3.61118 -1.66371 0
M  V30 6325 N 607.499 1.09233 1.13605 0
M  V30 6326 C 608.745 0.828385 1.8511 0
M  V30 6327 C 609.078 -0.64437 1.83198 0
M  V30 6328 O 608.353 -1.47428 1.26867 0
M  V30 6329 C 608.636 1.36167 3.33363 0
M  V30 6330 C 608.489 2.90038 3.438 0
M  V30 6331 C 609.808 0.993819 4.28732 0
M  V30 6332 H 606.927 0.30239 0.672108 0
M  V30 6333 H 609.569 1.35339 1.33355 0
M  V30 6334 H 607.719 0.9151 3.77569 0
M  V30 6335 H 609.391 3.43128 3.08319 0
M  V30 6336 H 607.634 3.27271 2.84739 0
M  V30 6337 H 608.305 3.22428 4.48045 0
M  V30 6338 H 610.781 1.37893 3.92587 0
M  V30 6339 H 609.657 1.39403 5.30903 0
M  V30 6340 H 609.918 -0.0982206 4.41991 0
M  V30 6341 N 608.977 -1.30795 0.87923 0
M  V30 6342 C 610.202 -2.01063 0.508769 0
M  V30 6343 C 610.627 -1.65508 -0.893803 0
M  V30 6344 O 609.985 -0.868616 -1.59138 0
M  V30 6345 C 610.033 -3.54054 0.683991 0
M  V30 6346 O 609.137 -4.11498 -0.272654 0
M  V30 6347 H 608.478 -0.632786 0.201191 0
M  V30 6348 H 611.008 -1.66776 1.18519 0
M  V30 6349 H 611.018 -4.03845 0.580798 0
M  V30 6350 H 609.693 -3.79271 1.70665 0
M  V30 6351 H 608.27 -3.72695 -0.12364 0
M  V30 6352 N 610.455 -0.639598 -1.44038 0
M  V30 6353 C 611.403 0.0723409 -2.32487 0
M  V30 6354 C 612.397 0.827129 -1.47834 0
M  V30 6355 O 613.603 0.73907 -1.64127 0
M  V30 6356 H 609.978 0.0421696 -0.750817 0
M  V30 6357 H 611.949 -0.691593 -2.90275 0
M  V30 6358 C 610.698 1.03452 -3.31953 0
M  V30 6359 H 610.021 0.46315 -3.97108 0
M  V30 6360 H 611.461 1.502 -3.96505 0
M  V30 6361 C 609.92 2.12392 -2.61518 0
M  V30 6362 O 610.45 3.2059 -2.42044 0
M  V30 6363 N 608.656 1.88563 -2.21116 0
M  V30 6364 H 608.203 1.00577 -2.37154 0
M  V30 6365 H 608.161 2.61651 -1.74316 0
M  V30 6366 N 611.933 1.52934 -0.380664 0
M  V30 6367 C 612.865 2.23822 0.493581 0
M  V30 6368 C 613.878 1.25761 1.03383 0
M  V30 6369 O 615.067 1.5189 0.937633 0
M  V30 6370 C 612.167 2.9342 1.69582 0
M  V30 6371 C 611.34 4.18115 1.28445 0
M  V30 6372 C 610.399 4.70788 2.35042 0
M  V30 6373 O 609.425 5.34093 1.96807 0
M  V30 6374 N 610.627 4.49899 3.66839 0
M  V30 6375 H 613.392 2.99484 -0.11371 0
M  V30 6376 H 610.953 1.60577 -0.206587 0
M  V30 6377 H 612.945 3.2556 2.40401 0
M  V30 6378 H 611.515 2.21119 2.20965 0
M  V30 6379 H 610.735 3.92109 0.405503 0
M  V30 6380 H 612.023 4.99152 0.986132 0
M  V30 6381 H 611.421 3.99349 4.0067 0
M  V30 6382 H 609.978 4.86551 4.33718 0
M  V30 6383 N 613.412 0.11024 1.57214 0
M  V30 6384 C 614.342 -0.840002 2.17867 0
M  V30 6385 C 615.323 -1.28352 1.11624 0
M  V30 6386 O 616.508 -1.3477 1.39824 0
M  V30 6387 C 613.638 -2.09349 2.77111 0
M  V30 6388 C 612.592 -1.78807 3.8886 0
M  V30 6389 C 611.918 -3.11112 4.34872 0
M  V30 6390 C 613.218 -1.0632 5.11364 0
M  V30 6391 H 614.912 -0.334608 2.97524 0
M  V30 6392 H 612.458 -0.159502 1.43114 0
M  V30 6393 H 614.411 -2.76275 3.18198 0
M  V30 6394 H 613.135 -2.62198 1.9473 0
M  V30 6395 H 611.794 -1.14273 3.48335 0
M  V30 6396 H 611.442 -3.61877 3.49362 0
M  V30 6397 H 611.142 -2.91453 5.10224 0
M  V30 6398 H 612.666 -3.79171 4.78604 0
M  V30 6399 H 614.08 -1.63383 5.49526 0
M  V30 6400 H 612.477 -0.967876 5.92243 0
M  V30 6401 H 613.547 -0.0484569 4.84876 0
M  V30 6402 N 614.89 -1.56749 -0.16351 0
M  V30 6403 C 616.12 -1.86307 -0.892936 0
M  V30 6404 C 616.528 -0.6945 -1.75992 0
M  V30 6405 O 615.871 0.345384 -1.80424 0
M  V30 6406 C 615.933 -3.10372 -1.81409 0
M  V30 6407 C 615.597 -4.42913 -1.12593 0
M  V30 6408 C 616.594 -5.17608 -0.487661 0
M  V30 6409 C 614.279 -4.89646 -1.12035 0
M  V30 6410 C 616.273 -6.3723 0.14699 0
M  V30 6411 C 613.96 -6.09197 -0.481883 0
M  V30 6412 C 614.958 -6.82834 0.150678 0
M  V30 6413 O 614.646 -8.00116 0.779065 0
M  V30 6414 H 614.378 -0.622126 -0.264452 0
M  V30 6415 H 616.932 -2.04728 -0.166063 0
M  V30 6416 H 615.162 -2.87917 -2.58148 0
M  V30 6417 H 616.851 -3.26312 -2.41403 0
M  V30 6418 H 617.617 -4.8258 -0.483888 0
M  V30 6419 H 613.496 -4.32265 -1.60212 0
M  V30 6420 H 617.04 -6.94646 0.641325 0
M  V30 6421 H 612.937 -6.43688 -0.483266 0
M  V30 6422 H 613.705 -8.15678 0.679089 0
M  V30 6423 N 616.368 0.432326 -1.51554 0
M  V30 6424 C 617.331 1.50765 -1.72634 0
M  V30 6425 C 618.331 1.49334 -0.596314 0
M  V30 6426 O 619.521 1.51268 -0.863925 0
M  V30 6427 C 616.653 2.90284 -1.7874 0
M  V30 6428 H 617.846 1.33377 -2.68609 0
M  V30 6429 H 615.399 0.661329 -1.4162 0
M  V30 6430 H 616.134 3.13071 -0.845977 0
M  V30 6431 H 615.919 2.92727 -2.6087 0
M  V30 6432 H 617.409 3.68282 -1.96871 0
M  V30 6433 N 617.846 1.41785 0.688094 0
M  V30 6434 C 619.086 1.43018 1.46032 0
M  V30 6435 C 619.45 0.0402632 1.91958 0
M  V30 6436 O 620.651 -0.0726425 2.68702 0
M  V30 6437 C 618.922 2.4151 2.63453 0
M  V30 6438 S 620.481 2.61335 3.5249 0
M  V30 6439 H 617.299 0.506546 0.498931 0
M  V30 6440 H 619.901 1.78283 0.80221 0
M  V30 6441 H 618.605 3.41286 2.27929 0
M  V30 6442 H 618.136 2.07624 3.34149 0
M  V30 6443 H 620.151 1.88637 4.58945 0
M  V30 6444 N 619.324 -0.923095 1.27737 0
M  V30 6445 C 620.554 -1.70277 1.17001 0
M  V30 6446 C 620.962 -1.87188 -0.275199 0
M  V30 6447 O 620.305 -1.39195 -1.19877 0
M  V30 6448 C 620.367 -3.11976 1.78637 0
M  V30 6449 C 620.031 -3.18386 3.27841 0
M  V30 6450 C 621.028 -3.00287 4.2441 0
M  V30 6451 C 618.713 -3.41198 3.68632 0
M  V30 6452 C 620.707 -3.04896 5.59747 0
M  V30 6453 C 618.394 -3.4544 5.04097 0
M  V30 6454 C 619.392 -3.27309 5.99465 0
M  V30 6455 O 619.08 -3.31295 7.32461 0
M  V30 6456 H 618.812 -0.539366 0.407505 0
M  V30 6457 H 621.366 -1.16446 1.69202 0
M  V30 6458 H 619.596 -3.67308 1.20919 0
M  V30 6459 H 621.285 -3.7193 1.6255 0
M  V30 6460 H 622.051 -2.825 3.94232 0
M  V30 6461 H 617.93 -3.54359 2.94873 0
M  V30 6462 H 621.474 -2.90662 6.34162 0
M  V30 6463 H 617.371 -3.62753 5.33929 0
M  V30 6464 H 618.139 -3.47719 7.40968 0
M  V30 6465 N 620.802 -1.09834 -1.13024 0
M  V30 6466 C 621.765 -0.745058 -2.16752 0
M  V30 6467 C 622.765 0.227435 -1.59183 0
M  V30 6468 O 623.955 0.0050786 -1.74199 0
M  V30 6469 C 621.087 -0.102543 -3.40746 0
M  V30 6470 H 622.28 -1.66375 -2.49518 0
M  V30 6471 H 619.833 -0.898061 -1.27924 0
M  V30 6472 H 620.568 0.827177 -3.13573 0
M  V30 6473 H 620.353 -0.80235 -3.83803 0
M  V30 6474 H 621.843 0.129082 -4.174 0
M  V30 6475 N 622.28 1.30327 -0.886154 0
M  V30 6476 C 623.529 1.95373 -0.501243 0
M  V30 6477 C 623.842 1.70722 0.954634 0
M  V30 6478 O 625.048 2.29761 1.44644 0
M  V30 6479 C 623.504 3.49828 -0.845493 0
M  V30 6480 C 623.112 3.83296 -2.31922 0
M  V30 6481 C 624.856 4.2118 -0.529838 0
M  V30 6482 C 622.763 5.30935 -2.60504 0
M  V30 6483 H 621.693 0.731274 -0.183722 0
M  V30 6484 H 624.344 1.48258 -1.08129 0
M  V30 6485 H 622.726 3.95522 -0.19452 0
M  V30 6486 H 623.9 3.48508 -3.01461 0
M  V30 6487 H 622.215 3.2505 -2.60253 0
M  V30 6488 H 624.812 5.29825 -0.720401 0
M  V30 6489 H 625.155 4.12902 0.530828 0
M  V30 6490 H 625.688 3.81173 -1.13806 0
M  V30 6491 H 622.427 5.44265 -3.65316 0
M  V30 6492 H 621.947 5.67019 -1.95575 0
M  V30 6493 H 623.626 5.98381 -2.46066 0
M  V30 6494 N 623.758 0.647228 1.43697 0
M  V30 6495 C 625.006 0.157876 2.01482 0
M  V30 6496 C 625.327 -1.23039 1.51282 0
M  V30 6497 O 624.597 -1.82071 0.722982 0
M  V30 6498 H 623.177 0.0553745 0.744945 0
M  V30 6499 H 625.839 0.83755 1.75986 0
M  V30 6500 H 624.935 0.137895 3.11795 0
M  V30 6501 N 625.236 -1.5273 0.388769 0
M  V30 6502 C 626.183 -2.26437 -0.446639 0
M  V30 6503 C 627.153 -1.28025 -1.05824 0
M  V30 6504 O 628.338 -1.56852 -1.08637 0
M  V30 6505 C 625.478 -3.07407 -1.56828 0
M  V30 6506 C 624.591 -4.20747 -0.979589 0
M  V30 6507 C 623.726 -4.89113 -2.07224 0
M  V30 6508 C 622.765 -5.94447 -1.45942 0
M  V30 6509 N 621.902 -6.56411 -2.49135 0
M  V30 6510 H 626.742 -2.97404 0.18837 0
M  V30 6511 H 624.279 -1.46727 0.104725 0
M  V30 6512 H 626.237 -3.52642 -2.22934 0
M  V30 6513 H 624.867 -2.3865 -2.17361 0
M  V30 6514 H 623.919 -3.7983 -0.208151 0
M  V30 6515 H 625.231 -4.9637 -0.491747 0
M  V30 6516 H 624.385 -5.3765 -2.81101 0
M  V30 6517 H 623.124 -4.13013 -2.59368 0
M  V30 6518 H 622.129 -5.4525 -0.705894 0
M  V30 6519 H 623.354 -6.7248 -0.945932 0
M  V30 6520 H 621.3 -5.83152 -3.00449 0
M  V30 6521 H 621.217 -7.27645 -2.05105 0
M  V30 6522 H 622.485 -7.09592 -3.22644 0
M  V30 6523 N 626.714 -0.118576 -1.57153 0
M  V30 6524 C 627.991 0.583062 -1.86708 0
M  V30 6525 C 628.371 1.84841 -1.01967 0
M  V30 6526 O 627.719 2.28288 -0.0984673 0
M  V30 6527 C 627.929 0.875912 -3.3783 0
M  V30 6528 C 629.277 1.22916 -4.0642 0
M  V30 6529 O 630.301 0.966188 -3.42846 0
M  V30 6530 O 629.16 1.72269 -5.18638 0
M  V30 6531 H 626.254 0.294185 -0.772906 0
M  V30 6532 H 628.8 -0.153048 -1.69008 0
M  V30 6533 H 627.572 -0.0207776 -3.91294 0
M  V30 6534 H 627.195 1.66719 -3.60958 0
M  V30 6535 N 628.193 1.56834 0.155195 0
M  V30 6536 C 629.439 1.83169 0.870467 0
M  V30 6537 C 629.772 0.698929 1.81187 0
M  V30 6538 O 629.047 -0.298035 1.92203 0
M  V30 6539 C 629.33 3.19965 1.65211 0
M  V30 6540 C 629.183 4.43792 0.732744 0
M  V30 6541 C 630.502 3.53885 2.61636 0
M  V30 6542 H 627.621 0.666288 0.315006 0
M  V30 6543 H 630.263 1.89513 0.135988 0
M  V30 6544 H 628.413 3.14687 2.27825 0
M  V30 6545 H 630.085 4.61148 0.118236 0
M  V30 6546 H 628.328 4.3378 0.0417906 0
M  V30 6547 H 628.999 5.36095 1.31552 0
M  V30 6548 H 631.475 3.5972 2.09143 0
M  V30 6549 H 630.351 4.50648 3.13381 0
M  V30 6550 H 630.612 2.79418 3.42605 0
M  V30 6551 N 629.671 -0.424282 1.51781 0
M  V30 6552 C 630.603 -1.53457 1.70246 0
M  V30 6553 C 631.616 -1.52004 0.582967 0
M  V30 6554 O 632.805 -1.56544 0.857683 0
M  V30 6555 C 629.905 -2.92368 1.71389 0
M  V30 6556 C 629.078 -3.1818 3.00133 0
M  V30 6557 C 628.137 -4.36884 2.9329 0
M  V30 6558 O 627.163 -4.34901 3.67219 0
M  V30 6559 N 628.365 -5.4117 2.10036 0
M  V30 6560 H 631.13 -1.38017 2.66029 0
M  V30 6561 H 628.691 -0.613394 1.4983 0
M  V30 6562 H 630.683 -3.6982 1.64362 0
M  V30 6563 H 629.253 -3.0134 0.831449 0
M  V30 6564 H 628.473 -2.28908 3.20928 0
M  V30 6565 H 629.761 -3.32261 3.85331 0
M  V30 6566 H 629.159 -5.45623 1.49373 0
M  V30 6567 H 627.716 -6.17425 2.08878 0
M  V30 6568 N 631.149 -1.42148 -0.680565 0
M  V30 6569 C 632.112 -1.4488 -1.77602 0
M  V30 6570 C 633.112 -0.337209 -1.57224 0
M  V30 6571 O 634.302 -0.597778 -1.63622 0
M  V30 6572 C 631.434 -1.27483 -3.16166 0
M  V30 6573 H 632.627 -2.42412 -1.76568 0
M  V30 6574 H 630.18 -1.28511 -0.889645 0
M  V30 6575 H 630.915 -0.30851 -3.22829 0
M  V30 6576 H 630.7 -2.08037 -3.3236 0
M  V30 6577 H 632.19 -1.32265 -3.96101 0
M  V30 6578 N 632.627 0.916307 -1.28225 0
M  V30 6579 C 633.56 2.01954 -1.06254 0
M  V30 6580 C 634.538 1.62587 0.0205983 0
M  V30 6581 O 635.722 1.88073 -0.126824 0
M  V30 6582 C 632.849 3.33086 -0.614141 0
M  V30 6583 C 631.895 3.91435 -1.69354 0
M  V30 6584 S 632.728 4.22603 -3.28887 0
M  V30 6585 C 633.884 5.568 -2.85876 0
M  V30 6586 H 634.117 2.20281 -1.99659 0
M  V30 6587 H 631.65 1.06085 -1.12184 0
M  V30 6588 H 633.608 4.089 -0.36213 0
M  V30 6589 H 632.269 3.12664 0.300036 0
M  V30 6590 H 631.462 4.86098 -1.33136 0
M  V30 6591 H 631.064 3.22248 -1.89821 0
M  V30 6592 H 633.356 6.3658 -2.31888 0
M  V30 6593 H 634.299 5.97927 -3.79326 0
M  V30 6594 H 634.707 5.17865 -2.24669 0
M  V30 6595 N 634.105 1.10431 1.1244 0
M  V30 6596 C 635.052 0.753103 2.18167 0
M  V30 6597 C 636.022 -0.270549 1.63882 0
M  V30 6598 O 637.207 -0.149837 1.90211 0
M  V30 6599 C 634.347 0.191046 3.44571 0
M  V30 6600 C 633.46 1.26999 4.12911 0
M  V30 6601 C 632.595 0.669586 5.26963 0
M  V30 6602 C 631.634 1.72912 5.87169 0
M  V30 6603 N 630.771 1.14898 6.92635 0
M  V30 6604 H 635.611 1.65892 2.47556 0
M  V30 6605 H 633.148 0.828631 1.21541 0
M  V30 6606 H 635.106 -0.152712 4.1692 0
M  V30 6607 H 633.736 -0.677997 3.15599 0
M  V30 6608 H 632.788 1.73087 3.3874 0
M  V30 6609 H 634.1 2.07204 4.53727 0
M  V30 6610 H 633.254 0.275274 6.06075 0
M  V30 6611 H 631.993 -0.163895 4.87425 0
M  V30 6612 H 630.998 2.13286 5.06744 0
M  V30 6613 H 632.223 2.56544 6.28778 0
M  V30 6614 H 630.169 0.336956 6.55134 0
M  V30 6615 H 630.086 1.88786 7.32049 0
M  V30 6616 H 631.354 0.78121 7.75576 0
M  V30 6617 N 635.583 -1.29855 0.893053 0
M  V30 6618 C 636.546 -2.26183 0.370687 0
M  V30 6619 C 637.546 -1.53108 -0.491385 0
M  V30 6620 O 638.736 -1.71643 -0.297386 0
M  V30 6621 C 635.868 -3.37633 -0.470827 0
M  V30 6622 H 637.061 -2.73903 1.22135 0
M  V30 6623 H 634.614 -1.41183 0.67061 0
M  V30 6624 H 635.349 -2.95241 -1.34175 0
M  V30 6625 H 635.134 -3.91825 0.146784 0
M  V30 6626 H 636.624 -4.09313 -0.827825 0
M  V30 6627 N 637.061 -0.65484 -1.43351 0
M  V30 6628 C 638.307 -0.169142 -2.02093 0
M  V30 6629 C 638.64 1.21431 -1.51553 0
M  V30 6630 O 637.915 1.81105 -0.709317 0
M  V30 6631 C 638.198 -0.181775 -3.59641 0
M  V30 6632 C 638.051 -1.59926 -4.20409 0
M  V30 6633 C 639.37 0.480945 -4.37464 0
M  V30 6634 H 636.489 -0.0629371 -0.734308 0
M  V30 6635 H 639.131 -0.835833 -1.70628 0
M  V30 6636 H 637.281 0.385918 -3.86578 0
M  V30 6637 H 638.953 -2.21766 -4.04497 0
M  V30 6638 H 637.196 -2.14605 -3.76998 0
M  V30 6639 H 637.867 -1.55994 -5.295 0
M  V30 6640 H 640.343 -0.00208273 -4.161 0
M  V30 6641 H 639.219 0.441384 -5.47122 0
M  V30 6642 H 639.48 1.55533 -4.13838 0
M  V30 6643 N 638.539 1.52521 -0.396863 0
M  V30 6644 C 639.785 2.01971 0.183169 0
M  V30 6645 C 640.118 1.2825 1.45827 0
M  V30 6646 O 639.393 0.385179 1.90648 0
M  V30 6647 C 639.676 3.5736 0.443391 0
M  V30 6648 C 639.529 4.41743 -0.84753 0
M  V30 6649 C 640.848 4.22539 1.2308 0
M  V30 6650 H 637.967 0.734119 0.0650976 0
M  V30 6651 H 640.609 1.82519 -0.527918 0
M  V30 6652 H 638.759 3.74066 1.04914 0
M  V30 6653 H 640.431 4.36773 -1.48414 0
M  V30 6654 H 638.674 4.0845 -1.4612 0
M  V30 6655 H 639.345 5.48507 -0.620003 0
M  V30 6656 H 641.821 4.09857 0.718084 0
M  V30 6657 H 640.697 5.31227 1.38162 0
M  V30 6658 H 640.958 3.80675 2.24808 0
M  V30 6659 N 640.017 0.126909 1.57088 0
M  V30 6660 C 641.265 -0.528123 1.95078 0
M  V30 6661 C 641.586 -1.66708 1.0116 0
M  V30 6662 O 640.856 -1.95777 0.0693527 0
M  V30 6663 H 639.436 -0.198087 0.720257 0
M  V30 6664 H 642.098 0.197703 1.93895 0
M  V30 6665 H 641.194 -0.917507 2.98309 0
M  V30 6666 N 641.495 -1.56914 -0.146875 0
M  V30 6667 C 642.405 -2.0154 -1.20079 0
M  V30 6668 C 643.421 -0.930838 -1.47008 0
M  V30 6669 O 644.597 -1.24032 -1.58676 0
M  V30 6670 C 641.662 -2.38715 -2.51428 0
M  V30 6671 C 640.723 -3.6112 -2.32145 0
M  V30 6672 C 639.956 -3.96512 -3.57231 0
M  V30 6673 O 640.179 -3.32566 -4.63418 0
M  V30 6674 O 639.113 -4.89758 -3.49887 0
M  V30 6675 H 642.939 -2.91506 -0.851924 0
M  V30 6676 H 640.524 -1.45106 -0.355607 0
M  V30 6677 H 642.406 -2.63485 -3.28867 0
M  V30 6678 H 641.081 -1.51903 -2.85845 0
M  V30 6679 H 639.988 -3.41536 -1.52656 0
M  V30 6680 H 641.321 -4.48549 -2.02644 0
M  V30 6681 N 642.974 0.416227 -1.52004 0
M  V30 6682 C 643.884 1.53147 -1.77717 0
M  V30 6683 C 644.9 1.609 -0.662368 0
M  V30 6684 O 646.076 1.77747 -0.946991 0
M  V30 6685 C 643.141 2.88948 -1.91598 0
M  V30 6686 C 642.202 2.9114 -3.15493 0
M  V30 6687 C 641.435 4.20464 -3.28703 0
M  V30 6688 O 641.658 5.13981 -2.47345 0
M  V30 6689 O 640.592 4.29368 -4.21813 0
M  V30 6690 H 644.418 1.34357 -2.72363 0
M  V30 6691 H 642.003 0.601373 -1.36762 0
M  V30 6692 H 643.885 3.69505 -2.02593 0
M  V30 6693 H 642.56 3.07821 -1.00141 0
M  V30 6694 H 641.467 2.09461 -3.09962 0
M  V30 6695 H 642.8 2.77216 -4.06709 0
M  V30 6696 N 644.452 1.42507 0.673017 0
M  V30 6697 C 645.415 1.4582 1.76831 0
M  V30 6698 C 646.415 0.345542 1.57043 0
M  V30 6699 O 647.605 0.606447 1.63303 0
M  V30 6700 C 644.737 1.29158 3.15485 0
M  V30 6701 H 645.93 2.43345 1.7528 0
M  V30 6702 H 643.483 1.28981 0.882817 0
M  V30 6703 H 644.218 0.325626 3.22661 0
M  V30 6704 H 644.003 2.09797 3.31252 0
M  V30 6705 H 645.493 1.34363 3.95394 0
M  V30 6706 N 645.93 -0.909495 1.28709 0
M  V30 6707 C 646.86 -2.0291 1.15542 0
M  V30 6708 C 647.841 -1.7002 0.0521017 0
M  V30 6709 O 649.026 -1.92835 0.229849 0
M  V30 6710 C 646.156 -3.37458 0.820935 0
M  V30 6711 C 645.11 -3.84524 1.87949 0
M  V30 6712 C 644.436 -5.16086 1.39854 0
M  V30 6713 C 645.736 -4.05918 3.28676 0
M  V30 6714 H 647.43 -2.14183 2.09203 0
M  V30 6715 H 644.976 -1.02913 1.00722 0
M  V30 6716 H 646.929 -4.1528 0.715571 0
M  V30 6717 H 645.653 -3.26249 -0.151374 0
M  V30 6718 H 644.312 -3.08911 1.97408 0
M  V30 6719 H 643.96 -5.01284 0.41518 0
M  V30 6720 H 643.66 -5.48547 2.1064 0
M  V30 6721 H 645.184 -5.96459 1.30649 0
M  V30 6722 H 646.598 -4.74252 3.22115 0
M  V30 6723 H 644.995 -4.49717 3.97334 0
M  V30 6724 H 646.065 -3.10583 3.72379 0
M  V30 6725 N 647.408 -1.11026 -1.11852 0
M  V30 6726 C 648.636 -0.878818 -1.87308 0
M  V30 6727 C 649.051 0.57111 -1.79955 0
M  V30 6728 O 648.408 1.39409 -1.17777 0
M  V30 6729 C 648.459 -1.3264 -3.36287 0
M  V30 6730 O 648.18 -2.71948 -3.43476 0
M  V30 6731 C 649.681 -1.12974 -4.28663 0
M  V30 6732 H 646.901 -0.315015 -0.592458 0
M  V30 6733 H 649.445 -1.47649 -1.41492 0
M  V30 6734 H 647.6 -0.772269 -3.79625 0
M  V30 6735 H 648.014 -2.91241 -4.3621 0
M  V30 6736 H 649.488 -1.49198 -5.31454 0
M  V30 6737 H 649.965 -0.0689127 -4.39146 0
M  V30 6738 H 650.571 -1.67064 -3.91113 0
M  V30 6739 N 648.886 1.2938 -0.899927 0
M  V30 6740 C 650.111 2.00228 -0.540692 0
M  V30 6741 C 650.536 1.66909 0.867359 0
M  V30 6742 O 649.894 0.893824 1.57735 0
M  V30 6743 C 649.942 3.52921 -0.740232 0
M  V30 6744 O 649.046 4.11879 0.207154 0
M  V30 6745 H 648.387 0.629505 -0.211233 0
M  V30 6746 H 650.917 1.6487 -1.21158 0
M  V30 6747 H 650.927 4.0287 -0.644973 0
M  V30 6748 H 649.602 3.76508 -1.76677 0
M  V30 6749 H 648.179 3.72845 0.0643315 0
M  V30 6750 N 650.364 0.662433 1.43002 0
M  V30 6751 C 651.274 -0.0239199 2.34588 0
M  V30 6752 C 652.29 -0.802255 1.54402 0
M  V30 6753 O 653.466 -0.747401 1.87018 0
M  V30 6754 C 650.531 -0.972098 3.32793 0
M  V30 6755 C 649.592 -0.189673 4.28881 0
M  V30 6756 C 648.825 -1.09269 5.22395 0
M  V30 6757 O 649.048 -2.33209 5.20547 0
M  V30 6758 O 647.982 -0.560136 5.99288 0
M  V30 6759 H 651.808 0.730171 2.94792 0
M  V30 6760 H 649.393 0.422635 1.43297 0
M  V30 6761 H 651.275 -1.51676 3.93157 0
M  V30 6762 H 649.95 -1.70626 2.75079 0
M  V30 6763 H 648.857 0.398794 3.71968 0
M  V30 6764 H 650.19 0.50511 4.89601 0
M  V30 6765 N 651.842 -1.52309 0.404946 0
M  V30 6766 C 653.119 -1.94237 -0.230544 0
M  V30 6767 C 653.499 -1.34154 -1.6299 0
M  V30 6768 O 652.847 -0.515713 -2.22604 0
M  V30 6769 C 653.057 -3.48166 -0.241106 0
M  V30 6770 C 654.405 -4.22074 -0.462488 0
M  V30 6771 O 655.429 -3.54754 -0.320644 0
M  V30 6772 O 654.288 -5.41443 -0.741708 0
M  V30 6773 H 651.382 -0.813766 -0.147358 0
M  V30 6774 H 653.928 -1.6333 0.460587 0
M  V30 6775 H 652.7 -3.84269 0.738467 0
M  V30 6776 H 652.323 -3.85422 -0.97651 0
M  V30 6777 N 653.32 -0.135238 -1.57019 0
M  V30 6778 C 654.25 0.805235 -2.19176 0
M  V30 6779 C 655.231 1.2656 -1.13651 0
M  V30 6780 O 656.416 1.32528 -1.4195 0
M  V30 6781 C 653.546 2.04914 -2.80406 0
M  V30 6782 C 652.5 1.72598 -3.91655 0
M  V30 6783 C 651.826 3.04154 -4.39766 0
M  V30 6784 C 653.126 0.981709 -5.12991 0
M  V30 6785 H 654.82 0.287232 -2.98019 0
M  V30 6786 H 652.366 0.136714 -1.4335 0
M  V30 6787 H 654.319 2.71178 -3.22553 0
M  V30 6788 H 653.043 2.59067 -1.98877 0
M  V30 6789 H 651.702 1.08717 -3.50109 0
M  V30 6790 H 651.35 3.56274 -3.55075 0
M  V30 6791 H 651.05 2.83299 -5.14796 0
M  V30 6792 H 652.574 3.71509 -4.84576 0
M  V30 6793 H 653.988 1.5462 -5.52056 0
M  V30 6794 H 652.385 0.873533 -5.93708 0
M  V30 6795 H 653.455 -0.0286887 -4.84892 0
M  V30 6796 N 654.798 1.5699 0.138552 0
M  V30 6797 C 655.728 2.01933 1.17241 0
M  V30 6798 C 656.709 0.90033 1.44319 0
M  V30 6799 O 657.894 1.16872 1.55095 0
M  V30 6800 C 655.024 2.40711 2.50351 0
M  V30 6801 C 653.978 3.55874 2.37776 0
M  V30 6802 C 653.304 3.80491 3.75674 0
M  V30 6803 C 654.604 4.8826 1.85472 0
M  V30 6804 H 656.298 2.88551 0.798672 0
M  V30 6805 H 653.844 1.3882 0.382743 0
M  V30 6806 H 655.797 2.70754 3.22909 0
M  V30 6807 H 654.521 1.5104 2.89576 0
M  V30 6808 H 653.18 3.2601 1.67669 0
M  V30 6809 H 652.828 2.88057 4.12349 0
M  V30 6810 H 652.528 4.57998 3.68119 0
M  V30 6811 H 654.052 4.12967 4.49767 0
M  V30 6812 H 655.466 5.16965 2.4783 0
M  V30 6813 H 653.863 5.69631 1.88787 0
M  V30 6814 H 654.933 4.78071 0.810935 0
M  V30 6815 N 656.276 -0.40816 1.52223 0
M  V30 6816 C 657.506 -1.17501 1.69932 0
M  V30 6817 C 657.914 -1.84729 0.408874 0
M  V30 6818 O 657.257 -1.7274 -0.625025 0
M  V30 6819 C 657.319 -2.27994 2.77955 0
M  V30 6820 C 656.983 -1.80894 4.19674 0
M  V30 6821 C 657.98 -1.29618 5.03483 0
M  V30 6822 C 655.665 -1.87698 4.65913 0
M  V30 6823 C 657.659 -0.857695 6.31603 0
M  V30 6824 C 655.346 -1.43461 5.94022 0
M  V30 6825 C 656.344 -0.925822 6.76696 0
M  V30 6826 O 656.032 -0.489841 8.02406 0
M  V30 6827 H 655.764 -0.359065 0.572755 0
M  V30 6828 H 658.318 -0.486188 1.99563 0
M  V30 6829 H 656.548 -3.00243 2.43703 0
M  V30 6830 H 658.237 -2.89749 2.84254 0
M  V30 6831 H 659.003 -1.23733 4.68951 0
M  V30 6832 H 654.882 -2.26244 4.01665 0
M  V30 6833 H 658.426 -0.459879 6.96083 0
M  V30 6834 H 654.323 -1.49026 6.28062 0
M  V30 6835 H 655.091 -0.613062 8.16201 0
M  V30 6836 N 657.755 -1.42862 -0.66545 0
M  V30 6837 C 658.685 -1.49867 -1.79059 0
M  V30 6838 C 659.666 -0.354394 -1.66367 0
M  V30 6839 O 660.851 -0.569969 -1.85647 0
M  V30 6840 C 657.981 -1.40943 -3.17415 0
M  V30 6841 C 656.935 -2.53495 -3.44854 0
M  V30 6842 C 656.261 -2.29626 -4.82883 0
M  V30 6843 C 657.561 -3.95781 -3.40815 0
M  V30 6844 H 659.255 -2.44037 -1.73453 0
M  V30 6845 H 656.801 -1.17456 -0.833071 0
M  V30 6846 H 658.754 -1.4445 -3.95869 0
M  V30 6847 H 657.478 -0.432716 -3.23721 0
M  V30 6848 H 656.137 -2.4932 -2.68766 0
M  V30 6849 H 655.785 -1.30226 -4.8585 0
M  V30 6850 H 655.485 -3.05065 -5.02204 0
M  V30 6851 H 657.009 -2.34897 -5.63609 0
M  V30 6852 H 658.423 -4.01508 -4.09224 0
M  V30 6853 H 656.82 -4.71148 -3.71672 0
M  V30 6854 H 657.89 -4.21786 -2.39216 0
M  V30 6855 N 659.233 0.902656 -1.29189 0
M  V30 6856 C 660.143 2.03946 -1.15944 0
M  V30 6857 C 661.159 1.738 -0.0833803 0
M  V30 6858 O 662.335 1.9923 -0.29487 0
M  V30 6859 C 659.4 3.36519 -0.834006 0
M  V30 6860 C 658.461 3.80203 -1.9936 0
M  V30 6861 C 657.694 5.06449 -1.68359 0
M  V30 6862 O 657.917 5.67202 -0.603141 0
M  V30 6863 O 656.851 5.46114 -2.53067 0
M  V30 6864 H 660.677 2.18043 -2.11403 0
M  V30 6865 H 658.262 1.02584 -1.08613 0
M  V30 6866 H 660.144 4.16089 -0.666949 0
M  V30 6867 H 658.819 3.23573 0.0908245 0
M  V30 6868 H 657.726 3.01413 -2.21588 0
M  V30 6869 H 659.059 3.97729 -2.89952 0
M  V30 6870 N 660.711 1.11618 1.11262 0
M  V30 6871 C 661.958 0.86618 1.8304 0
M  V30 6872 C 662.286 -0.608149 1.84748 0
M  V30 6873 O 661.541 -1.46508 1.29745 0
M  V30 6874 C 661.84 1.37529 3.2988 0
M  V30 6875 C 661.506 2.86317 3.4833 0
M  V30 6876 C 660.168 3.26945 3.53073 0
M  V30 6877 C 662.52 3.82136 3.54431 0
M  V30 6878 C 659.848 4.62117 3.61475 0
M  V30 6879 C 662.2 5.17128 3.64365 0
M  V30 6880 C 660.864 5.57312 3.67369 0
M  V30 6881 H 660.134 0.316958 0.66979 0
M  V30 6882 H 662.781 1.3949 1.31205 0
M  V30 6883 H 661.086 0.766842 3.84222 0
M  V30 6884 H 662.783 1.15817 3.83911 0
M  V30 6885 H 659.373 2.53889 3.45309 0
M  V30 6886 H 663.557 3.51847 3.50025 0
M  V30 6887 H 658.813 4.92655 3.62079 0
M  V30 6888 H 662.987 5.91208 3.68029 0
M  V30 6889 H 660.614 6.62045 3.73632 0
M  V30 6890 N 662.189 -1.289 0.906776 0
M  V30 6891 C 663.119 -2.29932 0.406659 0
M  V30 6892 C 664.1 -1.6189 -0.522061 0
M  V30 6893 O 665.285 -1.8935 -0.431283 0
M  V30 6894 C 662.415 -3.45425 -0.360366 0
M  V30 6895 C 661.369 -4.25316 0.478574 0
M  V30 6896 C 660.695 -5.33076 -0.416373 0
M  V30 6897 C 661.995 -4.92739 1.7322 0
M  V30 6898 H 663.689 -2.72013 1.25097 0
M  V30 6899 H 661.235 -1.30768 0.602977 0
M  V30 6900 H 663.188 -4.15186 -0.721029 0
M  V30 6901 H 661.912 -3.02206 -1.23852 0
M  V30 6902 H 660.571 -3.57273 0.821662 0
M  V30 6903 H 660.219 -4.86101 -1.29287 0
M  V30 6904 H 659.919 -5.8743 0.141309 0
M  V30 6905 H 661.443 -6.05686 -0.773072 0
M  V30 6906 H 662.857 -5.54898 1.44086 0
M  V30 6907 H 661.254 -5.57057 2.23175 0
M  V30 6908 H 662.324 -4.17625 2.46408 0
M  V30 6909 N 663.667 -0.670007 -1.42649 0
M  V30 6910 C 664.599 0.0501746 -2.29145 0
M  V30 6911 C 665.612 0.770331 -1.43422 0
M  V30 6912 O 666.801 0.625288 -1.6719 0
M  V30 6913 C 663.901 1.09463 -3.20735 0
M  V30 6914 C 663.074 0.44926 -4.35087 0
M  V30 6915 C 662.133 1.39285 -5.07431 0
M  V30 6916 O 661.159 0.894997 -5.6212 0
M  V30 6917 N 662.361 2.72631 -5.12496 0
M  V30 6918 H 665.126 -0.692312 -2.91594 0
M  V30 6919 H 662.687 -0.514056 -1.53522 0
M  V30 6920 H 664.679 1.72705 -3.65999 0
M  V30 6921 H 663.249 1.73891 -2.59771 0
M  V30 6922 H 662.469 -0.362573 -3.92529 0
M  V30 6923 H 663.757 -0.000544776 -5.088 0
M  V30 6924 H 663.155 3.15623 -4.69467 0
M  V30 6925 H 661.712 3.31132 -5.61422 0
M  V30 6926 N 665.145 1.52092 -0.413018 0
M  V30 6927 C 666.092 2.27119 0.410558 0
M  V30 6928 C 667.062 1.29692 1.03774 0
M  V30 6929 O 668.247 1.58561 1.06128 0
M  V30 6930 C 665.387 3.09863 1.51918 0
M  V30 6931 C 664.5 4.22252 0.912528 0
M  V30 6932 C 663.635 4.92348 1.99417 0
M  V30 6933 C 662.674 5.96694 1.36466 0
M  V30 6934 N 661.811 6.60292 2.38661 0
M  V30 6935 H 666.651 2.97067 -0.235661 0
M  V30 6936 H 664.188 1.46542 -0.128055 0
M  V30 6937 H 666.146 3.56144 2.17295 0
M  V30 6938 H 664.776 2.42078 2.13537 0
M  V30 6939 H 663.828 3.80113 0.147697 0
M  V30 6940 H 665.14 4.9709 0.412717 0
M  V30 6941 H 664.294 5.42054 2.72512 0
M  V30 6942 H 663.033 4.17087 2.52764 0
M  V30 6943 H 662.038 5.46304 0.61906 0
M  V30 6944 H 663.263 6.73899 0.838827 0
M  V30 6945 H 661.209 5.87858 2.91134 0
M  V30 6946 H 661.126 7.30816 1.93503 0
M  V30 6947 H 662.394 7.14635 3.11314 0
M  V30 6948 N 666.623 0.143563 1.56945 0
M  V30 6949 C 667.87 -0.508407 1.96014 0
M  V30 6950 C 668.198 -1.65099 1.02824 0
M  V30 6951 O 667.453 -1.95618 0.0567764 0
M  V30 6952 C 667.752 -1.05885 3.41355 0
M  V30 6953 C 667.418 -0.0350809 4.50886 0
M  V30 6954 C 666.08 0.246362 4.80569 0
M  V30 6955 C 668.432 0.661282 5.16988 0
M  V30 6956 C 665.76 1.23003 5.73661 0
M  V30 6957 C 668.112 1.63375 6.11139 0
M  V30 6958 C 666.776 1.92292 6.39203 0
M  V30 6959 H 666.046 -0.186039 0.717266 0
M  V30 6960 H 668.693 0.229667 1.90118 0
M  V30 6961 H 666.998 -1.87419 3.44066 0
M  V30 6962 H 668.695 -1.57183 3.6891 0
M  V30 6963 H 665.285 -0.264622 4.27782 0
M  V30 6964 H 669.469 0.457038 4.94191 0
M  V30 6965 H 664.725 1.46056 5.93698 0
M  V30 6966 H 668.899 2.17887 6.61436 0
M  V30 6967 H 666.526 2.68666 7.11142 0
M  V30 6968 N 668.101 -1.57061 -0.130224 0
M  V30 6969 C 669.011 -2.02802 -1.17934 0
M  V30 6970 C 670.027 -0.946378 -1.46013 0
M  V30 6971 O 671.203 -1.25708 -1.57351 0
M  V30 6972 C 668.268 -2.41368 -2.48882 0
M  V30 6973 C 667.329 -3.63561 -2.28301 0
M  V30 6974 C 666.562 -4.00279 -3.53005 0
M  V30 6975 O 666.785 -3.37463 -4.59864 0
M  V30 6976 O 665.719 -4.93441 -3.44673 0
M  V30 6977 H 669.545 -2.92394 -0.820958 0
M  V30 6978 H 667.13 -1.45475 -0.340197 0
M  V30 6979 H 669.012 -2.66958 -3.26054 0
M  V30 6980 H 667.687 -1.54926 -2.84217 0
M  V30 6981 H 666.594 -3.43136 -1.49025 0
M  V30 6982 H 667.927 -4.50673 -1.97875 0
M  V30 6983 N 669.579 0.400081 -1.52437 0
M  V30 6984 C 670.526 1.48803 -1.76426 0
M  V30 6985 C 671.496 1.5461 -0.607032 0
M  V30 6986 O 672.681 1.71041 -0.845563 0
M  V30 6987 C 669.821 2.86156 -1.92896 0
M  V30 6988 C 668.934 2.89587 -3.20567 0
M  V30 6989 C 668.069 4.18296 -3.27417 0
M  V30 6990 C 667.108 4.15736 -4.49255 0
M  V30 6991 N 666.245 5.36032 -4.53447 0
M  V30 6992 H 671.085 1.27649 -2.69276 0
M  V30 6993 H 668.622 0.619451 -1.33421 0
M  V30 6994 H 670.58 3.65901 -2.00429 0
M  V30 6995 H 669.21 3.05785 -1.03418 0
M  V30 6996 H 668.262 2.02278 -3.22161 0
M  V30 6997 H 669.574 2.83562 -4.10358 0
M  V30 6998 H 668.728 5.06439 -3.34072 0
M  V30 6999 H 667.467 4.27028 -2.35581 0
M  V30 7000 H 666.472 3.25982 -4.42737 0
M  V30 7001 H 667.697 4.08636 -5.42396 0
M  V30 7002 H 665.643 5.45415 -3.64498 0
M  V30 7003 H 665.56 5.32038 -5.37096 0
M  V30 7004 H 666.828 6.26104 -4.64343 0
M  V30 7005 N 671.057 1.43213 0.657864 0
M  V30 7006 C 672.005 1.48271 1.79216 0
M  V30 7007 C 672.999 0.35675 1.65601 0
M  V30 7008 O 674.205 0.530535 1.72004 0
M  V30 7009 H 670.58 0.464729 0.591211 0
M  V30 7010 H 672.551 2.43792 1.7207 0
M  V30 7011 C 671.3 1.41837 3.17455 0
M  V30 7012 H 670.623 2.27781 3.28567 0
M  V30 7013 H 672.063 1.49438 3.96793 0
M  V30 7014 C 670.522 0.135347 3.36628 0
M  V30 7015 O 671.052 -0.805199 3.93547 0
M  V30 7016 N 669.258 0.0470316 2.90562 0
M  V30 7017 H 668.805 0.813221 2.44427 0
M  V30 7018 H 668.763 -0.810737 3.03767 0
M  V30 7019 N 672.536 -0.895792 1.29666 0
M  V30 7020 C 673.783 -1.64664 1.17864 0
M  V30 7021 C 674.111 -1.92631 -0.26902 0
M  V30 7022 O 673.366 -1.53787 -1.21029 0
M  V30 7023 C 673.665 -3.00075 1.94139 0
M  V30 7024 C 673.331 -2.91702 3.43833 0
M  V30 7025 C 671.993 -2.89126 3.84656 0
M  V30 7026 C 674.345 -2.80622 4.39205 0
M  V30 7027 C 671.673 -2.73293 5.1916 0
M  V30 7028 C 674.025 -2.66329 5.73805 0
M  V30 7029 C 672.689 -2.62121 6.1388 0
M  V30 7030 H 671.959 -0.602549 0.431295 0
M  V30 7031 H 674.606 -1.04234 1.60648 0
M  V30 7032 H 672.911 -3.64394 1.43958 0
M  V30 7033 H 674.608 -3.57111 1.82408 0
M  V30 7034 H 671.198 -2.94511 3.11386 0
M  V30 7035 H 675.382 -2.81686 4.08615 0
M  V30 7036 H 670.638 -2.68443 5.49316 0
M  V30 7037 H 674.812 -2.56727 6.47352 0
M  V30 7038 H 672.439 -2.49611 7.18052 0
M  V30 7039 N 674.014 -1.12206 -1.10668 0
M  V30 7040 C 675.263 -0.870595 -1.81944 0
M  V30 7041 C 675.576 0.605447 -1.85994 0
M  V30 7042 O 676.782 0.973433 -2.53449 0
M  V30 7043 C 675.238 -1.50783 -3.26791 0
M  V30 7044 C 674.846 -3.01849 -3.31046 0
M  V30 7045 C 676.59 -1.33653 -4.02911 0
M  V30 7046 C 674.497 -3.58518 -4.70339 0
M  V30 7047 H 673.427 -0.322043 -0.681765 0
M  V30 7048 H 676.078 -1.34827 -1.24475 0
M  V30 7049 H 674.46 -0.957825 -3.84242 0
M  V30 7050 H 675.634 -3.63321 -2.83433 0
M  V30 7051 H 673.949 -3.18346 -2.68411 0
M  V30 7052 H 676.546 -1.73416 -5.05797 0
M  V30 7053 H 676.889 -0.279949 -4.15358 0
M  V30 7054 H 677.422 -1.85562 -3.51868 0
M  V30 7055 H 674.161 -4.63925 -4.63091 0
M  V30 7056 H 673.681 -3.01819 -5.18329 0
M  V30 7057 H 675.36 -3.57434 -5.39305 0
M  V30 7058 N 675.492 1.28418 -0.913599 0
M  V30 7059 C 676.44 2.29272 -0.392037 0
M  V30 7060 C 677.434 1.61344 0.516198 0
M  V30 7061 O 678.64 1.75557 0.39746 0
M  V30 7062 H 675.015 0.744178 -0.108178 0
M  V30 7063 H 676.986 2.70691 -1.25574 0
M  V30 7064 C 675.735 3.45905 0.352815 0
M  V30 7065 H 675.058 3.98378 -0.336848 0
M  V30 7066 H 676.498 4.18473 0.682398 0
M  V30 7067 C 674.957 2.98572 1.56065 0
M  V30 7068 O 675.487 3.01033 2.65974 0
M  V30 7069 N 673.693 2.54235 1.40759 0
M  V30 7070 H 673.24 2.52432 0.513403 0
M  V30 7071 H 673.198 2.22925 2.21702 0
M  V30 7072 N 676.97 0.677563 1.42291 0
M  V30 7073 C 677.902 -0.0380218 2.29168 0
M  V30 7074 C 678.915 -0.762714 1.43828 0
M  V30 7075 O 680.104 -0.616413 1.67519 0
M  V30 7076 C 677.204 -1.07761 3.21311 0
M  V30 7077 C 676.377 -0.42618 4.35319 0
M  V30 7078 C 675.436 -1.36592 5.08162 0
M  V30 7079 O 674.462 -0.865174 5.62586 0
M  V30 7080 N 675.664 -2.69909 5.13935 0
M  V30 7081 H 678.429 0.707766 2.91223 0
M  V30 7082 H 675.99 0.52219 1.53247 0
M  V30 7083 H 677.982 -1.70761 3.6691 0
M  V30 7084 H 676.552 -1.72511 2.60689 0
M  V30 7085 H 675.772 0.383385 3.92331 0
M  V30 7086 H 677.06 0.0275277 5.08793 0
M  V30 7087 H 676.458 -3.13129 4.71134 0
M  V30 7088 H 675.015 -3.2815 5.6317 0
M  V30 7089 N 678.448 -1.51871 0.421078 0
M  V30 7090 C 679.696 -2.01539 -0.150492 0
M  V30 7091 C 680.017 -1.30803 -1.44623 0
M  V30 7092 O 679.287 -0.437568 -1.90951 0
M  V30 7093 H 677.867 -0.744698 -0.0586041 0
M  V30 7094 H 680.529 -1.8668 0.560059 0
M  V30 7095 H 679.625 -3.10264 -0.338068 0
M  V30 7096 N 679.926 -0.151884 -1.56866 0
M  V30 7097 C 681.337 0.368128 -1.83035 0
M  V30 7098 C 681.688 1.64402 -1.07082 0
M  V30 7099 O 680.813 2.14056 -0.317647 0
M  V30 7100 C 681.408 0.674676 -3.32014 0
M  V30 7101 C 679.967 1.13919 -3.58747 0
M  V30 7102 C 679.114 0.164833 -2.7681 0
M  V30 7103 H 682.065 -0.376499 -1.54169 0
M  V30 7104 H 682.086 1.52883 -3.48435 0
M  V30 7105 H 681.598 -0.254113 -3.87267 0
M  V30 7106 H 679.699 2.08375 -3.08886 0
M  V30 7107 H 679.812 1.06179 -4.67186 0
M  V30 7108 H 678.176 0.658419 -2.46043 0
M  V30 7109 H 678.959 -0.757633 -3.34836 0
M  V30 7110 N 681.404 1.57128 0.121893 0
M  V30 7111 C 682.634 1.88609 0.843227 0
M  V30 7112 C 683.042 0.740917 1.74089 0
M  V30 7113 O 682.385 -0.297426 1.81276 0
M  V30 7114 C 682.447 3.15073 1.73117 0
M  V30 7115 C 682.111 4.45742 1.0081 0
M  V30 7116 C 683.108 5.18719 0.350255 0
M  V30 7117 C 680.793 4.92444 0.99014 0
M  V30 7118 C 682.787 6.36617 -0.315889 0
M  V30 7119 C 680.474 6.10261 0.320196 0
M  V30 7120 C 681.472 6.82194 -0.331666 0
M  V30 7121 O 681.16 7.97769 -0.990927 0
M  V30 7122 H 680.892 0.628919 0.247865 0
M  V30 7123 H 683.446 2.05096 0.111725 0
M  V30 7124 H 681.676 2.9466 2.50424 0
M  V30 7125 H 683.365 3.32597 2.32667 0
M  V30 7126 H 684.131 4.83693 0.35577 0
M  V30 7127 H 680.01 4.36361 1.48695 0
M  V30 7128 H 683.554 6.92701 -0.825272 0
M  V30 7129 H 679.451 6.44743 0.312433 0
M  V30 7130 H 680.219 8.13591 -0.895113 0
M  V30 7131 N 682.882 -0.391992 1.52647 0
M  V30 7132 C 683.792 -1.503 1.80131 0
M  V30 7133 C 684.808 -1.59825 0.687882 0
M  V30 7134 O 685.984 -1.76218 0.975149 0
M  V30 7135 C 683.049 -2.85863 1.96171 0
M  V30 7136 C 682.11 -2.86084 3.20085 0
M  V30 7137 C 681.343 -4.15181 3.35351 0
M  V30 7138 O 681.566 -5.09981 2.55491 0
M  V30 7139 O 680.5 -4.22603 4.28591 0
M  V30 7140 H 684.326 -1.30007 2.74466 0
M  V30 7141 H 681.911 -0.579539 1.37701 0
M  V30 7142 H 683.793 -3.66236 2.08445 0
M  V30 7143 H 682.468 -3.06189 1.05025 0
M  V30 7144 H 681.375 -2.04504 3.13256 0
M  V30 7145 H 682.708 -2.7071 4.11068 0
M  V30 7146 N 684.36 -1.4356 -0.65026 0
M  V30 7147 C 685.308 -1.49219 -1.78427 0
M  V30 7148 C 686.302 -0.365528 -1.65409 0
M  V30 7149 O 687.508 -0.539649 -1.7172 0
M  V30 7150 H 683.883 -0.467858 -0.588738 0
M  V30 7151 H 685.854 -2.44701 -1.70774 0
M  V30 7152 C 684.603 -1.43519 -3.16698 0
M  V30 7153 H 683.926 -2.2952 -3.27354 0
M  V30 7154 H 685.366 -1.5154 -3.95995 0
M  V30 7155 C 683.825 -0.153197 -3.36552 0
M  V30 7156 O 684.355 0.784317 -3.93969 0
M  V30 7157 N 682.561 -0.0624402 -2.90533 0
M  V30 7158 H 682.108 -0.826172 -2.43992 0
M  V30 7159 H 682.066 0.794616 -3.04193 0
M  V30 7160 N 685.838 0.888903 -1.30139 0
M  V30 7161 C 687.254 1.17153 -1.08385 0
M  V30 7162 C 687.454 2.0088 0.157925 0
M  V30 7163 O 686.51 2.37668 0.852652 0
M  V30 7164 C 687.823 1.882 -2.34523 0
M  V30 7165 C 689.371 2.00981 -2.39949 0
M  V30 7166 C 689.846 2.75441 -3.65918 0
M  V30 7167 N 691.337 2.82989 -3.66704 0
M  V30 7168 C 692.072 3.41167 -4.60861 0
M  V30 7169 N 691.568 4.00425 -5.6536 0
M  V30 7170 N 693.361 3.38944 -4.48412 0
M  V30 7171 H 685.512 0.33053 -2.09812 0
M  V30 7172 H 687.775 0.208964 -0.924683 0
M  V30 7173 H 687.481 1.34119 -3.25123 0
M  V30 7174 H 687.355 2.88609 -2.42868 0
M  V30 7175 H 689.742 2.54234 -1.4983 0
M  V30 7176 H 689.823 0.996725 -2.35582 0
M  V30 7177 H 689.467 2.22861 -4.56394 0
M  V30 7178 H 689.397 3.77118 -3.67546 0
M  V30 7179 H 691.888 2.40912 -2.91153 0
M  V30 7180 H 692.201 4.42871 -6.33313 0
M  V30 7181 H 690.546 3.98856 -5.69157 0
M  V30 7182 H 693.737 2.91875 -3.6596 0
M  V30 7183 H 693.91 3.83989 -5.21974 0
M  V30 7184 N 687.317 1.12792 1.10072 0
M  V30 7185 C 688.542 0.908838 1.86427 0
M  V30 7186 C 688.967 -0.536793 1.80278 0
M  V30 7187 O 688.325 -1.38033 1.17543 0
M  V30 7188 C 688.373 1.39295 3.3261 0
M  V30 7189 O 687.477 0.573846 4.08388 0
M  V30 7190 H 686.818 0.326234 0.578331 0
M  V30 7191 H 689.348 1.50094 1.39043 0
M  V30 7192 H 689.358 1.39366 3.83459 0
M  V30 7193 H 688.033 2.44555 3.36401 0
M  V30 7194 H 686.61 0.640438 3.67359 0
M  V30 7195 N 688.795 -1.27931 0.920396 0
M  V30 7196 C 690.041 -1.94977 0.557832 0
M  V30 7197 C 690.374 -1.72224 -0.897365 0
M  V30 7198 O 689.649 -1.04705 -1.63912 0
M  V30 7199 C 689.932 -3.49289 0.875741 0
M  V30 7200 C 689.785 -3.81416 2.38416 0
M  V30 7201 C 691.104 -4.38486 0.376517 0
M  V30 7202 H 688.223 -0.708164 0.20414 0
M  V30 7203 H 690.865 -1.5118 1.15085 0
M  V30 7204 H 689.015 -3.86724 0.371062 0
M  V30 7205 H 690.687 -3.53813 2.95997 0
M  V30 7206 H 688.93 -3.28225 2.83639 0
M  V30 7207 H 689.601 -4.89198 2.55713 0
M  V30 7208 H 692.077 -4.08161 0.808945 0
M  V30 7209 H 690.953 -5.45296 0.627976 0
M  V30 7210 H 691.214 -4.36143 -0.723293 0
M  V30 7211 N 690.273 -0.685099 -1.4193 0
M  V30 7212 C 691.52 -0.211658 -2.01391 0
M  V30 7213 C 691.848 1.18526 -1.54214 0
M  V30 7214 O 691.103 1.81189 -0.739519 0
M  V30 7215 C 691.402 -0.206154 -3.56805 0
M  V30 7216 C 691.068 -1.54915 -4.23453 0
M  V30 7217 C 689.73 -1.91684 -4.41373 0
M  V30 7218 C 692.082 -2.43317 -4.60919 0
M  V30 7219 C 689.41 -3.16461 -4.94034 0
M  V30 7220 C 691.762 -3.67415 -5.14965 0
M  V30 7221 C 690.426 -4.04341 -5.31098 0
M  V30 7222 H 689.696 -0.0774511 -0.736941 0
M  V30 7223 H 692.343 -0.882121 -1.69973 0
M  V30 7224 H 690.648 0.547841 -3.87951 0
M  V30 7225 H 692.345 0.17753 -4.00607 0
M  V30 7226 H 688.935 -1.25314 -4.09871 0
M  V30 7227 H 693.119 -2.16192 -4.46738 0
M  V30 7228 H 688.375 -3.45078 -5.04709 0
M  V30 7229 H 692.549 -4.3611 -5.42938 0
M  V30 7230 H 690.176 -5.01101 -5.71666 0
M  V30 7231 N 691.751 1.51645 -0.429126 0
M  V30 7232 C 692.661 2.31288 0.392809 0
M  V30 7233 C 693.677 1.39852 1.03525 0
M  V30 7234 O 694.853 1.72926 1.03241 0
M  V30 7235 C 691.918 3.13347 1.48372 0
M  V30 7236 C 690.979 4.20551 0.862268 0
M  V30 7237 C 690.212 4.98688 1.9012 0
M  V30 7238 O 690.435 4.77359 3.12225 0
M  V30 7239 O 689.369 5.83005 1.4963 0
M  V30 7240 H 693.195 3.02609 -0.257138 0
M  V30 7241 H 690.78 1.48163 -0.191851 0
M  V30 7242 H 692.662 3.64387 2.1166 0
M  V30 7243 H 691.337 2.44799 2.1179 0
M  V30 7244 H 690.244 3.73609 0.191568 0
M  V30 7245 H 691.577 4.91449 0.271704 0
M  V30 7246 N 693.229 0.160201 1.56784 0
M  V30 7247 C 694.454 -0.497373 2.01348 0
M  V30 7248 C 694.879 -1.56757 1.03966 0
M  V30 7249 O 694.237 -1.81292 0.0174455 0
M  V30 7250 C 694.285 -1.0628 3.44582 0
M  V30 7251 O 693.389 -2.17723 3.50244 0
M  V30 7252 H 692.73 -0.120295 0.653012 0
M  V30 7253 H 695.26 0.260821 2.02931 0
M  V30 7254 H 695.27 -1.38819 3.83658 0
M  V30 7255 H 693.945 -0.279166 4.14962 0
M  V30 7256 H 692.522 -1.86313 3.2302 0
M  V30 7257 N 694.707 -1.5719 -0.113559 0
M  V30 7258 C 695.637 -2.03772 -1.14013 0
M  V30 7259 C 696.618 -0.923176 -1.42869 0
M  V30 7260 O 697.803 -1.19325 -1.53216 0
M  V30 7261 C 694.933 -2.44663 -2.4649 0
M  V30 7262 C 693.887 -3.59612 -2.32085 0
M  V30 7263 C 693.213 -3.8642 -3.69573 0
M  V30 7264 C 694.513 -4.91149 -1.7768 0
M  V30 7265 H 696.207 -2.89785 -0.752665 0
M  V30 7266 H 693.753 -1.39412 -0.360609 0
M  V30 7267 H 695.706 -2.75857 -3.18561 0
M  V30 7268 H 694.43 -1.55628 -2.87137 0
M  V30 7269 H 693.089 -3.28636 -1.62461 0
M  V30 7270 H 692.737 -2.94581 -4.07715 0
M  V30 7271 H 692.437 -4.63797 -3.60786 0
M  V30 7272 H 693.961 -4.2007 -4.4314 0
M  V30 7273 H 695.375 -5.20843 -2.39574 0
M  V30 7274 H 693.772 -5.72562 -1.79701 0
M  V30 7275 H 694.842 -4.79301 -0.734776 0
M  V30 7276 N 696.185 0.383891 -1.52853 0
M  V30 7277 C 697.462 1.14296 -1.58732 0
M  V30 7278 C 697.842 2.07585 -0.383611 0
M  V30 7279 O 697.19 2.1971 0.627661 0
M  V30 7280 C 697.4 1.89816 -2.92867 0
M  V30 7281 C 698.748 2.44998 -3.46787 0
M  V30 7282 O 699.772 1.99966 -2.94774 0
M  V30 7283 O 698.631 3.2727 -4.37672 0
M  V30 7284 H 695.725 0.52326 -0.640413 0
M  V30 7285 H 698.271 0.388631 -1.6519 0
M  V30 7286 H 697.043 1.21626 -3.71918 0
M  V30 7287 H 696.666 2.72199 -2.89816 0
M  V30 7288 N 697.663 1.43903 0.642637 0
M  V30 7289 C 698.593 1.52697 1.76652 0
M  V30 7290 C 699.574 0.380816 1.65782 0
M  V30 7291 O 700.759 0.599432 1.84717 0
M  V30 7292 C 697.889 1.45975 3.15133 0
M  V30 7293 C 696.843 2.58949 3.40778 0
M  V30 7294 C 696.169 2.37279 4.79169 0
M  V30 7295 C 697.469 4.01153 3.34475 0
M  V30 7296 H 699.163 2.46766 1.69549 0
M  V30 7297 H 696.709 1.18767 0.814279 0
M  V30 7298 H 698.662 1.5073 3.93521 0
M  V30 7299 H 697.386 0.484162 3.22991 0
M  V30 7300 H 696.045 2.53564 2.64765 0
M  V30 7301 H 695.693 1.37939 4.83717 0
M  V30 7302 H 695.393 3.13016 4.97287 0
M  V30 7303 H 696.917 2.43834 5.59801 0
M  V30 7304 H 698.331 4.07968 4.02784 0
M  V30 7305 H 696.728 4.77001 3.64129 0
M  V30 7306 H 697.798 4.25539 2.32475 0
M  V30 7307 N 699.141 -0.881989 1.30609 0
M  V30 7308 C 700.389 -1.63082 1.19368 0
M  V30 7309 C 700.71 -1.93376 -0.251147 0
M  V30 7310 O 699.98 -1.5723 -1.16857 0
M  V30 7311 H 698.56 -0.604542 0.438791 0
M  V30 7312 H 701.222 -1.05658 1.63776 0
M  V30 7313 H 700.318 -2.57966 1.7567 0
M  V30 7314 N 700.619 -1.13374 -1.09472 0
M  V30 7315 C 701.865 -0.906459 -1.82085 0
M  V30 7316 C 702.22 0.5614 -1.84027 0
M  V30 7317 O 701.513 1.41012 -1.29716 0
M  V30 7318 C 701.707 -1.42759 -3.2765 0
M  V30 7319 C 701.536 -2.94459 -3.39888 0
M  V30 7320 C 700.306 -3.62798 -3.51718 0
M  V30 7321 C 702.504 -3.92398 -3.32457 0
M  V30 7322 N 700.486 -5.02516 -3.52635 0
M  V30 7323 C 701.857 -5.18304 -3.40237 0
M  V30 7324 C 703.912 -3.84671 -3.16122 0
M  V30 7325 C 702.615 -6.37386 -3.33364 0
M  V30 7326 C 704.641 -5.03287 -3.10574 0
M  V30 7327 C 704.003 -6.28055 -3.18945 0
M  V30 7328 H 700.102 -0.385097 -0.680606 0
M  V30 7329 H 702.686 -1.44187 -1.30836 0
M  V30 7330 H 700.857 -0.919102 -3.77369 0
M  V30 7331 H 702.589 -1.14136 -3.88272 0
M  V30 7332 H 699.344 -3.13317 -3.55147 0
M  V30 7333 H 699.768 -5.75421 -3.56679 0
M  V30 7334 H 704.41 -2.89094 -3.0852 0
M  V30 7335 H 702.128 -7.33219 -3.3973 0
M  V30 7336 H 705.714 -4.99047 -2.9907 0
M  V30 7337 H 704.594 -7.18299 -3.14668 0
M  V30 7338 N 702.098 1.27442 -0.927168 0
M  V30 7339 C 703.045 2.26863 -0.424459 0
M  V30 7340 C 704.015 1.5813 0.508346 0
M  V30 7341 O 705.2 1.85946 0.42762 0
M  V30 7342 C 702.34 3.43639 0.31718 0
M  V30 7343 C 701.453 4.27087 -0.649675 0
M  V30 7344 C 700.588 5.31082 0.111753 0
M  V30 7345 C 699.627 6.062 -0.847843 0
M  V30 7346 N 698.764 7.01999 -0.119074 0
M  V30 7347 H 703.604 2.69239 -1.27728 0
M  V30 7348 H 701.141 1.32394 -0.641106 0
M  V30 7349 H 703.099 4.10155 0.763486 0
M  V30 7350 H 701.729 3.02217 1.13424 0
M  V30 7351 H 700.781 3.60491 -1.21451 0
M  V30 7352 H 702.093 4.79242 -1.38307 0
M  V30 7353 H 701.247 6.03544 0.618 0
M  V30 7354 H 699.986 4.7973 0.878114 0
M  V30 7355 H 698.991 5.32577 -1.36534 0
M  V30 7356 H 700.216 6.59642 -1.61398 0
M  V30 7357 H 698.162 6.52977 0.629051 0
M  V30 7358 H 698.079 7.5184 -0.792046 0
M  V30 7359 H 699.347 7.78638 0.366537 0
M  V30 7360 N 703.576 0.692616 1.41565 0
M  V30 7361 C 704.506 0.0397325 2.33466 0
M  V30 7362 C 705.487 -0.770334 1.51657 0
M  V30 7363 O 706.672 -0.723903 1.80203 0
M  V30 7364 C 703.802 -0.899495 3.3545 0
M  V30 7365 C 702.756 -0.196738 4.27548 0
M  V30 7366 C 702.082 -1.25012 5.19881 0
M  V30 7367 C 703.382 0.935158 5.1386 0
M  V30 7368 H 705.076 0.807296 2.88311 0
M  V30 7369 H 702.622 0.389665 1.38628 0
M  V30 7370 H 704.575 -1.36545 3.98665 0
M  V30 7371 H 703.299 -1.69869 2.78948 0
M  V30 7372 H 701.958 0.249158 3.65752 0
M  V30 7373 H 701.606 -2.04177 4.59696 0
M  V30 7374 H 701.306 -0.784931 5.82334 0
M  V30 7375 H 702.83 -1.71665 5.85972 0
M  V30 7376 H 704.244 0.549619 5.70659 0
M  V30 7377 H 702.641 1.32726 5.85238 0
M  V30 7378 H 703.711 1.77613 4.512 0
M  V30 7379 N 705.054 -1.51416 0.437162 0
M  V30 7380 C 705.984 -2.30631 -0.364922 0
M  V30 7381 C 706.965 -1.36037 -1.02118 0
M  V30 7382 O 708.15 -1.64956 -1.02485 0
M  V30 7383 C 705.28 -3.1482 -1.46648 0
M  V30 7384 C 704.234 -4.17691 -0.933717 0
M  V30 7385 C 703.56 -4.904 -2.13101 0
M  V30 7386 C 704.86 -5.2229 0.0317201 0
M  V30 7387 H 706.554 -2.97932 0.29614 0
M  V30 7388 H 704.1 -1.4328 0.143865 0
M  V30 7389 H 706.053 -3.69017 -2.03481 0
M  V30 7390 H 704.777 -2.4534 -2.15583 0
M  V30 7391 H 703.436 -3.64545 -0.387602 0
M  V30 7392 H 703.084 -4.17423 -2.80654 0
M  V30 7393 H 702.784 -5.59962 -1.78092 0
M  V30 7394 H 704.308 -5.4742 -2.70487 0
M  V30 7395 H 705.722 -5.7156 -0.446302 0
M  V30 7396 H 704.119 -5.99378 0.29437 0
M  V30 7397 H 705.189 -4.75131 0.968447 0
M  V30 7398 N 706.532 -0.168513 -1.56696 0
M  V30 7399 C 707.948 0.187686 -1.58493 0
M  V30 7400 C 708.148 1.63063 -1.18375 0
M  V30 7401 O 707.204 2.36142 -0.894042 0
M  V30 7402 C 708.517 -0.0905858 -3.00564 0
M  V30 7403 C 710.065 -0.028575 -3.12987 0
M  V30 7404 C 710.54 -0.279799 -4.57145 0
M  V30 7405 N 712.031 -0.227476 -4.62641 0
M  V30 7406 C 712.766 -0.396073 -5.7203 0
M  V30 7407 N 712.262 -0.623572 -6.89988 0
M  V30 7408 N 714.055 -0.332173 -5.61118 0
M  V30 7409 H 706.206 -1.11042 -1.81062 0
M  V30 7410 H 708.469 -0.441235 -0.839056 0
M  V30 7411 H 708.175 -1.09006 -3.34381 0
M  V30 7412 H 708.049 0.619078 -3.72085 0
M  V30 7413 H 710.436 0.961471 -2.78998 0
M  V30 7414 H 710.517 -0.770905 -2.43907 0
M  V30 7415 H 710.161 -1.26704 -4.91842 0
M  V30 7416 H 710.091 0.48311 -5.24379 0
M  V30 7417 H 712.582 -0.0571723 -3.77857 0
M  V30 7418 H 712.895 -0.741745 -7.69232 0
M  V30 7419 H 711.24 -0.660153 -6.91858 0
M  V30 7420 H 714.431 -0.155051 -4.67843 0
M  V30 7421 H 714.604 -0.466994 -6.46315 0
M  V30 7422 N 708.01 1.57248 0.105221 0
M  V30 7423 C 709.259 1.84756 0.809198 0
M  V30 7424 C 709.572 0.756262 1.80389 0
M  V30 7425 O 710.778 0.918158 2.55504 0
M  V30 7426 C 709.234 3.27613 1.48989 0
M  V30 7427 C 708.842 4.44788 0.535484 0
M  V30 7428 C 710.586 3.64356 2.17819 0
M  V30 7429 C 708.493 5.78676 1.22019 0
M  V30 7430 H 707.423 0.689139 0.305946 0
M  V30 7431 H 710.074 1.83395 0.0620371 0
M  V30 7432 H 708.456 3.23485 2.28415 0
M  V30 7433 H 709.63 4.60243 -0.226557 0
M  V30 7434 H 707.945 4.16374 -0.0465769 0
M  V30 7435 H 710.542 4.61663 2.69761 0
M  V30 7436 H 710.885 2.92474 2.96251 0
M  V30 7437 H 711.418 3.70328 1.45264 0
M  V30 7438 H 708.157 6.53763 0.476875 0
M  V30 7439 H 707.677 5.67083 1.9539 0
M  V30 7440 H 709.356 6.22897 1.74952 0
M  V30 7441 N 709.488 -0.375779 1.53054 0
M  V30 7442 C 710.735 -1.11948 1.68742 0
M  V30 7443 C 711.063 -1.89596 0.434015 0
M  V30 7444 O 710.318 -1.86787 -0.583867 0
M  V30 7445 C 710.617 -2.11356 2.88207 0
M  V30 7446 C 710.283 -1.50266 4.25124 0
M  V30 7447 C 708.945 -1.33333 4.62359 0
M  V30 7448 C 711.297 -1.05976 5.10312 0
M  V30 7449 C 708.625 -0.706765 5.82427 0
M  V30 7450 C 710.977 -0.447241 6.31017 0
M  V30 7451 C 709.641 -0.265314 6.66973 0
M  V30 7452 H 708.911 -0.409648 0.61747 0
M  V30 7453 H 711.558 -0.402492 1.87222 0
M  V30 7454 H 709.863 -2.89322 2.64197 0
M  V30 7455 H 711.56 -2.68833 2.97539 0
M  V30 7456 H 708.15 -1.64437 3.95801 0
M  V30 7457 H 712.334 -1.17855 4.82104 0
M  V30 7458 H 707.59 -0.554132 6.08884 0
M  V30 7459 H 711.764 -0.0958064 6.96334 0
M  V30 7460 H 709.391 0.222267 7.59875 0
M  V30 7461 N 710.966 -1.44241 -0.634997 0
M  V30 7462 C 712.377 -1.41622 -1.21655 0
M  V30 7463 C 712.728 -0.129584 -1.95772 0
M  V30 7464 O 711.853 0.770225 -2.02229 0
M  V30 7465 C 712.448 -2.56557 -2.21278 0
M  V30 7466 C 711.007 -2.57145 -2.7487 0
M  V30 7467 C 710.154 -2.33354 -1.49804 0
M  V30 7468 H 713.105 -1.52878 -0.425905 0
M  V30 7469 H 713.126 -2.29089 -3.03807 0
M  V30 7470 H 712.638 -3.50186 -1.67306 0
M  V30 7471 H 710.739 -1.67447 -3.32855 0
M  V30 7472 H 710.852 -3.55507 -3.21172 0
M  V30 7473 H 709.216 -1.82372 -1.77799 0
M  V30 7474 H 709.999 -3.29092 -0.977402 0
M  V30 7475 N 712.444 0.87505 -1.31075 0
M  V30 7476 C 713.391 1.98178 -1.18296 0
M  V30 7477 C 714.361 1.65952 -0.0699923 0
M  V30 7478 O 715.546 1.8926 -0.241951 0
M  V30 7479 C 712.686 3.33399 -0.891024 0
M  V30 7480 C 711.799 3.78253 -2.08684 0
M  V30 7481 C 710.934 5.02166 -1.73212 0
M  V30 7482 C 709.973 5.39455 -2.89231 0
M  V30 7483 N 709.11 6.54549 -2.53989 0
M  V30 7484 H 713.95 2.0844 -2.12971 0
M  V30 7485 H 711.487 1.02047 -1.05948 0
M  V30 7486 H 713.445 4.11246 -0.702338 0
M  V30 7487 H 712.075 3.22794 0.0188799 0
M  V30 7488 H 711.127 2.9623 -2.38646 0
M  V30 7489 H 712.439 4.01821 -2.95536 0
M  V30 7490 H 711.593 5.87666 -1.50777 0
M  V30 7491 H 710.332 4.80491 -0.83544 0
M  V30 7492 H 709.337 4.52477 -3.12321 0
M  V30 7493 H 710.562 5.63098 -3.79601 0
M  V30 7494 H 708.508 6.3443 -1.66838 0
M  V30 7495 H 708.425 6.78035 -3.34372 0
M  V30 7496 H 709.693 7.43254 -2.34934 0
M  V30 7497 N 713.922 1.13953 1.08869 0
M  V30 7498 C 714.832 0.835666 2.19212 0
M  V30 7499 C 715.848 -0.182005 1.73045 0
M  V30 7500 O 717.024 -0.0116661 2.01397 0
M  V30 7501 C 714.089 0.312325 3.4529 0
M  V30 7502 C 713.15 1.39196 4.06107 0
M  V30 7503 C 712.383 0.893496 5.26168 0
M  V30 7504 O 712.606 -0.266807 5.69776 0
M  V30 7505 O 711.54 1.67037 5.78258 0
M  V30 7506 H 715.366 1.75769 2.47667 0
M  V30 7507 H 712.951 0.917421 1.17914 0
M  V30 7508 H 714.833 0.0261582 4.21392 0
M  V30 7509 H 713.508 -0.582042 3.18424 0
M  V30 7510 H 712.415 1.73152 3.31616 0
M  V30 7511 H 713.748 2.26068 4.37212 0
M  V30 7512 N 715.4 -1.26948 0.933913 0
M  V30 7513 C 716.333 -2.24977 0.382169 0
M  V30 7514 C 717.311 -1.53893 -0.524949 0
M  V30 7515 O 718.495 -1.82699 -0.464048 0
M  V30 7516 C 715.622 -3.35676 -0.451615 0
M  V30 7517 C 714.668 -4.24686 0.392947 0
M  V30 7518 S 715.501 -5.03898 1.81237 0
M  V30 7519 C 716.657 -6.18078 0.986443 0
M  V30 7520 H 716.89 -2.71429 1.21299 0
M  V30 7521 H 714.423 -1.35701 0.736523 0
M  V30 7522 H 716.381 -3.99901 -0.926797 0
M  V30 7523 H 715.042 -2.8785 -1.25703 0
M  V30 7524 H 714.235 -5.03402 -0.245533 0
M  V30 7525 H 713.837 -3.65288 0.802537 0
M  V30 7526 H 716.129 -6.77125 0.225321 0
M  V30 7527 H 717.072 -6.86216 1.74682 0
M  V30 7528 H 717.48 -5.62047 0.525711 0
M  V30 7529 N 716.879 -0.700114 -1.41195 0
M  V30 7530 C 717.809 -0.0521132 -2.33442 0
M  V30 7531 C 718.79 0.76228 -1.52063 0
M  V30 7532 O 719.975 0.714336 -1.80585 0
M  V30 7533 C 717.105 0.881693 -3.35922 0
M  V30 7534 C 716.059 0.174062 -4.27646 0
M  V30 7535 C 715.385 1.22254 -5.20536 0
M  V30 7536 C 716.685 -0.962396 -5.13357 0
M  V30 7537 H 718.379 -0.822574 -2.87879 0
M  V30 7538 H 715.925 -0.397011 -1.38419 0
M  V30 7539 H 717.878 1.34429 -3.99383 0
M  V30 7540 H 716.602 1.68387 -2.79845 0
M  V30 7541 H 715.261 -0.268551 -3.65615 0
M  V30 7542 H 714.909 2.01736 -4.60773 0
M  V30 7543 H 714.609 0.754038 -5.82742 0
M  V30 7544 H 716.133 1.68555 -5.86874 0
M  V30 7545 H 717.547 -0.579875 -5.7036 0
M  V30 7546 H 715.944 -1.35828 -5.84526 0
M  V30 7547 H 717.014 -1.80003 -4.50252 0
M  V30 7548 N 718.357 1.51182 -0.445186 0
M  V30 7549 C 719.304 2.27939 0.362291 0
M  V30 7550 C 720.274 1.31864 1.01 0
M  V30 7551 O 721.459 1.60776 1.02741 0
M  V30 7552 C 718.599 3.13016 1.45311 0
M  V30 7553 C 717.712 4.24093 0.822757 0
M  V30 7554 C 716.847 4.96467 1.88928 0
M  V30 7555 C 715.886 5.99454 1.23778 0
M  V30 7556 N 715.023 6.65206 2.24602 0
M  V30 7557 H 719.863 2.965 -0.29862 0
M  V30 7558 H 717.4 1.46237 -0.15911 0
M  V30 7559 H 719.358 3.60673 2.09692 0
M  V30 7560 H 717.988 2.46553 2.08354 0
M  V30 7561 H 717.04 3.80341 0.0670364 0
M  V30 7562 H 718.352 4.97853 0.307184 0
M  V30 7563 H 717.506 5.47712 2.60953 0
M  V30 7564 H 716.245 4.22355 2.4386 0
M  V30 7565 H 715.25 5.47494 0.503042 0
M  V30 7566 H 716.475 6.75527 0.695694 0
M  V30 7567 H 714.421 5.93901 2.78599 0
M  V30 7568 H 714.338 7.34756 1.77958 0
M  V30 7569 H 715.606 7.21078 2.96085 0
M  V30 7570 N 719.835 0.176821 1.56605 0
M  V30 7571 C 721.251 -0.179278 1.5859 0
M  V30 7572 C 721.451 -1.62433 1.19238 0
M  V30 7573 O 720.507 -2.35665 0.906552 0
M  V30 7574 C 721.82 0.106524 3.00511 0
M  V30 7575 C 723.368 0.0451731 3.12967 0
M  V30 7576 C 723.843 0.304038 4.5699 0
M  V30 7577 N 725.334 0.252008 4.62514 0
M  V30 7578 C 726.069 0.426404 5.71812 0
M  V30 7579 N 725.565 0.660155 6.89648 0
M  V30 7580 N 727.358 0.361926 5.60934 0
M  V30 7581 H 719.509 1.12001 1.8047 0
M  V30 7582 H 721.772 0.445679 0.836704 0
M  V30 7583 H 721.478 1.10778 3.33798 0
M  V30 7584 H 721.352 -0.599337 3.72408 0
M  V30 7585 H 723.739 -0.946662 2.79504 0
M  V30 7586 H 723.82 0.78383 2.43495 0
M  V30 7587 H 723.464 1.29311 4.91163 0
M  V30 7588 H 723.394 -0.455294 5.24628 0
M  V30 7589 H 725.885 0.0772102 3.77821 0
M  V30 7590 H 726.198 0.782529 7.68828 0
M  V30 7591 H 724.543 0.696835 6.91498 0
M  V30 7592 H 727.734 0.17986 4.67754 0
M  V30 7593 H 727.907 0.501263 6.46058 0
M  V30 7594 N 721.313 -1.57302 -0.09688 0
M  V30 7595 C 722.562 -1.85183 -0.799388 0
M  V30 7596 C 722.875 -0.765818 -1.79985 0
M  V30 7597 O 724.081 -0.931696 -2.55013 0
M  V30 7598 C 722.537 -3.28399 -1.47249 0
M  V30 7599 C 722.145 -4.45066 -0.511888 0
M  V30 7600 C 723.889 -3.65506 -2.15883 0
M  V30 7601 C 721.796 -5.79315 -1.18948 0
M  V30 7602 H 720.726 -0.690752 -0.302287 0
M  V30 7603 H 723.377 -1.83425 -0.0523104 0
M  V30 7604 H 721.759 -3.24692 -2.26697 0
M  V30 7605 H 722.933 -4.60116 0.250962 0
M  V30 7606 H 721.248 -4.16343 0.0686576 0
M  V30 7607 H 723.845 -4.63087 -2.67309 0
M  V30 7608 H 724.188 -2.94041 -2.94696 0
M  V30 7609 H 724.721 -3.71094 -1.43298 0
M  V30 7610 H 721.46 -6.54007 -0.442198 0
M  V30 7611 H 720.98 -5.68111 -1.9238 0
M  V30 7612 H 722.659 -6.23816 -1.71646 0
M  V30 7613 N 722.791 0.367657 -1.53252 0
M  V30 7614 C 724.202 0.944563 -1.61043 0
M  V30 7615 C 724.553 1.90325 -0.476546 0
M  V30 7616 O 723.678 2.12721 0.397333 0
M  V30 7617 C 724.273 1.71992 -2.91898 0
M  V30 7618 C 722.832 2.2462 -3.02031 0
M  V30 7619 C 721.979 1.05799 -2.56324 0
M  V30 7620 H 724.93 0.146516 -1.58022 0
M  V30 7621 H 724.951 2.58095 -2.79584 0
M  V30 7622 H 724.463 1.02192 -3.74404 0
M  V30 7623 H 722.564 2.97668 -2.24108 0
M  V30 7624 H 722.677 2.52644 -4.07073 0
M  V30 7625 H 721.041 1.42435 -2.1115 0
M  V30 7626 H 721.824 0.375008 -3.41246 0
M  V30 7627 N 724.269 1.44576 0.627338 0
M  V30 7628 C 725.201 1.47724 1.75243 0
M  V30 7629 C 726.214 0.370193 1.58535 0
M  V30 7630 O 727.403 0.636151 1.66779 0
M  V30 7631 C 724.503 1.2991 3.13012 0
M  V30 7632 C 723.676 2.5393 3.56143 0
M  V30 7633 C 722.735 2.30961 4.72804 0
M  V30 7634 O 721.761 3.04469 4.80923 0
M  V30 7635 N 722.963 1.34261 5.6476 0
M  V30 7636 H 725.728 2.44718 1.73012 0
M  V30 7637 H 723.289 1.40064 0.812022 0
M  V30 7638 H 725.281 1.12385 3.88782 0
M  V30 7639 H 723.851 0.412668 3.09864 0
M  V30 7640 H 723.071 2.86707 2.70542 0
M  V30 7641 H 724.359 3.36411 3.81713 0
M  V30 7642 H 723.757 0.735573 5.60897 0
M  V30 7643 H 722.314 1.22713 6.40144 0
M  V30 7644 N 725.747 -0.868086 1.31537 0
M  V30 7645 C 726.71 -1.95703 1.19302 0
M  V30 7646 C 727.71 -1.60355 0.119612 0
M  V30 7647 O 728.9 -1.70247 0.36902 0
M  V30 7648 C 726.032 -3.30599 0.831684 0
M  V30 7649 H 727.225 -2.07982 2.16064 0
M  V30 7650 H 724.778 -1.05661 1.15176 0
M  V30 7651 H 725.513 -3.2402 -0.134694 0
M  V30 7652 H 725.298 -3.57629 1.60761 0
M  V30 7653 H 726.788 -4.10439 0.770026 0
M  V30 7654 N 727.225 -1.14528 -1.08264 0
M  V30 7655 C 728.471 -0.91576 -1.80947 0
M  V30 7656 C 728.804 0.55623 -1.86064 0
M  V30 7657 O 728.079 1.41207 -1.33756 0
M  V30 7658 C 728.362 -1.51917 -3.26486 0
M  V30 7659 C 728.215 -3.06111 -3.2957 0
M  V30 7660 C 729.534 -1.19724 -4.23502 0
M  V30 7661 H 726.653 -0.334113 -0.656915 0
M  V30 7662 H 729.295 -1.41547 -1.26746 0
M  V30 7663 H 727.445 -1.0942 -3.72773 0
M  V30 7664 H 729.117 -3.57448 -2.91597 0
M  V30 7665 H 727.36 -3.40483 -2.688 0
M  V30 7666 H 728.031 -3.43438 -4.32151 0
M  V30 7667 H 730.507 -1.56467 -3.85561 0
M  V30 7668 H 729.383 -1.64575 -5.23647 0
M  V30 7669 H 729.644 -0.112771 -4.41956 0
M  V30 7670 N 728.703 1.26451 -0.940633 0
M  V30 7671 C 729.952 1.93071 -0.583656 0
M  V30 7672 C 730.265 1.74618 0.881366 0
M  V30 7673 O 731.471 2.35689 1.34769 0
M  V30 7674 C 729.927 3.45927 -0.993106 0
M  V30 7675 C 729.535 3.73115 -2.4797 0
M  V30 7676 C 731.279 4.18554 -0.707998 0
M  V30 7677 C 729.186 5.19408 -2.82788 0
M  V30 7678 H 728.116 0.722824 -0.214572 0
M  V30 7679 H 730.767 1.43538 -1.1432 0
M  V30 7680 H 729.149 3.94341 -0.362099 0
M  V30 7681 H 730.323 3.35408 -3.15971 0
M  V30 7682 H 728.638 3.13719 -2.73805 0
M  V30 7683 H 731.235 5.26293 -0.94447 0
M  V30 7684 H 731.578 4.14782 0.355225 0
M  V30 7685 H 732.111 3.76003 -1.2987 0
M  V30 7686 H 728.85 5.28281 -3.88071 0
M  V30 7687 H 728.37 5.58214 -2.19449 0
M  V30 7688 H 730.049 5.87407 -2.71224 0
M  V30 7689 N 730.181 0.707592 1.40822 0
M  V30 7690 C 731.458 0.171172 1.9485 0
M  V30 7691 C 731.838 -1.32143 1.64625 0
M  V30 7692 O 731.186 -2.07372 0.959647 0
M  V30 7693 C 731.396 0.475334 3.45748 0
M  V30 7694 C 732.744 0.409625 4.22619 0
M  V30 7695 O 733.768 0.410934 3.53822 0
M  V30 7696 O 732.627 0.380185 5.45176 0
M  V30 7697 H 729.721 0.022015 0.826707 0
M  V30 7698 H 732.267 0.784577 1.50474 0
M  V30 7699 H 731.039 1.50801 3.61075 0
M  V30 7700 H 730.662 -0.168439 3.97243 0
M  V30 7701 N 731.66 -1.50943 0.453197 0
M  V30 7702 C 732.57 -2.31884 -0.355963 0
M  V30 7703 C 733.586 -1.41481 -1.01287 0
M  V30 7704 O 734.762 -1.74546 -1.00477 0
M  V30 7705 C 731.827 -3.15668 -1.43369 0
M  V30 7706 C 730.888 -4.2187 -0.795253 0
M  V30 7707 C 730.121 -5.0165 -1.82162 0
M  V30 7708 O 730.344 -4.82266 -3.04592 0
M  V30 7709 O 729.278 -5.85311 -1.40336 0
M  V30 7710 H 733.104 -3.02162 0.305248 0
M  V30 7711 H 730.689 -1.47839 0.215398 0
M  V30 7712 H 732.571 -3.67709 -2.05836 0
M  V30 7713 H 731.246 -2.48137 -2.07869 0
M  V30 7714 H 730.153 -3.73867 -0.132106 0
M  V30 7715 H 731.486 -4.9182 -0.193484 0
M  V30 7716 N 733.138 -0.185124 -1.56509 0
M  V30 7717 C 734.385 0.456258 -1.97293 0
M  V30 7718 C 734.713 1.62314 -1.07165 0
M  V30 7719 O 733.968 1.95398 -0.108621 0
M  V30 7720 C 734.267 0.967977 -3.44042 0
M  V30 7721 C 733.933 -0.084476 -4.50821 0
M  V30 7722 C 732.595 -0.373689 -4.79747 0
M  V30 7723 C 734.947 -0.79812 -5.15053 0
M  V30 7724 C 732.275 -1.3817 -5.70198 0
M  V30 7725 C 734.627 -1.79521 -6.06593 0
M  V30 7726 C 733.291 -2.09172 -6.3388 0
M  V30 7727 H 732.561 0.166957 -0.721946 0
M  V30 7728 H 735.208 -0.279992 -1.89442 0
M  V30 7729 H 733.513 1.78231 -3.48914 0
M  V30 7730 H 735.21 1.47347 -3.72948 0
M  V30 7731 H 731.8 0.15111 -4.28334 0
M  V30 7732 H 735.984 -0.587903 -4.92806 0
M  V30 7733 H 731.24 -1.61745 -5.89617 0
M  V30 7734 H 735.414 -2.35347 -6.55427 0
M  V30 7735 H 733.041 -2.87427 -7.03768 0
M  V30 7736 N 734.616 1.57351 0.0885366 0
M  V30 7737 C 735.846 1.90355 0.80303 0
M  V30 7738 C 736.254 0.777678 1.72478 0
M  V30 7739 O 735.597 -0.258908 1.81866 0
M  V30 7740 C 735.659 3.18674 1.66395 0
M  V30 7741 C 735.323 4.4778 0.913327 0
M  V30 7742 C 736.32 5.19345 0.240148 0
M  V30 7743 C 734.005 4.94434 0.885462 0
M  V30 7744 C 735.999 6.35803 -0.450854 0
M  V30 7745 C 733.686 6.10802 0.190679 0
M  V30 7746 C 734.684 6.81337 -0.476295 0
M  V30 7747 O 734.372 7.95488 -1.15992 0
M  V30 7748 H 734.104 0.634035 0.234469 0
M  V30 7749 H 736.658 2.05287 0.0681959 0
M  V30 7750 H 734.888 2.99906 2.44117 0
M  V30 7751 H 736.577 3.37458 2.2556 0
M  V30 7752 H 737.343 4.84339 0.253092 0
M  V30 7753 H 733.222 4.39417 1.39406 0
M  V30 7754 H 736.766 6.90795 -0.972019 0
M  V30 7755 H 732.663 6.45261 0.175603 0
M  V30 7756 H 733.431 8.11509 -1.06749 0
M  V30 7757 N 736.094 -0.359525 1.53444 0
M  V30 7758 C 737.319 -1.12644 1.74144 0
M  V30 7759 C 737.744 -1.82082 0.472007 0
M  V30 7760 O 737.102 -1.71962 -0.57436 0
M  V30 7761 C 737.15 -2.12781 2.9113 0
M  V30 7762 O 736.254 -3.19984 2.60162 0
M  V30 7763 H 735.595 -0.326553 0.578152 0
M  V30 7764 H 738.125 -0.414798 2.00351 0
M  V30 7765 H 738.135 -2.56278 3.17467 0
M  V30 7766 H 736.81 -1.61634 3.83207 0
M  V30 7767 H 735.387 -2.81417 2.44661 0
M  V30 7768 N 737.572 -1.44907 -0.619662 0
M  V30 7769 C 738.988 -1.29046 -0.939107 0
M  V30 7770 C 739.188 -0.23462 -2.00129 0
M  V30 7771 O 738.244 0.37558 -2.49691 0
M  V30 7772 C 739.557 -2.66567 -1.39149 0
M  V30 7773 C 741.105 -2.74368 -1.50635 0
M  V30 7774 C 741.58 -4.12386 -1.99253 0
M  V30 7775 N 743.071 -4.1462 -2.06506 0
M  V30 7776 C 743.806 -5.18272 -2.4532 0
M  V30 7777 N 743.302 -6.32278 -2.83189 0
M  V30 7778 N 745.095 -5.05628 -2.45554 0
M  V30 7779 H 737.246 -2.12239 0.0826135 0
M  V30 7780 H 739.509 -0.947652 -0.0256829 0
M  V30 7781 H 739.215 -3.4496 -0.685254 0
M  V30 7782 H 739.089 -2.94224 -2.36034 0
M  V30 7783 H 741.476 -1.96287 -2.20353 0
M  V30 7784 H 741.557 -2.50439 -0.520963 0
M  V30 7785 H 741.201 -4.90947 -1.30127 0
M  V30 7786 H 741.131 -4.33699 -2.98684 0
M  V30 7787 H 743.622 -3.32343 -1.79878 0
M  V30 7788 H 743.935 -7.07172 -3.11652 0
M  V30 7789 H 742.28 -6.35699 -2.80913 0
M  V30 7790 H 745.471 -4.15613 -2.15367 0
M  V30 7791 H 745.644 -5.86529 -2.75478 0
M  V30 7792 N 739.05 0.861098 -1.31996 0
M  V30 7793 C 739.96 2.00154 -1.22374 0
M  V30 7794 C 740.976 1.73447 -0.138631 0
M  V30 7795 O 742.152 1.98191 -0.358104 0
M  V30 7796 C 739.217 3.33696 -0.940645 0
M  V30 7797 C 738.278 3.73668 -2.11355 0
M  V30 7798 C 737.511 5.00837 -1.84386 0
M  V30 7799 O 737.734 5.64996 -0.783287 0
M  V30 7800 O 736.668 5.37787 -2.70313 0
M  V30 7801 H 740.494 2.11207 -2.18233 0
M  V30 7802 H 738.079 0.990768 -1.11822 0
M  V30 7803 H 739.961 4.13756 -0.798987 0
M  V30 7804 H 738.636 3.23698 -0.0121636 0
M  V30 7805 H 737.543 2.94211 -2.31065 0
M  V30 7806 H 738.876 3.88303 -3.02459 0
M  V30 7807 N 740.528 1.15101 1.07655 0
M  V30 7808 C 741.776 0.922149 1.79836 0
M  V30 7809 C 742.097 -0.552346 1.87014 0
M  V30 7810 O 741.367 -1.40145 1.3688 0
M  V30 7811 H 739.947 0.338182 0.666064 0
M  V30 7812 H 742.609 1.45107 1.30115 0
M  V30 7813 H 741.705 1.32883 2.82398 0
M  V30 7814 N 742.006 -1.2595 0.947325 0
M  V30 7815 C 742.969 -2.24407 0.466285 0
M  V30 7816 C 743.969 -1.55054 -0.426005 0
M  V30 7817 O 745.159 -1.7275 -0.224319 0
M  V30 7818 C 742.291 -3.39326 -0.327201 0
M  V30 7819 H 743.484 -2.68477 1.33642 0
M  V30 7820 H 741.037 -1.38211 0.729887 0
M  V30 7821 H 741.772 -3.00667 -1.21532 0
M  V30 7822 H 741.557 -3.9085 0.312839 0
M  V30 7823 H 743.047 -4.12455 -0.653477 0
M  V30 7824 N 743.484 -0.715051 -1.40445 0
M  V30 7825 C 744.414 -0.0768699 -2.33373 0
M  V30 7826 C 745.395 0.746109 -1.52863 0
M  V30 7827 O 746.58 0.695142 -1.81332 0
M  V30 7828 C 743.71 0.846014 -3.36838 0
M  V30 7829 C 742.664 0.128694 -4.27806 0
M  V30 7830 C 741.99 1.16726 -5.21804 0
M  V30 7831 C 743.29 -1.01679 -5.12307 0
M  V30 7832 H 744.984 -0.853061 -2.8699 0
M  V30 7833 H 742.53 -0.41167 -1.3799 0
M  V30 7834 H 744.483 1.30185 -4.00786 0
M  V30 7835 H 743.207 1.6541 -2.81615 0
M  V30 7836 H 741.866 -0.307314 -3.6531 0
M  V30 7837 H 741.514 1.96838 -4.62887 0
M  V30 7838 H 741.214 0.692188 -5.83509 0
M  V30 7839 H 742.738 1.62321 -5.88629 0
M  V30 7840 H 744.152 -0.640337 -5.69713 0
M  V30 7841 H 742.549 -1.4202 -5.83053 0
M  V30 7842 H 743.619 -1.84769 -4.48317 0
M  V30 7843 N 744.962 1.50701 -0.461195 0
M  V30 7844 C 745.894 2.26124 0.374244 0
M  V30 7845 C 746.907 1.31064 0.965715 0
M  V30 7846 O 748.096 1.56647 0.855801 0
M  V30 7847 C 745.196 3.01996 1.5379 0
M  V30 7848 C 744.369 4.24336 1.06101 0
M  V30 7849 C 743.428 4.82585 2.09756 0
M  V30 7850 O 742.454 5.43775 1.68219 0
M  V30 7851 N 743.656 4.68712 3.42475 0
M  V30 7852 H 746.421 2.9846 -0.2723 0
M  V30 7853 H 743.982 1.59256 -0.291415 0
M  V30 7854 H 745.974 3.37846 2.22806 0
M  V30 7855 H 744.544 2.32521 2.08933 0
M  V30 7856 H 743.764 3.93707 0.197085 0
M  V30 7857 H 745.052 5.03678 0.720156 0
M  V30 7858 H 744.45 4.20026 3.78938 0
M  V30 7859 H 743.007 5.08858 4.07317 0
M  V30 7860 N 746.441 0.193421 1.56409 0
M  V30 7861 C 747.718 -0.493318 1.89277 0
M  V30 7862 C 748.098 -1.79765 1.10669 0
M  V30 7863 O 747.446 -2.27558 0.207274 0
M  V30 7864 C 747.656 -0.713732 3.41624 0
M  V30 7865 C 749.004 -1.03385 4.11821 0
M  V30 7866 O 750.028 -0.801511 3.47065 0
M  V30 7867 O 748.887 -1.47327 5.26267 0
M  V30 7868 H 745.981 -0.256973 0.786062 0
M  V30 7869 H 748.527 0.23351 1.68086 0
M  V30 7870 H 747.299 0.207446 3.9075 0
M  V30 7871 H 746.922 -1.49308 3.68501 0
M  V30 7872 N 747.919 -1.57396 -0.0801906 0
M  V30 7873 C 748.849 -2.06145 -1.09665 0
M  V30 7874 C 749.83 -0.953273 -1.40878 0
M  V30 7875 O 751.015 -1.22548 -1.50651 0
M  V30 7876 C 748.145 -2.49836 -2.41245 0
M  V30 7877 C 747.099 -3.64454 -2.24405 0
M  V30 7878 C 746.425 -3.94172 -3.61293 0
M  V30 7879 C 747.725 -4.94807 -1.67223 0
M  V30 7880 H 749.419 -2.91316 -0.691028 0
M  V30 7881 H 746.965 -1.40145 -0.330957 0
M  V30 7882 H 748.918 -2.82552 -3.12638 0
M  V30 7883 H 747.642 -1.61683 -2.83771 0
M  V30 7884 H 746.301 -3.32008 -1.55454 0
M  V30 7885 H 745.949 -3.03163 -4.01374 0
M  V30 7886 H 745.649 -4.71345 -3.50867 0
M  V30 7887 H 747.173 -4.29376 -4.3413 0
M  V30 7888 H 748.587 -5.25807 -2.28472 0
M  V30 7889 H 746.984 -5.76245 -1.67515 0
M  V30 7890 H 748.054 -4.80751 -0.632944 0
M  V30 7891 N 749.397 0.351382 -1.53633 0
M  V30 7892 C 750.36 1.41403 -1.80383 0
M  V30 7893 C 751.36 1.45963 -0.674635 0
M  V30 7894 O 752.55 1.46476 -0.942895 0
M  V30 7895 C 749.682 2.80401 -1.93876 0
M  V30 7896 H 750.875 1.18951 -2.75301 0
M  V30 7897 H 748.428 0.58533 -1.44926 0
M  V30 7898 H 749.163 3.08147 -1.01074 0
M  V30 7899 H 748.948 2.78488 -2.7602 0
M  V30 7900 H 750.438 3.57329 -2.16116 0
M  V30 7901 N 750.875 1.45233 0.611969 0
M  V30 7902 C 752.286 1.4354 1.19387 0
M  V30 7903 C 752.637 0.160713 1.95541 0
M  V30 7904 O 751.762 -0.737954 2.03429 0
M  V30 7905 C 752.357 2.60045 2.17169 0
M  V30 7906 C 750.916 2.61486 2.70744 0
M  V30 7907 C 750.063 2.35708 1.46072 0
M  V30 7908 H 753.014 1.53536 0.401529 0
M  V30 7909 H 753.035 2.33893 3.00124 0
M  V30 7910 H 752.547 3.52803 1.61714 0
M  V30 7911 H 750.648 1.72721 3.30149 0
M  V30 7912 H 750.761 3.60572 3.15476 0
M  V30 7913 H 749.125 1.85178 1.74875 0
M  V30 7914 H 749.908 3.30606 0.924922 0
M  V30 7915 N 752.353 -0.854086 1.3245 0
M  V30 7916 C 753.63 -1.59188 1.1366 0
M  V30 7917 C 754.01 -2.08917 -0.302807 0
M  V30 7918 O 753.358 -1.8795 -1.29951 0
M  V30 7919 C 753.568 -2.73757 2.16467 0
M  V30 7920 C 754.916 -3.43323 2.49829 0
M  V30 7921 O 755.94 -2.83983 2.15017 0
M  V30 7922 O 754.799 -4.50409 3.09506 0
M  V30 7923 H 751.893 -0.701092 0.438633 0
M  V30 7924 H 754.439 -0.898165 1.43983 0
M  V30 7925 H 753.211 -2.3454 3.1322 0
M  V30 7926 H 752.834 -3.50804 1.87142 0
M  V30 7927 N 753.831 -1.1567 -1.07043 0
M  V30 7928 C 755.059 -0.957471 -1.83412 0
M  V30 7929 C 755.474 0.494271 -1.82215 0
M  V30 7930 O 754.831 1.34288 -1.23584 0
M  V30 7931 C 754.882 -1.46784 -3.30359 0
M  V30 7932 O 754.603 -2.86271 -3.31633 0
M  V30 7933 C 756.104 -1.31054 -4.23485 0
M  V30 7934 H 753.324 -0.33986 -0.578564 0
M  V30 7935 H 755.868 -1.53518 -1.35102 0
M  V30 7936 H 754.023 -0.932586 -3.76007 0
M  V30 7937 H 754.437 -3.0948 -4.23465 0
M  V30 7938 H 755.911 -1.71605 -5.24648 0
M  V30 7939 H 756.388 -0.255107 -4.38458 0
M  V30 7940 H 756.994 -1.83503 -3.83676 0
M  V30 7941 N 755.309 1.25446 -0.953992 0
M  V30 7942 C 756.272 2.24156 -0.478179 0
M  V30 7943 C 757.272 1.55278 0.417776 0
M  V30 7944 O 758.462 1.72866 0.215155 0
M  V30 7945 C 755.594 3.39495 0.309202 0
M  V30 7946 H 756.787 2.67764 -1.35064 0
M  V30 7947 H 754.34 1.37822 -0.737206 0
M  V30 7948 H 755.075 3.01307 1.19936 0
M  V30 7949 H 754.86 3.90679 -0.333562 0
M  V30 7950 H 756.35 4.12796 0.631594 0
M  V30 7951 N 756.787 0.722489 1.40064 0
M  V30 7952 C 757.717 0.0892452 2.33329 0
M  V30 7953 C 758.698 -0.737992 1.53257 0
M  V30 7954 O 759.883 -0.685516 1.81698 0
M  V30 7955 C 757.013 -0.828139 3.37282 0
M  V30 7956 C 755.967 -0.106005 4.27869 0
M  V30 7957 C 755.293 -1.13957 5.22415 0
M  V30 7958 C 756.593 1.04395 5.11761 0
M  V30 7959 H 758.287 0.868269 2.86534 0
M  V30 7960 H 755.833 0.418982 1.3777 0
M  V30 7961 H 757.786 -1.28058 4.01471 0
M  V30 7962 H 756.51 -1.63914 2.82489 0
M  V30 7963 H 755.169 0.326683 3.65142 0
M  V30 7964 H 754.817 -1.9438 4.63924 0
M  V30 7965 H 754.517 -0.661233 5.83868 0
M  V30 7966 H 756.041 -1.59197 5.89482 0
M  V30 7967 H 757.455 0.670541 5.69365 0
M  V30 7968 H 755.852 1.4511 5.82291 0
M  V30 7969 H 756.922 1.87144 4.47331 0
M  V30 7970 O 758.304 -1.49494 0.611055 0
M  V30 7971 H 758.995 -1.93303 0.123934 0
M  V30 END ATOM
M  V30 BEGIN BOND
M  V30 END BOND
M  V30 END CTAB
M  END
$$$$
