drugbank_target|P15428 15-hydroxyprostaglandin dehydrogenase [NAD(+)] (DB00157)
 OpenBabel12092119343D

  0  0  0     0  0            999 V3000
M  V30 BEGIN CTAB
M  V30 COUNTS 4085 4117 0 0 0
M  V30 BEGIN ATOM
M  V30 1 H -0.908 1.98254 -0.117106 0
M  V30 2 N 0 1.576 0 0
M  V30 3 C 0.933 2.03868 1.02534 0
M  V30 4 C 1.911 0.928543 1.3348 0
M  V30 5 O 3.095 1.19667 1.45644 0
M  V30 6 C 0.222 2.43627 2.35294 0
M  V30 7 C -0.732 3.65373 2.2001 0
M  V30 8 S 0.101 5.13292 1.52614 0
M  V30 9 C 1.257 5.56322 2.86805 0
M  V30 10 H 1.49 2.90518 0.631377 0
M  V30 11 H -0.977 1.52953 0.210867 0
M  V30 12 H 0.981 2.67203 3.11629 0
M  V30 13 H -0.358 1.57376 2.7183 0
M  V30 14 H -1.165 3.90944 3.18086 0
M  V30 15 H -1.563 3.418 1.51819 0
M  V30 16 H 0.729 5.58782 3.83104 0
M  V30 17 H 1.672 6.56266 2.65933 0
M  V30 18 H 2.08 4.83886 2.90714 0
M  V30 19 N 1.4781 -0.272755 1.55222 0
M  V30 20 C 2.4281 -1.33946 1.84506 0
M  V30 21 C 3.4121 -1.44682 0.70399 0
M  V30 22 O 4.6041 -1.48358 0.965338 0
M  V30 23 C 1.7331 -2.69968 2.12067 0
M  V30 24 C 0.8191 -2.63341 3.32434 0
M  V30 25 N 1.2101 -2.26335 4.52334 0
M  V30 26 C -0.4919 -2.94402 3.35028 0
M  V30 27 C 0.2091 -2.29705 5.34425 0
M  V30 28 N -0.8149 -2.68188 4.72838 0
M  V30 29 H 2.9871 -1.04343 2.74754 0
M  V30 30 H 0.5011 -0.481389 1.55101 0
M  V30 31 H 2.4981 -3.46916 2.31202 0
M  V30 32 H 1.1581 -3.00459 1.23103 0
M  V30 33 H 2.1691 -1.98309 4.78429 0
M  V30 34 H -1.1539 -3.29603 2.56257 0
M  V30 35 H 0.2361 -2.03653 6.40293 0
M  V30 36 N 2.9562 -1.48159 -0.537278 0
M  V30 37 C 4.2022 -1.56035 -1.29541 0
M  V30 38 C 4.5352 -0.230377 -1.92829 0
M  V30 39 O 3.8102 0.762952 -1.78911 0
M  V30 40 C 4.0932 -2.69323 -2.39034 0
M  V30 41 C 3.9462 -4.12002 -1.80485 0
M  V30 42 C 5.2652 -2.78408 -3.40847 0
M  V30 43 H 2.3842 -0.567992 -0.469632 0
M  V30 44 H 5.0262 -1.80302 -0.599277 0
M  V30 45 H 3.1762 -2.48763 -2.98412 0
M  V30 46 H 4.8482 -4.43981 -1.25215 0
M  V30 47 H 3.0912 -4.19344 -1.11055 0
M  V30 48 H 3.7622 -4.87077 -2.59731 0
M  V30 49 H 6.2382 -2.97012 -2.91416 0
M  V30 50 H 5.1142 -3.59416 -4.14863 0
M  V30 51 H 5.3752 -1.86269 -4.00944 0
M  V30 52 N 4.4343 0.785586 -1.36625 0
M  V30 53 C 5.3823 1.91978 -1.31329 0
M  V30 54 C 6.3763 1.68162 -0.204416 0
M  V30 55 O 7.5823 1.76122 -0.371645 0
M  V30 56 H 3.9573 0.631087 -0.408942 0
M  V30 57 H 5.9283 1.93562 -2.27104 0
M  V30 58 C 4.6773 3.29055 -1.12329 0
M  V30 59 H 4.0003 3.4795 -1.96903 0
M  V30 60 H 5.4403 4.08756 -1.12671 0
M  V30 61 C 3.8993 3.36461 0.171861 0
M  V30 62 O 4.4293 3.84576 1.16035 0
M  V30 63 N 2.6353 2.89782 0.217846 0
M  V30 64 H 2.1823 2.50819 -0.587183 0
M  V30 65 H 2.1403 2.95119 1.08408 0
M  V30 66 N 5.9124 1.20967 1.01018 0
M  V30 67 C 7.1604 1.02172 1.74371 0
M  V30 68 C 7.4814 -0.446414 1.89821 0
M  V30 69 O 6.7514 -1.32234 1.44537 0
M  V30 70 H 5.3314 0.375066 0.646014 0
M  V30 71 H 7.9934 1.52187 1.21758 0
M  V30 72 H 7.0894 1.48538 2.74487 0
M  V30 73 N 7.3905 -1.2043 1.01659 0
M  V30 74 C 8.3375 -2.23215 0.586822 0
M  V30 75 C 9.3075 -1.61382 -0.393085 0
M  V30 76 O 10.4925 -1.88544 -0.292525 0
M  V30 77 C 7.6325 -3.45032 -0.0687464 0
M  V30 78 C 6.7455 -4.21296 0.955724 0
M  V30 79 C 5.8805 -5.30507 0.271208 0
M  V30 80 C 4.9195 -5.98515 1.28244 0
M  V30 81 N 4.0565 -6.99316 0.62459 0
M  V30 82 H 8.8965 -2.59336 1.46796 0
M  V30 83 H 6.4335 -1.27431 0.734836 0
M  V30 84 H 8.3915 -4.1459 -0.465965 0
M  V30 85 H 7.0215 -3.09604 -0.913529 0
M  V30 86 H 6.0735 -3.50803 1.4711 0
M  V30 87 H 7.3855 -4.6803 1.72479 0
M  V30 88 H 6.5395 -6.06428 -0.18151 0
M  V30 89 H 5.2785 -4.8481 -0.530163 0
M  V30 90 H 4.2835 -5.21355 1.74554 0
M  V30 91 H 5.5085 -6.46298 2.08509 0
M  V30 92 H 3.4545 -6.55812 -0.156914 0
M  V30 93 H 3.3715 -7.44178 1.33172 0
M  V30 94 H 4.6395 -7.79255 0.195462 0
M  V30 95 N 8.8686 -0.792821 -1.36206 0
M  V30 96 C 10.1146 -0.36733 -1.99446 0
M  V30 97 C 10.4476 1.05917 -1.62774 0
M  V30 98 O 9.7226 1.7324 -0.88421 0
M  V30 99 C 10.0056 -0.535044 -3.56103 0
M  V30 100 C 9.8586 -2.00548 -4.02617 0
M  V30 101 C 11.1776 0.0478191 -4.40074 0
M  V30 102 H 8.2966 -0.134941 -0.724541 0
M  V30 103 H 10.9386 -0.999794 -1.61568 0
M  V30 104 H 9.0886 0.00336329 -3.885 0
M  V30 105 H 10.7606 -2.60521 -3.80692 0
M  V30 106 H 9.0036 -2.50686 -3.54032 0
M  V30 107 H 9.6746 -2.07377 -5.11565 0
M  V30 108 H 12.1506 -0.411822 -4.14057 0
M  V30 109 H 11.0266 -0.0995336 -5.4881 0
M  V30 110 H 11.2876 1.14025 -4.27142 0
M  V30 111 N 10.3467 1.47872 -0.545128 0
M  V30 112 C 11.3097 2.28337 0.198717 0
M  V30 113 C 12.3097 1.36255 0.853888 0
M  V30 114 O 13.4997 1.59003 0.711606 0
M  V30 115 C 10.6317 3.15585 1.28915 0
M  V30 116 H 11.8247 2.95567 -0.507941 0
M  V30 117 H 9.3777 1.53362 -0.301616 0
M  V30 118 H 10.1127 2.53019 2.02859 0
M  V30 119 H 9.8977 3.83337 0.824309 0
M  V30 120 H 11.3877 3.76243 1.81194 0
M  V30 121 N 11.8248 0.280983 1.55075 0
M  V30 122 C 12.7548 -0.597469 2.25727 0
M  V30 123 C 13.7358 -1.15417 1.24952 0
M  V30 124 O 14.9208 -1.18722 1.53684 0
M  V30 125 C 12.0508 -1.7789 2.98283 0
M  V30 126 C 11.0048 -1.35347 4.06036 0
M  V30 127 C 10.3308 -2.61846 4.66198 0
M  V30 128 C 11.6308 -0.499354 5.19907 0
M  V30 129 H 13.3248 -0.00824265 2.99399 0
M  V30 130 H 10.8708 -0.0025244 1.44 0
M  V30 131 H 12.8238 -2.39937 3.46422 0
M  V30 132 H 11.5478 -2.39405 2.22155 0
M  V30 133 H 10.2068 -0.756156 3.58717 0
M  V30 134 H 9.8548 -3.21632 3.86732 0
M  V30 135 H 9.5548 -2.3409 5.38958 0
M  V30 136 H 11.0788 -3.24732 5.1709 0
M  V30 137 H 12.4928 -1.02498 5.64063 0
M  V30 138 H 10.8898 -0.316424 5.99265 0
M  V30 139 H 11.9598 0.480459 4.82514 0
M  V30 140 N 13.3029 -1.57598 0.00835791 0
M  V30 141 C 14.5489 -1.91211 -0.675732 0
M  V30 142 C 14.8819 -0.883139 -1.72958 0
M  V30 143 O 14.1569 0.097016 -1.94258 0
M  V30 144 C 14.4399 -3.35379 -1.31123 0
M  V30 145 C 14.2929 -4.48999 -0.268356 0
M  V30 146 C 15.6119 -3.7912 -2.23508 0
M  V30 147 H 12.7309 -0.695374 -0.244179 0
M  V30 148 H 15.3729 -1.89901 0.0613655 0
M  V30 149 H 13.5229 -3.36626 -1.93946 0
M  V30 150 H 15.1949 -4.59887 0.360844 0
M  V30 151 H 13.4379 -4.31873 0.408482 0
M  V30 152 H 14.1089 -5.46851 -0.752218 0
M  V30 153 H 16.5849 -3.79477 -1.70693 0
M  V30 154 H 15.4609 -4.80729 -2.64936 0
M  V30 155 H 15.7219 -3.13455 -3.11766 0
M  V30 156 N 14.781 0.264519 -1.55364 0
M  V30 157 C 16.009 1.013 -1.80405 0
M  V30 158 C 16.424 1.79618 -0.581622 0
M  V30 159 O 15.781 1.76879 0.449468 0
M  V30 160 C 15.832 1.96487 -3.03439 0
M  V30 161 O 15.553 1.21341 -4.20961 0
M  V30 162 C 17.054 2.83079 -3.41147 0
M  V30 163 H 14.274 0.298875 -0.600762 0
M  V30 164 H 16.818 0.292736 -2.02394 0
M  V30 165 H 14.973 2.63965 -2.83551 0
M  V30 166 H 15.387 1.85573 -4.90574 0
M  V30 167 H 16.861 3.4565 -4.30384 0
M  V30 168 H 17.338 3.53286 -2.60932 0
M  V30 169 H 17.944 2.2108 -3.63323 0
M  V30 170 N 16.2591 1.48442 0.529413 0
M  V30 171 C 17.5071 1.56179 1.28267 0
M  V30 172 C 17.8281 0.237721 1.93546 0
M  V30 173 O 17.0981 -0.740779 1.81354 0
M  V30 174 H 15.6781 0.575367 0.476405 0
M  V30 175 H 18.3401 1.84909 0.61602 0
M  V30 176 H 17.4361 2.34312 2.06165 0
M  V30 177 N 17.7372 -0.778329 1.37039 0
M  V30 178 C 18.7002 -1.87301 1.32102 0
M  V30 179 C 19.7002 -1.59198 0.226405 0
M  V30 180 O 20.8902 -1.67403 0.481861 0
M  V30 181 C 18.0222 -3.24309 1.05055 0
M  V30 182 H 19.2152 -1.93093 2.29467 0
M  V30 183 H 16.7682 -0.977358 1.21973 0
M  V30 184 H 17.5032 -3.24196 0.0819373 0
M  V30 185 H 17.2882 -3.46098 1.84279 0
M  V30 186 H 18.7782 -4.04382 1.04234 0
M  V30 187 N 19.2153 -1.21501 -1.00376 0
M  V30 188 C 20.1783 -0.976927 -2.07337 0
M  V30 189 C 21.1783 0.0525322 -1.60714 0
M  V30 190 O 22.3683 -0.184869 -1.73216 0
M  V30 191 C 19.5003 -0.473423 -3.37597 0
M  V30 192 H 20.6933 -1.92587 -2.29892 0
M  V30 193 H 18.2463 -1.03217 -1.17371 0
M  V30 194 H 18.9813 0.480379 -3.20722 0
M  V30 195 H 18.7663 -1.216 -3.72768 0
M  V30 196 H 20.2563 -0.32675 -4.1632 0
M  V30 197 N 20.6934 1.19889 -1.02296 0
M  V30 198 C 21.6254 2.22334 -0.556787 0
M  V30 199 C 22.6384 1.58674 0.364199 0
M  V30 200 O 23.8274 1.77768 0.161533 0
M  V30 201 C 20.9274 3.38257 0.208694 0
M  V30 202 C 20.1004 4.31504 -0.71577 0
M  V30 203 C 19.1594 5.262 0.00325597 0
M  V30 204 O 18.1854 5.65798 -0.621357 0
M  V30 205 N 19.3874 5.66303 1.27599 0
M  V30 206 H 22.1524 2.62957 -1.43784 0
M  V30 207 H 19.7134 1.34495 -0.901261 0
M  V30 208 H 21.7054 3.98616 0.699111 0
M  V30 209 H 20.2754 2.96472 0.991102 0
M  V30 210 H 19.4954 3.69016 -1.38638 0
M  V30 211 H 20.7834 4.9072 -1.34428 0
M  V30 212 H 20.1814 5.36155 1.80429 0
M  V30 213 H 18.7384 6.28942 1.71102 0
M  V30 214 N 22.1715 0.800033 1.35784 0
M  V30 215 C 23.4195 0.376597 1.9856 0
M  V30 216 C 23.7405 -1.05812 1.63795 0
M  V30 217 O 23.0105 -1.73103 0.917171 0
M  V30 218 H 21.5905 0.136261 0.734467 0
M  V30 219 H 24.2525 1.02442 1.65806 0
M  V30 220 H 23.3485 0.477002 3.08433 0
M  V30 221 N 23.6496 -1.47581 0.552962 0
M  V30 222 C 24.8986 -2.01684 0.0251995 0
M  V30 223 C 25.2116 -1.43317 -1.33115 0
M  V30 224 O 26.4176 -1.89057 -1.94858 0
M  V30 225 C 24.8736 -3.599 -0.00542052 0
M  V30 226 C 24.4816 -4.27257 1.34742 0
M  V30 227 C 26.2256 -4.21768 -0.4808 0
M  V30 228 C 24.1326 -5.77467 1.27614 0
M  V30 229 H 23.0626 -0.753979 0.00565033 0
M  V30 230 H 25.7136 -1.69616 0.70018 0
M  V30 231 H 24.0956 -3.88911 -0.745961 0
M  V30 232 H 25.2696 -4.09893 2.10534 0
M  V30 233 H 23.5846 -3.77358 1.76039 0
M  V30 234 H 26.1816 -5.31838 -0.55246 0
M  V30 235 H 26.5246 -3.88651 -1.49184 0
M  V30 236 H 27.0576 -3.97273 0.204752 0
M  V30 237 H 23.7966 -6.15196 2.26304 0
M  V30 238 H 23.3166 -5.9718 0.55996 0
M  V30 239 H 24.9956 -6.3959 0.976421 0
M  V30 240 N 25.1277 -0.289203 -1.54924 0
M  V30 241 C 26.3757 0.322879 -1.99504 0
M  V30 242 C 26.6967 1.55313 -1.1791 0
M  V30 243 O 25.9667 1.94001 -0.272097 0
M  V30 244 H 24.5467 0.122291 -0.736922 0
M  V30 245 H 27.2087 -0.397802 -1.90797 0
M  V30 246 H 26.3047 0.603061 -3.06218 0
M  V30 247 N 26.6058 1.57591 -0.0167156 0
M  V30 248 C 28.0218 1.55946 0.339557 0
M  V30 249 C 28.2218 1.02109 1.73713 0
M  V30 250 O 27.2778 0.662303 2.43659 0
M  V30 251 C 28.5908 3.00037 0.199499 0
M  V30 252 C 30.1388 3.11805 0.273193 0
M  V30 253 C 30.6138 4.57713 0.162068 0
M  V30 254 N 32.1048 4.6268 0.219444 0
M  V30 255 C 32.8398 5.73185 0.157054 0
M  V30 256 N 32.3358 6.92786 0.0442936 0
M  V30 257 N 34.1288 5.61707 0.21014 0
M  V30 258 H 26.2798 1.90921 -0.930758 0
M  V30 259 H 28.5428 0.877674 -0.358319 0
M  V30 260 H 28.2488 3.4333 -0.76273 0
M  V30 261 H 28.1228 3.64387 0.974786 0
M  V30 262 H 30.5098 2.68433 1.22587 0
M  V30 263 H 30.5908 2.50201 -0.532256 0
M  V30 264 H 30.2348 5.01763 -0.78714 0
M  V30 265 H 30.1648 5.17283 0.986222 0
M  V30 266 H 32.6558 3.76649 0.307246 0
M  V30 267 H 32.9688 7.728 0.00304069 0
M  V30 268 H 31.3138 6.94999 0.00968457 0
M  V30 269 H 34.5048 4.6716 0.296546 0
M  V30 270 H 34.6778 6.47807 0.158054 0
M  V30 271 N 28.0839 -0.256276 1.55502 0
M  V30 272 C 29.0469 -1.30047 1.88734 0
M  V30 273 C 30.0469 -1.4154 0.763086 0
M  V30 274 O 31.2369 -1.40403 1.03115 0
M  V30 275 C 28.3689 -2.67953 2.10747 0
M  V30 276 H 29.5619 -1.01802 2.82093 0
M  V30 277 H 27.1149 -0.495134 1.4825 0
M  V30 278 H 27.8499 -3.01351 1.19825 0
M  V30 279 H 27.6349 -2.60993 2.92617 0
M  V30 280 H 29.1249 -3.43368 2.37673 0
M  V30 281 N 29.562 -1.4872 -0.521534 0
M  V30 282 C 30.809 -1.57168 -1.27689 0
M  V30 283 C 31.137 -0.249275 -1.92896 0
M  V30 284 O 30.392 0.761162 -1.80291 0
M  V30 285 C 30.691 -2.66497 -2.38148 0
M  V30 286 C 30.357 -4.08664 -1.90538 0
M  V30 287 C 29.019 -4.47357 -1.77271 0
M  V30 288 C 31.371 -4.97724 -1.54663 0
M  V30 289 C 28.699 -5.72905 -1.26478 0
M  V30 290 C 31.051 -6.2377 -1.05329 0
M  V30 291 C 29.715 -6.61311 -0.906861 0
M  V30 292 H 28.985 -0.575117 -0.467249 0
M  V30 293 H 31.632 -1.82472 -0.581051 0
M  V30 294 H 29.937 -2.35085 -3.13437 0
M  V30 295 H 31.634 -2.70246 -2.96257 0
M  V30 296 H 28.224 -3.78111 -2.01816 0
M  V30 297 H 32.408 -4.68501 -1.63768 0
M  V30 298 H 27.664 -6.00709 -1.13835 0
M  V30 299 H 31.838 -6.9217 -0.76644 0
M  V30 300 H 29.465 -7.5848 -0.511083 0
M  V30 301 N 31.0401 0.771051 -1.3745 0
M  V30 302 C 32.0031 1.86598 -1.33093 0
M  V30 303 C 33.0031 1.59076 -0.234845 0
M  V30 304 O 34.1931 1.67145 -0.490732 0
M  V30 305 C 31.3251 3.23747 -1.06773 0
M  V30 306 H 32.5181 1.91873 -2.30488 0
M  V30 307 H 30.0711 0.970876 -1.2249 0
M  V30 308 H 30.8061 3.24148 -0.099129 0
M  V30 309 H 30.5911 3.45115 -1.86112 0
M  V30 310 H 32.0811 4.03824 -1.06377 0
M  V30 311 N 32.5182 1.22032 0.997298 0
M  V30 312 C 33.4282 1.00271 2.12092 0
M  V30 313 C 34.4442 -0.047621 1.73935 0
M  V30 314 O 35.6202 0.144136 2.00884 0
M  V30 315 C 32.6852 0.578449 3.4184 0
M  V30 316 C 31.7462 1.70189 3.94125 0
M  V30 317 C 30.9792 1.29778 5.17681 0
M  V30 318 O 31.2022 0.174676 5.70132 0
M  V30 319 O 30.1362 2.11261 5.63607 0
M  V30 320 H 33.9622 1.94398 2.3333 0
M  V30 321 H 31.5472 1.00587 1.10465 0
M  V30 322 H 33.4292 0.351998 4.19927 0
M  V30 323 H 32.1042 -0.334019 3.21972 0
M  V30 324 H 31.0112 1.98282 3.1723 0
M  V30 325 H 32.3442 2.59206 4.18417 0
M  V30 326 N 33.9963 -1.19345 1.0293 0
M  V30 327 C 34.9593 -2.20793 0.615069 0
M  V30 328 C 35.9593 -1.57553 -0.321533 0
M  V30 329 O 37.1493 -1.73862 -0.108483 0
M  V30 330 C 34.2813 -3.40754 -0.0999222 0
M  V30 331 H 35.4743 -2.58955 1.51269 0
M  V30 332 H 33.0273 -1.3303 0.820534 0
M  V30 333 H 33.7623 -3.0811 -1.01187 0
M  V30 334 H 33.5473 -3.87889 0.57309 0
M  V30 335 H 35.0373 -4.15898 -0.376645 0
M  V30 336 N 35.4744 -0.807222 -1.35358 0
M  V30 337 C 36.4044 -0.232509 -2.3234 0
M  V30 338 C 37.3854 0.642386 -1.57504 0
M  V30 339 O 38.5704 0.572526 -1.85569 0
M  V30 340 C 35.7004 0.619238 -3.41735 0
M  V30 341 C 34.6544 -0.157215 -4.27711 0
M  V30 342 C 33.9804 0.816273 -5.28433 0
M  V30 343 C 35.2804 -1.35656 -5.04376 0
M  V30 344 H 36.9744 -1.04276 -2.80654 0
M  V30 345 H 34.5204 -0.50288 -1.34934 0
M  V30 346 H 36.4734 1.03137 -4.08584 0
M  V30 347 H 35.1974 1.46239 -2.92031 0
M  V30 348 H 33.8564 -0.550525 -3.62443 0
M  V30 349 H 33.5044 1.65494 -4.74996 0
M  V30 350 H 33.2044 0.301067 -5.86828 0
M  V30 351 H 34.7284 1.22659 -5.98153 0
M  V30 352 H 36.1424 -1.01927 -5.64166 0
M  V30 353 H 34.5394 -1.8063 -5.7227 0
M  V30 354 H 35.6094 -2.14288 -4.34981 0
M  V30 355 N 36.9525 1.47285 -0.560781 0
M  V30 356 C 37.8825 2.32857 0.173105 0
M  V30 357 C 38.8635 1.44009 0.905281 0
M  V30 358 O 40.0485 1.7286 0.885046 0
M  V30 359 C 37.1785 3.25861 1.20133 0
M  V30 360 C 36.1325 4.23978 0.585388 0
M  V30 361 C 35.4585 5.06332 1.7185 0
M  V30 362 C 36.7585 5.20242 -0.463178 0
M  V30 363 H 38.4525 2.94466 -0.541307 0
M  V30 364 H 35.9985 1.41601 -0.261764 0
M  V30 365 H 37.9515 3.84569 1.72293 0
M  V30 366 H 36.6755 2.62315 1.94573 0
M  V30 367 H 35.3345 3.66501 0.085054 0
M  V30 368 H 34.9825 4.39186 2.45203 0
M  V30 369 H 34.6825 5.72762 1.31213 0
M  V30 370 H 36.2065 5.67899 2.24329 0
M  V30 371 H 37.6205 5.73293 -0.027502 0
M  V30 372 H 36.0175 5.94896 -0.788627 0
M  V30 373 H 37.0875 4.65504 -1.35773 0
M  V30 374 N 38.4306 0.297415 1.54768 0
M  V30 375 C 39.3606 -0.573494 2.26348 0
M  V30 376 C 40.3416 -1.14085 1.26169 0
M  V30 377 O 41.5266 -1.17086 1.54934 0
M  V30 378 C 38.6566 -1.74716 3.00153 0
M  V30 379 C 37.6106 -1.31032 4.07449 0
M  V30 380 C 36.9366 -2.56887 4.68949 0
M  V30 381 C 38.2366 -0.444183 5.20408 0
M  V30 382 H 39.9306 0.0235131 2.99391 0
M  V30 383 H 37.4766 0.0127488 1.43994 0
M  V30 384 H 39.4296 -2.3625 3.48947 0
M  V30 385 H 38.1536 -2.37035 2.24682 0
M  V30 386 H 36.8126 -0.718066 3.59499 0
M  V30 387 H 36.4606 -3.17512 3.90122 0
M  V30 388 H 36.1606 -2.2836 5.41411 0
M  V30 389 H 37.6846 -3.19229 5.20505 0
M  V30 390 H 39.0986 -0.9651 5.65118 0
M  V30 391 H 37.4956 -0.252846 5.99567 0
M  V30 392 H 38.5656 0.531609 4.81977 0
M  V30 393 N 39.9087 -1.5758 0.0250728 0
M  V30 394 C 40.8557 -2.09973 -0.958129 0
M  V30 395 C 41.8257 -1.00085 -1.3256 0
M  V30 396 O 43.0107 -1.27481 -1.41962 0
M  V30 397 C 40.1507 -2.62812 -2.2366 0
M  V30 398 C 39.2637 -3.86693 -1.92594 0
M  V30 399 C 38.3987 -4.27941 -3.14707 0
M  V30 400 C 37.4377 -5.44591 -2.79442 0
M  V30 401 N 36.5747 -5.81014 -3.94167 0
M  V30 402 H 41.4147 -2.937 -0.504428 0
M  V30 403 H 38.9517 -1.45172 -0.237392 0
M  V30 404 H 40.9097 -2.91536 -2.98434 0
M  V30 405 H 39.5397 -1.81922 -2.66654 0
M  V30 406 H 38.5917 -3.64723 -1.0808 0
M  V30 407 H 39.9037 -4.71547 -1.62619 0
M  V30 408 H 39.0577 -4.58079 -3.97804 0
M  V30 409 H 37.7967 -3.41845 -3.4784 0
M  V30 410 H 36.8017 -5.1415 -1.94755 0
M  V30 411 H 38.0267 -6.32382 -2.47528 0
M  V30 412 H 35.9727 -4.97874 -4.2715 0
M  V30 413 H 35.8897 -6.60498 -3.67801 0
M  V30 414 H 37.1577 -6.15756 -4.7798 0
M  V30 415 N 41.3868 0.248026 -1.55636 0
M  V30 416 C 42.6348 0.974295 -1.77065 0
M  V30 417 C 42.9558 1.85897 -0.588849 0
M  V30 418 O 42.2258 1.91868 0.395407 0
M  V30 419 H 40.8058 0.362733 -0.653019 0
M  V30 420 H 43.4678 0.266244 -1.93073 0
M  V30 421 H 42.5638 1.59667 -2.68166 0
M  V30 422 N 42.8649 1.48995 0.513639 0
M  V30 423 C 43.8279 1.64229 1.59879 0
M  V30 424 C 44.8279 0.514696 1.5234 0
M  V30 425 O 46.0179 0.78087 1.55718 0
M  V30 426 C 43.1499 1.62783 2.99524 0
M  V30 427 H 44.3429 2.61004 1.47705 0
M  V30 428 H 41.8959 1.37837 0.736936 0
M  V30 429 H 42.6309 0.675461 3.17188 0
M  V30 430 H 42.4159 2.4466 3.06404 0
M  V30 431 H 43.9059 1.76669 3.78388 0
M  V30 432 N 44.343 -0.763751 1.37857 0
M  V30 433 C 45.29 -1.87726 1.34267 0
M  V30 434 C 46.26 -1.64807 0.206879 0
M  V30 435 O 47.445 -1.86613 0.397508 0
M  V30 436 C 44.585 -3.24896 1.16346 0
M  V30 437 C 43.698 -3.59716 2.39225 0
M  V30 438 C 42.833 -4.86137 2.14114 0
M  V30 439 C 41.872 -5.13711 3.32817 0
M  V30 440 N 41.009 -6.31323 3.07206 0
M  V30 441 H 45.849 -1.90129 2.29466 0
M  V30 442 H 43.386 -0.929433 1.14017 0
M  V30 443 H 45.344 -4.04036 1.03975 0
M  V30 444 H 43.974 -3.21847 0.247909 0
M  V30 445 H 43.026 -2.75498 2.62307 0
M  V30 446 H 44.338 -3.76027 3.27728 0
M  V30 447 H 43.492 -5.73198 1.9882 0
M  V30 448 H 42.231 -4.71945 1.22961 0
M  V30 449 H 41.236 -4.25123 3.48641 0
M  V30 450 H 42.461 -5.29807 4.24832 0
M  V30 451 H 40.407 -6.18474 2.1869 0
M  V30 452 H 40.324 -6.48087 3.89254 0
M  V30 453 H 41.592 -7.213 2.95546 0
M  V30 454 N 45.8211 -1.22559 -0.990812 0
M  V30 455 C 47.0671 -1.05297 -1.73322 0
M  V30 456 C 47.4001 0.410655 -1.89808 0
M  V30 457 O 46.6751 1.30439 -1.44277 0
M  V30 458 C 46.9581 -1.76713 -3.13759 0
M  V30 459 C 46.8111 -3.30684 -3.04907 0
M  V30 460 C 48.1301 -1.52121 -4.12974 0
M  V30 461 H 45.2491 -0.38392 -0.629106 0
M  V30 462 H 47.8911 -1.50926 -1.15418 0
M  V30 463 H 46.0411 -1.37924 -3.63193 0
M  V30 464 H 47.7131 -3.7893 -2.63077 0
M  V30 465 H 45.9561 -3.60253 -2.41661 0
M  V30 466 H 46.6271 -3.75833 -4.04294 0
M  V30 467 H 49.1031 -1.85819 -3.72304 0
M  V30 468 H 47.9791 -2.04582 -5.0935 0
M  V30 469 H 48.2401 -0.454257 -4.3976 0
M  V30 470 N 47.2992 1.18797 -1.03562 0
M  V30 471 C 48.2622 2.20464 -0.626769 0
M  V30 472 C 49.2622 1.57721 0.313173 0
M  V30 473 O 50.4522 1.73917 0.0992615 0
M  V30 474 C 47.5842 3.40802 0.0818498 0
M  V30 475 H 48.7772 2.58149 -1.5264 0
M  V30 476 H 46.3302 1.32593 -0.827578 0
M  V30 477 H 47.0652 3.08642 0.995518 0
M  V30 478 H 46.8502 3.8758 -0.593652 0
M  V30 479 H 48.3402 4.16092 0.354584 0
M  V30 480 N 48.7773 0.814389 1.34928 0
M  V30 481 C 49.7073 0.244827 2.32213 0
M  V30 482 C 50.6883 -0.634024 1.57842 0
M  V30 483 O 51.8733 -0.562676 1.8587 0
M  V30 484 C 49.0033 -0.601106 3.42058 0
M  V30 485 C 47.9573 0.179896 4.27622 0
M  V30 486 C 47.2833 -0.788237 5.28858 0
M  V30 487 C 48.5833 1.38329 5.03649 0
M  V30 488 H 50.2773 1.05763 2.80097 0
M  V30 489 H 47.8233 0.510029 1.34665 0
M  V30 490 H 49.7763 -1.00968 4.09125 0
M  V30 491 H 48.5003 -1.44688 2.92802 0
M  V30 492 H 47.1593 0.569739 3.62146 0
M  V30 493 H 46.8073 -1.62973 4.75866 0
M  V30 494 H 46.5073 -0.269942 5.8698 0
M  V30 495 H 48.0313 -1.19485 5.98795 0
M  V30 496 H 49.4453 1.04918 5.63618 0
M  V30 497 H 47.8423 1.83662 5.71304 0
M  V30 498 H 48.9123 2.16592 4.33839 0
M  V30 499 N 50.2554 -1.46986 0.568584 0
M  V30 500 C 51.5014 -2.02741 0.0488709 0
M  V30 501 C 51.8344 -1.44077 -1.30214 0
M  V30 502 O 51.1094 -0.600552 -1.84996 0
M  V30 503 C 51.3924 -3.60086 -0.032047 0
M  V30 504 C 51.2454 -4.29162 1.34686 0
M  V30 505 C 52.5644 -4.33838 -0.739798 0
M  V30 506 H 49.6834 -0.736749 0.0192338 0
M  V30 507 H 52.3254 -1.75289 0.733065 0
M  V30 508 H 50.4754 -3.83606 -0.61473 0
M  V30 509 H 52.1474 -4.16948 1.97362 0
M  V30 510 H 50.3904 -3.89073 1.91846 0
M  V30 511 H 51.0614 -5.37826 1.24285 0
M  V30 512 H 53.5374 -4.15378 -0.244939 0
M  V30 513 H 52.4134 -5.43537 -0.765406 0
M  V30 514 H 52.6744 -4.03875 -1.79827 0
M  V30 515 N 51.7335 -0.305618 -1.54608 0
M  V30 516 C 53.0105 0.355652 -1.92339 0
M  V30 517 C 53.3905 1.71324 -1.23335 0
M  V30 518 O 52.7385 2.25473 -0.370702 0
M  V30 519 C 52.9485 0.46572 -3.45879 0
M  V30 520 C 54.2965 0.734426 -4.182 0
M  V30 521 O 55.3205 0.54935 -3.51938 0
M  V30 522 O 54.1795 1.09024 -5.35515 0
M  V30 523 H 51.2735 0.199666 -0.802535 0
M  V30 524 H 53.8195 -0.354017 -1.65966 0
M  V30 525 H 52.5915 -0.488461 -3.88239 0
M  V30 526 H 52.2145 1.22367 -3.78301 0
M  V30 527 N 53.2116 1.57565 -0.0334293 0
M  V30 528 C 54.4576 1.93088 0.639417 0
M  V30 529 C 54.8126 0.910589 1.69488 0
M  V30 530 O 54.1056 -0.0727725 1.91462 0
M  V30 531 C 54.2996 3.33112 1.29504 0
M  V30 532 C 54.1286 4.48667 0.304604 0
M  V30 533 C 52.8986 5.05207 -0.0970777 0
M  V30 534 C 55.0966 5.1239 -0.442845 0
M  V30 535 N 53.0786 6.04286 -1.08223 0
M  V30 536 C 54.4496 6.06609 -1.28161 0
M  V30 537 C 56.5046 4.95352 -0.50308 0
M  V30 538 C 55.2076 6.85622 -2.17519 0
M  V30 539 C 57.2336 5.74978 -1.38401 0
M  V30 540 C 56.5956 6.68816 -2.21054 0
M  V30 541 H 52.6946 0.754335 0.206161 0
M  V30 542 H 55.2786 1.94435 -0.101613 0
M  V30 543 H 53.4496 3.32576 2.00618 0
M  V30 544 H 55.1816 3.55972 1.92525 0
M  V30 545 H 51.9366 4.72782 0.278255 0
M  V30 546 H 52.3606 6.58516 -1.57117 0
M  V30 547 H 57.0026 4.22625 0.121694 0
M  V30 548 H 54.7206 7.57652 -2.81049 0
M  V30 549 H 58.3066 5.63826 -1.43496 0
M  V30 550 H 57.1866 7.29355 -2.88116 0
M  V30 551 N 54.6897 -0.239769 1.55765 0
M  V30 552 C 55.6377 -1.31668 1.91745 0
M  V30 553 C 56.6317 -1.49462 0.797338 0
M  V30 554 O 57.8377 -1.50852 0.982021 0
M  V30 555 H 54.2127 -0.441048 0.609082 0
M  V30 556 H 56.1837 -0.985923 2.81642 0
M  V30 557 C 54.9327 -2.66368 2.2348 0
M  V30 558 H 54.2557 -2.53478 3.09175 0
M  V30 559 H 55.6957 -3.40578 2.52553 0
M  V30 560 C 54.1547 -3.20002 1.05359 0
M  V30 561 O 54.6847 -4.00538 0.305261 0
M  V30 562 N 52.8907 -2.78126 0.842292 0
M  V30 563 H 52.4377 -2.12742 1.45253 0
M  V30 564 H 52.3957 -3.14354 0.053652 0
M  V30 565 N 56.1678 -1.49265 -0.50573 0
M  V30 566 C 57.0978 -1.68495 -1.61653 0
M  V30 567 C 58.0788 -0.53366 -1.61512 0
M  V30 568 O 59.2638 -0.76897 -1.78327 0
M  V30 569 C 56.3938 -1.74709 -3.00157 0
M  V30 570 C 55.3478 -2.89581 -3.15162 0
M  V30 571 C 54.6738 -2.80903 -4.5497 0
M  V30 572 C 55.9738 -4.30578 -2.95634 0
M  V30 573 H 57.6678 -2.61493 -1.45814 0
M  V30 574 H 55.2138 -1.25838 -0.70005 0
M  V30 575 H 57.1668 -1.86748 -3.77761 0
M  V30 576 H 55.8908 -0.783067 -3.17074 0
M  V30 577 H 54.5498 -2.77136 -2.39982 0
M  V30 578 H 54.1978 -1.82419 -4.68756 0
M  V30 579 H 53.8978 -3.57999 -4.65951 0
M  V30 580 H 55.4218 -2.94944 -5.34641 0
M  V30 581 H 56.8358 -4.4373 -3.63011 0
M  V30 582 H 55.2328 -5.0886 -3.18091 0
M  V30 583 H 56.3028 -4.45352 -1.91806 0
M  V30 584 N 57.6459 0.756429 -1.3826 0
M  V30 585 C 58.5559 1.9009 -1.37488 0
M  V30 586 C 59.5719 1.71855 -0.272366 0
M  V30 587 O 60.7479 1.94827 -0.510318 0
M  V30 588 C 57.8129 3.25421 -1.19592 0
M  V30 589 C 56.8739 3.56202 -2.39622 0
M  V30 590 C 56.1069 4.85075 -2.2257 0
M  V30 591 O 56.3299 5.57246 -1.21793 0
M  V30 592 O 55.2639 5.15269 -3.11098 0
M  V30 593 H 59.0899 1.93695 -2.33914 0
M  V30 594 H 56.6749 0.901313 -1.1915 0
M  V30 595 H 58.5569 4.06337 -1.11661 0
M  V30 596 H 57.2319 3.22634 -0.262486 0
M  V30 597 H 56.1389 2.75458 -2.53128 0
M  V30 598 H 57.4719 3.63747 -3.31586 0
M  V30 599 N 59.124 1.23083 0.984299 0
M  V30 600 C 60.087 1.00979 2.05757 0
M  V30 601 C 61.087 -0.0269573 1.60777 0
M  V30 602 O 62.277 0.212403 1.729 0
M  V30 603 C 59.409 0.527072 3.36801 0
M  V30 604 H 60.602 1.9622 2.26799 0
M  V30 605 H 58.155 1.05072 1.15714 0
M  V30 606 H 58.89 -0.429294 3.21446 0
M  V30 607 H 58.675 1.27515 3.70786 0
M  V30 608 H 60.165 0.392942 4.15747 0
M  V30 609 N 60.6021 -1.18246 1.0419 0
M  V30 610 C 61.8501 -1.87886 0.744543 0
M  V30 611 C 62.1711 -1.8082 -0.730006 0
M  V30 612 O 61.4411 -1.22736 -1.52685 0
M  V30 613 H 60.0211 -0.695556 0.272417 0
M  V30 614 H 62.6831 -1.43494 1.31892 0
M  V30 615 H 61.7791 -2.9389 1.05049 0
M  V30 616 N 62.0802 -0.821533 -1.34494 0
M  V30 617 C 63.3262 -0.409552 -1.98622 0
M  V30 618 C 63.6592 1.0244 -1.64984 0
M  V30 619 O 62.9342 1.71325 -0.920758 0
M  V30 620 C 63.2172 -0.610458 -3.54888 0
M  V30 621 C 63.0702 -2.09043 -3.98273 0
M  V30 622 C 64.3892 -0.0455379 -4.40076 0
M  V30 623 H 61.5082 -0.15028 -0.721516 0
M  V30 624 H 64.1502 -1.03384 -1.59411 0
M  V30 625 H 62.3002 -0.079044 -3.8842 0
M  V30 626 H 63.9722 -2.68537 -3.75081 0
M  V30 627 H 62.2152 -2.58139 -3.48635 0
M  V30 628 H 62.8862 -2.18182 -5.07051 0
M  V30 629 H 65.3622 -0.499557 -4.1309 0
M  V30 630 H 64.2382 -0.215922 -5.48475 0
M  V30 631 H 64.4992 1.04939 -4.29465 0
M  V30 632 N 63.5583 1.46682 -0.576371 0
M  V30 633 C 64.4903 2.28341 0.198231 0
M  V30 634 C 65.5033 1.38141 0.861453 0
M  V30 635 O 66.6923 1.62797 0.732082 0
M  V30 636 C 63.7923 3.12986 1.29972 0
M  V30 637 C 62.9653 4.31271 0.729639 0
M  V30 638 C 62.0243 4.97363 1.71803 0
M  V30 639 O 61.0503 5.55156 1.25658 0
M  V30 640 N 62.2523 4.93796 3.05198 0
M  V30 641 H 65.0173 2.9546 -0.502324 0
M  V30 642 H 62.5783 1.56525 -0.413715 0
M  V30 643 H 64.5703 3.54066 1.96008 0
M  V30 644 H 63.1403 2.47984 1.90323 0
M  V30 645 H 62.3603 3.94052 -0.108012 0
M  V30 646 H 63.6483 5.07739 0.328438 0
M  V30 647 H 63.0463 4.48077 3.45317 0
M  V30 648 H 61.6033 5.38837 3.6674 0
M  V30 649 N 65.0364 0.313813 1.54444 0
M  V30 650 C 66.2764 -0.292389 2.02298 0
M  V30 651 C 66.6404 -1.50105 1.19719 0
M  V30 652 O 67.8414 -2.17947 1.5733 0
M  V30 653 C 66.1124 -0.627682 3.51845 0
M  V30 654 S 67.6714 -1.21493 4.21646 0
M  V30 655 H 64.4894 -0.0890247 0.705405 0
M  V30 656 H 67.0914 0.444668 1.90376 0
M  V30 657 H 65.7954 0.260265 4.09574 0
M  V30 658 H 65.3264 -1.39519 3.67829 0
M  V30 659 H 67.3414 -2.5022 4.28491 0
M  V30 660 N 66.5145 -1.57545 0.0417849 0
M  V30 661 C 67.4615 -2.10977 -0.935805 0
M  V30 662 C 68.4315 -1.01486 -1.31491 0
M  V30 663 O 69.6165 -1.2898 -1.40602 0
M  V30 664 C 66.7565 -2.65169 -2.2086 0
M  V30 665 C 65.8695 -3.88714 -1.88482 0
M  V30 666 C 65.0045 -4.31254 -3.1015 0
M  V30 667 C 64.0435 -5.47524 -2.7365 0
M  V30 668 N 63.1805 -5.85162 -3.87982 0
M  V30 669 H 68.0205 -2.94218 -0.473249 0
M  V30 670 H 65.5575 -1.45415 -0.221981 0
M  V30 671 H 67.5155 -2.94685 -2.95325 0
M  V30 672 H 66.1455 -1.8474 -2.64709 0
M  V30 673 H 65.1975 -3.65849 -1.04205 0
M  V30 674 H 66.5095 -4.73245 -1.57608 0
M  V30 675 H 65.6635 -4.62273 -3.92923 0
M  V30 676 H 64.4025 -3.45516 -3.44195 0
M  V30 677 H 63.4075 -5.16187 -1.89291 0
M  V30 678 H 64.6325 -6.34971 -2.40807 0
M  V30 679 H 62.5785 -5.02377 -4.21846 0
M  V30 680 H 62.4955 -6.64362 -3.60775 0
M  V30 681 H 63.7635 -6.20791 -4.71422 0
M  V30 682 N 67.9926 0.231505 -1.5589 0
M  V30 683 C 68.9556 1.27028 -1.90779 0
M  V30 684 C 69.9556 1.40308 -0.785507 0
M  V30 685 O 71.1456 1.38744 -1.05336 0
M  V30 686 C 68.2776 2.64566 -2.14983 0
M  V30 687 H 69.4706 0.973017 -2.83677 0
M  V30 688 H 67.0236 0.471486 -1.49019 0
M  V30 689 H 67.7586 2.99406 -1.24604 0
M  V30 690 H 67.5436 2.56305 -2.96732 0
M  V30 691 H 69.0336 3.39543 -2.43105 0
M  V30 692 N 69.4707 1.49531 0.497807 0
M  V30 693 C 70.4337 1.65916 1.58128 0
M  V30 694 C 71.4337 0.530825 1.51786 0
M  V30 695 O 72.6237 0.797342 1.54881 0
M  V30 696 C 69.7557 1.65951 2.9778 0
M  V30 697 H 70.9487 2.62556 1.44929 0
M  V30 698 H 68.5017 1.38611 0.722275 0
M  V30 699 H 69.2367 0.709065 3.16453 0
M  V30 700 H 69.0217 2.47897 3.03792 0
M  V30 701 H 70.5117 1.80673 3.76493 0
M  V30 702 N 70.9488 -0.749086 1.3866 0
M  V30 703 C 71.8788 -1.8764 1.38973 0
M  V30 704 C 72.8598 -1.68178 0.255004 0
M  V30 705 O 74.0448 -1.88704 0.458754 0
M  V30 706 C 71.1748 -3.25222 1.21851 0
M  V30 707 C 70.1288 -3.59295 2.32575 0
M  V30 708 C 69.4548 -4.95663 2.00555 0
M  V30 709 C 70.7548 -3.63709 3.7485 0
M  V30 710 H 72.4488 -1.87635 2.3331 0
M  V30 711 H 69.9948 -0.901329 1.12303 0
M  V30 712 H 71.9478 -4.03746 1.20695 0
M  V30 713 H 70.6718 -3.25719 0.239775 0
M  V30 714 H 69.3308 -2.83093 2.32925 0
M  V30 715 H 68.9788 -4.92724 1.01154 0
M  V30 716 H 68.6788 -5.19429 2.74714 0
M  V30 717 H 70.2028 -5.7656 2.01024 0
M  V30 718 H 71.6168 -4.32338 3.76506 0
M  V30 719 H 70.0138 -3.98986 4.48252 0
M  V30 720 H 71.0838 -2.63834 4.06841 0
M  V30 721 N 72.4269 -1.23603 -0.977757 0
M  V30 722 C 73.7039 -0.977897 -1.69401 0
M  V30 723 C 74.0839 0.502738 -2.05026 0
M  V30 724 O 73.4319 1.47459 -1.74551 0
M  V30 725 C 73.6419 -1.89077 -2.93345 0
M  V30 726 C 74.9899 -2.15579 -3.65802 0
M  V30 727 O 76.0139 -1.86648 -3.03383 0
M  V30 728 O 74.8729 -2.64658 -4.78141 0
M  V30 729 H 71.9669 -0.369025 -0.740101 0
M  V30 730 H 74.5129 -1.34657 -1.03274 0
M  V30 731 H 73.2849 -2.89158 -2.63634 0
M  V30 732 H 72.9079 -1.52463 -3.67207 0
M  V30 733 N 73.905 1.17692 -1.04816 0
M  V30 734 C 74.815 2.25229 -0.65643 0
M  V30 735 C 75.831 1.71018 0.320761 0
M  V30 736 O 77.007 2.00649 0.173805 0
M  V30 737 C 74.072 3.46684 -0.0332629 0
M  V30 738 C 73.133 4.15997 -1.06042 0
M  V30 739 C 72.366 5.31654 -0.466893 0
M  V30 740 O 72.589 5.65777 0.724758 0
M  V30 741 O 71.523 5.89831 -1.1993 0
M  V30 742 H 75.349 2.61016 -1.55255 0
M  V30 743 H 72.934 1.24919 -0.81949 0
M  V30 744 H 74.816 4.20234 0.313256 0
M  V30 745 H 73.491 3.12703 0.836566 0
M  V30 746 H 72.398 3.44482 -1.45886 0
M  V30 747 H 73.731 4.53996 -1.90127 0
M  V30 748 N 75.3831 0.828654 1.34056 0
M  V30 749 C 76.3151 0.212052 2.28217 0
M  V30 750 C 77.3281 -0.601362 1.51286 0
M  V30 751 O 78.5171 -0.430104 1.73241 0
M  V30 752 C 75.6171 -0.72088 3.31144 0
M  V30 753 C 74.7901 0.0509587 4.3737 0
M  V30 754 C 73.8491 -0.803766 5.20025 0
M  V30 755 O 72.8751 -0.246667 5.68665 0
M  V30 756 N 74.0771 -2.1227 5.40298 0
M  V30 757 H 76.8421 1.02105 2.81771 0
M  V30 758 H 74.4031 0.686153 1.46641 0
M  V30 759 H 76.3951 -1.29742 3.8334 0
M  V30 760 H 74.9651 -1.43061 2.77943 0
M  V30 761 H 74.1851 0.808831 3.85813 0
M  V30 762 H 75.4731 0.582065 5.0546 0
M  V30 763 H 74.8711 -2.59898 5.02464 0
M  V30 764 H 73.4281 -2.64796 5.95589 0
M  V30 765 N 76.8612 -1.46375 0.584142 0
M  V30 766 C 78.1082 -2.02378 0.0702675 0
M  V30 767 C 78.4362 -1.45545 -1.29023 0
M  V30 768 O 77.6912 -0.610967 -1.85918 0
M  V30 769 C 77.9902 -3.57373 -0.0439342 0
M  V30 770 C 77.6562 -4.33252 1.24915 0
M  V30 771 C 76.3182 -4.53701 1.60341 0
M  V30 772 C 78.6702 -4.7681 2.1048 0
M  V30 773 C 75.9982 -5.1496 2.81128 0
M  V30 774 C 78.3502 -5.39404 3.30494 0
M  V30 775 C 77.0142 -5.5808 3.66201 0
M  V30 776 H 76.2842 -0.740554 0.0257127 0
M  V30 777 H 78.9312 -1.75727 0.761065 0
M  V30 778 H 77.2362 -3.83169 -0.817869 0
M  V30 779 H 78.9332 -3.98384 -0.457318 0
M  V30 780 H 75.5232 -4.17633 0.963364 0
M  V30 781 H 79.7072 -4.60766 1.84414 0
M  V30 782 H 74.9632 -5.27611 3.08928 0
M  V30 783 H 79.1372 -5.72114 3.97063 0
M  V30 784 H 76.7642 -6.05318 4.59885 0
M  V30 785 N 78.3393 -0.321999 -1.54275 0
M  V30 786 C 79.2493 0.553631 -2.27974 0
M  V30 787 C 80.2653 1.13054 -1.32268 0
M  V30 788 O 81.4413 1.15084 -1.6528 0
M  V30 789 C 78.5063 1.69927 -3.02201 0
M  V30 790 C 77.5673 1.15433 -4.1349 0
M  V30 791 C 76.8003 2.24537 -4.84168 0
M  V30 792 O 77.0233 3.44852 -4.5435 0
M  V30 793 O 75.9573 1.90044 -5.7111 0
M  V30 794 H 79.7833 -0.0448345 -3.03667 0
M  V30 795 H 77.3683 -0.0877418 -1.49142 0
M  V30 796 H 79.2503 2.3663 -3.48689 0
M  V30 797 H 77.9253 2.28395 -2.29385 0
M  V30 798 H 76.8323 0.452436 -3.71354 0
M  V30 799 H 78.1653 0.614805 -4.88345 0
M  V30 800 N 79.8174 1.5752 -0.0501392 0
M  V30 801 C 81.2284 1.80271 0.485705 0
M  V30 802 C 81.5794 0.96228 1.70981 0
M  V30 803 O 80.7044 0.178578 2.15662 0
M  V30 804 C 81.2994 3.26957 0.887938 0
M  V30 805 C 79.8584 3.5063 1.36877 0
M  V30 806 C 79.0054 2.75165 0.343468 0
M  V30 807 H 81.9564 1.56281 -0.276028 0
M  V30 808 H 81.9774 3.37821 1.75093 0
M  V30 809 H 81.4894 3.881 -0.0031809 0
M  V30 810 H 79.5904 2.94766 2.27911 0
M  V30 811 H 79.7034 4.59343 1.36164 0
M  V30 812 H 78.0674 2.4127 0.816128 0
M  V30 813 H 78.8504 3.39034 -0.539548 0
M  V30 814 N 81.2955 -0.223234 1.56011 0
M  V30 815 C 82.2275 -1.30006 1.88762 0
M  V30 816 C 83.2405 -1.43129 0.775746 0
M  V30 817 O 84.4295 -1.44057 1.05403 0
M  V30 818 C 81.5295 -2.67589 2.07965 0
M  V30 819 C 80.7025 -2.76434 3.38973 0
M  V30 820 C 79.7615 -3.95019 3.47629 0
M  V30 821 O 78.7875 -3.83436 4.20672 0
M  V30 822 N 79.9895 -5.09249 2.78649 0
M  V30 823 H 82.7545 -1.02238 2.81722 0
M  V30 824 H 80.3155 -0.413278 1.56536 0
M  V30 825 H 82.3075 -3.45297 2.11073 0
M  V30 826 H 80.8775 -2.87964 1.21638 0
M  V30 827 H 80.0975 -1.85216 3.47978 0
M  V30 828 H 81.3855 -2.79313 4.25278 0
M  V30 829 H 80.7835 -5.21556 2.19081 0
M  V30 830 H 79.3405 -5.85007 2.8742 0
M  V30 831 N 82.7736 -1.49793 -0.48987 0
M  V30 832 C 83.7206 -1.67281 -1.59014 0
M  V30 833 C 84.6906 -0.514177 -1.57941 0
M  V30 834 O 85.8756 -0.742533 -1.75759 0
M  V30 835 C 83.0156 -1.75569 -2.97102 0
M  V30 836 C 82.1286 -3.0281 -3.08107 0
M  V30 837 C 81.2636 -3.02008 -4.36995 0
M  V30 838 C 80.3026 -4.23782 -4.41673 0
M  V30 839 N 79.4396 -4.20826 -5.62005 0
M  V30 840 H 84.2796 -2.61224 -1.43409 0
M  V30 841 H 81.8166 -1.29508 -0.697565 0
M  V30 842 H 83.7746 -1.78354 -3.77155 0
M  V30 843 H 82.4046 -0.850827 -3.11385 0
M  V30 844 H 81.4566 -3.09584 -2.21047 0
M  V30 845 H 82.7686 -3.92801 -3.07423 0
M  V30 846 H 81.9226 -3.03418 -5.25378 0
M  V30 847 H 80.6616 -2.09815 -4.4026 0
M  V30 848 H 79.6666 -4.22604 -3.5169 0
M  V30 849 H 80.8916 -5.17181 -4.40115 0
M  V30 850 H 78.8376 -3.31476 -5.66091 0
M  V30 851 H 78.7546 -5.04564 -5.62984 0
M  V30 852 H 80.0226 -4.26355 -6.52565 0
M  V30 853 N 84.2517 0.741722 -1.39055 0
M  V30 854 C 85.4797 1.53098 -1.39171 0
M  V30 855 C 85.8947 1.88794 0.0155099 0
M  V30 856 O 85.2517 1.53626 0.985159 0
M  V30 857 C 85.3027 2.82274 -2.2584 0
M  V30 858 O 85.0237 2.48097 -3.61081 0
M  V30 859 C 86.5247 3.76343 -2.34266 0
M  V30 860 H 83.7447 0.473335 -0.4756 0
M  V30 861 H 86.2887 0.917045 -1.82785 0
M  V30 862 H 84.4437 3.40015 -1.85656 0
M  V30 863 H 84.8577 3.31029 -4.06842 0
M  V30 864 H 86.3317 4.63898 -2.9917 0
M  V30 865 H 86.8087 4.17619 -1.35982 0
M  V30 866 H 87.4147 3.24523 -2.74891 0
M  V30 867 N 85.7298 1.2412 0.971189 0
M  V30 868 C 86.6598 1.05508 2.08304 0
M  V30 869 C 87.6408 -0.0308864 1.70072 0
M  V30 870 O 88.8258 0.135521 1.93727 0
M  V30 871 C 85.9558 0.655365 3.4106 0
M  V30 872 C 84.9098 1.68971 3.93234 0
M  V30 873 C 84.2358 1.14516 5.22293 0
M  V30 874 C 85.5358 3.08487 4.21465 0
M  V30 875 H 87.2298 1.98507 2.24132 0
M  V30 876 H 84.7758 0.955821 1.07704 0
M  V30 877 H 86.7288 0.51217 4.18276 0
M  V30 878 H 85.4528 -0.31032 3.25122 0
M  V30 879 H 84.1118 1.82106 3.18171 0
M  V30 880 H 83.7598 0.170189 5.02712 0
M  V30 881 H 83.4598 1.83635 5.58168 0
M  V30 882 H 84.9838 1.01401 6.02121 0
M  V30 883 H 86.3978 2.98601 4.89398 0
M  V30 884 H 84.7948 3.74926 4.68562 0
M  V30 885 H 85.8648 3.56787 3.28376 0
M  V30 886 N 87.2079 -1.17134 1.05439 0
M  V30 887 C 88.4549 -1.87456 0.765942 0
M  V30 888 C 88.7829 -1.81189 -0.707153 0
M  V30 889 O 88.0379 -1.21633 -1.5331 0
M  V30 890 C 88.3369 -3.36833 1.19491 0
M  V30 891 C 88.0029 -3.63301 2.67063 0
M  V30 892 C 86.6649 -3.70234 3.07376 0
M  V30 893 C 89.0169 -3.74575 3.62413 0
M  V30 894 C 86.3449 -3.85933 4.41896 0
M  V30 895 C 88.6969 -3.91793 4.9667 0
M  V30 896 C 87.3609 -3.96966 5.36633 0
M  V30 897 H 86.6309 -0.685948 0.280278 0
M  V30 898 H 89.2779 -1.38556 1.32192 0
M  V30 899 H 87.5829 -3.87807 0.557969 0
M  V30 900 H 89.2799 -3.89611 0.948893 0
M  V30 901 H 85.8699 -3.58532 2.34846 0
M  V30 902 H 90.0539 -3.68537 3.32406 0
M  V30 903 H 85.3099 -3.88187 4.72357 0
M  V30 904 H 89.4839 -3.99458 5.70444 0
M  V30 905 H 87.1109 -4.08883 6.40874 0
M  V30 906 N 88.686 -0.835752 -1.33615 0
M  V30 907 C 89.935 -0.426289 -1.97144 0
M  V30 908 C 90.248 1.01912 -1.66953 0
M  V30 909 O 91.454 1.53311 -2.24072 0
M  V30 910 C 89.91 -0.711321 -3.52801 0
M  V30 911 C 89.518 -2.1712 -3.91871 0
M  V30 912 C 91.262 -0.368654 -4.22896 0
M  V30 913 C 89.169 -2.40044 -5.40493 0
M  V30 914 H 88.099 -0.15567 -0.737755 0
M  V30 915 H 90.75 -1.0239 -1.52278 0
M  V30 916 H 89.132 -0.0433766 -3.95976 0
M  V30 917 H 90.306 -2.87936 -3.59763 0
M  V30 918 H 88.621 -2.47654 -3.34749 0
M  V30 919 H 91.218 -0.517601 -5.32189 0
M  V30 920 H 91.561 0.688078 -4.10574 0
M  V30 921 H 92.094 -0.991702 -3.8524 0
M  V30 922 H 88.833 -3.44271 -5.57815 0
M  V30 923 H 88.353 -1.73785 -5.74072 0
M  V30 924 H 90.032 -2.23042 -6.0734 0
M  V30 925 N 90.1641 1.46063 -0.591896 0
M  V30 926 C 91.0961 2.28539 0.174001 0
M  V30 927 C 92.1091 1.39047 0.846753 0
M  V30 928 O 93.2981 1.63564 0.714774 0
M  V30 929 C 90.3981 3.14347 1.26645 0
M  V30 930 C 89.5711 4.32021 0.683856 0
M  V30 931 C 88.6301 4.99157 1.66518 0
M  V30 932 O 87.6561 5.56458 1.19763 0
M  V30 933 N 88.8581 4.97005 2.99943 0
M  V30 934 H 91.6231 2.94911 -0.533633 0
M  V30 935 H 89.1841 1.56077 -0.430294 0
M  V30 936 H 91.1761 3.56125 1.92242 0
M  V30 937 H 89.7461 2.49988 1.87682 0
M  V30 938 H 88.9661 3.93915 -0.1498 0
M  V30 939 H 90.2541 5.08059 0.274567 0
M  V30 940 H 89.6521 4.51714 3.40545 0
M  V30 941 H 88.2091 5.42696 3.61004 0
M  V30 942 N 91.6422 0.330177 1.54103 0
M  V30 943 C 92.8822 -0.270916 2.02597 0
M  V30 944 C 93.2462 -1.48826 1.21304 0
M  V30 945 O 94.4472 -2.16266 1.59633 0
M  V30 946 C 92.7182 -0.590328 3.52491 0
M  V30 947 S 94.2772 -1.17014 4.2291 0
M  V30 948 H 91.0952 -0.0815379 0.706309 0
M  V30 949 H 93.6972 0.464835 1.89893 0
M  V30 950 H 92.4012 0.303691 4.09275 0
M  V30 951 H 91.9322 -1.3561 3.69288 0
M  V30 952 H 93.9472 -2.45662 4.3112 0
M  V30 953 N 93.1203 -1.57491 0.0584922 0
M  V30 954 C 94.3973 -1.84346 -0.653918 0
M  V30 955 C 94.7773 -0.948355 -1.88599 0
M  V30 956 O 94.1253 -0.0112403 -2.28497 0
M  V30 957 C 94.3353 -3.34239 -1.00425 0
M  V30 958 C 95.6833 -4.01431 -1.38342 0
M  V30 959 O 96.7073 -3.38907 -1.09637 0
M  V30 960 O 95.5663 -5.11683 -1.91943 0
M  V30 961 H 92.6603 -0.761112 -0.323478 0
M  V30 962 H 95.2063 -1.6947 0.0884125 0
M  V30 963 H 93.9783 -3.91089 -0.128625 0
M  V30 964 H 93.6013 -3.54329 -1.80378 0
M  V30 965 N 94.5984 0.214957 -1.56127 0
M  V30 966 C 95.8444 0.939762 -1.79712 0
M  V30 967 C 96.1774 1.83723 -0.629247 0
M  V30 968 O 95.4524 1.90925 0.371197 0
M  V30 969 C 95.7354 1.77306 -3.13424 0
M  V30 970 C 95.5884 0.90164 -4.40671 0
M  V30 971 C 96.9074 2.74956 -3.43638 0
M  V30 972 H 94.0264 0.340214 -0.653776 0
M  V30 973 H 96.6684 0.20824 -1.88855 0
M  V30 974 H 94.8184 2.39673 -3.0576 0
M  V30 975 H 96.4904 0.294206 -4.60361 0
M  V30 976 H 94.7334 0.207368 -4.33304 0
M  V30 977 H 95.4044 1.51923 -5.30682 0
M  V30 978 H 97.8804 2.22724 -3.51473 0
M  V30 979 H 96.7564 3.30358 -4.38355 0
M  V30 980 H 97.0174 3.53023 -2.66134 0
M  V30 981 N 96.0765 1.50051 0.48192 0
M  V30 982 C 97.0395 1.67584 1.5636 0
M  V30 983 C 98.0395 0.546894 1.51214 0
M  V30 984 O 99.2295 0.813725 1.54026 0
M  V30 985 C 96.3615 1.691 2.96003 0
M  V30 986 H 97.5545 2.64078 1.42136 0
M  V30 987 H 95.1075 1.39369 0.707533 0
M  V30 988 H 95.8425 0.742589 3.15684 0
M  V30 989 H 95.6275 2.51105 3.01146 0
M  V30 990 H 97.1175 1.84656 3.74556 0
M  V30 991 N 97.5546 -0.734337 1.39446 0
M  V30 992 C 98.8316 -1.48579 1.27215 0
M  V30 993 C 99.2116 -2.1077 -0.117968 0
M  V30 994 O 98.5596 -1.98646 -1.12924 0
M  V30 995 C 98.7696 -2.53667 2.39696 0
M  V30 996 C 100.118 -3.20031 2.79044 0
M  V30 997 O 101.142 -2.6398 2.39151 0
M  V30 998 O 100.001 -4.21455 3.47905 0
M  V30 999 H 97.0946 -0.659816 0.49857 0
M  V30 1000 H 99.6406 -0.768106 1.51322 0
M  V30 1001 H 98.4126 -2.06096 3.32626 0
M  V30 1002 H 98.0356 -3.32994 2.17258 0
M  V30 1003 N 99.0327 -1.24633 -0.964593 0
M  V30 1004 C 99.9647 -0.999302 -2.06268 0
M  V30 1005 C 100.978 0.0323226 -1.62768 0
M  V30 1006 O 102.167 -0.205079 -1.77318 0
M  V30 1007 C 99.2667 -0.486816 -3.35385 0
M  V30 1008 C 98.4397 -1.5823 -4.07777 0
M  V30 1009 C 97.4987 -1.07191 -5.15166 0
M  V30 1010 O 96.5247 -1.76426 -5.41168 0
M  V30 1011 N 97.7267 0.0920373 -5.80427 0
M  V30 1012 H 100.492 -1.94477 -2.28033 0
M  V30 1013 H 98.0527 -1.15704 -1.13244 0
M  V30 1014 H 100.045 -0.130066 -4.04491 0
M  V30 1015 H 98.6147 0.364459 -3.10468 0
M  V30 1016 H 97.8347 -2.11109 -3.32906 0
M  V30 1017 H 99.1227 -2.31854 -4.52903 0
M  V30 1018 H 98.5207 0.670784 -5.61709 0
M  V30 1019 H 97.0777 0.389905 -6.50633 0
M  V30 1020 N 100.511 1.16574 -1.06058 0
M  V30 1021 C 101.443 2.2045 -0.627239 0
M  V30 1022 C 102.456 1.59752 0.313534 0
M  V30 1023 O 103.645 1.78192 0.104896 0
M  V30 1024 C 100.745 3.3875 0.100974 0
M  V30 1025 C 99.9178 4.29008 -0.852687 0
M  V30 1026 C 98.9768 5.25944 -0.164152 0
M  V30 1027 O 98.0028 5.63535 -0.801047 0
M  V30 1028 N 99.2048 5.70075 1.09518 0
M  V30 1029 H 101.97 2.58249 -1.52077 0
M  V30 1030 H 99.5308 1.3156 -0.943594 0
M  V30 1031 H 101.523 4.00638 0.57194 0
M  V30 1032 H 100.093 2.99476 0.89628 0
M  V30 1033 H 99.3128 3.64419 -1.50308 0
M  V30 1034 H 100.601 4.86195 -1.49972 0
M  V30 1035 H 99.9988 5.41624 1.6328 0
M  V30 1036 H 98.5558 6.34067 1.51006 0
M  V30 1037 N 101.989 0.842826 1.3317 0
M  V30 1038 C 102.921 0.236245 2.27979 0
M  V30 1039 C 103.934 -0.585282 1.51915 0
M  V30 1040 O 105.123 -0.411705 1.73687 0
M  V30 1041 C 102.223 -0.685717 3.3189 0
M  V30 1042 C 101.396 0.0973448 4.37292 0
M  V30 1043 C 100.455 -0.748565 5.20848 0
M  V30 1044 O 99.4809 -0.186339 5.68895 0
M  V30 1045 N 100.683 -2.06527 5.42519 0
M  V30 1046 H 103.448 1.05088 2.80672 0
M  V30 1047 H 101.009 0.701667 1.45905 0
M  V30 1048 H 103.001 -1.25669 3.84694 0
M  V30 1049 H 101.571 -1.40105 2.79445 0
M  V30 1050 H 100.791 0.849706 3.84933 0
M  V30 1051 H 102.079 0.635643 5.04814 0
M  V30 1052 H 101.477 -2.54554 5.05192 0
M  V30 1053 H 100.034 -2.58464 5.98364 0
M  V30 1054 N 103.467 -1.45747 0.599634 0
M  V30 1055 C 104.397 -2.33235 -0.111306 0
M  V30 1056 C 105.378 -1.46359 -0.866781 0
M  V30 1057 O 106.563 -1.75146 -0.838904 0
M  V30 1058 C 103.693 -3.28932 -1.11451 0
M  V30 1059 C 102.647 -4.25381 -0.472772 0
M  V30 1060 C 101.973 -5.1071 -1.58365 0
M  V30 1061 C 103.273 -5.18831 0.600948 0
M  V30 1062 H 104.967 -2.92927 0.61919 0
M  V30 1063 H 102.513 -1.40857 0.299215 0
M  V30 1064 H 104.466 -3.89002 -1.62036 0
M  V30 1065 H 103.19 -2.67381 -1.8755 0
M  V30 1066 H 101.849 -3.66598 0.0121472 0
M  V30 1067 H 101.497 -4.45533 -2.33473 0
M  V30 1068 H 101.197 -5.7604 -1.15982 0
M  V30 1069 H 102.721 -5.73647 -2.09194 0
M  V30 1070 H 104.135 -5.73019 0.179491 0
M  V30 1071 H 102.532 -5.92595 0.946076 0
M  V30 1072 H 103.602 -4.6174 1.48068 0
M  V30 1073 N 104.945 -0.338344 -1.53925 0
M  V30 1074 C 106.361 0.0137736 -1.59594 0
M  V30 1075 C 106.561 1.49186 -1.35447 0
M  V30 1076 O 105.617 2.24987 -1.14616 0
M  V30 1077 C 106.93 -0.41773 -2.97784 0
M  V30 1078 C 108.478 -0.369633 -3.1081 0
M  V30 1079 C 108.953 -0.776524 -4.51369 0
M  V30 1080 N 110.444 -0.730506 -4.57403 0
M  V30 1081 C 111.179 -1.01736 -5.64303 0
M  V30 1082 N 110.675 -1.3721 -6.79077 0
M  V30 1083 N 112.468 -0.941942 -5.54151 0
M  V30 1084 H 104.619 -1.3012 -1.67876 0
M  V30 1085 H 106.882 -0.530082 -0.78595 0
M  V30 1086 H 106.588 -1.44811 -3.20504 0
M  V30 1087 H 106.462 0.209729 -3.76616 0
M  V30 1088 H 108.849 0.651568 -2.87817 0
M  V30 1089 H 108.93 -1.03223 -2.34049 0
M  V30 1090 H 108.574 -1.79571 -4.75096 0
M  V30 1091 H 108.504 -0.0914649 -5.26521 0
M  V30 1092 H 110.995 -0.468783 -3.74981 0
M  V30 1093 H 111.308 -1.57597 -7.5656 0
M  V30 1094 H 109.653 -1.4105 -6.80536 0
M  V30 1095 H 112.844 -0.664184 -4.63364 0
M  V30 1096 H 113.017 -1.16884 -6.37371 0
M  V30 1097 N 106.423 1.57458 -0.0668435 0
M  V30 1098 C 107.7 1.8469 0.644132 0
M  V30 1099 C 108.08 0.958343 1.88093 0
M  V30 1100 O 107.428 0.0233579 2.28488 0
M  V30 1101 C 107.638 3.34767 0.986509 0
M  V30 1102 C 108.986 4.02159 1.36212 0
M  V30 1103 O 110.01 3.39484 1.07839 0
M  V30 1104 O 108.869 5.12694 1.89227 0
M  V30 1105 H 105.963 0.762816 0.319437 0
M  V30 1106 H 108.509 1.6942 -0.0973986 0
M  V30 1107 H 107.281 3.91151 0.107883 0
M  V30 1108 H 106.904 3.55281 1.78497 0
M  V30 1109 N 107.901 -0.206675 1.56239 0
M  V30 1110 C 109.129 -0.945345 1.8404 0
M  V30 1111 C 109.544 -1.77336 0.647885 0
M  V30 1112 O 108.901 -1.78425 -0.383511 0
M  V30 1113 C 108.952 -1.8509 3.10522 0
M  V30 1114 O 108.673 -1.05634 4.25174 0
M  V30 1115 C 110.174 -2.70222 3.51418 0
M  V30 1116 H 107.394 -0.276372 0.61144 0
M  V30 1117 H 109.938 -0.217417 2.03341 0
M  V30 1118 H 108.093 -2.53259 2.93153 0
M  V30 1119 H 108.507 -1.67238 4.97124 0
M  V30 1120 H 109.981 -3.29438 4.42916 0
M  V30 1121 H 110.458 -3.43358 2.73864 0
M  V30 1122 H 111.064 -2.07443 3.71278 0
M  V30 1123 N 109.379 -1.50304 -0.473955 0
M  V30 1124 C 110.626 -1.6115 -1.22625 0
M  V30 1125 C 110.954 -0.310517 -1.92005 0
M  V30 1126 O 110.209 0.703419 -1.82621 0
M  V30 1127 C 110.508 -2.73938 -2.29549 0
M  V30 1128 C 110.174 -4.14519 -1.7744 0
M  V30 1129 C 108.836 -4.5277 -1.62949 0
M  V30 1130 C 111.188 -5.02392 -1.3875 0
M  V30 1131 C 108.516 -5.76639 -1.08187 0
M  V30 1132 C 110.868 -6.26805 -0.854309 0
M  V30 1133 C 109.532 -6.63861 -0.696011 0
M  V30 1134 H 108.802 -0.589691 -0.448715 0
M  V30 1135 H 111.449 -1.84228 -0.522705 0
M  V30 1136 H 109.754 -2.44937 -3.05799 0
M  V30 1137 H 111.451 -2.79534 -2.87509 0
M  V30 1138 H 108.041 -3.8434 -1.89685 0
M  V30 1139 H 112.225 -4.73474 -1.4878 0
M  V30 1140 H 107.481 -6.04027 -0.946666 0
M  V30 1141 H 111.655 -6.94258 -0.545843 0
M  V30 1142 H 109.282 -7.59722 -0.26952 0
M  V30 1143 N 110.857 0.726932 -1.39834 0
M  V30 1144 C 112.273 1.03354 -1.21615 0
M  V30 1145 C 112.473 2.01327 -0.08338 0
M  V30 1146 O 111.529 2.46158 0.56238 0
M  V30 1147 C 112.842 1.58811 -2.55342 0
M  V30 1148 C 114.39 1.70851 -2.62257 0
M  V30 1149 C 114.865 2.29716 -3.96225 0
M  V30 1150 N 116.356 2.37116 -3.97907 0
M  V30 1151 C 117.091 2.83619 -4.98345 0
M  V30 1152 N 116.587 3.29958 -6.09179 0
M  V30 1153 N 118.38 2.82901 -4.8572 0
M  V30 1154 H 110.531 0.0773069 -2.12259 0
M  V30 1155 H 112.794 0.0969102 -0.943034 0
M  V30 1156 H 112.5 0.942855 -3.38826 0
M  V30 1157 H 112.374 2.57502 -2.75632 0
M  V30 1158 H 114.761 2.34497 -1.79152 0
M  V30 1159 H 114.842 0.707913 -2.45809 0
M  V30 1160 H 114.486 1.66696 -4.79765 0
M  V30 1161 H 114.416 3.30469 -4.09997 0
M  V30 1162 H 116.907 2.04374 -3.17868 0
M  V30 1163 H 117.22 3.63976 -6.8172 0
M  V30 1164 H 115.565 3.27946 -6.12761 0
M  V30 1165 H 118.756 2.46027 -3.98231 0
M  V30 1166 H 118.929 3.18827 -5.6414 0
M  V30 1167 N 112.336 1.25143 0.95797 0
M  V30 1168 C 113.283 1.05235 2.05412 0
M  V30 1169 C 114.253 -0.0374561 1.66058 0
M  V30 1170 O 115.438 0.119073 1.90428 0
M  V30 1171 C 112.578 0.673589 3.38462 0
M  V30 1172 C 111.691 1.8379 3.90954 0
M  V30 1173 C 110.826 1.40381 5.12315 0
M  V30 1174 C 109.865 2.53746 5.57027 0
M  V30 1175 N 109.002 2.11136 6.69601 0
M  V30 1176 H 113.842 1.99048 2.21774 0
M  V30 1177 H 111.379 0.991277 1.08683 0
M  V30 1178 H 113.337 0.434964 4.14926 0
M  V30 1179 H 111.967 -0.227554 3.21997 0
M  V30 1180 H 111.019 2.18992 3.11041 0
M  V30 1181 H 112.331 2.68937 4.20089 0
M  V30 1182 H 111.485 1.12464 5.96185 0
M  V30 1183 H 110.224 0.523015 4.84887 0
M  V30 1184 H 109.229 2.82412 4.71724 0
M  V30 1185 H 110.454 3.42398 5.86464 0
M  V30 1186 H 108.4 1.25468 6.4389 0
M  V30 1187 H 108.317 2.89832 6.98236 0
M  V30 1188 H 109.585 1.86385 7.56889 0
M  V30 1189 N 113.814 -1.1601 1.06675 0
M  V30 1190 C 115.06 -1.86909 0.786945 0
M  V30 1191 C 115.393 -1.81717 -0.685018 0
M  V30 1192 O 114.668 -1.23551 -1.50218 0
M  V30 1193 C 114.951 -3.36313 1.28707 0
M  V30 1194 C 114.804 -3.50175 2.82308 0
M  V30 1195 C 116.123 -4.3084 0.898071 0
M  V30 1196 H 113.242 -0.678677 0.287343 0
M  V30 1197 H 115.884 -1.36336 1.32334 0
M  V30 1198 H 114.034 -3.79513 0.830768 0
M  V30 1199 H 115.706 -3.15886 3.36175 0
M  V30 1200 H 113.949 -2.91959 3.20847 0
M  V30 1201 H 114.62 -4.55116 3.12368 0
M  V30 1202 H 117.096 -3.95561 1.29114 0
M  V30 1203 H 115.972 -5.33876 1.27543 0
M  V30 1204 H 116.233 -4.41662 -0.196651 0
M  V30 1205 N 115.292 -0.849877 -1.32721 0
M  V30 1206 C 116.538 -0.451591 -1.97708 0
M  V30 1207 C 116.871 0.989175 -1.6712 0
M  V30 1208 O 116.146 1.69334 -0.956891 0
M  V30 1209 C 116.429 -0.685598 -3.53513 0
M  V30 1210 C 116.282 -2.17444 -3.93749 0
M  V30 1211 C 117.601 -0.138874 -4.39881 0
M  V30 1212 H 114.72 -0.16555 -0.718166 0
M  V30 1213 H 117.362 -1.06742 -1.57182 0
M  V30 1214 H 115.512 -0.161416 -3.88165 0
M  V30 1215 H 117.184 -2.76433 -3.693 0
M  V30 1216 H 115.427 -2.65476 -3.43081 0
M  V30 1217 H 116.098 -2.28888 -5.02309 0
M  V30 1218 H 118.574 -0.587068 -4.11938 0
M  V30 1219 H 117.45 -0.332213 -5.47894 0
M  V30 1220 H 117.711 0.95806 -4.31594 0
M  V30 1221 N 116.77 1.45427 -0.607355 0
M  V30 1222 C 118.047 1.9557 -0.0344566 0
M  V30 1223 C 118.427 1.54979 1.43334 0
M  V30 1224 O 117.775 0.812241 2.13576 0
M  V30 1225 C 117.985 3.48226 -0.232321 0
M  V30 1226 C 119.333 4.2445 -0.113001 0
M  V30 1227 O 120.357 3.55829 -0.162431 0
M  V30 1228 O 119.216 5.465 0.00209442 0
M  V30 1229 H 116.31 0.826222 0.0358667 0
M  V30 1230 H 118.856 1.55594 -0.6774 0
M  V30 1231 H 117.628 3.70739 -1.25174 0
M  V30 1232 H 117.251 3.95092 0.445896 0
M  V30 1233 N 118.248 0.346503 1.53744 0
M  V30 1234 C 119.198 -0.524953 2.21874 0
M  V30 1235 C 120.182 -1.06376 1.20718 0
M  V30 1236 O 121.374 -0.996972 1.46251 0
M  V30 1237 C 118.503 -1.6739 2.99726 0
M  V30 1238 C 117.589 -1.14888 4.08242 0
M  V30 1239 N 117.98 -0.345329 5.0462 0
M  V30 1240 C 116.278 -1.4255 4.22606 0
M  V30 1241 C 116.979 -0.0600706 5.81669 0
M  V30 1242 N 115.955 -0.65252 5.39669 0
M  V30 1243 H 119.757 0.0960091 2.93743 0
M  V30 1244 H 117.271 0.15352 1.61673 0
M  V30 1245 H 119.268 -2.3102 3.47038 0
M  V30 1246 H 117.928 -2.29811 2.29384 0
M  V30 1247 H 118.939 0.0138439 5.17898 0
M  V30 1248 H 115.616 -2.05389 3.63486 0
M  V30 1249 H 117.006 0.588321 6.69319 0
M  V30 1250 N 119.726 -1.57421 0.075193 0
M  V30 1251 C 120.973 -1.93618 -0.593146 0
M  V30 1252 C 121.301 -0.955484 -1.69413 0
M  V30 1253 O 120.556 0.0283251 -1.9568 0
M  V30 1254 C 120.855 -3.36428 -1.20626 0
M  V30 1255 C 120.521 -4.50307 -0.231078 0
M  V30 1256 C 119.183 -4.81186 0.0371936 0
M  V30 1257 C 121.535 -5.19374 0.435888 0
M  V30 1258 C 118.863 -5.78466 0.979461 0
M  V30 1259 C 121.215 -6.17665 1.3665 0
M  V30 1260 C 119.879 -6.46958 1.6432 0
M  V30 1261 H 119.149 -0.708499 -0.217047 0
M  V30 1262 H 121.796 -1.90937 0.146793 0
M  V30 1263 H 120.101 -3.35592 -2.02201 0
M  V30 1264 H 121.798 -3.61727 -1.73073 0
M  V30 1265 H 118.388 -4.26227 -0.450357 0
M  V30 1266 H 122.572 -4.95711 0.241748 0
M  V30 1267 H 117.828 -5.99487 1.20106 0
M  V30 1268 H 122.002 -6.70284 1.88924 0
M  V30 1269 H 119.629 -7.2215 2.37494 0
M  V30 1270 N 121.204 0.198386 -1.56346 0
M  V30 1271 C 122.452 0.91747 -1.80075 0
M  V30 1272 C 122.773 1.83929 -0.647692 0
M  V30 1273 O 122.043 1.93029 0.334166 0
M  V30 1274 H 120.623 0.341774 -0.664228 0
M  V30 1275 H 123.285 0.204684 -1.93822 0
M  V30 1276 H 122.381 1.51055 -2.7311 0
M  V30 1277 N 122.682 1.50554 0.465978 0
M  V30 1278 C 124.098 1.38093 0.800154 0
M  V30 1279 C 124.298 0.440988 1.96615 0
M  V30 1280 O 123.354 -0.114499 2.5224 0
M  V30 1281 C 124.667 2.79565 1.10742 0
M  V30 1282 C 126.215 2.88516 1.21357 0
M  V30 1283 C 126.69 4.30833 1.55393 0
M  V30 1284 N 128.181 4.33807 1.62375 0
M  V30 1285 C 128.916 5.40927 1.90225 0
M  V30 1286 N 128.412 6.58247 2.16062 0
M  V30 1287 N 130.205 5.28376 1.9177 0
M  V30 1288 H 122.356 2.10237 -0.302366 0
M  V30 1289 H 124.619 0.945203 -0.0727746 0
M  V30 1290 H 124.325 3.50208 0.323661 0
M  V30 1291 H 124.199 3.17125 2.04234 0
M  V30 1292 H 126.586 2.1809 1.98799 0
M  V30 1293 H 126.667 2.54492 0.258321 0
M  V30 1294 H 126.311 5.01799 0.784889 0
M  V30 1295 H 126.241 4.62347 2.52076 0
M  V30 1296 H 128.732 3.49212 1.44427 0
M  V30 1297 H 129.045 7.3569 2.36601 0
M  V30 1298 H 127.39 6.61413 2.13444 0
M  V30 1299 H 130.581 4.35715 1.71085 0
M  V30 1300 H 130.754 6.11944 2.13139 0
M  V30 1301 N 124.16 -0.719506 1.40217 0
M  V30 1302 C 125.09 -1.8465 1.42922 0
M  V30 1303 C 126.071 -1.67599 0.29062 0
M  V30 1304 O 127.256 -1.87688 0.498677 0
M  V30 1305 C 124.386 -3.22565 1.28722 0
M  V30 1306 C 123.34 -3.54281 2.40144 0
M  V30 1307 C 122.666 -4.91298 2.11023 0
M  V30 1308 C 123.966 -3.55676 3.82481 0
M  V30 1309 H 125.66 -1.82644 2.37237 0
M  V30 1310 H 123.206 -0.877305 1.1419 0
M  V30 1311 H 125.159 -4.01095 1.29232 0
M  V30 1312 H 123.883 -3.25137 0.308811 0
M  V30 1313 H 122.542 -2.78088 2.38877 0
M  V30 1314 H 122.19 -4.90468 1.11582 0
M  V30 1315 H 121.89 -5.13485 2.8567 0
M  V30 1316 H 123.414 -5.72166 2.13209 0
M  V30 1317 H 124.828 -4.24254 3.85592 0
M  V30 1318 H 123.225 -3.89388 4.56614 0
M  V30 1319 H 124.295 -2.55144 4.12346 0
M  V30 1320 N 125.638 -1.25649 -0.95132 0
M  V30 1321 C 126.915 -1.01361 -1.67288 0
M  V30 1322 C 127.295 0.459135 -2.06046 0
M  V30 1323 O 126.643 1.43723 -1.7764 0
M  V30 1324 C 126.853 -1.95256 -2.89268 0
M  V30 1325 C 128.201 -2.23289 -3.61147 0
M  V30 1326 O 129.225 -1.93041 -2.99355 0
M  V30 1327 O 128.084 -2.74741 -4.72419 0
M  V30 1328 H 125.178 -0.38464 -0.732107 0
M  V30 1329 H 127.724 -1.36817 -1.00395 0
M  V30 1330 H 126.496 -2.94685 -2.57442 0
M  V30 1331 H 126.119 -1.60218 -3.6389 0
M  V30 1332 N 127.117 1.15442 -1.07289 0
M  V30 1333 C 128.366 1.85557 -0.790669 0
M  V30 1334 C 128.679 1.83186 0.685739 0
M  V30 1335 O 129.885 2.48977 1.0827 0
M  V30 1336 C 128.341 3.33038 -1.36433 0
M  V30 1337 C 127.949 3.43856 -2.8717 0
M  V30 1338 C 129.693 4.0834 -1.1601 0
M  V30 1339 C 127.6 4.85482 -3.3773 0
M  V30 1340 H 126.53 0.695122 -0.292098 0
M  V30 1341 H 129.181 1.30219 -1.29287 0
M  V30 1342 H 127.563 3.88043 -0.789864 0
M  V30 1343 H 128.737 2.98961 -3.50655 0
M  V30 1344 H 127.052 2.81998 -3.06376 0
M  V30 1345 H 129.649 5.12859 -1.51262 0
M  V30 1346 H 129.992 4.16182 -0.0991007 0
M  V30 1347 H 130.525 3.59603 -1.70089 0
M  V30 1348 H 127.264 4.82823 -4.43353 0
M  V30 1349 H 126.784 5.30961 -2.78999 0
M  V30 1350 H 128.463 5.54335 -3.33648 0
M  V30 1351 N 128.595 0.856903 1.32268 0
M  V30 1352 C 129.525 0.31858 2.31316 0
M  V30 1353 C 130.506 -0.583487 1.59779 0
M  V30 1354 O 131.691 -0.503259 1.87566 0
M  V30 1355 C 128.821 -0.491979 3.43798 0
M  V30 1356 C 127.775 0.315849 4.26833 0
M  V30 1357 C 127.101 -0.619586 5.31098 0
M  V30 1358 C 128.401 1.54282 4.98993 0
M  V30 1359 H 130.095 1.14621 2.76591 0
M  V30 1360 H 127.641 0.552613 1.32974 0
M  V30 1361 H 129.594 -0.879012 4.1213 0
M  V30 1362 H 128.318 -1.35299 2.97257 0
M  V30 1363 H 126.977 0.684664 3.6015 0
M  V30 1364 H 126.625 -1.47751 4.8081 0
M  V30 1365 H 126.325 -0.0830621 5.87541 0
M  V30 1366 H 127.849 -1.00375 6.02293 0
M  V30 1367 H 129.263 1.22796 5.59995 0
M  V30 1368 H 127.66 2.01745 5.65172 0
M  V30 1369 H 128.73 2.30285 4.26728 0
M  V30 1370 N 130.073 -1.45103 0.615059 0
M  V30 1371 C 131.319 -2.02483 0.113347 0
M  V30 1372 C 131.652 -1.48146 -1.25564 0
M  V30 1373 O 130.927 -0.659104 -1.82992 0
M  V30 1374 C 131.21 -3.60005 0.0825278 0
M  V30 1375 C 131.063 -4.2466 1.48271 0
M  V30 1376 C 132.382 -4.35972 -0.601401 0
M  V30 1377 H 129.501 -0.735764 0.0426632 0
M  V30 1378 H 132.143 -1.72868 0.788461 0
M  V30 1379 H 130.293 -3.85367 -0.492378 0
M  V30 1380 H 131.965 -4.10458 2.10527 0
M  V30 1381 H 130.208 -3.82772 2.04127 0
M  V30 1382 H 130.879 -5.336 1.41332 0
M  V30 1383 H 133.355 -4.15947 -0.112666 0
M  V30 1384 H 132.231 -5.45697 -0.592097 0
M  V30 1385 H 132.492 -4.09391 -1.66887 0
M  V30 1386 N 131.551 -0.354651 -1.53558 0
M  V30 1387 C 132.499 0.512195 -2.26891 0
M  V30 1388 C 133.493 1.09263 -1.29452 0
M  V30 1389 O 134.699 1.03709 -1.47121 0
M  V30 1390 H 131.074 0.183878 -0.729173 0
M  V30 1391 H 133.045 -0.128202 -2.98124 0
M  V30 1392 C 131.794 1.64563 -3.06291 0
M  V30 1393 H 131.117 1.20829 -3.81104 0
M  V30 1394 H 132.557 2.22711 -3.60799 0
M  V30 1395 C 131.016 2.58158 -2.16462 0
M  V30 1396 O 131.546 3.60695 -1.76811 0
M  V30 1397 N 129.752 2.27096 -1.81317 0
M  V30 1398 H 129.299 1.43751 -2.1376 0
M  V30 1399 H 129.257 2.89975 -1.21498 0
M  V30 1400 N 133.029 1.57378 -0.0835403 0
M  V30 1401 C 133.977 2.14602 0.89714 0
M  V30 1402 C 134.971 1.08589 1.30018 0
M  V30 1403 O 136.177 1.26952 1.27606 0
M  V30 1404 H 132.552 0.686346 0.3073 0
M  V30 1405 H 134.523 2.95845 0.38969 0
M  V30 1406 C 133.272 2.73188 2.15089 0
M  V30 1407 H 132.595 3.54442 1.84962 0
M  V30 1408 H 134.035 3.1681 2.81793 0
M  V30 1409 C 132.494 1.68517 2.91725 0
M  V30 1410 O 133.024 1.11718 3.85852 0
M  V30 1411 N 131.23 1.39277 2.55049 0
M  V30 1412 H 130.777 1.85655 1.78577 0
M  V30 1413 H 130.735 0.694791 3.06627 0
M  V30 1414 N 134.507 -0.190092 1.56449 0
M  V30 1415 C 135.47 -1.21925 1.9408 0
M  V30 1416 C 136.47 -1.38176 0.822431 0
M  V30 1417 O 137.66 -1.35903 1.08977 0
M  V30 1418 C 134.792 -2.58773 2.21922 0
M  V30 1419 H 135.985 -0.897464 2.86157 0
M  V30 1420 H 133.538 -0.43181 1.50217 0
M  V30 1421 H 134.273 -2.95998 1.32499 0
M  V30 1422 H 134.058 -2.48348 3.03424 0
M  V30 1423 H 135.548 -3.32978 2.52022 0
M  V30 1424 N 135.985 -1.50799 -0.457987 0
M  V30 1425 C 137.233 -1.62121 -1.2067 0
M  V30 1426 C 137.554 -0.329793 -1.92191 0
M  V30 1427 O 136.824 0.653409 -1.84682 0
M  V30 1428 H 135.404 -0.597441 -0.448411 0
M  V30 1429 H 138.066 -1.87637 -0.527096 0
M  V30 1430 H 137.162 -2.43882 -1.94751 0
M  V30 1431 N 137.463 0.71206 -1.40597 0
M  V30 1432 C 138.709 1.47416 -1.39271 0
M  V30 1433 C 139.042 1.942 0.00388791 0
M  V30 1434 O 138.317 1.68403 0.973179 0
M  V30 1435 C 138.6 2.69774 -2.38525 0
M  V30 1436 C 138.453 2.28861 -3.87224 0
M  V30 1437 C 139.772 3.71939 -2.35264 0
M  V30 1438 H 136.891 0.534713 -0.5072 0
M  V30 1439 H 139.533 0.812375 -1.71757 0
M  V30 1440 H 137.683 3.26238 -2.10953 0
M  V30 1441 H 139.355 1.77852 -4.25636 0
M  V30 1442 H 137.598 1.60824 -4.02887 0
M  V30 1443 H 138.269 3.16584 -4.52193 0
M  V30 1444 H 140.745 3.25113 -2.59694 0
M  V30 1445 H 139.621 4.55186 -3.06753 0
M  V30 1446 H 139.882 4.20484 -1.36549 0
M  V30 1447 N 138.941 1.26152 0.944643 0
M  V30 1448 C 139.889 1.07215 2.06417 0
M  V30 1449 C 140.883 9.2007e-05 1.694 0
M  V30 1450 O 142.089 0.1565 1.79318 0
M  V30 1451 H 138.464 0.329837 0.675805 0
M  V30 1452 H 140.435 2.02099 2.19541 0
M  V30 1453 C 139.184 0.718197 3.40202 0
M  V30 1454 H 138.507 1.53497 3.69159 0
M  V30 1455 H 139.947 0.625459 4.19361 0
M  V30 1456 C 138.406 -0.576435 3.31932 0
M  V30 1457 O 138.936 -1.61574 3.67773 0
M  V30 1458 N 137.142 -0.565781 2.85039 0
M  V30 1459 H 136.689 0.280367 2.5607 0
M  V30 1460 H 136.647 -1.43213 2.79888 0
M  V30 1461 N 140.419 -1.14872 1.07899 0
M  V30 1462 C 141.367 -2.21857 0.698727 0
M  V30 1463 C 142.361 -1.66845 -0.293086 0
M  V30 1464 O 143.567 -1.79321 -0.156204 0
M  V30 1465 H 139.942 -0.722691 0.207899 0
M  V30 1466 H 141.913 -2.51205 1.61054 0
M  V30 1467 C 140.662 -3.47498 0.11858 0
M  V30 1468 H 139.985 -3.90154 0.872914 0
M  V30 1469 H 141.425 -4.23858 -0.109759 0
M  V30 1470 C 139.884 -3.16947 -1.1422 0
M  V30 1471 O 140.414 -3.3426 -2.22785 0
M  V30 1472 N 138.62 -2.70946 -1.05055 0
M  V30 1473 H 138.167 -2.57058 -0.167038 0
M  V30 1474 H 138.125 -2.50879 -1.89491 0
M  V30 1475 N 141.898 -0.863906 -1.31812 0
M  V30 1476 C 142.808 -0.318461 -2.32428 0
M  V30 1477 C 143.824 0.568496 -1.64451 0
M  V30 1478 O 145 0.46666 -1.95919 0
M  V30 1479 C 142.065 0.476355 -3.43412 0
M  V30 1480 C 141.126 -0.43784 -4.27061 0
M  V30 1481 C 140.359 0.319138 -5.32745 0
M  V30 1482 O 140.582 1.54799 -5.48993 0
M  V30 1483 O 139.516 -0.319861 -6.01049 0
M  V30 1484 H 143.342 -1.15229 -2.80991 0
M  V30 1485 H 140.927 -0.627103 -1.35602 0
M  V30 1486 H 142.809 0.927156 -4.11074 0
M  V30 1487 H 141.484 1.28683 -2.97022 0
M  V30 1488 H 140.391 -0.937013 -3.62175 0
M  V30 1489 H 141.724 -1.21375 -4.77 0
M  V30 1490 N 143.376 1.44774 -0.622745 0
M  V30 1491 C 144.323 2.30635 0.0871679 0
M  V30 1492 C 145.293 1.42994 0.845097 0
M  V30 1493 O 146.478 1.71907 0.827812 0
M  V30 1494 C 143.618 3.28144 1.06844 0
M  V30 1495 C 142.731 4.30888 0.309809 0
M  V30 1496 C 141.866 5.15494 1.28215 0
M  V30 1497 C 140.905 6.09953 0.512198 0
M  V30 1498 N 140.042 6.87287 1.43458 0
M  V30 1499 H 144.882 2.90803 -0.650974 0
M  V30 1500 H 142.419 1.43286 -0.33281 0
M  V30 1501 H 144.377 3.83157 1.65066 0
M  V30 1502 H 143.007 2.69695 1.77382 0
M  V30 1503 H 142.059 3.78414 -0.388181 0
M  V30 1504 H 143.371 4.97955 -0.290254 0
M  V30 1505 H 142.525 5.74983 1.93596 0
M  V30 1506 H 141.264 4.48481 1.91614 0
M  V30 1507 H 140.269 5.49581 -0.155151 0
M  V30 1508 H 141.494 6.78999 -0.116958 0
M  V30 1509 H 139.44 6.2295 2.05594 0
M  V30 1510 H 139.357 7.50763 0.888335 0
M  V30 1511 H 140.625 7.51306 2.07749 0
M  V30 1512 N 144.854 0.36279 1.53368 0
M  V30 1513 C 145.802 -0.500155 2.27159 0
M  V30 1514 C 146.796 -1.08575 1.3003 0
M  V30 1515 O 148.002 -1.02927 1.47668 0
M  V30 1516 H 144.377 -0.180009 0.730138 0
M  V30 1517 H 146.348 0.14401 2.98052 0
M  V30 1518 C 145.097 -1.62937 3.07159 0
M  V30 1519 H 144.42 -1.18806 3.8174 0
M  V30 1520 H 145.86 -2.20795 3.61975 0
M  V30 1521 C 144.319 -2.57007 2.17829 0
M  V30 1522 O 144.849 -3.59752 1.78721 0
M  V30 1523 N 143.055 -2.26131 1.82518 0
M  V30 1524 H 142.602 -1.42616 2.14519 0
M  V30 1525 H 142.56 -2.89327 1.23034 0
M  V30 1526 N 146.332 -1.57332 0.0918853 0
M  V30 1527 C 147.578 -1.95328 -0.567313 0
M  V30 1528 C 147.933 -0.972866 -1.65991 0
M  V30 1529 O 147.226 0.00166256 -1.916 0
M  V30 1530 C 147.42 -3.37689 -1.17051 0
M  V30 1531 C 147.249 -4.49489 -0.137875 0
M  V30 1532 C 146.019 -5.04498 0.284515 0
M  V30 1533 C 148.217 -5.10393 0.63271 0
M  V30 1534 N 146.199 -5.99853 1.30576 0
M  V30 1535 C 147.57 -6.01435 1.50587 0
M  V30 1536 C 149.625 -4.93143 0.68658 0
M  V30 1537 C 148.328 -6.77077 2.42815 0
M  V30 1538 C 150.354 -5.69445 1.59645 0
M  V30 1539 C 149.716 -6.60151 2.45725 0
M  V30 1540 H 145.815 -0.761467 -0.178023 0
M  V30 1541 H 148.399 -1.93924 0.173706 0
M  V30 1542 H 146.57 -3.39793 -1.88136 0
M  V30 1543 H 148.302 -3.62872 -1.79181 0
M  V30 1544 H 145.057 -4.73489 -0.102593 0
M  V30 1545 H 145.481 -6.52231 1.81449 0
M  V30 1546 H 150.123 -4.22785 0.035244 0
M  V30 1547 H 147.841 -7.46699 3.08975 0
M  V30 1548 H 151.427 -5.58112 1.64323 0
M  V30 1549 H 150.307 -7.18159 3.14987 0
M  V30 1550 N 147.81 0.181792 -1.56548 0
M  V30 1551 C 148.72 1.24538 -1.98815 0
M  V30 1552 C 149.736 1.49045 -0.897861 0
M  V30 1553 O 150.912 1.61399 -1.20467 0
M  V30 1554 C 147.977 2.56683 -2.33055 0
M  V30 1555 C 147.038 2.40131 -3.55859 0
M  V30 1556 C 146.271 3.65975 -3.88456 0
M  V30 1557 O 146.494 4.70711 -3.22161 0
M  V30 1558 O 145.428 3.6071 -4.81842 0
M  V30 1559 H 149.254 0.916647 -2.89536 0
M  V30 1560 H 146.839 0.387842 -1.44278 0
M  V30 1561 H 148.721 3.34655 -2.56094 0
M  V30 1562 H 147.396 2.89157 -1.45498 0
M  V30 1563 H 146.303 1.60226 -3.38051 0
M  V30 1564 H 147.636 2.12585 -4.43924 0
M  V30 1565 N 149.288 1.51039 0.449983 0
M  V30 1566 C 150.235 1.71439 1.54523 0
M  V30 1567 C 151.205 0.555871 1.56522 0
M  V30 1568 O 152.39 0.788871 1.73728 0
M  V30 1569 C 149.53 1.83384 2.92343 0
M  V30 1570 C 148.643 3.10873 2.9997 0
M  V30 1571 C 147.778 3.13488 4.28834 0
M  V30 1572 C 146.817 4.35343 4.30282 0
M  V30 1573 N 145.954 4.35579 5.5065 0
M  V30 1574 H 150.794 2.64934 1.36433 0
M  V30 1575 H 148.331 1.31312 0.662982 0
M  V30 1576 H 150.289 1.88291 3.72293 0
M  V30 1577 H 148.919 0.933086 3.0902 0
M  V30 1578 H 147.971 3.15336 2.12761 0
M  V30 1579 H 149.283 4.00814 2.96901 0
M  V30 1580 H 148.437 3.17241 5.17149 0
M  V30 1581 H 147.176 2.21414 4.34543 0
M  V30 1582 H 146.181 4.3178 3.40362 0
M  V30 1583 H 147.406 5.28668 4.26248 0
M  V30 1584 H 145.352 3.46369 5.57104 0
M  V30 1585 H 145.269 5.19313 5.49409 0
M  V30 1586 H 146.537 4.43507 6.41032 0
M  V30 1587 N 150.766 -0.704594 1.40972 0
M  V30 1588 C 151.994 -1.49354 1.43182 0
M  V30 1589 C 152.409 -1.88768 0.0345508 0
M  V30 1590 O 151.766 -1.56184 -0.944081 0
M  V30 1591 C 151.817 -2.76187 2.33244 0
M  V30 1592 O 151.538 -2.38436 3.67532 0
M  V30 1593 C 153.039 -3.7 2.44162 0
M  V30 1594 H 150.259 -0.460559 0.487982 0
M  V30 1595 H 152.803 -0.868261 1.85153 0
M  V30 1596 H 150.958 -3.34974 1.94606 0
M  V30 1597 H 151.372 -3.20126 4.15475 0
M  V30 1598 H 152.846 -4.55803 3.11364 0
M  V30 1599 H 153.323 -4.13867 1.47006 0
M  V30 1600 H 153.929 -3.17121 2.83398 0
M  V30 1601 N 152.244 -1.26651 -0.937939 0
M  V30 1602 C 153.174 -1.10993 -2.05433 0
M  V30 1603 C 154.155 -0.0142161 -1.70094 0
M  V30 1604 O 155.34 -0.186837 -1.93299 0
M  V30 1605 C 152.47 -0.745561 -3.39203 0
M  V30 1606 C 151.424 -1.79337 -3.88616 0
M  V30 1607 C 150.75 -1.28324 -5.19073 0
M  V30 1608 C 152.05 -3.19553 -4.13138 0
M  V30 1609 H 153.744 -2.0438 -2.1879 0
M  V30 1610 H 151.29 -0.984041 -1.05131 0
M  V30 1611 H 153.243 -0.622888 -4.16771 0
M  V30 1612 H 151.967 0.22401 -3.25831 0
M  V30 1613 H 150.626 -1.90477 -3.13231 0
M  V30 1614 H 150.274 -0.303414 -5.02084 0
M  V30 1615 H 149.974 -1.98369 -5.53103 0
M  V30 1616 H 151.498 -1.1733 -5.99221 0
M  V30 1617 H 152.912 -3.11471 -4.81309 0
M  V30 1618 H 151.309 -3.87218 -4.58457 0
M  V30 1619 H 152.379 -3.65368 -3.18801 0
M  V30 1620 N 153.722 1.14298 -1.08507 0
M  V30 1621 C 154.654 2.1907 -0.673859 0
M  V30 1622 C 155.667 1.60381 0.279577 0
M  V30 1623 O 156.856 1.78374 0.0670754 0
M  V30 1624 C 153.956 3.38888 0.0290979 0
M  V30 1625 C 153.129 4.27103 -0.943494 0
M  V30 1626 C 152.188 5.25477 -0.275676 0
M  V30 1627 O 151.214 5.61709 -0.920401 0
M  V30 1628 N 152.416 5.7227 0.974013 0
M  V30 1629 H 155.181 2.54965 -1.57521 0
M  V30 1630 H 152.742 1.29528 -0.971287 0
M  V30 1631 H 154.734 4.01761 0.48683 0
M  V30 1632 H 153.304 3.01309 0.832555 0
M  V30 1633 H 152.524 3.61149 -1.58004 0
M  V30 1634 H 153.812 4.82905 -1.60251 0
M  V30 1635 H 153.21 5.44965 1.51755 0
M  V30 1636 H 151.767 6.37127 1.37522 0
M  V30 1637 N 155.201 0.870884 1.31352 0
M  V30 1638 C 156.45 0.478408 1.95944 0
M  V30 1639 C 156.763 -0.974493 1.69597 0
M  V30 1640 O 157.969 -1.47316 2.28058 0
M  V30 1641 C 156.425 0.804609 3.50791 0
M  V30 1642 C 156.033 2.27433 3.85977 0
M  V30 1643 C 157.777 0.480648 4.2177 0
M  V30 1644 C 155.684 2.5429 5.33939 0
M  V30 1645 H 154.614 0.175175 0.733369 0
M  V30 1646 H 157.265 1.06391 1.4951 0
M  V30 1647 H 155.647 0.148347 3.95722 0
M  V30 1648 H 156.821 2.97373 3.52002 0
M  V30 1649 H 155.136 2.56442 3.28065 0
M  V30 1650 H 157.733 0.658519 5.30629 0
M  V30 1651 H 158.076 -0.578979 4.12254 0
M  V30 1652 H 158.609 1.09349 3.82476 0
M  V30 1653 H 155.348 3.58939 5.48491 0
M  V30 1654 H 154.868 1.88945 5.69263 0
M  V30 1655 H 156.547 2.39066 6.01212 0
M  V30 1656 N 156.679 -1.44442 0.630414 0
M  V30 1657 C 157.627 -2.32437 -0.0871428 0
M  V30 1658 C 158.621 -1.47304 -0.836525 0
M  V30 1659 O 159.827 -1.63653 -0.749506 0
M  V30 1660 H 156.202 -0.750533 -0.0469495 0
M  V30 1661 H 158.173 -2.90709 0.673096 0
M  V30 1662 C 156.922 -3.31288 -1.05563 0
M  V30 1663 H 156.245 -3.96805 -0.488426 0
M  V30 1664 H 157.685 -3.9554 -1.52721 0
M  V30 1665 C 156.144 -2.6016 -2.14052 0
M  V30 1666 O 156.674 -2.39997 -3.22124 0
M  V30 1667 N 154.88 -2.19911 -1.89967 0
M  V30 1668 H 154.427 -2.36509 -1.02085 0
M  V30 1669 H 154.385 -1.72646 -2.62756 0
M  V30 1670 N 158.157 -0.370918 -1.53173 0
M  V30 1671 C 159.087 0.464847 -2.28826 0
M  V30 1672 C 160.068 1.07936 -1.31468 0
M  V30 1673 O 161.253 1.0956 -1.60344 0
M  V30 1674 C 158.383 1.60196 -3.08147 0
M  V30 1675 C 157.337 1.11443 -4.13237 0
M  V30 1676 C 156.663 2.3422 -4.80672 0
M  V30 1677 C 157.963 0.195384 -5.21934 0
M  V30 1678 H 159.657 -0.166329 -2.98938 0
M  V30 1679 H 157.203 -0.0814359 -1.4377 0
M  V30 1680 H 159.156 2.19332 -3.59822 0
M  V30 1681 H 157.88 2.26045 -2.35735 0
M  V30 1682 H 156.539 0.545727 -3.62515 0
M  V30 1683 H 156.187 2.98537 -4.04827 0
M  V30 1684 H 155.887 2.02269 -5.51689 0
M  V30 1685 H 157.411 2.94032 -5.35143 0
M  V30 1686 H 158.825 0.694375 -5.69079 0
M  V30 1687 H 157.222 -0.0335027 -6.00091 0
M  V30 1688 H 158.292 -0.760961 -4.78892 0
M  V30 1689 N 159.635 1.57281 -0.100228 0
M  V30 1690 C 160.881 1.94826 0.563101 0
M  V30 1691 C 161.214 0.982475 1.67514 0
M  V30 1692 O 160.489 0.0164069 1.94493 0
M  V30 1693 C 160.772 3.42453 1.11346 0
M  V30 1694 C 160.625 4.498 0.00612081 0
M  V30 1695 C 161.944 3.91506 2.01024 0
M  V30 1696 H 159.063 0.708428 0.203221 0
M  V30 1697 H 161.705 1.8922 -0.171979 0
M  V30 1698 H 159.855 3.47361 1.7399 0
M  V30 1699 H 161.527 4.57 -0.628357 0
M  V30 1700 H 159.77 4.28756 -0.659581 0
M  V30 1701 H 160.441 5.50306 0.432109 0
M  V30 1702 H 162.917 3.88784 1.48278 0
M  V30 1703 H 161.793 4.95358 2.36457 0
M  V30 1704 H 162.054 3.31099 2.92961 0
M  V30 1705 N 161.113 -0.173488 1.56642 0
M  V30 1706 C 162.338 -0.910149 1.86363 0
M  V30 1707 C 162.763 -1.75132 0.686318 0
M  V30 1708 O 162.121 -1.77595 -0.364643 0
M  V30 1709 C 162.169 -1.76447 3.14482 0
M  V30 1710 O 161.273 -2.86584 2.96553 0
M  V30 1711 H 160.614 -0.255086 0.613047 0
M  V30 1712 H 163.144 -0.172283 2.03873 0
M  V30 1713 H 163.154 -2.16483 3.45831 0
M  V30 1714 H 161.829 -1.14658 3.99783 0
M  V30 1715 H 160.406 -2.50146 2.76553 0
M  V30 1716 N 162.591 -1.51276 -0.441967 0
M  V30 1717 C 163.837 -1.63958 -1.19355 0
M  V30 1718 C 164.17 -0.352543 -1.90973 0
M  V30 1719 O 163.445 0.647627 -1.83401 0
M  V30 1720 C 163.728 -2.83979 -2.21422 0
M  V30 1721 C 163.581 -4.22646 -1.53918 0
M  V30 1722 C 164.9 -2.99521 -3.22451 0
M  V30 1723 H 162.019 -0.596709 -0.432559 0
M  V30 1724 H 164.661 -1.83748 -0.483398 0
M  V30 1725 H 162.811 -2.67237 -2.81987 0
M  V30 1726 H 164.483 -4.51045 -0.967256 0
M  V30 1727 H 162.726 -4.25558 -0.841615 0
M  V30 1728 H 163.397 -5.02609 -2.28229 0
M  V30 1729 H 165.873 -3.14944 -2.71937 0
M  V30 1730 H 164.749 -3.85072 -3.91166 0
M  V30 1731 H 165.01 -2.11391 -3.88287 0
M  V30 1732 N 164.069 0.697108 -1.41344 0
M  V30 1733 C 165.318 1.45279 -1.39918 0
M  V30 1734 C 165.631 1.95597 -0.0109624 0
M  V30 1735 O 166.837 2.71208 0.125919 0
M  V30 1736 C 165.293 2.62695 -2.46007 0
M  V30 1737 C 164.901 2.19169 -3.90729 0
M  V30 1738 C 166.645 3.40336 -2.53715 0
M  V30 1739 C 164.552 3.33535 -4.88373 0
M  V30 1740 H 163.482 0.545692 -0.520323 0
M  V30 1741 H 166.133 0.756929 -1.67161 0
M  V30 1742 H 164.515 3.34541 -2.11892 0
M  V30 1743 H 165.689 1.54623 -4.34083 0
M  V30 1744 H 164.004 1.54525 -3.86666 0
M  V30 1745 H 166.601 4.2547 -3.2385 0
M  V30 1746 H 166.944 3.85418 -1.5735 0
M  V30 1747 H 167.477 2.75546 -2.86913 0
M  V30 1748 H 164.216 2.93468 -5.86137 0
M  V30 1749 H 163.736 3.96936 -4.49668 0
M  V30 1750 H 165.415 3.99335 -5.09059 0
M  V30 1751 N 165.547 1.27147 0.931209 0
M  V30 1752 C 166.772 1.16191 1.71797 0
M  V30 1753 C 167.197 -0.278004 1.86034 0
M  V30 1754 O 166.555 -1.20137 1.35782 0
M  V30 1755 C 166.603 1.84673 3.09723 0
M  V30 1756 O 165.707 1.14231 3.96264 0
M  V30 1757 H 165.048 0.404303 0.526721 0
M  V30 1758 H 167.578 1.68152 1.1656 0
M  V30 1759 H 167.588 1.91893 3.60057 0
M  V30 1760 H 166.263 2.89421 2.98677 0
M  V30 1761 H 164.84 1.15056 3.54706 0
M  V30 1762 N 167.025 -1.13721 1.09112 0
M  V30 1763 C 168.273 -1.84559 0.823562 0
M  V30 1764 C 168.594 -1.83754 -0.652658 0
M  V30 1765 O 167.864 -1.29102 -1.47342 0
M  V30 1766 H 166.444 -0.683376 0.301673 0
M  V30 1767 H 169.106 -1.37771 1.37859 0
M  V30 1768 H 168.202 -2.8917 1.17419 0
M  V30 1769 N 168.503 -0.877838 -1.30888 0
M  V30 1770 C 169.731 -0.507414 -2.00581 0
M  V30 1771 C 170.146 0.902216 -1.65848 0
M  V30 1772 O 169.503 1.59225 -0.891831 0
M  V30 1773 C 169.554 -0.664162 -3.55347 0
M  V30 1774 O 169.275 -2.01829 -3.8884 0
M  V30 1775 C 170.776 -0.295787 -4.42312 0
M  V30 1776 H 167.996 -0.196866 -0.641471 0
M  V30 1777 H 170.54 -1.18117 -1.66939 0
M  V30 1778 H 168.695 -0.0378619 -3.87381 0
M  V30 1779 H 169.109 -2.03174 -4.8355 0
M  V30 1780 H 170.583 -0.456388 -5.5011 0
M  V30 1781 H 171.06 0.765663 -4.32475 0
M  V30 1782 H 171.666 -0.898113 -4.15709 0
M  V30 1783 N 169.982 1.44106 -0.638065 0
M  V30 1784 C 171.212 2.06037 -0.152394 0
M  V30 1785 C 171.62 1.47808 1.18108 0
M  V30 1786 O 170.963 0.598092 1.73691 0
M  V30 1787 C 171.025 3.59488 0.0293714 0
M  V30 1788 C 170.689 4.4022 -1.22702 0
M  V30 1789 C 171.686 4.73256 -2.15232 0
M  V30 1790 C 169.371 4.8048 -1.46437 0
M  V30 1791 C 171.365 5.45444 -3.29802 0
M  V30 1792 C 169.052 5.52417 -2.61303 0
M  V30 1793 C 170.05 5.84819 -3.52811 0
M  V30 1794 O 169.738 6.55289 -4.65673 0
M  V30 1795 H 169.47 0.671233 -0.0801401 0
M  V30 1796 H 172.024 1.85851 -0.874563 0
M  V30 1797 H 170.254 3.78191 0.806758 0
M  V30 1798 H 171.943 4.03164 0.470475 0
M  V30 1799 H 172.709 4.42684 -1.98131 0
M  V30 1800 H 168.588 4.54676 -0.760977 0
M  V30 1801 H 172.132 5.70653 -4.01249 0
M  V30 1802 H 168.029 5.82404 -2.78344 0
M  V30 1803 H 168.797 6.73762 -4.64744 0
M  V30 1804 N 171.46 0.379036 1.52974 0
M  V30 1805 C 172.39 -0.452706 2.29069 0
M  V30 1806 C 173.371 -1.07237 1.32039 0
M  V30 1807 O 174.556 -1.08708 1.60923 0
M  V30 1808 C 171.686 -1.5856 3.08992 0
M  V30 1809 C 170.64 -1.0925 4.13822 0
M  V30 1810 C 169.966 -2.31668 4.81907 0
M  V30 1811 C 171.266 -0.167702 5.22031 0
M  V30 1812 H 172.96 0.182181 2.98845 0
M  V30 1813 H 170.506 0.0890592 1.43724 0
M  V30 1814 H 172.459 -2.1742 3.6098 0
M  V30 1815 H 171.183 -2.24792 2.36931 0
M  V30 1816 H 169.842 -0.526494 3.628 0
M  V30 1817 H 169.49 -2.96386 4.06404 0
M  V30 1818 H 169.19 -1.9934 5.52754 0
M  V30 1819 H 170.714 -2.91189 5.36695 0
M  V30 1820 H 172.128 -0.664186 5.6944 0
M  V30 1821 H 170.525 0.0653265 6.00064 0
M  V30 1822 H 171.595 0.786347 4.78482 0
M  V30 1823 N 172.938 -1.57226 0.108567 0
M  V30 1824 C 174.186 -1.94448 -0.550853 0
M  V30 1825 C 174.507 -0.992074 -1.67878 0
M  V30 1826 O 173.777 -0.0465 -1.95845 0
M  V30 1827 H 172.357 -0.717897 -0.206479 0
M  V30 1828 H 175.019 -1.94112 0.175062 0
M  V30 1829 H 174.115 -2.97218 -0.952259 0
M  V30 1830 N 174.416 0.165178 -1.56732 0
M  V30 1831 C 175.346 1.20651 -1.99914 0
M  V30 1832 C 176.327 1.45827 -0.875705 0
M  V30 1833 O 177.512 1.57057 -1.14223 0
M  V30 1834 C 174.642 2.54401 -2.36427 0
M  V30 1835 C 173.596 2.43782 -3.51787 0
M  V30 1836 C 172.922 3.82078 -3.7406 0
M  V30 1837 C 174.222 1.93732 -4.85041 0
M  V30 1838 H 175.916 0.847534 -2.87154 0
M  V30 1839 H 173.462 0.40625 -1.38151 0
M  V30 1840 H 175.415 3.27458 -2.65234 0
M  V30 1841 H 174.139 2.92098 -1.46103 0
M  V30 1842 H 172.798 1.73178 -3.23117 0
M  V30 1843 H 172.446 4.17179 -2.81017 0
M  V30 1844 H 172.146 3.7584 -4.51684 0
M  V30 1845 H 173.67 4.56712 -4.05274 0
M  V30 1846 H 175.084 2.56569 -5.12684 0
M  V30 1847 H 173.481 1.98428 -5.66345 0
M  V30 1848 H 174.551 0.891962 -4.76626 0
M  V30 1849 N 175.894 1.51508 0.433938 0
M  V30 1850 C 177.171 1.54888 1.19453 0
M  V30 1851 C 177.551 0.315154 2.08734 0
M  V30 1852 O 176.899 -0.699558 2.17528 0
M  V30 1853 C 177.109 2.86467 1.99342 0
M  V30 1854 C 178.457 3.38545 2.56267 0
M  V30 1855 O 179.481 2.88041 2.0955 0
M  V30 1856 O 178.34 4.26675 3.41483 0
M  V30 1857 H 175.434 0.622863 0.544032 0
M  V30 1858 H 177.98 1.63823 0.442732 0
M  V30 1859 H 176.752 3.67718 1.33788 0
M  V30 1860 H 176.375 2.8071 2.8158 0
M  V30 1861 N 177.372 -0.689602 1.41712 0
M  V30 1862 C 178.602 -1.47613 1.44548 0
M  V30 1863 C 179.01 -1.89132 0.0509034 0
M  V30 1864 O 178.353 -1.57741 -0.94146 0
M  V30 1865 C 178.415 -2.76596 2.2964 0
M  V30 1866 C 178.079 -2.57245 3.77722 0
M  V30 1867 C 179.076 -2.22804 4.69739 0
M  V30 1868 C 176.761 -2.727 4.2183 0
M  V30 1869 C 178.755 -2.04064 6.03851 0
M  V30 1870 C 176.442 -2.53576 5.56006 0
M  V30 1871 C 177.44 -2.1931 6.46832 0
M  V30 1872 O 177.128 -2.00359 7.78532 0
M  V30 1873 H 176.86 -0.461227 0.494212 0
M  V30 1874 H 179.414 -0.856045 1.86711 0
M  V30 1875 H 177.644 -3.41033 1.82301 0
M  V30 1876 H 179.333 -3.38424 2.24107 0
M  V30 1877 H 180.099 -2.10473 4.36951 0
M  V30 1878 H 175.978 -2.98353 3.51435 0
M  V30 1879 H 179.522 -1.77241 6.74708 0
M  V30 1880 H 175.419 -2.65499 5.88371 0
M  V30 1881 H 176.187 -2.15075 7.89737 0
M  V30 1882 N 178.85 -1.27639 -0.924453 0
M  V30 1883 C 179.783 -1.04966 -2.02626 0
M  V30 1884 C 180.761 0.0309505 -1.62571 0
M  V30 1885 O 181.945 -0.114846 -1.8815 0
M  V30 1886 C 179.072 -0.59292 -3.3347 0
M  V30 1887 C 178.118 -1.66858 -3.92506 0
M  V30 1888 S 178.951 -3.2619 -4.24689 0
M  V30 1889 C 180.107 -2.82325 -5.58609 0
M  V30 1890 H 180.34 -1.98252 -2.21547 0
M  V30 1891 H 177.873 -1.11506 -1.06798 0
M  V30 1892 H 179.831 -0.336086 -4.09122 0
M  V30 1893 H 178.492 0.319939 -3.12466 0
M  V30 1894 H 177.685 -1.30038 -4.86935 0
M  V30 1895 H 177.287 -1.87766 -3.2345 0
M  V30 1896 H 179.579 -2.2783 -6.38044 0
M  V30 1897 H 180.522 -3.75511 -6.00331 0
M  V30 1898 H 180.93 -2.21367 -5.19285 0
M  V30 1899 N 180.328 1.1314 -1.09713 0
M  V30 1900 C 181.553 1.88862 -0.857081 0
M  V30 1901 C 181.978 1.78729 0.586304 0
M  V30 1902 O 181.336 1.13692 1.41222 0
M  V30 1903 C 181.384 3.36325 -1.30069 0
M  V30 1904 O 180.488 4.09815 -0.461007 0
M  V30 1905 H 179.829 0.587108 -0.310162 0
M  V30 1906 H 182.359 1.43129 -1.46203 0
M  V30 1907 H 182.369 3.87157 -1.28738 0
M  V30 1908 H 181.044 3.43017 -2.35185 0
M  V30 1909 H 179.621 3.68986 -0.538888 0
M  V30 1910 N 181.806 0.884767 1.30421 0
M  V30 1911 C 182.753 0.349642 2.28136 0
M  V30 1912 C 183.723 -0.560061 1.56373 0
M  V30 1913 O 184.908 -0.488524 1.8444 0
M  V30 1914 C 182.048 -0.42999 3.42411 0
M  V30 1915 C 181.161 0.508907 4.28992 0
M  V30 1916 C 180.296 -0.286301 5.30428 0
M  V30 1917 C 179.335 0.648079 6.08659 0
M  V30 1918 N 178.472 -0.111792 7.02011 0
M  V30 1919 H 183.312 1.18807 2.73293 0
M  V30 1920 H 180.849 0.597231 1.3443 0
M  V30 1921 H 182.807 -0.897923 4.07423 0
M  V30 1922 H 181.437 -1.23299 2.98324 0
M  V30 1923 H 180.489 1.09533 3.64289 0
M  V30 1924 H 181.801 1.22475 4.8353 0
M  V30 1925 H 180.955 -0.816098 6.01186 0
M  V30 1926 H 179.694 -1.03536 4.76583 0
M  V30 1927 H 178.699 1.18951 5.36778 0
M  V30 1928 H 179.924 1.39623 6.64592 0
M  V30 1929 H 177.87 -0.843395 6.50556 0
M  V30 1930 H 177.787 0.544429 7.54037 0
M  V30 1931 H 179.055 -0.622339 7.77012 0
M  V30 1932 N 183.284 -1.43765 0.645699 0
M  V30 1933 C 184.216 -2.29027 -0.0890605 0
M  V30 1934 C 185.229 -1.42093 -0.794563 0
M  V30 1935 O 186.418 -1.66104 -0.653575 0
M  V30 1936 C 183.518 -3.18831 -1.14891 0
M  V30 1937 C 182.691 -4.34261 -0.523043 0
M  V30 1938 C 181.75 -5.04994 -1.47878 0
M  V30 1939 O 180.776 -5.6052 -0.990277 0
M  V30 1940 N 181.978 -5.07795 -2.81291 0
M  V30 1941 H 184.743 -2.92727 0.64272 0
M  V30 1942 H 182.304 -1.54373 0.487924 0
M  V30 1943 H 184.296 -3.63015 -1.78892 0
M  V30 1944 H 182.866 -2.56782 -1.78275 0
M  V30 1945 H 182.086 -3.93088 0.295896 0
M  V30 1946 H 183.374 -5.08728 -0.0858147 0
M  V30 1947 H 182.772 -4.64042 -3.23546 0
M  V30 1948 H 181.329 -5.55721 -3.40614 0
M  V30 1949 N 184.763 -0.387143 -1.52771 0
M  V30 1950 C 185.711 0.463953 -2.27926 0
M  V30 1951 C 186.705 1.06493 -1.31741 0
M  V30 1952 O 187.911 1.00565 -1.49287 0
M  V30 1953 H 184.286 0.16837 -0.732909 0
M  V30 1954 H 186.257 -0.19141 -2.97785 0
M  V30 1955 C 185.006 1.5803 -3.09713 0
M  V30 1956 H 184.329 1.12718 -3.83581 0
M  V30 1957 H 185.769 2.15008 -3.65442 0
M  V30 1958 C 184.228 2.53509 -2.2189 0
M  V30 1959 O 184.758 3.56863 -1.84422 0
M  V30 1960 N 182.964 2.23199 -1.86093 0
M  V30 1961 H 182.511 1.39185 -2.16761 0
M  V30 1962 H 182.469 2.87333 -1.27621 0
M  V30 1963 N 186.241 1.57166 -0.116904 0
M  V30 1964 C 187.489 1.94737 0.540533 0
M  V30 1965 C 187.81 1.00096 1.67349 0
M  V30 1966 O 187.08 0.0568854 1.95817 0
M  V30 1967 H 185.66 0.718981 0.202669 0
M  V30 1968 H 188.322 1.94017 -0.185353 0
M  V30 1969 H 187.418 2.97719 0.936483 0
M  V30 1970 N 187.719 -0.156864 1.56817 0
M  V30 1971 C 188.967 -0.869404 1.82444 0
M  V30 1972 C 189.288 -1.82147 0.69623 0
M  V30 1973 O 188.558 -1.93847 -0.28287 0
M  V30 1974 H 187.138 -0.324043 0.673056 0
M  V30 1975 H 189.8 -0.153224 1.94297 0
M  V30 1976 H 188.896 -1.43761 2.77019 0
M  V30 1977 N 189.197 -1.51736 -0.425897 0
M  V30 1978 C 190.107 -1.76738 -1.54275 0
M  V30 1979 C 191.123 -0.65211 -1.61318 0
M  V30 1980 O 192.299 -0.935654 -1.78346 0
M  V30 1981 C 189.364 -1.89755 -2.90162 0
M  V30 1982 C 188.425 -3.13633 -2.93143 0
M  V30 1983 C 187.658 -3.2602 -4.22548 0
M  V30 1984 O 187.881 -2.44067 -5.15546 0
M  V30 1985 O 186.815 -4.19071 -4.32046 0
M  V30 1986 H 190.641 -2.71502 -1.36089 0
M  V30 1987 H 188.226 -1.36376 -0.610069 0
M  V30 1988 H 190.108 -2.00236 -3.70788 0
M  V30 1989 H 188.783 -0.981785 -3.08452 0
M  V30 1990 H 187.69 -3.08622 -2.11431 0
M  V30 1991 H 189.023 -4.04936 -2.798 0
M  V30 1992 N 190.675 0.682077 -1.42076 0
M  V30 1993 C 191.923 1.4393 -1.41876 0
M  V30 1994 C 192.244 1.94971 -0.0335599 0
M  V30 1995 O 191.514 1.72591 0.926773 0
M  V30 1996 H 190.094 0.534085 -0.522267 0
M  V30 1997 H 192.756 0.806427 -1.77434 0
M  V30 1998 H 191.852 2.29588 -2.11414 0
M  V30 1999 N 192.153 1.28127 0.917671 0
M  V30 2000 C 193.401 1.14825 1.66312 0
M  V30 2001 C 193.722 -0.304379 1.9261 0
M  V30 2002 O 192.992 -1.21149 1.53947 0
M  V30 2003 H 191.572 0.421953 0.616413 0
M  V30 2004 H 194.234 1.608 1.10134 0
M  V30 2005 H 193.33 1.68489 2.62712 0
M  V30 2006 N 193.631 -1.12557 1.10312 0
M  V30 2007 C 194.88 -1.83395 0.839588 0
M  V30 2008 C 195.193 -1.84939 -0.636929 0
M  V30 2009 O 196.399 -2.51761 -1.01631 0
M  V30 2010 C 194.855 -3.29303 1.45215 0
M  V30 2011 C 194.463 -3.36122 2.96186 0
M  V30 2012 C 196.207 -4.05121 1.26796 0
M  V30 2013 C 194.114 -4.76357 3.50483 0
M  V30 2014 H 193.044 -0.687133 0.310425 0
M  V30 2015 H 195.695 -1.26746 1.32694 0
M  V30 2016 H 194.077 -3.85812 0.892469 0
M  V30 2017 H 195.251 -2.89559 3.58458 0
M  V30 2018 H 193.566 -2.73776 3.13745 0
M  V30 2019 H 196.163 -5.08668 1.64806 0
M  V30 2020 H 196.506 -4.15773 0.209409 0
M  V30 2021 H 197.039 -3.54967 1.79563 0
M  V30 2022 H 193.778 -4.70899 4.55998 0
M  V30 2023 H 193.298 -5.23377 2.92978 0
M  V30 2024 H 194.977 -5.45294 3.48228 0
M  V30 2025 N 195.109 -0.891671 -1.2995 0
M  V30 2026 C 196.358 -0.509521 -1.95158 0
M  V30 2027 C 196.671 0.947388 -1.71125 0
M  V30 2028 O 197.877 1.43669 -2.30372 0
M  V30 2029 C 196.333 -0.860315 -3.49466 0
M  V30 2030 C 195.941 -2.33545 -3.8231 0
M  V30 2031 C 197.685 -0.547687 -4.20952 0
M  V30 2032 C 195.592 -2.62752 -5.29826 0
M  V30 2033 H 194.522 -0.18682 -0.730489 0
M  V30 2034 H 197.173 -1.08756 -1.47798 0
M  V30 2035 H 195.555 -0.211285 -3.95436 0
M  V30 2036 H 196.729 -3.02936 -3.47227 0
M  V30 2037 H 195.044 -2.61629 -3.23944 0
M  V30 2038 H 197.641 -0.742854 -5.29515 0
M  V30 2039 H 197.984 0.51332 -4.13123 0
M  V30 2040 H 198.517 -1.1542 -3.80688 0
M  V30 2041 H 195.256 -3.6762 -5.42712 0
M  V30 2042 H 194.776 -1.97977 -5.66185 0
M  V30 2043 H 196.455 -2.48601 -5.97333 0
M  V30 2044 N 196.587 1.43421 -0.653314 0
M  V30 2045 C 197.836 2.01032 -0.164076 0
M  V30 2046 C 198.149 1.52147 1.22926 0
M  V30 2047 O 199.355 2.02031 1.81371 0
M  V30 2048 C 197.811 3.59082 -0.24252 0
M  V30 2049 C 197.419 4.1696 -1.63855 0
M  V30 2050 C 199.163 4.24079 0.18911 0
M  V30 2051 C 197.07 5.67304 -1.67092 0
M  V30 2052 H 196 0.751798 -0.0575769 0
M  V30 2053 H 198.651 1.6439 -0.815362 0
M  V30 2054 H 197.033 3.93125 0.476276 0
M  V30 2055 H 198.207 3.94416 -2.38271 0
M  V30 2056 H 196.522 3.64335 -2.01616 0
M  V30 2057 H 199.119 5.34381 0.184775 0
M  V30 2058 H 199.462 3.98005 1.22056 0
M  V30 2059 H 199.995 3.94918 -0.477938 0
M  V30 2060 H 196.734 5.98145 -2.68146 0
M  V30 2061 H 196.254 5.91904 -0.970014 0
M  V30 2062 H 197.933 6.31344 -1.4147 0
M  V30 2063 N 198.065 0.39524 1.52563 0
M  V30 2064 C 199.013 -0.451859 2.28169 0
M  V30 2065 C 200.007 -1.05792 1.32304 0
M  V30 2066 O 201.213 -0.997718 1.49818 0
M  V30 2067 H 197.588 -0.164481 0.733792 0
M  V30 2068 H 199.559 0.207199 2.9768 0
M  V30 2069 C 198.308 -1.56385 3.10546 0
M  V30 2070 H 197.631 -1.10682 3.84174 0
M  V30 2071 H 199.071 -2.13067 3.66577 0
M  V30 2072 C 197.53 -2.52328 2.23231 0
M  V30 2073 O 198.06 -3.5588 1.86312 0
M  V30 2074 N 196.266 -2.22209 1.87274 0
M  V30 2075 H 195.813 -1.38033 2.17496 0
M  V30 2076 H 195.771 -2.86652 1.29143 0
M  V30 2077 N 199.544 -1.57102 0.125237 0
M  V30 2078 C 200.477 -2.11371 -0.860094 0
M  V30 2079 C 201.455 -1.03168 -1.25679 0
M  V30 2080 O 202.639 -1.30862 -1.35674 0
M  V30 2081 C 199.766 -2.61555 -2.1519 0
M  V30 2082 C 198.812 -3.81701 -1.9028 0
M  V30 2083 S 199.645 -5.23797 -1.11343 0
M  V30 2084 C 200.801 -5.77353 -2.41689 0
M  V30 2085 H 201.034 -2.94617 -0.39852 0
M  V30 2086 H 198.567 -1.54145 -0.0886555 0
M  V30 2087 H 200.525 -2.91122 -2.89411 0
M  V30 2088 H 199.186 -1.78479 -2.58465 0
M  V30 2089 H 198.379 -4.14985 -2.86014 0
M  V30 2090 H 197.981 -3.52783 -1.24178 0
M  V30 2091 H 200.273 -5.87458 -3.37489 0
M  V30 2092 H 201.216 -6.75323 -2.12942 0
M  V30 2093 H 201.624 -5.05457 -2.51342 0
M  V30 2094 N 201.022 0.148545 -1.56898 0
M  V30 2095 C 202.247 0.880385 -1.87787 0
M  V30 2096 C 202.672 1.74018 -0.714093 0
M  V30 2097 O 202.03 1.78153 0.336343 0
M  V30 2098 C 202.078 1.71422 -3.17249 0
M  V30 2099 O 201.182 2.8183 -3.01074 0
M  V30 2100 H 200.523 0.245301 -0.617028 0
M  V30 2101 H 203.053 0.139826 -2.04122 0
M  V30 2102 H 203.063 2.10954 -3.49231 0
M  V30 2103 H 201.738 1.08284 -4.01556 0
M  V30 2104 H 200.315 2.45715 -2.80497 0
M  V30 2105 N 202.5 1.5196 0.417844 0
M  V30 2106 C 203.725 1.69717 1.1921 0
M  V30 2107 C 204.15 0.402148 1.83751 0
M  V30 2108 O 203.508 -0.639593 1.69643 0
M  V30 2109 C 203.556 2.82794 2.2374 0
M  V30 2110 O 202.66 2.47756 3.29683 0
M  V30 2111 H 202.001 0.565263 0.348387 0
M  V30 2112 H 204.531 1.98621 0.490985 0
M  V30 2113 H 204.541 3.07452 2.68212 0
M  V30 2114 H 203.216 3.76756 1.76146 0
M  V30 2115 H 201.793 2.33739 2.90552 0
M  V30 2116 N 203.978 -0.674533 1.42435 0
M  V30 2117 C 204.908 -1.80009 1.48724 0
M  V30 2118 C 205.889 -1.6659 0.343793 0
M  V30 2119 O 207.074 -1.86007 0.558137 0
M  V30 2120 C 204.204 -3.18306 1.38919 0
M  V30 2121 C 203.158 -3.46461 2.51294 0
M  V30 2122 C 202.484 -4.84335 2.26547 0
M  V30 2123 C 203.784 -3.43328 3.93603 0
M  V30 2124 H 205.478 -1.75004 2.42928 0
M  V30 2125 H 203.024 -0.840533 1.16923 0
M  V30 2126 H 204.977 -3.9678 1.41927 0
M  V30 2127 H 203.701 -3.2399 0.412094 0
M  V30 2128 H 202.36 -2.70348 2.47604 0
M  V30 2129 H 202.008 -4.86669 1.2713 0
M  V30 2130 H 201.708 -5.04136 3.01861 0
M  V30 2131 H 203.232 -5.65094 2.31304 0
M  V30 2132 H 204.646 -4.11772 3.98894 0
M  V30 2133 H 203.043 -3.74664 4.68771 0
M  V30 2134 H 204.113 -2.41897 4.20255 0
M  V30 2135 N 205.456 -1.28612 -0.910864 0
M  V30 2136 C 206.419 -1.12803 -1.9952 0
M  V30 2137 C 207.419 -0.0668264 -1.60661 0
M  V30 2138 O 208.609 -0.312847 -1.71368 0
M  V30 2139 C 205.741 -0.72254 -3.33155 0
M  V30 2140 H 206.934 -2.09109 -2.14973 0
M  V30 2141 H 204.487 -1.11639 -1.09391 0
M  V30 2142 H 205.222 0.241152 -3.23402 0
M  V30 2143 H 205.007 -1.48916 -3.62721 0
M  V30 2144 H 206.497 -0.634666 -4.12749 0
M  V30 2145 N 206.934 1.1197 -1.10907 0
M  V30 2146 C 208.182 1.83225 -0.852819 0
M  V30 2147 C 208.503 1.84769 0.623341 0
M  V30 2148 O 207.773 1.3143 1.45269 0
M  V30 2149 H 206.353 0.67849 -0.312507 0
M  V30 2150 H 209.015 1.3556 -1.40033 0
M  V30 2151 H 208.111 2.87265 -1.22005 0
M  V30 2152 N 208.412 0.89855 1.29475 0
M  V30 2153 C 209.342 0.39201 2.30186 0
M  V30 2154 C 210.323 -0.532359 1.61555 0
M  V30 2155 O 211.508 -0.443331 1.89072 0
M  V30 2156 C 208.638 -0.382353 3.45189 0
M  V30 2157 C 207.592 0.451483 4.25612 0
M  V30 2158 C 206.918 -0.450307 5.328 0
M  V30 2159 C 208.218 1.70079 4.93832 0
M  V30 2160 H 209.912 1.23362 2.72804 0
M  V30 2161 H 207.458 0.594638 1.31149 0
M  V30 2162 H 209.411 -0.747451 4.14718 0
M  V30 2163 H 208.135 -1.25774 3.01411 0
M  V30 2164 H 206.794 0.798897 3.57789 0
M  V30 2165 H 206.442 -1.32379 4.85268 0
M  V30 2166 H 206.142 0.103902 5.87508 0
M  V30 2167 H 207.666 -0.811623 6.05182 0
M  V30 2168 H 209.08 1.40549 5.55805 0
M  V30 2169 H 207.477 2.19623 5.58467 0
M  V30 2170 H 208.547 2.43744 4.19186 0
M  V30 2171 N 209.89 -1.43072 0.660911 0
M  V30 2172 C 210.823 -2.28074 -0.0758862 0
M  V30 2173 C 211.801 -1.40271 -0.822362 0
M  V30 2174 O 212.985 -1.69713 -0.820352 0
M  V30 2175 C 210.112 -3.19843 -1.11437 0
M  V30 2176 C 209.158 -4.23957 -0.465069 0
M  V30 2177 S 209.991 -5.29978 0.767078 0
M  V30 2178 C 211.147 -6.25314 -0.270682 0
M  V30 2179 H 211.38 -2.90216 0.645139 0
M  V30 2180 H 208.913 -1.47697 0.449995 0
M  V30 2181 H 210.871 -3.73257 -1.70849 0
M  V30 2182 H 209.532 -2.56863 -1.80776 0
M  V30 2183 H 208.725 -4.88299 -1.24819 0
M  V30 2184 H 208.327 -3.73959 0.0551242 0
M  V30 2185 H 210.619 -6.67932 -1.13459 0
M  V30 2186 H 211.562 -7.07293 0.337916 0
M  V30 2187 H 211.97 -5.61195 -0.609937 0
M  V30 2188 N 211.368 -0.403325 -1.52352 0
M  V30 2189 C 212.779 0.0675782 -1.86578 0
M  V30 2190 C 213.13 1.44941 -1.32236 0
M  V30 2191 O 212.255 2.06112 -0.659307 0
M  V30 2192 C 212.85 0.129404 -3.38553 0
M  V30 2193 C 211.409 0.544629 -3.72439 0
M  V30 2194 C 210.556 -0.284551 -2.75836 0
M  V30 2195 H 213.507 -0.620631 -1.46061 0
M  V30 2196 H 213.528 0.94581 -3.68558 0
M  V30 2197 H 213.04 -0.87645 -3.78074 0
M  V30 2198 H 211.141 1.55734 -3.38493 0
M  V30 2199 H 211.254 0.293046 -4.78203 0
M  V30 2200 H 209.618 0.252258 -2.53448 0
M  V30 2201 H 210.401 -1.28865 -3.18196 0
M  V30 2202 N 212.846 1.57033 -0.133567 0
M  V30 2203 C 214.092 1.95976 0.521649 0
M  V30 2204 C 214.425 1.01779 1.65393 0
M  V30 2205 O 213.7 0.0576581 1.94415 0
M  V30 2206 C 213.983 3.44738 1.04057 0
M  V30 2207 C 213.836 4.49711 -0.0892897 0
M  V30 2208 C 215.155 3.95682 1.92675 0
M  V30 2209 H 212.274 0.712579 0.188149 0
M  V30 2210 H 214.916 1.88813 -0.212076 0
M  V30 2211 H 213.066 3.50973 1.66583 0
M  V30 2212 H 214.738 4.55565 -0.725152 0
M  V30 2213 H 212.981 4.27261 -0.750378 0
M  V30 2214 H 213.652 5.51099 0.315284 0
M  V30 2215 H 216.128 3.91841 1.39998 0
M  V30 2216 H 215.004 5.00262 2.25897 0
M  V30 2217 H 215.265 3.37239 2.85872 0
M  V30 2218 N 214.325 -0.140222 1.56975 0
M  V30 2219 C 215.288 -1.15689 1.97861 0
M  V30 2220 C 216.288 -1.3549 0.865974 0
M  V30 2221 O 217.478 -1.32367 1.13246 0
M  V30 2222 C 214.61 -2.51582 2.30042 0
M  V30 2223 H 215.803 -0.805971 2.88867 0
M  V30 2224 H 213.356 -0.383801 1.51515 0
M  V30 2225 H 214.091 -2.91632 1.41849 0
M  V30 2226 H 213.876 -2.38569 3.11171 0
M  V30 2227 H 215.366 -3.24792 2.62488 0
M  V30 2228 N 215.803 -1.52179 -0.40978 0
M  V30 2229 C 216.735 -1.71703 -1.51825 0
M  V30 2230 C 217.748 -0.597445 -1.51441 0
M  V30 2231 O 218.937 -0.872582 -1.55719 0
M  V30 2232 C 216.037 -1.74171 -2.90719 0
M  V30 2233 C 215.21 -3.03156 -3.15302 0
M  V30 2234 C 214.269 -2.97445 -4.34065 0
M  V30 2235 O 213.295 -3.71352 -4.31377 0
M  V30 2236 N 214.497 -2.15191 -5.39141 0
M  V30 2237 H 217.262 -2.67334 -1.35472 0
M  V30 2238 H 214.823 -1.50409 -0.599069 0
M  V30 2239 H 216.815 -1.67884 -3.68235 0
M  V30 2240 H 215.385 -0.860166 -3.00533 0
M  V30 2241 H 214.605 -3.23097 -2.25836 0
M  V30 2242 H 215.893 -3.88484 -3.28569 0
M  V30 2243 H 215.291 -1.54573 -5.44173 0
M  V30 2244 H 213.848 -2.1476 -6.15403 0
M  V30 2245 N 217.281 0.66697 -1.42791 0
M  V30 2246 C 218.213 1.7925 -1.42836 0
M  V30 2247 C 219.226 1.59496 -0.326333 0
M  V30 2248 O 220.415 1.6847 -0.589916 0
M  V30 2249 C 217.515 3.16476 -1.21229 0
M  V30 2250 C 216.688 3.63011 -2.44013 0
M  V30 2251 C 215.747 4.78993 -2.17834 0
M  V30 2252 O 214.773 4.89137 -2.91091 0
M  V30 2253 N 215.975 5.68248 -1.18635 0
M  V30 2254 H 218.74 1.79695 -2.39854 0
M  V30 2255 H 216.301 0.850338 -1.37771 0
M  V30 2256 H 218.293 3.91734 -1.01621 0
M  V30 2257 H 216.863 3.10884 -0.32706 0
M  V30 2258 H 216.083 2.78346 -2.79137 0
M  V30 2259 H 217.371 3.90845 -3.25757 0
M  V30 2260 H 216.769 5.62712 -0.580615 0
M  V30 2261 H 215.326 6.43285 -1.05013 0
M  V30 2262 N 218.759 1.29093 0.90403 0
M  V30 2263 C 220.17 1.15186 1.46932 0
M  V30 2264 C 220.521 -0.254587 1.94541 0
M  V30 2265 O 219.646 -1.14972 1.83332 0
M  V30 2266 C 220.241 2.08492 2.67051 0
M  V30 2267 C 218.8 1.98621 3.19729 0
M  V30 2268 C 217.947 1.9967 1.92425 0
M  V30 2269 H 220.898 1.41641 0.715789 0
M  V30 2270 H 220.919 1.65461 3.42641 0
M  V30 2271 H 220.431 3.10847 2.3237 0
M  V30 2272 H 218.532 0.993389 3.59114 0
M  V30 2273 H 218.645 2.86068 3.8432 0
M  V30 2274 H 217.009 1.44208 2.09943 0
M  V30 2275 H 217.792 3.03721 1.60026 0
M  V30 2276 N 220.237 -1.11381 1.11499 0
M  V30 2277 C 221.483 -1.83403 0.865512 0
M  V30 2278 C 221.816 -1.84459 -0.607329 0
M  V30 2279 O 221.091 -1.29811 -1.44842 0
M  V30 2280 C 221.374 -3.30552 1.42855 0
M  V30 2281 C 221.227 -3.37886 2.96906 0
M  V30 2282 C 222.546 -4.26643 1.08 0
M  V30 2283 H 219.665 -0.665879 0.31587 0
M  V30 2284 H 222.307 -1.30601 1.37998 0
M  V30 2285 H 220.457 -3.75648 0.990985 0
M  V30 2286 H 222.129 -3.01343 3.49271 0
M  V30 2287 H 220.372 -2.78088 3.32941 0
M  V30 2288 H 221.043 -4.41458 3.31389 0
M  V30 2289 H 223.519 -3.89729 1.45775 0
M  V30 2290 H 222.395 -5.27986 1.50072 0
M  V30 2291 H 222.656 -4.42099 -0.00915037 0
M  V30 2292 N 221.715 -0.905404 -1.28997 0
M  V30 2293 C 222.945 -0.549049 -1.99171 0
M  V30 2294 C 223.353 0.87203 -1.67906 0
M  V30 2295 O 222.696 1.58796 -0.923561 0
M  V30 2296 C 222.758 -0.668306 -3.53234 0
M  V30 2297 C 222.422 -2.0574 -4.08069 0
M  V30 2298 C 223.419 -3.0292 -4.22534 0
M  V30 2299 C 221.104 -2.36833 -4.42962 0
M  V30 2300 C 223.098 -4.29314 -4.71135 0
M  V30 2301 C 220.785 -3.63467 -4.91258 0
M  V30 2302 C 221.783 -4.59522 -5.053 0
M  V30 2303 O 221.471 -5.83907 -5.52546 0
M  V30 2304 H 221.203 -0.208784 -0.64295 0
M  V30 2305 H 223.757 -1.21836 -1.65363 0
M  V30 2306 H 221.987 0.0580547 -3.86656 0
M  V30 2307 H 223.676 -0.320273 -4.04634 0
M  V30 2308 H 224.442 -2.80216 -3.95859 0
M  V30 2309 H 220.321 -1.62824 -4.31288 0
M  V30 2310 H 223.865 -5.04293 -4.8201 0
M  V30 2311 H 219.762 -3.86 -5.17372 0
M  V30 2312 H 220.53 -5.86578 -5.70849 0
M  V30 2313 N 223.193 1.4272 -0.668489 0
M  V30 2314 C 224.433 2.03497 -0.19194 0
M  V30 2315 C 224.797 1.51684 1.17712 0
M  V30 2316 O 225.998 2.04205 1.74796 0
M  V30 2317 C 224.269 3.56734 -0.218032 0
M  V30 2318 S 225.828 4.38395 0.188438 0
M  V30 2319 H 222.646 0.706542 -0.0794959 0
M  V30 2320 H 225.248 1.74563 -0.880235 0
M  V30 2321 H 223.952 3.91943 -1.2169 0
M  V30 2322 H 223.483 3.90333 0.490303 0
M  V30 2323 H 225.498 4.75345 1.42345 0
M  V30 2324 N 224.671 0.411399 1.52136 0
M  V30 2325 C 225.634 -0.401089 2.25663 0
M  V30 2326 C 226.634 -0.971732 1.28117 0
M  V30 2327 O 227.824 -0.850254 1.52041 0
M  V30 2328 C 224.956 -1.56483 3.02863 0
M  V30 2329 H 226.149 0.24295 2.98914 0
M  V30 2330 H 223.702 0.163968 1.55438 0
M  V30 2331 H 224.437 -2.24567 2.33967 0
M  V30 2332 H 224.222 -1.16211 3.74483 0
M  V30 2333 H 225.712 -2.13951 3.58629 0
M  V30 2334 N 226.149 -1.5696 0.141893 0
M  V30 2335 C 227.374 -2.00754 -0.520838 0
M  V30 2336 C 227.799 -1.0213 -1.57959 0
M  V30 2337 O 227.157 0.00371324 -1.813 0
M  V30 2338 C 227.205 -3.43318 -1.10294 0
M  V30 2339 O 226.309 -3.47679 -2.21795 0
M  V30 2340 H 225.65 -0.651564 -0.127908 0
M  V30 2341 H 228.18 -2.03221 0.23712 0
M  V30 2342 H 228.19 -3.82012 -1.43287 0
M  V30 2343 H 226.865 -4.14608 -0.327574 0
M  V30 2344 H 225.442 -3.20824 -1.9007 0
M  V30 2345 N 227.627 0.131896 -1.57047 0
M  V30 2346 C 228.574 1.16236 -1.99393 0
M  V30 2347 C 229.544 1.41863 -0.863943 0
M  V30 2348 O 230.729 1.53946 -1.12718 0
M  V30 2349 C 227.869 2.48708 -2.39245 0
M  V30 2350 C 226.982 2.30127 -3.65603 0
M  V30 2351 C 226.117 3.55738 -3.94492 0
M  V30 2352 C 225.156 3.32259 -5.14073 0
M  V30 2353 N 224.293 4.50039 -5.38896 0
M  V30 2354 H 229.133 0.794251 -2.87221 0
M  V30 2355 H 226.67 0.380707 -1.42088 0
M  V30 2356 H 228.628 3.25969 -2.60384 0
M  V30 2357 H 227.258 2.83437 -1.54478 0
M  V30 2358 H 226.31 1.43845 -3.52154 0
M  V30 2359 H 227.622 2.08746 -4.5302 0
M  V30 2360 H 226.776 4.41423 -4.1621 0
M  V30 2361 H 225.515 3.80138 -3.05526 0
M  V30 2362 H 224.52 2.44963 -4.92212 0
M  V30 2363 H 225.745 3.09242 -6.04604 0
M  V30 2364 H 223.691 4.74584 -4.52886 0
M  V30 2365 H 223.608 4.31716 -6.2061 0
M  V30 2366 H 224.876 5.36895 -5.65123 0
M  V30 2367 N 229.106 1.52395 0.401703 0
M  V30 2368 C 230.056 1.72649 1.48917 0
M  V30 2369 C 231.04 0.580436 1.50066 0
M  V30 2370 O 232.232 0.83779 1.55917 0
M  V30 2371 C 229.361 1.88729 2.86769 0
M  V30 2372 C 228.447 3.09228 2.90239 0
M  V30 2373 N 228.838 4.31805 2.63396 0
M  V30 2374 C 227.136 3.09214 3.21408 0
M  V30 2375 C 227.837 5.13326 2.73625 0
M  V30 2376 N 226.813 4.48735 3.06819 0
M  V30 2377 H 230.615 2.65058 1.26971 0
M  V30 2378 H 228.129 1.50528 0.609504 0
M  V30 2379 H 230.126 2.01358 3.65049 0
M  V30 2380 H 228.786 0.975252 3.09708 0
M  V30 2381 H 229.797 4.60154 2.37653 0
M  V30 2382 H 226.474 2.27774 3.49893 0
M  V30 2383 H 227.864 6.21003 2.56524 0
M  V30 2384 N 230.584 -0.659388 1.43143 0
M  V30 2385 C 231.832 -1.41654 1.44147 0
M  V30 2386 C 232.153 -1.94893 0.0645739 0
M  V30 2387 O 231.423 -1.74044 -0.899198 0
M  V30 2388 H 230.003 -0.525708 0.530697 0
M  V30 2389 H 232.665 -0.778097 1.78694 0
M  V30 2390 H 231.761 -2.26195 2.1504 0
M  V30 2391 N 232.062 -1.29571 -0.897171 0
M  V30 2392 C 233.311 -1.1706 -1.64256 0
M  V30 2393 C 233.624 0.276476 -1.93636 0
M  V30 2394 O 234.83 0.52294 -2.66416 0
M  V30 2395 C 233.286 -2.0475 -2.95982 0
M  V30 2396 C 232.894 -3.54295 -2.74187 0
M  V30 2397 C 234.638 -2.0097 -3.73914 0
M  V30 2398 C 232.545 -4.34081 -4.01656 0
M  V30 2399 H 231.475 -0.43452 -0.616205 0
M  V30 2400 H 234.126 -1.54229 -0.994268 0
M  V30 2401 H 232.508 -1.60452 -3.62038 0
M  V30 2402 H 233.682 -4.06662 -2.1671 0
M  V30 2403 H 231.997 -3.59773 -2.09648 0
M  V30 2404 H 234.594 -2.57838 -4.68427 0
M  V30 2405 H 234.937 -0.990273 -4.0435 0
M  V30 2406 H 235.47 -2.43325 -3.14703 0
M  V30 2407 H 232.209 -5.36671 -3.76384 0
M  V30 2408 H 231.729 -3.86483 -4.58684 0
M  V30 2409 H 233.408 -4.44877 -4.69781 0
M  V30 2410 N 233.54 1.10788 -1.12088 0
M  V30 2411 C 234.786 1.82942 -0.875226 0
M  V30 2412 C 235.119 1.84779 0.597538 0
M  V30 2413 O 234.394 1.30578 1.44152 0
M  V30 2414 C 234.677 3.29789 -1.44606 0
M  V30 2415 C 234.53 3.36307 -2.98693 0
M  V30 2416 C 235.849 4.26064 -1.10261 0
M  V30 2417 H 232.968 0.664195 -0.319397 0
M  V30 2418 H 235.61 1.29867 -1.38689 0
M  V30 2419 H 233.76 3.75118 -1.01089 0
M  V30 2420 H 235.432 2.99487 -3.50864 0
M  V30 2421 H 233.675 2.76318 -3.34411 0
M  V30 2422 H 234.346 4.39694 -3.33726 0
M  V30 2423 H 236.822 3.88951 -1.4784 0
M  V30 2424 H 235.698 5.27183 -1.52869 0
M  V30 2425 H 235.959 4.42098 -0.0142953 0
M  V30 2426 N 235.018 0.912232 1.28515 0
M  V30 2427 C 236.266 0.543523 1.94654 0
M  V30 2428 C 236.587 -0.9155 1.72173 0
M  V30 2429 O 235.857 -1.64708 1.06058 0
M  V30 2430 H 234.437 0.198017 0.720277 0
M  V30 2431 H 237.099 1.16126 1.56527 0
M  V30 2432 H 236.195 0.736684 3.03281 0
M  V30 2433 N 236.496 -1.42363 0.676048 0
M  V30 2434 C 237.743 -2.01522 0.19883 0
M  V30 2435 C 238.071 -1.53456 -1.19505 0
M  V30 2436 O 237.326 -0.727967 -1.81657 0
M  V30 2437 C 237.625 -3.56929 0.183431 0
M  V30 2438 C 237.291 -4.24431 1.52215 0
M  V30 2439 C 235.953 -4.42585 1.8887 0
M  V30 2440 C 238.305 -4.62459 2.40377 0
M  V30 2441 C 235.633 -4.96039 3.13309 0
M  V30 2442 C 237.985 -5.17294 3.64129 0
M  V30 2443 C 236.649 -5.33661 4.00951 0
M  V30 2444 H 235.919 -0.737419 0.0727571 0
M  V30 2445 H 238.566 -1.70531 0.871281 0
M  V30 2446 H 236.871 -3.87594 -0.572532 0
M  V30 2447 H 238.568 -4.00486 -0.203035 0
M  V30 2448 H 235.158 -4.10661 1.22701 0
M  V30 2449 H 239.342 -4.48105 2.13343 0
M  V30 2450 H 234.598 -5.06896 3.41857 0
M  V30 2451 H 238.772 -5.45704 4.32644 0
M  V30 2452 H 236.399 -5.74845 4.9745 0
M  V30 2453 N 237.974 -0.419461 -1.51915 0
M  V30 2454 C 239.202 0.152136 -2.0634 0
M  V30 2455 C 239.617 1.37988 -1.28859 0
M  V30 2456 O 238.974 1.79243 -0.343232 0
M  V30 2457 C 239.025 0.492266 -3.58133 0
M  V30 2458 O 238.746 -0.686736 -4.32684 0
M  V30 2459 C 240.247 1.11648 -4.2901 0
M  V30 2460 H 237.467 0.0158325 -0.670813 0
M  V30 2461 H 240.011 -0.593394 -1.95702 0
M  V30 2462 H 238.166 1.18769 -3.68745 0
M  V30 2463 H 238.58 -0.400341 -5.2297 0
M  V30 2464 H 240.054 1.3046 -5.36362 0
M  V30 2465 H 240.531 2.09251 -3.86148 0
M  V30 2466 H 241.137 0.460958 -4.22795 0
M  V30 2467 N 239.452 1.56882 -0.150215 0
M  V30 2468 C 240.868 1.58263 0.20617 0
M  V30 2469 C 241.068 1.16464 1.64434 0
M  V30 2470 O 240.124 0.866422 2.3717 0
M  V30 2471 C 241.437 3.00649 -0.0555025 0
M  V30 2472 C 242.985 3.12999 0.00795388 0
M  V30 2473 C 243.46 4.5744 -0.226429 0
M  V30 2474 N 244.951 4.62875 -0.173469 0
M  V30 2475 C 245.686 5.72454 -0.329288 0
M  V30 2476 N 245.182 6.90669 -0.543005 0
M  V30 2477 N 246.975 5.61467 -0.266666 0
M  V30 2478 H 239.126 1.82345 -1.08922 0
M  V30 2479 H 241.389 0.844149 -0.431413 0
M  V30 2480 H 241.095 3.3563 -1.05096 0
M  V30 2481 H 240.969 3.71337 0.66246 0
M  V30 2482 H 243.356 2.77857 0.993966 0
M  V30 2483 H 243.437 2.4479 -0.742388 0
M  V30 2484 H 243.081 4.93287 -1.20956 0
M  V30 2485 H 243.011 5.2378 0.544274 0
M  V30 2486 H 245.502 3.77898 -0.0130709 0
M  V30 2487 H 245.815 7.70045 -0.651922 0
M  V30 2488 H 244.16 6.92581 -0.579366 0
M  V30 2489 H 247.351 4.67992 -0.100441 0
M  V30 2490 H 247.524 6.46816 -0.391535 0
M  V30 2491 N 240.93 -0.123565 1.57115 0
M  V30 2492 C 242.155 -0.850398 1.89164 0
M  V30 2493 C 242.58 -1.7286 0.741688 0
M  V30 2494 O 241.938 -1.78665 -0.307958 0
M  V30 2495 C 241.986 -1.66353 3.19936 0
M  V30 2496 O 241.09 -2.77004 3.0552 0
M  V30 2497 H 240.431 -0.235454 0.620852 0
M  V30 2498 H 242.961 -0.107335 2.04318 0
M  V30 2499 H 242.971 -2.05372 3.52543 0
M  V30 2500 H 241.646 -1.01881 4.03228 0
M  V30 2501 H 240.223 -2.41221 2.84371 0
M  V30 2502 N 242.408 -1.52605 -0.393616 0
M  V30 2503 C 243.371 -1.76415 -1.46323 0
M  V30 2504 C 244.371 -0.634126 -1.47768 0
M  V30 2505 O 245.561 -0.902142 -1.4902 0
M  V30 2506 C 242.693 -1.8607 -2.85641 0
M  V30 2507 H 243.886 -2.71916 -1.26498 0
M  V30 2508 H 241.439 -1.43257 -0.625073 0
M  V30 2509 H 242.174 -0.925378 -3.10817 0
M  V30 2510 H 241.959 -2.68235 -2.85993 0
M  V30 2511 H 243.449 -2.06179 -3.63153 0
M  V30 2512 N 243.887 0.651787 -1.4349 0
M  V30 2513 C 244.85 1.74647 -1.48429 0
M  V30 2514 C 245.85 1.56513 -0.368817 0
M  V30 2515 O 247.04 1.62385 -0.630623 0
M  V30 2516 C 244.172 3.13533 -1.33827 0
M  V30 2517 H 245.365 1.71649 -2.4592 0
M  V30 2518 H 242.918 0.863573 -1.30277 0
M  V30 2519 H 243.653 3.22142 -0.37349 0
M  V30 2520 H 243.438 3.28101 -2.14691 0
M  V30 2521 H 244.928 3.93356 -1.40218 0
M  V30 2522 N 245.365 1.30045 0.890287 0
M  V30 2523 C 246.295 1.18541 2.01172 0
M  V30 2524 C 247.276 0.0773356 1.69924 0
M  V30 2525 O 248.461 0.25845 1.92473 0
M  V30 2526 C 245.591 0.870941 3.36202 0
M  V30 2527 C 244.545 1.93637 3.81692 0
M  V30 2528 C 243.871 1.475 5.13953 0
M  V30 2529 C 245.171 3.34666 4.00994 0
M  V30 2530 H 246.865 2.12359 2.11054 0
M  V30 2531 H 244.411 1.02238 1.01407 0
M  V30 2532 H 246.364 0.777141 4.14172 0
M  V30 2533 H 245.088 -0.102926 3.26438 0
M  V30 2534 H 243.747 2.01972 3.05946 0
M  V30 2535 H 243.395 0.489551 5.00612 0
M  V30 2536 H 243.095 2.1876 5.4536 0
M  V30 2537 H 244.619 1.39489 5.94454 0
M  V30 2538 H 246.033 3.2912 4.69417 0
M  V30 2539 H 244.43 4.03966 4.43769 0
M  V30 2540 H 245.5 3.76949 3.05021 0
M  V30 2541 N 246.843 -1.10192 1.12674 0
M  V30 2542 C 247.806 -2.14786 0.799979 0
M  V30 2543 C 248.806 -1.59711 -0.18685 0
M  V30 2544 O 249.996 -1.74156 0.0392558 0
M  V30 2545 C 247.128 -3.40374 0.189228 0
M  V30 2546 H 248.321 -2.45203 1.72671 0
M  V30 2547 H 245.874 -1.25597 0.930326 0
M  V30 2548 H 246.609 -3.15577 -0.747107 0
M  V30 2549 H 246.394 -3.81637 0.899766 0
M  V30 2550 H 247.884 -4.17594 -0.0228143 0
M  V30 2551 N 248.321 -0.919034 -1.28029 0
M  V30 2552 C 249.284 -0.416182 -2.2539 0
M  V30 2553 C 250.284 0.460438 -1.54067 0
M  V30 2554 O 251.474 0.262744 -1.72207 0
M  V30 2555 C 248.606 0.402707 -3.38513 0
M  V30 2556 H 249.799 -1.27629 -2.71387 0
M  V30 2557 H 247.352 -0.698919 -1.39803 0
M  V30 2558 H 248.087 1.282 -2.97885 0
M  V30 2559 H 247.872 -0.225698 -3.9145 0
M  V30 2560 H 249.362 0.745191 -4.10897 0
M  V30 2561 N 249.799 1.42003 -0.683588 0
M  V30 2562 C 250.747 2.326 0.000815408 0
M  V30 2563 C 251.741 1.50308 0.781278 0
M  V30 2564 O 252.947 1.66322 0.688251 0
M  V30 2565 H 249.322 0.751758 0.0190616 0
M  V30 2566 H 251.293 2.88011 -0.780528 0
M  V30 2567 C 250.042 3.34978 0.93195 0
M  V30 2568 H 249.365 3.98345 0.340817 0
M  V30 2569 H 250.805 4.00936 1.37936 0
M  V30 2570 C 249.264 2.67925 2.04249 0
M  V30 2571 O 249.794 2.51788 3.12995 0
M  V30 2572 N 248 2.2681 1.81675 0
M  V30 2573 H 247.547 2.40135 0.932363 0
M  V30 2574 H 247.505 1.8228 2.56167 0
M  V30 2575 N 251.277 0.427512 1.51691 0
M  V30 2576 C 252.207 -0.3796 2.30394 0
M  V30 2577 C 253.188 -1.02982 1.35384 0
M  V30 2578 O 254.373 -1.03534 1.643 0
M  V30 2579 C 251.503 -1.48649 3.1388 0
M  V30 2580 C 250.457 -0.960294 4.17088 0
M  V30 2581 C 249.783 -2.16219 4.89033 0
M  V30 2582 C 251.083 -0.00153679 5.223 0
M  V30 2583 H 252.777 0.277164 2.98114 0
M  V30 2584 H 250.323 0.134739 1.43368 0
M  V30 2585 H 252.276 -2.05826 3.67714 0
M  V30 2586 H 251 -2.1714 2.43962 0
M  V30 2587 H 249.659 -0.410806 3.64291 0
M  V30 2588 H 249.307 -2.83307 4.15628 0
M  V30 2589 H 249.007 -1.81654 5.58816 0
M  V30 2590 H 250.531 -2.73968 5.45687 0
M  V30 2591 H 251.945 -0.482687 5.71264 0
M  V30 2592 H 250.342 0.256199 5.99553 0
M  V30 2593 H 251.412 0.938174 4.75738 0
M  V30 2594 N 252.755 -1.56801 0.158532 0
M  V30 2595 C 253.688 -2.13148 -0.815065 0
M  V30 2596 C 254.666 -1.0581 -1.23462 0
M  V30 2597 O 255.85 -1.3371 -1.32868 0
M  V30 2598 C 252.977 -2.6606 -2.09594 0
M  V30 2599 C 252.023 -3.85651 -1.82141 0
M  V30 2600 S 252.856 -5.26041 -1.00207 0
M  V30 2601 C 254.012 -5.8235 -2.29389 0
M  V30 2602 H 254.245 -2.95396 -0.335937 0
M  V30 2603 H 251.778 -1.54299 -0.0559391 0
M  V30 2604 H 253.736 -2.97195 -2.8317 0
M  V30 2605 H 252.397 -1.83921 -2.54621 0
M  V30 2606 H 251.59 -4.20958 -2.77147 0
M  V30 2607 H 251.192 -3.55338 -1.16667 0
M  V30 2608 H 253.484 -5.94485 -3.24952 0
M  V30 2609 H 254.427 -6.79688 -1.9857 0
M  V30 2610 H 254.835 -5.10675 -2.40564 0
M  V30 2611 N 254.233 0.115231 -1.57178 0
M  V30 2612 C 255.181 1.16014 -2.01602 0
M  V30 2613 C 256.175 1.42653 -0.913587 0
M  V30 2614 O 257.381 1.42571 -1.09879 0
M  V30 2615 H 253.756 0.391252 -0.642204 0
M  V30 2616 H 255.727 0.758998 -2.88586 0
M  V30 2617 C 254.476 2.47767 -2.4394 0
M  V30 2618 H 253.799 2.28108 -3.28339 0
M  V30 2619 H 255.239 3.19432 -2.78818 0
M  V30 2620 C 253.698 3.10617 -1.30455 0
M  V30 2621 O 254.228 3.96846 -0.622585 0
M  V30 2622 N 252.434 2.70553 -1.06064 0
M  V30 2623 H 251.981 2.00527 -1.61699 0
M  V30 2624 H 251.939 3.12934 -0.303284 0
M  V30 2625 N 255.711 1.52812 0.385517 0
M  V30 2626 C 256.936 1.72207 1.15583 0
M  V30 2627 C 257.361 0.441034 1.82857 0
M  V30 2628 O 256.719 -0.603465 1.70962 0
M  V30 2629 C 256.767 2.87476 2.17692 0
M  V30 2630 O 255.871 2.54693 3.24354 0
M  V30 2631 H 255.212 0.572526 0.336319 0
M  V30 2632 H 257.742 1.99618 0.448744 0
M  V30 2633 H 257.752 3.13072 2.6163 0
M  V30 2634 H 256.427 3.80408 1.68115 0
M  V30 2635 H 255.004 2.3985 2.85529 0
M  V30 2636 N 257.189 -0.644168 1.43834 0
M  V30 2637 C 258.437 -1.40117 1.45642 0
M  V30 2638 C 258.758 -1.94814 0.0852413 0
M  V30 2639 O 258.028 -1.74988 -0.880688 0
M  V30 2640 H 256.608 -0.52005 0.536243 0
M  V30 2641 H 259.27 -0.7591 1.7951 0
M  V30 2642 H 258.366 -2.23902 2.17427 0
M  V30 2643 N 258.668 -1.30515 -0.883378 0
M  V30 2644 C 259.914 -1.19607 -1.63774 0
M  V30 2645 C 260.247 0.248314 -1.92606 0
M  V30 2646 O 259.522 1.17742 -1.54813 0
M  V30 2647 C 259.805 -2.02669 -2.97653 0
M  V30 2648 C 259.658 -3.55335 -2.75784 0
M  V30 2649 C 260.977 -1.86573 -3.98596 0
M  V30 2650 H 258.096 -0.435856 -0.594305 0
M  V30 2651 H 260.738 -1.60165 -1.02212 0
M  V30 2652 H 258.888 -1.68208 -3.50197 0
M  V30 2653 H 260.56 -3.99863 -2.30016 0
M  V30 2654 H 258.803 -3.79438 -2.1026 0
M  V30 2655 H 259.474 -4.08745 -3.70988 0
M  V30 2656 H 261.95 -2.16703 -3.55217 0
M  V30 2657 H 260.826 -2.47014 -4.90179 0
M  V30 2658 H 261.087 -0.825321 -4.34328 0
M  V30 2659 N 260.146 1.09593 -1.13257 0
M  V30 2660 C 261.562 1.33775 -0.870423 0
M  V30 2661 C 261.762 1.95327 0.494926 0
M  V30 2662 O 260.818 2.19853 1.2418 0
M  V30 2663 C 262.131 2.25106 -1.99369 0
M  V30 2664 C 263.679 2.3862 -2.02558 0
M  V30 2665 C 264.154 3.33285 -3.14142 0
M  V30 2666 N 265.645 3.40857 -3.13641 0
M  V30 2667 C 266.38 4.14101 -3.96621 0
M  V30 2668 N 265.876 4.90157 -4.8961 0
M  V30 2669 N 267.669 4.09808 -3.84726 0
M  V30 2670 H 259.82 0.680136 -2.01216 0
M  V30 2671 H 262.083 0.362133 -0.876107 0
M  V30 2672 H 261.789 1.87103 -2.97801 0
M  V30 2673 H 261.663 3.25481 -1.90635 0
M  V30 2674 H 264.05 2.75887 -1.0474 0
M  V30 2675 H 264.131 1.38028 -2.15364 0
M  V30 2676 H 263.775 2.96741 -4.12198 0
M  V30 2677 H 263.705 4.33776 -2.98574 0
M  V30 2678 H 266.196 2.86624 -2.46282 0
M  V30 2679 H 266.509 5.4347 -5.49418 0
M  V30 2680 H 264.854 4.89251 -4.93617 0
M  V30 2681 H 268.045 3.4949 -3.11408 0
M  V30 2682 H 268.218 4.66629 -4.49623 0
M  V30 2683 N 261.624 0.925811 1.2754 0
M  V30 2684 C 262.554 0.440748 2.29303 0
M  V30 2685 C 263.535 -0.497971 1.62648 0
M  V30 2686 O 264.72 -0.403126 1.8997 0
M  V30 2687 C 261.85 -0.309048 3.45922 0
M  V30 2688 C 260.804 0.54166 4.24559 0
M  V30 2689 C 260.13 -0.337191 5.33636 0
M  V30 2690 C 261.43 1.80516 4.90114 0
M  V30 2691 H 263.124 1.29121 2.70126 0
M  V30 2692 H 260.67 0.622323 1.29858 0
M  V30 2693 H 262.623 -0.659315 4.1621 0
M  V30 2694 H 261.347 -1.19352 3.04011 0
M  V30 2695 H 260.006 0.874609 3.56014 0
M  V30 2696 H 259.654 -1.22056 4.87966 0
M  V30 2697 H 259.354 0.228497 5.87156 0
M  V30 2698 H 260.878 -0.683072 6.06767 0
M  V30 2699 H 262.292 1.52307 5.52698 0
M  V30 2700 H 260.689 2.3142 5.53683 0
M  V30 2701 H 261.759 2.52581 4.13921 0
M  V30 2702 N 263.102 -1.41638 0.69111 0
M  V30 2703 C 264.05 -2.32597 0.0115199 0
M  V30 2704 C 265.044 -1.5072 -0.773296 0
M  V30 2705 O 266.25 -1.66685 -0.67942 0
M  V30 2706 H 262.625 -0.751849 -0.0150746 0
M  V30 2707 H 264.596 -2.87593 0.795791 0
M  V30 2708 C 263.345 -3.35467 -0.914172 0
M  V30 2709 H 262.668 -3.9852 -0.319687 0
M  V30 2710 H 264.108 -4.01662 -1.35808 0
M  V30 2711 C 262.567 -2.69004 -2.02826 0
M  V30 2712 O 263.097 -2.53444 -3.11655 0
M  V30 2713 N 261.303 -2.2777 -1.80469 0
M  V30 2714 H 260.85 -2.40626 -0.919615 0
M  V30 2715 H 260.808 -1.83635 -2.55197 0
M  V30 2716 N 264.58 -0.43555 -1.51462 0
M  V30 2717 C 265.543 0.365137 -2.26273 0
M  V30 2718 C 266.543 0.951227 -1.29647 0
M  V30 2719 O 267.733 0.825958 -1.53374 0
M  V30 2720 C 264.865 1.51645 -3.05314 0
M  V30 2721 H 266.058 -0.290474 -2.9849 0
M  V30 2722 H 263.611 -0.188676 -1.55157 0
M  V30 2723 H 264.346 2.20816 -2.3751 0
M  V30 2724 H 264.131 1.10238 -3.76284 0
M  V30 2725 H 265.621 2.08218 -3.61987 0
M  V30 2726 N 266.058 1.56714 -0.166846 0
M  V30 2727 C 267.307 1.95922 0.479318 0
M  V30 2728 C 267.62 1.05529 1.6469 0
M  V30 2729 O 268.826 1.34399 2.35901 0
M  V30 2730 C 267.282 3.48359 0.90412 0
M  V30 2731 C 266.89 4.47369 -0.237621 0
M  V30 2732 C 268.634 3.96394 1.51896 0
M  V30 2733 C 266.541 5.91039 0.206561 0
M  V30 2734 H 265.471 0.731495 0.18284 0
M  V30 2735 H 268.122 1.81728 -0.254363 0
M  V30 2736 H 266.504 3.57955 1.69365 0
M  V30 2737 H 267.678 4.49485 -1.01489 0
M  V30 2738 H 265.993 4.09366 -0.762128 0
M  V30 2739 H 268.59 5.01186 1.86325 0
M  V30 2740 H 268.933 3.39075 2.41524 0
M  V30 2741 H 269.466 3.89796 0.79395 0
M  V30 2742 H 266.205 6.52221 -0.654834 0
M  V30 2743 H 265.725 5.9224 0.949282 0
M  V30 2744 H 267.404 6.43707 0.651939 0
M  V30 2745 N 267.536 -0.106894 1.57237 0
M  V30 2746 C 268.776 -0.818277 1.87306 0
M  V30 2747 C 269.14 -1.76474 0.756371 0
M  V30 2748 O 270.341 -2.5186 0.939155 0
M  V30 2749 C 268.612 -1.53806 3.22612 0
M  V30 2750 S 270.171 -2.28935 3.74345 0
M  V30 2751 H 266.989 -0.272862 0.656557 0
M  V30 2752 H 269.591 -0.075988 1.95352 0
M  V30 2753 H 268.295 -0.834951 4.01817 0
M  V30 2754 H 267.826 -2.32049 3.17674 0
M  V30 2755 H 269.841 -3.54871 3.46815 0
M  V30 2756 N 269.014 -1.53014 -0.377408 0
M  V30 2757 C 270.425 -1.60438 -0.954798 0
M  V30 2758 C 270.776 -0.464418 -1.90624 0
M  V30 2759 O 269.901 0.41087 -2.12464 0
M  V30 2760 C 270.496 -2.90797 -1.73847 0
M  V30 2761 C 269.055 -3.00595 -2.26538 0
M  V30 2762 C 268.202 -2.55645 -1.07429 0
M  V30 2763 H 271.153 -1.57926 -0.156575 0
M  V30 2764 H 271.174 -2.77935 -2.5987 0
M  V30 2765 H 270.686 -3.73746 -1.04574 0
M  V30 2766 H 268.787 -2.22208 -2.99089 0
M  V30 2767 H 268.9 -4.05456 -2.5523 0
M  V30 2768 H 267.264 -2.10239 -1.43777 0
M  V30 2769 H 268.047 -3.41 -0.396728 0
M  V30 2770 N 270.492 0.636531 -1.44174 0
M  V30 2771 C 271.74 1.39343 -1.46383 0
M  V30 2772 C 272.061 1.94766 -0.0955715 0
M  V30 2773 O 271.331 1.75452 0.871395 0
M  V30 2774 H 269.911 0.517199 -0.538994 0
M  V30 2775 H 272.573 0.74957 -1.7991 0
M  V30 2776 H 271.669 2.22746 -2.18611 0
M  V30 2777 N 271.97 1.30982 0.876444 0
M  V30 2778 C 273.217 1.20296 1.62896 0
M  V30 2779 C 273.545 -0.240395 1.93009 0
M  V30 2780 O 272.8 -1.18733 1.55567 0
M  V30 2781 C 273.099 1.98572 2.9716 0
M  V30 2782 C 272.765 3.48125 2.86566 0
M  V30 2783 C 271.427 3.88905 2.83383 0
M  V30 2784 C 273.779 4.43322 2.74071 0
M  V30 2785 C 271.107 5.2316 2.65556 0
M  V30 2786 C 273.459 5.77695 2.57781 0
M  V30 2787 C 272.123 6.17704 2.52979 0
M  V30 2788 H 271.393 0.440193 0.59608 0
M  V30 2789 H 274.04 1.62177 1.01837 0
M  V30 2790 H 272.345 1.49352 3.62217 0
M  V30 2791 H 274.042 1.8769 3.54364 0
M  V30 2792 H 270.632 3.15723 2.89856 0
M  V30 2793 H 274.816 4.12752 2.75589 0
M  V30 2794 H 270.072 5.53241 2.60259 0
M  V30 2795 H 274.246 6.51091 2.47089 0
M  V30 2796 H 271.873 7.21678 2.38924 0
M  V30 2797 N 273.449 -1.08991 1.13837 0
M  V30 2798 C 274.695 -1.81526 0.90422 0
M  V30 2799 C 275.028 -1.85706 -0.568066 0
M  V30 2800 O 274.303 -1.32855 -1.42056 0
M  V30 2801 C 274.586 -3.27447 1.49835 0
M  V30 2802 C 274.439 -3.31512 3.04006 0
M  V30 2803 C 275.758 -4.24256 1.17025 0
M  V30 2804 H 272.877 -0.659029 0.329923 0
M  V30 2805 H 275.519 -1.27644 1.40737 0
M  V30 2806 H 273.669 -3.73462 1.07044 0
M  V30 2807 H 275.341 -2.93867 3.55584 0
M  V30 2808 H 273.584 -2.70963 3.38765 0
M  V30 2809 H 274.255 -4.34329 3.40679 0
M  V30 2810 H 276.731 -3.86549 1.54009 0
M  V30 2811 H 275.607 -5.24684 1.61237 0
M  V30 2812 H 275.868 -4.42019 0.0846274 0
M  V30 2813 N 274.927 -0.932562 -1.27047 0
M  V30 2814 C 275.875 -0.42603 -2.28665 0
M  V30 2815 C 276.869 0.49219 -1.62092 0
M  V30 2816 O 278.075 0.371355 -1.76128 0
M  V30 2817 H 274.45 -0.119213 -0.742491 0
M  V30 2818 H 276.421 -1.29579 -2.68797 0
M  V30 2819 C 275.17 0.301426 -3.46391 0
M  V30 2820 H 274.493 -0.39595 -3.97834 0
M  V30 2821 H 275.933 0.6202 -4.1944 0
M  V30 2822 C 274.392 1.51616 -3.00856 0
M  V30 2823 O 274.922 2.61476 -3.04948 0
M  V30 2824 N 273.128 1.36969 -2.56296 0
M  V30 2825 H 272.675 0.475873 -2.53166 0
M  V30 2826 H 272.633 2.18368 -2.26192 0
M  V30 2827 N 276.405 1.4127 -0.698611 0
M  V30 2828 C 277.633 2.05503 -0.239992 0
M  V30 2829 C 278.048 1.52584 1.11191 0
M  V30 2830 O 277.405 0.675323 1.69545 0
M  V30 2831 C 277.456 3.60987 -0.192429 0
M  V30 2832 O 277.177 4.1195 -1.49094 0
M  V30 2833 C 278.678 4.42371 0.28681 0
M  V30 2834 H 275.898 0.661748 -0.111045 0
M  V30 2835 H 278.442 1.80987 -0.95205 0
M  V30 2836 H 276.597 3.84533 0.470472 0
M  V30 2837 H 277.011 5.06018 -1.38007 0
M  V30 2838 H 278.485 5.51344 0.26896 0
M  V30 2839 H 278.962 4.18699 1.32619 0
M  V30 2840 H 279.568 4.23897 -0.345201 0
M  V30 2841 N 277.883 0.443576 1.51229 0
M  V30 2842 C 278.846 -0.353132 2.26463 0
M  V30 2843 C 279.846 -0.944338 1.3015 0
M  V30 2844 O 281.036 -0.817813 1.5381 0
M  V30 2845 C 278.168 -1.50023 3.06114 0
M  V30 2846 H 279.361 0.3063 2.98332 0
M  V30 2847 H 276.914 0.196902 1.55055 0
M  V30 2848 H 277.649 -2.19553 2.38677 0
M  V30 2849 H 277.434 -1.08241 3.76864 0
M  V30 2850 H 278.924 -2.06296 3.63087 0
M  V30 2851 N 279.361 -1.56624 0.175154 0
M  V30 2852 C 280.61 -1.96173 -0.468921 0
M  V30 2853 C 280.923 -1.06401 -1.64128 0
M  V30 2854 O 282.129 -1.35648 -2.35185 0
M  V30 2855 C 280.585 -3.48833 -0.885633 0
M  V30 2856 C 280.193 -4.47237 0.261343 0
M  V30 2857 C 281.937 -3.97194 -1.49791 0
M  V30 2858 C 279.844 -5.9114 -0.175214 0
M  V30 2859 H 278.774 -0.732455 -0.178958 0
M  V30 2860 H 281.425 -1.81591 0.263997 0
M  V30 2861 H 279.807 -3.58848 -1.67464 0
M  V30 2862 H 280.981 -4.4894 1.03871 0
M  V30 2863 H 279.296 -4.08956 0.783827 0
M  V30 2864 H 281.893 -5.02167 -1.83665 0
M  V30 2865 H 282.236 -3.40351 -2.39722 0
M  V30 2866 H 282.769 -3.90212 -0.773267 0
M  V30 2867 H 279.508 -6.51865 0.689414 0
M  V30 2868 H 279.028 -5.92735 -0.91786 0
M  V30 2869 H 280.707 -6.44044 -0.617792 0
M  V30 2870 N 280.839 0.0985539 -1.57292 0
M  V30 2871 C 281.769 1.12064 -2.04851 0
M  V30 2872 C 282.75 1.41981 -0.936767 0
M  V30 2873 O 283.935 1.52071 -1.20781 0
M  V30 2874 C 281.065 2.44144 -2.47004 0
M  V30 2875 C 280.019 2.28643 -3.6181 0
M  V30 2876 C 279.345 3.65869 -3.89929 0
M  V30 2877 C 280.645 1.72986 -4.92822 0
M  V30 2878 H 282.339 0.724979 -2.9049 0
M  V30 2879 H 279.885 0.34729 -1.39749 0
M  V30 2880 H 281.838 3.15914 -2.78884 0
M  V30 2881 H 280.562 2.85639 -1.5836 0
M  V30 2882 H 279.221 1.59318 -3.30172 0
M  V30 2883 H 278.869 4.04885 -2.98458 0
M  V30 2884 H 278.569 3.56344 -4.67218 0
M  V30 2885 H 280.093 4.39112 -4.2428 0
M  V30 2886 H 281.507 2.34593 -5.23105 0
M  V30 2887 H 279.904 1.74229 -5.74251 0
M  V30 2888 H 280.974 0.689007 -4.7998 0
M  V30 2889 N 282.317 1.53212 0.369288 0
M  V30 2890 C 283.227 1.82342 1.47609 0
M  V30 2891 C 284.243 0.711532 1.58787 0
M  V30 2892 O 285.419 1.0012 1.74751 0
M  V30 2893 C 282.484 2.00393 2.8292 0
M  V30 2894 C 281.545 3.24297 2.81301 0
M  V30 2895 C 280.778 3.41478 4.10157 0
M  V30 2896 O 281.001 2.63033 5.06132 0
M  V30 2897 O 279.935 4.34817 4.16194 0
M  V30 2898 H 283.761 2.76366 1.25918 0
M  V30 2899 H 281.346 1.38547 0.559034 0
M  V30 2900 H 283.228 2.13859 3.63101 0
M  V30 2901 H 281.903 1.09559 3.04596 0
M  V30 2902 H 280.81 3.16257 1.99831 0
M  V30 2903 H 282.143 4.15041 2.64578 0
M  V30 2904 N 283.795 -0.628877 1.44509 0
M  V30 2905 C 285.02 -1.42048 1.5112 0
M  V30 2906 C 285.445 -1.87594 0.137818 0
M  V30 2907 O 284.803 -1.58873 -0.873437 0
M  V30 2908 C 284.851 -2.61541 2.48251 0
M  V30 2909 O 283.955 -3.61453 1.98559 0
M  V30 2910 H 283.296 -0.424942 0.510216 0
M  V30 2911 H 285.826 -0.767374 1.89664 0
M  V30 2912 H 285.836 -3.09057 2.66361 0
M  V30 2913 H 284.511 -2.27736 3.48007 0
M  V30 2914 H 283.088 -3.20731 1.90227 0
M  V30 2915 N 285.273 -1.31445 -0.869486 0
M  V30 2916 C 286.522 -1.20517 -1.61736 0
M  V30 2917 C 286.835 0.235341 -1.94179 0
M  V30 2918 O 288.041 0.466312 -2.67465 0
M  V30 2919 C 286.497 -2.10982 -2.91573 0
M  V30 2920 C 286.105 -3.60032 -2.66611 0
M  V30 2921 C 287.849 -2.08856 -3.69567 0
M  V30 2922 C 285.756 -4.42503 -3.92358 0
M  V30 2923 H 284.686 -0.447493 -0.606849 0
M  V30 2924 H 287.337 -1.56303 -0.96133 0
M  V30 2925 H 285.719 -1.68095 -3.58553 0
M  V30 2926 H 286.893 -4.11167 -2.08035 0
M  V30 2927 H 285.208 -3.64139 -2.0197 0
M  V30 2928 H 287.805 -2.67716 -4.62852 0
M  V30 2929 H 288.148 -1.07582 -4.02159 0
M  V30 2930 H 288.681 -2.49945 -3.09471 0
M  V30 2931 H 285.42 -5.44533 -3.64916 0
M  V30 2932 H 284.94 -3.96125 -4.50383 0
M  V30 2933 H 286.619 -4.54741 -4.60238 0
M  V30 2934 N 286.751 1.08385 -1.14413 0
M  V30 2935 C 287.661 2.18856 -0.844951 0
M  V30 2936 C 288.677 1.73121 0.174668 0
M  V30 2937 O 289.853 2.014 0.00312857 0
M  V30 2938 C 286.918 3.45155 -0.32696 0
M  V30 2939 C 285.979 4.05513 -1.40916 0
M  V30 2940 C 285.212 5.25784 -0.915793 0
M  V30 2941 O 285.435 5.69884 0.242651 0
M  V30 2942 O 284.369 5.77545 -1.69487 0
M  V30 2943 H 288.195 2.46919 -1.76818 0
M  V30 2944 H 285.78 1.17524 -0.922411 0
M  V30 2945 H 287.662 4.21377 -0.0440211 0
M  V30 2946 H 286.337 3.18668 0.568539 0
M  V30 2947 H 285.244 3.30879 -1.74556 0
M  V30 2948 H 286.577 4.3625 -2.27919 0
M  V30 2949 N 288.23 0.939286 1.26551 0
M  V30 2950 C 289.177 0.446088 2.26448 0
M  V30 2951 C 290.147 -0.493234 1.58608 0
M  V30 2952 O 291.332 -0.409857 1.86346 0
M  V30 2953 C 288.472 -0.284375 3.43926 0
M  V30 2954 C 287.585 0.690399 4.26448 0
M  V30 2955 C 286.72 -0.0610712 5.31165 0
M  V30 2956 C 285.759 0.905649 6.05363 0
M  V30 2957 N 284.896 0.186055 7.01853 0
M  V30 2958 H 289.736 1.30291 2.68008 0
M  V30 2959 H 287.273 0.65371 1.31776 0
M  V30 2960 H 289.231 -0.724313 4.10864 0
M  V30 2961 H 287.861 -1.10535 3.03285 0
M  V30 2962 H 286.913 1.24885 3.59316 0
M  V30 2963 H 288.225 1.42873 4.779 0
M  V30 2964 H 287.379 -0.56038 6.04106 0
M  V30 2965 H 286.118 -0.832297 4.80546 0
M  V30 2966 H 285.123 1.4161 5.3125 0
M  V30 2967 H 286.348 1.67685 6.58072 0
M  V30 2968 H 284.294 -0.566714 6.53548 0
M  V30 2969 H 284.211 0.863752 7.51049 0
M  V30 2970 H 285.479 -0.292221 7.78952 0
M  V30 2971 N 289.708 -1.40897 0.706093 0
M  V30 2972 C 290.618 -2.3455 0.0482286 0
M  V30 2973 C 291.634 -1.56796 -0.754396 0
M  V30 2974 O 292.81 -1.89228 -0.689538 0
M  V30 2975 C 289.875 -3.35625 -0.869303 0
M  V30 2976 C 288.936 -4.29261 -0.0576994 0
M  V30 2977 C 288.169 -5.25508 -0.931531 0
M  V30 2978 O 288.392 -5.27472 -2.17092 0
M  V30 2979 O 287.326 -6.00727 -0.375587 0
M  V30 2980 H 291.152 -2.92407 0.820476 0
M  V30 2981 H 288.737 -1.4193 0.4665 0
M  V30 2982 H 290.619 -3.97635 -1.39514 0
M  V30 2983 H 289.294 -2.80196 -1.62086 0
M  V30 2984 H 288.201 -3.70566 0.512988 0
M  V30 2985 H 289.534 -4.87817 0.655426 0
M  V30 2986 N 291.186 -0.45159 -1.50991 0
M  V30 2987 C 292.096 0.358431 -2.31846 0
M  V30 2988 C 293.112 1.01438 -1.41373 0
M  V30 2989 O 294.288 1.00663 -1.74439 0
M  V30 2990 C 291.353 1.43704 -3.15515 0
M  V30 2991 C 290.414 0.799742 -4.21785 0
M  V30 2992 C 289.647 1.82696 -5.01456 0
M  V30 2993 O 289.87 3.05105 -4.81941 0
M  V30 2994 O 288.804 1.40958 -5.85162 0
M  V30 2995 H 292.63 -0.302032 -3.02194 0
M  V30 2996 H 290.215 -0.213825 -1.47862 0
M  V30 2997 H 292.097 2.06227 -3.67489 0
M  V30 2998 H 290.772 2.08133 -2.47916 0
M  V30 2999 H 289.679 0.136084 -3.73852 0
M  V30 3000 H 291.012 0.198718 -4.91799 0
M  V30 3001 N 292.664 1.56529 -0.183458 0
M  V30 3002 C 293.612 2.19873 0.758845 0
M  V30 3003 C 294.606 1.16638 1.22849 0
M  V30 3004 O 295.812 1.3481 1.19274 0
M  V30 3005 H 292.187 0.7045 0.263029 0
M  V30 3006 H 294.158 2.97724 0.200755 0
M  V30 3007 C 292.907 2.86314 1.9728 0
M  V30 3008 H 292.23 3.65487 1.62047 0
M  V30 3009 H 293.67 3.3409 2.61075 0
M  V30 3010 C 292.129 1.86729 2.80418 0
M  V30 3011 O 292.659 1.36031 3.77966 0
M  V30 3012 N 290.865 1.55216 2.45675 0
M  V30 3013 H 290.412 1.96636 1.66409 0
M  V30 3014 H 290.37 0.888388 3.01588 0
M  V30 3015 N 294.142 -0.090211 1.57342 0
M  V30 3016 C 295.075 -1.14035 1.97664 0
M  V30 3017 C 296.053 -1.38576 0.850616 0
M  V30 3018 O 297.237 -1.52255 1.11134 0
M  V30 3019 C 294.364 -2.48854 2.2976 0
M  V30 3020 C 293.41 -2.40564 3.52181 0
M  V30 3021 S 294.243 -1.81745 5.03715 0
M  V30 3022 C 295.399 -3.18178 5.38993 0
M  V30 3023 H 295.632 -0.796636 2.86428 0
M  V30 3024 H 293.165 -0.298072 1.51496 0
M  V30 3025 H 295.123 -3.26413 2.48927 0
M  V30 3026 H 293.784 -2.80393 1.41558 0
M  V30 3027 H 292.977 -3.39942 3.72096 0
M  V30 3028 H 292.579 -1.71135 3.32549 0
M  V30 3029 H 294.871 -4.14461 5.35937 0
M  V30 3030 H 295.814 -3.03062 6.39968 0
M  V30 3031 H 296.222 -3.17935 4.66452 0
M  V30 3032 N 295.62 -1.53406 -0.361157 0
M  V30 3033 C 296.868 -1.69467 -1.10115 0
M  V30 3034 C 297.189 -0.451352 -1.89705 0
M  V30 3035 O 296.459 0.534636 -1.88463 0
M  V30 3036 H 295.039 -0.624749 -0.409508 0
M  V30 3037 H 297.701 -1.90609 -0.406699 0
M  V30 3038 H 296.797 -2.55774 -1.78847 0
M  V30 3039 N 297.098 0.621204 -1.44841 0
M  V30 3040 C 298.03 1.74615 -1.48466 0
M  V30 3041 C 299.043 1.58377 -0.37691 0
M  V30 3042 O 300.232 1.66508 -0.643215 0
M  V30 3043 C 297.332 3.12459 -1.31236 0
M  V30 3044 C 296.505 3.55064 -2.55438 0
M  V30 3045 C 295.564 4.71821 -2.32963 0
M  V30 3046 O 294.59 4.79628 -3.06505 0
M  V30 3047 N 295.792 5.64186 -1.36654 0
M  V30 3048 H 298.557 1.71973 -2.45449 0
M  V30 3049 H 296.118 0.806077 -1.40407 0
M  V30 3050 H 298.11 3.88302 -1.14032 0
M  V30 3051 H 296.68 3.09686 -0.4258 0
M  V30 3052 H 295.9 2.69324 -2.87851 0
M  V30 3053 H 297.188 3.80284 -3.38026 0
M  V30 3054 H 296.586 5.6058 -0.759344 0
M  V30 3055 H 295.143 6.39618 -1.25425 0
M  V30 3056 N 298.576 1.31904 0.862503 0
M  V30 3057 C 299.806 1.24817 1.64634 0
M  V30 3058 C 300.214 -0.187579 1.88268 0
M  V30 3059 O 299.557 -1.13253 1.44635 0
M  V30 3060 C 299.619 1.92996 3.03303 0
M  V30 3061 C 299.283 3.42336 3.02746 0
M  V30 3062 C 300.28 4.37956 2.80162 0
M  V30 3063 C 297.965 3.84147 3.2363 0
M  V30 3064 C 299.959 5.73361 2.78453 0
M  V30 3065 C 297.646 5.19663 3.21549 0
M  V30 3066 C 298.644 6.14081 2.98988 0
M  V30 3067 O 298.332 7.47118 2.96766 0
M  V30 3068 H 298.064 0.432222 0.519769 0
M  V30 3069 H 300.618 1.7445 1.08427 0
M  V30 3070 H 298.848 1.37922 3.61268 0
M  V30 3071 H 300.537 1.79723 3.63943 0
M  V30 3072 H 301.303 4.06981 2.63802 0
M  V30 3073 H 297.182 3.11083 3.40218 0
M  V30 3074 H 300.726 6.4703 2.60763 0
M  V30 3075 H 296.623 5.5027 3.37451 0
M  V30 3076 H 297.391 7.56382 3.12775 0
M  V30 3077 N 300.054 -1.07777 1.14986 0
M  V30 3078 C 301.303 -1.79669 0.916617 0
M  V30 3079 C 301.616 -1.87474 -0.557917 0
M  V30 3080 O 302.822 -2.55845 -0.908617 0
M  V30 3081 C 301.278 -3.22848 1.59051 0
M  V30 3082 C 300.886 -3.23257 3.10176 0
M  V30 3083 C 302.63 -3.99379 1.43864 0
M  V30 3084 C 300.537 -4.61063 3.70372 0
M  V30 3085 H 299.467 -0.673349 0.33929 0
M  V30 3086 H 302.118 -1.21003 1.37951 0
M  V30 3087 H 300.5 -3.8168 1.0553 0
M  V30 3088 H 301.674 -2.74095 3.70417 0
M  V30 3089 H 299.989 -2.60222 3.25074 0
M  V30 3090 H 302.586 -5.0122 1.86232 0
M  V30 3091 H 302.929 -4.14511 0.385564 0
M  V30 3092 H 303.462 -3.47032 1.94457 0
M  V30 3093 H 300.201 -4.51135 4.7556 0
M  V30 3094 H 299.721 -5.1048 3.14913 0
M  V30 3095 H 301.4 -5.30034 3.71043 0
M  V30 3096 N 301.532 -0.945985 -1.26051 0
M  V30 3097 C 302.442 -0.465633 -2.29933 0
M  V30 3098 C 303.458 0.462761 -1.67733 0
M  V30 3099 O 304.634 0.341118 -1.9849 0
M  V30 3100 C 301.699 0.256994 -3.45746 0
M  V30 3101 C 300.76 -0.708549 -4.23412 0
M  V30 3102 C 299.993 -0.0203135 -5.33696 0
M  V30 3103 O 300.216 1.19571 -5.57726 0
M  V30 3104 O 299.15 -0.701459 -5.97799 0
M  V30 3105 H 302.976 -1.32866 -2.73094 0
M  V30 3106 H 300.561 -0.712071 -1.31339 0
M  V30 3107 H 302.443 0.663852 -4.16138 0
M  V30 3108 H 301.118 1.09533 -3.04605 0
M  V30 3109 H 300.025 -1.16545 -3.55483 0
M  V30 3110 H 301.358 -1.51465 -4.68315 0
M  V30 3111 N 303.011 1.40521 -0.713556 0
M  V30 3112 C 304.241 2.0494 -0.261395 0
M  V30 3113 C 304.649 1.53861 1.10107 0
M  V30 3114 O 303.992 0.689321 1.70276 0
M  V30 3115 C 304.054 3.59138 -0.161227 0
M  V30 3116 C 303.718 4.33096 -1.45865 0
M  V30 3117 C 304.715 4.61182 -2.40016 0
M  V30 3118 C 302.4 4.72043 -1.71701 0
M  V30 3119 C 304.394 5.27196 -3.58251 0
M  V30 3120 C 302.081 5.37789 -2.90218 0
M  V30 3121 C 303.079 5.65295 -3.83315 0
M  V30 3122 O 302.767 6.29683 -4.99754 0
M  V30 3123 H 302.499 0.666041 -0.115608 0
M  V30 3124 H 305.053 1.80954 -0.971849 0
M  V30 3125 H 303.283 3.81936 0.605153 0
M  V30 3126 H 304.972 4.05091 0.256105 0
M  V30 3127 H 305.738 4.31559 -2.21318 0
M  V30 3128 H 301.617 4.50003 -1.00092 0
M  V30 3129 H 305.161 5.48582 -4.30934 0
M  V30 3130 H 301.058 5.66831 -3.08825 0
M  V30 3131 H 301.826 6.4818 -4.99805 0
M  V30 3132 N 304.489 0.459591 1.5075 0
M  V30 3133 C 305.436 -0.340524 2.28274 0
M  V30 3134 C 306.406 -0.997371 1.32822 0
M  V30 3135 O 307.591 -1.01202 1.61749 0
M  V30 3136 C 304.731 -1.42317 3.14388 0
M  V30 3137 C 303.844 -0.782251 4.24859 0
M  V30 3138 C 302.979 -1.84182 4.98247 0
M  V30 3139 C 302.018 -1.18053 6.00608 0
M  V30 3140 N 301.155 -2.18244 6.67319 0
M  V30 3141 H 305.995 0.326899 2.96202 0
M  V30 3142 H 303.532 0.173057 1.46078 0
M  V30 3143 H 305.49 -2.06241 3.62658 0
M  V30 3144 H 304.12 -2.05992 2.4853 0
M  V30 3145 H 303.172 -0.0307404 3.80388 0
M  V30 3146 H 304.484 -0.259663 4.98124 0
M  V30 3147 H 303.638 -2.55714 5.50177 0
M  V30 3148 H 302.377 -2.39819 4.24662 0
M  V30 3149 H 301.382 -0.450776 5.47949 0
M  V30 3150 H 302.607 -0.631202 6.7616 0
M  V30 3151 H 300.553 -2.72919 5.96533 0
M  V30 3152 H 300.47 -1.70938 7.36421 0
M  V30 3153 H 301.738 -2.89191 7.23871 0
M  V30 3154 N 305.967 -1.56429 0.191757 0
M  V30 3155 C 307.244 -1.89224 -0.495332 0
M  V30 3156 C 307.624 -1.10478 -1.79883 0
M  V30 3157 O 306.972 -0.204852 -2.2758 0
M  V30 3158 C 307.182 -3.41548 -0.717367 0
M  V30 3159 C 308.53 -4.11711 -1.03823 0
M  V30 3160 O 309.554 -3.4698 -0.805204 0
M  V30 3161 O 308.413 -5.2611 -1.47887 0
M  V30 3162 H 305.507 -0.785788 -0.25781 0
M  V30 3163 H 308.053 -1.68111 0.231721 0
M  V30 3164 H 306.825 -3.90772 0.203287 0
M  V30 3165 H 306.448 -3.68342 -1.497 0
M  V30 3166 N 307.445 0.0818655 -1.57387 0
M  V30 3167 C 308.395 1.10501 -1.99433 0
M  V30 3168 C 309.379 1.35041 -0.874798 0
M  V30 3169 O 310.571 1.35511 -1.13868 0
M  V30 3170 C 307.7 2.42159 -2.43339 0
M  V30 3171 C 306.786 2.20937 -3.62005 0
M  V30 3172 N 307.177 1.69616 -4.76512 0
M  V30 3173 C 305.475 2.51451 -3.68359 0
M  V30 3174 C 306.176 1.62973 -5.58404 0
M  V30 3175 N 305.152 2.08664 -5.01956 0
M  V30 3176 H 308.954 0.701373 -2.85408 0
M  V30 3177 H 306.468 0.289096 -1.59806 0
M  V30 3178 H 308.465 3.16208 -2.71695 0
M  V30 3179 H 307.125 2.83249 -1.58746 0
M  V30 3180 H 308.136 1.38624 -4.99003 0
M  V30 3181 H 304.813 2.95975 -2.94457 0
M  V30 3182 H 306.203 1.24233 -6.60315 0
M  V30 3183 N 308.923 1.53595 0.353017 0
M  V30 3184 C 310.172 1.69603 1.09168 0
M  V30 3185 C 310.485 0.460925 1.90092 0
M  V30 3186 O 311.691 0.501774 2.66823 0
M  V30 3187 C 310.147 2.99872 1.9901 0
M  V30 3188 C 309.755 4.30687 1.23339 0
M  V30 3189 C 311.499 3.25246 2.72792 0
M  V30 3190 C 309.406 5.52036 2.12156 0
M  V30 3191 H 308.336 0.631966 0.411261 0
M  V30 3192 H 310.987 1.80096 0.351802 0
M  V30 3193 H 309.369 2.83212 2.7678 0
M  V30 3194 H 310.543 4.58019 0.505456 0
M  V30 3195 H 308.858 4.11853 0.613663 0
M  V30 3196 H 311.455 4.13095 3.39495 0
M  V30 3197 H 311.798 2.41846 3.38846 0
M  V30 3198 H 312.331 3.42638 2.021 0
M  V30 3199 H 309.07 6.37951 1.50659 0
M  V30 3200 H 308.59 5.28966 2.82764 0
M  V30 3201 H 310.269 5.87313 2.71427 0
M  V30 3202 N 310.401 -0.613514 1.45168 0
M  V30 3203 C 311.348 -1.72456 1.53387 0
M  V30 3204 C 312.318 -1.6169 0.380191 0
M  V30 3205 O 313.503 -1.81356 0.592836 0
M  V30 3206 C 310.643 -3.10753 1.50088 0
M  V30 3207 C 309.756 -3.32368 2.75963 0
M  V30 3208 C 308.891 -4.60737 2.64376 0
M  V30 3209 C 307.93 -4.7559 3.85332 0
M  V30 3210 N 307.067 -5.95253 3.72315 0
M  V30 3211 H 311.907 -1.64768 2.48305 0
M  V30 3212 H 309.444 -0.803503 1.23216 0
M  V30 3213 H 311.402 -3.90758 1.46164 0
M  V30 3214 H 310.032 -3.17413 0.587243 0
M  V30 3215 H 309.084 -2.4618 2.89999 0
M  V30 3216 H 310.396 -3.39218 3.65695 0
M  V30 3217 H 309.55 -5.48928 2.58385 0
M  V30 3218 H 308.289 -4.56275 1.72233 0
M  V30 3219 H 307.294 -3.85824 3.91688 0
M  V30 3220 H 308.519 -4.81854 4.78533 0
M  V30 3221 H 306.465 -5.91847 2.82937 0
M  V30 3222 H 306.382 -6.03236 4.55677 0
M  V30 3223 H 307.65 -6.85958 3.70246 0
M  V30 3224 N 311.879 -1.3236 -0.855495 0
M  V30 3225 C 313.156 -1.13491 -1.59309 0
M  V30 3226 C 313.536 0.30503 -2.08885 0
M  V30 3227 O 312.884 1.30151 -1.87811 0
M  V30 3228 C 313.094 -2.16176 -2.73987 0
M  V30 3229 C 314.442 -2.49463 -3.43589 0
M  V30 3230 O 315.466 -2.14715 -2.84211 0
M  V30 3231 O 314.325 -3.09027 -4.50738 0
M  V30 3232 H 311.419 -0.437887 -0.701559 0
M  V30 3233 H 313.965 -1.43887 -0.899696 0
M  V30 3234 H 312.737 -3.1297 -2.34873 0
M  V30 3235 H 312.36 -1.86769 -3.51003 0
M  V30 3236 N 313.357 1.07166 -1.15556 0
M  V30 3237 C 314.29 2.13808 -0.797593 0
M  V30 3238 C 315.268 1.6101 0.226812 0
M  V30 3239 O 316.452 1.88161 0.112932 0
M  V30 3240 C 313.579 3.38187 -0.186371 0
M  V30 3241 C 312.625 4.09766 -1.18297 0
M  V30 3242 S 313.458 4.60932 -2.72584 0
M  V30 3243 C 314.614 5.88583 -2.12886 0
M  V30 3244 H 314.847 2.43843 -1.70083 0
M  V30 3245 H 312.38 1.19467 -0.978106 0
M  V30 3246 H 314.338 4.10189 0.159837 0
M  V30 3247 H 312.999 3.06326 0.694489 0
M  V30 3248 H 312.192 4.99065 -0.703562 0
M  V30 3249 H 311.794 3.43736 -1.47381 0
M  V30 3250 H 314.086 6.60866 -1.49208 0
M  V30 3251 H 315.029 6.41241 -3.0036 0
M  V30 3252 H 315.437 5.42194 -1.57116 0
M  V30 3253 N 314.835 0.952656 1.25548 0
M  V30 3254 C 316.084 0.602053 1.92505 0
M  V30 3255 C 316.397 -0.864663 1.75451 0
M  V30 3256 O 317.603 -1.32514 2.36965 0
M  V30 3257 C 316.059 1.02607 3.44963 0
M  V30 3258 C 315.667 2.51519 3.70732 0
M  V30 3259 C 317.411 0.747905 4.1786 0
M  V30 3260 C 315.318 2.87732 5.16686 0
M  V30 3261 H 314.248 0.22146 0.720744 0
M  V30 3262 H 316.899 1.15684 1.42441 0
M  V30 3263 H 315.281 0.399712 3.93978 0
M  V30 3264 H 316.455 3.19157 3.32378 0
M  V30 3265 H 314.77 2.76786 3.11092 0
M  V30 3266 H 317.367 0.994647 5.25367 0
M  V30 3267 H 317.71 -0.315629 4.15102 0
M  V30 3268 H 318.243 1.33452 3.74747 0
M  V30 3269 H 314.982 3.93095 5.24554 0
M  V30 3270 H 314.502 2.24765 5.56094 0
M  V30 3271 H 316.181 2.76817 5.84792 0
M  V30 3272 N 316.313 -1.40141 0.720998 0
M  V30 3273 C 317.26 -2.30688 0.071919 0
M  V30 3274 C 318.23 -1.48476 -0.744584 0
M  V30 3275 O 319.415 -1.77201 -0.707423 0
M  V30 3276 C 316.555 -3.34724 -0.839855 0
M  V30 3277 C 315.668 -4.31998 -0.0122438 0
M  V30 3278 C 314.803 -5.23102 -0.923995 0
M  V30 3279 C 313.842 -6.12033 -0.0907969 0
M  V30 3280 N 312.979 -6.95537 -0.957718 0
M  V30 3281 H 317.819 -2.85628 0.849755 0
M  V30 3282 H 315.356 -1.40653 0.430726 0
M  V30 3283 H 317.314 -3.93618 -1.38279 0
M  V30 3284 H 315.944 -2.81274 -1.58381 0
M  V30 3285 H 314.996 -3.74841 0.64794 0
M  V30 3286 H 316.308 -4.94772 0.632595 0
M  V30 3287 H 315.462 -5.86953 -1.53527 0
M  V30 3288 H 314.201 -4.60615 -1.60264 0
M  V30 3289 H 313.206 -5.47207 0.533377 0
M  V30 3290 H 314.431 -6.76581 0.584428 0
M  V30 3291 H 312.377 -6.35633 -1.62192 0
M  V30 3292 H 312.294 -7.55099 -0.36904 0
M  V30 3293 H 313.562 -7.63832 -1.555 0
M  V30 3294 N 317.792 -0.46758 -1.50504 0
M  V30 3295 C 319.022 0.086288 -2.0642 0
M  V30 3296 C 319.43 1.34369 -1.33197 0
M  V30 3297 O 318.773 1.79431 -0.393747 0
M  V30 3298 C 318.835 0.443846 -3.5675 0
M  V30 3299 C 318.499 -0.711035 -4.51435 0
M  V30 3300 C 319.496 -1.59205 -4.94924 0
M  V30 3301 C 317.181 -0.900363 -4.94165 0
M  V30 3302 C 319.175 -2.64683 -5.79846 0
M  V30 3303 C 316.862 -1.95837 -5.7887 0
M  V30 3304 C 317.86 -2.82997 -6.21612 0
M  V30 3305 O 317.548 -3.86977 -7.0463 0
M  V30 3306 H 317.28 -0.00217814 -0.675996 0
M  V30 3307 H 319.834 -0.654346 -1.94698 0
M  V30 3308 H 318.064 1.23762 -3.6636 0
M  V30 3309 H 319.753 0.932386 -3.95046 0
M  V30 3310 H 320.519 -1.45745 -4.62583 0
M  V30 3311 H 316.398 -0.231427 -4.60419 0
M  V30 3312 H 319.942 -3.32745 -6.13128 0
M  V30 3313 H 315.839 -2.09305 -6.10624 0
M  V30 3314 H 316.607 -3.83923 -7.22873 0
M  V30 3315 N 319.27 1.56325 -0.20005 0
M  V30 3316 C 320.5 2.01811 0.442232 0
M  V30 3317 C 320.908 1.07932 1.55394 0
M  V30 3318 O 320.251 0.0772685 1.83537 0
M  V30 3319 C 320.313 3.43685 1.05457 0
M  V30 3320 C 319.977 4.56928 0.0809833 0
M  V30 3321 C 320.974 5.15009 -0.711471 0
M  V30 3322 C 318.659 5.0229 -0.0315364 0
M  V30 3323 C 320.653 6.16904 -1.60336 0
M  V30 3324 C 318.34 6.04028 -0.926981 0
M  V30 3325 C 319.338 6.6121 -1.71146 0
M  V30 3326 O 319.026 7.60971 -2.59189 0
M  V30 3327 H 318.758 0.666173 0.114848 0
M  V30 3328 H 321.312 2.03085 -0.307511 0
M  V30 3329 H 319.542 3.39413 1.85299 0
M  V30 3330 H 321.231 3.72948 1.60201 0
M  V30 3331 H 321.997 4.80827 -0.634873 0
M  V30 3332 H 317.876 4.57476 0.568902 0
M  V30 3333 H 321.42 6.61464 -2.21611 0
M  V30 3334 H 317.317 6.37634 -1.00468 0
M  V30 3335 H 318.085 7.7841 -2.53023 0
M  V30 3336 N 320.748 -0.0735177 1.57428 0
M  V30 3337 C 321.996 -0.771472 1.86796 0
M  V30 3338 C 322.317 -1.78201 0.791804 0
M  V30 3339 O 321.587 -1.95074 -0.179718 0
M  V30 3340 H 320.167 -0.28791 0.689287 0
M  V30 3341 H 322.829 -0.0500161 1.94836 0
M  V30 3342 H 321.925 -1.28874 2.8425 0
M  V30 3343 N 322.226 -1.5378 -0.344866 0
M  V30 3344 C 323.475 -1.7018 -1.08267 0
M  V30 3345 C 323.788 -0.471 -1.89845 0
M  V30 3346 O 324.994 -0.515917 -2.66553 0
M  V30 3347 C 323.45 -3.00923 -1.97417 0
M  V30 3348 C 323.058 -4.31335 -1.21053 0
M  V30 3349 C 324.802 -3.26688 -2.71063 0
M  V30 3350 C 322.709 -5.53153 -2.09225 0
M  V30 3351 H 321.639 -0.634138 -0.407903 0
M  V30 3352 H 324.29 -1.8028 -0.342246 0
M  V30 3353 H 322.672 -2.84676 -2.75274 0
M  V30 3354 H 323.846 -4.58281 -0.481159 0
M  V30 3355 H 322.161 -4.12173 -0.591813 0
M  V30 3356 H 324.758 -4.1489 -3.37299 0
M  V30 3357 H 325.101 -2.43639 -3.37558 0
M  V30 3358 H 325.634 -3.43705 -2.0028 0
M  V30 3359 H 322.373 -6.38741 -1.47274 0
M  V30 3360 H 321.893 -5.30458 -2.79955 0
M  V30 3361 H 323.572 -5.88744 -2.68308 0
M  V30 3362 N 323.704 0.605807 -1.45491 0
M  V30 3363 C 324.634 1.72709 -1.57143 0
M  V30 3364 C 325.615 1.6476 -0.422884 0
M  V30 3365 O 326.8 1.83132 -0.646247 0
M  V30 3366 C 323.93 3.11316 -1.53948 0
M  V30 3367 C 322.884 3.34077 -2.67537 0
M  V30 3368 C 322.21 4.72975 -2.49397 0
M  V30 3369 C 323.51 3.24158 -4.09535 0
M  V30 3370 H 325.204 1.63214 -2.51001 0
M  V30 3371 H 322.75 0.78379 -1.208 0
M  V30 3372 H 324.703 3.89557 -1.60696 0
M  V30 3373 H 323.427 3.21655 -0.566205 0
M  V30 3374 H 322.086 2.58227 -2.6022 0
M  V30 3375 H 321.734 4.8005 -1.50205 0
M  V30 3376 H 321.434 4.8916 -3.25571 0
M  V30 3377 H 322.958 5.53414 -2.58002 0
M  V30 3378 H 324.372 3.92271 -4.18086 0
M  V30 3379 H 322.769 3.51872 -4.86113 0
M  V30 3380 H 323.839 2.2157 -4.31317 0
M  V30 3381 N 325.182 1.32811 0.848464 0
M  V30 3382 C 326.459 1.14334 1.58704 0
M  V30 3383 C 326.839 -0.293948 2.09043 0
M  V30 3384 O 326.187 -1.29153 1.88499 0
M  V30 3385 C 326.397 2.17626 2.72837 0
M  V30 3386 C 327.745 2.51282 3.42261 0
M  V30 3387 O 328.769 2.16219 2.83068 0
M  V30 3388 O 327.628 3.11413 4.49093 0
M  V30 3389 H 324.722 0.441601 0.699226 0
M  V30 3390 H 327.268 1.44362 0.892053 0
M  V30 3391 H 326.04 3.14211 2.3321 0
M  V30 3392 H 325.663 1.88628 3.50008 0
M  V30 3393 N 326.66 -1.06551 1.16123 0
M  V30 3394 C 328.071 -1.60768 0.949232 0
M  V30 3395 C 328.422 -1.89523 -0.507508 0
M  V30 3396 O 327.547 -1.66671 -1.38021 0
M  V30 3397 C 328.142 -2.92086 1.71671 0
M  V30 3398 C 326.701 -3.43015 1.54977 0
M  V30 3399 C 325.848 -2.16947 1.72711 0
M  V30 3400 H 328.799 -0.895354 1.31031 0
M  V30 3401 H 328.82 -3.6138 1.19099 0
M  V30 3402 H 328.332 -2.71127 2.7769 0
M  V30 3403 H 326.433 -3.69039 0.513873 0
M  V30 3404 H 326.546 -4.18516 2.33198 0
M  V30 3405 H 324.91 -2.27041 1.15431 0
M  V30 3406 H 325.693 -1.98473 2.80113 0
M  V30 3407 N 328.138 -0.959301 -1.25041 0
M  V30 3408 C 329.549 -0.65667 -1.74771 0
M  V30 3409 C 329.9 0.827852 -1.77879 0
M  V30 3410 O 329.025 1.64783 -1.40269 0
M  V30 3411 C 329.62 -1.1853 -3.1739 0
M  V30 3412 C 328.179 -0.932734 -3.6466 0
M  V30 3413 C 327.326 -1.32558 -2.43564 0
M  V30 3414 H 330.277 -1.13558 -1.10862 0
M  V30 3415 H 330.298 -0.547582 -3.76539 0
M  V30 3416 H 329.81 -2.26576 -3.15095 0
M  V30 3417 H 327.911 0.13257 -3.72364 0
M  V30 3418 H 328.024 -1.57248 -4.52559 0
M  V30 3419 H 326.388 -0.743956 -2.43593 0
M  V30 3420 H 327.171 -2.41537 -2.43957 0
M  V30 3421 N 329.616 1.39756 -0.72842 0
M  V30 3422 C 330.546 2.33289 -0.0991354 0
M  V30 3423 C 331.527 1.53568 0.731489 0
M  V30 3424 O 332.712 1.81987 0.677807 0
M  V30 3425 C 329.842 3.3763 0.813834 0
M  V30 3426 C 328.796 4.2791 0.0878663 0
M  V30 3427 C 328.122 5.22894 1.11741 0
M  V30 3428 C 329.422 5.11314 -1.06563 0
M  V30 3429 H 331.116 2.86163 -0.880408 0
M  V30 3430 H 328.662 1.37591 -0.424819 0
M  V30 3431 H 330.615 4.0201 1.26355 0
M  V30 3432 H 329.339 2.83181 1.62715 0
M  V30 3433 H 327.998 3.65 -0.342159 0
M  V30 3434 H 327.646 4.64744 1.92412 0
M  V30 3435 H 327.346 5.84143 0.636477 0
M  V30 3436 H 328.87 5.90151 1.56697 0
M  V30 3437 H 330.284 5.69076 -0.694671 0
M  V30 3438 H 328.681 5.81671 -1.47577 0
M  V30 3439 H 329.751 4.46534 -1.89038 0
M  V30 3440 N 331.094 0.475555 1.50254 0
M  V30 3441 C 332.343 -0.0795996 2.01543 0
M  V30 3442 C 332.656 -1.4038 1.36209 0
M  V30 3443 O 333.862 -2.04415 1.7868 0
M  V30 3444 C 332.318 -0.192363 3.59386 0
M  V30 3445 C 331.926 1.12367 4.33679 0
M  V30 3446 C 333.67 -0.699238 4.18701 0
M  V30 3447 C 331.577 0.974453 5.83317 0
M  V30 3448 H 330.507 -0.0335228 0.753254 0
M  V30 3449 H 333.158 0.611128 1.73025 0
M  V30 3450 H 331.54 -0.946974 3.84511 0
M  V30 3451 H 332.714 1.88958 4.20276 0
M  V30 3452 H 331.029 1.562 3.85993 0
M  V30 3453 H 333.626 -0.827978 5.28251 0
M  V30 3454 H 333.969 -1.69171 3.80377 0
M  V30 3455 H 334.502 -0.00188807 3.978 0
M  V30 3456 H 331.241 1.94042 6.26121 0
M  V30 3457 H 330.761 0.248998 5.99283 0
M  V30 3458 H 332.44 0.642867 6.43798 0
M  V30 3459 N 332.573 -1.56217 0.208337 0
M  V30 3460 C 333.536 -2.18455 -0.693557 0
M  V30 3461 C 334.536 -1.14268 -1.13135 0
M  V30 3462 O 335.726 -1.39577 -1.0423 0
M  V30 3463 C 332.858 -2.79727 -1.94848 0
M  V30 3464 H 334.051 -2.99519 -0.15114 0
M  V30 3465 H 331.604 -1.56245 -0.041287 0
M  V30 3466 H 332.339 -2.02497 -2.53309 0
M  V30 3467 H 332.124 -3.56009 -1.64316 0
M  V30 3468 H 333.614 -3.27475 -2.59133 0
M  V30 3469 N 334.051 0.0651679 -1.57465 0
M  V30 3470 C 334.999 1.09542 -2.05191 0
M  V30 3471 C 335.993 1.39675 -0.958509 0
M  V30 3472 O 337.199 1.39003 -1.14359 0
M  V30 3473 H 333.574 0.370623 -0.654326 0
M  V30 3474 H 335.545 0.666802 -2.90854 0
M  V30 3475 C 334.294 2.39881 -2.51699 0
M  V30 3476 H 333.617 2.17547 -3.3543 0
M  V30 3477 H 335.057 3.104 -2.88839 0
M  V30 3478 C 333.516 3.0631 -1.40271 0
M  V30 3479 O 334.046 3.94664 -0.748523 0
M  V30 3480 N 332.252 2.67041 -1.14618 0
M  V30 3481 H 331.799 1.95281 -1.67997 0
M  V30 3482 H 331.757 3.1181 -0.402688 0
M  V30 3483 N 335.529 1.53961 0.336706 0
M  V30 3484 C 336.777 1.71197 1.07405 0
M  V30 3485 C 337.098 0.481475 1.88962 0
M  V30 3486 O 336.368 -0.504585 1.8929 0
M  V30 3487 H 334.948 0.631185 0.399517 0
M  V30 3488 H 337.61 1.91232 0.376323 0
M  V30 3489 H 336.706 2.58587 1.74755 0
M  V30 3490 N 337.007 -0.598083 1.45811 0
M  V30 3491 C 337.937 -1.71873 1.58057 0
M  V30 3492 C 338.918 -1.64533 0.431615 0
M  V30 3493 O 340.103 -1.82787 0.65595 0
M  V30 3494 C 337.233 -3.10495 1.55597 0
M  V30 3495 C 336.187 -3.32654 2.69305 0
M  V30 3496 C 335.513 -4.71646 2.51902 0
M  V30 3497 C 336.813 -3.21981 4.11248 0
M  V30 3498 H 338.507 -1.61881 2.51863 0
M  V30 3499 H 336.053 -0.777372 1.21214 0
M  V30 3500 H 338.006 -3.88699 1.6276 0
M  V30 3501 H 336.73 -3.2135 0.583255 0
M  V30 3502 H 335.389 -2.56843 2.61586 0
M  V30 3503 H 335.037 -4.79246 1.52748 0
M  V30 3504 H 334.737 -4.87426 3.2816 0
M  V30 3505 H 336.261 -5.52038 2.60933 0
M  V30 3506 H 337.675 -3.90049 4.20161 0
M  V30 3507 H 336.072 -3.49289 4.87972 0
M  V30 3508 H 337.142 -2.1928 4.32486 0
M  V30 3509 N 338.485 -1.33259 -0.841409 0
M  V30 3510 C 339.734 -1.23921 -1.59143 0
M  V30 3511 C 340.047 0.1941 -1.94635 0
M  V30 3512 O 341.253 0.409474 -2.68394 0
M  V30 3513 C 339.709 -2.17119 -2.87032 0
M  V30 3514 C 339.317 -3.65606 -2.58914 0
M  V30 3515 C 341.061 -2.16648 -3.65053 0
M  V30 3516 C 338.968 -4.50726 -3.82884 0
M  V30 3517 H 337.898 -0.460264 -0.597221 0
M  V30 3518 H 340.549 -1.58307 -0.927959 0
M  V30 3519 H 338.931 -1.75663 -3.54906 0
M  V30 3520 H 340.105 -4.15487 -1.99267 0
M  V30 3521 H 338.42 -3.68341 -1.942 0
M  V30 3522 H 341.017 -2.77474 -4.57069 0
M  V30 3523 H 341.36 -1.16088 -3.99787 0
M  V30 3524 H 341.893 -2.56453 -3.041 0
M  V30 3525 H 338.632 -5.52151 -3.53283 0
M  V30 3526 H 338.152 -4.0559 -4.41879 0
M  V30 3527 H 339.831 -4.64401 -4.50489 0
M  V30 3528 N 339.963 1.05934 -1.16686 0
M  V30 3529 C 341.191 1.8249 -0.974929 0
M  V30 3530 C 341.606 1.82679 0.476861 0
M  V30 3531 O 340.963 1.2486 1.33103 0
M  V30 3532 C 341.014 3.28943 -1.49929 0
M  V30 3533 O 340.735 3.28886 -2.89423 0
M  V30 3534 C 342.236 4.22215 -1.35089 0
M  V30 3535 H 339.456 0.575295 -0.345365 0
M  V30 3536 H 342 1.33631 -1.548 0
M  V30 3537 H 340.155 3.751 -0.968423 0
M  V30 3538 H 340.569 4.20493 -3.13506 0
M  V30 3539 H 342.043 5.22987 -1.76603 0
M  V30 3540 H 342.52 4.38195 -0.296935 0
M  V30 3541 H 343.126 3.81907 -1.87155 0
M  V30 3542 N 341.441 0.965919 1.2453 0
M  V30 3543 C 342.371 0.513476 2.27784 0
M  V30 3544 C 343.352 -0.445974 1.6415 0
M  V30 3545 O 344.537 -0.342485 1.91156 0
M  V30 3546 C 341.667 -0.198839 3.4673 0
M  V30 3547 C 340.621 0.676456 4.2262 0
M  V30 3548 C 339.947 -0.167248 5.34438 0
M  V30 3549 C 341.247 1.96017 4.84123 0
M  V30 3550 H 342.941 1.3765 2.65881 0
M  V30 3551 H 340.487 0.663321 1.27813 0
M  V30 3552 H 342.44 -0.526567 4.18097 0
M  V30 3553 H 341.164 -1.0962 3.07654 0
M  V30 3554 H 339.823 0.98743 3.53052 0
M  V30 3555 H 339.471 -1.0647 4.91603 0
M  V30 3556 H 339.171 0.415181 5.86131 0
M  V30 3557 H 340.695 -0.489688 6.08633 0
M  V30 3558 H 342.109 1.69814 5.47573 0
M  V30 3559 H 340.506 2.48918 5.4604 0
M  V30 3560 H 341.576 2.65622 4.05676 0
M  V30 3561 N 342.919 -1.39368 0.735821 0
M  V30 3562 C 344.168 -1.99733 0.281004 0
M  V30 3563 C 344.481 -1.59055 -1.13846 0
M  V30 3564 O 345.687 -2.12262 -1.69284 0
M  V30 3565 C 344.143 -3.57057 0.451462 0
M  V30 3566 C 343.751 -4.06697 1.87886 0
M  V30 3567 C 345.495 -4.2446 0.0584616 0
M  V30 3568 C 343.402 -5.56598 1.99883 0
M  V30 3569 H 342.332 -0.747163 0.101311 0
M  V30 3570 H 344.983 -1.59357 0.909819 0
M  V30 3571 H 343.365 -3.95234 -0.246263 0
M  V30 3572 H 344.539 -3.79853 2.60861 0
M  V30 3573 H 342.854 -3.5196 2.22515 0
M  V30 3574 H 345.451 -5.34549 0.127099 0
M  V30 3575 H 345.794 -4.04444 -0.986433 0
M  V30 3576 H 346.327 -3.9146 0.707374 0
M  V30 3577 H 343.066 -5.81494 3.02564 0
M  V30 3578 H 342.586 -5.85242 1.31346 0
M  V30 3579 H 344.265 -6.22022 1.78039 0
M  V30 3580 N 344.397 -0.483516 -1.5 0
M  V30 3581 C 345.307 0.309172 -2.32554 0
M  V30 3582 C 346.323 0.984159 -1.43493 0
M  V30 3583 O 347.499 0.969399 -1.76535 0
M  V30 3584 C 344.564 1.36979 -3.18493 0
M  V30 3585 C 343.625 0.710095 -4.23387 0
M  V30 3586 C 342.858 1.72018 -5.05218 0
M  V30 3587 O 343.081 2.94813 -4.88305 0
M  V30 3588 O 342.015 1.28515 -5.8802 0
M  V30 3589 H 345.841 -0.366064 -3.01486 0
M  V30 3590 H 343.426 -0.24514 -1.47375 0
M  V30 3591 H 345.308 1.98385 -3.71781 0
M  V30 3592 H 343.983 2.02828 -2.52275 0
M  V30 3593 H 342.89 0.0567539 -3.74057 0
M  V30 3594 H 344.223 0.0943557 -4.9211 0
M  V30 3595 N 345.875 1.56104 -0.216619 0
M  V30 3596 C 347.152 1.89988 0.465165 0
M  V30 3597 C 347.532 1.13326 1.78102 0
M  V30 3598 O 346.88 0.241033 2.27225 0
M  V30 3599 C 347.09 3.42646 0.662939 0
M  V30 3600 C 348.438 4.13311 0.972602 0
M  V30 3601 O 349.462 3.48217 0.749901 0
M  V30 3602 O 348.321 5.28396 1.39499 0
M  V30 3603 H 345.415 0.78979 0.245276 0
M  V30 3604 H 347.961 1.67721 -0.258436 0
M  V30 3605 H 346.733 3.90399 -0.26543 0
M  V30 3606 H 346.356 3.70677 1.43821 0
M  V30 3607 N 347.353 -0.0568162 1.57498 0
M  V30 3608 C 348.63 -0.786954 1.79071 0
M  V30 3609 C 349.01 -1.95028 0.80792 0
M  V30 3610 O 348.358 -2.27968 -0.155858 0
M  V30 3611 C 348.568 -1.24594 3.26002 0
M  V30 3612 C 349.916 -1.67323 3.90241 0
M  V30 3613 O 350.94 -1.34124 3.29984 0
M  V30 3614 O 349.799 -2.28842 4.9628 0
M  V30 3615 H 346.893 -0.378262 0.735423 0
M  V30 3616 H 349.439 -0.035734 1.69662 0
M  V30 3617 H 348.211 -0.41423 3.89101 0
M  V30 3618 H 347.834 -2.05803 3.40192 0
M  V30 3619 N 348.832 -1.54138 -0.328536 0
M  V30 3620 C 349.795 -1.82462 -1.38709 0
M  V30 3621 C 350.795 -0.696229 -1.44946 0
M  V30 3622 O 351.985 -0.964535 -1.4506 0
M  V30 3623 C 349.117 -1.98018 -2.77492 0
M  V30 3624 H 350.31 -2.77037 -1.14851 0
M  V30 3625 H 347.863 -1.45779 -0.563751 0
M  V30 3626 H 348.598 -1.05637 -3.06613 0
M  V30 3627 H 348.383 -2.80124 -2.74359 0
M  V30 3628 H 349.873 -2.21396 -3.54081 0
M  V30 3629 N 350.31 0.590341 -1.46126 0
M  V30 3630 C 351.24 1.71032 -1.58966 0
M  V30 3631 C 352.221 1.64302 -0.440335 0
M  V30 3632 O 353.406 1.82436 -0.665634 0
M  V30 3633 C 350.536 3.09665 -1.57241 0
M  V30 3634 C 349.49 3.31221 -2.71066 0
M  V30 3635 C 348.816 4.70303 -2.54399 0
M  V30 3636 C 350.116 3.19796 -4.1295 0
M  V30 3637 H 351.81 1.60543 -2.52718 0
M  V30 3638 H 349.356 0.770933 -1.21625 0
M  V30 3639 H 351.309 3.87831 -1.64819 0
M  V30 3640 H 350.033 3.21036 -0.600289 0
M  V30 3641 H 348.692 2.55452 -2.62944 0
M  V30 3642 H 348.34 4.78429 -1.55288 0
M  V30 3643 H 348.04 4.85679 -3.30741 0
M  V30 3644 H 349.564 5.50647 -2.63857 0
M  V30 3645 H 350.978 3.87815 -4.22223 0
M  V30 3646 H 349.375 3.46696 -4.89818 0
M  V30 3647 H 350.445 2.16983 -4.33643 0
M  V30 3648 N 351.788 1.33704 0.83433 0
M  V30 3649 C 352.736 1.24323 1.96587 0
M  V30 3650 C 353.73 0.143659 1.6879 0
M  V30 3651 O 354.936 0.30791 1.77347 0
M  V30 3652 H 351.311 0.385925 0.645419 0
M  V30 3653 H 353.282 2.19978 2.01624 0
M  V30 3654 C 352.031 1.00394 3.32891 0
M  V30 3655 H 351.354 1.84231 3.54822 0
M  V30 3656 H 352.794 0.97862 4.12552 0
M  V30 3657 C 351.253 -0.293047 3.35623 0
M  V30 3658 O 351.783 -1.29823 3.80143 0
M  V30 3659 N 349.989 -0.322174 2.88809 0
M  V30 3660 H 349.536 0.496379 2.52772 0
M  V30 3661 H 349.494 -1.18977 2.91019 0
M  V30 3662 N 353.266 -1.05314 1.17247 0
M  V30 3663 C 354.514 -1.77941 0.958194 0
M  V30 3664 C 354.835 -1.88089 -0.514556 0
M  V30 3665 O 354.105 -1.39676 -1.37359 0
M  V30 3666 H 352.685 -0.659116 0.351533 0
M  V30 3667 H 355.347 -1.27166 1.47699 0
M  V30 3668 H 354.443 -2.79663 1.38546 0
M  V30 3669 N 354.744 -0.972509 -1.24016 0
M  V30 3670 C 355.707 -0.511403 -2.23422 0
M  V30 3671 C 356.707 0.394679 -1.55881 0
M  V30 3672 O 357.897 0.189469 -1.73167 0
M  V30 3673 C 355.029 0.258769 -3.39916 0
M  V30 3674 H 356.222 -1.39024 -2.6573 0
M  V30 3675 H 353.775 -0.757585 -1.36713 0
M  V30 3676 H 354.51 1.1545 -3.03054 0
M  V30 3677 H 354.295 -0.391522 -3.9014 0
M  V30 3678 H 355.785 0.570244 -4.13688 0
M  V30 3679 N 356.222 1.38976 -0.743202 0
M  V30 3680 C 357.471 1.99581 -0.291592 0
M  V30 3681 C 357.784 1.59656 1.13001 0
M  V30 3682 O 358.99 2.13157 1.68156 0
M  V30 3683 C 357.446 3.56813 -0.470391 0
M  V30 3684 C 357.054 4.05695 -1.90041 0
M  V30 3685 C 358.798 4.24423 -0.0809709 0
M  V30 3686 C 356.705 5.5553 -2.02832 0
M  V30 3687 H 355.635 0.746615 -0.105272 0
M  V30 3688 H 358.286 1.58872 -0.918258 0
M  V30 3689 H 356.668 3.95359 0.225299 0
M  V30 3690 H 357.842 3.78464 -2.62872 0
M  V30 3691 H 356.157 3.50775 -2.24379 0
M  V30 3692 H 358.754 5.34474 -0.155445 0
M  V30 3693 H 359.097 4.04962 0.96497 0
M  V30 3694 H 359.63 3.9108 -0.728124 0
M  V30 3695 H 356.369 5.79881 -3.05643 0
M  V30 3696 H 355.889 5.84537 -1.34448 0
M  V30 3697 H 357.568 6.21069 -1.81335 0
M  V30 3698 N 357.7 0.491464 1.49741 0
M  V30 3699 C 358.633 -0.338464 2.25676 0
M  V30 3700 C 359.611 -0.978676 1.29849 0
M  V30 3701 O 360.795 -1.01064 1.59117 0
M  V30 3702 C 357.922 -1.47588 3.04853 0
M  V30 3703 C 356.968 -0.951 4.15762 0
M  V30 3704 S 357.801 0.150626 5.35288 0
M  V30 3705 C 358.957 -0.990178 6.18018 0
M  V30 3706 H 359.19 0.306068 2.9572 0
M  V30 3707 H 356.723 0.276622 1.51902 0
M  V30 3708 H 358.681 -2.12764 3.51058 0
M  V30 3709 H 357.342 -2.09199 2.34296 0
M  V30 3710 H 356.535 -1.80311 4.70642 0
M  V30 3711 H 356.137 -0.376607 3.72099 0
M  V30 3712 H 358.429 -1.89748 6.50386 0
M  V30 3713 H 359.372 -0.480205 7.0647 0
M  V30 3714 H 359.78 -1.25321 5.50413 0
M  V30 3715 N 359.178 -1.55987 0.224894 0
M  V30 3716 C 360.125 -2.20436 -0.68385 0
M  V30 3717 C 361.095 -1.16102 -1.18783 0
M  V30 3718 O 362.28 -1.4447 -1.24632 0
M  V30 3719 C 359.42 -2.89076 -1.88491 0
M  V30 3720 C 358.533 -4.08012 -1.41951 0
M  V30 3721 C 357.668 -4.64426 -2.5784 0
M  V30 3722 C 356.707 -5.75656 -2.08053 0
M  V30 3723 N 355.844 -6.26347 -3.17227 0
M  V30 3724 H 360.684 -2.97727 -0.12754 0
M  V30 3725 H 358.221 -1.47011 -0.0511978 0
M  V30 3726 H 360.179 -3.27059 -2.59014 0
M  V30 3727 H 358.809 -2.14298 -2.41405 0
M  V30 3728 H 357.861 -3.75492 -0.609095 0
M  V30 3729 H 359.173 -4.88375 -1.01447 0
M  V30 3730 H 358.327 -5.04869 -3.3644 0
M  V30 3731 H 357.066 -3.83233 -3.01635 0
M  V30 3732 H 356.071 -5.34712 -1.27916 0
M  V30 3733 H 357.296 -6.58686 -1.65255 0
M  V30 3734 H 355.242 -5.48067 -3.60497 0
M  V30 3735 H 355.159 -7.01843 -2.80986 0
M  V30 3736 H 356.427 -6.71447 -3.95953 0
M  V30 3737 N 360.656 0.0484629 -1.57525 0
M  V30 3738 C 361.905 0.742065 -1.87553 0
M  V30 3739 C 362.218 1.77545 -0.820802 0
M  V30 3740 O 363.424 2.52027 -1.00967 0
M  V30 3741 C 361.88 1.37081 -3.32771 0
M  V30 3742 C 361.488 0.374786 -4.4643 0
M  V30 3743 C 363.232 2.04542 -3.71972 0
M  V30 3744 C 361.139 1.01077 -5.82698 0
M  V30 3745 H 360.069 0.280903 -0.699721 0
M  V30 3746 H 362.72 -0.00411877 -1.835 0
M  V30 3747 H 361.102 2.16605 -3.31509 0
M  V30 3748 H 362.276 -0.392331 -4.59127 0
M  V30 3749 H 360.591 -0.196653 -4.15935 0
M  V30 3750 H 363.188 2.52943 -4.71088 0
M  V30 3751 H 363.531 2.85515 -3.02964 0
M  V30 3752 H 364.064 1.31819 -3.75325 0
M  V30 3753 H 360.803 0.240878 -6.55057 0
M  V30 3754 H 360.323 1.74819 -5.73758 0
M  V30 3755 H 362.002 1.52383 -6.28799 0
M  V30 3756 N 362.134 1.5431 0.320358 0
M  V30 3757 C 363.362 1.76636 1.07738 0
M  V30 3758 C 363.777 0.51649 1.81598 0
M  V30 3759 O 363.134 -0.512942 1.75143 0
M  V30 3760 C 363.185 2.96158 2.07299 0
M  V30 3761 O 362.906 4.16313 1.36438 0
M  V30 3762 C 364.407 3.3072 2.95193 0
M  V30 3763 H 361.627 0.589597 0.320339 0
M  V30 3764 H 364.171 2.01207 0.36551 0
M  V30 3765 H 362.326 2.73851 2.74016 0
M  V30 3766 H 362.74 4.83565 2.03138 0
M  V30 3767 H 364.214 4.17643 3.60941 0
M  V30 3768 H 364.691 2.48026 3.62463 0
M  V30 3769 H 365.297 3.55117 2.34034 0
M  V30 3770 N 363.613 -0.582584 1.46437 0
M  V30 3771 C 364.841 -1.36682 1.55324 0
M  V30 3772 C 365.256 -1.87796 0.194409 0
M  V30 3773 O 364.613 -1.63623 -0.808318 0
M  V30 3774 C 364.664 -2.55426 2.55812 0
M  V30 3775 O 364.385 -2.0643 3.86417 0
M  V30 3776 C 365.886 -3.47976 2.74641 0
M  V30 3777 H 363.106 -0.417545 0.525259 0
M  V30 3778 H 365.65 -0.708219 1.91845 0
M  V30 3779 H 363.805 -3.17275 2.22295 0
M  V30 3780 H 364.219 -2.83762 4.41111 0
M  V30 3781 H 365.693 -4.27775 3.48874 0
M  V30 3782 H 366.17 -3.99919 1.81553 0
M  V30 3783 H 366.776 -2.91962 3.09255 0
M  V30 3784 N 365.091 -1.34144 -0.827227 0
M  V30 3785 C 366.316 -1.29476 -1.62021 0
M  V30 3786 C 366.741 0.129292 -1.87655 0
M  V30 3787 O 366.099 1.08967 -1.449 0
M  V30 3788 C 366.147 -2.08702 -2.94068 0
M  V30 3789 O 365.251 -1.45359 -3.85933 0
M  V30 3790 H 364.592 -0.444881 -0.492927 0
M  V30 3791 H 367.122 -1.76882 -1.02829 0
M  V30 3792 H 367.132 -2.19898 -3.43669 0
M  V30 3793 H 365.807 -3.12241 -2.74734 0
M  V30 3794 H 364.384 -1.42879 -3.44442 0
M  V30 3795 N 366.569 1.04691 -1.17803 0
M  V30 3796 C 367.516 2.12557 -0.899343 0
M  V30 3797 C 368.486 1.65339 0.158771 0
M  V30 3798 O 369.671 1.90789 0.0204797 0
M  V30 3799 C 366.811 3.42481 -0.424315 0
M  V30 3800 C 365.924 4.03346 -1.54713 0
M  V30 3801 C 365.059 5.21208 -1.02546 0
M  V30 3802 C 364.098 5.74089 -2.12339 0
M  V30 3803 N 363.235 6.83247 -1.61612 0
M  V30 3804 H 368.075 2.35734 -1.823 0
M  V30 3805 H 365.612 1.1564 -0.909159 0
M  V30 3806 H 367.57 4.16996 -0.130421 0
M  V30 3807 H 366.2 3.19471 0.462377 0
M  V30 3808 H 365.252 3.2622 -1.95664 0
M  V30 3809 H 366.564 4.38628 -2.37501 0
M  V30 3810 H 365.718 6.02812 -0.685718 0
M  V30 3811 H 364.457 4.87414 -0.167084 0
M  V30 3812 H 363.462 4.91111 -2.47165 0
M  V30 3813 H 364.687 6.0993 -2.98601 0
M  V30 3814 H 362.633 6.5134 -0.780533 0
M  V30 3815 H 362.55 7.17559 -2.38003 0
M  V30 3816 H 363.818 7.68491 -1.30545 0
M  V30 3817 N 368.047 0.979072 1.23499 0
M  V30 3818 C 369.295 0.645941 1.91499 0
M  V30 3819 C 369.616 -0.822948 1.76784 0
M  V30 3820 O 368.886 -1.58854 1.14639 0
M  V30 3821 H 367.466 0.235919 0.708767 0
M  V30 3822 H 370.128 1.2426 1.50152 0
M  V30 3823 H 369.224 0.896411 2.9895 0
M  V30 3824 N 369.525 -1.3858 0.750561 0
M  V30 3825 C 370.774 -1.99424 0.302172 0
M  V30 3826 C 371.087 -1.60254 -1.12152 0
M  V30 3827 O 372.293 -2.14046 -1.67023 0
M  V30 3828 C 370.749 -3.56558 0.489307 0
M  V30 3829 C 370.357 -4.04682 1.92189 0
M  V30 3830 C 372.101 -4.24374 0.103478 0
M  V30 3831 C 370.008 -5.54446 2.05775 0
M  V30 3832 H 368.938 -0.746046 0.10923 0
M  V30 3833 H 371.589 -1.58383 0.92667 0
M  V30 3834 H 369.971 -3.95472 -0.204329 0
M  V30 3835 H 371.145 -3.77065 2.64875 0
M  V30 3836 H 369.46 -3.4958 2.26236 0
M  V30 3837 H 372.057 -5.34384 0.183787 0
M  V30 3838 H 372.4 -4.05468 -0.943481 0
M  V30 3839 H 372.933 -3.90688 0.748854 0
M  V30 3840 H 369.672 -5.78252 3.08714 0
M  V30 3841 H 369.192 -5.83816 1.37546 0
M  V30 3842 H 370.871 -6.20099 1.84626 0
M  V30 3843 N 371.003 -0.499398 -1.49478 0
M  V30 3844 C 371.953 0.299103 -2.2603 0
M  V30 3845 C 372.937 0.936934 -1.30807 0
M  V30 3846 O 374.129 0.844798 -1.55538 0
M  V30 3847 C 371.258 1.36391 -3.15044 0
M  V30 3848 C 370.344 0.732398 -4.17728 0
M  V30 3849 N 370.735 -0.164028 -5.05534 0
M  V30 3850 C 369.033 0.993162 -4.34801 0
M  V30 3851 C 369.734 -0.525345 -5.79323 0
M  V30 3852 N 368.71 0.106348 -5.43496 0
M  V30 3853 H 372.512 -0.391003 -2.91287 0
M  V30 3854 H 370.026 -0.31537 -1.59308 0
M  V30 3855 H 372.023 1.94939 -3.68516 0
M  V30 3856 H 370.683 2.05571 -2.51338 0
M  V30 3857 H 371.694 -0.534736 -5.15132 0
M  V30 3858 H 368.371 1.67783 -3.82302 0
M  V30 3859 H 369.761 -1.25862 -6.60006 0
M  V30 3860 N 372.481 1.55866 -0.233164 0
M  V30 3861 C 373.728 1.98603 0.395374 0
M  V30 3862 C 374.056 1.12105 1.58942 0
M  V30 3863 O 373.311 0.168656 1.94972 0
M  V30 3864 C 373.61 3.46856 0.861724 0
M  V30 3865 C 373.276 4.50348 -0.223066 0
M  V30 3866 C 371.938 4.78371 -0.521038 0
M  V30 3867 C 374.29 5.12355 -0.956124 0
M  V30 3868 C 371.618 5.6568 -1.55638 0
M  V30 3869 C 373.97 6.00786 -1.98089 0
M  V30 3870 C 372.634 6.27148 -2.28565 0
M  V30 3871 H 371.904 0.726739 0.144677 0
M  V30 3872 H 374.551 1.88491 -0.338114 0
M  V30 3873 H 372.856 3.5423 1.67418 0
M  V30 3874 H 374.553 3.77302 1.35809 0
M  V30 3875 H 371.143 4.28596 0.0193234 0
M  V30 3876 H 375.327 4.90765 -0.739166 0
M  V30 3877 H 370.583 5.84365 -1.798 0
M  V30 3878 H 374.757 6.4788 -2.55391 0
M  V30 3879 H 372.384 6.94597 -3.08932 0
M  V30 3880 N 373.959 -0.0401083 1.57549 0
M  V30 3881 C 374.891 -1.07149 2.02612 0
M  V30 3882 C 375.904 -1.33126 0.937085 0
M  V30 3883 O 377.093 -1.30808 1.21456 0
M  V30 3884 C 374.193 -2.41561 2.37701 0
M  V30 3885 C 373.366 -2.35096 3.68848 0
M  V30 3886 C 372.425 -3.51867 3.91249 0
M  V30 3887 O 371.451 -3.3186 4.62447 0
M  V30 3888 N 372.653 -4.73351 3.36035 0
M  V30 3889 H 375.418 -0.687485 2.91708 0
M  V30 3890 H 372.979 -0.228248 1.60283 0
M  V30 3891 H 374.971 -3.18379 2.49833 0
M  V30 3892 H 373.541 -2.71846 1.54332 0
M  V30 3893 H 372.761 -1.4345 3.67173 0
M  V30 3894 H 374.049 -2.27908 4.54901 0
M  V30 3895 H 373.447 -4.92507 2.78304 0
M  V30 3896 H 372.004 -5.47572 3.53565 0
M  V30 3897 N 375.437 -1.54477 -0.31217 0
M  V30 3898 C 376.714 -1.63891 -1.06767 0
M  V30 3899 C 377.094 -0.480028 -2.0557 0
M  V30 3900 O 376.442 0.524487 -2.22399 0
M  V30 3901 C 376.652 -3.01402 -1.75948 0
M  V30 3902 C 378 -3.57838 -2.28554 0
M  V30 3903 O 379.024 -3.03782 -1.85998 0
M  V30 3904 O 377.883 -4.52462 -3.06497 0
M  V30 3905 H 374.977 -0.664125 -0.492816 0
M  V30 3906 H 377.523 -1.66823 -0.311149 0
M  V30 3907 H 376.295 -3.77187 -1.04144 0
M  V30 3908 H 375.918 -3.02199 -2.58383 0
M  V30 3909 N 376.915 0.57481 -1.46744 0
M  V30 3910 C 378.145 1.35659 -1.55821 0
M  V30 3911 C 378.553 1.88129 -0.201036 0
M  V30 3912 O 377.896 1.64723 0.813134 0
M  V30 3913 C 377.958 2.57473 -2.50894 0
M  V30 3914 C 377.622 2.26415 -3.9697 0
M  V30 3915 C 378.619 1.84771 -4.85958 0
M  V30 3916 C 376.304 2.38316 -4.42166 0
M  V30 3917 C 378.298 1.55434 -6.18158 0
M  V30 3918 C 375.985 2.08591 -5.74398 0
M  V30 3919 C 376.983 1.67216 -6.62214 0
M  V30 3920 O 376.671 1.37859 -7.91991 0
M  V30 3921 H 376.403 0.420496 -0.529301 0
M  V30 3922 H 378.957 0.704967 -1.92923 0
M  V30 3923 H 377.187 3.25468 -2.08824 0
M  V30 3924 H 378.876 3.19546 -2.50291 0
M  V30 3925 H 379.642 1.75085 -4.52295 0
M  V30 3926 H 375.521 2.69483 -3.74032 0
M  V30 3927 H 379.065 1.23065 -6.86659 0
M  V30 3928 H 374.962 2.17905 -6.07608 0
M  V30 3929 H 375.73 1.51638 -8.04331 0
M  V30 3930 N 378.394 1.34581 0.820102 0
M  V30 3931 C 379.671 1.17675 1.56244 0
M  V30 3932 C 380.051 -0.249541 2.0962 0
M  V30 3933 O 379.399 -1.25125 1.91196 0
M  V30 3934 C 379.609 2.23364 2.6816 0
M  V30 3935 C 380.957 2.58485 3.36854 0
M  V30 3936 O 381.981 2.22175 2.78418 0
M  V30 3937 O 380.84 3.20868 4.42386 0
M  V30 3938 H 377.934 0.456333 0.689702 0
M  V30 3939 H 380.48 1.46222 0.861231 0
M  V30 3940 H 379.252 3.19087 2.26493 0
M  V30 3941 H 378.875 1.96009 3.45928 0
M  V30 3942 N 379.872 -1.04064 1.18357 0
M  V30 3943 C 381.1 -1.80916 1.00384 0
M  V30 3944 C 381.515 -1.83414 -0.447738 0
M  V30 3945 O 380.872 -1.26962 -1.31099 0
M  V30 3946 C 380.923 -3.26516 1.55144 0
M  V30 3947 O 380.644 -3.2424 2.94618 0
M  V30 3948 C 382.145 -4.20013 1.41789 0
M  V30 3949 H 379.365 -0.569728 0.354474 0
M  V30 3950 H 381.909 -1.31151 1.56906 0
M  V30 3951 H 380.064 -3.73512 1.02798 0
M  V30 3952 H 380.478 -4.15452 3.20156 0
M  V30 3953 H 381.952 -5.20111 1.84901 0
M  V30 3954 H 382.429 -4.37667 0.36661 0
M  V30 3955 H 383.035 -3.78881 1.93207 0
M  V30 3956 N 381.35 -0.985608 -1.22978 0
M  V30 3957 C 382.578 -0.675582 -1.95559 0
M  V30 3958 C 382.993 0.758413 -1.72897 0
M  V30 3959 O 382.35 1.51094 -1.02357 0
M  V30 3960 C 382.401 -0.96293 -3.48439 0
M  V30 3961 O 382.122 -2.34057 -3.70336 0
M  V30 3962 C 383.623 -0.669585 -4.38214 0
M  V30 3963 H 380.843 -0.250523 -0.622478 0
M  V30 3964 H 383.387 -1.3184 -1.56328 0
M  V30 3965 H 381.542 -0.366033 -3.85667 0
M  V30 3966 H 381.956 -2.43424 -4.64591 0
M  V30 3967 H 383.43 -0.920967 -5.44263 0
M  V30 3968 H 383.907 0.396383 -4.37408 0
M  V30 3969 H 384.513 -1.2472 -4.06602 0
M  V30 3970 N 382.828 1.3818 -0.7579 0
M  V30 3971 C 384.239 1.82726 -0.383134 0
M  V30 3972 C 384.59 1.63214 1.08884 0
M  V30 3973 O 383.715 1.13566 1.84205 0
M  V30 3974 C 384.31 3.31728 -0.688631 0
M  V30 3975 C 382.869 3.74606 -0.367091 0
M  V30 3976 C 382.016 2.60896 -0.939599 0
M  V30 3977 H 384.967 1.26847 -0.953699 0
M  V30 3978 H 384.988 3.80487 0.0316492 0
M  V30 3979 H 384.5 3.45898 -1.76001 0
M  V30 3980 H 382.601 3.66013 0.697532 0
M  V30 3981 H 382.714 4.71215 -0.865658 0
M  V30 3982 H 381.078 2.52075 -0.3647 0
M  V30 3983 H 381.861 2.77864 -2.0161 0
M  V30 3984 N 384.306 0.507319 1.49211 0
M  V30 3985 C 385.553 -0.0349529 2.0247 0
M  V30 3986 C 385.881 -1.36409 1.38647 0
M  V30 3987 O 385.136 -1.88841 0.513566 0
M  V30 3988 C 385.435 -0.229513 3.56662 0
M  V30 3989 C 385.101 1.02241 4.39156 0
M  V30 3990 C 383.763 1.36557 4.61417 0
M  V30 3991 C 386.115 1.85428 4.871 0
M  V30 3992 C 383.443 2.53999 5.28868 0
M  V30 3993 C 385.795 3.02028 5.55843 0
M  V30 3994 C 384.459 3.36717 5.76349 0
M  V30 3995 H 383.729 -0.0127902 0.74089 0
M  V30 3996 H 386.376 0.668756 1.79443 0
M  V30 3997 H 384.681 -1.0158 3.78403 0
M  V30 3998 H 386.378 -0.663641 3.9547 0
M  V30 3999 H 382.968 0.745124 4.22073 0
M  V30 4000 H 387.152 1.6023 4.69723 0
M  V30 4001 H 382.408 2.81105 5.42946 0
M  V30 4002 H 386.582 3.66808 5.91967 0
M  V30 4003 H 384.209 4.27821 6.28389 0
M  V30 4004 N 385.784 -1.5574 0.241426 0
M  V30 4005 C 386.716 -2.18469 -0.693091 0
M  V30 4006 C 387.729 -1.15942 -1.14286 0
M  V30 4007 O 388.918 -1.42832 -1.07058 0
M  V30 4008 C 386.018 -2.7696 -1.95311 0
M  V30 4009 C 385.191 -4.04853 -1.65568 0
M  V30 4010 C 384.25 -4.47715 -2.76474 0
M  V30 4011 O 383.276 -5.14205 -2.44094 0
M  V30 4012 N 384.478 -4.15044 -4.05855 0
M  V30 4013 H 387.243 -2.99292 -0.156388 0
M  V30 4014 H 384.804 -1.61784 0.0611752 0
M  V30 4015 H 386.796 -3.02594 -2.68736 0
M  V30 4016 H 385.366 -2.00326 -2.39975 0
M  V30 4017 H 384.586 -3.86865 -0.756886 0
M  V30 4018 H 385.874 -4.88246 -1.43153 0
M  V30 4019 H 385.272 -3.61654 -4.34998 0
M  V30 4020 H 383.829 -4.45526 -4.75762 0
M  V30 4021 N 387.262 0.0317525 -1.57568 0
M  V30 4022 C 388.225 1.01783 -2.0536 0
M  V30 4023 C 389.225 1.29203 -0.957253 0
M  V30 4024 O 390.415 1.24251 -1.22095 0
M  V30 4025 C 387.547 2.35137 -2.46827 0
M  V30 4026 H 388.74 0.605062 -2.93733 0
M  V30 4027 H 386.293 0.278514 -1.53799 0
M  V30 4028 H 387.028 2.81168 -1.61602 0
M  V30 4029 H 386.813 2.16566 -3.26866 0
M  V30 4030 H 388.303 3.05938 -2.84239 0
M  V30 4031 N 388.74 1.54641 0.303973 0
M  V30 4032 C 389.687 1.85386 1.37479 0
M  V30 4033 C 390.657 0.702528 1.50512 0
M  V30 4034 O 391.842 0.950867 1.65418 0
M  V30 4035 C 388.982 2.10413 2.73533 0
M  V30 4036 C 388.095 3.38049 2.68974 0
M  V30 4037 C 387.23 3.52934 3.97002 0
M  V30 4038 C 386.269 4.74373 3.86829 0
M  V30 4039 N 385.406 4.8608 5.06627 0
M  V30 4040 H 390.246 2.76732 1.1056 0
M  V30 4041 H 387.783 1.37034 0.534805 0
M  V30 4042 H 389.741 2.22919 3.52652 0
M  V30 4043 H 388.371 1.22338 2.98719 0
M  V30 4044 H 387.423 3.3418 1.81736 0
M  V30 4045 H 388.735 4.27288 2.57346 0
M  V30 4046 H 387.889 3.65088 4.84557 0
M  V30 4047 H 386.628 2.61824 4.1146 0
M  V30 4048 H 385.633 4.62255 2.97658 0
M  V30 4049 H 386.858 5.66888 3.73918 0
M  V30 4050 H 384.804 3.97891 5.21554 0
M  V30 4051 H 384.721 5.69315 4.9741 0
M  V30 4052 H 385.989 5.02587 5.95841 0
M  V30 4053 N 390.218 -0.567019 1.47046 0
M  V30 4054 C 391.446 -1.35027 1.56765 0
M  V30 4055 C 391.861 -1.8758 0.214316 0
M  V30 4056 O 391.218 -1.64471 -0.790919 0
M  V30 4057 C 391.269 -2.52698 2.58507 0
M  V30 4058 O 390.99 -2.0232 3.88585 0
M  V30 4059 C 392.491 -3.45043 2.78316 0
M  V30 4060 H 389.711 -0.41195 0.529658 0
M  V30 4061 H 392.255 -0.687832 1.92585 0
M  V30 4062 H 390.41 -3.149 2.25648 0
M  V30 4063 H 390.824 -2.79068 4.44096 0
M  V30 4064 H 392.298 -4.2405 3.53391 0
M  V30 4065 H 392.775 -3.97971 1.85784 0
M  V30 4066 H 393.381 -2.88665 3.12334 0
M  V30 4067 N 391.696 -1.35014 -0.812953 0
M  V30 4068 C 392.628 -1.23262 -1.93233 0
M  V30 4069 C 393.641 -0.157371 -1.62038 0
M  V30 4070 O 394.83 -0.410096 -1.73725 0
M  V30 4071 C 391.93 -0.87392 -3.27438 0
M  V30 4072 C 391.103 -2.04622 -3.86586 0
M  V30 4073 C 390.162 -1.66432 -4.99186 0
M  V30 4074 O 389.188 -2.38222 -5.16951 0
M  V30 4075 N 390.39 -0.584248 -5.77552 0
M  V30 4076 H 393.155 -2.19699 -2.03844 0
M  V30 4077 H 390.716 -1.281 -0.99005 0
M  V30 4078 H 392.708 -0.600039 -4.00227 0
M  V30 4079 H 391.278 0.00057392 -3.126 0
M  V30 4080 H 390.498 -2.48427 -3.06068 0
M  V30 4081 H 391.786 -2.82999 -4.22835 0
M  V30 4082 H 391.184 0.0123526 -5.65699 0
M  V30 4083 H 389.741 -0.37013 -6.50748 0
M  V30 4084 O 393.213 0.951708 -1.30479 0
M  V30 4085 H 393.904 1.58029 -1.12012 0
M  V30 END ATOM
M  V30 BEGIN BOND
M  V30 END BOND
M  V30 END CTAB
M  END
$$$$
