drugbank_target|P15509 Granulocyte-macrophage colony-stimulating factor receptor subunit alpha (DB00020; DB05194; DB05386; DB10770; DB10772; DB11338)
 OpenBabel12092119363D

  0  0  0     0  0            999 V3000
M  V30 BEGIN CTAB
M  V30 COUNTS 6467 6542 0 0 0
M  V30 BEGIN ATOM
M  V30 1 H -0.908 1.98254 -0.117106 0
M  V30 2 N 0 1.576 0 0
M  V30 3 C 0.933 2.03868 1.02534 0
M  V30 4 C 1.911 0.928543 1.3348 0
M  V30 5 O 3.095 1.19667 1.45644 0
M  V30 6 C 0.222 2.43627 2.35294 0
M  V30 7 C -0.732 3.65373 2.2001 0
M  V30 8 S 0.101 5.13292 1.52614 0
M  V30 9 C 1.257 5.56322 2.86805 0
M  V30 10 H 1.49 2.90518 0.631377 0
M  V30 11 H -0.977 1.52953 0.210867 0
M  V30 12 H 0.981 2.67203 3.11629 0
M  V30 13 H -0.358 1.57376 2.7183 0
M  V30 14 H -1.165 3.90944 3.18086 0
M  V30 15 H -1.563 3.418 1.51819 0
M  V30 16 H 0.729 5.58782 3.83104 0
M  V30 17 H 1.672 6.56266 2.65933 0
M  V30 18 H 2.08 4.83886 2.90714 0
M  V30 19 N 1.4781 -0.272755 1.55222 0
M  V30 20 C 2.4081 -1.34136 1.91127 0
M  V30 21 C 3.3891 -1.51513 0.773168 0
M  V30 22 O 4.5741 -1.64552 1.03132 0
M  V30 23 C 1.7041 -2.70083 2.1834 0
M  V30 24 C 0.6581 -2.67437 3.34158 0
M  V30 25 C -0.0159 -4.06938 3.46851 0
M  V30 26 C 1.2841 -2.26686 4.70543 0
M  V30 27 H 2.9781 -1.04333 2.80633 0
M  V30 28 H 0.5241 -0.500454 1.35024 0
M  V30 29 H 2.4771 -3.44952 2.42046 0
M  V30 30 H 1.2011 -3.01469 1.25634 0
M  V30 31 H -0.1399 -1.95026 3.1042 0
M  V30 32 H -0.4919 -4.35547 2.51611 0
M  V30 33 H -0.7919 -4.06062 4.2472 0
M  V30 34 H 0.7321 -4.83545 3.72849 0
M  V30 35 H 2.1461 -2.91277 4.93792 0
M  V30 36 H 0.5431 -2.36971 5.5133 0
M  V30 37 H 1.6131 -1.21818 4.69349 0
M  V30 38 N 2.9562 -1.48159 -0.537278 0
M  V30 39 C 3.8862 -1.65029 -1.6519 0
M  V30 40 C 4.8672 -0.499281 -1.62607 0
M  V30 41 O 6.0522 -0.730972 -1.79918 0
M  V30 42 C 3.1822 -1.68303 -3.03795 0
M  V30 43 C 2.1362 -2.8283 -3.21234 0
M  V30 44 C 1.4622 -2.71189 -4.60826 0
M  V30 45 C 2.7622 -4.24211 -3.04701 0
M  V30 46 H 4.4562 -2.58341 -1.51328 0
M  V30 47 H 2.0022 -1.24325 -0.726585 0
M  V30 48 H 3.9552 -1.78693 -3.81637 0
M  V30 49 H 2.6792 -0.715635 -3.18663 0
M  V30 50 H 1.3382 -2.71983 -2.45807 0
M  V30 51 H 0.9862 -1.72435 -4.7252 0
M  V30 52 H 0.6862 -3.48035 -4.7344 0
M  V30 53 H 2.2102 -2.83537 -5.40777 0
M  V30 54 H 3.6242 -4.3593 -3.72341 0
M  V30 55 H 2.0212 -5.01998 -3.28813 0
M  V30 56 H 3.0912 -4.41184 -2.01209 0
M  V30 57 N 4.4343 0.785586 -1.36625 0
M  V30 58 C 5.3643 1.91259 -1.33949 0
M  V30 59 C 6.3453 1.68795 -0.210325 0
M  V30 60 O 7.5303 1.89854 -0.408561 0
M  V30 61 C 4.6603 3.28339 -1.13186 0
M  V30 62 C 3.6143 3.65335 -2.22967 0
M  V30 63 C 2.9403 5.00806 -1.87342 0
M  V30 64 C 4.2403 3.7352 -3.65075 0
M  V30 65 H 5.9343 1.93755 -2.28253 0
M  V30 66 H 3.4803 0.930788 -1.09874 0
M  V30 67 H 5.4333 4.06804 -1.09948 0
M  V30 68 H 4.1573 3.2624 -0.153332 0
M  V30 69 H 2.8163 2.89169 -2.25337 0
M  V30 70 H 2.4643 4.95233 -0.880545 0
M  V30 71 H 2.1643 5.26529 -2.60846 0
M  V30 72 H 3.6883 5.81687 -1.85667 0
M  V30 73 H 5.1023 4.42168 -3.64911 0
M  V30 74 H 3.4993 4.10731 -4.37516 0
M  V30 75 H 4.5693 2.74527 -3.99703 0
M  V30 76 N 5.9124 1.20967 1.01018 0
M  V30 77 C 7.1584 1.02526 1.74975 0
M  V30 78 C 7.4914 -0.4408 1.89131 0
M  V30 79 O 6.7664 -1.32718 1.42184 0
M  V30 80 C 7.0494 1.71699 3.1653 0
M  V30 81 C 6.9024 3.25791 3.10129 0
M  V30 82 C 8.2214 1.45531 4.15342 0
M  V30 83 H 5.3404 0.373863 0.635134 0
M  V30 84 H 7.9824 1.49071 1.17805 0
M  V30 85 H 6.1324 1.32128 3.65341 0
M  V30 86 H 7.8044 3.74697 2.69072 0
M  V30 87 H 6.0474 3.56363 2.47362 0
M  V30 88 H 6.7184 3.69353 4.10222 0
M  V30 89 H 9.1944 1.79872 3.75213 0
M  V30 90 H 8.0704 1.96453 5.1254 0
M  V30 91 H 8.3314 0.384237 4.40427 0
M  V30 92 N 7.3905 -1.2043 1.01659 0
M  V30 93 C 8.6185 -1.93777 0.725132 0
M  V30 94 C 9.0335 -1.74772 -0.714166 0
M  V30 95 O 8.3905 -1.06169 -1.4844 0
M  V30 96 C 8.4415 -3.45876 1.05129 0
M  V30 97 O 8.1625 -3.6426 2.43406 0
M  V30 98 C 9.6635 -4.36368 0.780891 0
M  V30 99 H 6.8835 -0.615901 0.266284 0
M  V30 100 H 9.4275 -1.52922 1.35776 0
M  V30 101 H 7.5825 -3.8461 0.464065 0
M  V30 102 H 7.9965 -4.58246 2.55169 0
M  V30 103 H 9.4705 -5.41743 1.05918 0
M  V30 104 H 9.9475 -4.38275 -0.284937 0
M  V30 105 H 10.5535 -4.03296 1.35027 0
M  V30 106 N 8.8686 -0.792821 -1.36206 0
M  V30 107 C 10.0936 -0.377701 -2.03932 0
M  V30 108 C 10.5186 0.998947 -1.59382 0
M  V30 109 O 9.8766 1.64421 -0.763903 0
M  V30 110 C 9.9246 -0.453635 -3.57735 0
M  V30 111 O 9.0286 0.538151 -4.08874 0
M  V30 112 H 8.3696 -0.159855 -0.644471 0
M  V30 113 H 10.8996 -1.07488 -1.7409 0
M  V30 114 H 10.9096 -0.318464 -4.06755 0
M  V30 115 H 9.5846 -1.45784 -3.89512 0
M  V30 116 H 8.1616 0.364359 -3.71116 0
M  V30 117 N 10.3467 1.47872 -0.545128 0
M  V30 118 C 11.2767 2.32661 0.197793 0
M  V30 119 C 12.2577 1.43041 0.920504 0
M  V30 120 O 13.4427 1.71912 0.90333 0
M  V30 121 C 10.5727 3.24569 1.23582 0
M  V30 122 C 9.5267 4.23333 0.630323 0
M  V30 123 C 8.8527 5.0448 1.77211 0
M  V30 124 C 10.1527 5.20704 -0.407974 0
M  V30 125 H 11.8467 2.95024 -0.510045 0
M  V30 126 H 9.3927 1.4187 -0.246731 0
M  V30 127 H 11.3457 3.8272 1.76362 0
M  V30 128 H 10.0697 2.60236 1.97344 0
M  V30 129 H 8.7287 3.6639 0.123922 0
M  V30 130 H 8.3767 4.36561 2.49847 0
M  V30 131 H 8.0767 5.71339 1.37281 0
M  V30 132 H 9.6007 5.65487 2.3034 0
M  V30 133 H 11.0147 5.7329 0.033305 0
M  V30 134 H 9.4117 5.95699 -0.725486 0
M  V30 135 H 10.4817 4.66917 -1.30828 0
M  V30 136 N 11.8248 0.280983 1.55075 0
M  V30 137 C 12.7548 -0.597469 2.25727 0
M  V30 138 C 13.7358 -1.15417 1.24952 0
M  V30 139 O 14.9208 -1.18722 1.53684 0
M  V30 140 C 12.0508 -1.7789 2.98283 0
M  V30 141 C 11.0048 -1.35347 4.06036 0
M  V30 142 C 10.3308 -2.61846 4.66198 0
M  V30 143 C 11.6308 -0.499354 5.19907 0
M  V30 144 H 13.3248 -0.00824265 2.99399 0
M  V30 145 H 10.8708 -0.0025244 1.44 0
M  V30 146 H 12.8238 -2.39937 3.46422 0
M  V30 147 H 11.5478 -2.39405 2.22155 0
M  V30 148 H 10.2068 -0.756156 3.58717 0
M  V30 149 H 9.8548 -3.21632 3.86732 0
M  V30 150 H 9.5548 -2.3409 5.38958 0
M  V30 151 H 11.0788 -3.24732 5.1709 0
M  V30 152 H 12.4928 -1.02498 5.64063 0
M  V30 153 H 10.8898 -0.316424 5.99265 0
M  V30 154 H 11.9598 0.480459 4.82514 0
M  V30 155 N 13.3029 -1.57598 0.00835791 0
M  V30 156 C 14.2329 -2.1198 -0.979113 0
M  V30 157 C 15.2139 -1.03091 -1.35301 0
M  V30 158 O 16.3989 -1.30818 -1.43528 0
M  V30 159 C 13.5289 -2.62995 -2.26828 0
M  V30 160 C 12.4829 -3.76485 -2.03576 0
M  V30 161 C 11.8089 -4.13846 -3.38579 0
M  V30 162 C 13.1089 -5.0342 -1.39161 0
M  V30 163 H 14.8029 -2.94738 -0.526281 0
M  V30 164 H 12.3489 -1.41783 -0.251704 0
M  V30 165 H 14.3019 -2.99669 -2.96271 0
M  V30 166 H 13.0259 -1.7737 -2.7424 0
M  V30 167 H 11.6849 -3.40217 -1.36557 0
M  V30 168 H 11.3329 -3.25232 -3.83709 0
M  V30 169 H 11.0329 -4.90312 -3.23834 0
M  V30 170 H 12.5569 -4.53086 -4.09323 0
M  V30 171 H 13.9709 -5.37812 -1.98573 0
M  V30 172 H 12.3679 -5.84746 -1.34878 0
M  V30 173 H 13.4379 -4.83548 -0.361868 0
M  V30 174 N 14.781 0.264519 -1.55364 0
M  V30 175 C 16.021 1.00254 -1.78125 0
M  V30 176 C 16.385 1.83187 -0.575017 0
M  V30 177 O 17.586 2.60029 -0.681042 0
M  V30 178 C 15.857 1.85478 -3.05504 0
M  V30 179 S 17.416 2.6543 -3.49417 0
M  V30 180 H 14.234 0.337522 -0.625779 0
M  V30 181 H 16.836 0.272111 -1.93597 0
M  V30 182 H 15.54 1.23491 -3.9138 0
M  V30 183 H 15.071 2.62827 -2.92721 0
M  V30 184 H 17.086 3.87958 -3.09359 0
M  V30 185 N 16.2591 1.48442 0.529413 0
M  V30 186 C 17.1691 1.6569 1.66084 0
M  V30 187 C 18.1851 0.539432 1.65427 0
M  V30 188 O 19.3611 0.810572 1.84368 0
M  V30 189 C 16.4261 1.69315 3.02545 0
M  V30 190 C 15.4871 2.92694 3.14052 0
M  V30 191 C 14.7201 2.96137 4.44003 0
M  V30 192 O 14.9431 2.07973 5.31134 0
M  V30 193 O 13.8771 3.88312 4.59888 0
M  V30 194 H 17.7031 2.61483 1.54469 0
M  V30 195 H 15.2881 1.3185 0.702567 0
M  V30 196 H 17.1701 1.74217 3.83701 0
M  V30 197 H 15.8451 0.766966 3.14483 0
M  V30 198 H 14.7521 2.93324 2.32189 0
M  V30 199 H 16.0851 3.84699 3.0703 0
M  V30 200 N 17.7372 -0.778329 1.37039 0
M  V30 201 C 18.6672 -1.90546 1.34962 0
M  V30 202 C 19.6482 -1.68681 0.219274 0
M  V30 203 O 20.8332 -1.89634 0.418624 0
M  V30 204 C 17.9632 -3.27734 1.14925 0
M  V30 205 C 16.9172 -3.64147 2.24902 0
M  V30 206 C 16.2432 -4.99806 1.89996 0
M  V30 207 C 17.5432 -3.71579 3.67051 0
M  V30 208 H 19.2372 -1.92541 2.29277 0
M  V30 209 H 16.7832 -0.924948 1.10366 0
M  V30 210 H 18.7362 -4.06215 1.12104 0
M  V30 211 H 17.4602 -3.26154 0.170631 0
M  V30 212 H 16.1192 -2.8797 2.26868 0
M  V30 213 H 15.7672 -4.94759 0.906796 0
M  V30 214 H 15.4672 -5.25139 2.63634 0
M  V30 215 H 16.9912 -5.80694 1.88749 0
M  V30 216 H 18.4052 -4.40227 3.67251 0
M  V30 217 H 16.8022 -4.08405 4.39688 0
M  V30 218 H 17.8722 -2.72404 4.01154 0
M  V30 219 N 19.2153 -1.21501 -1.00376 0
M  V30 220 C 20.6263 -1.03146 -1.55621 0
M  V30 221 C 20.9773 0.408375 -1.91903 0
M  V30 222 O 20.1023 1.29177 -1.73616 0
M  V30 223 C 20.6973 -1.86612 -2.82775 0
M  V30 224 C 19.2563 -1.72586 -3.34501 0
M  V30 225 C 18.4033 -1.83747 -2.07683 0
M  V30 226 H 21.3543 -1.35505 -0.826081 0
M  V30 227 H 21.3753 -1.3771 -3.54706 0
M  V30 228 H 20.8873 -2.91399 -2.56336 0
M  V30 229 H 18.9883 -0.704877 -3.65872 0
M  V30 230 H 19.1013 -2.54623 -4.05837 0
M  V30 231 H 17.4653 -1.27069 -2.20739 0
M  V30 232 H 18.2483 -2.90044 -1.83655 0
M  V30 233 N 20.6934 1.19889 -1.02296 0
M  V30 234 C 21.6434 2.20777 -0.56934 0
M  V30 235 C 22.6274 1.56379 0.378741 0
M  V30 236 O 23.8194 1.75859 0.200673 0
M  V30 237 C 20.9484 3.43196 0.0845077 0
M  V30 238 C 20.0344 4.14749 -0.88566 0
M  V30 239 N 20.4254 4.62584 -2.04573 0
M  V30 240 C 18.7234 4.40347 -0.707835 0
M  V30 241 C 19.4244 5.17466 -2.65714 0
M  V30 242 N 18.4004 5.0791 -1.93723 0
M  V30 243 H 22.2024 2.55434 -1.45365 0
M  V30 244 H 19.7164 1.35897 -0.88915 0
M  V30 245 H 21.7134 4.14707 0.427067 0
M  V30 246 H 20.3734 3.10042 0.964574 0
M  V30 247 H 21.3844 4.57597 -2.4254 0
M  V30 248 H 18.0614 4.17317 0.12364 0
M  V30 249 H 19.4514 5.64808 -3.63925 0
M  V30 250 N 22.1715 0.800033 1.35784 0
M  V30 251 C 23.5825 0.439142 1.81462 0
M  V30 252 C 23.9335 -1.03813 1.66485 0
M  V30 253 O 23.0585 -1.80626 1.19177 0
M  V30 254 C 23.6535 0.790314 3.29453 0
M  V30 255 C 22.2125 0.482111 3.733 0
M  V30 256 C 21.3595 1.01938 2.57883 0
M  V30 257 H 24.3105 0.992254 1.23855 0
M  V30 258 H 24.3315 0.0853677 3.80404 0
M  V30 259 H 23.8435 1.86554 3.40322 0
M  V30 260 H 21.9445 -0.584652 3.67984 0
M  V30 261 H 22.0575 1.01015 4.6833 0
M  V30 262 H 20.4215 0.442043 2.50835 0
M  V30 263 H 21.2045 2.10059 2.71533 0
M  V30 264 N 23.6496 -1.47581 0.552962 0
M  V30 265 C 24.6126 -2.28439 -0.186605 0
M  V30 266 C 25.6126 -1.36706 -0.84665 0
M  V30 267 O 26.8026 -1.59378 -0.703164 0
M  V30 268 C 23.9346 -3.16264 -1.2724 0
M  V30 269 H 25.1276 -2.95294 0.523609 0
M  V30 270 H 22.6806 -1.532 0.309745 0
M  V30 271 H 23.4156 -2.54091 -2.01514 0
M  V30 272 H 23.2006 -3.83769 -0.803968 0
M  V30 273 H 24.6906 -3.77198 -1.79196 0
M  V30 274 N 25.1277 -0.289203 -1.54924 0
M  V30 275 C 26.3747 0.323519 -1.99899 0
M  V30 276 C 26.7027 1.54797 -1.17762 0
M  V30 277 O 25.9577 1.94237 -0.238835 0
M  V30 278 C 26.2567 0.736119 -3.49737 0
M  V30 279 C 25.9227 -0.385276 -4.49251 0
M  V30 280 C 24.5847 -0.693156 -4.76181 0
M  V30 281 C 26.9367 -1.14021 -5.08575 0
M  V30 282 C 24.2647 -1.7593 -5.59701 0
M  V30 283 C 26.6167 -2.19619 -5.93254 0
M  V30 284 C 25.2807 -2.51026 -6.185 0
M  V30 285 H 24.5507 0.118384 -0.731482 0
M  V30 286 H 27.1977 -0.405847 -1.8715 0
M  V30 287 H 25.5027 1.54539 -3.60035 0
M  V30 288 H 27.1997 1.22118 -3.81953 0
M  V30 289 H 23.7897 -0.135202 -4.28387 0
M  V30 290 H 27.9737 -0.915611 -4.87781 0
M  V30 291 H 23.2297 -2.0075 -5.77503 0
M  V30 292 H 27.4037 -2.78581 -6.38252 0
M  V30 293 H 25.0307 -3.33772 -6.83008 0
M  V30 294 N 26.6058 1.57591 -0.0167156 0
M  V30 295 C 27.5358 2.12496 0.967858 0
M  V30 296 C 28.5168 1.03807 1.34752 0
M  V30 297 O 29.7018 1.31577 1.42833 0
M  V30 298 C 26.8318 2.64194 2.25431 0
M  V30 299 C 25.7858 3.77559 2.01576 0
M  V30 300 C 25.1118 4.15636 3.36379 0
M  V30 301 C 26.4118 5.04151 1.36489 0
M  V30 302 H 28.1058 2.95013 0.510643 0
M  V30 303 H 25.6518 1.41915 0.244181 0
M  V30 304 H 27.6048 3.01236 2.94678 0
M  V30 305 H 26.3288 1.78821 2.73296 0
M  V30 306 H 24.9878 3.40937 1.34751 0
M  V30 307 H 24.6358 3.27263 3.81979 0
M  V30 308 H 24.3358 4.92022 3.21229 0
M  V30 309 H 25.8598 4.5525 4.06915 0
M  V30 310 H 27.2738 5.38857 1.95718 0
M  V30 311 H 25.6708 5.85453 1.31776 0
M  V30 312 H 26.7408 4.83733 0.336219 0
M  V30 313 N 28.0839 -0.256276 1.55502 0
M  V30 314 C 29.0139 -1.32102 1.92539 0
M  V30 315 C 29.9949 -1.50684 0.789194 0
M  V30 316 O 31.1799 -1.63449 1.04872 0
M  V30 317 C 28.3099 -2.67752 2.21192 0
M  V30 318 C 27.2639 -2.63878 3.36975 0
M  V30 319 C 26.5899 -4.03236 3.51147 0
M  V30 320 C 27.8899 -2.21682 4.72921 0
M  V30 321 H 29.5839 -1.01351 2.81724 0
M  V30 322 H 27.1299 -0.486105 1.35547 0
M  V30 323 H 29.0829 -3.42365 2.45691 0
M  V30 324 H 27.8069 -3.0012 1.28824 0
M  V30 325 H 26.4659 -1.91722 3.12471 0
M  V30 326 H 26.1139 -4.32854 2.56216 0
M  V30 327 H 25.8139 -4.01535 4.29003 0
M  V30 328 H 27.3379 -4.79563 3.77957 0
M  V30 329 H 28.7519 -2.86023 4.96854 0
M  V30 330 H 27.1489 -2.3111 5.53812 0
M  V30 331 H 28.2189 -1.16833 4.70615 0
M  V30 332 N 29.562 -1.4872 -0.521534 0
M  V30 333 C 30.811 -1.56419 -1.27341 0
M  V30 334 C 31.124 -0.246805 -1.94037 0
M  V30 335 O 32.33 -0.202122 -2.70747 0
M  V30 336 C 30.786 -2.75896 -2.31105 0
M  V30 337 C 30.394 -4.14311 -1.70441 0
M  V30 338 C 32.138 -2.92913 -3.07249 0
M  V30 339 C 30.045 -5.25038 -2.72194 0
M  V30 340 H 28.975 -0.582344 -0.478949 0
M  V30 341 H 31.626 -1.75071 -0.549779 0
M  V30 342 H 30.008 -2.50697 -3.06541 0
M  V30 343 H 31.182 -4.49564 -1.01136 0
M  V30 344 H 29.497 -4.02482 -1.06759 0
M  V30 345 H 32.094 -3.72805 -3.83302 0
M  V30 346 H 32.437 -2.02689 -3.63625 0
M  V30 347 H 32.97 -3.18054 -2.38928 0
M  V30 348 H 29.709 -6.17255 -2.20627 0
M  V30 349 H 29.229 -4.94263 -3.39801 0
M  V30 350 H 30.908 -5.53508 -3.35019 0
M  V30 351 N 31.0401 0.771051 -1.3745 0
M  V30 352 C 32.4511 1.34737 -1.29239 0
M  V30 353 C 32.8021 1.96109 0.0596908 0
M  V30 354 O 31.9271 1.93865 0.961534 0
M  V30 355 C 32.5221 2.44973 -2.34037 0
M  V30 356 C 31.0811 2.98372 -2.29458 0
M  V30 357 C 30.2281 1.71595 -2.17831 0
M  V30 358 H 33.1791 0.571256 -1.48062 0
M  V30 359 H 33.2001 3.24471 -1.98744 0
M  V30 360 H 32.7121 2.00276 -3.32432 0
M  V30 361 H 30.8131 3.47443 -1.34589 0
M  V30 362 H 30.9261 3.53939 -3.229 0
M  V30 363 H 29.2901 1.94547 -1.64388 0
M  V30 364 H 30.0731 1.29001 -3.18141 0
M  V30 365 N 32.5182 1.22032 0.997298 0
M  V30 366 C 33.4282 1.00271 2.12092 0
M  V30 367 C 34.4442 -0.047621 1.73935 0
M  V30 368 O 35.6202 0.144136 2.00884 0
M  V30 369 C 32.6852 0.578449 3.4184 0
M  V30 370 C 31.7462 1.70189 3.94125 0
M  V30 371 C 30.9792 1.29778 5.17681 0
M  V30 372 O 31.2022 0.174676 5.70132 0
M  V30 373 O 30.1362 2.11261 5.63607 0
M  V30 374 H 33.9622 1.94398 2.3333 0
M  V30 375 H 31.5472 1.00587 1.10465 0
M  V30 376 H 33.4292 0.351998 4.19927 0
M  V30 377 H 32.1042 -0.334019 3.21972 0
M  V30 378 H 31.0112 1.98282 3.1723 0
M  V30 379 H 32.3442 2.59206 4.18417 0
M  V30 380 N 33.9963 -1.19345 1.0293 0
M  V30 381 C 34.9433 -2.2258 0.610464 0
M  V30 382 C 35.9133 -1.6179 -0.375946 0
M  V30 383 O 37.0983 -1.88844 -0.272511 0
M  V30 384 C 34.2383 -3.45085 -0.0321473 0
M  V30 385 C 33.3513 -4.20258 1.00035 0
M  V30 386 C 32.4863 -5.3019 0.32746 0
M  V30 387 C 31.5253 -5.97121 1.34584 0
M  V30 388 N 30.6623 -6.98615 0.698726 0
M  V30 389 H 35.5023 -2.57764 1.49538 0
M  V30 390 H 33.0393 -1.26644 0.748311 0
M  V30 391 H 34.9973 -4.15061 -0.421966 0
M  V30 392 H 33.6273 -3.10555 -0.88064 0
M  V30 393 H 32.6793 -3.49223 1.50823 0
M  V30 394 H 33.9913 -4.66175 1.77433 0
M  V30 395 H 33.1453 -6.06587 -0.11718 0
M  V30 396 H 31.8843 -4.85345 -0.478713 0
M  V30 397 H 30.8893 -5.19474 1.80074 0
M  V30 398 H 32.1143 -6.4405 2.15352 0
M  V30 399 H 30.0603 -6.55942 -0.0873471 0
M  V30 400 H 29.9773 -7.42724 1.41058 0
M  V30 401 H 31.2453 -7.79004 0.278102 0
M  V30 402 N 35.4744 -0.807222 -1.35358 0
M  V30 403 C 36.6994 -0.399309 -2.0352 0
M  V30 404 C 37.1244 0.981986 -1.60433 0
M  V30 405 O 36.4824 1.63601 -0.781299 0
M  V30 406 C 36.5304 -0.491552 -3.57234 0
M  V30 407 O 35.6344 0.494754 -4.09421 0
M  V30 408 H 34.9754 -0.166682 -0.642739 0
M  V30 409 H 37.5054 -1.09328 -1.72941 0
M  V30 410 H 37.5154 -0.361588 -4.06395 0
M  V30 411 H 36.1904 -1.49907 -3.87944 0
M  V30 412 H 34.7674 0.324977 -3.71481 0
M  V30 413 N 36.9525 1.47285 -0.560781 0
M  V30 414 C 38.2295 1.9558 0.0277798 0
M  V30 415 C 38.6095 1.5034 1.48192 0
M  V30 416 O 37.9575 0.743882 2.16052 0
M  V30 417 C 38.1675 3.48789 -0.121418 0
M  V30 418 C 39.5155 4.24594 0.0220912 0
M  V30 419 O 40.5395 3.56166 -0.0491439 0
M  V30 420 O 39.3985 5.46217 0.175958 0
M  V30 421 H 36.4925 0.824663 0.0621342 0
M  V30 422 H 39.0385 1.5767 -0.627556 0
M  V30 423 H 37.8105 3.74533 -1.13316 0
M  V30 424 H 37.4335 3.93473 0.571366 0
M  V30 425 N 38.4306 0.297415 1.54768 0
M  V30 426 C 39.3606 -0.573494 2.26348 0
M  V30 427 C 40.3416 -1.14085 1.26169 0
M  V30 428 O 41.5266 -1.17086 1.54934 0
M  V30 429 C 38.6566 -1.74716 3.00153 0
M  V30 430 C 37.6106 -1.31032 4.07449 0
M  V30 431 C 36.9366 -2.56887 4.68949 0
M  V30 432 C 38.2366 -0.444183 5.20408 0
M  V30 433 H 39.9306 0.0235131 2.99391 0
M  V30 434 H 37.4766 0.0127488 1.43994 0
M  V30 435 H 39.4296 -2.3625 3.48947 0
M  V30 436 H 38.1536 -2.37035 2.24682 0
M  V30 437 H 36.8126 -0.718066 3.59499 0
M  V30 438 H 36.4606 -3.17512 3.90122 0
M  V30 439 H 36.1606 -2.2836 5.41411 0
M  V30 440 H 37.6846 -3.19229 5.20505 0
M  V30 441 H 39.0986 -0.9651 5.65118 0
M  V30 442 H 37.4956 -0.252846 5.99567 0
M  V30 443 H 38.5656 0.531609 4.81977 0
M  V30 444 N 39.9087 -1.5758 0.0250728 0
M  V30 445 C 41.3247 -1.56124 -0.331282 0
M  V30 446 C 41.5247 -1.03029 -1.73169 0
M  V30 447 O 40.5807 -0.675215 -2.43305 0
M  V30 448 C 41.8937 -3.00139 -0.183584 0
M  V30 449 C 43.4417 -3.11946 -0.256654 0
M  V30 450 C 43.9167 -4.57793 -0.137792 0
M  V30 451 N 45.4077 -4.6279 -0.194904 0
M  V30 452 C 46.1427 -5.7326 -0.126655 0
M  V30 453 N 45.6387 -6.928 -0.00755288 0
M  V30 454 N 47.4317 -5.61811 -0.180348 0
M  V30 455 H 39.5827 -1.90424 0.94087 0
M  V30 456 H 41.8457 -0.875761 0.362968 0
M  V30 457 H 41.5517 -3.4292 0.780927 0
M  V30 458 H 41.4257 -3.64899 -0.955448 0
M  V30 459 H 43.8127 -2.69079 -1.21162 0
M  V30 460 H 43.8937 -2.49915 0.545517 0
M  V30 461 H 43.5377 -5.01339 0.813739 0
M  V30 462 H 43.4677 -5.17798 -0.958775 0
M  V30 463 H 45.9587 -3.76807 -0.287267 0
M  V30 464 H 46.2717 -7.72791 0.0379428 0
M  V30 465 H 44.6167 -6.94995 0.0271731 0
M  V30 466 H 47.8077 -4.6731 -0.271767 0
M  V30 467 H 47.9807 -6.47882 -0.123697 0
M  V30 468 N 41.3868 0.248026 -1.55636 0
M  V30 469 C 42.6148 0.993808 -1.81469 0
M  V30 470 C 43.0298 1.78991 -0.60064 0
M  V30 471 O 42.3868 1.77345 0.430682 0
M  V30 472 C 42.4378 1.93258 -3.05506 0
M  V30 473 O 42.1588 1.16869 -4.22224 0
M  V30 474 C 43.6598 2.79444 -3.4413 0
M  V30 475 H 40.8798 0.292486 -0.603898 0
M  V30 476 H 43.4238 0.271253 -2.02693 0
M  V30 477 H 41.5788 2.60943 -2.86335 0
M  V30 478 H 41.9928 1.80359 -4.92515 0
M  V30 479 H 43.4668 3.41066 -4.34026 0
M  V30 480 H 43.9438 3.50499 -2.64665 0
M  V30 481 H 44.5498 2.17214 -3.65648 0
M  V30 482 N 42.8649 1.48995 0.513639 0
M  V30 483 C 44.1109 1.58076 1.27042 0
M  V30 484 C 44.4439 0.261026 1.92438 0
M  V30 485 O 43.7189 -0.734393 1.80103 0
M  V30 486 C 44.0019 2.73091 2.34719 0
M  V30 487 C 43.8549 4.14821 1.73907 0
M  V30 488 C 45.1739 2.83796 3.36375 0
M  V30 489 H 42.2929 0.575391 0.460536 0
M  V30 490 H 44.9349 1.81232 0.570516 0
M  V30 491 H 43.0849 2.53479 2.94416 0
M  V30 492 H 44.7569 4.45917 1.18135 0
M  V30 493 H 42.9999 4.21058 1.0437 0
M  V30 494 H 43.6709 4.91147 2.51949 0
M  V30 495 H 46.1469 3.01611 2.86653 0
M  V30 496 H 45.0229 3.65971 4.09093 0
M  V30 497 H 45.2839 1.92624 3.9793 0
M  V30 498 N 44.343 -0.763751 1.37857 0
M  V30 499 C 45.306 -1.85889 1.34081 0
M  V30 500 C 46.306 -1.58949 0.243277 0
M  V30 501 O 47.496 -1.66882 0.499589 0
M  V30 502 C 44.628 -3.23176 1.08489 0
M  V30 503 H 45.821 -1.90648 2.31502 0
M  V30 504 H 43.374 -0.964367 1.23003 0
M  V30 505 H 44.109 -3.24091 0.116318 0
M  V30 506 H 43.894 -3.44124 1.8794 0
M  V30 507 H 45.384 -4.03254 1.08517 0
M  V30 508 N 45.8211 -1.22559 -0.990812 0
M  V30 509 C 47.2321 -1.04791 -1.54518 0
M  V30 510 C 47.5831 0.387998 -1.92325 0
M  V30 511 O 46.7081 1.27328 -1.74976 0
M  V30 512 C 47.3031 -1.896 -2.80779 0
M  V30 513 C 45.8621 -1.76124 -3.32652 0
M  V30 514 C 45.0091 -1.8594 -2.05722 0
M  V30 515 H 47.9601 -1.36374 -0.811662 0
M  V30 516 H 47.9811 -1.41464 -3.53225 0
M  V30 517 H 47.4931 -2.94101 -2.53231 0
M  V30 518 H 45.5941 -0.743643 -3.65104 0
M  V30 519 H 45.7071 -2.58913 -4.03114 0
M  V30 520 H 44.0711 -1.29403 -2.19379 0
M  V30 521 H 44.8541 -2.91976 -1.80568 0
M  V30 522 N 47.2992 1.18797 -1.03562 0
M  V30 523 C 48.2622 2.20464 -0.626769 0
M  V30 524 C 49.2622 1.57721 0.313173 0
M  V30 525 O 50.4522 1.73917 0.0992615 0
M  V30 526 C 47.5842 3.40802 0.0818498 0
M  V30 527 H 48.7772 2.58149 -1.5264 0
M  V30 528 H 46.3302 1.32593 -0.827578 0
M  V30 529 H 47.0652 3.08642 0.995518 0
M  V30 530 H 46.8502 3.8758 -0.593652 0
M  V30 531 H 48.3402 4.16092 0.354584 0
M  V30 532 N 48.7773 0.814389 1.34928 0
M  V30 533 C 50.0023 0.410097 2.03305 0
M  V30 534 C 50.4273 -0.973464 1.60951 0
M  V30 535 O 49.7853 -1.63185 0.789964 0
M  V30 536 C 49.8333 0.51049 3.56968 0
M  V30 537 O 48.9373 -0.473035 4.09678 0
M  V30 538 H 48.2783 0.170088 0.641846 0
M  V30 539 H 50.8083 1.10244 1.72358 0
M  V30 540 H 50.8183 0.383135 4.06197 0
M  V30 541 H 49.4933 1.51963 3.87144 0
M  V30 542 H 48.0703 -0.305272 3.71648 0
M  V30 543 N 50.2554 -1.46986 0.568584 0
M  V30 544 C 51.4804 -2.07335 0.0520528 0
M  V30 545 C 51.9054 -1.41675 -1.23733 0
M  V30 546 O 51.2634 -0.495623 -1.74394 0
M  V30 547 C 51.3114 -3.60417 -0.11501 0
M  V30 548 O 50.4154 -3.95309 -1.17492 0
M  V30 549 H 49.7564 -0.661597 0.0564385 0
M  V30 550 H 52.2864 -1.88837 0.787507 0
M  V30 551 H 52.2964 -4.06698 -0.325644 0
M  V30 552 H 50.9714 -4.07601 0.826675 0
M  V30 553 H 49.5484 -3.60757 -0.943869 0
M  V30 554 N 51.7335 -0.305618 -1.54608 0
M  V30 555 C 52.6635 0.561482 -2.26649 0
M  V30 556 C 53.6445 1.13415 -1.26772 0
M  V30 557 O 54.8295 1.16262 -1.55553 0
M  V30 558 C 51.9595 1.73122 -3.01075 0
M  V30 559 C 50.9135 1.2887 -4.08138 0
M  V30 560 C 50.2395 2.54396 -4.70305 0
M  V30 561 C 51.5395 0.416578 -5.20636 0
M  V30 562 H 53.2335 -0.0393902 -2.99374 0
M  V30 563 H 50.7795 -0.020385 -1.43986 0
M  V30 564 H 52.7325 2.34396 -3.50195 0
M  V30 565 H 51.4565 2.3584 -2.25936 0
M  V30 566 H 50.1155 0.698991 -3.59875 0
M  V30 567 H 49.7635 3.15439 -3.918 0
M  V30 568 H 49.4635 2.25486 -5.42614 0
M  V30 569 H 50.9875 3.16464 -5.2219 0
M  V30 570 H 52.4015 0.935116 -5.65622 0
M  V30 571 H 50.7985 0.221046 -5.99693 0
M  V30 572 H 51.8685 -0.557162 -4.81688 0
M  V30 573 N 53.2116 1.57565 -0.0334293 0
M  V30 574 C 54.1596 2.1164 0.96496 0
M  V30 575 C 55.1536 1.04398 1.33407 0
M  V30 576 O 56.3596 1.22828 1.3158 0
M  V30 577 H 52.7346 0.676222 0.32898 0
M  V30 578 H 54.7056 2.94455 0.483614 0
M  V30 579 C 53.4546 2.66207 2.23672 0
M  V30 580 H 52.7776 3.48378 1.96145 0
M  V30 581 H 54.2176 3.07685 2.9173 0
M  V30 582 C 52.6766 1.59151 2.96939 0
M  V30 583 O 53.2066 0.993858 3.89211 0
M  V30 584 N 51.4126 1.31093 2.59351 0
M  V30 585 H 50.9596 1.7988 1.84393 0
M  V30 586 H 50.9176 0.596889 3.08682 0
M  V30 587 N 54.6897 -0.239769 1.55765 0
M  V30 588 C 55.9357 -0.968234 1.78194 0
M  V30 589 C 56.2687 -1.84701 0.599938 0
M  V30 590 O 55.5437 -1.9031 -0.401524 0
M  V30 591 C 55.8267 -1.8227 3.10564 0
M  V30 592 C 55.6797 -0.971633 4.3918 0
M  V30 593 C 56.9987 -2.80388 3.39221 0
M  V30 594 H 54.1177 -0.350572 0.648281 0
M  V30 595 H 56.7597 -0.238259 1.885 0
M  V30 596 H 54.9097 -2.44507 3.01908 0
M  V30 597 H 56.5817 -0.367408 4.59835 0
M  V30 598 H 54.8247 -0.276276 4.32919 0
M  V30 599 H 55.4957 -1.60346 5.28198 0
M  V30 600 H 57.9717 -2.28287 3.47885 0
M  V30 601 H 56.8477 -3.3729 4.33044 0
M  V30 602 H 57.1087 -3.57212 2.60484 0
M  V30 603 N 56.1678 -1.49265 -0.50573 0
M  V30 604 C 57.5838 -1.35923 -0.836486 0
M  V30 605 C 57.7838 -0.388704 -1.97715 0
M  V30 606 O 56.8398 0.181336 -2.51848 0
M  V30 607 C 58.1528 -2.76531 -1.18115 0
M  V30 608 C 59.7008 -2.85197 -1.28964 0
M  V30 609 C 60.1758 -4.26561 -1.66761 0
M  V30 610 N 61.6668 -4.2935 -1.73819 0
M  V30 611 C 62.4018 -5.35693 -2.045 0
M  V30 612 N 61.8978 -6.52287 -2.33438 0
M  V30 613 N 63.6908 -5.23105 -2.05711 0
M  V30 614 H 55.8418 -2.10965 0.246519 0
M  V30 615 H 58.1048 -0.9468 0.0476887 0
M  V30 616 H 57.8108 -3.49226 -0.416398 0
M  V30 617 H 57.6848 -3.11599 -2.1257 0
M  V30 618 H 60.0718 -2.12742 -2.04511 0
M  V30 619 H 60.1528 -2.53718 -0.325704 0
M  V30 620 H 59.7968 -4.99541 -0.917656 0
M  V30 621 H 59.7268 -4.55502 -2.64246 0
M  V30 622 H 62.2178 -3.4526 -1.53635 0
M  V30 623 H 62.5308 -7.29158 -2.56024 0
M  V30 624 H 60.8758 -6.55521 -2.30905 0
M  V30 625 H 64.0668 -4.31026 -1.82577 0
M  V30 626 H 64.2398 -6.06078 -2.29289 0
M  V30 627 N 57.6459 0.756429 -1.3826 0
M  V30 628 C 58.8929 1.51547 -1.34312 0
M  V30 629 C 59.2209 1.94382 0.0677144 0
M  V30 630 O 58.4759 1.65514 1.04421 0
M  V30 631 C 58.7749 2.78313 -2.24224 0
M  V30 632 C 58.4409 2.54455 -3.72241 0
M  V30 633 C 57.1029 2.47657 -4.12576 0
M  V30 634 C 59.4549 2.3354 -4.65949 0
M  V30 635 C 56.7829 2.17956 -5.44713 0
M  V30 636 C 59.1349 2.05359 -5.9834 0
M  V30 637 C 57.7989 1.97016 -6.37762 0
M  V30 638 H 57.0689 0.55455 -0.491482 0
M  V30 639 H 59.7159 0.870039 -1.70595 0
M  V30 640 H 58.0209 3.47492 -1.80987 0
M  V30 641 H 59.7179 3.36259 -2.18474 0
M  V30 642 H 56.3079 2.60616 -3.40261 0
M  V30 643 H 60.4919 2.37772 -4.35635 0
M  V30 644 H 55.7479 2.10003 -5.74203 0
M  V30 645 H 59.9219 1.88179 -6.70494 0
M  V30 646 H 57.5489 1.73766 -7.40074 0
M  V30 647 N 59.124 1.23083 0.984299 0
M  V30 648 C 60.401 0.9689 1.69917 0
M  V30 649 C 60.781 -0.513604 2.04757 0
M  V30 650 O 60.129 -1.48383 1.73767 0
M  V30 651 C 60.339 1.87518 2.94343 0
M  V30 652 C 61.687 2.13636 3.6694 0
M  V30 653 O 62.711 1.85036 3.04368 0
M  V30 654 O 61.57 2.62119 4.79537 0
M  V30 655 H 58.664 0.365095 0.742048 0
M  V30 656 H 61.21 1.34107 1.03987 0
M  V30 657 H 59.982 2.87756 2.65164 0
M  V30 658 H 59.605 1.50514 3.6801 0
M  V30 659 N 60.6021 -1.18246 1.0419 0
M  V30 660 C 61.8271 -1.92736 0.765996 0
M  V30 661 C 62.2521 -1.75728 -0.67091 0
M  V30 662 O 61.6101 -1.06825 -1.46486 0
M  V30 663 C 61.6581 -3.42148 1.13875 0
M  V30 664 O 60.7621 -4.11548 0.264954 0
M  V30 665 H 60.1031 -0.601238 0.281797 0
M  V30 666 H 62.6331 -1.49942 1.39207 0
M  V30 667 H 62.6431 -3.92858 1.1012 0
M  V30 668 H 61.3181 -3.53848 2.18551 0
M  V30 669 H 59.8951 -3.71137 0.362226 0
M  V30 670 N 62.0802 -0.821533 -1.34494 0
M  V30 671 C 63.4962 -0.507117 -1.51329 0
M  V30 672 C 63.6962 0.968964 -1.76673 0
M  V30 673 O 62.7522 1.75348 -1.81685 0
M  V30 674 C 64.0652 -1.36544 -2.67911 0
M  V30 675 C 65.6132 -1.36242 -2.81793 0
M  V30 676 C 66.0882 -2.2052 -4.01416 0
M  V30 677 N 67.5792 -2.18136 -4.08621 0
M  V30 678 C 68.3142 -2.80095 -5.00334 0
M  V30 679 N 67.8102 -3.51039 -5.9728 0
M  V30 680 N 69.6032 -2.69656 -4.93196 0
M  V30 681 H 61.7542 -1.77729 -1.16302 0
M  V30 682 H 64.0172 -0.757291 -0.570276 0
M  V30 683 H 63.7232 -2.41361 -2.55808 0
M  V30 684 H 63.5972 -1.02917 -3.62888 0
M  V30 685 H 65.9842 -0.322041 -2.93338 0
M  V30 686 H 66.0652 -1.73866 -1.87628 0
M  V30 687 H 65.7092 -3.24607 -3.90631 0
M  V30 688 H 65.6392 -1.80247 -4.94791 0
M  V30 689 H 68.1302 -1.6653 -3.39229 0
M  V30 690 H 68.4432 -3.95565 -6.63889 0
M  V30 691 H 66.7882 -3.55145 -5.97409 0
M  V30 692 H 69.9792 -2.13808 -4.16418 0
M  V30 693 H 70.1522 -3.1823 -5.64476 0
M  V30 694 N 63.5583 1.46682 -0.576371 0
M  V30 695 C 64.7863 2.06798 -0.0649635 0
M  V30 696 C 65.2013 1.42612 1.23723 0
M  V30 697 O 64.5583 0.529203 1.74659 0
M  V30 698 C 64.6093 3.6132 0.114202 0
M  V30 699 O 64.3303 4.23104 -1.13644 0
M  V30 700 C 65.8313 4.38349 0.66069 0
M  V30 701 H 63.0513 0.668778 -0.0545616 0
M  V30 702 H 65.5953 1.88404 -0.795237 0
M  V30 703 H 63.7503 3.79162 0.794673 0
M  V30 704 H 64.1643 5.15894 -0.946253 0
M  V30 705 H 65.6383 5.47081 0.73526 0
M  V30 706 H 66.1153 4.05953 1.67627 0
M  V30 707 H 66.7213 4.25297 0.0152951 0
M  V30 708 N 65.0364 0.313813 1.54444 0
M  V30 709 C 65.9694 -0.598866 2.20202 0
M  V30 710 C 66.9474 -1.12318 1.17573 0
M  V30 711 O 68.1314 -1.18899 1.46271 0
M  V30 712 C 65.2584 -1.82071 2.85601 0
M  V30 713 C 64.3044 -1.42851 4.01865 0
M  V30 714 S 65.1374 -0.473512 5.33402 0
M  V30 715 C 66.2934 -1.70286 6.0229 0
M  V30 716 H 66.5264 -0.0402532 2.97273 0
M  V30 717 H 64.0594 0.0979165 1.54089 0
M  V30 718 H 66.0174 -2.52184 3.23904 0
M  V30 719 H 64.6784 -2.3505 2.08351 0
M  V30 720 H 63.8714 -2.33871 4.46453 0
M  V30 721 H 63.4734 -0.807198 3.65185 0
M  V30 722 H 65.7654 -2.64168 6.23876 0
M  V30 723 H 66.7084 -1.29932 6.96077 0
M  V30 724 H 67.1164 -1.88541 5.32083 0
M  V30 725 N 66.5145 -1.57545 0.0417849 0
M  V30 726 C 67.4625 -2.12148 -0.953723 0
M  V30 727 C 68.4565 -1.05104 -1.32852 0
M  V30 728 O 69.6625 -1.23524 -1.30927 0
M  V30 729 H 66.0375 -0.677957 -0.325389 0
M  V30 730 H 68.0085 -2.94707 -0.467991 0
M  V30 731 C 66.7575 -2.6739 -2.22257 0
M  V30 732 H 66.0805 -3.49413 -1.94295 0
M  V30 733 H 67.5205 -3.09227 -2.90094 0
M  V30 734 C 65.9795 -1.60723 -2.96091 0
M  V30 735 O 66.5095 -1.01449 -3.88679 0
M  V30 736 N 64.7155 -1.32466 -2.58652 0
M  V30 737 H 64.2625 -1.80856 -1.83437 0
M  V30 738 H 64.2205 -0.61325 -3.08361 0
M  V30 739 N 67.9926 0.231505 -1.5589 0
M  V30 740 C 68.9226 1.29022 -1.94617 0
M  V30 741 C 69.9036 1.4941 -0.813067 0
M  V30 742 O 71.0886 1.6176 -1.07459 0
M  V30 743 C 68.2186 2.64199 -2.25424 0
M  V30 744 C 67.1726 2.58484 -3.41131 0
M  V30 745 C 66.4986 3.97599 -3.57518 0
M  V30 746 C 67.7986 2.1413 -4.76388 0
M  V30 747 H 69.4926 0.968563 -2.83301 0
M  V30 748 H 67.0386 0.464479 -1.36303 0
M  V30 749 H 68.9916 3.38413 -2.51107 0
M  V30 750 H 67.7156 2.98032 -1.33583 0
M  V30 751 H 66.3746 1.86727 -3.15481 0
M  V30 752 H 66.0226 4.28723 -2.6307 0
M  V30 753 H 65.7226 3.94659 -4.35337 0
M  V30 754 H 67.2466 4.7349 -3.85538 0
M  V30 755 H 68.6606 2.78083 -5.01341 0
M  V30 756 H 67.0576 2.2227 -5.57419 0
M  V30 757 H 68.1276 1.09331 -4.72414 0
M  V30 758 N 69.4707 1.49531 0.497807 0
M  V30 759 C 70.6957 1.63159 1.28039 0
M  V30 760 C 71.1207 0.30418 1.85624 0
M  V30 761 O 70.4787 -0.728618 1.66015 0
M  V30 762 C 70.5267 2.70537 2.38416 0
M  V30 763 O 69.6307 2.29931 3.42353 0
M  V30 764 H 68.9717 0.546001 0.377861 0
M  V30 765 H 71.5017 1.9574 0.59558 0
M  V30 766 H 71.5117 2.92802 2.84132 0
M  V30 767 H 70.1867 3.6689 1.95869 0
M  V30 768 H 68.7637 2.18009 3.02533 0
M  V30 769 N 70.9488 -0.749086 1.3866 0
M  V30 770 C 72.1948 -1.50959 1.36319 0
M  V30 771 C 72.5498 -1.92347 -0.0452451 0
M  V30 772 O 71.8428 -1.6289 -1.00884 0
M  V30 773 C 72.0368 -2.7712 2.25697 0
M  V30 774 C 71.8658 -2.48067 3.7509 0
M  V30 775 C 70.6358 -2.41062 4.44091 0
M  V30 776 C 72.8338 -2.14544 4.67414 0
M  V30 777 N 70.8158 -2.04331 5.78897 0
M  V30 778 C 72.1868 -1.88141 5.90765 0
M  V30 779 C 74.2418 -2.00892 4.55573 0
M  V30 780 C 72.9448 -1.49463 7.036 0
M  V30 781 C 74.9708 -1.63616 5.68317 0
M  V30 782 C 74.3328 -1.38088 6.90732 0
M  V30 783 H 70.4318 -0.551804 0.554108 0
M  V30 784 H 73.0158 -0.871886 1.74087 0
M  V30 785 H 71.1868 -3.38693 1.9011 0
M  V30 786 H 72.9188 -3.4321 2.1445 0
M  V30 787 H 69.6738 -2.57685 3.9736 0
M  V30 788 H 70.0978 -1.88598 6.502 0
M  V30 789 H 74.7398 -2.19301 3.61479 0
M  V30 790 H 72.4578 -1.29794 7.97608 0
M  V30 791 H 76.0438 -1.53678 5.61137 0
M  V30 792 H 74.9238 -1.09674 7.76493 0
M  V30 793 N 72.4269 -1.23603 -0.977757 0
M  V30 794 C 73.7039 -0.977897 -1.69401 0
M  V30 795 C 74.0839 0.502738 -2.05026 0
M  V30 796 O 73.4319 1.47459 -1.74551 0
M  V30 797 C 73.6419 -1.89077 -2.93345 0
M  V30 798 C 74.9899 -2.15579 -3.65802 0
M  V30 799 O 76.0139 -1.86648 -3.03383 0
M  V30 800 O 74.8729 -2.64658 -4.78141 0
M  V30 801 H 71.9669 -0.369025 -0.740101 0
M  V30 802 H 74.5129 -1.34657 -1.03274 0
M  V30 803 H 73.2849 -2.89158 -2.63634 0
M  V30 804 H 72.9079 -1.52463 -3.67207 0
M  V30 805 N 73.905 1.17692 -1.04816 0
M  V30 806 C 75.145 1.89545 -0.764979 0
M  V30 807 C 75.509 1.78979 0.695028 0
M  V30 808 O 76.71 2.45613 1.09215 0
M  V30 809 C 74.981 3.35659 -1.22751 0
M  V30 810 S 76.54 4.25526 -1.07112 0
M  V30 811 H 73.358 0.654432 -0.27792 0
M  V30 812 H 75.96 1.42163 -1.34201 0
M  V30 813 H 74.664 3.40882 -2.28533 0
M  V30 814 H 74.195 3.88083 -0.644594 0
M  V30 815 H 76.21 4.962 0.00697508 0
M  V30 816 N 75.3831 0.828654 1.34056 0
M  V30 817 C 76.3151 0.212052 2.28217 0
M  V30 818 C 77.3281 -0.601362 1.51286 0
M  V30 819 O 78.5171 -0.430104 1.73241 0
M  V30 820 C 75.6171 -0.72088 3.31144 0
M  V30 821 C 74.7901 0.0509587 4.3737 0
M  V30 822 C 73.8491 -0.803766 5.20025 0
M  V30 823 O 72.8751 -0.246667 5.68665 0
M  V30 824 N 74.0771 -2.1227 5.40298 0
M  V30 825 H 76.8421 1.02105 2.81771 0
M  V30 826 H 74.4031 0.686153 1.46641 0
M  V30 827 H 76.3951 -1.29742 3.8334 0
M  V30 828 H 74.9651 -1.43061 2.77943 0
M  V30 829 H 74.1851 0.808831 3.85813 0
M  V30 830 H 75.4731 0.582065 5.0546 0
M  V30 831 H 74.8711 -2.59898 5.02464 0
M  V30 832 H 73.4281 -2.64796 5.95589 0
M  V30 833 N 76.8612 -1.46375 0.584142 0
M  V30 834 C 77.7712 -2.34115 -0.150728 0
M  V30 835 C 78.7872 -1.49838 -0.884567 0
M  V30 836 O 79.9632 -1.82704 -0.847429 0
M  V30 837 C 77.0282 -3.2705 -1.15062 0
M  V30 838 C 76.0892 -4.27228 -0.421293 0
M  V30 839 C 75.3222 -5.15722 -1.37355 0
M  V30 840 O 75.5452 -5.07176 -2.61014 0
M  V30 841 O 74.4792 -5.95383 -0.883355 0
M  V30 842 H 78.3052 -2.98309 0.569708 0
M  V30 843 H 75.8902 -1.45373 0.344535 0
M  V30 844 H 77.7722 -3.84381 -1.72712 0
M  V30 845 H 76.4472 -2.65451 -1.8525 0
M  V30 846 H 75.3542 -3.7358 0.197085 0
M  V30 847 H 76.6872 -4.91616 0.239641 0
M  V30 848 N 78.3393 -0.321999 -1.54275 0
M  V30 849 C 79.2873 0.560206 -2.25753 0
M  V30 850 C 80.2813 1.11984 -1.27106 0
M  V30 851 O 81.4873 1.06806 -1.44888 0
M  V30 852 H 77.8623 0.199304 -0.725108 0
M  V30 853 H 79.8333 -0.0649365 -2.98329 0
M  V30 854 C 78.5823 1.71023 -3.02731 0
M  V30 855 H 77.9053 1.28885 -3.78456 0
M  V30 856 H 79.3453 2.30314 -3.55993 0
M  V30 857 C 77.8043 2.62692 -2.10938 0
M  V30 858 O 78.3343 3.64364 -1.6912 0
M  V30 859 N 76.5403 2.30891 -1.76459 0
M  V30 860 H 76.0873 1.48253 -2.10663 0
M  V30 861 H 76.0453 2.92487 -1.1532 0
M  V30 862 N 79.8174 1.5752 -0.0501392 0
M  V30 863 C 81.0454 1.96963 0.633492 0
M  V30 864 C 81.4604 0.927631 1.6444 0
M  V30 865 O 80.8174 -0.0882665 1.82286 0
M  V30 866 C 80.8684 3.36487 1.32132 0
M  V30 867 O 80.5894 4.36693 0.350894 0
M  V30 868 C 82.0904 3.90682 2.09481 0
M  V30 869 H 79.3104 0.648244 0.173266 0
M  V30 870 H 81.8544 2.0417 -0.116134 0
M  V30 871 H 80.0094 3.30434 2.02218 0
M  V30 872 H 80.4234 5.17702 0.841735 0
M  V30 873 H 81.8974 4.90591 2.5303 0
M  V30 874 H 82.3744 3.26053 2.94255 0
M  V30 875 H 82.9804 4.00069 1.44307 0
M  V30 876 N 81.2955 -0.223234 1.56011 0
M  V30 877 C 82.5235 -0.964812 1.83027 0
M  V30 878 C 82.9385 -1.78013 0.62904 0
M  V30 879 O 82.2955 -1.78008 -0.402414 0
M  V30 880 C 82.3465 -1.88373 3.08542 0
M  V30 881 O 82.0675 -1.10137 4.2403 0
M  V30 882 C 83.5685 -2.73934 3.48533 0
M  V30 883 H 80.7885 -0.282842 0.608475 0
M  V30 884 H 83.3325 -0.238971 2.03099 0
M  V30 885 H 81.4875 -2.56354 2.9045 0
M  V30 886 H 81.9015 -1.72501 4.95322 0
M  V30 887 H 83.3755 -3.34117 4.39397 0
M  V30 888 H 83.8525 -3.46244 2.70207 0
M  V30 889 H 84.4585 -2.11369 3.69057 0
M  V30 890 N 82.7736 -1.49793 -0.48987 0
M  V30 891 C 84.0206 -1.59841 -1.24327 0
M  V30 892 C 84.3486 -0.290135 -1.92324 0
M  V30 893 O 83.6036 0.722749 -1.81865 0
M  V30 894 C 83.9026 -2.71488 -2.32441 0
M  V30 895 C 83.5686 -4.12614 -1.81826 0
M  V30 896 C 82.2306 -4.51017 -1.67742 0
M  V30 897 C 84.5826 -5.00892 -1.4407 0
M  V30 898 C 81.9106 -5.75459 -1.14297 0
M  V30 899 C 84.2626 -6.25863 -0.920742 0
M  V30 900 C 82.9266 -6.63086 -0.766383 0
M  V30 901 H 82.1966 -0.584899 -0.454944 0
M  V30 902 H 84.8436 -1.83663 -0.542215 0
M  V30 903 H 83.1486 -2.4168 -3.0838 0
M  V30 904 H 84.8456 -2.76469 -2.90458 0
M  V30 905 H 81.4356 -3.82307 -1.93751 0
M  V30 906 H 85.6196 -4.7187 -1.53794 0
M  V30 907 H 80.8756 -6.02989 -1.01068 0
M  V30 908 H 85.0496 -6.9364 -0.619448 0
M  V30 909 H 82.6766 -7.59393 -0.350083 0
M  V30 910 N 84.2517 0.741722 -1.39055 0
M  V30 911 C 85.4767 1.53607 -1.39354 0
M  V30 912 C 85.9017 1.88096 0.0116905 0
M  V30 913 O 85.2597 1.5143 0.996924 0
M  V30 914 C 85.3077 2.80441 -2.26682 0
M  V30 915 O 84.4117 3.76088 -1.69208 0
M  V30 916 H 83.7527 0.464142 -0.474835 0
M  V30 917 H 86.2827 0.915665 -1.82967 0
M  V30 918 H 86.2927 3.29246 -2.40959 0
M  V30 919 H 84.9677 2.5467 -3.2881 0
M  V30 920 H 83.5447 3.34833 -1.64138 0
M  V30 921 N 85.7298 1.2412 0.971189 0
M  V30 922 C 86.6768 1.0305 2.06517 0
M  V30 923 C 87.6468 -0.0550666 1.66009 0
M  V30 924 O 88.8318 0.0988688 1.90544 0
M  V30 925 C 85.9718 0.637653 3.39158 0
M  V30 926 C 85.0848 1.79633 3.92882 0
M  V30 927 C 84.2198 1.34939 5.13775 0
M  V30 928 C 83.2588 2.47823 5.59687 0
M  V30 929 N 82.3958 2.04022 6.71803 0
M  V30 930 H 87.2358 1.96685 2.23873 0
M  V30 931 H 84.7728 0.979694 1.09729 0
M  V30 932 H 86.7308 0.390931 4.15364 0
M  V30 933 H 85.3608 -0.261693 3.21737 0
M  V30 934 H 84.4128 2.15681 3.13346 0
M  V30 935 H 85.7248 2.64466 4.22918 0
M  V30 936 H 84.8788 1.06134 5.97345 0
M  V30 937 H 83.6178 0.471557 4.85415 0
M  V30 938 H 82.6228 2.77392 4.74693 0
M  V30 939 H 83.8478 3.36158 5.90063 0
M  V30 940 H 81.7938 1.18632 6.45184 0
M  V30 941 H 81.7108 2.82409 7.01271 0
M  V30 942 H 82.9788 1.78347 7.58823 0
M  V30 943 N 87.2079 -1.17134 1.05439 0
M  V30 944 C 88.4479 -1.89137 0.77502 0
M  V30 945 C 88.8119 -1.79345 -0.685526 0
M  V30 946 O 90.0129 -2.46188 -1.0791 0
M  V30 947 C 88.2839 -3.35003 1.2453 0
M  V30 948 S 89.8429 -4.24952 1.09367 0
M  V30 949 H 86.6609 -0.652949 0.281387 0
M  V30 950 H 89.2629 -1.4145 1.34953 0
M  V30 951 H 87.9669 -3.39666 2.30338 0
M  V30 952 H 87.4979 -3.87736 0.665166 0
M  V30 953 H 89.5129 -4.96196 0.0193397 0
M  V30 954 N 88.686 -0.835752 -1.33615 0
M  V30 955 C 89.933 -0.429959 -1.97883 0
M  V30 956 C 90.261 1.01006 -1.66217 0
M  V30 957 O 89.516 1.72047 -0.93265 0
M  V30 958 C 89.815 -0.593925 -3.52431 0
M  V30 959 C 89.481 -2.00158 -4.04039 0
M  V30 960 C 88.143 -2.38662 -4.17844 0
M  V30 961 C 90.495 -2.92117 -4.31644 0
M  V30 962 C 87.823 -3.68435 -4.56588 0
M  V30 963 C 90.175 -4.21368 -4.71838 0
M  V30 964 C 88.839 -4.59833 -4.83849 0
M  V30 965 H 88.109 -0.157333 -0.724104 0
M  V30 966 H 90.756 -1.06217 -1.59343 0
M  V30 967 H 89.061 0.121619 -3.91611 0
M  V30 968 H 90.758 -0.260282 -4.00154 0
M  V30 969 H 87.348 -1.69252 -3.93766 0
M  V30 970 H 91.532 -2.63608 -4.20505 0
M  V30 971 H 86.788 -3.98046 -4.64079 0
M  V30 972 H 90.962 -4.92703 -4.92155 0
M  V30 973 H 88.589 -5.60438 -5.13627 0
M  V30 974 N 90.1641 1.46063 -0.591896 0
M  V30 975 C 91.0941 2.33172 0.123673 0
M  V30 976 C 92.0751 1.45897 0.87453 0
M  V30 977 O 93.2601 1.74698 0.848181 0
M  V30 978 C 90.3901 3.28336 1.13194 0
M  V30 979 C 89.3441 4.25124 0.495324 0
M  V30 980 C 88.6701 5.09863 1.61071 0
M  V30 981 C 89.9701 5.19143 -0.573425 0
M  V30 982 H 91.6641 2.93252 -0.603646 0
M  V30 983 H 89.2101 1.41014 -0.291741 0
M  V30 984 H 91.1631 3.88137 1.64097 0
M  V30 985 H 89.8871 2.66383 1.88965 0
M  V30 986 H 88.5461 3.66599 0.00729452 0
M  V30 987 H 88.1941 4.44288 2.35832 0
M  V30 988 H 87.8941 5.75417 1.19035 0
M  V30 989 H 89.4181 5.72529 2.12233 0
M  V30 990 H 90.8321 5.73106 -0.1491 0
M  V30 991 H 89.2291 5.93089 -0.914636 0
M  V30 992 H 90.2991 4.62519 -1.45617 0
M  V30 993 N 91.6422 0.330177 1.54103 0
M  V30 994 C 92.8702 -0.272179 2.05102 0
M  V30 995 C 93.2852 -1.45267 1.20595 0
M  V30 996 O 92.6422 -1.8094 0.238144 0
M  V30 997 C 92.6932 -0.70023 3.54653 0
M  V30 998 O 92.4142 0.433301 4.35952 0
M  V30 999 C 93.9152 -1.3647 4.21771 0
M  V30 1000 H 91.1352 -0.0549159 0.668749 0
M  V30 1001 H 93.6792 0.478285 1.98828 0
M  V30 1002 H 91.8342 -1.40066 3.61193 0
M  V30 1003 H 92.2482 0.0947539 5.24414 0
M  V30 1004 H 93.7222 -1.61509 5.27843 0
M  V30 1005 H 94.1992 -2.31409 3.73292 0
M  V30 1006 H 94.8052 -0.706675 4.19388 0
M  V30 1007 N 93.1203 -1.57491 0.0584922 0
M  V30 1008 C 94.3973 -1.84346 -0.653918 0
M  V30 1009 C 94.7773 -0.948355 -1.88599 0
M  V30 1010 O 94.1253 -0.0112403 -2.28497 0
M  V30 1011 C 94.3353 -3.34239 -1.00425 0
M  V30 1012 C 95.6833 -4.01431 -1.38342 0
M  V30 1013 O 96.7073 -3.38907 -1.09637 0
M  V30 1014 O 95.5663 -5.11683 -1.91943 0
M  V30 1015 H 92.6603 -0.761112 -0.323478 0
M  V30 1016 H 95.2063 -1.6947 0.0884125 0
M  V30 1017 H 93.9783 -3.91089 -0.128625 0
M  V30 1018 H 93.6013 -3.54329 -1.80378 0
M  V30 1019 N 94.5984 0.214957 -1.56127 0
M  V30 1020 C 95.5454 1.26642 -1.92952 0
M  V30 1021 C 96.5154 1.46244 -0.78753 0
M  V30 1022 O 97.7004 1.59704 -1.04399 0
M  V30 1023 C 94.8404 2.6104 -2.25726 0
M  V30 1024 C 93.9534 2.49183 -3.52891 0
M  V30 1025 C 93.0884 3.76149 -3.7508 0
M  V30 1026 C 92.1274 3.59041 -4.95738 0
M  V30 1027 N 91.2644 4.77972 -5.14283 0
M  V30 1028 H 96.1044 0.945384 -2.82607 0
M  V30 1029 H 93.6414 0.455489 -1.3987 0
M  V30 1030 H 95.5994 3.39313 -2.42739 0
M  V30 1031 H 94.2294 2.91227 -1.39236 0
M  V30 1032 H 93.2814 1.6231 -3.44034 0
M  V30 1033 H 94.5934 2.32466 -4.41318 0
M  V30 1034 H 93.7474 4.62865 -3.92226 0
M  V30 1035 H 92.4864 3.95799 -2.84947 0
M  V30 1036 H 91.4914 2.7071 -4.78535 0
M  V30 1037 H 92.7164 3.40856 -5.87362 0
M  V30 1038 H 90.6624 4.97923 -4.27093 0
M  V30 1039 H 90.5794 4.64006 -5.96853 0
M  V30 1040 H 91.8474 5.66096 -5.35869 0
M  V30 1041 N 96.0765 1.50051 0.48192 0
M  V30 1042 C 97.0235 1.68122 1.58125 0
M  V30 1043 C 97.9935 0.522545 1.57666 0
M  V30 1044 O 99.1785 0.751844 1.75362 0
M  V30 1045 C 96.3185 1.77142 2.96167 0
M  V30 1046 C 95.4315 3.0444 3.06497 0
M  V30 1047 C 94.5665 3.04321 4.35387 0
M  V30 1048 C 93.6055 4.26118 4.3942 0
M  V30 1049 N 92.7425 4.238 5.59766 0
M  V30 1050 H 97.5825 2.6198 1.42022 0
M  V30 1051 H 95.1195 1.29877 0.690687 0
M  V30 1052 H 97.0775 1.80352 3.76203 0
M  V30 1053 H 95.7075 0.867329 3.1093 0
M  V30 1054 H 94.7595 3.10752 2.19402 0
M  V30 1055 H 96.0715 3.94426 3.05336 0
M  V30 1056 H 95.2255 3.062 5.23762 0
M  V30 1057 H 93.9645 2.12147 4.39141 0
M  V30 1058 H 92.9695 4.24463 3.49444 0
M  V30 1059 H 94.1945 5.19507 4.37366 0
M  V30 1060 H 92.1405 3.34474 5.64326 0
M  V30 1061 H 92.0575 5.07542 5.60301 0
M  V30 1062 H 93.3255 4.2981 6.50295 0
M  V30 1063 N 97.5546 -0.734337 1.39446 0
M  V30 1064 C 98.5026 -1.86971 1.38364 0
M  V30 1065 C 99.4966 -1.67288 0.266687 0
M  V30 1066 O 100.703 -1.74621 0.436755 0
M  V30 1067 H 97.0776 -0.615474 0.432082 0
M  V30 1068 H 99.0486 -1.85 2.34132 0
M  V30 1069 C 97.7976 -3.2466 1.24465 0
M  V30 1070 H 97.1206 -3.40402 2.09682 0
M  V30 1071 H 98.5606 -4.04292 1.27764 0
M  V30 1072 C 97.0196 -3.36867 -0.0468674 0
M  V30 1073 O 97.5496 -3.88618 -1.01681 0
M  V30 1074 N 95.7556 -2.90391 -0.110145 0
M  V30 1075 H 95.3026 -2.48466 0.679868 0
M  V30 1076 H 95.2606 -2.98939 -0.973799 0
M  V30 1077 N 99.0327 -1.24633 -0.964593 0
M  V30 1078 C 100.449 -1.01239 -1.2338 0
M  V30 1079 C 100.649 0.2769 -1.99588 0
M  V30 1080 O 99.7047 0.992241 -2.32187 0
M  V30 1081 C 101.018 -2.22937 -2.01791 0
M  V30 1082 C 102.566 -2.27594 -2.14872 0
M  V30 1083 C 103.041 -3.48921 -2.96678 0
M  V30 1084 N 104.532 -3.49257 -3.04259 0
M  V30 1085 C 105.267 -4.39795 -3.67924 0
M  V30 1086 N 104.763 -5.40591 -4.33281 0
M  V30 1087 N 106.556 -4.275 -3.64966 0
M  V30 1088 H 98.7067 -2.0748 -0.454502 0
M  V30 1089 H 100.97 -0.910647 -0.26349 0
M  V30 1090 H 100.676 -3.16587 -1.53184 0
M  V30 1091 H 100.55 -2.25306 -3.02518 0
M  V30 1092 H 102.937 -1.34473 -2.6268 0
M  V30 1093 H 103.018 -2.2925 -1.13482 0
M  V30 1094 H 102.662 -4.42359 -2.49562 0
M  V30 1095 H 102.592 -3.4451 -3.98272 0
M  V30 1096 H 105.083 -2.76337 -2.57771 0
M  V30 1097 H 105.396 -6.05904 -4.79687 0
M  V30 1098 H 103.741 -5.44475 -4.3194 0
M  V30 1099 H 106.932 -3.47987 -3.13086 0
M  V30 1100 H 107.105 -4.98258 -4.14298 0
M  V30 1101 N 100.511 1.16574 -1.06058 0
M  V30 1102 C 101.757 1.87324 -0.777022 0
M  V30 1103 C 102.09 1.81351 0.694645 0
M  V30 1104 O 101.365 1.22753 1.50871 0
M  V30 1105 C 101.648 3.36991 -1.26922 0
M  V30 1106 C 101.501 3.51667 -2.80447 0
M  V30 1107 C 102.82 4.3131 -0.87521 0
M  V30 1108 H 99.9388 0.680191 -0.28374 0
M  V30 1109 H 102.581 1.37036 -1.3161 0
M  V30 1110 H 100.731 3.79949 -0.81063 0
M  V30 1111 H 102.403 3.17664 -3.34495 0
M  V30 1112 H 100.646 2.93656 -3.19294 0
M  V30 1113 H 101.317 4.56766 -3.0995 0
M  V30 1114 H 103.793 3.9624 -1.27014 0
M  V30 1115 H 102.669 5.34545 -1.2471 0
M  V30 1116 H 102.93 4.41552 0.220071 0
M  V30 1117 N 101.989 0.842826 1.3317 0
M  V30 1118 C 103.235 0.441099 1.97945 0
M  V30 1119 C 103.568 -0.998024 1.66593 0
M  V30 1120 O 102.843 -1.69839 0.947898 0
M  V30 1121 C 103.126 0.666841 3.53872 0
M  V30 1122 C 102.979 2.15352 3.94897 0
M  V30 1123 C 104.298 0.115544 4.39948 0
M  V30 1124 H 101.417 0.161739 0.719034 0
M  V30 1125 H 104.059 1.05907 1.57746 0
M  V30 1126 H 102.209 0.140828 3.88245 0
M  V30 1127 H 103.881 2.7447 3.70761 0
M  V30 1128 H 102.124 2.63653 3.44484 0
M  V30 1129 H 102.795 2.26221 5.03516 0
M  V30 1130 H 105.271 0.565213 4.12243 0
M  V30 1131 H 104.147 0.303152 5.48062 0
M  V30 1132 H 104.408 -0.980935 4.3108 0
M  V30 1133 N 103.467 -1.45747 0.599634 0
M  V30 1134 C 104.377 -2.34262 -0.125888 0
M  V30 1135 C 105.393 -1.50768 -0.868625 0
M  V30 1136 O 106.569 -1.83592 -0.828003 0
M  V30 1137 C 103.634 -3.28252 -1.11587 0
M  V30 1138 C 102.695 -4.27651 -0.375956 0
M  V30 1139 C 101.928 -5.1715 -1.31877 0
M  V30 1140 O 102.151 -5.09916 -2.55621 0
M  V30 1141 O 101.085 -5.96286 -0.820157 0
M  V30 1142 H 104.911 -2.97688 0.601315 0
M  V30 1143 H 102.496 -1.44999 0.359934 0
M  V30 1144 H 104.378 -3.86191 -1.68626 0
M  V30 1145 H 103.053 -2.67401 -1.82424 0
M  V30 1146 H 101.96 -3.7335 0.236698 0
M  V30 1147 H 103.293 -4.91334 0.29177 0
M  V30 1148 N 104.945 -0.338344 -1.53925 0
M  V30 1149 C 106.356 0.146651 -1.86123 0
M  V30 1150 C 106.707 1.5042 -1.2597 0
M  V30 1151 O 105.832 2.08723 -0.571294 0
M  V30 1152 C 106.427 0.272879 -3.37699 0
M  V30 1153 C 104.986 0.702103 -3.69794 0
M  V30 1154 C 104.133 -0.167304 -2.76795 0
M  V30 1155 H 107.084 -0.558123 -1.48562 0
M  V30 1156 H 107.105 1.10128 -3.64214 0
M  V30 1157 H 106.617 -0.715307 -3.81451 0
M  V30 1158 H 104.718 1.6995 -3.31584 0
M  V30 1159 H 104.831 0.495604 -4.7653 0
M  V30 1160 H 103.195 0.359527 -2.5215 0
M  V30 1161 H 103.978 -1.15253 -3.23375 0
M  V30 1162 N 106.423 1.57458 -0.0668435 0
M  V30 1163 C 107.839 1.56947 0.289772 0
M  V30 1164 C 108.039 1.07584 1.70376 0
M  V30 1165 O 107.095 0.739486 2.41429 0
M  V30 1166 C 108.408 3.0052 0.103943 0
M  V30 1167 C 109.956 3.12517 0.173857 0
M  V30 1168 C 110.431 4.57997 0.0163682 0
M  V30 1169 N 111.922 4.63144 0.0721352 0
M  V30 1170 C 112.657 5.73394 -0.0253794 0
M  V30 1171 N 112.153 6.92576 -0.176133 0
M  V30 1172 N 113.946 5.62091 0.0313305 0
M  V30 1173 H 106.097 1.87863 -0.991027 0
M  V30 1174 H 108.36 0.86583 -0.38606 0
M  V30 1175 H 108.066 3.40729 -0.871572 0
M  V30 1176 H 107.94 3.67304 0.858366 0
M  V30 1177 H 110.327 2.72197 1.13985 0
M  V30 1178 H 110.408 2.48381 -0.611586 0
M  V30 1179 H 110.052 4.99005 -0.946374 0
M  V30 1180 H 109.982 5.20158 0.821153 0
M  V30 1181 H 112.473 3.77436 0.187263 0
M  V30 1182 H 112.786 7.72418 -0.242821 0
M  V30 1183 H 111.131 6.94678 -0.211429 0
M  V30 1184 H 114.322 4.67867 0.147773 0
M  V30 1185 H 114.495 6.47982 -0.048121 0
M  V30 1186 N 107.901 -0.206675 1.56239 0
M  V30 1187 C 108.831 -1.25909 1.96645 0
M  V30 1188 C 109.812 -1.48097 0.836734 0
M  V30 1189 O 110.997 -1.6003 1.10019 0
M  V30 1190 C 108.127 -2.6058 2.29599 0
M  V30 1191 C 107.081 -2.53024 3.452 0
M  V30 1192 C 106.407 -3.91861 3.63798 0
M  V30 1193 C 107.707 -2.06524 4.79734 0
M  V30 1194 H 109.401 -0.923369 2.84806 0
M  V30 1195 H 106.947 -0.442735 1.37025 0
M  V30 1196 H 108.9 -3.34375 2.56459 0
M  V30 1197 H 107.624 -2.95869 1.38307 0
M  V30 1198 H 106.283 -1.81684 3.18412 0
M  V30 1199 H 105.931 -4.24483 2.69857 0
M  V30 1200 H 105.631 -3.87683 4.4156 0
M  V30 1201 H 107.155 -4.67296 3.93022 0
M  V30 1202 H 108.569 -2.70072 5.05702 0
M  V30 1203 H 106.966 -2.13374 5.60885 0
M  V30 1204 H 108.036 -1.01802 4.74093 0
M  V30 1205 N 109.379 -1.50304 -0.473955 0
M  V30 1206 C 110.604 -1.65175 -1.25427 0
M  V30 1207 C 111.029 -0.333673 -1.85117 0
M  V30 1208 O 110.387 0.702114 -1.67153 0
M  V30 1209 C 110.435 -2.74295 -2.34082 0
M  V30 1210 O 109.539 -2.35349 -3.38651 0
M  V30 1211 H 108.88 -0.551944 -0.369126 0
M  V30 1212 H 111.41 -1.96662 -0.564364 0
M  V30 1213 H 111.42 -2.97285 -2.79438 0
M  V30 1214 H 110.095 -3.69959 -1.90008 0
M  V30 1215 H 108.672 -2.22794 -2.99027 0
M  V30 1216 N 110.857 0.726932 -1.39834 0
M  V30 1217 C 111.805 1.86235 -1.39353 0
M  V30 1218 C 112.799 1.67144 -0.275555 0
M  V30 1219 O 114.005 1.74387 -0.44601 0
M  V30 1220 H 110.38 0.613174 -0.43534 0
M  V30 1221 H 112.351 1.83756 -2.35109 0
M  V30 1222 C 111.1 3.23995 -1.26185 0
M  V30 1223 H 110.423 3.39285 -2.11484 0
M  V30 1224 H 111.863 4.03609 -1.29907 0
M  V30 1225 C 110.322 3.36888 0.0290018 0
M  V30 1226 O 110.852 3.89152 0.99619 0
M  V30 1227 N 109.058 2.90446 0.0947437 0
M  V30 1228 H 108.605 2.48102 -0.693035 0
M  V30 1229 H 108.563 2.99451 0.957932 0
M  V30 1230 N 112.336 1.25143 0.95797 0
M  V30 1231 C 113.284 1.05019 2.07542 0
M  V30 1232 C 114.278 -0.0178751 1.69391 0
M  V30 1233 O 115.484 0.137472 1.79474 0
M  V30 1234 H 111.859 0.32265 0.679265 0
M  V30 1235 H 113.83 1.99759 2.21673 0
M  V30 1236 C 112.579 0.682074 3.40944 0
M  V30 1237 H 111.902 1.49573 3.70767 0
M  V30 1238 H 113.342 0.580945 4.20001 0
M  V30 1239 C 111.801 -0.611608 3.31302 0
M  V30 1240 O 112.331 -1.65465 3.66038 0
M  V30 1241 N 110.537 -0.595982 2.84423 0
M  V30 1242 H 110.084 0.253192 2.56353 0
M  V30 1243 H 110.042 -1.46173 2.78354 0
M  V30 1244 N 113.814 -1.1601 1.06675 0
M  V30 1245 C 114.724 -2.24156 0.692179 0
M  V30 1246 C 115.74 -1.71507 -0.293513 0
M  V30 1247 O 116.916 -2.009 -0.141861 0
M  V30 1248 C 113.981 -3.46587 0.0884131 0
M  V30 1249 C 113.042 -4.14257 1.12646 0
M  V30 1250 C 112.275 -5.30844 0.551416 0
M  V30 1251 O 112.498 -5.66858 -0.634656 0
M  V30 1252 O 111.432 -5.87848 1.29298 0
M  V30 1253 H 115.258 -2.58513 1.59388 0
M  V30 1254 H 112.843 -1.23599 0.83926 0
M  V30 1255 H 114.725 -4.20679 -0.246361 0
M  V30 1256 H 113.4 -3.13994 -0.786712 0
M  V30 1257 H 112.307 -3.42118 1.51348 0
M  V30 1258 H 113.64 -4.50914 1.97325 0
M  V30 1259 N 115.292 -0.849877 -1.32721 0
M  V30 1260 C 116.532 -0.457146 -1.99222 0
M  V30 1261 C 116.896 0.968038 -1.6581 0
M  V30 1262 O 118.097 1.46507 -2.25364 0
M  V30 1263 C 116.368 -0.683966 -3.50794 0
M  V30 1264 S 117.927 -0.388095 -4.3708 0
M  V30 1265 H 114.745 -0.171464 -0.690015 0
M  V30 1266 H 117.347 -1.10155 -1.61512 0
M  V30 1267 H 116.051 -1.72038 -3.726 0
M  V30 1268 H 115.582 -0.0258086 -3.93392 0
M  V30 1269 H 117.597 0.787791 -4.89906 0
M  V30 1270 N 116.77 1.45427 -0.607355 0
M  V30 1271 C 117.995 2.07124 -0.107006 0
M  V30 1272 C 118.42 1.44906 1.19933 0
M  V30 1273 O 117.778 0.541687 1.73019 0
M  V30 1274 C 117.826 3.60595 0.0194119 0
M  V30 1275 O 116.93 3.98285 1.0697 0
M  V30 1276 H 116.271 0.659868 -0.0739597 0
M  V30 1277 H 118.801 1.86683 -0.837297 0
M  V30 1278 H 118.811 4.07419 0.2177 0
M  V30 1279 H 117.486 4.05266 -0.934453 0
M  V30 1280 H 116.063 3.63133 0.847889 0
M  V30 1281 N 118.248 0.346503 1.53744 0
M  V30 1282 C 119.488 -0.249413 2.02873 0
M  V30 1283 C 119.852 -1.47532 1.22876 0
M  V30 1284 O 121.053 -2.1456 1.61918 0
M  V30 1285 C 119.324 -0.552909 3.53097 0
M  V30 1286 S 120.883 -1.12521 4.24128 0
M  V30 1287 H 117.701 -0.074042 0.707134 0
M  V30 1288 H 120.303 0.48495 1.8939 0
M  V30 1289 H 119.007 0.347083 4.0893 0
M  V30 1290 H 118.538 -1.31686 3.70705 0
M  V30 1291 H 120.553 -2.41075 4.33702 0
M  V30 1292 N 119.726 -1.57421 0.075193 0
M  V30 1293 C 120.954 -1.97946 -0.602076 0
M  V30 1294 C 121.369 -0.953674 -1.62943 0
M  V30 1295 O 120.726 0.0592551 -1.82404 0
M  V30 1296 C 120.777 -3.38546 -1.26762 0
M  V30 1297 O 120.498 -4.37195 -0.281376 0
M  V30 1298 C 121.999 -3.93966 -2.03239 0
M  V30 1299 H 119.219 -0.650918 -0.162931 0
M  V30 1300 H 121.763 -2.03959 0.148601 0
M  V30 1301 H 119.918 -3.33609 -1.96936 0
M  V30 1302 H 120.332 -5.18975 -0.759267 0
M  V30 1303 H 121.806 -4.94555 -2.45193 0
M  V30 1304 H 122.283 -3.30693 -2.8903 0
M  V30 1305 H 122.889 -4.02315 -1.37924 0
M  V30 1306 N 121.204 0.198386 -1.56346 0
M  V30 1307 C 122.451 0.919286 -1.80431 0
M  V30 1308 C 122.779 1.83393 -0.647866 0
M  V30 1309 O 122.034 1.92236 0.366556 0
M  V30 1310 C 122.333 1.77031 -3.10475 0
M  V30 1311 C 121.999 1.00693 -4.39513 0
M  V30 1312 C 120.661 0.796145 -4.74568 0
M  V30 1313 C 123.013 0.469559 -5.19081 0
M  V30 1314 C 120.341 0.0364588 -5.86689 0
M  V30 1315 C 122.693 -0.2769 -6.31994 0
M  V30 1316 C 121.357 -0.49873 -6.65634 0
M  V30 1317 H 120.627 0.336391 -0.660244 0
M  V30 1318 H 123.274 0.185872 -1.90596 0
M  V30 1319 H 121.579 2.5723 -2.95533 0
M  V30 1320 H 123.276 2.33065 -3.26315 0
M  V30 1321 H 119.866 1.18122 -4.12001 0
M  V30 1322 H 124.05 0.619816 -4.92414 0
M  V30 1323 H 119.306 -0.145412 -6.11227 0
M  V30 1324 H 123.48 -0.700684 -6.92866 0
M  V30 1325 H 121.107 -1.0893 -7.52355 0
M  V30 1326 N 122.682 1.50554 0.465978 0
M  V30 1327 C 124.098 1.38093 0.800154 0
M  V30 1328 C 124.298 0.440988 1.96615 0
M  V30 1329 O 123.354 -0.114499 2.5224 0
M  V30 1330 C 124.667 2.79565 1.10742 0
M  V30 1331 C 126.215 2.88516 1.21357 0
M  V30 1332 C 126.69 4.30833 1.55393 0
M  V30 1333 N 128.181 4.33807 1.62375 0
M  V30 1334 C 128.916 5.40927 1.90225 0
M  V30 1335 N 128.412 6.58247 2.16062 0
M  V30 1336 N 130.205 5.28376 1.9177 0
M  V30 1337 H 122.356 2.10237 -0.302366 0
M  V30 1338 H 124.619 0.945203 -0.0727746 0
M  V30 1339 H 124.325 3.50208 0.323661 0
M  V30 1340 H 124.199 3.17125 2.04234 0
M  V30 1341 H 126.586 2.1809 1.98799 0
M  V30 1342 H 126.667 2.54492 0.258321 0
M  V30 1343 H 126.311 5.01799 0.784889 0
M  V30 1344 H 126.241 4.62347 2.52076 0
M  V30 1345 H 128.732 3.49212 1.44427 0
M  V30 1346 H 129.045 7.3569 2.36601 0
M  V30 1347 H 127.39 6.61413 2.13444 0
M  V30 1348 H 130.581 4.35715 1.71085 0
M  V30 1349 H 130.754 6.11944 2.13139 0
M  V30 1350 N 124.16 -0.719506 1.40217 0
M  V30 1351 C 125.07 -1.86378 1.42479 0
M  V30 1352 C 126.086 -1.71073 0.317834 0
M  V30 1353 O 127.262 -1.93406 0.561794 0
M  V30 1354 C 124.327 -3.22136 1.28178 0
M  V30 1355 C 123.388 -3.49723 2.48982 0
M  V30 1356 C 122.621 -4.79004 2.35353 0
M  V30 1357 O 122.844 -5.53821 1.36524 0
M  V30 1358 O 121.778 -5.06839 3.2465 0
M  V30 1359 H 125.604 -1.87425 2.38968 0
M  V30 1360 H 123.189 -0.869405 1.21498 0
M  V30 1361 H 125.071 -4.03234 1.22395 0
M  V30 1362 H 123.746 -3.21825 0.347934 0
M  V30 1363 H 122.653 -2.6865 2.60342 0
M  V30 1364 H 123.986 -3.54828 3.41113 0
M  V30 1365 N 125.638 -1.25649 -0.95132 0
M  V30 1366 C 126.887 -1.09988 -1.69073 0
M  V30 1367 C 127.2 0.358355 -1.92289 0
M  V30 1368 O 128.406 0.635466 -2.63958 0
M  V30 1369 C 126.862 -1.92012 -3.044 0
M  V30 1370 C 126.47 -3.42347 -2.88968 0
M  V30 1371 C 128.214 -1.8493 -3.82101 0
M  V30 1372 C 126.121 -4.16655 -4.19705 0
M  V30 1373 H 125.051 -0.407993 -0.63408 0
M  V30 1374 H 127.702 -1.49873 -1.05879 0
M  V30 1375 H 126.084 -1.44952 -3.68517 0
M  V30 1376 H 127.258 -3.97104 -2.33762 0
M  V30 1377 H 125.573 -3.50557 -2.24719 0
M  V30 1378 H 128.17 -2.37739 -4.78941 0
M  V30 1379 H 128.513 -0.817883 -4.08187 0
M  V30 1380 H 129.046 -2.29758 -3.2474 0
M  V30 1381 H 125.785 -5.20224 -3.98807 0
M  V30 1382 H 125.305 -3.66681 -4.74663 0
M  V30 1383 H 126.984 -4.24551 -4.88227 0
M  V30 1384 N 127.117 1.15442 -1.07289 0
M  V30 1385 C 128.357 1.8788 -0.805012 0
M  V30 1386 C 128.721 1.80413 0.656907 0
M  V30 1387 O 129.922 2.47874 1.0398 0
M  V30 1388 C 128.193 3.3298 -1.29843 0
M  V30 1389 S 129.752 4.23158 -1.16114 0
M  V30 1390 H 126.57 0.64839 -0.291739 0
M  V30 1391 H 129.172 1.39285 -1.37186 0
M  V30 1392 H 127.876 3.35958 -2.35712 0
M  V30 1393 H 127.407 3.86629 -0.726767 0
M  V30 1394 H 129.422 4.96103 -0.0982778 0
M  V30 1395 N 128.595 0.856903 1.32268 0
M  V30 1396 C 129.525 0.31858 2.31316 0
M  V30 1397 C 130.506 -0.583487 1.59779 0
M  V30 1398 O 131.691 -0.503259 1.87566 0
M  V30 1399 C 128.821 -0.491979 3.43798 0
M  V30 1400 C 127.775 0.315849 4.26833 0
M  V30 1401 C 127.101 -0.619586 5.31098 0
M  V30 1402 C 128.401 1.54282 4.98993 0
M  V30 1403 H 130.095 1.14621 2.76591 0
M  V30 1404 H 127.641 0.552613 1.32974 0
M  V30 1405 H 129.594 -0.879012 4.1213 0
M  V30 1406 H 128.318 -1.35299 2.97257 0
M  V30 1407 H 126.977 0.684664 3.6015 0
M  V30 1408 H 126.625 -1.47751 4.8081 0
M  V30 1409 H 126.325 -0.0830621 5.87541 0
M  V30 1410 H 127.849 -1.00375 6.02293 0
M  V30 1411 H 129.263 1.22796 5.59995 0
M  V30 1412 H 127.66 2.01745 5.65172 0
M  V30 1413 H 128.73 2.30285 4.26728 0
M  V30 1414 N 130.073 -1.45103 0.615059 0
M  V30 1415 C 131.023 -2.27679 -0.120966 0
M  V30 1416 C 132.007 -1.3775 -0.831491 0
M  V30 1417 O 133.199 -1.61683 -0.720249 0
M  V30 1418 C 130.328 -3.24767 -1.1127 0
M  V30 1419 C 129.414 -4.22184 -0.402627 0
M  V30 1420 N 129.805 -5.02692 0.559884 0
M  V30 1421 C 128.103 -4.4125 -0.649202 0
M  V30 1422 C 128.804 -5.73421 0.977942 0
M  V30 1423 N 127.78 -5.42657 0.320104 0
M  V30 1424 H 131.582 -2.87325 0.618181 0
M  V30 1425 H 129.096 -1.56345 0.439304 0
M  V30 1426 H 131.093 -3.82666 -1.65446 0
M  V30 1427 H 129.753 -2.66682 -1.85232 0
M  V30 1428 H 130.764 -5.09354 0.936976 0
M  V30 1429 H 127.441 -3.9428 -1.37293 0
M  V30 1430 H 128.831 -6.48107 1.77222 0
M  V30 1431 N 131.551 -0.354651 -1.53558 0
M  V30 1432 C 132.461 0.50515 -2.29097 0
M  V30 1433 C 133.477 1.10223 -1.34636 0
M  V30 1434 O 134.653 1.11553 -1.67684 0
M  V30 1435 C 131.718 1.63479 -3.05738 0
M  V30 1436 C 130.779 1.06636 -4.15845 0
M  V30 1437 C 130.012 2.14217 -4.88822 0
M  V30 1438 O 130.235 3.35137 -4.61562 0
M  V30 1439 O 129.169 1.77887 -5.75013 0
M  V30 1440 H 132.995 -0.109237 -3.03503 0
M  V30 1441 H 130.58 -0.119357 -1.48922 0
M  V30 1442 H 132.462 2.2918 -3.5363 0
M  V30 1443 H 131.137 2.23478 -2.34178 0
M  V30 1444 H 130.044 0.373565 -3.7223 0
M  V30 1445 H 131.377 0.511081 -4.89539 0
M  V30 1446 N 133.029 1.57378 -0.0835403 0
M  V30 1447 C 134.277 1.93547 0.581718 0
M  V30 1448 C 134.598 0.96524 1.69435 0
M  V30 1449 O 133.868 0.0153369 1.95894 0
M  V30 1450 H 132.448 0.714521 0.217874 0
M  V30 1451 H 135.11 1.94366 -0.144158 0
M  V30 1452 H 134.206 2.95665 0.999423 0
M  V30 1453 N 134.507 -0.190092 1.56449 0
M  V30 1454 C 135.753 -0.911052 1.81184 0
M  V30 1455 C 136.086 -1.82699 0.658396 0
M  V30 1456 O 135.361 -1.91491 -0.340775 0
M  V30 1457 C 135.644 -1.72297 3.16205 0
M  V30 1458 C 135.497 -0.831419 4.42049 0
M  V30 1459 C 136.816 -2.69454 3.47969 0
M  V30 1460 H 133.935 -0.32977 0.659106 0
M  V30 1461 H 136.577 -0.178169 1.89163 0
M  V30 1462 H 134.727 -2.34778 3.09534 0
M  V30 1463 H 136.399 -0.220929 4.60771 0
M  V30 1464 H 134.642 -0.138406 4.33579 0
M  V30 1465 H 135.313 -1.43461 5.33032 0
M  V30 1466 H 137.789 -2.17104 3.54972 0
M  V30 1467 H 136.665 -3.23342 4.43555 0
M  V30 1468 H 136.926 -3.48744 2.71717 0
M  V30 1469 N 135.985 -1.50799 -0.457987 0
M  V30 1470 C 137.213 -1.66218 -1.23203 0
M  V30 1471 C 137.628 -0.350894 -1.85511 0
M  V30 1472 O 136.985 0.668546 -1.69814 0
M  V30 1473 C 137.036 -2.76291 -2.33121 0
M  V30 1474 O 136.757 -4.02338 -1.73366 0
M  V30 1475 C 138.258 -3.028 -3.2377 0
M  V30 1476 H 135.478 -0.558361 -0.372121 0
M  V30 1477 H 138.022 -1.97099 -0.545179 0
M  V30 1478 H 136.177 -2.48068 -2.97558 0
M  V30 1479 H 136.591 -4.63312 -2.4585 0
M  V30 1480 H 138.065 -3.8345 -3.97077 0
M  V30 1481 H 138.542 -2.14385 -3.83322 0
M  V30 1482 H 139.148 -3.32604 -2.65056 0
M  V30 1483 N 137.463 0.71206 -1.40597 0
M  V30 1484 C 138.71 1.47197 -1.39065 0
M  V30 1485 C 139.038 1.94499 0.00583891 0
M  V30 1486 O 138.293 1.68752 0.99102 0
M  V30 1487 C 138.592 2.71039 -2.32965 0
M  V30 1488 C 138.258 2.42484 -3.80148 0
M  V30 1489 C 136.92 2.34406 -4.20247 0
M  V30 1490 C 139.272 2.18598 -4.73143 0
M  V30 1491 C 136.6 2.00516 -5.51371 0
M  V30 1492 C 138.952 1.8622 -6.0457 0
M  V30 1493 C 137.616 1.76626 -6.43708 0
M  V30 1494 H 136.886 0.538634 -0.508876 0
M  V30 1495 H 139.533 0.815325 -1.73276 0
M  V30 1496 H 137.838 3.41558 -1.91951 0
M  V30 1497 H 139.535 3.29138 -2.29061 0
M  V30 1498 H 136.125 2.49659 -3.4838 0
M  V30 1499 H 140.309 2.23793 -4.42979 0
M  V30 1500 H 135.565 1.91628 -5.80593 0
M  V30 1501 H 139.739 1.66752 -6.76141 0
M  V30 1502 H 137.366 1.50133 -7.45228 0
M  V30 1503 N 138.941 1.26152 0.944643 0
M  V30 1504 C 139.851 1.09176 2.07648 0
M  V30 1505 C 140.867 0.0261935 1.7398 0
M  V30 1506 O 142.043 0.229208 2.00091 0
M  V30 1507 C 139.108 0.722915 3.39079 0
M  V30 1508 C 138.169 1.86752 3.86552 0
M  V30 1509 C 137.402 1.51617 5.11711 0
M  V30 1510 O 137.625 0.416331 5.68879 0
M  V30 1511 O 136.559 2.34975 5.54139 0
M  V30 1512 H 140.385 2.0412 2.24875 0
M  V30 1513 H 137.97 1.05182 1.061 0
M  V30 1514 H 139.852 0.529787 4.18056 0
M  V30 1515 H 138.527 -0.197159 3.23099 0
M  V30 1516 H 137.434 2.11558 3.08535 0
M  V30 1517 H 138.767 2.76719 4.07047 0
M  V30 1518 N 140.419 -1.14872 1.07899 0
M  V30 1519 C 141.665 -1.86064 0.806725 0
M  V30 1520 C 141.998 -1.82434 -0.665706 0
M  V30 1521 O 141.273 -1.25138 -1.48899 0
M  V30 1522 C 141.556 -3.34929 1.32267 0
M  V30 1523 C 141.409 -3.47161 2.86006 0
M  V30 1524 C 142.728 -4.29863 0.943717 0
M  V30 1525 H 139.847 -0.675591 0.294526 0
M  V30 1526 H 142.489 -1.34925 1.33773 0
M  V30 1527 H 140.639 -3.78611 0.870974 0
M  V30 1528 H 142.311 -3.12302 3.39507 0
M  V30 1529 H 140.554 -2.88539 3.23925 0
M  V30 1530 H 141.225 -4.51777 3.17177 0
M  V30 1531 H 143.701 -3.9417 1.33302 0
M  V30 1532 H 142.577 -5.32494 1.33198 0
M  V30 1533 H 142.838 -4.41846 -0.149796 0
M  V30 1534 N 141.898 -0.863906 -1.31812 0
M  V30 1535 C 142.848 -0.286898 -2.26188 0
M  V30 1536 C 143.832 0.572577 -1.50367 0
M  V30 1537 O 145.024 0.420447 -1.71934 0
M  V30 1538 C 142.153 0.515849 -3.39402 0
M  V30 1539 C 141.239 -0.356531 -4.22599 0
M  V30 1540 N 141.63 -1.44716 -4.84656 0
M  V30 1541 C 139.928 -0.147898 -4.45755 0
M  V30 1542 C 140.629 -1.98462 -5.46798 0
M  V30 1543 N 139.605 -1.28247 -5.28255 0
M  V30 1544 H 143.407 -1.12055 -2.717 0
M  V30 1545 H 140.921 -0.711012 -1.46008 0
M  V30 1546 H 142.918 0.945701 -4.06032 0
M  V30 1547 H 141.578 1.34718 -2.95434 0
M  V30 1548 H 142.589 -1.83008 -4.84488 0
M  V30 1549 H 139.266 0.647973 -4.12441 0
M  V30 1550 H 140.656 -2.89932 -6.06126 0
M  V30 1551 N 143.376 1.44774 -0.622745 0
M  V30 1552 C 144.622 2.0242 -0.124083 0
M  V30 1553 C 144.955 1.4881 1.24777 0
M  V30 1554 O 144.23 0.668799 1.8264 0
M  V30 1555 C 144.513 3.59957 -0.101619 0
M  V30 1556 C 144.366 4.23867 -1.50521 0
M  V30 1557 C 145.685 4.36284 0.578272 0
M  V30 1558 H 142.804 0.735528 -0.0465645 0
M  V30 1559 H 145.446 1.72447 -0.797617 0
M  V30 1560 H 143.596 3.85623 0.471934 0
M  V30 1561 H 145.268 4.09336 -2.12701 0
M  V30 1562 H 143.511 3.81684 -2.06154 0
M  V30 1563 H 144.182 5.32843 -1.4416 0
M  V30 1564 H 146.658 4.16001 0.0906057 0
M  V30 1565 H 145.534 5.46004 0.563149 0
M  V30 1566 H 145.795 4.10271 1.64713 0
M  V30 1567 N 144.854 0.36279 1.53368 0
M  V30 1568 C 145.802 -0.500155 2.27159 0
M  V30 1569 C 146.796 -1.08575 1.3003 0
M  V30 1570 O 148.002 -1.02927 1.47668 0
M  V30 1571 H 144.377 -0.180009 0.730138 0
M  V30 1572 H 146.348 0.14401 2.98052 0
M  V30 1573 C 145.097 -1.62937 3.07159 0
M  V30 1574 H 144.42 -1.18806 3.8174 0
M  V30 1575 H 145.86 -2.20795 3.61975 0
M  V30 1576 C 144.319 -2.57007 2.17829 0
M  V30 1577 O 144.849 -3.59752 1.78721 0
M  V30 1578 N 143.055 -2.26131 1.82518 0
M  V30 1579 H 142.602 -1.42616 2.14519 0
M  V30 1580 H 142.56 -2.89327 1.23034 0
M  V30 1581 N 146.332 -1.57332 0.0918853 0
M  V30 1582 C 147.56 -1.98574 -0.581048 0
M  V30 1583 C 147.975 -0.970903 -1.61923 0
M  V30 1584 O 147.332 0.0399054 -1.82456 0
M  V30 1585 C 147.383 -3.39872 -1.23164 0
M  V30 1586 O 147.104 -4.37469 -0.234989 0
M  V30 1587 C 148.605 -3.96099 -1.99049 0
M  V30 1588 H 145.825 -0.65261 -0.156018 0
M  V30 1589 H 148.369 -2.0379 0.170225 0
M  V30 1590 H 146.524 -3.35679 -1.93386 0
M  V30 1591 H 146.938 -5.19751 -0.70418 0
M  V30 1592 H 148.412 -4.97127 -2.39934 0
M  V30 1593 H 148.889 -3.3374 -2.85507 0
M  V30 1594 H 149.495 -4.03755 -1.3365 0
M  V30 1595 N 147.81 0.181792 -1.56548 0
M  V30 1596 C 149.035 0.920019 -1.85877 0
M  V30 1597 C 149.46 1.75494 -0.677021 0
M  V30 1598 O 148.818 1.77399 0.374056 0
M  V30 1599 C 148.866 1.78112 -3.13542 0
M  V30 1600 O 147.97 2.88152 -2.95029 0
M  V30 1601 H 147.311 0.258334 -0.611686 0
M  V30 1602 H 149.841 0.183092 -2.03779 0
M  V30 1603 H 149.851 2.18314 -3.44678 0
M  V30 1604 H 148.526 1.16777 -3.99169 0
M  V30 1605 H 147.103 2.51609 -2.75222 0
M  V30 1606 N 149.288 1.51039 0.449983 0
M  V30 1607 C 150.22 1.67617 1.56324 0
M  V30 1608 C 151.233 0.557083 1.52972 0
M  V30 1609 O 152.422 0.830989 1.57977 0
M  V30 1610 C 149.522 1.66402 2.95235 0
M  V30 1611 C 148.695 2.9469 3.23229 0
M  V30 1612 C 147.754 2.85832 4.41799 0
M  V30 1613 O 146.78 3.59785 4.41071 0
M  V30 1614 N 147.982 2.00821 5.44657 0
M  V30 1615 H 150.747 2.63648 1.42512 0
M  V30 1616 H 148.308 1.48767 0.638737 0
M  V30 1617 H 150.3 1.58062 3.72557 0
M  V30 1618 H 148.87 0.780182 3.02708 0
M  V30 1619 H 148.09 3.16996 2.34323 0
M  V30 1620 H 149.378 3.79636 3.38754 0
M  V30 1621 H 148.776 1.40091 5.48079 0
M  V30 1622 H 147.333 1.98368 6.20881 0
M  V30 1623 N 150.766 -0.704594 1.40972 0
M  V30 1624 C 152.182 -1.01406 1.23244 0
M  V30 1625 C 152.382 -2.01169 0.115399 0
M  V30 1626 O 151.438 -2.47021 -0.523147 0
M  V30 1627 C 152.751 -1.54728 2.57836 0
M  V30 1628 C 154.299 -1.66658 2.64942 0
M  V30 1629 C 154.774 -2.23383 3.9983 0
M  V30 1630 N 156.265 -2.30756 4.01629 0
M  V30 1631 C 157 -2.75655 5.02794 0
M  V30 1632 N 156.496 -3.20225 6.14352 0
M  V30 1633 N 158.289 -2.75138 4.90159 0
M  V30 1634 H 150.44 -0.0435285 2.12355 0
M  V30 1635 H 152.703 -0.0818951 0.944456 0
M  V30 1636 H 152.409 -0.888832 3.40283 0
M  V30 1637 H 152.283 -2.53084 2.79693 0
M  V30 1638 H 154.67 -2.31617 1.8286 0
M  V30 1639 H 154.751 -0.668717 2.46904 0
M  V30 1640 H 154.395 -1.59043 4.82357 0
M  V30 1641 H 154.325 -3.23904 4.15203 0
M  V30 1642 H 156.816 -1.99291 3.21079 0
M  V30 1643 H 157.129 -3.53084 6.87424 0
M  V30 1644 H 155.474 -3.18156 6.17901 0
M  V30 1645 H 158.665 -2.39661 4.02095 0
M  V30 1646 H 158.838 -3.09812 5.6914 0
M  V30 1647 N 152.244 -1.26651 -0.937939 0
M  V30 1648 C 153.492 -1.12165 -1.68118 0
M  V30 1649 C 153.813 0.334983 -1.92101 0
M  V30 1650 O 153.083 1.23583 -1.52 0
M  V30 1651 H 151.663 -0.412093 -0.623048 0
M  V30 1652 H 154.325 -1.59027 -1.12678 0
M  V30 1653 H 153.421 -1.64289 -2.6536 0
M  V30 1654 N 153.722 1.14298 -1.08507 0
M  V30 1655 C 154.969 1.85359 -0.815373 0
M  V30 1656 C 155.297 1.83001 0.658865 0
M  V30 1657 O 154.552 1.25655 1.50031 0
M  V30 1658 C 154.851 3.33547 -1.28379 0
M  V30 1659 C 154.517 3.56093 -2.76602 0
M  V30 1660 C 153.179 3.61955 -3.17084 0
M  V30 1661 C 155.531 3.64834 -3.72217 0
M  V30 1662 C 152.859 3.74082 -4.51973 0
M  V30 1663 C 155.211 3.78487 -5.06883 0
M  V30 1664 C 153.875 3.82598 -5.46969 0
M  V30 1665 H 153.145 0.678276 -0.298366 0
M  V30 1666 H 155.792 1.35002 -1.35819 0
M  V30 1667 H 154.097 3.86191 -0.660593 0
M  V30 1668 H 155.794 3.86959 -1.05186 0
M  V30 1669 H 152.384 3.52179 -2.4427 0
M  V30 1670 H 156.568 3.59595 -3.42061 0
M  V30 1671 H 151.824 3.75527 -4.82483 0
M  V30 1672 H 155.998 3.84193 -5.80834 0
M  V30 1673 H 153.625 3.91747 -6.51489 0
M  V30 1674 N 155.201 0.870884 1.31352 0
M  V30 1675 C 156.133 0.28455 2.27427 0
M  V30 1676 C 157.146 -0.552927 1.53123 0
M  V30 1677 O 158.335 -0.374771 1.74521 0
M  V30 1678 C 155.435 -0.615164 3.3327 0
M  V30 1679 C 154.608 0.190079 4.36987 0
M  V30 1680 C 153.667 -0.637917 5.22319 0
M  V30 1681 O 152.693 -0.065626 5.69162 0
M  V30 1682 N 153.895 -1.94973 5.46778 0
M  V30 1683 H 156.66 1.11017 2.7838 0
M  V30 1684 H 154.221 0.732458 1.44384 0
M  V30 1685 H 156.213 -1.1748 3.87273 0
M  V30 1686 H 154.783 -1.34146 2.82354 0
M  V30 1687 H 154.003 0.931165 3.83044 0
M  V30 1688 H 155.291 0.742579 5.03352 0
M  V30 1689 H 154.689 -2.4378 5.10478 0
M  V30 1690 H 153.246 -2.45713 6.03712 0
M  V30 1691 N 156.679 -1.44442 0.630414 0
M  V30 1692 C 157.611 -2.2892 -0.113347 0
M  V30 1693 C 158.624 -1.41243 -0.80959 0
M  V30 1694 O 159.813 -1.65402 -0.671156 0
M  V30 1695 C 156.913 -3.17594 -1.18266 0
M  V30 1696 C 156.086 -4.33682 -0.569073 0
M  V30 1697 C 155.145 -5.03397 -1.53226 0
M  V30 1698 O 154.171 -5.59438 -1.04967 0
M  V30 1699 N 155.373 -5.04783 -2.86661 0
M  V30 1700 H 158.138 -2.93392 0.611636 0
M  V30 1701 H 155.699 -1.54881 0.471523 0
M  V30 1702 H 157.691 -3.61097 -1.82732 0
M  V30 1703 H 156.261 -2.54876 -1.80988 0
M  V30 1704 H 155.481 -3.9338 0.254187 0
M  V30 1705 H 156.769 -5.08608 -0.139767 0
M  V30 1706 H 156.167 -4.60584 -3.28449 0
M  V30 1707 H 154.724 -5.52077 -3.46489 0
M  V30 1708 N 158.157 -0.370918 -1.53173 0
M  V30 1709 C 159.104 0.473035 -2.259 0
M  V30 1710 C 160.074 1.07311 -1.26781 0
M  V30 1711 O 161.259 1.1046 -1.55574 0
M  V30 1712 C 158.399 1.60405 -3.05556 0
M  V30 1713 C 157.512 1.02863 -4.19575 0
M  V30 1714 C 156.647 2.12918 -4.86661 0
M  V30 1715 C 155.686 1.52869 -5.92704 0
M  V30 1716 N 154.823 2.56779 -6.53459 0
M  V30 1717 H 159.663 -0.153649 -2.97604 0
M  V30 1718 H 157.2 -0.0875946 -1.46839 0
M  V30 1719 H 159.158 2.27034 -3.50016 0
M  V30 1720 H 157.788 2.20131 -2.36097 0
M  V30 1721 H 156.84 0.252465 -3.79561 0
M  V30 1722 H 158.152 0.549642 -4.95762 0
M  V30 1723 H 157.306 2.87356 -5.34333 0
M  V30 1724 H 156.045 2.6417 -4.09958 0
M  V30 1725 H 155.05 0.769479 -5.44389 0
M  V30 1726 H 156.275 1.02435 -6.7133 0
M  V30 1727 H 154.221 3.07235 -5.79606 0
M  V30 1728 H 154.138 2.13583 -7.25202 0
M  V30 1729 H 155.406 3.30903 -7.05779 0
M  V30 1730 N 159.635 1.57281 -0.100228 0
M  V30 1731 C 160.565 2.17328 0.853857 0
M  V30 1732 C 161.546 1.10804 1.2906 0
M  V30 1733 O 162.731 1.38963 1.35657 0
M  V30 1734 C 159.861 2.75772 2.11109 0
M  V30 1735 C 158.815 3.87713 1.81279 0
M  V30 1736 C 158.141 4.32882 3.13874 0
M  V30 1737 C 159.441 5.10677 1.09574 0
M  V30 1738 H 161.135 2.97305 0.353545 0
M  V30 1739 H 158.681 1.43009 0.168612 0
M  V30 1740 H 160.634 3.16433 2.78296 0
M  V30 1741 H 159.358 1.93057 2.63432 0
M  V30 1742 H 158.017 3.476 1.16489 0
M  V30 1743 H 157.665 3.47051 3.64095 0
M  V30 1744 H 157.365 5.08358 2.94696 0
M  V30 1745 H 158.889 4.7618 3.82211 0
M  V30 1746 H 160.303 5.48474 1.66879 0
M  V30 1747 H 158.7 5.91615 1.00557 0
M  V30 1748 H 159.77 4.84835 0.0793299 0
M  V30 1749 N 161.113 -0.173488 1.56642 0
M  V30 1750 C 162.043 -1.2171 1.99271 0
M  V30 1751 C 163.024 -1.46289 0.867959 0
M  V30 1752 O 164.209 -1.5766 1.13388 0
M  V30 1753 C 161.339 -2.55651 2.35074 0
M  V30 1754 C 160.293 -2.45645 3.50489 0
M  V30 1755 C 159.619 -3.84056 3.72028 0
M  V30 1756 C 160.919 -1.96302 4.84007 0
M  V30 1757 H 162.613 -0.86275 2.867 0
M  V30 1758 H 160.159 -0.413571 1.37933 0
M  V30 1759 H 162.112 -3.2886 2.63494 0
M  V30 1760 H 160.836 -2.92869 1.44552 0
M  V30 1761 H 159.495 -1.7489 3.22194 0
M  V30 1762 H 159.143 -4.18664 2.788 0
M  V30 1763 H 158.843 -3.7823 4.49684 0
M  V30 1764 H 160.367 -4.58854 4.02846 0
M  V30 1765 H 161.781 -2.59284 5.11317 0
M  V30 1766 H 160.178 -2.01429 5.65284 0
M  V30 1767 H 161.248 -0.917226 4.76146 0
M  V30 1768 N 162.591 -1.51276 -0.441967 0
M  V30 1769 C 163.821 -1.67273 -1.21257 0
M  V30 1770 C 164.229 -0.367624 -1.85594 0
M  V30 1771 O 163.572 0.663349 -1.71305 0
M  V30 1772 C 163.634 -2.72807 -2.34129 0
M  V30 1773 C 163.298 -4.1554 -1.90198 0
M  V30 1774 C 164.295 -5.00471 -1.40801 0
M  V30 1775 C 161.98 -4.61616 -1.9803 0
M  V30 1776 C 163.974 -6.29536 -0.998174 0
M  V30 1777 C 161.661 -5.90679 -1.56658 0
M  V30 1778 C 162.659 -6.74466 -1.07633 0
M  V30 1779 O 162.347 -8.01116 -0.668459 0
M  V30 1780 H 162.079 -0.564614 -0.371734 0
M  V30 1781 H 164.633 -1.9843 -0.530521 0
M  V30 1782 H 162.863 -2.36954 -3.05597 0
M  V30 1783 H 164.552 -2.77729 -2.96009 0
M  V30 1784 H 165.318 -4.66079 -1.34148 0
M  V30 1785 H 161.197 -3.96526 -2.35135 0
M  V30 1786 H 164.741 -6.94885 -0.61482 0
M  V30 1787 H 160.638 -6.24586 -1.62979 0
M  V30 1788 H 161.406 -8.14633 -0.794722 0
M  V30 1789 N 164.069 0.697108 -1.41344 0
M  V30 1790 C 165.48 1.27697 -1.36199 0
M  V30 1791 C 165.831 1.9615 -0.0443463 0
M  V30 1792 O 164.956 1.98689 0.857419 0
M  V30 1793 C 165.551 2.32223 -2.46694 0
M  V30 1794 C 164.11 2.8579 -2.44952 0
M  V30 1795 C 163.257 1.59807 -2.26621 0
M  V30 1796 H 166.208 0.491968 -1.50882 0
M  V30 1797 H 166.229 3.1348 -2.15664 0
M  V30 1798 H 165.741 1.82373 -3.42581 0
M  V30 1799 H 163.842 3.3982 -1.52817 0
M  V30 1800 H 163.955 3.36325 -3.41207 0
M  V30 1801 H 162.319 1.8556 -1.7447 0
M  V30 1802 H 163.102 1.11956 -3.24532 0
M  V30 1803 N 165.547 1.27147 0.931209 0
M  V30 1804 C 166.495 1.09398 2.05268 0
M  V30 1805 C 167.489 0.0180591 1.6939 0
M  V30 1806 O 168.695 0.17551 1.79142 0
M  V30 1807 H 165.07 0.336986 0.672268 0
M  V30 1808 H 167.041 2.04416 2.17386 0
M  V30 1809 C 165.79 0.75424 3.39421 0
M  V30 1810 H 165.113 1.57404 3.67511 0
M  V30 1811 H 166.553 0.669903 4.18674 0
M  V30 1812 C 165.012 -0.541197 3.32525 0
M  V30 1813 O 165.542 -1.57664 3.69466 0
M  V30 1814 N 163.748 -0.535517 2.85623 0
M  V30 1815 H 163.295 0.307511 2.55758 0
M  V30 1816 H 163.253 -1.40236 2.81392 0
M  V30 1817 N 167.025 -1.13721 1.09112 0
M  V30 1818 C 168.25 -1.89314 0.847053 0
M  V30 1819 C 168.675 -1.78416 -0.595774 0
M  V30 1820 O 168.033 -1.12942 -1.41823 0
M  V30 1821 C 168.081 -3.3701 1.28284 0
M  V30 1822 O 167.185 -4.10054 0.439267 0
M  V30 1823 H 166.526 -0.588745 0.307044 0
M  V30 1824 H 169.056 -1.43902 1.45442 0
M  V30 1825 H 169.066 -3.87834 1.26683 0
M  V30 1826 H 167.741 -3.4426 2.33363 0
M  V30 1827 H 166.318 -3.69266 0.519312 0
M  V30 1828 N 168.503 -0.877838 -1.30888 0
M  V30 1829 C 169.751 -0.491723 -1.96027 0
M  V30 1830 C 170.072 0.960827 -1.69685 0
M  V30 1831 O 169.342 1.67462 -1.01654 0
M  V30 1832 H 167.922 -0.17885 -0.725273 0
M  V30 1833 H 170.584 -1.11935 -1.59551 0
M  V30 1834 H 169.68 -0.656016 -3.05128 0
M  V30 1835 N 169.982 1.44106 -0.638065 0
M  V30 1836 C 171.398 1.56672 -0.304286 0
M  V30 1837 C 171.598 1.6244 1.19228 0
M  V30 1838 O 170.654 1.57121 1.9766 0
M  V30 1839 C 171.967 2.83503 -1.00231 0
M  V30 1840 C 173.515 2.97226 -0.981116 0
M  V30 1841 C 173.99 4.26868 -1.65974 0
M  V30 1842 N 175.481 4.33698 -1.62666 0
M  V30 1843 C 176.216 5.32745 -2.12063 0
M  V30 1844 N 175.712 6.38157 -2.6968 0
M  V30 1845 N 177.505 5.24299 -2.02651 0
M  V30 1846 H 169.656 1.38605 -1.60942 0
M  V30 1847 H 171.919 0.664661 -0.675965 0
M  V30 1848 H 171.625 2.85251 -2.0573 0
M  V30 1849 H 171.499 3.73251 -0.54439 0
M  V30 1850 H 173.886 2.95027 0.0654188 0
M  V30 1851 H 173.967 2.08808 -1.47759 0
M  V30 1852 H 173.611 4.29826 -2.70576 0
M  V30 1853 H 173.541 5.14156 -1.13804 0
M  V30 1854 H 176.032 3.58138 -1.20606 0
M  V30 1855 H 176.345 7.10029 -3.05087 0
M  V30 1856 H 174.69 6.38823 -2.73734 0
M  V30 1857 H 177.881 4.4086 -1.57353 0
M  V30 1858 H 178.054 6.01334 -2.41457 0
M  V30 1859 N 171.46 0.379036 1.52974 0
M  V30 1860 C 172.37 -0.468639 2.29872 0
M  V30 1861 C 173.386 -1.08067 1.36373 0
M  V30 1862 O 174.562 -1.08871 1.69438 0
M  V30 1863 C 171.627 -1.58594 3.083 0
M  V30 1864 C 170.688 -1.00007 4.17489 0
M  V30 1865 C 169.921 -2.06413 4.92168 0
M  V30 1866 O 170.144 -3.27751 4.66835 0
M  V30 1867 O 169.078 -1.68717 5.7777 0
M  V30 1868 H 172.904 0.157508 3.03291 0
M  V30 1869 H 170.489 0.143035 1.48714 0
M  V30 1870 H 172.371 -2.23525 3.57232 0
M  V30 1871 H 171.046 -2.19724 2.37703 0
M  V30 1872 H 169.953 -0.314299 3.72777 0
M  V30 1873 H 171.286 -0.433135 4.90291 0
M  V30 1874 N 172.938 -1.57226 0.108567 0
M  V30 1875 C 174.186 -1.94448 -0.550853 0
M  V30 1876 C 174.507 -0.992074 -1.67878 0
M  V30 1877 O 173.777 -0.0465 -1.95845 0
M  V30 1878 H 172.357 -0.717897 -0.206479 0
M  V30 1879 H 175.019 -1.94112 0.175062 0
M  V30 1880 H 174.115 -2.97218 -0.952259 0
M  V30 1881 N 174.416 0.165178 -1.56732 0
M  V30 1882 C 175.644 0.896218 -1.86482 0
M  V30 1883 C 176.059 1.75555 -0.694675 0
M  V30 1884 O 175.416 1.79379 0.33607 0
M  V30 1885 C 175.467 1.76792 -3.1532 0
M  V30 1886 O 175.188 0.943239 -4.27825 0
M  V30 1887 C 176.689 2.6081 -3.58459 0
M  V30 1888 H 173.909 0.260064 -0.618553 0
M  V30 1889 H 176.453 0.163428 -2.03846 0
M  V30 1890 H 174.608 2.45398 -2.99764 0
M  V30 1891 H 175.022 1.53998 -5.01383 0
M  V30 1892 H 176.496 3.17579 -4.51495 0
M  V30 1893 H 176.973 3.35977 -2.82872 0
M  V30 1894 H 177.579 1.97526 -3.76648 0
M  V30 1895 N 175.894 1.51508 0.433938 0
M  V30 1896 C 176.857 1.72473 1.50949 0
M  V30 1897 C 177.857 0.594725 1.49398 0
M  V30 1898 O 179.047 0.862315 1.5136 0
M  V30 1899 C 176.179 1.78431 2.90474 0
M  V30 1900 H 177.372 2.68467 1.33662 0
M  V30 1901 H 174.925 1.41549 0.662836 0
M  V30 1902 H 175.66 0.842645 3.13161 0
M  V30 1903 H 175.445 2.60558 2.93005 0
M  V30 1904 H 176.935 1.96479 3.68491 0
M  V30 1905 N 177.372 -0.689602 1.41712 0
M  V30 1906 C 178.335 -1.78521 1.43746 0
M  V30 1907 C 179.335 -1.57436 0.327191 0
M  V30 1908 O 180.525 -1.64 0.587348 0
M  V30 1909 C 177.657 -3.16971 1.25467 0
M  V30 1910 H 178.85 -1.78108 2.41283 0
M  V30 1911 H 176.403 -0.89781 1.27942 0
M  V30 1912 H 177.138 -3.23019 0.287948 0
M  V30 1913 H 176.923 -3.33678 2.05917 0
M  V30 1914 H 178.413 -3.96935 1.2974 0
M  V30 1915 N 178.85 -1.27639 -0.924453 0
M  V30 1916 C 179.782 -1.06442 -2.02985 0
M  V30 1917 C 180.795 -0.0194771 -1.62788 0
M  V30 1918 O 181.984 -0.261388 -1.76576 0
M  V30 1919 C 179.084 -0.59327 -3.33667 0
M  V30 1920 C 178.257 -1.71123 -4.02537 0
M  V30 1921 C 177.316 -1.23527 -5.11495 0
M  V30 1922 O 176.342 -1.93553 -5.35281 0
M  V30 1923 N 177.544 -0.0926678 -5.80426 0
M  V30 1924 H 180.309 -2.01633 -2.2173 0
M  V30 1925 H 177.87 -1.19248 -1.09505 0
M  V30 1926 H 179.862 -0.258686 -4.03872 0
M  V30 1927 H 178.432 0.265502 -3.1147 0
M  V30 1928 H 177.652 -2.21593 -3.26022 0
M  V30 1929 H 178.94 -2.46145 -4.45298 0
M  V30 1930 H 178.338 0.491741 -5.63559 0
M  V30 1931 H 176.895 0.182714 -6.51544 0
M  V30 1932 N 180.328 1.1314 -1.09713 0
M  V30 1933 C 181.276 2.20717 -0.733934 0
M  V30 1934 C 182.27 1.6729 0.266506 0
M  V30 1935 O 183.476 1.79547 0.127656 0
M  V30 1936 H 179.851 0.719292 -0.21937 0
M  V30 1937 H 181.822 2.48611 -1.6503 0
M  V30 1938 C 180.571 3.47265 -0.173849 0
M  V30 1939 H 179.894 3.88716 -0.934873 0
M  V30 1940 H 181.334 4.23979 0.0423126 0
M  V30 1941 C 179.793 3.18724 1.09164 0
M  V30 1942 O 180.323 3.37762 2.17439 0
M  V30 1943 N 178.529 2.72583 1.00732 0
M  V30 1944 H 178.076 2.57291 0.126121 0
M  V30 1945 H 178.034 2.53862 1.85476 0
M  V30 1946 N 181.806 0.884767 1.30421 0
M  V30 1947 C 183.053 0.503105 1.96151 0
M  V30 1948 C 183.381 -0.947676 1.69851 0
M  V30 1949 O 182.636 -1.68467 0.995861 0
M  V30 1950 C 182.935 0.724318 3.49983 0
M  V30 1951 C 182.601 2.15015 3.96332 0
M  V30 1952 C 181.263 2.54005 4.08699 0
M  V30 1953 C 183.615 3.07936 4.20505 0
M  V30 1954 C 180.943 3.85128 4.42599 0
M  V30 1955 C 183.295 4.3859 4.55874 0
M  V30 1956 C 181.959 4.77474 4.66449 0
M  V30 1957 H 181.229 0.184099 0.717766 0
M  V30 1958 H 183.876 1.12058 1.55291 0
M  V30 1959 H 182.181 0.0238086 3.91793 0
M  V30 1960 H 183.878 0.408617 3.98913 0
M  V30 1961 H 180.468 1.8375 3.87213 0
M  V30 1962 H 184.652 2.79033 4.10431 0
M  V30 1963 H 179.908 4.14996 4.48986 0
M  V30 1964 H 184.082 5.10629 4.7353 0
M  V30 1965 H 181.709 5.79115 4.92473 0
M  V30 1966 N 183.284 -1.43765 0.645699 0
M  V30 1967 C 184.509 -2.06767 0.161883 0
M  V30 1968 C 184.934 -1.48034 -1.16049 0
M  V30 1969 O 184.292 -0.587369 -1.71522 0
M  V30 1970 C 184.34 -3.60519 0.0762003 0
M  V30 1971 O 183.444 -4.00982 -0.963721 0
M  V30 1972 H 182.785 -0.657675 0.091429 0
M  V30 1973 H 185.315 -1.84397 0.886499 0
M  V30 1974 H 185.325 -4.07853 -0.109604 0
M  V30 1975 H 184 -4.02646 1.04157 0
M  V30 1976 H 182.577 -3.65253 -0.751312 0
M  V30 1977 N 184.763 -0.387143 -1.52771 0
M  V30 1978 C 186.003 0.195537 -2.03463 0
M  V30 1979 C 186.367 1.44222 -1.26744 0
M  V30 1980 O 187.568 2.10192 -1.67549 0
M  V30 1981 C 185.839 0.459097 -3.54439 0
M  V30 1982 S 187.398 1.01237 -4.26962 0
M  V30 1983 H 184.216 0.0552675 -0.708849 0
M  V30 1984 H 186.818 -0.534992 -1.88037 0
M  V30 1985 H 185.522 -0.455382 -4.07866 0
M  V30 1986 H 185.053 1.21811 -3.74066 0
M  V30 1987 H 187.068 2.29492 -4.39941 0
M  V30 1988 N 186.241 1.57166 -0.116904 0
M  V30 1989 C 187.488 1.95123 0.541603 0
M  V30 1990 C 187.816 1.00006 1.6682 0
M  V30 1991 O 187.071 0.0235658 1.95686 0
M  V30 1992 C 187.37 3.39508 1.11664 0
M  V30 1993 C 187.036 4.50762 0.111606 0
M  V30 1994 C 185.698 4.80918 -0.164758 0
M  V30 1995 C 188.05 5.18036 -0.573438 0
M  V30 1996 C 185.378 5.75666 -1.13249 0
M  V30 1997 C 187.73 6.13824 -1.52978 0
M  V30 1998 C 186.394 6.42374 -1.81415 0
M  V30 1999 H 185.664 0.714005 0.198187 0
M  V30 2000 H 188.311 1.9048 -0.197365 0
M  V30 2001 H 186.616 3.40835 1.93232 0
M  V30 2002 H 188.313 3.66189 1.63422 0
M  V30 2003 H 184.903 4.27272 0.337192 0
M  V30 2004 H 189.087 4.94896 -0.373092 0
M  V30 2005 H 184.343 5.96092 -1.35958 0
M  V30 2006 H 188.517 6.65039 -2.06629 0
M  V30 2007 H 186.144 7.15599 -2.56557 0
M  V30 2008 N 187.719 -0.156864 1.56817 0
M  V30 2009 C 188.968 -0.869504 1.81996 0
M  V30 2010 C 189.281 -1.82777 0.696545 0
M  V30 2011 O 190.487 -2.58384 0.833658 0
M  V30 2012 C 188.943 -1.59679 3.22538 0
M  V30 2013 C 188.551 -0.681431 4.42787 0
M  V30 2014 C 190.295 -2.2968 3.56997 0
M  V30 2015 C 188.202 -1.40978 5.74351 0
M  V30 2016 H 187.132 -0.328438 0.678708 0
M  V30 2017 H 189.783 -0.1223 1.83092 0
M  V30 2018 H 188.165 -2.38927 3.158 0
M  V30 2019 H 189.339 0.0751166 4.60739 0
M  V30 2020 H 187.654 -0.0903431 4.16302 0
M  V30 2021 H 190.251 -2.84794 4.52544 0
M  V30 2022 H 190.594 -3.05707 2.82576 0
M  V30 2023 H 191.127 -1.57361 3.65352 0
M  V30 2024 H 187.866 -0.691561 6.51842 0
M  V30 2025 H 187.386 -2.13929 5.60352 0
M  V30 2026 H 189.065 -1.95337 6.16808 0
M  V30 2027 N 189.197 -1.51736 -0.425897 0
M  V30 2028 C 190.427 -1.68549 -1.19476 0
M  V30 2029 C 190.835 -0.387288 -1.85194 0
M  V30 2030 O 190.178 0.645142 -1.71999 0
M  V30 2031 C 190.24 -2.75275 -2.31223 0
M  V30 2032 C 189.904 -4.17534 -1.8578 0
M  V30 2033 C 190.901 -5.01936 -1.35485 0
M  V30 2034 C 188.586 -4.6369 -1.93123 0
M  V30 2035 C 190.58 -6.30559 -0.931347 0
M  V30 2036 C 188.267 -5.92307 -1.50384 0
M  V30 2037 C 189.265 -6.75569 -1.00473 0
M  V30 2038 O 188.953 -8.0178 -0.583452 0
M  V30 2039 H 188.685 -0.568525 -0.365725 0
M  V30 2040 H 191.239 -1.98982 -0.509444 0
M  V30 2041 H 189.469 -2.40182 -3.03067 0
M  V30 2042 H 191.158 -2.80853 -2.93047 0
M  V30 2043 H 191.924 -4.67475 -1.29197 0
M  V30 2044 H 187.803 -3.98997 -2.30916 0
M  V30 2045 H 191.347 -6.95498 -0.541084 0
M  V30 2046 H 187.244 -6.2628 -1.56346 0
M  V30 2047 H 188.012 -8.1543 -0.708275 0
M  V30 2048 N 190.675 0.682077 -1.42076 0
M  V30 2049 C 191.623 1.81707 -1.45208 0
M  V30 2050 C 192.617 1.66183 -0.328591 0
M  V30 2051 O 193.823 1.7288 -0.501264 0
M  V30 2052 H 190.198 0.599014 -0.454628 0
M  V30 2053 H 192.169 1.76183 -2.40836 0
M  V30 2054 C 190.918 3.19816 -1.36428 0
M  V30 2055 H 190.241 3.32385 -2.22171 0
M  V30 2056 H 191.681 3.99272 -1.42681 0
M  V30 2057 C 190.14 3.36809 -0.078191 0
M  V30 2058 O 190.67 3.92124 0.87188 0
M  V30 2059 N 188.876 2.906 0.00229266 0
M  V30 2060 H 188.423 2.45772 -0.771616 0
M  V30 2061 H 188.381 3.02347 0.862179 0
M  V30 2062 N 192.153 1.28127 0.917671 0
M  V30 2063 C 193.116 1.11744 2.00115 0
M  V30 2064 C 194.116 0.0583052 1.60694 0
M  V30 2065 O 195.306 0.303755 1.71531 0
M  V30 2066 C 192.438 0.704862 3.33533 0
M  V30 2067 H 193.631 2.07966 2.16079 0
M  V30 2068 H 191.184 1.11058 1.09981 0
M  V30 2069 H 191.919 -0.258299 3.2327 0
M  V30 2070 H 191.704 1.4699 3.63505 0
M  V30 2071 H 193.194 0.612768 4.1308 0
M  V30 2072 N 193.631 -1.12557 1.10312 0
M  V30 2073 C 194.908 -1.80363 0.756878 0
M  V30 2074 C 195.288 -1.97067 -0.756824 0
M  V30 2075 O 194.636 -1.54601 -1.68259 0
M  V30 2076 C 194.846 -3.14812 1.50647 0
M  V30 2077 C 196.194 -3.90029 1.67817 0
M  V30 2078 O 197.218 -3.24464 1.46974 0
M  V30 2079 O 196.077 -5.07652 2.02365 0
M  V30 2080 H 193.171 -0.780667 0.272926 0
M  V30 2081 H 195.717 -1.19404 1.20586 0
M  V30 2082 H 194.489 -2.97936 2.53672 0
M  V30 2083 H 194.112 -3.83478 1.05026 0
M  V30 2084 N 195.109 -0.891671 -1.2995 0
M  V30 2085 C 196.039 -0.379797 -2.30391 0
M  V30 2086 C 197.02 0.540919 -1.6127 0
M  V30 2087 O 198.205 0.453352 -1.88834 0
M  V30 2088 C 195.335 0.400654 -3.44981 0
M  V30 2089 C 194.289 -0.428905 -4.25846 0
M  V30 2090 C 193.615 0.478557 -5.32554 0
M  V30 2091 C 194.915 -1.67458 -4.94727 0
M  V30 2092 H 196.609 -1.21914 -2.73454 0
M  V30 2093 H 194.155 -0.587675 -1.31462 0
M  V30 2094 H 196.108 0.769434 -4.14316 0
M  V30 2095 H 194.832 1.27371 -3.0074 0
M  V30 2096 H 193.491 -0.779911 -3.58208 0
M  V30 2097 H 193.139 1.34951 -4.84559 0
M  V30 2098 H 192.839 -0.0727433 -5.87555 0
M  V30 2099 H 194.363 0.843705 -6.04743 0
M  V30 2100 H 195.777 -1.376 -5.56542 0
M  V30 2101 H 194.174 -2.16659 -5.59624 0
M  V30 2102 H 195.244 -2.41518 -4.20473 0
M  V30 2103 N 196.587 1.43421 -0.653314 0
M  V30 2104 C 197.52 2.2803 0.0879804 0
M  V30 2105 C 198.498 1.39833 0.82979 0
M  V30 2106 O 199.682 1.69275 0.829341 0
M  V30 2107 C 196.809 3.19247 1.13132 0
M  V30 2108 C 195.855 4.23704 0.487546 0
M  V30 2109 S 196.688 5.30377 -0.738961 0
M  V30 2110 C 197.844 6.25162 0.30384 0
M  V30 2111 H 198.077 2.90554 -0.629739 0
M  V30 2112 H 195.61 1.47934 -0.442156 0
M  V30 2113 H 197.568 3.72346 1.72827 0
M  V30 2114 H 196.229 2.55901 1.82136 0
M  V30 2115 H 195.422 4.87631 1.27407 0
M  V30 2116 H 195.024 3.73983 -0.0352915 0
M  V30 2117 H 197.316 6.67321 1.17 0
M  V30 2118 H 198.259 7.07463 -0.300402 0
M  V30 2119 H 198.667 5.60864 0.63969 0
M  V30 2120 N 198.065 0.39524 1.52563 0
M  V30 2121 C 199.013 -0.451859 2.28169 0
M  V30 2122 C 200.007 -1.05792 1.32304 0
M  V30 2123 O 201.213 -0.997718 1.49818 0
M  V30 2124 H 197.588 -0.164481 0.733792 0
M  V30 2125 H 199.559 0.207199 2.9768 0
M  V30 2126 C 198.308 -1.56385 3.10546 0
M  V30 2127 H 197.631 -1.10682 3.84174 0
M  V30 2128 H 199.071 -2.13067 3.66577 0
M  V30 2129 C 197.53 -2.52328 2.23231 0
M  V30 2130 O 198.06 -3.5588 1.86312 0
M  V30 2131 N 196.266 -2.22209 1.87274 0
M  V30 2132 H 195.813 -1.38033 2.17496 0
M  V30 2133 H 195.771 -2.86652 1.29143 0
M  V30 2134 N 199.544 -1.57102 0.125237 0
M  V30 2135 C 200.784 -1.97294 -0.534259 0
M  V30 2136 C 201.148 -1.0074 -1.63449 0
M  V30 2137 O 202.349 -1.29893 -2.35332 0
M  V30 2138 C 200.62 -3.41705 -1.04748 0
M  V30 2139 S 202.179 -4.03913 -1.71463 0
M  V30 2140 H 198.997 -0.689517 -0.173458 0
M  V30 2141 H 201.599 -1.94349 0.211797 0
M  V30 2142 H 200.303 -4.09723 -0.235649 0
M  V30 2143 H 199.834 -3.48315 -1.82867 0
M  V30 2144 H 201.849 -3.95182 -3.00077 0
M  V30 2145 N 201.022 0.148545 -1.56898 0
M  V30 2146 C 202.25 0.876389 -1.87422 0
M  V30 2147 C 202.665 1.74809 -0.713256 0
M  V30 2148 O 202.022 1.79725 0.317025 0
M  V30 2149 C 202.073 1.73438 -3.17178 0
M  V30 2150 O 201.794 0.897809 -4.28802 0
M  V30 2151 C 203.295 2.56993 -3.61205 0
M  V30 2152 H 200.515 0.253489 -0.621277 0
M  V30 2153 H 203.059 0.141798 -2.04008 0
M  V30 2154 H 201.214 2.42205 -3.0235 0
M  V30 2155 H 201.628 1.48672 -5.02988 0
M  V30 2156 H 203.102 3.12773 -4.54838 0
M  V30 2157 H 203.579 3.32958 -2.86419 0
M  V30 2158 H 204.185 1.9352 -3.78722 0
M  V30 2159 N 202.5 1.5196 0.417844 0
M  V30 2160 C 203.746 1.66793 1.16411 0
M  V30 2161 C 204.101 0.388758 1.88432 0
M  V30 2162 O 203.394 -0.616409 1.81414 0
M  V30 2163 C 203.588 2.82269 2.19223 0
M  V30 2164 C 203.417 4.21293 1.57297 0
M  V30 2165 C 202.187 4.86948 1.34944 0
M  V30 2166 C 204.385 5.03704 1.03858 0
M  V30 2167 N 202.367 6.1003 0.688195 0
M  V30 2168 C 203.738 6.1795 0.503742 0
M  V30 2169 C 205.793 4.89095 0.932203 0
M  V30 2170 C 204.496 7.19188 -0.127034 0
M  V30 2171 C 206.522 5.90559 0.315293 0
M  V30 2172 C 205.884 7.0409 -0.208906 0
M  V30 2173 H 201.983 0.66407 0.412959 0
M  V30 2174 H 204.567 1.89242 0.457772 0
M  V30 2175 H 202.738 2.61451 2.87225 0
M  V30 2176 H 204.47 2.86183 2.86149 0
M  V30 2177 H 201.225 4.45156 1.61657 0
M  V30 2178 H 201.649 6.75964 0.374449 0
M  V30 2179 H 206.291 4.01557 1.32332 0
M  V30 2180 H 204.009 8.06359 -0.530231 0
M  V30 2181 H 207.595 5.81327 0.234625 0
M  V30 2182 H 206.475 7.81257 -0.67875 0
M  V30 2183 N 203.978 -0.674533 1.42435 0
M  V30 2184 C 204.941 -1.76986 1.45632 0
M  V30 2185 C 205.941 -1.5708 0.343871 0
M  V30 2186 O 207.131 -1.63367 0.604709 0
M  V30 2187 C 204.263 -3.15623 1.28822 0
M  V30 2188 H 205.456 -1.75539 2.43158 0
M  V30 2189 H 203.009 -0.884189 1.28887 0
M  V30 2190 H 203.744 -3.22696 0.322193 0
M  V30 2191 H 203.529 -3.31475 2.09444 0
M  V30 2192 H 205.019 -3.95537 1.33942 0
M  V30 2193 N 205.456 -1.28612 -0.910864 0
M  V30 2194 C 206.872 -1.06381 -1.18976 0
M  V30 2195 C 207.072 0.191998 -2.00583 0
M  V30 2196 O 206.128 0.892869 -2.36187 0
M  V30 2197 C 207.441 -2.31295 -1.92154 0
M  V30 2198 C 208.989 -2.36503 -2.05025 0
M  V30 2199 C 209.464 -3.61191 -2.81612 0
M  V30 2200 N 210.955 -3.61847 -2.89172 0
M  V30 2201 C 211.69 -4.55004 -3.4894 0
M  V30 2202 N 211.186 -5.58482 -4.09963 0
M  V30 2203 N 212.979 -4.42594 -3.46506 0
M  V30 2204 H 205.13 -2.09221 -0.366094 0
M  V30 2205 H 207.393 -0.921003 -0.224629 0
M  V30 2206 H 207.099 -3.228 -1.39618 0
M  V30 2207 H 206.973 -2.37934 -2.9269 0
M  V30 2208 H 209.36 -1.45494 -2.5674 0
M  V30 2209 H 209.441 -2.33857 -1.03657 0
M  V30 2210 H 209.085 -4.52545 -2.30576 0
M  V30 2211 H 209.015 -3.61092 -3.83302 0
M  V30 2212 H 211.506 -2.87022 -2.45819 0
M  V30 2213 H 211.819 -6.25704 -4.53557 0
M  V30 2214 H 210.164 -5.62305 -4.08459 0
M  V30 2215 H 213.355 -3.60953 -2.98045 0
M  V30 2216 H 213.528 -5.15381 -3.92793 0
M  V30 2217 N 206.934 1.1197 -1.10907 0
M  V30 2218 C 208.182 1.83225 -0.852819 0
M  V30 2219 C 208.503 1.84769 0.623341 0
M  V30 2220 O 207.773 1.3143 1.45269 0
M  V30 2221 H 206.353 0.67849 -0.312507 0
M  V30 2222 H 209.015 1.3556 -1.40033 0
M  V30 2223 H 208.111 2.87265 -1.22005 0
M  V30 2224 N 208.412 0.89855 1.29475 0
M  V30 2225 C 209.823 0.572537 1.77705 0
M  V30 2226 C 210.174 -0.911778 1.73727 0
M  V30 2227 O 209.299 -1.71288 1.32247 0
M  V30 2228 C 209.894 1.03252 3.22683 0
M  V30 2229 C 208.453 0.757687 3.68695 0
M  V30 2230 C 207.6 1.20787 2.49612 0
M  V30 2231 H 210.551 1.08139 1.16153 0
M  V30 2232 H 210.572 0.367307 3.78723 0
M  V30 2233 H 210.084 2.11285 3.25546 0
M  V30 2234 H 208.185 -0.310079 3.71308 0
M  V30 2235 H 208.298 1.35476 4.59547 0
M  V30 2236 H 206.662 0.626888 2.46865 0
M  V30 2237 H 207.445 2.29622 2.55203 0
M  V30 2238 N 209.89 -1.43072 0.660911 0
M  V30 2239 C 211.118 -2.06067 0.185422 0
M  V30 2240 C 211.533 -1.49582 -1.15198 0
M  V30 2241 O 210.89 -0.630134 -1.71276 0
M  V30 2242 C 210.941 -3.61371 0.0966523 0
M  V30 2243 O 210.662 -4.15758 1.38119 0
M  V30 2244 C 212.163 -4.41455 -0.403996 0
M  V30 2245 H 209.383 -0.664459 0.0934604 0
M  V30 2246 H 211.927 -1.83447 0.90373 0
M  V30 2247 H 210.082 -3.8315 -0.572259 0
M  V30 2248 H 210.496 -5.09499 1.24542 0
M  V30 2249 H 211.97 -5.50437 -0.415045 0
M  V30 2250 H 212.447 -4.15036 -1.43674 0
M  V30 2251 H 213.053 -4.24663 0.232691 0
M  V30 2252 N 211.368 -0.403325 -1.52352 0
M  V30 2253 C 212.331 0.413051 -2.25447 0
M  V30 2254 C 213.331 0.978513 -1.276 0
M  V30 2255 O 214.521 0.858305 -1.51587 0
M  V30 2256 C 211.653 1.58087 -3.02029 0
M  V30 2257 H 212.846 -0.227094 -2.99039 0
M  V30 2258 H 210.399 -0.155722 -1.55522 0
M  V30 2259 H 211.134 2.25804 -2.32772 0
M  V30 2260 H 210.919 1.18195 -3.73861 0
M  V30 2261 H 212.409 2.1585 -3.57489 0
M  V30 2262 N 212.846 1.57033 -0.133567 0
M  V30 2263 C 214.257 1.82593 0.389464 0
M  V30 2264 C 214.608 1.05156 1.6564 0
M  V30 2265 O 213.733 0.292644 2.14412 0
M  V30 2266 C 214.328 3.31204 0.713377 0
M  V30 2267 C 212.887 3.57393 1.18098 0
M  V30 2268 C 212.034 2.76598 0.197126 0
M  V30 2269 H 214.985 1.54598 -0.358481 0
M  V30 2270 H 215.006 3.46627 1.56939 0
M  V30 2271 H 214.518 3.87537 -0.2089 0
M  V30 2272 H 212.619 3.06433 2.11966 0
M  V30 2273 H 212.732 4.65915 1.11624 0
M  V30 2274 H 211.096 2.45257 0.687088 0
M  V30 2275 H 211.879 3.35697 -0.718504 0
M  V30 2276 N 214.325 -0.140222 1.56975 0
M  V30 2277 C 215.741 -0.493088 1.51792 0
M  V30 2278 C 215.941 -1.83013 0.843116 0
M  V30 2279 O 214.997 -2.49041 0.416493 0
M  V30 2280 C 216.31 -0.497144 2.96562 0
M  V30 2281 C 217.858 -0.582186 3.07538 0
M  V30 2282 C 218.333 -0.616838 4.53827 0
M  V30 2283 N 219.824 -0.678873 4.58198 0
M  V30 2284 C 220.559 -0.726782 5.68775 0
M  V30 2285 N 220.055 -0.733623 6.88905 0
M  V30 2286 N 221.848 -0.768179 5.56826 0
M  V30 2287 H 213.999 0.736108 1.99237 0
M  V30 2288 H 216.262 0.269182 0.90898 0
M  V30 2289 H 215.968 0.417217 3.49217 0
M  V30 2290 H 215.842 -1.33263 3.52875 0
M  V30 2291 H 218.229 -1.48697 2.54899 0
M  V30 2292 H 218.31 0.280581 2.54257 0
M  V30 2293 H 217.954 0.283812 5.07106 0
M  V30 2294 H 217.884 -1.49619 5.04898 0
M  V30 2295 H 220.375 -0.68061 3.7172 0
M  V30 2296 H 220.688 -0.772215 7.68932 0
M  V30 2297 H 219.033 -0.701389 6.91452 0
M  V30 2298 H 222.224 -0.760051 4.61888 0
M  V30 2299 H 222.397 -0.80205 6.43017 0
M  V30 2300 N 215.803 -1.52179 -0.40978 0
M  V30 2301 C 217.08 -1.56769 -1.16974 0
M  V30 2302 C 217.46 -0.348322 -2.08206 0
M  V30 2303 O 216.808 0.664862 -2.18613 0
M  V30 2304 C 217.018 -2.89603 -1.9476 0
M  V30 2305 C 218.366 -3.42579 -2.50849 0
M  V30 2306 O 219.39 -2.91338 -2.04941 0
M  V30 2307 O 218.249 -4.32054 -3.34652 0
M  V30 2308 H 215.343 -0.631439 -0.534054 0
M  V30 2309 H 217.889 -1.64507 -0.416613 0
M  V30 2310 H 216.661 -3.698 -1.27921 0
M  V30 2311 H 216.284 -2.85155 -2.77079 0
M  V30 2312 N 217.281 0.66697 -1.42791 0
M  V30 2313 C 218.527 1.4291 -1.43891 0
M  V30 2314 C 218.86 1.94114 -0.0578972 0
M  V30 2315 O 218.135 1.71414 0.91911 0
M  V30 2316 C 218.418 2.62049 -2.46987 0
M  V30 2317 C 218.271 2.16426 -3.94309 0
M  V30 2318 C 219.59 3.64266 -2.46978 0
M  V30 2319 H 216.709 0.518306 -0.523954 0
M  V30 2320 H 219.351 0.757321 -1.74255 0
M  V30 2321 H 217.501 3.19361 -2.21225 0
M  V30 2322 H 219.173 1.64221 -4.31079 0
M  V30 2323 H 217.416 1.47925 -4.078 0
M  V30 2324 H 218.087 3.02038 -4.62036 0
M  V30 2325 H 220.563 3.16686 -2.69906 0
M  V30 2326 H 219.439 4.45196 -3.21079 0
M  V30 2327 H 219.7 4.15927 -1.49857 0
M  V30 2328 N 218.759 1.29093 0.90403 0
M  V30 2329 C 219.691 1.09658 2.01266 0
M  V30 2330 C 220.704 0.0453729 1.62737 0
M  V30 2331 O 221.893 0.289446 1.76138 0
M  V30 2332 C 218.993 0.646278 3.32681 0
M  V30 2333 C 218.166 1.77505 3.99763 0
M  V30 2334 C 217.225 1.31649 5.09465 0
M  V30 2335 O 216.251 2.02045 5.32134 0
M  V30 2336 N 217.453 0.184997 5.80205 0
M  V30 2337 H 220.218 2.05135 2.18494 0
M  V30 2338 H 217.779 1.20975 1.07594 0
M  V30 2339 H 219.771 0.322906 4.0341 0
M  V30 2340 H 218.341 -0.215916 3.11853 0
M  V30 2341 H 217.561 2.26752 3.22455 0
M  V30 2342 H 218.849 2.53198 4.41325 0
M  V30 2343 H 218.247 -0.402021 5.6427 0
M  V30 2344 H 216.804 -0.0790358 6.51752 0
M  V30 2345 N 220.237 -1.11381 1.11499 0
M  V30 2346 C 221.467 -1.86663 0.885464 0
M  V30 2347 C 221.875 -1.80464 -0.568281 0
M  V30 2348 O 221.218 -1.18445 -1.40415 0
M  V30 2349 C 221.28 -3.36337 1.26956 0
M  V30 2350 C 220.944 -3.66304 2.73259 0
M  V30 2351 C 221.941 -3.63733 3.71476 0
M  V30 2352 C 219.626 -3.9529 3.09921 0
M  V30 2353 C 221.62 -3.89725 5.04374 0
M  V30 2354 C 219.307 -4.20941 4.43004 0
M  V30 2355 C 220.305 -4.18147 5.40039 0
M  V30 2356 O 219.993 -4.43153 6.70724 0
M  V30 2357 H 219.725 -0.597114 0.316908 0
M  V30 2358 H 222.279 -1.41782 1.48617 0
M  V30 2359 H 220.509 -3.81826 0.611999 0
M  V30 2360 H 222.198 -3.92986 1.01573 0
M  V30 2361 H 222.964 -3.41389 3.44498 0
M  V30 2362 H 218.843 -3.966 2.35009 0
M  V30 2363 H 222.387 -3.8746 5.80104 0
M  V30 2364 H 218.284 -4.42761 4.69716 0
M  V30 2365 H 219.052 -4.60717 6.76522 0
M  V30 2366 N 221.715 -0.905404 -1.28997 0
M  V30 2367 C 222.962 -0.534248 -1.95325 0
M  V30 2368 C 223.29 0.920535 -1.71337 0
M  V30 2369 O 222.545 1.66861 -1.02254 0
M  V30 2370 C 222.844 -0.779906 -3.48787 0
M  V30 2371 C 222.51 -2.21293 -3.92861 0
M  V30 2372 C 221.172 -2.60475 -4.04606 0
M  V30 2373 C 223.524 -3.14587 -4.15553 0
M  V30 2374 C 220.852 -3.9212 -4.36416 0
M  V30 2375 C 223.204 -4.45787 -4.48839 0
M  V30 2376 C 221.868 -4.84834 -4.58794 0
M  V30 2377 H 221.138 -0.195495 -0.714747 0
M  V30 2378 H 223.785 -1.14514 -1.53488 0
M  V30 2379 H 222.09 -0.0861365 -3.91705 0
M  V30 2380 H 223.787 -0.472029 -3.98212 0
M  V30 2381 H 220.377 -1.89887 -3.84241 0
M  V30 2382 H 224.561 -2.85528 -4.0594 0
M  V30 2383 H 219.817 -4.22086 -4.42327 0
M  V30 2384 H 223.991 -5.18098 -4.65346 0
M  V30 2385 H 221.618 -5.86877 -4.83197 0
M  V30 2386 N 223.193 1.4272 -0.668489 0
M  V30 2387 C 224.123 2.335 -0.000100175 0
M  V30 2388 C 225.104 1.50328 0.795964 0
M  V30 2389 O 226.289 1.78949 0.754385 0
M  V30 2390 C 223.419 3.33874 0.956302 0
M  V30 2391 C 222.373 4.27152 0.269278 0
M  V30 2392 C 221.699 5.17684 1.33818 0
M  V30 2393 C 222.999 5.15373 -0.847805 0
M  V30 2394 H 224.693 2.89639 -0.758244 0
M  V30 2395 H 222.239 1.39269 -0.366079 0
M  V30 2396 H 224.192 3.9629 1.43292 0
M  V30 2397 H 222.916 2.76025 1.74579 0
M  V30 2398 H 221.575 3.66123 -0.187042 0
M  V30 2399 H 221.223 4.56165 2.1195 0
M  V30 2400 H 220.923 5.80918 0.883659 0
M  V30 2401 H 222.447 5.82974 1.81586 0
M  V30 2402 H 223.861 5.7151 -0.452681 0
M  V30 2403 H 222.258 5.87407 -1.22773 0
M  V30 2404 H 223.328 4.5415 -1.69929 0
M  V30 2405 N 224.671 0.411399 1.52136 0
M  V30 2406 C 225.901 -0.16284 2.05957 0
M  V30 2407 C 226.309 -1.3922 1.28119 0
M  V30 2408 O 225.652 -1.80768 0.326881 0
M  V30 2409 C 225.714 -0.575946 3.54856 0
M  V30 2410 C 225.378 0.542998 4.53763 0
M  V30 2411 C 226.375 1.40726 5.00492 0
M  V30 2412 C 224.06 0.716337 4.97166 0
M  V30 2413 C 226.054 2.4298 5.8927 0
M  V30 2414 C 223.741 1.74218 5.8574 0
M  V30 2415 C 224.739 2.59731 6.31687 0
M  V30 2416 O 224.427 3.60558 7.18507 0
M  V30 2417 H 224.159 -0.0229125 0.675612 0
M  V30 2418 H 226.713 0.581634 1.96993 0
M  V30 2419 H 224.943 -1.37274 3.61515 0
M  V30 2420 H 226.632 -1.07836 3.91313 0
M  V30 2421 H 227.398 1.28476 4.67674 0
M  V30 2422 H 223.277 0.0603857 4.6096 0
M  V30 2423 H 226.821 3.0976 6.25055 0
M  V30 2424 H 222.718 1.86498 6.17971 0
M  V30 2425 H 223.486 3.56829 7.36624 0
M  V30 2426 N 226.149 -1.5696 0.141893 0
M  V30 2427 C 227.398 -1.95135 -0.510427 0
M  V30 2428 C 227.711 -1.02896 -1.66348 0
M  V30 2429 O 228.917 -1.30629 -2.38009 0
M  V30 2430 C 227.373 -3.46876 -0.959427 0
M  V30 2431 C 226.981 -4.47691 0.166419 0
M  V30 2432 C 228.725 -3.93927 -1.58183 0
M  V30 2433 C 226.632 -5.90636 -0.300565 0
M  V30 2434 H 225.562 -0.728494 -0.194454 0
M  V30 2435 H 228.213 -1.8211 0.22542 0
M  V30 2436 H 226.595 -3.55215 -1.75038 0
M  V30 2437 H 227.769 -4.51043 0.94325 0
M  V30 2438 H 226.084 -4.10527 0.696905 0
M  V30 2439 H 228.681 -4.98158 -1.94275 0
M  V30 2440 H 229.024 -3.3519 -2.46888 0
M  V30 2441 H 229.557 -3.88484 -0.855863 0
M  V30 2442 H 226.296 -6.5318 0.550989 0
M  V30 2443 H 225.816 -5.90655 -1.04338 0
M  V30 2444 H 227.495 -6.42588 -0.754265 0
M  V30 2445 N 227.627 0.131896 -1.57047 0
M  V30 2446 C 229.043 0.485031 -1.52051 0
M  V30 2447 C 229.243 1.82563 -0.85281 0
M  V30 2448 O 228.299 2.48817 -0.429694 0
M  V30 2449 C 229.612 0.481409 -2.96821 0
M  V30 2450 C 231.16 0.565868 -3.07842 0
M  V30 2451 C 231.635 0.592762 -4.54148 0
M  V30 2452 N 233.126 0.654564 -4.58552 0
M  V30 2453 C 233.861 0.696608 -5.69153 0
M  V30 2454 N 233.357 0.697078 -6.89284 0
M  V30 2455 N 235.15 0.738639 -5.57226 0
M  V30 2456 H 227.301 -0.746664 -1.98843 0
M  V30 2457 H 229.564 -0.273999 -0.90754 0
M  V30 2458 H 229.27 -0.435731 -3.4899 0
M  V30 2459 H 229.144 1.3139 -3.53577 0
M  V30 2460 H 231.531 1.47343 -2.55684 0
M  V30 2461 H 231.612 -0.29406 -2.54104 0
M  V30 2462 H 231.256 -0.310701 -5.06949 0
M  V30 2463 H 231.186 1.46939 -5.05684 0
M  V30 2464 H 233.677 0.660887 -3.72076 0
M  V30 2465 H 233.99 0.731426 -7.69331 0
M  V30 2466 H 232.335 0.66471 -6.91814 0
M  V30 2467 H 235.526 0.735545 -4.62285 0
M  V30 2468 H 235.699 0.767938 -6.43434 0
M  V30 2469 N 229.106 1.52395 0.401703 0
M  V30 2470 C 230.054 1.7689 1.51039 0
M  V30 2471 C 231.048 0.636298 1.56996 0
M  V30 2472 O 232.254 0.818507 1.60314 0
M  V30 2473 H 228.629 0.559502 0.502456 0
M  V30 2474 H 230.6 2.69757 1.27568 0
M  V30 2475 C 229.349 1.94331 2.88324 0
M  V30 2476 H 228.672 2.80905 2.84486 0
M  V30 2477 H 230.112 2.15466 3.65172 0
M  V30 2478 C 228.571 0.712396 3.29282 0
M  V30 2479 O 229.101 -0.116218 4.01532 0
M  V30 2480 N 227.307 0.546154 2.85422 0
M  V30 2481 H 226.854 1.22156 2.26794 0
M  V30 2482 H 226.812 -0.276113 3.13185 0
M  V30 2483 N 230.584 -0.659388 1.43143 0
M  V30 2484 C 231.809 -1.45221 1.48073 0
M  V30 2485 C 232.234 -1.87845 0.097995 0
M  V30 2486 O 231.592 -1.56985 -0.90694 0
M  V30 2487 C 231.64 -2.66748 2.42647 0
M  V30 2488 O 230.744 -3.65583 1.90848 0
M  V30 2489 H 230.085 -0.435669 0.501088 0
M  V30 2490 H 232.615 -0.807432 1.87994 0
M  V30 2491 H 232.625 -3.14637 2.59745 0
M  V30 2492 H 231.3 -2.35067 3.43098 0
M  V30 2493 H 229.877 -3.24693 1.83381 0
M  V30 2494 N 232.062 -1.29571 -0.897171 0
M  V30 2495 C 233.009 -1.14916 -2.00158 0
M  V30 2496 C 233.979 -0.0418149 -1.66047 0
M  V30 2497 O 235.164 -0.209793 -1.89643 0
M  V30 2498 C 232.304 -0.834307 -3.34863 0
M  V30 2499 C 231.417 -2.02234 -3.8174 0
M  V30 2500 C 230.552 -1.64664 -5.05034 0
M  V30 2501 C 229.591 -2.80033 -5.44286 0
M  V30 2502 N 228.728 -2.42843 -6.58765 0
M  V30 2503 H 233.568 -2.09403 -2.12025 0
M  V30 2504 H 231.105 -1.042 -1.0383 0
M  V30 2505 H 233.063 -0.632436 -4.12379 0
M  V30 2506 H 231.693 0.0736656 -3.22716 0
M  V30 2507 H 230.745 -2.33583 -3.00238 0
M  V30 2508 H 232.057 -2.88673 -4.06779 0
M  V30 2509 H 231.211 -1.4078 -5.9014 0
M  V30 2510 H 229.95 -0.753766 -4.8184 0
M  V30 2511 H 228.955 -3.04596 -4.57713 0
M  V30 2512 H 230.18 -3.69989 -5.6946 0
M  V30 2513 H 228.126 -1.56046 -6.3717 0
M  V30 2514 H 228.043 -3.22815 -6.83613 0
M  V30 2515 H 229.311 -2.22285 -7.47134 0
M  V30 2516 N 233.54 1.10788 -1.12088 0
M  V30 2517 C 234.956 1.34691 -0.856186 0
M  V30 2518 C 235.156 1.94791 0.515615 0
M  V30 2519 O 234.212 2.18524 1.26505 0
M  V30 2520 C 235.525 2.27208 -1.9697 0
M  V30 2521 C 237.073 2.40755 -2.00016 0
M  V30 2522 C 237.548 3.36598 -3.1059 0
M  V30 2523 N 239.039 3.44164 -3.10008 0
M  V30 2524 C 239.774 4.18284 -3.92206 0
M  V30 2525 N 239.27 4.95322 -4.84384 0
M  V30 2526 N 241.063 4.13865 -3.80357 0
M  V30 2527 H 233.214 0.70144 -2.00483 0
M  V30 2528 H 235.477 0.371405 -0.872217 0
M  V30 2529 H 235.183 1.90251 -2.958 0
M  V30 2530 H 235.057 3.27485 -1.87172 0
M  V30 2531 H 237.444 2.76982 -1.01808 0
M  V30 2532 H 237.525 1.40305 -2.13888 0
M  V30 2533 H 237.169 3.01096 -4.09028 0
M  V30 2534 H 237.099 4.36918 -2.93956 0
M  V30 2535 H 239.59 2.8922 -2.43228 0
M  V30 2536 H 239.903 5.49267 -5.43623 0
M  V30 2537 H 238.248 4.94459 -4.884 0
M  V30 2538 H 241.439 3.52773 -3.07683 0
M  V30 2539 H 241.612 4.71372 -4.44649 0
M  V30 2540 N 235.018 0.912232 1.28515 0
M  V30 2541 C 236.434 0.610159 1.47476 0
M  V30 2542 C 236.634 -0.844955 1.82928 0
M  V30 2543 O 235.69 -1.62416 1.93332 0
M  V30 2544 C 237.003 1.54675 2.57868 0
M  V30 2545 C 238.551 1.55331 2.71738 0
M  V30 2546 C 239.026 2.47649 3.85272 0
M  V30 2547 N 240.517 2.45767 3.92623 0
M  V30 2548 C 241.252 3.13896 4.79851 0
M  V30 2549 N 240.748 3.9135 5.71679 0
M  V30 2550 N 242.541 3.02991 4.73448 0
M  V30 2551 H 234.692 1.85318 1.03783 0
M  V30 2552 H 236.955 0.794777 0.516753 0
M  V30 2553 H 236.661 2.5841 2.38574 0
M  V30 2554 H 236.535 1.27671 3.54937 0
M  V30 2555 H 238.922 0.52335 2.90422 0
M  V30 2556 H 239.003 1.86378 1.75205 0
M  V30 2557 H 238.647 3.50745 3.67342 0
M  V30 2558 H 238.577 2.13904 4.81199 0
M  V30 2559 H 241.068 1.89503 3.26951 0
M  V30 2560 H 241.381 4.40359 6.35062 0
M  V30 2561 H 239.726 3.95455 5.71524 0
M  V30 2562 H 242.917 2.41987 4.007 0
M  V30 2563 H 243.09 3.5636 5.41213 0
M  V30 2564 N 236.496 -1.42363 0.676048 0
M  V30 2565 C 237.912 -1.55811 0.345718 0
M  V30 2566 C 238.112 -1.65544 -1.14879 0
M  V30 2567 O 237.168 -1.62306 -1.93424 0
M  V30 2568 C 238.481 -2.80746 1.07713 0
M  V30 2569 C 240.029 -2.9452 1.05958 0
M  V30 2570 C 240.504 -4.22318 1.77233 0
M  V30 2571 N 241.995 -4.29233 1.74108 0
M  V30 2572 C 242.73 -5.26935 2.26113 0
M  V30 2573 N 242.226 -6.30783 2.86505 0
M  V30 2574 N 244.019 -5.18741 2.1648 0
M  V30 2575 H 236.17 -1.34289 1.6456 0
M  V30 2576 H 238.433 -0.646506 0.69335 0
M  V30 2577 H 238.139 -2.79696 2.13221 0
M  V30 2578 H 238.013 -3.71676 0.64316 0
M  V30 2579 H 240.4 -2.95097 0.0128255 0
M  V30 2580 H 240.481 -2.04817 1.53244 0
M  V30 2581 H 240.125 -4.22502 2.81877 0
M  V30 2582 H 240.055 -5.10958 1.27396 0
M  V30 2583 H 242.546 -3.54814 1.30059 0
M  V30 2584 H 242.859 -7.01691 3.23805 0
M  V30 2585 H 241.204 -6.31341 2.90575 0
M  V30 2586 H 244.395 -4.36533 1.68987 0
M  V30 2587 H 244.568 -5.94721 2.57316 0
M  V30 2588 N 237.974 -0.419461 -1.51915 0
M  V30 2589 C 238.884 0.407528 -2.31033 0
M  V30 2590 C 239.9 1.04413 -1.3919 0
M  V30 2591 O 241.076 1.0434 -1.72265 0
M  V30 2592 C 238.141 1.50365 -3.12396 0
M  V30 2593 C 237.202 0.889029 -4.19994 0
M  V30 2594 C 236.435 1.93291 -4.97468 0
M  V30 2595 O 236.658 3.15259 -4.75361 0
M  V30 2596 O 235.592 1.53339 -5.8204 0
M  V30 2597 H 239.418 -0.237865 -3.02767 0
M  V30 2598 H 237.003 -0.182413 -1.48282 0
M  V30 2599 H 238.885 2.13975 -3.63032 0
M  V30 2600 H 237.56 2.13345 -2.43445 0
M  V30 2601 H 236.467 0.215353 -3.7348 0
M  V30 2602 H 237.8 0.302991 -4.91267 0
M  V30 2603 N 239.452 1.56882 -0.150215 0
M  V30 2604 C 240.701 1.95403 0.500071 0
M  V30 2605 C 241.014 1.03777 1.658 0
M  V30 2606 O 242.22 1.31889 2.37313 0
M  V30 2607 C 240.676 3.4738 0.941018 0
M  V30 2608 C 240.284 4.47596 -0.190158 0
M  V30 2609 C 242.028 3.9476 1.56091 0
M  V30 2610 C 239.935 5.90787 0.269237 0
M  V30 2611 H 238.865 0.729515 0.190588 0
M  V30 2612 H 241.516 1.81988 -0.235074 0
M  V30 2613 H 239.898 3.56138 1.73152 0
M  V30 2614 H 241.072 4.50536 -0.967157 0
M  V30 2615 H 239.387 4.10151 -0.718666 0
M  V30 2616 H 241.984 4.99181 1.9163 0
M  V30 2617 H 242.327 3.36494 2.45107 0
M  V30 2618 H 242.86 3.88932 0.835249 0
M  V30 2619 H 239.599 6.52879 -0.585621 0
M  V30 2620 H 239.119 5.912 1.01204 0
M  V30 2621 H 240.798 6.42979 0.720176 0
M  V30 2622 N 240.93 -0.123565 1.57115 0
M  V30 2623 C 242.346 -0.476961 1.52306 0
M  V30 2624 C 242.546 -1.82109 0.86248 0
M  V30 2625 O 241.602 -2.48586 0.442884 0
M  V30 2626 C 242.915 -0.465661 2.97073 0
M  V30 2627 C 244.463 -0.549534 3.08138 0
M  V30 2628 C 244.938 -0.568669 4.54456 0
M  V30 2629 N 246.429 -0.630237 4.58892 0
M  V30 2630 C 247.164 -0.666415 5.69514 0
M  V30 2631 N 246.66 -0.660514 6.89644 0
M  V30 2632 N 248.453 -0.709077 5.5761 0
M  V30 2633 H 240.604 0.757198 1.98445 0
M  V30 2634 H 242.867 0.278808 0.906074 0
M  V30 2635 H 242.573 0.454232 3.48754 0
M  V30 2636 H 242.447 -1.29513 3.54269 0
M  V30 2637 H 244.834 -1.45985 2.56461 0
M  V30 2638 H 244.915 0.307532 2.53945 0
M  V30 2639 H 244.559 0.337581 5.06777 0
M  V30 2640 H 244.489 -1.44256 5.06456 0
M  V30 2641 H 246.98 -0.641146 3.72421 0
M  V30 2642 H 247.293 -0.690616 7.69708 0
M  V30 2643 H 245.638 -0.628012 6.92157 0
M  V30 2644 H 248.829 -0.711019 4.62668 0
M  V30 2645 H 249.002 -0.733804 6.43832 0
M  V30 2646 N 242.408 -1.52605 -0.393616 0
M  V30 2647 C 243.648 -1.6911 -1.1481 0
M  V30 2648 C 244.012 -0.41969 -1.87357 0
M  V30 2649 O 245.213 -0.461034 -2.64817 0
M  V30 2650 C 243.484 -2.88909 -2.10395 0
M  V30 2651 S 245.043 -3.25977 -2.93742 0
M  V30 2652 H 241.861 -0.595337 -0.38871 0
M  V30 2653 H 244.463 -1.90641 -0.433178 0
M  V30 2654 H 243.167 -3.79672 -1.55812 0
M  V30 2655 H 242.698 -2.69698 -2.86403 0
M  V30 2656 H 244.713 -2.75806 -4.12487 0
M  V30 2657 N 243.887 0.651787 -1.4349 0
M  V30 2658 C 245.298 1.233 -1.40193 0
M  V30 2659 C 245.649 1.9591 -0.106727 0
M  V30 2660 O 244.774 2.01316 0.793773 0
M  V30 2661 C 245.369 2.24257 -2.53957 0
M  V30 2662 C 243.928 2.77852 -2.5392 0
M  V30 2663 C 243.075 1.52517 -2.3159 0
M  V30 2664 H 246.026 0.443717 -1.52371 0
M  V30 2665 H 246.047 3.0646 -2.25528 0
M  V30 2666 H 245.559 1.71382 -3.4821 0
M  V30 2667 H 243.66 3.34786 -1.63551 0
M  V30 2668 H 243.773 3.25299 -3.51735 0
M  V30 2669 H 242.137 1.79915 -1.80285 0
M  V30 2670 H 242.92 1.01574 -3.27929 0
M  V30 2671 N 245.365 1.30045 0.890287 0
M  V30 2672 C 246.595 1.21296 1.67245 0
M  V30 2673 C 247.003 -0.227471 1.87828 0
M  V30 2674 O 246.346 -1.16296 1.422 0
M  V30 2675 C 246.408 1.86519 3.07329 0
M  V30 2676 C 246.072 3.35837 3.09939 0
M  V30 2677 C 247.069 4.31915 2.89389 0
M  V30 2678 C 244.754 3.77196 3.31706 0
M  V30 2679 C 246.748 5.67325 2.90552 0
M  V30 2680 C 244.435 5.12725 3.32499 0
M  V30 2681 C 245.433 6.076 3.11947 0
M  V30 2682 O 245.121 7.40655 3.12547 0
M  V30 2683 H 244.853 0.4211 0.528821 0
M  V30 2684 H 247.407 1.72111 1.12103 0
M  V30 2685 H 245.637 1.30228 3.64112 0
M  V30 2686 H 247.326 1.71963 3.67673 0
M  V30 2687 H 248.092 4.01294 2.72375 0
M  V30 2688 H 243.971 3.03796 3.4674 0
M  V30 2689 H 247.515 6.41354 2.74429 0
M  V30 2690 H 243.412 5.42988 3.49047 0
M  V30 2691 H 244.18 7.49577 3.28749 0
M  V30 2692 N 246.843 -1.10192 1.12674 0
M  V30 2693 C 248.073 -1.85713 0.905213 0
M  V30 2694 C 248.481 -1.81056 -0.549108 0
M  V30 2695 O 247.824 -1.19927 -1.39151 0
M  V30 2696 C 247.886 -3.34972 1.30516 0
M  V30 2697 C 247.55 -3.63385 2.77129 0
M  V30 2698 C 248.547 -3.59772 3.75313 0
M  V30 2699 C 246.232 -3.91981 3.14096 0
M  V30 2700 C 248.226 -3.84354 5.08479 0
M  V30 2701 C 245.913 -4.16218 4.47443 0
M  V30 2702 C 246.911 -4.12395 5.44444 0
M  V30 2703 O 246.599 -4.36014 6.75387 0
M  V30 2704 H 246.331 -0.593719 0.323223 0
M  V30 2705 H 248.885 -1.40198 1.50112 0
M  V30 2706 H 247.115 -3.81156 0.652463 0
M  V30 2707 H 248.804 -3.91886 1.05736 0
M  V30 2708 H 249.57 -3.37716 3.48099 0
M  V30 2709 H 245.449 -3.94085 2.39202 0
M  V30 2710 H 248.993 -3.81285 5.84181 0
M  V30 2711 H 244.89 -4.37754 4.74386 0
M  V30 2712 H 245.658 -4.53516 6.8137 0
M  V30 2713 N 248.321 -0.919034 -1.28029 0
M  V30 2714 C 249.57 -0.550802 -1.94034 0
M  V30 2715 C 249.883 0.910877 -1.73096 0
M  V30 2716 O 251.089 1.3875 -2.33368 0
M  V30 2717 C 249.545 -0.934249 -3.47563 0
M  V30 2718 C 249.153 -2.41602 -3.7727 0
M  V30 2719 C 250.897 -0.636854 -4.19696 0
M  V30 2720 C 248.804 -2.73932 -5.24133 0
M  V30 2721 H 247.734 -0.202273 -0.726362 0
M  V30 2722 H 250.385 -1.11867 -1.45458 0
M  V30 2723 H 248.767 -0.295115 -3.94899 0
M  V30 2724 H 249.941 -3.10233 -3.40723 0
M  V30 2725 H 248.256 -2.68441 -3.18321 0
M  V30 2726 H 250.853 -0.855005 -5.2782 0
M  V30 2727 H 251.196 0.425575 -4.14119 0
M  V30 2728 H 251.729 -1.23469 -3.78154 0
M  V30 2729 H 248.468 -3.79049 -5.34792 0
M  V30 2730 H 247.988 -2.09942 -5.61858 0
M  V30 2731 H 249.667 -2.61215 -5.91925 0
M  V30 2732 N 249.799 1.42003 -0.683588 0
M  V30 2733 C 250.731 2.29183 0.0283068 0
M  V30 2734 C 251.744 1.4415 0.756611 0
M  V30 2735 O 252.933 1.67779 0.609306 0
M  V30 2736 C 250.033 3.21765 1.06398 0
M  V30 2737 C 249.206 4.35496 0.407723 0
M  V30 2738 C 248.265 5.08737 1.34437 0
M  V30 2739 O 247.291 5.62948 0.841318 0
M  V30 2740 N 248.493 5.15075 2.67728 0
M  V30 2741 H 251.258 2.9092 -0.720105 0
M  V30 2742 H 248.819 1.53025 -0.528682 0
M  V30 2743 H 250.811 3.6763 1.69204 0
M  V30 2744 H 249.381 2.61418 1.71404 0
M  V30 2745 H 248.601 3.92165 -0.400012 0
M  V30 2746 H 249.889 5.08776 -0.0490956 0
M  V30 2747 H 249.287 4.72457 3.11129 0
M  V30 2748 H 247.844 5.64556 3.2576 0
M  V30 2749 N 251.277 0.427512 1.51691 0
M  V30 2750 C 252.554 -0.201684 1.94557 0
M  V30 2751 C 252.934 -1.60981 1.36559 0
M  V30 2752 O 252.282 -2.21814 0.548702 0
M  V30 2753 C 252.492 -0.189394 3.48486 0
M  V30 2754 C 253.84 -0.39978 4.22714 0
M  V30 2755 O 254.864 -0.267945 3.55191 0
M  V30 2756 O 253.723 -0.661249 5.42485 0
M  V30 2757 H 250.817 -0.135261 0.815864 0
M  V30 2758 H 253.363 0.484782 1.62628 0
M  V30 2759 H 252.135 0.795431 3.8313 0
M  V30 2760 H 251.758 -0.919187 3.86829 0
M  V30 2761 N 252.755 -1.56801 0.158532 0
M  V30 2762 C 253.98 -2.01295 -0.499516 0
M  V30 2763 C 254.405 -1.03799 -1.56867 0
M  V30 2764 O 253.763 -0.0155162 -1.81293 0
M  V30 2765 C 253.811 -3.44469 -1.06647 0
M  V30 2766 O 252.915 -3.50012 -2.18095 0
M  V30 2767 H 252.256 -0.652884 -0.12099 0
M  V30 2768 H 254.786 -2.02958 0.258661 0
M  V30 2769 H 254.796 -3.8351 -1.39227 0
M  V30 2770 H 253.471 -4.14932 -0.283581 0
M  V30 2771 H 252.048 -3.22822 -1.86656 0
M  V30 2772 N 254.233 0.115231 -1.57178 0
M  V30 2773 C 255.481 0.820727 -1.84685 0
M  V30 2774 C 255.802 1.80237 -0.744279 0
M  V30 2775 O 255.072 1.94529 0.231375 0
M  V30 2776 H 253.652 0.306084 -0.681411 0
M  V30 2777 H 256.314 0.101656 -1.94635 0
M  V30 2778 H 255.41 1.36366 -2.80733 0
M  V30 2779 N 255.711 1.52812 0.385517 0
M  V30 2780 C 256.939 1.71907 1.15133 0
M  V30 2781 C 257.354 0.439004 1.83625 0
M  V30 2782 O 256.711 -0.586765 1.7281 0
M  V30 2783 C 256.762 2.87099 2.19673 0
M  V30 2784 O 256.483 4.10151 1.53973 0
M  V30 2785 C 257.984 3.17902 3.08955 0
M  V30 2786 H 255.204 0.575479 0.345057 0
M  V30 2787 H 257.748 1.99476 0.45052 0
M  V30 2788 H 255.903 2.61982 2.85384 0
M  V30 2789 H 256.317 4.74514 2.23465 0
M  V30 2790 H 257.791 4.01959 3.7833 0
M  V30 2791 H 258.268 2.3243 3.72657 0
M  V30 2792 H 258.874 3.44871 2.48885 0
M  V30 2793 N 257.189 -0.644168 1.43834 0
M  V30 2794 C 258.139 -1.7501 1.46135 0
M  V30 2795 C 259.123 -1.57507 0.328685 0
M  V30 2796 O 260.315 -1.67465 0.5731 0
M  V30 2797 C 257.444 -3.13641 1.39585 0
M  V30 2798 C 256.53 -3.3666 2.57916 0
M  V30 2799 N 256.921 -3.30107 3.83227 0
M  V30 2800 C 255.219 -3.67411 2.52834 0
M  V30 2801 C 255.92 -3.53456 4.61999 0
M  V30 2802 N 254.896 -3.75705 3.9287 0
M  V30 2803 H 258.698 -1.68382 2.40883 0
M  V30 2804 H 256.212 -0.846169 1.38614 0
M  V30 2805 H 258.209 -3.92933 1.39317 0
M  V30 2806 H 256.869 -3.21444 0.45865 0
M  V30 2807 H 257.88 -3.09316 4.15384 0
M  V30 2808 H 254.557 -3.82275 1.67845 0
M  V30 2809 H 255.947 -3.54093 5.71024 0
M  V30 2810 N 258.668 -1.30515 -0.883378 0
M  V30 2811 C 259.914 -1.19607 -1.63774 0
M  V30 2812 C 260.247 0.248314 -1.92606 0
M  V30 2813 O 259.522 1.17742 -1.54813 0
M  V30 2814 C 259.805 -2.02669 -2.97653 0
M  V30 2815 C 259.658 -3.55335 -2.75784 0
M  V30 2816 C 260.977 -1.86573 -3.98596 0
M  V30 2817 H 258.096 -0.435856 -0.594305 0
M  V30 2818 H 260.738 -1.60165 -1.02212 0
M  V30 2819 H 258.888 -1.68208 -3.50197 0
M  V30 2820 H 260.56 -3.99863 -2.30016 0
M  V30 2821 H 258.803 -3.79438 -2.1026 0
M  V30 2822 H 259.474 -4.08745 -3.70988 0
M  V30 2823 H 261.95 -2.16703 -3.55217 0
M  V30 2824 H 260.826 -2.47014 -4.90179 0
M  V30 2825 H 261.087 -0.825321 -4.34328 0
M  V30 2826 N 260.146 1.09593 -1.13257 0
M  V30 2827 C 261.394 1.81375 -0.891492 0
M  V30 2828 C 261.715 1.86049 0.584009 0
M  V30 2829 O 260.985 1.34481 1.42449 0
M  V30 2830 H 259.565 0.671708 -0.326828 0
M  V30 2831 H 262.227 1.3256 -1.42877 0
M  V30 2832 H 261.323 2.84612 -1.28071 0
M  V30 2833 N 261.624 0.925811 1.2754 0
M  V30 2834 C 262.864 0.572521 1.96218 0
M  V30 2835 C 263.228 -0.869719 1.71172 0
M  V30 2836 O 264.429 -1.33119 2.33523 0
M  V30 2837 C 262.7 0.887325 3.4621 0
M  V30 2838 S 264.259 0.642266 4.34074 0
M  V30 2839 H 261.077 0.211403 0.678845 0
M  V30 2840 H 263.679 1.19384 1.54815 0
M  V30 2841 H 262.383 1.93469 3.61936 0
M  V30 2842 H 261.914 0.255123 3.92572 0
M  V30 2843 H 263.929 -0.500822 4.93666 0
M  V30 2844 N 263.102 -1.41638 0.69111 0
M  V30 2845 C 264.052 -2.28 -0.000107832 0
M  V30 2846 C 265.036 -1.41964 -0.757304 0
M  V30 2847 O 266.228 -1.65274 -0.633532 0
M  V30 2848 C 263.357 -3.30209 -0.938983 0
M  V30 2849 C 262.443 -4.23725 -0.17827 0
M  V30 2850 N 262.834 -4.99017 0.825563 0
M  V30 2851 C 261.132 -4.44071 -0.414392 0
M  V30 2852 C 261.833 -5.67431 1.28052 0
M  V30 2853 N 260.809 -5.40197 0.607304 0
M  V30 2854 H 264.611 -2.83644 0.769617 0
M  V30 2855 H 262.125 -1.53797 0.521562 0
M  V30 2856 H 264.122 -3.90898 -1.44929 0
M  V30 2857 H 262.782 -2.76126 -1.70836 0
M  V30 2858 H 263.793 -5.03671 1.20566 0
M  V30 2859 H 260.47 -4.01004 -1.162 0
M  V30 2860 H 261.86 -6.37801 2.11327 0
M  V30 2861 N 264.58 -0.43555 -1.51462 0
M  V30 2862 C 265.51 0.367376 -2.30592 0
M  V30 2863 C 266.491 1.02263 -1.35928 0
M  V30 2864 O 267.676 1.02661 -1.64847 0
M  V30 2865 C 264.806 1.46983 -3.14664 0
M  V30 2866 C 263.76 0.938161 -4.17591 0
M  V30 2867 C 263.086 2.13622 -4.90173 0
M  V30 2868 C 264.386 -0.0261621 -5.22293 0
M  V30 2869 H 266.08 -0.292969 -2.97963 0
M  V30 2870 H 263.626 -0.14234 -1.43295 0
M  V30 2871 H 265.579 2.03873 -3.688 0
M  V30 2872 H 264.303 2.15843 -2.4511 0
M  V30 2873 H 262.962 0.391481 -3.64504 0
M  V30 2874 H 262.61 2.81098 -4.17124 0
M  V30 2875 H 262.31 1.78688 -5.59772 0
M  V30 2876 H 263.834 2.7107 -5.47132 0
M  V30 2877 H 265.248 0.452384 -5.71512 0
M  V30 2878 H 263.645 -0.287992 -5.99409 0
M  V30 2879 H 264.715 -0.963391 -4.75233 0
M  V30 2880 N 266.058 1.56714 -0.166846 0
M  V30 2881 C 267.335 1.88412 0.525373 0
M  V30 2882 C 267.715 1.07602 1.81618 0
M  V30 2883 O 267.063 0.168621 2.27877 0
M  V30 2884 C 267.273 3.40363 0.771613 0
M  V30 2885 C 268.621 4.10007 1.1036 0
M  V30 2886 O 269.645 3.45655 0.860304 0
M  V30 2887 O 268.504 5.2369 1.56239 0
M  V30 2888 H 265.598 0.781587 0.270278 0
M  V30 2889 H 268.144 1.68458 -0.204946 0
M  V30 2890 H 266.916 3.91046 -0.141093 0
M  V30 2891 H 266.539 3.65914 1.55541 0
M  V30 2892 N 267.536 -0.106894 1.57237 0
M  V30 2893 C 268.484 -1.14944 2.02215 0
M  V30 2894 C 269.478 -1.42167 0.92114 0
M  V30 2895 O 270.684 -1.41987 1.10634 0
M  V30 2896 H 267.059 -0.387841 0.64427 0
M  V30 2897 H 269.03 -0.743683 2.88984 0
M  V30 2898 C 267.779 -2.4647 2.4525 0
M  V30 2899 H 267.102 -2.26363 3.29545 0
M  V30 2900 H 268.542 -3.17948 2.80508 0
M  V30 2901 C 267.001 -3.09921 1.321 0
M  V30 2902 O 267.531 -3.9651 0.643622 0
M  V30 2903 N 265.737 -2.69986 1.07497 0
M  V30 2904 H 265.284 -1.99667 1.62761 0
M  V30 2905 H 265.242 -3.12769 0.319876 0
M  V30 2906 N 269.014 -1.53014 -0.377408 0
M  V30 2907 C 269.944 -1.81589 -1.46791 0
M  V30 2908 C 270.925 -0.668622 -1.56408 0
M  V30 2909 O 272.11 -0.917337 -1.71168 0
M  V30 2910 C 269.24 -1.99519 -2.8427 0
M  V30 2911 C 268.194 -3.15249 -2.89486 0
M  V30 2912 C 267.52 -3.18451 -4.29527 0
M  V30 2913 C 268.82 -4.54084 -2.58079 0
M  V30 2914 H 270.514 -2.7291 -1.23127 0
M  V30 2915 H 268.06 -1.31319 -0.590883 0
M  V30 2916 H 270.013 -2.18092 -3.60575 0
M  V30 2917 H 268.737 -1.04897 -3.09296 0
M  V30 2918 H 267.396 -2.96477 -2.15631 0
M  V30 2919 H 267.044 -2.2149 -4.5161 0
M  V30 2920 H 266.744 -3.962 -4.33934 0
M  V30 2921 H 268.268 -3.39193 -5.07721 0
M  V30 2922 H 269.682 -4.72899 -3.24098 0
M  V30 2923 H 268.079 -5.33987 -2.7382 0
M  V30 2924 H 269.149 -4.60006 -1.53372 0
M  V30 2925 N 270.492 0.636531 -1.44174 0
M  V30 2926 C 271.717 1.42847 -1.50364 0
M  V30 2927 C 272.142 1.87665 -0.127867 0
M  V30 2928 O 271.5 1.58408 0.88185 0
M  V30 2929 C 271.548 2.62854 -2.4686 0
M  V30 2930 O 270.652 3.62501 -1.9664 0
M  V30 2931 H 269.993 0.427642 -0.507955 0
M  V30 2932 H 272.523 0.777422 -1.89255 0
M  V30 2933 H 272.533 3.10465 -2.64718 0
M  V30 2934 H 271.208 2.29578 -3.46795 0
M  V30 2935 H 269.785 3.21735 -1.88523 0
M  V30 2936 N 271.97 1.30982 0.876444 0
M  V30 2937 C 273.218 1.20058 1.62575 0
M  V30 2938 C 273.539 -0.242947 1.93481 0
M  V30 2939 O 272.809 -1.1619 1.57724 0
M  V30 2940 H 271.389 0.44135 0.602677 0
M  V30 2941 H 274.051 1.64222 1.04962 0
M  V30 2942 H 273.147 1.76762 2.57219 0
M  V30 2943 N 273.449 -1.08991 1.13837 0
M  V30 2944 C 274.379 -2.17771 0.842507 0
M  V30 2945 C 275.36 -1.6892 -0.20001 0
M  V30 2946 O 276.545 -1.94113 -0.0579731 0
M  V30 2947 C 273.675 -3.4589 0.312644 0
M  V30 2948 C 272.629 -4.08099 1.28992 0
M  V30 2949 C 271.955 -5.31098 0.619623 0
M  V30 2950 C 273.255 -4.50077 2.65005 0
M  V30 2951 H 274.949 -2.42777 1.75213 0
M  V30 2952 H 272.495 -1.16682 0.843875 0
M  V30 2953 H 274.448 -4.21297 0.0933043 0
M  V30 2954 H 273.172 -3.20419 -0.632382 0
M  V30 2955 H 271.831 -3.34717 1.49533 0
M  V30 2956 H 271.479 -5.0191 -0.33102 0
M  V30 2957 H 271.179 -5.73674 1.27167 0
M  V30 2958 H 272.703 -6.09224 0.409669 0
M  V30 2959 H 274.117 -5.16688 2.48407 0
M  V30 2960 H 272.514 -5.03553 3.26427 0
M  V30 2961 H 273.584 -3.62257 3.22332 0
M  V30 2962 N 274.927 -0.932562 -1.27047 0
M  V30 2963 C 276.155 -0.592031 -1.98249 0
M  V30 2964 C 276.57 0.831062 -1.69525 0
M  V30 2965 O 275.927 1.55299 -0.958561 0
M  V30 2966 C 275.978 -0.814279 -3.5221 0
M  V30 2967 O 275.699 -2.18139 -3.7993 0
M  V30 2968 C 277.2 -0.483121 -4.4066 0
M  V30 2969 H 274.42 -0.223896 -0.632544 0
M  V30 2970 H 276.964 -1.25091 -1.61779 0
M  V30 2971 H 275.119 -0.20213 -3.86872 0
M  V30 2972 H 275.533 -2.235 -4.74498 0
M  V30 2973 H 277.007 -0.689298 -5.47679 0
M  V30 2974 H 277.484 0.581546 -4.35333 0
M  V30 2975 H 278.09 -1.07362 -4.11526 0
M  V30 2976 N 276.405 1.4127 -0.698611 0
M  V30 2977 C 277.63 2.06024 -0.238512 0
M  V30 2978 C 278.055 1.5224 1.10475 0
M  V30 2979 O 277.413 0.650623 1.69223 0
M  V30 2980 C 277.461 3.59988 -0.209952 0
M  V30 2981 O 276.565 4.04282 0.814235 0
M  V30 2982 H 275.906 0.653829 -0.115775 0
M  V30 2983 H 278.436 1.8098 -0.954326 0
M  V30 2984 H 278.446 4.07979 -0.0418436 0
M  V30 2985 H 277.121 3.98503 -1.1903 0
M  V30 2986 H 275.698 3.6779 0.615234 0
M  V30 2987 N 277.883 0.443576 1.51229 0
M  V30 2988 C 279.299 0.0962001 1.5931 0
M  V30 2989 C 279.499 -1.39501 1.45402 0
M  V30 2990 O 278.555 -2.16557 1.29843 0
M  V30 2991 C 279.868 0.621875 2.94199 0
M  V30 2992 C 281.416 0.582865 3.07525 0
M  V30 2993 C 281.891 1.08562 4.44948 0
M  V30 2994 N 283.382 1.04387 4.51284 0
M  V30 2995 C 284.117 1.40368 5.55954 0
M  V30 2996 N 283.613 1.83664 6.68011 0
M  V30 2997 N 285.406 1.32145 5.46346 0
M  V30 2998 H 277.557 1.41376 1.58514 0
M  V30 2999 H 279.82 0.582965 0.747567 0
M  V30 3000 H 279.526 1.66546 3.09767 0
M  V30 3001 H 279.4 0.0502125 3.77167 0
M  V30 3002 H 281.787 -0.451749 2.91622 0
M  V30 3003 H 281.868 1.191 2.26382 0
M  V30 3004 H 281.512 2.11873 4.61598 0
M  V30 3005 H 281.442 0.453956 5.2464 0
M  V30 3006 H 283.933 0.725986 3.70861 0
M  V30 3007 H 284.246 2.0934 7.43906 0
M  V30 3008 H 282.591 1.87596 6.69203 0
M  V30 3009 H 285.782 0.981808 4.57688 0
M  V30 3010 H 285.955 1.60514 6.27805 0
M  V30 3011 N 279.361 -1.56624 0.175154 0
M  V30 3012 C 280.309 -2.19468 -0.770495 0
M  V30 3013 C 281.303 -1.15985 -1.23466 0
M  V30 3014 O 282.509 -1.34176 -1.19987 0
M  V30 3015 H 278.884 -0.703095 -0.266761 0
M  V30 3016 H 280.855 -2.97613 -0.216542 0
M  V30 3017 C 279.604 -2.85264 -1.98796 0
M  V30 3018 H 278.927 -3.64623 -1.63983 0
M  V30 3019 H 280.367 -3.327 -2.62843 0
M  V30 3020 C 278.826 -1.85239 -2.81404 0
M  V30 3021 O 279.356 -1.34024 -3.78682 0
M  V30 3022 N 277.562 -1.53911 -2.46495 0
M  V30 3023 H 277.109 -1.95751 -1.67449 0
M  V30 3024 H 277.067 -0.872382 -3.02054 0
M  V30 3025 N 280.839 0.0985539 -1.57292 0
M  V30 3026 C 282.069 0.815135 -1.8984 0
M  V30 3027 C 282.477 1.7297 -0.766679 0
M  V30 3028 O 281.82 1.81698 0.270483 0
M  V30 3029 C 281.882 1.6842 -3.17608 0
M  V30 3030 C 281.546 0.94182 -4.4719 0
M  V30 3031 C 282.543 0.273212 -5.19182 0
M  V30 3032 C 280.228 0.916927 -4.9386 0
M  V30 3033 C 282.222 -0.410361 -6.36078 0
M  V30 3034 C 279.909 0.229567 -6.10669 0
M  V30 3035 C 280.907 -0.432902 -6.81627 0
M  V30 3036 O 280.595 -1.10925 -7.9621 0
M  V30 3037 H 280.327 0.238501 -0.632529 0
M  V30 3038 H 282.881 0.0812659 -2.05239 0
M  V30 3039 H 281.111 2.46022 -2.98345 0
M  V30 3040 H 282.8 2.27704 -3.36015 0
M  V30 3041 H 283.566 0.283927 -4.84168 0
M  V30 3042 H 279.445 1.42201 -4.3852 0
M  V30 3043 H 282.989 -0.928013 -6.914 0
M  V30 3044 H 278.886 0.216686 -6.45136 0
M  V30 3045 H 279.654 -1.01579 -8.12172 0
M  V30 3046 N 282.317 1.53212 0.369288 0
M  V30 3047 C 283.564 1.69215 1.11232 0
M  V30 3048 C 283.892 0.442048 1.8941 0
M  V30 3049 O 283.147 -0.575944 1.87033 0
M  V30 3050 C 283.446 2.89101 2.10132 0
M  V30 3051 C 283.112 4.25758 1.48463 0
M  V30 3052 C 281.774 4.6292 1.31372 0
M  V30 3053 C 284.126 5.10757 1.03811 0
M  V30 3054 C 281.454 5.82722 0.68207 0
M  V30 3055 C 283.806 6.31201 0.420487 0
M  V30 3056 C 282.47 6.67079 0.237038 0
M  V30 3057 H 281.74 0.619201 0.407027 0
M  V30 3058 H 284.387 1.87391 0.394552 0
M  V30 3059 H 282.692 2.65421 2.88199 0
M  V30 3060 H 284.389 2.98676 2.6757 0
M  V30 3061 H 280.979 3.96494 1.62758 0
M  V30 3062 H 285.163 4.82599 1.1581 0
M  V30 3063 H 280.419 6.09113 0.528316 0
M  V30 3064 H 284.593 6.96368 0.0662874 0
M  V30 3065 H 282.22 7.59774 -0.254477 0
M  V30 3066 N 283.795 -0.628877 1.44509 0
M  V30 3067 C 284.725 -1.75187 1.54376 0
M  V30 3068 C 285.706 -1.65411 0.396618 0
M  V30 3069 O 286.891 -1.84137 0.617031 0
M  V30 3070 C 284.021 -3.13725 1.48976 0
M  V30 3071 C 282.975 -3.38291 2.62189 0
M  V30 3072 C 282.301 -4.76883 2.41841 0
M  V30 3073 C 283.601 -3.30632 4.04326 0
M  V30 3074 H 285.295 -1.67187 2.48373 0
M  V30 3075 H 282.841 -0.802909 1.19538 0
M  V30 3076 H 284.794 -3.92064 1.54478 0
M  V30 3077 H 283.518 -3.22515 0.514961 0
M  V30 3078 H 282.177 -2.62334 2.56079 0
M  V30 3079 H 281.825 -4.82378 1.42548 0
M  V30 3080 H 281.525 -4.94278 3.17747 0
M  V30 3081 H 283.049 -5.57449 2.49165 0
M  V30 3082 H 284.463 -3.98873 4.11793 0
M  V30 3083 H 282.86 -3.59561 4.80454 0
M  V30 3084 H 283.93 -2.28404 4.27738 0
M  V30 3085 N 285.273 -1.31445 -0.869486 0
M  V30 3086 C 286.519 -1.21337 -1.62496 0
M  V30 3087 C 286.852 0.227872 -1.92858 0
M  V30 3088 O 286.127 1.16094 -1.56053 0
M  V30 3089 C 286.41 -2.05814 -2.95487 0
M  V30 3090 C 286.263 -3.5824 -2.72 0
M  V30 3091 C 287.582 -1.9079 -3.96594 0
M  V30 3092 H 284.701 -0.442135 -0.589649 0
M  V30 3093 H 287.343 -1.6124 -1.00507 0
M  V30 3094 H 285.493 -1.71913 -3.48394 0
M  V30 3095 H 287.165 -4.0228 -2.25762 0
M  V30 3096 H 285.408 -3.81647 -2.06224 0
M  V30 3097 H 286.079 -4.12657 -3.66631 0
M  V30 3098 H 288.555 -2.20459 -3.52898 0
M  V30 3099 H 287.431 -2.52199 -4.87531 0
M  V30 3100 H 287.692 -0.871341 -4.33428 0
M  V30 3101 N 286.751 1.08385 -1.14413 0
M  V30 3102 C 287.699 2.17406 -0.826888 0
M  V30 3103 C 288.693 1.6827 0.195312 0
M  V30 3104 O 289.899 1.79927 0.0513892 0
M  V30 3105 H 286.274 0.70934 -0.249681 0
M  V30 3106 H 288.245 2.41388 -1.75426 0
M  V30 3107 C 286.994 3.46215 -0.320979 0
M  V30 3108 H 286.317 3.84401 -1.0989 0
M  V30 3109 H 287.757 4.23777 -0.137549 0
M  V30 3110 C 286.216 3.23067 0.955472 0
M  V30 3111 O 286.746 3.4668 2.02918 0
M  V30 3112 N 284.952 2.7661 0.890798 0
M  V30 3113 H 284.499 2.57594 0.0168815 0
M  V30 3114 H 284.457 2.61501 1.74542 0
M  V30 3115 N 288.23 0.939286 1.26551 0
M  V30 3116 C 289.478 0.58469 1.93457 0
M  V30 3117 C 289.799 -0.878774 1.74076 0
M  V30 3118 O 289.069 -1.62421 1.09528 0
M  V30 3119 H 287.649 0.21325 0.715914 0
M  V30 3120 H 290.311 1.1942 1.54029 0
M  V30 3121 H 289.407 0.800849 3.0165 0
M  V30 3122 N 289.708 -1.40897 0.706093 0
M  V30 3123 C 290.936 -2.05373 0.250887 0
M  V30 3124 C 291.351 -1.53172 -1.10381 0
M  V30 3125 O 290.708 -0.684305 -1.69185 0
M  V30 3126 C 290.759 -3.6088 0.211571 0
M  V30 3127 O 290.48 -4.11153 1.51276 0
M  V30 3128 C 291.981 -4.42517 -0.263346 0
M  V30 3129 H 289.201 -0.66115 0.114552 0
M  V30 3130 H 291.745 -1.80479 0.961635 0
M  V30 3131 H 289.9 -3.84777 -0.450073 0
M  V30 3132 H 290.314 -5.05279 1.40689 0
M  V30 3133 H 291.788 -5.51479 -0.239718 0
M  V30 3134 H 292.265 -4.19396 -1.30397 0
M  V30 3135 H 292.871 -4.23708 0.367677 0
M  V30 3136 N 291.186 -0.45159 -1.50991 0
M  V30 3137 C 292.411 0.110667 -2.07105 0
M  V30 3138 C 292.836 1.3446 -1.31538 0
M  V30 3139 O 292.194 1.77743 -0.357365 0
M  V30 3140 C 292.242 0.397238 -3.58405 0
M  V30 3141 O 291.346 1.48124 -3.84881 0
M  V30 3142 H 290.687 -0.00439271 -0.663985 0
M  V30 3143 H 293.217 -0.637026 -1.9443 0
M  V30 3144 H 293.227 0.64351 -4.02893 0
M  V30 3145 H 291.902 -0.504553 -4.12828 0
M  V30 3146 H 290.479 1.22381 -3.52246 0
M  V30 3147 N 292.664 1.56529 -0.183458 0
M  V30 3148 C 294.08 1.58664 0.172554 0
M  V30 3149 C 294.28 1.19925 1.61926 0
M  V30 3150 O 293.336 0.916534 2.35278 0
M  V30 3151 C 294.649 3.00463 -0.119262 0
M  V30 3152 C 296.197 3.12945 -0.0584396 0
M  V30 3153 C 296.672 4.56857 -0.323408 0
M  V30 3154 N 298.163 4.62403 -0.271612 0
M  V30 3155 C 298.898 5.71626 -0.450639 0
M  V30 3156 N 298.394 6.89362 -0.689384 0
M  V30 3157 N 300.187 5.60775 -0.385701 0
M  V30 3158 H 292.338 1.79994 -1.12765 0
M  V30 3159 H 294.601 0.834808 -0.449222 0
M  V30 3160 H 294.307 3.33326 -1.12192 0
M  V30 3161 H 294.181 3.72659 0.583544 0
M  V30 3162 H 296.568 2.79902 0.934805 0
M  V30 3163 H 296.649 2.4316 -0.794144 0
M  V30 3164 H 296.293 4.9061 -1.31392 0
M  V30 3165 H 296.223 5.24816 0.43305 0
M  V30 3166 H 298.714 3.77785 -0.0932256 0
M  V30 3167 H 299.027 7.68489 -0.815113 0
M  V30 3168 H 297.372 6.91196 -0.726142 0
M  V30 3169 H 300.563 4.67674 -0.199687 0
M  V30 3170 H 300.736 6.4584 -0.528646 0
M  V30 3171 N 294.142 -0.090211 1.57342 0
M  V30 3172 C 295.052 -1.12735 2.05738 0
M  V30 3173 C 296.068 -1.43557 0.983231 0
M  V30 3174 O 297.244 -1.54101 1.29672 0
M  V30 3175 C 294.309 -2.42659 2.47624 0
M  V30 3176 C 293.37 -2.18975 3.69254 0
M  V30 3177 C 292.603 -3.42704 4.09133 0
M  V30 3178 O 292.826 -4.51127 3.49057 0
M  V30 3179 O 291.76 -3.32003 5.02053 0
M  V30 3180 H 295.586 -0.746279 2.94388 0
M  V30 3181 H 293.171 -0.303064 1.46294 0
M  V30 3182 H 295.053 -3.19155 2.7517 0
M  V30 3183 H 293.728 -2.80182 1.62109 0
M  V30 3184 H 292.635 -1.40244 3.46818 0
M  V30 3185 H 293.968 -1.86342 4.55563 0
M  V30 3186 N 295.62 -1.53406 -0.361157 0
M  V30 3187 C 296.869 -1.69022 -1.10066 0
M  V30 3188 C 297.182 -0.450838 -1.90333 0
M  V30 3189 O 298.388 -0.487617 -2.67085 0
M  V30 3190 C 296.844 -2.98812 -2.00598 0
M  V30 3191 C 296.452 -4.30027 -1.25621 0
M  V30 3192 C 298.196 -3.23795 -2.74513 0
M  V30 3193 C 296.103 -5.50903 -2.1508 0
M  V30 3194 H 295.033 -0.629776 -0.414606 0
M  V30 3195 H 297.684 -1.79907 -0.361348 0
M  V30 3196 H 296.066 -2.8174 -2.78278 0
M  V30 3197 H 297.24 -4.57745 -0.529739 0
M  V30 3198 H 295.555 -4.11522 -0.635496 0
M  V30 3199 H 298.152 -4.11289 -3.41681 0
M  V30 3200 H 298.495 -2.40045 -3.40123 0
M  V30 3201 H 299.028 -3.41561 -2.03914 0
M  V30 3202 H 295.767 -6.37143 -1.54041 0
M  V30 3203 H 295.287 -5.27459 -2.85565 0
M  V30 3204 H 296.966 -5.85865 -2.74538 0
M  V30 3205 N 297.098 0.621204 -1.44841 0
M  V30 3206 C 298.346 1.37783 -1.47852 0
M  V30 3207 C 298.667 1.94653 -0.116224 0
M  V30 3208 O 297.937 1.76367 0.852737 0
M  V30 3209 H 296.517 0.511453 -0.544449 0
M  V30 3210 H 299.179 0.730446 -1.80694 0
M  V30 3211 H 298.275 2.20414 -2.20961 0
M  V30 3212 N 298.576 1.31904 0.862503 0
M  V30 3213 C 299.825 1.21373 1.61094 0
M  V30 3214 C 300.138 -0.22504 1.94301 0
M  V30 3215 O 301.344 -0.452121 2.67709 0
M  V30 3216 C 299.8 2.12525 2.9045 0
M  V30 3217 C 299.408 3.61441 2.64697 0
M  V30 3218 C 301.152 2.10813 3.68454 0
M  V30 3219 C 299.059 4.44578 3.90006 0
M  V30 3220 H 297.989 0.450705 0.604468 0
M  V30 3221 H 300.64 1.56811 0.953027 0
M  V30 3222 H 299.022 1.69994 3.57656 0
M  V30 3223 H 300.196 4.12264 2.05851 0
M  V30 3224 H 298.511 3.65205 2.00036 0
M  V30 3225 H 301.108 2.70167 4.61426 0
M  V30 3226 H 301.451 1.09713 4.01583 0
M  V30 3227 H 301.984 2.51583 3.08141 0
M  V30 3228 H 298.723 5.46461 3.62023 0
M  V30 3229 H 298.243 3.98508 4.48276 0
M  V30 3230 H 299.922 4.57176 4.5782 0
M  V30 3231 N 300.054 -1.07777 1.14986 0
M  V30 3232 C 300.986 -2.14769 0.800436 0
M  V30 3233 C 301.999 -1.61739 -0.185595 0
M  V30 3234 O 303.188 -1.78462 0.0370358 0
M  V30 3235 C 300.288 -3.38481 0.168533 0
M  V30 3236 C 299.461 -4.20876 1.1909 0
M  V30 3237 C 298.52 -5.22976 0.581575 0
M  V30 3238 O 297.546 -5.55388 1.24633 0
M  V30 3239 N 298.748 -5.76976 -0.638706 0
M  V30 3240 H 301.513 -2.45348 1.72118 0
M  V30 3241 H 299.074 -1.23645 1.04515 0
M  V30 3242 H 301.066 -4.03916 -0.251764 0
M  V30 3243 H 299.636 -3.05651 -0.655467 0
M  V30 3244 H 298.856 -3.51322 1.78791 0
M  V30 3245 H 300.144 -4.7274 1.88133 0
M  V30 3246 H 299.542 -5.52886 -1.19723 0
M  V30 3247 H 298.099 -6.44061 -1.00142 0
M  V30 3248 N 301.532 -0.945985 -1.26051 0
M  V30 3249 C 302.779 -0.596118 -1.93527 0
M  V30 3250 C 303.107 0.865559 -1.74179 0
M  V30 3251 O 302.362 1.63524 -1.0751 0
M  V30 3252 C 302.661 -0.890475 -3.46129 0
M  V30 3253 C 302.327 -2.3368 -3.85622 0
M  V30 3254 C 300.989 -2.73216 -3.96114 0
M  V30 3255 C 303.341 -3.27648 -4.05334 0
M  V30 3256 C 300.669 -4.05806 -4.2372 0
M  V30 3257 C 303.021 -4.59841 -4.3443 0
M  V30 3258 C 301.685 -4.99185 -4.43137 0
M  V30 3259 H 300.955 -0.218135 -0.708165 0
M  V30 3260 H 303.602 -1.1934 -1.49768 0
M  V30 3261 H 301.907 -0.210711 -3.91233 0
M  V30 3262 H 303.604 -0.598478 -3.96509 0
M  V30 3263 H 300.194 -2.02015 -3.78005 0
M  V30 3264 H 304.378 -2.98298 -3.96651 0
M  V30 3265 H 299.634 -4.35945 -4.28675 0
M  V30 3266 H 303.808 -5.32641 -4.48628 0
M  V30 3267 H 301.435 -6.01952 -4.64282 0
M  V30 3268 N 303.011 1.40521 -0.713556 0
M  V30 3269 C 304.258 2.00923 -0.25219 0
M  V30 3270 C 304.586 1.56571 1.15395 0
M  V30 3271 O 303.841 0.775874 1.79663 0
M  V30 3272 C 304.14 3.56317 -0.278 0
M  V30 3273 C 303.806 4.20246 -1.63415 0
M  V30 3274 C 302.468 4.37422 -2.00538 0
M  V30 3275 C 304.82 4.55923 -2.52554 0
M  V30 3276 C 302.148 4.87558 -3.2635 0
M  V30 3277 C 304.5 5.07458 -3.77716 0
M  V30 3278 C 303.164 5.22843 -4.14959 0
M  V30 3279 H 302.434 0.735231 -0.0922829 0
M  V30 3280 H 305.081 1.68161 -0.916188 0
M  V30 3281 H 303.386 3.88976 0.469567 0
M  V30 3282 H 305.083 4.00883 0.0967819 0
M  V30 3283 H 301.673 4.07263 -1.33546 0
M  V30 3284 H 305.857 4.42291 -2.25149 0
M  V30 3285 H 301.113 4.97654 -3.55176 0
M  V30 3286 H 305.287 5.34041 -4.4696 0
M  V30 3287 H 302.914 5.61454 -5.12516 0
M  V30 3288 N 304.489 0.459591 1.5075 0
M  V30 3289 C 305.766 -0.160371 1.94941 0
M  V30 3290 C 306.146 -1.58048 1.39943 0
M  V30 3291 O 305.494 -2.206 0.595629 0
M  V30 3292 C 305.704 -0.115432 3.48809 0
M  V30 3293 C 307.052 -0.310026 4.23467 0
M  V30 3294 O 308.076 -0.192543 3.55679 0
M  V30 3295 O 306.935 -0.546031 5.43765 0
M  V30 3296 H 304.029 -0.117925 0.818549 0
M  V30 3297 H 306.575 0.519169 1.61563 0
M  V30 3298 H 305.347 0.87652 3.81357 0
M  V30 3299 H 304.97 -0.836928 3.88692 0
M  V30 3300 N 305.967 -1.56429 0.191757 0
M  V30 3301 C 307.192 -2.02309 -0.456706 0
M  V30 3302 C 307.617 -1.07103 -1.5463 0
M  V30 3303 O 306.975 -0.0539677 -1.8122 0
M  V30 3304 C 307.023 -3.46654 -0.993159 0
M  V30 3305 O 306.127 -3.54559 -2.10622 0
M  V30 3306 H 305.468 -0.655303 -0.107114 0
M  V30 3307 H 307.998 -2.02364 0.301653 0
M  V30 3308 H 308.008 -3.86377 -1.31061 0
M  V30 3309 H 306.683 -4.1544 -0.195504 0
M  V30 3310 H 305.26 -3.26708 -1.79767 0
M  V30 3311 N 307.445 0.0818655 -1.57387 0
M  V30 3312 C 308.375 1.09885 -2.06028 0
M  V30 3313 C 309.356 1.4098 -0.951774 0
M  V30 3314 O 310.541 1.50781 -1.22387 0
M  V30 3315 C 307.671 2.4151 -2.4958 0
M  V30 3316 C 306.625 2.24792 -3.64215 0
M  V30 3317 C 305.951 3.61712 -3.93787 0
M  V30 3318 C 307.251 1.67749 -4.94629 0
M  V30 3319 H 308.945 0.694128 -2.91243 0
M  V30 3320 H 306.491 0.332448 -1.4011 0
M  V30 3321 H 308.444 3.12939 -2.82219 0
M  V30 3322 H 307.168 2.83943 -1.61381 0
M  V30 3323 H 305.827 1.55807 -3.31843 0
M  V30 3324 H 305.475 4.01697 -3.02735 0
M  V30 3325 H 305.175 3.51368 -4.70971 0
M  V30 3326 H 306.699 4.34587 -4.28913 0
M  V30 3327 H 308.113 2.29032 -5.25564 0
M  V30 3328 H 306.51 1.68128 -5.76067 0
M  V30 3329 H 307.58 0.638059 -4.80684 0
M  V30 3330 N 308.923 1.53595 0.353017 0
M  V30 3331 C 309.853 1.83902 1.43883 0
M  V30 3332 C 310.834 0.693421 1.55324 0
M  V30 3333 O 312.019 0.944452 1.69687 0
M  V30 3334 C 309.149 2.04016 2.8106 0
M  V30 3335 C 308.103 3.19814 2.84434 0
M  V30 3336 C 307.429 3.25244 4.24406 0
M  V30 3337 C 308.729 4.58133 2.50822 0
M  V30 3338 H 310.423 2.74835 1.1877 0
M  V30 3339 H 307.969 1.32242 0.569917 0
M  V30 3340 H 309.922 2.238 3.57059 0
M  V30 3341 H 308.646 1.09804 3.07588 0
M  V30 3342 H 307.305 2.9987 2.10887 0
M  V30 3343 H 306.953 2.28646 4.48029 0
M  V30 3344 H 306.653 4.03054 4.27576 0
M  V30 3345 H 308.177 3.47228 5.0226 0
M  V30 3346 H 309.591 4.77995 3.16534 0
M  V30 3347 H 307.988 5.38276 2.6529 0
M  V30 3348 H 309.058 4.62387 1.46034 0
M  V30 3349 N 310.401 -0.613514 1.45168 0
M  V30 3350 C 311.678 -1.37263 1.39349 0
M  V30 3351 C 312.058 -2.11012 0.0610848 0
M  V30 3352 O 311.406 -2.07502 -0.956825 0
M  V30 3353 C 311.616 -2.3244 2.60332 0
M  V30 3354 C 312.964 -2.9523 3.05163 0
M  V30 3355 O 313.988 -2.42762 2.60663 0
M  V30 3356 O 312.847 -3.90454 3.82372 0
M  V30 3357 H 309.941 -0.615188 0.552696 0
M  V30 3358 H 312.487 -0.637097 1.57287 0
M  V30 3359 H 311.259 -1.77164 3.48896 0
M  V30 3360 H 310.882 -3.13383 2.44698 0
M  V30 3361 N 311.879 -1.3236 -0.855495 0
M  V30 3362 C 313.107 -1.2587 -1.64208 0
M  V30 3363 C 313.522 0.173457 -1.88002 0
M  V30 3364 O 312.879 1.11027 -1.44842 0
M  V30 3365 C 312.93 -2.01424 -3.00184 0
M  V30 3366 O 312.651 -3.39051 -2.77445 0
M  V30 3367 C 314.152 -2.01948 -3.94629 0
M  V30 3368 H 311.372 -0.434318 -0.511477 0
M  V30 3369 H 313.916 -1.74469 -1.0668 0
M  V30 3370 H 312.071 -1.56549 -3.5436 0
M  V30 3371 H 312.485 -3.77711 -3.63916 0
M  V30 3372 H 313.959 -2.59297 -4.87308 0
M  V30 3373 H 314.436 -1.00554 -4.27534 0
M  V30 3374 H 315.042 -2.46767 -3.4639 0
M  V30 3375 N 313.357 1.07166 -1.15556 0
M  V30 3376 C 314.304 2.14417 -0.854055 0
M  V30 3377 C 315.274 1.64965 0.193806 0
M  V30 3378 O 316.459 1.90703 0.0609443 0
M  V30 3379 C 313.599 3.43304 -0.351574 0
M  V30 3380 C 312.712 4.06537 -1.46123 0
M  V30 3381 C 311.847 5.23266 -0.914677 0
M  V30 3382 C 310.886 5.78464 -2.00114 0
M  V30 3383 N 310.023 6.86521 -1.47083 0
M  V30 3384 H 314.863 2.39548 -1.77259 0
M  V30 3385 H 312.4 1.17543 -0.884425 0
M  V30 3386 H 314.358 4.17179 -0.0419409 0
M  V30 3387 H 312.988 3.18419 0.530037 0
M  V30 3388 H 312.04 3.30297 -1.88701 0
M  V30 3389 H 313.352 4.43567 -2.28144 0
M  V30 3390 H 312.506 6.04131 -0.557698 0
M  V30 3391 H 311.245 4.87658 -0.0636583 0
M  V30 3392 H 310.25 4.96243 -2.36692 0
M  V30 3393 H 311.475 6.16126 -2.85597 0
M  V30 3394 H 309.421 6.52849 -0.642198 0
M  V30 3395 H 309.338 7.22446 -2.22729 0
M  V30 3396 H 310.606 7.71087 -1.14215 0
M  V30 3397 N 314.835 0.952656 1.25548 0
M  V30 3398 C 315.782 0.47008 2.25962 0
M  V30 3399 C 316.752 -0.476384 1.59122 0
M  V30 3400 O 317.937 -0.39007 1.8677 0
M  V30 3401 C 315.077 -0.247881 3.44209 0
M  V30 3402 C 314.19 0.735591 4.25691 0
M  V30 3403 C 313.325 -0.0047306 5.312 0
M  V30 3404 C 312.364 0.969805 6.04368 0
M  V30 3405 N 311.501 0.260486 7.01617 0
M  V30 3406 H 316.341 1.33126 2.66611 0
M  V30 3407 H 313.878 0.66765 1.31076 0
M  V30 3408 H 315.836 -0.680695 4.1161 0
M  V30 3409 H 314.466 -1.07312 3.0444 0
M  V30 3410 H 313.518 1.28689 3.57971 0
M  V30 3411 H 314.83 1.47934 4.76358 0
M  V30 3412 H 313.984 -0.496275 6.04667 0
M  V30 3413 H 312.723 -0.781282 4.81401 0
M  V30 3414 H 311.728 1.47237 5.29718 0
M  V30 3415 H 312.953 1.74655 6.56256 0
M  V30 3416 H 310.899 -0.497364 6.54112 0
M  V30 3417 H 310.816 0.943362 7.50091 0
M  V30 3418 H 312.084 -0.209587 7.79218 0
M  V30 3419 N 316.313 -1.40141 0.720998 0
M  V30 3420 C 317.562 -2.0002 0.259804 0
M  V30 3421 C 317.875 -1.57839 -1.15526 0
M  V30 3422 O 319.081 -2.10455 -1.71525 0
M  V30 3423 C 317.537 -3.57516 0.413566 0
M  V30 3424 C 317.145 -4.08667 1.83562 0
M  V30 3425 C 318.889 -4.24498 0.0134387 0
M  V30 3426 C 316.796 -5.58686 1.93968 0
M  V30 3427 H 315.726 -0.748195 0.0933806 0
M  V30 3428 H 318.377 -1.60313 0.892866 0
M  V30 3429 H 316.759 -3.9495 -0.288169 0
M  V30 3430 H 317.933 -3.82598 2.56817 0
M  V30 3431 H 316.248 -3.543 2.1877 0
M  V30 3432 H 318.845 -5.34654 0.0703954 0
M  V30 3433 H 319.188 -4.03375 -1.02927 0
M  V30 3434 H 319.721 -3.92188 0.665815 0
M  V30 3435 H 316.46 -5.8467 2.96379 0
M  V30 3436 H 315.98 -5.86602 1.25131 0
M  V30 3437 H 317.659 -6.23875 1.71431 0
M  V30 3438 N 317.792 -0.46758 -1.50504 0
M  V30 3439 C 318.702 0.33382 -2.32213 0
M  V30 3440 C 319.718 0.999323 -1.42441 0
M  V30 3441 O 320.894 0.988068 -1.75497 0
M  V30 3442 C 317.959 1.4035 -3.17022 0
M  V30 3443 C 317.02 0.754961 -4.2261 0
M  V30 3444 C 316.253 1.77367 -5.03365 0
M  V30 3445 O 316.476 2.99976 -4.8515 0
M  V30 3446 O 315.41 1.34744 -5.86624 0
M  V30 3447 H 319.236 -0.334067 -3.01857 0
M  V30 3448 H 316.821 -0.229496 -1.47627 0
M  V30 3449 H 318.703 2.02318 -3.69656 0
M  V30 3450 H 317.378 2.05492 -2.5011 0
M  V30 3451 H 316.285 0.0964244 -3.73976 0
M  V30 3452 H 317.618 0.146545 -4.91982 0
M  V30 3453 N 319.27 1.56325 -0.20005 0
M  V30 3454 C 320.686 1.58839 0.155716 0
M  V30 3455 C 320.886 1.21636 1.60645 0
M  V30 3456 O 319.942 0.941437 2.34293 0
M  V30 3457 C 321.255 3.0032 -0.151124 0
M  V30 3458 C 322.803 3.12866 -0.0916284 0
M  V30 3459 C 323.278 4.56488 -0.371845 0
M  V30 3460 N 324.769 4.62089 -0.320641 0
M  V30 3461 C 325.504 5.71116 -0.511243 0
M  V30 3462 N 325 6.88592 -0.762461 0
M  V30 3463 N 326.793 5.60335 -0.445157 0
M  V30 3464 H 318.944 1.78788 -1.14668 0
M  V30 3465 H 321.207 0.829996 -0.458051 0
M  V30 3466 H 320.913 3.32117 -1.15721 0
M  V30 3467 H 320.787 3.73257 0.543986 0
M  V30 3468 H 323.174 2.80878 0.905065 0
M  V30 3469 H 323.255 2.42304 -0.81989 0
M  V30 3470 H 322.899 4.89189 -1.36588 0
M  V30 3471 H 322.829 5.25246 0.377362 0
M  V30 3472 H 325.32 3.77665 -0.13329 0
M  V30 3473 H 325.633 7.67581 -0.896576 0
M  V30 3474 H 323.978 6.90387 -0.799412 0
M  V30 3475 H 327.169 4.67436 -0.249278 0
M  V30 3476 H 327.342 6.45243 -0.597116 0
M  V30 3477 N 320.748 -0.0735177 1.57428 0
M  V30 3478 C 321.995 -0.772999 1.87166 0
M  V30 3479 C 322.323 -1.77665 0.791551 0
M  V30 3480 O 321.578 -1.94541 -0.212636 0
M  V30 3481 C 321.877 -1.51799 3.23561 0
M  V30 3482 C 321.543 -0.654484 4.46125 0
M  V30 3483 C 320.205 -0.416511 4.79394 0
M  V30 3484 C 322.557 -0.0555862 5.2117 0
M  V30 3485 C 319.885 0.429869 5.85123 0
M  V30 3486 C 322.237 0.778239 6.27795 0
M  V30 3487 C 320.901 1.0261 6.59566 0
M  V30 3488 H 320.171 -0.282861 0.684888 0
M  V30 3489 H 322.818 -0.0338272 1.9147 0
M  V30 3490 H 321.123 -2.32932 3.1504 0
M  V30 3491 H 322.82 -2.06397 3.43804 0
M  V30 3492 H 319.41 -0.850091 4.20085 0
M  V30 3493 H 323.594 -0.226558 4.95783 0
M  V30 3494 H 318.85 0.630665 6.08139 0
M  V30 3495 H 323.024 1.24906 6.85107 0
M  V30 3496 H 320.651 1.68371 7.4132 0
M  V30 3497 N 322.226 -1.5378 -0.344866 0
M  V30 3498 C 323.174 -1.82373 -1.4437 0
M  V30 3499 C 324.168 -0.694128 -1.54526 0
M  V30 3500 O 325.374 -0.877442 -1.57165 0
M  V30 3501 H 321.749 -0.577765 -0.481344 0
M  V30 3502 H 323.72 -2.74306 -1.17468 0
M  V30 3503 C 322.469 -2.04898 -2.80913 0
M  V30 3504 H 321.792 -2.9127 -2.73865 0
M  V30 3505 H 323.232 -2.28871 -3.56923 0
M  V30 3506 C 321.691 -0.834116 -3.26411 0
M  V30 3507 O 322.221 -0.0328885 -4.01687 0
M  V30 3508 N 320.427 -0.65171 -2.83198 0
M  V30 3509 H 319.974 -1.30489 -2.22104 0
M  V30 3510 H 319.932 0.159686 -3.13994 0
M  V30 3511 N 323.704 0.605807 -1.45491 0
M  V30 3512 C 325.115 1.18777 -1.44045 0
M  V30 3513 C 325.466 1.95471 -0.169001 0
M  V30 3514 O 324.591 2.0374 0.729324 0
M  V30 3515 C 325.186 2.16064 -2.60963 0
M  V30 3516 C 323.745 2.69633 -2.62631 0
M  V30 3517 C 322.892 1.45072 -2.36325 0
M  V30 3518 H 325.843 0.395017 -1.53705 0
M  V30 3519 H 325.864 2.9913 -2.35163 0
M  V30 3520 H 325.376 1.60217 -3.53486 0
M  V30 3521 H 323.477 3.29414 -1.74119 0
M  V30 3522 H 323.59 3.13944 -3.61906 0
M  V30 3523 H 321.954 1.74089 -1.85917 0
M  V30 3524 H 322.737 0.910899 -3.30995 0
M  V30 3525 N 325.182 1.32811 0.848464 0
M  V30 3526 C 326.593 1.21315 1.41914 0
M  V30 3527 C 326.944 -0.171847 1.95446 0
M  V30 3528 O 326.069 -1.07093 1.88043 0
M  V30 3529 C 326.664 2.19631 2.57968 0
M  V30 3530 C 325.223 2.12003 3.11017 0
M  V30 3531 C 324.37 2.07651 1.83783 0
M  V30 3532 H 327.321 1.44549 0.655071 0
M  V30 3533 H 327.342 1.79845 3.35315 0
M  V30 3534 H 326.854 3.20423 2.18976 0
M  V30 3535 H 324.955 1.14481 3.54577 0
M  V30 3536 H 325.068 3.02111 3.71841 0
M  V30 3537 H 323.432 1.52983 2.03638 0
M  V30 3538 H 324.215 3.10235 1.47 0
M  V30 3539 N 326.66 -1.06551 1.16123 0
M  V30 3540 C 327.885 -1.83544 0.965735 0
M  V30 3541 C 328.31 -1.81843 -0.481102 0
M  V30 3542 O 327.668 -1.21732 -1.34354 0
M  V30 3543 C 327.716 -3.28169 1.49457 0
M  V30 3544 O 326.82 -4.0643 0.699157 0
M  V30 3545 H 326.161 -0.568026 0.343864 0
M  V30 3546 H 328.691 -1.34362 1.54299 0
M  V30 3547 H 328.701 -3.78992 1.51092 0
M  V30 3548 H 327.376 -3.28722 2.54784 0
M  V30 3549 H 325.953 -3.65216 0.7531 0
M  V30 3550 N 328.138 -0.959301 -1.25041 0
M  V30 3551 C 329.086 -0.474437 -2.2771 0
M  V30 3552 C 330.08 0.457697 -1.631 0
M  V30 3553 O 331.286 0.333912 -1.76876 0
M  V30 3554 H 327.661 -0.134936 -0.739795 0
M  V30 3555 H 329.632 -1.35251 -2.65988 0
M  V30 3556 C 328.381 0.227884 -3.46952 0
M  V30 3557 H 327.704 -0.480248 -3.96905 0
M  V30 3558 H 329.144 0.531091 -4.20661 0
M  V30 3559 C 327.603 1.452 -3.04004 0
M  V30 3560 O 328.133 2.54949 -3.10426 0
M  V30 3561 N 326.339 1.31502 -2.59144 0
M  V30 3562 H 325.886 0.422065 -2.54119 0
M  V30 3563 H 325.844 2.13521 -2.30773 0
M  V30 3564 N 329.616 1.39756 -0.72842 0
M  V30 3565 C 330.862 2.00942 -0.273892 0
M  V30 3566 C 331.195 1.57656 1.13394 0
M  V30 3567 O 330.47 0.802434 1.77176 0
M  V30 3568 C 330.753 3.58211 -0.368346 0
M  V30 3569 C 330.606 4.11534 -1.81548 0
M  V30 3570 C 331.925 4.39372 0.253054 0
M  V30 3571 H 329.044 0.730047 -0.100996 0
M  V30 3572 H 331.686 1.66056 -0.923337 0
M  V30 3573 H 329.836 3.88061 0.184588 0
M  V30 3574 H 331.508 3.92431 -2.42478 0
M  V30 3575 H 329.751 3.65341 -2.33898 0
M  V30 3576 H 330.422 5.20682 -1.83288 0
M  V30 3577 H 332.898 4.15527 -0.218224 0
M  V30 3578 H 331.774 5.48677 0.156585 0
M  V30 3579 H 332.035 4.21358 1.33826 0
M  V30 3580 N 331.094 0.475555 1.50254 0
M  V30 3581 C 332.322 -0.0754493 2.06762 0
M  V30 3582 C 332.737 -1.33111 1.33891 0
M  V30 3583 O 332.094 -1.77846 0.40952 0
M  V30 3584 C 332.145 -0.359008 3.59713 0
M  V30 3585 O 331.866 0.846851 4.29837 0
M  V30 3586 C 333.367 -0.956484 4.32858 0
M  V30 3587 H 330.587 0.00907525 0.670939 0
M  V30 3588 H 333.131 0.665618 1.93364 0
M  V30 3589 H 331.286 -1.05001 3.72899 0
M  V30 3590 H 331.7 0.594162 5.21124 0
M  V30 3591 H 333.174 -1.10463 5.40834 0
M  V30 3592 H 333.651 -1.94775 3.93649 0
M  V30 3593 H 334.257 -0.303723 4.24214 0
M  V30 3594 N 332.573 -1.56217 0.208337 0
M  V30 3595 C 333.819 -1.98242 -0.427552 0
M  V30 3596 C 334.152 -1.09554 -1.60348 0
M  V30 3597 O 333.427 -0.15035 -1.93918 0
M  V30 3598 C 333.71 -3.4931 -0.874907 0
M  V30 3599 C 333.563 -4.48773 0.303751 0
M  V30 3600 C 334.882 -4.04424 -1.73577 0
M  V30 3601 H 332.001 -0.720744 -0.153936 0
M  V30 3602 H 334.643 -1.87586 0.30192 0
M  V30 3603 H 332.793 -3.58522 -1.49648 0
M  V30 3604 H 334.465 -4.51586 0.941682 0
M  V30 3605 H 332.708 -4.23194 0.953375 0
M  V30 3606 H 333.379 -5.51976 -0.0519883 0
M  V30 3607 H 335.855 -3.98075 -1.21143 0
M  V30 3608 H 334.731 -5.1047 -2.01771 0
M  V30 3609 H 334.992 -3.50494 -2.69456 0
M  V30 3610 N 334.051 0.0651679 -1.57465 0
M  V30 3611 C 335.467 0.420105 -1.53972 0
M  V30 3612 C 335.667 1.78782 -0.929474 0
M  V30 3613 O 334.723 2.46771 -0.534839 0
M  V30 3614 C 336.036 0.355084 -2.98596 0
M  V30 3615 C 337.584 0.434792 -3.09965 0
M  V30 3616 C 338.059 0.399609 -4.56253 0
M  V30 3617 N 339.55 0.459488 -4.60915 0
M  V30 3618 C 340.285 0.454584 -5.71595 0
M  V30 3619 N 339.781 0.404102 -6.9162 0
M  V30 3620 N 341.574 0.501635 -5.59857 0
M  V30 3621 H 333.725 -0.830328 -1.95498 0
M  V30 3622 H 335.988 -0.312244 -0.895102 0
M  V30 3623 H 335.694 -0.583357 -3.46828 0
M  V30 3624 H 335.568 1.16275 -3.58831 0
M  V30 3625 H 337.955 1.36366 -2.61703 0
M  V30 3626 H 338.036 -0.40157 -2.52628 0
M  V30 3627 H 337.68 -0.525436 -5.05175 0
M  V30 3628 H 337.61 1.25359 -5.11461 0
M  V30 3629 H 340.101 0.502482 -3.74544 0
M  V30 3630 H 340.414 0.404468 -7.71741 0
M  V30 3631 H 338.759 0.37069 -6.94011 0
M  V30 3632 H 341.95 0.538812 -4.64989 0
M  V30 3633 H 342.123 0.494345 -6.46112 0
M  V30 3634 N 335.529 1.53961 0.336706 0
M  V30 3635 C 336.769 1.73254 1.08454 0
M  V30 3636 C 337.133 0.488937 1.8567 0
M  V30 3637 O 338.334 0.559001 2.62923 0
M  V30 3638 C 336.605 2.96519 1.99528 0
M  V30 3639 S 338.164 3.36655 2.81441 0
M  V30 3640 H 334.982 0.609353 0.366347 0
M  V30 3641 H 337.584 1.92117 0.362124 0
M  V30 3642 H 336.288 3.85193 1.41614 0
M  V30 3643 H 335.819 2.80142 2.76196 0
M  V30 3644 H 337.834 2.90925 4.01967 0
M  V30 3645 N 337.007 -0.598083 1.45811 0
M  V30 3646 C 337.955 -1.72932 1.55555 0
M  V30 3647 C 338.949 -1.63984 0.424921 0
M  V30 3648 O 340.155 -1.69663 0.601205 0
M  V30 3649 H 336.53 -0.571489 0.488779 0
M  V30 3650 H 338.501 -1.61842 2.50699 0
M  V30 3651 C 337.25 -3.11318 1.54843 0
M  V30 3652 H 336.573 -3.18867 2.41172 0
M  V30 3653 H 338.013 -3.90274 1.65717 0
M  V30 3654 C 336.472 -3.3578 0.274427 0
M  V30 3655 O 337.002 -3.9654 -0.641778 0
M  V30 3656 N 335.208 -2.90119 0.167139 0
M  V30 3657 H 334.755 -2.40855 0.913596 0
M  V30 3658 H 334.713 -3.0686 -0.684435 0
M  V30 3659 N 338.485 -1.33259 -0.841409 0
M  V30 3660 C 339.713 -1.27605 -1.62864 0
M  V30 3661 C 340.128 0.153507 -1.88175 0
M  V30 3662 O 339.485 1.09485 -1.46011 0
M  V30 3663 C 339.536 -2.04596 -2.98031 0
M  V30 3664 O 339.257 -3.41975 -2.73834 0
M  V30 3665 C 340.758 -2.06122 -3.92465 0
M  V30 3666 H 337.978 -0.439718 -0.506842 0
M  V30 3667 H 340.522 -1.75591 -1.04824 0
M  V30 3668 H 338.677 -1.60299 -3.5268 0
M  V30 3669 H 339.091 -3.81549 -3.59889 0
M  V30 3670 H 340.565 -2.64451 -4.84531 0
M  V30 3671 H 341.042 -1.05083 -4.26444 0
M  V30 3672 H 341.648 -2.50427 -3.43753 0
M  V30 3673 N 339.963 1.05934 -1.16686 0
M  V30 3674 C 341.191 1.8249 -0.974929 0
M  V30 3675 C 341.606 1.82679 0.476861 0
M  V30 3676 O 340.963 1.2486 1.33103 0
M  V30 3677 C 341.014 3.28943 -1.49929 0
M  V30 3678 O 340.735 3.28886 -2.89423 0
M  V30 3679 C 342.236 4.22215 -1.35089 0
M  V30 3680 H 339.456 0.575295 -0.345365 0
M  V30 3681 H 342 1.33631 -1.548 0
M  V30 3682 H 340.155 3.751 -0.968423 0
M  V30 3683 H 340.569 4.20493 -3.13506 0
M  V30 3684 H 342.043 5.22987 -1.76603 0
M  V30 3685 H 342.52 4.38195 -0.296935 0
M  V30 3686 H 343.126 3.81907 -1.87155 0
M  V30 3687 N 341.441 0.965919 1.2453 0
M  V30 3688 C 342.391 0.465731 2.23193 0
M  V30 3689 C 343.375 -0.451277 1.54442 0
M  V30 3690 O 344.567 -0.282489 1.74731 0
M  V30 3691 C 341.696 -0.244511 3.42428 0
M  V30 3692 C 340.782 0.691222 4.18429 0
M  V30 3693 N 341.173 1.82771 4.71623 0
M  V30 3694 C 339.471 0.501649 4.4317 0
M  V30 3695 C 340.172 2.41285 5.29298 0
M  V30 3696 N 339.148 1.69819 5.16394 0
M  V30 3697 H 342.95 1.33291 2.61937 0
M  V30 3698 H 340.464 0.824789 1.39896 0
M  V30 3699 H 342.461 -0.620056 4.12263 0
M  V30 3700 H 341.121 -1.10815 3.05205 0
M  V30 3701 H 342.132 2.20929 4.68413 0
M  V30 3702 H 338.809 -0.318177 4.16286 0
M  V30 3703 H 340.199 3.37181 5.8117 0
M  V30 3704 N 342.919 -1.39368 0.735821 0
M  V30 3705 C 344.159 -2.02349 0.288813 0
M  V30 3706 C 344.523 -1.57127 -1.10341 0
M  V30 3707 O 345.724 -2.12312 -1.64854 0
M  V30 3708 C 343.995 -3.55288 0.387986 0
M  V30 3709 S 345.554 -4.38795 0.0209408 0
M  V30 3710 H 342.372 -0.701944 0.113115 0
M  V30 3711 H 344.974 -1.70164 0.962518 0
M  V30 3712 H 343.678 -3.85691 1.40252 0
M  V30 3713 H 343.209 -3.92227 -0.303512 0
M  V30 3714 H 345.224 -4.81595 -1.19503 0
M  V30 3715 N 344.397 -0.483516 -1.5 0
M  V30 3716 C 345.327 0.293829 -2.31644 0
M  V30 3717 C 346.308 0.978864 -1.39112 0
M  V30 3718 O 347.493 0.973644 -1.68029 0
M  V30 3719 C 344.623 1.36897 -3.19181 0
M  V30 3720 C 343.577 0.804833 -4.20365 0
M  V30 3721 C 342.903 1.9792 -4.96721 0
M  V30 3722 C 344.203 -0.192313 -5.21946 0
M  V30 3723 H 345.897 -0.387616 -2.9688 0
M  V30 3724 H 343.443 -0.187856 -1.42769 0
M  V30 3725 H 345.396 1.92037 -3.751 0
M  V30 3726 H 344.12 2.07936 -2.51853 0
M  V30 3727 H 342.779 0.275319 -3.65565 0
M  V30 3728 H 342.427 2.67686 -4.25856 0
M  V30 3729 H 342.127 1.60789 -5.65173 0
M  V30 3730 H 343.651 2.53526 -5.55479 0
M  V30 3731 H 345.065 0.270333 -5.72662 0
M  V30 3732 H 343.462 -0.478543 -5.98189 0
M  V30 3733 H 344.532 -1.11409 -4.71928 0
M  V30 3734 N 345.875 1.56104 -0.216619 0
M  V30 3735 C 347.121 1.98466 0.417033 0
M  V30 3736 C 347.454 1.10403 1.59765 0
M  V30 3737 O 346.729 0.160632 1.93836 0
M  V30 3738 C 347.012 3.49769 0.85637 0
M  V30 3739 C 346.865 4.48606 -0.327546 0
M  V30 3740 C 348.184 4.05339 1.7143 0
M  V30 3741 H 345.303 0.721551 0.150112 0
M  V30 3742 H 347.945 1.87423 -0.311864 0
M  V30 3743 H 346.095 3.5931 1.47745 0
M  V30 3744 H 347.767 4.5108 -0.965618 0
M  V30 3745 H 346.01 4.22682 -0.975805 0
M  V30 3746 H 346.681 5.51995 0.0227149 0
M  V30 3747 H 349.157 3.98712 1.19031 0
M  V30 3748 H 348.033 5.11533 1.99061 0
M  V30 3749 H 348.294 3.51918 2.67593 0
M  V30 3750 N 347.353 -0.0568162 1.57498 0
M  V30 3751 C 348.769 -0.411933 1.54192 0
M  V30 3752 C 348.969 -1.78287 0.938942 0
M  V30 3753 O 348.025 -2.46483 0.547919 0
M  V30 3754 C 349.338 -0.339244 2.9878 0
M  V30 3755 C 350.886 -0.418348 3.10192 0
M  V30 3756 C 351.361 -0.375407 4.56459 0
M  V30 3757 N 352.852 -0.435038 4.61153 0
M  V30 3758 C 353.587 -0.424265 5.71828 0
M  V30 3759 N 353.083 -0.367418 6.91825 0
M  V30 3760 N 354.876 -0.471938 5.60115 0
M  V30 3761 H 347.027 0.840684 1.95055 0
M  V30 3762 H 349.29 0.316987 0.893433 0
M  V30 3763 H 348.996 0.601742 3.46514 0
M  V30 3764 H 348.87 -1.14371 3.59443 0
M  V30 3765 H 351.257 -1.34976 2.62422 0
M  V30 3766 H 351.338 0.414962 2.52412 0
M  V30 3767 H 350.982 0.552219 5.04889 0
M  V30 3768 H 350.912 -1.22645 5.12119 0
M  V30 3769 H 353.403 -0.482612 3.74806 0
M  V30 3770 H 353.716 -0.363535 7.71944 0
M  V30 3771 H 352.061 -0.333879 6.94198 0
M  V30 3772 H 355.252 -0.514145 4.65268 0
M  V30 3773 H 355.425 -0.460073 6.46365 0
M  V30 3774 N 348.832 -1.54138 -0.328536 0
M  V30 3775 C 350.078 -1.73297 -1.06488 0
M  V30 3776 C 350.433 -0.497958 -1.85844 0
M  V30 3777 O 349.726 0.509591 -1.84699 0
M  V30 3778 C 349.92 -2.9457 -2.02393 0
M  V30 3779 C 349.749 -4.29747 -1.32467 0
M  V30 3780 C 348.519 -4.93987 -1.06324 0
M  V30 3781 C 350.717 -5.08903 -0.743137 0
M  V30 3782 N 348.699 -6.13005 -0.331359 0
M  V30 3783 C 350.07 -6.19836 -0.142602 0
M  V30 3784 C 352.125 -4.93699 -0.64546 0
M  V30 3785 C 350.828 -7.17224 0.546125 0
M  V30 3786 C 352.854 -5.91393 0.0295558 0
M  V30 3787 C 352.216 -7.01674 0.619056 0
M  V30 3788 H 348.315 -0.687017 -0.373539 0
M  V30 3789 H 350.899 -1.91589 -0.346659 0
M  V30 3790 H 349.07 -2.77752 -2.71493 0
M  V30 3791 H 350.802 -3.0238 -2.68977 0
M  V30 3792 H 347.557 -4.53824 -1.35428 0
M  V30 3793 H 347.981 -6.76997 0.0202939 0
M  V30 3794 H 352.623 -4.08589 -1.08695 0
M  V30 3795 H 350.341 -8.01896 0.999459 0
M  V30 3796 H 353.927 -5.81706 0.104705 0
M  V30 3797 H 352.807 -7.75971 1.13309 0
M  V30 3798 N 350.31 0.590341 -1.46126 0
M  V30 3799 C 351.257 1.69994 -1.56111 0
M  V30 3800 C 352.227 1.61065 -0.405867 0
M  V30 3801 O 353.412 1.8039 -0.621613 0
M  V30 3802 C 350.552 3.08326 -1.55013 0
M  V30 3803 C 349.665 3.27936 -2.81215 0
M  V30 3804 C 348.8 4.56473 -2.71673 0
M  V30 3805 C 347.839 4.694 -3.92849 0
M  V30 3806 N 346.976 5.89254 -3.81738 0
M  V30 3807 H 351.816 1.60797 -2.50895 0
M  V30 3808 H 349.353 0.783799 -1.24479 0
M  V30 3809 H 351.311 3.88383 -1.52362 0
M  V30 3810 H 349.941 3.16439 -0.637667 0
M  V30 3811 H 348.993 2.41536 -2.93879 0
M  V30 3812 H 350.305 3.33357 -3.71045 0
M  V30 3813 H 349.459 5.44748 -2.67085 0
M  V30 3814 H 348.198 4.53477 -1.7947 0
M  V30 3815 H 347.203 3.79544 -3.97777 0
M  V30 3816 H 348.428 4.7418 -4.86138 0
M  V30 3817 H 346.374 5.87271 -2.92317 0
M  V30 3818 H 346.291 5.95911 -4.65217 0
M  V30 3819 H 347.559 6.79981 -3.81112 0
M  V30 3820 N 351.788 1.33704 0.83433 0
M  V30 3821 C 352.72 1.20172 1.9517 0
M  V30 3822 C 353.733 0.131572 1.62267 0
M  V30 3823 O 354.922 0.382406 1.74356 0
M  V30 3824 C 352.022 0.821716 3.28787 0
M  V30 3825 C 351.195 1.98446 3.89792 0
M  V30 3826 C 350.254 1.58469 5.01771 0
M  V30 3827 O 349.28 2.29968 5.20676 0
M  V30 3828 N 350.482 0.492291 5.78409 0
M  V30 3829 H 353.247 2.16429 2.07313 0
M  V30 3830 H 350.808 1.26509 1.0103 0
M  V30 3831 H 352.8 0.536291 4.01131 0
M  V30 3832 H 351.37 -0.0503058 3.1256 0
M  V30 3833 H 350.59 2.43526 3.09982 0
M  V30 3834 H 351.878 2.76236 4.27283 0
M  V30 3835 H 351.276 -0.102349 5.65607 0
M  V30 3836 H 349.833 0.266555 6.51255 0
M  V30 3837 N 353.266 -1.05314 1.17247 0
M  V30 3838 C 354.677 -1.59753 0.96623 0
M  V30 3839 C 355.028 -1.9005 -0.487378 0
M  V30 3840 O 354.153 -1.68126 -1.36245 0
M  V30 3841 C 354.748 -2.90249 1.74759 0
M  V30 3842 C 353.307 -3.41352 1.58606 0
M  V30 3843 C 352.454 -2.15103 1.75002 0
M  V30 3844 H 355.405 -0.881406 1.31973 0
M  V30 3845 H 355.426 -3.60097 1.22925 0
M  V30 3846 H 354.938 -2.68166 2.8055 0
M  V30 3847 H 353.039 -3.68474 0.552985 0
M  V30 3848 H 353.152 -4.16019 2.37624 0
M  V30 3849 H 351.516 -2.25804 1.17833 0
M  V30 3850 H 352.299 -1.95491 2.82202 0
M  V30 3851 N 354.744 -0.972509 -1.24016 0
M  V30 3852 C 356.16 -0.679827 -1.44397 0
M  V30 3853 C 356.36 0.756716 -1.86751 0
M  V30 3854 O 355.416 1.53007 -2.00861 0
M  V30 3855 C 356.729 -1.66803 -2.50195 0
M  V30 3856 C 358.277 -1.68119 -2.64017 0
M  V30 3857 C 358.752 -2.65748 -3.73017 0
M  V30 3858 N 360.243 -2.64219 -3.8045 0
M  V30 3859 C 360.978 -3.36433 -4.64328 0
M  V30 3860 N 360.474 -4.1818 -5.52356 0
M  V30 3861 N 362.267 -3.25235 -4.58453 0
M  V30 3862 H 354.418 -1.90059 -0.948228 0
M  V30 3863 H 356.681 -0.818527 -0.478245 0
M  V30 3864 H 356.387 -2.69498 -2.25973 0
M  V30 3865 H 356.261 -1.4446 -3.48441 0
M  V30 3866 H 358.648 -0.661319 -2.87594 0
M  V30 3867 H 358.729 -1.94525 -1.66113 0
M  V30 3868 H 358.373 -3.67872 -3.50189 0
M  V30 3869 H 358.303 -2.36619 -4.70446 0
M  V30 3870 H 360.794 -2.04887 -3.17537 0
M  V30 3871 H 361.107 -4.70157 -6.13329 0
M  V30 3872 H 359.452 -4.22273 -5.52006 0
M  V30 3873 H 362.643 -2.60829 -3.88698 0
M  V30 3874 H 362.816 -3.81776 -5.23594 0
M  V30 3875 N 356.222 1.38976 -0.743202 0
M  V30 3876 C 357.45 2.04636 -0.30525 0
M  V30 3877 C 357.865 1.56044 1.06281 0
M  V30 3878 O 357.222 0.728921 1.67311 0
M  V30 3879 C 357.273 3.60193 -0.307177 0
M  V30 3880 O 356.994 4.06998 -1.62124 0
M  V30 3881 C 358.495 4.4306 0.145928 0
M  V30 3882 H 355.715 0.65788 -0.132041 0
M  V30 3883 H 358.259 1.77866 -1.00915 0
M  V30 3884 H 356.414 3.85835 0.347898 0
M  V30 3885 H 356.828 5.01371 -1.54036 0
M  V30 3886 H 358.302 5.51921 0.0934183 0
M  V30 3887 H 358.779 4.22706 1.19231 0
M  V30 3888 H 359.385 4.22584 -0.479886 0
M  V30 3889 N 357.7 0.491464 1.49741 0
M  V30 3890 C 358.93 -0.0534375 2.06531 0
M  V30 3891 C 359.338 -1.32233 1.35318 0
M  V30 3892 O 358.681 -1.78781 0.422243 0
M  V30 3893 C 358.743 -0.387034 3.57411 0
M  V30 3894 C 358.407 0.782764 4.50246 0
M  V30 3895 C 359.404 1.67059 4.92329 0
M  V30 3896 C 357.089 0.978866 4.9267 0
M  V30 3897 C 359.083 2.73874 5.75562 0
M  V30 3898 C 356.77 2.05022 5.75682 0
M  V30 3899 C 357.768 2.92851 6.17031 0
M  V30 3900 O 357.456 3.98138 6.98385 0
M  V30 3901 H 357.188 0.0129324 0.675876 0
M  V30 3902 H 359.742 0.685238 1.93633 0
M  V30 3903 H 357.972 -1.17918 3.68283 0
M  V30 3904 H 359.661 -0.869419 3.96479 0
M  V30 3905 H 360.427 1.53086 4.60206 0
M  V30 3906 H 356.306 0.304646 4.59992 0
M  V30 3907 H 359.85 3.42458 6.07757 0
M  V30 3908 H 355.747 2.18993 6.07217 0
M  V30 3909 H 356.515 3.95374 7.16674 0
M  V30 3910 N 359.178 -1.55987 0.224894 0
M  V30 3911 C 360.11 -2.17722 -0.716224 0
M  V30 3912 C 361.123 -1.14723 -1.15509 0
M  V30 3913 O 362.312 -1.41688 -1.08567 0
M  V30 3914 C 359.412 -2.74873 -1.98238 0
M  V30 3915 C 358.585 -4.03074 -1.69853 0
M  V30 3916 C 357.644 -4.44757 -2.81208 0
M  V30 3917 O 356.67 -5.11587 -2.49534 0
M  V30 3918 N 357.872 -4.10716 -4.10235 0
M  V30 3919 H 360.637 -2.99109 -0.188123 0
M  V30 3920 H 358.198 -1.6184 0.0440123 0
M  V30 3921 H 360.19 -2.99727 -2.7193 0
M  V30 3922 H 358.76 -1.9777 -2.42086 0
M  V30 3923 H 357.98 -3.86041 -0.797875 0
M  V30 3924 H 359.268 -4.86701 -1.48324 0
M  V30 3925 H 358.666 -3.57019 -4.38809 0
M  V30 3926 H 357.223 -4.40455 -4.80461 0
M  V30 3927 N 360.656 0.0484629 -1.57525 0
M  V30 3928 C 361.603 1.05504 -2.05275 0
M  V30 3929 C 362.573 1.37084 -0.937927 0
M  V30 3930 O 363.758 1.47754 -1.2072 0
M  V30 3931 C 360.898 2.35676 -2.52093 0
M  V30 3932 C 360.011 2.10423 -3.77288 0
M  V30 3933 C 359.146 3.34327 -4.12794 0
M  V30 3934 C 358.185 3.04542 -5.30962 0
M  V30 3935 N 357.322 4.20841 -5.61994 0
M  V30 3936 H 362.162 0.640885 -2.91027 0
M  V30 3937 H 359.699 0.304854 -1.43906 0
M  V30 3938 H 361.657 3.11709 -2.77297 0
M  V30 3939 H 360.287 2.7485 -1.69285 0
M  V30 3940 H 359.339 1.24976 -3.59284 0
M  V30 3941 H 360.651 1.84438 -4.63448 0
M  V30 3942 H 359.805 4.1874 -4.39024 0
M  V30 3943 H 358.544 3.63408 -3.25247 0
M  V30 3944 H 357.549 2.18528 -5.04505 0
M  V30 3945 H 358.774 2.76758 -6.20146 0
M  V30 3946 H 356.72 4.4991 -4.77406 0
M  V30 3947 H 356.637 3.98212 -6.42622 0
M  V30 3948 H 357.905 5.06184 -5.92789 0
M  V30 3949 N 362.134 1.5431 0.320358 0
M  V30 3950 C 363.064 1.86912 1.3995 0
M  V30 3951 C 364.045 0.726211 1.53819 0
M  V30 3952 O 365.23 0.980233 1.67646 0
M  V30 3953 C 362.36 2.09932 2.7667 0
M  V30 3954 C 361.314 3.25776 2.77586 0
M  V30 3955 C 360.64 3.34173 4.17412 0
M  V30 3956 C 361.94 4.6335 2.41048 0
M  V30 3957 H 363.634 2.77292 1.12914 0
M  V30 3958 H 361.18 1.33421 0.541738 0
M  V30 3959 H 363.133 2.31324 3.52232 0
M  V30 3960 H 361.857 1.16304 3.0519 0
M  V30 3961 H 360.516 3.04276 2.04479 0
M  V30 3962 H 360.164 2.38098 4.43078 0
M  V30 3963 H 359.864 4.12033 4.18931 0
M  V30 3964 H 361.388 3.57803 4.94782 0
M  V30 3965 H 362.802 4.84602 3.06324 0
M  V30 3966 H 361.199 5.43782 2.53813 0
M  V30 3967 H 362.269 4.65381 1.36193 0
M  V30 3968 N 363.613 -0.582584 1.46437 0
M  V30 3969 C 364.838 -1.37168 1.55563 0
M  V30 3970 C 365.263 -1.87061 0.19743 0
M  V30 3971 O 364.621 -1.61572 -0.822451 0
M  V30 3972 C 364.669 -2.53511 2.56446 0
M  V30 3973 O 363.773 -3.54953 2.09958 0
M  V30 3974 H 363.114 -0.408494 0.523477 0
M  V30 3975 H 365.644 -0.706646 1.9201 0
M  V30 3976 H 365.654 -3.00426 2.76058 0
M  V30 3977 H 364.329 -2.16549 3.55076 0
M  V30 3978 H 362.906 -3.14516 2.00334 0
M  V30 3979 N 365.091 -1.34144 -0.827227 0
M  V30 3980 C 366.321 -1.29138 -1.61267 0
M  V30 3981 C 366.729 0.137597 -1.88699 0
M  V30 3982 O 366.072 1.09379 -1.47587 0
M  V30 3983 C 366.134 -2.0097 -2.9808 0
M  V30 3984 C 365.798 -3.50242 -2.93563 0
M  V30 3985 C 366.795 -4.4523 -2.68452 0
M  V30 3986 C 364.48 -3.92592 -3.13331 0
M  V30 3987 C 366.474 -5.80542 -2.63154 0
M  V30 3988 C 364.161 -5.28005 -3.07658 0
M  V30 3989 C 365.159 -6.21792 -2.82602 0
M  V30 3990 O 364.847 -7.54723 -2.76853 0
M  V30 3991 H 364.579 -0.445851 -0.508127 0
M  V30 3992 H 367.133 -1.77263 -1.03763 0
M  V30 3993 H 365.363 -1.47451 -3.57484 0
M  V30 3994 H 367.052 -1.89309 -3.5905 0
M  V30 3995 H 367.818 -4.13832 -2.52919 0
M  V30 3996 H 363.697 -3.19994 -3.31851 0
M  V30 3997 H 367.241 -6.53717 -2.43516 0
M  V30 3998 H 363.138 -5.59023 -3.22743 0
M  V30 3999 H 363.906 -7.64409 -2.92611 0
M  V30 4000 N 366.569 1.04691 -1.17803 0
M  V30 4001 C 367.499 2.14494 -0.92275 0
M  V30 4002 C 368.48 1.69546 0.137179 0
M  V30 4003 O 369.665 1.94195 -0.0141108 0
M  V30 4004 C 366.795 3.44491 -0.440803 0
M  V30 4005 C 365.749 4.03031 -1.4405 0
M  V30 4006 C 365.075 5.28432 -0.81631 0
M  V30 4007 C 366.375 4.39932 -2.81527 0
M  V30 4008 H 368.069 2.36107 -1.84103 0
M  V30 4009 H 365.615 1.1347 -0.886599 0
M  V30 4010 H 367.568 4.2066 -0.249602 0
M  V30 4011 H 366.292 3.22546 0.513025 0
M  V30 4012 H 364.951 3.28937 -1.61853 0
M  V30 4013 H 364.599 5.02792 0.144511 0
M  V30 4014 H 364.299 5.68559 -1.48371 0
M  V30 4015 H 365.823 6.07284 -0.635496 0
M  V30 4016 H 367.237 5.07113 -2.67412 0
M  V30 4017 H 365.634 4.9109 -3.44892 0
M  V30 4018 H 366.704 3.50045 -3.35554 0
M  V30 4019 N 368.047 0.979072 1.23499 0
M  V30 4020 C 369.324 0.563674 1.87302 0
M  V30 4021 C 369.704 -0.959199 1.88049 0
M  V30 4022 O 369.052 -1.83535 1.36114 0
M  V30 4023 C 369.262 1.16822 3.28867 0
M  V30 4024 C 370.61 1.26014 4.0547 0
M  V30 4025 O 371.634 1.12158 3.38082 0
M  V30 4026 O 370.493 1.48044 5.26066 0
M  V30 4027 H 367.587 0.189602 0.804972 0
M  V30 4028 H 370.133 1.07407 1.31384 0
M  V30 4029 H 368.905 2.21049 3.22883 0
M  V30 4030 H 368.528 0.642564 3.92373 0
M  V30 4031 N 369.525 -1.3858 0.750561 0
M  V30 4032 C 370.772 -2.00184 0.305373 0
M  V30 4033 C 371.1 -1.59575 -1.11203 0
M  V30 4034 O 370.355 -0.823236 -1.77542 0
M  V30 4035 C 370.654 -3.55455 0.372373 0
M  V30 4036 C 370.32 -4.15765 1.745 0
M  V30 4037 C 368.982 -4.31951 2.12065 0
M  V30 4038 C 371.334 -4.49067 2.64553 0
M  V30 4039 C 368.662 -4.78734 3.39162 0
M  V30 4040 C 371.014 -4.97265 3.91038 0
M  V30 4041 C 369.678 -5.11658 4.28676 0
M  V30 4042 H 368.948 -0.732526 0.111744 0
M  V30 4043 H 371.595 -1.65673 0.960451 0
M  V30 4044 H 369.9 -3.90084 -0.366272 0
M  V30 4045 H 371.597 -4.00999 0.00953918 0
M  V30 4046 H 368.187 -4.03579 1.44297 0
M  V30 4047 H 372.371 -4.36166 2.36796 0
M  V30 4048 H 367.627 -4.88062 3.68246 0
M  V30 4049 H 371.801 -5.22003 4.60962 0
M  V30 4050 H 369.428 -5.47668 5.27222 0
M  V30 4051 N 371.003 -0.499398 -1.49478 0
M  V30 4052 C 371.935 0.316575 -2.27003 0
M  V30 4053 C 372.948 0.932047 -1.33479 0
M  V30 4054 O 374.137 0.815658 -1.58774 0
M  V30 4055 C 371.237 1.46055 -3.05812 0
M  V30 4056 C 370.41 0.952679 -4.26899 0
M  V30 4057 C 369.469 1.97407 -4.87767 0
M  V30 4058 O 368.495 1.54326 -5.4788 0
M  V30 4059 N 369.697 3.30436 -4.77276 0
M  V30 4060 H 372.462 -0.348168 -2.97671 0
M  V30 4061 H 370.023 -0.33185 -1.58463 0
M  V30 4062 H 372.015 2.14135 -3.43407 0
M  V30 4063 H 370.585 2.02948 -2.37762 0
M  V30 4064 H 369.805 0.0968248 -3.94081 0
M  V30 4065 H 371.093 0.59174 -5.05347 0
M  V30 4066 H 370.491 3.68126 -4.29534 0
M  V30 4067 H 369.048 3.94235 -5.19059 0
M  V30 4068 N 372.481 1.55866 -0.233164 0
M  V30 4069 C 373.711 2.02704 0.399325 0
M  V30 4070 C 374.119 1.11204 1.53069 0
M  V30 4071 O 373.462 0.116182 1.83332 0
M  V30 4072 C 373.524 3.45844 0.981429 0
M  V30 4073 C 373.188 4.56997 -0.0159561 0
M  V30 4074 C 374.185 5.13384 -0.820552 0
M  V30 4075 C 371.87 5.0211 -0.138072 0
M  V30 4076 C 373.864 6.13365 -1.73386 0
M  V30 4077 C 371.551 6.01926 -1.0549 0
M  V30 4078 C 372.549 6.57431 -1.85132 0
M  V30 4079 O 372.237 7.55302 -2.75272 0
M  V30 4080 H 371.969 0.668459 0.100692 0
M  V30 4081 H 374.523 2.02387 -0.35052 0
M  V30 4082 H 372.753 3.43267 1.78058 0
M  V30 4083 H 374.442 3.76262 1.52255 0
M  V30 4084 H 375.208 4.79372 -0.736721 0
M  V30 4085 H 371.087 4.5858 0.471737 0
M  V30 4086 H 374.631 6.56614 -2.35592 0
M  V30 4087 H 370.528 6.35359 -1.1397 0
M  V30 4088 H 371.296 7.72867 -2.69477 0
M  V30 4089 N 373.959 -0.0401083 1.57549 0
M  V30 4090 C 374.891 -1.07149 2.02612 0
M  V30 4091 C 375.904 -1.33126 0.937085 0
M  V30 4092 O 377.093 -1.30808 1.21456 0
M  V30 4093 C 374.193 -2.41561 2.37701 0
M  V30 4094 C 373.366 -2.35096 3.68848 0
M  V30 4095 C 372.425 -3.51867 3.91249 0
M  V30 4096 O 371.451 -3.3186 4.62447 0
M  V30 4097 N 372.653 -4.73351 3.36035 0
M  V30 4098 H 375.418 -0.687485 2.91708 0
M  V30 4099 H 372.979 -0.228248 1.60283 0
M  V30 4100 H 374.971 -3.18379 2.49833 0
M  V30 4101 H 373.541 -2.71846 1.54332 0
M  V30 4102 H 372.761 -1.4345 3.67173 0
M  V30 4103 H 374.049 -2.27908 4.54901 0
M  V30 4104 H 373.447 -4.92507 2.78304 0
M  V30 4105 H 372.004 -5.47572 3.53565 0
M  V30 4106 N 375.437 -1.54477 -0.31217 0
M  V30 4107 C 376.367 -1.87652 -1.38957 0
M  V30 4108 C 377.348 -0.734358 -1.53431 0
M  V30 4109 O 378.533 -0.98911 -1.67123 0
M  V30 4110 C 375.663 -2.11396 -2.75552 0
M  V30 4111 C 374.617 -3.27243 -2.75855 0
M  V30 4112 C 373.943 -3.36382 -4.15633 0
M  V30 4113 C 375.243 -4.64622 -2.38587 0
M  V30 4114 H 376.937 -2.77887 -1.11442 0
M  V30 4115 H 374.483 -1.33707 -0.534655 0
M  V30 4116 H 376.436 -2.33189 -3.51 0
M  V30 4117 H 375.16 -1.17921 -3.04569 0
M  V30 4118 H 373.819 -3.05356 -2.02863 0
M  V30 4119 H 373.467 -2.40445 -4.41809 0
M  V30 4120 H 373.167 -4.14249 -4.1674 0
M  V30 4121 H 374.691 -3.60422 -4.92877 0
M  V30 4122 H 376.105 -4.86219 -3.03749 0
M  V30 4123 H 374.502 -5.45121 -2.50925 0
M  V30 4124 H 375.572 -4.66097 -1.33723 0
M  V30 4125 N 376.915 0.57481 -1.46744 0
M  V30 4126 C 378.192 1.3352 -1.4294 0
M  V30 4127 C 378.572 2.10775 -0.117009 0
M  V30 4128 O 377.92 2.09966 0.901474 0
M  V30 4129 C 378.13 2.25456 -2.66403 0
M  V30 4130 C 379.478 2.87035 -3.12883 0
M  V30 4131 O 380.502 2.35766 -2.67007 0
M  V30 4132 O 379.361 3.80179 -3.92589 0
M  V30 4133 H 376.455 0.600318 -0.568812 0
M  V30 4134 H 379.001 0.595171 -1.58921 0
M  V30 4135 H 377.773 1.67851 -3.53471 0
M  V30 4136 H 377.396 3.06785 -2.52921 0
M  V30 4137 N 378.394 1.34581 0.820102 0
M  V30 4138 C 379.64 1.27285 1.57881 0
M  V30 4139 C 379.973 -0.156137 1.93571 0
M  V30 4140 O 379.248 -1.10222 1.60254 0
M  V30 4141 C 379.531 2.16639 2.87645 0
M  V30 4142 C 379.384 3.68088 2.58517 0
M  V30 4143 C 380.703 2.05378 3.8924 0
M  V30 4144 H 377.822 0.463714 0.572833 0
M  V30 4145 H 380.464 1.64859 0.944539 0
M  V30 4146 H 378.614 1.84725 3.41773 0
M  V30 4147 H 380.286 4.10382 2.10676 0
M  V30 4148 H 378.529 3.89038 1.91917 0
M  V30 4149 H 379.2 4.2598 3.51063 0
M  V30 4150 H 381.676 2.33404 3.44473 0
M  V30 4151 H 380.552 2.7012 4.77835 0
M  V30 4152 H 380.813 1.0316 4.29896 0
M  V30 4153 N 379.872 -1.04064 1.18357 0
M  V30 4154 C 380.822 -2.10393 0.878561 0
M  V30 4155 C 381.806 -1.60183 -0.151713 0
M  V30 4156 O 382.998 -1.76923 0.0523303 0
M  V30 4157 C 380.127 -3.4089 0.406096 0
M  V30 4158 C 379.213 -3.97866 1.46844 0
M  V30 4159 N 379.604 -4.28657 2.68489 0
M  V30 4160 C 377.902 -4.2574 1.32896 0
M  V30 4161 C 378.603 -4.74253 3.36836 0
M  V30 4162 N 377.579 -4.75068 2.64219 0
M  V30 4163 H 381.381 -2.32076 1.80327 0
M  V30 4164 H 378.895 -1.21818 1.07397 0
M  V30 4165 H 380.892 -4.16557 0.169088 0
M  V30 4166 H 379.552 -3.20633 -0.512275 0
M  V30 4167 H 380.563 -4.18304 3.05356 0
M  V30 4168 H 377.24 -4.1481 0.473134 0
M  V30 4169 H 378.63 -5.07096 4.40798 0
M  V30 4170 N 381.35 -0.985608 -1.22978 0
M  V30 4171 C 382.766 -0.695104 -1.43668 0
M  V30 4172 C 382.966 0.736866 -1.87543 0
M  V30 4173 O 382.022 1.50868 -2.02473 0
M  V30 4174 C 383.335 -1.69447 -2.48412 0
M  V30 4175 C 384.883 -1.70909 -2.62219 0
M  V30 4176 C 385.358 -2.6969 -3.70178 0
M  V30 4177 N 386.849 -2.6824 -3.77626 0
M  V30 4178 C 387.584 -3.41339 -4.60733 0
M  V30 4179 N 387.08 -4.24015 -5.4789 0
M  V30 4180 N 388.873 -3.30079 -4.54977 0
M  V30 4181 H 381.024 -1.91054 -0.928016 0
M  V30 4182 H 383.287 -0.823553 -0.469536 0
M  V30 4183 H 382.993 -2.7188 -2.23102 0
M  V30 4184 H 382.867 -1.48147 -3.46889 0
M  V30 4185 H 385.254 -0.691785 -2.86877 0
M  V30 4186 H 385.335 -1.96276 -1.6404 0
M  V30 4187 H 384.979 -3.71566 -3.46268 0
M  V30 4188 H 384.909 -2.41595 -4.67909 0
M  V30 4189 H 387.4 -2.08243 -3.15346 0
M  V30 4190 H 387.713 -4.76636 -6.08308 0
M  V30 4191 H 386.058 -4.28104 -5.47496 0
M  V30 4192 H 389.249 -2.64937 -3.85909 0
M  V30 4193 H 389.422 -3.87308 -5.19516 0
M  V30 4194 N 382.828 1.3818 -0.7579 0
M  V30 4195 C 383.775 2.30416 -0.133057 0
M  V30 4196 C 384.745 1.50398 0.704957 0
M  V30 4197 O 385.93 1.79014 0.660192 0
M  V30 4198 C 383.07 3.36834 0.750813 0
M  V30 4199 C 382.183 4.31879 -0.102297 0
M  V30 4200 C 381.318 5.25368 0.784979 0
M  V30 4201 C 380.357 6.12058 -0.0715046 0
M  V30 4202 N 379.494 6.97832 0.772972 0
M  V30 4203 H 384.334 2.83274 -0.925186 0
M  V30 4204 H 381.871 1.39461 -0.467866 0
M  V30 4205 H 383.829 3.97145 1.27794 0
M  V30 4206 H 382.459 2.85374 1.50868 0
M  V30 4207 H 381.511 3.72991 -0.747095 0
M  V30 4208 H 382.823 4.92921 -0.763552 0
M  V30 4209 H 381.977 5.90818 1.37911 0
M  V30 4210 H 380.716 4.64703 1.47996 0
M  V30 4211 H 379.721 5.456 -0.678272 0
M  V30 4212 H 380.946 6.74793 -0.763606 0
M  V30 4213 H 378.892 6.3971 1.45282 0
M  V30 4214 H 378.809 7.55812 0.168709 0
M  V30 4215 H 380.077 7.67687 1.35194 0
M  V30 4216 N 384.306 0.507319 1.49211 0
M  V30 4217 C 385.254 -0.281364 2.30892 0
M  V30 4218 C 386.248 -0.95687 1.39787 0
M  V30 4219 O 387.454 -0.883838 1.56807 0
M  V30 4220 H 383.829 -0.109597 0.743971 0
M  V30 4221 H 385.8 0.42744 2.95323 0
M  V30 4222 C 384.549 -1.32918 3.21291 0
M  V30 4223 H 383.872 -0.818799 3.91326 0
M  V30 4224 H 385.312 -1.85288 3.81372 0
M  V30 4225 C 383.771 -2.35074 2.41333 0
M  V30 4226 O 384.301 -3.4108 2.12197 0
M  V30 4227 N 382.507 -2.07705 2.03241 0
M  V30 4228 H 382.054 -1.2152 2.27136 0
M  V30 4229 H 382.012 -2.76283 1.50051 0
M  V30 4230 N 385.784 -1.5574 0.241426 0
M  V30 4231 C 387.012 -2.03208 -0.389134 0
M  V30 4232 C 387.427 -1.12082 -1.51931 0
M  V30 4233 O 386.784 -0.134183 -1.82006 0
M  V30 4234 C 386.835 -3.50064 -0.902087 0
M  V30 4235 O 386.556 -4.37717 0.18305 0
M  V30 4236 C 388.057 -4.13268 -1.60389 0
M  V30 4237 H 385.277 -0.664509 -0.0931053 0
M  V30 4238 H 387.821 -2.0124 0.36369 0
M  V30 4239 H 385.976 -3.52583 -1.60511 0
M  V30 4240 H 386.39 -5.24097 -0.205579 0
M  V30 4241 H 387.864 -5.17733 -1.91458 0
M  V30 4242 H 388.341 -3.59434 -2.52397 0
M  V30 4243 H 388.947 -4.14655 -0.945576 0
M  V30 4244 N 387.262 0.0317525 -1.57568 0
M  V30 4245 C 388.194 1.06073 -2.03178 0
M  V30 4246 C 389.207 1.32627 -0.944132 0
M  V30 4247 O 390.396 1.30162 -1.22148 0
M  V30 4248 C 387.496 2.40297 -2.38978 0
M  V30 4249 C 386.669 2.33137 -3.70089 0
M  V30 4250 C 385.728 3.49787 -3.9311 0
M  V30 4251 O 384.754 3.29403 -4.64201 0
M  V30 4252 N 385.956 4.71562 -3.38541 0
M  V30 4253 H 388.721 0.672006 -2.92069 0
M  V30 4254 H 386.282 0.219745 -1.60402 0
M  V30 4255 H 388.274 3.1705 -2.51518 0
M  V30 4256 H 386.844 2.71024 -1.55771 0
M  V30 4257 H 386.064 1.415 -3.67928 0
M  V30 4258 H 387.352 2.25493 -4.56104 0
M  V30 4259 H 386.75 4.91024 -2.80912 0
M  V30 4260 H 385.307 5.45689 -3.56464 0
M  V30 4261 N 388.74 1.54641 0.303973 0
M  V30 4262 C 390.151 1.64811 0.877163 0
M  V30 4263 C 390.502 0.554838 1.88191 0
M  V30 4264 O 389.627 -0.309033 2.14182 0
M  V30 4265 C 390.222 2.9876 1.59775 0
M  V30 4266 C 388.781 3.11061 2.11938 0
M  V30 4267 C 387.928 2.60479 0.951097 0
M  V30 4268 H 390.879 1.58493 0.0810486 0
M  V30 4269 H 390.9 2.90017 2.46314 0
M  V30 4270 H 390.412 3.7831 0.866226 0
M  V30 4271 H 388.513 2.36225 2.88146 0
M  V30 4272 H 388.626 4.17171 2.35595 0
M  V30 4273 H 386.99 2.16859 1.33583 0
M  V30 4274 H 387.773 3.42504 0.233581 0
M  V30 4275 N 390.218 -0.567019 1.47046 0
M  V30 4276 C 391.466 -1.322 1.52864 0
M  V30 4277 C 391.787 -1.94088 0.188388 0
M  V30 4278 O 391.057 -1.7941 -0.786693 0
M  V30 4279 H 389.637 -0.490894 0.563056 0
M  V30 4280 H 392.299 -0.662879 1.83281 0
M  V30 4281 H 391.395 -2.12062 2.2899 0
M  V30 4282 N 391.696 -1.35014 -0.812953 0
M  V30 4283 C 392.924 -1.31031 -1.6012 0
M  V30 4284 C 393.339 0.113558 -1.88458 0
M  V30 4285 O 392.696 1.06363 -1.48301 0
M  V30 4286 C 392.747 -2.10872 -2.93624 0
M  V30 4287 O 392.468 -3.47706 -2.66518 0
M  V30 4288 C 393.969 -2.14401 -3.88004 0
M  V30 4289 H 391.189 -0.45037 -0.497401 0
M  V30 4290 H 393.733 -1.77775 -1.01076 0
M  V30 4291 H 391.888 -1.67744 -3.492 0
M  V30 4292 H 392.302 -3.89097 -3.51715 0
M  V30 4293 H 393.776 -2.74669 -4.78812 0
M  V30 4294 H 394.253 -1.14105 -4.24119 0
M  V30 4295 H 394.859 -2.57662 -3.38364 0
M  V30 4296 N 393.175 1.03435 -1.18907 0
M  V30 4297 C 394.085 2.15075 -0.937015 0
M  V30 4298 C 395.101 1.73706 0.101085 0
M  V30 4299 O 396.277 2.01232 -0.0822948 0
M  V30 4300 C 393.342 3.43458 -0.473057 0
M  V30 4301 C 392.403 3.99172 -1.57989 0
M  V30 4302 C 391.636 5.21427 -1.13797 0
M  V30 4303 O 391.859 5.704 0.000725941 0
M  V30 4304 O 390.793 5.69837 -1.9383 0
M  V30 4305 H 394.619 2.39198 -1.87131 0
M  V30 4306 H 392.204 1.13506 -0.971427 0
M  V30 4307 H 394.086 4.20811 -0.222702 0
M  V30 4308 H 392.761 3.20793 0.432869 0
M  V30 4309 H 391.668 3.23178 -1.88433 0
M  V30 4310 H 393.001 4.2619 -2.46217 0
M  V30 4311 N 394.653 0.992116 1.22453 0
M  V30 4312 C 395.601 0.534644 2.26372 0
M  V30 4313 C 396.595 -0.414293 1.64256 0
M  V30 4314 O 397.801 -0.286899 1.77699 0
M  V30 4315 H 394.176 0.154502 0.735957 0
M  V30 4316 H 396.147 1.42256 2.62309 0
M  V30 4317 C 394.896 -0.135815 3.47435 0
M  V30 4318 H 394.219 0.585311 3.95492 0
M  V30 4319 H 395.659 -0.419374 4.21921 0
M  V30 4320 C 394.118 -1.37089 3.07747 0
M  V30 4321 O 394.648 -2.46629 3.17076 0
M  V30 4322 N 392.854 -1.24585 2.62539 0
M  V30 4323 H 392.401 -0.354542 2.55149 0
M  V30 4324 H 392.359 -2.07327 2.36353 0
M  V30 4325 N 396.131 -1.37776 0.765217 0
M  V30 4326 C 397.061 -2.32945 0.160953 0
M  V30 4327 C 398.042 -1.55454 -0.690516 0
M  V30 4328 O 399.227 -1.83721 -0.629318 0
M  V30 4329 C 396.357 -3.39669 -0.724031 0
M  V30 4330 C 395.311 -4.27992 0.0256173 0
M  V30 4331 C 394.637 -5.25673 -0.978383 0
M  V30 4332 C 395.937 -5.08309 1.20082 0
M  V30 4333 H 397.631 -2.83728 0.955969 0
M  V30 4334 H 395.177 -1.36416 0.461149 0
M  V30 4335 H 397.13 -4.05219 -1.15652 0
M  V30 4336 H 395.854 -2.87396 -1.5515 0
M  V30 4337 H 394.513 -3.63964 0.438812 0
M  V30 4338 H 394.161 -4.69682 -1.80022 0
M  V30 4339 H 393.861 -5.85625 -0.481378 0
M  V30 4340 H 395.385 -5.94098 -1.40995 0
M  V30 4341 H 396.799 -5.67034 0.845307 0
M  V30 4342 H 395.196 -5.77554 1.62947 0
M  V30 4343 H 396.266 -4.41365 2.00811 0
M  V30 4344 N 397.609 -0.515225 -1.4894 0
M  V30 4345 C 398.539 0.244628 -2.32215 0
M  V30 4346 C 399.52 0.949136 -1.41157 0
M  V30 4347 O 400.705 0.937783 -1.70057 0
M  V30 4348 C 397.835 1.30096 -3.22013 0
M  V30 4349 C 396.789 0.715486 -4.21977 0
M  V30 4350 C 396.115 1.87339 -5.00808 0
M  V30 4351 C 397.415 -0.302982 -5.2142 0
M  V30 4352 H 399.109 -0.450501 -2.95991 0
M  V30 4353 H 396.655 -0.218098 -1.42339 0
M  V30 4354 H 398.608 1.84037 -3.79089 0
M  V30 4355 H 397.332 2.02547 -2.56207 0
M  V30 4356 H 395.991 0.197715 -3.66066 0
M  V30 4357 H 395.639 2.58592 -4.31438 0
M  V30 4358 H 395.339 1.48764 -5.68457 0
M  V30 4359 H 396.863 2.41686 -5.60732 0
M  V30 4360 H 398.277 0.148802 -5.73107 0
M  V30 4361 H 396.674 -0.60532 -5.97039 0
M  V30 4362 H 397.744 -1.21395 -4.69459 0
M  V30 4363 N 399.087 1.5561 -0.249682 0
M  V30 4364 C 400.336 1.98187 0.37479 0
M  V30 4365 C 400.649 1.14111 1.58865 0
M  V30 4366 O 401.855 1.46714 2.28445 0
M  V30 4367 C 400.311 3.52661 0.718192 0
M  V30 4368 C 399.919 4.45481 -0.474428 0
M  V30 4369 C 401.663 4.03888 1.3067 0
M  V30 4370 C 399.57 5.91303 -0.107026 0
M  V30 4371 H 398.5 0.740159 0.143808 0
M  V30 4372 H 401.151 1.80125 -0.350336 0
M  V30 4373 H 399.533 3.66429 1.50152 0
M  V30 4374 H 400.707 4.43473 -1.25172 0
M  V30 4375 H 399.022 4.04751 -0.978052 0
M  V30 4376 H 401.619 5.10358 1.59496 0
M  V30 4377 H 401.962 3.51401 2.23211 0
M  V30 4378 H 402.495 3.93457 0.586211 0
M  V30 4379 H 399.234 6.47833 -0.999642 0
M  V30 4380 H 398.754 5.9644 0.634013 0
M  V30 4381 H 400.433 6.46258 0.309807 0
M  V30 4382 N 400.565 -0.0233959 1.57583 0
M  V30 4383 C 401.513 -1.04063 2.08023 0
M  V30 4384 C 402.507 -1.37084 0.995204 0
M  V30 4385 O 403.713 -1.35923 1.18004 0
M  V30 4386 H 400.088 -0.353144 0.663922 0
M  V30 4387 H 402.059 -0.589453 2.9252 0
M  V30 4388 C 400.808 -2.33123 2.57971 0
M  V30 4389 H 400.131 -2.08577 3.4108 0
M  V30 4390 H 401.571 -3.02632 2.96967 0
M  V30 4391 C 400.03 -3.02483 1.48342 0
M  V30 4392 O 400.56 -3.92541 0.852898 0
M  V30 4393 N 398.766 -2.63909 1.21658 0
M  V30 4394 H 398.313 -1.90758 1.73116 0
M  V30 4395 H 398.271 -3.10633 0.485218 0
M  V30 4396 N 402.043 -1.548 -0.295768 0
M  V30 4397 C 403.289 -1.74588 -1.03184 0
M  V30 4398 C 403.622 -0.532962 -1.86744 0
M  V30 4399 O 402.897 0.469872 -1.88739 0
M  V30 4400 C 403.18 -3.03791 -1.93347 0
M  V30 4401 C 403.033 -4.35392 -1.12933 0
M  V30 4402 C 404.352 -3.28892 -2.92435 0
M  V30 4403 H 401.471 -0.635221 -0.373715 0
M  V30 4404 H 404.113 -1.87519 -0.30606 0
M  V30 4405 H 402.263 -2.92898 -2.55232 0
M  V30 4406 H 403.935 -4.58211 -0.532943 0
M  V30 4407 H 402.178 -4.31642 -0.432168 0
M  V30 4408 H 402.849 -5.22074 -1.79284 0
M  V30 4409 H 405.325 -3.39429 -2.4068 0
M  V30 4410 H 404.201 -4.20603 -3.52682 0
M  V30 4411 H 404.462 -2.47437 -3.6637 0
M  V30 4412 N 403.521 0.559213 -1.47345 0
M  V30 4413 C 404.746 1.34676 -1.57725 0
M  V30 4414 C 405.171 1.86723 -0.227164 0
M  V30 4415 O 404.529 1.6286 0.796642 0
M  V30 4416 C 404.577 2.49399 -2.60447 0
M  V30 4417 O 403.681 3.51567 -2.15578 0
M  V30 4418 H 403.022 0.400115 -0.52991 0
M  V30 4419 H 405.552 0.676009 -1.93109 0
M  V30 4420 H 405.562 2.95996 -2.80803 0
M  V30 4421 H 404.237 2.10873 -3.58477 0
M  V30 4422 H 402.814 3.11289 -2.05313 0
M  V30 4423 N 404.999 1.35443 0.805782 0
M  V30 4424 C 406.247 1.28507 1.55982 0
M  V30 4425 C 406.568 -0.140046 1.94496 0
M  V30 4426 O 405.838 -1.07666 1.63661 0
M  V30 4427 H 404.418 0.472676 0.578434 0
M  V30 4428 H 407.08 1.69555 0.961098 0
M  V30 4429 H 406.176 1.90148 2.47488 0
M  V30 4430 N 406.477 -1.02803 1.19454 0
M  V30 4431 C 407.754 -1.73299 0.907013 0
M  V30 4432 C 408.134 -2.02772 -0.587086 0
M  V30 4433 O 407.482 -1.68304 -1.54551 0
M  V30 4434 C 407.692 -3.00912 1.76785 0
M  V30 4435 C 409.04 -3.74403 2.00268 0
M  V30 4436 O 410.064 -3.10841 1.73943 0
M  V30 4437 O 408.923 -4.88675 2.4466 0
M  V30 4438 H 406.017 -0.754727 0.338106 0
M  V30 4439 H 408.563 -1.08754 1.30271 0
M  V30 4440 H 407.335 -2.75366 2.7801 0
M  V30 4441 H 406.958 -3.73197 1.37149 0
M  V30 4442 N 407.956 -0.998596 -1.21925 0
M  V30 4443 C 408.886 -0.573688 -2.26343 0
M  V30 4444 C 409.867 0.402296 -1.65274 0
M  V30 4445 O 411.052 0.291683 -1.91997 0
M  V30 4446 C 408.182 0.106839 -3.47136 0
M  V30 4447 C 407.136 -0.788269 -4.20678 0
M  V30 4448 C 406.462 0.0254927 -5.34694 0
M  V30 4449 C 407.762 -2.08784 -4.78755 0
M  V30 4450 H 409.456 -1.44651 -2.62138 0
M  V30 4451 H 407.002 -0.696975 -1.26009 0
M  V30 4452 H 408.955 0.415531 -4.19346 0
M  V30 4453 H 407.679 1.01424 -3.10452 0
M  V30 4454 H 406.338 -1.08069 -3.50309 0
M  V30 4455 H 405.986 0.933989 -4.94253 0
M  V30 4456 H 405.686 -0.570437 -5.84825 0
M  V30 4457 H 407.21 0.328147 -6.09718 0
M  V30 4458 H 408.624 -1.84272 -5.42878 0
M  V30 4459 H 407.021 -2.63307 -5.39249 0
M  V30 4460 H 408.091 -2.76284 -3.98491 0
M  V30 4461 N 409.434 1.37368 -0.772513 0
M  V30 4462 C 410.344 2.34053 -0.160081 0
M  V30 4463 C 411.36 1.60216 0.678728 0
M  V30 4464 O 412.536 1.92303 0.59847 0
M  V30 4465 C 409.601 3.3939 0.708182 0
M  V30 4466 C 408.662 4.29048 -0.147172 0
M  V30 4467 C 407.895 5.29354 0.679744 0
M  V30 4468 O 408.118 5.3723 1.91678 0
M  V30 4469 O 407.052 6.01835 0.0885444 0
M  V30 4470 H 410.878 2.88159 -0.959053 0
M  V30 4471 H 408.463 1.39543 -0.533685 0
M  V30 4472 H 410.345 4.03839 1.20384 0
M  V30 4473 H 409.02 2.8761 1.48533 0
M  V30 4474 H 407.927 3.67697 -0.689205 0
M  V30 4475 H 409.26 4.84134 -0.887423 0
M  V30 4476 N 410.912 0.523116 1.48665 0
M  V30 4477 C 411.86 -0.256859 2.31177 0
M  V30 4478 C 412.854 -0.94199 1.40794 0
M  V30 4479 O 414.06 -0.867157 1.57735 0
M  V30 4480 H 410.435 -0.1017 0.745091 0
M  V30 4481 H 412.406 0.458739 2.94853 0
M  V30 4482 C 411.155 -1.29503 3.22683 0
M  V30 4483 H 410.478 -0.777248 3.92172 0
M  V30 4484 H 411.918 -1.81233 3.83315 0
M  V30 4485 C 410.377 -2.32501 2.43813 0
M  V30 4486 O 410.907 -3.3881 2.15803 0
M  V30 4487 N 409.113 -2.05538 2.05432 0
M  V30 4488 H 408.66 -1.19104 2.28412 0
M  V30 4489 H 408.618 -2.74676 1.52973 0
M  V30 4490 N 412.39 -1.55475 0.257931 0
M  V30 4491 C 413.806 -1.59307 -0.0966563 0
M  V30 4492 C 414.006 -1.27514 -1.5602 0
M  V30 4493 O 413.062 -1.02774 -2.30637 0
M  V30 4494 C 414.375 -2.99552 0.262481 0
M  V30 4495 C 415.923 -3.1231 0.207683 0
M  V30 4496 C 416.398 -4.54793 0.541012 0
M  V30 4497 N 417.889 -4.6058 0.491921 0
M  V30 4498 C 418.624 -5.68825 0.722857 0
M  V30 4499 N 418.12 -6.85287 1.0175 0
M  V30 4500 N 419.913 -5.58296 0.652815 0
M  V30 4501 H 412.064 -1.74409 1.21224 0
M  V30 4502 H 414.327 -0.812424 0.48854 0
M  V30 4503 H 414.033 -3.27593 1.27967 0
M  V30 4504 H 413.907 -3.75019 -0.40508 0
M  V30 4505 H 416.294 -2.84044 -0.800195 0
M  V30 4506 H 416.375 -2.39095 0.909255 0
M  V30 4507 H 416.019 -4.83783 1.5465 0
M  V30 4508 H 415.949 -5.26285 -0.18216 0
M  V30 4509 H 418.44 -3.7691 0.273366 0
M  V30 4510 H 418.753 -7.63725 1.18084 0
M  V30 4511 H 417.098 -6.86945 1.05509 0
M  V30 4512 H 420.289 -4.66189 0.422592 0
M  V30 4513 H 420.462 -6.42582 0.836182 0
M  V30 4514 N 413.868 0.0150385 -1.57593 0
M  V30 4515 C 415.098 0.713359 -1.93894 0
M  V30 4516 C 415.506 1.68663 -0.857289 0
M  V30 4517 O 414.849 1.82876 0.173788 0
M  V30 4518 C 414.911 1.51348 -3.26089 0
M  V30 4519 C 414.575 0.703451 -4.51554 0
M  V30 4520 C 415.572 -0.00237924 -5.199 0
M  V30 4521 C 413.257 0.653854 -4.98026 0
M  V30 4522 C 415.251 -0.746955 -6.33008 0
M  V30 4523 C 412.938 -0.0944578 -6.11027 0
M  V30 4524 C 413.936 -0.793609 -6.78374 0
M  V30 4525 O 413.624 -1.52974 -7.89211 0
M  V30 4526 H 413.356 0.204637 -0.644282 0
M  V30 4527 H 415.91 -0.0276411 -2.05381 0
M  V30 4528 H 414.14 2.29862 -3.10967 0
M  V30 4529 H 415.829 2.09572 -3.47612 0
M  V30 4530 H 416.595 0.0268803 -4.84993 0
M  V30 4531 H 412.474 1.18756 -4.45441 0
M  V30 4532 H 416.018 -1.2932 -6.85509 0
M  V30 4533 H 411.915 -0.125591 -6.45378 0
M  V30 4534 H 412.683 -1.44488 -8.05646 0
M  V30 4535 N 415.346 1.54954 0.287554 0
M  V30 4536 C 416.294 1.87606 1.37502 0
M  V30 4537 C 417.288 0.751001 1.51843 0
M  V30 4538 O 418.494 0.935169 1.53801 0
M  V30 4539 H 414.869 0.595231 0.459569 0
M  V30 4540 H 416.84 2.78477 1.07206 0
M  V30 4541 C 415.589 2.15183 2.73115 0
M  V30 4542 H 414.912 3.01234 2.62866 0
M  V30 4543 H 416.352 2.4196 3.48183 0
M  V30 4544 C 414.811 0.954686 3.2309 0
M  V30 4545 O 415.341 0.181949 4.01288 0
M  V30 4546 N 413.547 0.756368 2.80584 0
M  V30 4547 H 413.094 1.38643 2.17108 0
M  V30 4548 H 413.052 -0.0430391 3.14371 0
M  V30 4549 N 416.824 -0.551391 1.4764 0
M  V30 4550 C 418.071 -1.3083 1.54563 0
M  V30 4551 C 418.399 -1.93359 0.210361 0
M  V30 4552 O 417.654 -1.78721 -0.797332 0
M  V30 4553 C 417.953 -2.43469 2.61644 0
M  V30 4554 C 417.619 -1.98732 4.04742 0
M  V30 4555 C 416.281 -1.86248 4.43695 0
M  V30 4556 C 418.633 -1.64659 4.94507 0
M  V30 4557 C 415.961 -1.37995 5.70241 0
M  V30 4558 C 418.313 -1.17875 6.21521 0
M  V30 4559 C 416.977 -1.03992 6.5935 0
M  V30 4560 H 416.247 -0.478741 0.565587 0
M  V30 4561 H 418.894 -0.617697 1.81264 0
M  V30 4562 H 417.199 -3.18109 2.28722 0
M  V30 4563 H 418.896 -3.01642 2.64222 0
M  V30 4564 H 415.486 -2.09393 3.73968 0
M  V30 4565 H 419.67 -1.73174 4.65107 0
M  V30 4566 H 414.926 -1.25915 5.98294 0
M  V30 4567 H 419.1 -0.905739 6.90485 0
M  V30 4568 H 416.727 -0.663794 7.57296 0
M  V30 4569 N 418.302 -1.35869 -0.798587 0
M  V30 4570 C 419.713 -1.26498 -1.37314 0
M  V30 4571 C 420.064 0.0991899 -1.95949 0
M  V30 4572 O 419.189 1.0004 -1.91888 0
M  V30 4573 C 419.784 -2.29054 -2.49639 0
M  V30 4574 C 418.343 -2.234 -3.02935 0
M  V30 4575 C 417.49 -2.14329 -1.75949 0
M  V30 4576 H 420.441 -1.46881 -0.600971 0
M  V30 4577 H 420.462 -1.92166 -3.28409 0
M  V30 4578 H 419.974 -3.2833 -2.06933 0
M  V30 4579 H 418.075 -1.27562 -3.50084 0
M  V30 4580 H 418.188 -3.15703 -3.60372 0
M  V30 4581 H 416.552 -1.60435 -1.9782 0
M  V30 4582 H 417.335 -3.15477 -1.35384 0
M  V30 4583 N 419.78 1.02168 -1.19998 0
M  V30 4584 C 421.005 1.79833 -1.03319 0
M  V30 4585 C 421.43 1.83504 0.413281 0
M  V30 4586 O 420.788 1.26635 1.29743 0
M  V30 4587 C 420.836 3.22396 -1.61533 0
M  V30 4588 O 419.94 4.03555 -0.849519 0
M  V30 4589 H 419.281 0.554872 -0.364709 0
M  V30 4590 H 421.811 1.28542 -1.59179 0
M  V30 4591 H 421.821 3.73124 -1.65054 0
M  V30 4592 H 420.496 3.19039 -2.66809 0
M  V30 4593 H 419.073 3.62169 -0.888129 0
M  V30 4594 N 421.258 1.00505 1.21394 0
M  V30 4595 C 422.483 0.706367 1.95001 0
M  V30 4596 C 422.908 -0.72463 1.73582 0
M  V30 4597 O 422.266 -1.49702 1.0227 0
M  V30 4598 C 422.314 1.03299 3.45487 0
M  V30 4599 O 421.418 0.138275 4.12168 0
M  V30 4600 H 420.759 0.263175 0.609619 0
M  V30 4601 H 423.289 1.34531 1.54151 0
M  V30 4602 H 423.299 0.979872 3.96059 0
M  V30 4603 H 421.974 2.07567 3.60401 0
M  V30 4604 H 420.551 0.247928 3.72075 0
M  V30 4605 N 422.737 -1.36956 0.779787 0
M  V30 4606 C 423.647 -2.33965 0.172491 0
M  V30 4607 C 424.663 -1.60574 -0.670222 0
M  V30 4608 O 425.839 -1.92617 -0.588263 0
M  V30 4609 C 422.904 -3.39761 -0.690173 0
M  V30 4610 C 421.965 -4.28964 0.169924 0
M  V30 4611 C 421.198 -5.29707 -0.651662 0
M  V30 4612 O 421.421 -5.38238 -1.88827 0
M  V30 4613 O 420.355 -6.01873 -0.0566264 0
M  V30 4614 H 424.181 -2.87647 0.974321 0
M  V30 4615 H 421.766 -1.39258 0.541078 0
M  V30 4616 H 423.648 -4.04471 -1.1824 0
M  V30 4617 H 422.323 -2.88394 -1.47006 0
M  V30 4618 H 421.23 -3.67326 0.708696 0
M  V30 4619 H 422.563 -4.83656 0.913085 0
M  V30 4620 N 424.215 -0.530993 -1.48385 0
M  V30 4621 C 425.626 -0.0907905 -1.86479 0
M  V30 4622 C 425.977 1.33213 -1.44044 0
M  V30 4623 O 425.102 1.99783 -0.831615 0
M  V30 4624 C 425.697 -0.157987 -3.38431 0
M  V30 4625 C 424.256 0.227026 -3.75715 0
M  V30 4626 C 423.403 -0.5173 -2.72432 0
M  V30 4627 H 426.354 -0.742186 -1.40276 0
M  V30 4628 H 426.375 0.630053 -3.75247 0
M  V30 4629 H 425.887 -1.19372 -3.69286 0
M  V30 4630 H 423.988 1.26486 -3.50474 0
M  V30 4631 H 424.101 -0.113288 -4.78966 0
M  V30 4632 H 422.465 0.0365527 -2.54674 0
M  V30 4633 H 423.248 -1.55368 -3.0613 0
M  V30 4634 N 425.693 1.55336 -0.266172 0
M  V30 4635 C 427.109 1.59356 0.0882065 0
M  V30 4636 C 427.309 1.2834 1.55342 0
M  V30 4637 O 426.365 1.03996 2.30089 0
M  V30 4638 C 427.678 2.99409 -0.278364 0
M  V30 4639 C 429.226 3.12196 -0.224243 0
M  V30 4640 C 429.701 4.545 -0.565123 0
M  V30 4641 N 431.192 4.60313 -0.51634 0
M  V30 4642 C 431.927 5.68434 -0.753013 0
M  V30 4643 N 431.423 6.84738 -1.05383 0
M  V30 4644 N 433.216 5.57942 -0.682414 0
M  V30 4645 H 425.367 1.73764 -1.22147 0
M  V30 4646 H 427.63 0.809822 -0.492841 0
M  V30 4647 H 427.336 3.2691 -1.29703 0
M  V30 4648 H 427.21 3.75228 0.385186 0
M  V30 4649 H 429.597 2.84464 0.78512 0
M  V30 4650 H 429.678 2.38609 -0.921922 0
M  V30 4651 H 429.322 4.82956 -1.57213 0
M  V30 4652 H 429.252 5.26374 0.154248 0
M  V30 4653 H 431.743 3.7676 -0.29335 0
M  V30 4654 H 432.056 7.63088 -1.22133 0
M  V30 4655 H 430.401 6.86375 -1.09151 0
M  V30 4656 H 433.592 4.65958 -0.44731 0
M  V30 4657 H 433.765 6.4213 -0.870248 0
M  V30 4658 N 427.171 -0.0066808 1.57599 0
M  V30 4659 C 428.134 -0.985035 2.06953 0
M  V30 4660 C 429.134 -1.27663 0.977687 0
M  V30 4661 O 430.324 -1.22293 1.24057 0
M  V30 4662 C 427.456 -2.3118 2.50536 0
M  V30 4663 H 428.649 -0.558255 2.94658 0
M  V30 4664 H 426.202 -0.254011 1.54222 0
M  V30 4665 H 426.937 -2.78561 1.66054 0
M  V30 4666 H 426.722 -2.11338 3.3027 0
M  V30 4667 H 428.212 -3.01377 2.8907 0
M  V30 4668 N 428.649 -1.55105 -0.279332 0
M  V30 4669 C 429.596 -1.8755 -1.34513 0
M  V30 4670 C 430.566 -0.726384 -1.49375 0
M  V30 4671 O 431.751 -0.977063 -1.63884 0
M  V30 4672 C 428.891 -2.14738 -2.70151 0
M  V30 4673 C 428.004 -3.42285 -2.63562 0
M  V30 4674 C 427.139 -3.59206 -3.91337 0
M  V30 4675 C 426.178 -4.80467 -3.79233 0
M  V30 4676 N 425.315 -4.94079 -4.98829 0
M  V30 4677 H 430.155 -2.78456 -1.06143 0
M  V30 4678 H 427.692 -1.37867 -0.512936 0
M  V30 4679 H 429.65 -2.28501 -3.49061 0
M  V30 4680 H 428.28 -1.27075 -2.96735 0
M  V30 4681 H 427.332 -3.37029 -1.76397 0
M  V30 4682 H 428.644 -4.31328 -2.50515 0
M  V30 4683 H 427.798 -3.72751 -4.78687 0
M  V30 4684 H 426.537 -2.68337 -4.07243 0
M  V30 4685 H 425.542 -4.66932 -2.90266 0
M  V30 4686 H 426.767 -5.72765 -3.64852 0
M  V30 4687 H 424.713 -4.06139 -5.15158 0
M  V30 4688 H 424.63 -5.77156 -4.8829 0
M  V30 4689 H 425.898 -5.12003 -5.8777 0
M  V30 4690 N 430.127 0.543554 -1.4793 0
M  V30 4691 C 431.077 1.64527 -1.57844 0
M  V30 4692 C 432.061 1.54869 -0.436408 0
M  V30 4693 O 433.253 1.63119 -0.687101 0
M  V30 4694 C 430.382 3.03281 -1.6086 0
M  V30 4695 C 429.468 3.18093 -2.80495 0
M  V30 4696 N 429.859 3.02923 -4.05057 0
M  V30 4697 C 428.157 3.49121 -2.77543 0
M  V30 4698 C 428.858 3.20791 -4.85251 0
M  V30 4699 N 427.834 3.47749 -4.17818 0
M  V30 4700 H 431.636 1.51388 -2.5191 0
M  V30 4701 H 429.15 0.748671 -1.44113 0
M  V30 4702 H 431.147 3.82403 -1.66054 0
M  V30 4703 H 429.807 3.17521 -0.678996 0
M  V30 4704 H 430.818 2.79966 -4.35705 0
M  V30 4705 H 427.495 3.69804 -1.93781 0
M  V30 4706 H 428.885 3.13915 -5.9406 0
M  V30 4707 N 431.605 1.3629 0.791371 0
M  V30 4708 C 432.83 1.33726 1.58531 0
M  V30 4709 C 433.255 -0.0794933 1.87932 0
M  V30 4710 O 432.613 -1.05087 1.47738 0
M  V30 4711 C 432.661 2.16425 2.88431 0
M  V30 4712 O 431.765 1.5554 3.81944 0
M  V30 4713 H 431.106 0.457793 0.480959 0
M  V30 4714 H 433.636 1.79547 0.981031 0
M  V30 4715 H 433.646 2.28933 3.37718 0
M  V30 4716 H 432.321 3.19415 2.66359 0
M  V30 4717 H 430.898 1.51961 3.40532 0
M  V30 4718 N 433.083 -1.0153 1.20538 0
M  V30 4719 C 434.329 -1.75408 1.01783 0
M  V30 4720 C 434.662 -1.88943 -0.448814 0
M  V30 4721 O 433.937 -1.4162 -1.33319 0
M  V30 4722 C 434.22 -3.17255 1.70356 0
M  V30 4723 C 434.073 -3.11508 3.24473 0
M  V30 4724 C 435.392 -4.15955 1.43769 0
M  V30 4725 H 432.511 -0.636713 0.371167 0
M  V30 4726 H 435.153 -1.18436 1.4857 0
M  V30 4727 H 433.303 -3.65898 1.30578 0
M  V30 4728 H 434.975 -2.70658 3.73553 0
M  V30 4729 H 433.218 -2.4887 3.55311 0
M  V30 4730 H 433.889 -4.11784 3.67611 0
M  V30 4731 H 436.365 -3.75973 1.7828 0
M  V30 4732 H 435.241 -5.13368 1.94279 0
M  V30 4733 H 435.502 -4.40586 0.365564 0
M  V30 4734 N 434.561 -1.01147 -1.20859 0
M  V30 4735 C 435.508 -0.577354 -2.23462 0
M  V30 4736 C 436.478 0.399922 -1.61214 0
M  V30 4737 O 437.663 0.300515 -1.88419 0
M  V30 4738 C 434.803 0.083372 -3.44999 0
M  V30 4739 C 433.916 -0.937856 -4.21697 0
M  V30 4740 C 433.051 -0.248717 -5.30617 0
M  V30 4741 C 432.09 -1.25705 -5.99053 0
M  V30 4742 N 431.227 -0.594939 -6.99575 0
M  V30 4743 H 436.067 -1.45695 -2.59956 0
M  V30 4744 H 433.604 -0.729428 -1.27741 0
M  V30 4745 H 435.562 0.483535 -4.14388 0
M  V30 4746 H 434.192 0.926645 -3.09214 0
M  V30 4747 H 433.244 -1.45622 -3.51423 0
M  V30 4748 H 434.556 -1.70493 -4.68757 0
M  V30 4749 H 433.71 0.207215 -6.06346 0
M  V30 4750 H 432.449 0.55071 -4.84581 0
M  V30 4751 H 431.454 -1.72343 -5.2209 0
M  V30 4752 H 432.679 -2.05767 -6.47176 0
M  V30 4753 H 430.625 0.184713 -6.5574 0
M  V30 4754 H 430.542 -1.30017 -7.44736 0
M  V30 4755 H 431.81 -0.162427 -7.79331 0
M  V30 4756 N 436.039 1.36541 -0.78704 0
M  V30 4757 C 437.288 1.98552 -0.35494 0
M  V30 4758 C 437.601 1.63171 1.07864 0
M  V30 4759 O 438.807 2.18399 1.61289 0
M  V30 4760 C 437.263 3.55136 -0.583671 0
M  V30 4761 C 436.871 3.99444 -2.02851 0
M  V30 4762 C 438.615 4.2395 -0.215957 0
M  V30 4763 C 436.522 5.48796 -2.20403 0
M  V30 4764 H 435.452 0.742888 -0.128972 0
M  V30 4765 H 438.103 1.5587 -0.968337 0
M  V30 4766 H 436.485 3.95875 0.0994046 0
M  V30 4767 H 437.659 3.6991 -2.74779 0
M  V30 4768 H 435.974 3.43459 -2.35425 0
M  V30 4769 H 438.571 5.33709 -0.325405 0
M  V30 4770 H 438.914 4.07827 0.835646 0
M  V30 4771 H 439.447 3.88565 -0.852175 0
M  V30 4772 H 436.186 5.69864 -3.23937 0
M  V30 4773 H 435.706 5.79964 -1.52977 0
M  V30 4774 H 437.385 6.14986 -2.01002 0
M  V30 4775 N 437.518 0.538854 1.48102 0
M  V30 4776 C 438.934 0.19732 1.58376 0
M  V30 4777 C 439.134 -1.29971 1.5398 0
M  V30 4778 O 438.19 -2.07861 1.43352 0
M  V30 4779 C 439.503 0.807716 2.89649 0
M  V30 4780 C 441.051 0.77726 3.03196 0
M  V30 4781 C 441.526 1.36639 4.37143 0
M  V30 4782 N 443.017 1.32875 4.43732 0
M  V30 4783 C 443.752 1.7544 5.45901 0
M  V30 4784 N 443.248 2.25776 6.54979 0
M  V30 4785 N 445.041 1.66623 5.36836 0
M  V30 4786 H 437.192 1.5117 1.49202 0
M  V30 4787 H 439.455 0.629327 0.708979 0
M  V30 4788 H 439.161 1.85909 2.98548 0
M  V30 4789 H 439.035 0.289975 3.76084 0
M  V30 4790 H 441.422 -0.265374 2.93904 0
M  V30 4791 H 441.503 1.33256 2.18349 0
M  V30 4792 H 441.147 2.408 4.47189 0
M  V30 4793 H 441.077 0.786689 5.20691 0
M  V30 4794 H 443.568 0.96037 3.65493 0
M  V30 4795 H 443.881 2.56226 7.29087 0
M  V30 4796 H 442.226 2.29775 6.55918 0
M  V30 4797 H 445.417 1.27089 4.50517 0
M  V30 4798 H 445.59 2.00115 6.16326 0
M  V30 4799 N 438.996 -1.55193 0.274407 0
M  V30 4800 C 439.959 -2.212 -0.600279 0
M  V30 4801 C 440.959 -1.18963 -1.08187 0
M  V30 4802 O 442.149 -1.43873 -0.982158 0
M  V30 4803 C 439.281 -2.87739 -1.82809 0
M  V30 4804 H 440.474 -2.9989 -0.0239682 0
M  V30 4805 H 438.027 -1.5628 0.0250192 0
M  V30 4806 H 438.762 -2.13058 -2.44493 0
M  V30 4807 H 438.547 -3.62658 -1.49069 0
M  V30 4808 H 440.037 -3.38171 -2.45011 0
M  V30 4809 N 440.474 -0.00167713 -1.576 0
M  V30 4810 C 441.437 0.974046 -2.07473 0
M  V30 4811 C 442.437 1.27143 -0.984444 0
M  V30 4812 O 443.627 1.21633 -1.24703 0
M  V30 4813 C 440.759 2.29849 -2.51759 0
M  V30 4814 H 441.952 0.54262 -2.9495 0
M  V30 4815 H 439.505 0.245829 -1.54355 0
M  V30 4816 H 440.24 2.77677 -1.67529 0
M  V30 4817 H 440.025 2.09584 -3.31386 0
M  V30 4818 H 441.515 2.9984 -2.90664 0
M  V30 4819 N 441.952 1.55251 0.271103 0
M  V30 4820 C 443.229 1.66664 1.02384 0
M  V30 4821 C 443.609 0.534363 2.04225 0
M  V30 4822 O 442.957 -0.465337 2.23712 0
M  V30 4823 C 443.167 3.05961 1.67895 0
M  V30 4824 C 444.515 3.63772 2.18986 0
M  V30 4825 O 445.539 3.08606 1.77878 0
M  V30 4826 O 444.398 4.60429 2.94393 0
M  V30 4827 H 441.492 0.676957 0.475035 0
M  V30 4828 H 444.038 1.67589 0.26681 0
M  V30 4829 H 442.81 3.79815 0.941071 0
M  V30 4830 H 442.433 3.08943 2.5028 0
M  V30 4831 N 443.43 -0.535701 1.48216 0
M  V30 4832 C 444.676 -1.29375 1.56173 0
M  V30 4833 C 445.009 -1.92804 0.232429 0
M  V30 4834 O 444.284 -1.78992 -0.761048 0
M  V30 4835 C 444.567 -2.38747 2.69577 0
M  V30 4836 C 444.42 -1.80046 4.12193 0
M  V30 4837 C 445.739 -3.40551 2.78771 0
M  V30 4838 H 442.858 -0.469027 0.568491 0
M  V30 4839 H 445.5 -0.597358 1.80365 0
M  V30 4840 H 443.65 -2.98147 2.4908 0
M  V30 4841 H 445.322 -1.24742 4.44114 0
M  V30 4842 H 443.565 -1.10609 4.19462 0
M  V30 4843 H 444.236 -2.59212 4.87353 0
M  V30 4844 H 446.712 -2.91099 2.97322 0
M  V30 4845 H 445.588 -4.1448 3.59857 0
M  V30 4846 H 445.849 -4.00746 1.86696 0
M  V30 4847 N 444.908 -1.36708 -0.784132 0
M  V30 4848 C 446.324 -1.17237 -1.08294 0
M  V30 4849 C 446.524 -5.93947e-05 -2.015 0
M  V30 4850 O 445.58 0.663686 -2.43622 0
M  V30 4851 C 446.893 -2.48557 -1.69233 0
M  V30 4852 C 448.441 -2.54968 -1.8155 0
M  V30 4853 C 448.916 -3.86388 -2.45904 0
M  V30 4854 N 450.407 -3.87762 -2.53367 0
M  V30 4855 C 451.142 -4.86191 -3.03983 0
M  V30 4856 N 450.638 -5.95015 -3.54866 0
M  V30 4857 N 452.431 -4.73606 -3.02743 0
M  V30 4858 H 444.582 -2.11758 -0.16501 0
M  V30 4859 H 446.845 -0.93822 -0.135822 0
M  V30 4860 H 446.551 -3.34638 -1.08215 0
M  V30 4861 H 446.425 -2.64748 -2.68679 0
M  V30 4862 H 448.812 -1.69302 -2.41704 0
M  V30 4863 H 448.893 -2.42672 -0.80895 0
M  V30 4864 H 448.537 -4.72462 -1.86392 0
M  V30 4865 H 448.467 -3.95982 -3.4714 0
M  V30 4866 H 450.958 -3.09145 -2.17343 0
M  V30 4867 H 451.271 -6.66086 -3.91854 0
M  V30 4868 H 449.616 -5.98676 -3.53003 0
M  V30 4869 H 452.807 -3.87717 -2.62284 0
M  V30 4870 H 452.98 -5.50473 -3.41881 0
M  V30 4871 N 446.386 1.0089 -1.21074 0
M  V30 4872 C 447.635 1.74019 -1.01981 0
M  V30 4873 C 447.948 1.90408 0.447665 0
M  V30 4874 O 449.154 2.60707 0.757906 0
M  V30 4875 C 447.61 3.13026 -1.77603 0
M  V30 4876 C 447.218 3.04623 -3.28495 0
M  V30 4877 C 448.962 3.90312 -1.66904 0
M  V30 4878 C 446.869 4.38685 -3.96623 0
M  V30 4879 H 445.799 0.652422 -0.377971 0
M  V30 4880 H 448.45 1.12755 -1.44771 0
M  V30 4881 H 446.832 3.74878 -1.27604 0
M  V30 4882 H 448.006 2.52032 -3.85767 0
M  V30 4883 H 446.321 2.40827 -3.39693 0
M  V30 4884 H 448.918 4.8951 -2.15138 0
M  V30 4885 H 449.261 4.11558 -0.62658 0
M  V30 4886 H 449.794 3.35104 -2.14359 0
M  V30 4887 H 446.533 4.22641 -5.01054 0
M  V30 4888 H 446.053 4.91252 -3.4414 0
M  V30 4889 H 447.732 5.075 -4.01314 0
M  V30 4890 N 447.864 1.01787 1.20321 0
M  V30 4891 C 448.794 0.609625 2.25401 0
M  V30 4892 C 449.775 -0.375951 1.65893 0
M  V30 4893 O 450.96 -0.261101 1.92437 0
M  V30 4894 C 448.09 -0.0515995 3.47262 0
M  V30 4895 C 447.044 0.855095 4.19371 0
M  V30 4896 C 446.37 0.0595757 5.34667 0
M  V30 4897 C 447.67 2.16374 4.75373 0
M  V30 4898 H 449.364 1.48803 2.59804 0
M  V30 4899 H 446.91 0.716934 1.24884 0
M  V30 4900 H 448.863 -0.348764 4.19954 0
M  V30 4901 H 447.587 -0.964726 3.12027 0
M  V30 4902 H 446.246 1.13628 3.48546 0
M  V30 4903 H 445.894 -0.85524 4.95676 0
M  V30 4904 H 445.594 0.663406 5.83843 0
M  V30 4905 H 447.118 -0.231105 6.10162 0
M  V30 4906 H 448.532 1.92885 5.39878 0
M  V30 4907 H 446.929 2.71853 5.34991 0
M  V30 4908 H 447.999 2.82589 3.94045 0
M  V30 4909 N 449.342 -1.36122 0.79427 0
M  V30 4910 C 450.29 -2.31871 0.184023 0
M  V30 4911 C 451.284 -1.56041 -0.659365 0
M  V30 4912 O 452.49 -1.71266 -0.553906 0
M  V30 4913 H 448.865 -0.750896 0.0407373 0
M  V30 4914 H 450.836 -2.80898 1.00693 0
M  V30 4915 C 449.585 -3.41324 -0.662813 0
M  V30 4916 H 448.908 -3.99793 -0.0231944 0
M  V30 4917 H 450.348 -4.10629 -1.05639 0
M  V30 4918 C 448.807 -2.83308 -1.82313 0
M  V30 4919 O 449.337 -2.75863 -2.91997 0
M  V30 4920 N 447.543 -2.40529 -1.63077 0
M  V30 4921 H 447.09 -2.46785 -0.738591 0
M  V30 4922 H 447.048 -2.02059 -2.40872 0
M  V30 4923 N 450.82 -0.546701 -1.47814 0
M  V30 4924 C 452.066 -0.0269594 -2.03382 0
M  V30 4925 C 452.421 1.30406 -1.41464 0
M  V30 4926 O 451.714 1.8332 -0.557151 0
M  V30 4927 C 451.908 0.134869 -3.57145 0
M  V30 4928 C 451.737 -1.17891 -4.33972 0
M  V30 4929 C 450.507 -1.74336 -4.74273 0
M  V30 4930 C 452.705 -2.09361 -4.69758 0
M  V30 4931 N 450.687 -2.99829 -5.35701 0
M  V30 4932 C 452.058 -3.19431 -5.31379 0
M  V30 4933 C 454.113 -2.09484 -4.51687 0
M  V30 4934 C 452.816 -4.2971 -5.76838 0
M  V30 4935 C 454.842 -3.18767 -4.98138 0
M  V30 4936 C 454.204 -4.27557 -5.59799 0
M  V30 4937 H 450.303 -0.0517733 -0.780284 0
M  V30 4938 H 452.887 -0.731673 -1.80429 0
M  V30 4939 H 451.058 0.80869 -3.79888 0
M  V30 4940 H 452.79 0.655726 -3.99352 0
M  V30 4941 H 449.545 -1.28265 -4.559 0
M  V30 4942 H 449.969 -3.63765 -5.70968 0
M  V30 4943 H 454.611 -1.26663 -4.03381 0
M  V30 4944 H 452.329 -5.13297 -6.24141 0
M  V30 4945 H 455.915 -3.19937 -4.85934 0
M  V30 4946 H 454.795 -5.10725 -5.95088 0
M  V30 4947 N 452.299 1.55045 -0.282633 0
M  V30 4948 C 453.524 2.04628 0.337977 0
M  V30 4949 C 453.949 1.15937 1.48123 0
M  V30 4950 O 453.307 0.159532 1.80597 0
M  V30 4951 C 453.355 3.51854 0.78936 0
M  V30 4952 O 452.459 3.66236 1.89592 0
M  V30 4953 H 451.8 0.660434 0.0687261 0
M  V30 4954 H 454.33 2.00261 -0.419124 0
M  V30 4955 H 454.34 3.93361 1.08311 0
M  V30 4956 H 453.015 4.15873 -0.0470419 0
M  V30 4957 H 451.592 3.36633 1.60413 0
M  V30 4958 N 453.777 0.010035 1.57597 0
M  V30 4959 C 455.002 -0.687021 1.95691 0
M  V30 4960 C 455.427 -1.65952 0.885519 0
M  V30 4961 O 454.785 -1.80633 -0.15543 0
M  V30 4962 C 454.833 -1.3864 3.32884 0
M  V30 4963 O 453.937 -2.50115 3.27897 0
M  V30 4964 H 453.278 -0.181989 0.638573 0
M  V30 4965 H 455.808 0.0662122 2.04493 0
M  V30 4966 H 455.818 -1.74754 3.6868 0
M  V30 4967 H 454.493 -0.673411 4.10412 0
M  V30 4968 H 453.07 -2.16253 3.03791 0
M  V30 4969 N 455.255 -1.55392 -0.262866 0
M  V30 4970 C 456.501 -1.77657 -0.990424 0
M  V30 4971 C 456.856 -0.576333 -1.83565 0
M  V30 4972 O 456.149 0.430795 -1.86694 0
M  V30 4973 C 456.343 -3.02889 -1.89718 0
M  V30 4974 C 456.172 -4.34979 -1.14121 0
M  V30 4975 C 454.942 -4.98052 -0.852768 0
M  V30 4976 C 457.14 -5.11597 -0.526625 0
M  V30 4977 N 455.122 -6.13859 -0.0710649 0
M  V30 4978 C 456.493 -6.19883 0.12042 0
M  V30 4979 C 458.548 -4.95992 -0.435485 0
M  V30 4980 C 457.251 -7.14262 0.849833 0
M  V30 4981 C 459.277 -5.90735 0.280359 0
M  V30 4982 C 458.639 -6.98417 0.916103 0
M  V30 4983 H 454.738 -0.702242 -0.344064 0
M  V30 4984 H 457.322 -1.92887 -0.265088 0
M  V30 4985 H 455.493 -2.89017 -2.59468 0
M  V30 4986 H 457.225 -3.13516 -2.5591 0
M  V30 4987 H 453.98 -4.5916 -1.16058 0
M  V30 4988 H 454.404 -6.76302 0.307413 0
M  V30 4989 H 459.046 -4.12832 -0.912671 0
M  V30 4990 H 456.764 -7.96935 1.33867 0
M  V30 4991 H 460.35 -5.80738 0.351332 0
M  V30 4992 H 459.23 -7.70467 1.46119 0
M  V30 4993 N 456.733 0.527833 -1.48498 0
M  V30 4994 C 457.958 1.313 -1.60546 0
M  V30 4995 C 458.383 1.86199 -0.26672 0
M  V30 4996 O 457.741 1.64513 0.761918 0
M  V30 4997 C 457.789 2.43818 -2.65678 0
M  V30 4998 O 456.893 3.46916 -2.22987 0
M  V30 4999 H 456.234 0.388784 -0.538277 0
M  V30 5000 H 458.764 0.634896 -1.945 0
M  V30 5001 H 458.774 2.89973 -2.87018 0
M  V30 5002 H 457.449 2.03222 -3.62869 0
M  V30 5003 H 456.026 3.06864 -2.11869 0
M  V30 5004 N 458.211 1.37122 0.776871 0
M  V30 5005 C 459.121 1.34651 1.9211 0
M  V30 5006 C 460.137 0.246824 1.7224 0
M  V30 5007 O 461.313 0.48134 1.95563 0
M  V30 5008 C 458.378 1.14748 3.2716 0
M  V30 5009 C 457.439 2.34308 3.5972 0
M  V30 5010 C 456.672 2.15345 4.88326 0
M  V30 5011 O 456.895 1.13507 5.58992 0
M  V30 5012 O 455.829 3.03414 5.1983 0
M  V30 5013 H 459.655 2.31013 1.97146 0
M  V30 5014 H 457.24 1.17799 0.918901 0
M  V30 5015 H 459.122 1.05616 4.0795 0
M  V30 5016 H 457.797 0.214562 3.22988 0
M  V30 5017 H 456.704 2.49011 2.79185 0
M  V30 5018 H 458.037 3.26149 3.68629 0
M  V30 5019 N 459.689 -1.00246 1.21608 0
M  V30 5020 C 460.652 -2.07233 0.979133 0
M  V30 5021 C 461.652 -1.6072 -0.0508219 0
M  V30 5022 O 462.842 -1.73196 0.186712 0
M  V30 5023 C 459.974 -3.37546 0.477016 0
M  V30 5024 H 461.167 -2.29687 1.92831 0
M  V30 5025 H 458.72 -1.17261 1.03342 0
M  V30 5026 H 459.455 -3.20773 -0.476966 0
M  V30 5027 H 459.24 -3.72638 1.21997 0
M  V30 5028 H 460.73 -4.16285 0.331181 0
M  V30 5029 N 461.167 -1.02423 -1.1978 0
M  V30 5030 C 462.416 -0.713265 -1.88667 0
M  V30 5031 C 462.729 0.7609 -1.80193 0
M  V30 5032 O 463.935 1.18473 -2.44288 0
M  V30 5033 C 462.391 -1.22545 -3.38394 0
M  V30 5034 C 461.999 -2.72706 -3.55437 0
M  V30 5035 C 463.743 -0.990257 -4.12788 0
M  V30 5036 C 461.65 -3.17367 -4.99031 0
M  V30 5037 H 460.58 -0.263105 -0.706606 0
M  V30 5038 H 463.231 -1.23792 -1.35454 0
M  V30 5039 H 461.613 -0.628732 -3.90977 0
M  V30 5040 H 462.787 -3.37993 -3.13205 0
M  V30 5041 H 461.102 -2.94453 -2.94425 0
M  V30 5042 H 463.699 -1.29926 -5.18675 0
M  V30 5043 H 464.042 0.0730761 -4.16236 0
M  V30 5044 H 464.575 -1.55074 -3.66329 0
M  V30 5045 H 461.314 -4.23009 -5.00743 0
M  V30 5046 H 460.834 -2.56805 -5.42044 0
M  V30 5047 H 462.513 -3.10441 -5.67658 0
M  V30 5048 N 462.645 1.35699 -0.801477 0
M  V30 5049 C 463.555 2.33661 -0.209691 0
M  V30 5050 C 464.571 1.6162 0.644591 0
M  V30 5051 O 465.747 1.93529 0.557545 0
M  V30 5052 C 462.812 3.40816 0.636033 0
M  V30 5053 C 461.873 4.28639 -0.238147 0
M  V30 5054 C 461.106 5.30676 0.567307 0
M  V30 5055 O 461.329 5.41174 1.8024 0
M  V30 5056 O 460.263 6.01887 -0.0391336 0
M  V30 5057 H 464.089 2.8606 -1.01996 0
M  V30 5058 H 461.674 1.38379 -0.563164 0
M  V30 5059 H 463.556 4.06301 1.11791 0
M  V30 5060 H 462.231 2.90696 1.42399 0
M  V30 5061 H 461.138 3.66152 -0.767044 0
M  V30 5062 H 462.471 4.82143 -0.989915 0
M  V30 5063 N 464.123 0.554532 1.47522 0
M  V30 5064 C 465.37 0.029479 2.02479 0
M  V30 5065 C 465.698 -1.31929 1.42916 0
M  V30 5066 O 464.953 -1.87112 0.573385 0
M  V30 5067 C 465.252 -0.115927 3.57212 0
M  V30 5068 C 464.918 1.16161 4.3568 0
M  V30 5069 C 463.58 1.51168 4.56839 0
M  V30 5070 C 465.932 2.0083 4.80954 0
M  V30 5071 C 463.26 2.70696 5.2052 0
M  V30 5072 C 465.612 3.19559 5.45953 0
M  V30 5073 C 464.276 3.54882 5.65345 0
M  V30 5074 H 463.546 0.0107871 0.740921 0
M  V30 5075 H 466.193 0.725506 1.77225 0
M  V30 5076 H 464.498 -0.894902 3.81443 0
M  V30 5077 H 466.195 -0.53749 3.97381 0
M  V30 5078 H 462.785 0.879026 4.19489 0
M  V30 5079 H 466.969 1.75093 4.64388 0
M  V30 5080 H 462.225 2.98236 5.33728 0
M  V30 5081 H 466.399 3.85456 5.79997 0
M  V30 5082 H 464.026 4.47596 6.1446 0
M  V30 5083 N 465.601 -1.54893 0.290851 0
M  V30 5084 C 466.849 -1.99538 -0.320756 0
M  V30 5085 C 467.17 -1.18075 -1.55188 0
M  V30 5086 O 466.44 -0.274162 -1.93972 0
M  V30 5087 H 465.02 -0.737052 -0.121507 0
M  V30 5088 H 467.682 -1.90755 0.399832 0
M  V30 5089 H 466.778 -3.06282 -0.599802 0
M  V30 5090 N 467.08 -0.0183926 -1.57589 0
M  V30 5091 C 468.305 0.676634 -1.96052 0
M  V30 5092 C 468.73 1.6548 -0.894307 0
M  V30 5093 O 468.088 1.80712 0.145849 0
M  V30 5094 C 468.136 1.36872 -3.33614 0
M  V30 5095 O 467.24 2.48372 -3.29219 0
M  V30 5096 H 466.581 0.1786 -0.63953 0
M  V30 5097 H 469.111 -0.077056 -2.04455 0
M  V30 5098 H 469.121 1.72797 -3.69601 0
M  V30 5099 H 467.796 0.651636 -4.10763 0
M  V30 5100 H 466.373 2.14639 -3.04934 0
M  V30 5101 N 468.558 1.5553 0.254621 0
M  V30 5102 C 469.835 1.6774 1.00611 0
M  V30 5103 C 470.215 0.555993 2.03647 0
M  V30 5104 O 469.563 -0.441583 2.24193 0
M  V30 5105 C 469.773 3.07725 1.6464 0
M  V30 5106 C 471.121 3.66074 2.15116 0
M  V30 5107 O 472.145 3.10476 1.74595 0
M  V30 5108 O 471.004 4.63526 2.89493 0
M  V30 5109 H 468.098 0.681958 0.467828 0
M  V30 5110 H 470.644 1.67863 0.24902 0
M  V30 5111 H 469.416 3.80792 0.900734 0
M  V30 5112 H 469.039 3.1158 2.46989 0
M  V30 5113 N 470.036 -0.519951 1.48776 0
M  V30 5114 C 471.313 -1.28123 1.47797 0
M  V30 5115 C 471.693 -2.10196 0.195157 0
M  V30 5116 O 471.041 -2.13167 -0.822925 0
M  V30 5117 C 471.251 -2.15413 2.74587 0
M  V30 5118 C 472.599 -2.75225 3.23321 0
M  V30 5119 O 473.623 -2.25694 2.75574 0
M  V30 5120 O 472.482 -3.65346 4.06429 0
M  V30 5121 H 469.576 -0.578793 0.590701 0
M  V30 5122 H 472.122 -0.535779 1.6102 0
M  V30 5123 H 470.894 -1.54617 3.59457 0
M  V30 5124 H 470.517 -2.97186 2.64132 0
M  V30 5125 N 471.514 -1.37532 -0.769588 0
M  V30 5126 C 472.762 -1.32597 -1.5252 0
M  V30 5127 C 473.083 0.0884294 -1.94799 0
M  V30 5128 O 472.353 1.03289 -1.66458 0
M  V30 5129 H 470.933 -0.487846 -0.565699 0
M  V30 5130 H 473.595 -1.72044 -0.915806 0
M  V30 5131 H 472.691 -1.96643 -2.42359 0
M  V30 5132 N 472.992 0.995999 -1.22138 0
M  V30 5133 C 473.94 2.10673 -0.985876 0
M  V30 5134 C 474.934 1.69255 0.0699553 0
M  V30 5135 O 476.14 1.79812 -0.0822176 0
M  V30 5136 H 472.515 0.688865 -0.30161 0
M  V30 5137 H 474.486 2.27711 -1.92848 0
M  V30 5138 C 473.235 3.42881 -0.576909 0
M  V30 5139 H 472.558 3.75191 -1.38101 0
M  V30 5140 H 473.998 4.21589 -0.451518 0
M  V30 5141 C 472.457 3.29265 0.713196 0
M  V30 5142 O 472.987 3.60777 1.76643 0
M  V30 5143 N 471.193 2.82456 0.683162 0
M  V30 5144 H 470.74 2.5701 -0.174242 0
M  V30 5145 H 470.698 2.73727 1.54663 0
M  V30 5146 N 474.47 1.03057 1.19235 0
M  V30 5147 C 475.4 0.633497 2.24742 0
M  V30 5148 C 476.381 -0.358335 1.66283 0
M  V30 5149 O 477.566 -0.240676 1.92703 0
M  V30 5150 C 474.696 -0.0147648 3.47297 0
M  V30 5151 C 473.65 0.899527 4.18441 0
M  V30 5152 C 472.976 0.116281 5.34574 0
M  V30 5153 C 474.276 2.21404 4.73051 0
M  V30 5154 H 475.97 1.5155 2.58211 0
M  V30 5155 H 473.516 0.73014 1.24117 0
M  V30 5156 H 475.469 -0.304202 4.20301 0
M  V30 5157 H 474.193 -0.931577 3.13032 0
M  V30 5158 H 472.852 1.17319 3.47321 0
M  V30 5159 H 472.5 -0.802619 4.96555 0
M  V30 5160 H 472.2 0.725293 5.83107 0
M  V30 5161 H 473.724 -0.166376 6.10373 0
M  V30 5162 H 475.138 1.98601 5.37802 0
M  V30 5163 H 473.535 2.77512 5.32078 0
M  V30 5164 H 474.605 2.86752 3.91026 0
M  V30 5165 N 475.948 -1.35272 0.808662 0
M  V30 5166 C 477.196 -1.98316 0.389233 0
M  V30 5167 C 477.517 -1.64465 -1.04767 0
M  V30 5168 O 476.787 -0.928175 -1.72516 0
M  V30 5169 H 475.367 -0.733585 0.140935 0
M  V30 5170 H 478.029 -1.6515 1.03496 0
M  V30 5171 H 477.125 -3.08123 0.496631 0
M  V30 5172 N 477.426 -0.562348 -1.47226 0
M  V30 5173 C 478.651 -0.0432632 -2.07355 0
M  V30 5174 C 479.076 1.24332 -1.41149 0
M  V30 5175 O 478.434 1.74603 -0.488226 0
M  V30 5176 C 478.482 0.130288 -3.60365 0
M  V30 5177 O 477.586 1.19166 -3.94808 0
M  V30 5178 H 476.927 -0.0536334 -0.66183 0
M  V30 5179 H 479.457 -0.779495 -1.89169 0
M  V30 5180 H 479.467 0.342881 -4.06557 0
M  V30 5181 H 478.142 -0.809389 -4.07948 0
M  V30 5182 H 476.719 0.959153 -3.60354 0
M  V30 5183 N 478.904 1.54736 -0.299062 0
M  V30 5184 C 480.15 2.00397 0.311244 0
M  V30 5185 C 480.483 1.18716 1.53688 0
M  V30 5186 O 479.758 0.263154 1.92712 0
M  V30 5187 C 480.041 3.53817 0.669761 0
M  V30 5188 C 479.894 4.46239 -0.564882 0
M  V30 5189 C 481.213 4.13856 1.49702 0
M  V30 5190 H 478.332 0.728493 0.111653 0
M  V30 5191 H 480.974 1.85506 -0.410774 0
M  V30 5192 H 479.124 3.66637 1.28491 0
M  V30 5193 H 480.796 4.45328 -1.20337 0
M  V30 5194 H 479.039 4.16916 -1.19849 0
M  V30 5195 H 479.71 5.5134 -0.269918 0
M  V30 5196 H 482.186 4.04461 0.977284 0
M  V30 5197 H 481.062 5.21365 1.71666 0
M  V30 5198 H 481.323 3.65608 2.48563 0
M  V30 5199 N 480.382 0.0267497 1.57577 0
M  V30 5200 C 481.612 -0.6617 1.95717 0
M  V30 5201 C 482.02 -1.66331 0.901706 0
M  V30 5202 O 481.363 -1.83273 -0.125241 0
M  V30 5203 C 481.425 -1.42649 3.29987 0
M  V30 5204 C 481.089 -0.583482 4.5326 0
M  V30 5205 C 482.086 0.140221 5.19711 0
M  V30 5206 C 479.771 -0.521581 4.99585 0
M  V30 5207 C 481.765 0.914523 6.30805 0
M  V30 5208 C 479.452 0.256428 6.10562 0
M  V30 5209 C 480.45 0.973189 6.76031 0
M  V30 5210 O 480.138 1.73845 7.84878 0
M  V30 5211 H 479.87 -0.187483 0.649481 0
M  V30 5212 H 482.424 0.0820847 2.05236 0
M  V30 5213 H 480.654 -2.21536 3.16952 0
M  V30 5214 H 482.343 -2.00282 3.53047 0
M  V30 5215 H 483.109 0.101716 4.84893 0
M  V30 5216 H 478.988 -1.06904 4.48433 0
M  V30 5217 H 482.532 1.4745 6.81839 0
M  V30 5218 H 478.429 0.296657 6.44818 0
M  V30 5219 H 479.197 1.65797 8.01532 0
M  V30 5220 N 481.861 -1.55662 -0.24637 0
M  V30 5221 C 483.11 -1.7672 -0.972254 0
M  V30 5222 C 483.423 -0.59078 -1.86465 0
M  V30 5223 O 484.629 -0.684391 -2.62732 0
M  V30 5224 C 483.085 -3.12869 -1.7788 0
M  V30 5225 C 482.693 -4.38161 -0.933768 0
M  V30 5226 C 484.437 -3.43265 -2.49738 0
M  V30 5227 C 482.344 -5.6534 -1.73623 0
M  V30 5228 H 481.274 -0.658795 -0.366749 0
M  V30 5229 H 483.925 -1.82092 -0.226902 0
M  V30 5230 H 482.307 -3.01606 -2.56612 0
M  V30 5231 H 483.481 -4.60413 -0.188736 0
M  V30 5232 H 481.796 -4.15102 -0.328488 0
M  V30 5233 H 484.393 -4.35501 -3.10231 0
M  V30 5234 H 484.736 -2.64614 -3.2138 0
M  V30 5235 H 485.269 -3.55746 -1.78016 0
M  V30 5236 H 482.008 -6.46814 -1.06354 0
M  V30 5237 H 481.528 -5.47188 -2.45653 0
M  V30 5238 H 483.207 -6.04616 -2.30323 0
M  V30 5239 N 483.339 0.512053 -1.4905 0
M  V30 5240 C 484.569 1.28928 -1.61434 0
M  V30 5241 C 484.977 1.87107 -0.280647 0
M  V30 5242 O 484.32 1.68024 0.742537 0
M  V30 5243 C 484.382 2.466 -2.61588 0
M  V30 5244 C 484.046 2.09375 -4.06216 0
M  V30 5245 C 485.043 1.63994 -4.93358 0
M  V30 5246 C 482.728 2.19348 -4.51876 0
M  V30 5247 C 484.722 1.29076 -6.24194 0
M  V30 5248 C 482.409 1.84041 -5.82728 0
M  V30 5249 C 483.407 1.38978 -6.68711 0
M  V30 5250 O 483.095 1.04144 -7.97126 0
M  V30 5251 H 482.827 0.397668 -0.546659 0
M  V30 5252 H 485.381 0.622507 -1.9574 0
M  V30 5253 H 483.611 3.16318 -2.22441 0
M  V30 5254 H 485.3 3.08642 -2.63619 0
M  V30 5255 H 486.066 1.55744 -4.59313 0
M  V30 5256 H 481.945 2.53376 -3.85125 0
M  V30 5257 H 485.489 0.938303 -6.91261 0
M  V30 5258 H 481.386 1.91938 -6.16304 0
M  V30 5259 H 482.154 1.17387 -8.10039 0
M  V30 5260 N 484.817 1.37938 0.762283 0
M  V30 5261 C 486.063 1.33866 1.52341 0
M  V30 5262 C 486.396 -0.0738961 1.94059 0
M  V30 5263 O 485.671 -1.03326 1.64785 0
M  V30 5264 C 485.954 2.28644 2.78197 0
M  V30 5265 C 485.807 3.78722 2.42672 0
M  V30 5266 C 487.126 2.21702 3.80179 0
M  V30 5267 H 484.245 0.487593 0.55265 0
M  V30 5268 H 486.887 1.68717 0.873767 0
M  V30 5269 H 485.037 1.99055 3.33631 0
M  V30 5270 H 486.709 4.18948 1.93081 0
M  V30 5271 H 484.952 3.96827 1.75244 0
M  V30 5272 H 485.623 4.40486 3.3268 0
M  V30 5273 H 488.099 2.47805 3.34263 0
M  V30 5274 H 486.975 2.90143 4.65949 0
M  V30 5275 H 487.236 1.21301 4.25133 0
M  V30 5276 N 486.295 -0.989507 1.22664 0
M  V30 5277 C 487.225 -2.09847 1.02404 0
M  V30 5278 C 488.206 -1.70007 -0.0561303 0
M  V30 5279 O 489.391 -1.93906 0.106748 0
M  V30 5280 C 486.521 -3.41996 0.604663 0
M  V30 5281 C 485.475 -3.95699 1.63115 0
M  V30 5282 C 484.801 -5.23936 1.0675 0
M  V30 5283 C 486.101 -4.25999 3.02196 0
M  V30 5284 H 487.795 -2.27054 1.95158 0
M  V30 5285 H 485.341 -1.09111 0.939727 0
M  V30 5286 H 487.294 -4.1899 0.45002 0
M  V30 5287 H 486.018 -3.24626 -0.35855 0
M  V30 5288 H 484.677 -3.2084 1.77362 0
M  V30 5289 H 484.325 -5.02909 0.0955422 0
M  V30 5290 H 484.025 -5.60833 1.75328 0
M  V30 5291 H 485.549 -6.0356 0.924516 0
M  V30 5292 H 486.963 -4.93777 2.91303 0
M  V30 5293 H 485.36 -4.74076 3.67929 0
M  V30 5294 H 486.43 -3.33636 3.51873 0
M  V30 5295 N 487.773 -1.03688 -1.18687 0
M  V30 5296 C 488.703 -0.645407 -2.24403 0
M  V30 5297 C 489.684 0.349511 -1.66471 0
M  V30 5298 O 490.869 0.230453 -1.92828 0
M  V30 5299 C 487.999 -0.00365337 -3.473 0
M  V30 5300 C 486.953 -0.921705 -4.17958 0
M  V30 5301 C 486.279 -0.144629 -5.34504 0
M  V30 5302 C 487.579 -2.23909 -4.71871 0
M  V30 5303 H 489.273 -1.52917 -2.57404 0
M  V30 5304 H 486.819 -0.736711 -1.23728 0
M  V30 5305 H 488.772 0.281908 -4.20456 0
M  V30 5306 H 487.496 0.914963 -3.13522 0
M  V30 5307 H 486.155 -1.19159 -3.46694 0
M  V30 5308 H 485.803 0.776274 -4.96974 0
M  V30 5309 H 485.503 -0.756206 -5.82714 0
M  V30 5310 H 487.027 0.134004 -6.10453 0
M  V30 5311 H 488.441 -2.0145 -5.36741 0
M  V30 5312 H 486.838 -2.8033 -5.30599 0
M  V30 5313 H 487.908 -2.88822 -3.895 0
M  V30 5314 N 489.251 1.34841 -0.815825 0
M  V30 5315 C 490.5 1.97755 -0.396976 0
M  V30 5316 C 490.813 1.65422 1.04379 0
M  V30 5317 O 492.019 2.21771 1.5662 0
M  V30 5318 C 490.475 3.53818 -0.658869 0
M  V30 5319 C 490.083 3.95051 -2.11278 0
M  V30 5320 C 491.827 4.23397 -0.305834 0
M  V30 5321 C 489.734 5.43997 -2.31994 0
M  V30 5322 H 488.664 0.739985 -0.1447 0
M  V30 5323 H 491.315 1.53781 -1.00118 0
M  V30 5324 H 489.697 3.95997 0.0154112 0
M  V30 5325 H 490.871 3.63998 -2.82564 0
M  V30 5326 H 489.186 3.38388 -2.42657 0
M  V30 5327 H 491.783 5.32899 -0.43854 0
M  V30 5328 H 492.126 4.09508 0.748952 0
M  V30 5329 H 492.659 3.8667 -0.934403 0
M  V30 5330 H 489.398 5.62865 -3.35952 0
M  V30 5331 H 488.918 5.76589 -1.65244 0
M  V30 5332 H 490.597 6.10584 -2.14001 0
M  V30 5333 N 490.729 0.570148 1.46925 0
M  V30 5334 C 491.975 0.0510284 2.02736 0
M  V30 5335 C 492.308 -1.3006 1.44215 0
M  V30 5336 O 491.583 -1.84932 0.602521 0
M  V30 5337 C 491.866 -0.028215 3.60089 0
M  V30 5338 C 491.719 1.35142 4.29018 0
M  V30 5339 C 493.038 -0.735181 4.33916 0
M  V30 5340 H 490.157 0.0200178 0.736728 0
M  V30 5341 H 492.799 0.73493 1.75211 0
M  V30 5342 H 490.949 -0.610648 3.83671 0
M  V30 5343 H 492.621 1.97806 4.16738 0
M  V30 5344 H 490.864 1.9226 3.88868 0
M  V30 5345 H 491.535 1.24857 5.37694 0
M  V30 5346 H 494.011 -0.240519 4.15404 0
M  V30 5347 H 492.887 -0.759622 5.43618 0
M  V30 5348 H 493.148 -1.79397 4.04066 0
M  V30 5349 N 492.207 -1.54576 0.307264 0
M  V30 5350 C 493.455 -1.99867 -0.299574 0
M  V30 5351 C 493.776 -1.19714 -1.53927 0
M  V30 5352 O 493.046 -0.29472 -1.9367 0
M  V30 5353 H 491.626 -0.738299 -0.113683 0
M  V30 5354 H 494.288 -1.9032 0.420042 0
M  V30 5355 H 493.384 -3.06901 -0.567283 0
M  V30 5356 N 493.685 -0.035106 -1.57561 0
M  V30 5357 C 494.913 0.652258 -1.9635 0
M  V30 5358 C 495.328 1.65317 -0.911897 0
M  V30 5359 O 494.685 1.82194 0.105657 0
M  V30 5360 C 494.736 1.35337 -3.35211 0
M  V30 5361 O 494.457 0.392548 -4.36338 0
M  V30 5362 C 495.958 2.13199 -3.88666 0
M  V30 5363 H 493.178 0.179444 -0.646561 0
M  V30 5364 H 495.722 -0.0966459 -2.04271 0
M  V30 5365 H 493.877 2.05362 -3.28489 0
M  V30 5366 H 494.291 0.891097 -5.16875 0
M  V30 5367 H 495.765 2.577 -4.88154 0
M  V30 5368 H 496.242 2.97353 -3.23231 0
M  V30 5369 H 496.848 1.48118 -3.98674 0
M  V30 5370 N 495.163 1.55791 0.238111 0
M  V30 5371 C 496.093 1.94068 1.29846 0
M  V30 5372 C 497.074 0.806726 1.49753 0
M  V30 5373 O 498.259 1.06772 1.62214 0
M  V30 5374 C 495.389 2.24302 2.65153 0
M  V30 5375 C 494.343 3.40032 2.59927 0
M  V30 5376 C 493.669 3.55829 3.99111 0
M  V30 5377 C 494.969 4.75476 2.16148 0
M  V30 5378 H 496.663 2.82887 0.980563 0
M  V30 5379 H 494.209 1.36105 0.470253 0
M  V30 5380 H 496.162 2.4967 3.39475 0
M  V30 5381 H 494.886 1.32318 2.98596 0
M  V30 5382 H 493.545 3.14687 1.88063 0
M  V30 5383 H 493.193 2.6125 4.29834 0
M  V30 5384 H 492.893 4.3366 3.96501 0
M  V30 5385 H 494.417 3.83528 4.7512 0
M  V30 5386 H 495.831 5.00158 2.80205 0
M  V30 5387 H 494.228 5.56472 2.24631 0
M  V30 5388 H 495.298 4.71946 1.11333 0
M  V30 5389 N 496.642 -0.504142 1.49319 0
M  V30 5390 C 497.888 -1.26033 1.58882 0
M  V30 5391 C 498.221 -1.92268 0.273274 0
M  V30 5392 O 497.496 -1.80567 -0.72291 0
M  V30 5393 C 497.779 -2.32976 2.7458 0
M  V30 5394 C 497.632 -1.71263 4.1592 0
M  V30 5395 C 498.951 -3.34561 2.85932 0
M  V30 5396 H 496.07 -0.456863 0.578312 0
M  V30 5397 H 498.712 -0.558965 1.81592 0
M  V30 5398 H 496.862 -2.92796 2.55348 0
M  V30 5399 H 498.534 -1.15294 4.4666 0
M  V30 5400 H 496.777 -1.01686 4.21714 0
M  V30 5401 H 497.448 -2.48816 4.92742 0
M  V30 5402 H 499.924 -2.84727 3.0343 0
M  V30 5403 H 498.8 -4.06754 3.68568 0
M  V30 5404 H 499.061 -3.96695 1.95154 0
M  V30 5405 N 498.12 -1.38341 -0.754957 0
M  V30 5406 C 499.36 -1.35888 -1.52689 0
M  V30 5407 C 499.724 0.0513682 -1.91931 0
M  V30 5408 O 500.925 0.200761 -2.68049 0
M  V30 5409 C 499.196 -2.28666 -2.74676 0
M  V30 5410 S 500.755 -2.4422 -3.64558 0
M  V30 5411 H 497.573 -0.482165 -0.522531 0
M  V30 5412 H 500.175 -1.74253 -0.886358 0
M  V30 5413 H 498.879 -3.30023 -2.43953 0
M  V30 5414 H 498.41 -1.91445 -3.43675 0
M  V30 5415 H 500.425 -1.66525 -4.67423 0
M  V30 5416 N 499.598 0.982988 -1.23187 0
M  V30 5417 C 500.846 1.72052 -1.06031 0
M  V30 5418 C 501.167 1.90769 0.404019 0
M  V30 5419 O 500.437 1.47446 1.28982 0
M  V30 5420 H 499.017 0.637499 -0.389363 0
M  V30 5421 H 501.679 1.18338 -1.54862 0
M  V30 5422 H 500.775 2.7111 -1.54615 0
M  V30 5423 N 501.076 1.04316 1.18135 0
M  V30 5424 C 502.325 0.74319 1.87509 0
M  V30 5425 C 502.638 -0.732136 1.81381 0
M  V30 5426 O 503.844 -1.14572 2.46141 0
M  V30 5427 C 502.3 1.27913 3.36402 0
M  V30 5428 C 501.908 2.78326 3.51053 0
M  V30 5429 C 503.652 1.0558 4.11161 0
M  V30 5430 C 501.559 3.25266 4.93919 0
M  V30 5431 H 500.489 0.274313 0.702331 0
M  V30 5432 H 503.14 1.25931 1.33467 0
M  V30 5433 H 501.522 0.690853 3.89927 0
M  V30 5434 H 502.696 3.42933 3.07788 0
M  V30 5435 H 501.011 2.991 2.89704 0
M  V30 5436 H 503.608 1.38161 5.16542 0
M  V30 5437 H 503.951 -0.00684729 4.16299 0
M  V30 5438 H 504.484 1.60882 3.63816 0
M  V30 5439 H 501.223 4.30922 4.9395 0
M  V30 5440 H 500.743 2.65396 5.3789 0
M  V30 5441 H 502.422 3.19433 5.62647 0
M  V30 5442 N 502.554 -1.34406 0.822964 0
M  V30 5443 C 503.8 -1.98578 0.411666 0
M  V30 5444 C 504.133 -1.65093 -1.02264 0
M  V30 5445 O 503.408 -0.92258 -1.71227 0
M  V30 5446 C 503.691 -3.54823 0.614235 0
M  V30 5447 C 503.544 -3.9805 2.09466 0
M  V30 5448 C 504.863 -4.40071 0.050221 0
M  V30 5449 H 501.982 -0.721355 0.151047 0
M  V30 5450 H 504.624 -1.59301 1.03554 0
M  V30 5451 H 502.774 -3.88411 0.0831774 0
M  V30 5452 H 504.446 -3.74795 2.68936 0
M  V30 5453 H 502.689 -3.4836 2.5851 0
M  V30 5454 H 503.36 -5.06819 2.18721 0
M  V30 5455 H 505.836 -4.13037 0.503953 0
M  V30 5456 H 504.712 -5.48452 0.221759 0
M  V30 5457 H 504.973 -4.29576 -1.04482 0
M  V30 5458 N 504.032 -0.577932 -1.46621 0
M  V30 5459 C 504.962 0.145917 -2.33044 0
M  V30 5460 C 505.943 0.888412 -1.45056 0
M  V30 5461 O 507.128 0.864812 -1.73881 0
M  V30 5462 C 504.258 1.16322 -3.27241 0
M  V30 5463 C 503.212 0.535868 -4.24632 0
M  V30 5464 C 502.538 1.65929 -5.08303 0
M  V30 5465 C 503.838 -0.523861 -5.19666 0
M  V30 5466 H 505.532 -0.575636 -2.93814 0
M  V30 5467 H 503.078 -0.278272 -1.41286 0
M  V30 5468 H 505.031 1.67793 -3.86553 0
M  V30 5469 H 503.755 1.91498 -2.64567 0
M  V30 5470 H 502.414 0.0422759 -3.66576 0
M  V30 5471 H 502.062 2.40061 -4.42018 0
M  V30 5472 H 501.762 1.2452 -5.74255 0
M  V30 5473 H 503.286 2.17686 -5.70478 0
M  V30 5474 H 504.7 -0.0944059 -5.73222 0
M  V30 5475 H 503.097 -0.858 -5.93935 0
M  V30 5476 H 504.167 -1.41197 -4.63887 0
M  V30 5477 N 505.51 1.54411 -0.315457 0
M  V30 5478 C 506.758 2.00023 0.288971 0
M  V30 5479 C 507.079 1.20529 1.5329 0
M  V30 5480 O 506.349 0.304986 1.93511 0
M  V30 5481 H 504.929 0.738891 0.109766 0
M  V30 5482 H 507.591 1.90094 -0.430129 0
M  V30 5483 H 506.687 3.07198 0.550999 0
M  V30 5484 N 506.988 0.0434614 1.5754 0
M  V30 5485 C 508.235 -0.632035 1.92384 0
M  V30 5486 C 508.563 -1.71304 0.921157 0
M  V30 5487 O 507.818 -1.95583 -0.067744 0
M  V30 5488 C 508.117 -1.2738 3.3393 0
M  V30 5489 C 507.783 -0.321757 4.49751 0
M  V30 5490 C 506.445 -0.0597611 4.81163 0
M  V30 5491 C 508.797 0.331158 5.20147 0
M  V30 5492 C 506.125 0.862715 5.80322 0
M  V30 5493 C 508.477 1.24178 6.20292 0
M  V30 5494 C 507.141 1.51252 6.50138 0
M  V30 5495 H 506.411 -0.231278 0.703983 0
M  V30 5496 H 509.058 0.108294 1.91194 0
M  V30 5497 H 507.363 -2.08921 3.3145 0
M  V30 5498 H 509.06 -1.80326 3.58167 0
M  V30 5499 H 505.65 -0.53614 4.25233 0
M  V30 5500 H 509.834 0.141826 4.96097 0
M  V30 5501 H 505.09 1.08003 6.01785 0
M  V30 5502 H 509.264 1.75381 6.73954 0
M  V30 5503 H 506.891 2.22897 7.26788 0
M  V30 5504 N 508.466 -1.55915 -0.229846 0
M  V30 5505 C 509.396 -1.94754 -1.28815 0
M  V30 5506 C 510.377 -0.814657 -1.49323 0
M  V30 5507 O 511.562 -1.07631 -1.61645 0
M  V30 5508 C 508.692 -2.25705 -2.63959 0
M  V30 5509 C 507.646 -3.41406 -2.5812 0
M  V30 5510 C 506.972 -3.57941 -3.97218 0
M  V30 5511 C 508.272 -4.76616 -2.13623 0
M  V30 5512 H 509.966 -2.83404 -0.965547 0
M  V30 5513 H 507.512 -1.36353 -0.463028 0
M  V30 5514 H 509.465 -2.51467 -3.38146 0
M  V30 5515 H 508.189 -1.339 -2.9789 0
M  V30 5516 H 506.848 -3.1568 -1.86391 0
M  V30 5517 H 506.496 -2.63526 -4.28443 0
M  V30 5518 H 506.196 -4.35757 -3.94195 0
M  V30 5519 H 507.72 -3.86042 -4.73079 0
M  V30 5520 H 509.134 -5.01637 -2.77549 0
M  V30 5521 H 507.531 -5.57655 -2.21677 0
M  V30 5522 H 508.601 -4.7253 -1.08829 0
M  V30 5523 N 509.944 0.496216 -1.49584 0
M  V30 5524 C 511.191 1.25003 -1.59312 0
M  V30 5525 C 511.519 1.92445 -0.28198 0
M  V30 5526 O 510.774 1.81557 0.730452 0
M  V30 5527 C 511.073 2.3359 -2.705 0
M  V30 5528 C 510.739 1.83574 -4.11839 0
M  V30 5529 C 509.401 1.69653 -4.50302 0
M  V30 5530 C 511.753 1.46193 -5.00277 0
M  V30 5531 C 509.081 1.16736 -5.74969 0
M  V30 5532 C 511.433 0.947265 -6.25468 0
M  V30 5533 C 510.097 0.794485 -6.62755 0
M  V30 5534 H 509.367 0.45742 -0.582965 0
M  V30 5535 H 512.014 0.549996 -1.83432 0
M  V30 5536 H 510.319 3.09401 -2.40371 0
M  V30 5537 H 512.016 2.91627 -2.75235 0
M  V30 5538 H 508.606 1.9537 -3.81482 0
M  V30 5539 H 512.79 1.55793 -4.71214 0
M  V30 5540 H 508.046 1.03623 -6.02555 0
M  V30 5541 H 512.22 0.648846 -6.93371 0
M  V30 5542 H 509.847 0.382271 -7.59238 0
M  V30 5543 N 511.423 1.38739 0.74761 0
M  V30 5544 C 512.37 1.36449 1.86146 0
M  V30 5545 C 513.34 0.226098 1.64554 0
M  V30 5546 O 514.525 0.41926 1.86137 0
M  V30 5547 C 511.665 1.2013 3.23516 0
M  V30 5548 C 510.778 2.43407 3.56899 0
M  V30 5549 C 509.913 2.19773 4.83605 0
M  V30 5550 C 508.952 3.3879 5.09792 0
M  V30 5551 N 508.089 3.14553 6.27695 0
M  V30 5552 H 512.929 2.3167 1.87438 0
M  V30 5553 H 510.466 1.15094 0.916063 0
M  V30 5554 H 512.424 1.08683 4.02795 0
M  V30 5555 H 511.054 0.285453 3.21535 0
M  V30 5556 H 510.106 2.65504 2.72418 0
M  V30 5557 H 511.418 3.32094 3.72176 0
M  V30 5558 H 510.572 2.05496 5.70838 0
M  V30 5559 H 509.311 1.28461 4.70478 0
M  V30 5560 H 508.316 3.53579 4.21025 0
M  V30 5561 H 509.541 4.30986 5.24812 0
M  V30 5562 H 507.487 2.25893 6.1588 0
M  V30 5563 H 507.404 3.96791 6.435 0
M  V30 5564 H 508.672 3.03943 7.17801 0
M  V30 5565 N 512.901 -0.976442 1.23707 0
M  V30 5566 C 514.317 -1.24341 1.00058 0
M  V30 5567 C 514.517 -1.99315 -0.295932 0
M  V30 5568 O 513.573 -2.3123 -1.01435 0
M  V30 5569 C 514.886 -2.03909 2.21001 0
M  V30 5570 C 516.434 -2.17034 2.25534 0
M  V30 5571 C 516.909 -2.99994 3.46075 0
M  V30 5572 N 518.4 -3.07578 3.46338 0
M  V30 5573 C 519.135 -3.72104 4.36264 0
M  V30 5574 N 518.631 -4.3842 5.36432 0
M  V30 5575 N 520.424 -3.69029 4.23998 0
M  V30 5576 H 512.575 -0.47428 2.07037 0
M  V30 5577 H 514.838 -0.272167 0.908091 0
M  V30 5578 H 514.544 -1.56198 3.15111 0
M  V30 5579 H 514.418 -3.04654 2.22409 0
M  V30 5580 H 516.805 -2.63951 1.31961 0
M  V30 5581 H 516.886 -1.15664 2.28156 0
M  V30 5582 H 516.53 -2.53772 4.39957 0
M  V30 5583 H 516.46 -4.01541 3.40694 0
M  V30 5584 H 518.951 -2.60397 2.73865 0
M  V30 5585 H 519.264 -4.85447 6.013 0
M  V30 5586 H 517.609 -4.37116 5.40328 0
M  V30 5587 H 520.8 -3.16392 3.44984 0
M  V30 5588 H 520.973 -4.19034 4.94282 0
M  V30 5589 N 514.379 -1.04941 -1.1758 0
M  V30 5590 C 515.626 -0.757989 -1.87779 0
M  V30 5591 C 515.954 0.714827 -1.80888 0
M  V30 5592 O 515.209 1.53824 -1.20982 0
M  V30 5593 C 515.508 -1.18062 -3.37337 0
M  V30 5594 C 515.174 -2.65521 -3.6443 0
M  V30 5595 C 513.836 -3.05804 -3.71534 0
M  V30 5596 C 516.188 -3.60822 -3.76108 0
M  V30 5597 C 513.516 -4.40256 -3.87803 0
M  V30 5598 C 515.868 -4.95005 -3.93895 0
M  V30 5599 C 514.532 -5.34945 -3.99237 0
M  V30 5600 H 513.802 -0.277368 -0.68713 0
M  V30 5601 H 516.449 -1.31603 -1.39115 0
M  V30 5602 H 514.754 -0.541525 -3.8804 0
M  V30 5603 H 516.451 -0.932368 -3.9001 0
M  V30 5604 H 513.041 -2.33324 -3.59524 0
M  V30 5605 H 517.225 -3.30841 -3.69943 0
M  V30 5606 H 512.481 -4.70707 -3.90186 0
M  V30 5607 H 516.655 -5.68746 -4.01872 0
M  V30 5608 H 514.282 -6.39135 -4.11596 0
M  V30 5609 N 515.857 1.33968 -0.830081 0
M  V30 5610 C 516.787 2.31911 -0.271911 0
M  V30 5611 C 517.768 1.58571 0.61556 0
M  V30 5612 O 518.953 1.86514 0.540946 0
M  V30 5613 C 516.083 3.42737 0.561146 0
M  V30 5614 C 515.037 4.27383 -0.229789 0
M  V30 5615 C 514.363 5.29742 0.726463 0
M  V30 5616 C 515.663 5.02 -1.44197 0
M  V30 5617 H 517.357 2.78844 -1.09025 0
M  V30 5618 H 514.903 1.34061 -0.52571 0
M  V30 5619 H 516.856 4.10276 0.961867 0
M  V30 5620 H 515.58 2.94471 1.41261 0
M  V30 5621 H 514.239 3.61456 -0.611964 0
M  V30 5622 H 513.887 4.77736 1.57408 0
M  V30 5623 H 513.587 5.87255 0.20142 0
M  V30 5624 H 515.111 6.00149 1.12489 0
M  V30 5625 H 516.525 5.62355 -1.11488 0
M  V30 5626 H 514.922 5.69122 -1.90317 0
M  V30 5627 H 515.992 4.31281 -2.2164 0
M  V30 5628 N 517.335 0.585699 1.46312 0
M  V30 5629 C 518.751 0.247607 1.57668 0
M  V30 5630 C 518.951 -1.25007 1.58037 0
M  V30 5631 O 518.007 -2.03196 1.49893 0
M  V30 5632 C 519.32 0.899456 2.86933 0
M  V30 5633 C 520.868 0.873326 3.00569 0
M  V30 5634 C 521.343 1.50477 4.32574 0
M  V30 5635 N 522.834 1.46925 4.3928 0
M  V30 5636 C 523.569 1.92719 5.40044 0
M  V30 5637 N 523.065 2.46499 6.47464 0
M  V30 5638 N 524.858 1.83617 5.31264 0
M  V30 5639 H 517.009 1.55841 1.44317 0
M  V30 5640 H 519.272 0.651564 0.688599 0
M  V30 5641 H 518.978 1.95313 2.92482 0
M  V30 5642 H 518.852 0.409476 3.74971 0
M  V30 5643 H 521.239 -0.171736 2.946 0
M  V30 5644 H 521.32 1.40136 2.13999 0
M  V30 5645 H 520.964 2.54905 4.39302 0
M  V30 5646 H 520.894 0.951944 5.17924 0
M  V30 5647 H 523.385 1.07616 3.62253 0
M  V30 5648 H 523.698 2.79291 7.20567 0
M  V30 5649 H 522.043 2.50526 6.48276 0
M  V30 5650 H 525.234 1.41358 4.46246 0
M  V30 5651 H 525.407 2.19622 6.09648 0
M  V30 5652 N 518.813 -1.54241 0.323641 0
M  V30 5653 C 520.062 -1.9975 -0.279806 0
M  V30 5654 C 520.375 -1.2156 -1.5324 0
M  V30 5655 O 521.581 -1.57447 -2.21185 0
M  V30 5656 C 520.037 -3.55686 -0.549115 0
M  V30 5657 C 519.645 -4.4271 0.686432 0
M  V30 5658 C 521.389 -4.09663 -1.11251 0
M  V30 5659 C 519.296 -5.90119 0.389022 0
M  V30 5660 H 518.226 -0.746177 -0.10833 0
M  V30 5661 H 520.877 -1.78248 0.435877 0
M  V30 5662 H 519.259 -3.73176 -1.32499 0
M  V30 5663 H 520.433 -4.36996 1.46188 0
M  V30 5664 H 518.748 -3.99623 1.17005 0
M  V30 5665 H 521.345 -5.17386 -1.34965 0
M  V30 5666 H 521.688 -3.61651 -2.06191 0
M  V30 5667 H 522.221 -3.95806 -0.39782 0
M  V30 5668 H 518.96 -6.42326 1.30759 0
M  V30 5669 H 518.48 -5.98785 -0.348722 0
M  V30 5670 H 520.159 -6.47 -0.0011164 0
M  V30 5671 N 520.291 -0.0518155 -1.57515 0
M  V30 5672 C 521.223 0.951542 -2.08515 0
M  V30 5673 C 522.236 1.27436 -1.01311 0
M  V30 5674 O 523.425 1.23504 -1.28876 0
M  V30 5675 C 520.525 2.27291 -2.5138 0
M  V30 5676 C 519.698 2.13191 -3.81927 0
M  V30 5677 C 518.757 3.28458 -4.11098 0
M  V30 5678 O 517.783 3.04334 -4.81009 0
M  V30 5679 N 518.985 4.52954 -3.63061 0
M  V30 5680 H 521.75 0.516242 -2.9522 0
M  V30 5681 H 519.311 0.13441 -1.61341 0
M  V30 5682 H 521.303 3.03272 -2.67971 0
M  V30 5683 H 519.873 2.62386 -1.69919 0
M  V30 5684 H 519.093 1.21798 -3.74912 0
M  V30 5685 H 520.381 2.00999 -4.67415 0
M  V30 5686 H 519.779 4.75444 -3.06545 0
M  V30 5687 H 518.336 5.26026 -3.84889 0
M  V30 5688 N 521.769 1.56035 0.221574 0
M  V30 5689 C 523.185 1.49026 0.571271 0
M  V30 5690 C 523.385 0.746912 1.87146 0
M  V30 5691 O 522.441 0.286566 2.50869 0
M  V30 5692 C 523.754 2.93579 0.650522 0
M  V30 5693 C 525.302 3.04099 0.741151 0
M  V30 5694 C 525.777 4.5001 0.851747 0
M  V30 5695 N 527.268 4.54053 0.915968 0
M  V30 5696 C 528.003 5.64232 1.02125 0
M  V30 5697 N 527.499 6.84164 1.09049 0
M  V30 5698 N 529.292 5.52084 1.05639 0
M  V30 5699 H 521.443 2.02791 -0.63162 0
M  V30 5700 H 523.706 0.921736 -0.221602 0
M  V30 5701 H 523.412 3.50912 -0.235253 0
M  V30 5702 H 523.286 3.45476 1.51413 0
M  V30 5703 H 525.673 2.4683 1.61737 0
M  V30 5704 H 525.754 2.55371 -0.148128 0
M  V30 5705 H 525.398 5.07896 -0.0200117 0
M  V30 5706 H 525.328 4.96444 1.75644 0
M  V30 5707 H 527.819 3.67683 0.872782 0
M  V30 5708 H 528.132 7.63883 1.1706 0
M  V30 5709 H 526.477 6.86875 1.05962 0
M  V30 5710 H 529.668 4.57317 0.998953 0
M  V30 5711 H 529.841 6.37983 1.13498 0
M  V30 5712 N 523.247 -0.488276 1.49845 0
M  V30 5713 C 524.177 -1.59675 1.70371 0
M  V30 5714 C 525.158 -1.60878 0.552473 0
M  V30 5715 O 526.343 -1.77417 0.78973 0
M  V30 5716 C 523.473 -2.98098 1.782 0
M  V30 5717 C 522.427 -3.11761 2.93239 0
M  V30 5718 C 521.753 -4.51661 2.86193 0
M  V30 5719 C 523.053 -2.90589 4.33999 0
M  V30 5720 H 524.747 -1.42752 2.63177 0
M  V30 5721 H 522.293 -0.685317 1.26647 0
M  V30 5722 H 524.246 -3.75555 1.91144 0
M  V30 5723 H 522.97 -3.16138 0.820018 0
M  V30 5724 H 521.629 -2.36732 2.79917 0
M  V30 5725 H 521.277 -4.66595 1.87877 0
M  V30 5726 H 520.977 -4.61742 3.63412 0
M  V30 5727 H 522.501 -5.31162 3.01163 0
M  V30 5728 H 523.915 -3.57807 4.47936 0
M  V30 5729 H 522.312 -3.1213 5.12538 0
M  V30 5730 H 523.382 -1.86595 4.4756 0
M  V30 5731 N 524.725 -1.39134 -0.740242 0
M  V30 5732 C 525.972 -1.36071 -1.49969 0
M  V30 5733 C 526.3 0.0450245 -1.94448 0
M  V30 5734 O 525.555 1.02482 -1.66721 0
M  V30 5735 C 525.854 -2.27457 -2.75678 0
M  V30 5736 C 525.52 -3.75185 -2.50094 0
M  V30 5737 C 524.182 -4.15439 -2.42825 0
M  V30 5738 C 526.534 -4.68643 -2.28086 0
M  V30 5739 C 523.862 -5.4722 -2.11584 0
M  V30 5740 C 526.214 -6.00695 -1.98363 0
M  V30 5741 C 524.878 -6.40018 -1.8956 0
M  V30 5742 H 524.148 -0.497921 -0.548777 0
M  V30 5743 H 526.795 -1.71599 -0.85007 0
M  V30 5744 H 525.1 -1.8503 -3.45356 0
M  V30 5745 H 526.797 -2.22384 -3.33686 0
M  V30 5746 H 523.387 -3.43279 -2.56627 0
M  V30 5747 H 527.571 -4.3838 -2.32672 0
M  V30 5748 H 522.827 -5.76615 -2.03287 0
M  V30 5749 H 527.001 -6.72644 -1.80341 0
M  V30 5750 H 524.628 -7.42051 -1.65117 0
M  V30 5751 N 526.204 0.969867 -1.24223 0
M  V30 5752 C 527.615 1.52717 -1.07399 0
M  V30 5753 C 527.966 1.92956 0.355298 0
M  V30 5754 O 527.091 1.77112 1.2434 0
M  V30 5755 C 527.686 2.77521 -1.94339 0
M  V30 5756 C 526.245 3.29615 -1.81744 0
M  V30 5757 C 525.392 2.02537 -1.89405 0
M  V30 5758 H 528.343 0.788399 -1.37732 0
M  V30 5759 H 528.364 3.50773 -1.47439 0
M  V30 5760 H 527.876 2.48203 -2.98357 0
M  V30 5761 H 525.977 3.63789 -0.805505 0
M  V30 5762 H 526.09 3.98661 -2.65718 0
M  V30 5763 H 524.454 2.17151 -1.33108 0
M  V30 5764 H 525.237 1.75587 -2.94999 0
M  V30 5765 N 527.682 1.05563 1.17022 0
M  V30 5766 C 529.093 0.793475 1.69 0
M  V30 5767 C 529.444 -0.683882 1.83895 0
M  V30 5768 O 528.569 -1.53116 1.5292 0
M  V30 5769 C 529.164 1.43376 3.06967 0
M  V30 5770 C 527.723 1.21956 3.56095 0
M  V30 5771 C 526.87 1.51494 2.3226 0
M  V30 5772 H 529.821 1.22008 1.01487 0
M  V30 5773 H 529.842 0.845068 3.70997 0
M  V30 5774 H 529.354 2.50899 2.96093 0
M  V30 5775 H 527.455 0.163749 3.7224 0
M  V30 5776 H 527.568 1.92713 4.38633 0
M  V30 5777 H 525.932 0.935175 2.3691 0
M  V30 5778 H 526.715 2.60159 2.23992 0
M  V30 5779 N 529.16 -1.33526 0.837174 0
M  V30 5780 C 530.406 -1.9813 0.432704 0
M  V30 5781 C 530.739 -1.66168 -1.00508 0
M  V30 5782 O 530.014 -0.94069 -1.70239 0
M  V30 5783 C 530.297 -3.54151 0.651834 0
M  V30 5784 C 530.15 -3.95806 2.13676 0
M  V30 5785 C 531.469 -4.39993 0.0968937 0
M  V30 5786 H 528.588 -0.719713 0.15869 0
M  V30 5787 H 531.23 -1.58193 1.05237 0
M  V30 5788 H 529.38 -3.88301 0.124369 0
M  V30 5789 H 531.052 -3.71921 2.72896 0
M  V30 5790 H 529.295 -3.45599 2.62191 0
M  V30 5791 H 529.966 -5.0447 2.24084 0
M  V30 5792 H 532.442 -4.12479 0.547733 0
M  V30 5793 H 531.318 -5.48186 0.279917 0
M  V30 5794 H 531.579 -4.3066 -0.9992 0
M  V30 5795 N 530.638 -0.59345 -1.46 0
M  V30 5796 C 532.049 -0.169801 -1.85926 0
M  V30 5797 C 532.4 1.26984 -1.49565 0
M  V30 5798 O 531.525 1.96076 -0.915602 0
M  V30 5799 C 532.12 -0.301385 -3.37457 0
M  V30 5800 C 530.679 0.0674684 -3.7634 0
M  V30 5801 C 529.826 -0.632383 -2.69993 0
M  V30 5802 H 532.777 -0.801014 -1.37002 0
M  V30 5803 H 532.798 0.470331 -3.77582 0
M  V30 5804 H 532.31 -1.34927 -3.63891 0
M  V30 5805 H 530.411 1.11507 -3.55523 0
M  V30 5806 H 530.524 -0.316332 -4.78055 0
M  V30 5807 H 528.888 -0.0714961 -2.546 0
M  V30 5808 H 529.671 -1.68212 -2.99265 0
M  V30 5809 N 532.116 1.54067 -0.331816 0
M  V30 5810 C 533.048 2.22139 0.564538 0
M  V30 5811 C 534.061 1.22408 1.07332 0
M  V30 5812 O 535.25 1.4883 0.985481 0
M  V30 5813 C 532.35 2.87876 1.78831 0
M  V30 5814 C 531.523 4.13817 1.41682 0
M  V30 5815 C 530.582 4.63072 2.49901 0
M  V30 5816 O 529.608 5.27562 2.13699 0
M  V30 5817 N 530.81 4.38001 3.80967 0
M  V30 5818 H 533.575 2.99694 -0.0183736 0
M  V30 5819 H 531.136 1.61153 -0.155396 0
M  V30 5820 H 533.128 3.17747 2.50637 0
M  V30 5821 H 531.698 2.13977 2.27887 0
M  V30 5822 H 530.918 3.9062 0.530044 0
M  V30 5823 H 532.206 4.95762 1.14443 0
M  V30 5824 H 531.604 3.864 4.13173 0
M  V30 5825 H 530.161 4.72507 4.48977 0
M  V30 5826 N 533.594 0.0601682 1.57485 0
M  V30 5827 C 534.843 -0.611101 1.9222 0
M  V30 5828 C 535.156 -1.71469 0.941159 0
M  V30 5829 O 536.362 -2.44473 1.18089 0
M  V30 5830 C 534.818 -1.13832 3.41424 0
M  V30 5831 C 534.426 -0.0663596 4.47951 0
M  V30 5832 C 536.17 -1.78432 3.85178 0
M  V30 5833 C 534.077 -0.606965 5.88277 0
M  V30 5834 H 533.007 -0.232033 0.71741 0
M  V30 5835 H 535.658 0.130518 1.83035 0
M  V30 5836 H 534.04 -1.93254 3.45643 0
M  V30 5837 H 535.214 0.707682 4.55333 0
M  V30 5838 H 533.529 0.482715 4.13593 0
M  V30 5839 H 536.126 -2.1989 4.87394 0
M  V30 5840 H 536.469 -2.63966 3.21913 0
M  V30 5841 H 537.002 -1.05651 3.83514 0
M  V30 5842 H 533.741 0.21095 6.5516 0
M  V30 5843 H 533.261 -1.34879 5.84438 0
M  V30 5844 H 534.94 -1.08704 6.37803 0
M  V30 5845 N 535.072 -1.5615 -0.213296 0
M  V30 5846 C 536.019 -1.93086 -1.26437 0
M  V30 5847 C 536.989 -0.789086 -1.4616 0
M  V30 5848 O 538.174 -1.04569 -1.59593 0
M  V30 5849 C 535.314 -2.26003 -2.608 0
M  V30 5850 C 534.427 -3.53156 -2.48807 0
M  V30 5851 C 533.562 -3.7548 -3.7575 0
M  V30 5852 C 532.601 -4.96119 -3.58514 0
M  V30 5853 N 531.738 -5.14791 -4.77425 0
M  V30 5854 H 536.578 -2.82707 -0.942376 0
M  V30 5855 H 534.115 -1.39919 -0.454001 0
M  V30 5856 H 536.073 -2.431 -3.39055 0
M  V30 5857 H 534.703 -1.39546 -2.91079 0
M  V30 5858 H 533.755 -3.44207 -1.61944 0
M  V30 5859 H 535.067 -4.41565 -2.31996 0
M  V30 5860 H 534.221 -3.92718 -4.62447 0
M  V30 5861 H 532.96 -2.85368 -3.95495 0
M  V30 5862 H 531.965 -4.78823 -2.70201 0
M  V30 5863 H 533.19 -5.87724 -3.40231 0
M  V30 5864 H 531.136 -4.27623 -4.97468 0
M  V30 5865 H 531.053 -5.97347 -4.63371 0
M  V30 5866 H 532.321 -5.36471 -5.65525 0
M  V30 5867 N 536.55 0.480323 -1.50102 0
M  V30 5868 C 537.827 1.24159 -1.51142 0
M  V30 5869 C 538.207 2.09605 -0.250818 0
M  V30 5870 O 537.555 2.15274 0.766118 0
M  V30 5871 C 537.765 2.08057 -2.80202 0
M  V30 5872 C 539.113 2.66556 -3.30504 0
M  V30 5873 O 540.137 2.18308 -2.81461 0
M  V30 5874 O 538.996 3.54442 -4.15973 0
M  V30 5875 H 536.09 0.562928 -0.605839 0
M  V30 5876 H 538.636 0.492899 -1.62384 0
M  V30 5877 H 537.408 1.45032 -3.6343 0
M  V30 5878 H 537.031 2.90079 -2.71919 0
M  V30 5879 N 538.028 1.39524 0.732853 0
M  V30 5880 C 538.975 1.38416 1.84688 0
M  V30 5881 C 539.945 0.243539 1.64305 0
M  V30 5882 O 541.13 0.438979 1.85681 0
M  V30 5883 C 538.27 1.23555 3.22224 0
M  V30 5884 C 537.383 2.47179 3.54298 0
M  V30 5885 C 536.518 2.2489 4.81246 0
M  V30 5886 C 535.557 3.44178 5.0617 0
M  V30 5887 N 534.694 3.21192 6.24323 0
M  V30 5888 H 539.534 2.33645 1.84971 0
M  V30 5889 H 537.071 1.16059 0.903804 0
M  V30 5890 H 539.029 1.12949 4.0162 0
M  V30 5891 H 537.659 0.31954 3.21215 0
M  V30 5892 H 536.711 2.68379 2.69587 0
M  V30 5893 H 538.023 3.36022 3.68633 0
M  V30 5894 H 537.177 2.11538 5.68627 0
M  V30 5895 H 535.916 1.33443 4.69089 0
M  V30 5896 H 534.921 3.58025 4.17251 0
M  V30 5897 H 536.146 4.36528 5.20212 0
M  V30 5898 H 534.092 2.32413 6.1345 0
M  V30 5899 H 534.009 4.03594 6.39256 0
M  V30 5900 H 535.277 3.1154 7.14537 0
M  V30 5901 N 539.506 -0.963266 1.24736 0
M  V30 5902 C 540.436 -2.07628 1.06832 0
M  V30 5903 C 541.417 -1.70088 -0.0200566 0
M  V30 5904 O 542.602 -1.93636 0.147854 0
M  V30 5905 C 539.732 -3.40636 0.677069 0
M  V30 5906 C 538.686 -3.9215 1.71471 0
M  V30 5907 C 538.012 -5.21553 1.1784 0
M  V30 5908 C 539.312 -4.19493 3.11164 0
M  V30 5909 H 541.006 -2.22864 1.9993 0
M  V30 5910 H 538.552 -1.07093 0.96266 0
M  V30 5911 H 540.505 -4.17941 0.538792 0
M  V30 5912 H 539.229 -3.25313 -0.289612 0
M  V30 5913 H 537.888 -3.17005 1.84128 0
M  V30 5914 H 537.536 -5.02593 0.202195 0
M  V30 5915 H 537.236 -5.56988 1.87185 0
M  V30 5916 H 538.76 -6.01463 1.05233 0
M  V30 5917 H 540.174 -4.87487 3.01711 0
M  V30 5918 H 538.571 -4.66165 3.77902 0
M  V30 5919 H 539.641 -3.26097 3.58871 0
M  V30 5920 N 540.985 -1.06182 -1.16461 0
M  V30 5921 C 541.933 -0.665716 -2.2287 0
M  V30 5922 C 542.927 0.317822 -1.66392 0
M  V30 5923 O 544.133 0.182807 -1.79069 0
M  V30 5924 H 540.508 -0.197148 -0.725697 0
M  V30 5925 H 542.479 -1.57307 -2.53569 0
M  V30 5926 C 541.228 -0.0669803 -3.47635 0
M  V30 5927 H 540.551 -0.814899 -3.91407 0
M  V30 5928 H 541.991 0.172669 -4.23648 0
M  V30 5929 C 540.45 1.18913 -3.15216 0
M  V30 5930 O 540.98 2.27723 -3.30916 0
M  V30 5931 N 539.186 1.09066 -2.69357 0
M  V30 5932 H 538.733 0.20518 -2.56782 0
M  V30 5933 H 538.691 1.93195 -2.48039 0
M  V30 5934 N 542.463 1.3308 -0.844243 0
M  V30 5935 C 543.74 1.92178 -0.364261 0
M  V30 5936 C 544.12 1.76961 1.15101 0
M  V30 5937 O 543.468 1.16128 1.9679 0
M  V30 5938 C 543.678 3.393 -0.817106 0
M  V30 5939 C 545.026 4.16444 -0.828236 0
M  V30 5940 O 546.05 3.47975 -0.761062 0
M  V30 5941 O 544.909 5.38685 -0.920926 0
M  V30 5942 H 542.003 0.820411 -0.10419 0
M  V30 5943 H 544.549 1.41918 -0.930453 0
M  V30 5944 H 543.321 3.44272 -1.85991 0
M  V30 5945 H 542.944 3.96947 -0.227785 0
M  V30 5946 N 543.941 0.601185 1.45683 0
M  V30 5947 C 544.889 -0.133955 2.32214 0
M  V30 5948 C 545.883 -0.866034 1.45589 0
M  V30 5949 O 547.089 -0.782326 1.6211 0
M  V30 5950 H 543.464 -0.0620613 0.749435 0
M  V30 5951 H 545.435 0.614389 2.92007 0
M  V30 5952 C 544.184 -1.12216 3.29094 0
M  V30 5953 H 543.507 -0.568273 3.95741 0
M  V30 5954 H 544.947 -1.60659 3.92383 0
M  V30 5955 C 543.406 -2.19251 2.55794 0
M  V30 5956 O 543.936 -3.26894 2.33459 0
M  V30 5957 N 542.142 -1.9436 2.16039 0
M  V30 5958 H 541.689 -1.06829 2.34404 0
M  V30 5959 H 541.647 -2.66181 1.67318 0
M  V30 5960 N 545.419 -1.53889 0.339982 0
M  V30 5961 C 546.369 -2.2165 -0.534354 0
M  V30 5962 C 547.353 -1.20266 -1.06887 0
M  V30 5963 O 548.545 -1.45827 -1.00316 0
M  V30 5964 C 545.674 -2.99014 -1.68659 0
M  V30 5965 C 544.76 -4.07751 -1.16618 0
M  V30 5966 N 545.151 -5.04469 -0.366717 0
M  V30 5967 C 543.449 -4.21998 -1.4434 0
M  V30 5968 C 544.15 -5.81638 -0.0847275 0
M  V30 5969 N 543.126 -5.39388 -0.675391 0
M  V30 5970 H 546.928 -2.93781 0.0835562 0
M  V30 5971 H 544.442 -1.61736 0.146665 0
M  V30 5972 H 546.439 -3.46056 -2.32489 0
M  V30 5973 H 545.099 -2.28408 -2.30781 0
M  V30 5974 H 546.11 -5.17899 -0.00811038 0
M  V30 5975 H 542.787 -3.62612 -2.06928 0
M  V30 5976 H 544.177 -6.69563 0.559943 0
M  V30 5977 N 546.897 -0.0685191 -1.57451 0
M  V30 5978 C 547.807 0.914677 -2.16034 0
M  V30 5979 C 548.823 1.32938 -1.12265 0
M  V30 5980 O 549.999 1.40275 -1.44516 0
M  V30 5981 C 547.064 2.16519 -2.70777 0
M  V30 5982 C 546.125 1.80721 -3.89408 0
M  V30 5983 C 545.358 2.9981 -4.41531 0
M  V30 5984 O 545.581 4.13727 -3.92666 0
M  V30 5985 O 544.515 2.79817 -5.32903 0
M  V30 5986 H 548.341 0.446364 -3.00402 0
M  V30 5987 H 545.926 0.154367 -1.486 0
M  V30 5988 H 547.808 2.89856 -3.05878 0
M  V30 5989 H 546.483 2.62454 -1.89471 0
M  V30 5990 H 545.39 1.04646 -3.59166 0
M  V30 5991 H 546.723 1.39571 -4.71997 0
M  V30 5992 N 548.375 1.56261 0.205012 0
M  V30 5993 C 549.621 1.80306 0.9283 0
M  V30 5994 C 549.954 0.640932 1.83319 0
M  V30 5995 O 549.229 -0.359032 1.91158 0
M  V30 5996 C 549.512 3.14547 1.75306 0
M  V30 5997 C 549.365 4.41236 0.873562 0
M  V30 5998 C 550.684 3.45382 2.72762 0
M  V30 5999 H 547.803 0.655929 0.336044 0
M  V30 6000 H 550.445 1.88984 0.196211 0
M  V30 6001 H 548.595 3.0728 2.37721 0
M  V30 6002 H 550.267 4.60539 0.264887 0
M  V30 6003 H 548.51 4.33427 0.179773 0
M  V30 6004 H 549.181 5.31639 1.48541 0
M  V30 6005 H 551.657 3.52884 2.20481 0
M  V30 6006 H 550.533 4.40449 3.2756 0
M  V30 6007 H 550.794 2.68377 3.51321 0
M  V30 6008 N 549.853 -0.472356 1.50355 0
M  V30 6009 C 550.763 -1.59637 1.7191 0
M  V30 6010 C 551.779 -1.63247 0.602195 0
M  V30 6011 O 552.955 -1.81139 0.880369 0
M  V30 6012 C 550.02 -2.9586 1.80742 0
M  V30 6013 C 549.081 -3.02649 3.04471 0
M  V30 6014 C 548.314 -4.32374 3.12872 0
M  V30 6015 O 548.537 -5.22807 2.28099 0
M  V30 6016 O 547.471 -4.44728 4.05587 0
M  V30 6017 H 551.297 -1.44373 2.67189 0
M  V30 6018 H 548.882 -0.651717 1.34436 0
M  V30 6019 H 550.764 -3.7677 1.88739 0
M  V30 6020 H 549.439 -3.11325 0.88647 0
M  V30 6021 H 548.346 -2.20821 3.01975 0
M  V30 6022 H 549.679 -2.92119 3.9614 0
M  V30 6023 N 551.331 -1.39911 -0.725443 0
M  V30 6024 C 552.608 -1.28158 -1.47766 0
M  V30 6025 C 552.988 0.104545 -2.10841 0
M  V30 6026 O 552.336 1.11657 -1.99361 0
M  V30 6027 C 552.546 -2.41306 -2.52135 0
M  V30 6028 C 553.894 -2.81076 -3.18247 0
M  V30 6029 O 554.918 -2.40827 -2.62452 0
M  V30 6030 O 553.777 -3.50581 -4.19231 0
M  V30 6031 H 550.871 -0.502761 -0.656628 0
M  V30 6032 H 553.417 -1.51808 -0.758456 0
M  V30 6033 H 552.189 -3.33932 -2.03974 0
M  V30 6034 H 551.812 -2.19374 -3.31603 0
M  V30 6035 N 552.809 0.956637 -1.25245 0
M  V30 6036 C 553.719 2.0868 -1.0719 0
M  V30 6037 C 554.735 1.73997 -0.00959074 0
M  V30 6038 O 555.911 2.00301 -0.210104 0
M  V30 6039 C 552.976 3.39754 -0.690526 0
M  V30 6040 C 552.037 3.88316 -1.83055 0
M  V30 6041 C 551.27 5.13134 -1.46728 0
M  V30 6042 O 551.493 5.6925 -0.362029 0
M  V30 6043 O 550.427 5.56356 -2.29677 0
M  V30 6044 H 554.253 2.26813 -2.01965 0
M  V30 6045 H 551.838 1.07098 -1.04165 0
M  V30 6046 H 553.72 4.18543 -0.489871 0
M  V30 6047 H 552.395 3.22896 0.227981 0
M  V30 6048 H 551.302 3.1054 -2.08604 0
M  V30 6049 H 552.635 4.09669 -2.72822 0
M  V30 6050 N 554.287 1.06798 1.15896 0
M  V30 6051 C 555.536 0.782796 1.8589 0
M  V30 6052 C 555.849 -0.693498 1.82893 0
M  V30 6053 O 557.055 -1.09325 2.48516 0
M  V30 6054 C 555.511 1.3502 3.33613 0
M  V30 6055 C 555.119 2.8571 3.45071 0
M  V30 6056 C 556.863 1.14278 4.08829 0
M  V30 6057 C 554.77 3.35669 4.86909 0
M  V30 6058 H 553.7 0.289149 0.696354 0
M  V30 6059 H 556.351 1.28734 1.30766 0
M  V30 6060 H 554.733 0.773407 3.88374 0
M  V30 6061 H 555.907 3.49385 3.00445 0
M  V30 6062 H 554.222 3.05178 2.83294 0
M  V30 6063 H 556.819 1.49087 5.13495 0
M  V30 6064 H 557.162 0.0814575 4.1622 0
M  V30 6065 H 557.695 1.68563 3.60321 0
M  V30 6066 H 554.434 4.41302 4.84698 0
M  V30 6067 H 553.954 2.76745 5.32139 0
M  V30 6068 H 555.633 3.31296 5.55745 0
M  V30 6069 N 555.766 -1.3263 0.851289 0
M  V30 6070 C 557.015 -1.96633 0.449267 0
M  V30 6071 C 557.328 -1.68131 -0.999562 0
M  V30 6072 O 558.534 -2.25845 -1.50685 0
M  V30 6073 C 556.99 -3.51946 0.752446 0
M  V30 6074 C 556.598 -3.89311 2.21678 0
M  V30 6075 C 558.342 -4.22437 0.417983 0
M  V30 6076 C 556.249 -5.37655 2.46336 0
M  V30 6077 H 555.179 -0.735888 0.164269 0
M  V30 6078 H 557.83 -1.51073 1.0416 0
M  V30 6079 H 556.212 -3.95899 0.0895858 0
M  V30 6080 H 557.386 -3.56378 2.92115 0
M  V30 6081 H 555.701 -3.31836 2.51543 0
M  V30 6082 H 558.298 -5.31549 0.579674 0
M  V30 6083 H 558.641 -4.11349 -0.640115 0
M  V30 6084 H 559.174 -3.84057 1.03659 0
M  V30 6085 H 555.913 -5.5376 3.50757 0
M  V30 6086 H 555.433 -5.72005 1.80473 0
M  V30 6087 H 557.112 -6.04695 2.30115 0
M  V30 6088 N 557.244 -0.608902 -1.45362 0
M  V30 6089 C 558.49 -0.113196 -2.03085 0
M  V30 6090 C 558.845 1.24288 -1.46868 0
M  V30 6091 O 558.138 1.80792 -0.634402 0
M  V30 6092 C 558.332 -0.0167296 -3.57396 0
M  V30 6093 C 558.161 -1.36191 -4.28581 0
M  V30 6094 C 556.931 -1.94295 -4.66452 0
M  V30 6095 C 559.129 -2.29097 -4.60455 0
M  V30 6096 N 557.111 -3.2228 -5.22503 0
M  V30 6097 C 558.482 -3.41681 -5.17353 0
M  V30 6098 C 560.537 -2.28453 -4.42395 0
M  V30 6099 C 559.24 -4.53789 -5.58093 0
M  V30 6100 C 561.266 -3.39608 -4.8417 0
M  V30 6101 C 560.628 -4.50915 -5.41161 0
M  V30 6102 H 556.727 -0.0848213 -0.777386 0
M  V30 6103 H 559.311 -0.807541 -1.77163 0
M  V30 6104 H 557.482 0.646839 -3.82976 0
M  V30 6105 H 559.214 0.485757 -4.01774 0
M  V30 6106 H 555.969 -1.47486 -4.5005 0
M  V30 6107 H 556.393 -3.87654 -5.55025 0
M  V30 6108 H 561.035 -1.43658 -3.97646 0
M  V30 6109 H 558.753 -5.39307 -6.01808 0
M  V30 6110 H 562.339 -3.40259 -4.71927 0
M  V30 6111 H 561.219 -5.35505 -5.72891 0
M  V30 6112 N 558.722 1.53707 -0.348139 0
M  V30 6113 C 559.632 2.28881 0.514857 0
M  V30 6114 C 560.648 1.34168 1.10793 0
M  V30 6115 O 561.824 1.6721 1.12262 0
M  V30 6116 C 558.889 3.05042 1.64774 0
M  V30 6117 C 557.95 4.15389 1.08398 0
M  V30 6118 C 557.183 4.87909 2.16287 0
M  V30 6119 O 557.406 4.60137 3.3709 0
M  V30 6120 O 556.34 5.74254 1.80323 0
M  V30 6121 H 560.166 3.03547 -0.0963699 0
M  V30 6122 H 557.751 1.48972 -0.113043 0
M  V30 6123 H 559.633 3.52656 2.30677 0
M  V30 6124 H 558.308 2.33228 2.24469 0
M  V30 6125 H 557.215 3.72068 0.389341 0
M  V30 6126 H 558.548 4.89318 0.531829 0
M  V30 6127 N 560.2 0.0768682 1.57412 0
M  V30 6128 C 561.11 -0.903207 2.16516 0
M  V30 6129 C 562.126 -1.32341 1.12968 0
M  V30 6130 O 563.302 -1.39507 1.45258 0
M  V30 6131 C 560.367 -2.1508 2.71922 0
M  V30 6132 C 559.428 -1.78653 3.90361 0
M  V30 6133 C 558.661 -2.97465 4.43114 0
M  V30 6134 O 558.884 -4.11638 3.94854 0
M  V30 6135 O 557.818 -2.76987 5.3438 0
M  V30 6136 H 561.644 -0.430427 3.00634 0
M  V30 6137 H 559.229 -0.146485 1.4868 0
M  V30 6138 H 561.111 -2.8823 3.07411 0
M  V30 6139 H 559.786 -2.61446 1.9086 0
M  V30 6140 H 558.693 -1.0274 3.59716 0
M  V30 6141 H 560.026 -1.37066 4.7273 0
M  V30 6142 N 561.678 -1.56367 -0.196722 0
M  V30 6143 C 562.925 -1.80529 -0.917366 0
M  V30 6144 C 563.253 -0.649817 -1.83324 0
M  V30 6145 O 562.508 0.36451 -1.92275 0
M  V30 6146 C 562.807 -3.10663 -1.767 0
M  V30 6147 C 562.473 -4.3962 -1.00225 0
M  V30 6148 C 561.135 -4.74653 -0.791095 0
M  V30 6149 C 563.487 -5.1913 -0.464035 0
M  V30 6150 C 560.815 -5.86692 -0.0302155 0
M  V30 6151 C 563.167 -6.31964 0.283625 0
M  V30 6152 C 561.831 -6.65581 0.505813 0
M  V30 6153 H 561.101 -0.660602 -0.335688 0
M  V30 6154 H 563.748 -1.90615 -0.183844 0
M  V30 6155 H 562.053 -2.95807 -2.56915 0
M  V30 6156 H 563.75 -3.26563 -2.32718 0
M  V30 6157 H 560.34 -4.12127 -1.17684 0
M  V30 6158 H 564.524 -4.9248 -0.614575 0
M  V30 6159 H 559.78 -6.11211 0.151917 0
M  V30 6160 H 563.954 -6.92791 0.708057 0
M  V30 6161 H 561.581 -7.52239 1.0973 0
M  V30 6162 N 563.156 0.464375 -1.50603 0
M  V30 6163 C 564.384 1.23907 -1.65695 0
M  V30 6164 C 564.799 1.85658 -0.343027 0
M  V30 6165 O 564.156 1.69529 0.675739 0
M  V30 6166 C 564.207 2.3429 -2.75301 0
M  V30 6167 O 563.928 1.7507 -4.01599 0
M  V30 6168 C 565.429 3.25051 -3.01424 0
M  V30 6169 H 562.649 0.374485 -0.556778 0
M  V30 6170 H 565.193 0.55353 -1.96866 0
M  V30 6171 H 563.348 2.98607 -2.46804 0
M  V30 6172 H 563.762 2.47812 -4.62266 0
M  V30 6173 H 565.236 3.98699 -3.81763 0
M  V30 6174 H 565.713 3.84227 -2.12758 0
M  V30 6175 H 566.319 2.66463 -3.31477 0
M  V30 6176 N 564.634 1.40294 0.718013 0
M  V30 6177 C 566.045 1.34289 1.29705 0
M  V30 6178 C 566.396 0.0152228 1.96194 0
M  V30 6179 O 565.521 -0.88682 1.97394 0
M  V30 6180 C 566.116 2.43219 2.3586 0
M  V30 6181 C 564.675 2.40682 2.89394 0
M  V30 6182 C 563.822 2.24223 1.63154 0
M  V30 6183 H 566.773 1.50135 0.514312 0
M  V30 6184 H 566.794 2.10986 3.16647 0
M  V30 6185 H 566.306 3.39836 1.87439 0
M  V30 6186 H 564.407 1.47756 3.42051 0
M  V30 6187 H 564.52 3.36177 3.41353 0
M  V30 6188 H 562.884 1.71696 1.88129 0
M  V30 6189 H 563.667 3.22834 1.16761 0
M  V30 6190 N 566.112 -0.949982 1.2575 0
M  V30 6191 C 567.022 -2.08109 1.08295 0
M  V30 6192 C 568.038 -1.7399 0.0188181 0
M  V30 6193 O 569.214 -2.00187 0.220724 0
M  V30 6194 C 566.279 -3.39383 0.708534 0
M  V30 6195 C 565.34 -3.8734 1.85111 0
M  V30 6196 C 564.573 -5.12349 1.49447 0
M  V30 6197 O 564.796 -5.6905 0.392212 0
M  V30 6198 O 563.73 -5.5513 2.32624 0
M  V30 6199 H 567.556 -2.25738 2.03165 0
M  V30 6200 H 565.141 -1.06545 1.04731 0
M  V30 6201 H 567.023 -4.18277 0.512061 0
M  V30 6202 H 565.698 -3.23013 -0.210854 0
M  V30 6203 H 564.605 -3.09429 2.10248 0
M  V30 6204 H 565.938 -4.08216 2.74991 0
M  V30 6205 N 567.59 -1.07411 -1.15328 0
M  V30 6206 C 568.5 -0.706438 -2.23711 0
M  V30 6207 C 569.516 0.282586 -1.7169 0
M  V30 6208 O 570.692 0.129066 -2.00986 0
M  V30 6209 C 567.757 -0.11048 -3.46524 0
M  V30 6210 C 566.818 -1.15282 -4.13532 0
M  V30 6211 C 566.051 -0.585205 -5.30482 0
M  V30 6212 O 566.274 0.598549 -5.67251 0
M  V30 6213 O 565.208 -1.33039 -5.87013 0
M  V30 6214 H 569.034 -1.61031 -2.57493 0
M  V30 6215 H 566.619 -0.847113 -1.23062 0
M  V30 6216 H 568.501 0.21957 -4.20828 0
M  V30 6217 H 567.176 0.766703 -3.14489 0
M  V30 6218 H 566.083 -1.53523 -3.41147 0
M  V30 6219 H 567.416 -2.00192 -4.49649 0
M  V30 6220 N 569.068 1.32177 -0.85831 0
M  V30 6221 C 570.316 1.96735 -0.462568 0
M  V30 6222 C 570.637 1.6824 0.985911 0
M  V30 6223 O 569.907 0.991564 1.68952 0
M  V30 6224 H 568.487 0.727849 -0.168064 0
M  V30 6225 H 571.149 1.61195 -1.09554 0
M  V30 6226 H 570.245 3.06068 -0.610647 0
M  V30 6227 N 570.547 0.616602 1.45037 0
M  V30 6228 C 571.494 -0.0969439 2.30596 0
M  V30 6229 C 572.464 -0.851151 1.42635 0
M  V30 6230 O 573.649 -0.835092 1.71554 0
M  V30 6231 C 570.789 -1.08234 3.27688 0
M  V30 6232 C 569.902 -0.328072 4.30752 0
M  V30 6233 C 569.037 -1.30399 5.14946 0
M  V30 6234 C 568.076 -0.538049 6.09731 0
M  V30 6235 N 567.213 -1.46371 6.86673 0
M  V30 6236 H 572.053 0.63864 2.91076 0
M  V30 6237 H 569.59 0.326733 1.43425 0
M  V30 6238 H 571.548 -1.66688 3.82454 0
M  V30 6239 H 570.178 -1.78523 2.68941 0
M  V30 6240 H 569.23 0.372136 3.78575 0
M  V30 6241 H 570.542 0.269142 4.98073 0
M  V30 6242 H 569.696 -1.96032 5.74157 0
M  V30 6243 H 568.435 -1.93514 4.47665 0
M  V30 6244 H 567.44 0.131852 5.49642 0
M  V30 6245 H 568.665 0.0881732 6.79043 0
M  V30 6246 H 566.611 -2.08233 6.22073 0
M  V30 6247 H 566.528 -0.920152 7.50379 0
M  V30 6248 H 567.796 -2.10932 7.50418 0
M  V30 6249 N 572.025 -1.5352 0.356285 0
M  V30 6250 C 573.273 -2.00719 -0.235837 0
M  V30 6251 C 573.594 -1.24551 -1.5004 0
M  V30 6252 O 572.864 -0.356185 -1.92635 0
M  V30 6253 H 571.444 -0.741542 -0.0901366 0
M  V30 6254 H 574.106 -1.88887 0.480378 0
M  V30 6255 H 573.202 -3.08551 -0.469357 0
M  V30 6256 N 573.503 -0.0852151 -1.57369 0
M  V30 6257 C 574.733 0.588605 -1.98038 0
M  V30 6258 C 575.141 1.62869 -0.962817 0
M  V30 6259 O 574.484 1.83611 0.057134 0
M  V30 6260 C 574.546 1.30303 -3.35054 0
M  V30 6261 C 574.21 0.414855 -4.55113 0
M  V30 6262 C 575.207 -0.333011 -5.18832 0
M  V30 6263 C 572.892 0.335804 -5.01176 0
M  V30 6264 C 574.886 -1.14801 -6.26976 0
M  V30 6265 C 572.573 -0.482857 -6.09189 0
M  V30 6266 C 573.571 -1.22342 -6.71953 0
M  V30 6267 O 573.259 -2.02855 -7.77885 0
M  V30 6268 H 572.991 0.163249 -0.655992 0
M  V30 6269 H 575.545 -0.1582 -2.0479 0
M  V30 6270 H 573.775 2.0962 -3.24956 0
M  V30 6271 H 575.464 1.87041 -3.60237 0
M  V30 6272 H 576.23 -0.281611 -4.84182 0
M  V30 6273 H 572.109 0.901869 -4.52092 0
M  V30 6274 H 575.653 -1.72654 -6.75897 0
M  V30 6275 H 571.55 -0.535773 -6.43273 0
M  V30 6276 H 572.318 -1.95432 -7.94826 0
M  V30 6277 N 574.981 1.5647 0.188427 0
M  V30 6278 C 576.397 1.50204 0.539532 0
M  V30 6279 C 576.597 0.78644 1.85519 0
M  V30 6280 O 575.653 0.339714 2.50204 0
M  V30 6281 C 576.966 2.94893 0.588103 0
M  V30 6282 C 578.514 3.05602 0.67648 0
M  V30 6283 C 578.989 4.51716 0.756101 0
M  V30 6284 N 580.48 4.55894 0.819451 0
M  V30 6285 C 581.215 5.66272 0.90134 0
M  V30 6286 N 580.711 6.86323 0.945118 0
M  V30 6287 N 582.504 5.54201 0.939043 0
M  V30 6288 H 574.655 2.01406 -0.674493 0
M  V30 6289 H 576.918 0.916828 -0.241103 0
M  V30 6290 H 576.624 3.50334 -0.309633 0
M  V30 6291 H 576.498 3.4861 1.44051 0
M  V30 6292 H 578.885 2.50206 1.56465 0
M  V30 6293 H 578.966 2.54999 -0.202262 0
M  V30 6294 H 578.61 5.07739 -0.12774 0
M  V30 6295 H 578.54 5.00058 1.65074 0
M  V30 6296 H 581.031 3.69452 0.794594 0
M  V30 6297 H 581.344 7.66194 1.0083 0
M  V30 6298 H 579.689 6.88968 0.913683 0
M  V30 6299 H 582.88 4.59333 0.901725 0
M  V30 6300 H 583.053 6.40247 0.999402 0
M  V30 6301 N 576.459 -0.456382 1.50847 0
M  V30 6302 C 577.369 -1.57805 1.73594 0
M  V30 6303 C 578.385 -1.62599 0.619476 0
M  V30 6304 O 579.561 -1.80195 0.899532 0
M  V30 6305 C 576.626 -2.93926 1.8387 0
M  V30 6306 C 575.687 -2.99402 3.07663 0
M  V30 6307 C 574.92 -4.29031 3.1744 0
M  V30 6308 O 575.143 -5.20358 2.33631 0
M  V30 6309 O 574.077 -4.40401 4.10281 0
M  V30 6310 H 577.903 -1.41531 2.68705 0
M  V30 6311 H 575.488 -0.637422 1.3512 0
M  V30 6312 H 577.37 -3.74747 1.92725 0
M  V30 6313 H 576.045 -3.10368 0.91944 0
M  V30 6314 H 574.952 -2.17606 3.043 0
M  V30 6315 H 576.285 -2.87901 3.99216 0
M  V30 6316 N 577.937 -1.40673 -0.710563 0
M  V30 6317 C 578.847 -1.43663 -1.85467 0
M  V30 6318 C 579.863 -0.328721 -1.70867 0
M  V30 6319 O 581.039 -0.574098 -1.93044 0
M  V30 6320 C 578.104 -1.30226 -3.21313 0
M  V30 6321 C 577.165 -2.51204 -3.48131 0
M  V30 6322 C 576.398 -2.38398 -4.77495 0
M  V30 6323 O 576.621 -1.40048 -5.5294 0
M  V30 6324 O 575.555 -3.2787 -5.04762 0
M  V30 6325 H 579.381 -2.40156 -1.859 0
M  V30 6326 H 576.966 -1.22049 -0.861652 0
M  V30 6327 H 578.848 -1.2496 -4.02446 0
M  V30 6328 H 577.523 -0.368419 -3.21597 0
M  V30 6329 H 576.43 -2.62048 -2.66987 0
M  V30 6330 H 577.763 -3.43366 -3.52648 0
M  V30 6331 N 579.415 0.9433 -1.26252 0
M  V30 6332 C 580.661 1.69175 -1.11837 0
M  V30 6333 C 580.994 1.91238 0.337891 0
M  V30 6334 O 580.269 1.49152 1.24836 0
M  V30 6335 C 580.552 3.06783 -1.88563 0
M  V30 6336 C 580.405 2.9206 -3.42083 0
M  V30 6337 C 581.724 4.06865 -1.67776 0
M  V30 6338 H 578.843 0.61399 -0.407658 0
M  V30 6339 H 581.485 1.09572 -1.55222 0
M  V30 6340 H 579.635 3.57663 -1.51689 0
M  V30 6341 H 581.307 2.48419 -3.88698 0
M  V30 6342 H 579.55 2.27731 -3.69217 0
M  V30 6343 H 580.221 3.89651 -3.90994 0
M  V30 6344 H 582.697 3.64939 -1.99897 0
M  V30 6345 H 581.573 5.01168 -2.23879 0
M  V30 6346 H 581.834 4.37705 -0.621816 0
M  V30 6347 N 580.893 1.08022 1.14757 0
M  V30 6348 C 581.823 0.728248 2.21853 0
M  V30 6349 C 582.804 -0.287486 1.67653 0
M  V30 6350 O 583.989 -0.158727 1.9355 0
M  V30 6351 C 581.119 0.132549 3.47047 0
M  V30 6352 C 580.073 1.07619 4.14249 0
M  V30 6353 C 579.399 0.342907 5.33599 0
M  V30 6354 C 580.699 2.41268 4.63235 0
M  V30 6355 H 582.393 1.62365 2.51551 0
M  V30 6356 H 579.939 0.782125 1.20908 0
M  V30 6357 H 581.892 -0.125665 4.21213 0
M  V30 6358 H 580.616 -0.797971 3.16702 0
M  V30 6359 H 579.275 1.31944 3.42033 0
M  V30 6360 H 578.923 -0.59129 4.99513 0
M  V30 6361 H 578.623 0.971955 5.79506 0
M  V30 6362 H 580.147 0.0926538 6.1053 0
M  V30 6363 H 581.561 2.21232 5.28894 0
M  V30 6364 H 579.958 2.9983 5.19829 0
M  V30 6365 H 581.028 3.03079 3.78512 0
M  V30 6366 N 582.371 -1.3172 0.865308 0
M  V30 6367 C 583.599 -2.01057 0.488251 0
M  V30 6368 C 584.014 -1.64979 -0.918 0
M  V30 6369 O 583.371 -0.876597 -1.60069 0
M  V30 6370 C 583.422 -3.55964 0.630224 0
M  V30 6371 O 583.143 -3.90749 1.98109 0
M  V30 6372 C 584.644 -4.42574 0.253567 0
M  V30 6373 H 581.864 -0.64332 0.190736 0
M  V30 6374 H 584.408 -1.68058 1.16519 0
M  V30 6375 H 582.563 -3.874 0.000895422 0
M  V30 6376 H 582.977 -4.85467 1.9855 0
M  V30 6377 H 584.451 -5.50521 0.403875 0
M  V30 6378 H 584.928 -4.31724 -0.806895 0
M  V30 6379 H 585.534 -4.16547 0.858404 0
M  V30 6380 N 583.85 -0.624285 -1.44708 0
M  V30 6381 C 585.096 -0.126237 -2.02407 0
M  V30 6382 C 585.428 1.24618 -1.48943 0
M  V30 6383 O 584.704 1.82569 -0.670742 0
M  V30 6384 C 584.986 -0.105449 -3.59946 0
M  V30 6385 C 584.84 -1.50972 -4.23707 0
M  V30 6386 C 586.159 0.573629 -4.36346 0
M  V30 6387 H 583.278 -0.0473472 -0.735478 0
M  V30 6388 H 585.92 -0.799452 -1.72362 0
M  V30 6389 H 584.07 0.46783 -3.85673 0
M  V30 6390 H 585.742 -2.13136 -4.0911 0
M  V30 6391 H 583.985 -2.0656 -3.81465 0
M  V30 6392 H 584.656 -1.44727 -5.32689 0
M  V30 6393 H 587.132 0.0861787 -4.16011 0
M  V30 6394 H 586.008 0.557338 -5.46063 0
M  V30 6395 H 586.269 1.64276 -4.10446 0
M  V30 6396 N 585.328 1.53329 -0.364422 0
M  V30 6397 C 586.275 2.25698 0.482607 0
M  V30 6398 C 587.245 1.26325 1.07848 0
M  V30 6399 O 588.43 1.55104 1.11119 0
M  V30 6400 C 585.57 3.04873 1.61699 0
M  V30 6401 C 584.683 4.19135 1.0464 0
M  V30 6402 C 583.818 4.85754 2.14979 0
M  V30 6403 C 582.857 5.9205 1.5538 0
M  V30 6404 N 581.994 6.52365 2.59547 0
M  V30 6405 H 586.834 2.97666 -0.141032 0
M  V30 6406 H 584.371 1.46875 -0.0813692 0
M  V30 6407 H 586.329 3.49051 2.28516 0
M  V30 6408 H 584.959 2.35162 2.2113 0
M  V30 6409 H 584.011 3.79451 0.268553 0
M  V30 6410 H 585.323 4.95525 0.570653 0
M  V30 6411 H 584.477 5.3311 2.89619 0
M  V30 6412 H 583.216 4.08834 2.65906 0
M  V30 6413 H 582.221 5.44058 0.792549 0
M  V30 6414 H 583.446 6.7089 1.0528 0
M  V30 6415 H 581.392 5.78298 3.09689 0
M  V30 6416 H 581.309 7.2429 2.16655 0
M  V30 6417 H 582.577 7.0437 3.33892 0
M  V30 6418 N 586.806 0.0935595 1.57322 0
M  V30 6419 C 587.716 -0.880192 2.17462 0
M  V30 6420 C 588.732 -1.31135 1.14366 0
M  V30 6421 O 589.908 -1.37958 1.46729 0
M  V30 6422 C 586.973 -2.12184 2.74188 0
M  V30 6423 C 586.034 -1.74503 3.92234 0
M  V30 6424 C 585.267 -2.92748 4.46245 0
M  V30 6425 O 585.49 -4.07427 3.99198 0
M  V30 6426 O 584.424 -2.71303 5.37288 0
M  V30 6427 H 588.25 -0.398516 3.01074 0
M  V30 6428 H 585.835 -0.130707 1.48827 0
M  V30 6429 H 587.717 -2.84953 3.10451 0
M  V30 6430 H 586.392 -2.59407 1.93623 0
M  V30 6431 H 585.299 -0.989186 3.60785 0
M  V30 6432 H 586.632 -1.32044 4.74157 0
M  V30 6433 N 588.284 -1.56567 -0.180126 0
M  V30 6434 C 589.533 -1.80685 -0.896426 0
M  V30 6435 C 589.846 -0.669335 -1.83791 0
M  V30 6436 O 591.052 -0.795209 -2.59593 0
M  V30 6437 C 589.508 -3.20132 -1.6445 0
M  V30 6438 C 589.116 -4.41727 -0.747088 0
M  V30 6439 C 590.86 -3.53549 -2.34955 0
M  V30 6440 C 588.767 -5.72195 -1.49489 0
M  V30 6441 H 587.697 -0.673758 -0.338477 0
M  V30 6442 H 590.348 -1.8289 -0.149467 0
M  V30 6443 H 588.73 -3.12218 -2.43589 0
M  V30 6444 H 589.904 -4.608 0.00671129 0
M  V30 6445 H 588.219 -4.16122 -0.152134 0
M  V30 6446 H 590.816 -4.48267 -2.91481 0
M  V30 6447 H 591.159 -2.78006 -3.09868 0
M  V30 6448 H 591.692 -3.62976 -1.62768 0
M  V30 6449 H 588.431 -6.50743 -0.788251 0
M  V30 6450 H 587.951 -5.57115 -2.22224 0
M  V30 6451 H 589.63 -6.1384 -2.04472 0
M  V30 6452 N 589.762 0.448376 -1.51087 0
M  V30 6453 C 590.99 1.22143 -1.66999 0
M  V30 6454 C 591.405 1.85283 -0.362699 0
M  V30 6455 O 590.762 1.70236 0.65772 0
M  V30 6456 C 590.813 2.31357 -2.7777 0
M  V30 6457 O 590.534 1.70801 -4.03434 0
M  V30 6458 C 592.035 3.21836 -3.04855 0
M  V30 6459 H 589.255 0.368558 -0.560719 0
M  V30 6460 H 591.799 0.532618 -1.97442 0
M  V30 6461 H 589.954 2.95973 -2.49958 0
M  V30 6462 H 590.368 2.42895 -4.64868 0
M  V30 6463 H 591.842 3.94627 -3.85971 0
M  V30 6464 H 592.319 3.81949 -2.16821 0
M  V30 6465 H 592.925 2.62933 -3.34285 0
M  V30 6466 O 591.279 1.50177 0.59407 0
M  V30 6467 H 591.97 1.48064 1.24887 0
M  V30 END ATOM
M  V30 BEGIN BOND
M  V30 END BOND
M  V30 END CTAB
M  END
$$$$
