drugbank_target|P15636 Protease 1 (DB08603)
 OpenBabel12092120513D

  0  0  0     0  0            999 V3000
M  V30 BEGIN CTAB
M  V30 COUNTS 9405 9509 0 0 0
M  V30 BEGIN ATOM
M  V30 1 H -0.908 1.98254 -0.117106 0
M  V30 2 N 0 1.576 0 0
M  V30 3 C 0.933 2.03868 1.02534 0
M  V30 4 C 1.911 0.928543 1.3348 0
M  V30 5 O 3.095 1.19667 1.45644 0
M  V30 6 C 0.222 2.43627 2.35294 0
M  V30 7 C -0.732 3.65373 2.2001 0
M  V30 8 S 0.101 5.13292 1.52614 0
M  V30 9 C 1.257 5.56322 2.86805 0
M  V30 10 H 1.49 2.90518 0.631377 0
M  V30 11 H -0.977 1.52953 0.210867 0
M  V30 12 H 0.981 2.67203 3.11629 0
M  V30 13 H -0.358 1.57376 2.7183 0
M  V30 14 H -1.165 3.90944 3.18086 0
M  V30 15 H -1.563 3.418 1.51819 0
M  V30 16 H 0.729 5.58782 3.83104 0
M  V30 17 H 1.672 6.56266 2.65933 0
M  V30 18 H 2.08 4.83886 2.90714 0
M  V30 19 N 1.4781 -0.272755 1.55222 0
M  V30 20 C 2.4251 -1.33716 1.88119 0
M  V30 21 C 3.3951 -1.49066 0.73271 0
M  V30 22 O 4.5801 -1.63469 0.984002 0
M  V30 23 C 1.7201 -2.69238 2.15882 0
M  V30 24 C 0.8331 -2.62108 3.43399 0
M  V30 25 C -0.0319 -3.89811 3.60861 0
M  V30 26 C -0.9929 -3.77193 4.8207 0
M  V30 27 N -1.8559 -4.9673 4.96189 0
M  V30 28 H 2.9841 -1.04962 2.78903 0
M  V30 29 H 0.5211 -0.507088 1.38083 0
M  V30 30 H 2.4791 -3.48089 2.29978 0
M  V30 31 H 1.1091 -2.96194 1.28331 0
M  V30 32 H 0.1611 -1.74967 3.37773 0
M  V30 33 H 1.4731 -2.48685 4.32386 0
M  V30 34 H 0.6271 -4.77103 3.74777 0
M  V30 35 H -0.6339 -4.06102 2.7006 0
M  V30 36 H -1.6289 -2.88284 4.68159 0
M  V30 37 H -0.4039 -3.62421 5.74307 0
M  V30 38 H -2.4579 -5.13431 4.08319 0
M  V30 39 H -2.5409 -4.85839 5.79221 0
M  V30 40 H -1.2729 -5.85594 5.1449 0
M  V30 41 N 2.9562 -1.48159 -0.537278 0
M  V30 42 C 4.3722 -1.34118 -0.865129 0
M  V30 43 C 4.5722 -0.346678 -1.98495 0
M  V30 44 O 3.6282 0.234715 -2.51407 0
M  V30 45 C 4.9412 -2.73963 -1.23954 0
M  V30 46 C 6.4892 -2.82397 -1.34984 0
M  V30 47 C 6.9642 -4.22928 -1.75772 0
M  V30 48 N 8.4552 -4.25566 -1.82887 0
M  V30 49 C 9.1902 -5.31235 -2.15817 0
M  V30 50 N 8.6862 -6.47189 -2.47222 0
M  V30 51 N 10.4792 -5.18624 -2.16761 0
M  V30 52 H 2.6302 -2.1144 0.201715 0
M  V30 53 H 4.8932 -0.947598 0.0275949 0
M  V30 54 H 4.5992 -3.48264 -0.490381 0
M  V30 55 H 4.4732 -3.0702 -2.19132 0
M  V30 56 H 6.8602 -2.08356 -2.08978 0
M  V30 57 H 6.9412 -2.5297 -0.379448 0
M  V30 58 H 6.5852 -4.97482 -1.02341 0
M  V30 59 H 6.5152 -4.49794 -2.73848 0
M  V30 60 H 9.0062 -3.41924 -1.60924 0
M  V30 61 H 9.3192 -7.23564 -2.71433 0
M  V30 62 H 7.6642 -6.50476 -2.44757 0
M  V30 63 H 10.8552 -4.27056 -1.91679 0
M  V30 64 H 11.0282 -6.01078 -2.42093 0
M  V30 65 N 4.4343 0.785586 -1.36625 0
M  V30 66 C 5.6833 1.53883 -1.30396 0
M  V30 67 C 5.9963 1.95271 0.113452 0
M  V30 68 O 7.2023 2.69858 0.298142 0
M  V30 69 C 5.6583 2.77808 -2.28802 0
M  V30 70 C 5.2663 2.43574 -3.75999 0
M  V30 71 C 7.0103 3.55783 -2.31558 0
M  V30 72 C 4.9173 3.63919 -4.66173 0
M  V30 73 H 3.8473 0.577678 -0.484566 0
M  V30 74 H 6.4983 0.861705 -1.62009 0
M  V30 75 H 4.8803 3.47339 -1.90188 0
M  V30 76 H 6.0543 1.81916 -4.23371 0
M  V30 77 H 4.3693 1.78803 -3.76056 0
M  V30 78 H 6.9663 4.45205 -2.96137 0
M  V30 79 H 7.3093 3.94644 -1.3252 0
M  V30 80 H 7.8423 2.93235 -2.68809 0
M  V30 81 H 4.5813 3.3015 -5.66287 0
M  V30 82 H 4.1013 4.2473 -4.23515 0
M  V30 83 H 5.7803 4.30901 -4.82632 0
M  V30 84 N 5.9124 1.20967 1.01018 0
M  V30 85 C 7.1524 1.03511 1.76252 0
M  V30 86 C 7.5164 -0.42458 1.87247 0
M  V30 87 O 8.7174 -0.719508 2.58991 0
M  V30 88 C 6.9884 1.70726 3.13986 0
M  V30 89 S 8.5474 1.68458 4.05176 0
M  V30 90 H 5.3654 0.371037 0.606508 0
M  V30 91 H 7.9674 1.53628 1.20908 0
M  V30 92 H 6.6714 2.76128 3.03614 0
M  V30 93 H 6.2024 1.20767 3.74405 0
M  V30 94 H 8.2174 0.721987 4.90919 0
M  V30 95 N 7.3905 -1.2043 1.01659 0
M  V30 96 C 8.6385 -1.89423 0.704522 0
M  V30 97 C 8.9595 -1.79231 -0.768197 0
M  V30 98 O 8.2295 -1.1947 -1.55254 0
M  V30 99 H 6.8095 -0.701178 0.257602 0
M  V30 100 H 9.4715 -1.4626 1.28818 0
M  V30 101 H 8.5675 -2.96052 0.987916 0
M  V30 102 N 8.8686 -0.792821 -1.36206 0
M  V30 103 C 10.0936 -0.377701 -2.03932 0
M  V30 104 C 10.5186 0.998947 -1.59382 0
M  V30 105 O 9.8766 1.64421 -0.763903 0
M  V30 106 C 9.9246 -0.453635 -3.57735 0
M  V30 107 O 9.0286 0.538151 -4.08874 0
M  V30 108 H 8.3696 -0.159855 -0.644471 0
M  V30 109 H 10.8996 -1.07488 -1.7409 0
M  V30 110 H 10.9096 -0.318464 -4.06755 0
M  V30 111 H 9.5846 -1.45784 -3.89512 0
M  V30 112 H 8.1616 0.364359 -3.71116 0
M  V30 113 N 10.3467 1.47872 -0.545128 0
M  V30 114 C 11.2767 2.32661 0.197793 0
M  V30 115 C 12.2577 1.43041 0.920504 0
M  V30 116 O 13.4427 1.71912 0.90333 0
M  V30 117 C 10.5727 3.24569 1.23582 0
M  V30 118 C 9.5267 4.23333 0.630323 0
M  V30 119 C 8.8527 5.0448 1.77211 0
M  V30 120 C 10.1527 5.20704 -0.407974 0
M  V30 121 H 11.8467 2.95024 -0.510045 0
M  V30 122 H 9.3927 1.4187 -0.246731 0
M  V30 123 H 11.3457 3.8272 1.76362 0
M  V30 124 H 10.0697 2.60236 1.97344 0
M  V30 125 H 8.7287 3.6639 0.123922 0
M  V30 126 H 8.3767 4.36561 2.49847 0
M  V30 127 H 8.0767 5.71339 1.37281 0
M  V30 128 H 9.6007 5.65487 2.3034 0
M  V30 129 H 11.0147 5.7329 0.033305 0
M  V30 130 H 9.4117 5.95699 -0.725486 0
M  V30 131 H 10.4817 4.66917 -1.30828 0
M  V30 132 N 11.8248 0.280983 1.55075 0
M  V30 133 C 12.7548 -0.597469 2.25727 0
M  V30 134 C 13.7358 -1.15417 1.24952 0
M  V30 135 O 14.9208 -1.18722 1.53684 0
M  V30 136 C 12.0508 -1.7789 2.98283 0
M  V30 137 C 11.0048 -1.35347 4.06036 0
M  V30 138 C 10.3308 -2.61846 4.66198 0
M  V30 139 C 11.6308 -0.499354 5.19907 0
M  V30 140 H 13.3248 -0.00824265 2.99399 0
M  V30 141 H 10.8708 -0.0025244 1.44 0
M  V30 142 H 12.8238 -2.39937 3.46422 0
M  V30 143 H 11.5478 -2.39405 2.22155 0
M  V30 144 H 10.2068 -0.756156 3.58717 0
M  V30 145 H 9.8548 -3.21632 3.86732 0
M  V30 146 H 9.5548 -2.3409 5.38958 0
M  V30 147 H 11.0788 -3.24732 5.1709 0
M  V30 148 H 12.4928 -1.02498 5.64063 0
M  V30 149 H 10.8898 -0.316424 5.99265 0
M  V30 150 H 11.9598 0.480459 4.82514 0
M  V30 151 N 13.3029 -1.57598 0.00835791 0
M  V30 152 C 14.2329 -2.1198 -0.979113 0
M  V30 153 C 15.2139 -1.03091 -1.35301 0
M  V30 154 O 16.3989 -1.30818 -1.43528 0
M  V30 155 C 13.5289 -2.62995 -2.26828 0
M  V30 156 C 12.4829 -3.76485 -2.03576 0
M  V30 157 C 11.8089 -4.13846 -3.38579 0
M  V30 158 C 13.1089 -5.0342 -1.39161 0
M  V30 159 H 14.8029 -2.94738 -0.526281 0
M  V30 160 H 12.3489 -1.41783 -0.251704 0
M  V30 161 H 14.3019 -2.99669 -2.96271 0
M  V30 162 H 13.0259 -1.7737 -2.7424 0
M  V30 163 H 11.6849 -3.40217 -1.36557 0
M  V30 164 H 11.3329 -3.25232 -3.83709 0
M  V30 165 H 11.0329 -4.90312 -3.23834 0
M  V30 166 H 12.5569 -4.53086 -4.09323 0
M  V30 167 H 13.9709 -5.37812 -1.98573 0
M  V30 168 H 12.3679 -5.84746 -1.34878 0
M  V30 169 H 13.4379 -4.83548 -0.361868 0
M  V30 170 N 14.781 0.264519 -1.55364 0
M  V30 171 C 15.711 1.33121 -1.91836 0
M  V30 172 C 16.692 1.51101 -0.781192 0
M  V30 173 O 17.877 1.64003 -1.04003 0
M  V30 174 C 15.007 2.68921 -2.19769 0
M  V30 175 C 13.961 2.65661 -3.35571 0
M  V30 176 C 13.287 4.05093 -3.49004 0
M  V30 177 C 14.587 2.24187 -4.71739 0
M  V30 178 H 16.281 1.02844 -2.81182 0
M  V30 179 H 13.827 0.493286 -1.35287 0
M  V30 180 H 15.78 3.43663 -2.43872 0
M  V30 181 H 14.504 3.00799 -1.27231 0
M  V30 182 H 13.163 1.93377 -3.1145 0
M  V30 183 H 12.811 4.34206 -2.53917 0
M  V30 184 H 12.511 4.03804 -4.26868 0
M  V30 185 H 14.035 4.81561 -3.75408 0
M  V30 186 H 15.449 2.88654 -4.9533 0
M  V30 187 H 13.846 2.34044 -5.52579 0
M  V30 188 H 14.916 1.19327 -4.69988 0
M  V30 189 N 16.2591 1.48442 0.529413 0
M  V30 190 C 17.5071 1.56179 1.28267 0
M  V30 191 C 17.8281 0.237721 1.93546 0
M  V30 192 O 17.0981 -0.740779 1.81354 0
M  V30 193 H 15.6781 0.575367 0.476405 0
M  V30 194 H 18.3401 1.84909 0.61602 0
M  V30 195 H 17.4361 2.34312 2.06165 0
M  V30 196 N 17.7372 -0.778329 1.37039 0
M  V30 197 C 18.6672 -1.90546 1.34962 0
M  V30 198 C 19.6482 -1.68681 0.219274 0
M  V30 199 O 20.8332 -1.89634 0.418624 0
M  V30 200 C 17.9632 -3.27734 1.14925 0
M  V30 201 C 16.9172 -3.64147 2.24902 0
M  V30 202 C 16.2432 -4.99806 1.89996 0
M  V30 203 C 17.5432 -3.71579 3.67051 0
M  V30 204 H 19.2372 -1.92541 2.29277 0
M  V30 205 H 16.7832 -0.924948 1.10366 0
M  V30 206 H 18.7362 -4.06215 1.12104 0
M  V30 207 H 17.4602 -3.26154 0.170631 0
M  V30 208 H 16.1192 -2.8797 2.26868 0
M  V30 209 H 15.7672 -4.94759 0.906796 0
M  V30 210 H 15.4672 -5.25139 2.63634 0
M  V30 211 H 16.9912 -5.80694 1.88749 0
M  V30 212 H 18.4052 -4.40227 3.67251 0
M  V30 213 H 16.8022 -4.08405 4.39688 0
M  V30 214 H 17.8722 -2.72404 4.01154 0
M  V30 215 N 19.2153 -1.21501 -1.00376 0
M  V30 216 C 20.4403 -1.05977 -1.78279 0
M  V30 217 C 20.8653 0.385994 -1.84097 0
M  V30 218 O 20.2233 1.27849 -1.28547 0
M  V30 219 C 20.2713 -1.66302 -3.19963 0
M  V30 220 O 19.3753 -0.909333 -4.0225 0
M  V30 221 H 18.7163 -0.372906 -0.549397 0
M  V30 222 H 21.2463 -1.6107 -1.26165 0
M  V30 223 H 21.2563 -1.70574 -3.70632 0
M  V30 224 H 19.9313 -2.71515 -3.15043 0
M  V30 225 H 18.5083 -0.941795 -3.60811 0
M  V30 226 N 20.6934 1.19889 -1.02296 0
M  V30 227 C 21.9424 1.88743 -0.711257 0
M  V30 228 C 22.2554 1.80112 0.762817 0
M  V30 229 O 23.4614 2.44161 1.18733 0
M  V30 230 C 21.9174 3.38525 -1.22185 0
M  V30 231 C 21.5254 3.55727 -2.72328 0
M  V30 232 C 23.2694 4.12893 -0.985864 0
M  V30 233 C 21.1764 4.99369 -3.16835 0
M  V30 234 H 20.1064 0.706885 -0.262353 0
M  V30 235 H 22.7574 1.35586 -1.23648 0
M  V30 236 H 21.1394 3.91044 -0.624571 0
M  V30 237 H 22.3134 3.13564 -3.3766 0
M  V30 238 H 20.6284 2.94739 -2.9414 0
M  V30 239 H 23.2254 5.18813 -1.29374 0
M  V30 240 H 23.5684 4.16228 0.0775055 0
M  V30 241 H 24.1014 3.66494 -1.54684 0
M  V30 242 H 20.8404 5.01193 -4.22476 0
M  V30 243 H 20.3604 5.42317 -2.56228 0
M  V30 244 H 22.0394 5.67988 -3.09837 0
M  V30 245 N 22.1715 0.800033 1.35784 0
M  V30 246 C 23.3965 0.388511 2.03729 0
M  V30 247 C 23.8215 -0.990481 1.5991 0
M  V30 248 O 23.1795 -1.64013 0.772612 0
M  V30 249 C 23.2275 0.4726 3.5749 0
M  V30 250 O 22.3315 -0.51646 4.09153 0
M  V30 251 H 21.6725 0.163271 0.643614 0
M  V30 252 H 24.2025 1.0841 1.73518 0
M  V30 253 H 24.2125 0.34003 4.06581 0
M  V30 254 H 22.8875 1.47848 3.88734 0
M  V30 255 H 21.4645 -0.344673 3.71304 0
M  V30 256 N 23.6496 -1.47581 0.552962 0
M  V30 257 C 24.6126 -2.28439 -0.186605 0
M  V30 258 C 25.6126 -1.36706 -0.84665 0
M  V30 259 O 26.8026 -1.59378 -0.703164 0
M  V30 260 C 23.9346 -3.16264 -1.2724 0
M  V30 261 H 25.1276 -2.95294 0.523609 0
M  V30 262 H 22.6806 -1.532 0.309745 0
M  V30 263 H 23.4156 -2.54091 -2.01514 0
M  V30 264 H 23.2006 -3.83769 -0.803968 0
M  V30 265 H 24.6906 -3.77198 -1.79196 0
M  V30 266 N 25.1277 -0.289203 -1.54924 0
M  V30 267 C 26.0907 0.579144 -2.21762 0
M  V30 268 C 27.0907 1.07047 -1.1999 0
M  V30 269 O 28.2807 0.968384 -1.44803 0
M  V30 270 C 25.4127 1.80055 -2.8947 0
M  V30 271 H 26.6057 -0.00464908 -2.999 0
M  V30 272 H 24.1587 -0.0399306 -1.56249 0
M  V30 273 H 24.8937 2.42449 -2.15381 0
M  V30 274 H 24.6787 1.45602 -3.64064 0
M  V30 275 H 26.1687 2.41773 -3.40493 0
M  V30 276 N 26.6058 1.57591 -0.0167156 0
M  V30 277 C 27.5358 2.12496 0.967858 0
M  V30 278 C 28.5168 1.03807 1.34752 0
M  V30 279 O 29.7018 1.31577 1.42833 0
M  V30 280 C 26.8318 2.64194 2.25431 0
M  V30 281 C 25.7858 3.77559 2.01576 0
M  V30 282 C 25.1118 4.15636 3.36379 0
M  V30 283 C 26.4118 5.04151 1.36489 0
M  V30 284 H 28.1058 2.95013 0.510643 0
M  V30 285 H 25.6518 1.41915 0.244181 0
M  V30 286 H 27.6048 3.01236 2.94678 0
M  V30 287 H 26.3288 1.78821 2.73296 0
M  V30 288 H 24.9878 3.40937 1.34751 0
M  V30 289 H 24.6358 3.27263 3.81979 0
M  V30 290 H 24.3358 4.92022 3.21229 0
M  V30 291 H 25.8598 4.5525 4.06915 0
M  V30 292 H 27.2738 5.38857 1.95718 0
M  V30 293 H 25.6708 5.85453 1.31776 0
M  V30 294 H 26.7408 4.83733 0.336219 0
M  V30 295 N 28.0839 -0.256276 1.55502 0
M  V30 296 C 29.0469 -1.30047 1.88734 0
M  V30 297 C 30.0469 -1.4154 0.763086 0
M  V30 298 O 31.2369 -1.40403 1.03115 0
M  V30 299 C 28.3689 -2.67953 2.10747 0
M  V30 300 H 29.5619 -1.01802 2.82093 0
M  V30 301 H 27.1149 -0.495134 1.4825 0
M  V30 302 H 27.8499 -3.01351 1.19825 0
M  V30 303 H 27.6349 -2.60993 2.92617 0
M  V30 304 H 29.1249 -3.43368 2.37673 0
M  V30 305 N 29.562 -1.4872 -0.521534 0
M  V30 306 C 30.525 -1.63379 -1.60748 0
M  V30 307 C 31.525 -0.50661 -1.52611 0
M  V30 308 O 32.715 -0.772601 -1.5613 0
M  V30 309 C 29.847 -1.61192 -3.00383 0
M  V30 310 H 31.04 -2.60217 -1.49087 0
M  V30 311 H 28.593 -1.37444 -0.744235 0
M  V30 312 H 29.328 -0.65863 -3.17541 0
M  V30 313 H 29.113 -2.43032 -3.07698 0
M  V30 314 H 30.603 -1.7466 -3.7932 0
M  V30 315 N 31.0401 0.771051 -1.3745 0
M  V30 316 C 32.4511 1.34737 -1.29239 0
M  V30 317 C 32.8021 1.96109 0.0596908 0
M  V30 318 O 31.9271 1.93865 0.961534 0
M  V30 319 C 32.5221 2.44973 -2.34037 0
M  V30 320 C 31.0811 2.98372 -2.29458 0
M  V30 321 C 30.2281 1.71595 -2.17831 0
M  V30 322 H 33.1791 0.571256 -1.48062 0
M  V30 323 H 33.2001 3.24471 -1.98744 0
M  V30 324 H 32.7121 2.00276 -3.32432 0
M  V30 325 H 30.8131 3.47443 -1.34589 0
M  V30 326 H 30.9261 3.53939 -3.229 0
M  V30 327 H 29.2901 1.94547 -1.64388 0
M  V30 328 H 30.0731 1.29001 -3.18141 0
M  V30 329 N 32.5182 1.22032 0.997298 0
M  V30 330 C 33.4812 0.987909 2.06816 0
M  V30 331 C 34.4812 -0.0440084 1.6074 0
M  V30 332 O 35.6712 0.194053 1.73116 0
M  V30 333 C 32.8032 0.49132 3.37341 0
M  V30 334 H 33.9962 1.93803 2.28868 0
M  V30 335 H 31.5492 1.03838 1.16822 0
M  V30 336 H 32.2842 -0.463364 3.20973 0
M  V30 337 H 32.0692 1.23575 3.72118 0
M  V30 338 H 33.5592 0.348824 4.16141 0
M  V30 339 N 33.9963 -1.19345 1.0293 0
M  V30 340 C 35.2213 -1.93538 0.745511 0
M  V30 341 C 35.6463 -1.75007 -0.689511 0
M  V30 342 O 35.0043 -1.05265 -1.47611 0
M  V30 343 C 35.0523 -3.43336 1.10239 0
M  V30 344 O 34.1563 -4.11806 0.221289 0
M  V30 345 H 33.4973 -0.604193 0.275404 0
M  V30 346 H 36.0273 -1.5141 1.37609 0
M  V30 347 H 36.0373 -3.94004 1.05947 0
M  V30 348 H 34.7123 -3.56146 2.14786 0
M  V30 349 H 33.2893 -3.715 0.322842 0
M  V30 350 N 35.4744 -0.807222 -1.35358 0
M  V30 351 C 36.8904 -0.491038 -1.51858 0
M  V30 352 C 37.0904 0.987648 -1.75635 0
M  V30 353 O 36.1464 1.77265 -1.79815 0
M  V30 354 C 37.4594 -1.33695 -2.69344 0
M  V30 355 C 39.0074 -1.33246 -2.83222 0
M  V30 356 C 39.4824 -2.1625 -4.03733 0
M  V30 357 N 40.9734 -2.1379 -4.10911 0
M  V30 358 C 41.7084 -2.74772 -5.03277 0
M  V30 359 N 41.2044 -3.44684 -6.0097 0
M  V30 360 N 42.9974 -2.6441 -4.96028 0
M  V30 361 H 35.1484 -1.76485 -1.18181 0
M  V30 362 H 37.4114 -0.751199 -0.578276 0
M  V30 363 H 37.1174 -2.38634 -2.58354 0
M  V30 364 H 36.9914 -0.990618 -3.6396 0
M  V30 365 H 39.3784 -0.290911 -2.93663 0
M  V30 366 H 39.4594 -1.71866 -1.89461 0
M  V30 367 H 39.1034 -3.20445 -3.94052 0
M  V30 368 H 39.0334 -1.74989 -4.96675 0
M  V30 369 H 41.5244 -1.62923 -3.40976 0
M  V30 370 H 41.8374 -3.88501 -6.68047 0
M  V30 371 H 40.1824 -3.48788 -6.01142 0
M  V30 372 H 43.3734 -2.0938 -4.18662 0
M  V30 373 H 43.5464 -3.12225 -5.6782 0
M  V30 374 N 36.9525 1.47285 -0.560781 0
M  V30 375 C 38.3635 1.86258 -0.128343 0
M  V30 376 C 38.7145 1.46699 1.30284 0
M  V30 377 O 37.8395 0.871698 1.98067 0
M  V30 378 C 38.4345 3.38044 -0.22614 0
M  V30 379 C 36.9935 3.76096 0.151283 0
M  V30 380 C 36.1405 2.71335 -0.572084 0
M  V30 381 H 39.0915 1.38752 -0.770297 0
M  V30 382 H 39.1125 3.76441 0.554322 0
M  V30 383 H 38.6245 3.66806 -1.26788 0
M  V30 384 H 36.7255 3.52951 1.19399 0
M  V30 385 H 36.8385 4.78641 -0.209765 0
M  V30 386 H 35.2025 2.54696 -0.0147653 0
M  V30 387 H 35.9855 3.02938 -1.61504 0
M  V30 388 N 38.4306 0.297415 1.54768 0
M  V30 389 C 39.3936 -0.567375 2.22066 0
M  V30 390 C 40.3936 -1.06409 1.20556 0
M  V30 391 O 41.5836 -0.960691 1.45315 0
M  V30 392 C 38.7156 -1.78517 2.90421 0
M  V30 393 H 39.9086 0.0205534 2.99893 0
M  V30 394 H 37.4616 0.0482163 1.56226 0
M  V30 395 H 38.1966 -2.41303 2.16664 0
M  V30 396 H 37.9816 -1.43669 3.64831 0
M  V30 397 H 39.4716 -2.39964 3.41771 0
M  V30 398 N 39.9087 -1.5758 0.0250728 0
M  V30 399 C 40.8717 -2.08896 -0.943139 0
M  V30 400 C 41.8717 -1.00321 -1.25668 0
M  V30 401 O 43.0617 -1.26495 -1.19769 0
M  V30 402 C 40.1937 -2.55143 -2.26086 0
M  V30 403 H 41.3867 -2.95723 -0.498775 0
M  V30 404 H 38.9397 -1.54703 -0.222888 0
M  V30 405 H 39.6747 -1.71633 -2.75159 0
M  V30 406 H 39.4597 -3.34461 -2.04641 0
M  V30 407 H 40.9497 -2.95083 -2.95492 0
M  V30 408 N 41.3868 0.248026 -1.55636 0
M  V30 409 C 42.6338 0.976224 -1.77415 0
M  V30 410 C 42.9618 1.85361 -0.589193 0
M  V30 411 O 42.2168 1.90973 0.427529 0
M  V30 412 C 42.5158 1.86819 -3.04686 0
M  V30 413 C 42.1818 1.14625 -4.36087 0
M  V30 414 C 40.8438 0.946723 -4.71795 0
M  V30 415 C 43.1958 0.634463 -5.17324 0
M  V30 416 C 40.5238 0.223091 -5.86276 0
M  V30 417 C 42.8758 -0.0756959 -6.32555 0
M  V30 418 C 41.5398 -0.286711 -6.66884 0
M  V30 419 H 40.8098 0.357226 -0.649208 0
M  V30 420 H 43.4568 0.246415 -1.89908 0
M  V30 421 H 41.7618 2.66502 -2.872 0
M  V30 422 H 43.4588 2.43329 -3.18735 0
M  V30 423 H 40.0488 1.3117 -4.08035 0
M  V30 424 H 44.2328 0.77616 -4.90193 0
M  V30 425 H 39.4888 0.0491185 -6.1138 0
M  V30 426 H 43.6628 -0.479899 -6.94745 0
M  V30 427 H 41.2898 -0.849389 -7.5544 0
M  V30 428 N 42.8649 1.48995 0.513639 0
M  V30 429 C 44.1419 1.48338 1.27495 0
M  V30 430 C 44.5219 0.204065 2.10111 0
M  V30 431 O 43.8699 -0.813881 2.13514 0
M  V30 432 C 44.0799 2.75498 2.14247 0
M  V30 433 C 45.4279 3.24484 2.73852 0
M  V30 434 O 46.4519 2.76528 2.24523 0
M  V30 435 O 45.3109 4.07974 3.6362 0
M  V30 436 H 42.4049 0.593149 0.576284 0
M  V30 437 H 44.9509 1.61246 0.528948 0
M  V30 438 H 43.7229 3.60109 1.53092 0
M  V30 439 H 43.3459 2.6539 2.96064 0
M  V30 440 N 44.343 -0.763751 1.37857 0
M  V30 441 C 45.573 -1.55067 1.3652 0
M  V30 442 C 45.981 -1.89135 -0.0494227 0
M  V30 443 O 45.324 -1.52529 -1.02375 0
M  V30 444 C 45.386 -2.8838 2.14656 0
M  V30 445 C 45.05 -2.76905 3.63555 0
M  V30 446 C 46.047 -2.4739 4.57268 0
M  V30 447 C 43.732 -2.94676 4.06781 0
M  V30 448 C 45.726 -2.35786 5.92186 0
M  V30 449 C 43.413 -2.82692 5.41782 0
M  V30 450 C 44.411 -2.53289 6.34298 0
M  V30 451 O 44.099 -2.41345 7.66817 0
M  V30 452 H 43.831 -0.486776 0.469069 0
M  V30 453 H 46.385 -0.953812 1.81911 0
M  V30 454 H 44.615 -3.50217 1.63967 0
M  V30 455 H 46.304 -3.49828 2.05852 0
M  V30 456 H 47.07 -2.33339 4.2518 0
M  V30 457 H 42.949 -3.16563 3.35126 0
M  V30 458 H 46.493 -2.12757 6.64365 0
M  V30 459 H 42.39 -2.96314 5.7347 0
M  V30 460 H 43.158 -2.56634 7.77226 0
M  V30 461 N 45.8211 -1.22559 -0.990812 0
M  V30 462 C 46.7841 -0.998863 -2.0629 0
M  V30 463 C 47.7841 0.0354834 -1.60761 0
M  V30 464 O 48.9741 -0.203231 -1.7301 0
M  V30 465 C 46.1061 -0.509203 -3.37076 0
M  V30 466 H 47.2991 -1.95014 -2.27837 0
M  V30 467 H 44.8521 -1.04456 -1.16269 0
M  V30 468 H 45.5871 0.446335 -3.21214 0
M  V30 469 H 45.3721 -1.25547 -3.71457 0
M  V30 470 H 46.8621 -0.370888 -4.1595 0
M  V30 471 N 47.2992 1.18797 -1.03562 0
M  V30 472 C 48.2472 2.24297 -0.615905 0
M  V30 473 C 49.2412 1.65643 0.354808 0
M  V30 474 O 50.4472 1.78618 0.22265 0
M  V30 475 H 46.8222 0.729909 -0.180934 0
M  V30 476 H 48.7932 2.5701 -1.5162 0
M  V30 477 C 47.5422 3.47698 0.0104735 0
M  V30 478 H 46.8652 3.93125 -0.727509 0
M  V30 479 H 48.3052 4.23159 0.266995 0
M  V30 480 C 46.7642 3.12489 1.25905 0
M  V30 481 O 47.2942 3.25761 2.35038 0
M  V30 482 N 45.5002 2.6686 1.15039 0
M  V30 483 H 45.0472 2.56261 0.262328 0
M  V30 484 H 45.0052 2.43674 1.98672 0
M  V30 485 N 48.7773 0.814389 1.34928 0
M  V30 486 C 49.7073 0.244827 2.32213 0
M  V30 487 C 50.6883 -0.634024 1.57842 0
M  V30 488 O 51.8733 -0.562676 1.8587 0
M  V30 489 C 49.0033 -0.601106 3.42058 0
M  V30 490 C 47.9573 0.179896 4.27622 0
M  V30 491 C 47.2833 -0.788237 5.28858 0
M  V30 492 C 48.5833 1.38329 5.03649 0
M  V30 493 H 50.2773 1.05763 2.80097 0
M  V30 494 H 47.8233 0.510029 1.34665 0
M  V30 495 H 49.7763 -1.00968 4.09125 0
M  V30 496 H 48.5003 -1.44688 2.92802 0
M  V30 497 H 47.1593 0.569739 3.62146 0
M  V30 498 H 46.8073 -1.62973 4.75866 0
M  V30 499 H 46.5073 -0.269942 5.8698 0
M  V30 500 H 48.0313 -1.19485 5.98795 0
M  V30 501 H 49.4453 1.04918 5.63618 0
M  V30 502 H 47.8423 1.83662 5.71304 0
M  V30 503 H 48.9123 2.16592 4.33839 0
M  V30 504 N 50.2554 -1.46986 0.568584 0
M  V30 505 C 51.4804 -2.07335 0.0520528 0
M  V30 506 C 51.9054 -1.41675 -1.23733 0
M  V30 507 O 51.2634 -0.495623 -1.74394 0
M  V30 508 C 51.3114 -3.60417 -0.11501 0
M  V30 509 O 50.4154 -3.95309 -1.17492 0
M  V30 510 H 49.7564 -0.661597 0.0564385 0
M  V30 511 H 52.2864 -1.88837 0.787507 0
M  V30 512 H 52.2964 -4.06698 -0.325644 0
M  V30 513 H 50.9714 -4.07601 0.826675 0
M  V30 514 H 49.5484 -3.60757 -0.943869 0
M  V30 515 N 51.7335 -0.305618 -1.54608 0
M  V30 516 C 52.9585 0.307562 -2.05107 0
M  V30 517 C 53.3835 1.46385 -1.18123 0
M  V30 518 O 52.7415 1.8034 -0.186324 0
M  V30 519 C 52.7895 0.73704 -3.52987 0
M  V30 520 O 51.8935 1.84134 -3.6901 0
M  V30 521 H 51.2345 0.0589143 -0.661381 0
M  V30 522 H 53.7645 -0.448807 -1.99617 0
M  V30 523 H 53.7745 1.02459 -3.94925 0
M  V30 524 H 52.4495 -0.108773 -4.15758 0
M  V30 525 H 51.0265 1.55398 -3.38978 0
M  V30 526 N 53.2116 1.57565 -0.0334293 0
M  V30 527 C 54.4576 1.92262 0.645226 0
M  V30 528 C 54.7906 0.910543 1.71531 0
M  V30 529 O 54.0656 -0.066099 1.94388 0
M  V30 530 C 54.3486 3.37422 1.2577 0
M  V30 531 C 54.2016 4.49369 0.196891 0
M  V30 532 C 55.5206 3.82628 2.17449 0
M  V30 533 H 52.6396 0.699171 0.233085 0
M  V30 534 H 55.2816 1.89779 -0.0915694 0
M  V30 535 H 53.4316 3.39669 1.88566 0
M  V30 536 H 55.1036 4.59254 -0.433962 0
M  V30 537 H 53.3466 4.31168 -0.477137 0
M  V30 538 H 54.0176 5.47978 0.665124 0
M  V30 539 H 56.4936 3.82145 1.64634 0
M  V30 540 H 55.3696 4.84883 2.57254 0
M  V30 541 H 55.6306 3.18376 3.0674 0
M  V30 542 N 54.6897 -0.239769 1.55765 0
M  V30 543 C 55.9667 -0.990056 1.68693 0
M  V30 544 C 56.3467 -2.03107 0.5754 0
M  V30 545 O 55.6947 -2.24604 -0.42017 0
M  V30 546 C 55.9047 -1.61696 3.09282 0
M  V30 547 C 57.2527 -2.11613 3.6811 0
M  V30 548 O 58.2767 -1.71624 3.12127 0
M  V30 549 O 57.1357 -2.85057 4.66267 0
M  V30 550 H 54.2297 -0.461299 0.686391 0
M  V30 551 H 56.7757 -0.232991 1.68093 0
M  V30 552 H 55.5477 -0.864357 3.81634 0
M  V30 553 H 55.1707 -2.44005 3.13923 0
M  V30 554 N 56.1678 -1.49265 -0.50573 0
M  V30 555 C 57.1148 -1.65585 -1.6078 0
M  V30 556 C 58.0848 -0.497396 -1.58478 0
M  V30 557 O 59.2698 -0.72385 -1.76536 0
M  V30 558 C 56.4098 -1.72408 -2.98948 0
M  V30 559 C 55.5228 -2.99525 -3.11301 0
M  V30 560 C 54.6578 -2.97356 -4.40174 0
M  V30 561 C 53.6968 -4.19074 -4.46143 0
M  V30 562 N 52.8338 -4.14841 -5.66437 0
M  V30 563 H 57.6738 -2.59688 -1.46172 0
M  V30 564 H 55.2108 -1.28761 -0.711261 0
M  V30 565 H 57.1688 -1.74344 -3.79025 0
M  V30 566 H 55.7988 -0.817753 -3.1227 0
M  V30 567 H 54.8508 -3.07222 -2.24318 0
M  V30 568 H 56.1628 -3.89518 -3.11572 0
M  V30 569 H 55.3168 -2.97829 -5.28567 0
M  V30 570 H 54.0558 -2.05133 -4.42461 0
M  V30 571 H 53.0608 -4.1885 -3.56153 0
M  V30 572 H 54.2858 -5.12483 -4.45575 0
M  V30 573 H 52.2318 -3.25453 -5.69575 0
M  V30 574 H 52.1488 -4.98564 -5.68304 0
M  V30 575 H 53.4168 -4.1941 -6.57051 0
M  V30 576 N 57.6459 0.756429 -1.3826 0
M  V30 577 C 58.8919 1.51772 -1.34511 0
M  V30 578 C 59.2249 1.94089 0.0656691 0
M  V30 579 O 58.4999 1.65221 1.02626 0
M  V30 580 C 58.7829 2.77226 -2.29821 0
M  V30 581 C 58.6359 2.41065 -3.79747 0
M  V30 582 C 59.9549 3.79236 -2.23312 0
M  V30 583 H 57.0739 0.550578 -0.489931 0
M  V30 584 H 59.7159 0.866607 -1.69086 0
M  V30 585 H 57.8659 3.32784 -2.00467 0
M  V30 586 H 59.5379 1.91303 -4.19763 0
M  V30 587 H 57.7809 1.7356 -3.97567 0
M  V30 588 H 58.4519 3.3081 -4.41892 0
M  V30 589 H 60.9279 3.3321 -2.49219 0
M  V30 590 H 59.8039 4.64714 -2.92116 0
M  V30 591 H 60.0649 4.24615 -1.23102 0
M  V30 592 N 59.124 1.23083 0.984299 0
M  V30 593 C 60.087 1.00979 2.05757 0
M  V30 594 C 61.087 -0.0269573 1.60777 0
M  V30 595 O 62.277 0.212403 1.729 0
M  V30 596 C 59.409 0.527072 3.36801 0
M  V30 597 H 60.602 1.9622 2.26799 0
M  V30 598 H 58.155 1.05072 1.15714 0
M  V30 599 H 58.89 -0.429294 3.21446 0
M  V30 600 H 58.675 1.27515 3.70786 0
M  V30 601 H 60.165 0.392942 4.15747 0
M  V30 602 N 60.6021 -1.18246 1.0419 0
M  V30 603 C 61.5321 -2.24127 0.654914 0
M  V30 604 C 62.5131 -1.66617 -0.342451 0
M  V30 605 O 63.6981 -1.92924 -0.222277 0
M  V30 606 C 60.8281 -3.47295 0.0183757 0
M  V30 607 C 59.7821 -4.17563 0.939414 0
M  V30 608 C 59.1081 -5.34438 0.167286 0
M  V30 609 C 60.4081 -4.70917 2.25908 0
M  V30 610 H 62.1021 -2.56753 1.54007 0
M  V30 611 H 59.6481 -1.23414 0.74195 0
M  V30 612 H 61.6011 -4.20572 -0.264082 0
M  V30 613 H 60.3251 -3.13907 -0.901664 0
M  V30 614 H 58.9841 -3.46186 1.20628 0
M  V30 615 H 58.6321 -4.97298 -0.7552 0
M  V30 616 H 58.3321 -5.82388 0.780901 0
M  V30 617 H 59.8561 -6.10504 -0.108125 0
M  V30 618 H 61.2701 -5.35882 2.03724 0
M  V30 619 H 59.6671 -5.29406 2.82577 0
M  V30 620 H 60.7371 -3.88272 2.9047 0
M  V30 621 N 62.0802 -0.821533 -1.34494 0
M  V30 622 C 63.4962 -0.507117 -1.51329 0
M  V30 623 C 63.6962 0.968964 -1.76673 0
M  V30 624 O 62.7522 1.75348 -1.81685 0
M  V30 625 C 64.0652 -1.36544 -2.67911 0
M  V30 626 C 65.6132 -1.36242 -2.81793 0
M  V30 627 C 66.0882 -2.2052 -4.01416 0
M  V30 628 N 67.5792 -2.18136 -4.08621 0
M  V30 629 C 68.3142 -2.80095 -5.00334 0
M  V30 630 N 67.8102 -3.51039 -5.9728 0
M  V30 631 N 69.6032 -2.69656 -4.93196 0
M  V30 632 H 61.7542 -1.77729 -1.16302 0
M  V30 633 H 64.0172 -0.757291 -0.570276 0
M  V30 634 H 63.7232 -2.41361 -2.55808 0
M  V30 635 H 63.5972 -1.02917 -3.62888 0
M  V30 636 H 65.9842 -0.322041 -2.93338 0
M  V30 637 H 66.0652 -1.73866 -1.87628 0
M  V30 638 H 65.7092 -3.24607 -3.90631 0
M  V30 639 H 65.6392 -1.80247 -4.94791 0
M  V30 640 H 68.1302 -1.6653 -3.39229 0
M  V30 641 H 68.4432 -3.95565 -6.63889 0
M  V30 642 H 66.7882 -3.55145 -5.97409 0
M  V30 643 H 69.9792 -2.13808 -4.16418 0
M  V30 644 H 70.1522 -3.1823 -5.64476 0
M  V30 645 N 63.5583 1.46682 -0.576371 0
M  V30 646 C 64.7863 2.06798 -0.0649635 0
M  V30 647 C 65.2013 1.42612 1.23723 0
M  V30 648 O 64.5583 0.529203 1.74659 0
M  V30 649 C 64.6093 3.6132 0.114202 0
M  V30 650 O 64.3303 4.23104 -1.13644 0
M  V30 651 C 65.8313 4.38349 0.66069 0
M  V30 652 H 63.0513 0.668778 -0.0545616 0
M  V30 653 H 65.5953 1.88404 -0.795237 0
M  V30 654 H 63.7503 3.79162 0.794673 0
M  V30 655 H 64.1643 5.15894 -0.946253 0
M  V30 656 H 65.6383 5.47081 0.73526 0
M  V30 657 H 66.1153 4.05953 1.67627 0
M  V30 658 H 66.7213 4.25297 0.0152951 0
M  V30 659 N 65.0364 0.313813 1.54444 0
M  V30 660 C 65.9694 -0.598866 2.20202 0
M  V30 661 C 66.9474 -1.12318 1.17573 0
M  V30 662 O 68.1314 -1.18899 1.46271 0
M  V30 663 C 65.2584 -1.82071 2.85601 0
M  V30 664 C 64.3044 -1.42851 4.01865 0
M  V30 665 S 65.1374 -0.473512 5.33402 0
M  V30 666 C 66.2934 -1.70286 6.0229 0
M  V30 667 H 66.5264 -0.0402532 2.97273 0
M  V30 668 H 64.0594 0.0979165 1.54089 0
M  V30 669 H 66.0174 -2.52184 3.23904 0
M  V30 670 H 64.6784 -2.3505 2.08351 0
M  V30 671 H 63.8714 -2.33871 4.46453 0
M  V30 672 H 63.4734 -0.807198 3.65185 0
M  V30 673 H 65.7654 -2.64168 6.23876 0
M  V30 674 H 66.7084 -1.29932 6.96077 0
M  V30 675 H 67.1164 -1.88541 5.32083 0
M  V30 676 N 66.5145 -1.57545 0.0417849 0
M  V30 677 C 67.9255 -1.80011 -0.495259 0
M  V30 678 C 68.2765 -0.953199 -1.71489 0
M  V30 679 O 67.4015 -0.167138 -2.15754 0
M  V30 680 C 67.9965 -3.26482 -0.905265 0
M  V30 681 C 66.5555 -3.499 -1.38734 0
M  V30 682 C 65.7025 -2.74979 -0.358056 0
M  V30 683 H 68.6535 -1.56425 0.267736 0
M  V30 684 H 68.6745 -3.36887 -1.76882 0
M  V30 685 H 68.1865 -3.88096 -0.017401 0
M  V30 686 H 66.2875 -2.93553 -2.29471 0
M  V30 687 H 66.4005 -4.58615 -1.38598 0
M  V30 688 H 64.7645 -2.40834 -0.828912 0
M  V30 689 H 65.5475 -3.39315 0.521561 0
M  V30 690 N 67.9926 0.231505 -1.5589 0
M  V30 691 C 68.9556 1.27028 -1.90779 0
M  V30 692 C 69.9556 1.40308 -0.785507 0
M  V30 693 O 71.1456 1.38744 -1.05336 0
M  V30 694 C 68.2776 2.64566 -2.14983 0
M  V30 695 H 69.4706 0.973017 -2.83677 0
M  V30 696 H 67.0236 0.471486 -1.49019 0
M  V30 697 H 67.7586 2.99406 -1.24604 0
M  V30 698 H 67.5436 2.56305 -2.96732 0
M  V30 699 H 69.0336 3.39543 -2.43105 0
M  V30 700 N 69.4707 1.49531 0.497807 0
M  V30 701 C 70.7167 1.59415 1.25358 0
M  V30 702 C 71.0497 0.281422 1.9215 0
M  V30 703 O 70.3247 -0.715249 1.80871 0
M  V30 704 C 70.6077 2.75566 2.3181 0
M  V30 705 C 70.4607 4.16642 1.69498 0
M  V30 706 C 71.7797 2.87347 3.33346 0
M  V30 707 H 68.8987 0.580244 0.454408 0
M  V30 708 H 71.5407 1.81827 0.551262 0
M  V30 709 H 69.6907 2.56587 2.91711 0
M  V30 710 H 71.3627 4.47145 1.13399 0
M  V30 711 H 69.6057 4.22141 0.998978 0
M  V30 712 H 70.2767 4.93792 2.46725 0
M  V30 713 H 72.7527 3.04634 2.83438 0
M  V30 714 H 71.6287 3.70289 4.05188 0
M  V30 715 H 71.8897 1.96834 3.95865 0
M  V30 716 N 70.9488 -0.749086 1.3866 0
M  V30 717 C 72.2258 -1.4992 1.25632 0
M  V30 718 C 72.6058 -2.10633 -0.140317 0
M  V30 719 O 71.9538 -1.97437 -1.15025 0
M  V30 720 C 72.1638 -2.56195 2.36992 0
M  V30 721 C 73.5118 -3.22972 2.75634 0
M  V30 722 O 74.5358 -2.66502 2.36337 0
M  V30 723 O 73.3948 -4.25122 3.43415 0
M  V30 724 H 70.4888 -0.665067 0.491544 0
M  V30 725 H 73.0348 -0.784113 1.50498 0
M  V30 726 H 71.8068 -2.09612 3.30422 0
M  V30 727 H 71.4298 -3.35279 2.13714 0
M  V30 728 N 72.4269 -1.23603 -0.977757 0
M  V30 729 C 73.6729 -1.07129 -1.72195 0
M  V30 730 C 74.0059 0.390501 -1.90233 0
M  V30 731 O 73.2809 1.28902 -1.45653 0
M  V30 732 C 73.5639 -1.80031 -3.11867 0
M  V30 733 C 73.4169 -3.33899 -3.01383 0
M  V30 734 C 74.7359 -1.56492 -4.11337 0
M  V30 735 H 71.8549 -0.390571 -0.624999 0
M  V30 736 H 74.4969 -1.52142 -1.13811 0
M  V30 737 H 72.6469 -1.41768 -3.6171 0
M  V30 738 H 74.3189 -3.81699 -2.59043 0
M  V30 739 H 72.5619 -3.62796 -2.37827 0
M  V30 740 H 73.2329 -3.801 -4.00285 0
M  V30 741 H 75.7089 -1.89757 -3.70313 0
M  V30 742 H 74.5849 -2.09973 -5.07151 0
M  V30 743 H 74.8459 -0.500874 -4.39254 0
M  V30 744 N 73.905 1.17692 -1.04816 0
M  V30 745 C 74.868 2.19787 -0.650117 0
M  V30 746 C 75.868 1.58044 0.296427 0
M  V30 747 O 77.058 1.74012 0.0808097 0
M  V30 748 C 74.19 3.40869 0.0456987 0
M  V30 749 H 75.383 2.56516 -1.5537 0
M  V30 750 H 72.936 1.31708 -0.841594 0
M  V30 751 H 73.671 3.09681 0.962726 0
M  V30 752 H 73.456 3.86928 -0.634727 0
M  V30 753 H 74.946 4.16445 0.310432 0
M  V30 754 N 75.3831 0.828654 1.34056 0
M  V30 755 C 76.3301 0.252567 2.29414 0
M  V30 756 C 77.3001 -0.62588 1.53857 0
M  V30 757 O 78.4851 -0.566312 1.82202 0
M  V30 758 C 75.6251 -0.574831 3.40279 0
M  V30 759 C 74.7381 0.326499 4.30764 0
M  V30 760 C 73.8731 -0.511016 5.28736 0
M  V30 761 C 72.9121 0.389342 6.1086 0
M  V30 762 N 72.0491 -0.409439 7.00905 0
M  V30 763 H 76.8891 1.07108 2.78086 0
M  V30 764 H 74.4261 0.539677 1.36843 0
M  V30 765 H 76.3841 -1.06992 4.03248 0
M  V30 766 H 75.0141 -1.35841 2.92826 0
M  V30 767 H 74.0661 0.939837 3.68607 0
M  V30 768 H 75.3781 1.01857 4.88289 0
M  V30 769 H 74.5321 -1.07035 5.97184 0
M  V30 770 H 73.2711 -1.23657 4.71763 0
M  V30 771 H 72.2761 0.960769 5.4134 0
M  V30 772 H 73.5011 1.1131 6.69916 0
M  V30 773 H 71.4471 -1.11856 6.46393 0
M  V30 774 H 71.3641 0.224126 7.55668 0
M  V30 775 H 72.6321 -0.951336 7.73673 0
M  V30 776 N 76.8612 -1.46375 0.584142 0
M  V30 777 C 77.8242 -2.28784 -0.138108 0
M  V30 778 C 78.8242 -1.38471 -0.817462 0
M  V30 779 O 80.0142 -1.60833 -0.669199 0
M  V30 780 C 77.1462 -3.18892 -1.20503 0
M  V30 781 H 78.3392 -2.94117 0.586127 0
M  V30 782 H 75.8922 -1.52509 0.342171 0
M  V30 783 H 76.6272 -2.58309 -1.96079 0
M  V30 784 H 76.4122 -3.85388 -0.722384 0
M  V30 785 H 77.9022 -3.80914 -1.71155 0
M  V30 786 N 78.3393 -0.321999 -1.54275 0
M  V30 787 C 79.2863 0.544664 -2.24281 0
M  V30 788 C 80.2563 1.1129 -1.23303 0
M  V30 789 O 81.4413 1.15354 -1.51981 0
M  V30 790 C 78.5813 1.70045 -3.00298 0
M  V30 791 C 77.6943 1.16159 -4.1609 0
M  V30 792 C 76.8293 2.28293 -4.79641 0
M  V30 793 C 75.8683 1.71648 -5.8754 0
M  V30 794 N 75.0053 2.77438 -6.44959 0
M  V30 795 H 79.8453 -0.0588907 -2.97942 0
M  V30 796 H 77.3823 -0.0408345 -1.47043 0
M  V30 797 H 79.3403 2.38054 -3.42616 0
M  V30 798 H 77.9703 2.27531 -2.28975 0
M  V30 799 H 77.0223 0.373092 -3.78566 0
M  V30 800 H 78.3343 0.707087 -4.93763 0
M  V30 801 H 77.4883 3.0421 -5.2492 0
M  V30 802 H 76.2273 2.77079 -4.01346 0
M  V30 803 H 75.2323 0.942282 -5.41665 0
M  V30 804 H 76.4573 1.23741 -6.67731 0
M  V30 805 H 74.4033 3.25519 -5.69538 0
M  V30 806 H 74.3203 2.36547 -7.1804 0
M  V30 807 H 75.5883 3.53189 -6.94894 0
M  V30 808 N 79.8174 1.5752 -0.0501392 0
M  V30 809 C 80.7804 2.1037 0.909786 0
M  V30 810 C 81.7804 1.02308 1.24056 0
M  V30 811 O 82.9704 1.28385 1.17741 0
M  V30 812 C 80.1024 2.58708 2.21998 0
M  V30 813 H 81.2954 2.96479 0.451665 0
M  V30 814 H 78.8484 1.55038 0.198248 0
M  V30 815 H 79.5834 1.75989 2.72394 0
M  V30 816 H 79.3684 3.37675 1.99295 0
M  V30 817 H 80.8584 2.99747 2.9076 0
M  V30 818 N 81.2955 -0.223234 1.56011 0
M  V30 819 C 82.2055 -1.29766 1.95443 0
M  V30 820 C 83.2215 -1.51373 0.858028 0
M  V30 821 O 84.3975 -1.64536 1.16146 0
M  V30 822 C 81.4625 -2.62772 2.26167 0
M  V30 823 C 80.5235 -2.49482 3.49367 0
M  V30 824 C 79.7565 -3.76145 3.78616 0
M  V30 825 O 79.9795 -4.79087 3.09568 0
M  V30 826 O 78.9135 -3.73358 4.72109 0
M  V30 827 H 82.7395 -0.99309 2.87004 0
M  V30 828 H 80.3245 -0.425958 1.43199 0
M  V30 829 H 82.2065 -3.41327 2.47131 0
M  V30 830 H 80.8815 -2.92913 1.37781 0
M  V30 831 H 79.7885 -1.69133 3.33684 0
M  V30 832 H 81.1215 -2.2428 4.38131 0
M  V30 833 N 82.7736 -1.49793 -0.48987 0
M  V30 834 C 84.0506 -1.50348 -1.25119 0
M  V30 835 C 84.4306 -0.237466 -2.0976 0
M  V30 836 O 83.7786 0.77981 -2.14782 0
M  V30 837 C 83.9886 -2.78872 -2.09837 0
M  V30 838 C 85.3366 -3.288 -2.68655 0
M  V30 839 O 86.3606 -2.80065 -2.20096 0
M  V30 840 O 85.2196 -4.13707 -3.57083 0
M  V30 841 H 82.3136 -0.602242 -0.566775 0
M  V30 842 H 84.8596 -1.62067 -0.503229 0
M  V30 843 H 83.6316 -3.62499 -1.47343 0
M  V30 844 H 83.2546 -2.70066 -2.91805 0
M  V30 845 N 84.2517 0.741722 -1.39055 0
M  V30 846 C 85.1817 1.869 -1.39966 0
M  V30 847 C 86.1627 1.6804 -0.26392 0
M  V30 848 O 87.3477 1.88458 -0.468755 0
M  V30 849 C 84.4777 3.24572 -1.23574 0
M  V30 850 C 83.4317 3.58056 -2.34477 0
M  V30 851 C 82.7577 4.94593 -2.0318 0
M  V30 852 C 84.0577 3.61716 -3.76774 0
M  V30 853 H 85.7517 1.86395 -2.34302 0
M  V30 854 H 83.2977 0.895361 -1.1278 0
M  V30 855 H 85.2507 4.031 -1.22834 0
M  V30 856 H 83.9747 3.25587 -0.257045 0
M  V30 857 H 82.6337 2.81854 -2.34423 0
M  V30 858 H 82.2817 4.92181 -1.03765 0
M  V30 859 H 81.9817 5.17964 -2.77465 0
M  V30 860 H 83.5057 5.75486 -2.04079 0
M  V30 861 H 84.9197 4.30335 -3.78794 0
M  V30 862 H 83.3167 3.96603 -4.50362 0
M  V30 863 H 84.3867 2.61672 -4.08235 0
M  V30 864 N 85.7298 1.2412 0.971189 0
M  V30 865 C 86.6618 0.988349 2.06795 0
M  V30 866 C 87.6748 -0.0409541 1.62748 0
M  V30 867 O 88.8638 0.195673 1.77424 0
M  V30 868 C 85.9638 0.469023 3.35639 0
M  V30 869 C 85.1368 1.56065 4.08611 0
M  V30 870 C 84.1958 1.04458 5.15728 0
M  V30 871 O 83.2218 1.73553 5.42096 0
M  V30 872 N 84.4238 -0.122817 5.8037 0
M  V30 873 H 87.1888 1.93265 2.29061 0
M  V30 874 H 84.7498 1.15102 1.13856 0
M  V30 875 H 86.7418 0.108613 4.04554 0
M  V30 876 H 85.3118 -0.380919 3.1027 0
M  V30 877 H 84.5318 2.09341 3.34021 0
M  V30 878 H 85.8198 2.29449 4.54126 0
M  V30 879 H 85.2178 -0.700563 5.61345 0
M  V30 880 H 83.7748 -0.424404 6.50417 0
M  V30 881 N 87.2079 -1.17134 1.05439 0
M  V30 882 C 88.6239 -1.39454 0.776201 0
M  V30 883 C 88.8239 -1.91454 -0.628307 0
M  V30 884 O 87.8799 -2.10777 -1.39031 0
M  V30 885 C 89.1929 -2.38305 1.83388 0
M  V30 886 C 90.7409 -2.52006 1.85639 0
M  V30 887 C 91.2159 -3.54133 2.90437 0
M  V30 888 N 92.7069 -3.61653 2.89415 0
M  V30 889 C 93.4419 -4.4044 3.67152 0
M  V30 890 N 92.9379 -5.22721 4.54681 0
M  V30 891 N 94.7309 -4.35337 3.55581 0
M  V30 892 H 86.8819 -0.817134 1.96053 0
M  V30 893 H 89.1449 -0.421626 0.849079 0
M  V30 894 H 88.8509 -2.07173 2.84204 0
M  V30 895 H 88.7249 -3.37841 1.67761 0
M  V30 896 H 91.1119 -2.82447 0.85486 0
M  V30 897 H 91.1929 -1.52537 2.05344 0
M  V30 898 H 90.8369 -3.24431 3.90777 0
M  V30 899 H 90.7669 -4.53313 2.67983 0
M  V30 900 H 93.2579 -3.02909 2.25952 0
M  V30 901 H 93.5709 -5.80027 5.10674 0
M  V30 902 H 91.9159 -5.22093 4.58741 0
M  V30 903 H 95.1069 -3.70112 2.86592 0
M  V30 904 H 95.2799 -4.96494 4.1641 0
M  V30 905 N 88.686 -0.835752 -1.33615 0
M  V30 906 C 89.963 -0.352017 -1.92406 0
M  V30 907 C 90.343 1.16225 -1.76224 0
M  V30 908 O 89.691 1.97526 -1.14873 0
M  V30 909 C 89.901 -0.795485 -3.39813 0
M  V30 910 C 91.249 -0.801703 -4.16963 0
M  V30 911 O 92.273 -0.738889 -3.48452 0
M  V30 912 O 91.132 -0.886607 -5.3926 0
M  V30 913 H 88.226 -0.0989641 -0.821057 0
M  V30 914 H 90.772 -0.921397 -1.42507 0
M  V30 915 H 89.544 -1.83795 -3.45449 0
M  V30 916 H 89.167 -0.202505 -3.97084 0
M  V30 917 N 90.1641 1.46063 -0.591896 0
M  V30 918 C 91.1111 2.30399 0.136069 0
M  V30 919 C 92.0811 1.41169 0.875238 0
M  V30 920 O 93.2661 1.70112 0.86409 0
M  V30 921 C 90.4061 3.25804 1.13781 0
M  V30 922 C 89.5191 4.30134 0.401137 0
M  V30 923 C 88.6541 5.12659 1.39121 0
M  V30 924 C 87.6931 6.0873 0.641462 0
M  V30 925 N 86.8301 6.8409 1.58004 0
M  V30 926 H 91.6701 2.92118 -0.589144 0
M  V30 927 H 89.2071 1.43959 -0.302342 0
M  V30 928 H 91.1651 3.79569 1.73156 0
M  V30 929 H 89.7951 2.65872 1.83062 0
M  V30 930 H 88.8471 3.79152 -0.307826 0
M  V30 931 H 90.1591 4.98458 -0.184565 0
M  V30 932 H 89.3131 5.70747 2.05749 0
M  V30 933 H 88.0521 4.44316 2.01084 0
M  V30 934 H 87.0571 5.49786 -0.0385419 0
M  V30 935 H 88.2821 6.79095 0.0270945 0
M  V30 936 H 86.2281 6.18449 2.18761 0
M  V30 937 H 86.1451 7.48709 1.04738 0
M  V30 938 H 87.4131 7.4673 2.23639 0
M  V30 939 N 91.6422 0.330177 1.54103 0
M  V30 940 C 93.0582 -0.0222371 1.59585 0
M  V30 941 C 93.2582 -1.49902 1.34654 0
M  V30 942 O 92.3142 -2.25592 1.13421 0
M  V30 943 C 93.6272 0.401932 2.98002 0
M  V30 944 C 95.1752 0.353145 3.11001 0
M  V30 945 C 95.6502 0.752576 4.51775 0
M  V30 946 N 97.1412 0.706239 4.57784 0
M  V30 947 C 97.8762 0.987417 5.64834 0
M  V30 948 N 97.3722 1.33607 6.79795 0
M  V30 949 N 99.1652 0.91254 5.54643 0
M  V30 950 H 91.3162 1.29228 1.68564 0
M  V30 951 H 93.5792 0.525906 0.78875 0
M  V30 952 H 93.2852 1.4311 3.21267 0
M  V30 953 H 93.1592 -0.229699 3.765 0
M  V30 954 H 95.5462 -0.666822 2.87467 0
M  V30 955 H 95.6272 1.0198 2.34593 0
M  V30 956 H 95.2712 1.77049 4.76042 0
M  V30 957 H 95.2012 0.0635409 5.26562 0
M  V30 958 H 97.6922 0.44889 3.75224 0
M  V30 959 H 98.0052 1.53582 7.57385 0
M  V30 960 H 96.3502 1.37439 6.81275 0
M  V30 961 H 99.5412 0.639601 4.6371 0
M  V30 962 H 99.7142 1.13503 6.37982 0
M  V30 963 N 93.1203 -1.57491 0.0584922 0
M  V30 964 C 94.3683 -1.92597 -0.612436 0
M  V30 965 C 94.6893 -0.938162 -1.70949 0
M  V30 966 O 93.9593 0.0158301 -1.95894 0
M  V30 967 H 92.5393 -0.710964 -0.229214 0
M  V30 968 H 95.2013 -1.94571 0.113218 0
M  V30 969 H 94.2973 -2.94038 -1.04633 0
M  V30 970 N 94.5984 0.214957 -1.56127 0
M  V30 971 C 95.8754 0.963093 -1.70247 0
M  V30 972 C 96.2554 2.02166 -0.60764 0
M  V30 973 O 95.6034 2.25244 0.384385 0
M  V30 974 C 95.8134 1.56756 -3.11815 0
M  V30 975 C 97.1614 2.0573 -3.7143 0
M  V30 976 O 98.1854 1.66637 -3.14818 0
M  V30 977 O 97.0444 2.77603 -4.70743 0
M  V30 978 H 94.1384 0.450321 -0.693643 0
M  V30 979 H 96.6844 0.206219 -1.68442 0
M  V30 980 H 95.4564 0.803533 -3.82961 0
M  V30 981 H 95.0794 2.3898 -3.17765 0
M  V30 982 N 96.0765 1.50051 0.48192 0
M  V30 983 C 97.3255 1.59741 1.23149 0
M  V30 984 C 97.6385 0.298163 1.93314 0
M  V30 985 O 98.8445 0.273835 2.70116 0
M  V30 986 C 97.3005 2.81926 2.23708 0
M  V30 987 C 96.9085 4.18685 1.59396 0
M  V30 988 C 98.6525 3.00956 2.99375 0
M  V30 989 C 96.5595 5.3207 2.58178 0
M  V30 990 H 95.4895 0.594838 0.46334 0
M  V30 991 H 98.1405 1.76467 0.503169 0
M  V30 992 H 96.5225 2.58736 2.99786 0
M  V30 993 H 97.6965 4.52088 0.891811 0
M  V30 994 H 96.0115 4.05171 0.960503 0
M  V30 995 H 98.6085 3.82836 3.73283 0
M  V30 996 H 98.9515 2.12258 3.58123 0
M  V30 997 H 99.4845 3.24277 2.30411 0
M  V30 998 H 96.2235 6.22888 2.04184 0
M  V30 999 H 95.7435 5.03098 3.26577 0
M  V30 1000 H 97.4225 5.62196 3.20225 0
M  V30 1001 N 97.5546 -0.734337 1.39446 0
M  V30 1002 C 98.9656 -1.31264 1.32766 0
M  V30 1003 C 99.3166 -1.96198 -0.00767497 0
M  V30 1004 O 98.4416 -1.96346 -0.909796 0
M  V30 1005 C 99.0366 -2.38682 2.4045 0
M  V30 1006 C 97.5956 -2.92184 2.37288 0
M  V30 1007 C 96.7426 -1.6576 2.22304 0
M  V30 1008 H 99.6936 -0.531799 1.49525 0
M  V30 1009 H 99.7146 -3.19087 2.07276 0
M  V30 1010 H 99.2266 -1.91392 3.37625 0
M  V30 1011 H 97.3276 -3.43752 1.43754 0
M  V30 1012 H 97.4406 -3.45253 3.3217 0
M  V30 1013 H 95.8046 -1.9012 1.69489 0
M  V30 1014 H 96.5876 -1.20521 3.21449 0
M  V30 1015 N 99.0327 -1.24633 -0.964593 0
M  V30 1016 C 100.449 -1.01239 -1.2338 0
M  V30 1017 C 100.649 0.2769 -1.99588 0
M  V30 1018 O 99.7047 0.992241 -2.32187 0
M  V30 1019 C 101.018 -2.22937 -2.01791 0
M  V30 1020 C 102.566 -2.27594 -2.14872 0
M  V30 1021 C 103.041 -3.48921 -2.96678 0
M  V30 1022 N 104.532 -3.49257 -3.04259 0
M  V30 1023 C 105.267 -4.39795 -3.67924 0
M  V30 1024 N 104.763 -5.40591 -4.33281 0
M  V30 1025 N 106.556 -4.275 -3.64966 0
M  V30 1026 H 98.7067 -2.0748 -0.454502 0
M  V30 1027 H 100.97 -0.910647 -0.26349 0
M  V30 1028 H 100.676 -3.16587 -1.53184 0
M  V30 1029 H 100.55 -2.25306 -3.02518 0
M  V30 1030 H 102.937 -1.34473 -2.6268 0
M  V30 1031 H 103.018 -2.2925 -1.13482 0
M  V30 1032 H 102.662 -4.42359 -2.49562 0
M  V30 1033 H 102.592 -3.4451 -3.98272 0
M  V30 1034 H 105.083 -2.76337 -2.57771 0
M  V30 1035 H 105.396 -6.05904 -4.79687 0
M  V30 1036 H 103.741 -5.44475 -4.3194 0
M  V30 1037 H 106.932 -3.47987 -3.13086 0
M  V30 1038 H 107.105 -4.98258 -4.14298 0
M  V30 1039 N 100.511 1.16574 -1.06058 0
M  V30 1040 C 101.758 1.87047 -0.775873 0
M  V30 1041 C 102.086 1.81562 0.697534 0
M  V30 1042 O 101.341 1.22445 1.52662 0
M  V30 1043 C 101.64 3.36195 -1.21275 0
M  V30 1044 C 101.306 3.6188 -2.68986 0
M  V30 1045 C 99.9678 3.68599 -3.09335 0
M  V30 1046 C 102.32 3.72648 -3.64394 0
M  V30 1047 C 99.6478 3.83584 -4.43937 0
M  V30 1048 C 102 3.89154 -4.98741 0
M  V30 1049 C 100.664 3.94114 -5.3873 0
M  V30 1050 H 99.9338 0.684452 -0.283912 0
M  V30 1051 H 102.581 1.37853 -1.32925 0
M  V30 1052 H 100.886 3.87505 -0.578528 0
M  V30 1053 H 102.583 3.89103 -0.969542 0
M  V30 1054 H 99.1728 3.57281 -2.36744 0
M  V30 1055 H 103.357 3.66769 -3.34356 0
M  V30 1056 H 98.6128 3.85677 -4.74409 0
M  V30 1057 H 102.787 3.96427 -5.72554 0
M  V30 1058 H 100.414 4.05478 -6.43033 0
M  V30 1059 N 101.989 0.842826 1.3317 0
M  V30 1060 C 102.952 0.284065 2.27433 0
M  V30 1061 C 103.952 -0.54948 1.5112 0
M  V30 1062 O 105.142 -0.362699 1.70382 0
M  V30 1063 C 102.274 -0.599384 3.35589 0
M  V30 1064 H 103.467 1.11589 2.78366 0
M  V30 1065 H 101.02 0.616221 1.4364 0
M  V30 1066 H 101.755 -1.45349 2.89904 0
M  V30 1067 H 101.54 -0.00291266 3.921 0
M  V30 1068 H 103.03 -0.983488 4.05854 0
M  V30 1069 N 103.467 -1.45747 0.599634 0
M  V30 1070 C 104.397 -2.33235 -0.111306 0
M  V30 1071 C 105.378 -1.46359 -0.866781 0
M  V30 1072 O 106.563 -1.75146 -0.838904 0
M  V30 1073 C 103.693 -3.28932 -1.11451 0
M  V30 1074 C 102.647 -4.25381 -0.472772 0
M  V30 1075 C 101.973 -5.1071 -1.58365 0
M  V30 1076 C 103.273 -5.18831 0.600948 0
M  V30 1077 H 104.967 -2.92927 0.61919 0
M  V30 1078 H 102.513 -1.40857 0.299215 0
M  V30 1079 H 104.466 -3.89002 -1.62036 0
M  V30 1080 H 103.19 -2.67381 -1.8755 0
M  V30 1081 H 101.849 -3.66598 0.0121472 0
M  V30 1082 H 101.497 -4.45533 -2.33473 0
M  V30 1083 H 101.197 -5.7604 -1.15982 0
M  V30 1084 H 102.721 -5.73647 -2.09194 0
M  V30 1085 H 104.135 -5.73019 0.179491 0
M  V30 1086 H 102.532 -5.92595 0.946076 0
M  V30 1087 H 103.602 -4.6174 1.48068 0
M  V30 1088 N 104.945 -0.338344 -1.53925 0
M  V30 1089 C 105.908 0.508299 -2.23493 0
M  V30 1090 C 106.908 1.03175 -1.23335 0
M  V30 1091 O 108.098 0.921826 -1.47811 0
M  V30 1092 C 105.23 1.70754 -2.95052 0
M  V30 1093 H 106.423 -0.100058 -2.99733 0
M  V30 1094 H 103.976 -0.0896198 -1.56043 0
M  V30 1095 H 104.711 2.35474 -2.22986 0
M  V30 1096 H 104.496 1.33946 -3.68512 0
M  V30 1097 H 105.986 2.30818 -3.48013 0
M  V30 1098 N 106.423 1.57458 -0.0668435 0
M  V30 1099 C 107.672 1.92477 0.602947 0
M  V30 1100 C 107.985 0.948419 1.71068 0
M  V30 1101 O 109.191 1.19124 2.43971 0
M  V30 1102 C 107.647 3.41903 1.12383 0
M  V30 1103 C 107.255 4.47975 0.04737 0
M  V30 1104 C 108.999 3.85931 1.76797 0
M  V30 1105 C 106.906 5.88529 0.582022 0
M  V30 1106 H 105.836 0.718387 0.22899 0
M  V30 1107 H 108.487 1.82978 -0.138276 0
M  V30 1108 H 106.869 3.46459 1.91787 0
M  V30 1109 H 108.043 4.55029 -0.726978 0
M  V30 1110 H 106.358 4.13384 -0.500243 0
M  V30 1111 H 108.955 4.88322 2.17821 0
M  V30 1112 H 109.298 3.23029 2.62599 0
M  V30 1113 H 109.831 3.83958 1.04024 0
M  V30 1114 H 106.57 6.55065 -0.238721 0
M  V30 1115 H 106.09 5.85004 1.324 0
M  V30 1116 H 107.769 6.38258 1.05999 0
M  V30 1117 N 107.901 -0.206675 1.56239 0
M  V30 1118 C 109.178 -0.954051 1.70755 0
M  V30 1119 C 109.558 -2.01841 0.618353 0
M  V30 1120 O 108.906 -2.25444 -0.372434 0
M  V30 1121 C 109.116 -1.551 3.12642 0
M  V30 1122 C 110.464 -2.03757 3.72516 0
M  V30 1123 O 111.488 -1.64965 3.15698 0
M  V30 1124 O 110.347 -2.75103 4.72208 0
M  V30 1125 H 107.441 -0.446636 0.696021 0
M  V30 1126 H 109.987 -0.197283 1.68549 0
M  V30 1127 H 108.759 -0.783212 3.83382 0
M  V30 1128 H 108.382 -2.37291 3.19028 0
M  V30 1129 N 109.379 -1.50304 -0.473955 0
M  V30 1130 C 110.625 -1.61389 -1.22806 0
M  V30 1131 C 110.958 -0.311955 -1.91678 0
M  V30 1132 O 110.233 0.686384 -1.81986 0
M  V30 1133 C 110.516 -2.79219 -2.27396 0
M  V30 1134 C 110.369 -4.19286 -1.62848 0
M  V30 1135 C 111.688 -2.92614 -3.28732 0
M  V30 1136 H 108.807 -0.587399 -0.445119 0
M  V30 1137 H 111.449 -1.82681 -0.522265 0
M  V30 1138 H 109.599 -2.61195 -2.87592 0
M  V30 1139 H 111.271 -4.48892 -1.06271 0
M  V30 1140 H 109.514 -4.23677 -0.931693 0
M  V30 1141 H 110.185 -4.97655 -2.38838 0
M  V30 1142 H 112.661 -3.09105 -2.78556 0
M  V30 1143 H 111.537 -3.76688 -3.99246 0
M  V30 1144 H 111.798 -2.03107 -3.92683 0
M  V30 1145 N 110.857 0.726932 -1.39834 0
M  V30 1146 C 112.134 1.47902 -1.28001 0
M  V30 1147 C 112.514 2.1083 0.106789 0
M  V30 1148 O 111.862 1.99242 1.11869 0
M  V30 1149 C 112.072 2.52392 -2.41038 0
M  V30 1150 C 113.42 3.18546 -2.80737 0
M  V30 1151 O 114.444 2.62708 -2.40547 0
M  V30 1152 O 113.303 4.19604 -3.50135 0
M  V30 1153 H 110.397 0.657163 -0.502062 0
M  V30 1154 H 112.943 0.760071 -1.51727 0
M  V30 1155 H 111.715 2.04329 -3.33715 0
M  V30 1156 H 111.338 3.31837 -2.19021 0
M  V30 1157 N 112.336 1.25143 0.95797 0
M  V30 1158 C 113.269 0.995565 2.05338 0
M  V30 1159 C 114.247 -0.0740423 1.62431 0
M  V30 1160 O 115.431 0.0649212 1.88388 0
M  V30 1161 C 112.558 0.504298 3.34925 0
M  V30 1162 C 111.604 1.56393 3.96792 0
M  V30 1163 S 112.437 3.14815 4.33188 0
M  V30 1164 C 113.593 2.67415 5.65898 0
M  V30 1165 H 113.826 1.92309 2.26726 0
M  V30 1166 H 111.359 1.08635 1.09716 0
M  V30 1167 H 113.317 0.227497 4.09869 0
M  V30 1168 H 111.978 -0.402671 3.11508 0
M  V30 1169 H 111.171 1.17082 4.90212 0
M  V30 1170 H 110.773 1.79124 3.28315 0
M  V30 1171 H 113.065 2.10833 6.4386 0
M  V30 1172 H 114.008 3.59463 6.10076 0
M  V30 1173 H 114.416 2.07521 5.24972 0
M  V30 1174 N 113.814 -1.1601 1.06675 0
M  V30 1175 C 115.042 -1.90527 0.806667 0
M  V30 1176 C 115.457 -1.77643 -0.639396 0
M  V30 1177 O 114.814 -1.12369 -1.43803 0
M  V30 1178 C 114.865 -3.41106 1.19705 0
M  V30 1179 O 114.586 -3.53608 2.58636 0
M  V30 1180 C 116.087 -4.32663 0.965266 0
M  V30 1181 H 113.307 -0.604053 0.292166 0
M  V30 1182 H 115.851 -1.47026 1.4214 0
M  V30 1183 H 114.006 -3.82296 0.626774 0
M  V30 1184 H 114.42 -4.47011 2.74375 0
M  V30 1185 H 115.894 -5.36763 1.288 0
M  V30 1186 H 116.371 -4.39089 -0.0987936 0
M  V30 1187 H 116.977 -3.97206 1.52011 0
M  V30 1188 N 115.292 -0.849877 -1.32721 0
M  V30 1189 C 116.703 -0.506188 -1.79707 0
M  V30 1190 C 117.054 0.975627 -1.70223 0
M  V30 1191 O 116.179 1.76078 -1.25799 0
M  V30 1192 C 116.774 -0.912044 -3.26293 0
M  V30 1193 C 115.333 -0.620326 -3.71253 0
M  V30 1194 C 114.48 -1.11439 -2.53922 0
M  V30 1195 H 117.431 -1.03754 -1.20087 0
M  V30 1196 H 117.452 -0.226493 -3.79825 0
M  V30 1197 H 116.964 -1.99057 -3.33164 0
M  V30 1198 H 115.065 0.447674 -3.69901 0
M  V30 1199 H 115.178 -1.18327 -4.64258 0
M  V30 1200 H 113.542 -0.534834 -2.49021 0
M  V30 1201 H 114.325 -2.19992 -2.6355 0
M  V30 1202 N 116.77 1.45427 -0.607355 0
M  V30 1203 C 117.702 2.2871 0.149752 0
M  V30 1204 C 118.715 1.39937 0.831958 0
M  V30 1205 O 119.904 1.64313 0.697385 0
M  V30 1206 C 117.004 3.15673 1.23304 0
M  V30 1207 C 116.177 4.32722 0.637996 0
M  V30 1208 C 115.236 5.00895 1.61215 0
M  V30 1209 O 114.262 5.57697 1.13854 0
M  V30 1210 N 115.464 5.00159 2.94655 0
M  V30 1211 H 118.229 2.94328 -0.564882 0
M  V30 1212 H 115.79 1.55612 -0.446823 0
M  V30 1213 H 117.782 3.58144 1.88454 0
M  V30 1214 H 116.352 2.51965 1.8502 0
M  V30 1215 H 115.572 3.93734 -0.191572 0
M  V30 1216 H 116.86 5.08321 0.220665 0
M  V30 1217 H 116.258 4.553 3.35735 0
M  V30 1218 H 114.815 5.46495 3.55228 0
M  V30 1219 N 118.248 0.346503 1.53744 0
M  V30 1220 C 119.196 -0.52422 2.26616 0
M  V30 1221 C 120.19 -1.09948 1.28871 0
M  V30 1222 O 121.396 -1.04488 1.46568 0
M  V30 1223 H 117.771 -0.187743 0.728187 0
M  V30 1224 H 119.742 0.11239 2.98188 0
M  V30 1225 C 118.491 -1.66186 3.05414 0
M  V30 1226 H 117.814 -1.22848 3.80458 0
M  V30 1227 H 119.254 -2.24622 3.59612 0
M  V30 1228 C 117.713 -2.59302 2.1509 0
M  V30 1229 O 118.243 -3.61628 1.74895 0
M  V30 1230 N 116.449 -2.28055 1.8011 0
M  V30 1231 H 115.996 -1.44883 2.12994 0
M  V30 1232 H 115.954 -2.90615 1.19958 0
M  V30 1233 N 119.726 -1.57421 0.075193 0
M  V30 1234 C 120.951 -1.98364 -0.605515 0
M  V30 1235 C 121.376 -0.953383 -1.62149 0
M  V30 1236 O 120.734 0.0806053 -1.81121 0
M  V30 1237 C 120.782 -3.38332 -1.24756 0
M  V30 1238 O 119.886 -3.37959 -2.36342 0
M  V30 1239 H 119.227 -0.645553 -0.155428 0
M  V30 1240 H 121.757 -2.04044 0.150714 0
M  V30 1241 H 121.767 -3.75591 -1.5936 0
M  V30 1242 H 120.442 -4.12846 -0.503129 0
M  V30 1243 H 119.019 -3.12474 -2.03506 0
M  V30 1244 N 121.204 0.198386 -1.56346 0
M  V30 1245 C 122.452 0.91747 -1.80075 0
M  V30 1246 C 122.773 1.83929 -0.647692 0
M  V30 1247 O 122.043 1.93029 0.334166 0
M  V30 1248 H 120.623 0.341774 -0.664228 0
M  V30 1249 H 123.285 0.204684 -1.93822 0
M  V30 1250 H 122.381 1.51055 -2.7311 0
M  V30 1251 N 122.682 1.50554 0.465978 0
M  V30 1252 C 123.645 1.69233 1.54574 0
M  V30 1253 C 124.645 0.562901 1.50626 0
M  V30 1254 O 125.835 0.830016 1.53155 0
M  V30 1255 C 122.967 1.7223 2.94193 0
M  V30 1256 H 124.16 2.65571 1.39327 0
M  V30 1257 H 121.713 1.40111 0.692711 0
M  V30 1258 H 122.448 0.77603 3.14878 0
M  V30 1259 H 122.233 2.54285 2.98466 0
M  V30 1260 H 123.723 1.88618 3.72576 0
M  V30 1261 N 124.16 -0.719506 1.40217 0
M  V30 1262 C 125.406 -1.48034 1.39491 0
M  V30 1263 C 125.761 -1.92399 -0.00443536 0
M  V30 1264 O 125.054 -1.64993 -0.974061 0
M  V30 1265 C 125.248 -2.72271 2.31524 0
M  V30 1266 C 125.077 -2.40055 3.80268 0
M  V30 1267 C 123.847 -2.31588 4.49105 0
M  V30 1268 C 126.045 -2.04581 4.71859 0
M  V30 1269 N 124.027 -1.92006 5.83101 0
M  V30 1270 C 125.398 -1.75568 5.94623 0
M  V30 1271 C 127.453 -1.91183 4.59732 0
M  V30 1272 C 126.156 -1.34505 7.06612 0
M  V30 1273 C 128.182 -1.51524 5.71659 0
M  V30 1274 C 127.544 -1.23406 6.93506 0
M  V30 1275 H 123.643 -0.539927 0.565688 0
M  V30 1276 H 126.227 -0.834764 1.75897 0
M  V30 1277 H 124.398 -3.34584 1.97251 0
M  V30 1278 H 126.13 -3.38584 2.21682 0
M  V30 1279 H 122.885 -2.49199 4.02737 0
M  V30 1280 H 123.309 -1.74764 6.54054 0
M  V30 1281 H 127.951 -2.11584 3.66049 0
M  V30 1282 H 125.669 -1.12846 8.00182 0
M  V30 1283 H 129.255 -1.41741 5.6427 0
M  V30 1284 H 128.135 -0.931788 7.78645 0
M  V30 1285 N 125.638 -1.25649 -0.95132 0
M  V30 1286 C 126.548 -1.08073 -2.08224 0
M  V30 1287 C 127.564 -0.0169666 -1.73992 0
M  V30 1288 O 128.74 -0.218593 -2.0021 0
M  V30 1289 C 125.805 -0.704922 -3.39458 0
M  V30 1290 C 124.866 -1.84699 -3.87537 0
M  V30 1291 C 124.099 -1.48902 -5.12508 0
M  V30 1292 O 124.322 -0.386156 -5.69091 0
M  V30 1293 O 123.256 -2.32033 -5.55378 0
M  V30 1294 H 127.082 -2.02924 -2.25954 0
M  V30 1295 H 124.667 -1.04618 -1.06656 0
M  V30 1296 H 126.549 -0.507609 -4.18332 0
M  V30 1297 H 125.224 0.214291 -3.2299 0
M  V30 1298 H 124.131 -2.09919 -3.09653 0
M  V30 1299 H 125.464 -2.74557 -4.08509 0
M  V30 1300 N 127.117 1.15442 -1.07289 0
M  V30 1301 C 128.347 1.89821 -0.815576 0
M  V30 1302 C 128.755 1.7823 0.634867 0
M  V30 1303 O 128.098 1.13152 1.44715 0
M  V30 1304 C 128.16 3.40817 -1.14385 0
M  V30 1305 C 127.824 3.76193 -2.59476 0
M  V30 1306 C 128.821 3.77269 -3.57721 0
M  V30 1307 C 126.506 4.0652 -2.95037 0
M  V30 1308 C 128.5 4.08176 -4.89562 0
M  V30 1309 C 126.187 4.37092 -4.27076 0
M  V30 1310 C 127.185 4.37902 -5.24148 0
M  V30 1311 O 126.873 4.67741 -6.53815 0
M  V30 1312 H 126.605 0.608465 -0.294528 0
M  V30 1313 H 129.159 1.472 -1.43252 0
M  V30 1314 H 127.389 3.83835 -0.469865 0
M  V30 1315 H 129.078 3.96485 -0.869179 0
M  V30 1316 H 129.844 3.5394 -3.3159 0
M  V30 1317 H 125.723 4.05049 -2.20128 0
M  V30 1318 H 129.267 4.08723 -5.65324 0
M  V30 1319 H 125.164 4.59889 -4.5296 0
M  V30 1320 H 125.932 4.85509 -6.58957 0
M  V30 1321 N 128.595 0.856903 1.32268 0
M  V30 1322 C 129.823 0.475439 2.01363 0
M  V30 1323 C 130.238 -0.928486 1.64392 0
M  V30 1324 O 129.595 -1.60624 0.866387 0
M  V30 1325 C 129.646 0.607545 3.56358 0
M  V30 1326 O 129.367 1.95617 3.92002 0
M  V30 1327 C 130.868 0.225382 4.42727 0
M  V30 1328 H 128.088 0.186636 0.644521 0
M  V30 1329 H 130.632 1.15446 1.68797 0
M  V30 1330 H 128.787 -0.0237719 3.87393 0
M  V30 1331 H 129.201 1.95455 4.86721 0
M  V30 1332 H 130.675 0.368813 5.50767 0
M  V30 1333 H 131.152 -0.834369 4.31202 0
M  V30 1334 H 131.758 0.831864 4.17085 0
M  V30 1335 N 130.073 -1.45103 0.615059 0
M  V30 1336 C 131.036 -2.29025 -0.0895485 0
M  V30 1337 C 132.036 -1.40174 -0.787906 0
M  V30 1338 O 133.226 -1.62217 -0.634933 0
M  V30 1339 C 130.358 -3.21376 -1.13711 0
M  V30 1340 H 131.551 -2.92807 0.648382 0
M  V30 1341 H 129.104 -1.51749 0.374444 0
M  V30 1342 H 129.839 -2.6241 -1.90556 0
M  V30 1343 H 129.624 -3.86834 -0.640475 0
M  V30 1344 H 131.114 -3.84459 -1.63036 0
M  V30 1345 N 131.551 -0.354651 -1.53558 0
M  V30 1346 C 132.828 0.294281 -1.93374 0
M  V30 1347 C 133.208 1.67313 -1.28723 0
M  V30 1348 O 132.556 2.24179 -0.442247 0
M  V30 1349 C 132.766 0.355445 -3.47185 0
M  V30 1350 C 134.114 0.601007 -4.20325 0
M  V30 1351 O 135.138 0.437106 -3.53508 0
M  V30 1352 O 133.997 0.919322 -5.38712 0
M  V30 1353 H 131.091 0.174033 -0.808481 0
M  V30 1354 H 133.637 -0.406638 -1.64756 0
M  V30 1355 H 132.409 -0.611729 -3.86489 0
M  V30 1356 H 132.032 1.1027 -3.82003 0
M  V30 1357 N 133.029 1.57378 -0.0835403 0
M  V30 1358 C 134.277 1.93547 0.581718 0
M  V30 1359 C 134.598 0.96524 1.69435 0
M  V30 1360 O 133.868 0.0153369 1.95894 0
M  V30 1361 H 132.448 0.714521 0.217874 0
M  V30 1362 H 135.11 1.94366 -0.144158 0
M  V30 1363 H 134.206 2.95665 0.999423 0
M  V30 1364 N 134.507 -0.190092 1.56449 0
M  V30 1365 C 135.439 -1.25973 1.91477 0
M  V30 1366 C 136.452 -1.41452 0.805931 0
M  V30 1367 O 137.641 -1.41789 1.08435 0
M  V30 1368 C 134.741 -2.63117 2.13594 0
M  V30 1369 C 133.914 -2.69182 3.4476 0
M  V30 1370 C 132.973 -3.87557 3.5593 0
M  V30 1371 O 131.999 -3.74427 4.28711 0
M  V30 1372 N 133.201 -5.03224 2.89388 0
M  V30 1373 H 135.966 -0.962394 2.83828 0
M  V30 1374 H 133.527 -0.379981 1.57378 0
M  V30 1375 H 135.519 -3.40742 2.1835 0
M  V30 1376 H 134.089 -2.85319 1.27719 0
M  V30 1377 H 133.309 -1.77793 3.51828 0
M  V30 1378 H 134.597 -2.70229 4.31107 0
M  V30 1379 H 133.995 -5.16791 2.30094 0
M  V30 1380 H 132.552 -5.78778 2.99764 0
M  V30 1381 N 135.985 -1.50799 -0.457987 0
M  V30 1382 C 137.232 -1.62442 -1.20908 0
M  V30 1383 C 137.56 -0.330865 -1.91665 0
M  V30 1384 O 136.815 0.68401 -1.83357 0
M  V30 1385 C 137.114 -2.76358 -2.2663 0
M  V30 1386 C 136.78 -4.16378 -1.73033 0
M  V30 1387 C 135.442 -4.54473 -1.58138 0
M  V30 1388 C 137.794 -5.03836 -1.33413 0
M  V30 1389 C 135.122 -5.77754 -1.02065 0
M  V30 1390 C 137.474 -6.27676 -0.78778 0
M  V30 1391 C 136.138 -6.64562 -0.625561 0
M  V30 1392 H 135.408 -0.594417 -0.442435 0
M  V30 1393 H 138.055 -1.84772 -0.503136 0
M  V30 1394 H 136.36 -2.48167 -3.03184 0
M  V30 1395 H 138.057 -2.82568 -2.84528 0
M  V30 1396 H 134.647 -3.86331 -1.85598 0
M  V30 1397 H 138.831 -4.75026 -1.4375 0
M  V30 1398 H 134.087 -6.04997 -0.882547 0
M  V30 1399 H 138.261 -6.94797 -0.472177 0
M  V30 1400 H 135.888 -7.59965 -0.188926 0
M  V30 1401 N 137.463 0.71206 -1.40597 0
M  V30 1402 C 138.426 1.80785 -1.40888 0
M  V30 1403 C 139.426 1.57937 -0.302103 0
M  V30 1404 O 140.616 1.64913 -0.561182 0
M  V30 1405 C 137.748 3.18927 -1.20409 0
M  V30 1406 H 138.941 1.81924 -2.38419 0
M  V30 1407 H 136.494 0.91805 -1.26497 0
M  V30 1408 H 137.229 3.23436 -0.236522 0
M  V30 1409 H 137.014 3.36911 -2.00582 0
M  V30 1410 H 138.504 3.98949 -1.23408 0
M  V30 1411 N 138.941 1.26152 0.944643 0
M  V30 1412 C 140.187 1.11657 1.69294 0
M  V30 1413 C 140.52 -0.339926 1.91202 0
M  V30 1414 O 139.795 -1.24994 1.49019 0
M  V30 1415 C 140.078 1.88236 3.06984 0
M  V30 1416 C 139.931 3.41772 2.92424 0
M  V30 1417 C 141.25 1.67343 4.07043 0
M  V30 1418 H 138.369 0.407004 0.614424 0
M  V30 1419 H 141.011 1.55106 1.09737 0
M  V30 1420 H 139.161 1.51308 3.57824 0
M  V30 1421 H 140.833 3.88433 2.48832 0
M  V30 1422 H 139.076 3.68974 2.28124 0
M  V30 1423 H 139.747 3.90579 3.90067 0
M  V30 1424 H 142.223 1.99509 3.65151 0
M  V30 1425 H 141.099 2.23346 5.01406 0
M  V30 1426 H 141.36 0.617158 4.37771 0
M  V30 1427 N 140.419 -1.14872 1.07899 0
M  V30 1428 C 141.665 -1.86289 0.81657 0
M  V30 1429 C 142.02 -1.8107 -0.65049 0
M  V30 1430 O 141.313 -1.22684 -1.47171 0
M  V30 1431 C 141.507 -3.34223 1.26609 0
M  V30 1432 C 141.336 -3.53846 2.77531 0
M  V30 1433 C 140.106 -3.68995 3.45212 0
M  V30 1434 C 142.304 -3.51201 3.75716 0
M  V30 1435 N 140.286 -3.76725 4.84718 0
M  V30 1436 C 141.657 -3.65112 5.01092 0
M  V30 1437 C 143.712 -3.34507 3.68794 0
M  V30 1438 C 142.415 -3.64056 6.20368 0
M  V30 1439 C 144.441 -3.34752 4.8754 0
M  V30 1440 C 143.803 -3.49199 6.11751 0
M  V30 1441 H 139.902 -0.698579 0.351443 0
M  V30 1442 H 142.486 -1.37713 1.37634 0
M  V30 1443 H 140.657 -3.81402 0.73395 0
M  V30 1444 H 142.389 -3.93377 0.95062 0
M  V30 1445 H 139.144 -3.70006 2.95622 0
M  V30 1446 H 139.568 -3.8432 5.5734 0
M  V30 1447 H 144.21 -3.22253 2.73702 0
M  V30 1448 H 141.928 -3.75087 7.15776 0
M  V30 1449 H 145.514 -3.23055 4.83866 0
M  V30 1450 H 144.394 -3.49328 7.02097 0
M  V30 1451 N 141.898 -0.863906 -1.31812 0
M  V30 1452 C 143.314 -0.555004 -1.49639 0
M  V30 1453 C 143.514 0.912266 -1.79666 0
M  V30 1454 O 142.57 1.69479 -1.87171 0
M  V30 1455 C 143.883 -1.44998 -2.63431 0
M  V30 1456 C 145.431 -1.45138 -2.77316 0
M  V30 1457 C 145.906 -2.33179 -3.94197 0
M  V30 1458 N 147.397 -2.31025 -4.01474 0
M  V30 1459 C 148.132 -2.95871 -4.9117 0
M  V30 1460 N 147.628 -3.69863 -5.8581 0
M  V30 1461 N 149.421 -2.85211 -4.84367 0
M  V30 1462 H 141.572 -1.81339 -1.10589 0
M  V30 1463 H 143.835 -0.77505 -0.545895 0
M  V30 1464 H 143.541 -2.49377 -2.48 0
M  V30 1465 H 143.415 -1.14409 -3.59431 0
M  V30 1466 H 145.802 -0.415201 -2.92164 0
M  V30 1467 H 145.883 -1.79747 -1.82001 0
M  V30 1468 H 145.527 -3.3687 -3.80107 0
M  V30 1469 H 145.457 -1.95897 -4.88807 0
M  V30 1470 H 147.948 -1.77238 -3.33759 0
M  V30 1471 H 148.261 -4.16486 -6.50968 0
M  V30 1472 H 146.606 -3.73971 -5.85808 0
M  V30 1473 H 149.797 -2.26948 -4.09405 0
M  V30 1474 H 149.97 -3.36027 -5.54066 0
M  V30 1475 N 143.376 1.44774 -0.622745 0
M  V30 1476 C 144.308 2.28856 0.125485 0
M  V30 1477 C 145.321 1.40811 0.817069 0
M  V30 1478 O 146.51 1.65044 0.679918 0
M  V30 1479 C 143.61 3.16963 1.19949 0
M  V30 1480 C 142.783 4.33374 0.592064 0
M  V30 1481 C 141.842 5.02577 1.55893 0
M  V30 1482 O 140.868 5.58873 1.07933 0
M  V30 1483 N 142.07 5.03256 2.89334 0
M  V30 1484 H 144.835 2.93713 -0.596068 0
M  V30 1485 H 142.396 1.55129 -0.463303 0
M  V30 1486 H 144.388 3.60123 1.84644 0
M  V30 1487 H 142.958 2.53913 1.82337 0
M  V30 1488 H 142.178 3.93509 -0.233322 0
M  V30 1489 H 143.466 5.08527 0.166738 0
M  V30 1490 H 142.864 4.58836 3.30887 0
M  V30 1491 H 141.421 5.50232 3.49412 0
M  V30 1492 N 144.854 0.36279 1.53368 0
M  V30 1493 C 146.27 0.0116182 1.59596 0
M  V30 1494 C 146.47 -1.47012 1.37803 0
M  V30 1495 O 145.526 -2.23136 1.18181 0
M  V30 1496 C 146.839 0.465052 2.97082 0
M  V30 1497 C 148.387 0.419033 3.10182 0
M  V30 1498 C 148.862 0.848235 4.50077 0
M  V30 1499 N 150.353 0.803183 4.56183 0
M  V30 1500 C 151.088 1.107 5.62613 0
M  V30 1501 N 150.584 1.47996 6.76808 0
M  V30 1502 N 152.377 1.02998 5.52583 0
M  V30 1503 H 144.528 1.32775 1.65785 0
M  V30 1504 H 146.791 0.542518 0.777417 0
M  V30 1505 H 146.497 1.49892 3.18159 0
M  V30 1506 H 146.371 -0.149786 3.76902 0
M  V30 1507 H 148.758 -0.605696 2.88817 0
M  V30 1508 H 148.839 1.06933 2.32377 0
M  V30 1509 H 148.483 1.87107 4.7218 0
M  V30 1510 H 148.413 0.175218 5.26308 0
M  V30 1511 H 150.904 0.52838 3.74188 0
M  V30 1512 H 151.217 1.69613 7.53957 0
M  V30 1513 H 149.562 1.51859 6.78206 0
M  V30 1514 H 152.753 0.737817 4.62249 0
M  V30 1515 H 152.926 1.2701 6.35431 0
M  V30 1516 N 146.332 -1.57332 0.0918853 0
M  V30 1517 C 147.578 -1.94524 -0.573425 0
M  V30 1518 C 147.911 -0.973578 -1.68033 0
M  V30 1519 O 147.186 -0.00609226 -1.94499 0
M  V30 1520 C 147.469 -3.41858 -1.13161 0
M  V30 1521 C 147.322 -4.4979 -0.0299747 0
M  V30 1522 C 148.641 -3.90435 -2.03098 0
M  V30 1523 H 145.76 -0.70734 -0.206975 0
M  V30 1524 H 148.402 -1.89309 0.161942 0
M  V30 1525 H 146.552 -3.46433 -1.7583 0
M  V30 1526 H 148.224 -4.57327 0.604112 0
M  V30 1527 H 146.467 -4.291 0.636833 0
M  V30 1528 H 147.138 -5.50069 -0.461287 0
M  V30 1529 H 149.614 -3.87992 -1.50338 0
M  V30 1530 H 148.49 -4.94097 -2.39081 0
M  V30 1531 H 148.751 -3.29541 -2.94712 0
M  V30 1532 N 147.81 0.181792 -1.56548 0
M  V30 1533 C 149.226 0.53316 -1.50431 0
M  V30 1534 C 149.426 1.85184 -0.794297 0
M  V30 1535 O 148.482 2.50058 -0.350318 0
M  V30 1536 C 149.795 0.575597 -2.9514 0
M  V30 1537 C 151.343 0.663519 -3.05886 0
M  V30 1538 C 151.818 0.736946 -4.52032 0
M  V30 1539 N 153.309 0.800118 -4.56237 0
M  V30 1540 C 154.044 0.877327 -5.66649 0
M  V30 1541 N 153.54 0.916016 -6.86718 0
M  V30 1542 N 155.333 0.915542 -5.54594 0
M  V30 1543 H 147.484 -0.683025 -2.01118 0
M  V30 1544 H 149.747 -0.244988 -0.915797 0
M  V30 1545 H 149.453 -0.324482 -3.502 0
M  V30 1546 H 149.327 1.42572 -3.49218 0
M  V30 1547 H 151.714 1.55403 -2.50867 0
M  V30 1548 H 151.795 -0.21307 -2.54911 0
M  V30 1549 H 151.439 -0.149262 -5.07681 0
M  V30 1550 H 151.369 1.62953 -5.00753 0
M  V30 1551 H 153.86 0.778926 -3.69785 0
M  V30 1552 H 154.173 0.975813 -7.66614 0
M  V30 1553 H 152.518 0.884469 -6.89349 0
M  V30 1554 H 155.709 0.882245 -4.59711 0
M  V30 1555 H 155.882 0.972253 -6.40665 0
M  V30 1556 N 149.288 1.51039 0.449983 0
M  V30 1557 C 150.513 1.6715 1.22783 0
M  V30 1558 C 150.938 0.363081 1.84563 0
M  V30 1559 O 150.296 -0.675433 1.68249 0
M  V30 1560 C 150.344 2.77985 2.29689 0
M  V30 1561 O 149.448 2.40707 3.34864 0
M  V30 1562 H 148.789 0.557746 0.360299 0
M  V30 1563 H 151.319 1.97535 0.533005 0
M  V30 1564 H 151.329 3.01693 2.74673 0
M  V30 1565 H 150.004 3.72935 1.84098 0
M  V30 1566 H 148.581 2.27523 2.95445 0
M  V30 1567 N 150.766 -0.704594 1.40972 0
M  V30 1568 C 151.676 -1.84856 1.44448 0
M  V30 1569 C 152.692 -1.70726 0.335961 0
M  V30 1570 O 153.868 -1.92799 0.582276 0
M  V30 1571 C 150.933 -3.20758 1.31587 0
M  V30 1572 C 149.994 -3.47063 2.52677 0
M  V30 1573 C 149.227 -4.76481 2.4042 0
M  V30 1574 O 149.45 -5.52341 1.42391 0
M  V30 1575 O 148.384 -5.03367 3.30007 0
M  V30 1576 H 152.21 -1.8488 2.40942 0
M  V30 1577 H 149.795 -0.85647 1.22413 0
M  V30 1578 H 151.677 -4.01913 1.26665 0
M  V30 1579 H 150.352 -3.21438 0.382049 0
M  V30 1580 H 149.259 -2.65873 2.63177 0
M  V30 1581 H 150.592 -3.5119 3.44858 0
M  V30 1582 N 152.244 -1.26651 -0.937939 0
M  V30 1583 C 153.191 -1.0849 -2.03712 0
M  V30 1584 C 154.161 0.011033 -1.66096 0
M  V30 1585 O 155.346 -0.149353 -1.90215 0
M  V30 1586 C 152.486 -0.72735 -3.37348 0
M  V30 1587 C 151.599 -1.89986 -3.87981 0
M  V30 1588 C 150.734 -1.48513 -5.10017 0
M  V30 1589 C 149.773 -2.62575 -5.5292 0
M  V30 1590 N 148.91 -2.21762 -6.66158 0
M  V30 1591 H 153.75 -2.02551 -2.18579 0
M  V30 1592 H 151.287 -1.00844 -1.07093 0
M  V30 1593 H 153.245 -0.50092 -4.14182 0
M  V30 1594 H 151.875 0.176298 -3.22318 0
M  V30 1595 H 150.927 -2.23913 -3.07518 0
M  V30 1596 H 152.239 -2.75586 -4.15757 0
M  V30 1597 H 151.393 -1.21934 -5.94321 0
M  V30 1598 H 150.132 -0.60009 -4.83994 0
M  V30 1599 H 149.137 -2.8988 -4.67172 0
M  V30 1600 H 150.362 -3.51685 -5.80943 0
M  V30 1601 H 148.308 -1.35696 -6.41812 0
M  V30 1602 H 148.225 -3.00903 -6.93537 0
M  V30 1603 H 149.493 -1.98403 -7.53828 0
M  V30 1604 N 153.722 1.14298 -1.08507 0
M  V30 1605 C 154.685 2.17607 -0.719711 0
M  V30 1606 C 155.685 1.58907 0.245997 0
M  V30 1607 O 156.875 1.74181 0.0254081 0
M  V30 1608 C 154.007 3.40842 -0.0627695 0
M  V30 1609 H 155.2 2.51443 -1.63452 0
M  V30 1610 H 152.753 1.28963 -0.88307 0
M  V30 1611 H 153.488 3.12587 0.863716 0
M  V30 1612 H 153.273 3.84713 -0.757504 0
M  V30 1613 H 154.763 4.17221 0.177786 0
M  V30 1614 N 155.201 0.870884 1.31352 0
M  V30 1615 C 156.131 0.343096 2.30966 0
M  V30 1616 C 157.112 -0.566507 1.60389 0
M  V30 1617 O 158.297 -0.483336 1.88089 0
M  V30 1618 C 155.427 -0.455487 3.443 0
M  V30 1619 C 154.381 0.361103 4.26474 0
M  V30 1620 C 153.707 -0.563221 5.31725 0
M  V30 1621 C 155.007 1.59566 4.97329 0
M  V30 1622 H 156.701 1.17548 2.75359 0
M  V30 1623 H 154.247 0.566686 1.32381 0
M  V30 1624 H 156.2 -0.83525 4.13039 0
M  V30 1625 H 154.924 -1.32139 2.98675 0
M  V30 1626 H 153.583 0.722825 3.59403 0
M  V30 1627 H 153.231 -1.42643 4.82351 0
M  V30 1628 H 152.931 -0.0207409 5.87596 0
M  V30 1629 H 154.455 -0.939808 6.03324 0
M  V30 1630 H 155.869 1.28728 5.58661 0
M  V30 1631 H 154.266 2.07728 5.63 0
M  V30 1632 H 155.336 2.34798 4.24262 0
M  V30 1633 N 156.679 -1.44442 0.630414 0
M  V30 1634 C 157.904 -2.06927 0.139944 0
M  V30 1635 C 158.329 -1.46795 -1.17613 0
M  V30 1636 O 157.687 -0.569144 -1.72135 0
M  V30 1637 C 157.735 -3.6058 0.0379581 0
M  V30 1638 O 156.839 -3.99937 -1.0062 0
M  V30 1639 H 156.18 -0.658608 0.0844483 0
M  V30 1640 H 158.71 -1.85327 0.866891 0
M  V30 1641 H 158.72 -4.07714 -0.152856 0
M  V30 1642 H 157.395 -4.03728 0.998809 0
M  V30 1643 H 155.972 -3.64436 -0.79001 0
M  V30 1644 N 158.157 -0.370918 -1.53173 0
M  V30 1645 C 159.087 0.464847 -2.28826 0
M  V30 1646 C 160.068 1.07936 -1.31468 0
M  V30 1647 O 161.253 1.0956 -1.60344 0
M  V30 1648 C 158.383 1.60196 -3.08147 0
M  V30 1649 C 157.337 1.11443 -4.13237 0
M  V30 1650 C 156.663 2.3422 -4.80672 0
M  V30 1651 C 157.963 0.195384 -5.21934 0
M  V30 1652 H 159.657 -0.166329 -2.98938 0
M  V30 1653 H 157.203 -0.0814359 -1.4377 0
M  V30 1654 H 159.156 2.19332 -3.59822 0
M  V30 1655 H 157.88 2.26045 -2.35735 0
M  V30 1656 H 156.539 0.545727 -3.62515 0
M  V30 1657 H 156.187 2.98537 -4.04827 0
M  V30 1658 H 155.887 2.02269 -5.51689 0
M  V30 1659 H 157.411 2.94032 -5.35143 0
M  V30 1660 H 158.825 0.694375 -5.69079 0
M  V30 1661 H 157.222 -0.0335027 -6.00091 0
M  V30 1662 H 158.292 -0.760961 -4.78892 0
M  V30 1663 N 159.635 1.57281 -0.100228 0
M  V30 1664 C 160.583 2.15542 0.874328 0
M  V30 1665 C 161.577 1.09962 1.28859 0
M  V30 1666 O 162.783 1.28298 1.26252 0
M  V30 1667 H 159.158 0.689567 0.300003 0
M  V30 1668 H 161.129 2.96241 0.35829 0
M  V30 1669 C 159.878 2.75454 2.1218 0
M  V30 1670 H 159.201 3.56384 1.81193 0
M  V30 1671 H 160.641 3.19781 2.78417 0
M  V30 1672 C 159.1 1.71602 2.89921 0
M  V30 1673 O 159.63 1.15804 3.84646 0
M  V30 1674 N 157.836 1.41975 2.53558 0
M  V30 1675 H 157.383 1.87539 1.76598 0
M  V30 1676 H 157.341 0.727274 3.05873 0
M  V30 1677 N 161.113 -0.173488 1.56642 0
M  V30 1678 C 162.36 -0.890465 1.81871 0
M  V30 1679 C 162.688 -1.82339 0.67696 0
M  V30 1680 O 161.943 -1.92795 -0.335926 0
M  V30 1681 C 162.242 -1.72069 3.13252 0
M  V30 1682 C 161.908 -0.936878 4.41059 0
M  V30 1683 C 160.57 -0.720545 4.75775 0
M  V30 1684 C 162.922 -0.386919 5.19762 0
M  V30 1685 C 160.25 0.0568829 5.86672 0
M  V30 1686 C 162.602 0.37741 6.31473 0
M  V30 1687 C 161.266 0.604563 6.64757 0
M  V30 1688 H 160.536 -0.325844 0.665512 0
M  V30 1689 H 163.183 -0.155527 1.90867 0
M  V30 1690 H 161.488 -2.52496 2.99588 0
M  V30 1691 H 163.185 -2.27844 3.29982 0
M  V30 1692 H 159.775 -1.11553 4.13828 0
M  V30 1693 H 163.959 -0.541398 4.93338 0
M  V30 1694 H 159.215 0.242635 6.10918 0
M  V30 1695 H 163.389 0.810825 6.91664 0
M  V30 1696 H 161.016 1.20885 7.50527 0
M  V30 1697 N 162.591 -1.51276 -0.441967 0
M  V30 1698 C 163.839 -1.63392 -1.18943 0
M  V30 1699 C 164.16 -0.350159 -1.9183 0
M  V30 1700 O 163.43 0.633784 -1.85364 0
M  V30 1701 H 162.01 -0.602164 -0.442049 0
M  V30 1702 H 164.672 -1.88186 -0.507165 0
M  V30 1703 H 163.768 -2.45934 -1.92154 0
M  V30 1704 N 164.069 0.697108 -1.41344 0
M  V30 1705 C 165.316 1.45714 -1.40619 0
M  V30 1706 C 165.644 1.94494 -0.0147907 0
M  V30 1707 O 164.899 1.69794 0.973066 0
M  V30 1708 C 165.198 2.68553 -2.35826 0
M  V30 1709 C 164.864 2.38438 -3.82698 0
M  V30 1710 C 163.526 2.29936 -4.22709 0
M  V30 1711 C 165.878 2.13567 -4.75435 0
M  V30 1712 C 163.206 1.94656 -5.53467 0
M  V30 1713 C 165.558 1.79797 -6.06511 0
M  V30 1714 C 164.222 1.69789 -6.45545 0
M  V30 1715 H 163.492 0.533206 -0.51456 0
M  V30 1716 H 166.139 0.796901 -1.74131 0
M  V30 1717 H 164.444 3.39503 -1.95563 0
M  V30 1718 H 166.141 3.2669 -2.32539 0
M  V30 1719 H 162.731 2.4595 -3.51008 0
M  V30 1720 H 166.915 2.19082 -4.45328 0
M  V30 1721 H 162.171 1.8546 -5.82593 0
M  V30 1722 H 166.345 1.59572 -6.77872 0
M  V30 1723 H 163.972 1.4222 -7.46778 0
M  V30 1724 N 165.547 1.27147 0.931209 0
M  V30 1725 C 166.775 1.16082 1.71267 0
M  V30 1726 C 167.19 -0.282772 1.8667 0
M  V30 1727 O 166.547 -1.19283 1.38122 0
M  V30 1728 C 166.598 1.8358 3.11417 0
M  V30 1729 O 166.319 3.22299 2.96741 0
M  V30 1730 C 167.82 1.78597 4.05732 0
M  V30 1731 H 165.04 0.403758 0.535929 0
M  V30 1732 H 167.584 1.67953 1.16671 0
M  V30 1733 H 165.739 1.35623 3.62885 0
M  V30 1734 H 166.153 3.55851 3.85319 0
M  V30 1735 H 167.627 2.30444 5.01597 0
M  V30 1736 H 168.104 0.754564 4.3267 0
M  V30 1737 H 168.71 2.26152 3.60188 0
M  V30 1738 N 167.025 -1.13721 1.09112 0
M  V30 1739 C 168.302 -1.81155 0.737706 0
M  V30 1740 C 168.682 -1.96253 -0.777683 0
M  V30 1741 O 168.03 -1.52807 -1.69889 0
M  V30 1742 C 168.24 -3.16392 1.47299 0
M  V30 1743 C 169.588 -3.91787 1.63671 0
M  V30 1744 O 170.612 -3.26005 1.43524 0
M  V30 1745 O 169.471 -5.0977 1.96969 0
M  V30 1746 H 166.565 -0.783518 0.26463 0
M  V30 1747 H 169.111 -1.20676 1.19312 0
M  V30 1748 H 167.883 -3.0061 2.50498 0
M  V30 1749 H 167.506 -3.8457 1.00953 0
M  V30 1750 N 168.503 -0.877838 -1.30888 0
M  V30 1751 C 169.733 -0.506678 -2.00291 0
M  V30 1752 C 170.141 0.907449 -1.66018 0
M  V30 1753 O 169.484 1.60719 -0.88967 0
M  V30 1754 C 169.546 -0.59323 -3.54572 0
M  V30 1755 C 169.21 -1.97038 -4.12341 0
M  V30 1756 C 170.207 -2.93889 -4.28865 0
M  V30 1757 C 167.892 -2.27383 -4.47886 0
M  V30 1758 C 169.886 -4.19224 -4.80136 0
M  V30 1759 C 167.573 -3.52965 -4.98857 0
M  V30 1760 C 168.571 -4.48701 -5.14934 0
M  V30 1761 O 168.259 -5.72056 -5.64808 0
M  V30 1762 H 167.991 -0.1951 -0.647234 0
M  V30 1763 H 170.545 -1.18301 -1.6791 0
M  V30 1764 H 168.775 0.140057 -3.86446 0
M  V30 1765 H 170.464 -0.234372 -4.05223 0
M  V30 1766 H 171.23 -2.71756 -4.01714 0
M  V30 1767 H 167.109 -1.53639 -4.34645 0
M  V30 1768 H 170.653 -4.93956 -4.92599 0
M  V30 1769 H 166.55 -3.74939 -5.25443 0
M  V30 1770 H 167.318 -5.74337 -5.83163 0
M  V30 1771 N 169.982 1.44106 -0.638065 0
M  V30 1772 C 171.212 2.06037 -0.152394 0
M  V30 1773 C 171.62 1.47808 1.18108 0
M  V30 1774 O 170.963 0.598092 1.73691 0
M  V30 1775 C 171.025 3.59488 0.0293714 0
M  V30 1776 C 170.689 4.4022 -1.22702 0
M  V30 1777 C 171.686 4.73256 -2.15232 0
M  V30 1778 C 169.371 4.8048 -1.46437 0
M  V30 1779 C 171.365 5.45444 -3.29802 0
M  V30 1780 C 169.052 5.52417 -2.61303 0
M  V30 1781 C 170.05 5.84819 -3.52811 0
M  V30 1782 O 169.738 6.55289 -4.65673 0
M  V30 1783 H 169.47 0.671233 -0.0801401 0
M  V30 1784 H 172.024 1.85851 -0.874563 0
M  V30 1785 H 170.254 3.78191 0.806758 0
M  V30 1786 H 171.943 4.03164 0.470475 0
M  V30 1787 H 172.709 4.42684 -1.98131 0
M  V30 1788 H 168.588 4.54676 -0.760977 0
M  V30 1789 H 172.132 5.70653 -4.01249 0
M  V30 1790 H 168.029 5.82404 -2.78344 0
M  V30 1791 H 168.797 6.73762 -4.64744 0
M  V30 1792 N 171.46 0.379036 1.52974 0
M  V30 1793 C 172.393 -0.504932 2.22544 0
M  V30 1794 C 173.371 -1.0723 1.22231 0
M  V30 1795 O 174.555 -1.12589 1.51182 0
M  V30 1796 C 171.682 -1.69794 2.93066 0
M  V30 1797 C 170.728 -1.25678 4.07563 0
M  V30 1798 S 171.561 -0.246852 5.34931 0
M  V30 1799 C 172.717 -1.44588 6.08971 0
M  V30 1800 H 172.95 0.0858666 2.97176 0
M  V30 1801 H 170.483 0.163183 1.53535 0
M  V30 1802 H 172.441 -2.38219 3.34308 0
M  V30 1803 H 171.102 -2.26002 2.18133 0
M  V30 1804 H 170.295 -2.14725 4.5597 0
M  V30 1805 H 169.897 -0.651584 3.6828 0
M  V30 1806 H 172.189 -2.37469 6.34519 0
M  V30 1807 H 173.132 -1.00292 7.00962 0
M  V30 1808 H 173.54 -1.65804 5.39601 0
M  V30 1809 N 172.938 -1.57226 0.108567 0
M  V30 1810 C 174.349 -1.8195 -0.418464 0
M  V30 1811 C 174.7 -1.02508 -1.67292 0
M  V30 1812 O 173.825 -0.258496 -2.14851 0
M  V30 1813 C 174.42 -3.30028 -0.765979 0
M  V30 1814 C 172.979 -3.55469 -1.23769 0
M  V30 1815 C 172.126 -2.7625 -0.241106 0
M  V30 1816 H 175.077 -1.55149 0.33384 0
M  V30 1817 H 175.098 -3.44086 -1.62434 0
M  V30 1818 H 174.61 -3.87821 0.147219 0
M  V30 1819 H 172.711 -3.03022 -2.16814 0
M  V30 1820 H 172.824 -4.6408 -1.19022 0
M  V30 1821 H 171.188 -2.44133 -0.72602 0
M  V30 1822 H 171.971 -3.36797 0.665007 0
M  V30 1823 N 174.416 0.165178 -1.56732 0
M  V30 1824 C 175.379 1.18822 -1.95995 0
M  V30 1825 C 176.379 1.3685 -0.84431 0
M  V30 1826 O 177.569 1.34152 -1.11126 0
M  V30 1827 C 174.701 2.5521 -2.26011 0
M  V30 1828 H 175.894 0.851825 -2.87548 0
M  V30 1829 H 173.447 0.407857 -1.50885 0
M  V30 1830 H 174.182 2.93852 -1.37191 0
M  V30 1831 H 173.967 2.43489 -3.07336 0
M  V30 1832 H 175.457 3.28927 -2.57288 0
M  V30 1833 N 175.894 1.51508 0.433938 0
M  V30 1834 C 177.142 1.6402 1.18075 0
M  V30 1835 C 177.463 0.360328 1.91642 0
M  V30 1836 O 176.733 -0.623945 1.85698 0
M  V30 1837 H 175.313 0.6045 0.43885 0
M  V30 1838 H 177.975 1.88452 0.497178 0
M  V30 1839 H 177.071 2.46949 1.90847 0
M  V30 1840 N 177.372 -0.689602 1.41712 0
M  V30 1841 C 178.62 -1.4468 1.4111 0
M  V30 1842 C 178.941 -1.94986 0.0232196 0
M  V30 1843 O 178.211 -1.72097 -0.935913 0
M  V30 1844 H 176.791 -0.536847 0.519427 0
M  V30 1845 H 179.453 -0.815825 1.77004 0
M  V30 1846 H 178.549 -2.30706 2.10193 0
M  V30 1847 N 178.85 -1.27639 -0.924453 0
M  V30 1848 C 180.266 -1.05113 -1.20097 0
M  V30 1849 C 180.466 0.213262 -2.00368 0
M  V30 1850 O 179.522 0.91787 -2.35226 0
M  V30 1851 C 180.835 -2.29244 -1.94596 0
M  V30 1852 C 182.383 -2.34315 -2.07522 0
M  V30 1853 C 182.858 -3.58183 -2.85427 0
M  V30 1854 N 184.349 -3.5876 -2.92994 0
M  V30 1855 C 185.084 -4.51277 -3.53746 0
M  V30 1856 N 184.58 -5.54102 -4.15863 0
M  V30 1857 N 186.373 -4.38894 -3.51181 0
M  V30 1858 H 178.524 -2.08821 -0.388264 0
M  V30 1859 H 180.787 -0.918568 -0.234385 0
M  V30 1860 H 180.493 -3.21301 -1.43034 0
M  V30 1861 H 180.367 -2.34816 -2.95197 0
M  V30 1862 H 182.754 -1.42762 -2.58269 0
M  V30 1863 H 182.835 -2.32744 -1.06131 0
M  V30 1864 H 182.479 -4.50074 -2.35363 0
M  V30 1865 H 182.409 -3.57006 -3.8711 0
M  V30 1866 H 184.9 -2.84398 -2.4885 0
M  V30 1867 H 185.213 -6.20859 -4.60168 0
M  V30 1868 H 183.558 -5.57941 -4.144 0
M  V30 1869 H 186.749 -3.57772 -3.01856 0
M  V30 1870 H 186.922 -5.11186 -3.98237 0
M  V30 1871 N 180.328 1.1314 -1.09713 0
M  V30 1872 C 181.258 2.20748 -0.761102 0
M  V30 1873 C 182.239 1.68061 0.262566 0
M  V30 1874 O 183.424 1.93765 0.129977 0
M  V30 1875 C 180.554 3.46812 -0.184054 0
M  V30 1876 C 179.508 4.12606 -1.13757 0
M  V30 1877 C 178.834 5.33031 -0.422083 0
M  V30 1878 C 180.134 4.59603 -2.48118 0
M  V30 1879 H 181.828 2.49113 -1.66082 0
M  V30 1880 H 179.374 1.19734 -0.799987 0
M  V30 1881 H 181.327 4.21353 0.0631215 0
M  V30 1882 H 180.051 3.17851 0.750868 0
M  V30 1883 H 178.71 3.40036 -1.37007 0
M  V30 1884 H 178.358 5.00335 0.517072 0
M  V30 1885 H 178.058 5.77999 -1.05788 0
M  V30 1886 H 179.582 6.10325 -0.183277 0
M  V30 1887 H 180.996 5.25552 -2.29059 0
M  V30 1888 H 179.393 5.15321 -3.07514 0
M  V30 1889 H 180.463 3.73971 -3.08665 0
M  V30 1890 N 181.806 0.884767 1.30421 0
M  V30 1891 C 182.736 0.367574 2.30589 0
M  V30 1892 C 183.717 -0.549464 1.60981 0
M  V30 1893 O 184.902 -0.46336 1.88591 0
M  V30 1894 C 182.032 -0.418944 3.44764 0
M  V30 1895 C 180.986 0.406316 4.26067 0
M  V30 1896 C 180.312 -0.506793 5.32293 0
M  V30 1897 C 181.612 1.64832 4.95608 0
M  V30 1898 H 183.306 1.20462 2.74097 0
M  V30 1899 H 180.852 0.580695 1.31772 0
M  V30 1900 H 182.805 -0.791395 4.13902 0
M  V30 1901 H 181.529 -1.28964 3.0006 0
M  V30 1902 H 180.188 0.760903 3.58617 0
M  V30 1903 H 179.836 -1.37519 4.83836 0
M  V30 1904 H 179.536 0.0415828 5.87585 0
M  V30 1905 H 181.06 -0.875764 6.04287 0
M  V30 1906 H 182.474 1.34646 5.57264 0
M  V30 1907 H 180.871 2.13688 5.60765 0
M  V30 1908 H 181.941 2.39284 4.21748 0
M  V30 1909 N 183.284 -1.43765 0.645699 0
M  V30 1910 C 184.53 -2.02197 0.156271 0
M  V30 1911 C 184.863 -1.50776 -1.22393 0
M  V30 1912 O 184.138 -0.697771 -1.81553 0
M  V30 1913 C 184.421 -3.59749 0.158872 0
M  V30 1914 C 184.274 -4.21419 1.57245 0
M  V30 1915 C 185.593 -4.37149 -0.50879 0
M  V30 1916 H 182.712 -0.734694 0.0582602 0
M  V30 1917 H 185.354 -1.71157 0.824951 0
M  V30 1918 H 183.504 -3.86325 -0.410525 0
M  V30 1919 H 185.176 -4.059 2.19186 0
M  V30 1920 H 183.419 -3.78356 2.122 0
M  V30 1921 H 184.09 -5.30482 1.52619 0
M  V30 1922 H 186.566 -4.16093 -0.024412 0
M  V30 1923 H 185.442 -5.4683 -0.476213 0
M  V30 1924 H 185.703 -4.12839 -1.58165 0
M  V30 1925 N 184.763 -0.387143 -1.52771 0
M  V30 1926 C 185.993 0.195585 -2.05672 0
M  V30 1927 C 186.401 1.41241 -1.25887 0
M  V30 1928 O 185.744 1.81265 -0.298081 0
M  V30 1929 C 185.806 0.632327 -3.53895 0
M  V30 1930 C 185.47 -0.470739 -4.54569 0
M  V30 1931 C 186.467 -1.32746 -5.02667 0
M  V30 1932 C 184.152 -0.637151 -4.98243 0
M  V30 1933 C 186.146 -2.33574 -5.93061 0
M  V30 1934 C 183.833 -1.64877 -5.88438 0
M  V30 1935 C 184.831 -2.49649 -6.35739 0
M  V30 1936 O 184.519 -3.49082 -7.24153 0
M  V30 1937 H 184.251 0.033658 -0.675162 0
M  V30 1938 H 186.805 -0.550221 -1.97893 0
M  V30 1939 H 185.035 1.43008 -3.59285 0
M  V30 1940 H 186.724 1.14048 -3.89548 0
M  V30 1941 H 187.49 -1.21019 -4.69659 0
M  V30 1942 H 183.369 0.0129567 -4.60998 0
M  V30 1943 H 186.913 -2.99777 -6.29904 0
M  V30 1944 H 182.81 -1.76643 -6.2086 0
M  V30 1945 H 183.578 -3.45065 -7.42208 0
M  V30 1946 N 186.241 1.57166 -0.116904 0
M  V30 1947 C 187.652 1.82169 0.408809 0
M  V30 1948 C 188.003 1.03393 1.66746 0
M  V30 1949 O 187.128 0.269886 2.1471 0
M  V30 1950 C 187.723 3.30429 0.748466 0
M  V30 1951 C 186.282 3.5612 1.21882 0
M  V30 1952 C 185.429 2.76374 0.226452 0
M  V30 1953 H 188.38 1.5497 -0.342063 0
M  V30 1954 H 188.401 3.44943 1.60607 0
M  V30 1955 H 187.913 3.87737 -0.167784 0
M  V30 1956 H 186.014 3.04168 2.15204 0
M  V30 1957 H 186.127 4.64705 1.16559 0
M  V30 1958 H 184.491 2.44515 0.713063 0
M  V30 1959 H 185.274 3.3644 -0.682859 0
M  V30 1960 N 187.719 -0.156864 1.56817 0
M  V30 1961 C 188.682 -1.17781 1.96622 0
M  V30 1962 C 189.682 -1.36401 0.851555 0
M  V30 1963 O 190.872 -1.33561 1.11836 0
M  V30 1964 C 188.004 -2.54008 2.27361 0
M  V30 1965 H 189.197 -0.836564 2.87996 0
M  V30 1966 H 186.75 -0.39985 1.51099 0
M  V30 1967 H 187.485 -2.9312 1.38748 0
M  V30 1968 H 187.27 -2.41856 3.08623 0
M  V30 1969 H 188.76 -3.27558 2.59029 0
M  V30 1970 N 189.197 -1.51736 -0.425897 0
M  V30 1971 C 190.425 -1.68794 -1.1965 0
M  V30 1972 C 190.84 -0.390164 -1.84725 0
M  V30 1973 O 190.197 0.632376 -1.71194 0
M  V30 1974 C 190.248 -2.81174 -2.27208 0
M  V30 1975 O 189.969 -4.05925 -1.64793 0
M  V30 1976 C 191.47 -3.09599 -3.17275 0
M  V30 1977 H 188.69 -0.566128 -0.360194 0
M  V30 1978 H 191.234 -1.98211 -0.503249 0
M  V30 1979 H 189.389 -2.54324 -2.9223 0
M  V30 1980 H 189.803 -4.68423 -2.35967 0
M  V30 1981 H 191.277 -3.91786 -3.88854 0
M  V30 1982 H 191.754 -2.22468 -3.78688 0
M  V30 1983 H 192.36 -3.38151 -2.57941 0
M  V30 1984 N 190.675 0.682077 -1.42076 0
M  V30 1985 C 191.607 1.80755 -1.40926 0
M  V30 1986 C 192.62 1.59833 -0.309398 0
M  V30 1987 O 193.809 1.69087 -0.572014 0
M  V30 1988 C 190.909 3.17744 -1.17865 0
M  V30 1989 C 190.082 3.65578 -2.40149 0
M  V30 1990 C 189.141 4.81277 -2.12742 0
M  V30 1991 O 188.167 4.92197 -2.85887 0
M  V30 1992 N 189.369 5.69474 -1.12602 0
M  V30 1993 H 192.134 1.82229 -2.37935 0
M  V30 1994 H 189.695 0.864903 -1.36861 0
M  V30 1995 H 191.687 3.9279 -0.9746 0
M  V30 1996 H 190.257 3.11214 -0.294068 0
M  V30 1997 H 189.477 2.81291 -2.76169 0
M  V30 1998 H 190.765 3.94278 -3.21593 0
M  V30 1999 H 190.163 5.63297 -0.520899 0
M  V30 2000 H 188.72 6.44363 -0.981842 0
M  V30 2001 N 192.153 1.28127 0.917671 0
M  V30 2002 C 193.116 1.11744 2.00115 0
M  V30 2003 C 194.116 0.0583052 1.60694 0
M  V30 2004 O 195.306 0.303755 1.71531 0
M  V30 2005 C 192.438 0.704862 3.33533 0
M  V30 2006 H 193.631 2.07966 2.16079 0
M  V30 2007 H 191.184 1.11058 1.09981 0
M  V30 2008 H 191.919 -0.258299 3.2327 0
M  V30 2009 H 191.704 1.4699 3.63505 0
M  V30 2010 H 193.194 0.612768 4.1308 0
M  V30 2011 N 193.631 -1.12557 1.10312 0
M  V30 2012 C 195.042 -1.65574 0.862678 0
M  V30 2013 C 195.393 -1.86566 -0.607256 0
M  V30 2014 O 194.518 -1.59121 -1.46662 0
M  V30 2015 C 195.113 -3.00776 1.55947 0
M  V30 2016 C 193.672 -3.50748 1.36576 0
M  V30 2017 C 192.819 -2.25797 1.60968 0
M  V30 2018 H 195.77 -0.963552 1.26101 0
M  V30 2019 H 195.791 -3.67185 0.997753 0
M  V30 2020 H 195.303 -2.85465 2.62928 0
M  V30 2021 H 193.404 -3.71245 0.317531 0
M  V30 2022 H 193.517 -4.30289 2.10686 0
M  V30 2023 H 191.881 -2.32841 1.03234 0
M  V30 2024 H 192.664 -2.13043 2.69198 0
M  V30 2025 N 195.109 -0.891671 -1.2995 0
M  V30 2026 C 196.072 -0.36828 -2.26222 0
M  V30 2027 C 197.072 0.493014 -1.53056 0
M  V30 2028 O 198.262 0.299213 -1.71611 0
M  V30 2029 C 195.394 0.47442 -3.37583 0
M  V30 2030 H 196.587 -1.21844 -2.74033 0
M  V30 2031 H 194.14 -0.669107 -1.41254 0
M  V30 2032 H 194.875 1.34489 -2.95099 0
M  V30 2033 H 194.66 -0.142615 -3.91841 0
M  V30 2034 H 196.15 0.83218 -4.09224 0
M  V30 2035 N 196.587 1.43421 -0.653314 0
M  V30 2036 C 197.835 2.01414 -0.166415 0
M  V30 2037 C 198.156 1.51803 1.22397 0
M  V30 2038 O 197.426 0.730693 1.81763 0
M  V30 2039 H 196.006 0.744703 -0.0585319 0
M  V30 2040 H 198.668 1.75629 -0.845003 0
M  V30 2041 H 197.764 3.11734 -0.151111 0
M  V30 2042 N 198.065 0.39524 1.52563 0
M  V30 2043 C 199.342 -0.242908 1.94086 0
M  V30 2044 C 199.722 -1.63841 1.33114 0
M  V30 2045 O 199.07 -2.22928 0.501529 0
M  V30 2046 C 199.28 -0.26327 3.48006 0
M  V30 2047 C 200.628 -0.489354 4.21771 0
M  V30 2048 O 201.652 -0.343226 3.54543 0
M  V30 2049 O 200.511 -0.776169 5.4096 0
M  V30 2050 H 197.605 -0.152536 0.812811 0
M  V30 2051 H 200.151 0.450178 1.6362 0
M  V30 2052 H 198.923 0.713985 3.84731 0
M  V30 2053 H 198.546 -1.00103 3.84792 0
M  V30 2054 N 199.544 -1.57102 0.125237 0
M  V30 2055 C 200.96 -1.57915 -0.231322 0
M  V30 2056 C 201.16 -1.13833 -1.66266 0
M  V30 2057 O 200.216 -0.828581 -2.38518 0
M  V30 2058 C 201.529 -3.00699 0.00766489 0
M  V30 2059 C 203.077 -3.12947 -0.0577483 0
M  V30 2060 C 203.552 -4.57742 0.153626 0
M  V30 2061 N 205.043 -4.63092 0.0998073 0
M  V30 2062 C 205.778 -5.72905 0.238174 0
M  V30 2063 N 205.274 -6.91445 0.433057 0
M  V30 2064 N 207.067 -5.6182 0.177308 0
M  V30 2065 H 199.218 -1.84055 1.06007 0
M  V30 2066 H 201.481 -0.850905 0.417929 0
M  V30 2067 H 201.187 -3.3726 0.997431 0
M  V30 2068 H 201.061 -3.70236 -0.721452 0
M  V30 2069 H 203.448 -2.7624 -1.03804 0
M  V30 2070 H 203.529 -2.4594 0.70335 0
M  V30 2071 H 203.173 -4.95149 1.13092 0
M  V30 2072 H 203.103 -5.22848 -0.627534 0
M  V30 2073 H 205.594 -3.77871 -0.047051 0
M  V30 2074 H 205.907 -7.70985 0.529332 0
M  V30 2075 H 204.252 -6.93415 0.469109 0
M  V30 2076 H 207.443 -4.68093 0.0259748 0
M  V30 2077 H 207.616 -6.47357 0.288582 0
M  V30 2078 N 201.022 0.148545 -1.56898 0
M  V30 2079 C 202.27 0.859717 -1.82902 0
M  V30 2080 C 202.591 1.81775 -0.70588 0
M  V30 2081 O 201.861 1.93994 0.272586 0
M  V30 2082 H 200.441 0.320469 -0.674766 0
M  V30 2083 H 203.103 0.142918 -1.94375 0
M  V30 2084 H 202.199 1.4229 -2.77777 0
M  V30 2085 N 202.5 1.5196 0.417844 0
M  V30 2086 C 203.43 1.77634 1.51554 0
M  V30 2087 C 204.411 0.626918 1.58126 0
M  V30 2088 O 205.596 0.871632 1.7354 0
M  V30 2089 C 202.726 1.91911 2.8946 0
M  V30 2090 C 201.68 3.07463 2.97743 0
M  V30 2091 C 201.006 3.06951 4.37819 0
M  V30 2092 C 202.306 4.47082 2.70027 0
M  V30 2093 H 204 2.6955 1.3032 0
M  V30 2094 H 201.546 1.29706 0.625492 0
M  V30 2095 H 203.499 2.08455 3.6623 0
M  V30 2096 H 202.223 0.966598 3.11969 0
M  V30 2097 H 200.882 2.90656 2.23416 0
M  V30 2098 H 200.53 2.09438 4.57323 0
M  V30 2099 H 200.23 3.84556 4.44286 0
M  V30 2100 H 201.754 3.25613 5.16535 0
M  V30 2101 H 203.168 4.6414 3.36522 0
M  V30 2102 H 201.565 5.2654 2.87881 0
M  V30 2103 H 202.635 4.55777 1.65514 0
M  V30 2104 N 203.978 -0.674533 1.42435 0
M  V30 2105 C 205.227 -1.43034 1.42212 0
M  V30 2106 C 205.54 -1.95555 0.0420788 0
M  V30 2107 O 206.746 -2.71374 -0.0827558 0
M  V30 2108 C 205.202 -2.58748 2.50155 0
M  V30 2109 C 204.81 -2.12925 3.94166 0
M  V30 2110 C 206.554 -3.36257 2.59098 0
M  V30 2111 C 204.461 -3.25723 4.93618 0
M  V30 2112 H 203.391 -0.537345 0.528939 0
M  V30 2113 H 206.042 -0.73024 1.68344 0
M  V30 2114 H 204.424 -3.31128 2.17188 0
M  V30 2115 H 205.598 -1.47697 4.36488 0
M  V30 2116 H 203.913 -1.48354 3.89076 0
M  V30 2117 H 206.51 -4.20264 3.30578 0
M  V30 2118 H 206.853 -3.82866 1.63461 0
M  V30 2119 H 207.386 -2.70947 2.9126 0
M  V30 2120 H 204.125 -2.84105 5.90732 0
M  V30 2121 H 203.645 -3.89732 4.55926 0
M  V30 2122 H 205.324 -3.91186 5.15347 0
M  V30 2123 N 205.456 -1.28612 -0.910864 0
M  V30 2124 C 206.681 -1.1891 -1.69927 0
M  V30 2125 C 207.106 0.248372 -1.86453 0
M  V30 2126 O 206.464 1.17961 -1.37676 0
M  V30 2127 C 206.512 -1.89578 -3.06745 0
M  V30 2128 O 205.616 -1.20521 -3.94396 0
M  V30 2129 H 204.957 -0.412632 -0.520222 0
M  V30 2130 H 207.487 -1.69985 -1.1387 0
M  V30 2131 H 207.497 -1.97597 -3.56958 0
M  V30 2132 H 206.172 -2.94136 -2.94035 0
M  V30 2133 H 204.749 -1.20684 -3.52831 0
M  V30 2134 N 206.934 1.1197 -1.10907 0
M  V30 2135 C 207.866 2.17592 -0.720175 0
M  V30 2136 C 208.879 1.60938 0.245495 0
M  V30 2137 O 210.068 1.78476 0.0292245 0
M  V30 2138 C 207.168 3.38873 -0.0427917 0
M  V30 2139 C 206.341 4.25006 -1.03388 0
M  V30 2140 C 205.4 5.24774 -0.387075 0
M  V30 2141 O 204.426 5.59631 -1.03934 0
M  V30 2142 N 205.628 5.74208 0.852407 0
M  V30 2143 H 208.393 2.51567 -1.62893 0
M  V30 2144 H 205.954 1.27439 -0.998543 0
M  V30 2145 H 207.946 4.02703 0.401501 0
M  V30 2146 H 206.516 3.03007 0.768456 0
M  V30 2147 H 205.736 3.57716 -1.65629 0
M  V30 2148 H 207.024 4.79397 -1.70458 0
M  V30 2149 H 206.422 5.48062 1.40161 0
M  V30 2150 H 204.979 6.39901 1.23977 0
M  V30 2151 N 208.412 0.89855 1.29475 0
M  V30 2152 C 209.642 0.538479 1.99459 0
M  V30 2153 C 210.05 -0.880922 1.67441 0
M  V30 2154 O 209.393 -1.59283 0.915127 0
M  V30 2155 C 209.455 0.649564 3.53583 0
M  V30 2156 C 209.119 2.03573 4.09154 0
M  V30 2157 C 210.116 3.00675 4.24135 0
M  V30 2158 C 207.801 2.3448 4.44212 0
M  V30 2159 C 209.795 4.26809 4.73405 0
M  V30 2160 C 207.482 3.60857 4.93179 0
M  V30 2161 C 208.48 4.56836 5.0773 0
M  V30 2162 O 208.168 5.80969 5.55635 0
M  V30 2163 H 207.9 0.205372 0.644048 0
M  V30 2164 H 210.454 1.20958 1.66007 0
M  V30 2165 H 208.684 -0.0785592 3.8662 0
M  V30 2166 H 210.373 0.29881 4.04799 0
M  V30 2167 H 211.139 2.78112 3.97339 0
M  V30 2168 H 207.018 1.60534 4.32145 0
M  V30 2169 H 210.562 5.0173 4.84678 0
M  V30 2170 H 206.459 3.83251 5.19412 0
M  V30 2171 H 207.227 5.83542 5.73952 0
M  V30 2172 N 209.89 -1.43072 0.660911 0
M  V30 2173 C 211.167 -1.95307 0.107017 0
M  V30 2174 C 211.547 -1.60192 -1.37484 0
M  V30 2175 O 210.895 -0.890949 -2.10415 0
M  V30 2176 C 211.105 -3.47124 0.361402 0
M  V30 2177 C 212.453 -4.23738 0.270455 0
M  V30 2178 O 213.477 -3.54981 0.294382 0
M  V30 2179 O 212.336 -5.46131 0.200737 0
M  V30 2180 H 209.43 -0.826984 -0.00517729 0
M  V30 2181 H 211.976 -1.52972 0.734681 0
M  V30 2182 H 210.748 -3.65837 1.38848 0
M  V30 2183 H 210.371 -3.96475 -0.298953 0
M  V30 2184 N 211.368 -0.403325 -1.52352 0
M  V30 2185 C 212.331 0.413051 -2.25447 0
M  V30 2186 C 213.331 0.978513 -1.276 0
M  V30 2187 O 214.521 0.858305 -1.51587 0
M  V30 2188 C 211.653 1.58087 -3.02029 0
M  V30 2189 H 212.846 -0.227094 -2.99039 0
M  V30 2190 H 210.399 -0.155722 -1.55522 0
M  V30 2191 H 211.134 2.25804 -2.32772 0
M  V30 2192 H 210.919 1.18195 -3.73861 0
M  V30 2193 H 212.409 2.1585 -3.57489 0
M  V30 2194 N 212.846 1.57033 -0.133567 0
M  V30 2195 C 214.071 2.00475 0.531477 0
M  V30 2196 C 214.496 1.01291 1.58499 0
M  V30 2197 O 213.854 -0.0133279 1.81295 0
M  V30 2198 C 213.902 3.42729 1.12113 0
M  V30 2199 O 213.006 3.46498 2.23636 0
M  V30 2200 H 212.347 0.650876 0.131362 0
M  V30 2201 H 214.877 2.03344 -0.22634 0
M  V30 2202 H 214.887 3.81246 1.4531 0
M  V30 2203 H 213.562 4.14428 0.349557 0
M  V30 2204 H 212.139 3.19811 1.91769 0
M  V30 2205 N 214.325 -0.140222 1.56975 0
M  V30 2206 C 215.273 -1.19207 1.99731 0
M  V30 2207 C 216.267 -1.44089 0.890777 0
M  V30 2208 O 217.473 -1.44301 1.07597 0
M  V30 2209 H 213.848 -0.40142 0.635898 0
M  V30 2210 H 215.819 -0.804813 2.87342 0
M  V30 2211 C 214.568 -2.51617 2.39967 0
M  V30 2212 H 213.891 -2.33303 3.24669 0
M  V30 2213 H 215.331 -3.23827 2.73701 0
M  V30 2214 C 213.79 -3.12654 1.25496 0
M  V30 2215 O 214.32 -3.97786 0.559371 0
M  V30 2216 N 212.526 -2.72206 1.01746 0
M  V30 2217 H 212.073 -2.03074 1.58489 0
M  V30 2218 H 212.031 -3.13377 0.253461 0
M  V30 2219 N 215.803 -1.52179 -0.40978 0
M  V30 2220 C 216.751 -1.76086 -1.51975 0
M  V30 2221 C 217.745 -0.627964 -1.57331 0
M  V30 2222 O 218.951 -0.809993 -1.60745 0
M  V30 2223 H 215.326 -0.556829 -0.505416 0
M  V30 2224 H 217.297 -2.69077 -1.28996 0
M  V30 2225 C 216.046 -1.92799 -2.8935 0
M  V30 2226 H 215.369 -2.79392 -2.85972 0
M  V30 2227 H 216.809 -2.13527 -3.66309 0
M  V30 2228 C 215.268 -0.694923 -3.29655 0
M  V30 2229 O 215.798 0.13751 -4.01465 0
M  V30 2230 N 214.004 -0.53101 -2.85707 0
M  V30 2231 H 213.551 -1.20952 -2.27439 0
M  V30 2232 H 213.509 0.292718 -3.13034 0
M  V30 2233 N 217.281 0.66697 -1.42791 0
M  V30 2234 C 218.229 1.80157 -1.47127 0
M  V30 2235 C 219.223 1.65825 -0.346199 0
M  V30 2236 O 220.429 1.72338 -0.519572 0
M  V30 2237 H 216.804 0.594158 -0.460956 0
M  V30 2238 H 218.775 1.73619 -2.42692 0
M  V30 2239 C 217.524 3.18351 -1.39813 0
M  V30 2240 H 216.847 3.3001 -2.25684 0
M  V30 2241 H 218.287 3.97736 -1.46908 0
M  V30 2242 C 216.746 3.36707 -0.11391 0
M  V30 2243 O 217.276 3.93027 0.830241 0
M  V30 2244 N 215.482 2.90586 -0.0285295 0
M  V30 2245 H 215.029 2.4494 -0.79764 0
M  V30 2246 H 214.987 3.03245 0.830063 0
M  V30 2247 N 218.759 1.29093 0.90403 0
M  V30 2248 C 219.984 1.19809 1.69294 0
M  V30 2249 C 220.409 -0.238481 1.86582 0
M  V30 2250 O 219.767 -1.1723 1.383 0
M  V30 2251 C 219.815 1.91202 3.05736 0
M  V30 2252 O 218.919 1.22611 3.93752 0
M  V30 2253 H 218.26 0.415385 0.518027 0
M  V30 2254 H 220.79 1.70586 1.12967 0
M  V30 2255 H 220.8 1.99487 3.55906 0
M  V30 2256 H 219.475 2.95692 2.92471 0
M  V30 2257 H 218.052 1.22554 3.52186 0
M  V30 2258 N 220.237 -1.11381 1.11499 0
M  V30 2259 C 221.2 -2.15622 0.777153 0
M  V30 2260 C 222.2 -1.59504 -0.203779 0
M  V30 2261 O 223.39 -1.74188 0.020782 0
M  V30 2262 C 220.522 -3.40556 0.153116 0
M  V30 2263 H 221.715 -2.47021 1.70061 0
M  V30 2264 H 219.268 -1.26577 0.916952 0
M  V30 2265 H 220.003 -3.14767 -0.780536 0
M  V30 2266 H 219.788 -3.8257 0.859238 0
M  V30 2267 H 221.278 -4.17546 -0.0671044 0
M  V30 2268 N 221.715 -0.905404 -1.28997 0
M  V30 2269 C 223.131 -0.60233 -1.47798 0
M  V30 2270 C 223.331 0.854645 -1.82478 0
M  V30 2271 O 222.387 1.63439 -1.92468 0
M  V30 2272 C 223.7 -1.53306 -2.58685 0
M  V30 2273 C 225.248 -1.53887 -2.72558 0
M  V30 2274 C 225.723 -2.45602 -3.86579 0
M  V30 2275 N 227.214 -2.43681 -3.93921 0
M  V30 2276 C 227.949 -3.11347 -4.81509 0
M  V30 2277 N 227.445 -3.88313 -5.73746 0
M  V30 2278 N 229.238 -3.00476 -4.75048 0
M  V30 2279 H 221.389 -1.84765 -1.04764 0
M  V30 2280 H 223.652 -0.792025 -0.520961 0
M  V30 2281 H 223.358 -2.57141 -2.39941 0
M  V30 2282 H 223.232 -1.25787 -3.55609 0
M  V30 2283 H 225.619 -0.507941 -2.90696 0
M  V30 2284 H 225.7 -1.85447 -1.76191 0
M  V30 2285 H 225.344 -3.48792 -3.69197 0
M  V30 2286 H 225.274 -2.11349 -4.82327 0
M  V30 2287 H 227.765 -1.87767 -3.27951 0
M  V30 2288 H 228.078 -4.36985 -6.37389 0
M  V30 2289 H 226.423 -3.92419 -5.73614 0
M  V30 2290 H 229.614 -2.39858 -4.01977 0
M  V30 2291 H 229.787 -3.53485 -5.43095 0
M  V30 2292 N 223.193 1.4272 -0.668489 0
M  V30 2293 C 224.125 2.2914 0.052613 0
M  V30 2294 C 225.138 1.43339 0.771857 0
M  V30 2295 O 226.327 1.67123 0.627067 0
M  V30 2296 C 223.427 3.20618 1.09804 0
M  V30 2297 C 222.6 4.35039 0.45389 0
M  V30 2298 C 221.659 5.07282 1.39825 0
M  V30 2299 O 220.685 5.62024 0.900978 0
M  V30 2300 N 221.887 5.12206 2.73176 0
M  V30 2301 H 224.652 2.91668 -0.689209 0
M  V30 2302 H 222.213 1.53577 -0.512422 0
M  V30 2303 H 224.205 3.65815 1.73094 0
M  V30 2304 H 222.775 2.59585 1.74167 0
M  V30 2305 H 221.995 3.92567 -0.358396 0
M  V30 2306 H 223.283 5.088 0.00486972 0
M  V30 2307 H 222.681 4.6913 3.16122 0
M  V30 2308 H 221.238 5.61069 3.31729 0
M  V30 2309 N 224.671 0.411399 1.52136 0
M  V30 2310 C 225.601 -0.404015 2.29978 0
M  V30 2311 C 226.582 -1.04412 1.34284 0
M  V30 2312 O 227.767 -1.0527 1.63192 0
M  V30 2313 C 224.897 -1.5197 3.12286 0
M  V30 2314 C 223.851 -1.00448 4.16046 0
M  V30 2315 C 223.177 -2.21393 4.86712 0
M  V30 2316 C 224.477 -0.0569336 5.22269 0
M  V30 2317 H 226.171 0.245529 2.98392 0
M  V30 2318 H 223.717 0.119525 1.43503 0
M  V30 2319 H 225.67 -2.09715 3.6551 0
M  V30 2320 H 224.394 -2.19716 2.41646 0
M  V30 2321 H 223.053 -0.449421 3.63835 0
M  V30 2322 H 222.701 -2.87699 4.12599 0
M  V30 2323 H 222.401 -1.87571 5.56858 0
M  V30 2324 H 223.925 -2.7974 5.4275 0
M  V30 2325 H 225.339 -0.54325 5.7072 0
M  V30 2326 H 223.736 0.192594 5.99791 0
M  V30 2327 H 224.806 0.887663 4.76706 0
M  V30 2328 N 226.149 -1.5696 0.141893 0
M  V30 2329 C 227.395 -1.97034 -0.504884 0
M  V30 2330 C 227.75 -1.02518 -1.62812 0
M  V30 2331 O 227.043 -0.0592943 -1.91508 0
M  V30 2332 C 227.237 -3.41242 -1.06249 0
M  V30 2333 C 227.066 -4.497 0.00519653 0
M  V30 2334 C 225.836 -5.03338 0.444873 0
M  V30 2335 C 228.034 -5.08122 0.794767 0
M  V30 2336 N 226.016 -5.95395 1.49593 0
M  V30 2337 C 227.387 -5.96339 1.69645 0
M  V30 2338 C 229.442 -4.9071 0.843122 0
M  V30 2339 C 228.145 -6.69009 2.64233 0
M  V30 2340 C 230.171 -5.64077 1.77681 0
M  V30 2341 C 229.533 -6.51999 2.66603 0
M  V30 2342 H 225.632 -0.766745 -0.153707 0
M  V30 2343 H 228.216 -1.93273 0.235313 0
M  V30 2344 H 226.387 -3.45606 -1.77231 0
M  V30 2345 H 228.119 -3.68389 -1.67546 0
M  V30 2346 H 224.874 -4.73576 0.0480959 0
M  V30 2347 H 225.298 -6.46128 2.02107 0
M  V30 2348 H 229.94 -4.22459 0.169732 0
M  V30 2349 H 227.658 -7.36492 3.32575 0
M  V30 2350 H 231.244 -5.52602 1.81996 0
M  V30 2351 H 230.124 -7.07775 3.37675 0
M  V30 2352 N 227.627 0.131896 -1.57047 0
M  V30 2353 C 228.855 0.856461 -1.88341 0
M  V30 2354 C 229.27 1.74042 -0.731757 0
M  V30 2355 O 228.627 1.80051 0.297945 0
M  V30 2356 C 228.678 1.70064 -3.18999 0
M  V30 2357 O 228.399 0.852278 -4.2973 0
M  V30 2358 C 229.9 2.53148 -3.63911 0
M  V30 2359 H 227.12 0.246885 -0.62393 0
M  V30 2360 H 229.664 0.120152 -2.04147 0
M  V30 2361 H 227.819 2.38984 -3.04902 0
M  V30 2362 H 228.233 1.43329 -5.04537 0
M  V30 2363 H 229.707 3.07931 -4.58129 0
M  V30 2364 H 230.184 3.29901 -2.89935 0
M  V30 2365 H 230.79 1.89492 -3.80753 0
M  V30 2366 N 229.106 1.52395 0.401703 0
M  V30 2367 C 230.069 1.75636 1.47257 0
M  V30 2368 C 231.069 0.62628 1.48103 0
M  V30 2369 O 232.259 0.894227 1.49497 0
M  V30 2370 C 229.391 1.84553 2.86624 0
M  V30 2371 H 230.584 2.71241 1.27938 0
M  V30 2372 H 228.137 1.42923 0.632662 0
M  V30 2373 H 228.872 0.908882 3.11303 0
M  V30 2374 H 228.657 2.66715 2.87412 0
M  V30 2375 H 230.147 2.04251 3.64241 0
M  V30 2376 N 230.584 -0.659388 1.43143 0
M  V30 2377 C 231.83 -1.42145 1.44647 0
M  V30 2378 C 232.163 -1.9408 0.0681907 0
M  V30 2379 O 231.438 -1.71899 -0.910007 0
M  V30 2380 C 231.721 -2.60735 2.48373 0
M  V30 2381 C 231.574 -2.14332 3.95451 0
M  V30 2382 C 232.893 -3.62951 2.48906 0
M  V30 2383 H 230.012 -0.51552 0.526696 0
M  V30 2384 H 232.654 -0.748069 1.74654 0
M  V30 2385 H 230.804 -3.18184 2.22916 0
M  V30 2386 H 232.476 -1.61932 4.31944 0
M  V30 2387 H 230.719 -1.4576 4.08578 0
M  V30 2388 H 231.39 -2.99583 4.63631 0
M  V30 2389 H 233.866 -3.1525 2.71582 0
M  V30 2390 H 232.742 -4.43487 3.23435 0
M  V30 2391 H 233.003 -4.15126 1.52061 0
M  V30 2392 N 232.062 -1.29571 -0.897171 0
M  V30 2393 C 233.308 -1.17863 -1.65034 0
M  V30 2394 C 233.641 0.268729 -1.92332 0
M  V30 2395 O 232.916 1.19378 -1.53555 0
M  V30 2396 C 233.199 -1.995 -2.99786 0
M  V30 2397 C 233.052 -3.5239 -2.79538 0
M  V30 2398 C 234.371 -1.82335 -4.00552 0
M  V30 2399 H 231.49 -0.429528 -0.598895 0
M  V30 2400 H 234.132 -1.59072 -1.03905 0
M  V30 2401 H 232.282 -1.64485 -3.51962 0
M  V30 2402 H 233.954 -3.97401 -2.34244 0
M  V30 2403 H 232.197 -3.77187 -2.14273 0
M  V30 2404 H 232.868 -4.04787 -3.75302 0
M  V30 2405 H 235.344 -2.12924 -3.57495 0
M  V30 2406 H 234.22 -2.41801 -4.92771 0
M  V30 2407 H 234.481 -0.779209 -4.35179 0
M  V30 2408 N 233.54 1.10788 -1.12088 0
M  V30 2409 C 234.951 1.64181 -0.88891 0
M  V30 2410 C 235.302 1.87508 0.577498 0
M  V30 2411 O 234.427 1.61434 1.44112 0
M  V30 2412 C 235.022 2.98257 -1.60712 0
M  V30 2413 C 233.581 3.4853 -1.42139 0
M  V30 2414 C 232.728 2.23208 -1.6454 0
M  V30 2415 H 235.679 0.943368 -1.27618 0
M  V30 2416 H 235.7 3.65552 -1.05604 0
M  V30 2417 H 235.212 2.81246 -2.67436 0
M  V30 2418 H 233.313 3.70692 -0.376552 0
M  V30 2419 H 233.426 4.26882 -2.17505 0
M  V30 2420 H 231.79 2.31169 -1.06925 0
M  V30 2421 H 232.573 2.08733 -2.72554 0
M  V30 2422 N 235.018 0.912232 1.28515 0
M  V30 2423 C 236.266 0.543523 1.94654 0
M  V30 2424 C 236.587 -0.9155 1.72173 0
M  V30 2425 O 235.857 -1.64708 1.06058 0
M  V30 2426 H 234.437 0.198017 0.720277 0
M  V30 2427 H 237.099 1.16126 1.56527 0
M  V30 2428 H 236.195 0.736684 3.03281 0
M  V30 2429 N 236.496 -1.42363 0.676048 0
M  V30 2430 C 237.459 -2.29199 0.00766941 0
M  V30 2431 C 238.459 -1.43389 -0.727745 0
M  V30 2432 O 239.649 -1.64764 -0.56556 0
M  V30 2433 C 236.781 -3.2591 -0.999785 0
M  V30 2434 H 237.974 -2.89794 0.771988 0
M  V30 2435 H 235.527 -1.50024 0.438468 0
M  V30 2436 H 236.262 -2.70256 -1.79255 0
M  V30 2437 H 236.047 -3.89202 -0.475829 0
M  V30 2438 H 237.537 -3.91028 -1.46583 0
M  V30 2439 N 237.974 -0.419461 -1.51915 0
M  V30 2440 C 238.884 0.407528 -2.31033 0
M  V30 2441 C 239.9 1.04413 -1.3919 0
M  V30 2442 O 241.076 1.0434 -1.72265 0
M  V30 2443 C 238.141 1.50365 -3.12396 0
M  V30 2444 C 237.202 0.889029 -4.19994 0
M  V30 2445 C 236.435 1.93291 -4.97468 0
M  V30 2446 O 236.658 3.15259 -4.75361 0
M  V30 2447 O 235.592 1.53339 -5.8204 0
M  V30 2448 H 239.418 -0.237865 -3.02767 0
M  V30 2449 H 237.003 -0.182413 -1.48282 0
M  V30 2450 H 238.885 2.13975 -3.63032 0
M  V30 2451 H 237.56 2.13345 -2.43445 0
M  V30 2452 H 236.467 0.215353 -3.7348 0
M  V30 2453 H 237.8 0.302991 -4.91267 0
M  V30 2454 N 239.452 1.56882 -0.150215 0
M  V30 2455 C 240.415 2.1573 0.774157 0
M  V30 2456 C 241.415 1.0999 1.17298 0
M  V30 2457 O 242.605 1.35613 1.09338 0
M  V30 2458 C 239.737 2.72302 2.05096 0
M  V30 2459 H 240.93 2.98752 0.262201 0
M  V30 2460 H 238.483 1.55985 0.099248 0
M  V30 2461 H 239.218 1.92956 2.6065 0
M  V30 2462 H 239.003 3.49665 1.77416 0
M  V30 2463 H 240.493 3.17632 2.71109 0
M  V30 2464 N 240.93 -0.123565 1.57115 0
M  V30 2465 C 242.176 -0.833386 1.84885 0
M  V30 2466 C 242.509 -1.79742 0.735292 0
M  V30 2467 O 241.784 -1.92764 -0.25925 0
M  V30 2468 C 242.067 -1.5873 3.23228 0
M  V30 2469 C 241.92 -0.643183 4.45178 0
M  V30 2470 C 243.239 -2.54453 3.59085 0
M  V30 2471 H 240.358 -0.301518 0.6725 0
M  V30 2472 H 243 -0.097778 1.89748 0
M  V30 2473 H 241.15 -2.21438 3.19214 0
M  V30 2474 H 242.822 -0.0253015 4.61293 0
M  V30 2475 H 241.065 0.0456139 4.33776 0
M  V30 2476 H 241.736 -1.20724 5.38637 0
M  V30 2477 H 244.212 -2.01853 3.63861 0
M  V30 2478 H 243.088 -3.04238 4.5687 0
M  V30 2479 H 243.349 -3.36906 2.86264 0
M  V30 2480 N 242.408 -1.52605 -0.393616 0
M  V30 2481 C 243.657 -1.66649 -1.13627 0
M  V30 2482 C 243.97 -0.410364 -1.91247 0
M  V30 2483 O 245.176 -0.430854 -2.68059 0
M  V30 2484 C 243.632 -2.9449 -2.06891 0
M  V30 2485 C 243.24 -4.27266 -1.34714 0
M  V30 2486 C 244.984 -3.17899 -2.81319 0
M  V30 2487 C 242.891 -5.46217 -2.26717 0
M  V30 2488 H 241.821 -0.62084 -0.427871 0
M  V30 2489 H 244.472 -1.791 -0.399428 0
M  V30 2490 H 242.854 -2.75774 -2.84191 0
M  V30 2491 H 244.028 -4.56518 -0.626714 0
M  V30 2492 H 242.343 -4.10081 -0.722643 0
M  V30 2493 H 244.94 -4.03949 -3.50328 0
M  V30 2494 H 245.283 -2.32777 -3.45139 0
M  V30 2495 H 245.816 -3.37159 -2.11113 0
M  V30 2496 H 242.555 -6.33733 -1.67521 0
M  V30 2497 H 242.075 -5.21283 -2.96689 0
M  V30 2498 H 243.754 -5.7991 -2.86903 0
M  V30 2499 N 243.887 0.651787 -1.4349 0
M  V30 2500 C 244.797 1.79368 -1.5121 0
M  V30 2501 C 245.813 1.69361 -0.399093 0
M  V30 2502 O 246.989 1.90505 -0.653431 0
M  V30 2503 C 244.054 3.15653 -1.43401 0
M  V30 2504 C 243.115 3.37446 -2.65384 0
M  V30 2505 C 242.348 4.67229 -2.57939 0
M  V30 2506 O 242.571 5.46676 -1.62792 0
M  V30 2507 O 241.505 4.90773 -3.48462 0
M  V30 2508 H 245.331 1.7581 -2.47638 0
M  V30 2509 H 242.916 0.810447 -1.25507 0
M  V30 2510 H 244.798 3.96935 -1.41494 0
M  V30 2511 H 243.473 3.19798 -0.501085 0
M  V30 2512 H 242.38 2.55923 -2.72863 0
M  V30 2513 H 243.713 3.38148 -3.57654 0
M  V30 2514 N 245.365 1.30045 0.890287 0
M  V30 2515 C 246.328 1.15963 1.977 0
M  V30 2516 C 247.328 0.0923777 1.60534 0
M  V30 2517 O 248.518 0.340071 1.70848 0
M  V30 2518 C 245.65 0.775451 3.31963 0
M  V30 2519 H 246.843 2.12502 2.11619 0
M  V30 2520 H 244.396 1.13366 1.07601 0
M  V30 2521 H 245.131 -0.189671 3.23745 0
M  V30 2522 H 244.916 1.54668 3.60306 0
M  V30 2523 H 246.406 0.700251 4.11687 0
M  V30 2524 N 246.843 -1.10192 1.12674 0
M  V30 2525 C 248.089 -1.82475 0.884915 0
M  V30 2526 C 248.422 -1.85093 -0.58773 0
M  V30 2527 O 247.697 -1.3134 -1.43457 0
M  V30 2528 C 247.98 -3.29018 1.46353 0
M  V30 2529 C 247.833 -3.34718 3.00473 0
M  V30 2530 C 249.152 -4.25473 1.12519 0
M  V30 2531 H 246.271 -0.662492 0.322915 0
M  V30 2532 H 248.913 -1.2913 1.39375 0
M  V30 2533 H 247.063 -3.74576 1.03077 0
M  V30 2534 H 248.735 -2.97622 3.52447 0
M  V30 2535 H 246.978 -2.74541 3.35872 0
M  V30 2536 H 247.649 -4.37918 3.36053 0
M  V30 2537 H 250.125 -3.88161 1.499 0
M  V30 2538 H 249.001 -5.26365 1.55663 0
M  V30 2539 H 249.262 -4.42084 0.0377407 0
M  V30 2540 N 248.321 -0.919034 -1.28029 0
M  V30 2541 C 249.57 -0.550802 -1.94034 0
M  V30 2542 C 249.883 0.910877 -1.73096 0
M  V30 2543 O 251.089 1.3875 -2.33368 0
M  V30 2544 C 249.545 -0.934249 -3.47563 0
M  V30 2545 C 249.153 -2.41602 -3.7727 0
M  V30 2546 C 250.897 -0.636854 -4.19696 0
M  V30 2547 C 248.804 -2.73932 -5.24133 0
M  V30 2548 H 247.734 -0.202273 -0.726362 0
M  V30 2549 H 250.385 -1.11867 -1.45458 0
M  V30 2550 H 248.767 -0.295115 -3.94899 0
M  V30 2551 H 249.941 -3.10233 -3.40723 0
M  V30 2552 H 248.256 -2.68441 -3.18321 0
M  V30 2553 H 250.853 -0.855005 -5.2782 0
M  V30 2554 H 251.196 0.425575 -4.14119 0
M  V30 2555 H 251.729 -1.23469 -3.78154 0
M  V30 2556 H 248.468 -3.79049 -5.34792 0
M  V30 2557 H 247.988 -2.09942 -5.61858 0
M  V30 2558 H 249.667 -2.61215 -5.91925 0
M  V30 2559 N 249.799 1.42003 -0.683588 0
M  V30 2560 C 251.21 1.84501 -0.285736 0
M  V30 2561 C 251.561 1.57213 1.17382 0
M  V30 2562 O 250.686 1.03642 1.89966 0
M  V30 2563 C 251.281 3.34912 -0.511821 0
M  V30 2564 C 249.84 3.76025 -0.168005 0
M  V30 2565 C 248.987 2.6551 -0.799983 0
M  V30 2566 H 251.938 1.31724 -0.885119 0
M  V30 2567 H 251.959 3.79784 0.233292 0
M  V30 2568 H 251.471 3.54741 -1.57418 0
M  V30 2569 H 249.572 3.61801 0.890567 0
M  V30 2570 H 249.685 4.75141 -0.614661 0
M  V30 2571 H 248.049 2.53654 -0.230568 0
M  V30 2572 H 248.832 2.8816 -1.86597 0
M  V30 2573 N 251.277 0.427512 1.51691 0
M  V30 2574 C 252.693 0.0792977 1.59403 0
M  V30 2575 C 252.893 -1.41035 1.43914 0
M  V30 2576 O 251.949 -2.17922 1.27539 0
M  V30 2577 C 253.262 0.590636 2.94842 0
M  V30 2578 C 254.81 0.550215 3.08126 0
M  V30 2579 C 255.285 1.03836 4.46074 0
M  V30 2580 N 256.776 0.995943 4.52366 0
M  V30 2581 C 257.511 1.34463 5.57411 0
M  V30 2582 N 257.007 1.76569 6.69922 0
M  V30 2583 N 258.8 1.26343 5.47717 0
M  V30 2584 H 250.951 1.39687 1.60004 0
M  V30 2585 H 253.214 0.575003 0.753708 0
M  V30 2586 H 252.92 1.63251 3.11516 0
M  V30 2587 H 252.794 0.0102061 3.77199 0
M  V30 2588 H 255.181 -0.482654 2.91126 0
M  V30 2589 H 255.262 1.16693 2.27632 0
M  V30 2590 H 254.906 2.06965 4.63819 0
M  V30 2591 H 254.836 0.398286 5.25092 0
M  V30 2592 H 257.327 0.68661 3.7161 0
M  V30 2593 H 257.64 2.01438 7.46085 0
M  V30 2594 H 255.985 1.80488 6.71155 0
M  V30 2595 H 259.176 0.933209 4.58703 0
M  V30 2596 H 259.349 1.53846 6.29472 0
M  V30 2597 N 252.755 -1.56801 0.158532 0
M  V30 2598 C 254.032 -1.88131 -0.535357 0
M  V30 2599 C 254.412 -1.06638 -1.82186 0
M  V30 2600 O 253.76 -0.156533 -2.27963 0
M  V30 2601 C 253.97 -3.39949 -0.789653 0
M  V30 2602 C 255.318 -4.09416 -1.12533 0
M  V30 2603 O 256.342 -3.45194 -0.878622 0
M  V30 2604 O 255.201 -5.22855 -1.59014 0
M  V30 2605 H 252.295 -0.780143 -0.27442 0
M  V30 2606 H 254.841 -1.68564 0.19601 0
M  V30 2607 H 253.613 -3.91115 0.120353 0
M  V30 2608 H 253.236 -3.65084 -1.57479 0
M  V30 2609 N 254.233 0.115231 -1.57178 0
M  V30 2610 C 255.18 1.14115 -2.00615 0
M  V30 2611 C 256.15 1.40939 -0.878941 0
M  V30 2612 O 257.335 1.52741 -1.14345 0
M  V30 2613 C 254.475 2.46156 -2.4187 0
M  V30 2614 C 253.588 2.26236 -3.68024 0
M  V30 2615 C 252.723 3.51534 -3.98243 0
M  V30 2616 C 251.762 3.26787 -5.17568 0
M  V30 2617 N 250.899 4.44298 -5.43639 0
M  V30 2618 H 255.739 0.763743 -2.88047 0
M  V30 2619 H 253.276 0.365615 -1.42484 0
M  V30 2620 H 255.234 3.23189 -2.63827 0
M  V30 2621 H 253.864 2.81783 -1.57475 0
M  V30 2622 H 252.916 1.40102 -3.5366 0
M  V30 2623 H 254.228 2.03929 -4.55208 0
M  V30 2624 H 253.382 4.36984 -4.20868 0
M  V30 2625 H 252.121 3.76876 -3.09541 0
M  V30 2626 H 251.126 2.39729 -4.94783 0
M  V30 2627 H 252.351 3.02812 -6.0785 0
M  V30 2628 H 250.297 4.69754 -4.57895 0
M  V30 2629 H 250.214 4.25109 -6.25154 0
M  V30 2630 H 251.482 5.3087 -5.70786 0
M  V30 2631 N 255.711 1.52812 0.385517 0
M  V30 2632 C 256.957 1.68275 1.13188 0
M  V30 2633 C 257.29 0.423179 1.89533 0
M  V30 2634 O 256.565 -0.579113 1.85679 0
M  V30 2635 C 256.848 2.92001 2.1073 0
M  V30 2636 C 256.701 4.28067 1.38125 0
M  V30 2637 C 258.02 3.11283 3.11113 0
M  V30 2638 H 255.139 0.612352 0.410115 0
M  V30 2639 H 257.781 1.85415 0.414869 0
M  V30 2640 H 255.931 2.77519 2.71874 0
M  V30 2641 H 257.603 4.54324 0.799187 0
M  V30 2642 H 255.846 4.28388 0.683092 0
M  V30 2643 H 256.517 5.10733 2.09417 0
M  V30 2644 H 258.993 3.2482 2.6006 0
M  V30 2645 H 257.869 3.99325 3.76605 0
M  V30 2646 H 258.13 2.25656 3.80173 0
M  V30 2647 N 257.189 -0.644168 1.43834 0
M  V30 2648 C 258.437 -1.40117 1.45642 0
M  V30 2649 C 258.758 -1.94814 0.0852413 0
M  V30 2650 O 258.028 -1.74988 -0.880688 0
M  V30 2651 H 256.608 -0.52005 0.536243 0
M  V30 2652 H 259.27 -0.7591 1.7951 0
M  V30 2653 H 258.366 -2.23902 2.17427 0
M  V30 2654 N 258.668 -1.30515 -0.883378 0
M  V30 2655 C 259.578 -1.18959 -2.02203 0
M  V30 2656 C 260.594 -0.109172 -1.73657 0
M  V30 2657 O 261.77 -0.324413 -1.9877 0
M  V30 2658 C 258.835 -0.883871 -3.35244 0
M  V30 2659 C 257.896 -2.04982 -3.77201 0
M  V30 2660 C 257.129 -1.75859 -5.03894 0
M  V30 2661 O 257.352 -0.687276 -5.66244 0
M  V30 2662 O 256.286 -2.61146 -5.42297 0
M  V30 2663 H 260.112 -2.14616 -2.1488 0
M  V30 2664 H 257.697 -1.10124 -1.0096 0
M  V30 2665 H 259.579 -0.728644 -4.15053 0
M  V30 2666 H 258.254 0.0427798 -3.23672 0
M  V30 2667 H 257.161 -2.26038 -2.9809 0
M  V30 2668 H 258.494 -2.95825 -3.93381 0
M  V30 2669 N 260.146 1.09593 -1.13257 0
M  V30 2670 C 261.393 1.81734 -0.893257 0
M  V30 2671 C 261.721 1.8563 0.580656 0
M  V30 2672 O 260.976 1.31906 1.44566 0
M  V30 2673 C 261.275 3.27802 -1.42411 0
M  V30 2674 C 260.941 3.44041 -2.91456 0
M  V30 2675 C 259.603 3.48181 -3.3215 0
M  V30 2676 C 261.955 3.48719 -3.87356 0
M  V30 2677 C 259.283 3.54575 -4.67433 0
M  V30 2678 C 261.635 3.56648 -5.2248 0
M  V30 2679 C 260.299 3.59055 -5.62704 0
M  V30 2680 H 259.569 0.665011 -0.326866 0
M  V30 2681 H 262.216 1.2912 -1.41422 0
M  V30 2682 H 260.521 3.83042 -0.823795 0
M  V30 2683 H 262.218 3.82149 -1.21503 0
M  V30 2684 H 258.808 3.41502 -2.58987 0
M  V30 2685 H 262.992 3.44763 -3.57004 0
M  V30 2686 H 258.248 3.54725 -4.97976 0
M  V30 2687 H 262.422 3.59212 -5.96607 0
M  V30 2688 H 260.049 3.63763 -6.67518 0
M  V30 2689 N 261.624 0.925811 1.2754 0
M  V30 2690 C 262.571 0.422045 2.26908 0
M  V30 2691 C 263.541 -0.510029 1.58076 0
M  V30 2692 O 264.726 -0.429599 1.85901 0
M  V30 2693 C 261.866 -0.320837 3.43605 0
M  V30 2694 C 260.979 0.64513 4.27156 0
M  V30 2695 C 260.114 -0.117405 5.3107 0
M  V30 2696 C 259.153 0.841391 6.0629 0
M  V30 2697 N 258.29 0.111604 7.02011 0
M  V30 2698 H 263.13 1.27441 2.69375 0
M  V30 2699 H 260.667 0.639697 1.32462 0
M  V30 2700 H 262.625 -0.76785 4.10073 0
M  V30 2701 H 261.255 -1.13745 3.02096 0
M  V30 2702 H 260.307 1.21067 3.6062 0
M  V30 2703 H 261.619 1.37797 4.79389 0
M  V30 2704 H 260.773 -0.624422 6.03478 0
M  V30 2705 H 259.512 -0.883219 4.79636 0
M  V30 2706 H 258.517 1.35967 5.32722 0
M  V30 2707 H 259.742 1.60696 6.59813 0
M  V30 2708 H 257.688 -0.635999 6.5291 0
M  V30 2709 H 257.605 0.784044 7.51923 0
M  V30 2710 H 258.873 -0.374823 7.78598 0
M  V30 2711 N 263.102 -1.41638 0.69111 0
M  V30 2712 C 264.032 -2.3347 0.037248 0
M  V30 2713 C 265.013 -1.51575 -0.771947 0
M  V30 2714 O 266.198 -1.80126 -0.72582 0
M  V30 2715 C 263.328 -3.35354 -0.903064 0
M  V30 2716 C 262.282 -4.27526 -0.201288 0
M  V30 2717 C 261.608 -5.19747 -1.25565 0
M  V30 2718 C 262.908 -5.13959 0.929689 0
M  V30 2719 H 264.602 -2.88397 0.804227 0
M  V30 2720 H 262.148 -1.38669 0.388189 0
M  V30 2721 H 264.101 -3.98519 -1.36969 0
M  V30 2722 H 262.825 -2.78767 -1.70166 0
M  V30 2723 H 261.484 -3.65779 0.245265 0
M  V30 2724 H 261.132 -4.59479 -2.04666 0
M  V30 2725 H 260.832 -5.8225 -0.791128 0
M  V30 2726 H 262.356 -5.85789 -1.72288 0
M  V30 2727 H 263.77 -5.70718 0.543546 0
M  V30 2728 H 262.167 -5.85379 1.32103 0
M  V30 2729 H 263.237 -4.51389 1.77133 0
M  V30 2730 N 264.58 -0.43555 -1.51462 0
M  V30 2731 C 265.996 -0.0877501 -1.59359 0
M  V30 2732 C 266.196 1.4027 -1.4466 0
M  V30 2733 O 265.252 2.17243 -1.28693 0
M  V30 2734 C 266.565 -0.606264 -2.94525 0
M  V30 2735 C 268.113 -0.566548 -3.0783 0
M  V30 2736 C 268.588 -1.06201 -4.45517 0
M  V30 2737 N 270.079 -1.01992 -4.51832 0
M  V30 2738 C 270.814 -1.37417 -5.5669 0
M  V30 2739 N 270.31 -1.80119 -6.68976 0
M  V30 2740 N 272.103 -1.29245 -5.47039 0
M  V30 2741 H 264.254 -1.40533 -1.59261 0
M  V30 2742 H 266.517 -0.578992 -0.750648 0
M  V30 2743 H 266.223 -1.64901 -3.10645 0
M  V30 2744 H 266.097 -0.0302097 -3.77188 0
M  V30 2745 H 268.484 0.467208 -2.91378 0
M  V30 2746 H 268.565 -1.17898 -2.2701 0
M  V30 2747 H 268.209 -2.09422 -4.62715 0
M  V30 2748 H 268.139 -0.426127 -5.24873 0
M  V30 2749 H 270.63 -0.706308 -3.71241 0
M  V30 2750 H 270.943 -2.05392 -7.45006 0
M  V30 2751 H 269.288 -1.84044 -6.70189 0
M  V30 2752 H 272.479 -0.957522 -4.58202 0
M  V30 2753 H 272.652 -1.57182 -6.28648 0
M  V30 2754 N 266.058 1.56714 -0.166846 0
M  V30 2755 C 266.988 2.20754 0.760913 0
M  V30 2756 C 267.969 1.16178 1.24244 0
M  V30 2757 O 269.154 1.44592 1.29641 0
M  V30 2758 C 266.284 2.84478 1.99223 0
M  V30 2759 C 265.238 3.95053 1.64672 0
M  V30 2760 C 264.564 4.45805 2.95232 0
M  V30 2761 C 265.864 5.14865 0.878155 0
M  V30 2762 H 267.558 2.98537 0.22713 0
M  V30 2763 H 265.104 1.43596 0.107805 0
M  V30 2764 H 267.057 3.27951 2.64624 0
M  V30 2765 H 265.781 2.04056 2.55007 0
M  V30 2766 H 264.44 3.52228 1.01641 0
M  V30 2767 H 264.088 3.62181 3.49047 0
M  V30 2768 H 263.788 5.204 2.7287 0
M  V30 2769 H 265.312 4.91962 3.6167 0
M  V30 2770 H 266.726 5.55059 1.43466 0
M  V30 2771 H 265.123 5.95348 0.753738 0
M  V30 2772 H 266.193 4.84735 -0.126377 0
M  V30 2773 N 267.536 -0.106894 1.57237 0
M  V30 2774 C 268.764 -0.826389 1.8968 0
M  V30 2775 C 269.179 -1.72856 0.759353 0
M  V30 2776 O 268.536 -1.80503 -0.269263 0
M  V30 2777 C 268.587 -1.64967 3.21665 0
M  V30 2778 O 268.308 -0.783804 4.31031 0
M  V30 2779 C 269.809 -2.47326 3.67892 0
M  V30 2780 H 267.029 -0.236927 0.627779 0
M  V30 2781 H 269.573 -0.0876593 2.04312 0
M  V30 2782 H 267.728 -2.34103 3.08666 0
M  V30 2783 H 268.142 -1.35284 5.06753 0
M  V30 2784 H 269.616 -3.00604 4.6297 0
M  V30 2785 H 270.093 -3.25247 2.95146 0
M  V30 2786 H 270.699 -1.83411 3.83719 0
M  V30 2787 N 269.014 -1.53014 -0.377408 0
M  V30 2788 C 269.961 -1.78616 -1.46168 0
M  V30 2789 C 270.931 -0.629917 -1.53692 0
M  V30 2790 O 272.116 -0.870861 -1.69766 0
M  V30 2791 C 269.256 -1.97123 -2.8326 0
M  V30 2792 C 268.369 -3.24831 -2.84796 0
M  V30 2793 C 267.504 -3.33591 -4.13389 0
M  V30 2794 C 266.543 -4.55377 -4.09021 0
M  V30 2795 N 265.68 -4.61355 -5.29241 0
M  V30 2796 H 270.52 -2.71142 -1.23637 0
M  V30 2797 H 268.057 -1.34326 -0.599577 0
M  V30 2798 H 270.015 -2.05839 -3.62886 0
M  V30 2799 H 268.645 -1.07946 -3.04216 0
M  V30 2800 H 267.697 -3.25128 -1.97474 0
M  V30 2801 H 269.009 -4.14523 -2.77439 0
M  V30 2802 H 268.163 -3.41554 -5.01424 0
M  V30 2803 H 266.902 -2.41894 -4.23484 0
M  V30 2804 H 265.907 -4.47527 -3.19373 0
M  V30 2805 H 267.132 -5.48402 -4.00539 0
M  V30 2806 H 265.078 -3.72554 -5.39944 0
M  V30 2807 H 264.995 -5.44935 -5.24006 0
M  V30 2808 H 266.263 -4.73586 -6.19141 0
M  V30 2809 N 270.492 0.636531 -1.44174 0
M  V30 2810 C 271.738 1.39826 -1.4689 0
M  V30 2811 C 272.071 1.93947 -0.0990585 0
M  V30 2812 O 271.346 1.73325 0.882544 0
M  V30 2813 C 271.629 2.56751 -2.5249 0
M  V30 2814 C 271.482 2.08014 -3.98811 0
M  V30 2815 C 272.801 3.58946 -2.54649 0
M  V30 2816 H 269.92 0.507075 -0.53483 0
M  V30 2817 H 272.562 0.720188 -1.75822 0
M  V30 2818 H 270.712 3.14597 -2.2795 0
M  V30 2819 H 272.384 1.5504 -4.34466 0
M  V30 2820 H 270.627 1.39242 -4.10846 0
M  V30 2821 H 271.298 2.92169 -4.68339 0
M  V30 2822 H 273.774 3.1089 -2.76563 0
M  V30 2823 H 272.65 4.38286 -3.3045 0
M  V30 2824 H 272.911 4.12655 -1.58646 0
M  V30 2825 N 271.97 1.30982 0.876444 0
M  V30 2826 C 272.918 1.18006 2.00443 0
M  V30 2827 C 273.912 0.0898871 1.69161 0
M  V30 2828 O 275.118 0.251333 1.78237 0
M  V30 2829 H 271.493 0.365196 0.65737 0
M  V30 2830 H 273.464 2.13453 2.0852 0
M  V30 2831 C 272.213 0.897521 3.35916 0
M  V30 2832 H 271.536 1.7285 3.60504 0
M  V30 2833 H 272.976 0.846874 4.15456 0
M  V30 2834 C 271.435 -0.399674 3.34521 0
M  V30 2835 O 271.965 -1.41852 3.7582 0
M  V30 2836 N 270.171 -0.413893 2.87637 0
M  V30 2837 H 269.718 0.41571 2.54224 0
M  V30 2838 H 269.676 -1.28175 2.87086 0
M  V30 2839 N 273.449 -1.08991 1.13837 0
M  V30 2840 C 274.399 -2.1393 0.788535 0
M  V30 2841 C 275.383 -1.59396 -0.219516 0
M  V30 2842 O 276.575 -1.76985 -0.0227557 0
M  V30 2843 C 273.704 -3.42305 0.261147 0
M  V30 2844 C 272.79 -4.03736 1.29837 0
M  V30 2845 N 273.181 -4.39659 2.50067 0
M  V30 2846 C 271.479 -4.30993 1.1472 0
M  V30 2847 C 272.18 -4.88113 3.16419 0
M  V30 2848 N 271.156 -4.85846 2.43832 0
M  V30 2849 H 274.958 -2.39516 1.70322 0
M  V30 2850 H 272.472 -1.26263 1.02134 0
M  V30 2851 H 274.469 -4.16899 -0.0077405 0
M  V30 2852 H 273.129 -3.18172 -0.647805 0
M  V30 2853 H 274.14 -4.30878 2.8734 0
M  V30 2854 H 270.817 -4.16444 0.296773 0
M  V30 2855 H 272.207 -5.25336 4.18894 0
M  V30 2856 N 274.927 -0.932562 -1.27047 0
M  V30 2857 C 276.204 -0.49377 -1.89265 0
M  V30 2858 C 276.584 1.02833 -1.8436 0
M  V30 2859 O 275.932 1.88461 -1.29209 0
M  V30 2860 C 276.142 -1.04536 -3.32976 0
M  V30 2861 C 277.49 -1.10879 -4.09867 0
M  V30 2862 O 278.514 -0.995327 -3.42011 0
M  V30 2863 O 277.373 -1.28417 -5.31198 0
M  V30 2864 H 274.467 -0.159596 -0.811454 0
M  V30 2865 H 277.013 -1.02457 -1.3528 0
M  V30 2866 H 275.785 -2.08913 -3.30864 0
M  V30 2867 H 275.408 -0.496494 -3.94488 0
M  V30 2868 N 276.405 1.4127 -0.698611 0
M  V30 2869 C 277.635 2.05205 -0.239644 0
M  V30 2870 C 278.043 1.52684 1.11733 0
M  V30 2871 O 277.386 0.671222 1.70998 0
M  V30 2872 C 277.448 3.59289 -0.123126 0
M  V30 2873 C 277.112 4.34619 -1.41263 0
M  V30 2874 C 278.109 4.63701 -2.35111 0
M  V30 2875 C 275.794 4.73837 -1.66684 0
M  V30 2876 C 277.788 5.30966 -3.52639 0
M  V30 2877 C 275.475 5.40837 -2.84498 0
M  V30 2878 C 276.473 5.69329 -3.77298 0
M  V30 2879 O 276.161 6.34949 -4.93047 0
M  V30 2880 H 275.893 0.66723 -0.108537 0
M  V30 2881 H 278.447 1.81974 -0.952602 0
M  V30 2882 H 276.677 3.81272 0.645628 0
M  V30 2883 H 278.366 4.04797 0.299056 0
M  V30 2884 H 279.132 4.33882 -2.16729 0
M  V30 2885 H 275.011 4.51039 -0.953135 0
M  V30 2886 H 278.555 5.53121 -4.25091 0
M  V30 2887 H 274.452 5.70075 -3.02795 0
M  V30 2888 H 275.22 6.53445 -4.92902 0
M  V30 2889 N 277.883 0.443576 1.51229 0
M  V30 2890 C 279.129 -0.120975 2.02439 0
M  V30 2891 C 279.462 -1.41815 1.32674 0
M  V30 2892 O 278.737 -1.89373 0.443622 0
M  V30 2893 C 279.02 -0.333291 3.58554 0
M  V30 2894 C 278.873 0.982968 4.38928 0
M  V30 2895 C 280.192 -1.10028 4.26124 0
M  V30 2896 H 277.311 -0.0424923 0.735774 0
M  V30 2897 H 279.953 0.583794 1.80809 0
M  V30 2898 H 278.103 -0.933614 3.77115 0
M  V30 2899 H 279.775 1.61775 4.32003 0
M  V30 2900 H 278.018 1.58611 4.03763 0
M  V30 2901 H 278.689 0.788379 5.46341 0
M  V30 2902 H 281.165 -0.591711 4.11871 0
M  V30 2903 H 280.041 -1.21761 5.35225 0
M  V30 2904 H 280.302 -2.12996 3.87408 0
M  V30 2905 N 279.361 -1.56624 0.175154 0
M  V30 2906 C 280.609 -1.96609 -0.467885 0
M  V30 2907 C 280.93 -1.06238 -1.63519 0
M  V30 2908 O 280.2 -0.129523 -1.95471 0
M  V30 2909 H 278.78 -0.726008 -0.175845 0
M  V30 2910 H 281.442 -1.93195 0.257234 0
M  V30 2911 H 280.538 -3.00989 -0.825342 0
M  V30 2912 N 280.839 0.0985539 -1.57292 0
M  V30 2913 C 282.086 0.802678 -1.85912 0
M  V30 2914 C 282.414 1.78901 -0.763186 0
M  V30 2915 O 281.669 1.94178 0.243559 0
M  V30 2916 C 281.968 1.56927 -3.21105 0
M  V30 2917 C 281.634 0.725376 -4.45027 0
M  V30 2918 C 280.296 0.492726 -4.78671 0
M  V30 2919 C 282.648 0.138493 -5.21016 0
M  V30 2920 C 279.976 -0.336727 -5.85733 0
M  V30 2921 C 282.328 -0.678264 -6.28953 0
M  V30 2922 C 280.992 -0.921039 -6.61115 0
M  V30 2923 H 280.262 0.293721 -0.680301 0
M  V30 2924 H 282.909 0.0642841 -1.91392 0
M  V30 2925 H 281.214 2.37914 -3.11294 0
M  V30 2926 H 282.911 2.11841 -3.40477 0
M  V30 2927 H 279.501 0.916815 -4.18679 0
M  V30 2928 H 283.685 0.305404 -4.95359 0
M  V30 2929 H 278.941 -0.533836 -6.09065 0
M  V30 2930 H 283.115 -1.1399 -6.87007 0
M  V30 2931 H 280.742 -1.56556 -7.43905 0
M  V30 2932 N 282.317 1.53212 0.369288 0
M  V30 2933 C 283.565 1.68881 1.11012 0
M  V30 2934 C 283.886 0.441285 1.89941 0
M  V30 2935 O 283.156 -0.544623 1.88177 0
M  V30 2936 H 281.736 0.622569 0.412816 0
M  V30 2937 H 284.398 1.90391 0.416802 0
M  V30 2938 H 283.494 2.54822 1.80201 0
M  V30 2939 N 283.795 -0.628877 1.44509 0
M  V30 2940 C 285.206 -1.21054 1.42137 0
M  V30 2941 C 285.557 -1.95715 0.137881 0
M  V30 2942 O 284.682 -2.02554 -0.761645 0
M  V30 2943 C 285.277 -2.20189 2.57493 0
M  V30 2944 C 283.836 -2.73777 2.58308 0
M  V30 2945 C 282.983 -1.48813 2.33987 0
M  V30 2946 H 285.934 -0.41942 1.53057 0
M  V30 2947 H 285.955 -3.02833 2.30375 0
M  V30 2948 H 285.467 -1.6582 3.50892 0
M  V30 2949 H 283.568 -3.32142 1.68856 0
M  V30 2950 H 283.681 -3.19662 3.56865 0
M  V30 2951 H 282.045 -1.77024 1.83124 0
M  V30 2952 H 282.828 -0.963442 3.29504 0
M  V30 2953 N 285.273 -1.31445 -0.869486 0
M  V30 2954 C 286.203 -1.21727 -1.99261 0
M  V30 2955 C 287.184 -0.104359 -1.6978 0
M  V30 2956 O 288.369 -0.289038 -1.92037 0
M  V30 2957 C 285.499 -0.924317 -3.34774 0
M  V30 2958 C 284.453 -1.99685 -3.78563 0
M  V30 2959 C 283.779 -1.55658 -5.11541 0
M  V30 2960 C 285.079 -3.41003 -3.95619 0
M  V30 2961 H 286.773 -2.1569 -2.07649 0
M  V30 2962 H 284.319 -1.03839 -0.997675 0
M  V30 2963 H 286.272 -0.842934 -4.12883 0
M  V30 2964 H 284.996 0.0509793 -3.2656 0
M  V30 2965 H 283.655 -2.06813 -3.02694 0
M  V30 2966 H 283.303 -0.569132 -4.9977 0
M  V30 2967 H 283.003 -2.27409 -5.41811 0
M  V30 2968 H 284.527 -1.48928 -5.92159 0
M  V30 2969 H 285.941 -3.36547 -4.64122 0
M  V30 2970 H 284.338 -4.10975 -4.37286 0
M  V30 2971 H 285.408 -3.81754 -2.98985 0
M  V30 2972 N 286.751 1.08385 -1.14413 0
M  V30 2973 C 287.714 2.13486 -0.834048 0
M  V30 2974 C 288.714 1.59988 0.161418 0
M  V30 2975 O 289.904 1.74071 -0.0669575 0
M  V30 2976 C 287.036 3.4003 -0.243354 0
M  V30 2977 H 288.229 2.42425 -1.7655 0
M  V30 2978 H 285.782 1.24101 -0.950189 0
M  V30 2979 H 286.517 3.16726 0.696807 0
M  V30 2980 H 286.302 3.80157 -0.960367 0
M  V30 2981 H 287.792 4.17577 -0.0436242 0
M  V30 2982 N 288.23 0.939286 1.26551 0
M  V30 2983 C 289.646 0.641304 1.46149 0
M  V30 2984 C 289.846 -0.805964 1.84679 0
M  V30 2985 O 288.902 -1.58278 1.96734 0
M  V30 2986 C 290.215 1.6011 2.54529 0
M  V30 2987 C 291.763 1.6106 2.68382 0
M  V30 2988 C 292.238 2.55765 3.79932 0
M  V30 2989 N 293.729 2.5404 3.87322 0
M  V30 2990 C 294.464 3.24004 4.73085 0
M  V30 2991 N 293.96 4.03388 5.63249 0
M  V30 2992 N 295.753 3.12965 4.66914 0
M  V30 2993 H 287.904 1.87478 0.998285 0
M  V30 2994 H 290.167 0.805559 0.499779 0
M  V30 2995 H 289.873 2.63412 2.33039 0
M  V30 2996 H 289.747 1.35171 3.52149 0
M  V30 2997 H 292.134 0.584835 2.89247 0
M  V30 2998 H 292.215 1.90053 1.71212 0
M  V30 2999 H 291.859 3.58458 3.5982 0
M  V30 3000 H 291.789 2.24063 4.76554 0
M  V30 3001 H 294.28 1.96396 3.22858 0
M  V30 3002 H 294.593 4.5373 6.25579 0
M  V30 3003 H 292.938 4.07489 5.63008 0
M  V30 3004 H 296.129 2.50432 3.95476 0
M  V30 3005 H 296.302 3.67759 5.33533 0
M  V30 3006 N 289.708 -1.40897 0.706093 0
M  V30 3007 C 291.124 -1.55042 0.37869 0
M  V30 3008 C 291.324 -1.67944 -1.11342 0
M  V30 3009 O 290.38 -1.66372 -1.89938 0
M  V30 3010 C 291.693 -2.78398 1.13643 0
M  V30 3011 C 293.241 -2.92206 1.12181 0
M  V30 3012 C 293.716 -4.18463 1.86152 0
M  V30 3013 N 295.207 -4.25443 1.83173 0
M  V30 3014 C 295.942 -5.2202 2.37239 0
M  V30 3015 N 295.438 -6.24563 2.99821 0
M  V30 3016 N 297.231 -5.14033 2.27435 0
M  V30 3017 H 289.382 -1.30769 1.67372 0
M  V30 3018 H 291.645 -0.631653 0.706907 0
M  V30 3019 H 291.351 -2.7511 2.19106 0
M  V30 3020 H 291.225 -3.70228 0.721853 0
M  V30 3021 H 293.612 -2.95004 0.0754171 0
M  V30 3022 H 293.693 -2.01521 1.57554 0
M  V30 3023 H 293.337 -4.16427 2.90776 0
M  V30 3024 H 293.267 -5.08141 1.38206 0
M  V30 3025 H 295.758 -3.51976 1.37556 0
M  V30 3026 H 296.071 -6.94665 3.38616 0
M  V30 3027 H 294.416 -6.25035 3.03902 0
M  V30 3028 H 297.607 -4.3285 1.78208 0
M  V30 3029 H 297.78 -5.89129 2.69873 0
M  V30 3030 N 291.186 -0.45159 -1.50991 0
M  V30 3031 C 292.116 0.342898 -2.30969 0
M  V30 3032 C 293.097 1.00815 -1.37005 0
M  V30 3033 O 294.282 1.00907 -1.65926 0
M  V30 3034 C 291.412 1.43637 -3.16205 0
M  V30 3035 C 290.366 0.893818 -4.18563 0
M  V30 3036 C 289.692 2.08411 -4.92411 0
M  V30 3037 C 290.992 -0.0815568 -5.22236 0
M  V30 3038 H 292.686 -0.324556 -2.97636 0
M  V30 3039 H 290.232 -0.157531 -1.43136 0
M  V30 3040 H 292.185 1.9995 -3.70942 0
M  V30 3041 H 290.909 2.13232 -2.47386 0
M  V30 3042 H 289.568 0.352798 -3.64898 0
M  V30 3043 H 289.216 2.76658 -4.20082 0
M  V30 3044 H 288.916 1.72741 -5.61636 0
M  V30 3045 H 290.44 2.65251 -5.49976 0
M  V30 3046 H 291.854 0.391742 -5.7196 0
M  V30 3047 H 290.251 -0.351551 -5.99069 0
M  V30 3048 H 291.321 -1.01374 -4.74185 0
M  V30 3049 N 292.664 1.56529 -0.183458 0
M  V30 3050 C 293.627 2.17324 0.728223 0
M  V30 3051 C 294.627 1.12453 1.14939 0
M  V30 3052 O 295.817 1.37902 1.06437 0
M  V30 3053 C 292.949 2.76591 1.99274 0
M  V30 3054 H 294.142 2.99241 0.198772 0
M  V30 3055 H 291.695 1.5616 0.0661391 0
M  V30 3056 H 292.43 1.98441 2.56499 0
M  V30 3057 H 292.215 3.5335 1.69959 0
M  V30 3058 H 293.705 3.23311 2.6431 0
M  V30 3059 N 294.142 -0.090211 1.57342 0
M  V30 3060 C 295.105 -1.09335 2.01441 0
M  V30 3061 C 296.105 -1.32666 0.908641 0
M  V30 3062 O 297.295 -1.28697 1.174 0
M  V30 3063 C 294.427 -2.44136 2.3793 0
M  V30 3064 H 295.62 -0.713662 2.91285 0
M  V30 3065 H 293.173 -0.335404 1.52659 0
M  V30 3066 H 293.908 -2.86972 1.51055 0
M  V30 3067 H 293.693 -2.28548 3.18603 0
M  V30 3068 H 295.183 -3.16277 2.72688 0
M  V30 3069 N 295.62 -1.53406 -0.361157 0
M  V30 3070 C 296.583 -1.79479 -1.42548 0
M  V30 3071 C 297.583 -0.665327 -1.4639 0
M  V30 3072 O 298.773 -0.933549 -1.47073 0
M  V30 3073 C 295.905 -1.92087 -2.8163 0
M  V30 3074 H 297.098 -2.74538 -1.20701 0
M  V30 3075 H 294.651 -1.4455 -0.594546 0
M  V30 3076 H 295.386 -0.991099 -3.08784 0
M  V30 3077 H 295.171 -2.74241 -2.80239 0
M  V30 3078 H 296.661 -2.13836 -3.58697 0
M  V30 3079 N 297.098 0.621204 -1.44841 0
M  V30 3080 C 298.323 1.41244 -1.51871 0
M  V30 3081 C 298.748 1.87519 -0.147764 0
M  V30 3082 O 298.106 1.59334 0.865 0
M  V30 3083 C 298.154 2.60221 -2.49634 0
M  V30 3084 O 297.258 3.60395 -2.00473 0
M  V30 3085 H 296.599 0.42223 -0.512463 0
M  V30 3086 H 299.129 0.757305 -1.90069 0
M  V30 3087 H 299.139 3.0764 -2.67996 0
M  V30 3088 H 297.814 2.25887 -3.4921 0
M  V30 3089 H 296.391 3.19717 -1.91925 0
M  V30 3090 N 298.576 1.31904 0.862503 0
M  V30 3091 C 299.824 1.21776 1.61292 0
M  V30 3092 C 300.145 -0.222413 1.93727 0
M  V30 3093 O 299.415 -1.1451 1.58947 0
M  V30 3094 H 297.995 0.447717 0.597962 0
M  V30 3095 H 300.657 1.65326 1.03215 0
M  V30 3096 H 299.753 1.7948 2.5533 0
M  V30 3097 N 300.054 -1.07777 1.14986 0
M  V30 3098 C 300.964 -2.18404 0.856546 0
M  V30 3099 C 301.98 -1.73211 -0.165485 0
M  V30 3100 O 303.156 -2.01399 0.00755219 0
M  V30 3101 C 300.221 -3.44977 0.34526 0
M  V30 3102 C 299.282 -4.0476 1.43065 0
M  V30 3103 C 298.515 -5.25291 0.943663 0
M  V30 3104 O 298.738 -5.70004 -0.212426 0
M  V30 3105 O 297.672 -5.76638 1.72547 0
M  V30 3106 H 301.498 -2.45978 1.78125 0
M  V30 3107 H 299.083 -1.17033 0.928631 0
M  V30 3108 H 300.965 -4.21348 0.0663671 0
M  V30 3109 H 299.64 -3.18965 -0.551631 0
M  V30 3110 H 298.547 -3.29949 1.76309 0
M  V30 3111 H 299.88 -4.35035 2.30229 0
M  V30 3112 N 301.532 -0.945985 -1.26051 0
M  V30 3113 C 302.479 -0.45809 -2.26208 0
M  V30 3114 C 303.449 0.484816 -1.58867 0
M  V30 3115 O 304.634 0.399969 -1.86561 0
M  V30 3116 C 301.774 0.266131 -3.44072 0
M  V30 3117 C 300.887 -0.713005 -4.26075 0
M  V30 3118 C 300.022 0.0329013 -5.3119 0
M  V30 3119 C 299.061 -0.93774 -6.04874 0
M  V30 3120 N 298.198 -0.223274 -7.01745 0
M  V30 3121 H 303.038 -1.3171 -2.67313 0
M  V30 3122 H 300.575 -0.66069 -1.31428 0
M  V30 3123 H 302.533 0.702514 -4.11243 0
M  V30 3124 H 301.163 1.08925 -3.03867 0
M  V30 3125 H 300.215 -1.26789 -3.58648 0
M  V30 3126 H 301.527 -1.45406 -4.77136 0
M  V30 3127 H 300.681 0.528335 -6.04395 0
M  V30 3128 H 299.42 0.806801 -4.8098 0
M  V30 3129 H 298.425 -1.44425 -5.30492 0
M  V30 3130 H 299.65 -1.71172 -6.57173 0
M  V30 3131 H 297.596 0.532046 -6.53839 0
M  V30 3132 H 297.513 -0.90357 -7.50581 0
M  V30 3133 H 298.781 0.250907 -7.79096 0
M  V30 3134 N 303.011 1.40521 -0.713556 0
M  V30 3135 C 304.259 2.00527 -0.251692 0
M  V30 3136 C 304.58 1.56857 1.15848 0
M  V30 3137 O 303.85 0.807127 1.785 0
M  V30 3138 H 302.43 0.741551 -0.0900646 0
M  V30 3139 H 305.092 1.71887 -0.918733 0
M  V30 3140 H 304.188 3.10813 -0.283192 0
M  V30 3141 N 304.489 0.459591 1.5075 0
M  V30 3142 C 305.735 -0.0994966 2.02556 0
M  V30 3143 C 306.068 -1.40399 1.3417 0
M  V30 3144 O 305.343 -1.88892 0.463683 0
M  V30 3145 C 305.626 -0.295242 3.58888 0
M  V30 3146 C 305.479 1.02947 4.37861 0
M  V30 3147 C 306.798 -1.05502 4.27267 0
M  V30 3148 H 303.917 -0.034686 0.736183 0
M  V30 3149 H 306.559 0.602938 1.8018 0
M  V30 3150 H 304.709 -0.893563 3.78084 0
M  V30 3151 H 306.381 1.66348 4.30263 0
M  V30 3152 H 304.624 1.62885 4.02058 0
M  V30 3153 H 305.295 0.846281 5.45474 0
M  V30 3154 H 307.771 -0.547993 4.12476 0
M  V30 3155 H 306.647 -1.16077 5.36486 0
M  V30 3156 H 306.908 -2.08875 3.89645 0
M  V30 3157 N 305.967 -1.56429 0.191757 0
M  V30 3158 C 307.192 -2.02309 -0.456706 0
M  V30 3159 C 307.617 -1.07103 -1.5463 0
M  V30 3160 O 306.975 -0.0539677 -1.8122 0
M  V30 3161 C 307.023 -3.46654 -0.993159 0
M  V30 3162 O 306.127 -3.54559 -2.10622 0
M  V30 3163 H 305.468 -0.655303 -0.107114 0
M  V30 3164 H 307.998 -2.02364 0.301653 0
M  V30 3165 H 308.008 -3.86377 -1.31061 0
M  V30 3166 H 306.683 -4.1544 -0.195504 0
M  V30 3167 H 305.26 -3.26708 -1.79767 0
M  V30 3168 N 307.445 0.0818655 -1.57387 0
M  V30 3169 C 308.693 0.781368 -1.86384 0
M  V30 3170 C 309.014 1.78618 -0.782342 0
M  V30 3171 O 308.284 1.94976 0.190061 0
M  V30 3172 H 306.864 0.291562 -0.687751 0
M  V30 3173 H 309.526 0.060348 -1.94807 0
M  V30 3174 H 308.622 1.3038 -2.83562 0
M  V30 3175 N 308.923 1.53595 0.353017 0
M  V30 3176 C 310.148 1.7462 1.11904 0
M  V30 3177 C 310.573 0.479721 1.8188 0
M  V30 3178 O 309.931 -0.567066 1.72204 0
M  V30 3179 C 309.979 2.92029 2.11545 0
M  V30 3180 O 309.083 2.61516 3.18878 0
M  V30 3181 H 308.424 0.579531 0.324099 0
M  V30 3182 H 310.954 2.00525 0.406301 0
M  V30 3183 H 310.964 3.18551 2.5493 0
M  V30 3184 H 309.639 3.83888 1.60008 0
M  V30 3185 H 308.216 2.45852 2.80377 0
M  V30 3186 N 310.401 -0.613514 1.45168 0
M  V30 3187 C 311.641 -1.38405 1.5041 0
M  V30 3188 C 312.005 -1.91489 0.139922 0
M  V30 3189 O 313.206 -2.68716 0.067033 0
M  V30 3190 C 311.477 -2.50552 2.5487 0
M  V30 3191 S 313.036 -3.38439 2.79292 0
M  V30 3192 H 309.854 -0.471945 0.531779 0
M  V30 3193 H 312.456 -0.708518 1.82209 0
M  V30 3194 H 311.16 -2.09894 3.52665 0
M  V30 3195 H 310.691 -3.22913 2.24701 0
M  V30 3196 H 312.706 -4.48527 2.12222 0
M  V30 3197 N 311.879 -1.3236 -0.855495 0
M  V30 3198 C 312.827 -1.2118 -1.9854 0
M  V30 3199 C 313.821 -0.116788 -1.68997 0
M  V30 3200 O 315.027 -0.279657 -1.77814 0
M  V30 3201 H 311.402 -0.375608 -0.651477 0
M  V30 3202 H 313.373 -2.16743 -2.05098 0
M  V30 3203 C 312.122 -0.950849 -3.34446 0
M  V30 3204 H 311.445 -1.78563 -3.57708 0
M  V30 3205 H 312.885 -0.912863 -4.14057 0
M  V30 3206 C 311.344 0.346404 -3.35114 0
M  V30 3207 O 311.874 1.35855 -3.7803 0
M  V30 3208 N 310.08 0.36808 -2.88259 0
M  V30 3209 H 309.627 -0.456102 -2.5353 0
M  V30 3210 H 309.585 1.23591 -2.89089 0
M  V30 3211 N 313.357 1.07166 -1.15556 0
M  V30 3212 C 314.606 1.79181 -0.926132 0
M  V30 3213 C 314.919 1.87768 0.547967 0
M  V30 3214 O 316.125 2.56323 0.895036 0
M  V30 3215 C 314.581 3.22 -1.60761 0
M  V30 3216 C 314.189 3.21607 -3.11886 0
M  V30 3217 C 315.933 3.9861 -1.4598 0
M  V30 3218 C 313.84 4.59092 -3.72812 0
M  V30 3219 H 312.77 0.67154 -0.342856 0
M  V30 3220 H 315.421 1.2027 -1.3859 0
M  V30 3221 H 313.803 3.81115 -1.07553 0
M  V30 3222 H 314.977 2.72127 -3.71865 0
M  V30 3223 H 313.292 2.58495 -3.2645 0
M  V30 3224 H 315.889 5.00225 -1.88888 0
M  V30 3225 H 316.232 4.143 -0.407541 0
M  V30 3226 H 316.765 3.45996 -1.96295 0
M  V30 3227 H 313.504 4.48606 -4.77946 0
M  V30 3228 H 313.024 5.08803 -3.17616 0
M  V30 3229 H 314.703 5.28059 -3.73848 0
M  V30 3230 N 314.835 0.952656 1.25548 0
M  V30 3231 C 316.112 0.523818 1.88456 0
M  V30 3232 C 316.492 -0.998871 1.85973 0
M  V30 3233 O 315.84 -1.86381 1.3219 0
M  V30 3234 C 316.05 1.0982 3.31271 0
M  V30 3235 C 317.398 1.17385 4.08051 0
M  V30 3236 O 318.422 1.04961 3.40384 0
M  V30 3237 O 317.281 1.36852 5.29088 0
M  V30 3238 H 314.375 0.172485 0.808813 0
M  V30 3239 H 316.921 1.04596 1.33633 0
M  V30 3240 H 315.693 2.1415 3.27499 0
M  V30 3241 H 315.316 0.559191 3.93648 0
M  V30 3242 N 316.313 -1.40141 0.720998 0
M  V30 3243 C 317.559 -2.01084 0.263231 0
M  V30 3244 C 317.892 -1.57052 -1.14229 0
M  V30 3245 O 317.167 -0.793027 -1.77599 0
M  V30 3246 C 317.45 -3.58401 0.349344 0
M  V30 3247 C 317.303 -4.12491 1.79363 0
M  V30 3248 C 318.622 -4.39231 -0.276351 0
M  V30 3249 H 315.741 -0.730572 0.0971228 0
M  V30 3250 H 318.383 -1.66543 0.914518 0
M  V30 3251 H 316.533 -3.87958 -0.205165 0
M  V30 3252 H 318.205 -3.93711 2.40394 0
M  V30 3253 H 316.448 -3.66576 2.31958 0
M  V30 3254 H 317.119 -5.21646 1.80524 0
M  V30 3255 H 319.595 -4.15637 0.196184 0
M  V30 3256 H 318.471 -5.48586 -0.185681 0
M  V30 3257 H 318.732 -4.20643 -1.36059 0
M  V30 3258 N 317.792 -0.46758 -1.50504 0
M  V30 3259 C 319.038 0.0887532 -2.02606 0
M  V30 3260 C 319.371 1.39686 -1.34913 0
M  V30 3261 O 318.646 1.88644 -0.473694 0
M  V30 3262 C 318.929 0.276206 -3.59039 0
M  V30 3263 C 318.782 -1.05267 -4.37309 0
M  V30 3264 C 320.101 1.03235 -4.27821 0
M  V30 3265 H 317.22 0.0307814 -0.736357 0
M  V30 3266 H 319.862 -0.612485 -1.79857 0
M  V30 3267 H 318.012 0.8735 -3.78553 0
M  V30 3268 H 319.684 -1.68628 -4.29374 0
M  V30 3269 H 317.927 -1.65015 -4.01189 0
M  V30 3270 H 318.598 -0.875197 -5.45018 0
M  V30 3271 H 321.074 0.526111 -4.12761 0
M  V30 3272 H 319.95 1.1323 -5.37094 0
M  V30 3273 H 320.211 2.06806 -3.90748 0
M  V30 3274 N 319.27 1.56325 -0.20005 0
M  V30 3275 C 320.51 1.99619 0.439519 0
M  V30 3276 C 320.874 1.08423 1.58456 0
M  V30 3277 O 322.075 1.40973 2.28867 0
M  V30 3278 C 320.346 3.46314 0.883258 0
M  V30 3279 S 321.905 4.11634 1.51997 0
M  V30 3280 H 318.723 0.697007 0.140363 0
M  V30 3281 H 321.325 1.93118 -0.304282 0
M  V30 3282 H 320.029 4.10381 0.0398967 0
M  V30 3283 H 319.56 3.56643 1.6604 0
M  V30 3284 H 321.575 4.09049 2.8088 0
M  V30 3285 N 320.748 -0.0735177 1.57428 0
M  V30 3286 C 322.159 -0.625551 1.75908 0
M  V30 3287 C 322.51 -1.78 0.825261 0
M  V30 3288 O 321.635 -2.16398 0.00893964 0
M  V30 3289 C 322.23 -1.14155 3.18989 0
M  V30 3290 C 320.789 -1.63946 3.38819 0
M  V30 3291 C 319.936 -0.558151 2.71625 0
M  V30 3292 H 322.887 0.152647 1.57964 0
M  V30 3293 H 322.908 -2.0104 3.23053 0
M  V30 3294 H 322.42 -0.301116 3.8693 0
M  V30 3295 H 320.521 -2.50321 2.7599 0
M  V30 3296 H 320.634 -1.71759 4.47253 0
M  V30 3297 H 318.998 -1.00278 2.34129 0
M  V30 3298 H 319.781 0.272071 3.4222 0
M  V30 3299 N 322.226 -1.5378 -0.344866 0
M  V30 3300 C 323.136 -1.84667 -1.4469 0
M  V30 3301 C 324.152 -0.736704 -1.57635 0
M  V30 3302 O 325.328 -1.02888 -1.73136 0
M  V30 3303 C 322.393 -2.04869 -2.79696 0
M  V30 3304 C 321.454 -3.28731 -2.76106 0
M  V30 3305 C 320.687 -3.4796 -4.04673 0
M  V30 3306 O 320.91 -2.71052 -5.01883 0
M  V30 3307 O 319.844 -4.41383 -4.09224 0
M  V30 3308 H 323.67 -2.78334 -1.21506 0
M  V30 3309 H 321.255 -1.39418 -0.536921 0
M  V30 3310 H 323.137 -2.19609 -3.59652 0
M  V30 3311 H 321.812 -1.14391 -3.02814 0
M  V30 3312 H 320.719 -3.19396 -1.94774 0
M  V30 3313 H 322.052 -4.19198 -2.57941 0
M  V30 3314 N 323.704 0.605807 -1.45491 0
M  V30 3315 C 324.952 1.36207 -1.49305 0
M  V30 3316 C 325.273 1.94519 -0.136863 0
M  V30 3317 O 324.543 1.77261 0.833983 0
M  V30 3318 H 323.123 0.50565 -0.549843 0
M  V30 3319 H 325.785 0.711239 -1.81459 0
M  V30 3320 H 324.881 2.18058 -2.23287 0
M  V30 3321 N 325.182 1.32811 0.848464 0
M  V30 3322 C 326.459 1.14334 1.58704 0
M  V30 3323 C 326.839 -0.293948 2.09043 0
M  V30 3324 O 326.187 -1.29153 1.88499 0
M  V30 3325 C 326.397 2.17626 2.72837 0
M  V30 3326 C 327.745 2.51282 3.42261 0
M  V30 3327 O 328.769 2.16219 2.83068 0
M  V30 3328 O 327.628 3.11413 4.49093 0
M  V30 3329 H 324.722 0.441601 0.699226 0
M  V30 3330 H 327.268 1.44362 0.892053 0
M  V30 3331 H 326.04 3.14211 2.3321 0
M  V30 3332 H 325.663 1.88628 3.50008 0
M  V30 3333 N 326.66 -1.06551 1.16123 0
M  V30 3334 C 327.908 -1.78947 0.939267 0
M  V30 3335 C 328.229 -1.87532 -0.534476 0
M  V30 3336 O 327.499 -1.38211 -1.38833 0
M  V30 3337 H 326.079 -0.662807 0.344523 0
M  V30 3338 H 328.741 -1.28725 1.46342 0
M  V30 3339 H 327.837 -2.81117 1.35572 0
M  V30 3340 N 328.138 -0.959301 -1.25041 0
M  V30 3341 C 329.554 -0.664474 -1.4511 0
M  V30 3342 C 329.754 0.776481 -1.85938 0
M  V30 3343 O 328.81 1.55128 -1.99227 0
M  V30 3344 C 330.123 -1.64139 -2.5195 0
M  V30 3345 C 331.671 -1.65309 -2.65786 0
M  V30 3346 C 332.146 -2.61777 -3.75815 0
M  V30 3347 N 333.637 -2.60169 -3.83231 0
M  V30 3348 C 334.372 -3.31489 -4.6787 0
M  V30 3349 N 333.868 -4.12298 -5.56761 0
M  V30 3350 N 335.661 -3.20354 -4.61876 0
M  V30 3351 H 327.812 -1.89043 -0.968332 0
M  V30 3352 H 330.075 -0.813408 -0.4869 0
M  V30 3353 H 329.781 -2.67086 -2.28819 0
M  V30 3354 H 329.655 -1.40756 -3.49954 0
M  V30 3355 H 332.042 -0.630778 -2.8828 0
M  V30 3356 H 332.123 -1.92753 -1.68167 0
M  V30 3357 H 331.767 -3.64137 -3.54071 0
M  V30 3358 H 331.697 -2.31616 -4.72929 0
M  V30 3359 H 334.188 -2.01507 -3.19692 0
M  V30 3360 H 334.501 -4.63625 -6.18281 0
M  V30 3361 H 332.846 -4.16395 -5.56454 0
M  V30 3362 H 336.037 -2.56692 -3.91442 0
M  V30 3363 H 336.21 -3.76201 -5.27614 0
M  V30 3364 N 329.616 1.39756 -0.72842 0
M  V30 3365 C 331.032 1.5442 -0.403308 0
M  V30 3366 C 331.232 1.69694 1.08656 0
M  V30 3367 O 330.288 1.69373 1.87267 0
M  V30 3368 C 331.601 2.76555 -1.18058 0
M  V30 3369 C 333.149 2.90384 -1.16815 0
M  V30 3370 C 333.624 4.15449 -1.92785 0
M  V30 3371 N 335.115 4.22475 -1.89918 0
M  V30 3372 C 335.85 5.1818 -2.45514 0
M  V30 3373 N 335.346 6.19714 -3.09719 0
M  V30 3374 N 337.139 5.1035 -2.35584 0
M  V30 3375 H 329.29 1.28089 -1.69431 0
M  V30 3376 H 331.553 0.620327 -0.716867 0
M  V30 3377 H 331.259 2.7159 -2.23455 0
M  V30 3378 H 331.133 3.69033 -0.780662 0
M  V30 3379 H 333.52 2.94846 -0.12234 0
M  V30 3380 H 333.601 1.98988 -1.6074 0
M  V30 3381 H 333.245 4.11749 -2.97364 0
M  V30 3382 H 333.175 5.05877 -1.46272 0
M  V30 3383 H 335.666 3.49743 -1.43138 0
M  V30 3384 H 335.979 6.8919 -3.49625 0
M  V30 3385 H 334.324 6.20121 -3.13807 0
M  V30 3386 H 337.515 4.2996 -1.85072 0
M  V30 3387 H 337.688 5.84761 -2.79211 0
M  V30 3388 N 331.094 0.475555 1.50254 0
M  V30 3389 C 332.371 -0.139685 1.95101 0
M  V30 3390 C 332.751 -1.56555 1.41611 0
M  V30 3391 O 332.099 -2.19956 0.618993 0
M  V30 3392 C 332.309 -0.0784298 3.48912 0
M  V30 3393 C 333.657 -0.265095 4.23772 0
M  V30 3394 O 334.681 -0.154808 3.55863 0
M  V30 3395 O 333.54 -0.488327 5.44314 0
M  V30 3396 H 330.634 -0.109236 0.819754 0
M  V30 3397 H 333.18 0.536276 1.61004 0
M  V30 3398 H 331.952 0.916918 3.80405 0
M  V30 3399 H 331.575 -0.795655 3.89558 0
M  V30 3400 N 332.573 -1.56217 0.208337 0
M  V30 3401 C 333.822 -1.97124 -0.427204 0
M  V30 3402 C 334.135 -1.09859 -1.61835 0
M  V30 3403 O 335.341 -1.40606 -2.32255 0
M  V30 3404 C 333.797 -3.50633 -0.811442 0
M  V30 3405 C 333.405 -4.46582 0.35615 0
M  V30 3406 C 335.149 -4.00282 -1.41332 0
M  V30 3407 C 333.056 -5.91379 -0.0497852 0
M  V30 3408 H 331.986 -0.736086 -0.163381 0
M  V30 3409 H 334.637 -1.8099 0.302456 0
M  V30 3410 H 333.019 -3.62319 -1.59815 0
M  V30 3411 H 334.193 -4.46636 1.1337 0
M  V30 3412 H 332.508 -4.07202 0.870396 0
M  V30 3413 H 335.105 -5.0595 -1.72972 0
M  V30 3414 H 335.448 -3.45359 -2.32449 0
M  V30 3415 H 335.981 -3.91764 -0.690323 0
M  V30 3416 H 332.72 -6.50255 0.827529 0
M  V30 3417 H 332.24 -5.94549 -0.791926 0
M  V30 3418 H 333.919 -6.45209 -0.481042 0
M  V30 3419 N 334.051 0.0651679 -1.57465 0
M  V30 3420 C 335.3 0.761916 -1.86756 0
M  V30 3421 C 335.613 1.78406 -0.801925 0
M  V30 3422 O 336.819 2.53084 -0.982885 0
M  V30 3423 C 335.275 1.40603 -3.31299 0
M  V30 3424 C 334.883 0.422115 -4.46007 0
M  V30 3425 C 336.627 2.08476 -3.69781 0
M  V30 3426 C 334.534 1.07252 -5.81593 0
M  V30 3427 H 333.464 0.288308 -0.696702 0
M  V30 3428 H 336.115 0.015344 -1.83494 0
M  V30 3429 H 334.497 2.20109 -3.29193 0
M  V30 3430 H 335.671 -0.343613 -4.59517 0
M  V30 3431 H 333.986 -0.152527 -4.16121 0
M  V30 3432 H 336.583 2.57925 -4.68379 0
M  V30 3433 H 336.926 2.88712 -2.99919 0
M  V30 3434 H 337.459 1.35792 -3.73905 0
M  V30 3435 H 334.198 0.310342 -6.54765 0
M  V30 3436 H 333.718 1.80895 -5.71872 0
M  V30 3437 H 335.397 1.59043 -6.27148 0
M  V30 3438 N 335.529 1.53961 0.336706 0
M  V30 3439 C 336.945 1.44378 0.680241 0
M  V30 3440 C 337.145 0.606034 1.9217 0
M  V30 3441 O 336.201 0.099688 2.52303 0
M  V30 3442 C 337.514 2.87945 0.8665 0
M  V30 3443 C 339.062 2.97763 0.964682 0
M  V30 3444 C 339.537 4.42453 1.18321 0
M  V30 3445 N 341.028 4.46008 1.25025 0
M  V30 3446 C 341.763 5.55102 1.43697 0
M  V30 3447 N 341.259 6.7419 1.59498 0
M  V30 3448 N 343.052 5.42727 1.463 0
M  V30 3449 H 335.203 2.06918 -0.479455 0
M  V30 3450 H 337.466 0.935634 -0.152619 0
M  V30 3451 H 337.172 3.51691 0.0256937 0
M  V30 3452 H 337.046 3.33293 1.76623 0
M  V30 3453 H 339.433 2.34153 1.796 0
M  V30 3454 H 339.514 2.55766 0.041708 0
M  V30 3455 H 339.158 5.06645 0.356788 0
M  V30 3456 H 339.088 4.82048 2.11985 0
M  V30 3457 H 341.579 3.60196 1.14312 0
M  V30 3458 H 341.892 7.53095 1.734 0
M  V30 3459 H 340.237 6.77123 1.56621 0
M  V30 3460 H 343.428 4.48647 1.33543 0
M  V30 3461 H 343.601 6.27806 1.6051 0
M  V30 3462 N 337.007 -0.598083 1.45811 0
M  V30 3463 C 337.97 -1.69018 1.54808 0
M  V30 3464 C 338.97 -1.55037 0.426652 0
M  V30 3465 O 340.16 -1.59932 0.690456 0
M  V30 3466 C 337.292 -3.0835 1.45371 0
M  V30 3467 H 338.485 -1.62403 2.52121 0
M  V30 3468 H 336.038 -0.814626 1.33392 0
M  V30 3469 H 336.773 -3.20534 0.492793 0
M  V30 3470 H 336.558 -3.19907 2.26721 0
M  V30 3471 H 338.048 -3.8788 1.54721 0
M  V30 3472 N 338.485 -1.33259 -0.841409 0
M  V30 3473 C 339.731 -1.24757 -1.59886 0
M  V30 3474 C 340.064 0.186913 -1.93298 0
M  V30 3475 O 339.339 1.12757 -1.5848 0
M  V30 3476 C 339.622 -2.12036 -2.91055 0
M  V30 3477 C 339.475 -3.63929 -2.6434 0
M  V30 3478 C 340.794 -1.9916 -3.92458 0
M  V30 3479 H 337.913 -0.454542 -0.580138 0
M  V30 3480 H 340.555 -1.63335 -0.970647 0
M  V30 3481 H 338.705 -1.79265 -3.44669 0
M  V30 3482 H 340.377 -4.06978 -2.17178 0
M  V30 3483 H 338.62 -3.85935 -1.98082 0
M  V30 3484 H 339.291 -4.20341 -3.57796 0
M  V30 3485 H 341.767 -2.27895 -3.48143 0
M  V30 3486 H 340.643 -2.62484 -4.82072 0
M  V30 3487 H 340.904 -0.963082 -4.31482 0
M  V30 3488 N 339.963 1.05934 -1.16686 0
M  V30 3489 C 341.211 1.78447 -0.948744 0
M  V30 3490 C 341.532 1.87813 0.524523 0
M  V30 3491 O 340.802 1.38945 1.38098 0
M  V30 3492 H 339.382 0.660971 -0.348033 0
M  V30 3493 H 342.044 1.27947 -1.47022 0
M  V30 3494 H 341.14 2.80394 -1.37061 0
M  V30 3495 N 341.441 0.965919 1.2453 0
M  V30 3496 C 342.404 0.499547 2.2369 0
M  V30 3497 C 343.404 -0.40294 1.5567 0
M  V30 3498 O 344.594 -0.19865 1.73064 0
M  V30 3499 C 341.726 -0.276792 3.39774 0
M  V30 3500 H 342.919 1.37613 2.66463 0
M  V30 3501 H 340.472 0.750324 1.37112 0
M  V30 3502 H 341.207 -1.17055 3.02438 0
M  V30 3503 H 340.992 0.370826 3.90343 0
M  V30 3504 H 342.482 -0.592175 4.1338 0
M  V30 3505 N 342.919 -1.39368 0.735821 0
M  V30 3506 C 344.149 -2.04498 0.293967 0
M  V30 3507 C 344.557 -1.55593 -1.07645 0
M  V30 3508 O 343.9 -0.716324 -1.69158 0
M  V30 3509 C 343.962 -3.58836 0.218342 0
M  V30 3510 C 343.626 -4.30721 1.52736 0
M  V30 3511 C 344.623 -4.57305 2.47322 0
M  V30 3512 C 342.308 -4.69251 1.79189 0
M  V30 3513 C 344.302 -5.21429 3.66593 0
M  V30 3514 C 341.989 -5.33104 2.98737 0
M  V30 3515 C 342.987 -5.59125 3.9226 0
M  V30 3516 O 342.675 -6.21653 5.09708 0
M  V30 3517 H 342.407 -0.664118 0.126189 0
M  V30 3518 H 344.961 -1.79385 1.00051 0
M  V30 3519 H 343.191 -3.8285 -0.544314 0
M  V30 3520 H 344.88 -4.05447 -0.191626 0
M  V30 3521 H 345.646 -4.27983 2.28156 0
M  V30 3522 H 341.525 -4.48354 1.07239 0
M  V30 3523 H 345.069 -5.41656 4.39607 0
M  V30 3524 H 340.966 -5.61846 3.17803 0
M  V30 3525 H 341.734 -6.40146 5.10054 0
M  V30 3526 N 344.397 -0.483516 -1.5 0
M  V30 3527 C 345.622 0.0667119 -2.07293 0
M  V30 3528 C 346.047 1.3164 -1.3436 0
M  V30 3529 O 345.405 1.76945 -0.394987 0
M  V30 3530 C 345.453 0.321126 -3.59167 0
M  V30 3531 O 344.557 1.39927 -3.87936 0
M  V30 3532 H 343.898 -0.0184758 -0.663743 0
M  V30 3533 H 346.428 -0.678125 -1.93035 0
M  V30 3534 H 346.438 0.557906 -4.04168 0
M  V30 3535 H 345.113 -0.592007 -4.11665 0
M  V30 3536 H 343.69 1.14882 -3.54763 0
M  V30 3537 N 345.875 1.56104 -0.216619 0
M  V30 3538 C 346.822 2.2007 0.695531 0
M  V30 3539 C 347.792 1.15471 1.19397 0
M  V30 3540 O 348.977 1.43807 1.25396 0
M  V30 3541 C 346.117 2.88073 1.90021 0
M  V30 3542 C 345.23 4.07253 1.44113 0
M  V30 3543 C 344.365 4.63052 2.603 0
M  V30 3544 C 343.404 5.74545 2.11103 0
M  V30 3545 N 342.541 6.24656 3.20545 0
M  V30 3546 H 347.381 2.97655 0.143327 0
M  V30 3547 H 344.918 1.46982 0.0589934 0
M  V30 3548 H 346.876 3.25681 2.60745 0
M  V30 3549 H 345.506 2.13015 2.42538 0
M  V30 3550 H 344.558 3.75164 0.628999 0
M  V30 3551 H 345.87 4.8783 1.04036 0
M  V30 3552 H 345.024 5.03078 3.39113 0
M  V30 3553 H 343.763 3.81628 3.03663 0
M  V30 3554 H 342.768 5.34027 1.3075 0
M  V30 3555 H 343.993 6.57801 1.68746 0
M  V30 3556 H 341.939 5.46148 3.63399 0
M  V30 3557 H 341.856 7.00343 2.84704 0
M  V30 3558 H 343.124 6.69338 3.99508 0
M  V30 3559 N 347.353 -0.0568162 1.57498 0
M  V30 3560 C 348.578 -0.769402 1.92601 0
M  V30 3561 C 349.003 -1.69559 0.814336 0
M  V30 3562 O 348.361 -1.79811 -0.231903 0
M  V30 3563 C 348.409 -1.52634 3.26704 0
M  V30 3564 O 347.513 -2.63797 3.16994 0
M  V30 3565 H 346.854 -0.208909 0.63028 0
M  V30 3566 H 349.384 -0.0205798 2.0459 0
M  V30 3567 H 349.394 -1.90234 3.60936 0
M  V30 3568 H 348.069 -0.846875 4.07186 0
M  V30 3569 H 346.646 -2.28943 2.94346 0
M  V30 3570 N 348.832 -1.54138 -0.328536 0
M  V30 3571 C 350.08 -1.71765 -1.06496 0
M  V30 3572 C 350.401 -0.49149 -1.88704 0
M  V30 3573 O 349.671 0.494539 -1.89555 0
M  V30 3574 H 348.251 -0.633295 -0.396164 0
M  V30 3575 H 350.913 -1.91429 -0.366176 0
M  V30 3576 H 350.009 -2.5951 -1.73381 0
M  V30 3577 N 350.31 0.590341 -1.46126 0
M  V30 3578 C 351.538 1.37504 -1.54597 0
M  V30 3579 C 351.953 1.87897 -0.184447 0
M  V30 3580 O 351.31 1.63192 0.816984 0
M  V30 3581 C 351.361 2.56779 -2.54454 0
M  V30 3582 O 351.082 2.08476 -3.85317 0
M  V30 3583 C 352.583 3.49427 -2.72792 0
M  V30 3584 H 349.803 0.420325 -0.523037 0
M  V30 3585 H 352.347 0.718383 -1.91467 0
M  V30 3586 H 350.502 3.1845 -2.20609 0
M  V30 3587 H 350.916 2.86097 -4.396 0
M  V30 3588 H 352.39 4.29619 -3.466 0
M  V30 3589 H 352.867 4.00876 -1.79429 0
M  V30 3590 H 353.473 2.93598 -3.07702 0
M  V30 3591 N 351.788 1.33704 0.83433 0
M  V30 3592 C 352.718 1.26967 1.95963 0
M  V30 3593 C 353.699 0.149337 1.69443 0
M  V30 3594 O 354.884 0.339852 1.91203 0
M  V30 3595 C 352.014 1.01275 3.32206 0
M  V30 3596 C 350.968 2.09652 3.73136 0
M  V30 3597 C 350.294 1.69166 5.07235 0
M  V30 3598 C 351.594 3.51372 3.86439 0
M  V30 3599 H 353.288 2.2112 2.01857 0
M  V30 3600 H 350.834 1.06447 0.969793 0
M  V30 3601 H 352.787 0.952106 4.10503 0
M  V30 3602 H 351.511 0.0356203 3.26581 0
M  V30 3603 H 350.17 2.14766 2.97104 0
M  V30 3604 H 349.818 0.701437 4.98085 0
M  V30 3605 H 349.518 2.41694 5.35591 0
M  V30 3606 H 351.042 1.64576 5.88003 0
M  V30 3607 H 352.456 3.48734 4.55036 0
M  V30 3608 H 350.853 4.22425 4.26236 0
M  V30 3609 H 351.923 3.89546 2.88759 0
M  V30 3610 N 353.266 -1.05314 1.17247 0
M  V30 3611 C 354.229 -2.112 0.890357 0
M  V30 3612 C 355.229 -1.60359 -0.118943 0
M  V30 3613 O 356.419 -1.73833 0.113086 0
M  V30 3614 C 353.551 -3.39266 0.333422 0
M  V30 3615 H 354.744 -2.37659 1.82916 0
M  V30 3616 H 352.297 -1.21538 0.982758 0
M  V30 3617 H 353.032 -3.18462 -0.612587 0
M  V30 3618 H 352.817 -3.77477 1.06082 0
M  V30 3619 H 354.307 -4.17315 0.154322 0
M  V30 3620 N 354.744 -0.972509 -1.24016 0
M  V30 3621 C 355.984 -0.644951 -1.93958 0
M  V30 3622 C 356.348 0.80559 -1.74282 0
M  V30 3623 O 357.549 1.2436 -2.38302 0
M  V30 3624 C 355.82 -1.01521 -3.42678 0
M  V30 3625 S 357.379 -0.802927 -4.31391 0
M  V30 3626 H 354.197 -0.236452 -0.670531 0
M  V30 3627 H 356.799 -1.25048 -1.50277 0
M  V30 3628 H 355.503 -2.06769 -3.54506 0
M  V30 3629 H 355.034 -0.400648 -3.91355 0
M  V30 3630 H 357.049 0.317256 -4.95185 0
M  V30 3631 N 356.222 1.38976 -0.743202 0
M  V30 3632 C 357.45 2.04636 -0.30525 0
M  V30 3633 C 357.865 1.56044 1.06281 0
M  V30 3634 O 357.222 0.728921 1.67311 0
M  V30 3635 C 357.273 3.60193 -0.307177 0
M  V30 3636 O 356.994 4.06998 -1.62124 0
M  V30 3637 C 358.495 4.4306 0.145928 0
M  V30 3638 H 355.715 0.65788 -0.132041 0
M  V30 3639 H 358.259 1.77866 -1.00915 0
M  V30 3640 H 356.414 3.85835 0.347898 0
M  V30 3641 H 356.828 5.01371 -1.54036 0
M  V30 3642 H 358.302 5.51921 0.0934183 0
M  V30 3643 H 358.779 4.22706 1.19231 0
M  V30 3644 H 359.385 4.22584 -0.479886 0
M  V30 3645 N 357.7 0.491464 1.49741 0
M  V30 3646 C 358.948 -0.0563141 2.02022 0
M  V30 3647 C 359.269 -1.38363 1.37407 0
M  V30 3648 O 358.539 -1.88702 0.526166 0
M  V30 3649 H 357.119 -0.0238014 0.746621 0
M  V30 3650 H 359.781 0.646533 1.83864 0
M  V30 3651 H 358.877 -0.192967 3.11503 0
M  V30 3652 N 359.178 -1.55987 0.224894 0
M  V30 3653 C 360.403 -2.03232 -0.41369 0
M  V30 3654 C 360.828 -1.10359 -1.52323 0
M  V30 3655 O 360.186 -0.092395 -1.81064 0
M  V30 3656 C 360.234 -3.48682 -0.919405 0
M  V30 3657 O 359.338 -3.58947 -2.03054 0
M  V30 3658 H 358.679 -0.657428 -0.0931903 0
M  V30 3659 H 361.209 -2.01679 0.34451 0
M  V30 3660 H 361.219 -3.8907 -1.22835 0
M  V30 3661 H 359.894 -4.15761 -0.107339 0
M  V30 3662 H 358.471 -3.30448 -1.72796 0
M  V30 3663 N 360.656 0.0484629 -1.57525 0
M  V30 3664 C 361.586 1.0549 -2.08313 0
M  V30 3665 C 362.567 1.38929 -0.981463 0
M  V30 3666 O 363.752 1.48151 -1.25558 0
M  V30 3667 C 360.882 2.36162 -2.54646 0
M  V30 3668 C 359.836 2.17016 -3.68901 0
M  V30 3669 C 359.162 3.53278 -4.01371 0
M  V30 3670 C 360.462 1.57219 -4.98076 0
M  V30 3671 H 362.156 0.632195 -2.92649 0
M  V30 3672 H 359.702 0.302654 -1.40784 0
M  V30 3673 H 361.655 3.06882 -2.88793 0
M  V30 3674 H 360.379 2.80456 -1.67368 0
M  V30 3675 H 359.038 1.48733 -3.35073 0
M  V30 3676 H 358.686 3.95185 -3.11188 0
M  V30 3677 H 358.386 3.41299 -4.78318 0
M  V30 3678 H 359.91 4.25391 -4.38035 0
M  V30 3679 H 361.324 2.17832 -5.30304 0
M  V30 3680 H 359.721 1.55871 -5.79503 0
M  V30 3681 H 360.791 0.535956 -4.81929 0
M  V30 3682 N 362.134 1.5431 0.320358 0
M  V30 3683 C 363.38 1.72924 1.05949 0
M  V30 3684 C 363.713 0.503185 1.87568 0
M  V30 3685 O 362.988 -0.499839 1.87968 0
M  V30 3686 C 363.271 3.00676 1.98156 0
M  V30 3687 C 363.124 4.3354 1.19845 0
M  V30 3688 C 364.443 3.24198 2.9763 0
M  V30 3689 H 361.562 0.629195 0.383774 0
M  V30 3690 H 364.204 1.87008 0.335854 0
M  V30 3691 H 362.354 2.888 2.59859 0
M  V30 3692 H 364.026 4.57305 0.605773 0
M  V30 3693 H 362.269 4.309 0.500784 0
M  V30 3694 H 362.94 5.19156 1.87567 0
M  V30 3695 H 365.416 3.35557 2.4605 0
M  V30 3696 H 364.292 4.14938 3.59329 0
M  V30 3697 H 364.553 2.41577 3.7026 0
M  V30 3698 N 363.613 -0.582584 1.46437 0
M  V30 3699 C 364.561 -1.71272 1.5738 0
M  V30 3700 C 365.555 -1.63524 0.44229 0
M  V30 3701 O 366.761 -1.69016 0.619166 0
M  V30 3702 H 363.136 -0.566273 0.494813 0
M  V30 3703 H 365.107 -1.59174 2.52401 0
M  V30 3704 C 363.856 -3.09658 1.58136 0
M  V30 3705 H 363.179 -3.16291 2.44541 0
M  V30 3706 H 364.619 -3.88494 1.69847 0
M  V30 3707 C 363.078 -3.3547 0.310026 0
M  V30 3708 O 363.608 -3.97199 -0.599683 0
M  V30 3709 N 361.814 -2.89925 0.197901 0
M  V30 3710 H 361.361 -2.39873 0.93909 0
M  V30 3711 H 361.319 -3.07568 -0.65185 0
M  V30 3712 N 365.091 -1.34144 -0.827227 0
M  V30 3713 C 366.039 -1.25364 -1.95925 0
M  V30 3714 C 367.033 -0.152608 -1.68711 0
M  V30 3715 O 368.239 -0.317311 -1.77181 0
M  V30 3716 H 364.614 -0.389342 -0.643364 0
M  V30 3717 H 366.585 -2.21045 -2.00454 0
M  V30 3718 C 365.334 -1.02158 -3.32354 0
M  V30 3719 H 364.657 -1.86111 -3.5384 0
M  V30 3720 H 366.097 -1.00048 -4.12027 0
M  V30 3721 C 364.556 0.275244 -3.35774 0
M  V30 3722 O 365.086 1.27806 -3.80826 0
M  V30 3723 N 363.292 0.306853 -2.88975 0
M  V30 3724 H 362.839 -0.509777 -2.52506 0
M  V30 3725 H 362.797 1.17432 -2.91646 0
M  V30 3726 N 366.569 1.04691 -1.17803 0
M  V30 3727 C 367.797 1.81446 -0.99423 0
M  V30 3728 C 368.212 1.83174 0.457459 0
M  V30 3729 O 367.569 1.26265 1.31771 0
M  V30 3730 C 367.62 3.27334 -1.5341 0
M  V30 3731 O 367.341 3.25798 -2.92895 0
M  V30 3732 C 368.842 4.20759 -1.39559 0
M  V30 3733 H 366.062 0.571599 -0.351447 0
M  V30 3734 H 368.606 1.31982 -1.56208 0
M  V30 3735 H 366.761 3.74052 -1.00815 0
M  V30 3736 H 367.175 4.17144 -3.17949 0
M  V30 3737 H 368.649 5.21084 -1.82141 0
M  V30 3738 H 369.126 4.37856 -0.343394 0
M  V30 3739 H 369.732 3.79901 -1.91195 0
M  V30 3740 N 368.047 0.979072 1.23499 0
M  V30 3741 C 369.01 0.523244 2.23147 0
M  V30 3742 C 370.01 -0.386406 1.56088 0
M  V30 3743 O 371.2 -0.180283 1.73265 0
M  V30 3744 C 368.332 -0.240739 3.40049 0
M  V30 3745 H 369.525 1.40432 2.64989 0
M  V30 3746 H 367.078 0.764824 1.36309 0
M  V30 3747 H 367.813 -1.13841 3.03662 0
M  V30 3748 H 367.598 0.412207 3.89927 0
M  V30 3749 H 369.088 -0.548297 4.13985 0
M  V30 3750 N 369.525 -1.3858 0.750561 0
M  V30 3751 C 370.473 -2.32339 0.110162 0
M  V30 3752 C 371.467 -1.53864 -0.708674 0
M  V30 3753 O 372.673 -1.69417 -0.608112 0
M  V30 3754 H 369.048 -0.751812 0.0168275 0
M  V30 3755 H 371.019 -2.83959 0.917053 0
M  V30 3756 C 369.768 -3.39043 -0.771067 0
M  V30 3757 H 369.091 -3.99517 -0.150374 0
M  V30 3758 H 370.531 -4.07061 -1.1865 0
M  V30 3759 C 368.99 -2.77365 -1.91234 0
M  V30 3760 O 369.52 -2.66434 -3.00626 0
M  V30 3761 N 367.726 -2.35219 -1.70646 0
M  V30 3762 H 367.273 -2.4431 -0.81673 0
M  V30 3763 H 367.231 -1.94294 -2.47178 0
M  V30 3764 N 371.003 -0.499398 -1.49478 0
M  V30 3765 C 372.28 0.108629 -1.95298 0
M  V30 3766 C 372.66 1.54282 -1.44084 0
M  V30 3767 O 372.008 2.18944 -0.653908 0
M  V30 3768 C 372.218 0.0229111 -3.48992 0
M  V30 3769 C 373.566 0.197643 -4.2414 0
M  V30 3770 O 374.59 0.0981735 -3.56065 0
M  V30 3771 O 373.449 0.401669 -5.45022 0
M  V30 3772 H 370.543 0.096181 -0.821388 0
M  V30 3773 H 373.089 -0.561822 -1.6013 0
M  V30 3774 H 371.861 -0.977321 -3.78899 0
M  V30 3775 H 371.484 0.733579 -3.90774 0
M  V30 3776 N 372.481 1.55866 -0.233164 0
M  V30 3777 C 373.897 1.59133 0.121988 0
M  V30 3778 C 374.097 1.25016 1.58029 0
M  V30 3779 O 373.153 0.990922 2.32243 0
M  V30 3780 C 374.466 2.99932 -0.214792 0
M  V30 3781 C 376.014 3.12601 -0.157971 0
M  V30 3782 C 376.489 4.55597 -0.46859 0
M  V30 3783 N 377.98 4.61305 -0.418585 0
M  V30 3784 C 378.715 5.69903 -0.63227 0
M  V30 3785 N 378.211 6.86819 -0.90835 0
M  V30 3786 N 380.004 5.59264 -0.563913 0
M  V30 3787 H 372.155 1.76315 -1.18434 0
M  V30 3788 H 374.418 0.820093 -0.475553 0
M  V30 3789 H 374.124 3.29588 -1.22739 0
M  V30 3790 H 373.998 3.74327 0.464691 0
M  V30 3791 H 376.385 2.82735 0.845283 0
M  V30 3792 H 376.466 2.40511 -0.871102 0
M  V30 3793 H 376.11 4.86182 -1.46934 0
M  V30 3794 H 376.04 5.25928 0.265865 0
M  V30 3795 H 378.531 3.77297 -0.213368 0
M  V30 3796 H 378.844 7.65507 -1.05919 0
M  V30 3797 H 377.189 6.88536 -0.945673 0
M  V30 3798 H 380.38 4.66802 -0.348372 0
M  V30 3799 H 380.553 6.43831 -0.733847 0
M  V30 3800 N 373.959 -0.0401083 1.57549 0
M  V30 3801 C 374.906 -1.04413 2.05831 0
M  V30 3802 C 375.876 -1.36585 0.945184 0
M  V30 3803 O 377.061 -1.47112 1.21502 0
M  V30 3804 C 374.201 -2.34336 2.53339 0
M  V30 3805 C 373.314 -2.08419 3.78398 0
M  V30 3806 C 372.449 -3.32133 4.14561 0
M  V30 3807 C 371.488 -3.01721 5.3257 0
M  V30 3808 N 370.625 -4.17855 5.64218 0
M  V30 3809 H 375.465 -0.625442 2.91363 0
M  V30 3810 H 373.002 -0.297218 1.44066 0
M  V30 3811 H 374.96 -3.10234 2.78946 0
M  V30 3812 H 373.59 -2.73948 1.7074 0
M  V30 3813 H 372.642 -1.23069 3.59942 0
M  V30 3814 H 373.954 -1.81978 4.64419 0
M  V30 3815 H 373.108 -4.16406 4.41238 0
M  V30 3816 H 371.847 -3.61678 3.2717 0
M  V30 3817 H 370.852 -2.15849 5.05657 0
M  V30 3818 H 372.077 -2.73466 6.21605 0
M  V30 3819 H 370.023 -4.47372 4.79786 0
M  V30 3820 H 369.94 -3.94798 6.44725 0
M  V30 3821 H 371.208 -5.03033 5.95465 0
M  V30 3822 N 375.437 -1.54477 -0.31217 0
M  V30 3823 C 376.37 -1.79519 -1.40884 0
M  V30 3824 C 377.348 -0.645753 -1.49227 0
M  V30 3825 O 378.532 -0.884468 -1.66461 0
M  V30 3826 C 375.659 -1.92194 -2.78889 0
M  V30 3827 C 374.705 -3.14555 -2.88023 0
M  V30 3828 S 375.538 -4.72893 -2.51262 0
M  V30 3829 C 376.694 -4.8849 -3.91317 0
M  V30 3830 H 376.927 -2.72256 -1.19432 0
M  V30 3831 H 374.46 -1.45746 -0.509654 0
M  V30 3832 H 376.418 -2.00182 -3.58382 0
M  V30 3833 H 375.079 -1.00414 -2.97617 0
M  V30 3834 H 374.272 -3.20193 -3.89221 0
M  V30 3835 H 373.874 -3.04955 -2.16514 0
M  V30 3836 H 376.166 -4.71826 -4.86196 0
M  V30 3837 H 377.109 -5.90588 -3.90656 0
M  V30 3838 H 377.517 -4.16715 -3.80801 0
M  V30 3839 N 376.915 0.57481 -1.46744 0
M  V30 3840 C 378.145 1.35659 -1.55821 0
M  V30 3841 C 378.553 1.88129 -0.201036 0
M  V30 3842 O 377.896 1.64723 0.813134 0
M  V30 3843 C 377.958 2.57473 -2.50894 0
M  V30 3844 C 377.622 2.26415 -3.9697 0
M  V30 3845 C 378.619 1.84771 -4.85958 0
M  V30 3846 C 376.304 2.38316 -4.42166 0
M  V30 3847 C 378.298 1.55434 -6.18158 0
M  V30 3848 C 375.985 2.08591 -5.74398 0
M  V30 3849 C 376.983 1.67216 -6.62214 0
M  V30 3850 O 376.671 1.37859 -7.91991 0
M  V30 3851 H 376.403 0.420496 -0.529301 0
M  V30 3852 H 378.957 0.704967 -1.92923 0
M  V30 3853 H 377.187 3.25468 -2.08824 0
M  V30 3854 H 378.876 3.19546 -2.50291 0
M  V30 3855 H 379.642 1.75085 -4.52295 0
M  V30 3856 H 375.521 2.69483 -3.74032 0
M  V30 3857 H 379.065 1.23065 -6.86659 0
M  V30 3858 H 374.962 2.17905 -6.07608 0
M  V30 3859 H 375.73 1.51638 -8.04331 0
M  V30 3860 N 378.394 1.34581 0.820102 0
M  V30 3861 C 379.641 1.27096 1.57648 0
M  V30 3862 C 379.969 -0.158317 1.93855 0
M  V30 3863 O 379.224 -1.12028 1.60463 0
M  V30 3864 C 379.523 2.10997 2.8847 0
M  V30 3865 C 379.189 3.59966 2.71543 0
M  V30 3866 C 377.851 4.00575 2.66634 0
M  V30 3867 C 380.203 4.54548 2.55021 0
M  V30 3868 C 377.531 5.33953 2.43128 0
M  V30 3869 C 379.883 5.88109 2.33047 0
M  V30 3870 C 378.547 6.27878 2.26552 0
M  V30 3871 H 377.817 0.465078 0.576874 0
M  V30 3872 H 380.464 1.6635 0.948671 0
M  V30 3873 H 378.769 1.6458 3.55557 0
M  V30 3874 H 380.466 2.0255 3.46084 0
M  V30 3875 H 377.056 3.27733 2.76205 0
M  V30 3876 H 381.24 4.24069 2.57835 0
M  V30 3877 H 376.496 5.63781 2.3656 0
M  V30 3878 H 380.67 6.60985 2.19251 0
M  V30 3879 H 378.297 7.31162 2.081 0
M  V30 3880 N 379.872 -1.04064 1.18357 0
M  V30 3881 C 380.802 -2.14001 0.934113 0
M  V30 3882 C 381.783 -1.69616 -0.128186 0
M  V30 3883 O 382.968 -1.94185 0.0244093 0
M  V30 3884 C 380.098 -3.44253 0.459066 0
M  V30 3885 C 379.052 -4.02261 1.46185 0
M  V30 3886 C 378.378 -5.27992 0.844322 0
M  V30 3887 C 379.678 -4.38432 2.83856 0
M  V30 3888 H 381.372 -2.35127 1.85352 0
M  V30 3889 H 378.918 -1.12998 0.892604 0
M  V30 3890 H 380.871 -4.20522 0.271907 0
M  V30 3891 H 379.595 -3.22813 -0.495912 0
M  V30 3892 H 378.254 -3.28074 1.63595 0
M  V30 3893 H 377.902 -5.02862 -0.117845 0
M  V30 3894 H 377.602 -5.67765 1.51384 0
M  V30 3895 H 379.126 -6.06938 0.667693 0
M  V30 3896 H 380.54 -5.05688 2.70098 0
M  V30 3897 H 378.937 -4.89254 3.47491 0
M  V30 3898 H 380.007 -3.4826 3.37406 0
M  V30 3899 N 381.35 -0.985608 -1.22978 0
M  V30 3900 C 382.578 -0.675582 -1.95559 0
M  V30 3901 C 382.993 0.758413 -1.72897 0
M  V30 3902 O 382.35 1.51094 -1.02357 0
M  V30 3903 C 382.401 -0.96293 -3.48439 0
M  V30 3904 O 382.122 -2.34057 -3.70336 0
M  V30 3905 C 383.623 -0.669585 -4.38214 0
M  V30 3906 H 380.843 -0.250523 -0.622478 0
M  V30 3907 H 383.387 -1.3184 -1.56328 0
M  V30 3908 H 381.542 -0.366033 -3.85667 0
M  V30 3909 H 381.956 -2.43424 -4.64591 0
M  V30 3910 H 383.43 -0.920967 -5.44263 0
M  V30 3911 H 383.907 0.396383 -4.37408 0
M  V30 3912 H 384.513 -1.2472 -4.06602 0
M  V30 3913 N 382.828 1.3818 -0.7579 0
M  V30 3914 C 383.791 2.28764 -0.141286 0
M  V30 3915 C 384.791 1.47388 0.642907 0
M  V30 3916 O 385.981 1.67781 0.468536 0
M  V30 3917 C 383.113 3.31184 0.808069 0
M  V30 3918 H 384.306 2.848 -0.939633 0
M  V30 3919 H 381.859 1.47212 -0.525191 0
M  V30 3920 H 382.594 2.80247 1.63193 0
M  V30 3921 H 382.379 3.91314 0.248104 0
M  V30 3922 H 383.869 3.98909 1.23536 0
M  V30 3923 N 384.306 0.507319 1.49211 0
M  V30 3924 C 385.256 -0.287112 2.26185 0
M  V30 3925 C 386.24 -0.929983 1.31302 0
M  V30 3926 O 387.432 -0.836538 1.55984 0
M  V30 3927 C 384.561 -1.34718 3.15763 0
M  V30 3928 C 383.647 -0.710235 4.18111 0
M  V30 3929 N 384.038 0.190836 5.0544 0
M  V30 3930 C 382.336 -0.97009 4.35322 0
M  V30 3931 C 383.037 0.55606 5.79036 0
M  V30 3932 N 382.013 -0.0775232 5.43545 0
M  V30 3933 H 385.815 0.406445 2.91076 0
M  V30 3934 H 383.329 0.323814 1.59139 0
M  V30 3935 H 385.326 -1.92982 3.69545 0
M  V30 3936 H 383.986 -2.04235 2.52424 0
M  V30 3937 H 384.997 0.562047 5.14841 0
M  V30 3938 H 381.674 -1.65753 3.83187 0
M  V30 3939 H 383.064 1.2936 6.5933 0
M  V30 3940 N 385.784 -1.5574 0.241426 0
M  V30 3941 C 386.734 -2.17803 -0.674233 0
M  V30 3942 C 387.718 -1.13225 -1.14319 0
M  V30 3943 O 388.91 -1.39153 -1.09387 0
M  V30 3944 C 386.039 -2.87682 -1.87333 0
M  V30 3945 C 385.125 -3.99509 -1.42313 0
M  V30 3946 N 385.516 -5.01115 -0.686798 0
M  V30 3947 C 383.814 -4.11964 -1.70885 0
M  V30 3948 C 384.515 -5.79922 -0.454456 0
M  V30 3949 N 383.491 -5.34001 -1.01705 0
M  V30 3950 H 387.293 -2.93718 -0.103447 0
M  V30 3951 H 384.807 -1.62342 0.0435095 0
M  V30 3952 H 386.804 -3.3057 -2.54026 0
M  V30 3953 H 385.464 -2.13269 -2.4484 0
M  V30 3954 H 386.475 -5.16799 -0.337459 0
M  V30 3955 H 383.152 -3.48718 -2.2957 0
M  V30 3956 H 384.542 -6.71768 0.132992 0
M  V30 3957 N 387.262 0.0317525 -1.57568 0
M  V30 3958 C 388.502 0.727979 -1.90997 0
M  V30 3959 C 388.866 1.72664 -0.839708 0
M  V30 3960 O 390.067 2.47092 -1.05825 0
M  V30 3961 C 388.338 1.38239 -3.29583 0
M  V30 3962 S 389.897 2.10814 -3.84841 0
M  V30 3963 H 386.715 0.241226 -0.668828 0
M  V30 3964 H 389.317 -0.0173037 -1.95492 0
M  V30 3965 H 388.021 0.642288 -4.05343 0
M  V30 3966 H 387.552 2.16628 -3.28384 0
M  V30 3967 H 389.567 3.3792 -3.63352 0
M  V30 3968 N 388.74 1.54641 0.303973 0
M  V30 3969 C 389.988 1.73437 1.0375 0
M  V30 3970 C 390.309 0.521449 1.87899 0
M  V30 3971 O 389.579 -0.46432 1.90318 0
M  V30 3972 H 388.159 0.639518 0.386039 0
M  V30 3973 H 390.821 1.91988 0.335675 0
M  V30 3974 H 389.917 2.62235 1.69231 0
M  V30 3975 N 390.218 -0.567019 1.47046 0
M  V30 3976 C 391.151 -1.69016 1.53326 0
M  V30 3977 C 392.129 -1.57949 0.386126 0
M  V30 3978 O 393.313 -1.78945 0.592529 0
M  V30 3979 C 390.44 -3.07191 1.42658 0
M  V30 3980 C 389.486 -3.36733 2.6175 0
M  V30 3981 S 390.319 -3.27069 4.24012 0
M  V30 3982 C 391.475 -4.67755 4.1588 0
M  V30 3983 H 391.708 -1.63434 2.48348 0
M  V30 3984 H 389.241 -0.747048 1.35124 0
M  V30 3985 H 391.199 -3.86897 1.37191 0
M  V30 3986 H 389.86 -3.10249 0.490369 0
M  V30 3987 H 389.053 -4.37441 2.50323 0
M  V30 3988 H 388.655 -2.64627 2.64289 0
M  V30 3989 H 390.947 -5.58491 3.83529 0
M  V30 3990 H 391.89 -4.84239 5.16641 0
M  V30 3991 H 392.298 -4.45341 3.46889 0
M  V30 3992 N 391.696 -1.35014 -0.812953 0
M  V30 3993 C 392.944 -1.27678 -1.56661 0
M  V30 3994 C 393.265 0.150359 -1.94419 0
M  V30 3995 O 392.535 1.08532 -1.63088 0
M  V30 3996 H 391.115 -0.469602 -0.580933 0
M  V30 3997 H 393.777 -1.69043 -0.970076 0
M  V30 3998 H 392.873 -1.88833 -2.48492 0
M  V30 3999 N 393.175 1.03435 -1.18907 0
M  V30 4000 C 394.403 1.80381 -1.01342 0
M  V30 4001 C 394.818 1.83649 0.438005 0
M  V30 4002 O 394.175 1.27655 1.30424 0
M  V30 4003 C 394.226 3.25689 -1.56873 0
M  V30 4004 O 393.947 3.22673 -2.96334 0
M  V30 4005 C 395.448 4.19255 -1.44014 0
M  V30 4006 H 392.668 0.56784 -0.35749 0
M  V30 4007 H 395.212 1.30317 -1.576 0
M  V30 4008 H 393.367 3.72962 -1.04777 0
M  V30 4009 H 393.781 4.13748 -3.22355 0
M  V30 4010 H 395.255 5.19123 -1.87657 0
M  V30 4011 H 395.732 4.37467 -0.389815 0
M  V30 4012 H 396.338 3.77851 -1.95214 0
M  V30 4013 N 394.653 0.992116 1.22453 0
M  V30 4014 C 395.616 0.546883 2.2258 0
M  V30 4015 C 396.616 -0.369829 1.56489 0
M  V30 4016 O 397.806 -0.161896 1.73446 0
M  V30 4017 C 394.938 -0.204659 3.40285 0
M  V30 4018 H 396.131 1.43234 2.63484 0
M  V30 4019 H 393.684 0.779239 1.3549 0
M  V30 4020 H 394.419 -1.10614 3.04853 0
M  V30 4021 H 394.204 0.45354 3.89468 0
M  V30 4022 H 395.694 -0.504358 4.14543 0
M  V30 4023 N 396.131 -1.37776 0.765217 0
M  V30 4024 C 397.356 -2.04651 0.336537 0
M  V30 4025 C 397.781 -1.57337 -1.03086 0
M  V30 4026 O 397.139 -0.730621 -1.65927 0
M  V30 4027 C 397.187 -3.58577 0.381468 0
M  V30 4028 O 396.291 -4.07706 -0.62042 0
M  V30 4029 H 395.632 -0.64756 0.146838 0
M  V30 4030 H 398.162 -1.76221 1.03959 0
M  V30 4031 H 398.172 -4.07314 0.236448 0
M  V30 4032 H 396.847 -3.9237 1.37907 0
M  V30 4033 H 395.424 -3.70306 -0.439056 0
M  V30 4034 N 397.609 -0.515225 -1.4894 0
M  V30 4035 C 398.837 0.0206034 -2.0689 0
M  V30 4036 C 399.252 1.29514 -1.37374 0
M  V30 4037 O 398.609 1.76698 -0.456529 0
M  V30 4038 C 398.66 0.26351 -3.60538 0
M  V30 4039 O 398.381 -0.960517 -4.27441 0
M  V30 4040 C 399.882 0.841383 -4.35242 0
M  V30 4041 H 397.102 -0.0268608 -0.670462 0
M  V30 4042 H 399.646 -0.716651 -1.91532 0
M  V30 4043 H 397.801 0.950777 -3.75552 0
M  V30 4044 H 398.215 -0.73212 -5.19365 0
M  V30 4045 H 399.689 0.96085 -5.43573 0
M  V30 4046 H 400.166 1.8427 -3.98674 0
M  V30 4047 H 400.772 0.191143 -4.2487 0
M  V30 4048 N 399.087 1.5561 -0.249682 0
M  V30 4049 C 400.05 2.20217 0.635394 0
M  V30 4050 C 401.05 1.17227 1.10066 0
M  V30 4051 O 402.24 1.42292 1.00492 0
M  V30 4052 C 399.372 2.84794 1.87363 0
M  V30 4053 H 400.565 2.99814 0.0716752 0
M  V30 4054 H 398.118 1.563 -0.000153234 0
M  V30 4055 H 398.853 2.09142 2.47851 0
M  V30 4056 H 398.638 3.60241 1.5482 0
M  V30 4057 H 400.128 3.3423 2.5036 0
M  V30 4058 N 400.565 -0.0233959 1.57583 0
M  V30 4059 C 401.528 -1.00693 2.05897 0
M  V30 4060 C 402.528 -1.28693 0.964092 0
M  V30 4061 O 403.718 -1.23602 1.22753 0
M  V30 4062 C 400.85 -2.33825 2.4807 0
M  V30 4063 H 402.043 -0.589476 2.9405 0
M  V30 4064 H 399.596 -0.270354 1.53944 0
M  V30 4065 H 400.331 -2.80307 1.6309 0
M  V30 4066 H 400.116 -2.1483 3.2801 0
M  V30 4067 H 401.606 -3.04426 2.85857 0
M  V30 4068 N 402.043 -1.548 -0.295768 0
M  V30 4069 C 403.268 -1.78653 -1.05346 0
M  V30 4070 C 403.693 -0.546894 -1.79974 0
M  V30 4071 O 403.051 0.502763 -1.7419 0
M  V30 4072 C 403.099 -2.99679 -2.00561 0
M  V30 4073 O 402.203 -2.7317 -3.08953 0
M  V30 4074 H 401.544 -0.59116 -0.302367 0
M  V30 4075 H 404.074 -2.01895 -0.331598 0
M  V30 4076 H 404.084 -3.27793 -2.42932 0
M  V30 4077 H 402.759 -3.89562 -1.4565 0
M  V30 4078 H 401.336 -2.56089 -2.71059 0
M  V30 4079 N 403.521 0.559213 -1.47345 0
M  V30 4080 C 404.77 1.31281 -1.53128 0
M  V30 4081 C 405.083 1.94602 -0.197344 0
M  V30 4082 O 406.289 2.71173 -0.133154 0
M  V30 4083 C 404.745 2.38051 -2.69925 0
M  V30 4084 C 404.353 1.8093 -4.0984 0
M  V30 4085 C 406.097 3.14604 -2.84999 0
M  V30 4086 C 404.004 2.85468 -5.1794 0
M  V30 4087 H 402.934 0.493614 -0.569966 0
M  V30 4088 H 405.585 0.594155 -1.73615 0
M  V30 4089 H 403.967 3.12822 -2.42814 0
M  V30 4090 H 405.141 1.12544 -4.46845 0
M  V30 4091 H 403.456 1.16967 -3.99634 0
M  V30 4092 H 406.053 3.92666 -3.62929 0
M  V30 4093 H 406.396 3.68665 -1.93369 0
M  V30 4094 H 406.929 2.46945 -3.1187 0
M  V30 4095 H 403.668 2.36264 -6.1144 0
M  V30 4096 H 403.188 3.52269 -4.85455 0
M  V30 4097 H 404.867 3.48996 -5.44803 0
M  V30 4098 N 404.999 1.35443 0.805782 0
M  V30 4099 C 406.245 1.28952 1.56522 0
M  V30 4100 C 406.578 -0.135597 1.93726 0
M  V30 4101 O 405.853 -1.08516 1.61414 0
M  V30 4102 C 406.136 2.19678 2.85331 0
M  V30 4103 C 405.989 3.7081 2.54598 0
M  V30 4104 C 407.308 2.09495 3.8704 0
M  V30 4105 H 404.427 0.469764 0.567883 0
M  V30 4106 H 407.069 1.65851 0.927001 0
M  V30 4107 H 405.219 1.8834 3.39795 0
M  V30 4108 H 406.891 4.12593 2.06312 0
M  V30 4109 H 405.134 3.91051 1.8778 0
M  V30 4110 H 405.805 4.29679 3.46525 0
M  V30 4111 H 408.281 2.37045 3.41978 0
M  V30 4112 H 407.157 2.75173 4.74943 0
M  V30 4113 H 407.418 1.07714 4.28777 0
M  V30 4114 N 406.477 -1.02803 1.19454 0
M  V30 4115 C 407.723 -1.76478 0.999171 0
M  V30 4116 C 408.056 -1.88456 -0.468828 0
M  V30 4117 O 407.331 -1.40198 -1.34814 0
M  V30 4118 C 407.614 -3.19044 1.66981 0
M  V30 4119 C 407.467 -3.14932 3.21151 0
M  V30 4120 C 408.786 -4.17456 1.39349 0
M  V30 4121 H 405.905 -0.640614 0.364393 0
M  V30 4122 H 408.547 -1.20005 1.47305 0
M  V30 4123 H 406.697 -3.67263 1.2669 0
M  V30 4124 H 408.369 -2.74605 3.70661 0
M  V30 4125 H 406.612 -2.52625 3.52652 0
M  V30 4126 H 407.283 -4.1566 3.63223 0
M  V30 4127 H 409.759 -3.77842 1.74283 0
M  V30 4128 H 408.635 -5.154 1.88823 0
M  V30 4129 H 408.896 -4.40949 0.318813 0
M  V30 4130 N 407.956 -0.998596 -1.21925 0
M  V30 4131 C 409.186 -0.695276 -1.94549 0
M  V30 4132 C 409.594 0.745079 -1.73911 0
M  V30 4133 O 408.937 1.51507 -1.03881 0
M  V30 4134 C 408.999 -0.928485 -3.47303 0
M  V30 4135 C 408.663 -2.35443 -3.91683 0
M  V30 4136 C 409.66 -3.33428 -3.98901 0
M  V30 4137 C 407.345 -2.69038 -4.24174 0
M  V30 4138 C 409.339 -4.63079 -4.37992 0
M  V30 4139 C 407.026 -3.98906 -4.62944 0
M  V30 4140 C 408.024 -4.95738 -4.69822 0
M  V30 4141 O 407.712 -6.23285 -5.07711 0
M  V30 4142 H 407.444 -0.255902 -0.625692 0
M  V30 4143 H 409.998 -1.33767 -1.5587 0
M  V30 4144 H 408.228 -0.228917 -3.86022 0
M  V30 4145 H 409.917 -0.619539 -4.01144 0
M  V30 4146 H 410.683 -3.08807 -3.73983 0
M  V30 4147 H 406.562 -1.94367 -4.18022 0
M  V30 4148 H 410.106 -5.38658 -4.43275 0
M  V30 4149 H 406.003 -4.23314 -4.87314 0
M  V30 4150 H 406.771 -6.27306 -5.25766 0
M  V30 4151 N 409.434 1.37368 -0.772513 0
M  V30 4152 C 410.68 2.00423 -0.3467 0
M  V30 4153 C 411.035 1.60224 1.06518 0
M  V30 4154 O 410.328 0.838712 1.72268 0
M  V30 4155 C 410.522 3.54817 -0.428876 0
M  V30 4156 C 410.351 4.10011 -1.84719 0
M  V30 4157 C 409.121 4.40927 -2.46803 0
M  V30 4158 C 411.319 4.30955 -2.80681 0
M  V30 4159 N 409.301 4.8184 -3.80399 0
M  V30 4160 C 410.672 4.74486 -3.99078 0
M  V30 4161 C 412.727 4.1309 -2.77958 0
M  V30 4162 C 411.43 5.02023 -5.15136 0
M  V30 4163 C 413.456 4.41764 -3.9319 0
M  V30 4164 C 412.818 4.85535 -5.10328 0
M  V30 4165 H 408.917 0.762413 -0.173927 0
M  V30 4166 H 411.501 1.66666 -1.00651 0
M  V30 4167 H 409.672 3.87881 0.200757 0
M  V30 4168 H 411.404 4.04696 0.0190668 0
M  V30 4169 H 408.159 4.30033 -1.98415 0
M  V30 4170 H 408.583 5.06604 -4.49089 0
M  V30 4171 H 413.225 3.7842 -1.88568 0
M  V30 4172 H 410.943 5.35582 -6.05126 0
M  V30 4173 H 414.529 4.29528 -3.92425 0
M  V30 4174 H 413.409 5.07296 -5.98013 0
M  V30 4175 N 410.912 0.523116 1.48665 0
M  V30 4176 C 411.86 -0.256859 2.31177 0
M  V30 4177 C 412.854 -0.94199 1.40794 0
M  V30 4178 O 414.06 -0.867157 1.57735 0
M  V30 4179 H 410.435 -0.1017 0.745091 0
M  V30 4180 H 412.406 0.458739 2.94853 0
M  V30 4181 C 411.155 -1.29503 3.22683 0
M  V30 4182 H 410.478 -0.777248 3.92172 0
M  V30 4183 H 411.918 -1.81233 3.83315 0
M  V30 4184 C 410.377 -2.32501 2.43813 0
M  V30 4185 O 410.907 -3.3881 2.15803 0
M  V30 4186 N 409.113 -2.05538 2.05432 0
M  V30 4187 H 408.66 -1.19104 2.28412 0
M  V30 4188 H 408.618 -2.74676 1.52973 0
M  V30 4189 N 412.39 -1.55475 0.257931 0
M  V30 4190 C 413.62 -2.03314 -0.367026 0
M  V30 4191 C 414.028 -1.13625 -1.51281 0
M  V30 4192 O 413.371 -0.145334 -1.83124 0
M  V30 4193 C 413.433 -3.47362 -0.926284 0
M  V30 4194 C 413.097 -4.56914 0.0886584 0
M  V30 4195 C 414.094 -5.12013 0.902123 0
M  V30 4196 C 411.779 -5.01827 0.217936 0
M  V30 4197 C 413.773 -6.10529 1.83122 0
M  V30 4198 C 411.46 -6.00172 1.15052 0
M  V30 4199 C 412.458 -6.54402 1.95568 0
M  V30 4200 O 412.146 -7.50827 2.87253 0
M  V30 4201 H 411.878 -0.669976 -0.0900443 0
M  V30 4202 H 414.432 -2.01804 0.382673 0
M  V30 4203 H 412.662 -3.46056 -1.72575 0
M  V30 4204 H 414.351 -3.78637 -1.46249 0
M  V30 4205 H 415.117 -4.78139 0.812891 0
M  V30 4206 H 410.996 -4.59272 -0.398721 0
M  V30 4207 H 414.54 -6.52783 2.46008 0
M  V30 4208 H 410.437 -6.33465 1.24064 0
M  V30 4209 H 411.205 -7.68483 2.81739 0
M  V30 4210 N 413.868 0.0150385 -1.57593 0
M  V30 4211 C 414.8 1.03912 -2.04291 0
M  V30 4212 C 415.813 1.31618 -0.958146 0
M  V30 4213 O 417.002 1.28859 -1.23522 0
M  V30 4214 C 414.102 2.37749 -2.41514 0
M  V30 4215 C 413.275 2.29198 -3.72541 0
M  V30 4216 C 412.334 3.45598 -3.96797 0
M  V30 4217 O 411.36 3.24461 -4.67668 0
M  V30 4218 N 412.562 4.67945 -3.43523 0
M  V30 4219 H 415.327 0.64099 -2.92765 0
M  V30 4220 H 412.888 0.20272 -1.60626 0
M  V30 4221 H 414.88 3.14364 -2.54867 0
M  V30 4222 H 413.45 2.69357 -1.58637 0
M  V30 4223 H 412.67 1.3759 -3.69408 0
M  V30 4224 H 413.958 2.20642 -4.5847 0
M  V30 4225 H 413.356 4.88017 -2.86104 0
M  V30 4226 H 411.913 5.41878 -3.62232 0
M  V30 4227 N 415.346 1.54954 0.287554 0
M  V30 4228 C 416.294 1.87606 1.37502 0
M  V30 4229 C 417.288 0.751001 1.51843 0
M  V30 4230 O 418.494 0.935169 1.53801 0
M  V30 4231 H 414.869 0.595231 0.459569 0
M  V30 4232 H 416.84 2.78477 1.07206 0
M  V30 4233 C 415.589 2.15183 2.73115 0
M  V30 4234 H 414.912 3.01234 2.62866 0
M  V30 4235 H 416.352 2.4196 3.48183 0
M  V30 4236 C 414.811 0.954686 3.2309 0
M  V30 4237 O 415.341 0.181949 4.01288 0
M  V30 4238 N 413.547 0.756368 2.80584 0
M  V30 4239 H 413.094 1.38643 2.17108 0
M  V30 4240 H 413.052 -0.0430391 3.14371 0
M  V30 4241 N 416.824 -0.551391 1.4764 0
M  V30 4242 C 418.049 -1.33837 1.58437 0
M  V30 4243 C 418.474 -1.866 0.237063 0
M  V30 4244 O 417.832 -1.6328 -0.787994 0
M  V30 4245 C 417.88 -2.48014 2.61766 0
M  V30 4246 O 416.984 -3.50419 2.1744 0
M  V30 4247 H 416.325 -0.397299 0.532024 0
M  V30 4248 H 418.855 -0.665759 1.93465 0
M  V30 4249 H 418.865 -2.94503 2.82369 0
M  V30 4250 H 417.54 -2.08969 3.5959 0
M  V30 4251 H 416.117 -3.10196 2.06961 0
M  V30 4252 N 418.302 -1.35869 -0.798587 0
M  V30 4253 C 419.53 -1.32722 -1.58722 0
M  V30 4254 C 419.945 0.0935631 -1.88568 0
M  V30 4255 O 419.302 1.04784 -1.49421 0
M  V30 4256 C 419.353 -2.13974 -2.91371 0
M  V30 4257 O 419.074 -3.50514 -2.62815 0
M  V30 4258 C 420.575 -2.18504 -3.85708 0
M  V30 4259 H 417.795 -0.45562 -0.492596 0
M  V30 4260 H 420.339 -1.78837 -0.991843 0
M  V30 4261 H 418.494 -1.71438 -3.47402 0
M  V30 4262 H 418.908 -3.92806 -3.47568 0
M  V30 4263 H 420.382 -2.79732 -4.75872 0
M  V30 4264 H 420.859 -1.18597 -4.22885 0
M  V30 4265 H 421.465 -2.61236 -3.35612 0
M  V30 4266 N 419.78 1.02168 -1.19998 0
M  V30 4267 C 421.02 1.77232 -1.01825 0
M  V30 4268 C 421.384 1.86833 0.442428 0
M  V30 4269 O 422.585 2.58293 0.744189 0
M  V30 4270 C 420.856 3.15601 -1.67722 0
M  V30 4271 S 422.415 4.06765 -1.64584 0
M  V30 4272 H 419.233 0.610021 -0.365233 0
M  V30 4273 H 421.835 1.22368 -1.52467 0
M  V30 4274 H 420.539 3.06235 -2.73218 0
M  V30 4275 H 420.07 3.7554 -1.17189 0
M  V30 4276 H 422.085 4.91586 -0.67511 0
M  V30 4277 N 421.258 1.00505 1.21394 0
M  V30 4278 C 422.674 0.717873 1.42544 0
M  V30 4279 C 422.874 -0.706936 1.88692 0
M  V30 4280 O 421.93 -1.47627 2.04847 0
M  V30 4281 C 423.243 1.73377 2.45684 0
M  V30 4282 C 424.791 1.75059 2.59467 0
M  V30 4283 C 425.266 2.75545 3.6584 0
M  V30 4284 N 426.757 2.74213 3.73311 0
M  V30 4285 C 427.492 3.48626 4.55245 0
M  V30 4286 N 426.988 4.32678 5.41075 0
M  V30 4287 N 428.781 3.37276 4.49668 0
M  V30 4288 H 420.932 1.92506 0.897503 0
M  V30 4289 H 423.195 0.830919 0.456375 0
M  V30 4290 H 422.901 2.75395 2.18748 0
M  V30 4291 H 422.775 1.53647 3.44489 0
M  V30 4292 H 425.162 0.737337 2.8574 0
M  V30 4293 H 425.243 1.98861 1.60897 0
M  V30 4294 H 424.887 3.77028 3.40313 0
M  V30 4295 H 424.817 2.49009 4.64007 0
M  V30 4296 H 427.308 2.13234 3.11993 0
M  V30 4297 H 427.621 4.86253 6.00648 0
M  V30 4298 H 425.966 4.3676 5.40616 0
M  V30 4299 H 429.157 2.71043 3.81646 0
M  V30 4300 H 429.33 3.95524 5.13288 0
M  V30 4301 N 422.737 -1.36956 0.779787 0
M  V30 4302 C 423.7 -2.2851 0.177662 0
M  V30 4303 C 424.7 -1.48393 -0.619377 0
M  V30 4304 O 425.89 -1.68505 -0.441785 0
M  V30 4305 C 423.022 -3.32428 -0.755279 0
M  V30 4306 H 424.215 -2.83269 0.984823 0
M  V30 4307 H 421.768 -1.46358 0.548544 0
M  V30 4308 H 422.503 -2.82808 -1.58714 0
M  V30 4309 H 422.288 -3.91659 -0.185817 0
M  V30 4310 H 423.778 -4.00824 -1.17174 0
M  V30 4311 N 424.215 -0.530993 -1.48385 0
M  V30 4312 C 425.626 -0.0907905 -1.86479 0
M  V30 4313 C 425.977 1.33213 -1.44044 0
M  V30 4314 O 425.102 1.99783 -0.831615 0
M  V30 4315 C 425.697 -0.157987 -3.38431 0
M  V30 4316 C 424.256 0.227026 -3.75715 0
M  V30 4317 C 423.403 -0.5173 -2.72432 0
M  V30 4318 H 426.354 -0.742186 -1.40276 0
M  V30 4319 H 426.375 0.630053 -3.75247 0
M  V30 4320 H 425.887 -1.19372 -3.69286 0
M  V30 4321 H 423.988 1.26486 -3.50474 0
M  V30 4322 H 424.101 -0.113288 -4.78966 0
M  V30 4323 H 422.465 0.0365527 -2.54674 0
M  V30 4324 H 423.248 -1.55368 -3.0613 0
M  V30 4325 N 425.693 1.55336 -0.266172 0
M  V30 4326 C 426.641 2.23587 0.641228 0
M  V30 4327 C 427.635 1.22986 1.16494 0
M  V30 4328 O 428.841 1.40943 1.1196 0
M  V30 4329 H 425.216 0.717452 0.225315 0
M  V30 4330 H 427.187 2.9837 0.0426561 0
M  V30 4331 C 425.936 2.96369 1.81826 0
M  V30 4332 H 425.259 3.73563 1.42445 0
M  V30 4333 H 426.699 3.47459 2.42998 0
M  V30 4334 C 425.158 2.0133 2.70125 0
M  V30 4335 O 425.688 1.55875 3.70224 0
M  V30 4336 N 423.894 1.6802 2.37102 0
M  V30 4337 H 423.441 2.05181 1.55751 0
M  V30 4338 H 423.399 1.047 2.96454 0
M  V30 4339 N 427.171 -0.0066808 1.57599 0
M  V30 4340 C 428.399 -0.704087 1.94551 0
M  V30 4341 C 428.814 -1.67677 0.867746 0
M  V30 4342 O 428.171 -1.8185 -0.153925 0
M  V30 4343 C 428.222 -1.44177 3.31505 0
M  V30 4344 O 427.943 -0.508097 4.35144 0
M  V30 4345 C 429.444 -2.23429 3.82876 0
M  V30 4346 H 426.664 -0.196523 0.641576 0
M  V30 4347 H 429.208 0.042453 2.04456 0
M  V30 4348 H 427.363 -2.13999 3.22929 0
M  V30 4349 H 427.777 -1.02782 5.14331 0
M  V30 4350 H 429.251 -2.70552 4.8115 0
M  V30 4351 H 429.728 -3.05818 3.15233 0
M  V30 4352 H 430.334 -1.58636 3.94607 0
M  V30 4353 N 428.649 -1.55105 -0.279332 0
M  V30 4354 C 430.06 -1.66186 -0.850832 0
M  V30 4355 C 430.411 -0.584707 -1.87285 0
M  V30 4356 O 429.536 0.274919 -2.14647 0
M  V30 4357 C 430.131 -3.01264 -1.55001 0
M  V30 4358 C 428.69 -3.14394 -2.06963 0
M  V30 4359 C 427.837 -2.61959 -0.909536 0
M  V30 4360 H 430.788 -1.58602 -0.0558235 0
M  V30 4361 H 430.809 -2.93899 -2.41669 0
M  V30 4362 H 430.321 -3.7964 -0.805931 0
M  V30 4363 H 428.422 -2.4078 -2.84352 0
M  V30 4364 H 428.535 -4.20867 -2.28928 0
M  V30 4365 H 426.899 -2.18957 -1.30116 0
M  V30 4366 H 427.682 -3.42833 -0.179062 0
M  V30 4367 N 430.127 0.543554 -1.4793 0
M  V30 4368 C 431.09 1.63156 -1.60975 0
M  V30 4369 C 432.09 1.53346 -0.483899 0
M  V30 4370 O 433.28 1.5726 -0.749339 0
M  V30 4371 C 430.412 3.02743 -1.56716 0
M  V30 4372 H 431.605 1.52934 -2.57975 0
M  V30 4373 H 429.158 0.764557 -1.36324 0
M  V30 4374 H 429.893 3.18484 -0.611418 0
M  V30 4375 H 429.678 3.11272 -2.38438 0
M  V30 4376 H 431.168 3.81871 -1.6901 0
M  V30 4377 N 431.605 1.3629 0.791371 0
M  V30 4378 C 432.83 1.33726 1.58531 0
M  V30 4379 C 433.255 -0.0794933 1.87932 0
M  V30 4380 O 432.613 -1.05087 1.47738 0
M  V30 4381 C 432.661 2.16425 2.88431 0
M  V30 4382 O 431.765 1.5554 3.81944 0
M  V30 4383 H 431.106 0.457793 0.480959 0
M  V30 4384 H 433.636 1.79547 0.981031 0
M  V30 4385 H 433.646 2.28933 3.37718 0
M  V30 4386 H 432.321 3.19415 2.66359 0
M  V30 4387 H 430.898 1.51961 3.40532 0
M  V30 4388 N 433.083 -1.0153 1.20538 0
M  V30 4389 C 434.331 -1.74803 1.01432 0
M  V30 4390 C 434.652 -1.8963 -0.454456 0
M  V30 4391 O 433.922 -1.43975 -1.32846 0
M  V30 4392 H 432.502 -0.647598 0.372324 0
M  V30 4393 H 435.164 -1.22402 1.5167 0
M  V30 4394 H 434.26 -2.75114 1.47373 0
M  V30 4395 N 434.561 -1.01147 -1.20859 0
M  V30 4396 C 435.524 -0.582224 -2.21682 0
M  V30 4397 C 436.524 0.344887 -1.57058 0
M  V30 4398 O 437.714 0.134281 -1.73682 0
M  V30 4399 C 434.846 0.150496 -3.40568 0
M  V30 4400 H 436.039 -1.47408 -2.61172 0
M  V30 4401 H 433.592 -0.800695 -1.34233 0
M  V30 4402 H 434.327 1.0575 -3.06574 0
M  V30 4403 H 434.112 -0.515444 -3.88697 0
M  V30 4404 H 435.602 0.438344 -4.15293 0
M  V30 4405 N 436.039 1.36541 -0.78704 0
M  V30 4406 C 436.987 2.31965 -0.171724 0
M  V30 4407 C 437.981 1.55689 0.667631 0
M  V30 4408 O 439.187 1.70969 0.562981 0
M  V30 4409 H 435.562 0.751101 -0.0367545 0
M  V30 4410 H 437.533 2.81428 -0.992017 0
M  V30 4411 C 436.282 3.40968 0.680904 0
M  V30 4412 H 435.605 3.99775 0.0443961 0
M  V30 4413 H 437.045 4.10063 1.07815 0
M  V30 4414 C 435.504 2.82338 1.83813 0
M  V30 4415 O 436.034 2.74311 2.93456 0
M  V30 4416 N 434.24 2.39661 1.6435 0
M  V30 4417 H 433.787 2.46389 0.751668 0
M  V30 4418 H 433.745 2.00779 2.4194 0
M  V30 4419 N 437.518 0.538854 1.48102 0
M  V30 4420 C 438.766 0.00798599 2.02098 0
M  V30 4421 C 439.087 -1.33922 1.41739 0
M  V30 4422 O 438.357 -1.86932 0.585934 0
M  V30 4423 H 436.937 -3.62179e-05 0.747 0
M  V30 4424 H 439.599 0.7047 1.81714 0
M  V30 4425 H 438.695 -0.0937672 3.11959 0
M  V30 4426 N 438.996 -1.55193 0.274407 0
M  V30 4427 C 440.273 -1.91584 -0.394331 0
M  V30 4428 C 440.653 -1.19858 -1.73774 0
M  V30 4429 O 440.001 -0.3252 -2.26174 0
M  V30 4430 C 440.211 -3.4487 -0.535311 0
M  V30 4431 C 441.559 -4.16636 -0.818534 0
M  V30 4432 O 442.583 -3.5076 -0.620146 0
M  V30 4433 O 441.442 -5.33209 -1.19792 0
M  V30 4434 H 438.536 -0.798349 -0.215794 0
M  V30 4435 H 441.082 -1.66646 0.320507 0
M  V30 4436 H 439.854 -3.89145 0.410141 0
M  V30 4437 H 439.477 -3.75759 -1.29964 0
M  V30 4438 N 440.474 -0.00167713 -1.576 0
M  V30 4439 C 441.722 0.681471 -1.90264 0
M  V30 4440 C 442.043 1.7422 -0.875924 0
M  V30 4441 O 441.313 1.95709 0.0864412 0
M  V30 4442 H 439.893 0.254696 -0.702239 0
M  V30 4443 H 442.555 -0.0429996 -1.94853 0
M  V30 4444 H 441.651 1.15166 -2.90075 0
M  V30 4445 N 441.952 1.55251 0.271103 0
M  V30 4446 C 443.177 1.80306 1.02491 0
M  V30 4447 C 443.602 0.575457 1.79081 0
M  V30 4448 O 442.96 -0.474987 1.74967 0
M  V30 4449 C 443.008 3.02832 1.95768 0
M  V30 4450 O 442.112 2.78051 3.04568 0
M  V30 4451 H 441.453 0.595896 0.292923 0
M  V30 4452 H 443.983 2.02397 0.299436 0
M  V30 4453 H 443.993 3.31616 2.37686 0
M  V30 4454 H 442.668 3.9183 1.39434 0
M  V30 4455 H 441.245 2.60369 2.66951 0
M  V30 4456 N 443.43 -0.535701 1.48216 0
M  V30 4457 C 444.363 -1.65726 1.56876 0
M  V30 4458 C 445.341 -1.57094 0.419542 0
M  V30 4459 O 446.525 -1.77648 0.630352 0
M  V30 4460 C 443.652 -3.04096 1.49142 0
M  V30 4461 C 442.698 -3.31105 2.68834 0
M  V30 4462 S 443.531 -3.18001 4.30854 0
M  V30 4463 C 444.687 -4.58828 4.25709 0
M  V30 4464 H 444.92 -1.58129 2.51759 0
M  V30 4465 H 442.453 -0.718218 1.36678 0
M  V30 4466 H 444.411 -3.839 1.45366 0
M  V30 4467 H 443.072 -3.09139 0.556067 0
M  V30 4468 H 442.265 -4.32033 2.59545 0
M  V30 4469 H 441.867 -2.58961 2.69843 0
M  V30 4470 H 444.159 -5.5023 3.95289 0
M  V30 4471 H 445.102 -4.73172 5.26796 0
M  V30 4472 H 445.51 -4.37883 3.56257 0
M  V30 4473 N 444.908 -1.36708 -0.784132 0
M  V30 4474 C 446.133 -1.34565 -1.5782 0
M  V30 4475 C 446.558 0.0695257 -1.87971 0
M  V30 4476 O 445.916 1.04302 -1.48293 0
M  V30 4477 C 445.964 -2.17952 -2.87279 0
M  V30 4478 O 445.068 -1.57563 -3.81114 0
M  V30 4479 H 444.409 -0.460337 -0.478524 0
M  V30 4480 H 446.939 -1.80064 -0.971495 0
M  V30 4481 H 446.949 -2.30721 -3.365 0
M  V30 4482 H 445.624 -3.20823 -2.64661 0
M  V30 4483 H 444.201 -1.53764 -3.39722 0
M  V30 4484 N 446.386 1.0089 -1.21074 0
M  V30 4485 C 447.318 2.09737 -0.924291 0
M  V30 4486 C 448.331 1.62546 0.0909809 0
M  V30 4487 O 449.52 1.77942 -0.141021 0
M  V30 4488 C 446.62 3.36922 -0.36559 0
M  V30 4489 C 445.793 4.13216 -1.43426 0
M  V30 4490 C 444.852 5.18696 -0.885496 0
M  V30 4491 O 443.878 5.47176 -1.56801 0
M  V30 4492 N 445.08 5.79718 0.301227 0
M  V30 4493 H 447.845 2.34895 -1.8613 0
M  V30 4494 H 445.406 1.17341 -1.11546 0
M  V30 4495 H 447.398 4.04697 0.0158407 0
M  V30 4496 H 445.968 3.08952 0.476149 0
M  V30 4497 H 445.188 3.40301 -1.9897 0
M  V30 4498 H 446.476 4.60967 -2.15376 0
M  V30 4499 H 445.874 5.58926 0.872849 0
M  V30 4500 H 444.431 6.48804 0.624211 0
M  V30 4501 N 447.864 1.01787 1.20321 0
M  V30 4502 C 449.092 0.727194 1.937 0
M  V30 4503 C 449.507 -0.712305 1.74848 0
M  V30 4504 O 448.864 -1.48327 1.06327 0
M  V30 4505 C 448.915 1.05497 3.45764 0
M  V30 4506 O 448.636 2.43794 3.64 0
M  V30 4507 C 450.137 0.785534 4.36285 0
M  V30 4508 H 447.357 0.266939 0.615617 0
M  V30 4509 H 449.901 1.35939 1.52777 0
M  V30 4510 H 448.056 0.468158 3.84561 0
M  V30 4511 H 448.47 2.55656 4.57974 0
M  V30 4512 H 449.944 1.06495 5.4163 0
M  V30 4513 H 450.421 -0.280273 4.38305 0
M  V30 4514 H 451.027 1.35456 4.03152 0
M  V30 4515 N 449.342 -1.36122 0.79427 0
M  V30 4516 C 450.274 -2.28683 0.153903 0
M  V30 4517 C 451.287 -1.49707 -0.639669 0
M  V30 4518 O 452.476 -1.7209 -0.474054 0
M  V30 4519 C 449.576 -3.29202 -0.804921 0
M  V30 4520 C 448.749 -4.37358 -0.060366 0
M  V30 4521 C 447.808 -5.17811 -0.935849 0
M  V30 4522 O 446.834 -5.67853 -0.391309 0
M  V30 4523 N 448.036 -5.34721 -2.25951 0
M  V30 4524 H 450.801 -2.84278 0.949008 0
M  V30 4525 H 448.362 -1.4834 0.648611 0
M  V30 4526 H 450.354 -3.79914 -1.39455 0
M  V30 4527 H 448.924 -2.74212 -1.50088 0
M  V30 4528 H 448.144 -3.87746 0.710382 0
M  V30 4529 H 449.432 -5.06777 0.45324 0
M  V30 4530 H 448.83 -4.95687 -2.72601 0
M  V30 4531 H 447.387 -5.88657 -2.79867 0
M  V30 4532 N 450.82 -0.546701 -1.47814 0
M  V30 4533 C 452.045 -0.021268 -2.07389 0
M  V30 4534 C 452.47 1.25822 -1.39822 0
M  V30 4535 O 451.828 1.75111 -0.46968 0
M  V30 4536 C 451.876 0.168502 -3.60206 0
M  V30 4537 O 450.98 1.23347 -3.93522 0
M  V30 4538 H 450.321 -0.0466108 -0.662362 0
M  V30 4539 H 452.851 -0.759387 -1.89985 0
M  V30 4540 H 452.861 0.385982 -4.0617 0
M  V30 4541 H 451.536 -0.766075 -4.08784 0
M  V30 4542 H 450.113 0.997319 -3.59316 0
M  V30 4543 N 452.299 1.55045 -0.282633 0
M  V30 4544 C 453.547 1.99365 0.331334 0
M  V30 4545 C 453.868 1.1725 1.55812 0
M  V30 4546 O 453.138 0.263871 1.94115 0
M  V30 4547 H 451.718 0.736397 0.125414 0
M  V30 4548 H 454.38 1.90964 -0.389711 0
M  V30 4549 H 453.476 3.0596 0.616036 0
M  V30 4550 N 453.777 0.010035 1.57597 0
M  V30 4551 C 455.002 -0.687021 1.95691 0
M  V30 4552 C 455.427 -1.65952 0.885519 0
M  V30 4553 O 454.785 -1.80633 -0.15543 0
M  V30 4554 C 454.833 -1.3864 3.32884 0
M  V30 4555 O 453.937 -2.50115 3.27897 0
M  V30 4556 H 453.278 -0.181989 0.638573 0
M  V30 4557 H 455.808 0.0662122 2.04493 0
M  V30 4558 H 455.818 -1.74754 3.6868 0
M  V30 4559 H 454.493 -0.673411 4.10412 0
M  V30 4560 H 453.07 -2.16253 3.03791 0
M  V30 4561 N 455.255 -1.55392 -0.262866 0
M  V30 4562 C 456.483 -1.80513 -1.01108 0
M  V30 4563 C 456.898 -0.583533 -1.79556 0
M  V30 4564 O 456.255 0.447585 -1.76926 0
M  V30 4565 C 456.306 -3.03648 -1.96164 0
M  V30 4566 O 456.027 -4.2109 -1.20893 0
M  V30 4567 C 457.528 -3.41448 -2.82715 0
M  V30 4568 H 454.748 -0.601079 -0.298236 0
M  V30 4569 H 457.292 -2.02425 -0.290582 0
M  V30 4570 H 455.447 -2.83832 -2.63663 0
M  V30 4571 H 455.861 -4.90771 -1.85051 0
M  V30 4572 H 457.335 -4.30751 -3.45192 0
M  V30 4573 H 457.812 -2.61308 -3.53008 0
M  V30 4574 H 458.418 -3.63559 -2.20693 0
M  V30 4575 N 456.733 0.527833 -1.48498 0
M  V30 4576 C 457.979 1.28545 -1.56857 0
M  V30 4577 C 458.312 1.92678 -0.242651 0
M  V30 4578 O 457.587 1.79394 0.751545 0
M  V30 4579 C 457.87 2.37314 -2.70839 0
M  V30 4580 C 457.723 1.77858 -4.13142 0
M  V30 4581 C 459.042 3.39068 -2.80573 0
M  V30 4582 H 456.161 0.466006 -0.570971 0
M  V30 4583 H 458.803 0.587784 -1.8068 0
M  V30 4584 H 456.953 2.96821 -2.50658 0
M  V30 4585 H 458.625 1.22385 -4.44769 0
M  V30 4586 H 456.868 1.08383 -4.20042 0
M  V30 4587 H 457.539 2.56624 -4.88721 0
M  V30 4588 H 460.015 2.89518 -2.98862 0
M  V30 4589 H 458.891 4.12566 -3.6205 0
M  V30 4590 H 459.152 3.9975 -1.88818 0
M  V30 4591 N 458.211 1.37122 0.776871 0
M  V30 4592 C 459.158 1.3247 1.88998 0
M  V30 4593 C 460.128 0.191143 1.64997 0
M  V30 4594 O 461.313 0.379683 1.86984 0
M  V30 4595 C 458.453 1.13241 3.25992 0
M  V30 4596 C 457.566 2.35782 3.61982 0
M  V30 4597 C 456.701 2.09465 4.88158 0
M  V30 4598 C 455.74 3.279 5.16864 0
M  V30 4599 N 454.877 3.01167 6.34226 0
M  V30 4600 H 459.717 2.27642 1.9231 0
M  V30 4601 H 457.254 1.13125 0.94027 0
M  V30 4602 H 459.212 1.00115 4.0501 0
M  V30 4603 H 457.842 0.217186 3.22069 0
M  V30 4604 H 456.894 2.59666 2.77989 0
M  V30 4605 H 458.206 3.24125 3.79137 0
M  V30 4606 H 457.36 1.93341 5.75069 0
M  V30 4607 H 456.099 1.18452 4.73097 0
M  V30 4608 H 455.104 3.44569 4.2843 0
M  V30 4609 H 456.329 4.19757 5.33836 0
M  V30 4610 H 454.275 2.12779 6.20533 0
M  V30 4611 H 454.192 3.83052 6.51772 0
M  V30 4612 H 455.46 2.88649 7.24087 0
M  V30 4613 N 459.689 -1.00246 1.21608 0
M  V30 4614 C 460.652 -2.07233 0.979133 0
M  V30 4615 C 461.652 -1.6072 -0.0508219 0
M  V30 4616 O 462.842 -1.73196 0.186712 0
M  V30 4617 C 459.974 -3.37546 0.477016 0
M  V30 4618 H 461.167 -2.29687 1.92831 0
M  V30 4619 H 458.72 -1.17261 1.03342 0
M  V30 4620 H 459.455 -3.20773 -0.476966 0
M  V30 4621 H 459.24 -3.72638 1.21997 0
M  V30 4622 H 460.73 -4.16285 0.331181 0
M  V30 4623 N 461.167 -1.02423 -1.1978 0
M  V30 4624 C 462.395 -0.737456 -1.93311 0
M  V30 4625 C 462.81 0.703023 -1.75223 0
M  V30 4626 O 462.167 1.47761 -1.07112 0
M  V30 4627 C 462.218 -1.0733 -3.45199 0
M  V30 4628 O 461.939 -2.4572 -3.62702 0
M  V30 4629 C 463.44 -0.80866 -4.35862 0
M  V30 4630 H 460.66 -0.2702 -0.614193 0
M  V30 4631 H 463.204 -1.36747 -1.52054 0
M  V30 4632 H 461.359 -0.488545 -3.84307 0
M  V30 4633 H 461.773 -2.58081 -4.56612 0
M  V30 4634 H 463.247 -1.09365 -5.41057 0
M  V30 4635 H 463.724 0.257025 -4.38447 0
M  V30 4636 H 464.33 -1.37592 -4.02428 0
M  V30 4637 N 462.645 1.35699 -0.801477 0
M  V30 4638 C 463.875 2.02862 -0.3912 0
M  V30 4639 C 464.283 1.60552 1.00099 0
M  V30 4640 O 463.626 0.796215 1.65548 0
M  V30 4641 C 463.688 3.57386 -0.389299 0
M  V30 4642 C 463.352 4.22943 -1.73113 0
M  V30 4643 C 464.349 4.44984 -2.68859 0
M  V30 4644 C 462.034 4.60167 -2.01373 0
M  V30 4645 C 464.028 5.03345 -3.91053 0
M  V30 4646 C 461.715 5.18243 -3.23832 0
M  V30 4647 C 462.713 5.39773 -4.1849 0
M  V30 4648 O 462.401 5.96626 -5.38788 0
M  V30 4649 H 462.133 0.657341 -0.157732 0
M  V30 4650 H 464.687 1.74407 -1.08496 0
M  V30 4651 H 462.917 3.85011 0.361031 0
M  V30 4652 H 464.606 4.059 -0.0020365 0
M  V30 4653 H 465.372 4.1661 -2.48316 0
M  V30 4654 H 461.251 4.42726 -1.28508 0
M  V30 4655 H 464.795 5.20065 -4.64949 0
M  V30 4656 H 460.692 5.46044 -3.44248 0
M  V30 4657 H 461.46 6.15082 -5.40015 0
M  V30 4658 N 464.123 0.554532 1.47522 0
M  V30 4659 C 465.086 -0.184174 2.28459 0
M  V30 4660 C 466.086 -0.845195 1.36796 0
M  V30 4661 O 467.276 -0.701467 1.59452 0
M  V30 4662 C 464.408 -1.26903 3.16399 0
M  V30 4663 H 465.601 0.526751 2.95238 0
M  V30 4664 H 463.154 0.311375 1.53167 0
M  V30 4665 H 463.889 -2.01244 2.54306 0
M  V30 4666 H 463.674 -0.799883 3.83854 0
M  V30 4667 H 465.164 -1.78794 3.77389 0
M  V30 4668 N 465.601 -1.54893 0.290851 0
M  V30 4669 C 466.829 -2.04343 -0.324288 0
M  V30 4670 C 467.244 -1.16859 -1.48289 0
M  V30 4671 O 466.601 -0.192018 -1.81487 0
M  V30 4672 C 466.652 -3.52756 -0.79026 0
M  V30 4673 O 466.373 -4.36913 0.322213 0
M  V30 4674 C 467.874 -4.18161 -1.4716 0
M  V30 4675 H 465.094 -0.667135 -0.0719173 0
M  V30 4676 H 467.638 -1.99981 0.427529 0
M  V30 4677 H 465.793 -3.57511 -1.49213 0
M  V30 4678 H 466.207 -5.24486 -0.0387372 0
M  V30 4679 H 467.681 -5.23562 -1.7489 0
M  V30 4680 H 468.158 -3.67282 -2.40834 0
M  V30 4681 H 468.764 -4.17454 -0.813178 0
M  V30 4682 N 467.08 -0.0183926 -1.57589 0
M  V30 4683 C 468.305 0.676634 -1.96052 0
M  V30 4684 C 468.73 1.6548 -0.894307 0
M  V30 4685 O 468.088 1.80712 0.145849 0
M  V30 4686 C 468.136 1.36872 -3.33614 0
M  V30 4687 O 467.24 2.48372 -3.29219 0
M  V30 4688 H 466.581 0.1786 -0.63953 0
M  V30 4689 H 469.111 -0.077056 -2.04455 0
M  V30 4690 H 469.121 1.72797 -3.69601 0
M  V30 4691 H 467.796 0.651636 -4.10763 0
M  V30 4692 H 466.373 2.14639 -3.04934 0
M  V30 4693 N 468.558 1.5553 0.254621 0
M  V30 4694 C 469.835 1.6774 1.00611 0
M  V30 4695 C 470.215 0.555993 2.03647 0
M  V30 4696 O 469.563 -0.441583 2.24193 0
M  V30 4697 C 469.773 3.07725 1.6464 0
M  V30 4698 C 471.121 3.66074 2.15116 0
M  V30 4699 O 472.145 3.10476 1.74595 0
M  V30 4700 O 471.004 4.63526 2.89493 0
M  V30 4701 H 468.098 0.681958 0.467828 0
M  V30 4702 H 470.644 1.67863 0.24902 0
M  V30 4703 H 469.416 3.80792 0.900734 0
M  V30 4704 H 469.039 3.1158 2.46989 0
M  V30 4705 N 470.036 -0.519951 1.48776 0
M  V30 4706 C 471.283 -1.27522 1.57303 0
M  V30 4707 C 471.611 -1.92869 0.251328 0
M  V30 4708 O 470.866 -1.80372 -0.759243 0
M  V30 4709 C 471.165 -2.37864 2.6675 0
M  V30 4710 C 470.831 -1.90103 4.08867 0
M  V30 4711 C 469.493 -1.76795 4.47546 0
M  V30 4712 C 471.845 -1.54133 4.97888 0
M  V30 4713 C 469.173 -1.25868 5.73039 0
M  V30 4714 C 471.525 -1.04665 6.23881 0
M  V30 4715 C 470.189 -0.899823 6.61407 0
M  V30 4716 H 469.459 -0.466636 0.575614 0
M  V30 4717 H 472.106 -0.579109 1.82534 0
M  V30 4718 H 470.411 -3.13186 2.35418 0
M  V30 4719 H 472.108 -2.95969 2.70561 0
M  V30 4720 H 468.698 -2.01414 3.78326 0
M  V30 4721 H 472.882 -1.6327 4.68675 0
M  V30 4722 H 468.138 -1.13196 6.0083 0
M  V30 4723 H 472.312 -0.759074 6.92251 0
M  V30 4724 H 469.939 -0.503011 7.58534 0
M  V30 4725 N 471.514 -1.37532 -0.769588 0
M  V30 4726 C 472.742 -1.36059 -1.55871 0
M  V30 4727 C 473.157 0.053544 -1.88724 0
M  V30 4728 O 472.514 1.01591 -1.5161 0
M  V30 4729 C 472.565 -2.20107 -2.86767 0
M  V30 4730 O 472.286 -3.56009 -2.55321 0
M  V30 4731 C 473.787 -2.26636 -3.80987 0
M  V30 4732 H 471.007 -0.465967 -0.482821 0
M  V30 4733 H 473.551 -1.80901 -0.953686 0
M  V30 4734 H 471.706 -1.78768 -3.43687 0
M  V30 4735 H 472.12 -4.0009 -3.39158 0
M  V30 4736 H 473.594 -2.89763 -4.69831 0
M  V30 4737 H 474.071 -1.2754 -4.20274 0
M  V30 4738 H 474.677 -2.68296 -3.29996 0
M  V30 4739 N 472.992 0.995999 -1.22138 0
M  V30 4740 C 473.922 2.10387 -1.01289 0
M  V30 4741 C 474.903 1.69975 0.0651454 0
M  V30 4742 O 476.088 1.9396 -0.0964628 0
M  V30 4743 C 473.218 3.42312 -0.586517 0
M  V30 4744 C 472.172 3.96558 -1.61014 0
M  V30 4745 C 471.498 5.24494 -1.0397 0
M  V30 4746 C 472.798 4.27595 -2.99933 0
M  V30 4747 H 474.492 2.28086 -1.93951 0
M  V30 4748 H 472.038 1.09607 -0.933928 0
M  V30 4749 H 473.991 4.19223 -0.427793 0
M  V30 4750 H 472.715 3.24431 0.375761 0
M  V30 4751 H 471.374 3.21776 -1.75658 0
M  V30 4752 H 471.022 5.02953 -0.0688703 0
M  V30 4753 H 470.722 5.61755 -1.72352 0
M  V30 4754 H 472.246 6.04042 -0.892494 0
M  V30 4755 H 473.66 4.95315 -2.8868 0
M  V30 4756 H 472.057 4.76021 -3.6541 0
M  V30 4757 H 473.127 3.35498 -3.50099 0
M  V30 4758 N 474.47 1.03057 1.19235 0
M  V30 4759 C 475.4 0.633497 2.24742 0
M  V30 4760 C 476.381 -0.358335 1.66283 0
M  V30 4761 O 477.566 -0.240676 1.92703 0
M  V30 4762 C 474.696 -0.0147648 3.47297 0
M  V30 4763 C 473.65 0.899527 4.18441 0
M  V30 4764 C 472.976 0.116281 5.34574 0
M  V30 4765 C 474.276 2.21404 4.73051 0
M  V30 4766 H 475.97 1.5155 2.58211 0
M  V30 4767 H 473.516 0.73014 1.24117 0
M  V30 4768 H 475.469 -0.304202 4.20301 0
M  V30 4769 H 474.193 -0.931577 3.13032 0
M  V30 4770 H 472.852 1.17319 3.47321 0
M  V30 4771 H 472.5 -0.802619 4.96555 0
M  V30 4772 H 472.2 0.725293 5.83107 0
M  V30 4773 H 473.724 -0.166376 6.10373 0
M  V30 4774 H 475.138 1.98601 5.37802 0
M  V30 4775 H 473.535 2.77512 5.32078 0
M  V30 4776 H 474.605 2.86752 3.91026 0
M  V30 4777 N 475.948 -1.35272 0.808662 0
M  V30 4778 C 476.858 -2.33546 0.222079 0
M  V30 4779 C 477.874 -1.6196 -0.636011 0
M  V30 4780 O 479.05 -1.93822 -0.547274 0
M  V30 4781 C 476.115 -3.41148 -0.61795 0
M  V30 4782 C 475.176 -4.28507 0.260875 0
M  V30 4783 C 474.409 -5.3097 -0.539156 0
M  V30 4784 O 474.632 -5.42123 -1.77367 0
M  V30 4785 O 473.566 -6.01858 0.0710526 0
M  V30 4786 H 477.392 -2.85515 1.03512 0
M  V30 4787 H 474.977 -1.38079 0.570495 0
M  V30 4788 H 476.859 -4.06889 -1.09634 0
M  V30 4789 H 475.534 -2.91447 -1.40855 0
M  V30 4790 H 474.441 -3.6574 0.786451 0
M  V30 4791 H 475.774 -4.81611 1.01547 0
M  V30 4792 N 477.426 -0.562348 -1.47226 0
M  V30 4793 C 478.356 0.170627 -2.32876 0
M  V30 4794 C 479.337 0.903748 -1.44106 0
M  V30 4795 O 480.522 0.883206 -1.72954 0
M  V30 4796 C 477.652 1.19786 -3.25989 0
M  V30 4797 C 476.606 0.580875 -4.2404 0
M  V30 4798 C 475.932 1.71311 -5.06514 0
M  V30 4799 C 477.232 -0.468714 -5.20193 0
M  V30 4800 H 478.926 -0.544441 -2.94408 0
M  V30 4801 H 476.472 -0.263271 -1.41573 0
M  V30 4802 H 478.425 1.71884 -3.84752 0
M  V30 4803 H 477.149 1.94294 -2.62521 0
M  V30 4804 H 475.808 0.0811538 -3.6651 0
M  V30 4805 H 475.456 2.44736 -4.39447 0
M  V30 4806 H 475.156 1.30604 -5.72902 0
M  V30 4807 H 476.68 2.23725 -5.68137 0
M  V30 4808 H 478.094 -0.0336028 -5.7329 0
M  V30 4809 H 476.491 -0.794957 -5.94811 0
M  V30 4810 H 477.561 -1.36269 -4.65359 0
M  V30 4811 N 478.904 1.54736 -0.299062 0
M  V30 4812 C 479.852 2.24897 0.593658 0
M  V30 4813 C 480.846 1.25429 1.13859 0
M  V30 4814 O 482.052 1.43286 1.08945 0
M  V30 4815 H 478.427 0.72207 0.210046 0
M  V30 4816 H 480.398 2.98393 -0.0206421 0
M  V30 4817 C 479.147 3.00159 1.75499 0
M  V30 4818 H 478.47 3.76501 1.34489 0
M  V30 4819 H 479.91 3.52535 2.35574 0
M  V30 4820 C 478.369 2.07015 2.65794 0
M  V30 4821 O 478.899 1.63692 3.66835 0
M  V30 4822 N 477.105 1.73012 2.33485 0
M  V30 4823 H 476.652 2.08439 1.51364 0
M  V30 4824 H 476.61 1.10965 2.94167 0
M  V30 4825 N 480.382 0.0267497 1.57577 0
M  V30 4826 C 481.33 -0.973923 2.11229 0
M  V30 4827 C 482.324 -1.33849 1.03831 0
M  V30 4828 O 483.53 -1.321 1.22269 0
M  V30 4829 H 479.905 -0.331844 0.674821 0
M  V30 4830 H 481.876 -0.496092 2.94247 0
M  V30 4831 C 480.625 -2.24798 2.65257 0
M  V30 4832 H 479.948 -1.9762 3.47543 0
M  V30 4833 H 481.388 -2.93031 3.06445 0
M  V30 4834 C 479.847 -2.97611 1.57891 0
M  V30 4835 O 480.377 -3.89629 0.97735 0
M  V30 4836 N 478.583 -2.59905 1.29992 0
M  V30 4837 H 478.13 -1.85154 1.79097 0
M  V30 4838 H 478.088 -3.08932 0.583798 0
M  V30 4839 N 481.861 -1.55662 -0.24637 0
M  V30 4840 C 482.824 -1.89558 -1.28842 0
M  V30 4841 C 483.824 -0.772082 -1.41052 0
M  V30 4842 O 485.014 -1.04007 -1.39743 0
M  V30 4843 C 482.146 -2.12449 -2.66605 0
M  V30 4844 H 483.339 -2.82735 -1.00004 0
M  V30 4845 H 480.892 -1.48562 -0.485684 0
M  V30 4846 H 481.627 -1.21742 -3.00582 0
M  V30 4847 H 481.412 -2.94273 -2.59125 0
M  V30 4848 H 482.902 -2.39854 -3.41847 0
M  V30 4849 N 483.339 0.512053 -1.4905 0
M  V30 4850 C 484.302 1.59704 -1.64399 0
M  V30 4851 C 485.302 1.52285 -0.516317 0
M  V30 4852 O 486.492 1.55635 -0.782527 0
M  V30 4853 C 483.624 2.9935 -1.63102 0
M  V30 4854 H 484.817 1.47428 -2.61161 0
M  V30 4855 H 482.37 0.735469 -1.37915 0
M  V30 4856 H 483.105 3.17116 -0.678836 0
M  V30 4857 H 482.89 3.06144 -2.44986 0
M  V30 4858 H 484.38 3.782 -1.77072 0
M  V30 4859 N 484.817 1.37938 0.762283 0
M  V30 4860 C 485.765 1.34569 1.89721 0
M  V30 4861 C 486.759 0.232929 1.67791 0
M  V30 4862 O 487.965 0.401485 1.75465 0
M  V30 4863 H 484.34 0.419594 0.624055 0
M  V30 4864 H 486.311 2.30357 1.8968 0
M  V30 4865 C 485.06 1.17898 3.27101 0
M  V30 4866 H 484.383 2.02781 3.44558 0
M  V30 4867 H 485.823 1.19593 4.06784 0
M  V30 4868 C 484.282 -0.114728 3.36705 0
M  V30 4869 O 484.812 -1.0949 3.8649 0
M  V30 4870 N 483.018 -0.16863 2.9011 0
M  V30 4871 H 482.565 0.62967 2.49786 0
M  V30 4872 H 482.523 -1.03383 2.96916 0
M  V30 4873 N 486.295 -0.989507 1.22664 0
M  V30 4874 C 487.706 -1.54406 1.04955 0
M  V30 4875 C 488.057 -1.92366 -0.385951 0
M  V30 4876 O 487.182 -1.75111 -1.27142 0
M  V30 4877 C 487.777 -2.80578 1.89899 0
M  V30 4878 C 486.336 -3.32464 1.76478 0
M  V30 4879 C 485.483 -2.05524 1.86159 0
M  V30 4880 H 488.434 -0.810211 1.3646 0
M  V30 4881 H 488.455 -3.53075 1.4184 0
M  V30 4882 H 487.967 -2.52918 2.94371 0
M  V30 4883 H 486.068 -3.65024 0.747528 0
M  V30 4884 H 486.181 -4.02838 2.59342 0
M  V30 4885 H 484.545 -2.19241 1.29636 0
M  V30 4886 H 485.328 -1.80258 2.92168 0
M  V30 4887 N 487.773 -1.03688 -1.18687 0
M  V30 4888 C 488.736 -0.629115 -2.20397 0
M  V30 4889 C 489.736 0.311495 -1.57754 0
M  V30 4890 O 490.926 0.0974107 -1.73927 0
M  V30 4891 C 488.058 0.0782231 -3.4081 0
M  V30 4892 H 489.251 -1.52915 -2.57987 0
M  V30 4893 H 486.804 -0.828988 -1.32505 0
M  V30 4894 H 487.539 0.992233 -3.08748 0
M  V30 4895 H 487.324 -0.597776 -3.87517 0
M  V30 4896 H 488.814 0.350156 -4.16129 0
M  V30 4897 N 489.251 1.34841 -0.815825 0
M  V30 4898 C 490.498 1.98499 -0.400535 0
M  V30 4899 C 490.826 1.64699 1.03463 0
M  V30 4900 O 490.081 0.907006 1.73412 0
M  V30 4901 C 490.38 3.53273 -0.541541 0
M  V30 4902 C 490.046 4.06966 -1.94138 0
M  V30 4903 C 488.708 4.21341 -2.32433 0
M  V30 4904 C 491.06 4.35933 -2.85677 0
M  V30 4905 C 488.388 4.62007 -3.61617 0
M  V30 4906 C 490.74 4.78042 -4.14317 0
M  V30 4907 C 489.404 4.90622 -4.52599 0
M  V30 4908 H 488.674 0.72636 -0.146566 0
M  V30 4909 H 491.321 1.60902 -1.0384 0
M  V30 4910 H 489.626 3.91387 0.179741 0
M  V30 4911 H 491.323 4.00497 -0.20085 0
M  V30 4912 H 487.913 3.96235 -1.63388 0
M  V30 4913 H 492.097 4.24372 -2.57337 0
M  V30 4914 H 487.353 4.69937 -3.91113 0
M  V30 4915 H 491.527 4.99415 -4.85342 0
M  V30 4916 H 489.154 5.2189 -5.52752 0
M  V30 4917 N 490.729 0.570148 1.46925 0
M  V30 4918 C 491.677 -0.183181 2.31878 0
M  V30 4919 C 492.671 -0.896721 1.43719 0
M  V30 4920 O 493.877 -0.816536 1.60414 0
M  V30 4921 H 490.252 -0.077944 0.74795 0
M  V30 4922 H 492.223 0.552312 2.93244 0
M  V30 4923 C 490.972 -1.19172 3.2664 0
M  V30 4924 H 490.295 -0.652088 3.94446 0
M  V30 4925 H 491.735 -1.68946 3.88887 0
M  V30 4926 C 490.194 -2.24627 2.51086 0
M  V30 4927 O 490.724 -3.31773 2.26472 0
M  V30 4928 N 488.93 -1.98898 2.11867 0
M  V30 4929 H 488.477 -1.11777 2.32086 0
M  V30 4930 H 488.435 -2.6967 1.61634 0
M  V30 4931 N 492.207 -1.54576 0.307264 0
M  V30 4932 C 493.137 -2.26708 -0.55907 0
M  V30 4933 C 494.118 -1.26893 -1.1328 0
M  V30 4934 O 495.303 -1.55677 -1.16097 0
M  V30 4935 C 492.433 -3.01259 -1.72801 0
M  V30 4936 C 491.387 -4.08275 -1.28435 0
M  V30 4937 C 490.713 -4.70575 -2.53895 0
M  V30 4938 C 492.013 -5.2068 -0.411038 0
M  V30 4939 H 493.707 -2.9937 0.042576 0
M  V30 4940 H 491.253 -1.43983 0.0219173 0
M  V30 4941 H 493.206 -3.50444 -2.34023 0
M  V30 4942 H 491.93 -2.26187 -2.356 0
M  V30 4943 H 490.589 -3.59949 -0.695161 0
M  V30 4944 H 490.237 -3.92136 -3.15021 0
M  V30 4945 H 489.937 -5.42854 -2.24908 0
M  V30 4946 H 491.461 -5.22527 -3.15908 0
M  V30 4947 H 492.875 -5.65721 -0.929097 0
M  V30 4948 H 491.272 -5.99716 -0.214664 0
M  V30 4949 H 492.342 -4.81629 0.562287 0
M  V30 4950 N 493.685 -0.035106 -1.57561 0
M  V30 4951 C 494.932 0.642229 -1.92046 0
M  V30 4952 C 495.26 1.7179 -0.91206 0
M  V30 4953 O 494.515 1.95544 0.0781153 0
M  V30 4954 C 494.814 1.29149 -3.3325 0
M  V30 4955 C 494.48 0.345604 -4.49574 0
M  V30 4956 C 493.142 0.0852775 -4.81124 0
M  V30 4957 C 495.494 -0.303569 -5.20315 0
M  V30 4958 C 492.822 -0.831927 -5.80772 0
M  V30 4959 C 495.174 -1.20886 -6.20942 0
M  V30 4960 C 493.838 -1.47802 -6.50931 0
M  V30 4961 H 493.108 0.235008 -0.702746 0
M  V30 4962 H 495.755 -0.0981529 -1.91248 0
M  V30 4963 H 494.06 2.10676 -3.30337 0
M  V30 4964 H 495.757 1.82223 -3.57205 0
M  V30 4965 H 492.347 0.558683 -4.24943 0
M  V30 4966 H 496.531 -0.115515 -4.96166 0
M  V30 4967 H 491.787 -1.0481 -6.02349 0
M  V30 4968 H 495.961 -1.71804 -6.74875 0
M  V30 4969 H 493.588 -2.19039 -7.2796 0
M  V30 4970 N 495.163 1.55791 0.238111 0
M  V30 4971 C 496.409 1.79211 0.962035 0
M  V30 4972 C 496.764 0.605463 1.82625 0
M  V30 4973 O 496.057 -0.40104 1.87356 0
M  V30 4974 C 496.251 3.05869 1.84875 0
M  V30 4975 C 496.08 4.36739 1.07186 0
M  V30 4976 C 494.85 4.99346 0.773424 0
M  V30 4977 C 497.048 5.1237 0.445168 0
M  V30 4978 N 495.03 6.13894 -0.0266037 0
M  V30 4979 C 496.401 6.19613 -0.219023 0
M  V30 4980 C 498.456 4.96622 0.356522 0
M  V30 4981 C 497.159 7.1282 -0.963358 0
M  V30 4982 C 499.185 5.90214 -0.374304 0
M  V30 4983 C 498.547 6.96872 -1.0271 0
M  V30 4984 H 494.646 0.707627 0.332849 0
M  V30 4985 H 497.23 1.93284 0.234368 0
M  V30 4986 H 495.401 2.93108 2.54837 0
M  V30 4987 H 497.133 3.17547 2.5089 0
M  V30 4988 H 493.888 4.60948 1.08738 0
M  V30 4989 H 494.312 6.75727 -0.414968 0
M  V30 4990 H 498.954 4.14232 0.846878 0
M  V30 4991 H 496.672 7.94704 -1.46529 0
M  V30 4992 H 500.258 5.80106 -0.443678 0
M  V30 4993 H 499.138 7.68045 -1.58358 0
M  V30 4994 N 496.642 -0.504142 1.49319 0
M  V30 4995 C 497.605 -1.5883 1.65244 0
M  V30 4996 C 498.605 -1.52009 0.524386 0
M  V30 4997 O 499.795 -1.55218 0.79077 0
M  V30 4998 C 496.927 -2.98481 1.64687 0
M  V30 4999 H 498.12 -1.4604 2.61939 0
M  V30 5000 H 495.673 -0.728144 1.38303 0
M  V30 5001 H 496.408 -3.16751 0.695644 0
M  V30 5002 H 496.193 -3.0484 2.46607 0
M  V30 5003 H 497.683 -3.77256 1.79075 0
M  V30 5004 N 498.12 -1.38341 -0.754957 0
M  V30 5005 C 499.368 -1.34208 -1.51105 0
M  V30 5006 C 499.689 0.0677634 -1.94882 0
M  V30 5007 O 498.959 1.01517 -1.67544 0
M  V30 5008 H 497.539 -0.493819 -0.560493 0
M  V30 5009 H 500.201 -1.73005 -0.897507 0
M  V30 5010 H 499.297 -1.99203 -2.4026 0
M  V30 5011 N 499.598 0.982988 -1.23187 0
M  V30 5012 C 500.844 1.7273 -1.07405 0
M  V30 5013 C 501.199 1.885 0.385447 0
M  V30 5014 O 500.492 1.4243 1.28157 0
M  V30 5015 C 500.686 3.12736 -1.73006 0
M  V30 5016 C 500.515 3.10621 -3.25184 0
M  V30 5017 C 499.285 3.15957 -3.94334 0
M  V30 5018 C 501.483 2.93992 -4.21987 0
M  V30 5019 N 499.465 3.03701 -5.33516 0
M  V30 5020 C 500.836 2.8987 -5.48065 0
M  V30 5021 C 502.891 2.78457 -4.12754 0
M  V30 5022 C 501.594 2.71804 -6.65969 0
M  V30 5023 C 503.62 2.61754 -5.30319 0
M  V30 5024 C 502.982 2.58328 -6.55321 0
M  V30 5025 H 499.081 0.641279 -0.447533 0
M  V30 5026 H 501.665 1.16664 -1.55877 0
M  V30 5027 H 499.836 3.67026 -1.2707 0
M  V30 5028 H 501.568 3.75786 -1.50224 0
M  V30 5029 H 498.323 3.24034 -3.45397 0
M  V30 5030 H 498.747 3.00855 -6.06478 0
M  V30 5031 H 503.389 2.79898 -3.16886 0
M  V30 5032 H 501.107 2.69108 -7.61975 0
M  V30 5033 H 504.693 2.50702 -5.25014 0
M  V30 5034 H 503.573 2.45564 -7.4476 0
M  V30 5035 N 501.076 1.04316 1.18135 0
M  V30 5036 C 502.353 0.662166 1.84051 0
M  V30 5037 C 502.733 -0.858169 1.9287 0
M  V30 5038 O 502.081 -1.76062 1.45652 0
M  V30 5039 C 502.291 1.3409 3.22212 0
M  V30 5040 C 503.639 1.4733 3.9822 0
M  V30 5041 O 504.663 1.29921 3.31661 0
M  V30 5042 O 503.522 1.75722 5.17479 0
M  V30 5043 H 500.616 0.232005 0.79379 0
M  V30 5044 H 503.162 1.1422 1.25506 0
M  V30 5045 H 501.934 2.37853 3.10711 0
M  V30 5046 H 501.557 0.849649 3.88416 0
M  V30 5047 N 502.554 -1.34406 0.822964 0
M  V30 5048 C 503.97 -1.51275 0.508727 0
M  V30 5049 C 504.17 -1.76776 -0.967083 0
M  V30 5050 O 503.226 -1.81871 -1.75155 0
M  V30 5051 C 504.539 -2.67765 1.36829 0
M  V30 5052 C 506.087 -2.81647 1.36542 0
M  V30 5053 C 506.562 -4.01181 2.20947 0
M  V30 5054 N 508.053 -4.08388 2.18571 0
M  V30 5055 C 508.788 -5.00036 2.80627 0
M  V30 5056 N 508.284 -5.96906 3.51674 0
M  V30 5057 N 510.077 -4.92908 2.70181 0
M  V30 5058 H 502.228 -1.16113 1.77852 0
M  V30 5059 H 504.491 -0.56947 0.757897 0
M  V30 5060 H 504.197 -2.55551 2.41633 0
M  V30 5061 H 504.071 -3.62779 1.03303 0
M  V30 5062 H 506.458 -2.93303 0.325163 0
M  V30 5063 H 506.539 -1.87443 1.74066 0
M  V30 5064 H 506.183 -3.90286 3.25022 0
M  V30 5065 H 506.113 -4.94599 1.80774 0
M  V30 5066 H 508.604 -3.39051 1.66891 0
M  V30 5067 H 508.917 -6.63468 3.96271 0
M  V30 5068 H 507.262 -5.9703 3.5578 0
M  V30 5069 H 510.453 -4.1619 2.14251 0
M  V30 5070 H 510.626 -5.64137 3.18831 0
M  V30 5071 N 504.032 -0.577932 -1.46621 0
M  V30 5072 C 505.448 -0.239242 -1.57797 0
M  V30 5073 C 505.648 1.25843 -1.57371 0
M  V30 5074 O 504.704 2.03988 -1.48813 0
M  V30 5075 C 506.017 -0.884227 -2.87405 0
M  V30 5076 C 507.565 -0.857373 -3.01028 0
M  V30 5077 C 508.04 -1.48181 -4.33366 0
M  V30 5078 N 509.531 -1.44593 -4.40053 0
M  V30 5079 C 510.266 -1.89852 -5.41058 0
M  V30 5080 N 509.762 -2.43062 -6.48762 0
M  V30 5081 N 511.555 -1.80797 -5.3223 0
M  V30 5082 H 503.706 -1.55073 -1.45142 0
M  V30 5083 H 505.969 -0.647903 -0.692044 0
M  V30 5084 H 505.675 -1.93759 -2.93514 0
M  V30 5085 H 505.549 -0.389585 -3.75183 0
M  V30 5086 H 507.936 0.187357 -2.94505 0
M  V30 5087 H 508.017 -1.38999 -2.14739 0
M  V30 5088 H 507.661 -2.52572 -4.40647 0
M  V30 5089 H 507.591 -0.924464 -5.18422 0
M  V30 5090 H 510.082 -1.05694 -3.62819 0
M  V30 5091 H 510.395 -2.75466 -7.22038 0
M  V30 5092 H 508.74 -2.47085 -6.49595 0
M  V30 5093 H 511.931 -1.38989 -4.46989 0
M  V30 5094 H 512.104 -2.16385 -6.10804 0
M  V30 5095 N 505.51 1.54411 -0.315457 0
M  V30 5096 C 506.787 1.92562 0.343398 0
M  V30 5097 C 507.167 1.24423 1.70535 0
M  V30 5098 O 506.515 0.385051 2.25232 0
M  V30 5099 C 506.725 3.46168 0.443687 0
M  V30 5100 C 508.073 4.18659 0.707783 0
M  V30 5101 O 509.097 3.52281 0.52693 0
M  V30 5102 O 507.956 5.36198 1.05612 0
M  V30 5103 H 505.05 0.80379 0.194552 0
M  V30 5104 H 507.596 1.65738 -0.364577 0
M  V30 5105 H 506.368 3.8792 -0.513172 0
M  V30 5106 H 505.991 3.79073 1.19956 0
M  V30 5107 N 506.988 0.0434614 1.5754 0
M  V30 5108 C 507.92 -0.962586 2.08007 0
M  V30 5109 C 508.933 -1.27972 1.00634 0
M  V30 5110 O 510.122 -1.24186 1.28219 0
M  V30 5111 C 507.222 -2.28621 2.50171 0
M  V30 5112 C 506.395 -2.15214 3.80791 0
M  V30 5113 C 505.454 -3.30633 4.09351 0
M  V30 5114 O 504.48 -3.0688 4.79388 0
M  V30 5115 N 505.682 -4.54873 3.60654 0
M  V30 5116 H 508.447 -0.531891 2.94942 0
M  V30 5117 H 506.008 -0.142965 1.61268 0
M  V30 5118 H 508 -3.04689 2.66359 0
M  V30 5119 H 506.57 -2.63283 1.68525 0
M  V30 5120 H 505.79 -1.23785 3.74261 0
M  V30 5121 H 507.078 -2.03475 4.66343 0
M  V30 5122 H 506.476 -4.77063 3.04019 0
M  V30 5123 H 505.033 -5.2806 3.82094 0
M  V30 5124 N 508.466 -1.55915 -0.229846 0
M  V30 5125 C 509.414 -1.9258 -1.30444 0
M  V30 5126 C 510.408 -0.806839 -1.48951 0
M  V30 5127 O 511.614 -0.991606 -1.50224 0
M  V30 5128 H 507.989 -0.611878 -0.437161 0
M  V30 5129 H 509.96 -2.82264 -0.96797 0
M  V30 5130 C 508.709 -2.25171 -2.6494 0
M  V30 5131 H 508.032 -3.10782 -2.51504 0
M  V30 5132 H 509.472 -2.54716 -3.38963 0
M  V30 5133 C 507.931 -1.07394 -3.19324 0
M  V30 5134 O 508.461 -0.330759 -4.00336 0
M  V30 5135 N 506.667 -0.859984 -2.77584 0
M  V30 5136 H 506.214 -1.46605 -2.11813 0
M  V30 5137 H 506.172 -0.0736671 -3.14314 0
M  V30 5138 N 509.944 0.496216 -1.49584 0
M  V30 5139 C 511.174 1.27209 -1.62793 0
M  V30 5140 C 511.582 1.86799 -0.300476 0
M  V30 5141 O 510.925 1.68802 0.724674 0
M  V30 5142 C 510.987 2.43812 -2.64189 0
M  V30 5143 C 510.651 2.05055 -4.08414 0
M  V30 5144 C 511.648 1.58752 -4.9507 0
M  V30 5145 C 509.333 2.14543 -4.54177 0
M  V30 5146 C 511.327 1.22448 -6.25528 0
M  V30 5147 C 509.014 1.77851 -5.84647 0
M  V30 5148 C 510.012 1.31878 -6.70147 0
M  V30 5149 O 509.7 0.956834 -7.98185 0
M  V30 5150 H 509.432 0.391848 -0.550846 0
M  V30 5151 H 511.986 0.601712 -1.96389 0
M  V30 5152 H 510.216 3.13941 -2.25783 0
M  V30 5153 H 511.905 3.05829 -2.66877 0
M  V30 5154 H 512.671 1.50863 -4.60939 0
M  V30 5155 H 508.55 2.49277 -3.87791 0
M  V30 5156 H 512.094 0.864933 -6.92217 0
M  V30 5157 H 507.991 1.8539 -6.18305 0
M  V30 5158 H 508.759 1.08789 -8.11238 0
M  V30 5159 N 511.423 1.38739 0.74761 0
M  V30 5160 C 512.834 1.31507 1.32524 0
M  V30 5161 C 513.185 -0.0263963 1.96182 0
M  V30 5162 O 512.31 -0.92849 1.95469 0
M  V30 5163 C 512.905 2.38162 2.40966 0
M  V30 5164 C 511.464 2.34489 2.94434 0
M  V30 5165 C 510.611 2.20712 1.67873 0
M  V30 5166 H 513.562 1.4901 0.546043 0
M  V30 5167 H 513.583 2.04222 3.21051 0
M  V30 5168 H 513.095 3.35783 1.94605 0
M  V30 5169 H 511.196 1.40467 3.45108 0
M  V30 5170 H 511.309 3.28861 3.48407 0
M  V30 5171 H 509.673 1.67667 1.91729 0
M  V30 5172 H 510.456 3.20285 1.23582 0
M  V30 5173 N 512.901 -0.976442 1.23707 0
M  V30 5174 C 514.149 -1.71487 1.06942 0
M  V30 5175 C 514.47 -1.9098 -0.393897 0
M  V30 5176 O 513.74 -1.48128 -1.28198 0
M  V30 5177 H 512.32 -0.635425 0.392739 0
M  V30 5178 H 514.982 -1.17515 1.55487 0
M  V30 5179 H 514.078 -2.70286 1.56051 0
M  V30 5180 N 514.379 -1.04941 -1.1758 0
M  V30 5181 C 515.342 -0.652456 -2.19717 0
M  V30 5182 C 516.342 0.294745 -1.58076 0
M  V30 5183 O 517.532 0.0789579 -1.74021 0
M  V30 5184 C 514.664 0.0420712 -3.40874 0
M  V30 5185 H 515.857 -1.55642 -2.5635 0
M  V30 5186 H 513.41 -0.842995 -1.31618 0
M  V30 5187 H 514.145 0.95943 -3.09783 0
M  V30 5188 H 513.93 -0.638844 -3.86861 0
M  V30 5189 H 515.42 0.306 -4.16477 0
M  V30 5190 N 515.857 1.33968 -0.830081 0
M  V30 5191 C 517.106 1.97323 -0.417928 0
M  V30 5192 C 517.419 1.6652 1.02618 0
M  V30 5193 O 518.625 2.2342 1.54259 0
M  V30 5194 C 517.081 3.53099 -0.696359 0
M  V30 5195 C 516.689 3.92788 -2.15457 0
M  V30 5196 C 518.433 4.23049 -0.350724 0
M  V30 5197 C 516.34 5.41506 -2.37751 0
M  V30 5198 H 515.27 0.738409 -0.152541 0
M  V30 5199 H 517.921 1.52711 -1.01744 0
M  V30 5200 H 516.303 3.95991 -0.0265904 0
M  V30 5201 H 517.477 3.6098 -2.86408 0
M  V30 5202 H 515.792 3.35795 -2.46232 0
M  V30 5203 H 518.389 5.32403 -0.495036 0
M  V30 5204 H 518.732 4.10279 0.705476 0
M  V30 5205 H 519.265 3.85657 -0.975362 0
M  V30 5206 H 516.004 5.5927 -3.41903 0
M  V30 5207 H 515.524 5.74804 -1.7135 0
M  V30 5208 H 517.203 6.0828 -2.20465 0
M  V30 5209 N 517.335 0.585699 1.46312 0
M  V30 5210 C 518.298 -0.135673 2.28798 0
M  V30 5211 C 519.298 -0.815988 1.38558 0
M  V30 5212 O 520.488 -0.667487 1.60904 0
M  V30 5213 C 517.62 -1.20163 3.1902 0
M  V30 5214 H 518.813 0.589257 2.94054 0
M  V30 5215 H 516.366 0.343794 1.52472 0
M  V30 5216 H 517.101 -1.95804 2.58517 0
M  V30 5217 H 516.886 -0.718282 3.85465 0
M  V30 5218 H 518.376 -1.70749 3.81096 0
M  V30 5219 N 518.813 -1.54241 0.323641 0
M  V30 5220 C 520.062 -1.9975 -0.279806 0
M  V30 5221 C 520.375 -1.2156 -1.5324 0
M  V30 5222 O 521.581 -1.57447 -2.21185 0
M  V30 5223 C 520.037 -3.55686 -0.549115 0
M  V30 5224 C 519.645 -4.4271 0.686432 0
M  V30 5225 C 521.389 -4.09663 -1.11251 0
M  V30 5226 C 519.296 -5.90119 0.389022 0
M  V30 5227 H 518.226 -0.746177 -0.10833 0
M  V30 5228 H 520.877 -1.78248 0.435877 0
M  V30 5229 H 519.259 -3.73176 -1.32499 0
M  V30 5230 H 520.433 -4.36996 1.46188 0
M  V30 5231 H 518.748 -3.99623 1.17005 0
M  V30 5232 H 521.345 -5.17386 -1.34965 0
M  V30 5233 H 521.688 -3.61651 -2.06191 0
M  V30 5234 H 522.221 -3.95806 -0.39782 0
M  V30 5235 H 518.96 -6.42326 1.30759 0
M  V30 5236 H 518.48 -5.98785 -0.348722 0
M  V30 5237 H 520.159 -6.47 -0.0011164 0
M  V30 5238 N 520.291 -0.0518155 -1.57515 0
M  V30 5239 C 521.241 0.932017 -2.0808 0
M  V30 5240 C 522.225 1.27141 -0.986098 0
M  V30 5241 O 523.417 1.25373 -1.24943 0
M  V30 5242 C 520.546 2.20665 -2.62986 0
M  V30 5243 C 519.632 1.89462 -3.79427 0
M  V30 5244 N 520.023 1.28621 -4.89173 0
M  V30 5245 C 518.321 2.19327 -3.88345 0
M  V30 5246 C 519.022 1.15062 -5.70207 0
M  V30 5247 N 517.998 1.65372 -5.17835 0
M  V30 5248 H 521.8 0.456964 -2.90326 0
M  V30 5249 H 519.314 0.152619 -1.61681 0
M  V30 5250 H 521.311 2.92044 -2.97516 0
M  V30 5251 H 519.971 2.68776 -1.8218 0
M  V30 5252 H 520.982 0.958341 -5.08956 0
M  V30 5253 H 517.659 2.69955 -3.18482 0
M  V30 5254 H 519.049 0.678243 -6.68468 0
M  V30 5255 N 521.769 1.56035 0.221574 0
M  V30 5256 C 522.719 1.8881 1.27807 0
M  V30 5257 C 523.703 0.751177 1.42289 0
M  V30 5258 O 524.895 1.01359 1.45104 0
M  V30 5259 C 522.024 2.20828 2.6285 0
M  V30 5260 C 521.11 3.40912 2.52269 0
M  V30 5261 N 521.501 4.59531 2.1134 0
M  V30 5262 C 519.799 3.44526 2.83228 0
M  V30 5263 C 520.5 5.41689 2.1201 0
M  V30 5264 N 519.476 4.814 2.52497 0
M  V30 5265 H 523.278 2.78036 0.952529 0
M  V30 5266 H 520.792 1.566 0.430134 0
M  V30 5267 H 522.789 2.42483 3.39127 0
M  V30 5268 H 521.449 1.32914 2.9625 0
M  V30 5269 H 522.46 4.8469 1.82472 0
M  V30 5270 H 519.137 2.66956 3.21 0
M  V30 5271 H 520.527 6.46643 1.82491 0
M  V30 5272 N 523.247 -0.488276 1.49845 0
M  V30 5273 C 524.658 -1.06955 1.53028 0
M  V30 5274 C 525.009 -1.9351 0.323797 0
M  V30 5275 O 524.134 -2.08891 -0.565116 0
M  V30 5276 C 524.729 -1.94643 2.77307 0
M  V30 5277 C 523.288 -2.4791 2.83227 0
M  V30 5278 C 522.435 -1.25833 2.47106 0
M  V30 5279 H 525.386 -0.271626 1.56358 0
M  V30 5280 H 525.407 -2.79496 2.5819 0
M  V30 5281 H 524.919 -1.31621 3.65099 0
M  V30 5282 H 523.02 -3.14535 1.99745 0
M  V30 5283 H 523.133 -2.84193 3.85709 0
M  V30 5284 H 521.497 -1.58764 1.99163 0
M  V30 5285 H 522.28 -0.644993 3.37186 0
M  V30 5286 N 524.725 -1.39134 -0.740242 0
M  V30 5287 C 525.673 -1.3757 -1.87556 0
M  V30 5288 C 526.667 -0.259593 -1.67399 0
M  V30 5289 O 527.873 -0.429349 -1.74804 0
M  V30 5290 H 524.248 -0.42947 -0.6173 0
M  V30 5291 H 526.219 -2.33345 -1.85991 0
M  V30 5292 C 524.968 -1.23087 -3.25184 0
M  V30 5293 H 524.291 -2.08237 -3.41288 0
M  V30 5294 H 525.731 -1.26049 -4.0483 0
M  V30 5295 C 524.19 0.0611471 -3.36845 0
M  V30 5296 O 524.72 1.03328 -3.88183 0
M  V30 5297 N 522.926 0.122454 -2.90342 0
M  V30 5298 H 522.473 -0.669329 -2.48752 0
M  V30 5299 H 522.431 0.986463 -2.98523 0
M  V30 5300 N 526.204 0.969867 -1.24223 0
M  V30 5301 C 527.45 1.7151 -1.08223 0
M  V30 5302 C 527.783 1.90478 0.37838 0
M  V30 5303 O 527.058 1.4647 1.27971 0
M  V30 5304 C 527.341 3.10714 -1.82013 0
M  V30 5305 C 527.194 2.9925 -3.35811 0
M  V30 5306 C 528.513 4.10332 -1.59108 0
M  V30 5307 H 525.632 0.622499 -0.394543 0
M  V30 5308 H 528.274 1.1284 -1.52863 0
M  V30 5309 H 526.424 3.608 -1.44068 0
M  V30 5310 H 528.096 2.56608 -3.83341 0
M  V30 5311 H 526.339 2.35512 -3.64303 0
M  V30 5312 H 527.01 3.97857 -3.82641 0
M  V30 5313 H 529.486 3.69097 -1.92111 0
M  V30 5314 H 528.362 5.05804 -2.13198 0
M  V30 5315 H 528.623 4.38926 -0.528832 0
M  V30 5316 N 527.682 1.05563 1.17022 0
M  V30 5317 C 528.645 0.664098 2.19368 0
M  V30 5318 C 529.645 -0.286358 1.5823 0
M  V30 5319 O 530.835 -0.069728 1.7406 0
M  V30 5320 C 527.967 -0.0239932 3.40892 0
M  V30 5321 H 529.16 1.57 2.55521 0
M  V30 5322 H 526.713 0.849964 1.31169 0
M  V30 5323 H 527.448 -0.942988 3.10287 0
M  V30 5324 H 527.233 0.659351 3.86516 0
M  V30 5325 H 528.723 -0.283909 4.16634 0
M  V30 5326 N 529.16 -1.33526 0.837174 0
M  V30 5327 C 530.07 -2.33023 0.271568 0
M  V30 5328 C 531.086 -1.63272 -0.601514 0
M  V30 5329 O 532.262 -1.94939 -0.506038 0
M  V30 5330 C 529.327 -3.42382 -0.545448 0
M  V30 5331 C 528.388 -4.27857 0.351709 0
M  V30 5332 C 527.621 -5.31994 -0.426409 0
M  V30 5333 O 527.844 -5.45763 -1.65828 0
M  V30 5334 O 526.778 -6.01572 0.1987 0
M  V30 5335 H 530.604 -2.83256 1.09545 0
M  V30 5336 H 528.189 -1.36837 0.599655 0
M  V30 5337 H 530.071 -4.09122 -1.00979 0
M  V30 5338 H 528.746 -2.94369 -1.34641 0
M  V30 5339 H 527.653 -3.6399 0.863853 0
M  V30 5340 H 528.986 -4.79349 1.1174 0
M  V30 5341 N 530.638 -0.59345 -1.46 0
M  V30 5342 C 531.585 0.133618 -2.30413 0
M  V30 5343 C 532.555 0.873736 -1.41262 0
M  V30 5344 O 533.74 0.862279 -1.70204 0
M  V30 5345 C 530.88 1.13434 -3.25924 0
M  V30 5346 C 529.993 0.39656 -4.30176 0
M  V30 5347 C 529.128 1.38575 -5.12806 0
M  V30 5348 C 528.167 0.634984 -6.08797 0
M  V30 5349 N 527.304 1.57276 -6.84258 0
M  V30 5350 H 532.144 -0.592252 -2.92055 0
M  V30 5351 H 529.681 -0.303874 -1.43927 0
M  V30 5352 H 531.639 1.72752 -3.79753 0
M  V30 5353 H 530.269 1.82779 -2.66067 0
M  V30 5354 H 529.321 -0.311861 -3.79119 0
M  V30 5355 H 530.633 -0.189869 -4.98438 0
M  V30 5356 H 529.787 2.05141 -5.70966 0
M  V30 5357 H 528.526 2.00611 -4.44529 0
M  V30 5358 H 527.531 -0.0443925 -5.49782 0
M  V30 5359 H 528.756 0.0198678 -6.79097 0
M  V30 5360 H 526.702 2.18103 -6.18682 0
M  V30 5361 H 526.619 1.03941 -7.48821 0
M  V30 5362 H 527.887 2.22844 -7.46968 0
M  V30 5363 N 532.116 1.54067 -0.331816 0
M  V30 5364 C 533.532 1.59587 0.0205388 0
M  V30 5365 C 533.732 1.34813 1.49759 0
M  V30 5366 O 532.788 1.13661 2.25471 0
M  V30 5367 C 534.101 2.97959 -0.405103 0
M  V30 5368 C 535.649 3.10964 -0.356454 0
M  V30 5369 C 536.124 4.51694 -0.757384 0
M  V30 5370 N 537.615 4.57709 -0.71111 0
M  V30 5371 C 538.35 5.64729 -0.993427 0
M  V30 5372 N 537.846 6.79652 -1.3433 0
M  V30 5373 N 539.639 5.54546 -0.918442 0
M  V30 5374 H 531.79 1.68426 -1.29407 0
M  V30 5375 H 534.053 0.78819 -0.526745 0
M  V30 5376 H 533.759 3.21115 -1.43451 0
M  V30 5377 H 533.633 3.76524 0.225692 0
M  V30 5378 H 536.02 2.87538 0.663763 0
M  V30 5379 H 536.101 2.34484 -1.02229 0
M  V30 5380 H 535.745 4.75853 -1.77555 0
M  V30 5381 H 535.675 5.26555 -0.0691444 0
M  V30 5382 H 538.166 3.75176 -0.452883 0
M  V30 5383 H 538.479 7.57221 -1.54388 0
M  V30 5384 H 536.824 6.81128 -1.38164 0
M  V30 5385 H 540.015 4.63641 -0.644536 0
M  V30 5386 H 540.188 6.37861 -1.14181 0
M  V30 5387 N 533.594 0.0601682 1.57485 0
M  V30 5388 C 534.843 -0.611101 1.9222 0
M  V30 5389 C 535.156 -1.71469 0.941159 0
M  V30 5390 O 536.362 -2.44473 1.18089 0
M  V30 5391 C 534.818 -1.13832 3.41424 0
M  V30 5392 C 534.426 -0.0663596 4.47951 0
M  V30 5393 C 536.17 -1.78432 3.85178 0
M  V30 5394 C 534.077 -0.606965 5.88277 0
M  V30 5395 H 533.007 -0.232033 0.71741 0
M  V30 5396 H 535.658 0.130518 1.83035 0
M  V30 5397 H 534.04 -1.93254 3.45643 0
M  V30 5398 H 535.214 0.707682 4.55333 0
M  V30 5399 H 533.529 0.482715 4.13593 0
M  V30 5400 H 536.126 -2.1989 4.87394 0
M  V30 5401 H 536.469 -2.63966 3.21913 0
M  V30 5402 H 537.002 -1.05651 3.83514 0
M  V30 5403 H 533.741 0.21095 6.5516 0
M  V30 5404 H 533.261 -1.34879 5.84438 0
M  V30 5405 H 534.94 -1.08704 6.37803 0
M  V30 5406 N 535.072 -1.5615 -0.213296 0
M  V30 5407 C 536.297 -1.83986 -0.957282 0
M  V30 5408 C 536.722 -0.641526 -1.76822 0
M  V30 5409 O 536.08 0.409722 -1.7661 0
M  V30 5410 C 536.128 -3.09889 -1.84393 0
M  V30 5411 O 535.232 -2.89163 -2.94038 0
M  V30 5412 H 534.573 -0.606357 -0.270605 0
M  V30 5413 H 537.103 -2.03369 -0.224111 0
M  V30 5414 H 537.113 -3.40209 -2.25215 0
M  V30 5415 H 535.788 -3.96735 -1.24795 0
M  V30 5416 H 534.365 -2.70097 -2.57103 0
M  V30 5417 N 536.55 0.480323 -1.50102 0
M  V30 5418 C 537.498 1.60024 -1.68805 0
M  V30 5419 C 538.492 1.60089 -0.553888 0
M  V30 5420 O 539.698 1.64349 -0.734127 0
M  V30 5421 H 536.073 0.530841 -0.532646 0
M  V30 5422 H 538.044 1.41408 -2.62767 0
M  V30 5423 C 536.793 2.98029 -1.79092 0
M  V30 5424 H 536.116 2.98694 -2.65748 0
M  V30 5425 H 537.556 3.75871 -1.96206 0
M  V30 5426 C 536.015 3.32538 -0.540388 0
M  V30 5427 O 536.545 4.00386 0.324637 0
M  V30 5428 N 534.751 2.87873 -0.397154 0
M  V30 5429 H 534.298 2.32834 -1.1021 0
M  V30 5430 H 534.256 3.11328 0.438425 0
M  V30 5431 N 538.028 1.39524 0.732853 0
M  V30 5432 C 539.253 1.40329 1.52717 0
M  V30 5433 C 539.678 0.000286574 1.881 0
M  V30 5434 O 539.036 -0.987262 1.52062 0
M  V30 5435 C 539.084 2.28464 2.78992 0
M  V30 5436 O 538.188 1.716 3.75003 0
M  V30 5437 H 537.529 0.47778 0.461109 0
M  V30 5438 H 540.059 1.83546 0.903996 0
M  V30 5439 H 540.069 2.43051 3.27705 0
M  V30 5440 H 538.744 3.30425 2.52572 0
M  V30 5441 H 537.321 1.66267 3.33781 0
M  V30 5442 N 539.506 -0.963266 1.24736 0
M  V30 5443 C 540.734 -1.74166 1.11686 0
M  V30 5444 C 541.149 -1.8589 -0.330187 0
M  V30 5445 O 540.506 -1.35042 -1.2276 0
M  V30 5446 C 540.557 -3.15989 1.75595 0
M  V30 5447 O 540.278 -3.04847 3.14642 0
M  V30 5448 C 541.779 -4.10145 1.68213 0
M  V30 5449 H 538.999 -0.546031 0.389989 0
M  V30 5450 H 541.543 -1.20907 1.64929 0
M  V30 5451 H 539.698 -3.66219 1.26343 0
M  V30 5452 H 540.112 -3.9425 3.4593 0
M  V30 5453 H 541.586 -5.07299 2.17604 0
M  V30 5454 H 542.063 -4.3445 0.644208 0
M  V30 5455 H 542.669 -3.65827 2.16912 0
M  V30 5456 N 540.985 -1.06182 -1.16461 0
M  V30 5457 C 542.21 -0.798599 -1.91408 0
M  V30 5458 C 542.635 0.640987 -1.76842 0
M  V30 5459 O 541.993 1.44652 -1.09296 0
M  V30 5460 C 542.041 -1.19665 -3.40165 0
M  V30 5461 O 541.145 -0.334768 -4.11039 0
M  V30 5462 H 540.486 -0.291961 -0.596368 0
M  V30 5463 H 543.016 -1.41732 -1.47557 0
M  V30 5464 H 543.026 -1.16772 -3.90933 0
M  V30 5465 H 541.701 -2.24526 -3.50087 0
M  V30 5466 H 540.278 -0.425168 -3.70468 0
M  V30 5467 N 542.463 1.3308 -0.844243 0
M  V30 5468 C 543.874 1.7992 -0.498566 0
M  V30 5469 C 544.225 1.69808 0.982834 0
M  V30 5470 O 543.35 1.25051 1.7661 0
M  V30 5471 C 543.945 3.26677 -0.898204 0
M  V30 5472 C 542.504 3.71513 -0.604583 0
M  V30 5473 C 541.651 2.54393 -1.10362 0
M  V30 5474 H 544.602 1.20526 -1.03244 0
M  V30 5475 H 544.623 3.79918 -0.21039 0
M  V30 5476 H 544.135 3.34004 -1.97643 0
M  V30 5477 H 542.236 3.69708 0.46335 0
M  V30 5478 H 542.349 4.64755 -1.16358 0
M  V30 5479 H 540.713 2.49246 -0.524273 0
M  V30 5480 H 541.496 2.6448 -2.18873 0
M  V30 5481 N 543.941 0.601185 1.45683 0
M  V30 5482 C 545.169 0.100054 2.06658 0
M  V30 5483 C 545.584 -1.21285 1.44691 0
M  V30 5484 O 544.941 -1.73735 0.558772 0
M  V30 5485 C 544.992 -0.0528579 3.61461 0
M  V30 5486 O 544.713 1.20809 4.21114 0
M  V30 5487 C 546.214 -0.586193 4.39407 0
M  V30 5488 H 543.434 0.065905 0.667756 0
M  V30 5489 H 545.978 0.827101 1.87028 0
M  V30 5490 H 544.133 -0.730203 3.80456 0
M  V30 5491 H 544.547 1.03368 5.14213 0
M  V30 5492 H 546.021 -0.642297 5.4825 0
M  V30 5493 H 546.498 -1.60713 4.0874 0
M  V30 5494 H 547.104 0.0568935 4.25262 0
M  V30 5495 N 545.419 -1.53889 0.339982 0
M  V30 5496 C 546.644 -2.05741 -0.261798 0
M  V30 5497 C 547.069 -1.21354 -1.43718 0
M  V30 5498 O 546.427 -0.22645 -1.7988 0
M  V30 5499 C 546.475 -3.54542 -0.658228 0
M  V30 5500 O 545.579 -3.7302 -1.75869 0
M  V30 5501 H 544.92 -0.662529 -0.0441672 0
M  V30 5502 H 547.45 -1.98568 0.493161 0
M  V30 5503 H 547.46 -3.9711 -0.936368 0
M  V30 5504 H 546.135 -4.15412 0.201358 0
M  V30 5505 H 544.712 -3.42355 -1.47809 0
M  V30 5506 N 546.897 -0.0685191 -1.57451 0
M  V30 5507 C 548.144 0.601348 -1.93365 0
M  V30 5508 C 548.472 1.69816 -0.948294 0
M  V30 5509 O 547.727 1.95666 0.0366199 0
M  V30 5510 C 548.026 1.22051 -3.35914 0
M  V30 5511 C 547.692 0.250165 -4.50205 0
M  V30 5512 C 546.354 -0.0167954 -4.81197 0
M  V30 5513 C 548.706 -0.413867 -5.19554 0
M  V30 5514 C 546.034 -0.95493 -5.78876 0
M  V30 5515 C 548.386 -1.3403 -6.18238 0
M  V30 5516 C 547.05 -1.61576 -6.47649 0
M  V30 5517 H 546.32 0.220049 -0.707573 0
M  V30 5518 H 548.967 -0.138697 -1.90997 0
M  V30 5519 H 547.272 2.03622 -3.34732 0
M  V30 5520 H 548.969 1.74605 -3.6099 0
M  V30 5521 H 545.559 0.468421 -4.26033 0
M  V30 5522 H 549.743 -0.220733 -4.95809 0
M  V30 5523 H 544.999 -1.17563 -5.99991 0
M  V30 5524 H 549.173 -1.86081 -6.71079 0
M  V30 5525 H 546.8 -2.34431 -7.2315 0
M  V30 5526 N 548.375 1.56261 0.205012 0
M  V30 5527 C 549.621 1.80306 0.9283 0
M  V30 5528 C 549.954 0.640932 1.83319 0
M  V30 5529 O 549.229 -0.359032 1.91158 0
M  V30 5530 C 549.512 3.14547 1.75306 0
M  V30 5531 C 549.365 4.41236 0.873562 0
M  V30 5532 C 550.684 3.45382 2.72762 0
M  V30 5533 H 547.803 0.655929 0.336044 0
M  V30 5534 H 550.445 1.88984 0.196211 0
M  V30 5535 H 548.595 3.0728 2.37721 0
M  V30 5536 H 550.267 4.60539 0.264887 0
M  V30 5537 H 548.51 4.33427 0.179773 0
M  V30 5538 H 549.181 5.31639 1.48541 0
M  V30 5539 H 551.657 3.52884 2.20481 0
M  V30 5540 H 550.533 4.40449 3.2756 0
M  V30 5541 H 550.794 2.68377 3.51321 0
M  V30 5542 N 549.853 -0.472356 1.50355 0
M  V30 5543 C 550.816 -1.5529 1.68576 0
M  V30 5544 C 551.816 -1.50863 0.556511 0
M  V30 5545 O 553.006 -1.53505 0.823516 0
M  V30 5546 C 550.138 -2.94921 1.70981 0
M  V30 5547 H 551.331 -1.40451 2.64978 0
M  V30 5548 H 548.884 -0.698645 1.39816 0
M  V30 5549 H 549.619 -3.15204 0.762675 0
M  V30 5550 H 549.404 -2.99541 2.53017 0
M  V30 5551 H 550.894 -3.73372 1.87037 0
M  V30 5552 N 551.331 -1.39911 -0.725443 0
M  V30 5553 C 552.577 -1.38862 -1.48624 0
M  V30 5554 C 552.932 0.0125913 -1.92396 0
M  V30 5555 O 552.225 0.981046 -1.64578 0
M  V30 5556 C 552.419 -2.30368 -2.7325 0
M  V30 5557 C 552.248 -3.79247 -2.41665 0
M  V30 5558 C 551.018 -4.48119 -2.3349 0
M  V30 5559 C 553.216 -4.70988 -2.06579 0
M  V30 5560 N 551.198 -5.82282 -1.94476 0
M  V30 5561 C 552.569 -5.93873 -1.78087 0
M  V30 5562 C 554.624 -4.58917 -1.9313 0
M  V30 5563 C 553.327 -7.06036 -1.37499 0
M  V30 5564 C 555.353 -5.71012 -1.53946 0
M  V30 5565 C 554.715 -6.92976 -1.26345 0
M  V30 5566 H 550.814 -0.563394 -0.54232 0
M  V30 5567 H 553.398 -1.75542 -0.842213 0
M  V30 5568 H 551.569 -1.95831 -3.35417 0
M  V30 5569 H 553.301 -2.20245 -3.39521 0
M  V30 5570 H 550.056 -4.01677 -2.50904 0
M  V30 5571 H 550.48 -6.53307 -1.77535 0
M  V30 5572 H 555.122 -3.65149 -2.13134 0
M  V30 5573 H 552.84 -7.99697 -1.16237 0
M  V30 5574 H 556.426 -5.63664 -1.44132 0
M  V30 5575 H 555.306 -7.78243 -0.964787 0
M  V30 5576 N 552.809 0.956637 -1.25245 0
M  V30 5577 C 554.057 1.69764 -1.09657 0
M  V30 5578 C 554.378 1.91583 0.363464 0
M  V30 5579 O 553.648 1.50149 1.25825 0
M  V30 5580 H 552.228 0.629097 -0.402798 0
M  V30 5581 H 554.89 1.15026 -1.57337 0
M  V30 5582 H 553.986 2.67769 -1.60331 0
M  V30 5583 N 554.287 1.06798 1.15896 0
M  V30 5584 C 555.535 0.786211 1.8618 0
M  V30 5585 C 555.856 -0.689547 1.82401 0
M  V30 5586 O 555.126 -1.49913 1.26107 0
M  V30 5587 H 553.706 0.287843 0.689315 0
M  V30 5588 H 556.368 1.35055 1.40521 0
M  V30 5589 H 555.464 1.1157 2.91477 0
M  V30 5590 N 555.766 -1.3263 0.851289 0
M  V30 5591 C 557.014 -1.96978 0.452128 0
M  V30 5592 C 557.335 -1.67715 -0.99482 0
M  V30 5593 O 556.605 -0.98259 -1.69476 0
M  V30 5594 H 555.185 -0.72873 0.164202 0
M  V30 5595 H 557.847 -1.61774 1.08698 0
M  V30 5596 H 556.943 -3.06387 0.594407 0
M  V30 5597 N 557.244 -0.608902 -1.45362 0
M  V30 5598 C 558.207 0.0992563 -2.28985 0
M  V30 5599 C 559.207 0.793841 -1.39838 0
M  V30 5600 O 560.397 0.641804 -1.61946 0
M  V30 5601 C 557.529 1.15073 -3.20891 0
M  V30 5602 H 558.722 -0.635964 -2.93079 0
M  V30 5603 H 556.275 -0.368007 -1.51906 0
M  V30 5604 H 557.01 1.91667 -2.616 0
M  V30 5605 H 556.795 0.656867 -3.86559 0
M  V30 5606 H 558.285 1.64665 -3.83765 0
M  V30 5607 N 558.722 1.53707 -0.348139 0
M  V30 5608 C 559.97 2.00591 0.246478 0
M  V30 5609 C 560.291 1.23753 1.50699 0
M  V30 5610 O 559.561 0.345964 1.92821 0
M  V30 5611 H 558.141 0.741053 0.0940679 0
M  V30 5612 H 560.803 1.89139 -0.470354 0
M  V30 5613 H 559.899 3.08297 0.485714 0
M  V30 5614 N 560.2 0.0768682 1.57412 0
M  V30 5615 C 561.428 -0.59997 1.9801 0
M  V30 5616 C 561.843 -1.62842 0.955408 0
M  V30 5617 O 561.2 -1.8241 -0.057314 0
M  V30 5618 C 561.251 -1.26401 3.38681 0
M  V30 5619 O 560.972 -0.276723 4.37225 0
M  V30 5620 C 562.473 -2.0282 3.94182 0
M  V30 5621 H 559.693 -0.162239 0.651091 0
M  V30 5622 H 562.237 0.150771 2.03943 0
M  V30 5623 H 560.392 -1.96581 3.33819 0
M  V30 5624 H 560.806 -0.753744 5.19056 0
M  V30 5625 H 562.28 -2.44667 4.94815 0
M  V30 5626 H 562.757 -2.88678 3.31001 0
M  V30 5627 H 563.363 -1.37496 4.02461 0
M  V30 5628 N 561.678 -1.56367 -0.196722 0
M  V30 5629 C 562.906 -1.84639 -0.933608 0
M  V30 5630 C 563.321 -0.659164 -1.76919 0
M  V30 5631 O 562.678 0.372142 -1.78665 0
M  V30 5632 C 562.729 -3.11694 -1.83109 0
M  V30 5633 O 562.45 -4.25838 -1.02924 0
M  V30 5634 C 563.951 -3.53132 -2.67979 0
M  V30 5635 H 561.171 -0.613188 -0.272473 0
M  V30 5636 H 563.715 -2.03475 -0.204465 0
M  V30 5637 H 561.87 -2.94759 -2.51387 0
M  V30 5638 H 562.284 -4.98178 -1.64069 0
M  V30 5639 H 563.758 -4.45005 -3.26611 0
M  V30 5640 H 564.235 -2.76045 -3.41608 0
M  V30 5641 H 564.841 -3.72592 -2.05074 0
M  V30 5642 N 563.156 0.464375 -1.50603 0
M  V30 5643 C 564.106 1.55929 -1.66343 0
M  V30 5644 C 565.09 1.52338 -0.517887 0
M  V30 5645 O 566.282 1.59248 -0.772601 0
M  V30 5646 C 563.411 2.94327 -1.7671 0
M  V30 5647 C 562.497 3.02777 -2.96962 0
M  V30 5648 N 562.888 2.81026 -4.20545 0
M  V30 5649 C 561.186 3.33919 -2.95659 0
M  V30 5650 C 561.887 2.94618 -5.01573 0
M  V30 5651 N 560.863 3.25112 -4.35664 0
M  V30 5652 H 564.665 1.37822 -2.59581 0
M  V30 5653 H 562.179 0.671227 -1.47879 0
M  V30 5654 H 564.176 3.73063 -1.86091 0
M  V30 5655 H 562.836 3.13476 -0.846353 0
M  V30 5656 H 563.847 2.56477 -4.49933 0
M  V30 5657 H 560.524 3.59013 -2.13111 0
M  V30 5658 H 561.914 2.81984 -6.09865 0
M  V30 5659 N 564.634 1.40294 0.718013 0
M  V30 5660 C 565.564 1.43118 1.84498 0
M  V30 5661 C 566.545 0.292403 1.67568 0
M  V30 5662 O 567.73 0.500675 1.87635 0
M  V30 5663 C 564.86 1.29065 3.22427 0
M  V30 5664 C 563.814 2.40521 3.54025 0
M  V30 5665 C 563.14 2.11546 4.91073 0
M  V30 5666 C 564.44 3.82859 3.55269 0
M  V30 5667 H 566.134 2.37432 1.82391 0
M  V30 5668 H 563.68 1.14283 0.87609 0
M  V30 5669 H 565.633 1.29658 4.00957 0
M  V30 5670 H 564.357 0.312271 3.25104 0
M  V30 5671 H 563.016 2.39173 2.77834 0
M  V30 5672 H 562.664 1.12104 4.90348 0
M  V30 5673 H 562.364 2.86216 5.1318 0
M  V30 5674 H 563.888 2.13817 5.71939 0
M  V30 5675 H 565.302 3.86044 4.23843 0
M  V30 5676 H 563.699 4.57029 3.88902 0
M  V30 5677 H 564.769 4.12617 2.54706 0
M  V30 5678 N 566.112 -0.949982 1.2575 0
M  V30 5679 C 567.06 -2.06869 1.06339 0
M  V30 5680 C 568.054 -1.69399 -0.00708901 0
M  V30 5681 O 569.26 -1.79383 0.148897 0
M  V30 5682 H 565.635 -0.677197 0.326969 0
M  V30 5683 H 567.606 -2.20396 2.01167 0
M  V30 5684 C 566.355 -3.40503 0.703769 0
M  V30 5685 H 565.678 -3.69807 1.51931 0
M  V30 5686 H 567.118 -4.19623 0.607677 0
M  V30 5687 C 565.577 -3.31685 -0.5905 0
M  V30 5688 O 566.107 -3.67085 -1.63131 0
M  V30 5689 N 564.313 -2.84797 -0.577859 0
M  V30 5690 H 563.86 -2.56186 0.26951 0
M  V30 5691 H 563.818 -2.79279 -1.44398 0
M  V30 5692 N 567.59 -1.07411 -1.15328 0
M  V30 5693 C 568.836 -0.798831 -1.86404 0
M  V30 5694 C 569.169 0.673433 -1.8215 0
M  V30 5695 O 568.444 1.49428 -1.24505 0
M  V30 5696 C 568.727 -1.30846 -3.35487 0
M  V30 5697 C 568.58 -2.84532 -3.4837 0
M  V30 5698 C 569.899 -0.925486 -4.30259 0
M  V30 5699 H 567.018 -0.291659 -0.676834 0
M  V30 5700 H 569.66 -1.332 -1.35491 0
M  V30 5701 H 567.81 -0.854916 -3.78977 0
M  V30 5702 H 569.482 -3.3818 -3.13739 0
M  V30 5703 H 567.725 -3.22699 -2.8991 0
M  V30 5704 H 568.396 -3.15259 -4.53118 0
M  V30 5705 H 570.872 -1.3163 -3.94731 0
M  V30 5706 H 569.748 -1.3094 -5.33053 0
M  V30 5707 H 570.009 0.168525 -4.41779 0
M  V30 5708 N 569.068 1.32177 -0.85831 0
M  V30 5709 C 570 2.27688 -0.262835 0
M  V30 5710 C 571.013 1.52588 0.567513 0
M  V30 5711 O 572.202 1.74156 0.391407 0
M  V30 5712 C 569.302 3.32668 0.646937 0
M  V30 5713 C 568.475 4.37148 -0.148372 0
M  V30 5714 C 567.534 5.21686 0.687728 0
M  V30 5715 O 566.56 5.69074 0.119934 0
M  V30 5716 N 567.762 5.44892 2.00182 0
M  V30 5717 H 570.527 2.79426 -1.08356 0
M  V30 5718 H 568.088 1.45076 -0.718647 0
M  V30 5719 H 570.08 3.86134 1.2117 0
M  V30 5720 H 568.65 2.81061 1.36834 0
M  V30 5721 H 567.87 3.83915 -0.894572 0
M  V30 5722 H 569.158 5.04038 -0.694514 0
M  V30 5723 H 568.556 5.08128 2.4864 0
M  V30 5724 H 567.113 6.0134 2.51463 0
M  V30 5725 N 570.547 0.616602 1.45037 0
M  V30 5726 C 571.793 0.123965 2.03022 0
M  V30 5727 C 572.148 -1.23508 1.47525 0
M  V30 5728 O 571.441 -1.80453 0.643981 0
M  V30 5729 C 571.635 0.0356829 3.57382 0
M  V30 5730 C 571.464 1.38462 4.27853 0
M  V30 5731 C 570.234 1.96766 4.65415 0
M  V30 5732 C 572.432 2.31536 4.59234 0
M  V30 5733 N 570.414 3.25046 5.20786 0
M  V30 5734 C 571.785 3.4442 5.15533 0
M  V30 5735 C 573.84 2.30796 4.41178 0
M  V30 5736 C 572.543 4.56742 5.55679 0
M  V30 5737 C 574.569 3.42171 4.82362 0
M  V30 5738 C 573.931 4.53778 5.38762 0
M  V30 5739 H 570.03 0.0889428 0.776925 0
M  V30 5740 H 572.614 0.816925 1.76733 0
M  V30 5741 H 570.785 -0.62652 3.83314 0
M  V30 5742 H 572.517 -0.464443 4.02026 0
M  V30 5743 H 569.272 1.4987 4.49261 0
M  V30 5744 H 569.696 3.90592 5.52962 0
M  V30 5745 H 574.338 1.45765 3.96878 0
M  V30 5746 H 572.056 5.42491 5.9894 0
M  V30 5747 H 575.642 3.42757 4.70116 0
M  V30 5748 H 574.522 5.38536 5.70043 0
M  V30 5749 N 572.025 -1.5352 0.356285 0
M  V30 5750 C 572.957 -2.23009 -0.529127 0
M  V30 5751 C 573.97 -1.241 -1.05371 0
M  V30 5752 O 575.159 -1.50379 -0.961679 0
M  V30 5753 C 572.259 -2.90685 -1.74229 0
M  V30 5754 C 571.432 -4.16019 -1.35081 0
M  V30 5755 C 570.491 -4.66989 -2.42502 0
M  V30 5756 O 569.517 -5.30895 -2.05279 0
M  V30 5757 N 570.719 -4.44006 -3.7395 0
M  V30 5758 H 573.484 -2.99627 0.0660501 0
M  V30 5759 H 571.045 -1.60885 0.181014 0
M  V30 5760 H 573.037 -3.21695 -2.4555 0
M  V30 5761 H 571.607 -2.17575 -2.24454 0
M  V30 5762 H 570.827 -3.91414 -0.467833 0
M  V30 5763 H 572.115 -4.9752 -1.06542 0
M  V30 5764 H 571.513 -3.92924 -4.06973 0
M  V30 5765 H 570.07 -4.7959 -4.41403 0
M  V30 5766 N 573.503 -0.0852151 -1.57369 0
M  V30 5767 C 574.914 0.445428 -1.81309 0
M  V30 5768 C 575.265 1.68795 -1.00013 0
M  V30 5769 O 574.39 2.15211 -0.226573 0
M  V30 5770 C 574.985 0.814887 -3.28854 0
M  V30 5771 C 573.544 1.29032 -3.53592 0
M  V30 5772 C 572.691 0.282089 -2.75861 0
M  V30 5773 H 575.642 -0.310771 -1.55627 0
M  V30 5774 H 575.663 1.67524 -3.41637 0
M  V30 5775 H 575.175 -0.0896309 -3.87996 0
M  V30 5776 H 573.276 2.21289 -2.9977 0
M  V30 5777 H 573.389 1.25898 -4.62262 0
M  V30 5778 H 571.753 0.762182 -2.43029 0
M  V30 5779 H 572.536 -0.614936 -3.37748 0
M  V30 5780 N 574.981 1.5647 0.188427 0
M  V30 5781 C 576.206 1.85486 0.927891 0
M  V30 5782 C 576.631 0.669575 1.75779 0
M  V30 5783 O 575.989 -0.381573 1.77239 0
M  V30 5784 C 576.037 3.12784 1.7944 0
M  V30 5785 O 575.141 2.93805 2.894 0
M  V30 5786 H 574.482 0.610585 0.260925 0
M  V30 5787 H 577.012 2.037 0.191729 0
M  V30 5788 H 577.022 3.43749 2.19774 0
M  V30 5789 H 575.697 3.98671 1.18468 0
M  V30 5790 H 574.274 2.74153 2.52774 0
M  V30 5791 N 576.459 -0.456382 1.50847 0
M  V30 5792 C 577.707 -1.20497 1.62249 0
M  V30 5793 C 578.028 -1.92156 0.331839 0
M  V30 5794 O 577.298 -1.84751 -0.651443 0
M  V30 5795 H 575.878 -0.447775 0.597918 0
M  V30 5796 H 578.54 -0.525099 1.87693 0
M  V30 5797 H 577.636 -1.94492 2.44089 0
M  V30 5798 N 577.937 -1.40673 -0.710563 0
M  V30 5799 C 579.185 -1.38947 -1.46759 0
M  V30 5800 C 579.506 0.00572879 -1.94999 0
M  V30 5801 O 578.776 0.961358 -1.70689 0
M  V30 5802 H 577.356 -0.5114 -0.544499 0
M  V30 5803 H 580.018 -1.75773 -0.842012 0
M  V30 5804 H 579.114 -2.06745 -2.33801 0
M  V30 5805 N 579.415 0.9433 -1.26252 0
M  V30 5806 C 580.661 1.69175 -1.11837 0
M  V30 5807 C 580.994 1.91238 0.337891 0
M  V30 5808 O 580.269 1.49152 1.24836 0
M  V30 5809 C 580.552 3.06783 -1.88563 0
M  V30 5810 C 580.405 2.9206 -3.42083 0
M  V30 5811 C 581.724 4.06865 -1.67776 0
M  V30 5812 H 578.843 0.61399 -0.407658 0
M  V30 5813 H 581.485 1.09572 -1.55222 0
M  V30 5814 H 579.635 3.57663 -1.51689 0
M  V30 5815 H 581.307 2.48419 -3.88698 0
M  V30 5816 H 579.55 2.27731 -3.69217 0
M  V30 5817 H 580.221 3.89651 -3.90994 0
M  V30 5818 H 582.697 3.64939 -1.99897 0
M  V30 5819 H 581.573 5.01168 -2.23879 0
M  V30 5820 H 581.834 4.37705 -0.621816 0
M  V30 5821 N 580.893 1.08022 1.14757 0
M  V30 5822 C 582.121 0.828847 1.89572 0
M  V30 5823 C 582.536 -0.618621 1.78377 0
M  V30 5824 O 581.893 -1.42482 1.1404 0
M  V30 5825 C 581.944 1.23677 3.39685 0
M  V30 5826 O 581.665 2.62746 3.50566 0
M  V30 5827 C 583.166 1.01569 4.31507 0
M  V30 5828 H 580.386 0.299196 0.600602 0
M  V30 5829 H 582.93 1.43846 1.45357 0
M  V30 5830 H 581.085 0.671347 3.81539 0
M  V30 5831 H 581.499 2.79573 4.43778 0
M  V30 5832 H 582.973 1.35055 5.35223 0
M  V30 5833 H 583.45 -0.0475433 4.39174 0
M  V30 5834 H 584.056 1.56636 3.95405 0
M  V30 5835 N 582.371 -1.3172 0.865308 0
M  V30 5836 C 583.281 -2.32394 0.320935 0
M  V30 5837 C 584.297 -1.64511 -0.566746 0
M  V30 5838 O 585.473 -1.95969 -0.464575 0
M  V30 5839 C 582.538 -3.43462 -0.472701 0
M  V30 5840 C 581.599 -4.27015 0.442385 0
M  V30 5841 C 580.832 -5.32779 -0.313469 0
M  V30 5842 O 581.055 -5.49158 -1.54214 0
M  V30 5843 O 579.989 -6.01015 0.326257 0
M  V30 5844 H 583.815 -2.80868 1.15528 0
M  V30 5845 H 581.4 -1.35535 0.628545 0
M  V30 5846 H 583.282 -4.11172 -0.922781 0
M  V30 5847 H 581.957 -2.97159 -1.28367 0
M  V30 5848 H 580.864 -3.62075 0.940866 0
M  V30 5849 H 582.197 -4.76871 1.21882 0
M  V30 5850 N 583.85 -0.624285 -1.44708 0
M  V30 5851 C 585.26 -0.2092 -1.85524 0
M  V30 5852 C 585.611 1.23783 -1.52225 0
M  V30 5853 O 584.736 1.94089 -0.956986 0
M  V30 5854 C 585.332 -0.372897 -3.36742 0
M  V30 5855 C 583.891 -0.012374 -3.76398 0
M  V30 5856 C 583.038 -0.68951 -2.68591 0
M  V30 5857 H 585.989 -0.829894 -1.35272 0
M  V30 5858 H 586.01 0.390134 -3.78495 0
M  V30 5859 H 585.522 -1.42615 -3.60947 0
M  V30 5860 H 583.623 1.03941 -3.57809 0
M  V30 5861 H 583.736 -0.417663 -4.77276 0
M  V30 5862 H 582.1 -0.125484 -2.54391 0
M  V30 5863 H 582.883 -1.74522 -2.9563 0
M  V30 5864 N 585.328 1.53329 -0.364422 0
M  V30 5865 C 586.576 2.00842 0.225189 0
M  V30 5866 C 586.897 1.25345 1.49378 0
M  V30 5867 O 586.167 0.366396 1.92443 0
M  V30 5868 H 584.747 0.742009 0.0862027 0
M  V30 5869 H 587.409 1.8863 -0.490389 0
M  V30 5870 H 586.505 3.08795 0.452987 0
M  V30 5871 N 586.806 0.0935595 1.57322 0
M  V30 5872 C 588.031 -0.582324 1.99057 0
M  V30 5873 C 588.456 -1.61025 0.972242 0
M  V30 5874 O 587.814 -1.81202 -0.0594622 0
M  V30 5875 C 587.862 -1.20799 3.39765 0
M  V30 5876 O 586.966 -2.32382 3.40694 0
M  V30 5877 H 586.307 -0.147884 0.647323 0
M  V30 5878 H 588.837 0.174516 2.03854 0
M  V30 5879 H 588.847 -1.54966 3.77425 0
M  V30 5880 H 587.522 -0.454914 4.13405 0
M  V30 5881 H 586.099 -1.99845 3.14827 0
M  V30 5882 N 588.284 -1.56567 -0.180126 0
M  V30 5883 C 589.509 -1.85975 -0.918041 0
M  V30 5884 C 589.934 -0.678888 -1.75422 0
M  V30 5885 O 589.292 0.372168 -1.77439 0
M  V30 5886 C 589.34 -3.13731 -1.77779 0
M  V30 5887 O 588.444 -2.95335 -2.87838 0
M  V30 5888 H 587.785 -0.61196 -0.257683 0
M  V30 5889 H 590.315 -2.03798 -0.180923 0
M  V30 5890 H 590.325 -3.4491 -2.17948 0
M  V30 5891 H 589 -3.99293 -1.16352 0
M  V30 5892 H 587.577 -2.7549 -2.51316 0
M  V30 5893 N 589.762 0.448376 -1.51087 0
M  V30 5894 C 591.01 1.19635 -1.62886 0
M  V30 5895 C 591.331 1.91977 -0.342024 0
M  V30 5896 O 590.601 1.85094 0.641636 0
M  V30 5897 H 589.181 0.444598 -0.600285 0
M  V30 5898 H 591.843 0.515138 -1.87969 0
M  V30 5899 H 590.939 1.93194 -2.45117 0
M  V30 5900 N 591.24 1.41047 0.703093 0
M  V30 5901 C 592.465 1.43537 1.49706 0
M  V30 5902 C 592.89 0.0401853 1.88057 0
M  V30 5903 O 592.248 -0.954785 1.54122 0
M  V30 5904 C 592.296 2.3433 2.74084 0
M  V30 5905 O 591.4 1.79515 3.71279 0
M  V30 5906 H 590.741 0.487454 0.450871 0
M  V30 5907 H 593.271 1.85422 0.86486 0
M  V30 5908 H 593.281 2.49947 3.22476 0
M  V30 5909 H 591.956 3.35708 2.45506 0
M  V30 5910 H 590.533 1.7331 3.30179 0
M  V30 5911 N 592.718 -0.936591 1.26751 0
M  V30 5912 C 594.129 -1.49816 1.1141 0
M  V30 5913 C 594.48 -1.9383 -0.304015 0
M  V30 5914 O 593.605 -1.80346 -1.196 0
M  V30 5915 C 594.2 -2.72271 2.01629 0
M  V30 5916 C 592.759 -3.2468 1.9042 0
M  V30 5917 C 591.906 -1.97444 1.94708 0
M  V30 5918 H 594.857 -0.751604 1.39773 0
M  V30 5919 H 594.878 -3.46741 1.56688 0
M  V30 5920 H 594.39 -2.40205 3.04833 0
M  V30 5921 H 592.491 -3.61525 0.901674 0
M  V30 5922 H 592.604 -3.91476 2.76195 0
M  V30 5923 H 590.968 -2.13545 1.38818 0
M  V30 5924 H 591.751 -1.67703 2.9955 0
M  V30 5925 N 594.196 -1.08629 -1.14182 0
M  V30 5926 C 595.445 -0.812271 -1.84621 0
M  V30 5927 C 595.758 0.664313 -1.83973 0
M  V30 5928 O 596.964 1.05357 -2.50224 0
M  V30 5929 C 595.42 -1.4031 -3.31423 0
M  V30 5930 C 595.028 -2.91164 -3.40481 0
M  V30 5931 C 596.772 -1.20767 -4.06959 0
M  V30 5932 C 594.679 -3.43373 -4.81507 0
M  V30 5933 H 593.609 -0.30019 -0.691666 0
M  V30 5934 H 596.26 -1.30798 -1.28701 0
M  V30 5935 H 594.642 -0.835096 -3.87094 0
M  V30 5936 H 595.816 -3.5412 -2.94848 0
M  V30 5937 H 594.131 -3.09646 -2.78403 0
M  V30 5938 H 596.728 -1.57237 -5.11058 0
M  V30 5939 H 597.071 -0.147664 -4.16038 0
M  V30 5940 H 597.604 -1.74274 -3.57594 0
M  V30 5941 H 594.343 -4.48958 -4.77616 0
M  V30 5942 H 593.863 -2.85176 -5.27669 0
M  V30 5943 H 595.542 -3.40095 -5.50404 0
M  V30 5944 N 595.674 1.31259 -0.872281 0
M  V30 5945 C 596.904 2.00504 -0.498183 0
M  V30 5946 C 597.312 1.65632 0.914479 0
M  V30 5947 O 596.655 0.882849 1.61095 0
M  V30 5948 C 596.717 3.5482 -0.578194 0
M  V30 5949 C 596.381 4.13172 -1.95289 0
M  V30 5950 C 597.378 4.30107 -2.92069 0
M  V30 5951 C 595.063 4.48846 -2.25483 0
M  V30 5952 C 597.057 4.81908 -4.17185 0
M  V30 5953 C 594.744 5.00349 -3.50847 0
M  V30 5954 C 595.742 5.16831 -4.46514 0
M  V30 5955 O 595.43 5.67228 -5.69656 0
M  V30 5956 H 595.162 0.648055 -0.192354 0
M  V30 5957 H 597.716 1.6841 -1.17589 0
M  V30 5958 H 595.946 3.86383 0.156438 0
M  V30 5959 H 597.635 4.05318 -0.217192 0
M  V30 5960 H 598.401 4.02862 -2.7005 0
M  V30 5961 H 594.28 4.35292 -1.51795 0
M  V30 5962 H 597.824 4.94688 -4.91863 0
M  V30 5963 H 593.721 5.27028 -3.72708 0
M  V30 5964 H 594.489 5.85592 -5.7186 0
M  V30 5965 N 597.152 0.631951 1.44375 0
M  V30 5966 C 598.377 0.142146 2.06912 0
M  V30 5967 C 598.802 -1.17456 1.4692 0
M  V30 5968 O 598.16 -1.72074 0.570975 0
M  V30 5969 C 598.208 0.0417952 3.60576 0
M  V30 5970 O 597.312 -1.00194 4.00044 0
M  V30 5971 H 596.653 0.0851491 0.658518 0
M  V30 5972 H 599.183 0.868863 1.85235 0
M  V30 5973 H 599.193 -0.148517 4.0773 0
M  V30 5974 H 597.868 1.0031 4.03622 0
M  V30 5975 H 596.445 -0.786131 3.64519 0
M  V30 5976 N 598.631 -1.53133 0.372548 0
M  V30 5977 C 600.042 -1.86404 -0.105155 0
M  V30 5978 C 600.393 -1.29289 -1.47576 0
M  V30 5979 O 599.518 -0.617646 -2.07398 0
M  V30 5980 C 600.113 -3.38223 -0.197588 0
M  V30 5981 C 598.672 -3.71266 -0.619556 0
M  V30 5982 C 597.819 -2.76353 0.228919 0
M  V30 5983 H 600.77 -1.47282 0.591077 0
M  V30 5984 H 600.791 -3.66577 -1.01987 0
M  V30 5985 H 600.303 -3.79763 0.800099 0
M  V30 5986 H 598.404 -3.35287 -1.62522 0
M  V30 5987 H 598.517 -4.77515 -0.389332 0
M  V30 5988 H 596.881 -2.52888 -0.303271 0
M  V30 5989 H 597.664 -3.20728 1.22428 0
M  V30 5990 N 600.109 -0.101901 -1.5727 0
M  V30 5991 C 601.019 0.868647 -2.17926 0
M  V30 5992 C 602.035 1.30527 -1.1506 0
M  V30 5993 O 603.211 1.37178 -1.47459 0
M  V30 5994 C 600.276 2.10727 -2.75309 0
M  V30 5995 C 599.337 1.7242 -3.93154 0
M  V30 5996 C 598.57 2.90377 -4.47791 0
M  V30 5997 O 598.793 4.05305 -4.01353 0
M  V30 5998 O 597.727 2.6845 -5.38719 0
M  V30 5999 H 601.553 0.382544 -3.01281 0
M  V30 6000 H 599.138 0.122812 -1.48894 0
M  V30 6001 H 601.02 2.83303 -3.11958 0
M  V30 6002 H 599.695 2.58376 -1.94996 0
M  V30 6003 H 598.602 0.970039 -3.61305 0
M  V30 6004 H 599.935 1.29528 -4.74851 0
M  V30 6005 N 601.587 1.56661 0.17182 0
M  V30 6006 C 602.534 1.96371 1.21273 0
M  V30 6007 C 603.504 0.82756 1.44016 0
M  V30 6008 O 604.689 1.08764 1.56764 0
M  V30 6009 C 601.829 2.32838 2.54716 0
M  V30 6010 C 600.942 3.59628 2.39356 0
M  V30 6011 C 600.077 3.85311 3.65662 0
M  V30 6012 C 599.116 5.0545 3.45234 0
M  V30 6013 N 598.253 5.27268 4.63608 0
M  V30 6014 H 603.093 2.85106 0.86709 0
M  V30 6015 H 600.63 1.41073 0.416744 0
M  V30 6016 H 602.588 2.52004 3.3249 0
M  V30 6017 H 601.218 1.47214 2.87277 0
M  V30 6018 H 600.27 3.4838 1.52761 0
M  V30 6019 H 601.582 4.4756 2.20207 0
M  V30 6020 H 600.736 4.04841 4.51872 0
M  V30 6021 H 599.475 2.95753 3.8779 0
M  V30 6022 H 598.48 4.85819 2.5741 0
M  V30 6023 H 599.705 5.96538 3.24529 0
M  V30 6024 H 597.651 4.40662 4.85956 0
M  V30 6025 H 597.568 6.09422 4.4737 0
M  V30 6026 H 598.836 5.51277 5.51103 0
M  V30 6027 N 603.065 -0.440357 1.51323 0
M  V30 6028 C 604.481 -0.7766 1.39431 0
M  V30 6029 C 604.681 -1.95838 0.474296 0
M  V30 6030 O 603.737 -2.52398 -0.0716692 0
M  V30 6031 C 605.05 -1.05981 2.81405 0
M  V30 6032 C 606.598 -1.16442 2.90534 0
M  V30 6033 C 607.073 -1.48058 4.33408 0
M  V30 6034 N 608.564 -1.54988 4.36501 0
M  V30 6035 C 609.299 -1.81017 5.44078 0
M  V30 6036 N 608.795 -2.04858 6.61819 0
M  V30 6037 N 610.588 -1.82774 5.31554 0
M  V30 6038 H 602.739 0.338006 2.09693 0
M  V30 6039 H 605.002 0.0888072 0.943831 0
M  V30 6040 H 604.708 -0.264173 3.50706 0
M  V30 6041 H 604.582 -1.98822 3.20546 0
M  V30 6042 H 606.969 -1.95068 2.21432 0
M  V30 6043 H 607.05 -0.215088 2.54894 0
M  V30 6044 H 606.694 -0.699605 5.03059 0
M  V30 6045 H 606.624 -2.44192 4.66559 0
M  V30 6046 H 609.115 -1.38479 3.51613 0
M  V30 6047 H 609.428 -2.2408 7.396 0
M  V30 6048 H 607.773 -2.02187 6.6494 0
M  V30 6049 H 610.964 -1.63665 4.38556 0
M  V30 6050 H 611.137 -2.02722 6.15474 0
M  V30 6051 N 604.543 -1.41418 -0.695603 0
M  V30 6052 C 605.789 -1.40982 -1.4578 0
M  V30 6053 C 606.122 -0.0187763 -1.94191 0
M  V30 6054 O 605.397 0.95346 -1.69527 0
M  V30 6055 C 605.68 -2.41657 -2.66972 0
M  V30 6056 C 605.533 -3.89869 -2.24327 0
M  V30 6057 C 606.852 -2.39589 -3.69168 0
M  V30 6058 H 603.971 -0.513405 -0.528757 0
M  V30 6059 H 606.613 -1.72693 -0.792275 0
M  V30 6060 H 604.763 -2.14746 -3.23754 0
M  V30 6061 H 606.435 -4.27683 -1.72872 0
M  V30 6062 H 604.678 -4.04737 -1.56111 0
M  V30 6063 H 605.349 -4.55857 -3.11285 0
M  V30 6064 H 607.825 -2.63471 -3.2206 0
M  V30 6065 H 606.701 -3.12044 -4.51575 0
M  V30 6066 H 606.962 -1.41447 -4.18862 0
M  V30 6067 N 606.021 0.929856 -1.27246 0
M  V30 6068 C 606.951 2.04722 -1.12299 0
M  V30 6069 C 607.932 1.70082 -0.0250464 0
M  V30 6070 O 609.117 1.93176 -0.199141 0
M  V30 6071 C 606.247 3.38721 -0.767145 0
M  V30 6072 C 605.201 3.87466 -1.81808 0
M  V30 6073 C 604.527 5.18246 -1.31626 0
M  V30 6074 C 605.827 4.11095 -3.22177 0
M  V30 6075 H 607.521 2.17485 -2.05769 0
M  V30 6076 H 605.067 1.04503 -0.990715 0
M  V30 6077 H 607.02 4.16366 -0.649413 0
M  V30 6078 H 605.744 3.25967 0.203259 0
M  V30 6079 H 604.403 3.12012 -1.92468 0
M  V30 6080 H 604.051 5.01881 -0.335378 0
M  V30 6081 H 603.751 5.51829 -2.01887 0
M  V30 6082 H 605.275 5.98462 -1.21143 0
M  V30 6083 H 606.689 4.79316 -3.1453 0
M  V30 6084 H 605.086 4.55982 -3.90129 0
M  V30 6085 H 606.156 3.16468 -3.67391 0
M  V30 6086 N 607.499 1.09233 1.13605 0
M  V30 6087 C 608.747 0.825525 1.84471 0
M  V30 6088 C 609.068 -0.650702 1.83823 0
M  V30 6089 O 608.338 -1.47204 1.29259 0
M  V30 6090 H 606.918 0.3024 0.683054 0
M  V30 6091 H 609.58 1.38006 1.37624 0
M  V30 6092 H 608.676 1.17727 2.89045 0
M  V30 6093 N 608.977 -1.30795 0.87923 0
M  V30 6094 C 609.909 -2.27241 0.299025 0
M  V30 6095 C 610.922 -1.53472 -0.543166 0
M  V30 6096 O 612.111 -1.74756 -0.363651 0
M  V30 6097 C 609.211 -3.33655 -0.593931 0
M  V30 6098 C 608.384 -4.36857 0.2179 0
M  V30 6099 C 607.443 -5.22715 -0.604646 0
M  V30 6100 O 606.469 -5.69192 -0.0293838 0
M  V30 6101 N 607.671 -5.48008 -1.91488 0
M  V30 6102 H 610.436 -2.77667 1.12788 0
M  V30 6103 H 607.997 -1.43914 0.741637 0
M  V30 6104 H 609.989 -3.88013 -1.15012 0
M  V30 6105 H 608.559 -2.83202 -1.32346 0
M  V30 6106 H 607.779 -3.82444 0.955536 0
M  V30 6107 H 609.067 -5.02869 0.774614 0
M  V30 6108 H 608.465 -5.1202 -2.40525 0
M  V30 6109 H 607.022 -6.05264 -2.41864 0
M  V30 6110 N 610.455 -0.639598 -1.44038 0
M  V30 6111 C 611.385 0.0469443 -2.33453 0
M  V30 6112 C 612.366 0.82609 -1.48694 0
M  V30 6113 O 613.551 0.790285 -1.77393 0
M  V30 6114 C 610.681 1.02338 -3.3188 0
M  V30 6115 C 609.635 0.355284 -4.26523 0
M  V30 6116 C 608.961 1.44221 -5.14883 0
M  V30 6117 C 610.261 -0.743798 -5.16977 0
M  V30 6118 H 611.955 -0.699735 -2.91108 0
M  V30 6119 H 609.501 -0.337946 -1.39978 0
M  V30 6120 H 611.454 1.51247 -3.93322 0
M  V30 6121 H 610.178 1.80105 -2.72451 0
M  V30 6122 H 608.837 -0.113239 -3.66425 0
M  V30 6123 H 608.485 2.21097 -4.51802 0
M  V30 6124 H 608.185 1.00052 -5.79019 0
M  V30 6125 H 609.709 1.93295 -5.79197 0
M  V30 6126 H 611.123 -0.337444 -5.72306 0
M  V30 6127 H 609.52 -1.10914 -5.89761 0
M  V30 6128 H 610.59 -1.60745 -4.57481 0
M  V30 6129 N 611.933 1.52934 -0.380664 0
M  V30 6130 C 612.883 2.22989 0.475399 0
M  V30 6131 C 613.867 1.23058 1.03661 0
M  V30 6132 O 615.059 1.48436 0.964146 0
M  V30 6133 C 612.188 3.0338 1.60671 0
M  V30 6134 C 611.274 4.107 1.05766 0
M  V30 6135 N 611.665 5.05264 0.232837 0
M  V30 6136 C 609.963 4.25676 1.33101 0
M  V30 6137 C 610.664 5.81658 -0.0695134 0
M  V30 6138 N 609.64 5.40989 0.532144 0
M  V30 6139 H 613.442 2.93456 -0.161418 0
M  V30 6140 H 610.956 1.61291 -0.189495 0
M  V30 6141 H 612.953 3.52098 2.23232 0
M  V30 6142 H 611.613 2.34446 2.24644 0
M  V30 6143 H 612.624 5.17739 -0.129204 0
M  V30 6144 H 609.301 3.6797 1.97241 0
M  V30 6145 H 610.691 6.67843 -0.737269 0
M  V30 6146 N 613.412 0.11024 1.57214 0
M  V30 6147 C 614.66 -0.548783 1.94506 0
M  V30 6148 C 614.981 -1.67772 0.99386 0
M  V30 6149 O 614.251 -1.9584 0.0485841 0
M  V30 6150 H 612.831 -0.205715 0.718116 0
M  V30 6151 H 615.493 0.177127 1.94093 0
M  V30 6152 H 614.589 -0.949096 2.97319 0
M  V30 6153 N 614.89 -1.56749 -0.16351 0
M  V30 6154 C 616.138 -1.82074 -0.87713 0
M  V30 6155 C 616.459 -0.688503 -1.82441 0
M  V30 6156 O 615.729 0.291085 -1.93725 0
M  V30 6157 H 614.309 -0.671677 -0.326893 0
M  V30 6158 H 616.971 -1.9423 -0.161459 0
M  V30 6159 H 616.067 -2.76407 -1.44934 0
M  V30 6160 N 616.368 0.432326 -1.51554 0
M  V30 6161 C 617.779 1.01202 -1.56892 0
M  V30 6162 C 618.13 1.92175 -0.395394 0
M  V30 6163 O 617.255 2.10844 0.487198 0
M  V30 6164 C 617.85 1.84217 -2.8434 0
M  V30 6165 C 616.409 2.37228 -2.92233 0
M  V30 6166 C 615.556 1.16576 -2.51606 0
M  V30 6167 H 618.507 0.213407 -1.57259 0
M  V30 6168 H 618.528 2.69721 -2.68385 0
M  V30 6169 H 618.04 1.17979 -3.69733 0
M  V30 6170 H 616.141 3.06905 -2.11282 0
M  V30 6171 H 616.254 2.69682 -3.95991 0
M  V30 6172 H 614.618 1.51263 -2.04919 0
M  V30 6173 H 615.401 0.519404 -3.39348 0
M  V30 6174 N 617.846 1.41785 0.688094 0
M  V30 6175 C 619.071 1.45117 1.48175 0
M  V30 6176 C 619.496 0.060129 1.88004 0
M  V30 6177 O 618.854 -0.938385 1.55126 0
M  V30 6178 C 618.902 2.37224 2.71583 0
M  V30 6179 O 618.006 1.83443 3.69354 0
M  V30 6180 H 617.347 0.492208 0.445676 0
M  V30 6181 H 619.877 1.86329 0.845145 0
M  V30 6182 H 619.887 2.53353 3.19806 0
M  V30 6183 H 618.562 3.38293 2.41931 0
M  V30 6184 H 617.139 1.76802 3.28322 0
M  V30 6185 N 619.324 -0.923095 1.27737 0
M  V30 6186 C 620.549 -1.71054 1.17283 0
M  V30 6187 C 620.974 -1.86208 -0.266153 0
M  V30 6188 O 620.332 -1.36545 -1.1927 0
M  V30 6189 C 620.38 -3.0854 1.86642 0
M  V30 6190 O 619.484 -3.95528 1.16752 0
M  V30 6191 H 618.825 -0.524136 0.407649 0
M  V30 6192 H 621.355 -1.15487 1.6889 0
M  V30 6193 H 621.365 -3.58828 1.94182 0
M  V30 6194 H 620.04 -2.96828 2.91317 0
M  V30 6195 H 618.617 -3.53967 1.17312 0
M  V30 6196 N 620.802 -1.09834 -1.13024 0
M  V30 6197 C 622.042 -0.846664 -1.8604 0
M  V30 6198 C 622.406 0.616557 -1.81831 0
M  V30 6199 O 623.607 0.984329 -2.50129 0
M  V30 6200 C 621.878 -1.37228 -3.30005 0
M  V30 6201 S 623.437 -1.25511 -4.20467 0
M  V30 6202 H 620.255 -0.30611 -0.64173 0
M  V30 6203 H 622.857 -1.40255 -1.36194 0
M  V30 6204 H 621.561 -2.43138 -3.30624 0
M  V30 6205 H 621.092 -0.81271 -3.84914 0
M  V30 6206 H 623.107 -0.208762 -4.95761 0
M  V30 6207 N 622.28 1.30327 -0.886154 0
M  V30 6208 C 623.505 2.0079 -0.519425 0
M  V30 6209 C 623.93 1.65979 0.885013 0
M  V30 6210 O 623.288 0.877043 1.58675 0
M  V30 6211 C 623.336 3.53686 -0.702758 0
M  V30 6212 O 622.44 4.11637 0.250828 0
M  V30 6213 H 621.781 0.63171 -0.204544 0
M  V30 6214 H 624.311 1.66145 -1.19402 0
M  V30 6215 H 624.321 4.03531 -0.602207 0
M  V30 6216 H 622.996 3.78361 -1.72673 0
M  V30 6217 H 621.573 3.72755 0.103873 0
M  V30 6218 N 623.758 0.647228 1.43697 0
M  V30 6219 C 624.721 -0.0385101 2.29168 0
M  V30 6220 C 625.721 -0.756487 1.41894 0
M  V30 6221 O 626.911 -0.598641 1.63591 0
M  V30 6222 C 624.043 -1.06524 3.23829 0
M  V30 6223 H 625.236 0.713445 2.9129 0
M  V30 6224 H 622.789 0.408153 1.50877 0
M  V30 6225 H 623.524 -1.84664 2.66589 0
M  V30 6226 H 623.309 -0.554147 3.88164 0
M  V30 6227 H 624.799 -1.54432 3.87996 0
M  V30 6228 N 625.236 -1.5273 0.388769 0
M  V30 6229 C 626.464 -2.05992 -0.193677 0
M  V30 6230 C 626.879 -1.26053 -1.40557 0
M  V30 6231 O 626.236 -0.307049 -1.79898 0
M  V30 6232 C 626.287 -3.57068 -0.564321 0
M  V30 6233 O 626.008 -4.3398 0.599422 0
M  V30 6234 C 627.509 -4.26674 -1.20269 0
M  V30 6235 H 624.729 -0.670358 -0.0293445 0
M  V30 6236 H 627.273 -1.96857 0.553844 0
M  V30 6237 H 625.428 -3.66277 -1.26174 0
M  V30 6238 H 625.842 -5.2367 0.294895 0
M  V30 6239 H 627.316 -5.33625 -1.4124 0
M  V30 6240 H 627.793 -3.81854 -2.16989 0
M  V30 6241 H 628.399 -4.2178 -0.546047 0
M  V30 6242 N 626.714 -0.118576 -1.57153 0
M  V30 6243 C 627.962 0.538461 -1.94795 0
M  V30 6244 C 628.283 1.67243 -1.00274 0
M  V30 6245 O 627.553 1.95811 -0.0589692 0
M  V30 6246 H 626.133 0.201904 -0.719197 0
M  V30 6247 H 628.795 -0.187418 -1.93997 0
M  V30 6248 H 627.891 0.933315 -2.97818 0
M  V30 6249 N 628.193 1.56834 0.155195 0
M  V30 6250 C 629.421 1.87049 0.884326 0
M  V30 6251 C 629.836 0.705839 1.7511 0
M  V30 6252 O 629.193 -0.324641 1.79589 0
M  V30 6253 C 629.244 3.1644 1.74781 0
M  V30 6254 O 628.965 4.28417 0.915978 0
M  V30 6255 C 630.466 3.60113 2.58522 0
M  V30 6256 H 627.686 0.620196 0.25612 0
M  V30 6257 H 630.23 2.03946 0.150445 0
M  V30 6258 H 628.385 3.01321 2.43484 0
M  V30 6259 H 628.799 5.02353 1.50803 0
M  V30 6260 H 630.273 4.53508 3.14698 0
M  V30 6261 H 630.75 2.85005 3.34169 0
M  V30 6262 H 631.356 3.77898 1.95124 0
M  V30 6263 N 629.671 -0.424282 1.51781 0
M  V30 6264 C 630.619 -1.53649 1.74628 0
M  V30 6265 C 631.613 -1.57923 0.612922 0
M  V30 6266 O 632.819 -1.61511 0.794618 0
M  V30 6267 H 629.194 -0.510706 0.551981 0
M  V30 6268 H 631.165 -1.31558 2.67834 0
M  V30 6269 C 629.914 -2.91177 1.9003 0
M  V30 6270 H 629.237 -2.88625 2.76651 0
M  V30 6271 H 630.677 -3.6833 2.10021 0
M  V30 6272 C 629.136 -3.30303 0.663435 0
M  V30 6273 O 629.666 -4.01315 -0.175812 0
M  V30 6274 N 627.872 -2.86201 0.503723 0
M  V30 6275 H 627.419 -2.28583 1.18776 0
M  V30 6276 H 627.377 -3.12741 -0.322575 0
M  V30 6277 N 631.149 -1.42148 -0.680565 0
M  V30 6278 C 632.565 -1.24947 -0.992995 0
M  V30 6279 C 632.765 -0.149527 -2.00944 0
M  V30 6280 O 631.821 0.481145 -2.47873 0
M  V30 6281 C 633.134 -2.60426 -1.5033 0
M  V30 6282 C 634.682 -2.67733 -1.62137 0
M  V30 6283 C 635.157 -4.03564 -2.16565 0
M  V30 6284 N 636.648 -4.05488 -2.23905 0
M  V30 6285 C 637.383 -5.07401 -2.67081 0
M  V30 6286 N 636.879 -6.19698 -3.09751 0
M  V30 6287 N 638.672 -4.94758 -2.66778 0
M  V30 6288 H 630.823 -2.12399 -0.0074788 0
M  V30 6289 H 633.086 -0.94571 -0.0658529 0
M  V30 6290 H 632.792 -3.41743 -0.830947 0
M  V30 6291 H 632.666 -2.83949 -2.483 0
M  V30 6292 H 635.053 -1.86765 -2.2848 0
M  V30 6293 H 635.134 -2.48004 -0.626713 0
M  V30 6294 H 634.778 -4.84987 -1.50833 0
M  V30 6295 H 634.708 -4.20641 -3.1681 0
M  V30 6296 H 637.199 -3.24415 -1.93812 0
M  V30 6297 H 637.512 -6.93318 -3.41365 0
M  V30 6298 H 635.857 -6.23212 -3.07623 0
M  V30 6299 H 639.048 -4.06105 -2.32801 0
M  V30 6300 H 639.221 -5.74317 -3.00107 0
M  V30 6301 N 632.627 0.916307 -1.28225 0
M  V30 6302 C 633.852 1.7043 -1.18188 0
M  V30 6303 C 634.277 1.86346 0.256274 0
M  V30 6304 O 633.635 1.37175 1.18544 0
M  V30 6305 C 633.683 3.07546 -1.88275 0
M  V30 6306 O 632.787 3.94904 -1.18848 0
M  V30 6307 H 632.128 0.521967 -0.410423 0
M  V30 6308 H 634.658 1.14589 -1.69501 0
M  V30 6309 H 634.668 3.57793 -1.96082 0
M  V30 6310 H 633.343 2.95279 -2.92887 0
M  V30 6311 H 631.92 3.53339 -1.19187 0
M  V30 6312 N 634.105 1.10431 1.1244 0
M  V30 6313 C 635.382 0.758797 1.80282 0
M  V30 6314 C 635.762 -0.754727 1.97147 0
M  V30 6315 O 635.11 -1.68094 1.54779 0
M  V30 6316 C 635.32 1.50982 3.14651 0
M  V30 6317 C 636.668 1.68232 3.8985 0
M  V30 6318 O 637.692 1.47319 3.24308 0
M  V30 6319 O 636.551 2.02905 5.07437 0
M  V30 6320 H 633.645 0.273756 0.780376 0
M  V30 6321 H 636.191 1.20713 1.19275 0
M  V30 6322 H 634.963 2.53989 2.97666 0
M  V30 6323 H 634.586 1.05435 3.83366 0
M  V30 6324 N 635.583 -1.29855 0.893053 0
M  V30 6325 C 636.515 -2.26911 0.32311 0
M  V30 6326 C 637.528 -1.54039 -0.526858 0
M  V30 6327 O 638.717 -1.75132 -0.345095 0
M  V30 6328 C 635.817 -3.34266 -0.558509 0
M  V30 6329 C 634.99 -4.36601 0.264222 0
M  V30 6330 C 634.049 -5.23326 -0.549171 0
M  V30 6331 O 633.075 -5.69192 0.0309883 0
M  V30 6332 N 634.277 -5.50008 -1.85664 0
M  V30 6333 H 637.042 -2.76455 1.15726 0
M  V30 6334 H 634.603 -1.4312 0.756859 0
M  V30 6335 H 636.595 -3.89211 -1.1089 0
M  V30 6336 H 635.165 -2.8459 -1.29334 0
M  V30 6337 H 634.385 -3.81409 0.996046 0
M  V30 6338 H 635.673 -5.02019 0.827906 0
M  V30 6339 H 635.071 -5.14542 -2.35081 0
M  V30 6340 H 633.628 -6.07796 -2.35431 0
M  V30 6341 N 637.061 -0.65484 -1.43351 0
M  V30 6342 C 638.291 -0.176429 -2.05845 0
M  V30 6343 C 638.699 1.16375 -1.49176 0
M  V30 6344 O 638.042 1.72981 -0.618322 0
M  V30 6345 C 638.104 -0.0125844 -3.59498 0
M  V30 6346 C 637.768 -1.27831 -4.38758 0
M  V30 6347 C 638.765 -2.2074 -4.70712 0
M  V30 6348 C 636.45 -1.52035 -4.78739 0
M  V30 6349 C 638.444 -3.36145 -5.41558 0
M  V30 6350 C 636.131 -2.67732 -5.49329 0
M  V30 6351 C 637.129 -3.59612 -5.80662 0
M  V30 6352 O 636.817 -4.73289 -6.4981 0
M  V30 6353 H 636.549 -0.0879682 -0.670252 0
M  V30 6354 H 639.103 -0.896193 -1.84818 0
M  V30 6355 H 637.333 0.762567 -3.79107 0
M  V30 6356 H 639.022 0.423392 -4.03686 0
M  V30 6357 H 639.788 -2.03284 -4.40341 0
M  V30 6358 H 635.667 -0.813987 -4.53757 0
M  V30 6359 H 639.211 -4.07881 -5.65932 0
M  V30 6360 H 635.108 -2.85122 -5.79116 0
M  V30 6361 H 635.876 -4.72575 -6.68293 0
M  V30 6362 N 638.539 1.52521 -0.396863 0
M  V30 6363 C 639.787 2.01274 0.182536 0
M  V30 6364 C 640.108 1.28485 1.46685 0
M  V30 6365 O 639.378 0.407134 1.91623 0
M  V30 6366 H 637.958 0.743671 0.0704442 0
M  V30 6367 H 640.62 1.87547 -0.530289 0
M  V30 6368 H 639.716 3.09687 0.387385 0
M  V30 6369 N 640.017 0.126909 1.57088 0
M  V30 6370 C 641.433 -0.229641 1.57939 0
M  V30 6371 C 641.633 -1.66145 1.1401 0
M  V30 6372 O 640.689 -2.3843 0.831119 0
M  V30 6373 C 642.002 0.0108648 3.00698 0
M  V30 6374 C 643.55 -0.054418 3.12953 0
M  V30 6375 C 644.025 0.158497 4.57726 0
M  V30 6376 N 645.516 0.104735 4.63082 0
M  V30 6377 C 646.251 0.24427 5.72879 0
M  V30 6378 N 645.747 0.440415 6.91399 0
M  V30 6379 N 647.54 0.183286 5.61801 0
M  V30 6380 H 639.691 1.06203 1.83942 0
M  V30 6381 H 641.954 0.418834 0.85046 0
M  V30 6382 H 641.66 1.00102 3.37154 0
M  V30 6383 H 641.534 -0.717512 3.70313 0
M  V30 6384 H 643.921 -1.0351 2.7635 0
M  V30 6385 H 644.002 0.705967 2.45865 0
M  V30 6386 H 643.646 1.13619 4.95028 0
M  V30 6387 H 643.576 -0.62197 5.22914 0
M  V30 6388 H 646.067 -0.0430298 3.77876 0
M  V30 6389 H 646.38 0.537536 7.70928 0
M  V30 6390 H 644.725 0.476488 6.93365 0
M  V30 6391 H 647.916 0.0309561 4.6809 0
M  V30 6392 H 648.089 0.295471 6.47326 0
M  V30 6393 N 641.495 -1.56914 -0.146875 0
M  V30 6394 C 642.741 -1.83628 -0.860741 0
M  V30 6395 C 643.074 -0.708528 -1.80813 0
M  V30 6396 O 642.349 0.287838 -1.92358 0
M  V30 6397 C 642.632 -3.20836 -1.63511 0
M  V30 6398 C 642.485 -4.44174 -0.709199 0
M  V30 6399 C 643.804 -3.55268 -2.59756 0
M  V30 6400 H 640.923 -0.667949 -0.311468 0
M  V30 6401 H 643.565 -1.89582 -0.125936 0
M  V30 6402 H 641.715 -3.15891 -2.26153 0
M  V30 6403 H 643.387 -4.61205 -0.0937781 0
M  V30 6404 H 641.63 -4.33796 -0.0187856 0
M  V30 6405 H 642.301 -5.36785 -1.28707 0
M  V30 6406 H 644.777 -3.60824 -2.07232 0
M  V30 6407 H 643.653 -4.52303 -3.10987 0
M  V30 6408 H 643.914 -2.81231 -3.41118 0
M  V30 6409 N 642.974 0.416227 -1.52004 0
M  V30 6410 C 644.221 1.16383 -1.65714 0
M  V30 6411 C 644.549 1.9068 -0.383594 0
M  V30 6412 O 643.804 1.85174 0.633185 0
M  V30 6413 C 644.103 2.18923 -2.82502 0
M  V30 6414 C 643.769 1.61485 -4.20991 0
M  V30 6415 C 642.431 1.45545 -4.58661 0
M  V30 6416 C 644.783 1.19468 -5.07323 0
M  V30 6417 C 642.111 0.860937 -5.80349 0
M  V30 6418 C 644.463 0.614386 -6.29609 0
M  V30 6419 C 643.127 0.442056 -6.66035 0
M  V30 6420 H 642.397 0.425875 -0.606392 0
M  V30 6421 H 645.044 0.45199 -1.8609 0
M  V30 6422 H 643.349 2.96225 -2.56433 0
M  V30 6423 H 645.046 2.76628 -2.90307 0
M  V30 6424 H 641.636 1.74873 -3.91302 0
M  V30 6425 H 645.82 1.30596 -4.78809 0
M  V30 6426 H 641.076 0.715372 -6.072 0
M  V30 6427 H 645.25 0.280393 -6.95835 0
M  V30 6428 H 642.877 -0.0207218 -7.60197 0
M  V30 6429 N 644.452 1.42507 0.673017 0
M  V30 6430 C 645.68 1.46473 1.46128 0
M  V30 6431 C 646.095 0.0765912 1.88645 0
M  V30 6432 O 645.452 -0.909057 1.58248 0
M  V30 6433 C 645.503 2.39339 2.70923 0
M  V30 6434 O 645.224 3.72752 2.3019 0
M  V30 6435 C 646.725 2.52343 3.64469 0
M  V30 6436 H 643.945 0.49812 0.449575 0
M  V30 6437 H 646.489 1.87041 0.826802 0
M  V30 6438 H 644.644 2.02019 3.30556 0
M  V30 6439 H 645.058 4.22503 3.10791 0
M  V30 6440 H 646.532 3.2144 4.48754 0
M  V30 6441 H 647.009 1.56189 4.1049 0
M  V30 6442 H 647.615 2.90392 3.10729 0
M  V30 6443 N 645.93 -0.909495 1.28709 0
M  V30 6444 C 647.155 -1.69801 1.1909 0
M  V30 6445 C 647.58 -1.86479 -0.246388 0
M  V30 6446 O 646.938 -1.37802 -1.17815 0
M  V30 6447 C 646.986 -3.06543 1.89904 0
M  V30 6448 O 646.09 -3.94268 1.2094 0
M  V30 6449 H 645.431 -0.519783 0.413185 0
M  V30 6450 H 647.961 -1.13689 1.70106 0
M  V30 6451 H 647.971 -3.56748 1.97977 0
M  V30 6452 H 646.646 -2.93722 2.94449 0
M  V30 6453 H 645.223 -3.52702 1.2106 0
M  V30 6454 N 647.408 -1.11026 -1.11852 0
M  V30 6455 C 648.654 -0.867633 -1.83967 0
M  V30 6456 C 649.009 0.600309 -1.82795 0
M  V30 6457 O 648.302 1.43731 -1.26696 0
M  V30 6458 C 648.496 -1.35777 -3.30604 0
M  V30 6459 C 648.325 -2.87183 -3.46058 0
M  V30 6460 C 647.095 -3.55256 -3.59334 0
M  V30 6461 C 649.293 -3.85258 -3.40706 0
M  V30 6462 N 647.275 -4.94923 -3.63215 0
M  V30 6463 C 648.646 -5.1097 -3.51155 0
M  V30 6464 C 650.701 -3.77879 -3.2421 0
M  V30 6465 C 649.404 -6.30171 -3.46809 0
M  V30 6466 C 651.43 -4.96586 -3.2118 0
M  V30 6467 C 650.792 -6.21149 -3.32196 0
M  V30 6468 H 646.891 -0.370574 -0.688621 0
M  V30 6469 H 649.475 -1.41379 -1.33865 0
M  V30 6470 H 647.646 -0.83885 -3.79233 0
M  V30 6471 H 649.378 -1.05874 -3.90606 0
M  V30 6472 H 646.133 -3.05714 -3.61713 0
M  V30 6473 H 646.557 -5.67726 -3.68804 0
M  V30 6474 H 651.199 -2.82485 -3.14582 0
M  V30 6475 H 648.917 -7.25847 -3.55206 0
M  V30 6476 H 652.503 -4.92591 -3.09589 0
M  V30 6477 H 651.383 -7.11463 -3.29834 0
M  V30 6478 N 648.886 1.2938 -0.899927 0
M  V30 6479 C 650.114 1.99691 -0.541386 0
M  V30 6480 C 650.529 1.67355 0.873936 0
M  V30 6481 O 649.886 0.918728 1.57688 0
M  V30 6482 C 649.937 3.54168 -0.72438 0
M  V30 6483 O 649.658 3.85359 -2.08399 0
M  V30 6484 C 651.159 4.41746 -0.370819 0
M  V30 6485 H 648.379 0.638037 -0.207726 0
M  V30 6486 H 650.923 1.6491 -1.20934 0
M  V30 6487 H 649.078 3.87261 -0.103607 0
M  V30 6488 H 649.492 4.80032 -2.11352 0
M  V30 6489 H 650.966 5.49256 -0.549693 0
M  V30 6490 H 651.443 4.33712 0.692148 0
M  V30 6491 H 652.049 4.14125 -0.968543 0
M  V30 6492 N 650.364 0.662433 1.43002 0
M  V30 6493 C 651.612 0.179237 2.01304 0
M  V30 6494 C 651.933 -1.21428 1.52579 0
M  V30 6495 O 651.203 -1.81294 0.742252 0
M  V30 6496 H 649.783 0.0632725 0.744316 0
M  V30 6497 H 652.445 0.856169 1.75088 0
M  V30 6498 H 651.541 0.170957 3.11631 0
M  V30 6499 N 651.842 -1.52309 0.404946 0
M  V30 6500 C 653.09 -2.01368 -0.17186 0
M  V30 6501 C 653.411 -1.29261 -1.46002 0
M  V30 6502 O 652.681 -0.41729 -1.91404 0
M  V30 6503 H 651.261 -0.744034 -0.0664993 0
M  V30 6504 H 653.923 -1.87263 0.540228 0
M  V30 6505 H 653.019 -3.09888 -0.370957 0
M  V30 6506 N 653.32 -0.135238 -1.57019 0
M  V30 6507 C 654.568 0.51777 -1.95355 0
M  V30 6508 C 654.889 1.6617 -1.02042 0
M  V30 6509 O 654.159 1.95738 -0.0797343 0
M  V30 6510 H 652.739 0.194264 -0.721298 0
M  V30 6511 H 655.401 -0.207983 -1.93787 0
M  V30 6512 H 654.497 0.901675 -2.98791 0
M  V30 6513 N 654.798 1.5699 0.138552 0
M  V30 6514 C 655.761 1.97984 1.15478 0
M  V30 6515 C 656.761 0.867416 1.35398 0
M  V30 6516 O 657.951 1.13387 1.32246 0
M  V30 6517 C 655.083 2.3031 2.51337 0
M  V30 6518 H 656.276 2.88953 0.802896 0
M  V30 6519 H 653.829 1.51555 0.382189 0
M  V30 6520 H 654.564 1.42159 2.91481 0
M  V30 6521 H 654.349 3.11425 2.38237 0
M  V30 6522 H 655.839 2.62834 3.24512 0
M  V30 6523 N 656.276 -0.40816 1.52223 0
M  V30 6524 C 657.239 -1.48 1.7501 0
M  V30 6525 C 658.239 -1.48367 0.619996 0
M  V30 6526 O 659.429 -1.49874 0.887881 0
M  V30 6527 C 656.561 -2.87403 1.83336 0
M  V30 6528 H 657.754 -1.29086 2.70697 0
M  V30 6529 H 655.307 -0.638715 1.42654 0
M  V30 6530 H 656.042 -3.11686 0.895677 0
M  V30 6531 H 655.827 -2.8854 2.65494 0
M  V30 6532 H 657.317 -3.65103 2.02705 0
M  V30 6533 N 657.755 -1.42862 -0.66545 0
M  V30 6534 C 658.718 -1.46756 -1.76055 0
M  V30 6535 C 659.718 -0.353866 -1.56858 0
M  V30 6536 O 660.908 -0.615099 -1.62979 0
M  V30 6537 C 658.04 -1.30829 -3.14796 0
M  V30 6538 H 659.233 -2.44271 -1.73987 0
M  V30 6539 H 656.786 -1.29447 -0.875965 0
M  V30 6540 H 657.521 -0.342733 -3.22484 0
M  V30 6541 H 657.306 -2.11551 -3.30134 0
M  V30 6542 H 658.796 -1.36458 -3.94676 0
M  V30 6543 N 659.233 0.902656 -1.29189 0
M  V30 6544 C 660.458 1.69167 -1.19989 0
M  V30 6545 C 660.883 1.86607 0.236495 0
M  V30 6546 O 660.241 1.38425 1.17082 0
M  V30 6547 C 660.289 3.05532 -1.91527 0
M  V30 6548 O 659.393 3.93621 -1.2303 0
M  V30 6549 H 658.734 0.517584 -0.415936 0
M  V30 6550 H 661.264 1.12785 -1.70706 0
M  V30 6551 H 661.274 3.55693 -1.99866 0
M  V30 6552 H 659.949 2.92156 -2.96003 0
M  V30 6553 H 658.526 3.52055 -1.22928 0
M  V30 6554 N 660.711 1.11618 1.11262 0
M  V30 6555 C 662.127 0.850468 1.35053 0
M  V30 6556 C 662.327 -0.523868 1.94571 0
M  V30 6557 O 661.383 -1.2743 2.17986 0
M  V30 6558 C 662.696 1.96005 2.28041 0
M  V30 6559 C 664.244 1.98993 2.416 0
M  V30 6560 C 664.719 3.0916 3.37911 0
M  V30 6561 N 666.21 3.08547 3.45475 0
M  V30 6562 C 666.945 3.9043 4.19943 0
M  V30 6563 N 666.441 4.8228 4.97371 0
M  V30 6564 N 668.234 3.786 4.15474 0
M  V30 6565 H 660.385 2.00184 0.709932 0
M  V30 6566 H 662.648 0.870635 0.375099 0
M  V30 6567 H 662.354 2.9499 1.91503 0
M  V30 6568 H 662.228 1.85782 3.28275 0
M  V30 6569 H 664.615 1.00633 2.77411 0
M  V30 6570 H 664.696 2.13292 1.4121 0
M  V30 6571 H 664.34 4.07748 3.02827 0
M  V30 6572 H 664.27 2.92102 4.3816 0
M  V30 6573 H 666.761 2.42 2.90249 0
M  V30 6574 H 667.074 5.41289 5.51567 0
M  V30 6575 H 665.419 4.863 4.96525 0
M  V30 6576 H 668.61 3.06185 3.54074 0
M  V30 6577 H 668.783 4.42647 4.73253 0
M  V30 6578 N 662.189 -1.289 0.906776 0
M  V30 6579 C 663.119 -2.29932 0.406659 0
M  V30 6580 C 664.1 -1.6189 -0.522061 0
M  V30 6581 O 665.285 -1.8935 -0.431283 0
M  V30 6582 C 662.415 -3.45425 -0.360366 0
M  V30 6583 C 661.369 -4.25316 0.478574 0
M  V30 6584 C 660.695 -5.33076 -0.416373 0
M  V30 6585 C 661.995 -4.92739 1.7322 0
M  V30 6586 H 663.689 -2.72013 1.25097 0
M  V30 6587 H 661.235 -1.30768 0.602977 0
M  V30 6588 H 663.188 -4.15186 -0.721029 0
M  V30 6589 H 661.912 -3.02206 -1.23852 0
M  V30 6590 H 660.571 -3.57273 0.821662 0
M  V30 6591 H 660.219 -4.86101 -1.29287 0
M  V30 6592 H 659.919 -5.8743 0.141309 0
M  V30 6593 H 661.443 -6.05686 -0.773072 0
M  V30 6594 H 662.857 -5.54898 1.44086 0
M  V30 6595 H 661.254 -5.57057 2.23175 0
M  V30 6596 H 662.324 -4.17625 2.46408 0
M  V30 6597 N 663.667 -0.670007 -1.42649 0
M  V30 6598 C 664.892 -0.196955 -2.06463 0
M  V30 6599 C 665.317 1.1352 -1.49983 0
M  V30 6600 O 664.675 1.705 -0.616397 0
M  V30 6601 C 664.723 -0.137381 -3.60338 0
M  V30 6602 O 663.827 0.895523 -4.02559 0
M  V30 6603 H 663.168 -0.102579 -0.656029 0
M  V30 6604 H 665.698 -0.917669 -1.82866 0
M  V30 6605 H 665.708 0.0403625 -4.0798 0
M  V30 6606 H 664.383 -1.10977 -4.0082 0
M  V30 6607 H 662.96 0.689209 -3.66476 0
M  V30 6608 N 665.145 1.52092 -0.413018 0
M  V30 6609 C 666.422 1.94356 0.22024 0
M  V30 6610 C 666.802 1.35017 1.62277 0
M  V30 6611 O 666.15 0.527511 2.22328 0
M  V30 6612 C 666.36 3.48289 0.222638 0
M  V30 6613 C 667.708 4.22313 0.440098 0
M  V30 6614 O 668.732 3.54919 0.301826 0
M  V30 6615 O 667.591 5.41829 0.712984 0
M  V30 6616 H 664.685 0.814536 0.14304 0
M  V30 6617 H 667.231 1.63083 -0.469242 0
M  V30 6618 H 666.003 3.83872 -0.758836 0
M  V30 6619 H 665.626 3.85934 0.956057 0
M  V30 6620 N 666.623 0.143563 1.56945 0
M  V30 6621 C 667.869 -0.502787 1.97088 0
M  V30 6622 C 668.224 -1.62703 1.02691 0
M  V30 6623 O 667.517 -1.91502 0.0613323 0
M  V30 6624 C 667.711 -1.05885 3.41355 0
M  V30 6625 C 667.54 0.00998209 4.49699 0
M  V30 6626 C 666.31 0.450229 5.0329 0
M  V30 6627 C 668.508 0.800174 5.08037 0
M  V30 6628 N 666.49 1.50227 5.95235 0
M  V30 6629 C 667.861 1.70279 5.96158 0
M  V30 6630 C 669.916 0.848344 4.9062 0
M  V30 6631 C 668.619 2.64945 6.68728 0
M  V30 6632 C 670.645 1.78281 5.63888 0
M  V30 6633 C 670.007 2.67296 6.51715 0
M  V30 6634 H 666.106 -0.152891 0.766908 0
M  V30 6635 H 668.69 0.23737 1.93248 0
M  V30 6636 H 666.861 -1.76863 3.45795 0
M  V30 6637 H 668.593 -1.67154 3.68567 0
M  V30 6638 H 665.348 0.0531355 4.7357 0
M  V30 6639 H 665.772 2.02795 6.45913 0
M  V30 6640 H 670.414 0.174228 4.22441 0
M  V30 6641 H 668.132 3.33358 7.36137 0
M  V30 6642 H 671.718 1.82584 5.52408 0
M  V30 6643 H 670.598 3.38428 7.07415 0
M  V30 6644 N 668.101 -1.57061 -0.130224 0
M  V30 6645 C 669.031 -2.02552 -1.16168 0
M  V30 6646 C 670.012 -0.907971 -1.4384 0
M  V30 6647 O 671.197 -1.17693 -1.54473 0
M  V30 6648 C 668.327 -2.42035 -2.49071 0
M  V30 6649 C 667.281 -3.5713 -2.35886 0
M  V30 6650 C 666.607 -3.82478 -3.7365 0
M  V30 6651 C 667.907 -4.89236 -1.8288 0
M  V30 6652 H 669.601 -2.8897 -0.783359 0
M  V30 6653 H 667.147 -1.39021 -0.375376 0
M  V30 6654 H 669.1 -2.72462 -3.21469 0
M  V30 6655 H 667.824 -1.52573 -2.88771 0
M  V30 6656 H 666.483 -3.26895 -1.65938 0
M  V30 6657 H 666.131 -2.9024 -4.10816 0
M  V30 6658 H 665.831 -4.59944 -3.65685 0
M  V30 6659 H 667.355 -4.15347 -4.47571 0
M  V30 6660 H 668.769 -5.18272 -2.45085 0
M  V30 6661 H 667.166 -5.70624 -1.85763 0
M  V30 6662 H 668.236 -4.78494 -0.785571 0
M  V30 6663 N 669.579 0.400081 -1.52437 0
M  V30 6664 C 670.856 1.15973 -1.57511 0
M  V30 6665 C 671.236 2.0798 -0.361572 0
M  V30 6666 O 670.584 2.19032 0.650929 0
M  V30 6667 C 670.794 1.92912 -2.90837 0
M  V30 6668 C 672.142 2.48662 -3.44169 0
M  V30 6669 O 673.166 2.03081 -2.92637 0
M  V30 6670 O 672.025 3.31894 -4.34176 0
M  V30 6671 H 669.119 0.530023 -0.634827 0
M  V30 6672 H 671.665 0.40613 -1.64769 0
M  V30 6673 H 670.437 1.25564 -3.70607 0
M  V30 6674 H 670.06 2.75257 -2.86913 0
M  V30 6675 N 671.057 1.43213 0.657864 0
M  V30 6676 C 672.468 1.39669 1.23893 0
M  V30 6677 C 672.819 0.0984217 1.95953 0
M  V30 6678 O 671.944 -0.8023 2.00978 0
M  V30 6679 C 672.539 2.53004 2.25332 0
M  V30 6680 C 671.098 2.5274 2.78926 0
M  V30 6681 C 670.245 2.30941 1.53497 0
M  V30 6682 H 673.196 1.52181 0.450172 0
M  V30 6683 H 673.217 2.24226 3.07413 0
M  V30 6684 H 672.729 3.4748 1.72856 0
M  V30 6685 H 670.83 1.6213 3.35477 0
M  V30 6686 H 670.943 3.50352 3.26787 0
M  V30 6687 H 669.307 1.7952 1.80678 0
M  V30 6688 H 670.09 3.27496 1.02963 0
M  V30 6689 N 672.536 -0.895792 1.29666 0
M  V30 6690 C 673.499 -1.98189 1.15124 0
M  V30 6691 C 674.499 -1.60572 0.0855717 0
M  V30 6692 O 675.689 -1.70991 0.332826 0
M  V30 6693 C 672.821 -3.32289 0.761372 0
M  V30 6694 H 674.014 -2.12518 2.11603 0
M  V30 6695 H 671.567 -1.0808 1.12908 0
M  V30 6696 H 672.302 -3.23662 -0.203393 0
M  V30 6697 H 672.087 -3.60958 1.53139 0
M  V30 6698 H 673.577 -4.1198 0.682792 0
M  V30 6699 N 674.014 -1.12206 -1.10668 0
M  V30 6700 C 675.239 -0.898938 -1.86906 0
M  V30 6701 C 675.664 0.546346 -1.79991 0
M  V30 6702 O 675.022 1.38655 -1.1681 0
M  V30 6703 C 675.07 -1.37529 -3.33344 0
M  V30 6704 O 674.174 -0.55218 -4.08687 0
M  V30 6705 H 673.515 -0.323163 -0.580053 0
M  V30 6706 H 676.045 -1.49355 -1.39837 0
M  V30 6707 H 676.055 -1.3733 -3.84193 0
M  V30 6708 H 674.73 -2.42767 -3.37693 0
M  V30 6709 H 673.307 -0.620947 -3.67694 0
M  V30 6710 N 675.492 1.28418 -0.913599 0
M  V30 6711 C 676.72 1.99106 -0.562536 0
M  V30 6712 C 677.135 1.68273 0.856137 0
M  V30 6713 O 676.492 0.935401 1.56705 0
M  V30 6714 C 676.543 3.5338 -0.761903 0
M  V30 6715 O 676.264 3.83127 -2.12475 0
M  V30 6716 C 677.765 4.41328 -0.417651 0
M  V30 6717 H 674.985 0.635798 -0.214481 0
M  V30 6718 H 677.529 1.63618 -1.22676 0
M  V30 6719 H 675.684 3.8713 -0.144676 0
M  V30 6720 H 676.098 4.77763 -2.16431 0
M  V30 6721 H 677.572 5.48642 -0.607919 0
M  V30 6722 H 678.049 4.34422 0.646108 0
M  V30 6723 H 678.655 4.13074 -1.01241 0
M  V30 6724 N 676.97 0.677563 1.42291 0
M  V30 6725 C 678.218 0.200578 2.01102 0
M  V30 6726 C 678.539 -1.19803 1.53858 0
M  V30 6727 O 677.809 -1.80496 0.761439 0
M  V30 6728 H 676.389 0.0711634 0.743603 0
M  V30 6729 H 679.051 0.874691 1.7417 0
M  V30 6730 H 678.147 0.204 3.11433 0
M  V30 6731 N 678.448 -1.51871 0.421078 0
M  V30 6732 C 679.411 -2.25914 -0.386712 0
M  V30 6733 C 680.411 -1.28733 -0.963555 0
M  V30 6734 O 681.601 -1.52579 -0.840556 0
M  V30 6735 C 678.733 -3.03853 -1.54551 0
M  V30 6736 H 679.926 -2.98754 0.261978 0
M  V30 6737 H 677.479 -1.5533 0.173862 0
M  V30 6738 H 678.214 -2.35392 -2.23072 0
M  V30 6739 H 677.999 -3.75215 -1.13824 0
M  V30 6740 H 679.489 -3.59984 -2.11663 0
M  V30 6741 N 679.926 -0.151884 -1.56866 0
M  V30 6742 C 680.858 0.817008 -2.14144 0
M  V30 6743 C 681.871 1.20735 -1.0921 0
M  V30 6744 O 683.06 1.15058 -1.36469 0
M  V30 6745 C 680.16 2.10844 -2.65326 0
M  V30 6746 C 679.333 1.88471 -3.94712 0
M  V30 6747 C 678.392 3.01649 -4.31155 0
M  V30 6748 O 677.418 2.73127 -4.9939 0
M  V30 6749 N 678.62 4.28947 -3.91132 0
M  V30 6750 H 681.385 0.327448 -2.97906 0
M  V30 6751 H 678.946 0.0315313 -1.61869 0
M  V30 6752 H 680.938 2.85616 -2.86715 0
M  V30 6753 H 679.508 2.51049 -1.86262 0
M  V30 6754 H 678.728 0.977088 -3.81899 0
M  V30 6755 H 680.016 1.70866 -4.79252 0
M  V30 6756 H 679.414 4.54986 -3.36161 0
M  V30 6757 H 677.971 5.00484 -4.17563 0
M  V30 6758 N 681.404 1.57128 0.121893 0
M  V30 6759 C 682.651 1.847 0.830188 0
M  V30 6760 C 682.979 0.736543 1.80015 0
M  V30 6761 O 682.234 -0.272358 1.93796 0
M  V30 6762 C 682.533 3.1874 1.61677 0
M  V30 6763 C 682.199 4.43901 0.791361 0
M  V30 6764 C 680.861 4.77887 0.563731 0
M  V30 6765 C 683.213 5.20753 0.215823 0
M  V30 6766 C 680.541 5.86168 -0.249737 0
M  V30 6767 C 682.893 6.29891 -0.584821 0
M  V30 6768 C 681.557 6.6241 -0.822794 0
M  V30 6769 H 680.827 0.675866 0.303787 0
M  V30 6770 H 683.474 1.91276 0.0926894 0
M  V30 6771 H 681.779 3.07728 2.42509 0
M  V30 6772 H 683.476 3.37295 2.16872 0
M  V30 6773 H 680.066 4.17272 0.978867 0
M  V30 6774 H 684.25 4.94851 0.378907 0
M  V30 6775 H 679.506 6.0979 -0.44336 0
M  V30 6776 H 683.68 6.88624 -1.03779 0
M  V30 6777 H 681.307 7.46147 -1.45496 0
M  V30 6778 N 682.882 -0.391992 1.52647 0
M  V30 6779 C 684.131 -1.13449 1.6677 0
M  V30 6780 C 684.444 -1.91203 0.412399 0
M  V30 6781 O 685.65 -2.68013 0.433707 0
M  V30 6782 C 684.106 -2.06577 2.9471 0
M  V30 6783 C 683.714 -1.3426 4.27409 0
M  V30 6784 C 685.458 -2.80981 3.18198 0
M  V30 6785 C 683.365 -2.26136 5.46458 0
M  V30 6786 H 682.295 -0.427211 0.621295 0
M  V30 6787 H 684.946 -0.397522 1.79142 0
M  V30 6788 H 683.328 -2.83898 2.76076 0
M  V30 6789 H 684.502 -0.621856 4.56585 0
M  V30 6790 H 682.817 -0.718279 4.10158 0
M  V30 6791 H 685.414 -3.49898 4.04321 0
M  V30 6792 H 685.757 -3.44891 2.33144 0
M  V30 6793 H 686.29 -2.10754 3.37383 0
M  V30 6794 H 683.029 -1.66846 6.33911 0
M  V30 6795 H 682.549 -2.96134 5.21598 0
M  V30 6796 H 684.228 -2.86286 5.80215 0
M  V30 6797 N 684.36 -1.4356 -0.65026 0
M  V30 6798 C 685.637 -1.35811 -1.40765 0
M  V30 6799 C 686.017 -0.00736379 -2.11099 0
M  V30 6800 O 685.365 1.00932 -2.05 0
M  V30 6801 C 685.575 -2.54332 -2.3899 0
M  V30 6802 C 686.923 -2.97551 -3.02901 0
M  V30 6803 O 687.947 -2.544 -2.49317 0
M  V30 6804 O 686.806 -3.72311 -4.00059 0
M  V30 6805 H 683.9 -0.536861 -0.629054 0
M  V30 6806 H 686.446 -1.55615 -0.676919 0
M  V30 6807 H 685.218 -3.44274 -1.85986 0
M  V30 6808 H 684.841 -2.36643 -3.19509 0
M  V30 6809 N 685.838 0.888903 -1.30139 0
M  V30 6810 C 687.086 1.63713 -1.18501 0
M  V30 6811 C 687.407 1.9324 0.261399 0
M  V30 6812 O 686.677 1.56608 1.17689 0
M  V30 6813 H 685.257 0.606861 -0.435579 0
M  V30 6814 H 687.919 1.06525 -1.63213 0
M  V30 6815 H 687.015 2.58894 -1.743 0
M  V30 6816 N 687.317 1.12792 1.10072 0
M  V30 6817 C 688.247 0.821688 2.18565 0
M  V30 6818 C 689.228 -0.21612 1.68721 0
M  V30 6819 O 690.413 -0.0764932 1.94049 0
M  V30 6820 C 687.543 0.279624 3.46172 0
M  V30 6821 C 686.497 1.25092 4.09312 0
M  V30 6822 C 685.823 0.568916 5.31665 0
M  V30 6823 C 687.123 2.60699 4.52585 0
M  V30 6824 H 688.817 1.72888 2.44438 0
M  V30 6825 H 686.363 0.832702 1.17482 0
M  V30 6826 H 688.316 0.053099 4.21367 0
M  V30 6827 H 687.04 -0.662929 3.19801 0
M  V30 6828 H 685.699 1.46332 3.36129 0
M  V30 6829 H 685.347 -0.378898 5.01571 0
M  V30 6830 H 685.047 1.21687 5.74862 0
M  V30 6831 H 686.571 0.351517 6.09587 0
M  V30 6832 H 687.985 2.43465 5.19035 0
M  V30 6833 H 686.382 3.21608 5.06644 0
M  V30 6834 H 687.452 3.1886 3.65317 0
M  V30 6835 N 688.795 -1.27931 0.920396 0
M  V30 6836 C 690.072 -1.89728 0.475687 0
M  V30 6837 C 690.452 -1.8337 -1.04588 0
M  V30 6838 O 689.8 -1.27404 -1.89685 0
M  V30 6839 C 690.01 -3.33959 1.01354 0
M  V30 6840 C 691.358 -4.10907 1.06963 0
M  V30 6841 O 692.382 -3.42945 0.962646 0
M  V30 6842 O 691.241 -5.32399 1.23343 0
M  V30 6843 H 688.335 -0.81294 0.151845 0
M  V30 6844 H 690.881 -1.36252 1.01161 0
M  V30 6845 H 689.653 -3.32843 2.05746 0
M  V30 6846 H 689.276 -3.94944 0.458829 0
M  V30 6847 N 690.273 -0.685099 -1.4193 0
M  V30 6848 C 691.498 -0.218842 -2.06242 0
M  V30 6849 C 691.923 1.11923 -1.51178 0
M  V30 6850 O 691.281 1.69837 -0.634446 0
M  V30 6851 C 691.329 -0.175592 -3.60172 0
M  V30 6852 O 690.433 0.852776 -4.03487 0
M  V30 6853 H 689.774 -0.109531 -0.654904 0
M  V30 6854 H 692.304 -0.937013 -1.81882 0
M  V30 6855 H 692.314 -0.00291151 -4.08 0
M  V30 6856 H 690.989 -1.15222 -3.99621 0
M  V30 6857 H 689.566 0.650301 -3.67186 0
M  V30 6858 N 691.751 1.51645 -0.429126 0
M  V30 6859 C 692.999 2.01616 0.139802 0
M  V30 6860 C 693.32 1.31568 1.43927 0
M  V30 6861 O 692.59 0.447688 1.90716 0
M  V30 6862 H 691.17 0.744998 0.054654 0
M  V30 6863 H 693.832 1.8638 -0.569952 0
M  V30 6864 H 692.928 3.10439 0.321609 0
M  V30 6865 N 693.229 0.160201 1.56784 0
M  V30 6866 C 694.477 -0.486625 1.96154 0
M  V30 6867 C 694.798 -1.64525 1.04673 0
M  V30 6868 O 694.068 -1.95586 0.110864 0
M  V30 6869 H 692.648 -0.182764 0.724297 0
M  V30 6870 H 695.31 0.238787 1.93432 0
M  V30 6871 H 694.406 -0.854025 3.00188 0
M  V30 6872 N 694.707 -1.5719 -0.113559 0
M  V30 6873 C 695.955 -1.84772 -0.818761 0
M  V30 6874 C 696.276 -0.746196 -1.80158 0
M  V30 6875 O 695.546 0.229305 -1.94553 0
M  V30 6876 H 694.126 -0.681737 -0.305359 0
M  V30 6877 H 696.788 -1.94645 -0.0995845 0
M  V30 6878 H 695.884 -2.80878 -1.36067 0
M  V30 6879 N 696.185 0.383891 -1.52853 0
M  V30 6880 C 697.413 1.1495 -1.7203 0
M  V30 6881 C 697.828 1.83578 -0.440957 0
M  V30 6882 O 697.185 1.72872 0.584925 0
M  V30 6883 C 697.236 2.19368 -2.87333 0
M  V30 6884 O 696.957 1.53536 -4.10315 0
M  V30 6885 C 698.458 3.08616 -3.18231 0
M  V30 6886 H 695.678 0.344445 -0.575846 0
M  V30 6887 H 698.222 0.448397 -1.99524 0
M  V30 6888 H 696.377 2.85105 -2.62286 0
M  V30 6889 H 696.791 2.2296 -4.74752 0
M  V30 6890 H 698.265 3.77902 -4.02361 0
M  V30 6891 H 698.742 3.72409 -2.32826 0
M  V30 6892 H 699.348 2.48518 -3.45136 0
M  V30 6893 N 697.663 1.43903 0.642637 0
M  V30 6894 C 699.074 1.40975 1.22404 0
M  V30 6895 C 699.425 0.1192 1.95838 0
M  V30 6896 O 698.55 -0.780939 2.01818 0
M  V30 6897 C 699.145 2.5538 2.22636 0
M  V30 6898 C 697.704 2.55684 2.76229 0
M  V30 6899 C 696.851 2.32556 1.51039 0
M  V30 6900 H 699.802 1.5265 0.434006 0
M  V30 6901 H 699.823 2.27474 3.05017 0
M  V30 6902 H 699.335 3.49294 1.69161 0
M  V30 6903 H 697.436 1.65679 3.33738 0
M  V30 6904 H 697.549 3.53799 3.23053 0
M  V30 6905 H 695.913 1.81427 1.78764 0
M  V30 6906 H 696.696 3.28569 0.99484 0
M  V30 6907 N 699.141 -0.881989 1.30609 0
M  V30 6908 C 700.089 -2.00942 1.17155 0
M  V30 6909 C 701.083 -1.69198 0.0827154 0
M  V30 6910 O 702.289 -1.78342 0.243775 0
M  V30 6911 H 698.664 -0.658913 0.362406 0
M  V30 6912 H 700.635 -2.09423 2.12567 0
M  V30 6913 C 699.384 -3.36294 0.883273 0
M  V30 6914 H 698.707 -3.61233 1.7132 0
M  V30 6915 H 700.147 -4.15812 0.829255 0
M  V30 6916 C 698.606 -3.34348 -0.413851 0
M  V30 6917 O 699.136 -3.75216 -1.43444 0
M  V30 6918 N 697.342 -2.87459 -0.426082 0
M  V30 6919 H 696.889 -2.54397 0.40493 0
M  V30 6920 H 696.847 -2.8654 -1.29391 0
M  V30 6921 N 700.619 -1.13374 -1.09472 0
M  V30 6922 C 701.847 -0.918351 -1.85402 0
M  V30 6923 C 702.262 0.53281 -1.81126 0
M  V30 6924 O 701.619 1.36879 -1.20708 0
M  V30 6925 C 701.67 -1.39743 -3.33398 0
M  V30 6926 O 701.391 -2.79172 -3.37631 0
M  V30 6927 C 702.892 -1.22042 -4.2617 0
M  V30 6928 H 700.112 -0.327511 -0.585643 0
M  V30 6929 H 702.656 -1.50617 -1.38328 0
M  V30 6930 H 700.811 -0.852619 -3.77901 0
M  V30 6931 H 701.225 -3.00428 -4.29934 0
M  V30 6932 H 702.699 -1.60438 -5.2817 0
M  V30 6933 H 703.176 -0.162047 -4.38901 0
M  V30 6934 H 703.782 -1.75323 -3.87482 0
M  V30 6935 N 702.098 1.27442 -0.927168 0
M  V30 6936 C 703.509 1.76385 -0.611979 0
M  V30 6937 C 703.86 1.75715 0.872853 0
M  V30 6938 O 702.985 1.3603 1.683 0
M  V30 6939 C 703.58 3.20303 -1.10414 0
M  V30 6940 C 702.139 3.66916 -0.839628 0
M  V30 6941 C 701.286 2.46859 -1.26317 0
M  V30 6942 H 704.237 1.13716 -1.107 0
M  V30 6943 H 704.258 3.77811 -0.451578 0
M  V30 6944 H 703.77 3.20759 -2.18484 0
M  V30 6945 H 701.871 3.71906 0.227292 0
M  V30 6946 H 701.984 4.56415 -1.45679 0
M  V30 6947 H 700.348 2.45407 -0.681723 0
M  V30 6948 H 701.131 2.50025 -2.3525 0
M  V30 6949 N 703.576 0.692616 1.41565 0
M  V30 6950 C 704.987 0.297478 1.84315 0
M  V30 6951 C 705.338 -1.16379 1.57957 0
M  V30 6952 O 704.463 -1.89303 1.0485 0
M  V30 6953 C 705.058 0.533136 3.34579 0
M  V30 6954 C 703.617 0.191944 3.7591 0
M  V30 6955 C 702.764 0.816873 2.64995 0
M  V30 6956 H 705.715 0.893488 1.31158 0
M  V30 6957 H 705.736 -0.209105 3.79925 0
M  V30 6958 H 705.248 1.59674 3.53731 0
M  V30 6959 H 703.349 -0.867512 3.6236 0
M  V30 6960 H 703.462 0.644902 4.7474 0
M  V30 6961 H 701.826 0.246715 2.53502 0
M  V30 6962 H 702.609 1.88429 2.86966 0
M  V30 6963 N 705.054 -1.51416 0.437162 0
M  V30 6964 C 706.3 -2.02386 -0.129555 0
M  V30 6965 C 706.633 -1.32071 -1.42376 0
M  V30 6966 O 705.908 -0.43559 -1.8956 0
M  V30 6967 C 706.191 -3.5841 -0.348487 0
M  V30 6968 C 706.044 -4.39341 0.964352 0
M  V30 6969 C 707.363 -4.25654 -1.11834 0
M  V30 6970 H 704.482 -0.735587 -0.0456109 0
M  V30 6971 H 707.124 -1.81055 0.576124 0
M  V30 6972 H 705.274 -3.76716 -0.949592 0
M  V30 6973 H 706.946 -4.32685 1.59942 0
M  V30 6974 H 705.189 -4.04432 1.56898 0
M  V30 6975 H 705.86 -5.4667 0.765212 0
M  V30 6976 H 708.336 -4.11617 -0.609165 0
M  V30 6977 H 707.212 -5.34704 -1.24029 0
M  V30 6978 H 707.473 -3.86502 -2.14636 0
M  V30 6979 N 706.532 -0.168513 -1.56696 0
M  V30 6980 C 707.495 0.748928 -2.16619 0
M  V30 6981 C 708.495 1.16007 -1.11351 0
M  V30 6982 O 709.685 1.07748 -1.3688 0
M  V30 6983 C 706.817 2.01904 -2.74677 0
M  V30 6984 H 708.01 0.227317 -2.99037 0
M  V30 6985 H 705.563 0.0810372 -1.5609 0
M  V30 6986 H 706.298 2.58381 -1.95985 0
M  V30 6987 H 706.083 1.73323 -3.51712 0
M  V30 6988 H 707.573 2.67383 -3.20774 0
M  V30 6989 N 708.01 1.57248 0.105221 0
M  V30 6990 C 708.958 2.02337 1.14728 0
M  V30 6991 C 709.952 0.922652 1.42069 0
M  V30 6992 O 711.158 1.10785 1.41869 0
M  V30 6993 H 707.533 0.644682 0.387155 0
M  V30 6994 H 709.504 2.89063 0.740607 0
M  V30 6995 C 708.253 2.45513 2.46209 0
M  V30 6996 H 707.576 3.29785 2.26013 0
M  V30 6997 H 709.016 2.80846 3.1765 0
M  V30 6998 C 707.475 1.3243 3.09781 0
M  V30 6999 O 708.005 0.647841 3.96442 0
M  V30 7000 N 706.211 1.07785 2.69872 0
M  V30 7001 H 705.758 1.62973 1.99493 0
M  V30 7002 H 705.716 0.323204 3.12734 0
M  V30 7003 N 709.488 -0.375779 1.53054 0
M  V30 7004 C 710.735 -1.11948 1.68742 0
M  V30 7005 C 711.063 -1.89596 0.434015 0
M  V30 7006 O 710.318 -1.86787 -0.583867 0
M  V30 7007 C 710.617 -2.11356 2.88207 0
M  V30 7008 C 710.283 -1.50266 4.25124 0
M  V30 7009 C 708.945 -1.33333 4.62359 0
M  V30 7010 C 711.297 -1.05976 5.10312 0
M  V30 7011 C 708.625 -0.706765 5.82427 0
M  V30 7012 C 710.977 -0.447241 6.31017 0
M  V30 7013 C 709.641 -0.265314 6.66973 0
M  V30 7014 H 708.911 -0.409648 0.61747 0
M  V30 7015 H 711.558 -0.402492 1.87222 0
M  V30 7016 H 709.863 -2.89322 2.64197 0
M  V30 7017 H 711.56 -2.68833 2.97539 0
M  V30 7018 H 708.15 -1.64437 3.95801 0
M  V30 7019 H 712.334 -1.17855 4.82104 0
M  V30 7020 H 707.59 -0.554132 6.08884 0
M  V30 7021 H 711.764 -0.0958064 6.96334 0
M  V30 7022 H 709.391 0.222267 7.59875 0
M  V30 7023 N 710.966 -1.44241 -0.634997 0
M  V30 7024 C 712.194 -1.50296 -1.42193 0
M  V30 7025 C 712.609 -0.12658 -1.88375 0
M  V30 7026 O 711.966 0.86678 -1.60603 0
M  V30 7027 C 712.017 -2.46437 -2.64482 0
M  V30 7028 O 711.738 -3.78724 -2.20226 0
M  V30 7029 C 713.239 -2.61918 -3.57651 0
M  V30 7030 H 710.459 -0.509865 -0.43621 0
M  V30 7031 H 713.003 -1.89167 -0.776921 0
M  V30 7032 H 711.158 -2.10712 -3.25083 0
M  V30 7033 H 711.572 -4.30595 -2.9948 0
M  V30 7034 H 713.046 -3.33225 -4.40074 0
M  V30 7035 H 713.523 -1.67017 -4.06204 0
M  V30 7036 H 714.129 -2.98528 -3.02921 0
M  V30 7037 N 712.444 0.87505 -1.31075 0
M  V30 7038 C 713.669 1.66583 -1.23551 0
M  V30 7039 C 714.094 1.87067 0.19686 0
M  V30 7040 O 713.452 1.40877 1.1412 0
M  V30 7041 C 713.5 3.01401 -1.97965 0
M  V30 7042 O 712.604 3.90923 -1.31351 0
M  V30 7043 H 711.945 0.508645 -0.426821 0
M  V30 7044 H 714.475 1.09139 -1.7306 0
M  V30 7045 H 714.485 3.51374 -2.07366 0
M  V30 7046 H 713.16 2.85812 -3.02133 0
M  V30 7047 H 711.737 3.49369 -1.30368 0
M  V30 7048 N 713.922 1.13953 1.08869 0
M  V30 7049 C 715.15 0.92817 1.84912 0
M  V30 7050 C 715.565 -0.523197 1.81406 0
M  V30 7051 O 714.922 -1.36237 1.21432 0
M  V30 7052 C 714.973 1.41509 3.32652 0
M  V30 7053 O 714.694 2.80959 3.36145 0
M  V30 7054 C 716.195 1.243 4.25517 0
M  V30 7055 H 713.415 0.330612 0.583898 0
M  V30 7056 H 715.959 1.51349 1.37527 0
M  V30 7057 H 714.114 0.872648 3.77444 0
M  V30 7058 H 714.528 3.02704 4.28335 0
M  V30 7059 H 716.002 1.63237 5.27312 0
M  V30 7060 H 716.479 0.18532 4.38809 0
M  V30 7061 H 717.085 1.77375 3.86546 0
M  V30 7062 N 715.4 -1.26948 0.933913 0
M  V30 7063 C 716.628 -1.98186 0.59414 0
M  V30 7064 C 717.043 -1.69614 -0.829257 0
M  V30 7065 O 716.4 -0.960213 -1.55197 0
M  V30 7066 C 716.451 -3.52123 0.818026 0
M  V30 7067 O 716.172 -3.79698 2.18543 0
M  V30 7068 C 717.673 -4.40608 0.48781 0
M  V30 7069 H 714.893 -0.632305 0.224569 0
M  V30 7070 H 717.437 -1.61646 1.25263 0
M  V30 7071 H 715.592 -3.86851 0.206246 0
M  V30 7072 H 716.006 -4.7426 2.24005 0
M  V30 7073 H 717.48 -5.47606 0.695126 0
M  V30 7074 H 717.957 -4.35394 -0.576913 0
M  V30 7075 H 718.563 -4.11411 1.078 0
M  V30 7076 N 716.879 -0.700114 -1.41195 0
M  V30 7077 C 718.104 -0.240704 -2.05998 0
M  V30 7078 C 718.529 1.10313 -1.52357 0
M  V30 7079 O 717.887 1.69154 -0.652424 0
M  V30 7080 C 717.935 -0.213783 -3.59966 0
M  V30 7081 O 717.039 0.809933 -4.04368 0
M  V30 7082 H 716.38 -0.116471 -0.653705 0
M  V30 7083 H 718.91 -0.956251 -1.80878 0
M  V30 7084 H 718.92 -0.0461852 -4.07974 0
M  V30 7085 H 717.595 -1.19454 -3.98376 0
M  V30 7086 H 716.172 0.611319 -3.67855 0
M  V30 7087 N 718.357 1.51182 -0.445186 0
M  V30 7088 C 719.605 2.01753 0.11841 0
M  V30 7089 C 719.926 1.33087 1.42523 0
M  V30 7090 O 719.196 0.467891 1.9023 0
M  V30 7091 H 717.776 0.745536 0.0467492 0
M  V30 7092 H 720.438 1.85765 -0.589688 0
M  V30 7093 H 719.534 3.10762 0.288665 0
M  V30 7094 N 719.835 0.176821 1.56605 0
M  V30 7095 C 720.765 -0.746841 2.21234 0
M  V30 7096 C 721.746 -1.23502 1.16967 0
M  V30 7097 O 722.931 -1.28718 1.45414 0
M  V30 7098 C 720.061 -1.97407 2.8574 0
M  V30 7099 C 719.015 -1.62153 3.96094 0
M  V30 7100 C 718.341 -2.92387 4.47676 0
M  V30 7101 C 719.641 -0.845353 5.15413 0
M  V30 7102 H 721.335 -0.208116 2.98676 0
M  V30 7103 H 718.881 -0.0986594 1.43662 0
M  V30 7104 H 720.834 -2.62531 3.2963 0
M  V30 7105 H 719.558 -2.53703 2.05676 0
M  V30 7106 H 718.217 -0.993964 3.52868 0
M  V30 7107 H 717.865 -3.46734 3.64396 0
M  V30 7108 H 717.565 -2.69551 5.22127 0
M  V30 7109 H 719.089 -3.5853 4.94255 0
M  V30 7110 H 720.503 -1.39929 5.55961 0
M  V30 7111 H 718.9 -0.715814 5.95815 0
M  V30 7112 H 719.97 0.157239 4.84645 0
M  V30 7113 N 721.313 -1.57302 -0.09688 0
M  V30 7114 C 722.541 -1.90202 -0.814295 0
M  V30 7115 C 722.956 -0.770344 -1.72369 0
M  V30 7116 O 722.313 0.257764 -1.8067 0
M  V30 7117 C 722.364 -3.22708 -1.62916 0
M  V30 7118 O 722.085 -4.31522 -0.756343 0
M  V30 7119 C 723.586 -3.69459 -2.44979 0
M  V30 7120 H 720.806 -0.629275 -0.232925 0
M  V30 7121 H 723.35 -2.04364 -0.0746482 0
M  V30 7122 H 721.505 -3.1015 -2.32133 0
M  V30 7123 H 721.919 -5.07604 -1.32054 0
M  V30 7124 H 723.393 -4.64875 -2.9765 0
M  V30 7125 H 723.87 -2.97211 -3.23361 0
M  V30 7126 H 724.476 -3.84879 -1.80964 0
M  V30 7127 N 722.791 0.367657 -1.53252 0
M  V30 7128 C 723.754 1.43308 -1.78873 0
M  V30 7129 C 724.754 1.46671 -0.659115 0
M  V30 7130 O 725.944 1.47468 -0.927306 0
M  V30 7131 C 723.076 2.82442 -1.90892 0
M  V30 7132 H 724.269 1.21864 -2.74024 0
M  V30 7133 H 721.822 0.600668 -1.44297 0
M  V30 7134 H 722.557 3.09202 -0.978 0
M  V30 7135 H 722.342 2.81399 -2.73051 0
M  V30 7136 H 723.832 3.59601 -2.12314 0
M  V30 7137 N 724.269 1.44576 0.627338 0
M  V30 7138 C 725.497 1.51048 1.41394 0
M  V30 7139 C 725.912 0.136568 1.88305 0
M  V30 7140 O 725.269 -0.858251 1.6106 0
M  V30 7141 C 725.32 2.47837 2.63172 0
M  V30 7142 O 725.041 3.79887 2.18215 0
M  V30 7143 C 726.542 2.63811 3.56257 0
M  V30 7144 H 723.762 0.512171 0.4335 0
M  V30 7145 H 726.306 1.89576 0.766878 0
M  V30 7146 H 724.461 2.12433 3.23961 0
M  V30 7147 H 724.875 4.32177 2.97192 0
M  V30 7148 H 726.349 3.35554 4.38301 0
M  V30 7149 H 726.826 1.69169 4.05313 0
M  V30 7150 H 727.432 3.0013 3.01333 0
M  V30 7151 N 725.747 -0.868086 1.31537 0
M  V30 7152 C 726.994 -1.62127 1.2133 0
M  V30 7153 C 727.322 -1.93158 -0.2281 0
M  V30 7154 O 726.577 -1.5632 -1.1774 0
M  V30 7155 C 726.876 -2.95889 2.0046 0
M  V30 7156 C 726.542 -2.84343 3.49943 0
M  V30 7157 C 725.204 -2.80901 3.90702 0
M  V30 7158 C 727.556 -2.71243 4.45058 0
M  V30 7159 C 724.884 -2.6222 5.24841 0
M  V30 7160 C 727.236 -2.54098 5.79325 0
M  V30 7161 C 725.9 -2.4904 6.19302 0
M  V30 7162 H 725.17 -0.593265 0.443979 0
M  V30 7163 H 727.817 -1.00803 1.62822 0
M  V30 7164 H 726.122 -3.61259 1.51655 0
M  V30 7165 H 727.819 -3.53161 1.89942 0
M  V30 7166 H 724.409 -2.8784 3.17563 0
M  V30 7167 H 728.593 -2.72956 4.14498 0
M  V30 7168 H 723.849 -2.56731 5.54887 0
M  V30 7169 H 728.023 -2.42938 6.52652 0
M  V30 7170 H 725.65 -2.34324 7.23185 0
M  V30 7171 N 727.225 -1.14528 -1.08264 0
M  V30 7172 C 728.453 -0.937964 -1.84418 0
M  V30 7173 C 728.868 0.51357 -1.81681 0
M  V30 7174 O 728.225 1.35591 -1.22153 0
M  V30 7175 C 728.276 -1.43272 -3.31897 0
M  V30 7176 O 727.997 -2.82738 -3.34651 0
M  V30 7177 C 729.498 -1.26555 -4.24851 0
M  V30 7178 H 726.718 -0.333704 -0.582136 0
M  V30 7179 H 729.262 -1.52076 -1.36723 0
M  V30 7180 H 727.417 -0.892653 -3.76975 0
M  V30 7181 H 727.831 -3.04971 -4.26724 0
M  V30 7182 H 729.305 -1.66031 -5.26439 0
M  V30 7183 H 729.782 -0.208589 -4.38704 0
M  V30 7184 H 730.388 -1.79423 -3.856 0
M  V30 7185 N 728.703 1.26451 -0.940633 0
M  V30 7186 C 729.98 1.88947 -0.505811 0
M  V30 7187 C 730.36 1.85011 1.01657 0
M  V30 7188 O 729.708 1.30406 1.87634 0
M  V30 7189 C 729.918 3.32304 -1.06654 0
M  V30 7190 C 731.266 4.09153 -1.13486 0
M  V30 7191 O 732.29 3.41371 -1.01708 0
M  V30 7192 O 731.149 5.30369 -1.31797 0
M  V30 7193 H 728.243 0.810422 -0.164759 0
M  V30 7194 H 730.789 1.34625 -1.03316 0
M  V30 7195 H 729.561 3.29527 -2.11015 0
M  V30 7196 H 729.184 3.94164 -0.521603 0
M  V30 7197 N 730.181 0.707592 1.40822 0
M  V30 7198 C 731.406 0.251626 2.05868 0
M  V30 7199 C 731.831 -1.09503 1.5294 0
M  V30 7200 O 731.189 -1.68806 0.661385 0
M  V30 7201 C 731.237 0.23287 3.59847 0
M  V30 7202 O 730.341 -0.788477 4.04792 0
M  V30 7203 H 729.682 0.119936 0.653078 0
M  V30 7204 H 732.212 0.96583 1.80369 0
M  V30 7205 H 732.222 0.0678204 4.07944 0
M  V30 7206 H 730.897 1.21565 3.97737 0
M  V30 7207 H 729.474 -0.591802 3.68174 0
M  V30 7208 N 731.66 -1.50943 0.453197 0
M  V30 7209 C 732.885 -2.07116 -0.108463 0
M  V30 7210 C 733.31 -1.31681 -1.3432 0
M  V30 7211 O 732.668 -0.359256 -1.77705 0
M  V30 7212 C 732.716 -3.58447 -0.393424 0
M  V30 7213 O 731.82 -3.85038 -1.47714 0
M  V30 7214 H 731.161 -0.66398 0.0050993 0
M  V30 7215 H 733.691 -1.94362 0.639095 0
M  V30 7216 H 733.701 -4.02961 -0.639222 0
M  V30 7217 H 732.376 -4.12774 0.508946 0
M  V30 7218 H 730.953 -3.52376 -1.22006 0
M  V30 7219 N 733.138 -0.185124 -1.56509 0
M  V30 7220 C 734.366 0.462139 -2.01673 0
M  V30 7221 C 734.781 1.55873 -1.06532 0
M  V30 7222 O 734.138 1.82371 -0.0684805 0
M  V30 7223 C 734.189 1.0277 -3.46584 0
M  V30 7224 O 733.91 -0.0251296 -4.38093 0
M  V30 7225 C 735.411 1.75183 -4.07217 0
M  V30 7226 H 732.631 0.117001 -0.660721 0
M  V30 7227 H 735.175 -0.290905 -2.0242 0
M  V30 7228 H 733.33 1.73118 -3.46568 0
M  V30 7229 H 733.744 0.394387 -5.23015 0
M  V30 7230 H 735.218 2.09999 -5.10494 0
M  V30 7231 H 735.695 2.6519 -3.50101 0
M  V30 7232 H 736.301 1.09445 -4.10977 0
M  V30 7233 N 734.616 1.57351 0.0885366 0
M  V30 7234 C 735.893 1.77449 0.822873 0
M  V30 7235 C 736.273 0.768463 1.96616 0
M  V30 7236 O 735.621 -0.201757 2.27608 0
M  V30 7237 C 735.831 3.23425 1.31137 0
M  V30 7238 C 737.179 3.86791 1.75152 0
M  V30 7239 O 738.203 3.27215 1.40745 0
M  V30 7240 O 737.062 4.91568 2.38794 0
M  V30 7241 H 734.156 0.727653 0.393002 0
M  V30 7242 H 736.702 1.69556 0.0699095 0
M  V30 7243 H 735.474 3.88188 0.49254 0
M  V30 7244 H 735.097 3.35977 2.12615 0
M  V30 7245 N 736.094 -0.359525 1.53444 0
M  V30 7246 C 737.319 -1.12644 1.74144 0
M  V30 7247 C 737.744 -1.82082 0.472007 0
M  V30 7248 O 737.102 -1.71962 -0.57436 0
M  V30 7249 C 737.15 -2.12781 2.9113 0
M  V30 7250 O 736.254 -3.19984 2.60162 0
M  V30 7251 H 735.595 -0.326553 0.578152 0
M  V30 7252 H 738.125 -0.414798 2.00351 0
M  V30 7253 H 738.135 -2.56278 3.17467 0
M  V30 7254 H 736.81 -1.61634 3.83207 0
M  V30 7255 H 735.387 -2.81417 2.44661 0
M  V30 7256 N 737.572 -1.44907 -0.619662 0
M  V30 7257 C 738.849 -1.38766 -1.37852 0
M  V30 7258 C 739.229 -0.0521393 -2.11036 0
M  V30 7259 O 738.577 0.965613 -2.07095 0
M  V30 7260 C 738.787 -2.59344 -2.33541 0
M  V30 7261 C 740.135 -3.03909 -2.96521 0
M  V30 7262 O 741.159 -2.59631 -2.43865 0
M  V30 7263 O 740.018 -3.80713 -3.92071 0
M  V30 7264 H 737.112 -0.550083 -0.617525 0
M  V30 7265 H 739.658 -1.57015 -0.643759 0
M  V30 7266 H 738.43 -3.48142 -1.78642 0
M  V30 7267 H 738.053 -2.43367 -3.14417 0
M  V30 7268 N 739.05 0.861098 -1.31996 0
M  V30 7269 C 740.298 1.61162 -1.21947 0
M  V30 7270 C 740.619 1.93751 0.220351 0
M  V30 7271 O 739.889 1.59069 1.14341 0
M  V30 7272 H 738.469 0.597485 -0.448353 0
M  V30 7273 H 741.131 1.03039 -1.65436 0
M  V30 7274 H 740.227 2.55138 -1.79752 0
M  V30 7275 N 740.528 1.15101 1.07655 0
M  V30 7276 C 741.753 0.948177 1.84457 0
M  V30 7277 C 742.178 -0.498432 1.81376 0
M  V30 7278 O 741.536 -1.35509 1.20445 0
M  V30 7279 C 741.584 1.46318 3.29581 0
M  V30 7280 O 740.688 0.660342 4.07079 0
M  V30 7281 H 740.029 0.338428 0.571281 0
M  V30 7282 H 742.559 1.5301 1.35828 0
M  V30 7283 H 742.569 1.47468 3.80417 0
M  V30 7284 H 741.244 2.51635 3.31138 0
M  V30 7285 H 739.821 0.718216 3.65918 0
M  V30 7286 N 742.006 -1.2595 0.947325 0
M  V30 7287 C 743.255 -1.92759 0.593887 0
M  V30 7288 C 743.568 -1.75083 -0.872093 0
M  V30 7289 O 744.774 -2.36401 -1.33518 0
M  V30 7290 C 743.23 -3.45395 1.01144 0
M  V30 7291 C 742.838 -3.71795 2.49946 0
M  V30 7292 C 744.582 -4.18173 0.730185 0
M  V30 7293 C 742.489 -5.17901 2.85539 0
M  V30 7294 H 741.419 -0.721676 0.218403 0
M  V30 7295 H 744.07 -1.4293 1.15079 0
M  V30 7296 H 742.452 -3.94143 0.383007 0
M  V30 7297 H 743.626 -3.33728 3.17746 0
M  V30 7298 H 741.941 -3.12263 2.75465 0
M  V30 7299 H 744.538 -5.25784 0.972367 0
M  V30 7300 H 744.881 -4.14964 -0.333223 0
M  V30 7301 H 745.414 -3.75309 1.31862 0
M  V30 7302 H 742.153 -5.26216 3.90867 0
M  V30 7303 H 741.673 -5.57042 2.22406 0
M  V30 7304 H 743.352 -5.8596 2.74336 0
M  V30 7305 N 743.484 -0.715051 -1.40445 0
M  V30 7306 C 744.447 -0.0708726 -2.2909 0
M  V30 7307 C 745.447 0.687926 -1.45342 0
M  V30 7308 O 746.637 0.519908 -1.66261 0
M  V30 7309 C 743.769 0.909528 -3.28543 0
M  V30 7310 H 744.962 -0.851611 -2.87555 0
M  V30 7311 H 742.515 -0.479674 -1.48758 0
M  V30 7312 H 743.25 1.71734 -2.75096 0
M  V30 7313 H 743.035 0.368318 -3.90366 0
M  V30 7314 H 744.525 1.35744 -3.94922 0
M  V30 7315 N 744.962 1.50701 -0.461195 0
M  V30 7316 C 746.187 2.07171 0.0974773 0
M  V30 7317 C 746.612 1.32391 1.3362 0
M  V30 7318 O 745.97 0.368676 1.77512 0
M  V30 7319 C 746.018 3.58651 0.374409 0
M  V30 7320 O 745.122 3.85816 1.4567 0
M  V30 7321 H 744.463 0.663944 -0.00862047 0
M  V30 7322 H 746.993 1.94021 -0.649394 0
M  V30 7323 H 747.003 4.03295 0.617843 0
M  V30 7324 H 745.678 4.12498 -0.530829 0
M  V30 7325 H 744.255 3.53018 1.20136 0
M  V30 7326 N 746.441 0.193421 1.56409 0
M  V30 7327 C 747.857 -0.162447 1.58771 0
M  V30 7328 C 748.057 -1.6116 1.20954 0
M  V30 7329 O 747.113 -2.3469 0.931497 0
M  V30 7330 C 748.426 0.138391 3.00381 0
M  V30 7331 C 749.974 0.0783649 3.12902 0
M  V30 7332 C 750.449 0.352491 4.56642 0
M  V30 7333 N 751.94 0.30105 4.62221 0
M  V30 7334 C 752.675 0.487028 5.71328 0
M  V30 7335 N 752.171 0.733265 6.88909 0
M  V30 7336 N 753.964 0.4214 5.60518 0
M  V30 7337 H 746.115 1.13909 1.79272 0
M  V30 7338 H 748.378 0.454528 0.83193 0
M  V30 7339 H 748.084 1.14312 3.32604 0
M  V30 7340 H 747.958 -0.559804 3.73023 0
M  V30 7341 H 750.345 -0.916963 2.80492 0
M  V30 7342 H 750.426 0.809611 2.4265 0
M  V30 7343 H 750.07 1.34513 4.89764 0
M  V30 7344 H 750 -0.399624 5.25081 0
M  V30 7345 H 752.491 0.117279 3.77718 0
M  V30 7346 H 752.804 0.86403 7.67955 0
M  V30 7347 H 751.149 0.770138 6.9072 0
M  V30 7348 H 754.34 0.229461 4.67537 0
M  V30 7349 H 754.513 0.569758 6.4549 0
M  V30 7350 N 747.919 -1.57396 -0.0801906 0
M  V30 7351 C 749.144 -1.91437 -0.797909 0
M  V30 7352 C 749.569 -0.789075 -1.70749 0
M  V30 7353 O 748.927 0.25857 -1.79447 0
M  V30 7354 C 748.975 -3.24402 -1.57467 0
M  V30 7355 O 748.079 -3.13043 -2.68473 0
M  V30 7356 H 747.42 -0.627109 -0.218243 0
M  V30 7357 H 749.95 -2.04537 -0.050949 0
M  V30 7358 H 749.96 -3.58072 -1.95571 0
M  V30 7359 H 748.635 -4.05884 -0.907229 0
M  V30 7360 H 747.212 -2.90915 -2.33287 0
M  V30 7361 N 749.397 0.351382 -1.53633 0
M  V30 7362 C 750.643 1.09049 -1.71697 0
M  V30 7363 C 750.998 1.86563 -0.470314 0
M  V30 7364 O 750.291 1.83922 0.536954 0
M  V30 7365 C 750.485 2.06744 -2.91533 0
M  V30 7366 C 750.314 1.38832 -4.27733 0
M  V30 7367 C 749.084 1.13646 -4.92354 0
M  V30 7368 C 751.282 0.818602 -5.07743 0
M  V30 7369 N 749.264 0.422324 -6.12446 0
M  V30 7370 C 750.635 0.234602 -6.19556 0
M  V30 7371 C 752.69 0.718679 -4.92686 0
M  V30 7372 C 751.393 -0.439592 -7.17955 0
M  V30 7373 C 753.419 0.0582402 -5.91371 0
M  V30 7374 C 752.781 -0.514823 -7.02516 0
M  V30 7375 H 748.88 0.383697 -0.681396 0
M  V30 7376 H 751.464 0.375063 -1.91053 0
M  V30 7377 H 749.635 2.75586 -2.73691 0
M  V30 7378 H 751.367 2.73436 -2.98353 0
M  V30 7379 H 748.122 1.4215 -4.51764 0
M  V30 7380 H 748.546 0.0802092 -6.76952 0
M  V30 7381 H 753.188 1.14748 -4.06931 0
M  V30 7382 H 750.906 -0.880307 -8.03291 0
M  V30 7383 H 754.492 -0.0183382 -5.81797 0
M  V30 7384 H 753.372 -1.01777 -7.77567 0
M  V30 7385 N 750.875 1.45233 0.611969 0
M  V30 7386 C 751.823 1.53898 1.74408 0
M  V30 7387 C 752.817 0.409254 1.64382 0
M  V30 7388 O 754.023 0.584988 1.70229 0
M  V30 7389 H 750.398 0.483303 0.576127 0
M  V30 7390 H 752.369 2.49143 1.64227 0
M  V30 7391 C 751.118 1.51865 3.12782 0
M  V30 7392 H 750.441 2.38118 3.21154 0
M  V30 7393 H 751.881 1.61986 3.91838 0
M  V30 7394 C 750.34 0.242374 3.36027 0
M  V30 7395 O 750.87 -0.679587 3.9591 0
M  V30 7396 N 749.076 0.139448 2.90265 0
M  V30 7397 H 748.623 0.890571 2.41716 0
M  V30 7398 H 748.581 -0.713686 3.06193 0
M  V30 7399 N 752.353 -0.854086 1.3245 0
M  V30 7400 C 753.6 -1.60831 1.23043 0
M  V30 7401 C 753.928 -1.93389 -0.2076 0
M  V30 7402 O 753.183 -1.5756 -1.16075 0
M  V30 7403 C 753.482 -2.93746 2.03587 0
M  V30 7404 C 753.148 -2.80615 3.52939 0
M  V30 7405 C 751.81 -2.76742 3.93659 0
M  V30 7406 C 754.162 -2.66507 4.4791 0
M  V30 7407 C 751.49 -2.56638 5.27592 0
M  V30 7408 C 753.842 -2.47939 5.81987 0
M  V30 7409 C 752.506 -2.42458 6.21909 0
M  V30 7410 H 751.776 -0.588523 0.450247 0
M  V30 7411 H 754.423 -0.990699 1.63882 0
M  V30 7412 H 752.728 -3.5963 1.55478 0
M  V30 7413 H 754.425 -3.51127 1.93677 0
M  V30 7414 H 751.015 -2.84456 3.20598 0
M  V30 7415 H 755.199 -2.68544 4.1737 0
M  V30 7416 H 750.455 -2.50831 5.57579 0
M  V30 7417 H 754.629 -2.36002 6.55192 0
M  V30 7418 H 752.256 -2.2664 7.2563 0
M  V30 7419 N 753.831 -1.1567 -1.07043 0
M  V30 7420 C 755.079 -0.931673 -1.79344 0
M  V30 7421 C 755.4 0.542421 -1.87304 0
M  V30 7422 O 754.67 1.39418 -1.37621 0
M  V30 7423 H 753.25 -0.34171 -0.664262 0
M  V30 7424 H 755.912 -1.45795 -1.29344 0
M  V30 7425 H 755.008 -1.34379 -2.81689 0
M  V30 7426 N 755.309 1.25446 -0.953992 0
M  V30 7427 C 756.586 1.884 -0.525823 0
M  V30 7428 C 756.966 1.86079 0.996891 0
M  V30 7429 O 756.314 1.32389 1.8624 0
M  V30 7430 C 756.524 3.31154 -1.10172 0
M  V30 7431 C 757.872 4.07926 -1.17819 0
M  V30 7432 O 758.896 3.40273 -1.05323 0
M  V30 7433 O 757.755 5.28942 -1.37415 0
M  V30 7434 H 754.849 0.808629 -0.173345 0
M  V30 7435 H 757.395 1.33522 -1.04738 0
M  V30 7436 H 756.167 3.27271 -2.14499 0
M  V30 7437 H 755.79 3.93588 -0.56338 0
M  V30 7438 N 756.787 0.722489 1.40064 0
M  V30 7439 C 758.035 0.264455 2.00362 0
M  V30 7440 C 758.356 -1.14847 1.57592 0
M  V30 7441 O 757.626 -1.77982 0.818477 0
M  V30 7442 H 756.206 0.0947846 0.740962 0
M  V30 7443 H 758.868 0.929659 1.71299 0
M  V30 7444 H 757.964 0.302977 3.10626 0
M  V30 7445 N 758.265 -1.50454 0.469181 0
M  V30 7446 C 759.49 -2.0722 -0.0864892 0
M  V30 7447 C 759.915 -1.33098 -1.32916 0
M  V30 7448 O 759.273 -0.378084 -1.77314 0
M  V30 7449 C 759.321 -3.58845 -0.355384 0
M  V30 7450 O 758.425 -3.86583 -1.43622 0
M  V30 7451 H 757.766 -0.663889 0.0121414 0
M  V30 7452 H 760.296 -1.93674 0.659674 0
M  V30 7453 H 760.306 -4.03617 -0.596447 0
M  V30 7454 H 758.981 -4.12211 0.552698 0
M  V30 7455 H 757.558 -3.5365 -1.18262 0
M  V30 7456 N 759.743 -0.201713 -1.56304 0
M  V30 7457 C 760.971 0.440723 -2.02152 0
M  V30 7458 C 761.386 1.54735 -1.08179 0
M  V30 7459 O 760.743 1.82289 -0.0878196 0
M  V30 7460 C 760.794 0.990884 -3.47655 0
M  V30 7461 O 760.515 -0.0715937 -4.38041 0
M  V30 7462 C 762.016 1.70854 -4.09052 0
M  V30 7463 H 759.236 0.109987 -0.661924 0
M  V30 7464 H 761.78 -0.312358 -2.021 0
M  V30 7465 H 759.935 1.69432 -3.48384 0
M  V30 7466 H 760.349 0.338892 -5.23404 0
M  V30 7467 H 761.823 2.04572 -5.12693 0
M  V30 7468 H 762.3 2.61462 -3.52894 0
M  V30 7469 H 762.906 1.0508 -4.12114 0
M  V30 7470 N 761.222 1.57436 0.0718424 0
M  V30 7471 C 762.447 1.91858 0.787745 0
M  V30 7472 C 762.872 0.798119 1.70328 0
M  V30 7473 O 762.23 -0.24905 1.79581 0
M  V30 7474 C 762.278 3.25232 1.55744 0
M  V30 7475 O 761.382 3.14462 2.6681 0
M  V30 7476 H 760.723 0.628258 0.214914 0
M  V30 7477 H 763.253 2.04561 0.0401012 0
M  V30 7478 H 763.263 3.59105 1.9367 0
M  V30 7479 H 761.938 4.0636 0.885691 0
M  V30 7480 H 760.515 2.92148 2.31741 0
M  V30 7481 N 762.7 -0.34323 1.53817 0
M  V30 7482 C 763.928 -1.10348 1.75017 0
M  V30 7483 C 764.343 -1.82345 0.489475 0
M  V30 7484 O 763.7 -1.74362 -0.538886 0
M  V30 7485 C 763.751 -2.11672 2.93048 0
M  V30 7486 O 763.472 -1.42603 4.14241 0
M  V30 7487 C 764.973 -3.0007 3.26301 0
M  V30 7488 H 762.193 -0.329056 0.584776 0
M  V30 7489 H 764.737 -0.395339 2.00642 0
M  V30 7490 H 762.892 -2.78051 2.69753 0
M  V30 7491 H 763.306 -2.10294 4.80496 0
M  V30 7492 H 764.78 -3.67101 4.12239 0
M  V30 7493 H 765.257 -3.66105 2.42618 0
M  V30 7494 H 765.863 -2.3928 3.51604 0
M  V30 7495 N 764.178 -1.45556 -0.604258 0
M  V30 7496 C 765.141 -1.54091 -1.69672 0
M  V30 7497 C 766.141 -0.420076 -1.55216 0
M  V30 7498 O 767.331 -0.683671 -1.60224 0
M  V30 7499 C 764.463 -1.44063 -3.08964 0
M  V30 7500 H 765.656 -2.51431 -1.6347 0
M  V30 7501 H 763.209 -1.33046 -0.820273 0
M  V30 7502 H 763.944 -0.479201 -3.2074 0
M  V30 7503 H 763.729 -2.25362 -3.20865 0
M  V30 7504 H 765.219 -1.53075 -3.88533 0
M  V30 7505 N 765.656 0.84705 -1.32902 0
M  V30 7506 C 766.884 1.63403 -1.26913 0
M  V30 7507 C 767.299 1.88108 0.161483 0
M  V30 7508 O 766.656 1.45546 1.10103 0
M  V30 7509 C 766.707 2.98896 -2.03331 0
M  V30 7510 O 766.428 2.75281 -3.40811 0
M  V30 7511 C 767.929 3.93335 -2.04457 0
M  V30 7512 H 765.149 0.508701 -0.437566 0
M  V30 7513 H 767.693 1.05567 -1.75145 0
M  V30 7514 H 765.848 3.53356 -1.58802 0
M  V30 7515 H 766.262 3.61504 -3.8002 0
M  V30 7516 H 767.736 4.85647 -2.62394 0
M  V30 7517 H 768.213 4.26885 -1.03274 0
M  V30 7518 H 768.819 3.44812 -2.48967 0
M  V30 7519 N 767.134 1.16236 1.06428 0
M  V30 7520 C 768.082 0.863669 2.15971 0
M  V30 7521 C 769.076 -0.166723 1.68578 0
M  V30 7522 O 770.282 -0.0208425 1.79988 0
M  V30 7523 H 766.657 0.261684 0.705 0
M  V30 7524 H 768.628 1.79498 2.38376 0
M  V30 7525 C 767.377 0.379697 3.45621 0
M  V30 7526 H 766.7 1.16399 3.82481 0
M  V30 7527 H 768.14 0.209458 4.23482 0
M  V30 7528 C 766.599 -0.900499 3.24642 0
M  V30 7529 O 767.129 -1.97004 3.50074 0
M  V30 7530 N 765.335 -0.843721 2.78082 0
M  V30 7531 H 764.882 0.0268429 2.57586 0
M  V30 7532 H 764.84 -1.70078 2.64425 0
M  V30 7533 N 768.612 -1.24939 0.960631 0
M  V30 7534 C 770.023 -1.74701 0.658529 0
M  V30 7535 C 770.374 -1.77967 -0.825959 0
M  V30 7536 O 769.499 -1.40444 -1.64634 0
M  V30 7537 C 770.094 -3.17263 1.18867 0
M  V30 7538 C 768.653 -3.64561 0.936614 0
M  V30 7539 C 767.8 -2.43423 1.32817 0
M  V30 7540 H 770.751 -1.10741 1.13676 0
M  V30 7541 H 770.772 -3.76481 0.551589 0
M  V30 7542 H 770.284 -3.14854 2.26912 0
M  V30 7543 H 768.385 -3.72378 -0.128608 0
M  V30 7544 H 768.498 -4.52392 1.57729 0
M  V30 7545 H 766.862 -2.43513 0.746548 0
M  V30 7546 H 767.645 -2.437 2.41796 0
M  V30 7547 N 770.09 -0.729906 -1.39679 0
M  V30 7548 C 771.315 -0.284345 -2.05442 0
M  V30 7549 C 771.74 1.07056 -1.54663 0
M  V30 7550 O 771.098 1.67732 -0.688157 0
M  V30 7551 C 771.146 -0.290089 -3.59431 0
M  V30 7552 O 770.25 0.723978 -4.05995 0
M  V30 7553 H 769.591 -0.130311 -0.651088 0
M  V30 7554 H 772.121 -0.994403 -1.78809 0
M  V30 7555 H 772.131 -0.132712 -4.07784 0
M  V30 7556 H 770.806 -1.27877 -3.95753 0
M  V30 7557 H 769.383 0.533154 -3.69069 0
M  V30 7558 N 771.568 1.50203 -0.477153 0
M  V30 7559 C 772.515 2.28656 0.31386 0
M  V30 7560 C 773.485 1.33977 0.981802 0
M  V30 7561 O 774.67 1.62919 0.993072 0
M  V30 7562 C 771.81 3.16027 1.38639 0
M  V30 7563 C 770.923 4.25743 0.732615 0
M  V30 7564 C 770.058 5.00363 1.78355 0
M  V30 7565 C 769.097 6.01945 1.11035 0
M  V30 7566 N 768.234 6.6982 2.10441 0
M  V30 7567 H 773.074 2.958 -0.361445 0
M  V30 7568 H 770.611 1.45867 -0.190093 0
M  V30 7569 H 772.569 3.6504 2.01994 0
M  V30 7570 H 771.199 2.50917 2.03077 0
M  V30 7571 H 770.251 3.80398 -0.0136546 0
M  V30 7572 H 771.563 4.98393 0.201513 0
M  V30 7573 H 770.717 5.53124 2.49276 0
M  V30 7574 H 769.456 4.27432 2.34847 0
M  V30 7575 H 768.461 5.48438 0.386797 0
M  V30 7576 H 769.686 6.76851 0.552248 0
M  V30 7577 H 767.632 5.99677 2.65939 0
M  V30 7578 H 767.549 7.38366 1.62332 0
M  V30 7579 H 768.817 7.27196 2.80724 0
M  V30 7580 N 773.046 0.209999 1.56195 0
M  V30 7581 C 774.274 -0.429996 2.02382 0
M  V30 7582 C 774.689 -1.54159 1.08998 0
M  V30 7583 O 774.046 -1.82239 0.0974856 0
M  V30 7584 C 774.097 -0.972433 3.48175 0
M  V30 7585 O 773.818 0.0948231 4.37997 0
M  V30 7586 C 775.319 -1.68683 4.09952 0
M  V30 7587 H 772.539 -0.106475 0.662498 0
M  V30 7588 H 775.083 0.323072 2.01932 0
M  V30 7589 H 773.238 -1.67582 3.49278 0
M  V30 7590 H 773.652 -0.31113 5.23576 0
M  V30 7591 H 775.126 -2.01851 5.13771 0
M  V30 7592 H 775.603 -2.59587 3.54276 0
M  V30 7593 H 776.209 -1.02893 4.12666 0
M  V30 7594 N 774.524 -1.57472 -0.0634922 0
M  V30 7595 C 775.754 -1.91608 -0.772645 0
M  V30 7596 C 776.162 -0.805019 -1.71219 0
M  V30 7597 O 775.505 0.229941 -1.82255 0
M  V30 7598 C 775.567 -3.21281 -1.61304 0
M  V30 7599 C 775.231 -4.49177 -0.841973 0
M  V30 7600 C 776.228 -5.19661 -0.157494 0
M  V30 7601 C 773.913 -4.9578 -0.80669 0
M  V30 7602 C 775.907 -6.35006 0.551948 0
M  V30 7603 C 773.594 -6.11028 -0.0934812 0
M  V30 7604 C 774.592 -6.80493 0.58463 0
M  V30 7605 O 774.28 -7.93542 1.28633 0
M  V30 7606 H 774.012 -0.637685 -0.224352 0
M  V30 7607 H 776.566 -2.05369 -0.0355279 0
M  V30 7608 H 774.796 -3.03752 -2.39315 0
M  V30 7609 H 776.485 -3.41003 -2.20162 0
M  V30 7610 H 777.251 -4.84681 -0.176006 0
M  V30 7611 H 773.13 -4.41579 -1.32397 0
M  V30 7612 H 776.674 -6.89161 1.0818 0
M  V30 7613 H 772.571 -6.45459 -0.0729258 0
M  V30 7614 H 773.339 -8.09708 1.19646 0
M  V30 7615 N 776.003 0.335068 -1.53997 0
M  V30 7616 C 776.966 1.39481 -1.81872 0
M  V30 7617 C 777.966 1.4524 -0.690078 0
M  V30 7618 O 779.156 1.45467 -0.958377 0
M  V30 7619 C 776.288 2.78329 -1.9684 0
M  V30 7620 H 777.481 1.16024 -2.76547 0
M  V30 7621 H 775.034 0.569926 -1.45539 0
M  V30 7622 H 775.769 3.07058 -1.04337 0
M  V30 7623 H 775.554 2.75544 -2.78958 0
M  V30 7624 H 777.044 3.55016 -2.19894 0
M  V30 7625 N 777.481 1.45874 0.596531 0
M  V30 7626 C 778.444 1.54988 1.68853 0
M  V30 7627 C 779.444 0.428302 1.54991 0
M  V30 7628 O 780.634 0.692158 1.59859 0
M  V30 7629 C 777.766 1.457 3.08195 0
M  V30 7630 H 778.959 2.52294 1.62135 0
M  V30 7631 H 776.512 1.33479 0.813206 0
M  V30 7632 H 777.247 0.496204 3.20481 0
M  V30 7633 H 777.032 2.27061 3.19665 0
M  V30 7634 H 778.522 1.55133 3.87716 0
M  V30 7635 N 778.959 -0.83999 1.33349 0
M  V30 7636 C 779.922 -1.93128 1.23426 0
M  V30 7637 C 780.922 -1.60065 0.153599 0
M  V30 7638 O 782.112 -1.69425 0.405049 0
M  V30 7639 C 779.244 -3.28761 0.901622 0
M  V30 7640 H 780.437 -2.03352 2.20427 0
M  V30 7641 H 777.99 -1.03194 1.17391 0
M  V30 7642 H 778.725 -3.24233 -0.0659337 0
M  V30 7643 H 778.51 -3.54138 1.68311 0
M  V30 7644 H 780 -4.08714 0.856913 0
M  V30 7645 N 780.437 -1.16799 -1.0581 0
M  V30 7646 C 781.685 -0.950642 -1.78346 0
M  V30 7647 C 782.006 0.522524 -1.87869 0
M  V30 7648 O 781.276 1.3795 -1.39092 0
M  V30 7649 H 779.856 -0.348736 -0.6606 0
M  V30 7650 H 782.518 -1.47158 -1.27791 0
M  V30 7651 H 781.614 -1.37359 -2.80248 0
M  V30 7652 N 781.915 1.24427 -0.967243 0
M  V30 7653 C 783.143 1.96541 -0.646477 0
M  V30 7654 C 783.558 1.71753 0.783996 0
M  V30 7655 O 782.915 1.00102 1.52597 0
M  V30 7656 C 782.966 3.4983 -0.911098 0
M  V30 7657 O 782.687 3.7377 -2.28534 0
M  V30 7658 C 784.188 4.3916 -0.604458 0
M  V30 7659 H 781.408 0.626129 -0.241255 0
M  V30 7660 H 783.952 1.58268 -1.29505 0
M  V30 7661 H 782.107 3.86168 -0.308741 0
M  V30 7662 H 782.521 4.68154 -2.365 0
M  V30 7663 H 783.995 5.4557 -0.840069 0
M  V30 7664 H 784.472 4.36771 0.461273 0
M  V30 7665 H 785.078 4.08409 -1.1867 0
M  V30 7666 N 783.393 0.737304 1.3929 0
M  V30 7667 C 784.623 0.296143 2.04467 0
M  V30 7668 C 785.031 -1.0748 1.55707 0
M  V30 7669 O 784.374 -1.69082 0.718123 0
M  V30 7670 C 784.436 0.222161 3.58813 0
M  V30 7671 C 784.1 1.53195 4.30558 0
M  V30 7672 C 785.097 2.47809 4.57041 0
M  V30 7673 C 782.782 1.79688 4.6906 0
M  V30 7674 C 784.776 3.67147 5.21039 0
M  V30 7675 C 782.463 2.99304 5.32785 0
M  V30 7676 C 783.461 3.92855 5.58708 0
M  V30 7677 O 783.149 5.1037 6.2111 0
M  V30 7678 H 782.881 0.126896 0.663983 0
M  V30 7679 H 785.435 1.00242 1.79278 0
M  V30 7680 H 783.665 -0.540239 3.82908 0
M  V30 7681 H 785.354 -0.187311 4.05468 0
M  V30 7682 H 786.12 2.28611 4.2774 0
M  V30 7683 H 781.999 1.07716 4.48239 0
M  V30 7684 H 785.543 4.40183 5.41188 0
M  V30 7685 H 781.44 3.18401 5.61508 0
M  V30 7686 H 782.208 5.10735 6.39603 0
M  V30 7687 N 784.871 -1.49948 0.485112 0
M  V30 7688 C 786.099 -2.06806 -0.0622824 0
M  V30 7689 C 786.514 -1.34736 -1.32256 0
M  V30 7690 O 785.871 -0.420836 -1.77582 0
M  V30 7691 C 785.922 -3.59934 -0.336096 0
M  V30 7692 O 785.643 -4.29289 0.874203 0
M  V30 7693 C 787.144 -4.33459 -0.928903 0
M  V30 7694 H 784.364 -0.670867 0.0133472 0
M  V30 7695 H 786.908 -1.92937 0.677917 0
M  V30 7696 H 785.063 -3.7356 -1.02625 0
M  V30 7697 H 785.477 -5.20735 0.627332 0
M  V30 7698 H 786.951 -5.41527 -1.07017 0
M  V30 7699 H 787.428 -3.94881 -1.92265 0
M  V30 7700 H 788.034 -4.24399 -0.276705 0
M  V30 7701 N 786.349 -0.21828 -1.56081 0
M  V30 7702 C 787.595 0.414921 -1.9851 0
M  V30 7703 C 787.928 1.59648 -1.10573 0
M  V30 7704 O 787.203 1.93818 -0.162695 0
M  V30 7705 C 787.486 0.852647 -3.4986 0
M  V30 7706 C 787.339 -0.33232 -4.48571 0
M  V30 7707 C 788.658 1.70998 -4.05521 0
M  V30 7708 H 785.777 0.149344 -0.72171 0
M  V30 7709 H 788.419 -0.313858 -1.8739 0
M  V30 7710 H 786.569 1.47362 -3.59467 0
M  V30 7711 H 788.241 -0.970418 -4.50977 0
M  V30 7712 H 786.484 -0.980302 -4.22578 0
M  V30 7713 H 787.155 0.0168407 -5.51997 0
M  V30 7714 H 789.631 1.18606 -3.98838 0
M  V30 7715 H 788.507 1.98517 -5.11744 0
M  V30 7716 H 788.768 2.67219 -3.52202 0
M  V30 7717 N 787.827 1.57504 0.0551401 0
M  V30 7718 C 789.055 1.92294 0.76358 0
M  V30 7719 C 789.47 0.815774 1.70266 0
M  V30 7720 O 788.827 -0.209772 1.8129 0
M  V30 7721 C 788.878 3.26914 1.54302 0
M  V30 7722 O 788.599 4.33375 0.641666 0
M  V30 7723 C 790.1 3.75825 2.35097 0
M  V30 7724 H 787.32 0.635229 0.216159 0
M  V30 7725 H 789.864 2.0449 0.0204385 0
M  V30 7726 H 788.019 3.16196 2.23828 0
M  V30 7727 H 788.433 5.10927 1.1855 0
M  V30 7728 H 789.907 4.72603 2.8522 0
M  V30 7729 H 790.384 3.0568 3.15367 0
M  V30 7730 H 790.99 3.89542 1.70696 0
M  V30 7731 N 789.305 -0.326896 1.54172 0
M  V30 7732 C 790.235 -1.40741 1.86317 0
M  V30 7733 C 791.216 -1.54125 0.719684 0
M  V30 7734 O 792.401 -1.6806 0.973117 0
M  V30 7735 C 789.531 -2.77557 2.08757 0
M  V30 7736 C 788.485 -2.78965 3.24596 0
M  V30 7737 C 787.811 -4.18824 3.32401 0
M  V30 7738 C 789.111 -2.4301 4.62324 0
M  V30 7739 H 790.805 -1.14088 2.76811 0
M  V30 7740 H 788.351 -0.547389 1.3319 0
M  V30 7741 H 790.304 -3.53209 2.29829 0
M  V30 7742 H 789.028 -3.0568 1.15009 0
M  V30 7743 H 787.687 -2.05767 3.03406 0
M  V30 7744 H 787.335 -4.44083 2.36218 0
M  V30 7745 H 787.035 -4.20673 4.10253 0
M  V30 7746 H 788.559 -4.96294 3.55703 0
M  V30 7747 H 789.973 -3.08375 4.83299 0
M  V30 7748 H 788.37 -2.56116 5.42701 0
M  V30 7749 H 789.44 -1.38165 4.64799 0
M  V30 7750 N 790.784 -1.46188 -0.588786 0
M  V30 7751 C 792.012 -1.54743 -1.37339 0
M  V30 7752 C 792.427 -0.186446 -1.87877 0
M  V30 7753 O 791.784 0.815247 -1.63279 0
M  V30 7754 C 791.835 -2.54727 -2.56508 0
M  V30 7755 O 791.556 -3.85539 -2.08066 0
M  V30 7756 C 793.057 -2.73163 -3.49137 0
M  V30 7757 H 790.277 -0.523484 -0.419768 0
M  V30 7758 H 792.821 -1.91543 -0.716345 0
M  V30 7759 H 790.976 -2.20948 -3.18215 0
M  V30 7760 H 791.39 -4.39905 -2.85629 0
M  V30 7761 H 792.864 -3.47057 -4.2925 0
M  V30 7762 H 793.341 -1.79856 -4.00685 0
M  V30 7763 H 793.947 -3.08014 -2.9327 0
M  V30 7764 N 792.262 0.832906 -1.33792 0
M  V30 7765 C 793.508 1.59089 -1.25772 0
M  V30 7766 C 793.841 1.93414 0.174601 0
M  V30 7767 O 793.116 1.59195 1.11746 0
M  V30 7768 C 793.399 2.89699 -2.13885 0
M  V30 7769 C 793.252 2.62017 -3.65605 0
M  V30 7770 C 794.571 3.91182 -2.01654 0
M  V30 7771 H 791.69 0.577232 -0.458227 0
M  V30 7772 H 794.332 0.960227 -1.6395 0
M  V30 7773 H 792.482 3.4352 -1.81456 0
M  V30 7774 H 794.154 2.14582 -4.08353 0
M  V30 7775 H 792.397 1.95621 -3.87189 0
M  V30 7776 H 793.068 3.55112 -4.2261 0
M  V30 7777 H 795.544 3.46684 -2.30107 0
M  V30 7778 H 794.42 4.80391 -2.65548 0
M  V30 7779 H 794.681 4.30861 -0.990536 0
M  V30 7780 N 793.74 1.17359 1.05189 0
M  V30 7781 C 794.968 0.986529 1.81866 0
M  V30 7782 C 795.383 -0.46522 1.82979 0
M  V30 7783 O 794.74 -1.32305 1.25705 0
M  V30 7784 C 794.791 1.52021 3.27982 0
M  V30 7785 O 794.512 2.91511 3.27037 0
M  V30 7786 C 796.013 1.37774 4.21347 0
M  V30 7787 H 793.233 0.349021 0.573084 0
M  V30 7788 H 795.777 1.55648 1.32643 0
M  V30 7789 H 793.932 0.992287 3.74476 0
M  V30 7790 H 794.346 3.16178 4.18488 0
M  V30 7791 H 795.82 1.7993 5.21852 0
M  V30 7792 H 796.297 0.32483 4.37997 0
M  V30 7793 H 796.903 1.89583 3.80708 0
M  V30 7794 N 795.218 -1.23913 0.973828 0
M  V30 7795 C 796.495 -1.87539 0.555729 0
M  V30 7796 C 796.875 -1.87641 -0.967162 0
M  V30 7797 O 796.223 -1.35335 -1.84111 0
M  V30 7798 C 796.433 -3.29359 1.15427 0
M  V30 7799 C 797.781 -4.06 1.24294 0
M  V30 7800 O 798.805 -3.38554 1.10723 0
M  V30 7801 O 797.664 -5.26689 1.45813 0
M  V30 7802 H 794.758 -0.805769 0.186188 0
M  V30 7803 H 797.304 -1.31838 1.06849 0
M  V30 7804 H 796.076 -3.23817 2.19678 0
M  V30 7805 H 795.699 -3.92642 0.625925 0
M  V30 7806 N 796.696 -0.74468 -1.38897 0
M  V30 7807 C 797.644 -0.100312 -2.32384 0
M  V30 7808 C 798.638 0.715191 -1.53562 0
M  V30 7809 O 799.844 0.615288 -1.69157 0
M  V30 7810 H 796.219 -0.0136403 -0.751876 0
M  V30 7811 H 798.19 -0.905007 -2.84345 0
M  V30 7812 C 796.939 0.785432 -3.38713 0
M  V30 7813 H 796.262 0.167308 -3.9945 0
M  V30 7814 H 797.702 1.20374 -4.06554 0
M  V30 7815 C 796.161 1.92408 -2.76552 0
M  V30 7816 O 796.691 3.01752 -2.65157 0
M  V30 7817 N 794.897 1.71642 -2.34494 0
M  V30 7818 H 794.444 0.827079 -2.43961 0
M  V30 7819 H 794.402 2.48 -1.93244 0
M  V30 7820 N 798.174 1.49689 -0.493057 0
M  V30 7821 C 799.422 2.02027 0.0541642 0
M  V30 7822 C 799.743 1.37554 1.38217 0
M  V30 7823 O 799.013 0.528174 1.88646 0
M  V30 7824 H 797.593 0.746646 0.0230069 0
M  V30 7825 H 800.255 1.83795 -0.648489 0
M  V30 7826 H 799.351 3.11523 0.189652 0
M  V30 7827 N 799.652 0.226554 1.55963 0
M  V30 7828 C 800.9 -0.402991 1.98041 0
M  V30 7829 C 801.221 -1.59938 1.11557 0
M  V30 7830 O 800.491 -1.9494 0.193719 0
M  V30 7831 H 799.071 -0.15188 0.731397 0
M  V30 7832 H 801.733 0.320613 1.92245 0
M  V30 7833 H 800.829 -0.725937 3.0354 0
M  V30 7834 N 801.13 -1.57531 -0.0467866 0
M  V30 7835 C 802.093 -2.04379 -1.03738 0
M  V30 7836 C 803.093 -0.944881 -1.3011 0
M  V30 7837 O 804.283 -1.20904 -1.25411 0
M  V30 7838 C 801.415 -2.44572 -2.37482 0
M  V30 7839 H 802.608 -2.93142 -0.633063 0
M  V30 7840 H 800.161 -1.53526 -0.293177 0
M  V30 7841 H 800.896 -1.58911 -2.82697 0
M  V30 7842 H 800.681 -3.24785 -2.19675 0
M  V30 7843 H 802.171 -2.81307 -3.08636 0
M  V30 7844 N 802.608 0.318715 -1.54344 0
M  V30 7845 C 803.836 1.0755 -1.7675 0
M  V30 7846 C 804.251 1.81543 -0.518422 0
M  V30 7847 O 803.608 1.75198 0.511078 0
M  V30 7848 C 803.659 2.06983 -2.96378 0
M  V30 7849 O 803.38 1.35995 -4.16458 0
M  V30 7850 C 804.881 2.94841 -3.31034 0
M  V30 7851 H 802.101 0.319711 -0.589937 0
M  V30 7852 H 804.645 0.363369 -2.01246 0
M  V30 7853 H 802.8 2.73724 -2.74142 0
M  V30 7854 H 803.214 2.02623 -4.83781 0
M  V30 7855 H 804.688 3.60496 -4.18027 0
M  V30 7856 H 805.165 3.62199 -2.48412 0
M  V30 7857 H 805.771 2.33656 -3.55366 0
M  V30 7858 N 804.086 1.46499 0.581025 0
M  V30 7859 C 805.034 1.57562 1.71105 0
M  V30 7860 C 806.028 0.44403 1.63477 0
M  V30 7861 O 807.234 0.620964 1.6895 0
M  V30 7862 H 803.609 0.495415 0.565746 0
M  V30 7863 H 805.58 2.5257 1.58905 0
M  V30 7864 C 804.329 1.58465 3.0949 0
M  V30 7865 H 803.652 2.44877 3.16031 0
M  V30 7866 H 805.092 1.70261 3.88313 0
M  V30 7867 C 803.551 0.313596 3.35437 0
M  V30 7868 O 804.081 -0.595456 3.97262 0
M  V30 7869 N 802.287 0.200986 2.89904 0
M  V30 7870 H 801.834 0.941643 2.39773 0
M  V30 7871 H 801.792 -0.648577 3.07638 0
M  V30 7872 N 805.565 -0.825799 1.34232 0
M  V30 7873 C 806.793 -1.61363 1.29497 0
M  V30 7874 C 807.208 -1.88341 -0.131536 0
M  V30 7875 O 806.565 -1.47279 -1.07773 0
M  V30 7876 C 806.616 -2.95623 2.08061 0
M  V30 7877 O 806.337 -2.69824 3.45147 0
M  V30 7878 C 807.838 -3.90032 2.10688 0
M  V30 7879 H 805.058 -0.501676 0.445603 0
M  V30 7880 H 807.602 -1.02767 1.76803 0
M  V30 7881 H 805.757 -3.50785 1.64404 0
M  V30 7882 H 806.171 -3.55412 3.85723 0
M  V30 7883 H 807.645 -4.81411 2.70087 0
M  V30 7884 H 808.122 -4.25188 1.10052 0
M  V30 7885 H 808.728 -3.40807 2.54422 0
M  V30 7886 N 807.043 -1.17915 -1.04565 0
M  V30 7887 C 807.99 -0.901605 -2.12461 0
M  V30 7888 C 808.96 0.157011 -1.65356 0
M  V30 7889 O 810.145 0.0184494 -1.90791 0
M  V30 7890 C 807.285 -0.42796 -3.42436 0
M  V30 7891 C 806.398 -1.55142 -4.03181 0
M  V30 7892 C 805.533 -1.03101 -5.21098 0
M  V30 7893 C 804.572 -2.1295 -5.73863 0
M  V30 7894 N 803.709 -1.62339 -6.83074 0
M  V30 7895 H 808.549 -1.82551 -2.3554 0
M  V30 7896 H 806.086 -0.910389 -1.15544 0
M  V30 7897 H 808.044 -0.134859 -4.16982 0
M  V30 7898 H 806.674 0.458977 -3.1952 0
M  V30 7899 H 805.726 -1.96011 -3.26012 0
M  V30 7900 H 807.038 -2.37968 -4.38375 0
M  V30 7901 H 806.192 -0.692132 -6.02739 0
M  V30 7902 H 804.931 -0.17227 -4.87396 0
M  V30 7903 H 803.936 -2.47687 -4.90847 0
M  V30 7904 H 805.161 -2.9925 -6.09611 0
M  V30 7905 H 803.107 -0.787464 -6.51256 0
M  V30 7906 H 803.024 -2.38767 -7.17305 0
M  V30 7907 H 804.292 -1.31363 -7.68351 0
M  V30 7908 N 808.521 1.23394 -0.980386 0
M  V30 7909 C 809.749 1.95844 -0.667286 0
M  V30 7910 C 810.164 1.72574 0.765735 0
M  V30 7911 O 809.521 1.01715 1.51526 0
M  V30 7912 C 809.572 3.48844 -0.948151 0
M  V30 7913 O 809.293 3.71325 -2.32485 0
M  V30 7914 C 810.794 4.38494 -0.651002 0
M  V30 7915 H 808.014 0.623535 -0.247882 0
M  V30 7916 H 810.558 1.56885 -1.31176 0
M  V30 7917 H 808.713 3.85819 -0.349681 0
M  V30 7918 H 809.127 4.65619 -2.41452 0
M  V30 7919 H 810.601 5.44648 -0.897887 0
M  V30 7920 H 811.078 4.37236 0.414922 0
M  V30 7921 H 811.684 4.07127 -1.22995 0
M  V30 7922 N 809.999 0.752036 1.385 0
M  V30 7923 C 811.247 0.306895 1.99756 0
M  V30 7924 C 811.568 -1.11478 1.59992 0
M  V30 7925 O 810.838 -1.76206 0.856045 0
M  V30 7926 H 809.418 0.11048 0.738785 0
M  V30 7927 H 812.08 0.965785 1.69289 0
M  V30 7928 H 811.176 0.368797 3.09913 0
M  V30 7929 N 811.477 -1.49425 0.500989 0
M  V30 7930 C 812.702 -2.07356 -0.0425154 0
M  V30 7931 C 813.127 -1.35887 -1.30063 0
M  V30 7932 O 812.485 -0.41561 -1.76472 0
M  V30 7933 C 812.533 -3.59518 -0.279188 0
M  V30 7934 O 811.637 -3.89542 -1.3539 0
M  V30 7935 H 810.978 -0.663482 0.0262207 0
M  V30 7936 H 813.508 -1.92231 0.700607 0
M  V30 7937 H 813.518 -4.04791 -0.5107 0
M  V30 7938 H 812.193 -4.10946 0.640009 0
M  V30 7939 H 810.77 -3.56079 -1.10734 0
M  V30 7940 N 812.955 -0.234822 -1.55841 0
M  V30 7941 C 814.201 0.393843 -1.98939 0
M  V30 7942 C 814.534 1.58466 -1.1226 0
M  V30 7943 O 813.809 1.93635 -0.183242 0
M  V30 7944 C 814.092 0.815492 -3.50745 0
M  V30 7945 C 813.945 -0.379878 -4.48193 0
M  V30 7946 C 815.264 1.66687 -4.07312 0
M  V30 7947 H 812.383 0.141681 -0.723253 0
M  V30 7948 H 815.025 -0.333716 -1.87046 0
M  V30 7949 H 813.175 1.43541 -3.6101 0
M  V30 7950 H 814.847 -1.0182 -4.49923 0
M  V30 7951 H 813.09 -1.02507 -4.21515 0
M  V30 7952 H 813.761 -0.0417069 -5.51984 0
M  V30 7953 H 816.237 1.14369 -4.00074 0
M  V30 7954 H 815.113 1.93078 -5.13821 0
M  V30 7955 H 815.374 2.63468 -3.55017 0
M  V30 7956 N 814.433 1.57553 0.0384317 0
M  V30 7957 C 815.661 1.93093 0.743141 0
M  V30 7958 C 816.076 0.833787 1.69391 0
M  V30 7959 O 815.433 -0.190532 1.81503 0
M  V30 7960 C 815.484 3.28533 1.50826 0
M  V30 7961 O 815.205 4.34032 0.595665 0
M  V30 7962 C 816.706 3.78297 2.31098 0
M  V30 7963 H 813.926 0.637486 0.20941 0
M  V30 7964 H 816.47 2.045 -0.00125154 0
M  V30 7965 H 814.625 3.18552 2.20462 0
M  V30 7966 H 815.039 5.12155 1.13124 0
M  V30 7967 H 816.513 4.75602 2.80191 0
M  V30 7968 H 816.99 3.09008 3.12107 0
M  V30 7969 H 817.596 3.91331 1.66555 0
M  V30 7970 N 815.911 -0.310526 1.54511 0
M  V30 7971 C 817.157 -1.04846 1.73595 0
M  V30 7972 C 817.49 -1.87244 0.515118 0
M  V30 7973 O 816.765 -1.88282 -0.48786 0
M  V30 7974 C 817.048 -1.96237 3.01932 0
M  V30 7975 C 816.901 -1.17082 4.34295 0
M  V30 7976 C 818.22 -2.9556 3.26086 0
M  V30 7977 H 815.339 -0.37976 0.631626 0
M  V30 7978 H 817.981 -0.32394 1.87218 0
M  V30 7979 H 816.131 -2.58015 2.90449 0
M  V30 7980 H 817.803 -0.576643 4.57682 0
M  V30 7981 H 816.046 -0.473336 4.3121 0
M  V30 7982 H 816.717 -1.84257 5.20339 0
M  V30 7983 H 819.193 -2.43908 3.37117 0
M  V30 7984 H 818.069 -3.5668 4.17218 0
M  V30 7985 H 818.33 -3.68715 2.4393 0
M  V30 7986 N 817.389 -1.46805 -0.573248 0
M  V30 7987 C 818.614 -1.56433 -1.36175 0
M  V30 7988 C 819.039 -0.209336 -1.86932 0
M  V30 7989 O 818.397 0.812146 -1.62092 0
M  V30 7990 C 818.445 -2.58055 -2.51873 0
M  V30 7991 O 817.549 -2.12214 -3.53609 0
M  V30 7992 H 816.89 -0.526068 -0.405153 0
M  V30 7993 H 819.42 -1.92456 -0.694405 0
M  V30 7994 H 819.43 -2.77966 -2.98662 0
M  V30 7995 H 818.105 -3.56448 -2.14284 0
M  V30 7996 H 816.682 -2.02333 -3.13234 0
M  V30 7997 N 818.867 0.818669 -1.34668 0
M  V30 7998 C 820.115 1.57201 -1.27013 0
M  V30 7999 C 820.436 1.94354 0.158599 0
M  V30 8000 O 819.706 1.62626 1.09223 0
M  V30 8001 H 818.286 0.582919 -0.467135 0
M  V30 8002 H 820.948 0.977234 -1.6863 0
M  V30 8003 H 820.044 2.49291 -1.87778 0
M  V30 8004 N 820.346 1.18468 1.03938 0
M  V30 8005 C 821.594 0.978895 1.76811 0
M  V30 8006 C 821.915 -0.49257 1.88676 0
M  V30 8007 O 821.185 -1.3572 1.41269 0
M  V30 8008 H 819.765 0.359201 0.654968 0
M  V30 8009 H 822.427 1.49173 1.25433 0
M  V30 8010 H 821.523 1.418 2.78027 0
M  V30 8011 N 821.824 -1.22873 0.986916 0
M  V30 8012 C 823.235 -1.73264 0.695438 0
M  V30 8013 C 823.586 -1.79679 -0.788023 0
M  V30 8014 O 822.711 -1.43905 -1.61618 0
M  V30 8015 C 823.306 -3.14671 1.2557 0
M  V30 8016 C 821.865 -3.62492 1.01373 0
M  V30 8017 C 821.012 -2.40551 1.37951 0
M  V30 8018 H 823.963 -1.08304 1.15999 0
M  V30 8019 H 823.984 -3.75226 0.631322 0
M  V30 8020 H 823.496 -3.0997 2.33539 0
M  V30 8021 H 821.597 -3.72567 -0.0495917 0
M  V30 8022 H 821.71 -4.48944 1.67289 0
M  V30 8023 H 820.074 -2.41875 0.798033 0
M  V30 8024 H 820.857 -2.38516 2.46911 0
M  V30 8025 N 823.302 -0.75937 -1.38099 0
M  V30 8026 C 824.55 -0.317485 -1.99591 0
M  V30 8027 C 824.871 1.10628 -1.60581 0
M  V30 8028 O 824.141 1.7575 -0.865378 0
M  V30 8029 H 822.721 -0.114397 -0.738189 0
M  V30 8030 H 825.383 -0.974749 -1.68774 0
M  V30 8031 H 824.479 -0.385227 -3.09713 0
M  V30 8032 N 824.78 1.49157 -0.508906 0
M  V30 8033 C 825.743 2.27784 0.25434 0
M  V30 8034 C 826.743 1.34132 0.88686 0
M  V30 8035 O 827.933 1.5722 0.750168 0
M  V30 8036 C 825.065 3.12347 1.36573 0
M  V30 8037 H 826.258 2.96718 -0.435714 0
M  V30 8038 H 823.811 1.54052 -0.264128 0
M  V30 8039 H 824.546 2.47997 2.08969 0
M  V30 8040 H 824.331 3.81213 0.917543 0
M  V30 8041 H 825.821 3.71712 1.90315 0
M  V30 8042 N 826.258 0.243083 1.55714 0
M  V30 8043 C 827.19 -0.690766 2.18543 0
M  V30 8044 C 828.203 -1.14163 1.16064 0
M  V30 8045 O 829.392 -1.06906 1.42946 0
M  V30 8046 C 826.492 -1.95016 2.77168 0
M  V30 8047 C 825.665 -1.65137 4.05029 0
M  V30 8048 C 824.724 -2.75998 4.48009 0
M  V30 8049 O 823.75 -2.43547 5.14464 0
M  V30 8050 N 824.952 -4.05414 4.15476 0
M  V30 8051 H 827.717 -0.153203 2.99308 0
M  V30 8052 H 825.278 0.0628968 1.61778 0
M  V30 8053 H 827.27 -2.68414 3.0288 0
M  V30 8054 H 825.84 -2.39762 2.00582 0
M  V30 8055 H 825.06 -0.752768 3.86946 0
M  V30 8056 H 826.348 -1.42633 4.88399 0
M  V30 8057 H 825.746 -4.34613 3.62116 0
M  V30 8058 H 824.303 -4.75288 4.46032 0
M  V30 8059 N 827.736 -1.57571 -0.0300757 0
M  V30 8060 C 828.964 -1.93485 -0.732891 0
M  V30 8061 C 829.379 -0.842758 -1.68947 0
M  V30 8062 O 828.736 0.180904 -1.81601 0
M  V30 8063 C 828.787 -3.29328 -1.49082 0
M  V30 8064 O 828.508 -4.34341 -0.572639 0
M  V30 8065 C 830.009 -3.79517 -2.29088 0
M  V30 8066 H 827.229 -0.638588 -0.206026 0
M  V30 8067 H 829.773 -2.04496 0.0120966 0
M  V30 8068 H 827.928 -3.19716 -2.1877 0
M  V30 8069 H 828.342 -5.12748 -1.10406 0
M  V30 8070 H 829.816 -4.77081 -2.77665 0
M  V30 8071 H 830.293 -3.10659 -3.10464 0
M  V30 8072 H 830.899 -3.92208 -1.64477 0
M  V30 8073 N 829.214 0.302327 -1.54673 0
M  V30 8074 C 830.444 1.05516 -1.77623 0
M  V30 8075 C 830.852 1.81474 -0.535159 0
M  V30 8076 O 830.195 1.76635 0.504543 0
M  V30 8077 C 830.257 2.08305 -2.93001 0
M  V30 8078 C 829.921 1.51554 -4.31139 0
M  V30 8079 C 830.918 0.946261 -5.11216 0
M  V30 8080 C 828.603 1.55157 -4.77736 0
M  V30 8081 C 830.597 0.420559 -6.36011 0
M  V30 8082 C 828.284 1.022 -6.02494 0
M  V30 8083 C 829.282 0.457461 -6.81466 0
M  V30 8084 O 828.97 -0.064083 -8.03874 0
M  V30 8085 H 828.702 0.318756 -0.59613 0
M  V30 8086 H 831.256 0.347558 -2.02438 0
M  V30 8087 H 829.486 2.82742 -2.63807 0
M  V30 8088 H 831.175 2.69479 -3.03539 0
M  V30 8089 H 831.941 0.911338 -4.76361 0
M  V30 8090 H 827.82 1.98037 -4.16296 0
M  V30 8091 H 831.364 -0.0207298 -6.97597 0
M  V30 8092 H 827.261 1.05406 -6.36836 0
M  V30 8093 H 828.029 0.0493422 -8.18485 0
M  V30 8094 N 830.692 1.47107 0.565454 0
M  V30 8095 C 831.92 1.56909 1.3486 0
M  V30 8096 C 832.335 0.216312 1.87557 0
M  V30 8097 O 831.692 -0.789168 1.64555 0
M  V30 8098 C 831.743 2.58776 2.52423 0
M  V30 8099 O 831.464 3.888 2.01906 0
M  V30 8100 C 832.965 2.78683 3.44747 0
M  V30 8101 H 830.185 0.530096 0.411387 0
M  V30 8102 H 832.729 1.92658 0.685782 0
M  V30 8103 H 830.884 2.25983 3.1466 0
M  V30 8104 H 831.298 4.44393 2.78595 0
M  V30 8105 H 832.772 3.53842 4.23674 0
M  V30 8106 H 833.249 1.86208 3.97773 0
M  V30 8107 H 833.855 3.12641 2.88333 0
M  V30 8108 N 832.17 -0.811516 1.35101 0
M  V30 8109 C 833.118 -1.94449 1.27642 0
M  V30 8110 C 834.112 -1.68522 0.172287 0
M  V30 8111 O 835.318 -1.76799 0.337967 0
M  V30 8112 H 831.693 -0.638776 0.396824 0
M  V30 8113 H 833.664 -1.97861 2.23369 0
M  V30 8114 C 832.413 -3.31139 1.06029 0
M  V30 8115 H 831.736 -3.51644 1.90227 0
M  V30 8116 H 833.176 -4.10831 1.0485 0
M  V30 8117 C 831.635 -3.36072 -0.236039 0
M  V30 8118 O 832.165 -3.82292 -1.23353 0
M  V30 8119 N 830.371 -2.89314 -0.273107 0
M  V30 8120 H 829.918 -2.51893 0.539211 0
M  V30 8121 H 829.876 -2.92996 -1.1402 0
M  V30 8122 N 833.648 -1.19017 -1.03309 0
M  V30 8123 C 834.925 -0.899659 -1.73682 0
M  V30 8124 C 835.305 0.595677 -2.02521 0
M  V30 8125 O 834.653 1.55263 -1.67648 0
M  V30 8126 C 834.863 -1.75508 -3.01659 0
M  V30 8127 C 836.211 -1.98679 -3.75249 0
M  V30 8128 O 837.235 -1.72624 -3.11576 0
M  V30 8129 O 836.094 -2.42587 -4.89708 0
M  V30 8130 H 833.188 -0.334903 -0.756154 0
M  V30 8131 H 835.734 -1.29809 -1.09305 0
M  V30 8132 H 834.506 -2.7684 -2.76542 0
M  V30 8133 H 834.129 -1.35565 -3.73775 0
M  V30 8134 N 835.127 1.22348 -0.993418 0
M  V30 8135 C 836.355 1.95125 -0.688021 0
M  V30 8136 C 836.77 1.73377 0.747388 0
M  V30 8137 O 836.127 1.03317 1.50439 0
M  V30 8138 C 836.178 3.47819 -0.985097 0
M  V30 8139 O 835.899 3.68838 -2.3641 0
M  V30 8140 C 837.4 4.37779 -0.697474 0
M  V30 8141 H 834.62 0.62087 -0.254481 0
M  V30 8142 H 837.164 1.55485 -1.32833 0
M  V30 8143 H 835.319 3.85426 -0.390583 0
M  V30 8144 H 835.733 4.63032 -2.46377 0
M  V30 8145 H 837.207 5.43666 -0.955604 0
M  V30 8146 H 837.684 4.37651 0.368524 0
M  V30 8147 H 838.29 4.05799 -1.27306 0
M  V30 8148 N 836.605 0.766683 1.37694 0
M  V30 8149 C 837.882 0.25366 1.93948 0
M  V30 8150 C 838.262 -1.25041 1.70082 0
M  V30 8151 O 837.61 -2.03115 1.04674 0
M  V30 8152 C 837.82 0.621549 3.43421 0
M  V30 8153 C 839.168 0.588504 4.20502 0
M  V30 8154 O 840.192 0.560632 3.5176 0
M  V30 8155 O 839.051 0.61107 5.43073 0
M  V30 8156 H 836.145 0.0570586 0.825029 0
M  V30 8157 H 838.691 0.847693 1.47011 0
M  V30 8158 H 837.463 1.65979 3.54354 0
M  V30 8159 H 837.086 0.000197027 3.976 0
M  V30 8160 N 838.083 -1.48885 0.516809 0
M  V30 8161 C 839.329 -2.02788 -0.0220928 0
M  V30 8162 C 839.662 -1.39433 -1.35175 0
M  V30 8163 O 838.937 -0.535459 -1.86984 0
M  V30 8164 C 839.22 -3.59753 -0.158012 0
M  V30 8165 C 839.073 -4.33611 1.19588 0
M  V30 8166 C 840.392 -4.30984 -0.891133 0
M  V30 8167 H 837.511 -0.736971 -0.00655488 0
M  V30 8168 H 840.153 -1.77746 0.671287 0
M  V30 8169 H 838.303 -3.8122 -0.748568 0
M  V30 8170 H 839.975 -4.23598 1.82653 0
M  V30 8171 H 838.218 -3.95547 1.78116 0
M  V30 8172 H 838.889 -5.41846 1.05391 0
M  V30 8173 H 841.365 -4.14267 -0.39012 0
M  V30 8174 H 840.241 -5.40527 -0.955107 0
M  V30 8175 H 840.502 -3.97336 -1.93847 0
M  V30 8176 N 839.561 -0.251338 -1.55583 0
M  V30 8177 C 840.524 0.63305 -2.20284 0
M  V30 8178 C 841.524 1.09941 -1.17344 0
M  V30 8179 O 842.714 1.00341 -1.42399 0
M  V30 8180 C 839.846 1.8706 -2.84993 0
M  V30 8181 H 841.039 0.0684846 -2.99822 0
M  V30 8182 H 838.592 -0.00181653 -1.563 0
M  V30 8183 H 839.327 2.47629 -2.09405 0
M  V30 8184 H 839.112 1.54436 -3.60405 0
M  V30 8185 H 840.602 2.50004 -3.34496 0
M  V30 8186 N 841.039 1.57585 0.0217189 0
M  V30 8187 C 842.288 1.88786 0.710125 0
M  V30 8188 C 842.601 0.850819 1.76126 0
M  V30 8189 O 843.807 1.0523 2.50277 0
M  V30 8190 C 842.263 3.3505 1.31413 0
M  V30 8191 C 841.871 4.47001 0.298959 0
M  V30 8192 C 843.615 3.7539 1.98199 0
M  V30 8193 C 841.522 5.8433 0.911727 0
M  V30 8194 H 840.452 0.704388 0.268986 0
M  V30 8195 H 843.103 1.83466 -0.0352638 0
M  V30 8196 H 841.485 3.35138 2.10947 0
M  V30 8197 H 842.659 4.58395 -0.470203 0
M  V30 8198 H 840.974 4.15542 -0.267222 0
M  V30 8199 H 843.571 4.75314 2.4491 0
M  V30 8200 H 843.914 3.07766 2.80331 0
M  V30 8201 H 844.447 3.77508 1.2543 0
M  V30 8202 H 841.186 6.55372 0.129659 0
M  V30 8203 H 840.706 5.76643 1.65056 0
M  V30 8204 H 842.385 6.31295 1.41688 0
M  V30 8205 N 842.517 -0.29412 1.54831 0
M  V30 8206 C 843.928 -0.866651 1.65366 0
M  V30 8207 C 844.279 -1.87834 0.56681 0
M  V30 8208 O 843.404 -2.14374 -0.295389 0
M  V30 8209 C 843.999 -1.57869 2.99771 0
M  V30 8210 C 842.558 -2.09954 3.12404 0
M  V30 8211 C 841.705 -0.934492 2.6108 0
M  V30 8212 H 844.656 -0.0709551 1.58541 0
M  V30 8213 H 844.677 -2.44462 2.91579 0
M  V30 8214 H 844.189 -0.84212 3.78853 0
M  V30 8215 H 842.29 -2.86637 2.38055 0
M  V30 8216 H 842.403 -2.32934 4.18663 0
M  V30 8217 H 840.767 -1.32199 2.17705 0
M  V30 8218 H 841.55 -0.211768 3.42646 0
M  V30 8219 N 843.995 -1.47404 -0.557645 0
M  V30 8220 C 845.272 -1.44488 -1.31843 0
M  V30 8221 C 845.652 -0.1416 -2.10625 0
M  V30 8222 O 845 0.876908 -2.11004 0
M  V30 8223 C 845.21 -2.69016 -2.22331 0
M  V30 8224 C 846.558 -3.16212 -2.83364 0
M  V30 8225 O 847.582 -2.69741 -2.32634 0
M  V30 8226 O 846.441 -3.96999 -3.75571 0
M  V30 8227 H 843.535 -0.57578 -0.593639 0
M  V30 8228 H 846.081 -1.59605 -0.576584 0
M  V30 8229 H 844.853 -3.55406 -1.63715 0
M  V30 8230 H 844.476 -2.56484 -3.03812 0
M  V30 8231 N 845.473 0.80434 -1.35529 0
M  V30 8232 C 846.421 1.93769 -1.28671 0
M  V30 8233 C 847.415 1.68428 -0.181222 0
M  V30 8234 O 848.621 1.76617 -0.347338 0
M  V30 8235 H 844.996 0.636663 -0.400206 0
M  V30 8236 H 846.967 1.96673 -2.24415 0
M  V30 8237 C 845.716 3.30572 -1.07784 0
M  V30 8238 H 845.039 3.5063 -1.9209 0
M  V30 8239 H 846.479 4.1027 -1.07027 0
M  V30 8240 C 844.938 3.36193 0.218213 0
M  V30 8241 O 845.468 3.82941 1.21323 0
M  V30 8242 N 843.674 2.89455 0.257761 0
M  V30 8243 H 843.221 2.51604 -0.552562 0
M  V30 8244 H 843.179 2.93597 1.12465 0
M  V30 8245 N 846.951 1.19563 1.02676 0
M  V30 8246 C 847.914 0.937182 2.09164 0
M  V30 8247 C 848.914 -0.0831927 1.60585 0
M  V30 8248 O 850.104 0.15178 1.73538 0
M  V30 8249 C 847.236 0.408912 3.38439 0
M  V30 8250 H 848.429 1.88164 2.33526 0
M  V30 8251 H 845.982 1.00959 1.19319 0
M  V30 8252 H 846.717 -0.541497 3.19747 0
M  V30 8253 H 846.502 1.14464 3.7502 0
M  V30 8254 H 847.992 0.247242 4.16867 0
M  V30 8255 N 848.429 -1.21819 0.999893 0
M  V30 8256 C 849.657 -1.94758 0.698359 0
M  V30 8257 C 850.072 -1.73771 -0.738183 0
M  V30 8258 O 849.429 -1.04113 -1.49889 0
M  V30 8259 C 849.48 -3.47292 1.00353 0
M  V30 8260 O 849.201 -3.67579 2.38363 0
M  V30 8261 C 850.702 -4.37403 0.72068 0
M  V30 8262 H 847.922 -0.619512 0.257771 0
M  V30 8263 H 850.466 -1.54778 1.33656 0
M  V30 8264 H 848.621 -3.85213 0.411018 0
M  V30 8265 H 849.035 -4.61719 2.48829 0
M  V30 8266 H 850.509 -5.43151 0.984422 0
M  V30 8267 H 850.986 -4.3784 -0.345309 0
M  V30 8268 H 851.592 -4.05119 1.29456 0
M  V30 8269 N 849.908 -0.773975 -1.37286 0
M  V30 8270 C 851.154 -0.339809 -1.99933 0
M  V30 8271 C 851.487 1.0815 -1.61299 0
M  V30 8272 O 850.762 1.74442 -0.860252 0
M  V30 8273 C 851.045 -0.485919 -3.56806 0
M  V30 8274 C 850.898 -1.9498 -4.05343 0
M  V30 8275 C 852.217 0.108461 -4.39966 0
M  V30 8276 H 849.336 -0.124944 -0.726332 0
M  V30 8277 H 851.978 -0.977433 -1.6293 0
M  V30 8278 H 850.128 0.0569023 -3.88458 0
M  V30 8279 H 851.8 -2.5525 -3.84246 0
M  V30 8280 H 850.043 -2.45784 -3.57453 0
M  V30 8281 H 850.714 -2.00308 -5.14374 0
M  V30 8282 H 853.19 -0.354722 -4.14585 0
M  V30 8283 H 852.066 -0.0238926 -5.48895 0
M  V30 8284 H 852.327 1.19901 -4.25531 0
M  V30 8285 N 851.386 1.48609 -0.524698 0
M  V30 8286 C 852.296 2.33318 0.244923 0
M  V30 8287 C 853.312 1.46153 0.944214 0
M  V30 8288 O 854.488 1.79141 0.920347 0
M  V30 8289 C 851.553 3.22149 1.28144 0
M  V30 8290 C 850.614 4.25184 0.593068 0
M  V30 8291 C 849.847 5.0977 1.5802 0
M  V30 8292 O 850.07 4.96249 2.81235 0
M  V30 8293 O 849.004 5.9134 1.1225 0
M  V30 8294 H 852.83 3.00362 -0.449066 0
M  V30 8295 H 850.415 1.46643 -0.285689 0
M  V30 8296 H 852.297 3.77111 1.88057 0
M  V30 8297 H 850.972 2.57772 1.95793 0
M  V30 8298 H 849.879 3.74071 -0.0464214 0
M  V30 8299 H 851.212 4.92183 -0.0413893 0
M  V30 8300 N 852.864 0.259585 1.55447 0
M  V30 8301 C 854.089 -0.368317 2.04103 0
M  V30 8302 C 854.514 -1.49827 1.13725 0
M  V30 8303 O 853.872 -1.80814 0.132705 0
M  V30 8304 C 853.92 -0.841506 3.50644 0
M  V30 8305 O 853.024 -1.95008 3.63381 0
M  V30 8306 H 852.365 -0.0785227 0.659341 0
M  V30 8307 H 854.895 0.389349 2.00861 0
M  V30 8308 H 854.905 -1.14138 3.9171 0
M  V30 8309 H 853.58 -0.0147001 4.15897 0
M  V30 8310 H 852.157 -1.65393 3.34215 0
M  V30 8311 N 854.342 -1.57594 -0.0133615 0
M  V30 8312 C 855.753 -1.78168 -0.557937 0
M  V30 8313 C 856.104 -0.892616 -1.74719 0
M  V30 8314 O 855.229 -0.0915491 -2.16206 0
M  V30 8315 C 855.824 -3.23115 -1.01894 0
M  V30 8316 C 854.383 -3.44831 -1.50892 0
M  V30 8317 C 853.53 -2.73558 -0.454044 0
M  V30 8318 H 856.481 -1.57266 0.212843 0
M  V30 8319 H 856.502 -3.30493 -1.8856 0
M  V30 8320 H 856.014 -3.87798 -0.153175 0
M  V30 8321 H 854.115 -2.85345 -2.39602 0
M  V30 8322 H 854.228 -4.53485 -1.54559 0
M  V30 8323 H 852.592 -2.37787 -0.912666 0
M  V30 8324 H 853.375 -3.40932 0.402524 0
M  V30 8325 N 855.82 0.285905 -1.54985 0
M  V30 8326 C 857.069 1.01691 -1.74189 0
M  V30 8327 C 857.382 1.87908 -0.543135 0
M  V30 8328 O 858.588 2.64389 -0.617305 0
M  V30 8329 C 857.044 1.85785 -3.0824 0
M  V30 8330 C 856.652 1.04497 -4.35642 0
M  V30 8331 C 858.396 2.58393 -3.36798 0
M  V30 8332 C 856.303 1.87955 -5.60738 0
M  V30 8333 H 855.233 0.383396 -0.649248 0
M  V30 8334 H 857.884 0.27317 -1.81455 0
M  V30 8335 H 856.266 2.64205 -2.94978 0
M  V30 8336 H 857.44 0.305847 -4.59784 0
M  V30 8337 H 855.755 0.434023 -4.14132 0
M  V30 8338 H 858.352 3.21214 -4.27464 0
M  V30 8339 H 858.695 3.28011 -2.56349 0
M  V30 8340 H 859.228 1.87012 -3.511 0
M  V30 8341 H 855.967 1.22781 -6.43898 0
M  V30 8342 H 855.487 2.59499 -5.40759 0
M  V30 8343 H 857.166 2.45636 -5.98558 0
M  V30 8344 N 857.298 1.47698 0.54982 0
M  V30 8345 C 858.526 1.5833 1.33188 0
M  V30 8346 C 858.941 0.236193 1.87317 0
M  V30 8347 O 858.298 -0.77167 1.65383 0
M  V30 8348 C 858.349 2.61438 2.49664 0
M  V30 8349 O 858.07 3.9092 1.97771 0
M  V30 8350 C 859.571 2.82324 3.41772 0
M  V30 8351 H 856.791 0.53443 0.405741 0
M  V30 8352 H 859.335 1.93375 0.665309 0
M  V30 8353 H 857.49 2.29307 3.12245 0
M  V30 8354 H 857.904 4.47323 2.73866 0
M  V30 8355 H 859.378 3.58316 4.19897 0
M  V30 8356 H 859.855 1.90416 3.95776 0
M  V30 8357 H 860.461 3.15682 2.85 0
M  V30 8358 N 858.776 -0.797141 1.35954 0
M  V30 8359 C 860.022 -1.55698 1.29946 0
M  V30 8360 C 860.355 -1.93808 -0.123259 0
M  V30 8361 O 859.63 -1.62102 -1.07486 0
M  V30 8362 C 859.913 -2.83926 2.2149 0
M  V30 8363 C 859.766 -2.52232 3.72423 0
M  V30 8364 C 861.085 -3.85698 2.11955 0
M  V30 8365 H 858.204 -0.56488 0.47337 0
M  V30 8366 H 860.846 -0.916421 1.66438 0
M  V30 8367 H 858.996 -3.38588 1.905 0
M  V30 8368 H 860.668 -2.0368 4.13899 0
M  V30 8369 H 858.911 -1.85286 3.92239 0
M  V30 8370 H 859.582 -3.43782 4.31877 0
M  V30 8371 H 862.058 -3.40462 2.39218 0
M  V30 8372 H 860.934 -4.73182 2.78191 0
M  V30 8373 H 861.195 -4.28083 1.10442 0
M  V30 8374 N 860.254 -1.20106 -1.0204 0
M  V30 8375 C 861.479 -1.0351 -1.79723 0
M  V30 8376 C 861.904 0.411328 -1.83548 0
M  V30 8377 O 861.262 1.29608 -1.26773 0
M  V30 8378 C 861.31 -1.61876 -3.22224 0
M  V30 8379 O 860.414 -0.853813 -4.03465 0
M  V30 8380 H 859.755 -0.365299 -0.554484 0
M  V30 8381 H 862.285 -1.59316 -1.28373 0
M  V30 8382 H 862.295 -1.65451 -3.72948 0
M  V30 8383 H 860.97 -2.67148 -3.18755 0
M  V30 8384 H 859.547 -0.891983 -3.62075 0
M  V30 8385 N 861.732 1.21287 -1.00634 0
M  V30 8386 C 862.98 1.90013 -0.688438 0
M  V30 8387 C 863.301 1.78573 0.783365 0
M  V30 8388 O 862.571 1.1815 1.56261 0
M  V30 8389 H 861.151 0.703336 -0.251648 0
M  V30 8390 H 863.813 1.47346 -1.27574 0
M  V30 8391 H 862.909 2.96879 -0.962781 0
M  V30 8392 N 863.21 0.781244 1.36873 0
M  V30 8393 C 864.626 0.461968 1.52768 0
M  V30 8394 C 864.826 -1.02099 1.73719 0
M  V30 8395 O 863.882 -1.80665 1.76399 0
M  V30 8396 C 865.195 1.2853 2.71846 0
M  V30 8397 C 866.743 1.27817 2.85713 0
M  V30 8398 C 867.218 2.08506 4.07786 0
M  V30 8399 N 868.709 2.05909 4.14917 0
M  V30 8400 C 869.444 2.65118 5.08429 0
M  V30 8401 N 868.94 3.33152 6.07438 0
M  V30 8402 N 870.733 2.54896 5.00983 0
M  V30 8403 H 862.884 1.74198 1.21527 0
M  V30 8404 H 865.147 0.740027 0.592506 0
M  V30 8405 H 864.853 2.3366 2.62861 0
M  V30 8406 H 864.727 0.920981 3.65784 0
M  V30 8407 H 867.114 0.234817 2.94164 0
M  V30 8408 H 867.195 1.68219 1.92707 0
M  V30 8409 H 866.839 3.12867 4.00096 0
M  V30 8410 H 866.769 1.65479 4.99924 0
M  V30 8411 H 869.26 1.56386 3.44023 0
M  V30 8412 H 869.573 3.75681 6.75339 0
M  V30 8413 H 867.918 3.37253 6.07689 0
M  V30 8414 H 871.109 2.01352 4.22581 0
M  V30 8415 H 871.282 3.01332 5.73675 0
M  V30 8416 N 864.689 -1.48329 0.532571 0
M  V30 8417 C 865.917 -2.069 0.00354299 0
M  V30 8418 C 866.332 -1.38876 -1.27902 0
M  V30 8419 O 865.689 -0.477119 -1.76153 0
M  V30 8420 C 865.74 -3.60821 -0.221416 0
M  V30 8421 O 865.461 -4.26291 1.01034 0
M  V30 8422 C 866.962 -4.36194 -0.790531 0
M  V30 8423 H 864.182 -0.670103 0.0346836 0
M  V30 8424 H 866.726 -1.90682 0.738955 0
M  V30 8425 H 864.881 -3.76636 -0.906884 0
M  V30 8426 H 865.295 -5.18475 0.792683 0
M  V30 8427 H 866.769 -5.44657 -0.897347 0
M  V30 8428 H 867.246 -4.00798 -1.79605 0
M  V30 8429 H 867.852 -4.25064 -0.141546 0
M  V30 8430 N 866.167 -0.267825 -1.55308 0
M  V30 8431 C 867.415 0.350343 -1.9904 0
M  V30 8432 C 867.736 1.56924 -1.15758 0
M  V30 8433 O 867.006 1.94358 -0.245336 0
M  V30 8434 H 865.586 0.132435 -0.735167 0
M  V30 8435 H 868.248 -0.371471 -1.91327 0
M  V30 8436 H 867.344 0.645203 -3.05358 0
M  V30 8437 N 867.645 1.57599 0.00500368 0
M  V30 8438 C 868.593 2.09223 1.01628 0
M  V30 8439 C 869.587 1.01113 1.35913 0
M  V30 8440 O 870.793 1.19583 1.34536 0
M  V30 8441 H 867.168 0.667999 0.345372 0
M  V30 8442 H 869.139 2.93188 0.555274 0
M  V30 8443 C 867.888 2.60674 2.30097 0
M  V30 8444 H 867.211 3.43491 2.04582 0
M  V30 8445 H 868.651 3.00479 2.99146 0
M  V30 8446 C 867.11 1.51862 3.00731 0
M  V30 8447 O 867.64 0.898651 3.91519 0
M  V30 8448 N 865.846 1.24729 2.62471 0
M  V30 8449 H 865.393 1.7533 1.88725 0
M  V30 8450 H 865.351 0.521437 3.10046 0
M  V30 8451 N 869.123 -0.277682 1.55134 0
M  V30 8452 C 870.371 -1.00791 1.75173 0
M  V30 8453 C 870.692 -1.86987 0.553266 0
M  V30 8454 O 869.962 -1.91079 -0.43195 0
M  V30 8455 H 868.542 -0.375129 0.645978 0
M  V30 8456 H 871.204 -0.303041 1.9253 0
M  V30 8457 H 870.3 -1.64756 2.6507 0
M  V30 8458 N 870.601 -1.47988 -0.541979 0
M  V30 8459 C 871.826 -1.59286 -1.32826 0
M  V30 8460 C 872.251 -0.24894 -1.86445 0
M  V30 8461 O 871.609 0.777581 -1.63778 0
M  V30 8462 C 871.657 -2.6334 -2.46343 0
M  V30 8463 O 870.761 -2.19667 -3.49028 0
M  V30 8464 H 870.102 -0.534543 -0.393903 0
M  V30 8465 H 872.632 -1.93885 -0.653427 0
M  V30 8466 H 872.642 -2.84238 -2.92699 0
M  V30 8467 H 871.317 -3.60913 -2.06675 0
M  V30 8468 H 869.894 -2.08932 -3.08872 0
M  V30 8469 N 872.079 0.78992 -1.36375 0
M  V30 8470 C 873.042 1.88414 -1.30509 0
M  V30 8471 C 874.042 1.59384 -0.2129 0
M  V30 8472 O 875.232 1.67805 -0.467651 0
M  V30 8473 C 872.364 3.25188 -1.02302 0
M  V30 8474 H 873.557 1.95031 -2.27822 0
M  V30 8475 H 871.11 0.987664 -1.2114 0
M  V30 8476 H 871.845 3.24254 -0.0544486 0
M  V30 8477 H 871.63 3.47647 -1.81338 0
M  V30 8478 H 873.12 4.05252 -1.00801 0
M  V30 8479 N 873.557 1.20646 1.01402 0
M  V30 8480 C 874.785 1.04389 1.78635 0
M  V30 8481 C 875.2 -0.406771 1.84366 0
M  V30 8482 O 874.557 -1.28239 1.2985 0
M  V30 8483 C 874.608 1.62378 3.22979 0
M  V30 8484 O 874.329 3.01768 3.17597 0
M  V30 8485 C 875.83 1.5111 4.1675 0
M  V30 8486 H 873.05 0.367077 0.56169 0
M  V30 8487 H 875.594 1.59789 1.27624 0
M  V30 8488 H 873.749 1.11092 3.7113 0
M  V30 8489 H 874.163 3.29331 4.08217 0
M  V30 8490 H 875.637 1.96441 5.15863 0
M  V30 8491 H 876.114 0.464011 4.36742 0
M  V30 8492 H 876.72 2.01599 3.74483 0
M  V30 8493 N 875.035 -1.20752 1.01276 0
M  V30 8494 C 876.263 -1.94006 0.718976 0
M  V30 8495 C 876.678 -1.74544 -0.719711 0
M  V30 8496 O 876.035 -1.05697 -1.48776 0
M  V30 8497 C 876.086 -3.46208 1.04031 0
M  V30 8498 O 875.807 -3.65031 2.42248 0
M  V30 8499 C 877.308 -4.36614 0.767032 0
M  V30 8500 H 874.528 -0.616743 0.264327 0
M  V30 8501 H 877.072 -1.53352 1.3529 0
M  V30 8502 H 875.227 -3.84756 0.451852 0
M  V30 8503 H 875.641 -4.59054 2.53712 0
M  V30 8504 H 877.115 -5.42076 1.04198 0
M  V30 8505 H 877.592 -4.38182 -0.298851 0
M  V30 8506 H 878.198 -4.03723 1.33746 0
M  V30 8507 N 876.513 -0.788492 -1.36457 0
M  V30 8508 C 877.924 -0.423742 -1.81828 0
M  V30 8509 C 878.275 1.05221 -1.65599 0
M  V30 8510 O 877.4 1.8163 -1.17641 0
M  V30 8511 C 877.995 -0.762354 -3.30112 0
M  V30 8512 C 876.554 -0.450445 -3.73695 0
M  V30 8513 C 875.701 -0.997482 -2.58738 0
M  V30 8514 H 878.652 -0.981718 -1.24692 0
M  V30 8515 H 878.673 -0.0531136 -3.80463 0
M  V30 8516 H 878.185 -1.83662 -3.41891 0
M  V30 8517 H 876.286 0.615829 -3.67476 0
M  V30 8518 H 876.399 -0.970408 -4.69169 0
M  V30 8519 H 874.763 -0.420761 -2.51201 0
M  V30 8520 H 875.546 -2.07749 -2.73304 0
M  V30 8521 N 877.991 1.48044 -0.54043 0
M  V30 8522 C 879.24 2.01698 -0.00809961 0
M  V30 8523 C 879.553 1.42184 1.34325 0
M  V30 8524 O 880.759 1.87398 1.96454 0
M  V30 8525 C 879.215 3.59882 0.035933 0
M  V30 8526 C 878.823 4.28384 -1.31115 0
M  V30 8527 C 880.567 4.21346 0.51654 0
M  V30 8528 C 878.474 5.78529 -1.22714 0
M  V30 8529 H 877.404 0.754 0.000742174 0
M  V30 8530 H 880.055 1.70204 -0.685775 0
M  V30 8531 H 878.437 3.88264 0.778906 0
M  V30 8532 H 879.611 4.11663 -2.07051 0
M  V30 8533 H 877.926 3.78837 -1.72834 0
M  V30 8534 H 880.523 5.31351 0.597529 0
M  V30 8535 H 880.866 3.87373 1.52473 0
M  V30 8536 H 881.399 3.97432 -0.171064 0
M  V30 8537 H 878.138 6.17093 -2.21081 0
M  V30 8538 H 877.658 5.97634 -0.50931 0
M  V30 8539 H 879.337 6.40395 -0.92216 0
M  V30 8540 N 879.47 0.276058 1.55163 0
M  V30 8541 C 880.402 -0.644254 2.19959 0
M  V30 8542 C 881.415 -1.11675 1.18459 0
M  V30 8543 O 882.604 -1.0385 1.45181 0
M  V30 8544 C 879.704 -1.89093 2.81242 0
M  V30 8545 C 878.877 -1.56509 4.08441 0
M  V30 8546 C 877.936 -2.66433 4.53762 0
M  V30 8547 O 876.962 -2.32579 5.19515 0
M  V30 8548 N 878.164 -3.96509 4.23982 0
M  V30 8549 H 880.929 -0.0896808 2.99566 0
M  V30 8550 H 878.49 0.0971981 1.61608 0
M  V30 8551 H 880.482 -2.61929 3.08505 0
M  V30 8552 H 879.052 -2.35453 2.05622 0
M  V30 8553 H 878.272 -0.670522 3.88455 0
M  V30 8554 H 879.56 -1.32242 4.91314 0
M  V30 8555 H 878.958 -4.26834 3.71254 0
M  V30 8556 H 877.515 -4.6572 4.56014 0
M  V30 8557 N 880.948 -1.576 0.00335426 0
M  V30 8558 C 882.194 -1.90996 -0.681799 0
M  V30 8559 C 882.527 -0.877643 -1.73237 0
M  V30 8560 O 881.802 0.103183 -1.94226 0
M  V30 8561 C 882.085 -3.34961 -1.32187 0
M  V30 8562 C 881.938 -4.48911 -0.28261 0
M  V30 8563 C 883.257 -3.78408 -2.24711 0
M  V30 8564 H 880.376 -0.694596 -0.246386 0
M  V30 8565 H 883.018 -1.89919 0.055336 0
M  V30 8566 H 881.168 -3.36008 -1.95014 0
M  V30 8567 H 882.84 -4.59999 0.346241 0
M  V30 8568 H 881.083 -4.32 0.394768 0
M  V30 8569 H 881.754 -5.46609 -0.769576 0
M  V30 8570 H 884.23 -3.78934 -1.71897 0
M  V30 8571 H 883.106 -4.79885 -2.66461 0
M  V30 8572 H 883.367 -3.12464 -3.1276 0
M  V30 8573 N 882.426 0.269451 -1.5528 0
M  V30 8574 C 883.654 1.01872 -1.80082 0
M  V30 8575 C 884.069 1.79802 -0.575917 0
M  V30 8576 O 883.426 1.76735 0.455081 0
M  V30 8577 C 883.477 1.9745 -3.02813 0
M  V30 8578 O 883.198 1.22677 -4.20573 0
M  V30 8579 C 884.699 2.8416 -3.40247 0
M  V30 8580 H 881.919 0.300781 -0.59981 0
M  V30 8581 H 884.463 0.29916 -2.023 0
M  V30 8582 H 882.618 2.64864 -2.82712 0
M  V30 8583 H 883.032 1.87129 -4.89982 0
M  V30 8584 H 884.506 3.47014 -4.29284 0
M  V30 8585 H 884.983 3.54113 -2.59809 0
M  V30 8586 H 885.589 2.22232 -3.6262 0
M  V30 8587 N 883.904 1.48273 0.534124 0
M  V30 8588 C 885.153 1.55334 1.28663 0
M  V30 8589 C 885.466 0.230345 1.94239 0
M  V30 8590 O 886.672 0.179161 2.70908 0
M  V30 8591 C 885.128 2.73927 2.33435 0
M  V30 8592 C 884.736 4.12852 1.73947 0
M  V30 8593 C 886.48 2.90298 3.09722 0
M  V30 8594 C 884.387 5.22711 2.76636 0
M  V30 8595 H 883.317 0.578262 0.483869 0
M  V30 8596 H 885.968 1.74598 0.564602 0
M  V30 8597 H 884.35 2.48089 3.08655 0
M  V30 8598 H 885.524 4.48691 1.04944 0
M  V30 8599 H 883.839 4.01562 1.10167 0
M  V30 8600 H 886.436 3.69542 3.86449 0
M  V30 8601 H 886.779 1.99598 3.6533 0
M  V30 8602 H 887.312 3.16017 2.41616 0
M  V30 8603 H 884.051 6.15362 2.25852 0
M  V30 8604 H 883.571 4.91364 3.43979 0
M  V30 8605 H 885.25 5.50648 3.39699 0
M  V30 8606 N 885.382 -0.782676 1.36792 0
M  V30 8607 C 886.612 -1.56934 1.3437 0
M  V30 8608 C 887.02 -1.89049 -0.0754828 0
M  V30 8609 O 886.363 -1.51103 -1.04467 0
M  V30 8610 C 886.425 -2.91311 2.10661 0
M  V30 8611 C 886.089 -2.81889 3.59705 0
M  V30 8612 C 887.086 -2.53668 4.53815 0
M  V30 8613 C 884.771 -3.00254 4.02682 0
M  V30 8614 C 886.765 -2.43925 5.8888 0
M  V30 8615 C 884.452 -2.90132 5.37835 0
M  V30 8616 C 885.45 -2.62006 6.30747 0
M  V30 8617 O 885.138 -2.5189 7.63418 0
M  V30 8618 H 884.87 -0.493194 0.462316 0
M  V30 8619 H 887.424 -0.978791 1.80579 0
M  V30 8620 H 885.654 -3.52443 1.59125 0
M  V30 8621 H 887.343 -3.52632 2.01012 0
M  V30 8622 H 888.109 -2.39176 4.21924 0
M  V30 8623 H 883.988 -3.21151 3.30731 0
M  V30 8624 H 887.532 -2.21892 6.6137 0
M  V30 8625 H 883.429 -3.04189 5.69332 0
M  V30 8626 H 884.197 -2.67321 7.73616 0
M  V30 8627 N 886.86 -1.21182 -1.00761 0
M  V30 8628 C 887.81 -0.936247 -2.0789 0
M  V30 8629 C 888.794 0.107482 -1.60541 0
M  V30 8630 O 889.986 -0.1011 -1.76711 0
M  V30 8631 C 887.115 -0.499949 -3.3964 0
M  V30 8632 C 886.201 -1.5776 -3.93666 0
M  V30 8633 N 886.592 -2.80208 -4.2109 0
M  V30 8634 C 884.89 -1.44586 -4.21913 0
M  V30 8635 C 885.591 -3.49787 -4.64784 0
M  V30 8636 N 884.567 -2.7722 -4.676 0
M  V30 8637 H 888.369 -1.86659 -2.27015 0
M  V30 8638 H 885.883 -1.10716 -1.1881 0
M  V30 8639 H 887.88 -0.283897 -4.15932 0
M  V30 8640 H 886.54 0.423659 -3.21924 0
M  V30 8641 H 887.551 -3.16776 -4.09724 0
M  V30 8642 H 884.228 -0.587346 -4.13348 0
M  V30 8643 H 885.618 -4.54615 -4.94747 0
M  V30 8644 N 888.338 1.20213 -1.01915 0
M  V30 8645 C 889.566 1.93622 -0.729255 0
M  V30 8646 C 889.981 1.74923 0.710444 0
M  V30 8647 O 889.338 1.06484 1.48214 0
M  V30 8648 C 889.389 3.45651 -1.05865 0
M  V30 8649 O 889.11 3.63741 -2.44181 0
M  V30 8650 C 890.611 4.36201 -0.790176 0
M  V30 8651 H 887.831 0.615333 -0.267594 0
M  V30 8652 H 890.375 1.52633 -1.36101 0
M  V30 8653 H 888.53 3.84511 -0.47225 0
M  V30 8654 H 888.944 4.57702 -2.56143 0
M  V30 8655 H 890.418 5.41516 -1.07071 0
M  V30 8656 H 890.895 4.38334 0.275609 0
M  V30 8657 H 891.501 4.03008 -1.35885 0
M  V30 8658 N 889.816 0.795718 1.36037 0
M  V30 8659 C 891.046 0.382597 2.03026 0
M  V30 8660 C 891.454 -1.00779 1.60126 0
M  V30 8661 O 890.797 -1.65884 0.78919 0
M  V30 8662 C 890.859 0.374145 3.57548 0
M  V30 8663 C 890.523 1.71318 4.23673 0
M  V30 8664 C 891.52 2.6697 4.4612 0
M  V30 8665 C 889.205 1.99421 4.61017 0
M  V30 8666 C 891.199 3.88916 5.04998 0
M  V30 8667 C 888.886 3.21632 5.19611 0
M  V30 8668 C 889.884 4.16198 5.41542 0
M  V30 8669 O 889.572 5.36254 5.98905 0
M  V30 8670 H 889.304 0.154944 0.658003 0
M  V30 8671 H 891.858 1.07756 1.74865 0
M  V30 8672 H 890.088 -0.377349 3.84854 0
M  V30 8673 H 891.777 -0.01517 4.05897 0
M  V30 8674 H 892.543 2.46548 4.17659 0
M  V30 8675 H 888.422 1.2663 4.43267 0
M  V30 8676 H 891.966 4.6274 5.22032 0
M  V30 8677 H 887.863 3.4193 5.47498 0
M  V30 8678 H 888.631 5.37403 6.17366 0
M  V30 8679 N 891.294 -1.47756 0.548274 0
M  V30 8680 C 892.241 -2.29893 -0.204408 0
M  V30 8681 C 893.211 -1.38509 -0.916761 0
M  V30 8682 O 894.396 -1.67472 -0.91421 0
M  V30 8683 C 891.536 -3.22282 -1.23403 0
M  V30 8684 C 890.649 -4.28753 -0.528654 0
M  V30 8685 C 889.784 -5.08303 -1.54279 0
M  V30 8686 C 888.823 -6.06557 -0.821893 0
M  V30 8687 N 887.96 -6.79098 -1.78243 0
M  V30 8688 H 892.8 -2.93739 0.502163 0
M  V30 8689 H 890.337 -1.44793 0.259471 0
M  V30 8690 H 892.295 -3.74262 -1.84348 0
M  V30 8691 H 890.925 -2.6032 -1.90875 0
M  V30 8692 H 889.977 -3.79899 0.195132 0
M  V30 8693 H 891.289 -4.98787 0.0365066 0
M  V30 8694 H 890.443 -5.64388 -2.22602 0
M  V30 8695 H 889.182 -4.3815 -2.14186 0
M  V30 8696 H 888.187 -5.49659 -0.12469 0
M  V30 8697 H 889.412 -6.78715 -0.228685 0
M  V30 8698 H 887.358 -6.11682 -2.37025 0
M  V30 8699 H 887.275 -7.4527 -1.26919 0
M  V30 8700 H 888.543 -7.39762 -2.45709 0
M  V30 8701 N 892.772 -0.284283 -1.55015 0
M  V30 8702 C 893.997 0.335799 -2.04664 0
M  V30 8703 C 894.422 1.47999 -1.16094 0
M  V30 8704 O 893.78 1.8058 -0.161454 0
M  V30 8705 C 893.828 0.785615 -3.51938 0
M  V30 8706 O 892.932 1.89202 -3.66437 0
M  V30 8707 H 892.273 0.0680233 -0.660506 0
M  V30 8708 H 894.803 -0.421255 -2.00216 0
M  V30 8709 H 894.813 1.07892 -3.93476 0
M  V30 8710 H 893.488 -0.0514675 -4.15868 0
M  V30 8711 H 892.065 1.60055 -3.36804 0
M  V30 8712 N 894.251 1.57596 -0.0117121 0
M  V30 8713 C 895.528 1.82323 0.708356 0
M  V30 8714 C 895.908 0.891947 1.91331 0
M  V30 8715 O 895.256 -0.0565984 2.2843 0
M  V30 8716 C 895.466 3.31111 1.10303 0
M  V30 8717 C 896.814 3.97147 1.50199 0
M  V30 8718 O 897.838 3.35503 1.1965 0
M  V30 8719 O 896.697 5.0576 2.07049 0
M  V30 8720 H 893.791 0.751173 0.345931 0
M  V30 8721 H 896.337 1.69657 -0.0380632 0
M  V30 8722 H 895.109 3.90534 0.24467 0
M  V30 8723 H 894.732 3.48818 1.90818 0
M  V30 8724 N 895.729 -0.261212 1.5542 0
M  V30 8725 C 896.659 -1.32712 1.92119 0
M  V30 8726 C 897.64 -1.50934 0.784406 0
M  V30 8727 O 898.825 -1.63781 1.04352 0
M  V30 8728 C 895.955 -2.68453 2.20341 0
M  V30 8729 C 894.909 -2.64947 3.36136 0
M  V30 8730 C 894.235 -4.04349 3.49865 0
M  V30 8731 C 895.535 -2.23182 4.72215 0
M  V30 8732 H 897.229 -1.02245 2.81401 0
M  V30 8733 H 894.775 -0.490406 1.35392 0
M  V30 8734 H 896.728 -3.43144 2.44603 0
M  V30 8735 H 895.452 -3.00527 1.27871 0
M  V30 8736 H 894.111 -1.92714 3.11861 0
M  V30 8737 H 893.759 -4.33665 2.5484 0
M  V30 8738 H 893.459 -4.02895 4.27726 0
M  V30 8739 H 894.983 -4.80761 3.76432 0
M  V30 8740 H 896.397 -2.87599 4.95943 0
M  V30 8741 H 894.794 -2.32867 5.53076 0
M  V30 8742 H 895.864 -1.18327 4.70241 0
M  V30 8743 N 897.207 -1.48554 -0.526253 0
M  V30 8744 C 898.154 -1.63354 -1.63046 0
M  V30 8745 C 899.124 -0.475509 -1.59148 0
M  V30 8746 O 900.309 -0.699453 -1.77517 0
M  V30 8747 C 897.449 -1.68271 -3.01295 0
M  V30 8748 C 896.562 -2.95207 -3.15399 0
M  V30 8749 C 895.697 -2.91262 -4.4423 0
M  V30 8750 C 894.736 -4.12886 -4.51876 0
M  V30 8751 N 893.873 -4.06996 -5.721 0
M  V30 8752 H 898.713 -2.57649 -1.49737 0
M  V30 8753 H 896.25 -1.27769 -0.728938 0
M  V30 8754 H 898.208 -1.69104 -3.81392 0
M  V30 8755 H 896.838 -0.774641 -3.13367 0
M  V30 8756 H 895.89 -3.04102 -2.2853 0
M  V30 8757 H 897.202 -3.85187 -3.1691 0
M  V30 8758 H 896.356 -2.90516 -5.32621 0
M  V30 8759 H 895.095 -1.99016 -4.45246 0
M  V30 8760 H 894.1 -4.13902 -3.61891 0
M  V30 8761 H 895.325 -5.06294 -4.52596 0
M  V30 8762 H 893.271 -3.17573 -5.74006 0
M  V30 8763 H 893.188 -4.90685 -5.75121 0
M  V30 8764 H 894.456 -4.10315 -6.62768 0
M  V30 8765 N 898.685 0.775411 -1.37205 0
M  V30 8766 C 899.931 1.53611 -1.32407 0
M  V30 8767 C 900.264 1.9398 0.0924103 0
M  V30 8768 O 899.539 1.63791 1.04893 0
M  V30 8769 C 899.822 2.80367 -2.25979 0
M  V30 8770 C 899.675 2.46275 -3.76389 0
M  V30 8771 C 900.994 3.82277 -2.18064 0
M  V30 8772 H 898.113 0.557278 -0.482297 0
M  V30 8773 H 900.755 0.889826 -1.67875 0
M  V30 8774 H 898.905 3.35515 -1.95862 0
M  V30 8775 H 900.577 1.9707 -4.17087 0
M  V30 8776 H 898.82 1.79023 -3.95137 0
M  V30 8777 H 899.491 3.36868 -4.37291 0
M  V30 8778 H 901.967 3.36613 -2.44604 0
M  V30 8779 H 900.843 4.68696 -2.85684 0
M  V30 8780 H 901.104 4.26272 -1.17239 0
M  V30 8781 N 900.163 1.21714 1.00117 0
M  V30 8782 C 901.44 0.945391 1.71236 0
M  V30 8783 C 901.82 -0.541772 2.0403 0
M  V30 8784 O 901.168 -1.50763 1.71705 0
M  V30 8785 C 901.378 1.83444 2.96899 0
M  V30 8786 C 902.726 2.08558 3.69849 0
M  V30 8787 O 903.75 1.80824 3.06889 0
M  V30 8788 O 902.609 2.55485 4.83104 0
M  V30 8789 H 899.703 0.354834 0.747009 0
M  V30 8790 H 902.249 1.32661 1.05825 0
M  V30 8791 H 901.021 2.84075 2.69105 0
M  V30 8792 H 900.644 1.45428 3.70049 0
M  V30 8793 N 901.641 -1.19671 1.02551 0
M  V30 8794 C 902.571 -2.25009 0.623965 0
M  V30 8795 C 903.552 -1.66129 -0.36538 0
M  V30 8796 O 904.737 -1.92599 -0.248842 0
M  V30 8797 C 901.867 -3.47287 -0.0294869 0
M  V30 8798 C 900.821 -4.18818 0.881781 0
M  V30 8799 C 900.147 -5.34618 0.0936189 0
M  V30 8800 C 901.447 -4.73986 2.19396 0
M  V30 8801 H 903.141 -2.58851 1.50454 0
M  V30 8802 H 900.687 -1.24425 0.724872 0
M  V30 8803 H 902.64 -4.20168 -0.322016 0
M  V30 8804 H 901.364 -3.12635 -0.944838 0
M  V30 8805 H 900.023 -3.47815 1.15845 0
M  V30 8806 H 899.671 -4.9621 -0.823661 0
M  V30 8807 H 899.371 -5.83409 0.700568 0
M  V30 8808 H 900.895 -6.10297 -0.192249 0
M  V30 8809 H 902.309 -5.38639 1.96319 0
M  V30 8810 H 900.706 -5.3325 2.75254 0
M  V30 8811 H 901.776 -3.92238 2.85092 0
M  V30 8812 N 903.119 -0.802921 -1.35613 0
M  V30 8813 C 904.365 -0.382141 -1.99167 0
M  V30 8814 C 904.698 1.04704 -1.63556 0
M  V30 8815 O 903.973 1.72578 -0.89706 0
M  V30 8816 C 904.256 -0.561493 -3.55695 0
M  V30 8817 C 904.109 -2.03534 -4.01116 0
M  V30 8818 C 905.428 0.0151135 -4.40097 0
M  V30 8819 H 902.547 -0.140322 -0.723518 0
M  V30 8820 H 905.189 -1.01177 -1.6082 0
M  V30 8821 H 903.339 -0.0255083 -3.88492 0
M  V30 8822 H 905.011 -2.63343 -3.78746 0
M  V30 8823 H 903.254 -2.5331 -3.52159 0
M  V30 8824 H 903.925 -2.11173 -5.1001 0
M  V30 8825 H 906.401 -0.442582 -4.1374 0
M  V30 8826 H 905.277 -0.140316 -5.48721 0
M  V30 8827 H 905.538 1.10848 -4.27978 0
M  V30 8828 N 904.597 1.47463 -0.556102 0
M  V30 8829 C 905.56 2.28478 0.181743 0
M  V30 8830 C 906.56 1.36886 0.843738 0
M  V30 8831 O 907.75 1.59527 0.69977 0
M  V30 8832 C 904.882 3.16534 1.26566 0
M  V30 8833 H 906.075 2.95182 -0.529892 0
M  V30 8834 H 903.628 1.53134 -0.313005 0
M  V30 8835 H 904.363 2.5452 2.00973 0
M  V30 8836 H 904.148 3.83939 0.795798 0
M  V30 8837 H 905.638 3.77579 1.78393 0
M  V30 8838 N 906.075 0.2925 1.54862 0
M  V30 8839 C 907.486 -0.201841 1.85606 0
M  V30 8840 C 907.837 -1.54093 1.21449 0
M  V30 8841 O 906.962 -2.10327 0.509079 0
M  V30 8842 C 907.557 -0.373011 3.3674 0
M  V30 8843 C 906.116 -0.811574 3.67547 0
M  V30 8844 C 905.263 0.0850583 2.7717 0
M  V30 8845 H 908.214 0.513774 1.50153 0
M  V30 8846 H 908.235 -1.20892 3.60785 0
M  V30 8847 H 907.747 0.601751 3.83407 0
M  V30 8848 H 905.848 -1.79719 3.26392 0
M  V30 8849 H 905.961 -0.636853 4.74848 0
M  V30 8850 H 904.325 -0.434224 2.50971 0
M  V30 8851 H 905.108 1.05602 3.26654 0
M  V30 8852 N 907.553 -1.57587 0.0200696 0
M  V30 8853 C 908.83 -1.82696 -0.698677 0
M  V30 8854 C 909.21 -0.902082 -1.90855 0
M  V30 8855 O 908.558 0.0444834 -2.28457 0
M  V30 8856 C 908.768 -3.31691 -1.08546 0
M  V30 8857 C 910.116 -3.97938 -1.4809 0
M  V30 8858 O 911.14 -3.36133 -1.17869 0
M  V30 8859 O 909.999 -5.06851 -2.04364 0
M  V30 8860 H 907.093 -0.752997 -0.341942 0
M  V30 8861 H 909.639 -1.69635 0.04706 0
M  V30 8862 H 908.411 -3.90659 -0.223956 0
M  V30 8863 H 908.034 -3.49825 -1.88965 0
M  V30 8864 N 909.032 0.252966 -1.55557 0
M  V30 8865 C 910.28 0.979912 -1.76754 0
M  V30 8866 C 910.601 1.86083 -0.582944 0
M  V30 8867 O 909.871 1.91742 0.401497 0
M  V30 8868 H 908.451 0.364805 -0.651864 0
M  V30 8869 H 911.113 0.272372 -1.92987 0
M  V30 8870 H 910.209 1.60518 -2.67657 0
M  V30 8871 N 910.51 1.48831 0.518367 0
M  V30 8872 C 911.738 1.6112 1.298 0
M  V30 8873 C 912.153 0.275872 1.86774 0
M  V30 8874 O 911.51 -0.736416 1.66983 0
M  V30 8875 C 911.561 2.66675 2.44063 0
M  V30 8876 O 911.282 3.95027 1.89434 0
M  V30 8877 C 912.783 2.8951 3.35706 0
M  V30 8878 H 910.003 0.542916 0.394314 0
M  V30 8879 H 912.547 1.94743 0.624142 0
M  V30 8880 H 910.702 2.35879 3.07311 0
M  V30 8881 H 911.116 4.53031 2.64316 0
M  V30 8882 H 912.59 3.67142 4.12202 0
M  V30 8883 H 913.067 1.98768 3.91648 0
M  V30 8884 H 913.673 3.21656 2.7824 0
M  V30 8885 N 911.988 -0.768124 1.37614 0
M  V30 8886 C 913.234 -1.52907 1.33219 0
M  V30 8887 C 913.567 -1.94026 -0.0821218 0
M  V30 8888 O 912.842 -1.64345 -1.04023 0
M  V30 8889 C 913.125 -2.79164 2.27463 0
M  V30 8890 C 912.978 -2.44276 3.7769 0
M  V30 8891 C 914.297 -3.81115 2.20089 0
M  V30 8892 H 911.416 -0.554712 0.485246 0
M  V30 8893 H 914.058 -0.880911 1.68345 0
M  V30 8894 H 912.208 -3.34472 1.97639 0
M  V30 8895 H 913.88 -1.94855 4.18126 0
M  V30 8896 H 912.123 -1.76925 3.96081 0
M  V30 8897 H 912.794 -3.34544 4.39072 0
M  V30 8898 H 915.27 -3.35311 2.46386 0
M  V30 8899 H 914.146 -4.67174 2.88166 0
M  V30 8900 H 914.407 -4.25644 1.19498 0
M  V30 8901 N 913.466 -1.22244 -0.994698 0
M  V30 8902 C 914.696 -1.07062 -1.76695 0
M  V30 8903 C 915.104 0.381895 -1.85306 0
M  V30 8904 O 914.447 1.27648 -1.32105 0
M  V30 8905 C 914.509 -1.60487 -3.2169 0
M  V30 8906 C 914.173 -3.09079 -3.36629 0
M  V30 8907 C 915.17 -4.06526 -3.24088 0
M  V30 8908 C 912.855 -3.48497 -3.61739 0
M  V30 8909 C 914.849 -5.41377 -3.36437 0
M  V30 8910 C 912.536 -4.83498 -3.73729 0
M  V30 8911 C 913.534 -5.79747 -3.61086 0
M  V30 8912 O 913.222 -7.12297 -3.72678 0
M  V30 8913 H 912.954 -0.375963 -0.561807 0
M  V30 8914 H 915.508 -1.62259 -1.25941 0
M  V30 8915 H 913.738 -0.996957 -3.73628 0
M  V30 8916 H 915.427 -1.40994 -3.80625 0
M  V30 8917 H 916.193 -3.77415 -3.04602 0
M  V30 8918 H 912.072 -2.74106 -3.70657 0
M  V30 8919 H 915.616 -6.16485 -3.26485 0
M  V30 8920 H 911.513 -5.1229 -3.92721 0
M  V30 8921 H 912.281 -7.1985 -3.89562 0
M  V30 8922 N 914.944 1.19125 -1.03184 0
M  V30 8923 C 915.892 2.24492 -0.608781 0
M  V30 8924 C 916.886 1.65529 0.360065 0
M  V30 8925 O 918.092 1.78546 0.22832 0
M  V30 8926 H 914.467 0.73048 -0.178616 0
M  V30 8927 H 916.438 2.5749 -1.50803 0
M  V30 8928 C 915.187 3.47693 0.0215126 0
M  V30 8929 H 914.51 3.93354 -0.715024 0
M  V30 8930 H 915.95 4.23072 0.280429 0
M  V30 8931 C 914.409 3.12088 1.26896 0
M  V30 8932 O 914.939 3.25013 2.36071 0
M  V30 8933 N 913.145 2.66494 1.15886 0
M  V30 8934 H 912.692 2.56176 0.270463 0
M  V30 8935 H 912.65 2.43042 1.99444 0
M  V30 8936 N 916.422 0.810101 1.35185 0
M  V30 8937 C 917.352 0.237453 2.32289 0
M  V30 8938 C 918.333 -0.639032 1.5764 0
M  V30 8939 O 919.518 -0.568575 1.8569 0
M  V30 8940 C 916.648 -0.611964 3.41866 0
M  V30 8941 C 915.602 0.166318 4.27677 0
M  V30 8942 C 914.928 -0.805024 5.28605 0
M  V30 8943 C 916.228 1.36729 5.04086 0
M  V30 8944 H 917.922 1.04874 2.80432 0
M  V30 8945 H 915.468 0.505751 1.34826 0
M  V30 8946 H 917.421 -1.02267 4.08802 0
M  V30 8947 H 916.145 -1.45617 2.92341 0
M  V30 8948 H 914.804 0.558238 3.62325 0
M  V30 8949 H 914.452 -1.64483 4.75347 0
M  V30 8950 H 914.152 -0.288577 5.86891 0
M  V30 8951 H 915.676 -1.21386 5.98413 0
M  V30 8952 H 917.09 1.03128 5.63948 0
M  V30 8953 H 915.487 1.81848 5.71884 0
M  V30 8954 H 916.557 2.15214 4.34524 0
M  V30 8955 N 917.9 -1.47166 0.563914 0
M  V30 8956 C 918.85 -2.27116 -0.20055 0
M  V30 8957 C 919.834 -1.34756 -0.879177 0
M  V30 8958 O 921.026 -1.59064 -0.776377 0
M  V30 8959 C 918.155 -3.20676 -1.22565 0
M  V30 8960 C 917.241 -4.20517 -0.550092 0
M  V30 8961 N 917.632 -5.04343 0.383662 0
M  V30 8962 C 915.93 -4.38708 -0.803186 0
M  V30 8963 C 916.631 -5.76491 0.776718 0
M  V30 8964 N 915.607 -5.43444 0.130047 0
M  V30 8965 H 919.409 -2.89312 0.517275 0
M  V30 8966 H 916.923 -1.57787 0.384334 0
M  V30 8967 H 918.92 -3.76643 -1.78733 0
M  V30 8968 H 917.58 -2.60038 -1.94449 0
M  V30 8969 H 918.591 -5.1232 0.758192 0
M  V30 8970 H 915.268 -3.89235 -1.51003 0
M  V30 8971 H 916.658 -6.5391 1.54437 0
M  V30 8972 N 919.378 -0.300708 -1.54705 0
M  V30 8973 C 920.326 0.591264 -2.2496 0
M  V30 8974 C 921.32 1.13725 -1.2555 0
M  V30 8975 O 922.526 1.08793 -1.43402 0
M  V30 8976 H 918.901 0.209278 -0.722293 0
M  V30 8977 H 920.872 -0.0238175 -2.9839 0
M  V30 8978 C 919.621 1.75179 -3.00346 0
M  V30 8979 H 918.944 1.34089 -3.76643 0
M  V30 8980 H 920.384 2.35198 -3.52786 0
M  V30 8981 C 918.843 2.65574 -2.07298 0
M  V30 8982 O 919.373 3.6666 -1.64083 0
M  V30 8983 N 917.579 2.33301 -1.7326 0
M  V30 8984 H 917.126 1.51142 -2.08599 0
M  V30 8985 H 917.084 2.94049 -1.11278 0
M  V30 8986 N 920.856 1.57574 -0.0284266 0
M  V30 8987 C 922.272 1.56194 0.327958 0
M  V30 8988 C 922.472 1.03397 1.72949 0
M  V30 8989 O 921.528 0.680392 2.4316 0
M  V30 8990 C 922.841 3.00177 0.177196 0
M  V30 8991 C 924.389 3.12 0.250014 0
M  V30 8992 C 924.864 4.57821 0.128049 0
M  V30 8993 N 926.355 4.6283 0.185054 0
M  V30 8994 C 927.09 5.73286 0.114454 0
M  V30 8995 N 926.586 6.928 -0.00719225 0
M  V30 8996 N 928.379 5.61848 0.16839 0
M  V30 8997 H 920.53 1.90224 -0.944921 0
M  V30 8998 H 922.793 0.874987 -0.364832 0
M  V30 8999 H 922.499 3.42753 -0.788224 0
M  V30 9000 H 922.373 3.65101 0.94768 0
M  V30 9001 H 924.76 2.69337 1.20589 0
M  V30 9002 H 924.841 2.49799 -0.550835 0
M  V30 9003 H 924.485 5.01165 -0.824407 0
M  V30 9004 H 924.415 5.18001 0.947753 0
M  V30 9005 H 926.906 3.76867 0.279247 0
M  V30 9006 H 927.219 7.72781 -0.0543903 0
M  V30 9007 H 925.564 6.94987 -0.0419648 0
M  V30 9008 H 928.755 4.67367 0.261821 0
M  V30 9009 H 928.928 6.47907 0.109908 0
M  V30 9010 N 922.334 -0.244713 1.55689 0
M  V30 9011 C 923.562 -0.989944 1.8168 0
M  V30 9012 C 923.977 -1.78863 0.604449 0
M  V30 9013 O 923.334 -1.77437 -0.426907 0
M  V30 9014 C 923.385 -1.92607 3.05916 0
M  V30 9015 O 923.106 -1.1597 4.22472 0
M  V30 9016 C 924.607 -2.78711 3.44724 0
M  V30 9017 H 921.827 -0.2912 0.604519 0
M  V30 9018 H 924.371 -0.266938 2.0275 0
M  V30 9019 H 922.526 -2.60333 2.8689 0
M  V30 9020 H 922.94 -1.79311 4.92898 0
M  V30 9021 H 924.414 -3.40141 4.34751 0
M  V30 9022 H 924.891 -3.49935 2.6541 0
M  V30 9023 H 925.497 -2.16435 3.66109 0
M  V30 9024 N 923.813 -1.49104 -0.510467 0
M  V30 9025 C 925.061 -1.578 -1.26268 0
M  V30 9026 C 925.382 -0.262349 -1.93227 0
M  V30 9027 O 924.652 0.717624 -1.82283 0
M  V30 9028 H 923.232 -0.581387 -0.46904 0
M  V30 9029 H 925.894 -1.85678 -0.592423 0
M  V30 9030 H 924.99 -2.36919 -2.03165 0
M  V30 9031 N 925.291 0.760815 -1.38019 0
M  V30 9032 C 926.539 1.51673 -1.33566 0
M  V30 9033 C 926.86 1.94852 0.076024 0
M  V30 9034 O 926.13 1.67112 1.02227 0
M  V30 9035 H 924.71 0.562581 -0.491438 0
M  V30 9036 H 927.372 0.904832 -1.72623 0
M  V30 9037 H 926.468 2.41102 -1.98182 0
M  V30 9038 N 926.769 1.22769 0.988202 0
M  V30 9039 C 927.994 1.08239 1.76915 0
M  V30 9040 C 928.419 -0.362519 1.84574 0
M  V30 9041 O 927.777 -1.26202 1.30165 0
M  V30 9042 C 927.825 1.70363 3.17819 0
M  V30 9043 O 926.929 0.960484 4.01059 0
M  V30 9044 H 926.27 0.379872 0.544604 0
M  V30 9045 H 928.8 1.62663 1.24104 0
M  V30 9046 H 928.81 1.7528 3.6843 0
M  V30 9047 H 927.485 2.75505 3.1156 0
M  V30 9048 H 926.062 0.987667 3.59582 0
M  V30 9049 N 928.247 -1.18576 1.03814 0
M  V30 9050 C 929.21 -2.2033 0.63146 0
M  V30 9051 C 930.21 -1.57787 -0.309816 0
M  V30 9052 O 931.4 -1.73938 -0.0955598 0
M  V30 9053 C 928.532 -3.40818 -0.0745963 0
M  V30 9054 H 929.725 -2.57824 1.53189 0
M  V30 9055 H 927.278 -1.32416 0.830398 0
M  V30 9056 H 928.013 -3.08853 -0.988947 0
M  V30 9057 H 927.798 -3.87453 0.6019 0
M  V30 9058 H 929.288 -4.16166 -0.345727 0
M  V30 9059 N 929.725 -0.817259 -1.34754 0
M  V30 9060 C 930.675 -0.207585 -2.27053 0
M  V30 9061 C 931.659 0.624836 -1.48272 0
M  V30 9062 O 932.851 0.480344 -1.70358 0
M  V30 9063 C 929.98 0.634281 -3.3739 0
M  V30 9064 C 929.066 -0.208456 -4.23587 0
M  V30 9065 N 929.457 -1.2767 -4.89422 0
M  V30 9066 C 927.755 0.00815096 -4.45999 0
M  V30 9067 C 928.456 -1.79209 -5.53407 0
M  V30 9068 N 927.432 -1.09686 -5.32419 0
M  V30 9069 H 931.234 -1.0248 -2.75454 0
M  V30 9070 H 928.748 -0.659492 -1.48406 0
M  V30 9071 H 930.745 1.08718 -4.02475 0
M  V30 9072 H 929.405 1.44972 -2.90539 0
M  V30 9073 H 930.416 -1.65945 -4.90594 0
M  V30 9074 H 927.093 0.791879 -4.09921 0
M  V30 9075 H 928.483 -2.68548 -6.15899 0
M  V30 9076 N 931.203 1.46865 -0.571711 0
M  V30 9077 C 932.151 2.31897 0.180714 0
M  V30 9078 C 933.145 1.43815 0.895191 0
M  V30 9079 O 934.351 1.60501 0.814828 0
M  V30 9080 H 930.726 0.748032 0.077148 0
M  V30 9081 H 932.697 2.93185 -0.555432 0
M  V30 9082 C 931.446 3.26766 1.18824 0
M  V30 9083 H 930.769 3.94515 0.64789 0
M  V30 9084 H 932.209 3.89067 1.68532 0
M  V30 9085 C 930.668 2.51325 2.2436 0
M  V30 9086 O 931.198 2.26825 3.31532 0
M  V30 9087 N 929.404 2.12079 1.98673 0
M  V30 9088 H 928.951 2.32204 1.1153 0
M  V30 9089 H 928.909 1.61921 2.69498 0
M  V30 9090 N 932.681 0.308908 1.54543 0
M  V30 9091 C 933.93 -0.298854 1.99474 0
M  V30 9092 C 934.243 -1.54393 1.20093 0
M  V30 9093 O 935.449 -2.22677 1.55329 0
M  V30 9094 C 933.905 -0.58303 3.55146 0
M  V30 9095 C 933.513 0.644157 4.43345 0
M  V30 9096 C 935.257 -1.15155 4.08582 0
M  V30 9097 C 933.164 0.332694 5.90463 0
M  V30 9098 H 932.094 -0.115445 0.74511 0
M  V30 9099 H 934.745 0.418848 1.78656 0
M  V30 9100 H 933.127 -1.36053 3.71894 0
M  V30 9101 H 934.301 1.42012 4.38371 0
M  V30 9102 H 932.616 1.13186 4.00722 0
M  V30 9103 H 935.213 -1.39896 5.16075 0
M  V30 9104 H 935.556 -2.09632 3.59667 0
M  V30 9105 H 936.089 -0.435571 3.95408 0
M  V30 9106 H 932.828 1.24624 6.43544 0
M  V30 9107 H 932.348 -0.405844 5.98425 0
M  V30 9108 H 934.027 -0.0628545 6.46969 0
M  V30 9109 N 934.159 -1.57557 0.0367827 0
M  V30 9110 C 935.408 -1.91291 -0.639569 0
M  V30 9111 C 935.721 -0.915601 -1.72847 0
M  V30 9112 O 936.927 -1.14447 -2.46199 0
M  V30 9113 C 935.383 -3.39697 -1.18888 0
M  V30 9114 C 934.991 -4.47803 -0.132851 0
M  V30 9115 C 936.735 -3.82487 -1.8413 0
M  V30 9116 C 934.642 -5.87311 -0.694229 0
M  V30 9117 H 933.572 -0.713886 -0.242658 0
M  V30 9118 H 936.223 -1.83209 0.103332 0
M  V30 9119 H 934.605 -3.42736 -1.98363 0
M  V30 9120 H 935.779 -4.56334 0.640009 0
M  V30 9121 H 934.094 -4.14264 0.421264 0
M  V30 9122 H 936.691 -4.84076 -2.27101 0
M  V30 9123 H 937.034 -3.17959 -2.68716 0
M  V30 9124 H 937.567 -3.81903 -1.11332 0
M  V30 9125 H 934.306 -6.55401 0.113667 0
M  V30 9126 H 933.826 -5.82371 -1.4354 0
M  V30 9127 H 935.505 -6.36119 -1.1816 0
M  V30 9128 N 935.637 0.236453 -1.55816 0
M  V30 9129 C 936.569 1.31602 -1.87653 0
M  V30 9130 C 937.582 1.43782 -0.763584 0
M  V30 9131 O 938.771 1.44945 -1.04178 0
M  V30 9132 C 935.871 2.69342 -2.05689 0
M  V30 9133 C 935.044 2.79298 -3.36617 0
M  V30 9134 C 934.103 3.97952 -3.44268 0
M  V30 9135 O 933.129 3.86989 -4.17406 0
M  V30 9136 N 934.331 5.11594 -2.74321 0
M  V30 9137 H 937.096 1.04623 -2.80845 0
M  V30 9138 H 934.657 0.426534 -1.5618 0
M  V30 9139 H 936.649 3.47074 -2.08138 0
M  V30 9140 H 935.219 2.88984 -1.19192 0
M  V30 9141 H 934.439 1.8816 -3.46395 0
M  V30 9142 H 935.727 2.82908 -4.22895 0
M  V30 9143 H 935.125 5.23394 -2.14651 0
M  V30 9144 H 933.682 5.87422 -2.8245 0
M  V30 9145 N 937.115 1.49373 0.502552 0
M  V30 9146 C 938.343 1.62488 1.28084 0
M  V30 9147 C 938.758 0.295667 1.86471 0
M  V30 9148 O 938.115 -0.718664 1.67754 0
M  V30 9149 C 938.166 2.69249 2.4122 0
M  V30 9150 O 937.887 3.97014 1.85234 0
M  V30 9151 C 939.388 2.93054 3.32617 0
M  V30 9152 H 936.608 0.547068 0.388533 0
M  V30 9153 H 939.152 1.95394 0.603452 0
M  V30 9154 H 937.307 2.39125 3.04792 0
M  V30 9155 H 937.721 4.55809 2.59496 0
M  V30 9156 H 939.195 3.71493 4.08285 0
M  V30 9157 H 939.672 2.02911 3.89517 0
M  V30 9158 H 940.278 3.24589 2.74813 0
M  V30 9159 N 938.594 -0.753485 1.38421 0
M  V30 9160 C 939.841 -1.51261 1.34634 0
M  V30 9161 C 940.169 -1.94396 -0.0635771 0
M  V30 9162 O 939.424 -1.65736 -1.04068 0
M  V30 9163 C 939.723 -2.77836 2.24816 0
M  V30 9164 C 939.389 -2.53662 3.72782 0
M  V30 9165 C 938.051 -2.46779 4.13103 0
M  V30 9166 C 940.403 -2.32548 4.66445 0
M  V30 9167 C 937.731 -2.16796 5.45176 0
M  V30 9168 C 940.083 -2.04085 5.98775 0
M  V30 9169 C 938.747 -1.95658 6.3818 0
M  V30 9170 H 938.017 -0.553503 0.492661 0
M  V30 9171 H 940.664 -0.866406 1.7078 0
M  V30 9172 H 938.969 -3.47106 1.81726 0
M  V30 9173 H 940.666 -3.35793 2.19189 0
M  V30 9174 H 937.256 -2.59891 3.40815 0
M  V30 9175 H 941.44 -2.36845 4.3614 0
M  V30 9176 H 936.696 -2.0878 5.74648 0
M  V30 9177 H 940.87 -1.86751 6.70893 0
M  V30 9178 H 938.497 -1.7219 7.40442 0
M  V30 9179 N 940.072 -1.23292 -0.981677 0
M  V30 9180 C 941.3 -1.09088 -1.75805 0
M  V30 9181 C 941.715 0.357746 -1.8538 0
M  V30 9182 O 941.072 1.24751 -1.33205 0
M  V30 9183 C 941.123 -1.70885 -3.1856 0
M  V30 9184 O 940.844 -3.10082 -3.09484 0
M  V30 9185 C 942.345 -1.62106 -4.12597 0
M  V30 9186 H 939.565 -0.38184 -0.55176 0
M  V30 9187 H 942.109 -1.63116 -1.23342 0
M  V30 9188 H 940.264 -1.20893 -3.68054 0
M  V30 9189 H 940.678 -3.40039 -3.99342 0
M  V30 9190 H 942.152 -2.10049 -5.10474 0
M  V30 9191 H 942.629 -0.579642 -4.35358 0
M  V30 9192 H 943.235 -2.11457 -3.69007 0
M  V30 9193 N 941.55 1.18024 -1.04442 0
M  V30 9194 C 942.497 2.21785 -0.638759 0
M  V30 9195 C 943.467 1.62255 0.355312 0
M  V30 9196 O 944.652 1.89176 0.24844 0
M  V30 9197 C 941.792 3.45098 -0.0118002 0
M  V30 9198 C 940.905 4.1895 -1.05379 0
M  V30 9199 C 940.04 5.2973 -0.394951 0
M  V30 9200 C 939.079 5.95359 -1.42178 0
M  V30 9201 N 938.216 6.97668 -0.787635 0
M  V30 9202 H 943.056 2.55839 -1.52808 0
M  V30 9203 H 940.593 1.25681 -0.764378 0
M  V30 9204 H 942.551 4.15564 0.369075 0
M  V30 9205 H 941.181 3.11652 0.84102 0
M  V30 9206 H 940.233 3.47274 -1.55258 0
M  V30 9207 H 941.545 4.63877 -1.83355 0
M  V30 9208 H 940.699 6.06687 0.0399244 0
M  V30 9209 H 939.438 4.85915 0.416867 0
M  V30 9210 H 938.443 5.17139 -1.86675 0
M  V30 9211 H 939.668 6.41255 -2.23536 0
M  V30 9212 H 937.614 6.56 0.00380893 0
M  V30 9213 H 937.531 7.40867 -1.50505 0
M  V30 9214 H 938.799 7.78586 -0.377282 0
M  V30 9215 N 943.028 0.824394 1.34319 0
M  V30 9216 C 944.305 0.335692 1.92698 0
M  V30 9217 C 944.685 -1.17715 1.75232 0
M  V30 9218 O 944.033 -1.98493 1.13194 0
M  V30 9219 C 944.243 0.766647 3.40475 0
M  V30 9220 C 945.591 0.766323 4.17627 0
M  V30 9221 O 946.615 0.709321 3.49066 0
M  V30 9222 O 945.474 0.840856 5.39992 0
M  V30 9223 H 942.568 0.0919996 0.821867 0
M  V30 9224 H 945.114 0.909282 1.43283 0
M  V30 9225 H 943.886 1.80859 3.46995 0
M  V30 9226 H 943.509 0.168833 3.97241 0
M  V30 9227 N 944.506 -1.46559 0.579492 0
M  V30 9228 C 945.436 -2.33059 -0.143437 0
M  V30 9229 C 946.417 -1.4515 -0.886868 0
M  V30 9230 O 947.602 -1.73973 -0.862961 0
M  V30 9231 C 944.732 -3.27364 -1.15973 0
M  V30 9232 C 943.686 -4.24689 -0.531348 0
M  V30 9233 C 943.012 -5.08479 -1.65388 0
M  V30 9234 C 944.312 -5.1961 0.529391 0
M  V30 9235 H 946.006 -2.93753 0.578762 0
M  V30 9236 H 943.552 -1.41256 0.279775 0
M  V30 9237 H 945.505 -3.86732 -1.67382 0
M  V30 9238 H 944.229 -2.64771 -1.91217 0
M  V30 9239 H 942.888 -3.6658 -0.0383749 0
M  V30 9240 H 942.536 -4.42273 -2.3959 0
M  V30 9241 H 942.236 -5.74387 -1.23909 0
M  V30 9242 H 943.76 -5.70709 -2.17079 0
M  V30 9243 H 945.174 -5.73212 0.100506 0
M  V30 9244 H 943.571 -5.93843 0.86432 0
M  V30 9245 H 944.641 -4.63737 1.4169 0
M  V30 9246 N 945.984 -0.3171 -1.54377 0
M  V30 9247 C 947.209 0.292311 -2.0533 0
M  V30 9248 C 947.634 1.45503 -1.19207 0
M  V30 9249 O 946.992 1.80197 -0.199721 0
M  V30 9250 C 947.04 0.710787 -3.53525 0
M  V30 9251 O 946.144 1.81387 -3.70368 0
M  V30 9252 H 945.485 0.0539976 -0.661801 0
M  V30 9253 H 948.015 -0.463629 -1.99278 0
M  V30 9254 H 948.025 0.995216 -3.95676 0
M  V30 9255 H 946.7 -0.139668 -4.15665 0
M  V30 9256 H 945.277 1.52875 -3.40123 0
M  V30 9257 N 947.462 1.57535 -0.0451378 0
M  V30 9258 C 948.687 1.97172 0.64326 0
M  V30 9259 C 949.112 0.922266 1.63939 0
M  V30 9260 O 948.47 -0.115155 1.80934 0
M  V30 9261 C 948.518 3.35889 1.3119 0
M  V30 9262 O 947.622 3.33387 2.42748 0
M  V30 9263 H 946.963 0.642469 0.167719 0
M  V30 9264 H 949.493 2.04295 -0.111747 0
M  V30 9265 H 949.503 3.72481 1.66499 0
M  V30 9266 H 948.178 4.1181 0.581823 0
M  V30 9267 H 946.755 3.08533 2.09432 0
M  V30 9268 N 948.94 -0.228186 1.55939 0
M  V30 9269 C 949.85 -1.30386 1.9503 0
M  V30 9270 C 950.866 -1.51645 0.853218 0
M  V30 9271 O 952.042 -1.64904 1.15623 0
M  V30 9272 C 949.107 -2.63489 2.25332 0
M  V30 9273 C 948.168 -2.5059 3.48573 0
M  V30 9274 C 947.401 -3.77345 3.7742 0
M  V30 9275 O 947.624 -4.80067 3.08045 0
M  V30 9276 O 946.558 -3.74855 4.70922 0
M  V30 9277 H 950.384 -1.0022 2.86687 0
M  V30 9278 H 947.969 -0.430503 1.43063 0
M  V30 9279 H 949.851 -3.4211 2.46046 0
M  V30 9280 H 948.526 -2.93349 1.3685 0
M  V30 9281 H 947.433 -1.70191 3.33145 0
M  V30 9282 H 948.766 -2.2567 4.37417 0
M  V30 9283 N 950.418 -1.49637 -0.494624 0
M  V30 9284 C 951.381 -1.66252 -1.57775 0
M  V30 9285 C 952.381 -0.534054 -1.51672 0
M  V30 9286 O 953.571 -0.800637 -1.54711 0
M  V30 9287 C 950.703 -1.66584 -2.97426 0
M  V30 9288 H 951.896 -2.62864 -1.4437 0
M  V30 9289 H 949.449 -1.38764 -0.719323 0
M  V30 9290 H 950.184 -0.715798 -3.16302 0
M  V30 9291 H 949.969 -2.48543 -3.03264 0
M  V30 9292 H 951.459 -1.81474 -3.76108 0
M  V30 9293 N 951.896 0.746133 -1.38819 0
M  V30 9294 C 952.859 1.84167 -1.36437 0
M  V30 9295 C 953.859 1.58626 -0.263499 0
M  V30 9296 O 955.049 1.66233 -0.520801 0
M  V30 9297 C 952.181 3.21769 -1.12596 0
M  V30 9298 H 953.374 1.87684 -2.33912 0
M  V30 9299 H 950.927 0.948625 -1.24221 0
M  V30 9300 H 951.662 3.23917 -0.15758 0
M  V30 9301 H 951.447 3.41702 -1.92307 0
M  V30 9302 H 952.937 4.0184 -1.13643 0
M  V30 9303 N 953.375 1.23811 0.975125 0
M  V30 9304 C 954.307 0.981779 2.07108 0
M  V30 9305 C 955.32 -0.0461211 1.62735 0
M  V30 9306 O 956.509 0.190039 1.77486 0
M  V30 9307 C 953.609 0.458364 3.35786 0
M  V30 9308 C 952.782 1.54767 4.09104 0
M  V30 9309 C 951.841 1.0282 5.16057 0
M  V30 9310 O 950.867 1.71831 5.42644 0
M  V30 9311 N 952.069 -0.141243 5.80328 0
M  V30 9312 H 954.834 1.92537 2.29673 0
M  V30 9313 H 952.395 1.1474 1.14221 0
M  V30 9314 H 954.387 0.0957686 4.04587 0
M  V30 9315 H 952.957 -0.390768 3.10148 0
M  V30 9316 H 952.177 2.08279 3.34684 0
M  V30 9317 H 953.465 2.28006 4.54853 0
M  V30 9318 H 952.863 -0.718382 5.6112 0
M  V30 9319 H 951.42 -0.445052 6.50279 0
M  V30 9320 N 954.853 -1.17469 1.05066 0
M  V30 9321 C 956.269 -1.39699 0.771769 0
M  V30 9322 C 956.469 -1.91253 -0.634382 0
M  V30 9323 O 955.525 -2.10334 -1.39699 0
M  V30 9324 C 956.838 -2.38886 1.82631 0
M  V30 9325 C 958.386 -2.52595 1.84838 0
M  V30 9326 C 958.861 -3.55054 2.89311 0
M  V30 9327 N 960.352 -3.6257 2.88266 0
M  V30 9328 C 961.087 -4.41603 3.65752 0
M  V30 9329 N 960.583 -5.24162 4.53019 0
M  V30 9330 N 962.376 -4.36464 3.54197 0
M  V30 9331 H 954.527 -0.823355 1.95792 0
M  V30 9332 H 956.79 -0.42432 0.847736 0
M  V30 9333 H 956.496 -2.08075 2.83545 0
M  V30 9334 H 956.37 -3.38371 1.66687 0
M  V30 9335 H 958.757 -2.82717 0.845888 0
M  V30 9336 H 958.838 -1.53188 2.04859 0
M  V30 9337 H 958.482 -3.2567 3.89745 0
M  V30 9338 H 958.412 -4.54162 2.66542 0
M  V30 9339 H 960.903 -3.03625 2.24989 0
M  V30 9340 H 961.216 -5.81646 5.0883 0
M  V30 9341 H 959.561 -5.23547 4.57081 0
M  V30 9342 H 962.752 -3.7102 2.85416 0
M  V30 9343 H 962.925 -4.97814 4.14832 0
M  V30 9344 N 956.331 -0.831506 -1.3388 0
M  V30 9345 C 957.294 -0.264773 -2.27666 0
M  V30 9346 C 958.294 0.562273 -1.50649 0
M  V30 9347 O 959.484 0.377131 -1.70069 0
M  V30 9348 C 956.616 0.627814 -3.35069 0
M  V30 9349 H 957.809 -1.09225 -2.79303 0
M  V30 9350 H 955.362 -0.604021 -1.44157 0
M  V30 9351 H 956.097 1.47802 -2.88661 0
M  V30 9352 H 955.882 0.0361552 -3.92083 0
M  V30 9353 H 957.372 1.01786 -4.05005 0
M  V30 9354 N 957.809 1.4625 -0.587256 0
M  V30 9355 C 959.22 1.85997 -0.161918 0
M  V30 9356 C 959.571 1.49025 1.27616 0
M  V30 9357 O 958.696 0.907282 1.96462 0
M  V30 9358 C 959.291 3.37582 -0.287077 0
M  V30 9359 C 957.85 3.76308 0.0834211 0
M  V30 9360 C 956.997 2.70259 -0.620932 0
M  V30 9361 H 959.948 1.3734 -0.795199 0
M  V30 9362 H 959.969 3.77379 0.486333 0
M  V30 9363 H 959.481 3.64459 -1.33383 0
M  V30 9364 H 957.582 3.55047 1.13013 0
M  V30 9365 H 957.695 4.78184 -0.296064 0
M  V30 9366 H 956.059 2.54628 -0.0607027 0
M  V30 9367 H 956.842 2.99975 -1.66942 0
M  V30 9368 N 959.287 0.325282 1.54207 0
M  V30 9369 C 960.535 -0.276229 2.00203 0
M  V30 9370 C 960.856 -1.52519 1.21503 0
M  V30 9371 O 960.126 -1.93313 0.317302 0
M  V30 9372 H 958.706 -0.105059 0.739575 0
M  V30 9373 H 961.368 0.442225 1.89817 0
M  V30 9374 H 960.464 -0.531427 3.07542 0
M  V30 9375 N 960.765 -1.57509 0.0534917 0
M  V30 9376 C 961.99 -1.97511 -0.632794 0
M  V30 9377 C 962.415 -0.930947 -1.63447 0
M  V30 9378 O 961.773 0.105558 -1.80992 0
M  V30 9379 C 961.821 -3.3658 -1.29407 0
M  V30 9380 O 960.925 -3.3467 -2.40977 0
M  V30 9381 H 960.266 -0.643349 -0.16431 0
M  V30 9382 H 962.796 -2.04232 0.12258 0
M  V30 9383 H 962.806 -3.73359 -1.64521 0
M  V30 9384 H 961.481 -4.12113 -0.559976 0
M  V30 9385 H 960.058 -3.09639 -2.07793 0
M  V30 9386 N 962.243 0.219913 -1.56058 0
M  V30 9387 C 963.483 0.951113 -1.80923 0
M  V30 9388 C 963.847 1.81465 -0.627247 0
M  V30 9389 O 965.048 2.57972 -0.755237 0
M  V30 9390 C 963.319 1.76652 -3.10691 0
M  V30 9391 S 964.878 2.55314 -3.56876 0
M  V30 9392 H 961.696 0.319461 -0.635189 0
M  V30 9393 H 964.298 0.216551 -1.94297 0
M  V30 9394 H 963.002 1.12231 -3.94756 0
M  V30 9395 H 962.533 2.54335 -3.00128 0
M  V30 9396 H 964.548 3.78938 -3.20344 0
M  V30 9397 N 963.721 1.49897 0.486681 0
M  V30 9398 C 964.969 1.59789 1.23742 0
M  V30 9399 C 965.29 0.293056 1.92785 0
M  V30 9400 O 964.56 -0.688534 1.83401 0
M  V30 9401 H 963.14 0.588775 0.459731 0
M  V30 9402 H 965.802 1.86597 0.562808 0
M  V30 9403 H 964.898 2.40121 1.9937 0
M  V30 9404 O 965.238 -0.632097 1.48616 0
M  V30 9405 H 965.929 -1.28615 1.44837 0
M  V30 END ATOM
M  V30 BEGIN BOND
M  V30 END BOND
M  V30 END CTAB
M  END
$$$$
