drugbank_target|P15814 Immunoglobulin lambda-like polypeptide 1 (DB09130)
 OpenBabel12092121073D

  0  0  0     0  0            999 V3000
M  V30 BEGIN CTAB
M  V30 COUNTS 3221 3264 0 0 0
M  V30 BEGIN ATOM
M  V30 1 H -0.908 1.98254 -0.117106 0
M  V30 2 N 0 1.576 0 0
M  V30 3 C 0.933 2.03868 1.02534 0
M  V30 4 C 1.911 0.928543 1.3348 0
M  V30 5 O 3.095 1.19667 1.45644 0
M  V30 6 C 0.222 2.43627 2.35294 0
M  V30 7 C -0.732 3.65373 2.2001 0
M  V30 8 S 0.101 5.13292 1.52614 0
M  V30 9 C 1.257 5.56322 2.86805 0
M  V30 10 H 1.49 2.90518 0.631377 0
M  V30 11 H -0.977 1.52953 0.210867 0
M  V30 12 H 0.981 2.67203 3.11629 0
M  V30 13 H -0.358 1.57376 2.7183 0
M  V30 14 H -1.165 3.90944 3.18086 0
M  V30 15 H -1.563 3.418 1.51819 0
M  V30 16 H 0.729 5.58782 3.83104 0
M  V30 17 H 1.672 6.56266 2.65933 0
M  V30 18 H 2.08 4.83886 2.90714 0
M  V30 19 N 1.4781 -0.272755 1.55222 0
M  V30 20 C 2.8941 -0.619959 1.47067 0
M  V30 21 C 3.0941 -1.895 0.684978 0
M  V30 22 O 2.1501 -2.51675 0.203931 0
M  V30 23 C 3.4631 -0.746693 2.91282 0
M  V30 24 C 5.0111 -0.840731 3.01497 0
M  V30 25 C 5.4861 -0.99924 4.46967 0
M  V30 26 N 6.9771 -1.06476 4.50796 0
M  V30 27 C 7.7121 -1.20621 5.6057 0
M  V30 28 N 7.2081 -1.31483 6.80209 0
M  V30 29 N 9.0011 -1.23733 5.48312 0
M  V30 30 H 1.1521 0.564606 2.04758 0
M  V30 31 H 3.4151 0.191177 0.928523 0
M  V30 32 H 3.1211 0.119753 3.51496 0
M  V30 33 H 2.9951 -1.6269 3.40311 0
M  V30 34 H 5.3821 -1.69764 2.41379 0
M  V30 35 H 5.4631 0.0640874 2.5572 0
M  V30 36 H 5.1071 -0.146984 5.07687 0
M  V30 37 H 5.0371 -1.91871 4.90401 0
M  V30 38 H 7.5281 -0.993196 3.64615 0
M  V30 39 H 7.8411 -1.42111 7.59621 0
M  V30 40 H 6.1861 -1.28487 6.8302 0
M  V30 41 H 9.3771 -1.14877 4.53785 0
M  V30 42 H 9.5501 -1.34412 6.33906 0
M  V30 43 N 2.9562 -1.48159 -0.537278 0
M  V30 44 C 4.3672 -1.49429 -1.11928 0
M  V30 45 C 4.7182 -0.26 -1.9447 0
M  V30 46 O 3.8432 0.633489 -2.0692 0
M  V30 47 C 4.4382 -2.70758 -2.03656 0
M  V30 48 C 2.9972 -2.74923 -2.57088 0
M  V30 49 C 2.1442 -2.42835 -1.3389 0
M  V30 50 H 5.0952 -1.55381 -0.322886 0
M  V30 51 H 5.1162 -2.48861 -2.87834 0
M  V30 52 H 4.6282 -3.60575 -1.43553 0
M  V30 53 H 2.7292 -1.89296 -3.20933 0
M  V30 54 H 2.8422 -3.76157 -2.9672 0
M  V30 55 H 1.2062 -1.93836 -1.65226 0
M  V30 56 H 1.9892 -3.34884 -0.755504 0
M  V30 57 N 4.4343 0.785586 -1.36625 0
M  V30 58 C 5.6823 1.54057 -1.30808 0
M  V30 59 C 6.0033 1.94683 0.111157 0
M  V30 60 O 5.2733 1.65241 1.05224 0
M  V30 61 H 3.8533 0.571354 -0.481211 0
M  V30 62 H 6.5153 0.935821 -1.70963 0
M  V30 63 H 5.6113 2.44637 -1.93801 0
M  V30 64 N 5.9124 1.20967 1.01018 0
M  V30 65 C 7.1404 1.04956 1.78303 0
M  V30 66 C 7.5554 -0.400915 1.84494 0
M  V30 67 O 6.9124 -1.27826 1.30257 0
M  V30 68 C 6.9634 1.63403 3.22462 0
M  V30 69 O 6.6844 3.02775 3.16637 0
M  V30 70 C 8.1854 1.52432 4.16268 0
M  V30 71 H 5.4054 0.368858 0.560522 0
M  V30 72 H 7.9494 1.60193 1.27116 0
M  V30 73 H 6.1044 1.1227 3.70775 0
M  V30 74 H 6.5184 3.30626 4.07169 0
M  V30 75 H 7.9924 1.98078 5.15237 0
M  V30 76 H 8.4694 0.477875 4.36592 0
M  V30 77 H 9.0754 2.02787 3.73841 0
M  V30 78 N 7.3905 -1.2043 1.01659 0
M  V30 79 C 8.6385 -1.89423 0.704522 0
M  V30 80 C 8.9595 -1.79231 -0.768197 0
M  V30 81 O 8.2295 -1.1947 -1.55254 0
M  V30 82 H 6.8095 -0.701178 0.257602 0
M  V30 83 H 9.4715 -1.4626 1.28818 0
M  V30 84 H 8.5675 -2.96052 0.987916 0
M  V30 85 N 8.8686 -0.792821 -1.36206 0
M  V30 86 C 9.8006 -0.151469 -2.28699 0
M  V30 87 C 10.8136 0.641262 -1.49638 0
M  V30 88 O 12.0026 0.475885 -1.72039 0
M  V30 89 C 9.1026 0.808424 -3.29117 0
M  V30 90 C 8.2756 0.0650202 -4.37352 0
M  V30 91 C 7.3346 0.941358 -5.17711 0
M  V30 92 O 6.3606 0.397352 -5.67811 0
M  V30 93 N 7.5626 2.2652 -5.3448 0
M  V30 94 H 10.3276 -0.945982 -2.84379 0
M  V30 95 H 7.8886 -0.647032 -1.48409 0
M  V30 96 H 9.8806 1.3986 -3.79765 0
M  V30 97 H 8.4506 1.5038 -2.74052 0
M  V30 98 H 7.6706 -0.706255 -3.87822 0
M  V30 99 H 8.9586 -0.447847 -5.06825 0
M  V30 100 H 8.3566 2.73128 -4.95396 0
M  V30 101 H 6.9136 2.80493 -5.88359 0
M  V30 102 N 10.3467 1.47872 -0.545128 0
M  V30 103 C 11.5947 2.02093 -0.016553 0
M  V30 104 C 11.9157 1.42305 1.3332 0
M  V30 105 O 11.1857 0.593853 1.86682 0
M  V30 106 H 9.7657 0.746993 -0.00313038 0
M  V30 107 H 12.4277 1.81414 -0.712397 0
M  V30 108 H 11.5237 3.11996 0.0805422 0
M  V30 109 N 11.8248 0.280983 1.55075 0
M  V30 110 C 13.0728 -0.333455 1.9933 0
M  V30 111 C 13.3938 -1.55937 1.17085 0
M  V30 112 O 12.6638 -1.94143 0.261805 0
M  V30 113 H 11.2438 -0.126197 0.736263 0
M  V30 114 H 13.9058 0.387678 1.91005 0
M  V30 115 H 13.0018 -0.619292 3.05894 0
M  V30 116 N 13.3029 -1.57598 0.00835791 0
M  V30 117 C 14.2329 -2.1198 -0.979113 0
M  V30 118 C 15.2139 -1.03091 -1.35301 0
M  V30 119 O 16.3989 -1.30818 -1.43528 0
M  V30 120 C 13.5289 -2.62995 -2.26828 0
M  V30 121 C 12.4829 -3.76485 -2.03576 0
M  V30 122 C 11.8089 -4.13846 -3.38579 0
M  V30 123 C 13.1089 -5.0342 -1.39161 0
M  V30 124 H 14.8029 -2.94738 -0.526281 0
M  V30 125 H 12.3489 -1.41783 -0.251704 0
M  V30 126 H 14.3019 -2.99669 -2.96271 0
M  V30 127 H 13.0259 -1.7737 -2.7424 0
M  V30 128 H 11.6849 -3.40217 -1.36557 0
M  V30 129 H 11.3329 -3.25232 -3.83709 0
M  V30 130 H 11.0329 -4.90312 -3.23834 0
M  V30 131 H 12.5569 -4.53086 -4.09323 0
M  V30 132 H 13.9709 -5.37812 -1.98573 0
M  V30 133 H 12.3679 -5.84746 -1.34878 0
M  V30 134 H 13.4379 -4.83548 -0.361868 0
M  V30 135 N 14.781 0.264519 -1.55364 0
M  V30 136 C 15.691 1.34902 -1.91934 0
M  V30 137 C 16.707 1.53595 -0.817593 0
M  V30 138 O 17.883 1.67558 -1.11742 0
M  V30 139 C 14.948 2.68676 -2.19121 0
M  V30 140 C 14.009 2.58657 -3.4263 0
M  V30 141 C 13.242 3.86051 -3.68511 0
M  V30 142 O 13.465 4.87126 -2.96757 0
M  V30 143 O 12.399 3.85744 -4.62045 0
M  V30 144 H 16.225 1.06883 -2.8427 0
M  V30 145 H 13.81 0.463775 -1.42019 0
M  V30 146 H 15.692 3.47759 -2.37995 0
M  V30 147 H 14.367 2.96463 -1.29966 0
M  V30 148 H 13.274 1.7792 -3.29082 0
M  V30 149 H 14.607 2.35818 -4.32031 0
M  V30 150 N 16.2591 1.48442 0.529413 0
M  V30 151 C 17.2221 1.62524 1.61612 0
M  V30 152 C 18.2221 0.498509 1.52877 0
M  V30 153 O 19.4121 0.76431 1.56537 0
M  V30 154 C 16.5441 1.59597 3.01233 0
M  V30 155 H 17.7371 2.59423 1.50465 0
M  V30 156 H 15.2901 1.37047 0.751514 0
M  V30 157 H 16.0251 0.641781 3.17886 0
M  V30 158 H 15.8101 2.41397 3.08982 0
M  V30 159 H 17.3001 1.72646 3.80241 0
M  V30 160 N 17.7372 -0.778329 1.37039 0
M  V30 161 C 19.1482 -1.35421 1.28523 0
M  V30 162 C 19.4992 -1.96075 -0.0700901 0
M  V30 163 O 18.6242 -1.93352 -0.971801 0
M  V30 164 C 19.2192 -2.46211 2.32735 0
M  V30 165 C 17.7782 -2.99585 2.27873 0
M  V30 166 C 16.9252 -1.72748 2.16918 0
M  V30 167 H 19.8762 -0.5791 1.47757 0
M  V30 168 H 19.8972 -3.2552 1.9702 0
M  V30 169 H 19.4092 -2.02036 3.31365 0
M  V30 170 H 17.5102 -3.48152 1.32745 0
M  V30 171 H 17.6232 -3.55646 3.21018 0
M  V30 172 H 15.9872 -1.95416 1.63354 0
M  V30 173 H 16.7702 -1.30686 3.17452 0
M  V30 174 N 19.2153 -1.21501 -1.00376 0
M  V30 175 C 20.4633 -1.03095 -1.73827 0
M  V30 176 C 20.7843 0.436341 -1.90055 0
M  V30 177 O 20.0543 1.31466 -1.45236 0
M  V30 178 H 18.6343 -0.378487 -0.644016 0
M  V30 179 H 21.2963 -1.52831 -1.20949 0
M  V30 180 H 20.3923 -1.49991 -2.73695 0
M  V30 181 N 20.6934 1.19889 -1.02296 0
M  V30 182 C 21.6034 2.26571 -0.608508 0
M  V30 183 C 22.6194 1.70299 0.356964 0
M  V30 184 O 23.7954 2.00235 0.216326 0
M  V30 185 C 20.8604 3.46677 0.0402814 0
M  V30 186 C 19.9214 4.18153 -0.97194 0
M  V30 187 C 19.1544 5.32525 -0.354016 0
M  V30 188 O 19.3774 5.64112 0.844604 0
M  V30 189 O 18.3114 5.92242 -1.07391 0
M  V30 190 H 22.1374 2.64251 -1.49684 0
M  V30 191 H 19.7224 1.26629 -0.792809 0
M  V30 192 H 21.6044 4.19475 0.402324 0
M  V30 193 H 20.2794 3.10858 0.902707 0
M  V30 194 H 19.1864 3.47499 -1.38546 0
M  V30 195 H 20.5194 4.57927 -1.80454 0
M  V30 196 N 22.1715 0.800033 1.35784 0
M  V30 197 C 23.5825 0.439142 1.81462 0
M  V30 198 C 23.9335 -1.03813 1.66485 0
M  V30 199 O 23.0585 -1.80626 1.19177 0
M  V30 200 C 23.6535 0.790314 3.29453 0
M  V30 201 C 22.2125 0.482111 3.733 0
M  V30 202 C 21.3595 1.01938 2.57883 0
M  V30 203 H 24.3105 0.992254 1.23855 0
M  V30 204 H 24.3315 0.0853677 3.80404 0
M  V30 205 H 23.8435 1.86554 3.40322 0
M  V30 206 H 21.9445 -0.584652 3.67984 0
M  V30 207 H 22.0575 1.01015 4.6833 0
M  V30 208 H 20.4215 0.442043 2.50835 0
M  V30 209 H 21.2045 2.10059 2.71533 0
M  V30 210 N 23.6496 -1.47581 0.552962 0
M  V30 211 C 24.8976 -2.02082 0.0272703 0
M  V30 212 C 25.2186 -1.4301 -1.32563 0
M  V30 213 O 24.4886 -0.603745 -1.86365 0
M  V30 214 H 23.0686 -0.746966 0.00709182 0
M  V30 215 H 25.7306 -1.81033 0.722008 0
M  V30 216 H 24.8266 -3.12034 -0.0639951 0
M  V30 217 N 25.1277 -0.289203 -1.54924 0
M  V30 218 C 26.5387 0.205791 -1.85562 0
M  V30 219 C 26.8897 1.54351 -1.2112 0
M  V30 220 O 26.0147 2.10435 -0.504601 0
M  V30 221 C 26.6097 0.380177 -3.3666 0
M  V30 222 C 25.1687 0.819395 -3.67373 0
M  V30 223 C 24.3157 -0.079159 -2.77187 0
M  V30 224 H 27.2667 -0.510577 -1.50262 0
M  V30 225 H 27.2877 1.21659 -3.60526 0
M  V30 226 H 26.7997 -0.593589 -3.83534 0
M  V30 227 H 24.9007 1.80413 -3.26009 0
M  V30 228 H 25.0137 0.646957 -4.74712 0
M  V30 229 H 23.3777 0.439565 -2.50878 0
M  V30 230 H 24.1607 -1.04906 -3.26878 0
M  V30 231 N 26.6058 1.57591 -0.0167156 0
M  V30 232 C 27.5538 2.10604 0.987353 0
M  V30 233 C 28.5478 1.02977 1.34507 0
M  V30 234 O 29.7538 1.21425 1.32875 0
M  V30 235 H 26.1288 0.672695 0.336134 0
M  V30 236 H 28.0998 2.93925 0.514817 0
M  V30 237 C 26.8488 2.6382 2.26483 0
M  V30 238 H 26.1718 3.46278 1.99829 0
M  V30 239 H 27.6118 3.04573 2.94977 0
M  V30 240 C 26.0708 1.55992 2.9861 0
M  V30 241 O 26.6008 0.952521 3.90243 0
M  V30 242 N 24.8068 1.28335 2.60727 0
M  V30 243 H 24.3538 1.77914 1.86291 0
M  V30 244 H 24.3118 0.564115 3.09298 0
M  V30 245 N 28.0839 -0.256276 1.55502 0
M  V30 246 C 29.0139 -1.32102 1.92539 0
M  V30 247 C 29.9949 -1.50684 0.789194 0
M  V30 248 O 31.1799 -1.63449 1.04872 0
M  V30 249 C 28.3099 -2.67752 2.21192 0
M  V30 250 C 27.2639 -2.63878 3.36975 0
M  V30 251 C 26.5899 -4.03236 3.51147 0
M  V30 252 C 27.8899 -2.21682 4.72921 0
M  V30 253 H 29.5839 -1.01351 2.81724 0
M  V30 254 H 27.1299 -0.486105 1.35547 0
M  V30 255 H 29.0829 -3.42365 2.45691 0
M  V30 256 H 27.8069 -3.0012 1.28824 0
M  V30 257 H 26.4659 -1.91722 3.12471 0
M  V30 258 H 26.1139 -4.32854 2.56216 0
M  V30 259 H 25.8139 -4.01535 4.29003 0
M  V30 260 H 27.3379 -4.79563 3.77957 0
M  V30 261 H 28.7519 -2.86023 4.96854 0
M  V30 262 H 27.1489 -2.3111 5.53812 0
M  V30 263 H 28.2189 -1.16833 4.70615 0
M  V30 264 N 29.562 -1.4872 -0.521534 0
M  V30 265 C 30.978 -1.35028 -0.850855 0
M  V30 266 C 31.178 -0.367712 -1.98116 0
M  V30 267 O 30.234 0.208037 -2.51642 0
M  V30 268 C 31.547 -2.75263 -1.21041 0
M  V30 269 C 33.095 -2.83813 -1.31981 0
M  V30 270 C 33.57 -4.24769 -1.71276 0
M  V30 271 N 35.061 -4.27482 -1.78363 0
M  V30 272 C 35.796 -5.33494 -2.1017 0
M  V30 273 N 35.292 -6.49775 -2.40343 0
M  V30 274 N 37.085 -5.20894 -2.11248 0
M  V30 275 H 29.236 -2.11214 0.22413 0
M  V30 276 H 31.499 -0.947252 0.0376439 0
M  V30 277 H 31.205 -3.48765 -0.453415 0
M  V30 278 H 31.079 -3.09327 -2.15863 0
M  V30 279 H 33.466 -2.10561 -2.06756 0
M  V30 280 H 33.547 -2.53358 -0.352596 0
M  V30 281 H 33.191 -4.9854 -0.970588 0
M  V30 282 H 33.121 -4.52673 -2.69062 0
M  V30 283 H 35.612 -3.43611 -1.57288 0
M  V30 284 H 35.925 -7.26402 -2.63743 0
M  V30 285 H 34.27 -6.53035 -2.37844 0
M  V30 286 H 37.461 -4.29065 -1.87139 0
M  V30 287 H 37.634 -6.03612 -2.35704 0
M  V30 288 N 31.0401 0.771051 -1.3745 0
M  V30 289 C 31.9721 1.89352 -1.29146 0
M  V30 290 C 32.9851 1.61477 -0.207124 0
M  V30 291 O 34.1741 1.72382 -0.463324 0
M  V30 292 C 31.2741 3.24596 -0.974195 0
M  V30 293 C 30.4471 3.80111 -2.16413 0
M  V30 294 C 29.5061 4.93832 -1.81703 0
M  V30 295 O 28.5321 5.09382 -2.54006 0
M  V30 296 N 29.7341 5.75483 -0.761573 0
M  V30 297 H 32.4991 1.96991 -2.25864 0
M  V30 298 H 30.0601 0.950191 -1.31084 0
M  V30 299 H 32.0521 3.98193 -0.722828 0
M  V30 300 H 30.6221 3.12454 -0.0955527 0
M  V30 301 H 29.8421 2.98284 -2.57721 0
M  V30 302 H 31.1301 4.13932 -2.95867 0
M  V30 303 H 30.5281 5.65469 -0.161609 0
M  V30 304 H 29.0851 6.49302 -0.570064 0
M  V30 305 N 32.5182 1.22032 0.997298 0
M  V30 306 C 33.9342 0.979326 1.26021 0
M  V30 307 C 34.1342 -0.32972 1.98784 0
M  V30 308 O 33.1902 -1.05345 2.29475 0
M  V30 309 C 34.5032 2.17509 2.07631 0
M  V30 310 C 36.0512 2.21817 2.2083 0
M  V30 311 C 36.5262 3.40933 3.05825 0
M  V30 312 N 38.0172 3.41067 3.13412 0
M  V30 313 C 38.7522 4.29885 3.79455 0
M  V30 314 N 38.2482 5.28914 4.47462 0
M  V30 315 N 40.0412 4.17673 3.76173 0
M  V30 316 H 32.1922 2.06202 0.509352 0
M  V30 317 H 34.4552 0.90334 0.287541 0
M  V30 318 H 34.1612 3.12415 1.61524 0
M  V30 319 H 34.0352 2.17206 3.08385 0
M  V30 320 H 36.4222 1.27462 2.66153 0
M  V30 321 H 36.5032 2.2616 1.1952 0
M  V30 322 H 36.1472 4.35586 2.61203 0
M  V30 323 H 36.0772 3.33829 4.07266 0
M  V30 324 H 38.5682 2.69406 2.65007 0
M  V30 325 H 38.8812 5.92973 4.95583 0
M  V30 326 H 37.2262 5.32831 4.46224 0
M  V30 327 H 40.4172 3.39564 3.22202 0
M  V30 328 H 40.5902 4.87098 4.27363 0
M  V30 329 N 33.9963 -1.19345 1.0293 0
M  V30 330 C 35.2423 -1.89585 0.736824 0
M  V30 331 C 35.5973 -1.78148 -0.726703 0
M  V30 332 O 34.8903 -1.16332 -1.52242 0
M  V30 333 C 35.0843 -3.39292 1.12319 0
M  V30 334 C 34.9133 -3.65298 2.62273 0
M  V30 335 C 33.6833 -3.83304 3.29251 0
M  V30 336 C 35.8813 -3.6682 3.60482 0
M  V30 337 N 33.8633 -3.96944 4.68304 0
M  V30 338 C 35.2343 -3.86037 4.85155 0
M  V30 339 C 37.2893 -3.49848 3.54275 0
M  V30 340 C 35.9923 -3.9004 6.04369 0
M  V30 341 C 38.0183 -3.55129 4.72903 0
M  V30 342 C 37.3803 -3.74831 5.9639 0
M  V30 343 H 33.4793 -0.712856 0.321497 0
M  V30 344 H 36.0633 -1.43427 1.31669 0
M  V30 345 H 34.2343 -3.84172 0.571524 0
M  V30 346 H 35.9663 -3.97055 0.78292 0
M  V30 347 H 32.7213 -3.82211 2.79663 0
M  V30 348 H 33.1453 -4.07613 5.40538 0
M  V30 349 H 37.7873 -3.33572 2.59788 0
M  V30 350 H 35.5053 -4.05108 6.99223 0
M  V30 351 H 39.0913 -3.43287 4.69729 0
M  V30 352 H 37.9713 -3.78792 6.86649 0
M  V30 353 N 35.4744 -0.807222 -1.35358 0
M  V30 354 C 36.8854 -0.44876 -1.81226 0
M  V30 355 C 37.2364 1.02929 -1.67033 0
M  V30 356 O 36.3614 1.79991 -1.20133 0
M  V30 357 C 36.9564 -0.807774 -3.2903 0
M  V30 358 C 35.5154 -0.501901 -3.73039 0
M  V30 359 C 34.6624 -1.03304 -2.57339 0
M  V30 360 H 37.6134 -0.998808 -1.23327 0
M  V30 361 H 37.6344 -0.10554 -3.80354 0
M  V30 362 H 37.1464 -1.88357 -3.39328 0
M  V30 363 H 35.2474 0.565128 -3.68289 0
M  V30 364 H 35.3604 -1.03497 -4.67787 0
M  V30 365 H 33.7244 -0.455339 -2.50597 0
M  V30 366 H 34.5074 -2.11496 -2.70415 0
M  V30 367 N 36.9525 1.47285 -0.560781 0
M  V30 368 C 37.8825 2.32857 0.173105 0
M  V30 369 C 38.8635 1.44009 0.905281 0
M  V30 370 O 40.0485 1.7286 0.885046 0
M  V30 371 C 37.1785 3.25861 1.20133 0
M  V30 372 C 36.1325 4.23978 0.585388 0
M  V30 373 C 35.4585 5.06332 1.7185 0
M  V30 374 C 36.7585 5.20242 -0.463178 0
M  V30 375 H 38.4525 2.94466 -0.541307 0
M  V30 376 H 35.9985 1.41601 -0.261764 0
M  V30 377 H 37.9515 3.84569 1.72293 0
M  V30 378 H 36.6755 2.62315 1.94573 0
M  V30 379 H 35.3345 3.66501 0.085054 0
M  V30 380 H 34.9825 4.39186 2.45203 0
M  V30 381 H 34.6825 5.72762 1.31213 0
M  V30 382 H 36.2065 5.67899 2.24329 0
M  V30 383 H 37.6205 5.73293 -0.027502 0
M  V30 384 H 36.0175 5.94896 -0.788627 0
M  V30 385 H 37.0875 4.65504 -1.35773 0
M  V30 386 N 38.4306 0.297415 1.54768 0
M  V30 387 C 39.3606 -0.573494 2.26348 0
M  V30 388 C 40.3416 -1.14085 1.26169 0
M  V30 389 O 41.5266 -1.17086 1.54934 0
M  V30 390 C 38.6566 -1.74716 3.00153 0
M  V30 391 C 37.6106 -1.31032 4.07449 0
M  V30 392 C 36.9366 -2.56887 4.68949 0
M  V30 393 C 38.2366 -0.444183 5.20408 0
M  V30 394 H 39.9306 0.0235131 2.99391 0
M  V30 395 H 37.4766 0.0127488 1.43994 0
M  V30 396 H 39.4296 -2.3625 3.48947 0
M  V30 397 H 38.1536 -2.37035 2.24682 0
M  V30 398 H 36.8126 -0.718066 3.59499 0
M  V30 399 H 36.4606 -3.17512 3.90122 0
M  V30 400 H 36.1606 -2.2836 5.41411 0
M  V30 401 H 37.6846 -3.19229 5.20505 0
M  V30 402 H 39.0986 -0.9651 5.65118 0
M  V30 403 H 37.4956 -0.252846 5.99567 0
M  V30 404 H 38.5656 0.531609 4.81977 0
M  V30 405 N 39.9087 -1.5758 0.0250728 0
M  V30 406 C 40.8387 -2.13007 -0.956575 0
M  V30 407 C 41.8197 -1.0452 -1.342 0
M  V30 408 O 43.0047 -1.32332 -1.42133 0
M  V30 409 C 40.1347 -2.65386 -2.24026 0
M  V30 410 C 39.0887 -3.78623 -1.99571 0
M  V30 411 C 38.4147 -4.17414 -3.3417 0
M  V30 412 C 39.7147 -5.04867 -1.33814 0
M  V30 413 H 41.4087 -2.9528 -0.494991 0
M  V30 414 H 38.9547 -1.42042 -0.236651 0
M  V30 415 H 40.9077 -3.02794 -2.93076 0
M  V30 416 H 39.6317 -1.80268 -2.72343 0
M  V30 417 H 38.2907 -3.41646 -1.32941 0
M  V30 418 H 37.9387 -3.29284 -3.80238 0
M  V30 419 H 37.6387 -4.93719 -3.18615 0
M  V30 420 H 39.1627 -4.57402 -4.04495 0
M  V30 421 H 40.5767 -5.39888 -1.92857 0
M  V30 422 H 38.9737 -5.86144 -1.28669 0
M  V30 423 H 40.0437 -4.83904 -0.310561 0
M  V30 424 N 41.3868 0.248026 -1.55636 0
M  V30 425 C 42.3168 1.31079 -1.93237 0
M  V30 426 C 43.2978 1.50264 -0.797174 0
M  V30 427 O 44.4828 1.62891 -1.05737 0
M  V30 428 C 41.6128 2.66575 -2.22609 0
M  V30 429 C 40.5668 2.62087 -3.3837 0
M  V30 430 C 39.8928 4.01369 -3.53281 0
M  V30 431 C 41.1928 2.19171 -4.7409 0
M  V30 432 H 42.8868 0.998556 -2.82257 0
M  V30 433 H 40.4328 0.47891 -1.35803 0
M  V30 434 H 42.3858 3.41057 -2.47503 0
M  V30 435 H 41.1098 2.99432 -1.30414 0
M  V30 436 H 39.7688 1.90063 -3.13483 0
M  V30 437 H 39.4168 4.31489 -2.58508 0
M  V30 438 H 39.1168 3.99254 -4.31127 0
M  V30 439 H 40.6408 4.77552 -3.80495 0
M  V30 440 H 42.0548 2.83384 -4.98363 0
M  V30 441 H 40.4518 2.2817 -5.5503 0
M  V30 442 H 41.5218 1.14336 -4.71227 0
M  V30 443 N 42.8649 1.48995 0.513639 0
M  V30 444 C 44.1129 1.57531 1.26604 0
M  V30 445 C 44.4339 0.258236 1.93283 0
M  V30 446 O 43.7039 -0.721502 1.8213 0
M  V30 447 H 42.2839 0.580387 0.470276 0
M  V30 448 H 44.9459 1.85552 0.596373 0
M  V30 449 H 44.0419 2.36486 2.03669 0
M  V30 450 N 44.343 -0.763751 1.37857 0
M  V30 451 C 45.273 -1.89103 1.36975 0
M  V30 452 C 46.254 -1.68439 0.237152 0
M  V30 453 O 47.439 -1.8918 0.438713 0
M  V30 454 C 44.569 -3.26496 1.18395 0
M  V30 455 C 43.523 -3.61741 2.28751 0
M  V30 456 C 42.849 -4.97762 1.95286 0
M  V30 457 C 44.149 -3.67665 3.70972 0
M  V30 458 H 45.843 -1.90099 2.31307 0
M  V30 459 H 43.389 -0.91319 1.11341 0
M  V30 460 H 45.342 -4.05003 1.16406 0
M  V30 461 H 44.066 -3.25955 0.205215 0
M  V30 462 H 42.725 -2.85547 2.29909 0
M  V30 463 H 42.373 -4.93769 0.959221 0
M  V30 464 H 42.073 -5.22313 2.69189 0
M  V30 465 H 43.597 -5.7866 1.94898 0
M  V30 466 H 45.011 -4.36307 3.719 0
M  V30 467 H 43.408 -4.03718 4.43995 0
M  V30 468 H 44.478 -2.68134 4.0402 0
M  V30 469 N 45.8211 -1.22559 -0.990812 0
M  V30 470 C 46.7841 -0.998863 -2.0629 0
M  V30 471 C 47.7841 0.0354834 -1.60761 0
M  V30 472 O 48.9741 -0.203231 -1.7301 0
M  V30 473 C 46.1061 -0.509203 -3.37076 0
M  V30 474 H 47.2991 -1.95014 -2.27837 0
M  V30 475 H 44.8521 -1.04456 -1.16269 0
M  V30 476 H 45.5871 0.446335 -3.21214 0
M  V30 477 H 45.3721 -1.25547 -3.71457 0
M  V30 478 H 46.8621 -0.370888 -4.1595 0
M  V30 479 N 47.2992 1.18797 -1.03562 0
M  V30 480 C 48.5452 1.8893 -0.737113 0
M  V30 481 C 48.8782 1.79837 0.732956 0
M  V30 482 O 48.1532 1.19525 1.5344 0
M  V30 483 C 48.4362 3.39607 -1.19745 0
M  V30 484 C 48.2892 3.57537 -2.72924 0
M  V30 485 C 49.6082 4.33069 -0.783526 0
M  V30 486 H 46.7272 0.686057 -0.269249 0
M  V30 487 H 49.3692 1.39797 -1.28673 0
M  V30 488 H 47.5192 3.81583 -0.729855 0
M  V30 489 H 49.1912 3.24688 -3.27682 0
M  V30 490 H 47.4342 3.00363 -3.12993 0
M  V30 491 H 48.1052 4.63238 -3.00191 0
M  V30 492 H 50.5812 3.98846 -1.18581 0
M  V30 493 H 49.4572 5.3707 -1.13343 0
M  V30 494 H 49.7182 4.40986 0.313681 0
M  V30 495 N 48.7773 0.814389 1.34928 0
M  V30 496 C 50.0233 0.399013 1.98836 0
M  V30 497 C 50.3563 -1.03314 1.64438 0
M  V30 498 O 49.6313 -1.71811 0.911659 0
M  V30 499 C 49.9143 0.591629 3.55207 0
M  V30 500 C 49.7673 2.06928 3.99376 0
M  V30 501 C 51.0863 0.022199 4.40094 0
M  V30 502 H 48.2053 0.146451 0.722303 0
M  V30 503 H 50.8473 1.02537 1.59957 0
M  V30 504 H 48.9973 0.0584441 3.88456 0
M  V30 505 H 50.6693 2.66544 3.76499 0
M  V30 506 H 48.9123 2.56287 3.49999 0
M  V30 507 H 49.5833 2.1549 5.08201 0
M  V30 508 H 52.0593 0.477643 4.13349 0
M  V30 509 H 50.9353 0.186832 5.48582 0
M  V30 510 H 51.1963 -1.07215 4.28902 0
M  V30 511 N 50.2554 -1.46986 0.568584 0
M  V30 512 C 51.4834 -2.0683 0.0539956 0
M  V30 513 C 51.8984 -1.41953 -1.24478 0
M  V30 514 O 51.2554 -0.519933 -1.74937 0
M  V30 515 C 51.3064 -3.61254 -0.133362 0
M  V30 516 O 51.0274 -4.237 1.11399 0
M  V30 517 C 52.5284 -4.37992 -0.683927 0
M  V30 518 H 49.7484 -0.669058 0.0510141 0
M  V30 519 H 52.2924 -1.88824 0.785234 0
M  V30 520 H 50.4474 -3.78735 -0.81477 0
M  V30 521 H 50.8614 -5.16388 0.91888 0
M  V30 522 H 52.3354 -5.46684 -0.764263 0
M  V30 523 H 52.8124 -4.05058 -1.69778 0
M  V30 524 H 53.4184 -4.25283 -0.0378494 0
M  V30 525 N 51.7335 -0.305618 -1.54608 0
M  V30 526 C 52.6835 0.583595 -2.20405 0
M  V30 527 C 53.6675 1.09539 -1.17856 0
M  V30 528 O 54.8595 1.0354 -1.43557 0
M  V30 529 C 51.9885 1.75277 -2.95183 0
M  V30 530 C 51.0745 1.25672 -4.05052 0
M  V30 531 N 51.4655 0.478998 -5.03527 0
M  V30 532 C 49.7635 1.53704 -4.18678 0
M  V30 533 C 50.4645 0.214269 -5.81305 0
M  V30 534 N 49.4405 0.795374 -5.3775 0
M  V30 535 H 53.2425 -0.0180946 -2.93894 0
M  V30 536 H 50.7565 -0.110601 -1.62023 0
M  V30 537 H 52.7535 2.4014 -3.40791 0
M  V30 538 H 51.4135 2.35812 -2.23211 0
M  V30 539 H 52.4245 0.123473 -5.17753 0
M  V30 540 H 49.1015 2.14954 -3.57912 0
M  V30 541 H 50.4915 -0.410656 -6.70644 0
M  V30 542 N 53.2116 1.57565 -0.0334293 0
M  V30 543 C 54.4596 1.91598 0.642999 0
M  V30 544 C 54.7806 0.910847 1.7242 0
M  V30 545 O 54.0506 -0.0469931 1.95844 0
M  V30 546 H 52.6306 0.707228 0.240496 0
M  V30 547 H 55.2926 1.94726 -0.0822488 0
M  V30 548 H 54.3886 2.92336 1.09298 0
M  V30 549 N 54.6897 -0.239769 1.55765 0
M  V30 550 C 55.6197 -1.30052 1.9393 0
M  V30 551 C 56.6007 -1.49839 0.805132 0
M  V30 552 O 57.7857 -1.62328 1.06599 0
M  V30 553 C 54.9157 -2.65391 2.2402 0
M  V30 554 C 53.8697 -2.60289 3.39755 0
M  V30 555 C 53.1957 -3.99489 3.55405 0
M  V30 556 C 54.4957 -2.16654 4.75246 0
M  V30 557 H 56.1897 -0.983573 2.82783 0
M  V30 558 H 53.7357 -0.471701 1.36055 0
M  V30 559 H 55.6887 -3.3974 2.49308 0
M  V30 560 H 54.4127 -2.98736 1.32 0
M  V30 561 H 53.0717 -1.88398 3.14487 0
M  V30 562 H 52.7197 -4.30112 2.60793 0
M  V30 563 H 52.4197 -3.96962 4.33238 0
M  V30 564 H 53.9437 -4.75528 3.83022 0
M  V30 565 H 55.3577 -2.80737 4.99859 0
M  V30 566 H 53.7547 -2.25223 5.56232 0
M  V30 567 H 54.8247 -1.11835 4.71827 0
M  V30 568 N 56.1678 -1.49265 -0.50573 0
M  V30 569 C 57.0978 -1.68495 -1.61653 0
M  V30 570 C 58.0788 -0.53366 -1.61512 0
M  V30 571 O 59.2638 -0.76897 -1.78327 0
M  V30 572 C 56.3938 -1.74709 -3.00157 0
M  V30 573 C 55.3478 -2.89581 -3.15162 0
M  V30 574 C 54.6738 -2.80903 -4.5497 0
M  V30 575 C 55.9738 -4.30578 -2.95634 0
M  V30 576 H 57.6678 -2.61493 -1.45814 0
M  V30 577 H 55.2138 -1.25838 -0.70005 0
M  V30 578 H 57.1668 -1.86748 -3.77761 0
M  V30 579 H 55.8908 -0.783067 -3.17074 0
M  V30 580 H 54.5498 -2.77136 -2.39982 0
M  V30 581 H 54.1978 -1.82419 -4.68756 0
M  V30 582 H 53.8978 -3.57999 -4.65951 0
M  V30 583 H 55.4218 -2.94944 -5.34641 0
M  V30 584 H 56.8358 -4.4373 -3.63011 0
M  V30 585 H 55.2328 -5.0886 -3.18091 0
M  V30 586 H 56.3028 -4.45352 -1.91806 0
M  V30 587 N 57.6459 0.756429 -1.3826 0
M  V30 588 C 59.0619 1.0591 -1.19395 0
M  V30 589 C 59.2619 2.01459 -0.0406567 0
M  V30 590 O 58.3179 2.44909 0.614467 0
M  V30 591 C 59.6309 1.64191 -2.51916 0
M  V30 592 C 61.1789 1.76376 -2.58574 0
M  V30 593 C 61.6539 2.38069 -3.91264 0
M  V30 594 N 63.1449 2.45503 -3.92788 0
M  V30 595 C 63.8799 2.94126 -4.92217 0
M  V30 596 N 63.3759 3.42805 -6.02043 0
M  V30 597 N 65.1689 2.9314 -4.7961 0
M  V30 598 H 57.3199 0.122313 -2.12048 0
M  V30 599 H 59.5829 0.116892 -0.940766 0
M  V30 600 H 59.2889 1.01451 -3.3675 0
M  V30 601 H 59.1629 2.6329 -2.70108 0
M  V30 602 H 61.5499 2.38244 -1.74137 0
M  V30 603 H 61.6309 0.759894 -2.44252 0
M  V30 604 H 61.2749 1.76835 -4.76121 0
M  V30 605 H 61.2049 3.39091 -4.02895 0
M  V30 606 H 63.6959 2.1107 -3.13461 0
M  V30 607 H 64.0089 3.78354 -6.73846 0
M  V30 608 H 62.3539 3.4087 -6.05667 0
M  V30 609 H 65.5449 2.54419 -3.92923 0
M  V30 610 H 65.7179 3.30721 -5.5725 0
M  V30 611 N 59.124 1.23083 0.984299 0
M  V30 612 C 60.535 1.05609 1.5396 0
M  V30 613 C 60.886 -0.377793 1.92528 0
M  V30 614 O 60.011 -1.26398 1.75649 0
M  V30 615 C 60.606 1.91087 2.7977 0
M  V30 616 C 59.165 1.77885 3.31713 0
M  V30 617 C 58.312 1.87028 2.04733 0
M  V30 618 H 61.263 1.36802 0.804419 0
M  V30 619 H 61.284 1.43336 3.5247 0
M  V30 620 H 60.796 2.9544 2.51668 0
M  V30 621 H 58.897 0.762995 3.64704 0
M  V30 622 H 59.01 2.61047 4.01735 0
M  V30 623 H 57.374 1.30565 2.18689 0
M  V30 624 H 58.157 2.92929 1.79017 0
M  V30 625 N 60.6021 -1.18246 1.0419 0
M  V30 626 C 61.8301 -1.92195 0.766072 0
M  V30 627 C 62.2451 -1.76247 -0.676933 0
M  V30 628 O 61.6021 -1.09293 -1.46155 0
M  V30 629 C 61.6531 -3.43568 1.12442 0
M  V30 630 O 61.3741 -3.59015 2.51078 0
M  V30 631 C 62.8751 -4.34613 0.873275 0
M  V30 632 H 60.0951 -0.610114 0.279288 0
M  V30 633 H 62.6391 -1.50007 1.38989 0
M  V30 634 H 60.7941 -3.8354 0.545542 0
M  V30 635 H 61.2081 -4.5273 2.64831 0
M  V30 636 H 62.6821 -5.39374 1.17385 0
M  V30 637 H 63.1591 -4.38781 -0.191909 0
M  V30 638 H 63.7651 -4.00341 1.43551 0
M  V30 639 N 62.0802 -0.821533 -1.34494 0
M  V30 640 C 63.0432 -0.247847 -2.27856 0
M  V30 641 C 64.0432 0.573453 -1.50227 0
M  V30 642 O 65.2332 0.389759 -1.69784 0
M  V30 643 C 62.3652 0.652698 -3.34593 0
M  V30 644 H 63.5582 -1.07146 -2.80107 0
M  V30 645 H 61.1112 -0.593291 -1.44602 0
M  V30 646 H 61.8462 1.49943 -2.87555 0
M  V30 647 H 61.6312 0.065292 -3.92046 0
M  V30 648 H 63.1212 1.04793 -4.04238 0
M  V30 649 N 63.5583 1.46682 -0.576371 0
M  V30 650 C 64.5213 2.28707 0.150239 0
M  V30 651 C 65.5213 1.38035 0.824794 0
M  V30 652 O 66.7113 1.60476 0.677719 0
M  V30 653 C 63.8433 3.18248 1.22192 0
M  V30 654 H 65.0363 2.94423 -0.570521 0
M  V30 655 H 62.5893 1.52688 -0.334078 0
M  V30 656 H 63.3243 2.57265 1.97447 0
M  V30 657 H 63.1093 3.85 0.742812 0
M  V30 658 H 64.5993 3.80001 1.73172 0
M  V30 659 N 65.0364 0.313813 1.54444 0
M  V30 660 C 66.2614 -0.296681 2.05267 0
M  V30 661 C 66.6864 -1.45757 1.18897 0
M  V30 662 O 66.0444 -1.80239 0.195886 0
M  V30 663 C 66.0924 -0.71831 3.53373 0
M  V30 664 O 65.1964 -1.82175 3.69981 0
M  V30 665 H 64.5374 -0.0554061 0.661684 0
M  V30 666 H 67.0674 0.459387 1.99376 0
M  V30 667 H 67.0774 -1.00364 3.95463 0
M  V30 668 H 65.7524 0.130821 4.15694 0
M  V30 669 H 64.3294 -1.53598 3.39797 0
M  V30 670 N 66.5145 -1.57545 0.0417849 0
M  V30 671 C 67.4465 -2.07904 -0.964799 0
M  V30 672 C 68.4595 -1.00497 -1.28079 0
M  V30 673 O 69.6485 -1.28087 -1.24322 0
M  V30 674 C 66.7485 -2.49928 -2.28887 0
M  V30 675 C 65.9215 -3.80562 -2.15619 0
M  V30 676 C 64.9805 -4.08999 -3.31069 0
M  V30 677 O 64.0065 -4.79061 -3.0739 0
M  V30 678 N 65.2085 -3.6017 -4.55256 0
M  V30 679 H 67.9735 -2.94886 -0.535029 0
M  V30 680 H 65.5345 -1.61252 -0.144681 0
M  V30 681 H 67.5265 -2.66034 -3.04972 0
M  V30 682 H 66.0965 -1.68245 -2.63463 0
M  V30 683 H 65.3165 -3.74129 -1.24183 0
M  V30 684 H 66.6045 -4.66126 -2.03971 0
M  V30 685 H 66.0025 -3.03512 -4.77386 0
M  V30 686 H 64.5595 -3.81532 -5.28466 0
M  V30 687 N 67.9926 0.231505 -1.5589 0
M  V30 688 C 69.2176 0.978689 -1.82856 0
M  V30 689 C 69.6426 1.77559 -0.620846 0
M  V30 690 O 69.0006 1.76119 0.430305 0
M  V30 691 C 69.0486 1.87997 -3.07716 0
M  V30 692 O 68.1526 2.97393 -2.85712 0
M  V30 693 H 67.4936 0.277663 -0.603158 0
M  V30 694 H 70.0236 0.24783 -2.03093 0
M  V30 695 H 70.0336 2.2917 -3.37558 0
M  V30 696 H 68.7086 1.29417 -3.95252 0
M  V30 697 H 67.2856 2.60238 -2.67078 0
M  V30 698 N 69.4707 1.49531 0.497807 0
M  V30 699 C 70.8867 1.36365 0.829266 0
M  V30 700 C 71.0867 0.399184 1.97506 0
M  V30 701 O 70.1427 -0.167977 2.51941 0
M  V30 702 C 71.4557 2.77153 1.16647 0
M  V30 703 C 73.0037 2.85877 1.27449 0
M  V30 704 C 73.4787 4.2744 1.64497 0
M  V30 705 N 74.9697 4.30265 1.7154 0
M  V30 706 C 75.7047 5.3677 2.01656 0
M  V30 707 N 75.2007 6.53516 2.29976 0
M  V30 708 N 76.9937 5.24189 2.02934 0
M  V30 709 H 69.1447 2.10831 -0.257703 0
M  V30 710 H 71.4077 0.946534 -0.0527091 0
M  V30 711 H 71.1137 3.49442 0.397872 0
M  V30 712 H 70.9877 3.12722 2.10915 0
M  V30 713 H 73.3747 2.13824 2.0338 0
M  V30 714 H 73.4557 2.53887 0.312244 0
M  V30 715 H 73.0997 5.00021 0.891151 0
M  V30 716 H 73.0297 4.56896 2.61827 0
M  V30 717 H 75.5207 3.4607 1.51802 0
M  V30 718 H 75.8337 7.30506 2.52153 0
M  V30 719 H 74.1787 6.56737 2.27425 0
M  V30 720 H 77.3697 4.31988 1.80289 0
M  V30 721 H 77.5427 6.07286 2.26071 0
M  V30 722 N 70.9488 -0.749086 1.3866 0
M  V30 723 C 71.9118 -1.84457 1.36045 0
M  V30 724 C 72.9118 -1.58682 0.260122 0
M  V30 725 O 74.1018 -1.66343 0.517261 0
M  V30 726 C 71.2338 -3.22008 1.11911 0
M  V30 727 H 72.4268 -1.88182 2.33512 0
M  V30 728 H 69.9798 -0.951266 1.24019 0
M  V30 729 H 70.7148 -3.2395 0.150686 0
M  V30 730 H 70.4998 -3.42111 1.91579 0
M  V30 731 H 71.9898 -4.0208 1.12788 0
M  V30 732 N 72.4269 -1.23603 -0.977757 0
M  V30 733 C 73.3569 -1.04401 -2.0886 0
M  V30 734 C 74.3379 0.0399052 -1.70053 0
M  V30 735 O 75.5229 -0.125246 -1.93796 0
M  V30 736 C 72.6529 -0.637269 -3.41403 0
M  V30 737 C 71.6069 -1.66883 -3.94124 0
M  V30 738 C 70.9329 -1.11745 -5.22893 0
M  V30 739 C 72.2329 -3.06247 -4.23096 0
M  V30 740 H 73.9269 -1.97316 -2.25182 0
M  V30 741 H 71.4729 -0.950096 -1.08209 0
M  V30 742 H 73.4259 -0.48998 -4.18542 0
M  V30 743 H 72.1499 0.327557 -3.24953 0
M  V30 744 H 70.8089 -1.80416 -3.19133 0
M  V30 745 H 70.4569 -0.143527 -5.02795 0
M  V30 746 H 70.1569 -1.80672 -5.59134 0
M  V30 747 H 71.6809 -0.982067 -6.02651 0
M  V30 748 H 73.0949 -2.96001 -4.90975 0
M  V30 749 H 71.4919 -3.72436 -4.70544 0
M  V30 750 H 72.5619 -3.55041 -3.30263 0
M  V30 751 N 73.905 1.17692 -1.04816 0
M  V30 752 C 75.153 1.87488 -0.754497 0
M  V30 753 C 75.474 1.81205 0.720407 0
M  V30 754 O 74.744 1.23544 1.52032 0
M  V30 755 H 73.324 0.694101 -0.276102 0
M  V30 756 H 75.986 1.42793 -1.32651 0
M  V30 757 H 75.082 2.93328 -1.06606 0
M  V30 758 N 75.3831 0.828654 1.34056 0
M  V30 759 C 76.7941 0.477534 1.8049 0
M  V30 760 C 77.1451 -1.00258 1.6865 0
M  V30 761 O 76.2701 -1.78057 1.22982 0
M  V30 762 C 76.8651 0.860018 3.27703 0
M  V30 763 C 75.4241 0.561185 3.72193 0
M  V30 764 C 74.5711 1.07385 2.55663 0
M  V30 765 H 77.5221 1.0183 1.21722 0
M  V30 766 H 77.5431 0.166038 3.80138 0
M  V30 767 H 77.0551 1.93731 3.36288 0
M  V30 768 H 75.1561 -0.506465 3.69142 0
M  V30 769 H 75.2691 1.10926 4.66082 0
M  V30 770 H 73.6331 0.495149 2.49841 0
M  V30 771 H 74.4161 2.15771 2.67016 0
M  V30 772 N 76.8612 -1.46375 0.584142 0
M  V30 773 C 78.1092 -2.01978 0.0701287 0
M  V30 774 C 78.4302 -1.4579 -1.295 0
M  V30 775 O 77.7002 -0.64314 -1.85042 0
M  V30 776 H 76.2802 -0.746648 0.0229345 0
M  V30 777 H 78.9422 -1.79461 0.760245 0
M  V30 778 H 78.0382 -3.121 0.0022064 0
M  V30 779 N 78.3393 -0.321999 -1.54275 0
M  V30 780 C 79.3023 0.531975 -2.22941 0
M  V30 781 C 80.3023 1.04478 -1.22234 0
M  V30 782 O 81.4923 0.937452 -1.46825 0
M  V30 783 C 78.6243 1.73874 -2.93224 0
M  V30 784 H 79.8173 -0.0682612 -2.99822 0
M  V30 785 H 77.3703 -0.0730644 -1.56129 0
M  V30 786 H 78.1053 2.37825 -2.20476 0
M  V30 787 H 77.8903 1.37847 -3.6707 0
M  V30 788 H 79.3803 2.34496 -3.45545 0
M  V30 789 N 79.8174 1.5752 -0.0501392 0
M  V30 790 C 81.2284 1.80271 0.485705 0
M  V30 791 C 81.5794 0.96228 1.70981 0
M  V30 792 O 80.7044 0.178578 2.15662 0
M  V30 793 C 81.2994 3.26957 0.887938 0
M  V30 794 C 79.8584 3.5063 1.36877 0
M  V30 795 C 79.0054 2.75165 0.343468 0
M  V30 796 H 81.9564 1.56281 -0.276028 0
M  V30 797 H 81.9774 3.37821 1.75093 0
M  V30 798 H 81.4894 3.881 -0.0031809 0
M  V30 799 H 79.5904 2.94766 2.27911 0
M  V30 800 H 79.7034 4.59343 1.36164 0
M  V30 801 H 78.0674 2.4127 0.816128 0
M  V30 802 H 78.8504 3.39034 -0.539548 0
M  V30 803 N 81.2955 -0.223234 1.56011 0
M  V30 804 C 82.5435 -0.946003 1.78592 0
M  V30 805 C 82.8645 -1.84936 0.618349 0
M  V30 806 O 82.1345 -1.92473 -0.364833 0
M  V30 807 H 80.7145 -0.352298 0.658707 0
M  V30 808 H 83.3765 -0.235494 1.93472 0
M  V30 809 H 82.4725 -1.55381 2.70672 0
M  V30 810 N 82.7736 -1.49793 -0.48987 0
M  V30 811 C 84.0216 -1.59525 -1.24081 0
M  V30 812 C 84.3426 -0.288953 -1.92847 0
M  V30 813 O 83.6126 0.692436 -1.83254 0
M  V30 814 H 82.1926 -0.587796 -0.460983 0
M  V30 815 H 84.8546 -1.86477 -0.566778 0
M  V30 816 H 83.9506 -2.39696 -1.99881 0
M  V30 817 N 84.2517 0.741722 -1.39055 0
M  V30 818 C 85.4767 1.53607 -1.39354 0
M  V30 819 C 85.9017 1.88096 0.0116905 0
M  V30 820 O 85.2597 1.5143 0.996924 0
M  V30 821 C 85.3077 2.80441 -2.26682 0
M  V30 822 O 84.4117 3.76088 -1.69208 0
M  V30 823 H 83.7527 0.464142 -0.474835 0
M  V30 824 H 86.2827 0.915665 -1.82967 0
M  V30 825 H 86.2927 3.29246 -2.40959 0
M  V30 826 H 84.9677 2.5467 -3.2881 0
M  V30 827 H 83.5447 3.34833 -1.64138 0
M  V30 828 N 85.7298 1.2412 0.971189 0
M  V30 829 C 86.9548 1.10667 1.75407 0
M  V30 830 C 87.3798 -0.337048 1.85056 0
M  V30 831 O 86.7378 -1.24396 1.31892 0
M  V30 832 C 86.7858 1.74726 3.15441 0
M  V30 833 O 85.8898 1.01566 3.99697 0
M  V30 834 H 85.2308 0.387341 0.539317 0
M  V30 835 H 87.7608 1.64358 1.2185 0
M  V30 836 H 87.7708 1.80341 3.6598 0
M  V30 837 H 86.4458 2.79773 3.07734 0
M  V30 838 H 85.0228 1.03713 3.58187 0
M  V30 839 N 87.2079 -1.17134 1.05439 0
M  V30 840 C 88.6239 -1.39454 0.776201 0
M  V30 841 C 88.8239 -1.91454 -0.628307 0
M  V30 842 O 87.8799 -2.10777 -1.39031 0
M  V30 843 C 89.1929 -2.38305 1.83388 0
M  V30 844 C 90.7409 -2.52006 1.85639 0
M  V30 845 C 91.2159 -3.54133 2.90437 0
M  V30 846 N 92.7069 -3.61653 2.89415 0
M  V30 847 C 93.4419 -4.4044 3.67152 0
M  V30 848 N 92.9379 -5.22721 4.54681 0
M  V30 849 N 94.7309 -4.35337 3.55581 0
M  V30 850 H 86.8819 -0.817134 1.96053 0
M  V30 851 H 89.1449 -0.421626 0.849079 0
M  V30 852 H 88.8509 -2.07173 2.84204 0
M  V30 853 H 88.7249 -3.37841 1.67761 0
M  V30 854 H 91.1119 -2.82447 0.85486 0
M  V30 855 H 91.1929 -1.52537 2.05344 0
M  V30 856 H 90.8369 -3.24431 3.90777 0
M  V30 857 H 90.7669 -4.53313 2.67983 0
M  V30 858 H 93.2579 -3.02909 2.25952 0
M  V30 859 H 93.5709 -5.80027 5.10674 0
M  V30 860 H 91.9159 -5.22093 4.58741 0
M  V30 861 H 95.1069 -3.70112 2.86592 0
M  V30 862 H 95.2799 -4.96494 4.1641 0
M  V30 863 N 88.686 -0.835752 -1.33615 0
M  V30 864 C 89.911 -0.442389 -2.02627 0
M  V30 865 C 90.336 0.947735 -1.62479 0
M  V30 866 O 89.694 1.61907 -0.815826 0
M  V30 867 C 89.742 -0.567216 -3.56111 0
M  V30 868 O 88.846 0.407799 -4.10379 0
M  V30 869 H 88.187 -0.180278 -0.639059 0
M  V30 870 H 90.717 -1.12972 -1.70583 0
M  V30 871 H 90.727 -0.447708 -4.05536 0
M  V30 872 H 89.402 -1.58103 -3.84677 0
M  V30 873 H 87.979 0.246107 -3.72087 0
M  V30 874 N 90.1641 1.46063 -0.591896 0
M  V30 875 C 91.3891 2.07226 -0.0850314 0
M  V30 876 C 91.8141 1.43625 1.21463 0
M  V30 877 O 91.1721 0.523305 1.73583 0
M  V30 878 C 91.2201 3.60554 0.0576567 0
M  V30 879 O 90.3241 3.97128 1.11188 0
M  V30 880 H 89.6651 0.660615 -0.0669568 0
M  V30 881 H 92.1951 1.8756 -0.81745 0
M  V30 882 H 92.2051 4.07165 0.2609 0
M  V30 883 H 90.8801 4.06235 -0.891416 0
M  V30 884 H 89.4571 3.62213 0.886356 0
M  V30 885 N 91.6422 0.330177 1.54103 0
M  V30 886 C 92.5722 -0.525353 2.27513 0
M  V30 887 C 93.5532 -1.11383 1.2856 0
M  V30 888 O 94.7382 -1.13773 1.57383 0
M  V30 889 C 91.8682 -1.6831 3.03791 0
M  V30 890 C 90.8222 -1.2236 4.10137 0
M  V30 891 C 90.1482 -2.46882 4.74293 0
M  V30 892 C 91.4482 -0.333697 5.21233 0
M  V30 893 H 93.1422 0.087013 2.99274 0
M  V30 894 H 90.6882 0.0432893 1.43935 0
M  V30 895 H 92.6412 -2.28795 3.5388 0
M  V30 896 H 91.3652 -2.32216 2.29659 0
M  V30 897 H 90.0242 -0.64165 3.60941 0
M  V30 898 H 89.6722 -3.09165 3.96769 0
M  V30 899 H 89.3722 -2.16825 5.46133 0
M  V30 900 H 90.8962 -3.08117 5.27159 0
M  V30 901 H 92.3102 -0.845013 5.67038 0
M  V30 902 H 90.7072 -0.125612 5.99969 0
M  V30 903 H 91.7772 0.633724 4.80741 0
M  V30 904 N 93.1203 -1.57491 0.0584922 0
M  V30 905 C 94.5363 -1.56792 -0.298091 0
M  V30 906 C 94.7363 -1.06679 -1.70944 0
M  V30 907 O 93.7923 -0.726672 -2.41818 0
M  V30 908 C 95.1053 -3.00461 -0.119879 0
M  V30 909 C 96.6533 -3.1242 -0.190428 0
M  V30 910 C 97.1283 -4.57982 -0.0406567 0
M  V30 911 N 98.6193 -4.63099 -0.0966958 0
M  V30 912 C 99.3543 -5.734 -0.00502943 0
M  V30 913 N 98.8503 -6.9266 0.139402 0
M  V30 914 N 100.643 -5.62067 -0.0611391 0
M  V30 915 H 92.7943 -1.88386 0.98105 0
M  V30 916 H 95.0573 -0.867865 0.381463 0
M  V30 917 H 94.7633 -3.41187 0.85349 0
M  V30 918 H 94.6373 -3.66843 -0.877833 0
M  V30 919 H 97.0243 -2.71589 -1.15427 0
M  V30 920 H 97.1053 -2.48702 0.598405 0
M  V30 921 H 96.7493 -4.995 0.919897 0
M  V30 922 H 96.6793 -5.19715 -0.848727 0
M  V30 923 H 99.1703 -3.77331 -0.207277 0
M  V30 924 H 99.4833 -7.72536 0.201855 0
M  V30 925 H 97.8283 -6.94781 0.174586 0
M  V30 926 H 101.019 -4.67782 -0.172583 0
M  V30 927 H 101.192 -6.47999 0.0137562 0
M  V30 928 N 94.5984 0.214957 -1.56127 0
M  V30 929 C 95.8234 0.95924 -1.83884 0
M  V30 930 C 96.2484 1.7689 -0.639644 0
M  V30 931 O 95.6064 1.76566 0.411601 0
M  V30 932 C 95.6544 1.84723 -3.09693 0
M  V30 933 O 94.7584 2.94346 -2.8885 0
M  V30 934 H 94.0994 0.27125 -0.606069 0
M  V30 935 H 96.6294 0.226276 -2.03345 0
M  V30 936 H 96.6394 2.25576 -3.39969 0
M  V30 937 H 95.3144 1.25218 -3.96602 0
M  V30 938 H 93.8914 2.57391 -2.69823 0
M  V30 939 N 96.0765 1.50051 0.48192 0
M  V30 940 C 97.4925 1.37237 0.814756 0
M  V30 941 C 97.6925 0.420109 1.97072 0
M  V30 942 O 96.7485 -0.141246 2.52105 0
M  V30 943 C 98.0615 2.78375 1.13701 0
M  V30 944 C 99.6095 2.87213 1.2441 0
M  V30 945 C 100.084 4.29161 1.59954 0
M  V30 946 N 101.575 4.32061 1.66967 0
M  V30 947 C 102.31 5.38879 1.95952 0
M  V30 948 N 101.806 6.55918 2.23031 0
M  V30 949 N 103.599 5.26312 1.97363 0
M  V30 950 H 95.7505 2.10546 -0.28005 0
M  V30 951 H 98.0135 0.945921 -0.0627454 0
M  V30 952 H 97.7195 3.49845 0.360787 0
M  V30 953 H 97.5935 3.14941 2.07586 0
M  V30 954 H 99.9805 2.15969 2.01101 0
M  V30 955 H 100.061 2.54204 0.285299 0
M  V30 956 H 99.7055 5.00938 0.838067 0
M  V30 957 H 99.6355 4.59648 2.56966 0
M  V30 958 H 102.126 3.47661 1.48123 0
M  V30 959 H 102.439 7.33139 2.44391 0
M  V30 960 H 100.784 6.59112 2.20447 0
M  V30 961 H 103.975 4.33876 1.75697 0
M  V30 962 H 104.148 6.09649 2.19618 0
M  V30 963 N 97.5546 -0.734337 1.39446 0
M  V30 964 C 98.8006 -1.49505 1.37913 0
M  V30 965 C 99.1556 -1.92384 -0.0248416 0
M  V30 966 O 98.4486 -1.6395 -0.991506 0
M  V30 967 C 98.6426 -2.74711 2.28623 0
M  V30 968 C 98.4716 -2.44075 3.777 0
M  V30 969 C 97.2416 -2.36338 4.46623 0
M  V30 970 C 99.4396 -2.09574 4.69663 0
M  V30 971 N 97.4216 -1.9818 5.81032 0
M  V30 972 C 98.7926 -1.81865 5.92727 0
M  V30 973 C 100.848 -1.96048 4.57678 0
M  V30 974 C 99.5506 -1.41992 7.05146 0
M  V30 975 C 101.577 -1.57579 5.7002 0
M  V30 976 C 100.939 -1.30754 6.92158 0
M  V30 977 H 97.0376 -0.545896 0.55993 0
M  V30 978 H 99.6216 -0.853373 1.75002 0
M  V30 979 H 97.7926 -3.36657 1.93692 0
M  V30 980 H 99.5246 -3.40916 2.18078 0
M  V30 981 H 96.2796 -2.53456 4.00071 0
M  V30 982 H 96.7036 -1.81691 6.52163 0
M  V30 983 H 101.346 -2.15455 3.63784 0
M  V30 984 H 99.0636 -1.21327 7.9894 0
M  V30 985 H 102.65 -1.47718 5.62735 0
M  V30 986 H 101.53 -1.01432 7.77612 0
M  V30 987 N 99.0327 -1.24633 -0.964593 0
M  V30 988 C 100.281 -1.08573 -1.70459 0
M  V30 989 C 100.602 0.375655 -1.91347 0
M  V30 990 O 99.8717 1.26779 -1.49345 0
M  V30 991 H 98.4517 -0.398784 -0.631649 0
M  V30 992 H 101.114 -1.56601 -1.16026 0
M  V30 993 H 100.21 -1.58623 -2.68785 0
M  V30 994 N 100.511 1.16574 -1.06058 0
M  V30 995 C 101.927 1.3904 -0.783585 0
M  V30 996 C 102.127 1.91784 0.618145 0
M  V30 997 O 101.183 2.11511 1.37911 0
M  V30 998 C 102.496 2.37329 -1.84649 0
M  V30 999 C 104.044 2.51018 -1.86973 0
M  V30 1000 C 104.519 3.52588 -2.92311 0
M  V30 1001 N 106.01 3.60113 -2.91329 0
M  V30 1002 C 106.745 4.38486 -3.69482 0
M  V30 1003 N 106.241 5.20302 -4.57447 0
M  V30 1004 N 108.034 4.33446 -3.57885 0
M  V30 1005 H 100.185 0.806725 -1.96483 0
M  V30 1006 H 102.448 0.417117 -0.851303 0
M  V30 1007 H 102.154 2.05663 -2.85299 0
M  V30 1008 H 102.028 3.36946 -1.6955 0
M  V30 1009 H 104.415 2.81989 -0.869827 0
M  V30 1010 H 104.496 1.51445 -2.0615 0
M  V30 1011 H 104.14 3.22354 -3.92492 0
M  V30 1012 H 104.07 4.51886 -2.70383 0
M  V30 1013 H 106.561 3.01707 -2.27555 0
M  V30 1014 H 106.874 5.77311 -5.13743 0
M  V30 1015 H 105.219 5.19653 -4.61503 0
M  V30 1016 H 108.41 3.68586 -2.88551 0
M  V30 1017 H 108.583 4.94279 -4.19037 0
M  V30 1018 N 101.989 0.842826 1.3317 0
M  V30 1019 C 103.236 0.440447 1.97652 0
M  V30 1020 C 103.564 -1.00123 1.6675 0
M  V30 1021 O 102.819 -1.7155 0.941761 0
M  V30 1022 C 103.118 0.612607 3.52111 0
M  V30 1023 C 102.784 2.02297 4.02972 0
M  V30 1024 C 101.446 2.40874 4.16573 0
M  V30 1025 C 103.798 2.94402 4.30089 0
M  V30 1026 C 101.126 3.70852 4.54627 0
M  V30 1027 C 103.478 4.23865 4.69597 0
M  V30 1028 C 102.142 4.62392 4.81404 0
M  V30 1029 H 101.412 0.161171 0.72326 0
M  V30 1030 H 104.059 1.07061 1.58777 0
M  V30 1031 H 102.364 -0.100849 3.9167 0
M  V30 1032 H 104.061 0.2815 4.00011 0
M  V30 1033 H 100.651 1.71338 3.92863 0
M  V30 1034 H 104.835 2.65835 4.19101 0
M  V30 1035 H 100.091 4.00501 4.61962 0
M  V30 1036 H 104.265 4.95306 4.89536 0
M  V30 1037 H 101.892 5.63154 5.10648 0
M  V30 1038 N 103.467 -1.45747 0.599634 0
M  V30 1039 C 104.397 -2.33235 -0.111306 0
M  V30 1040 C 105.378 -1.46359 -0.866781 0
M  V30 1041 O 106.563 -1.75146 -0.838904 0
M  V30 1042 C 103.693 -3.28932 -1.11451 0
M  V30 1043 C 102.647 -4.25381 -0.472772 0
M  V30 1044 C 101.973 -5.1071 -1.58365 0
M  V30 1045 C 103.273 -5.18831 0.600948 0
M  V30 1046 H 104.967 -2.92927 0.61919 0
M  V30 1047 H 102.513 -1.40857 0.299215 0
M  V30 1048 H 104.466 -3.89002 -1.62036 0
M  V30 1049 H 103.19 -2.67381 -1.8755 0
M  V30 1050 H 101.849 -3.66598 0.0121472 0
M  V30 1051 H 101.497 -4.45533 -2.33473 0
M  V30 1052 H 101.197 -5.7604 -1.15982 0
M  V30 1053 H 102.721 -5.73647 -2.09194 0
M  V30 1054 H 104.135 -5.73019 0.179491 0
M  V30 1055 H 102.532 -5.92595 0.946076 0
M  V30 1056 H 103.602 -4.6174 1.48068 0
M  V30 1057 N 104.945 -0.338344 -1.53925 0
M  V30 1058 C 105.875 0.51328 -2.27789 0
M  V30 1059 C 106.856 1.107 -1.29149 0
M  V30 1060 O 108.041 1.12937 -1.57984 0
M  V30 1061 C 105.171 1.66697 -3.04679 0
M  V30 1062 C 104.125 1.20183 -4.1078 0
M  V30 1063 C 103.451 2.44363 -4.75595 0
M  V30 1064 C 104.751 0.30605 -5.21403 0
M  V30 1065 H 106.445 -0.102883 -2.99223 0
M  V30 1066 H 103.991 -0.0509219 -1.4391 0
M  V30 1067 H 105.944 2.26915 -3.55088 0
M  V30 1068 H 104.668 2.30995 -2.30887 0
M  V30 1069 H 103.327 0.622499 -3.61276 0
M  V30 1070 H 102.975 3.07057 -3.98403 0
M  V30 1071 H 102.675 2.13925 -5.47275 0
M  V30 1072 H 104.199 3.05317 -5.28786 0
M  V30 1073 H 105.613 0.814929 -5.67478 0
M  V30 1074 H 104.01 0.0937929 -6.00027 0
M  V30 1075 H 105.08 -0.65921 -4.80398 0
M  V30 1076 N 106.423 1.57458 -0.0668435 0
M  V30 1077 C 107.355 2.09413 0.931601 0
M  V30 1078 C 108.368 1.02522 1.26464 0
M  V30 1079 O 109.557 1.30049 1.22269 0
M  V30 1080 C 106.657 2.53537 2.24882 0
M  V30 1081 C 105.83 3.83944 2.09537 0
M  V30 1082 C 104.889 4.14214 3.2452 0
M  V30 1083 O 103.915 4.83891 2.9973 0
M  V30 1084 N 105.117 3.67367 4.49469 0
M  V30 1085 H 107.882 2.95699 0.488048 0
M  V30 1086 H 105.443 1.61462 0.119009 0
M  V30 1087 H 107.435 2.70853 3.00701 0
M  V30 1088 H 106.005 1.72415 2.60753 0
M  V30 1089 H 105.225 3.76057 1.18215 0
M  V30 1090 H 106.513 4.69312 1.96529 0
M  V30 1091 H 105.911 3.11068 4.72497 0
M  V30 1092 H 104.468 3.89891 5.2233 0
M  V30 1093 N 107.901 -0.206675 1.56239 0
M  V30 1094 C 109.317 -0.557025 1.49564 0
M  V30 1095 C 109.517 -1.86424 0.764735 0
M  V30 1096 O 108.573 -2.50584 0.310491 0
M  V30 1097 C 109.886 -0.622478 2.94186 0
M  V30 1098 C 111.434 -0.712099 3.04792 0
M  V30 1099 C 111.909 -0.808767 4.50803 0
M  V30 1100 N 113.4 -0.8726 4.54907 0
M  V30 1101 C 114.135 -0.967365 5.65181 0
M  V30 1102 N 113.631 -1.02515 6.85173 0
M  V30 1103 N 115.424 -1.00366 5.53067 0
M  V30 1104 H 107.575 0.650943 2.02179 0
M  V30 1105 H 109.838 0.230387 0.919579 0
M  V30 1106 H 109.544 0.268727 3.50672 0
M  V30 1107 H 109.418 -1.4811 3.46905 0
M  V30 1108 H 111.805 -1.59374 2.48363 0
M  V30 1109 H 111.886 0.172489 2.55218 0
M  V30 1110 H 111.53 0.0684754 5.07854 0
M  V30 1111 H 111.46 -1.70899 4.98098 0
M  V30 1112 H 113.951 -0.837657 3.68499 0
M  V30 1113 H 114.264 -1.09765 7.64965 0
M  V30 1114 H 112.609 -0.994026 6.87855 0
M  V30 1115 H 115.8 -0.95527 4.58249 0
M  V30 1116 H 115.973 -1.07405 6.39037 0
M  V30 1117 N 109.379 -1.50304 -0.473955 0
M  V30 1118 C 110.627 -1.60832 -1.22382 0
M  V30 1119 C 110.948 -0.30939 -1.9253 0
M  V30 1120 O 110.218 0.67296 -1.83978 0
M  V30 1121 H 108.798 -0.592652 -0.454723 0
M  V30 1122 H 111.46 -1.87068 -0.546968 0
M  V30 1123 H 110.556 -2.41803 -1.97327 0
M  V30 1124 N 110.857 0.726932 -1.39834 0
M  V30 1125 C 112.082 1.52121 -1.40976 0
M  V30 1126 C 112.507 1.88098 -0.00826029 0
M  V30 1127 O 111.865 1.52479 0.980807 0
M  V30 1128 C 111.913 2.78021 -2.29644 0
M  V30 1129 O 111.017 3.74272 -1.73188 0
M  V30 1130 H 110.358 0.45908 -0.479731 0
M  V30 1131 H 112.888 0.896207 -1.83927 0
M  V30 1132 H 112.898 3.26671 -2.44438 0
M  V30 1133 H 111.573 2.51169 -3.31492 0
M  V30 1134 H 110.15 3.33073 -1.6768 0
M  V30 1135 N 112.336 1.25143 0.95797 0
M  V30 1136 C 113.582 1.10863 1.70531 0
M  V30 1137 C 113.937 -0.347391 1.89238 0
M  V30 1138 O 113.23 -1.25262 1.44983 0
M  V30 1139 C 113.424 1.79272 3.09187 0
M  V30 1140 C 113.253 3.31376 3.04006 0
M  V30 1141 C 112.023 4.0062 3.07948 0
M  V30 1142 C 114.221 4.27825 2.8543 0
M  V30 1143 N 112.203 5.39526 2.9289 0
M  V30 1144 C 113.574 5.53794 2.78769 0
M  V30 1145 C 115.629 4.1828 2.70085 0
M  V30 1146 C 114.332 6.7131 2.58331 0
M  V30 1147 C 116.358 5.35485 2.51017 0
M  V30 1148 C 115.72 6.60393 2.45073 0
M  V30 1149 H 111.819 0.460362 0.632132 0
M  V30 1150 H 114.403 1.58196 1.13499 0
M  V30 1151 H 112.574 1.34439 3.64391 0
M  V30 1152 H 114.306 1.57764 3.72683 0
M  V30 1153 H 111.061 3.51855 3.17009 0
M  V30 1154 H 111.485 6.12416 2.88574 0
M  V30 1155 H 116.127 3.22461 2.73457 0
M  V30 1156 H 113.845 7.67243 2.53701 0
M  V30 1157 H 117.431 5.29959 2.40073 0
M  V30 1158 H 116.311 7.49557 2.30509 0
M  V30 1159 N 113.814 -1.1601 1.06675 0
M  V30 1160 C 115.042 -1.90527 0.806667 0
M  V30 1161 C 115.457 -1.77643 -0.639396 0
M  V30 1162 O 114.814 -1.12369 -1.43803 0
M  V30 1163 C 114.865 -3.41106 1.19705 0
M  V30 1164 O 114.586 -3.53608 2.58636 0
M  V30 1165 C 116.087 -4.32663 0.965266 0
M  V30 1166 H 113.307 -0.604053 0.292166 0
M  V30 1167 H 115.851 -1.47026 1.4214 0
M  V30 1168 H 114.006 -3.82296 0.626774 0
M  V30 1169 H 114.42 -4.47011 2.74375 0
M  V30 1170 H 115.894 -5.36763 1.288 0
M  V30 1171 H 116.371 -4.39089 -0.0987936 0
M  V30 1172 H 116.977 -3.97206 1.52011 0
M  V30 1173 N 115.292 -0.849877 -1.32721 0
M  V30 1174 C 116.54 -0.450032 -1.97026 0
M  V30 1175 C 116.861 0.996604 -1.67609 0
M  V30 1176 O 116.131 1.6958 -0.980786 0
M  V30 1177 H 114.711 -0.163426 -0.728904 0
M  V30 1178 H 117.373 -1.08526 -1.6189 0
M  V30 1179 H 116.469 -0.591146 -3.0645 0
M  V30 1180 N 116.77 1.45427 -0.607355 0
M  V30 1181 C 118.181 1.85756 -0.187535 0
M  V30 1182 C 118.532 1.5077 1.25551 0
M  V30 1183 O 117.657 0.93427 1.95193 0
M  V30 1184 C 118.252 3.37154 -0.333572 0
M  V30 1185 C 116.811 3.76387 0.0315542 0
M  V30 1186 C 115.958 2.69377 -0.658117 0
M  V30 1187 H 118.909 1.36231 -0.81405 0
M  V30 1188 H 118.93 3.78014 0.43428 0
M  V30 1189 H 118.442 3.62586 -1.38393 0
M  V30 1190 H 116.543 3.56571 1.0811 0
M  V30 1191 H 116.656 4.77731 -0.361935 0
M  V30 1192 H 115.02 2.5452 -0.0957873 0
M  V30 1193 H 115.803 2.97646 -1.7106 0
M  V30 1194 N 118.248 0.346503 1.53744 0
M  V30 1195 C 119.664 -0.00530975 1.59599 0
M  V30 1196 C 119.864 -1.48465 1.36236 0
M  V30 1197 O 118.92 -2.24376 1.15808 0
M  V30 1198 C 120.233 0.433516 2.97559 0
M  V30 1199 C 121.781 0.386111 3.10609 0
M  V30 1200 C 122.256 0.800451 4.50951 0
M  V30 1201 N 123.747 0.754753 4.5701 0
M  V30 1202 C 124.482 1.04727 5.63755 0
M  V30 1203 N 123.978 1.4081 6.7834 0
M  V30 1204 N 125.771 0.971316 5.53644 0
M  V30 1205 H 117.922 1.31009 1.67184 0
M  V30 1206 H 120.185 0.534242 0.783128 0
M  V30 1207 H 119.891 1.46509 3.19731 0
M  V30 1208 H 119.765 -0.189753 3.76722 0
M  V30 1209 H 122.152 -0.636295 2.88158 0
M  V30 1210 H 122.233 1.04462 2.33498 0
M  V30 1211 H 121.877 1.82088 4.74137 0
M  V30 1212 H 121.807 0.119386 5.26465 0
M  V30 1213 H 124.298 0.488662 3.74727 0
M  V30 1214 H 124.611 1.61607 7.55714 0
M  V30 1215 H 122.956 1.44657 6.79779 0
M  V30 1216 H 126.147 0.688748 4.63005 0
M  V30 1217 H 126.32 1.20263 6.36742 0
M  V30 1218 N 119.726 -1.57421 0.075193 0
M  V30 1219 C 120.966 -1.95495 -0.596757 0
M  V30 1220 C 121.33 -0.954886 -1.66571 0
M  V30 1221 O 122.531 -1.22341 -2.39345 0
M  V30 1222 C 120.802 -3.382 -1.15566 0
M  V30 1223 S 122.361 -3.98254 -1.84226 0
M  V30 1224 H 119.179 -0.683649 -0.195307 0
M  V30 1225 H 121.781 -1.94925 0.149859 0
M  V30 1226 H 120.485 -4.08766 -0.36588 0
M  V30 1227 H 120.016 -3.42321 -1.93856 0
M  V30 1228 H 122.031 -3.85435 -3.12497 0
M  V30 1229 N 121.204 0.198386 -1.56346 0
M  V30 1230 C 122.45 0.916115 -1.81601 0
M  V30 1231 C 122.805 1.81025 -0.651744 0
M  V30 1232 O 122.098 1.88316 0.353229 0
M  V30 1233 C 122.292 1.77031 -3.10475 0
M  V30 1234 C 122.121 0.960365 -4.39326 0
M  V30 1235 C 120.891 0.646093 -5.01152 0
M  V30 1236 C 123.089 0.314628 -5.13337 0
M  V30 1237 N 121.071 -0.182828 -6.13628 0
M  V30 1238 C 122.442 -0.37664 -6.18855 0
M  V30 1239 C 124.497 0.230019 -4.97368 0
M  V30 1240 C 123.2 -1.14445 -7.10137 0
M  V30 1241 C 125.226 -0.524389 -5.89071 0
M  V30 1242 C 124.588 -1.20412 -6.94032 0
M  V30 1243 H 120.687 0.314732 -0.715868 0
M  V30 1244 H 123.271 0.185102 -1.93818 0
M  V30 1245 H 121.442 2.47295 -2.99499 0
M  V30 1246 H 123.174 2.42727 -3.2383 0
M  V30 1247 H 119.929 0.969724 -4.63566 0
M  V30 1248 H 120.353 -0.586802 -6.74452 0
M  V30 1249 H 124.995 0.741184 -4.16253 0
M  V30 1250 H 122.713 -1.66706 -7.90718 0
M  V30 1251 H 126.299 -0.591167 -5.78789 0
M  V30 1252 H 125.179 -1.77853 -7.63766 0
M  V30 1253 N 122.682 1.50554 0.465978 0
M  V30 1254 C 124.093 1.54599 1.04671 0
M  V30 1255 C 124.444 0.352488 1.93008 0
M  V30 1256 O 123.569 -0.534044 2.09707 0
M  V30 1257 C 124.164 2.80166 1.90505 0
M  V30 1258 C 122.723 2.86876 2.43678 0
M  V30 1259 C 121.87 2.48947 1.22151 0
M  V30 1260 H 124.821 1.56744 0.248384 0
M  V30 1261 H 124.842 2.62311 2.75633 0
M  V30 1262 H 124.354 3.67013 1.26186 0
M  V30 1263 H 122.455 2.04393 3.11536 0
M  V30 1264 H 122.568 3.89885 2.78436 0
M  V30 1265 H 120.932 2.01498 1.5579 0
M  V30 1266 H 121.715 3.38107 0.594866 0
M  V30 1267 N 124.16 -0.719506 1.40217 0
M  V30 1268 C 125.576 -1.02707 1.22161 0
M  V30 1269 C 125.776 -2.0128 0.0940557 0
M  V30 1270 O 124.832 -2.46452 -0.549318 0
M  V30 1271 C 126.145 -1.57454 2.56181 0
M  V30 1272 C 127.693 -1.69458 2.63159 0
M  V30 1273 C 128.168 -2.27611 3.97438 0
M  V30 1274 N 129.659 -2.35002 3.99159 0
M  V30 1275 C 130.394 -2.80972 4.99842 0
M  V30 1276 N 129.89 -3.26723 6.10921 0
M  V30 1277 N 131.683 -2.80321 4.87213 0
M  V30 1278 H 123.834 -0.0660492 2.12297 0
M  V30 1279 H 126.097 -0.0919077 0.943534 0
M  V30 1280 H 125.803 -0.924873 3.39321 0
M  V30 1281 H 125.677 -2.56036 2.76993 0
M  V30 1282 H 128.064 -2.33543 1.80393 0
M  V30 1283 H 128.145 -0.694867 2.46181 0
M  V30 1284 H 127.789 -1.6415 4.80643 0
M  V30 1285 H 127.719 -3.2829 4.11744 0
M  V30 1286 H 130.21 -2.02685 3.18947 0
M  V30 1287 H 130.523 -3.60355 6.8364 0
M  V30 1288 H 128.868 -3.24692 6.14492 0
M  V30 1289 H 132.059 -2.43912 3.9953 0
M  V30 1290 H 132.232 -3.15831 5.65822 0
M  V30 1291 N 125.638 -1.25649 -0.95132 0
M  V30 1292 C 126.886 -1.10375 -1.69298 0
M  V30 1293 C 127.207 0.355339 -1.91735 0
M  V30 1294 O 126.477 1.25188 -1.50681 0
M  V30 1295 H 125.057 -0.405461 -0.627384 0
M  V30 1296 H 127.719 -1.57823 -1.14358 0
M  V30 1297 H 126.815 -1.61465 -2.67087 0
M  V30 1298 N 127.117 1.15442 -1.07289 0
M  V30 1299 C 128.364 1.86213 -0.795668 0
M  V30 1300 C 128.692 1.82291 0.678238 0
M  V30 1301 O 127.947 1.24057 1.51355 0
M  V30 1302 C 128.246 3.3489 -1.24834 0
M  V30 1303 C 127.912 3.59007 -2.72809 0
M  V30 1304 C 126.574 3.65298 -3.13227 0
M  V30 1305 C 128.926 3.68762 -3.68326 0
M  V30 1306 C 126.254 3.78854 -4.4798 0
M  V30 1307 C 128.606 3.83842 -5.0284 0
M  V30 1308 C 127.27 3.88378 -5.4288 0
M  V30 1309 H 126.54 0.681403 -0.291155 0
M  V30 1310 H 129.187 1.36435 -1.34379 0
M  V30 1311 H 127.492 3.8687 -0.619595 0
M  V30 1312 H 129.189 3.88052 -1.01076 0
M  V30 1313 H 125.779 3.5475 -2.40521 0
M  V30 1314 H 129.963 3.63202 -3.38227 0
M  V30 1315 H 125.219 3.80623 -4.78472 0
M  V30 1316 H 129.393 3.90332 -5.76727 0
M  V30 1317 H 127.02 3.98635 -6.47298 0
M  V30 1318 N 128.595 0.856903 1.32268 0
M  V30 1319 C 129.527 0.260412 2.27716 0
M  V30 1320 C 130.54 -0.569137 1.52528 0
M  V30 1321 O 131.729 -0.39326 1.74114 0
M  V30 1322 C 128.829 -0.650477 3.32599 0
M  V30 1323 C 128.002 0.14372 4.37164 0
M  V30 1324 C 127.061 -0.69328 5.21613 0
M  V30 1325 O 126.087 -0.12599 5.69061 0
M  V30 1326 N 127.289 -2.00761 5.44679 0
M  V30 1327 H 130.054 1.08059 2.79541 0
M  V30 1328 H 127.615 0.717103 1.45152 0
M  V30 1329 H 129.607 -1.21581 3.86005 0
M  V30 1330 H 128.177 -1.37133 2.80915 0
M  V30 1331 H 127.397 0.890486 3.8401 0
M  V30 1332 H 128.685 0.68915 5.04111 0
M  V30 1333 H 128.083 -2.49181 5.07863 0
M  V30 1334 H 126.64 -2.52103 6.01072 0
M  V30 1335 N 130.073 -1.45103 0.615059 0
M  V30 1336 C 131.298 -2.07064 0.117988 0
M  V30 1337 C 131.723 -1.4554 -1.19163 0
M  V30 1338 O 131.081 -0.550855 -1.72729 0
M  V30 1339 C 131.129 -3.606 -0.000288387 0
M  V30 1340 O 130.233 -3.98847 -1.04856 0
M  V30 1341 H 129.574 -0.659467 0.0774581 0
M  V30 1342 H 132.104 -1.86236 0.847186 0
M  V30 1343 H 132.114 -4.07529 -0.196091 0
M  V30 1344 H 130.789 -4.04765 0.955932 0
M  V30 1345 H 129.366 -3.63577 -0.828619 0
M  V30 1346 N 131.551 -0.354651 -1.53558 0
M  V30 1347 C 132.498 0.496968 -2.25386 0
M  V30 1348 C 133.468 1.0865 -1.25636 0
M  V30 1349 O 134.653 1.12104 -1.54394 0
M  V30 1350 C 131.793 1.63637 -3.03837 0
M  V30 1351 C 130.906 1.07307 -4.18461 0
M  V30 1352 C 130.041 2.18068 -4.84376 0
M  V30 1353 C 129.08 1.59147 -5.91049 0
M  V30 1354 N 128.217 2.63695 -6.50699 0
M  V30 1355 H 133.057 -0.122075 -2.9775 0
M  V30 1356 H 130.594 -0.0720154 -1.46924 0
M  V30 1357 H 132.552 2.30734 -3.47589 0
M  V30 1358 H 131.182 2.22623 -2.33749 0
M  V30 1359 H 130.234 0.292708 -3.79272 0
M  V30 1360 H 131.546 0.602193 -4.95152 0
M  V30 1361 H 130.7 2.93007 -5.31255 0
M  V30 1362 H 129.439 2.68504 -4.07133 0
M  V30 1363 H 128.444 0.827175 -5.43542 0
M  V30 1364 H 129.669 1.09549 -6.70206 0
M  V30 1365 H 127.615 3.13365 -5.76315 0
M  V30 1366 H 127.532 2.21263 -7.22896 0
M  V30 1367 H 128.8 3.3837 -7.02229 0
M  V30 1368 N 133.029 1.57378 -0.0835403 0
M  V30 1369 C 133.979 2.09916 0.889905 0
M  V30 1370 C 134.963 1.01151 1.25129 0
M  V30 1371 O 136.155 1.27443 1.2283 0
M  V30 1372 C 133.284 2.67379 2.15322 0
M  V30 1373 C 132.37 3.83167 1.81779 0
M  V30 1374 N 132.761 4.91665 1.18739 0
M  V30 1375 C 131.059 3.92685 2.11459 0
M  V30 1376 C 131.76 5.72409 1.0355 0
M  V30 1377 N 130.736 5.21062 1.54906 0
M  V30 1378 H 134.538 2.91188 0.398378 0
M  V30 1379 H 132.052 1.61956 0.120013 0
M  V30 1380 H 134.049 3.0334 2.8599 0
M  V30 1381 H 132.709 1.87558 2.65051 0
M  V30 1382 H 133.72 5.10784 0.855604 0
M  V30 1383 H 130.397 3.23856 2.63483 0
M  V30 1384 H 131.787 6.69699 0.543425 0
M  V30 1385 N 134.507 -0.190092 1.56449 0
M  V30 1386 C 135.455 -1.25501 1.95837 0
M  V30 1387 C 136.449 -1.4685 0.844485 0
M  V30 1388 O 137.655 -1.47651 1.02952 0
M  V30 1389 H 134.03 -0.421447 0.622805 0
M  V30 1390 H 136.001 -0.895821 2.84636 0
M  V30 1391 C 134.75 -2.59124 2.31841 0
M  V30 1392 H 134.073 -2.43514 3.17082 0
M  V30 1393 H 135.513 -3.32371 2.6326 0
M  V30 1394 C 133.972 -3.16488 1.15486 0
M  V30 1395 O 134.502 -3.99365 0.432535 0
M  V30 1396 N 132.708 -2.75305 0.930349 0
M  V30 1397 H 132.255 -2.08013 1.51948 0
M  V30 1398 H 132.213 -3.14024 0.153634 0
M  V30 1399 N 135.985 -1.50799 -0.457987 0
M  V30 1400 C 137.21 -1.66496 -1.23668 0
M  V30 1401 C 137.635 -0.353288 -1.84752 0
M  V30 1402 O 136.993 0.684346 -1.67888 0
M  V30 1403 C 137.041 -2.76763 -2.3116 0
M  V30 1404 O 136.145 -2.38928 -3.36136 0
M  V30 1405 H 135.486 -0.555828 -0.363252 0
M  V30 1406 H 138.016 -1.9725 -0.543474 0
M  V30 1407 H 138.026 -3.00232 -2.76269 0
M  V30 1408 H 136.701 -3.71954 -1.86073 0
M  V30 1409 H 135.278 -2.25953 -2.96647 0
M  V30 1410 N 137.463 0.71206 -1.40597 0
M  V30 1411 C 138.709 1.47416 -1.39271 0
M  V30 1412 C 139.042 1.942 0.00388791 0
M  V30 1413 O 138.317 1.68403 0.973179 0
M  V30 1414 C 138.6 2.69774 -2.38525 0
M  V30 1415 C 138.453 2.28861 -3.87224 0
M  V30 1416 C 139.772 3.71939 -2.35264 0
M  V30 1417 H 136.891 0.534713 -0.5072 0
M  V30 1418 H 139.533 0.812375 -1.71757 0
M  V30 1419 H 137.683 3.26238 -2.10953 0
M  V30 1420 H 139.355 1.77852 -4.25636 0
M  V30 1421 H 137.598 1.60824 -4.02887 0
M  V30 1422 H 138.269 3.16584 -4.52193 0
M  V30 1423 H 140.745 3.25113 -2.59694 0
M  V30 1424 H 139.621 4.55186 -3.06753 0
M  V30 1425 H 139.882 4.20484 -1.36549 0
M  V30 1426 N 138.941 1.26152 0.944643 0
M  V30 1427 C 140.169 1.14259 1.72489 0
M  V30 1428 C 140.584 -0.302555 1.8636 0
M  V30 1429 O 139.941 -1.20741 1.36849 0
M  V30 1430 C 139.992 1.80266 3.13347 0
M  V30 1431 O 139.713 3.19133 3.00143 0
M  V30 1432 C 141.214 1.74283 4.07603 0
M  V30 1433 H 138.434 0.398051 0.540181 0
M  V30 1434 H 140.978 1.66706 1.18446 0
M  V30 1435 H 139.133 1.31766 3.64303 0
M  V30 1436 H 139.547 3.51744 3.89071 0
M  V30 1437 H 141.021 2.25111 5.04013 0
M  V30 1438 H 141.498 0.708631 4.33446 0
M  V30 1439 H 142.104 2.22319 3.62567 0
M  V30 1440 N 140.419 -1.14872 1.07899 0
M  V30 1441 C 141.369 -2.17809 0.674027 0
M  V30 1442 C 142.353 -1.58008 -0.303699 0
M  V30 1443 O 143.545 -1.76616 -0.11654 0
M  V30 1444 C 140.674 -3.43208 0.0793318 0
M  V30 1445 C 139.76 -4.10051 1.08253 0
M  V30 1446 N 140.151 -4.52296 2.2641 0
M  V30 1447 C 138.449 -4.36469 0.917124 0
M  V30 1448 C 139.15 -5.04199 2.901 0
M  V30 1449 N 138.126 -4.98088 2.17736 0
M  V30 1450 H 141.928 -2.48207 1.57386 0
M  V30 1451 H 139.442 -1.315 0.952976 0
M  V30 1452 H 141.439 -4.16272 -0.228719 0
M  V30 1453 H 140.099 -3.14291 -0.815551 0
M  V30 1454 H 141.11 -4.45504 2.64096 0
M  V30 1455 H 137.787 -4.17432 0.0756078 0
M  V30 1456 H 139.177 -5.46802 3.90458 0
M  V30 1457 N 141.898 -0.863906 -1.31812 0
M  V30 1458 C 143.144 -0.472535 -1.97218 0
M  V30 1459 C 143.477 0.971394 -1.68159 0
M  V30 1460 O 142.752 1.68309 -0.974798 0
M  V30 1461 C 143.035 -0.723054 -3.52766 0
M  V30 1462 C 142.888 -2.21608 -3.91421 0
M  V30 1463 C 144.207 -0.185522 -4.39709 0
M  V30 1464 H 141.326 -0.173158 -0.71637 0
M  V30 1465 H 143.968 -1.08403 -1.56041 0
M  V30 1466 H 142.118 -0.202577 -3.87971 0
M  V30 1467 H 143.79 -2.80334 -3.66347 0
M  V30 1468 H 142.033 -2.691 -3.40246 0
M  V30 1469 H 142.704 -2.34203 -4.99853 0
M  V30 1470 H 145.18 -0.630726 -4.11292 0
M  V30 1471 H 144.056 -0.390306 -5.47511 0
M  V30 1472 H 144.317 0.912229 -4.32586 0
M  V30 1473 N 143.376 1.44774 -0.622745 0
M  V30 1474 C 144.623 2.02121 -0.1239 0
M  V30 1475 C 144.951 1.48915 1.25118 0
M  V30 1476 O 144.206 0.660045 1.84233 0
M  V30 1477 C 144.505 3.57364 -0.0508323 0
M  V30 1478 C 144.171 4.29787 -1.36358 0
M  V30 1479 C 142.833 4.4929 -1.72314 0
M  V30 1480 C 145.185 4.71062 -2.23048 0
M  V30 1481 C 142.513 5.07325 -2.94682 0
M  V30 1482 C 144.865 5.30452 -3.44679 0
M  V30 1483 C 143.529 5.48175 -3.80868 0
M  V30 1484 H 142.799 0.739612 -0.0453381 0
M  V30 1485 H 145.446 1.73648 -0.807389 0
M  V30 1486 H 143.751 3.85202 0.715991 0
M  V30 1487 H 145.448 3.99456 0.351533 0
M  V30 1488 H 142.038 4.14932 -1.07375 0
M  V30 1489 H 146.222 4.55715 -1.96565 0
M  V30 1490 H 141.478 5.19235 -3.22809 0
M  V30 1491 H 145.652 5.61385 -4.12092 0
M  V30 1492 H 143.279 5.92912 -4.75773 0
M  V30 1493 N 144.854 0.36279 1.53368 0
M  V30 1494 C 146.102 -0.227326 2.00817 0
M  V30 1495 C 146.423 -1.49511 1.25186 0
M  V30 1496 O 145.693 -1.92482 0.364348 0
M  V30 1497 H 144.273 -0.0869923 0.741917 0
M  V30 1498 H 146.935 0.488381 1.88682 0
M  V30 1499 H 146.031 -0.456273 3.08747 0
M  V30 1500 N 146.332 -1.57332 0.0918853 0
M  V30 1501 C 147.557 -1.98995 -0.584442 0
M  V30 1502 C 147.982 -0.970528 -1.61128 0
M  V30 1503 O 147.34 0.0613904 -1.81196 0
M  V30 1504 C 147.388 -3.39636 -1.21161 0
M  V30 1505 O 146.492 -3.40447 -2.32744 0
M  V30 1506 H 145.833 -0.647165 -0.148572 0
M  V30 1507 H 148.363 -2.03873 0.172347 0
M  V30 1508 H 148.373 -3.7726 -1.55367 0
M  V30 1509 H 147.048 -4.13356 -0.459313 0
M  V30 1510 H 145.625 -3.14614 -2.0018 0
M  V30 1511 N 147.81 0.181792 -1.56548 0
M  V30 1512 C 149.058 0.89832 -1.81038 0
M  V30 1513 C 149.379 1.83232 -0.667164 0
M  V30 1514 O 148.649 1.93372 0.313673 0
M  V30 1515 H 147.229 0.33471 -0.667816 0
M  V30 1516 H 149.891 0.184116 -1.94028 0
M  V30 1517 H 148.987 1.4815 -2.74696 0
M  V30 1518 N 149.288 1.51039 0.449983 0
M  V30 1519 C 150.516 1.66869 1.2232 0
M  V30 1520 C 150.931 0.360727 1.85322 0
M  V30 1521 O 150.288 -0.659531 1.70166 0
M  V30 1522 C 150.339 2.77524 2.31652 0
M  V30 1523 O 150.06 4.03252 1.7123 0
M  V30 1524 C 151.561 3.04512 3.2216 0
M  V30 1525 H 148.781 0.560326 0.369155 0
M  V30 1526 H 151.325 1.97385 0.534719 0
M  V30 1527 H 149.48 2.49642 2.96239 0
M  V30 1528 H 149.894 4.64609 2.43389 0
M  V30 1529 H 151.368 3.85551 3.95038 0
M  V30 1530 H 151.845 2.16415 3.8218 0
M  V30 1531 H 152.451 3.34005 2.63288 0
M  V30 1532 N 150.766 -0.704594 1.40972 0
M  V30 1533 C 151.698 -1.82974 1.38033 0
M  V30 1534 C 152.711 -1.60305 0.283931 0
M  V30 1535 O 153.9 -1.69975 0.545042 0
M  V30 1536 C 151 -3.19578 1.12795 0
M  V30 1537 C 150.173 -3.69352 2.34302 0
M  V30 1538 C 149.232 -4.84601 2.05058 0
M  V30 1539 O 148.258 -4.96682 2.7802 0
M  V30 1540 N 149.46 -5.71194 1.03528 0
M  V30 1541 H 152.225 -1.85991 2.35005 0
M  V30 1542 H 149.786 -0.886567 1.35468 0
M  V30 1543 H 151.778 -3.9429 0.911987 0
M  V30 1544 H 150.348 -3.11642 0.24452 0
M  V30 1545 H 149.568 -2.85649 2.71659 0
M  V30 1546 H 150.856 -3.99345 3.1528 0
M  V30 1547 H 150.254 -5.64054 0.431217 0
M  V30 1548 H 148.811 -6.45843 0.879205 0
M  V30 1549 N 152.244 -1.26651 -0.937939 0
M  V30 1550 C 153.174 -1.10993 -2.05433 0
M  V30 1551 C 154.155 -0.0142161 -1.70094 0
M  V30 1552 O 155.34 -0.186837 -1.93299 0
M  V30 1553 C 152.47 -0.745561 -3.39203 0
M  V30 1554 C 151.424 -1.79337 -3.88616 0
M  V30 1555 C 150.75 -1.28324 -5.19073 0
M  V30 1556 C 152.05 -3.19553 -4.13138 0
M  V30 1557 H 153.744 -2.0438 -2.1879 0
M  V30 1558 H 151.29 -0.984041 -1.05131 0
M  V30 1559 H 153.243 -0.622888 -4.16771 0
M  V30 1560 H 151.967 0.22401 -3.25831 0
M  V30 1561 H 150.626 -1.90477 -3.13231 0
M  V30 1562 H 150.274 -0.303414 -5.02084 0
M  V30 1563 H 149.974 -1.98369 -5.53103 0
M  V30 1564 H 151.498 -1.1733 -5.99221 0
M  V30 1565 H 152.912 -3.11471 -4.81309 0
M  V30 1566 H 151.309 -3.87218 -4.58457 0
M  V30 1567 H 152.379 -3.65368 -3.18801 0
M  V30 1568 N 153.722 1.14298 -1.08507 0
M  V30 1569 C 154.95 1.89219 -0.836876 0
M  V30 1570 C 155.365 1.78638 0.611054 0
M  V30 1571 O 154.722 1.14643 1.41998 0
M  V30 1572 C 154.773 3.39158 -1.25116 0
M  V30 1573 O 154.494 3.49449 -2.64229 0
M  V30 1574 C 155.995 4.31073 -1.03398 0
M  V30 1575 H 153.215 0.599328 -0.301739 0
M  V30 1576 H 155.759 1.44746 -1.44461 0
M  V30 1577 H 153.914 3.81251 -0.687514 0
M  V30 1578 H 154.328 4.42589 -2.81452 0
M  V30 1579 H 155.802 5.34646 -1.37323 0
M  V30 1580 H 156.279 4.3919 0.0289259 0
M  V30 1581 H 156.885 3.94738 -1.58311 0
M  V30 1582 N 155.201 0.870884 1.31352 0
M  V30 1583 C 156.447 0.482987 1.96965 0
M  V30 1584 C 156.78 -0.962462 1.68672 0
M  V30 1585 O 156.055 -1.6779 0.98371 0
M  V30 1586 C 156.338 0.741752 3.52378 0
M  V30 1587 C 156.191 2.2368 3.9024 0
M  V30 1588 C 157.51 0.208838 4.39604 0
M  V30 1589 H 154.629 0.176955 0.715441 0
M  V30 1590 H 157.271 1.09229 1.55464 0
M  V30 1591 H 155.421 0.223149 3.87859 0
M  V30 1592 H 157.093 2.82273 3.64856 0
M  V30 1593 H 155.336 2.70901 3.38814 0
M  V30 1594 H 156.007 2.3685 4.98604 0
M  V30 1595 H 158.483 0.652529 4.10952 0
M  V30 1596 H 157.359 0.419336 5.47296 0
M  V30 1597 H 157.62 -0.889275 4.33064 0
M  V30 1598 N 156.679 -1.44442 0.630414 0
M  V30 1599 C 157.609 -2.33418 -0.0618083 0
M  V30 1600 C 158.59 -1.48165 -0.835541 0
M  V30 1601 O 159.775 -1.76886 -0.801564 0
M  V30 1602 C 156.905 -3.31222 -1.04449 0
M  V30 1603 C 155.859 -4.26288 -0.382436 0
M  V30 1604 C 155.185 -5.13954 -1.47497 0
M  V30 1605 C 156.485 -5.1744 0.710865 0
M  V30 1606 H 158.179 -2.91548 0.681184 0
M  V30 1607 H 155.725 -1.40191 0.329026 0
M  V30 1608 H 157.678 -3.92351 -1.53748 0
M  V30 1609 H 156.402 -2.71299 -1.81836 0
M  V30 1610 H 155.061 -3.6649 0.0899054 0
M  V30 1611 H 154.709 -4.50385 -2.2397 0
M  V30 1612 H 154.409 -5.7837 -1.03737 0
M  V30 1613 H 155.933 -5.77955 -1.96979 0
M  V30 1614 H 157.347 -5.72509 0.300996 0
M  V30 1615 H 155.744 -5.90455 1.07156 0
M  V30 1616 H 156.814 -4.58496 1.57829 0
M  V30 1617 N 158.157 -0.370918 -1.53173 0
M  V30 1618 C 159.382 0.220293 -2.06227 0
M  V30 1619 C 159.807 1.41243 -1.24225 0
M  V30 1620 O 159.165 1.79387 -0.262645 0
M  V30 1621 C 159.213 0.586663 -3.55796 0
M  V30 1622 O 158.317 1.68317 -3.76488 0
M  V30 1623 H 157.658 0.0308099 -0.663285 0
M  V30 1624 H 160.188 -0.533068 -1.97534 0
M  V30 1625 H 160.198 0.85617 -3.98916 0
M  V30 1626 H 158.873 -0.285013 -4.14922 0
M  V30 1627 H 157.45 1.40881 -3.45264 0
M  V30 1628 N 159.635 1.57281 -0.100228 0
M  V30 1629 C 160.567 2.11342 0.886972 0
M  V30 1630 C 161.58 1.05182 1.24261 0
M  V30 1631 O 162.769 1.32613 1.19483 0
M  V30 1632 C 159.869 2.5825 2.19454 0
M  V30 1633 C 159.042 3.88302 2.01346 0
M  V30 1634 C 158.101 4.21004 3.15661 0
M  V30 1635 O 157.127 4.9014 2.89398 0
M  V30 1636 N 158.329 3.76818 4.41575 0
M  V30 1637 H 161.094 2.96668 0.425216 0
M  V30 1638 H 158.655 1.61678 0.0847334 0
M  V30 1639 H 160.647 2.7717 2.94888 0
M  V30 1640 H 159.217 1.77907 2.57037 0
M  V30 1641 H 158.437 3.7848 1.10212 0
M  V30 1642 H 159.725 4.73375 1.8653 0
M  V30 1643 H 159.123 3.2102 4.65792 0
M  V30 1644 H 157.68 4.00882 5.13942 0
M  V30 1645 N 161.113 -0.173488 1.56642 0
M  V30 1646 C 162.524 -0.736155 1.71574 0
M  V30 1647 C 162.875 -1.82888 0.710389 0
M  V30 1648 O 162 -2.16017 -0.1287 0
M  V30 1649 C 162.595 -1.34211 3.11083 0
M  V30 1650 C 161.154 -1.85162 3.27707 0
M  V30 1651 C 160.301 -0.729765 2.67525 0
M  V30 1652 H 163.252 0.0518786 1.58615 0
M  V30 1653 H 163.273 -2.21178 3.09613 0
M  V30 1654 H 162.785 -0.546579 3.84232 0
M  V30 1655 H 160.886 -2.67366 2.59512 0
M  V30 1656 H 160.999 -1.99855 4.35425 0
M  V30 1657 H 159.363 -1.14965 2.27278 0
M  V30 1658 H 160.146 0.0538806 3.43258 0
M  V30 1659 N 162.591 -1.51276 -0.441967 0
M  V30 1660 C 163.538 -1.72256 -1.53612 0
M  V30 1661 C 164.508 -0.564164 -1.56225 0
M  V30 1662 O 165.693 -0.798074 -1.73307 0
M  V30 1663 C 162.833 -1.84932 -2.91366 0
M  V30 1664 C 161.946 -3.12459 -2.98317 0
M  V30 1665 C 161.081 -3.15758 -4.27166 0
M  V30 1666 C 160.12 -4.37619 -4.27967 0
M  V30 1667 N 159.257 -4.38493 -5.48333 0
M  V30 1668 H 164.097 -2.65654 -1.35026 0
M  V30 1669 H 161.634 -1.31662 -0.656009 0
M  V30 1670 H 163.592 -1.90263 -3.7129 0
M  V30 1671 H 162.222 -0.949461 -3.08521 0
M  V30 1672 H 161.274 -3.1646 -2.11086 0
M  V30 1673 H 162.586 -4.02382 -2.94771 0
M  V30 1674 H 161.74 -3.19979 -5.15459 0
M  V30 1675 H 160.479 -2.23715 -4.33362 0
M  V30 1676 H 159.484 -4.33579 -3.38067 0
M  V30 1677 H 160.709 -5.30921 -4.23438 0
M  V30 1678 H 158.655 -3.49318 -5.55259 0
M  V30 1679 H 158.572 -5.22219 -5.46647 0
M  V30 1680 H 159.84 -4.469 -6.38671 0
M  V30 1681 N 164.069 0.697108 -1.41344 0
M  V30 1682 C 165.032 1.79281 -1.42797 0
M  V30 1683 C 166.032 1.57607 -0.318837 0
M  V30 1684 O 167.222 1.64309 -0.578642 0
M  V30 1685 C 164.354 3.17632 -1.23785 0
M  V30 1686 H 165.547 1.79385 -2.40335 0
M  V30 1687 H 163.1 0.904582 -1.27464 0
M  V30 1688 H 163.835 3.23167 -0.270814 0
M  V30 1689 H 163.62 3.34765 -2.04144 0
M  V30 1690 H 165.11 3.97617 -1.27633 0
M  V30 1691 N 165.547 1.27147 0.931209 0
M  V30 1692 C 166.775 1.16082 1.71267 0
M  V30 1693 C 167.19 -0.282772 1.8667 0
M  V30 1694 O 166.547 -1.19283 1.38122 0
M  V30 1695 C 166.598 1.8358 3.11417 0
M  V30 1696 O 166.319 3.22299 2.96741 0
M  V30 1697 C 167.82 1.78597 4.05732 0
M  V30 1698 H 165.04 0.403758 0.535929 0
M  V30 1699 H 167.584 1.67953 1.16671 0
M  V30 1700 H 165.739 1.35623 3.62885 0
M  V30 1701 H 166.153 3.55851 3.85319 0
M  V30 1702 H 167.627 2.30444 5.01597 0
M  V30 1703 H 168.104 0.754564 4.3267 0
M  V30 1704 H 168.71 2.26152 3.60188 0
M  V30 1705 N 167.025 -1.13721 1.09112 0
M  V30 1706 C 168.436 -1.6648 0.845068 0
M  V30 1707 C 168.787 -1.85911 -0.62701 0
M  V30 1708 O 167.912 -1.57556 -1.48341 0
M  V30 1709 C 168.507 -3.02413 1.52748 0
M  V30 1710 C 167.066 -3.52176 1.32849 0
M  V30 1711 C 166.213 -2.27492 1.58564 0
M  V30 1712 H 169.164 -0.976872 1.25072 0
M  V30 1713 H 169.185 -3.68223 0.958752 0
M  V30 1714 H 168.697 -2.88238 2.59885 0
M  V30 1715 H 166.798 -3.7156 0.278137 0
M  V30 1716 H 166.911 -4.32499 2.0611 0
M  V30 1717 H 165.275 -2.33923 1.00758 0
M  V30 1718 H 166.058 -2.15886 2.66924 0
M  V30 1719 N 168.503 -0.877838 -1.30888 0
M  V30 1720 C 169.728 -0.506629 -2.01117 0
M  V30 1721 C 170.153 0.895564 -1.65412 0
M  V30 1722 O 169.511 1.5923 -0.866922 0
M  V30 1723 C 169.559 -0.680223 -3.54126 0
M  V30 1724 O 168.663 0.277033 -4.11468 0
M  V30 1725 H 168.004 -0.200518 -0.633 0
M  V30 1726 H 170.534 -1.18342 -1.66902 0
M  V30 1727 H 170.544 -0.5765 -4.03907 0
M  V30 1728 H 169.219 -1.70261 -3.79452 0
M  V30 1729 H 167.796 0.127606 -3.72682 0
M  V30 1730 N 169.982 1.44106 -0.638065 0
M  V30 1731 C 171.228 2.02277 -0.145546 0
M  V30 1732 C 171.561 1.50125 1.23191 0
M  V30 1733 O 170.836 0.688133 1.8192 0
M  V30 1734 C 171.119 3.59829 -0.139791 0
M  V30 1735 C 170.972 4.22247 -1.55008 0
M  V30 1736 C 172.291 4.36873 0.531966 0
M  V30 1737 H 169.41 0.734992 -0.0543632 0
M  V30 1738 H 172.052 1.71592 -0.815863 0
M  V30 1739 H 170.202 3.86102 0.431007 0
M  V30 1740 H 171.874 4.07057 -2.1703 0
M  V30 1741 H 170.117 3.79476 -2.10191 0
M  V30 1742 H 170.788 5.31284 -1.49804 0
M  V30 1743 H 173.264 4.16074 0.0464781 0
M  V30 1744 H 172.14 5.4657 0.505206 0
M  V30 1745 H 172.401 4.11995 1.60352 0
M  V30 1746 N 171.46 0.379036 1.52974 0
M  V30 1747 C 172.688 -0.20679 2.05864 0
M  V30 1748 C 173.103 -1.41356 1.25155 0
M  V30 1749 O 172.46 -1.8009 0.295588 0
M  V30 1750 C 172.511 -0.587045 3.56702 0
M  V30 1751 O 172.232 0.571776 4.34353 0
M  V30 1752 C 173.733 -1.22983 4.25899 0
M  V30 1753 H 170.953 -0.0336123 0.670158 0
M  V30 1754 H 173.497 0.541298 1.97206 0
M  V30 1755 H 171.652 -1.28504 3.65466 0
M  V30 1756 H 172.066 0.261544 5.23847 0
M  V30 1757 H 173.54 -1.44635 5.32715 0
M  V30 1758 H 174.017 -2.19416 3.80465 0
M  V30 1759 H 174.623 -0.572892 4.21424 0
M  V30 1760 N 172.938 -1.57226 0.108567 0
M  V30 1761 C 173.868 -2.17778 -0.84232 0
M  V30 1762 C 174.849 -1.11487 -1.2847 0
M  V30 1763 O 176.034 -1.39681 -1.34918 0
M  V30 1764 C 173.164 -2.76888 -2.09644 0
M  V30 1765 C 172.118 -3.88669 -1.79221 0
M  V30 1766 C 171.444 -4.34541 -3.11574 0
M  V30 1767 C 172.744 -5.11251 -1.06864 0
M  V30 1768 H 174.438 -2.97489 -0.337774 0
M  V30 1769 H 171.984 -1.43097 -0.161025 0
M  V30 1770 H 173.937 -3.17904 -2.76614 0
M  V30 1771 H 172.661 -1.94451 -2.62405 0
M  V30 1772 H 171.32 -3.48213 -1.14644 0
M  V30 1773 H 170.968 -3.48977 -3.62249 0
M  V30 1774 H 170.668 -5.09914 -2.91996 0
M  V30 1775 H 172.192 -4.782 -3.7968 0
M  V30 1776 H 173.606 -5.49352 -1.63968 0
M  V30 1777 H 172.003 -5.9214 -0.974178 0
M  V30 1778 H 173.073 -4.8487 -0.0536168 0
M  V30 1779 N 174.416 0.165178 -1.56732 0
M  V30 1780 C 175.663 0.880807 -1.8234 0
M  V30 1781 C 175.991 1.81977 -0.686621 0
M  V30 1782 O 175.246 1.92971 0.325697 0
M  V30 1783 C 175.545 1.70405 -3.1416 0
M  V30 1784 C 175.211 0.913475 -4.4155 0
M  V30 1785 C 173.873 0.695303 -4.7615 0
M  V30 1786 C 176.225 0.359349 -5.1996 0
M  V30 1787 C 173.553 -0.0879947 -5.86634 0
M  V30 1788 C 175.905 -0.410893 -6.31264 0
M  V30 1789 C 174.569 -0.639808 -6.64427 0
M  V30 1790 H 173.839 0.32231 -0.667231 0
M  V30 1791 H 176.486 0.145402 -1.90947 0
M  V30 1792 H 174.791 2.50903 -3.00923 0
M  V30 1793 H 176.488 2.26091 -3.31186 0
M  V30 1794 H 173.078 1.09357 -4.14414 0
M  V30 1795 H 177.262 0.515228 -4.93618 0
M  V30 1796 H 172.518 -0.27503 -6.10781 0
M  V30 1797 H 176.692 -0.847494 -6.91224 0
M  V30 1798 H 174.319 -1.24864 -7.49875 0
M  V30 1799 N 175.894 1.51508 0.433938 0
M  V30 1800 C 177.305 1.56784 1.01369 0
M  V30 1801 C 177.656 0.393349 1.92217 0
M  V30 1802 O 176.781 -0.489441 2.10792 0
M  V30 1803 C 177.376 2.84144 1.8452 0
M  V30 1804 C 175.935 2.9198 2.37539 0
M  V30 1805 C 175.082 2.51482 1.16843 0
M  V30 1806 H 178.033 1.57236 0.215081 0
M  V30 1807 H 178.054 2.68098 2.70007 0
M  V30 1808 H 177.566 3.69607 1.18373 0
M  V30 1809 H 175.667 2.10955 3.0713 0
M  V30 1810 H 175.78 3.95704 2.70103 0
M  V30 1811 H 174.144 2.04758 1.51481 0
M  V30 1812 H 174.927 3.39293 0.523015 0
M  V30 1813 N 177.372 -0.689602 1.41712 0
M  V30 1814 C 178.783 -1.26973 1.36875 0
M  V30 1815 C 179.134 -1.96124 0.054748 0
M  V30 1816 O 178.259 -1.99141 -0.84687 0
M  V30 1817 C 178.854 -2.30912 2.47922 0
M  V30 1818 C 177.413 -2.84486 2.46464 0
M  V30 1819 C 176.56 -1.58603 2.27465 0
M  V30 1820 H 179.511 -0.48396 1.51141 0
M  V30 1821 H 179.532 -3.12331 2.17323 0
M  V30 1822 H 179.044 -1.80554 3.43543 0
M  V30 1823 H 177.145 -3.39005 1.54617 0
M  V30 1824 H 177.258 -3.34511 3.42986 0
M  V30 1825 H 175.622 -1.84632 1.75451 0
M  V30 1826 H 176.405 -1.10233 3.25121 0
M  V30 1827 N 178.85 -1.27639 -0.924453 0
M  V30 1828 C 180.075 -1.17101 -1.71179 0
M  V30 1829 C 180.5 0.268134 -1.86179 0
M  V30 1830 O 179.858 1.19415 -1.36418 0
M  V30 1831 C 179.906 -1.86313 -3.08739 0
M  V30 1832 O 179.01 -1.16331 -3.95652 0
M  V30 1833 H 178.351 -0.407091 -0.524569 0
M  V30 1834 H 180.881 -1.68767 -1.15666 0
M  V30 1835 H 180.891 -1.938 -3.59034 0
M  V30 1836 H 179.566 -2.91001 -2.97138 0
M  V30 1837 H 178.143 -1.16935 -3.54091 0
M  V30 1838 N 180.328 1.1314 -1.09713 0
M  V30 1839 C 181.553 1.88862 -0.857081 0
M  V30 1840 C 181.978 1.78729 0.586304 0
M  V30 1841 O 181.336 1.13692 1.41222 0
M  V30 1842 C 181.384 3.36325 -1.30069 0
M  V30 1843 O 180.488 4.09815 -0.461007 0
M  V30 1844 H 179.829 0.587108 -0.310162 0
M  V30 1845 H 182.359 1.43129 -1.46203 0
M  V30 1846 H 182.369 3.87157 -1.28738 0
M  V30 1847 H 181.044 3.43017 -2.35185 0
M  V30 1848 H 179.621 3.68986 -0.538888 0
M  V30 1849 N 181.806 0.884767 1.30421 0
M  V30 1850 C 182.716 0.355398 2.31892 0
M  V30 1851 C 183.732 -0.542261 1.65335 0
M  V30 1852 O 184.908 -0.435432 1.96637 0
M  V30 1853 C 181.973 -0.421661 3.44126 0
M  V30 1854 C 181.034 0.505727 4.26311 0
M  V30 1855 C 180.267 -0.234343 5.33185 0
M  V30 1856 O 180.49 -1.46045 5.51386 0
M  V30 1857 O 179.424 0.415443 6.00465 0
M  V30 1858 H 183.25 1.19685 2.79122 0
M  V30 1859 H 180.835 0.648596 1.34587 0
M  V30 1860 H 182.717 -0.861641 4.12497 0
M  V30 1861 H 181.392 -1.23942 2.99032 0
M  V30 1862 H 180.299 0.994513 3.60639 0
M  V30 1863 H 181.632 1.28948 4.75009 0
M  V30 1864 N 183.284 -1.43765 0.645699 0
M  V30 1865 C 184.194 -2.34544 -0.0512957 0
M  V30 1866 C 185.21 -1.53455 -0.82022 0
M  V30 1867 O 186.386 -1.86133 -0.769176 0
M  V30 1868 C 183.451 -3.31636 -1.01087 0
M  V30 1869 C 182.512 -4.2863 -0.239712 0
M  V30 1870 C 181.745 -5.21084 -1.15358 0
M  V30 1871 O 181.968 -5.1779 -2.39269 0
M  V30 1872 O 180.902 -5.98593 -0.630038 0
M  V30 1873 H 184.728 -2.95624 0.695718 0
M  V30 1874 H 182.313 -1.43781 0.405882 0
M  V30 1875 H 184.195 -3.9136 -1.56254 0
M  V30 1876 H 182.87 -2.73069 -1.73824 0
M  V30 1877 H 181.777 -3.72408 0.355356 0
M  V30 1878 H 183.11 -4.90157 0.447936 0
M  V30 1879 N 184.763 -0.387143 -1.52771 0
M  V30 1880 C 185.693 0.440551 -2.29306 0
M  V30 1881 C 186.674 1.06535 -1.32606 0
M  V30 1882 O 187.859 1.07853 -1.61497 0
M  V30 1883 C 184.989 1.56919 -3.09829 0
M  V30 1884 C 183.943 1.07054 -4.14395 0
M  V30 1885 C 183.269 2.29109 -4.83129 0
M  V30 1886 C 184.569 0.140015 -5.22112 0
M  V30 1887 H 186.263 -0.198026 -2.98744 0
M  V30 1888 H 183.809 -0.09668 -1.43675 0
M  V30 1889 H 185.762 2.15503 -3.62128 0
M  V30 1890 H 184.486 2.23532 -2.3812 0
M  V30 1891 H 183.145 0.507247 -3.63074 0
M  V30 1892 H 182.793 2.94227 -4.0797 0
M  V30 1893 H 182.493 1.96406 -5.53804 0
M  V30 1894 H 184.017 2.88339 -5.38231 0
M  V30 1895 H 185.431 0.633978 -5.69784 0
M  V30 1896 H 183.828 -0.0971485 -6.00021 0
M  V30 1897 H 184.898 -0.811711 -4.78058 0
M  V30 1898 N 186.241 1.57166 -0.116904 0
M  V30 1899 C 187.173 2.12271 0.864507 0
M  V30 1900 C 188.186 1.06494 1.23138 0
M  V30 1901 O 189.375 1.33873 1.18069 0
M  V30 1902 C 186.475 2.60564 2.16702 0
M  V30 1903 C 185.648 3.90416 1.97216 0
M  V30 1904 C 184.707 4.24329 3.11178 0
M  V30 1905 O 183.733 4.93182 2.84184 0
M  V30 1906 N 184.935 3.8148 4.37554 0
M  V30 1907 H 187.7 2.97102 0.393726 0
M  V30 1908 H 185.261 1.61759 0.0675805 0
M  V30 1909 H 187.253 2.80282 2.91932 0
M  V30 1910 H 185.823 1.80623 2.55135 0
M  V30 1911 H 185.043 3.79627 1.06192 0
M  V30 1912 H 186.331 4.75327 1.81499 0
M  V30 1913 H 185.729 3.25943 4.62361 0
M  V30 1914 H 184.286 4.06311 5.09661 0
M  V30 1915 N 187.719 -0.156864 1.56817 0
M  V30 1916 C 188.682 -1.17781 1.96622 0
M  V30 1917 C 189.682 -1.36401 0.851555 0
M  V30 1918 O 190.872 -1.33561 1.11836 0
M  V30 1919 C 188.004 -2.54008 2.27361 0
M  V30 1920 H 189.197 -0.836564 2.87996 0
M  V30 1921 H 186.75 -0.39985 1.51099 0
M  V30 1922 H 187.485 -2.9312 1.38748 0
M  V30 1923 H 187.27 -2.41856 3.08623 0
M  V30 1924 H 188.76 -3.27558 2.59029 0
M  V30 1925 N 189.197 -1.51736 -0.425897 0
M  V30 1926 C 190.145 -1.74464 -1.53834 0
M  V30 1927 C 191.139 -0.611241 -1.57988 0
M  V30 1928 O 192.345 -0.792899 -1.61596 0
M  V30 1929 H 188.72 -0.551437 -0.511293 0
M  V30 1930 H 190.691 -2.67694 -1.31843 0
M  V30 1931 C 189.44 -1.8972 -2.91379 0
M  V30 1932 H 188.763 -2.76344 -2.88919 0
M  V30 1933 H 190.203 -2.09629 -3.68553 0
M  V30 1934 C 188.662 -0.65992 -3.30374 0
M  V30 1935 O 189.192 0.180083 -4.01296 0
M  V30 1936 N 187.398 -0.500677 -2.86254 0
M  V30 1937 H 186.945 -1.18532 -2.28709 0
M  V30 1938 H 186.903 0.325903 -3.12706 0
M  V30 1939 N 190.675 0.682077 -1.42076 0
M  V30 1940 C 191.622 1.79578 -1.44984 0
M  V30 1941 C 192.592 1.6332 -0.302614 0
M  V30 1942 O 193.777 1.83978 -0.505633 0
M  V30 1943 C 190.917 3.1756 -1.35091 0
M  V30 1944 C 190.03 3.45156 -2.59791 0
M  V30 1945 C 189.165 4.72826 -2.42093 0
M  V30 1946 C 188.204 4.93433 -3.62202 0
M  V30 1947 N 187.341 6.12338 -3.43491 0
M  V30 1948 H 192.181 1.76427 -2.40161 0
M  V30 1949 H 189.718 0.861376 -1.19242 0
M  V30 1950 H 191.676 3.97287 -1.27354 0
M  V30 1951 H 190.306 3.19854 -0.435133 0
M  V30 1952 H 189.358 2.59736 -2.77923 0
M  V30 1953 H 190.67 3.5628 -3.49094 0
M  V30 1954 H 189.824 5.60631 -2.319 0
M  V30 1955 H 188.563 4.63973 -1.50268 0
M  V30 1956 H 187.568 4.04073 -3.72834 0
M  V30 1957 H 188.793 5.04136 -4.54998 0
M  V30 1958 H 186.739 6.04672 -2.54377 0
M  V30 1959 H 186.656 6.2429 -4.26377 0
M  V30 1960 H 187.924 7.02841 -3.37097 0
M  V30 1961 N 192.153 1.28127 0.917671 0
M  V30 1962 C 193.116 1.11744 2.00115 0
M  V30 1963 C 194.116 0.0583052 1.60694 0
M  V30 1964 O 195.306 0.303755 1.71531 0
M  V30 1965 C 192.438 0.704862 3.33533 0
M  V30 1966 H 193.631 2.07966 2.16079 0
M  V30 1967 H 191.184 1.11058 1.09981 0
M  V30 1968 H 191.919 -0.258299 3.2327 0
M  V30 1969 H 191.704 1.4699 3.63505 0
M  V30 1970 H 193.194 0.612768 4.1308 0
M  V30 1971 N 193.631 -1.12557 1.10312 0
M  V30 1972 C 194.859 -1.87864 0.866873 0
M  V30 1973 C 195.274 -1.79588 -0.582557 0
M  V30 1974 O 194.631 -1.16887 -1.40156 0
M  V30 1975 C 194.682 -3.37125 1.30496 0
M  V30 1976 O 194.403 -3.45201 2.69755 0
M  V30 1977 C 195.904 -4.29373 1.10243 0
M  V30 1978 H 193.124 -0.594452 0.311236 0
M  V30 1979 H 195.668 -1.42429 1.46745 0
M  V30 1980 H 193.823 -3.80109 0.748081 0
M  V30 1981 H 194.237 -4.38056 2.88457 0
M  V30 1982 H 195.711 -5.32394 1.45811 0
M  V30 1983 H 196.188 -4.39181 0.0409492 0
M  V30 1984 H 196.794 -3.92169 1.64571 0
M  V30 1985 N 195.109 -0.891671 -1.2995 0
M  V30 1986 C 196.039 -0.379797 -2.30391 0
M  V30 1987 C 197.02 0.540919 -1.6127 0
M  V30 1988 O 198.205 0.453352 -1.88834 0
M  V30 1989 C 195.335 0.400654 -3.44981 0
M  V30 1990 C 194.289 -0.428905 -4.25846 0
M  V30 1991 C 193.615 0.478557 -5.32554 0
M  V30 1992 C 194.915 -1.67458 -4.94727 0
M  V30 1993 H 196.609 -1.21914 -2.73454 0
M  V30 1994 H 194.155 -0.587675 -1.31462 0
M  V30 1995 H 196.108 0.769434 -4.14316 0
M  V30 1996 H 194.832 1.27371 -3.0074 0
M  V30 1997 H 193.491 -0.779911 -3.58208 0
M  V30 1998 H 193.139 1.34951 -4.84559 0
M  V30 1999 H 192.839 -0.0727433 -5.87555 0
M  V30 2000 H 194.363 0.843705 -6.04743 0
M  V30 2001 H 195.777 -1.376 -5.56542 0
M  V30 2002 H 194.174 -2.16659 -5.59624 0
M  V30 2003 H 195.244 -2.41518 -4.20473 0
M  V30 2004 N 196.587 1.43421 -0.653314 0
M  V30 2005 C 197.833 2.02111 -0.166992 0
M  V30 2006 C 198.166 1.51423 1.21592 0
M  V30 2007 O 197.441 0.707389 1.8118 0
M  V30 2008 C 197.724 3.5966 -0.177948 0
M  V30 2009 C 197.577 4.20579 -1.59478 0
M  V30 2010 C 198.896 4.37413 0.4856 0
M  V30 2011 H 196.015 0.734374 -0.0621557 0
M  V30 2012 H 198.657 1.70717 -0.834016 0
M  V30 2013 H 196.807 3.86537 0.390032 0
M  V30 2014 H 198.479 4.04732 -2.21336 0
M  V30 2015 H 196.722 3.77226 -2.14204 0
M  V30 2016 H 197.393 5.29665 -1.5543 0
M  V30 2017 H 199.869 4.161 0.00234528 0
M  V30 2018 H 198.745 5.47075 0.447207 0
M  V30 2019 H 199.006 4.13672 1.55974 0
M  V30 2020 N 198.065 0.39524 1.52563 0
M  V30 2021 C 199.305 -0.184744 2.03563 0
M  V30 2022 C 199.669 -1.43548 1.27507 0
M  V30 2023 O 200.87 -2.093 1.68662 0
M  V30 2024 C 199.141 -0.440294 3.54678 0
M  V30 2025 S 200.7 -0.989712 4.27493 0
M  V30 2026 H 197.518 -0.0515075 0.709132 0
M  V30 2027 H 200.12 0.544957 1.87751 0
M  V30 2028 H 198.824 0.477005 4.07618 0
M  V30 2029 H 198.355 -1.19825 3.74707 0
M  V30 2030 H 200.37 -2.27155 4.41152 0
M  V30 2031 N 199.544 -1.57102 0.125237 0
M  V30 2032 C 200.474 -2.18659 -0.819174 0
M  V30 2033 C 201.455 -1.12843 -1.27281 0
M  V30 2034 O 202.64 -1.41104 -1.33429 0
M  V30 2035 C 199.77 -2.79096 -2.06695 0
M  V30 2036 C 198.724 -3.90548 -1.75088 0
M  V30 2037 C 198.05 -4.37821 -3.06948 0
M  V30 2038 C 199.35 -5.12356 -1.01435 0
M  V30 2039 H 201.044 -2.9783 -0.306202 0
M  V30 2040 H 198.59 -1.4326 -0.145839 0
M  V30 2041 H 200.543 -3.2082 -2.73226 0
M  V30 2042 H 199.267 -1.97223 -2.60328 0
M  V30 2043 H 197.926 -3.49409 -1.10944 0
M  V30 2044 H 197.574 -3.52799 -3.58527 0
M  V30 2045 H 197.274 -5.12982 -2.86571 0
M  V30 2046 H 198.798 -4.822 -3.74587 0
M  V30 2047 H 200.212 -5.5106 -1.58132 0
M  V30 2048 H 198.609 -5.9314 -0.911319 0
M  V30 2049 H 199.679 -4.849 -0.00218681 0
M  V30 2050 N 201.022 0.148545 -1.56898 0
M  V30 2051 C 201.955 1.21293 -1.93296 0
M  V30 2052 C 202.933 1.41637 -0.798599 0
M  V30 2053 O 204.117 1.56275 -1.05406 0
M  V30 2054 C 201.244 2.5721 -2.20365 0
M  V30 2055 C 200.29 2.53469 -3.4301 0
M  V30 2056 S 201.123 2.00315 -4.96623 0
M  V30 2057 C 202.279 3.37964 -5.26812 0
M  V30 2058 H 202.512 0.902393 -2.83274 0
M  V30 2059 H 200.045 0.354094 -1.50285 0
M  V30 2060 H 202.003 3.35427 -2.36641 0
M  V30 2061 H 200.664 2.85454 -1.31054 0
M  V30 2062 H 199.857 3.53518 -3.59223 0
M  V30 2063 H 199.459 1.83359 -3.25968 0
M  V30 2064 H 201.751 4.34066 -5.20185 0
M  V30 2065 H 202.694 3.26606 -6.28279 0
M  V30 2066 H 203.102 3.35028 -4.54331 0
M  V30 2067 N 202.5 1.5196 0.417844 0
M  V30 2068 C 203.448 1.75278 1.52907 0
M  V30 2069 C 204.442 0.619611 1.57662 0
M  V30 2070 O 205.648 0.801457 1.61173 0
M  V30 2071 H 202.023 0.554141 0.508362 0
M  V30 2072 H 203.994 2.68389 1.30422 0
M  V30 2073 C 202.743 1.91262 2.90369 0
M  V30 2074 H 202.066 2.77872 2.8745 0
M  V30 2075 H 203.506 2.11581 3.67436 0
M  V30 2076 C 201.965 0.677431 3.30019 0
M  V30 2077 O 202.495 -0.158799 4.01386 0
M  V30 2078 N 200.701 0.515851 2.85985 0
M  V30 2079 H 200.248 1.19744 2.28077 0
M  V30 2080 H 200.206 -0.309315 3.12875 0
M  V30 2081 N 203.978 -0.674533 1.42435 0
M  V30 2082 C 205.255 -1.4305 1.33402 0
M  V30 2083 C 205.635 -2.11081 -0.0284674 0
M  V30 2084 O 204.983 -2.03257 -1.04397 0
M  V30 2085 C 205.193 -2.43272 2.50239 0
M  V30 2086 C 206.541 -3.07907 2.92367 0
M  V30 2087 O 207.565 -2.53599 2.50132 0
M  V30 2088 O 206.424 -4.0632 3.65467 0
M  V30 2089 H 203.518 -0.638076 0.526106 0
M  V30 2090 H 206.064 -0.703235 1.54443 0
M  V30 2091 H 204.836 -1.91803 3.41068 0
M  V30 2092 H 204.459 -3.23479 2.31186 0
M  V30 2093 N 205.456 -1.28612 -0.910864 0
M  V30 2094 C 206.703 -1.15934 -1.66029 0
M  V30 2095 C 207.031 0.291483 -1.92303 0
M  V30 2096 O 206.286 1.22816 -1.52364 0
M  V30 2097 C 206.585 -1.90624 -3.0232 0
M  V30 2098 C 206.251 -3.40405 -2.95695 0
M  V30 2099 C 204.913 -3.81255 -2.93595 0
M  V30 2100 C 207.265 -4.359 -2.85728 0
M  V30 2101 C 204.593 -5.15936 -2.79334 0
M  V30 2102 C 206.945 -5.70657 -2.73007 0
M  V30 2103 C 205.609 -6.10779 -2.69267 0
M  V30 2104 H 204.879 -0.424234 -0.607541 0
M  V30 2105 H 207.526 -1.5942 -1.06101 0
M  V30 2106 H 205.831 -1.39696 -3.6605 0
M  V30 2107 H 207.528 -1.78228 -3.59215 0
M  V30 2108 H 204.118 -3.07927 -2.98125 0
M  V30 2109 H 208.302 -4.053 -2.86436 0
M  V30 2110 H 203.558 -5.46146 -2.74835 0
M  V30 2111 H 207.732 -6.44311 -2.64264 0
M  V30 2112 H 205.359 -7.1509 -2.57974 0
M  V30 2113 N 206.934 1.1197 -1.10907 0
M  V30 2114 C 208.164 1.8713 -0.875553 0
M  V30 2115 C 208.572 1.8016 0.577843 0
M  V30 2116 O 207.915 1.17699 1.41042 0
M  V30 2117 C 207.977 3.37005 -1.2517 0
M  V30 2118 C 207.641 3.67748 -2.71313 0
M  V30 2119 C 208.638 3.65698 -3.69542 0
M  V30 2120 C 206.323 3.96928 -3.07821 0
M  V30 2121 C 208.317 3.92395 -5.023 0
M  V30 2122 C 206.004 4.23284 -4.40765 0
M  V30 2123 C 207.002 4.21005 -5.37814 0
M  V30 2124 O 206.69 4.46704 -6.68364 0
M  V30 2125 H 206.422 0.598786 -0.313737 0
M  V30 2126 H 208.976 1.42568 -1.47863 0
M  V30 2127 H 207.206 3.82146 -0.591741 0
M  V30 2128 H 208.895 3.93519 -0.994877 0
M  V30 2129 H 209.661 3.43211 -3.42682 0
M  V30 2130 H 205.54 3.97841 -2.32902 0
M  V30 2131 H 209.084 3.90531 -5.78041 0
M  V30 2132 H 204.981 4.45246 -4.67361 0
M  V30 2133 H 205.749 4.64299 -6.74069 0
M  V30 2134 N 208.412 0.89855 1.29475 0
M  V30 2135 C 209.823 0.572537 1.77705 0
M  V30 2136 C 210.174 -0.911778 1.73727 0
M  V30 2137 O 209.299 -1.71288 1.32247 0
M  V30 2138 C 209.894 1.03252 3.22683 0
M  V30 2139 C 208.453 0.757687 3.68695 0
M  V30 2140 C 207.6 1.20787 2.49612 0
M  V30 2141 H 210.551 1.08139 1.16153 0
M  V30 2142 H 210.572 0.367307 3.78723 0
M  V30 2143 H 210.084 2.11285 3.25546 0
M  V30 2144 H 208.185 -0.310079 3.71308 0
M  V30 2145 H 208.298 1.35476 4.59547 0
M  V30 2146 H 206.662 0.626888 2.46865 0
M  V30 2147 H 207.445 2.29622 2.55203 0
M  V30 2148 N 209.89 -1.43072 0.660911 0
M  V30 2149 C 211.138 -2.01323 0.177094 0
M  V30 2150 C 211.459 -1.5245 -1.2159 0
M  V30 2151 O 210.729 -0.740322 -1.81373 0
M  V30 2152 H 209.309 -0.744382 0.0624804 0
M  V30 2153 H 211.971 -1.75179 0.854305 0
M  V30 2154 H 211.067 -3.11649 0.167641 0
M  V30 2155 N 211.368 -0.403325 -1.52352 0
M  V30 2156 C 212.617 0.175668 -2.00934 0
M  V30 2157 C 212.93 1.46718 -1.29356 0
M  V30 2158 O 214.136 2.12708 -1.68724 0
M  V30 2159 C 212.592 0.363612 -3.58058 0
M  V30 2160 C 212.2 -0.915472 -4.38547 0
M  V30 2161 C 213.944 0.89821 -4.14888 0
M  V30 2162 C 211.851 -0.695035 -5.87302 0
M  V30 2163 H 210.781 0.0694234 -0.750797 0
M  V30 2164 H 213.432 -0.527879 -1.75743 0
M  V30 2165 H 211.814 1.12935 -3.79555 0
M  V30 2166 H 212.988 -1.68691 -4.28812 0
M  V30 2167 H 211.303 -1.37606 -3.93006 0
M  V30 2168 H 213.9 1.07907 -5.23699 0
M  V30 2169 H 214.243 1.87126 -3.71873 0
M  V30 2170 H 214.776 0.191681 -3.97338 0
M  V30 2171 H 211.515 -1.63948 -6.34666 0
M  V30 2172 H 211.035 0.0372116 -5.99788 0
M  V30 2173 H 212.714 -0.33497 -6.46132 0
M  V30 2174 N 212.846 1.57033 -0.133567 0
M  V30 2175 C 213.776 2.1909 0.807567 0
M  V30 2176 C 214.757 1.13517 1.26681 0
M  V30 2177 O 215.942 1.41809 1.32679 0
M  V30 2178 C 213.072 2.80188 2.05212 0
M  V30 2179 C 212.026 3.91471 1.73015 0
M  V30 2180 C 211.352 4.39443 3.04622 0
M  V30 2181 C 212.652 5.12886 0.987168 0
M  V30 2182 H 214.346 2.97988 0.290403 0
M  V30 2183 H 211.892 1.43335 0.138239 0
M  V30 2184 H 213.845 3.22264 2.71521 0
M  V30 2185 H 212.569 1.98601 2.59278 0
M  V30 2186 H 211.228 3.49993 1.0909 0
M  V30 2187 H 210.876 3.54695 3.56651 0
M  V30 2188 H 210.576 5.14495 2.83847 0
M  V30 2189 H 212.1 4.8418 3.72024 0
M  V30 2190 H 213.514 5.51891 1.55208 0
M  V30 2191 H 211.911 5.93615 0.87985 0
M  V30 2192 H 212.981 4.84894 -0.0235286 0
M  V30 2193 N 214.325 -0.140222 1.56975 0
M  V30 2194 C 215.553 -0.866437 1.87884 0
M  V30 2195 C 215.968 -1.74428 0.722517 0
M  V30 2196 O 215.325 -1.79891 -0.30749 0
M  V30 2197 C 215.376 -1.71753 3.18093 0
M  V30 2198 O 215.097 -0.875056 4.29272 0
M  V30 2199 C 216.598 -2.55074 3.62563 0
M  V30 2200 H 213.818 -0.25019 0.622612 0
M  V30 2201 H 216.362 -0.130977 2.0408 0
M  V30 2202 H 214.517 -2.40598 3.03631 0
M  V30 2203 H 214.931 -1.46002 5.03769 0
M  V30 2204 H 216.405 -3.10356 4.5649 0
M  V30 2205 H 216.882 -3.31434 2.88181 0
M  V30 2206 H 217.488 -1.91509 3.79743 0
M  V30 2207 N 215.803 -1.52179 -0.40978 0
M  V30 2208 C 217.049 -1.66453 -1.15851 0
M  V30 2209 C 217.382 -0.392972 -1.90182 0
M  V30 2210 O 216.657 0.608579 -1.84734 0
M  V30 2211 C 216.94 -2.88612 -2.15349 0
M  V30 2212 C 216.793 -4.25815 -1.44918 0
M  V30 2213 C 218.112 -3.06294 -3.16026 0
M  V30 2214 H 215.231 -0.60575 -0.419805 0
M  V30 2215 H 217.873 -1.84732 -0.444314 0
M  V30 2216 H 216.023 -2.73158 -2.76255 0
M  V30 2217 H 217.695 -4.52995 -0.871365 0
M  V30 2218 H 215.938 -4.27247 -0.751159 0
M  V30 2219 H 216.609 -5.07337 -2.17516 0
M  V30 2220 H 219.085 -3.20641 -2.65195 0
M  V30 2221 H 217.961 -3.93283 -3.8291 0
M  V30 2222 H 218.222 -2.19579 -3.83715 0
M  V30 2223 N 217.281 0.66697 -1.42791 0
M  V30 2224 C 218.509 1.45505 -1.47091 0
M  V30 2225 C 218.924 1.8861 -0.0845873 0
M  V30 2226 O 218.281 1.58632 0.90234 0
M  V30 2227 C 218.332 2.69906 -2.40485 0
M  V30 2228 O 218.053 2.28608 -3.73725 0
M  V30 2229 C 219.554 3.63396 -2.53886 0
M  V30 2230 H 216.774 0.447459 -0.500022 0
M  V30 2231 H 219.318 0.818866 -1.8739 0
M  V30 2232 H 217.473 3.29696 -2.03419 0
M  V30 2233 H 217.887 3.08997 -4.23817 0
M  V30 2234 H 219.361 4.47387 -3.2334 0
M  V30 2235 H 219.838 4.09824 -1.57927 0
M  V30 2236 H 220.444 3.09495 -2.91706 0
M  V30 2237 N 218.759 1.29093 0.90403 0
M  V30 2238 C 220.005 1.17996 1.65676 0
M  V30 2239 C 220.36 -0.266816 1.90541 0
M  V30 2240 O 219.653 -1.19 1.50165 0
M  V30 2241 C 219.847 1.92224 3.01305 0
M  V30 2242 C 219.676 3.43972 2.89678 0
M  V30 2243 C 218.446 4.1332 2.90679 0
M  V30 2244 C 220.644 4.39546 2.67028 0
M  V30 2245 N 218.626 5.51463 2.69743 0
M  V30 2246 C 219.997 5.65119 2.5503 0
M  V30 2247 C 222.052 4.29359 2.52101 0
M  V30 2248 C 220.755 6.81663 2.29626 0
M  V30 2249 C 222.781 5.4565 2.28079 0
M  V30 2250 C 222.143 6.70193 2.16843 0
M  V30 2251 H 218.242 0.486759 0.612037 0
M  V30 2252 H 220.826 1.62868 1.06688 0
M  V30 2253 H 218.997 1.49773 3.58361 0
M  V30 2254 H 220.729 1.73429 3.65656 0
M  V30 2255 H 217.484 3.64984 3.01801 0
M  V30 2256 H 217.908 6.24105 2.6234 0
M  V30 2257 H 222.55 3.33769 2.59534 0
M  V30 2258 H 220.268 7.77313 2.20932 0
M  V30 2259 H 223.854 5.39664 2.1738 0
M  V30 2260 H 222.734 7.58659 1.98511 0
M  V30 2261 N 220.237 -1.11381 1.11499 0
M  V30 2262 C 221.184 -2.17439 0.773887 0
M  V30 2263 C 222.154 -1.64132 -0.254899 0
M  V30 2264 O 223.339 -1.90345 -0.13168 0
M  V30 2265 C 220.479 -3.44373 0.223917 0
M  V30 2266 C 219.592 -4.1168 1.30934 0
M  V30 2267 C 218.727 -5.263 0.71984 0
M  V30 2268 C 217.766 -5.85493 1.78507 0
M  V30 2269 N 216.903 -6.91507 1.21502 0
M  V30 2270 H 221.743 -2.45962 1.68246 0
M  V30 2271 H 219.28 -1.20744 0.840191 0
M  V30 2272 H 221.238 -4.17047 -0.112921 0
M  V30 2273 H 219.868 -3.16232 -0.647851 0
M  V30 2274 H 218.92 -3.37073 1.76312 0
M  V30 2275 H 220.232 -4.51729 2.11524 0
M  V30 2276 H 219.386 -6.05785 0.333094 0
M  V30 2277 H 218.125 -4.87559 -0.117377 0
M  V30 2278 H 217.13 -5.04686 2.18111 0
M  V30 2279 H 218.355 -6.26301 2.62533 0
M  V30 2280 H 216.301 -6.54783 0.399455 0
M  V30 2281 H 216.218 -7.30214 1.95763 0
M  V30 2282 H 217.486 -7.74795 0.855181 0
M  V30 2283 N 221.715 -0.905404 -1.28997 0
M  V30 2284 C 222.678 -0.392253 -2.25819 0
M  V30 2285 C 223.678 0.476753 -1.5357 0
M  V30 2286 O 224.868 0.280994 -1.71919 0
M  V30 2287 C 222 0.438588 -3.38067 0
M  V30 2288 H 223.193 -1.24743 -2.72725 0
M  V30 2289 H 220.746 -0.684051 -1.40536 0
M  V30 2290 H 221.481 1.31352 -2.96508 0
M  V30 2291 H 221.266 -0.184167 -3.91667 0
M  V30 2292 H 222.756 0.78873 -4.10084 0
M  V30 2293 N 223.193 1.4272 -0.668489 0
M  V30 2294 C 224.47 1.95248 -0.117373 0
M  V30 2295 C 224.85 1.60919 1.36632 0
M  V30 2296 O 224.198 0.902095 2.09939 0
M  V30 2297 C 224.408 3.46927 -0.379806 0
M  V30 2298 C 225.756 4.23588 -0.292923 0
M  V30 2299 O 226.78 3.5482 -0.313204 0
M  V30 2300 O 225.639 5.46017 -0.229697 0
M  V30 2301 H 222.733 0.827 0.00079152 0
M  V30 2302 H 225.279 1.52581 -0.742783 0
M  V30 2303 H 224.051 3.65096 -1.40786 0
M  V30 2304 H 223.674 3.96627 0.277923 0
M  V30 2305 N 224.671 0.411399 1.52136 0
M  V30 2306 C 225.919 -0.163322 2.01439 0
M  V30 2307 C 226.24 -1.45453 1.29879 0
M  V30 2308 O 225.51 -1.91225 0.4254 0
M  V30 2309 H 224.09 -0.0633447 0.744309 0
M  V30 2310 H 226.752 0.548161 1.87033 0
M  V30 2311 H 225.848 -0.357817 3.10042 0
M  V30 2312 N 226.149 -1.5696 0.141893 0
M  V30 2313 C 227.377 -2.00322 -0.517579 0
M  V30 2314 C 227.792 -1.02193 -1.58752 0
M  V30 2315 O 227.149 -0.0181619 -1.82491 0
M  V30 2316 C 227.2 -3.43618 -1.12289 0
M  V30 2317 O 226.921 -4.37995 -0.0956929 0
M  V30 2318 C 228.422 -4.02231 -1.86347 0
M  V30 2319 H 225.642 -0.657243 -0.135177 0
M  V30 2320 H 228.186 -2.03146 0.234973 0
M  V30 2321 H 226.341 -3.41662 -1.82609 0
M  V30 2322 H 226.755 -5.21729 -0.538469 0
M  V30 2323 H 228.229 -5.04509 -2.23997 0
M  V30 2324 H 228.706 -3.42655 -2.74744 0
M  V30 2325 H 229.312 -4.07802 -1.20737 0
M  V30 2326 N 227.627 0.131896 -1.57047 0
M  V30 2327 C 229.038 0.690407 -1.73465 0
M  V30 2328 C 229.389 1.8094 -0.758629 0
M  V30 2329 O 228.514 2.16282 0.0713813 0
M  V30 2330 C 229.109 1.25916 -3.14532 0
M  V30 2331 C 227.668 1.76409 -3.32501 0
M  V30 2332 C 226.815 0.658579 -2.69366 0
M  V30 2333 H 229.766 -0.0939144 -1.58422 0
M  V30 2334 H 229.787 2.12892 -3.15369 0
M  V30 2335 H 229.299 0.444515 -3.85546 0
M  V30 2336 H 227.4 2.60391 -2.66509 0
M  V30 2337 H 227.513 1.88241 -4.4057 0
M  V30 2338 H 225.877 1.08899 -2.30246 0
M  V30 2339 H 226.66 -0.14487 -3.42994 0
M  V30 2340 N 229.106 1.52395 0.401703 0
M  V30 2341 C 230.355 1.66044 1.14509 0
M  V30 2342 C 230.668 0.400216 1.91462 0
M  V30 2343 O 231.874 0.416632 2.68284 0
M  V30 2344 C 230.33 2.93388 2.0845 0
M  V30 2345 C 229.938 4.26545 1.36978 0
M  V30 2346 C 231.682 3.16402 2.83001 0
M  V30 2347 C 229.589 5.45007 2.29611 0
M  V30 2348 H 228.519 0.618562 0.431158 0
M  V30 2349 H 231.17 1.78886 0.40892 0
M  V30 2350 H 229.552 2.74263 2.8565 0
M  V30 2351 H 230.726 4.56179 0.650916 0
M  V30 2352 H 229.041 4.09692 0.74438 0
M  V30 2353 H 231.638 4.02085 3.52465 0
M  V30 2354 H 231.981 2.30943 3.46368 0
M  V30 2355 H 232.514 3.36034 2.12898 0
M  V30 2356 H 229.253 6.32835 1.70879 0
M  V30 2357 H 228.773 5.19702 2.9945 0
M  V30 2358 H 230.452 5.7838 2.89974 0
M  V30 2359 N 230.584 -0.659388 1.43143 0
M  V30 2360 C 231.812 -1.44723 1.47861 0
M  V30 2361 C 232.227 -1.88563 0.0945886 0
M  V30 2362 O 231.584 -1.59108 -0.893915 0
M  V30 2363 C 231.635 -2.68627 2.41913 0
M  V30 2364 O 231.356 -2.26623 3.74932 0
M  V30 2365 C 232.857 -3.62045 2.55809 0
M  V30 2366 H 230.077 -0.444801 0.502387 0
M  V30 2367 H 232.621 -0.808916 1.87821 0
M  V30 2368 H 230.776 -3.28613 2.05164 0
M  V30 2369 H 231.19 -3.06745 4.2545 0
M  V30 2370 H 232.664 -4.45666 3.25708 0
M  V30 2371 H 233.141 -4.08981 1.60099 0
M  V30 2372 H 233.747 -3.07944 2.93344 0
M  V30 2373 N 232.062 -1.29571 -0.897171 0
M  V30 2374 C 232.994 -1.10724 -2.00681 0
M  V30 2375 C 234.007 -0.0540026 -1.6271 0
M  V30 2376 O 235.196 -0.298783 -1.75982 0
M  V30 2377 C 232.296 -0.663912 -3.32333 0
M  V30 2378 C 231.469 -1.79622 -3.98816 0
M  V30 2379 C 230.528 -1.34349 -5.0876 0
M  V30 2380 O 229.554 -2.04864 -5.31055 0
M  V30 2381 N 230.756 -0.215764 -5.80099 0
M  V30 2382 H 233.521 -2.06291 -2.17403 0
M  V30 2383 H 231.082 -1.21544 -1.06951 0
M  V30 2384 H 233.074 -0.344295 -4.03233 0
M  V30 2385 H 231.644 0.199375 -3.11964 0
M  V30 2386 H 230.864 -2.28459 -3.21248 0
M  V30 2387 H 232.152 -2.55535 -4.39976 0
M  V30 2388 H 231.55 0.372091 -5.64475 0
M  V30 2389 H 230.107 0.0444707 -6.51785 0
M  V30 2390 N 233.54 1.10788 -1.12088 0
M  V30 2391 C 234.788 1.8231 -0.872205 0
M  V30 2392 C 235.109 1.85419 0.603709 0
M  V30 2393 O 234.379 1.32963 1.43867 0
M  V30 2394 H 232.959 0.675137 -0.319686 0
M  V30 2395 H 235.621 1.34068 -1.41463 0
M  V30 2396 H 234.717 2.85955 -1.25045 0
M  V30 2397 N 235.018 0.912232 1.28515 0
M  V30 2398 C 236.264 0.545405 1.95328 0
M  V30 2399 C 236.597 -0.908313 1.71649 0
M  V30 2400 O 235.872 -1.64575 1.03659 0
M  V30 2401 C 236.155 0.853483 3.4984 0
M  V30 2402 C 236.008 2.35982 3.82926 0
M  V30 2403 C 237.327 0.348589 4.38717 0
M  V30 2404 H 234.446 0.199626 0.709449 0
M  V30 2405 H 237.088 1.1412 1.5191 0
M  V30 2406 H 235.238 0.34643 3.86952 0
M  V30 2407 H 236.91 2.93738 3.55691 0
M  V30 2408 H 235.153 2.81543 3.30024 0
M  V30 2409 H 235.824 2.52593 4.90816 0
M  V30 2410 H 238.3 0.78294 4.08668 0
M  V30 2411 H 237.176 0.593242 5.45685 0
M  V30 2412 H 237.437 -0.751049 4.35674 0
M  V30 2413 N 236.496 -1.42363 0.676048 0
M  V30 2414 C 237.406 -2.346 -0.00153389 0
M  V30 2415 C 238.422 -1.5516 -0.787485 0
M  V30 2416 O 239.598 -1.87723 -0.729521 0
M  V30 2417 C 236.663 -3.33705 -0.940298 0
M  V30 2418 C 235.724 -4.29042 -0.148739 0
M  V30 2419 C 234.957 -5.23413 -1.04279 0
M  V30 2420 O 235.18 -5.22749 -2.28232 0
M  V30 2421 O 234.114 -5.99795 -0.502925 0
M  V30 2422 H 237.94 -2.94082 0.758268 0
M  V30 2423 H 235.525 -1.42888 0.436289 0
M  V30 2424 H 237.407 -3.94586 -1.47917 0
M  V30 2425 H 236.082 -2.76695 -1.67993 0
M  V30 2426 H 234.989 -3.71571 0.43427 0
M  V30 2427 H 236.322 -4.89097 0.551805 0
M  V30 2428 N 237.974 -0.419461 -1.51915 0
M  V30 2429 C 238.907 0.445751 -2.23804 0
M  V30 2430 C 239.885 1.03951 -1.25031 0
M  V30 2431 O 241.069 1.08541 -1.54114 0
M  V30 2432 C 238.196 1.61964 -2.97465 0
M  V30 2433 C 237.242 1.14828 -4.10751 0
M  V30 2434 S 238.075 0.104938 -5.35397 0
M  V30 2435 C 239.231 1.28391 -6.1259 0
M  V30 2436 H 239.464 -0.164627 -2.96844 0
M  V30 2437 H 236.997 -0.203833 -1.53049 0
M  V30 2438 H 238.955 2.29271 -3.40507 0
M  V30 2439 H 237.616 2.20139 -2.24048 0
M  V30 2440 H 236.809 2.02561 -4.61503 0
M  V30 2441 H 236.411 0.553712 -3.69878 0
M  V30 2442 H 238.703 2.20563 -6.40592 0
M  V30 2443 H 239.646 0.816724 -7.03374 0
M  V30 2444 H 240.054 1.51439 -5.43807 0
M  V30 2445 N 239.452 1.56882 -0.150215 0
M  V30 2446 C 240.68 2.00593 0.506948 0
M  V30 2447 C 241.095 1.03033 1.58208 0
M  V30 2448 O 240.452 0.0278396 1.82479 0
M  V30 2449 C 240.503 3.44209 1.10465 0
M  V30 2450 O 240.224 4.3804 0.0724636 0
M  V30 2451 C 241.725 4.03214 1.84211 0
M  V30 2452 H 238.945 0.65795 0.13169 0
M  V30 2453 H 241.489 2.03018 -0.245743 0
M  V30 2454 H 239.644 3.42625 1.80795 0
M  V30 2455 H 240.058 5.22007 0.510793 0
M  V30 2456 H 241.532 5.0569 2.21318 0
M  V30 2457 H 242.009 3.44107 2.72923 0
M  V30 2458 H 242.615 4.08437 1.18572 0
M  V30 2459 N 240.93 -0.123565 1.57115 0
M  V30 2460 C 242.158 -0.846461 1.88793 0
M  V30 2461 C 242.573 -1.73652 0.740976 0
M  V30 2462 O 241.93 -1.80207 -0.288393 0
M  V30 2463 C 241.981 -1.6837 3.19897 0
M  V30 2464 O 241.702 -0.829477 4.30176 0
M  V30 2465 C 243.203 -2.51214 3.65248 0
M  V30 2466 H 240.423 -0.243573 0.625231 0
M  V30 2467 H 242.967 -0.109324 2.04208 0
M  V30 2468 H 241.122 -2.37364 3.06165 0
M  V30 2469 H 241.536 -1.40651 5.0529 0
M  V30 2470 H 243.01 -3.05497 4.59756 0
M  V30 2471 H 243.487 -3.28359 2.9168 0
M  V30 2472 H 244.093 -1.8747 3.81752 0
M  V30 2473 N 242.408 -1.52605 -0.393616 0
M  V30 2474 C 243.819 -1.59417 -0.971761 0
M  V30 2475 C 244.17 -0.444173 -1.91106 0
M  V30 2476 O 243.295 0.433382 -2.12016 0
M  V30 2477 C 243.89 -2.88936 -1.76921 0
M  V30 2478 C 242.449 -2.98175 -2.29714 0
M  V30 2479 C 241.596 -2.54491 -1.10135 0
M  V30 2480 H 244.547 -1.57751 -0.173317 0
M  V30 2481 H 244.568 -2.75163 -2.62804 0
M  V30 2482 H 244.08 -3.72616 -1.08532 0
M  V30 2483 H 242.181 -2.19024 -3.01429 0
M  V30 2484 H 242.294 -4.02726 -2.59517 0
M  V30 2485 H 240.658 -2.08702 -1.45999 0
M  V30 2486 H 241.441 -3.4056 -0.432874 0
M  V30 2487 N 243.887 0.651787 -1.4349 0
M  V30 2488 C 245.112 1.44434 -1.48841 0
M  V30 2489 C 245.537 1.8779 -0.107955 0
M  V30 2490 O 244.895 1.57464 0.898602 0
M  V30 2491 C 244.943 2.65458 -2.44059 0
M  V30 2492 O 244.047 3.64566 -1.92784 0
M  V30 2493 H 243.388 0.433005 -0.503391 0
M  V30 2494 H 245.918 0.797451 -1.88419 0
M  V30 2495 H 245.928 3.13255 -2.6141 0
M  V30 2496 H 244.603 2.33244 -3.4434 0
M  V30 2497 H 243.18 3.23716 -1.851 0
M  V30 2498 N 245.365 1.30045 0.890287 0
M  V30 2499 C 246.312 1.15976 1.99545 0
M  V30 2500 C 247.282 0.0506202 1.66023 0
M  V30 2501 O 248.467 0.219847 1.89529 0
M  V30 2502 C 245.607 0.852054 3.34416 0
M  V30 2503 C 244.72 2.04255 3.80662 0
M  V30 2504 C 243.855 1.6734 5.04154 0
M  V30 2505 C 242.894 2.82916 5.42794 0
M  V30 2506 N 242.031 2.46333 6.57468 0
M  V30 2507 H 246.871 2.10524 2.10911 0
M  V30 2508 H 244.408 1.04749 1.03276 0
M  V30 2509 H 246.366 0.654296 4.12037 0
M  V30 2510 H 244.996 -0.0565502 3.2275 0
M  V30 2511 H 244.048 2.35172 2.98995 0
M  V30 2512 H 245.36 2.90826 4.05242 0
M  V30 2513 H 244.514 1.43908 5.89386 0
M  V30 2514 H 243.253 0.779308 4.81433 0
M  V30 2515 H 242.258 3.0702 4.56091 0
M  V30 2516 H 243.483 3.73004 5.6749 0
M  V30 2517 H 241.429 1.59423 6.36334 0
M  V30 2518 H 241.346 3.26436 6.81891 0
M  V30 2519 H 242.614 2.26244 7.45945 0
M  V30 2520 N 246.843 -1.10192 1.12674 0
M  V30 2521 C 247.775 -2.16418 0.754701 0
M  V30 2522 C 248.788 -1.61309 -0.21986 0
M  V30 2523 O 249.977 -1.785 -0.000826841 0
M  V30 2524 C 247.077 -3.38762 0.096698 0
M  V30 2525 C 246.25 -4.23307 1.10136 0
M  V30 2526 C 245.309 -5.24092 0.470513 0
M  V30 2527 O 244.335 -5.57906 1.12824 0
M  V30 2528 N 245.537 -5.75491 -0.760948 0
M  V30 2529 H 248.302 -2.48943 1.66875 0
M  V30 2530 H 245.863 -1.25834 1.01869 0
M  V30 2531 H 247.855 -4.03291 -0.337384 0
M  V30 2532 H 246.425 -3.04192 -0.720153 0
M  V30 2533 H 245.645 -3.55036 1.71299 0
M  V30 2534 H 246.933 -4.76624 1.78064 0
M  V30 2535 H 246.331 -5.50222 -1.31424 0
M  V30 2536 H 244.888 -6.41792 -1.13781 0
M  V30 2537 N 248.321 -0.919034 -1.28029 0
M  V30 2538 C 249.546 -0.570357 -1.99403 0
M  V30 2539 C 249.971 0.842486 -1.68178 0
M  V30 2540 O 249.329 1.56391 -0.917141 0
M  V30 2541 C 249.377 -0.792541 -3.51783 0
M  V30 2542 O 248.481 0.145988 -4.12142 0
M  V30 2543 H 247.822 -0.220555 -0.6263 0
M  V30 2544 H 250.352 -1.23592 -1.63053 0
M  V30 2545 H 250.362 -0.704708 -4.01868 0
M  V30 2546 H 249.037 -1.82247 -3.73844 0
M  V30 2547 H 247.614 0.00897528 -3.72899 0
M  V30 2548 N 249.799 1.42003 -0.683588 0
M  V30 2549 C 250.747 2.326 0.000815408 0
M  V30 2550 C 251.741 1.50308 0.781278 0
M  V30 2551 O 252.947 1.66322 0.688251 0
M  V30 2552 H 249.322 0.751758 0.0190616 0
M  V30 2553 H 251.293 2.88011 -0.780528 0
M  V30 2554 C 250.042 3.34978 0.93195 0
M  V30 2555 H 249.365 3.98345 0.340817 0
M  V30 2556 H 250.805 4.00936 1.37936 0
M  V30 2557 C 249.264 2.67925 2.04249 0
M  V30 2558 O 249.794 2.51788 3.12995 0
M  V30 2559 N 248 2.2681 1.81675 0
M  V30 2560 H 247.547 2.40135 0.932363 0
M  V30 2561 H 247.505 1.8228 2.56167 0
M  V30 2562 N 251.277 0.427512 1.51691 0
M  V30 2563 C 252.225 -0.403359 2.29076 0
M  V30 2564 C 253.219 -1.02962 1.34518 0
M  V30 2565 O 254.425 -0.965715 1.51901 0
M  V30 2566 H 250.8 -0.148879 0.737115 0
M  V30 2567 H 252.771 0.270295 2.97173 0
M  V30 2568 C 251.52 -1.49763 3.13794 0
M  V30 2569 H 250.843 -1.02508 3.86435 0
M  V30 2570 H 252.283 -2.05244 3.71014 0
M  V30 2571 C 250.742 -2.47536 2.28533 0
M  V30 2572 O 251.272 -3.51848 1.93819 0
M  V30 2573 N 249.478 -2.18187 1.91945 0
M  V30 2574 H 249.025 -1.33389 2.20375 0
M  V30 2575 H 248.983 -2.83848 1.35195 0
M  V30 2576 N 252.755 -1.56801 0.158532 0
M  V30 2577 C 253.702 -2.17337 -0.776729 0
M  V30 2578 C 254.672 -1.1096 -1.23601 0
M  V30 2579 O 255.857 -1.39054 -1.30647 0
M  V30 2580 C 252.997 -2.80822 -2.00582 0
M  V30 2581 C 252.11 -4.01624 -1.59129 0
M  V30 2582 C 251.245 -4.53072 -2.77306 0
M  V30 2583 C 250.284 -5.66314 -2.32282 0
M  V30 2584 N 249.421 -6.12329 -3.43508 0
M  V30 2585 H 254.261 -2.96918 -0.253701 0
M  V30 2586 H 251.798 -1.46661 -0.113504 0
M  V30 2587 H 253.756 -3.15779 -2.72652 0
M  V30 2588 H 252.386 -2.03866 -2.50277 0
M  V30 2589 H 251.438 -3.72571 -0.767806 0
M  V30 2590 H 252.75 -4.83633 -1.2207 0
M  V30 2591 H 251.904 -4.90145 -3.57551 0
M  V30 2592 H 250.643 -3.70095 -3.17617 0
M  V30 2593 H 249.648 -5.28806 -1.5048 0
M  V30 2594 H 250.873 -6.51085 -1.93043 0
M  V30 2595 H 248.819 -5.32284 -3.83418 0
M  V30 2596 H 248.736 -6.89293 -3.105 0
M  V30 2597 H 250.004 -6.5405 -4.24075 0
M  V30 2598 N 254.233 0.115231 -1.57178 0
M  V30 2599 C 255.463 0.835224 -1.88964 0
M  V30 2600 C 255.871 1.73774 -0.74829 0
M  V30 2601 O 255.214 1.81401 0.289739 0
M  V30 2602 C 255.276 1.7178 -3.15804 0
M  V30 2603 C 254.94 0.989198 -4.46166 0
M  V30 2604 C 255.937 0.328263 -5.18863 0
M  V30 2605 C 253.622 0.969256 -4.9286 0
M  V30 2606 C 255.616 -0.342873 -6.36477 0
M  V30 2607 C 253.303 0.294324 -6.10391 0
M  V30 2608 C 254.301 -0.360582 -6.82048 0
M  V30 2609 O 253.989 -1.02474 -7.97342 0
M  V30 2610 H 253.721 0.245197 -0.629964 0
M  V30 2611 H 256.275 0.10303 -2.05141 0
M  V30 2612 H 254.505 2.49173 -2.95719 0
M  V30 2613 H 256.194 2.31255 -3.33581 0
M  V30 2614 H 256.96 0.335263 -4.8384 0
M  V30 2615 H 252.839 1.46844 -4.36987 0
M  V30 2616 H 256.383 -0.854629 -6.92345 0
M  V30 2617 H 252.28 0.285099 -6.4487 0
M  V30 2618 H 253.048 -0.929594 -8.13204 0
M  V30 2619 N 255.711 1.52812 0.385517 0
M  V30 2620 C 256.674 1.77188 1.45386 0
M  V30 2621 C 257.674 0.641953 1.4743 0
M  V30 2622 O 258.864 0.910033 1.4854 0
M  V30 2623 C 255.996 1.87582 2.8465 0
M  V30 2624 H 257.189 2.72583 1.25054 0
M  V30 2625 H 254.742 1.43586 0.617467 0
M  V30 2626 H 255.477 0.941849 3.10322 0
M  V30 2627 H 255.262 2.69748 2.84567 0
M  V30 2628 H 256.752 2.08102 3.62054 0
M  V30 2629 N 257.189 -0.644168 1.43834 0
M  V30 2630 C 258.152 -1.73857 1.49353 0
M  V30 2631 C 259.152 -1.56315 0.377112 0
M  V30 2632 O 260.342 -1.62048 0.639226 0
M  V30 2633 C 257.474 -3.12819 1.35488 0
M  V30 2634 H 258.667 -1.70342 2.46827 0
M  V30 2635 H 256.22 -0.856652 1.30733 0
M  V30 2636 H 256.955 -3.2194 0.390569 0
M  V30 2637 H 256.74 -3.26958 2.16428 0
M  V30 2638 H 258.23 -3.92606 1.42302 0
M  V30 2639 N 258.668 -1.30515 -0.883378 0
M  V30 2640 C 259.893 -1.22487 -1.67367 0
M  V30 2641 C 260.318 0.208767 -1.86938 0
M  V30 2642 O 259.676 1.15015 -1.40148 0
M  V30 2643 C 259.724 -1.96041 -3.02655 0
M  V30 2644 O 258.828 -1.28859 -3.91751 0
M  V30 2645 H 258.169 -0.423573 -0.511353 0
M  V30 2646 H 260.699 -1.72362 -1.10239 0
M  V30 2647 H 260.709 -2.05124 -3.52687 0
M  V30 2648 H 259.384 -3.00307 -2.8773 0
M  V30 2649 H 257.961 -1.28141 -3.50192 0
M  V30 2650 N 260.146 1.09593 -1.13257 0
M  V30 2651 C 261.371 1.8604 -0.916732 0
M  V30 2652 C 261.796 1.80504 0.529146 0
M  V30 2653 O 261.154 1.18127 1.37534 0
M  V30 2654 C 261.202 3.32017 -1.40703 0
M  V30 2655 O 260.306 4.08141 -0.591153 0
M  V30 2656 H 259.647 0.576943 -0.328683 0
M  V30 2657 H 262.177 1.38405 -1.50682 0
M  V30 2658 H 262.187 3.82865 -1.4099 0
M  V30 2659 H 260.862 3.35361 -2.45979 0
M  V30 2660 H 259.439 3.67084 -0.656005 0
M  V30 2661 N 261.624 0.925811 1.2754 0
M  V30 2662 C 262.854 0.580666 1.98272 0
M  V30 2663 C 263.262 -0.845207 1.69272 0
M  V30 2664 O 262.605 -1.57306 0.948707 0
M  V30 2665 C 262.667 0.724418 3.52126 0
M  V30 2666 C 262.331 2.12206 4.04744 0
M  V30 2667 C 263.328 3.09604 4.17662 0
M  V30 2668 C 261.013 2.4385 4.39138 0
M  V30 2669 C 263.007 4.36755 4.64246 0
M  V30 2670 C 260.694 3.71237 4.85414 0
M  V30 2671 C 261.692 4.67503 4.97926 0
M  V30 2672 O 261.38 5.92624 5.43187 0
M  V30 2673 H 261.112 0.218987 0.639547 0
M  V30 2674 H 263.666 1.24452 1.63404 0
M  V30 2675 H 261.896 0.0034663 3.867 0
M  V30 2676 H 263.585 0.384607 4.04074 0
M  V30 2677 H 264.351 2.86478 3.91351 0
M  V30 2678 H 260.23 1.69665 4.28643 0
M  V30 2679 H 263.774 5.11898 4.73927 0
M  V30 2680 H 259.671 3.94182 5.11166 0
M  V30 2681 H 260.439 5.95585 5.61445 0
M  V30 2682 N 263.102 -1.41638 0.69111 0
M  V30 2683 C 264.032 -2.3347 0.037248 0
M  V30 2684 C 265.013 -1.51575 -0.771947 0
M  V30 2685 O 266.198 -1.80126 -0.72582 0
M  V30 2686 C 263.328 -3.35354 -0.903064 0
M  V30 2687 C 262.282 -4.27526 -0.201288 0
M  V30 2688 C 261.608 -5.19747 -1.25565 0
M  V30 2689 C 262.908 -5.13959 0.929689 0
M  V30 2690 H 264.602 -2.88397 0.804227 0
M  V30 2691 H 262.148 -1.38669 0.388189 0
M  V30 2692 H 264.101 -3.98519 -1.36969 0
M  V30 2693 H 262.825 -2.78767 -1.70166 0
M  V30 2694 H 261.484 -3.65779 0.245265 0
M  V30 2695 H 261.132 -4.59479 -2.04666 0
M  V30 2696 H 260.832 -5.8225 -0.791128 0
M  V30 2697 H 262.356 -5.85789 -1.72288 0
M  V30 2698 H 263.77 -5.70718 0.543546 0
M  V30 2699 H 262.167 -5.85379 1.32103 0
M  V30 2700 H 263.237 -4.51389 1.77133 0
M  V30 2701 N 264.58 -0.43555 -1.51462 0
M  V30 2702 C 265.805 0.132627 -2.06976 0
M  V30 2703 C 266.23 1.35848 -1.30104 0
M  V30 2704 O 265.588 1.78112 -0.338493 0
M  V30 2705 C 265.636 0.43523 -3.57964 0
M  V30 2706 O 264.74 1.52198 -3.83288 0
M  V30 2707 H 264.081 0.00265 -0.663995 0
M  V30 2708 H 266.611 -0.616369 -1.95095 0
M  V30 2709 H 266.621 0.686206 -4.02188 0
M  V30 2710 H 265.296 -0.460739 -4.1334 0
M  V30 2711 H 263.873 1.2611 -3.50928 0
M  V30 2712 N 266.058 1.56714 -0.166846 0
M  V30 2713 C 266.988 2.20754 0.760913 0
M  V30 2714 C 267.969 1.16178 1.24244 0
M  V30 2715 O 269.154 1.44592 1.29641 0
M  V30 2716 C 266.284 2.84478 1.99223 0
M  V30 2717 C 265.238 3.95053 1.64672 0
M  V30 2718 C 264.564 4.45805 2.95232 0
M  V30 2719 C 265.864 5.14865 0.878155 0
M  V30 2720 H 267.558 2.98537 0.22713 0
M  V30 2721 H 265.104 1.43596 0.107805 0
M  V30 2722 H 267.057 3.27951 2.64624 0
M  V30 2723 H 265.781 2.04056 2.55007 0
M  V30 2724 H 264.44 3.52228 1.01641 0
M  V30 2725 H 264.088 3.62181 3.49047 0
M  V30 2726 H 263.788 5.204 2.7287 0
M  V30 2727 H 265.312 4.91962 3.6167 0
M  V30 2728 H 266.726 5.55059 1.43466 0
M  V30 2729 H 265.123 5.95348 0.753738 0
M  V30 2730 H 266.193 4.84735 -0.126377 0
M  V30 2731 N 267.536 -0.106894 1.57237 0
M  V30 2732 C 268.764 -0.826389 1.8968 0
M  V30 2733 C 269.179 -1.72856 0.759353 0
M  V30 2734 O 268.536 -1.80503 -0.269263 0
M  V30 2735 C 268.587 -1.64967 3.21665 0
M  V30 2736 O 268.308 -0.783804 4.31031 0
M  V30 2737 C 269.809 -2.47326 3.67892 0
M  V30 2738 H 267.029 -0.236927 0.627779 0
M  V30 2739 H 269.573 -0.0876593 2.04312 0
M  V30 2740 H 267.728 -2.34103 3.08666 0
M  V30 2741 H 268.142 -1.35284 5.06753 0
M  V30 2742 H 269.616 -3.00604 4.6297 0
M  V30 2743 H 270.093 -3.25247 2.95146 0
M  V30 2744 H 270.699 -1.83411 3.83719 0
M  V30 2745 N 269.014 -1.53014 -0.377408 0
M  V30 2746 C 270.425 -1.60438 -0.954798 0
M  V30 2747 C 270.776 -0.464418 -1.90624 0
M  V30 2748 O 269.901 0.41087 -2.12464 0
M  V30 2749 C 270.496 -2.90797 -1.73847 0
M  V30 2750 C 269.055 -3.00595 -2.26538 0
M  V30 2751 C 268.202 -2.55645 -1.07429 0
M  V30 2752 H 271.153 -1.57926 -0.156575 0
M  V30 2753 H 271.174 -2.77935 -2.5987 0
M  V30 2754 H 270.686 -3.73746 -1.04574 0
M  V30 2755 H 268.787 -2.22208 -2.99089 0
M  V30 2756 H 268.9 -4.05456 -2.5523 0
M  V30 2757 H 267.264 -2.10239 -1.43777 0
M  V30 2758 H 268.047 -3.41 -0.396728 0
M  V30 2759 N 270.492 0.636531 -1.44174 0
M  V30 2760 C 271.402 1.77754 -1.53103 0
M  V30 2761 C 272.418 1.68928 -0.417034 0
M  V30 2762 O 273.594 1.89801 -0.6736 0
M  V30 2763 C 270.659 3.14115 -1.46741 0
M  V30 2764 C 269.72 3.34612 -2.68948 0
M  V30 2765 C 268.953 4.64467 -2.6288 0
M  V30 2766 O 269.176 5.44919 -1.68581 0
M  V30 2767 O 268.11 4.87049 -3.53648 0
M  V30 2768 H 271.936 1.73174 -2.49489 0
M  V30 2769 H 269.521 0.79709 -1.2636 0
M  V30 2770 H 271.403 3.95412 -1.45696 0
M  V30 2771 H 270.078 3.19249 -0.534975 0
M  V30 2772 H 268.985 2.53014 -2.75562 0
M  V30 2773 H 270.318 3.34336 -3.61221 0
M  V30 2774 N 271.97 1.30982 0.876444 0
M  V30 2775 C 272.902 1.13902 1.98894 0
M  V30 2776 C 273.915 0.0798815 1.62604 0
M  V30 2777 O 275.104 0.326743 1.75484 0
M  V30 2778 C 272.204 0.716699 3.31235 0
M  V30 2779 C 271.377 1.85945 3.95908 0
M  V30 2780 C 270.436 1.42426 5.06558 0
M  V30 2781 O 269.462 2.13287 5.27729 0
M  V30 2782 N 270.664 0.308025 5.79682 0
M  V30 2783 H 273.429 2.09724 2.14094 0
M  V30 2784 H 270.99 1.2323 1.05004 0
M  V30 2785 H 272.982 0.408403 4.02634 0
M  V30 2786 H 271.552 -0.149719 3.12241 0
M  V30 2787 H 270.772 2.33541 3.17573 0
M  V30 2788 H 272.06 2.62503 4.35855 0
M  V30 2789 H 271.458 -0.282241 5.64995 0
M  V30 2790 H 270.015 0.0592282 6.51773 0
M  V30 2791 N 273.449 -1.08991 1.13837 0
M  V30 2792 C 274.695 -1.81699 0.91417 0
M  V30 2793 C 275.05 -1.84264 -0.553594 0
M  V30 2794 O 274.343 -1.30313 -1.4046 0
M  V30 2795 C 274.537 -3.27042 1.44147 0
M  V30 2796 C 274.366 -3.38637 2.95897 0
M  V30 2797 C 273.136 -3.50177 3.64286 0
M  V30 2798 C 275.334 -3.30791 3.93804 0
M  V30 2799 N 273.316 -3.50501 5.04006 0
M  V30 2800 C 274.687 -3.38037 5.19741 0
M  V30 2801 C 276.742 -3.14488 3.86007 0
M  V30 2802 C 275.445 -3.30659 6.38793 0
M  V30 2803 C 277.471 -3.08438 5.04599 0
M  V30 2804 C 276.833 -3.1628 6.29402 0
M  V30 2805 H 272.932 -0.678967 0.387979 0
M  V30 2806 H 275.516 -1.30224 1.4474 0
M  V30 2807 H 273.687 -3.76976 0.935091 0
M  V30 2808 H 275.419 -3.87785 1.1578 0
M  V30 2809 H 272.174 -3.53815 3.1482 0
M  V30 2810 H 272.598 -3.54236 5.76928 0
M  V30 2811 H 277.24 -3.07291 2.90399 0
M  V30 2812 H 274.958 -3.36618 7.34652 0
M  V30 2813 H 278.544 -2.96952 5.0031 0
M  V30 2814 H 277.424 -3.1162 7.19627 0
M  V30 2815 N 274.927 -0.932562 -1.27047 0
M  V30 2816 C 276.343 -0.633544 -1.46487 0
M  V30 2817 C 276.543 0.815746 -1.84249 0
M  V30 2818 O 275.599 1.59319 -1.95892 0
M  V30 2819 C 276.912 -1.58758 -2.55375 0
M  V30 2820 C 278.46 -1.59634 -2.69232 0
M  V30 2821 C 278.935 -2.53747 -3.81283 0
M  V30 2822 N 280.426 -2.51982 -3.88664 0
M  V30 2823 C 281.161 -3.21491 -4.74796 0
M  V30 2824 N 280.657 -4.00395 -5.65381 0
M  V30 2825 N 282.45 -3.10485 -4.68568 0
M  V30 2826 H 274.601 -1.86946 -1.00821 0
M  V30 2827 H 276.864 -0.802897 -0.504044 0
M  V30 2828 H 276.57 -2.62172 -2.34432 0
M  V30 2829 H 276.444 -1.33301 -3.52861 0
M  V30 2830 H 278.831 -0.569488 -2.89553 0
M  V30 2831 H 278.912 -1.89142 -1.72218 0
M  V30 2832 H 278.556 -3.56545 -3.61715 0
M  V30 2833 H 278.486 -2.21532 -4.77735 0
M  V30 2834 H 280.977 -1.94681 -3.23895 0
M  V30 2835 H 281.29 -4.50406 -6.27976 0
M  V30 2836 H 279.635 -4.04498 -5.65161 0
M  V30 2837 H 282.826 -2.48331 -3.96799 0
M  V30 2838 H 282.999 -3.64925 -5.35475 0
M  V30 2839 N 276.405 1.4127 -0.698611 0
M  V30 2840 C 277.63 2.06024 -0.238512 0
M  V30 2841 C 278.055 1.5224 1.10475 0
M  V30 2842 O 277.413 0.650623 1.69223 0
M  V30 2843 C 277.461 3.59988 -0.209952 0
M  V30 2844 O 276.565 4.04282 0.814235 0
M  V30 2845 H 275.906 0.653829 -0.115775 0
M  V30 2846 H 278.436 1.8098 -0.954326 0
M  V30 2847 H 278.446 4.07979 -0.0418436 0
M  V30 2848 H 277.121 3.98503 -1.1903 0
M  V30 2849 H 275.698 3.6779 0.615234 0
M  V30 2850 N 277.883 0.443576 1.51229 0
M  V30 2851 C 279.299 0.0962001 1.5931 0
M  V30 2852 C 279.499 -1.39501 1.45402 0
M  V30 2853 O 278.555 -2.16557 1.29843 0
M  V30 2854 C 279.868 0.621875 2.94199 0
M  V30 2855 C 281.416 0.582865 3.07525 0
M  V30 2856 C 281.891 1.08562 4.44948 0
M  V30 2857 N 283.382 1.04387 4.51284 0
M  V30 2858 C 284.117 1.40368 5.55954 0
M  V30 2859 N 283.613 1.83664 6.68011 0
M  V30 2860 N 285.406 1.32145 5.46346 0
M  V30 2861 H 277.557 1.41376 1.58514 0
M  V30 2862 H 279.82 0.582965 0.747567 0
M  V30 2863 H 279.526 1.66546 3.09767 0
M  V30 2864 H 279.4 0.0502125 3.77167 0
M  V30 2865 H 281.787 -0.451749 2.91622 0
M  V30 2866 H 281.868 1.191 2.26382 0
M  V30 2867 H 281.512 2.11873 4.61598 0
M  V30 2868 H 281.442 0.453956 5.2464 0
M  V30 2869 H 283.933 0.725986 3.70861 0
M  V30 2870 H 284.246 2.0934 7.43906 0
M  V30 2871 H 282.591 1.87596 6.69203 0
M  V30 2872 H 285.782 0.981808 4.57688 0
M  V30 2873 H 285.955 1.60514 6.27805 0
M  V30 2874 N 279.361 -1.56624 0.175154 0
M  V30 2875 C 280.777 -1.58571 -0.180966 0
M  V30 2876 C 280.977 -1.19065 -1.6256 0
M  V30 2877 O 280.033 -0.904044 -2.35761 0
M  V30 2878 C 281.346 -3.00522 0.103326 0
M  V30 2879 C 282.894 -3.12972 0.0418426 0
M  V30 2880 C 283.369 -4.57022 0.299175 0
M  V30 2881 N 284.86 -4.62541 0.247086 0
M  V30 2882 C 285.595 -5.71857 0.420318 0
M  V30 2883 N 285.091 -6.89717 0.652816 0
M  V30 2884 N 286.884 -5.60972 0.355957 0
M  V30 2885 H 279.035 -1.80589 1.11809 0
M  V30 2886 H 281.298 -0.837178 0.444788 0
M  V30 2887 H 281.004 -3.33916 1.10422 0
M  V30 2888 H 280.878 -3.72344 -0.603299 0
M  V30 2889 H 283.265 -2.79403 -0.949636 0
M  V30 2890 H 283.346 -2.43578 0.781238 0
M  V30 2891 H 282.99 -4.913 1.28788 0
M  V30 2892 H 282.92 -5.24579 -0.460876 0
M  V30 2893 H 285.411 -3.77829 0.0731895 0
M  V30 2894 H 285.724 -7.68911 0.774347 0
M  V30 2895 H 284.069 -6.91572 0.689476 0
M  V30 2896 H 287.26 -4.67773 0.174882 0
M  V30 2897 H 287.433 -6.46111 0.494388 0
M  V30 2898 N 280.839 0.0985539 -1.57292 0
M  V30 2899 C 282.064 0.820196 -1.90493 0
M  V30 2900 C 282.489 1.71658 -0.769094 0
M  V30 2901 O 281.847 1.79133 0.279495 0
M  V30 2902 C 281.895 1.61242 -3.22542 0
M  V30 2903 O 280.999 2.72108 -3.09888 0
M  V30 2904 H 280.34 0.225547 -0.62452 0
M  V30 2905 H 282.87 0.0748159 -2.04463 0
M  V30 2906 H 282.88 1.99737 -3.55766 0
M  V30 2907 H 281.555 0.954535 -4.04798 0
M  V30 2908 H 280.132 2.36667 -2.88172 0
M  V30 2909 N 282.317 1.53212 0.369288 0
M  V30 2910 C 283.547 1.72868 1.13139 0
M  V30 2911 C 283.955 0.455754 1.83629 0
M  V30 2912 O 283.298 -0.580861 1.74275 0
M  V30 2913 C 283.36 2.83667 2.20847 0
M  V30 2914 C 283.024 4.24142 1.70155 0
M  V30 2915 C 284.021 5.06619 1.16763 0
M  V30 2916 C 281.706 4.70539 1.7578 0
M  V30 2917 C 283.7 6.33581 0.696678 0
M  V30 2918 C 281.387 5.97481 1.28297 0
M  V30 2919 C 282.385 6.78833 0.753307 0
M  V30 2920 O 282.073 8.03393 0.285475 0
M  V30 2921 H 281.805 0.581707 0.344373 0
M  V30 2922 H 284.359 2.00736 0.435243 0
M  V30 2923 H 282.589 2.51265 2.93944 0
M  V30 2924 H 284.278 2.91536 2.82421 0
M  V30 2925 H 285.044 4.71948 1.11758 0
M  V30 2926 H 280.923 4.07293 2.15949 0
M  V30 2927 H 284.467 6.97027 0.282581 0
M  V30 2928 H 280.364 6.31651 1.32994 0
M  V30 2929 H 281.132 8.17497 0.405145 0
M  V30 2930 N 283.795 -0.628877 1.44509 0
M  V30 2931 C 285.02 -1.42048 1.5112 0
M  V30 2932 C 285.445 -1.87594 0.137818 0
M  V30 2933 O 284.803 -1.58873 -0.873437 0
M  V30 2934 C 284.851 -2.61541 2.48251 0
M  V30 2935 O 283.955 -3.61453 1.98559 0
M  V30 2936 H 283.296 -0.424942 0.510216 0
M  V30 2937 H 285.826 -0.767374 1.89664 0
M  V30 2938 H 285.836 -3.09057 2.66361 0
M  V30 2939 H 284.511 -2.27736 3.48007 0
M  V30 2940 H 283.088 -3.20731 1.90227 0
M  V30 2941 N 285.273 -1.31445 -0.869486 0
M  V30 2942 C 286.513 -1.22458 -1.63656 0
M  V30 2943 C 286.877 0.213846 -1.90805 0
M  V30 2944 O 288.078 0.427212 -2.65383 0
M  V30 2945 C 286.349 -2.04564 -2.93067 0
M  V30 2946 S 287.908 -2.12445 -3.83944 0
M  V30 2947 H 284.726 -0.436145 -0.561514 0
M  V30 2948 H 287.328 -1.66114 -1.03085 0
M  V30 2949 H 286.032 -3.0816 -2.71045 0
M  V30 2950 H 285.563 -1.6163 -3.58663 0
M  V30 2951 H 287.578 -1.26312 -4.79854 0
M  V30 2952 N 286.751 1.08385 -1.14413 0
M  V30 2953 C 287.683 2.1519 -0.789036 0
M  V30 2954 C 288.696 1.61638 0.19417 0
M  V30 2955 O 289.885 1.78479 -0.0275711 0
M  V30 2956 C 286.985 3.38565 -0.15058 0
M  V30 2957 C 286.158 4.21501 -1.16857 0
M  V30 2958 C 285.217 5.23277 -0.553832 0
M  V30 2959 O 284.243 5.56041 -1.21686 0
M  V30 2960 N 285.445 5.76629 0.669296 0
M  V30 2961 H 288.21 2.46257 -1.70814 0
M  V30 2962 H 285.771 1.24198 -1.03858 0
M  V30 2963 H 287.763 4.03777 0.273181 0
M  V30 2964 H 286.333 3.05299 0.671667 0
M  V30 2965 H 285.553 3.52265 -1.76926 0
M  V30 2966 H 286.841 4.73731 -1.85624 0
M  V30 2967 H 286.239 5.52243 1.22654 0
M  V30 2968 H 284.796 6.43521 1.03556 0
M  V30 2969 N 288.23 0.939286 1.26551 0
M  V30 2970 C 289.476 0.586715 1.94128 0
M  V30 2971 C 289.809 -0.8717 1.73537 0
M  V30 2972 O 289.084 -1.62339 1.07127 0
M  V30 2973 C 289.367 0.927497 3.4795 0
M  V30 2974 C 289.22 2.44052 3.77834 0
M  V30 2975 C 290.539 0.441569 4.37879 0
M  V30 2976 H 287.658 0.21463 0.705055 0
M  V30 2977 H 290.3 1.17316 1.49455 0
M  V30 2978 H 288.45 0.428431 3.8613 0
M  V30 2979 H 290.122 3.01216 3.4938 0
M  V30 2980 H 288.365 2.8848 3.23978 0
M  V30 2981 H 289.036 2.62947 4.85348 0
M  V30 2982 H 291.512 0.869448 4.06915 0
M  V30 2983 H 290.388 0.708856 5.44304 0
M  V30 2984 H 290.649 -0.658467 4.37169 0
M  V30 2985 N 289.708 -1.40897 0.706093 0
M  V30 2986 C 290.641 -2.282 -0.00328781 0
M  V30 2987 C 291.619 -1.42816 -0.77732 0
M  V30 2988 O 292.803 -1.72237 -0.765944 0
M  V30 2989 C 289.93 -3.23226 -1.01205 0
M  V30 2990 C 288.976 -4.25222 -0.329955 0
M  V30 2991 S 289.809 -5.27269 0.935298 0
M  V30 2992 C 290.965 -6.25859 -0.0716061 0
M  V30 2993 H 291.198 -2.88016 0.737143 0
M  V30 2994 H 288.731 -1.46191 0.496756 0
M  V30 2995 H 290.689 -3.78503 -1.58888 0
M  V30 2996 H 289.35 -2.62485 -1.72513 0
M  V30 2997 H 288.543 -4.92023 -1.09221 0
M  V30 2998 H 288.145 -3.73595 0.174069 0
M  V30 2999 H 290.437 -6.71204 -0.921521 0
M  V30 3000 H 291.38 -7.0586 0.562765 0
M  V30 3001 H 291.788 -5.62852 -0.431088 0
M  V30 3002 N 291.186 -0.45159 -1.50991 0
M  V30 3003 C 292.136 0.370861 -2.24964 0
M  V30 3004 C 293.12 0.978074 -1.2776 0
M  V30 3005 O 294.312 0.893854 -1.52772 0
M  V30 3006 C 291.441 1.46344 -3.10545 0
M  V30 3007 C 290.527 0.864924 -4.15187 0
M  V30 3008 N 290.918 -0.00311354 -5.058 0
M  V30 3009 C 289.216 1.13099 -4.31422 0
M  V30 3010 C 289.917 -0.340772 -5.80701 0
M  V30 3011 N 288.893 0.279203 -5.42883 0
M  V30 3012 H 292.695 -0.298134 -2.92384 0
M  V30 3013 H 290.209 -0.264528 -1.60231 0
M  V30 3014 H 292.206 2.06565 -3.62128 0
M  V30 3015 H 290.866 2.13463 -2.4467 0
M  V30 3016 H 291.877 -0.37058 -5.16572 0
M  V30 3017 H 288.554 1.79861 -3.76771 0
M  V30 3018 H 289.944 -1.048 -6.63677 0
M  V30 3019 N 292.664 1.56529 -0.183458 0
M  V30 3020 C 293.574 2.22144 0.754272 0
M  V30 3021 C 294.59 1.21684 1.24374 0
M  V30 3022 O 295.766 1.54385 1.29333 0
M  V30 3023 C 292.831 2.85884 1.96141 0
M  V30 3024 C 291.892 4.01579 1.51765 0
M  V30 3025 C 291.125 4.6227 2.66725 0
M  V30 3026 O 291.348 4.21865 3.83909 0
M  V30 3027 O 290.282 5.51936 2.40104 0
M  V30 3028 H 294.108 3.02861 0.225527 0
M  V30 3029 H 291.693 1.49331 0.0453032 0
M  V30 3030 H 293.575 3.26253 2.66715 0
M  V30 3031 H 292.25 2.08154 2.47899 0
M  V30 3032 H 291.157 3.65856 0.781049 0
M  V30 3033 H 292.49 4.80938 1.04686 0
M  V30 3034 N 294.142 -0.090211 1.57342 0
M  V30 3035 C 295.39 -0.791241 1.85967 0
M  V30 3036 C 295.711 -1.7903 0.772859 0
M  V30 3037 O 294.981 -1.94872 -0.200398 0
M  V30 3038 H 293.561 -0.295205 0.686195 0
M  V30 3039 H 296.223 -0.0706782 1.94772 0
M  V30 3040 H 295.319 -1.31882 2.82867 0
M  V30 3041 N 295.62 -1.53406 -0.361157 0
M  V30 3042 C 296.845 -1.74024 -1.12829 0
M  V30 3043 C 297.27 -0.470069 -1.82132 0
M  V30 3044 O 296.628 0.57619 -1.719 0
M  V30 3045 C 296.676 -2.90903 -2.13091 0
M  V30 3046 O 295.78 -2.59821 -3.20261 0
M  V30 3047 H 295.121 -0.577804 -0.327168 0
M  V30 3048 H 297.651 -2.00307 -0.41693 0
M  V30 3049 H 297.661 -3.17194 -2.56616 0
M  V30 3050 H 296.336 -3.83034 -1.62042 0
M  V30 3051 H 294.913 -2.44362 -2.81677 0
M  V30 3052 N 297.098 0.621204 -1.44841 0
M  V30 3053 C 298.326 1.40752 -1.51646 0
M  V30 3054 C 298.741 1.88246 -0.144549 0
M  V30 3055 O 298.098 1.61422 0.851416 0
M  V30 3056 C 298.149 2.62119 -2.4895 0
M  V30 3057 O 297.87 2.16602 -3.80808 0
M  V30 3058 C 299.371 3.55135 -2.65319 0
M  V30 3059 H 296.591 0.431325 -0.514004 0
M  V30 3060 H 299.135 0.758835 -1.899 0
M  V30 3061 H 297.29 3.23058 -2.13805 0
M  V30 3062 H 297.704 2.95358 -4.33433 0
M  V30 3063 H 299.178 4.36874 -3.37409 0
M  V30 3064 H 299.655 4.04592 -1.70886 0
M  V30 3065 H 300.261 3.00058 -3.01405 0
M  V30 3066 N 298.576 1.31904 0.862503 0
M  V30 3067 C 299.822 1.22197 1.61851 0
M  V30 3068 C 300.155 -0.217641 1.92977 0
M  V30 3069 O 299.43 -1.15264 1.56666 0
M  V30 3070 C 299.713 2.07378 2.94391 0
M  V30 3071 C 299.566 3.59678 2.70096 0
M  V30 3072 C 300.885 1.92891 3.95577 0
M  V30 3073 H 298.004 0.445255 0.587296 0
M  V30 3074 H 300.646 1.6177 0.99651 0
M  V30 3075 H 298.796 1.73758 3.47477 0
M  V30 3076 H 300.468 4.03472 2.23625 0
M  V30 3077 H 298.711 3.82735 2.04197 0
M  V30 3078 H 299.382 4.14595 3.64438 0
M  V30 3079 H 301.858 2.22327 3.51724 0
M  V30 3080 H 300.734 2.54781 4.86187 0
M  V30 3081 H 300.995 0.894315 4.3296 0
M  V30 3082 N 300.054 -1.07777 1.14986 0
M  V30 3083 C 300.964 -2.18404 0.856546 0
M  V30 3084 C 301.98 -1.73211 -0.165485 0
M  V30 3085 O 303.156 -2.01399 0.00755219 0
M  V30 3086 C 300.221 -3.44977 0.34526 0
M  V30 3087 C 299.282 -4.0476 1.43065 0
M  V30 3088 C 298.515 -5.25291 0.943663 0
M  V30 3089 O 298.738 -5.70004 -0.212426 0
M  V30 3090 O 297.672 -5.76638 1.72547 0
M  V30 3091 H 301.498 -2.45978 1.78125 0
M  V30 3092 H 299.083 -1.17033 0.928631 0
M  V30 3093 H 300.965 -4.21348 0.0663671 0
M  V30 3094 H 299.64 -3.18965 -0.551631 0
M  V30 3095 H 298.547 -3.29949 1.76309 0
M  V30 3096 H 299.88 -4.35035 2.30229 0
M  V30 3097 N 301.532 -0.945985 -1.26051 0
M  V30 3098 C 302.479 -0.45809 -2.26208 0
M  V30 3099 C 303.449 0.484816 -1.58867 0
M  V30 3100 O 304.634 0.399969 -1.86561 0
M  V30 3101 C 301.774 0.266131 -3.44072 0
M  V30 3102 C 300.887 -0.713005 -4.26075 0
M  V30 3103 C 300.022 0.0329013 -5.3119 0
M  V30 3104 C 299.061 -0.93774 -6.04874 0
M  V30 3105 N 298.198 -0.223274 -7.01745 0
M  V30 3106 H 303.038 -1.3171 -2.67313 0
M  V30 3107 H 300.575 -0.66069 -1.31428 0
M  V30 3108 H 302.533 0.702514 -4.11243 0
M  V30 3109 H 301.163 1.08925 -3.03867 0
M  V30 3110 H 300.215 -1.26789 -3.58648 0
M  V30 3111 H 301.527 -1.45406 -4.77136 0
M  V30 3112 H 300.681 0.528335 -6.04395 0
M  V30 3113 H 299.42 0.806801 -4.8098 0
M  V30 3114 H 298.425 -1.44425 -5.30492 0
M  V30 3115 H 299.65 -1.71172 -6.57173 0
M  V30 3116 H 297.596 0.532046 -6.53839 0
M  V30 3117 H 297.513 -0.90357 -7.50581 0
M  V30 3118 H 298.781 0.250907 -7.79096 0
M  V30 3119 N 303.011 1.40521 -0.713556 0
M  V30 3120 C 304.239 2.05237 -0.261775 0
M  V30 3121 C 304.654 1.53755 1.09567 0
M  V30 3122 O 304.011 0.693268 1.6882 0
M  V30 3123 C 304.062 3.60763 -0.230706 0
M  V30 3124 O 303.783 4.10345 -1.53455 0
M  V30 3125 C 305.284 4.42651 0.239874 0
M  V30 3126 H 302.504 0.660533 -0.118057 0
M  V30 3127 H 305.048 1.79967 -0.971192 0
M  V30 3128 H 303.203 3.8501 0.429661 0
M  V30 3129 H 303.617 5.04526 -1.43366 0
M  V30 3130 H 305.091 5.51599 0.210468 0
M  V30 3131 H 305.568 4.20082 1.28171 0
M  V30 3132 H 306.174 4.23507 -0.390142 0
M  V30 3133 N 304.489 0.459591 1.5075 0
M  V30 3134 C 305.735 -0.0994966 2.02556 0
M  V30 3135 C 306.068 -1.40399 1.3417 0
M  V30 3136 O 305.343 -1.88892 0.463683 0
M  V30 3137 C 305.626 -0.295242 3.58888 0
M  V30 3138 C 305.479 1.02947 4.37861 0
M  V30 3139 C 306.798 -1.05502 4.27267 0
M  V30 3140 H 303.917 -0.034686 0.736183 0
M  V30 3141 H 306.559 0.602938 1.8018 0
M  V30 3142 H 304.709 -0.893563 3.78084 0
M  V30 3143 H 306.381 1.66348 4.30263 0
M  V30 3144 H 304.624 1.62885 4.02058 0
M  V30 3145 H 305.295 0.846281 5.45474 0
M  V30 3146 H 307.771 -0.547993 4.12476 0
M  V30 3147 H 306.647 -1.16077 5.36486 0
M  V30 3148 H 306.908 -2.08875 3.89645 0
M  V30 3149 N 305.967 -1.56429 0.191757 0
M  V30 3150 C 306.93 -2.17707 -0.716688 0
M  V30 3151 C 307.93 -1.13061 -1.14341 0
M  V30 3152 O 309.12 -1.38464 -1.05704 0
M  V30 3153 C 306.252 -2.77644 -1.97804 0
M  V30 3154 H 307.445 -2.99342 -0.1829 0
M  V30 3155 H 304.998 -1.56193 -0.0578566 0
M  V30 3156 H 305.733 -1.99799 -2.55443 0
M  V30 3157 H 305.518 -3.54246 -1.68083 0
M  V30 3158 H 307.008 -3.24708 -2.62592 0
M  V30 3159 N 307.445 0.0818655 -1.57387 0
M  V30 3160 C 308.856 0.634871 -1.75574 0
M  V30 3161 C 309.207 1.78435 -0.815809 0
M  V30 3162 O 308.332 2.164 0.0025366 0
M  V30 3163 C 308.927 1.15845 -3.18379 0
M  V30 3164 C 307.486 1.65741 -3.37945 0
M  V30 3165 C 306.633 0.572549 -2.71325 0
M  V30 3166 H 309.584 -0.144268 -1.58043 0
M  V30 3167 H 309.605 2.02751 -3.21982 0
M  V30 3168 H 309.117 0.321631 -3.86765 0
M  V30 3169 H 307.218 2.51781 -2.74658 0
M  V30 3170 H 307.331 1.74129 -4.46336 0
M  V30 3171 H 305.695 1.01518 -2.33594 0
M  V30 3172 H 306.478 -0.253918 -3.4236 0
M  V30 3173 N 308.923 1.53595 0.353017 0
M  V30 3174 C 309.886 1.80232 1.41594 0
M  V30 3175 C 310.886 0.673081 1.46035 0
M  V30 3176 O 312.076 0.941335 1.46576 0
M  V30 3177 C 309.208 1.93578 2.80607 0
M  V30 3178 H 310.401 2.75174 1.19244 0
M  V30 3179 H 307.954 1.44864 0.586872 0
M  V30 3180 H 308.689 1.00746 3.08254 0
M  V30 3181 H 308.474 2.75724 2.78781 0
M  V30 3182 H 309.964 2.15735 3.57558 0
M  V30 3183 N 310.401 -0.613514 1.45168 0
M  V30 3184 C 311.311 -1.75296 1.55912 0
M  V30 3185 C 312.327 -1.68244 0.443856 0
M  V30 3186 O 313.503 -1.88706 0.70371 0
M  V30 3187 C 310.568 -3.1174 1.5172 0
M  V30 3188 C 309.629 -3.30291 2.74238 0
M  V30 3189 C 308.862 -4.60226 2.70236 0
M  V30 3190 O 309.085 -5.42168 1.77229 0
M  V30 3191 O 308.019 -4.81361 3.61352 0
M  V30 3192 H 311.845 -1.69183 2.52212 0
M  V30 3193 H 309.43 -0.776886 1.27612 0
M  V30 3194 H 311.312 -3.93044 1.51968 0
M  V30 3195 H 309.987 -3.18357 0.585697 0
M  V30 3196 H 308.894 -2.48598 2.79553 0
M  V30 3197 H 310.227 -3.28547 3.66494 0
M  V30 3198 N 311.879 -1.3236 -0.855495 0
M  V30 3199 C 313.119 -1.24187 -1.62348 0
M  V30 3200 C 313.483 0.193597 -1.91021 0
M  V30 3201 O 314.684 0.39904 -2.65822 0
M  V30 3202 C 312.955 -2.07661 -2.90881 0
M  V30 3203 S 314.514 -2.16505 -3.81669 0
M  V30 3204 H 311.332 -0.442076 -0.556857 0
M  V30 3205 H 313.934 -1.67198 -1.01317 0
M  V30 3206 H 312.638 -3.11018 -2.67761 0
M  V30 3207 H 312.169 -1.65425 -3.56929 0
M  V30 3208 H 314.184 -1.31394 -4.78487 0
M  V30 3209 N 313.357 1.07166 -1.15556 0
M  V30 3210 C 314.582 1.84053 -0.955988 0
M  V30 3211 C 315.007 1.81586 0.490739 0
M  V30 3212 O 314.365 1.21018 1.34997 0
M  V30 3213 C 314.413 3.28957 -1.47714 0
M  V30 3214 O 313.517 4.06795 -0.677593 0
M  V30 3215 H 312.858 0.569842 -0.340847 0
M  V30 3216 H 315.388 1.35178 -1.53584 0
M  V30 3217 H 315.398 3.79788 -1.4908 0
M  V30 3218 H 314.073 3.30068 -2.53037 0
M  V30 3219 H 312.65 3.6561 -0.733721 0
M  V30 3220 O 314.874 1.08282 1.19822 0
M  V30 3221 H 315.565 0.773615 1.77581 0
M  V30 END ATOM
M  V30 BEGIN BOND
M  V30 END BOND
M  V30 END CTAB
M  END
$$$$
